310932686
  -OEChem-07211613022D

 37 40  0     0  0  0  0  0  0999 V2000
    4.5620   -6.8830    0.0000 O   0  0  0  0  0  0  0  0  0  0  0  0
    4.4819   -2.4811    0.0000 N   0  3  0  0  0  0  0  0  0  0  0  0
    0.8003   -6.2027    0.0000 N   0  0  0  0  0  0  0  0  0  0  0  0
    5.9226   -7.3632    0.0000 N   0  0  0  0  0  0  0  0  0  0  0  0
    6.7229   -7.1631    0.0000 N   0  0  0  0  0  0  0  0  0  0  0  0
    3.3214   -1.8008    0.0000 C   0  0  0  0  0  0  0  0  0  0  0  0
    3.9217   -1.2405    0.0000 C   0  0  0  0  0  0  0  0  0  0  0  0
    3.6416   -2.5611    0.0000 C   0  0  0  0  0  0  0  0  0  0  0  0
    1.9609   -5.5224    0.0000 C   0  0  0  0  0  0  0  0  0  0  0  0
    4.6820   -1.6807    0.0000 C   0  0  0  0  0  0  0  0  0  0  0  0
    2.1609   -6.3628    0.0000 C   0  0  0  0  0  0  0  0  0  0  0  0
    1.1205   -5.4424    0.0000 C   0  0  0  0  0  0  0  0  0  0  0  0
    1.4406   -6.7629    0.0000 C   0  0  0  0  0  0  0  0  0  0  0  0
    3.9617   -0.4002    0.0000 C   0  0  0  0  0  0  0  0  0  0  0  0
    5.4024   -1.2405    0.0000 C   0  0  0  0  0  0  0  0  0  0  0  0
    3.2414   -3.2814    0.0000 C   0  0  0  0  0  0  0  0  0  0  0  0
    2.8812   -6.7629    0.0000 C   0  0  0  0  0  0  0  0  0  0  0  0
    5.0422   -3.0813    0.0000 C   0  0  0  0  0  0  0  0  0  0  0  0
    2.5211   -1.6407    0.0000 C   0  0  0  0  0  0  0  0  0  0  0  0
    2.8012   -2.4411    0.0000 C   0  0  0  0  0  0  0  0  0  0  0  0
    0.7203   -4.7220    0.0000 C   0  0  0  0  0  0  0  0  0  0  0  0
    1.4406   -7.6033    0.0000 C   0  0  0  0  0  0  0  0  0  0  0  0
    2.5211   -4.9221    0.0000 C   0  0  0  0  0  0  0  0  0  0  0  0
    2.7612   -5.7225    0.0000 C   0  0  0  0  0  0  0  0  0  0  0  0
    4.6420    0.0000    0.0000 C   0  0  0  0  0  0  0  0  0  0  0  0
    5.4024   -0.4402    0.0000 C   0  0  0  0  0  0  0  0  0  0  0  0
    0.0000   -6.4028    0.0000 C   0  0  0  0  0  0  0  0  0  0  0  0
    2.8812   -7.6033    0.0000 C   0  0  0  0  0  0  0  0  0  0  0  0
    2.1609   -8.0035    0.0000 C   0  0  0  0  0  0  0  0  0  0  0  0
    2.4010   -3.2814    0.0000 C   0  0  0  0  0  0  0  0  0  0  0  0
    1.1205   -4.0017    0.0000 C   0  0  0  0  0  0  0  0  0  0  0  0
    4.7621   -3.8817    0.0000 C   0  0  0  0  0  0  0  0  0  0  0  0
    1.9609   -4.0017    0.0000 C   0  0  0  0  0  0  0  0  0  0  0  0
    5.3223   -4.5220    0.0000 C   0  0  0  0  0  0  0  0  0  0  0  0
    5.0822   -5.3223    0.0000 C   0  0  0  0  0  0  0  0  0  0  0  0
    5.6425   -5.9226    0.0000 C   0  0  0  0  0  0  0  0  0  0  0  0
    5.3623   -6.7229    0.0000 C   0  0  0  0  0  0  0  0  0  0  0  0
  1 37  2  0  0  0  0
  2  8  2  0  0  0  0
  2 10  1  0  0  0  0
  2 18  1  0  0  0  0
  3 12  1  0  0  0  0
  3 13  1  0  0  0  0
  3 27  1  0  0  0  0
  4  5  1  0  0  0  0
  4 37  1  0  0  0  0
  6  7  1  0  0  0  0
  6  8  1  0  0  0  0
  6 19  1  0  0  0  0
  6 20  1  0  0  0  0
  7 10  2  0  0  0  0
  7 14  1  0  0  0  0
  8 16  1  0  0  0  0
  9 11  1  0  0  0  0
  9 12  1  0  0  0  0
  9 23  1  0  0  0  0
  9 24  1  0  0  0  0
 10 15  1  0  0  0  0
 11 13  2  0  0  0  0
 11 17  1  0  0  0  0
 12 21  2  0  0  0  0
 13 22  1  0  0  0  0
 14 25  2  0  0  0  0
 15 26  2  0  0  0  0
 16 30  2  0  0  0  0
 17 28  2  0  0  0  0
 18 32  1  0  0  0  0
 21 31  1  0  0  0  0
 22 29  2  0  0  0  0
 25 26  1  0  0  0  0
 28 29  1  0  0  0  0
 30 33  1  0  0  0  0
 31 33  2  0  0  0  0
 32 34  1  0  0  0  0
 34 35  1  0  0  0  0
 35 36  1  0  0  0  0
 36 37  1  0  0  0  0
M  CHG  1   2   1
M  END
> <PUBCHEM_COMPOUND_ID_TYPE>
0

> <PUBCHEM_TOTAL_CHARGE>
1

> <PUBCHEM_SUBSTANCE_ID>
310932686

> <PUBCHEM_SUBSTANCE_VERSION>
1

> <PUBCHEM_EXT_DATASOURCE_NAME>
4488

> <PUBCHEM_EXT_DATASOURCE_REGID>
SCHEMBL16110066

> <PUBCHEM_SUBSTANCE_COMMENT>
InChI=1S/C32H40N4O/c1-31(2)24-16-11-13-18-26(24)35(5)28(31)20-8-6-9-21-29-32(3,4)25-17-12-14-19-27(25)36(29)23-15-7-10-22-30(37)34-33/h6,8-9,11-14,16-21H,7,10,15,22-23,33H2,1-5H3/p+1
InChIKey=OGIDWJYMDFIFMP-UHFFFAOYSA-O

> <PUBCHEM_SUBSTANCE_SYNONYM>
SCHEMBL16110066

> <PUBCHEM_XREF_EXT_ID>
SCHEMBL16110066

> <PUBCHEM_EXT_DATASOURCE_URL>
https://www.surechembl.org/

> <PUBCHEM_EXT_SUBSTANCE_URL>
https://www.surechembl.org/chemical/SCHEMBL16110066

> <PUBCHEM_CID_ASSOCIATIONS>
117601198  1

> <PUBCHEM_COORDINATE_TYPE>
1
3

$$$$
