310939950
  -OEChem-07211613022D

 27 29  0     0  0  0  0  0  0999 V2000
    1.4289    4.7084    0.0000 Cl  0  0  0  0  0  0  0  0  0  0  0  0
    0.0000   -3.8834    0.0000 O   0  0  0  0  0  0  0  0  0  0  0  0
    0.0000    2.2334    0.0000 O   0  0  0  0  0  0  0  0  0  0  0  0
   -0.7145   -0.6541    0.0000 N   0  0  0  0  0  0  0  0  0  0  0  0
   -0.7145   -2.6459    0.0000 N   0  0  0  0  0  0  0  0  0  0  0  0
   -0.7145    0.9959    0.0000 N   0  0  0  0  0  0  0  0  0  0  0  0
   -1.4289    3.0584    0.0000 N   0  0  0  0  0  0  0  0  0  0  0  0
   -0.7145    4.2959    0.0000 N   0  0  0  0  0  0  0  0  0  0  0  0
   -0.7145   -1.4791    0.0000 C   0  0  0  0  0  0  0  0  0  0  0  0
   -1.2978   -2.0625    0.0000 C   0  0  0  0  0  0  0  0  0  0  0  0
   -0.1311   -2.0625    0.0000 C   0  0  0  0  0  0  0  0  0  0  0  0
   -0.7145   -3.4709    0.0000 C   0  0  0  0  0  0  0  0  0  0  0  0
   -1.4289   -0.2416    0.0000 C   0  0  0  0  0  0  0  0  0  0  0  0
    0.0000   -0.2416    0.0000 C   0  0  0  0  0  0  0  0  0  0  0  0
   -1.4289    0.5834    0.0000 C   0  0  0  0  0  0  0  0  0  0  0  0
    0.0000    0.5834    0.0000 C   0  0  0  0  0  0  0  0  0  0  0  0
   -0.7145    1.8209    0.0000 C   0  0  0  0  0  0  0  0  0  0  0  0
   -0.7145    3.4709    0.0000 C   0  0  0  0  0  0  0  0  0  0  0  0
    0.7145    3.4709    0.0000 C   0  0  0  0  0  0  0  0  0  0  0  0
   -1.4289    2.2334    0.0000 C   0  0  0  0  0  0  0  0  0  0  0  0
    0.7145    4.2959    0.0000 C   0  0  0  0  0  0  0  0  0  0  0  0
    0.0000    3.0584    0.0000 C   0  0  0  0  0  0  0  0  0  0  0  0
   -1.4289   -3.8834    0.0000 C   0  0  0  0  0  0  0  0  0  0  0  0
    0.0000    4.7084    0.0000 C   0  0  0  0  0  0  0  0  0  0  0  0
    1.4289    3.0584    0.0000 C   0  0  0  0  0  0  0  0  0  0  0  0
   -1.4289   -4.7084    0.0000 C   0  0  0  0  0  0  0  0  0  0  0  0
    1.4289    2.2334    0.0000 C   0  0  0  0  0  0  0  0  0  0  0  0
  1 21  1  0  0  0  0
  2 12  2  0  0  0  0
  3 17  2  0  0  0  0
  4  9  1  0  0  0  0
  4 13  1  0  0  0  0
  4 14  1  0  0  0  0
  5 10  1  0  0  0  0
  5 11  1  0  0  0  0
  5 12  1  0  0  0  0
  6 15  1  0  0  0  0
  6 16  1  0  0  0  0
  6 17  1  0  0  0  0
  7 18  1  0  0  0  0
  7 20  1  0  0  0  0
  8 18  1  0  0  0  0
  8 24  2  0  0  0  0
  9 10  1  0  0  0  0
  9 11  1  0  0  0  0
 12 23  1  0  0  0  0
 13 15  1  0  0  0  0
 14 16  1  0  0  0  0
 17 20  1  0  0  0  0
 18 22  2  0  0  0  0
 19 21  2  0  0  0  0
 19 22  1  0  0  0  0
 19 25  1  0  0  0  0
 21 24  1  0  0  0  0
 23 26  2  0  0  0  0
 25 27  1  0  0  0  0
M  END
> <PUBCHEM_COMPOUND_ID_TYPE>
0

> <PUBCHEM_TOTAL_CHARGE>
0

> <PUBCHEM_SUBSTANCE_ID>
310939950

> <PUBCHEM_SUBSTANCE_VERSION>
1

> <PUBCHEM_EXT_DATASOURCE_NAME>
4488

> <PUBCHEM_EXT_DATASOURCE_REGID>
SCHEMBL16117880

> <PUBCHEM_SUBSTANCE_COMMENT>
InChI=1S/C19H26ClN5O2/c1-3-14-9-17(21-10-16(14)20)22-11-19(27)24-7-5-23(6-8-24)15-12-25(13-15)18(26)4-2/h4,9-10,15H,2-3,5-8,11-13H2,1H3,(H,21,22)
InChIKey=XIUHASHSNKNGFV-UHFFFAOYSA-N

> <PUBCHEM_SUBSTANCE_SYNONYM>
SCHEMBL16117880

> <PUBCHEM_XREF_EXT_ID>
SCHEMBL16117880

> <PUBCHEM_EXT_DATASOURCE_URL>
https://www.surechembl.org/

> <PUBCHEM_EXT_SUBSTANCE_URL>
https://www.surechembl.org/chemical/SCHEMBL16117880

> <PUBCHEM_CID_ASSOCIATIONS>
86279233  1

> <PUBCHEM_COORDINATE_TYPE>
1
3

$$$$
