310947987
  -OEChem-07211613022D

 36 40  0     1  0  0  0  0  0999 V2000
   -2.1873   -0.5449    0.0000 O   0  0  0  0  0  0  0  0  0  0  0  0
   -2.4967   -2.5040    0.0000 O   0  0  0  0  0  0  0  0  0  0  0  0
   -2.4967    1.6349    0.0000 O   0  0  0  0  0  0  0  0  0  0  0  0
   -3.2184   -1.2667    0.0000 O   0  0  0  0  0  0  0  0  0  0  0  0
   -3.2184    0.3977    0.0000 O   0  0  0  0  0  0  0  0  0  0  0  0
    2.5261    1.2225    0.0000 O   0  0  0  0  0  0  0  0  0  0  0  0
    1.8191    2.4746    0.0000 O   0  0  0  0  0  0  0  0  0  0  0  0
    1.0826   -1.3110    0.0000 N   0  0  3  0  0  0  0  0  0  0  0  0
   -1.0679   -0.8101    0.0000 C   0  0  3  0  0  0  0  0  0  0  0  0
   -1.0679    0.0147    0.0000 C   0  0  0  0  0  0  0  0  0  0  0  0
   -1.7749   -1.2372    0.0000 C   0  0  3  0  0  0  0  0  0  0  0  0
   -0.3461   -1.2372    0.0000 C   0  0  3  0  0  0  0  0  0  0  0  0
   -1.7749    0.4271    0.0000 C   0  0  0  0  0  0  0  0  0  0  0  0
   -0.3609    0.4419    0.0000 C   0  0  0  0  0  0  0  0  0  0  0  0
    0.3461   -0.8248    0.0000 C   0  0  3  0  0  0  0  0  0  0  0  0
   -0.4934   -0.3682    0.0000 C   0  0  0  0  0  0  0  0  0  0  0  0
   -1.7749   -2.0622    0.0000 C   0  0  3  0  0  0  0  0  0  0  0  0
    0.3609    0.0000    0.0000 C   0  0  0  0  0  0  0  0  0  0  0  0
   -1.7749    1.2520    0.0000 C   0  0  0  0  0  0  0  0  0  0  0  0
   -0.3461    1.2520    0.0000 C   0  0  0  0  0  0  0  0  0  0  0  0
   -0.3609   -2.0622    0.0000 C   0  0  0  0  0  0  0  0  0  0  0  0
    0.8322   -0.3830    0.0000 C   0  0  0  0  0  0  0  0  0  0  0  0
   -1.0679   -2.4746    0.0000 C   0  0  0  0  0  0  0  0  0  0  0  0
   -1.0679    1.6497    0.0000 C   0  0  0  0  0  0  0  0  0  0  0  0
    0.3461    1.6645    0.0000 C   0  0  0  0  0  0  0  0  0  0  0  0
    1.8927   -1.0605    0.0000 C   0  0  0  0  0  0  0  0  0  0  0  0
   -3.2331   -2.0916    0.0000 C   0  0  0  0  0  0  0  0  0  0  0  0
   -3.2331    1.2814    0.0000 C   0  0  0  0  0  0  0  0  0  0  0  0
    1.0826    1.2520    0.0000 C   0  0  0  0  0  0  0  0  0  0  0  0
    1.7896    1.6497    0.0000 C   0  0  0  0  0  0  0  0  0  0  0  0
   -3.9401   -2.5187    0.0000 C   0  0  0  0  0  0  0  0  0  0  0  0
   -3.9696    1.6645    0.0000 C   0  0  0  0  0  0  0  0  0  0  0  0
    3.2331    1.6792    0.0000 C   0  0  0  0  0  0  0  0  0  0  0  0
    3.2331    2.5187    0.0000 C   0  0  0  0  0  0  0  0  0  0  0  0
    3.9696    2.0916    0.0000 C   0  0  0  0  0  0  0  0  0  0  0  0
    3.9696    1.2372    0.0000 C   0  0  0  0  0  0  0  0  0  0  0  0
 11  1  1  6  0  0  0
  1 13  1  0  0  0  0
 17  2  1  6  0  0  0
  2 27  1  0  0  0  0
  3 19  1  0  0  0  0
  3 28  1  0  0  0  0
  4 27  2  0  0  0  0
  5 28  2  0  0  0  0
  6 30  1  0  0  0  0
  6 33  1  0  0  0  0
  7 30  2  0  0  0  0
 15  8  1  1  0  0  0
  8 22  1  0  0  0  0
  8 26  1  0  0  0  0
  9 10  1  6  0  0  0
  9 11  1  0  0  0  0
  9 12  1  0  0  0  0
  9 16  1  0  0  0  0
 10 13  1  0  0  0  0
 10 14  2  0  0  0  0
 11 17  1  0  0  0  0
 12 15  1  0  0  0  0
 12 21  1  0  0  0  0
 13 19  2  0  0  0  0
 14 18  1  0  0  0  0
 14 20  1  0  0  0  0
 15 18  1  0  0  0  0
 16 22  1  0  0  0  0
 17 23  1  0  0  0  0
 19 24  1  0  0  0  0
 20 24  2  0  0  0  0
 20 25  1  0  0  0  0
 21 23  2  0  0  0  0
 25 29  1  0  0  0  0
 27 31  1  0  0  0  0
 28 32  1  0  0  0  0
 29 30  1  0  0  0  0
 33 34  1  0  0  0  0
 33 35  1  0  0  0  0
 33 36  1  0  0  0  0
M  END
> <PUBCHEM_COMPOUND_ID_TYPE>
0

> <PUBCHEM_TOTAL_CHARGE>
0

> <PUBCHEM_SUBSTANCE_ID>
310947987

> <PUBCHEM_SUBSTANCE_VERSION>
1

> <PUBCHEM_EXT_DATASOURCE_NAME>
4488

> <PUBCHEM_EXT_DATASOURCE_REGID>
SCHEMBL16126161

> <PUBCHEM_SUBSTANCE_COMMENT>
InChI=1S/C28H35NO7/c1-15(30)33-21-9-8-19-20-14-18-17(7-10-23(32)36-27(3,4)5)13-22(34-16(2)31)25-24(18)28(19,26(21)35-25)11-12-29(20)6/h8-9,13,19-21,26H,7,10-12,14H2,1-6H3/t19?,20-,21+,26+,28+/m1/s1
InChIKey=WIJOAVGIADHHEM-QHDGAULCSA-N

> <PUBCHEM_SUBSTANCE_SYNONYM>
SCHEMBL16126161

> <PUBCHEM_XREF_EXT_ID>
SCHEMBL16126161

> <PUBCHEM_EXT_DATASOURCE_URL>
https://www.surechembl.org/

> <PUBCHEM_EXT_SUBSTANCE_URL>
https://www.surechembl.org/chemical/SCHEMBL16126161

> <PUBCHEM_CID_ASSOCIATIONS>
117613633  1

> <PUBCHEM_COORDINATE_TYPE>
1
3

> <PUBCHEM_BONDANNOTATIONS>
11  1  6
17  2  6
15  8  5
9  10  6

$$$$
