310929320
  -OEChem-07211613022D

 66 72  0     1  0  0  0  0  0999 V2000
   -2.4109   -3.8138    0.0000 S   0  0  0  0  0  0  0  0  0  0  0  0
   -1.2811   -2.6113    0.0000 O   0  0  0  0  0  0  0  0  0  0  0  0
   -1.2278   -2.2682    0.0000 O   0  0  0  0  0  0  0  0  0  0  0  0
   -0.0216    0.8226    0.0000 O   0  0  0  0  0  0  0  0  0  0  0  0
   -2.2223   -3.0107    0.0000 O   0  0  0  0  0  0  0  0  0  0  0  0
   -2.5995   -4.6170    0.0000 O   0  0  0  0  0  0  0  0  0  0  0  0
    1.4525   -2.4575    0.0000 O   0  0  0  0  0  0  0  0  0  0  0  0
    4.2988   -1.5933    0.0000 O   0  0  0  0  0  0  0  0  0  0  0  0
    2.8360    0.8619    0.0000 O   0  0  0  0  0  0  0  0  0  0  0  0
    3.5674   -0.3657    0.0000 O   0  0  0  0  0  0  0  0  0  0  0  0
    2.8700   -1.6129    0.0000 O   0  0  0  0  0  0  0  0  0  0  0  0
    0.0855   -2.8314    0.0000 N   0  0  0  0  0  0  0  0  0  0  0  0
    0.7211   -1.2299    0.0000 N   0  0  0  0  0  0  0  0  0  0  0  0
   -1.6077   -4.0024    0.0000 N   0  0  0  0  0  0  0  0  0  0  0  0
    2.6191   -1.3688    0.0000 N   0  0  0  0  0  0  0  0  0  0  0  0
    0.6757    2.0698    0.0000 N   0  0  0  0  0  0  0  0  0  0  0  0
   -0.2397   -3.5897    0.0000 C   0  0  3  0  0  0  0  0  0  0  0  0
    0.4505   -4.0416    0.0000 C   0  0  3  0  0  0  0  0  0  0  0  0
   -0.2859   -4.4134    0.0000 C   0  0  0  0  0  0  0  0  0  0  0  0
   -1.0429   -3.4011    0.0000 C   0  0  0  0  0  0  0  0  0  0  0  0
   -0.0834   -1.4125    0.0000 C   0  0  3  0  0  0  0  0  0  0  0  0
   -0.4086   -2.1707    0.0000 C   0  0  0  0  0  0  0  0  0  0  0  0
    1.2742   -4.0878    0.0000 C   0  0  0  0  0  0  0  0  0  0  0  0
   -0.0103   -0.0024    0.0000 C   0  0  3  0  0  0  0  0  0  0  0  0
   -0.5057   -0.7038    0.0000 C   0  0  0  0  0  0  0  0  0  0  0  0
   -3.2141   -3.6253    0.0000 C   0  0  0  0  0  0  0  0  0  0  0  0
    1.4412   -1.6326    0.0000 C   0  0  0  0  0  0  0  0  0  0  0  0
    0.7098   -0.4050    0.0000 C   0  0  0  0  0  0  0  0  0  0  0  0
    2.3940   -0.9594    0.0000 C   0  0  3  0  0  0  0  0  0  0  0  0
   -3.1678   -2.8016    0.0000 C   0  0  0  0  0  0  0  0  0  0  0  0
   -3.9043   -3.1734    0.0000 C   0  0  0  0  0  0  0  0  0  0  0  0
    2.1613   -2.0352    0.0000 C   0  0  0  0  0  0  0  0  0  0  0  0
    1.6461   -4.8242    0.0000 C   0  0  0  0  0  0  0  0  0  0  0  0
    0.6871    1.2448    0.0000 C   0  0  0  0  0  0  0  0  0  0  0  0
   -3.5392   -4.3835    0.0000 C   0  0  0  0  0  0  0  0  0  0  0  0
    1.4072    0.8422    0.0000 C   0  0  0  0  0  0  0  0  0  0  0  0
    3.5787   -1.1906    0.0000 C   0  0  0  0  0  0  0  0  0  0  0  0
    2.1159    1.2645    0.0000 C   0  0  0  0  0  0  0  0  0  0  0  0
    5.0075   -1.1710    0.0000 C   0  0  3  0  0  0  0  0  0  0  0  0
    2.1726   -2.8601    0.0000 C   0  0  0  0  0  0  0  0  0  0  0  0
    2.9862   -2.0239    0.0000 C   0  0  0  0  0  0  0  0  0  0  0  0
    1.3363   -2.0465    0.0000 C   0  0  0  0  0  0  0  0  0  0  0  0
    1.3845    2.4921    0.0000 C   0  0  0  0  0  0  0  0  0  0  0  0
    2.1046    2.0894    0.0000 C   0  0  0  0  0  0  0  0  0  0  0  0
    4.9962   -0.3461    0.0000 C   0  0  3  0  0  0  0  0  0  0  0  0
    1.8650    1.5086    0.0000 C   0  0  0  0  0  0  0  0  0  0  0  0
    5.7956   -1.4151    0.0000 C   0  0  0  0  0  0  0  0  0  0  0  0
    5.7772   -0.0804    0.0000 C   0  0  0  0  0  0  0  0  0  0  0  0
    1.3731    3.3170    0.0000 C   0  0  0  0  0  0  0  0  0  0  0  0
    2.8133    2.5117    0.0000 C   0  0  0  0  0  0  0  0  0  0  0  0
    4.2761    0.0566    0.0000 C   0  0  0  0  0  0  0  0  0  0  0  0
    6.2713   -0.7411    0.0000 C   0  0  0  0  0  0  0  0  0  0  0  0
    2.5851    1.1059    0.0000 C   0  0  0  0  0  0  0  0  0  0  0  0
    2.0819    3.7393    0.0000 C   0  0  0  0  0  0  0  0  0  0  0  0
    2.8019    3.3366    0.0000 C   0  0  0  0  0  0  0  0  0  0  0  0
    4.2648    0.8815    0.0000 C   0  0  0  0  0  0  0  0  0  0  0  0
    3.5447    1.2841    0.0000 C   0  0  0  0  0  0  0  0  0  0  0  0
    2.8473    0.0369    0.0000 C   0  0  0  0  0  0  0  0  0  0  0  0
    2.1386   -0.3854    0.0000 C   0  0  0  0  0  0  0  0  0  0  0  0
    2.1499   -1.2103    0.0000 C   0  0  0  0  0  0  0  0  0  0  0  0
    0.7084   -3.2579    0.0000 H   0  0  0  0  0  0  0  0  0  0  0  0
   -0.9066   -1.4670    0.0000 H   0  0  0  0  0  0  0  0  0  0  0  0
   -0.7983    0.2419    0.0000 H   0  0  0  0  0  0  0  0  0  0  0  0
    1.9389   -1.6475    0.0000 H   0  0  0  0  0  0  0  0  0  0  0  0
    5.1050   -1.9902    0.0000 H   0  0  0  0  0  0  0  0  0  0  0  0
    5.0711    0.4755    0.0000 H   0  0  0  0  0  0  0  0  0  0  0  0
  1  5  2  0  0  0  0
  1  6  2  0  0  0  0
  1 14  1  0  0  0  0
  1 26  1  0  0  0  0
  2 20  2  0  0  0  0
  3 22  2  0  0  0  0
  4 24  1  0  0  0  0
  4 34  1  0  0  0  0
  7 27  2  0  0  0  0
  8 37  1  0  0  0  0
  8 39  1  0  0  0  0
  9 38  1  0  0  0  0
  9 58  1  0  0  0  0
 10 37  2  0  0  0  0
 11 60  1  0  0  0  0
 17 12  1  1  0  0  0
 12 22  1  0  0  0  0
 13 21  1  0  0  0  0
 13 27  1  0  0  0  0
 13 28  1  0  0  0  0
 14 20  1  0  0  0  0
 15 29  1  0  0  0  0
 15 37  1  0  0  0  0
 16 34  2  0  0  0  0
 16 43  1  0  0  0  0
 17 18  1  0  0  0  0
 17 19  1  0  0  0  0
 17 20  1  6  0  0  0
 18 19  1  0  0  0  0
 18 23  1  6  0  0  0
 18 61  1  1  0  0  0
 21 22  1  0  0  0  0
 21 25  1  0  0  0  0
 21 62  1  1  0  0  0
 23 33  2  0  0  0  0
 24 25  1  0  0  0  0
 24 28  1  0  0  0  0
 24 63  1  6  0  0  0
 26 30  1  0  0  0  0
 26 31  1  0  0  0  0
 26 35  1  0  0  0  0
 27 29  1  0  0  0  0
 29 32  1  0  0  0  0
 29 64  1  6  0  0  0
 30 31  1  0  0  0  0
 32 40  1  0  0  0  0
 32 41  1  0  0  0  0
 32 42  1  0  0  0  0
 34 36  1  0  0  0  0
 36 38  2  0  0  0  0
 36 46  1  0  0  0  0
 38 44  1  0  0  0  0
 39 45  1  0  0  0  0
 39 47  1  0  0  0  0
 39 65  1  6  0  0  0
 43 44  2  0  0  0  0
 43 49  1  0  0  0  0
 44 50  1  0  0  0  0
 45 48  1  0  0  0  0
 45 51  1  0  0  0  0
 45 66  1  1  0  0  0
 46 53  1  0  0  0  0
 47 52  1  0  0  0  0
 48 52  1  0  0  0  0
 49 54  2  0  0  0  0
 50 55  2  0  0  0  0
 51 56  1  0  0  0  0
 53 57  2  0  0  0  0
 54 55  1  0  0  0  0
 56 57  1  0  0  0  0
 58 59  1  0  0  0  0
 59 60  1  0  0  0  0
M  END
> <PUBCHEM_COMPOUND_ID_TYPE>
0

> <PUBCHEM_TOTAL_CHARGE>
0

> <PUBCHEM_SUBSTANCE_ID>
310929320

> <PUBCHEM_SUBSTANCE_VERSION>
1

> <PUBCHEM_EXT_DATASOURCE_NAME>
4488

> <PUBCHEM_EXT_DATASOURCE_REGID>
SCHEMBL16106486

> <PUBCHEM_SUBSTANCE_COMMENT>
InChI=1S/C44H59N5O10S/c1-6-28-25-44(28,40(53)48-60(55,56)43(5)20-21-43)47-37(51)33-24-29-26-49(33)39(52)36(42(2,3)4)46-41(54)59-34-19-12-15-27(34)14-8-7-9-17-31-35(57-23-13-22-50)30-16-10-11-18-32(30)45-38(31)58-29/h6-7,9-11,16,18,27-29,33-34,36,50H,1,8,12-15,17,19-26H2,2-5H3,(H,46,54)(H,47,51)(H,48,53)/t27-,28-,29-,33+,34-,36-,44-/m1/s1
InChIKey=MAWZDWFGBPDOHR-BCXBCBKYSA-N

> <PUBCHEM_SUBSTANCE_SYNONYM>
SCHEMBL16106486

> <PUBCHEM_XREF_EXT_ID>
SCHEMBL16106486

> <PUBCHEM_EXT_DATASOURCE_URL>
https://www.surechembl.org/

> <PUBCHEM_EXT_SUBSTANCE_URL>
https://www.surechembl.org/chemical/SCHEMBL16106486

> <PUBCHEM_CID_ASSOCIATIONS>
117598715  1

> <PUBCHEM_COORDINATE_TYPE>
1
3

> <PUBCHEM_BONDANNOTATIONS>
17  12  5
17  20  6
18  23  6
18  61  5
21  62  5
24  63  6
29  64  6
39  65  6
45  66  5
57  56  3

$$$$
