310941120
  -OEChem-07211613022D

 46 49  0     1  0  0  0  0  0999 V2000
    5.6821    0.6725    0.0000 O   0  0  0  0  0  0  0  0  0  0  0  0
    4.5487   -1.2921    0.0000 O   0  0  0  0  0  0  0  0  0  0  0  0
   -4.6998    0.4760    0.0000 O   0  0  0  0  0  0  0  0  0  0  0  0
   -1.9344    0.7933    0.0000 O   0  0  0  0  0  0  0  0  0  0  0  0
    2.3877    0.7933    0.0000 O   0  0  0  0  0  0  0  0  0  0  0  0
   -3.4607    1.2014    0.0000 O   0  0  0  0  0  0  0  0  0  0  0  0
    0.2267   -1.2921    0.0000 O   0  0  0  0  0  0  0  0  0  0  0  0
    4.5487   -2.9392    0.0000 O   0  0  0  0  0  0  0  0  0  0  0  0
   -3.4607   -0.2342    0.0000 N   0  0  0  0  0  0  0  0  0  0  0  0
    3.1131   -0.4458    0.0000 N   0  0  0  0  0  0  0  0  0  0  0  0
   -1.2089   -0.4458    0.0000 N   0  0  0  0  0  0  0  0  0  0  0  0
    0.9520   -0.0378    0.0000 N   0  0  0  0  0  0  0  0  0  0  0  0
    5.2589   -0.0227    0.0000 C   0  0  3  0  0  0  0  0  0  0  0  0
    4.5336   -0.4307    0.0000 C   0  0  0  0  0  0  0  0  0  0  0  0
    4.8660    0.6876    0.0000 C   0  0  0  0  0  0  0  0  0  0  0  0
    3.8233   -0.0227    0.0000 C   0  0  3  0  0  0  0  0  0  0  0  0
    5.9541   -0.4307    0.0000 C   0  0  0  0  0  0  0  0  0  0  0  0
   -2.6597   -0.4458    0.0000 C   0  0  3  0  0  0  0  0  0  0  0  0
    3.8233    1.3072    0.0000 C   0  0  0  0  0  0  0  0  0  0  0  0
    2.3725   -0.0529    0.0000 C   0  0  0  0  0  0  0  0  0  0  0  0
   -1.9192   -0.0378    0.0000 C   0  0  0  0  0  0  0  0  0  0  0  0
   -3.8687    0.4760    0.0000 C   0  0  0  0  0  0  0  0  0  0  0  0
   -2.8561   -1.2316    0.0000 C   0  0  0  0  0  0  0  0  0  0  0  0
   -3.6570   -1.0200    0.0000 C   0  0  0  0  0  0  0  0  0  0  0  0
    1.6623   -0.4458    0.0000 C   0  0  3  0  0  0  0  0  0  0  0  0
    3.0979    1.7303    0.0000 C   0  0  0  0  0  0  0  0  0  0  0  0
   -0.4836   -0.0227    0.0000 C   0  0  3  0  0  0  0  0  0  0  0  0
    0.2418   -0.4156    0.0000 C   0  0  0  0  0  0  0  0  0  0  0  0
    1.6623   -1.2921    0.0000 C   0  0  0  0  0  0  0  0  0  0  0  0
   -5.1229    1.2165    0.0000 C   0  0  0  0  0  0  0  0  0  0  0  0
    2.4027   -1.6850    0.0000 C   0  0  0  0  0  0  0  0  0  0  0  0
    3.0979    2.5463    0.0000 C   0  0  0  0  0  0  0  0  0  0  0  0
    2.3877    1.3072    0.0000 C   0  0  0  0  0  0  0  0  0  0  0  0
   -0.4836    0.7933    0.0000 C   0  0  0  0  0  0  0  0  0  0  0  0
    2.4027   -2.5161    0.0000 C   0  0  0  0  0  0  0  0  0  0  0  0
    3.0979   -1.2921    0.0000 C   0  0  0  0  0  0  0  0  0  0  0  0
    2.4027    2.9392    0.0000 C   0  0  0  0  0  0  0  0  0  0  0  0
    1.6774    1.7152    0.0000 C   0  0  0  0  0  0  0  0  0  0  0  0
   -5.5158    1.9419    0.0000 C   0  0  0  0  0  0  0  0  0  0  0  0
   -5.9541    1.2014    0.0000 C   0  0  0  0  0  0  0  0  0  0  0  0
   -4.6998    1.9419    0.0000 C   0  0  0  0  0  0  0  0  0  0  0  0
    3.8233   -2.5010    0.0000 C   0  0  0  0  0  0  0  0  0  0  0  0
    1.6774    2.5463    0.0000 C   0  0  0  0  0  0  0  0  0  0  0  0
    3.1282   -2.9242    0.0000 C   0  0  0  0  0  0  0  0  0  0  0  0
    3.8233   -1.6850    0.0000 C   0  0  0  0  0  0  0  0  0  0  0  0
    5.2740   -2.5161    0.0000 C   0  0  0  0  0  0  0  0  0  0  0  0
  1 13  1  0  0  0  0
  1 15  1  0  0  0  0
  2 14  2  0  0  0  0
  3 22  1  0  0  0  0
  3 30  1  0  0  0  0
  4 21  2  0  0  0  0
  5 20  2  0  0  0  0
  6 22  2  0  0  0  0
  7 28  2  0  0  0  0
  8 42  1  0  0  0  0
  8 46  1  0  0  0  0
  9 18  1  0  0  0  0
  9 22  1  0  0  0  0
  9 24  1  0  0  0  0
 16 10  1  1  0  0  0
 10 20  1  0  0  0  0
 11 21  1  0  0  0  0
 11 27  1  0  0  0  0
 25 12  1  6  0  0  0
 12 28  1  0  0  0  0
 13 14  1  1  0  0  0
 13 15  1  0  0  0  0
 13 17  1  6  0  0  0
 14 16  1  0  0  0  0
 16 19  1  0  0  0  0
 18 21  1  1  0  0  0
 18 23  1  0  0  0  0
 19 26  1  0  0  0  0
 20 25  1  0  0  0  0
 23 24  1  0  0  0  0
 25 29  1  0  0  0  0
 26 32  2  0  0  0  0
 26 33  1  0  0  0  0
 27 28  1  0  0  0  0
 27 34  1  1  0  0  0
 29 31  1  0  0  0  0
 30 39  1  0  0  0  0
 30 40  1  0  0  0  0
 30 41  1  0  0  0  0
 31 35  2  0  0  0  0
 31 36  1  0  0  0  0
 32 37  1  0  0  0  0
 33 38  2  0  0  0  0
 35 44  1  0  0  0  0
 36 45  2  0  0  0  0
 37 43  2  0  0  0  0
 38 43  1  0  0  0  0
 42 44  2  0  0  0  0
 42 45  1  0  0  0  0
M  END
> <PUBCHEM_COMPOUND_ID_TYPE>
0

> <PUBCHEM_TOTAL_CHARGE>
0

> <PUBCHEM_SUBSTANCE_ID>
310941120

> <PUBCHEM_SUBSTANCE_VERSION>
1

> <PUBCHEM_EXT_DATASOURCE_NAME>
4488

> <PUBCHEM_EXT_DATASOURCE_REGID>
SCHEMBL16119080

> <PUBCHEM_SUBSTANCE_COMMENT>
InChI=1S/C34H44N4O8/c1-21(35-31(42)27-16-17-38(27)32(43)46-33(2,3)4)29(40)37-26(19-23-12-14-24(44-6)15-13-23)30(41)36-25(28(39)34(5)20-45-34)18-22-10-8-7-9-11-22/h7-15,21,25-27H,16-20H2,1-6H3,(H,35,42)(H,36,41)(H,37,40)/t21-,25-,26-,27+,34+/m0/s1
InChIKey=KKIAZLHJFARRNU-VZFOOAIKSA-N

> <PUBCHEM_SUBSTANCE_SYNONYM>
SCHEMBL16119080

> <PUBCHEM_XREF_EXT_ID>
SCHEMBL16119080

> <PUBCHEM_EXT_DATASOURCE_URL>
https://www.surechembl.org/

> <PUBCHEM_EXT_SUBSTANCE_URL>
https://www.surechembl.org/chemical/SCHEMBL16119080

> <PUBCHEM_CID_ASSOCIATIONS>
117608003  1

> <PUBCHEM_COORDINATE_TYPE>
1
3

> <PUBCHEM_BONDANNOTATIONS>
16  10  5
25  12  6
13  14  5
13  17  6
18  21  5
27  34  5

$$$$
