310929263
  -OEChem-07211613022D

 60 64  0     0  0  0  0  0  0999 V2000
    3.6850   -3.7950    0.0000 S   0  0  0  0  0  0  0  0  0  0  0  0
   13.5853   -6.8201    0.0000 S   0  0  0  0  0  0  0  0  0  0  0  0
    8.6352   -3.9601    0.0000 O   0  0  0  0  0  0  0  0  0  0  0  0
   12.3752   -4.6751    0.0000 O   0  0  0  0  0  0  0  0  0  0  0  0
   11.9352   -2.5300    0.0000 O   0  0  0  0  0  0  0  0  0  0  0  0
    3.6850   -2.9700    0.0000 O   0  0  0  0  0  0  0  0  0  0  0  0
    3.6301   -4.6201    0.0000 O   0  0  0  0  0  0  0  0  0  0  0  0
    6.1051   -5.3351    0.0000 O   0  0  0  0  0  0  0  0  0  0  0  0
   14.4103   -6.3801    0.0000 O   0  0  0  0  0  0  0  0  0  0  0  0
   12.9253   -7.2601    0.0000 O   0  0  0  0  0  0  0  0  0  0  0  0
    1.5950   -4.4001    0.0000 O   0  0  0  0  0  0  0  0  0  0  0  0
    0.0000   -2.9151    0.0000 O   0  0  0  0  0  0  0  0  0  0  0  0
    0.4950   -0.7700    0.0000 O   0  0  0  0  0  0  0  0  0  0  0  0
   13.2002   -3.2451    0.0000 N   0  0  0  0  0  0  0  0  0  0  0  0
   11.9352   -3.9601    0.0000 N   0  0  0  0  0  0  0  0  0  0  0  0
   13.2002   -6.1051    0.0000 N   0  0  0  0  0  0  0  0  0  0  0  0
    6.2151   -2.4200    0.0000 N   0  0  0  0  0  0  0  0  0  0  0  0
    7.4802   -1.7601    0.0000 N   0  0  0  0  0  0  0  0  0  0  0  0
   10.7252   -3.3001    0.0000 C   0  0  0  0  0  0  0  0  0  0  0  0
   13.5853   -3.9601    0.0000 C   0  0  0  0  0  0  0  0  0  0  0  0
   13.2002   -4.6751    0.0000 C   0  0  0  0  0  0  0  0  0  0  0  0
    9.9002   -3.2451    0.0000 C   0  0  0  0  0  0  0  0  0  0  0  0
   13.5853   -5.3901    0.0000 C   0  0  0  0  0  0  0  0  0  0  0  0
   14.8503   -4.6751    0.0000 C   0  0  0  0  0  0  0  0  0  0  0  0
   11.1102   -3.9601    0.0000 C   0  0  0  0  0  0  0  0  0  0  0  0
    9.4602   -3.9601    0.0000 C   0  0  0  0  0  0  0  0  0  0  0  0
   14.4653   -3.9601    0.0000 C   0  0  0  0  0  0  0  0  0  0  0  0
   14.4103   -5.3901    0.0000 C   0  0  0  0  0  0  0  0  0  0  0  0
   15.6753   -4.6751    0.0000 C   0  0  0  0  0  0  0  0  0  0  0  0
   12.3752   -3.2451    0.0000 C   0  0  0  0  0  0  0  0  0  0  0  0
   10.7252   -4.6751    0.0000 C   0  0  0  0  0  0  0  0  0  0  0  0
    9.9002   -4.6751    0.0000 C   0  0  0  0  0  0  0  0  0  0  0  0
    4.5101   -3.7950    0.0000 C   0  0  0  0  0  0  0  0  0  0  0  0
   11.1652   -2.5300    0.0000 C   0  0  0  0  0  0  0  0  0  0  0  0
    9.5152   -2.5300    0.0000 C   0  0  0  0  0  0  0  0  0  0  0  0
    8.2502   -3.1901    0.0000 C   0  0  0  0  0  0  0  0  0  0  0  0
    5.7751   -3.1351    0.0000 C   0  0  0  0  0  0  0  0  0  0  0  0
    4.9501   -3.1351    0.0000 C   0  0  0  0  0  0  0  0  0  0  0  0
    7.0401   -2.4751    0.0000 C   0  0  0  0  0  0  0  0  0  0  0  0
    4.8951   -4.5101    0.0000 C   0  0  0  0  0  0  0  0  0  0  0  0
    5.7201   -4.5651    0.0000 C   0  0  0  0  0  0  0  0  0  0  0  0
   10.7252   -1.8150    0.0000 C   0  0  0  0  0  0  0  0  0  0  0  0
    9.9002   -1.8150    0.0000 C   0  0  0  0  0  0  0  0  0  0  0  0
    7.4251   -3.1901    0.0000 C   0  0  0  0  0  0  0  0  0  0  0  0
    6.1601   -3.8501    0.0000 C   0  0  0  0  0  0  0  0  0  0  0  0
   15.6753   -5.5551    0.0000 C   0  0  0  0  0  0  0  0  0  0  0  0
   16.5003   -4.7301    0.0000 C   0  0  0  0  0  0  0  0  0  0  0  0
   15.6753   -3.9051    0.0000 C   0  0  0  0  0  0  0  0  0  0  0  0
    8.6902   -2.5300    0.0000 C   0  0  0  0  0  0  0  0  0  0  0  0
    2.8600   -3.7401    0.0000 C   0  0  0  0  0  0  0  0  0  0  0  0
    8.3052   -1.7601    0.0000 C   0  0  0  0  0  0  0  0  0  0  0  0
   11.9352   -5.3901    0.0000 C   0  0  0  0  0  0  0  0  0  0  0  0
   14.0253   -7.5351    0.0000 C   0  0  0  0  0  0  0  0  0  0  0  0
    2.4200   -4.4001    0.0000 C   0  0  0  0  0  0  0  0  0  0  0  0
    6.9301   -5.3351    0.0000 C   0  0  0  0  0  0  0  0  0  0  0  0
    1.2100   -3.6850    0.0000 C   0  0  0  0  0  0  0  0  0  0  0  0
    0.3850   -3.6301    0.0000 C   0  0  0  0  0  0  0  0  0  0  0  0
    0.4400   -2.2000    0.0000 C   0  0  0  0  0  0  0  0  0  0  0  0
    0.0550   -1.4850    0.0000 C   0  0  0  0  0  0  0  0  0  0  0  0
    0.1100    0.0000    0.0000 C   0  0  0  0  0  0  0  0  0  0  0  0
  1  6  2  0  0  0  0
  1  7  2  0  0  0  0
  1 33  1  0  0  0  0
  1 50  1  0  0  0  0
  2  9  2  0  0  0  0
  2 10  2  0  0  0  0
  2 16  1  0  0  0  0
  2 53  1  0  0  0  0
  3 26  1  0  0  0  0
  3 36  1  0  0  0  0
  4 21  1  0  0  0  0
  4 52  1  0  0  0  0
  5 30  2  0  0  0  0
  8 41  1  0  0  0  0
  8 55  1  0  0  0  0
 11 54  1  0  0  0  0
 11 56  1  0  0  0  0
 12 57  1  0  0  0  0
 12 58  1  0  0  0  0
 13 59  1  0  0  0  0
 13 60  1  0  0  0  0
 14 20  1  0  0  0  0
 14 30  1  0  0  0  0
 15 25  1  0  0  0  0
 15 30  1  0  0  0  0
 16 23  1  0  0  0  0
 17 37  1  0  0  0  0
 17 39  1  0  0  0  0
 18 39  1  0  0  0  0
 18 51  2  0  0  0  0
 19 22  2  0  0  0  0
 19 25  1  0  0  0  0
 19 34  1  0  0  0  0
 20 21  1  0  0  0  0
 20 27  2  0  0  0  0
 21 23  2  0  0  0  0
 22 26  1  0  0  0  0
 22 35  1  0  0  0  0
 23 28  1  0  0  0  0
 24 27  1  0  0  0  0
 24 28  2  0  0  0  0
 24 29  1  0  0  0  0
 25 31  2  0  0  0  0
 26 32  2  0  0  0  0
 29 46  1  0  0  0  0
 29 47  1  0  0  0  0
 29 48  1  0  0  0  0
 31 32  1  0  0  0  0
 33 38  1  0  0  0  0
 33 40  2  0  0  0  0
 34 42  2  0  0  0  0
 35 43  2  0  0  0  0
 36 44  1  0  0  0  0
 36 49  2  0  0  0  0
 37 38  2  0  0  0  0
 37 45  1  0  0  0  0
 39 44  2  0  0  0  0
 40 41  1  0  0  0  0
 41 45  2  0  0  0  0
 42 43  1  0  0  0  0
 49 51  1  0  0  0  0
 50 54  1  0  0  0  0
 56 57  1  0  0  0  0
 58 59  1  0  0  0  0
M  END
> <PUBCHEM_COMPOUND_ID_TYPE>
0

> <PUBCHEM_TOTAL_CHARGE>
0

> <PUBCHEM_SUBSTANCE_ID>
310929263

> <PUBCHEM_SUBSTANCE_VERSION>
1

> <PUBCHEM_EXT_DATASOURCE_NAME>
4488

> <PUBCHEM_EXT_DATASOURCE_REGID>
SCHEMBL16106427

> <PUBCHEM_SUBSTANCE_COMMENT>
InChI=1S/C42H51N5O11S2/c1-42(2,3)28-22-36(40(55-6)37(23-28)47-59(7,49)50)46-41(48)45-35-12-13-38(34-11-9-8-10-33(34)35)58-30-14-15-43-39(27-30)44-29-24-31(54-5)26-32(25-29)60(51,52)21-20-57-19-18-56-17-16-53-4/h8-15,22-27,47H,16-21H2,1-7H3,(H,43,44)(H2,45,46,48)
InChIKey=DZEPUKJVEMQPCB-UHFFFAOYSA-N

> <PUBCHEM_SUBSTANCE_SYNONYM>
SCHEMBL16106427

> <PUBCHEM_XREF_EXT_ID>
SCHEMBL16106427

> <PUBCHEM_EXT_DATASOURCE_URL>
https://www.surechembl.org/

> <PUBCHEM_EXT_SUBSTANCE_URL>
https://www.surechembl.org/chemical/SCHEMBL16106427

> <PUBCHEM_CID_ASSOCIATIONS>
117598686  1

> <PUBCHEM_COORDINATE_TYPE>
1
3

$$$$
