310932260
  -OEChem-07211613022D

 31 34  0     0  0  0  0  0  0999 V2000
    2.8651   -2.1148    0.0000 O   0  0  0  0  0  0  0  0  0  0  0  0
    0.1023   -2.3876    0.0000 O   0  0  0  0  0  0  0  0  0  0  0  0
    7.3334   -2.2171    0.0000 O   0  0  0  0  0  0  0  0  0  0  0  0
    3.7520   -0.9892    0.0000 N   0  0  0  0  0  0  0  0  0  0  0  0
    3.6838   -0.1364    0.0000 N   0  0  0  0  0  0  0  0  0  0  0  0
    5.1846   -0.9892    0.0000 N   0  0  0  0  0  0  0  0  0  0  0  0
    0.0000   -0.9892    0.0000 N   0  0  0  0  0  0  0  0  0  0  0  0
    6.6171   -3.4450    0.0000 N   0  0  0  0  0  0  0  0  0  0  0  0
    9.5164   -2.6264    0.0000 N   0  0  0  0  0  0  0  0  0  0  0  0
    2.4217   -0.7163    0.0000 C   0  0  0  0  0  0  0  0  0  0  0  0
    3.0016   -1.3302    0.0000 C   0  0  0  0  0  0  0  0  0  0  0  0
    4.4682   -1.3985    0.0000 C   0  0  0  0  0  0  0  0  0  0  0  0
    1.6031   -0.8186    0.0000 C   0  0  0  0  0  0  0  0  0  0  0  0
    2.8651    0.0000    0.0000 C   0  0  0  0  0  0  0  0  0  0  0  0
    4.4682   -2.2171    0.0000 C   0  0  0  0  0  0  0  0  0  0  0  0
    1.2961   -1.5690    0.0000 C   0  0  0  0  0  0  0  0  0  0  0  0
    5.9008   -2.2171    0.0000 C   0  0  0  0  0  0  0  0  0  0  0  0
    1.1597   -0.1364    0.0000 C   0  0  0  0  0  0  0  0  0  0  0  0
    5.9008   -1.3985    0.0000 C   0  0  0  0  0  0  0  0  0  0  0  0
    5.1846   -2.6264    0.0000 C   0  0  0  0  0  0  0  0  0  0  0  0
    0.4434   -1.6372    0.0000 C   0  0  0  0  0  0  0  0  0  0  0  0
    6.6171   -2.6264    0.0000 C   0  0  0  0  0  0  0  0  0  0  0  0
    0.3070   -0.2046    0.0000 C   0  0  0  0  0  0  0  0  0  0  0  0
    7.3675   -3.8884    0.0000 C   0  0  0  0  0  0  0  0  0  0  0  0
    8.0838   -3.4450    0.0000 C   0  0  0  0  0  0  0  0  0  0  0  0
    8.8001   -3.8884    0.0000 C   0  0  0  0  0  0  0  0  0  0  0  0
    8.0838   -2.6264    0.0000 C   0  0  0  0  0  0  0  0  0  0  0  0
    9.5164   -3.4791    0.0000 C   0  0  0  0  0  0  0  0  0  0  0  0
    8.8001   -2.2171    0.0000 C   0  0  0  0  0  0  0  0  0  0  0  0
    0.5798   -3.0698    0.0000 C   0  0  0  0  0  0  0  0  0  0  0  0
   10.2327   -2.2171    0.0000 C   0  0  0  0  0  0  0  0  0  0  0  0
  1 11  1  0  0  0  0
  2 21  1  0  0  0  0
  2 30  1  0  0  0  0
  3 22  2  0  0  0  0
  4  5  1  0  0  0  0
  4 11  1  0  0  0  0
  4 12  1  0  0  0  0
  5 14  2  0  0  0  0
  6 12  2  0  0  0  0
  6 19  1  0  0  0  0
  7 21  1  0  0  0  0
  7 23  2  0  0  0  0
  8 22  1  0  0  0  0
  8 24  1  0  0  0  0
  9 28  1  0  0  0  0
  9 29  1  0  0  0  0
  9 31  1  0  0  0  0
 10 11  2  0  0  0  0
 10 13  1  0  0  0  0
 10 14  1  0  0  0  0
 12 15  1  0  0  0  0
 13 16  1  0  0  0  0
 13 18  2  0  0  0  0
 15 20  2  0  0  0  0
 16 21  2  0  0  0  0
 17 19  2  0  0  0  0
 17 20  1  0  0  0  0
 17 22  1  0  0  0  0
 18 23  1  0  0  0  0
 24 25  1  0  0  0  0
 25 26  1  0  0  0  0
 25 27  1  0  0  0  0
 26 28  1  0  0  0  0
 27 29  1  0  0  0  0
M  END
> <PUBCHEM_COMPOUND_ID_TYPE>
0

> <PUBCHEM_TOTAL_CHARGE>
0

> <PUBCHEM_SUBSTANCE_ID>
310932260

> <PUBCHEM_SUBSTANCE_VERSION>
1

> <PUBCHEM_EXT_DATASOURCE_NAME>
4488

> <PUBCHEM_EXT_DATASOURCE_REGID>
SCHEMBL16109618

> <PUBCHEM_SUBSTANCE_COMMENT>
InChI=1S/C22H26N6O3/c1-27-9-6-15(7-10-27)12-25-21(29)17-3-4-19(24-13-17)28-22(30)18(14-26-28)16-5-8-23-20(11-16)31-2/h3-5,8,11,13-15,30H,6-7,9-10,12H2,1-2H3,(H,25,29)
InChIKey=GWEWOSDORILASF-UHFFFAOYSA-N

> <PUBCHEM_SUBSTANCE_SYNONYM>
SCHEMBL16109618

> <PUBCHEM_XREF_EXT_ID>
SCHEMBL16109618

> <PUBCHEM_EXT_DATASOURCE_URL>
https://www.surechembl.org/

> <PUBCHEM_EXT_SUBSTANCE_URL>
https://www.surechembl.org/chemical/SCHEMBL16109618

> <PUBCHEM_CID_ASSOCIATIONS>
117600830  1

> <PUBCHEM_COORDINATE_TYPE>
1
3

$$$$
