310933181
  -OEChem-07211613022D

 42 47  0     1  0  0  0  0  0999 V2000
    5.3313   -5.7101    0.0000 Br  0  0  0  0  0  0  0  0  0  0  0  0
    0.0291    0.0000    0.0000 F   0  0  0  0  0  0  0  0  0  0  0  0
    2.4763   -1.4275    0.0000 O   0  0  0  0  0  0  0  0  0  0  0  0
    6.1470   -3.7582    0.0000 N   0  0  0  0  0  0  0  0  0  0  0  0
    6.2344   -4.5738    0.0000 N   0  0  0  0  0  0  0  0  0  0  0  0
    3.6999   -3.6125    0.0000 N   0  0  0  0  0  0  0  0  0  0  0  0
    3.7290   -2.1558    0.0000 N   0  0  0  0  0  0  0  0  0  0  0  0
    2.4763   -2.8550    0.0000 N   0  0  0  0  0  0  0  0  0  0  0  0
    6.7588   -3.2046    0.0000 C   0  0  0  0  0  0  0  0  0  0  0  0
    5.3605   -3.5833    0.0000 C   0  0  0  0  0  0  0  0  0  0  0  0
    7.3706   -2.6802    0.0000 C   0  0  0  0  0  0  0  0  0  0  0  0
    6.2053   -2.5928    0.0000 C   0  0  0  0  0  0  0  0  0  0  0  0
    7.3124   -3.8164    0.0000 C   0  0  0  0  0  0  0  0  0  0  0  0
    4.9234   -4.3117    0.0000 C   0  0  0  0  0  0  0  0  0  0  0  0
    5.4770   -4.9234    0.0000 C   0  0  0  0  0  0  0  0  0  0  0  0
    4.9234   -2.8841    0.0000 C   0  0  0  0  0  0  0  0  0  0  0  0
    5.3896   -2.7676    0.0000 C   0  0  0  0  0  0  0  0  0  0  0  0
    7.1958   -1.8645    0.0000 C   0  0  0  0  0  0  0  0  0  0  0  0
    8.0989   -3.6416    0.0000 C   0  0  0  0  0  0  0  0  0  0  0  0
    8.1572   -2.9133    0.0000 C   0  0  0  0  0  0  0  0  0  0  0  0
    6.4675   -1.8354    0.0000 C   0  0  0  0  0  0  0  0  0  0  0  0
    7.0502   -4.6030    0.0000 C   0  0  0  0  0  0  0  0  0  0  0  0
    4.1077   -4.3117    0.0000 C   0  0  0  0  0  0  0  0  0  0  0  0
    4.1369   -2.8841    0.0000 C   0  0  0  0  0  0  0  0  0  0  0  0
    4.8360   -2.1558    0.0000 C   0  0  0  0  0  0  0  0  0  0  0  0
    7.8076   -1.3110    0.0000 C   0  0  0  0  0  0  0  0  0  0  0  0
    8.6525   -4.2534    0.0000 C   0  0  0  0  0  0  0  0  0  0  0  0
    8.7399   -2.3889    0.0000 C   0  0  0  0  0  0  0  0  0  0  0  0
    5.9140   -1.2236    0.0000 C   0  0  0  0  0  0  0  0  0  0  0  0
    7.6037   -5.2148    0.0000 C   0  0  0  0  0  0  0  0  0  0  0  0
    5.0983   -1.3693    0.0000 C   0  0  0  0  0  0  0  0  0  0  0  0
    8.5942   -1.5732    0.0000 C   0  0  0  0  0  0  0  0  0  0  0  0
    8.3903   -5.0400    0.0000 C   0  0  0  0  0  0  0  0  0  0  0  0
    2.9133   -2.1558    0.0000 C   0  0  0  0  0  0  0  0  0  0  0  0
    1.6606   -2.8550    0.0000 C   0  0  3  0  0  0  0  0  0  0  0  0
    1.2527   -2.1558    0.0000 C   0  0  0  0  0  0  0  0  0  0  0  0
    0.4370   -2.1267    0.0000 C   0  0  0  0  0  0  0  0  0  0  0  0
    1.6606   -1.4275    0.0000 C   0  0  0  0  0  0  0  0  0  0  0  0
    1.2527   -3.5833    0.0000 C   0  0  0  0  0  0  0  0  0  0  0  0
    0.4370   -0.7283    0.0000 C   0  0  0  0  0  0  0  0  0  0  0  0
    0.0000   -1.4275    0.0000 C   0  0  0  0  0  0  0  0  0  0  0  0
    1.2527   -0.7283    0.0000 C   0  0  0  0  0  0  0  0  0  0  0  0
  1 15  1  0  0  0  0
  2 40  1  0  0  0  0
  3 34  2  0  0  0  0
  4  5  1  0  0  0  0
  4  9  1  0  0  0  0
  4 10  1  0  0  0  0
  5 15  2  0  0  0  0
  6 23  1  0  0  0  0
  6 24  2  0  0  0  0
  7 24  1  0  0  0  0
  7 34  1  0  0  0  0
  8 34  1  0  0  0  0
  8 35  1  0  0  0  0
  9 11  1  0  0  0  0
  9 12  1  0  0  0  0
  9 13  1  0  0  0  0
 10 14  1  0  0  0  0
 10 16  2  0  0  0  0
 11 18  2  0  0  0  0
 11 20  1  0  0  0  0
 12 17  2  0  0  0  0
 12 21  1  0  0  0  0
 13 19  2  0  0  0  0
 13 22  1  0  0  0  0
 14 15  1  0  0  0  0
 14 23  2  0  0  0  0
 16 24  1  0  0  0  0
 17 25  1  0  0  0  0
 18 26  1  0  0  0  0
 19 27  1  0  0  0  0
 20 28  2  0  0  0  0
 21 29  2  0  0  0  0
 22 30  2  0  0  0  0
 25 31  2  0  0  0  0
 26 32  2  0  0  0  0
 27 33  2  0  0  0  0
 28 32  1  0  0  0  0
 29 31  1  0  0  0  0
 30 33  1  0  0  0  0
 35 36  1  0  0  0  0
 35 39  1  6  0  0  0
 36 37  2  0  0  0  0
 36 38  1  0  0  0  0
 37 41  1  0  0  0  0
 38 42  2  0  0  0  0
 40 41  2  0  0  0  0
 40 42  1  0  0  0  0
M  END
> <PUBCHEM_COMPOUND_ID_TYPE>
0

> <PUBCHEM_TOTAL_CHARGE>
0

> <PUBCHEM_SUBSTANCE_ID>
310933181

> <PUBCHEM_SUBSTANCE_VERSION>
1

> <PUBCHEM_EXT_DATASOURCE_NAME>
4488

> <PUBCHEM_EXT_DATASOURCE_REGID>
SCHEMBL16110590

> <PUBCHEM_SUBSTANCE_COMMENT>
InChI=1S/C34H27BrFN5O/c1-23(24-17-19-28(36)20-18-24)38-33(42)39-31-21-30-29(22-37-31)32(35)40-41(30)34(25-11-5-2-6-12-25,26-13-7-3-8-14-26)27-15-9-4-10-16-27/h2-23H,1H3,(H2,37,38,39,42)/t23-/m1/s1
InChIKey=HZSBBOYSDGHJHT-HSZRJFAPSA-N

> <PUBCHEM_SUBSTANCE_SYNONYM>
SCHEMBL16110590

> <PUBCHEM_XREF_EXT_ID>
SCHEMBL16110590

> <PUBCHEM_EXT_DATASOURCE_URL>
https://www.surechembl.org/

> <PUBCHEM_EXT_SUBSTANCE_URL>
https://www.surechembl.org/chemical/SCHEMBL16110590

> <PUBCHEM_CID_ASSOCIATIONS>
117601627  1

> <PUBCHEM_COORDINATE_TYPE>
1
3

> <PUBCHEM_BONDANNOTATIONS>
35  39  6

$$$$
