310939931
  -OEChem-07211613022D

 31 33  0     0  0  0  0  0  0999 V2000
    1.0717    4.2959    0.0000 Cl  0  0  0  0  0  0  0  0  0  0  0  0
    0.6592    1.9314    0.0000 F   0  0  0  0  0  0  0  0  0  0  0  0
    1.7862    2.2334    0.0000 F   0  0  0  0  0  0  0  0  0  0  0  0
    1.4842    3.3603    0.0000 F   0  0  0  0  0  0  0  0  0  0  0  0
   -1.7862    4.2959    0.0000 O   0  0  0  0  0  0  0  0  0  0  0  0
   -0.3572   -4.2959    0.0000 O   0  0  0  0  0  0  0  0  0  0  0  0
   -0.3572    1.8209    0.0000 O   0  0  0  0  0  0  0  0  0  0  0  0
   -1.0717   -1.0666    0.0000 N   0  0  0  0  0  0  0  0  0  0  0  0
   -1.0717   -3.0584    0.0000 N   0  0  0  0  0  0  0  0  0  0  0  0
   -1.0717    0.5834    0.0000 N   0  0  0  0  0  0  0  0  0  0  0  0
   -1.7862    2.6459    0.0000 N   0  0  0  0  0  0  0  0  0  0  0  0
    0.3572    3.0584    0.0000 C   0  0  0  0  0  0  0  0  0  0  0  0
   -1.0717   -1.8916    0.0000 C   0  0  0  0  0  0  0  0  0  0  0  0
   -1.0717    3.0584    0.0000 C   0  0  0  0  0  0  0  0  0  0  0  0
    1.0717    2.6459    0.0000 C   0  0  0  0  0  0  0  0  0  0  0  0
    0.3572    3.8834    0.0000 C   0  0  0  0  0  0  0  0  0  0  0  0
   -1.0717    3.8834    0.0000 C   0  0  0  0  0  0  0  0  0  0  0  0
   -0.3572    2.6459    0.0000 C   0  0  0  0  0  0  0  0  0  0  0  0
   -1.6551   -2.4750    0.0000 C   0  0  0  0  0  0  0  0  0  0  0  0
   -0.4883   -2.4750    0.0000 C   0  0  0  0  0  0  0  0  0  0  0  0
   -0.3572    4.2959    0.0000 C   0  0  0  0  0  0  0  0  0  0  0  0
   -1.7862   -0.6541    0.0000 C   0  0  0  0  0  0  0  0  0  0  0  0
   -0.3572   -0.6541    0.0000 C   0  0  0  0  0  0  0  0  0  0  0  0
   -1.0717   -3.8834    0.0000 C   0  0  0  0  0  0  0  0  0  0  0  0
   -1.0717    1.4084    0.0000 C   0  0  0  0  0  0  0  0  0  0  0  0
   -1.7862    0.1709    0.0000 C   0  0  0  0  0  0  0  0  0  0  0  0
   -0.3572    0.1709    0.0000 C   0  0  0  0  0  0  0  0  0  0  0  0
   -1.7862    1.8209    0.0000 C   0  0  0  0  0  0  0  0  0  0  0  0
   -1.7862   -4.2959    0.0000 C   0  0  0  0  0  0  0  0  0  0  0  0
   -1.7862    5.1209    0.0000 C   0  0  0  0  0  0  0  0  0  0  0  0
   -1.7862   -5.1209    0.0000 C   0  0  0  0  0  0  0  0  0  0  0  0
  1 16  1  0  0  0  0
  2 15  1  0  0  0  0
  3 15  1  0  0  0  0
  4 15  1  0  0  0  0
  5 17  1  0  0  0  0
  5 30  1  0  0  0  0
  6 24  2  0  0  0  0
  7 25  2  0  0  0  0
  8 13  1  0  0  0  0
  8 22  1  0  0  0  0
  8 23  1  0  0  0  0
  9 19  1  0  0  0  0
  9 20  1  0  0  0  0
  9 24  1  0  0  0  0
 10 25  1  0  0  0  0
 10 26  1  0  0  0  0
 10 27  1  0  0  0  0
 11 14  1  0  0  0  0
 11 28  1  0  0  0  0
 12 15  1  0  0  0  0
 12 16  2  0  0  0  0
 12 18  1  0  0  0  0
 13 19  1  0  0  0  0
 13 20  1  0  0  0  0
 14 17  1  0  0  0  0
 14 18  2  0  0  0  0
 16 21  1  0  0  0  0
 17 21  2  0  0  0  0
 22 26  1  0  0  0  0
 23 27  1  0  0  0  0
 24 29  1  0  0  0  0
 25 28  1  0  0  0  0
 29 31  2  0  0  0  0
M  END
> <PUBCHEM_COMPOUND_ID_TYPE>
0

> <PUBCHEM_TOTAL_CHARGE>
0

> <PUBCHEM_SUBSTANCE_ID>
310939931

> <PUBCHEM_SUBSTANCE_VERSION>
1

> <PUBCHEM_EXT_DATASOURCE_NAME>
4488

> <PUBCHEM_EXT_DATASOURCE_REGID>
SCHEMBL16117861

> <PUBCHEM_SUBSTANCE_COMMENT>
InChI=1S/C20H24ClF3N4O3/c1-3-18(29)28-11-13(12-28)26-4-6-27(7-5-26)19(30)10-25-16-8-14(20(22,23)24)15(21)9-17(16)31-2/h3,8-9,13,25H,1,4-7,10-12H2,2H3
InChIKey=LIFLNRABFIEWHB-UHFFFAOYSA-N

> <PUBCHEM_SUBSTANCE_SYNONYM>
SCHEMBL16117861

> <PUBCHEM_XREF_EXT_ID>
SCHEMBL16117861

> <PUBCHEM_EXT_DATASOURCE_URL>
https://www.surechembl.org/

> <PUBCHEM_EXT_SUBSTANCE_URL>
https://www.surechembl.org/chemical/SCHEMBL16117861

> <PUBCHEM_CID_ASSOCIATIONS>
86279951  1

> <PUBCHEM_COORDINATE_TYPE>
1
3

$$$$
