310944115
  -OEChem-07211613022D

 31 35  0     0  0  0  0  0  0999 V2000
    2.5626    0.6527    0.0000 O   0  0  0  0  0  0  0  0  0  0  0  0
    5.4618    0.0343    0.0000 O   0  0  0  0  0  0  0  0  0  0  0  0
    5.4343    1.5183    0.0000 O   0  0  0  0  0  0  0  0  0  0  0  0
    3.4008   -0.5565    0.0000 N   0  0  0  0  0  0  0  0  0  0  0  0
    0.4466   -0.4466    0.0000 N   0  0  0  0  0  0  0  0  0  0  0  0
   -4.1427   -0.3642    0.0000 N   0  0  0  0  0  0  0  0  0  0  0  0
   -2.7961    0.1305    0.0000 N   0  0  0  0  0  0  0  0  0  0  0  0
   -4.5000    0.3779    0.0000 N   0  0  0  0  0  0  0  0  0  0  0  0
   -5.3106    0.2680    0.0000 N   0  0  0  0  0  0  0  0  0  0  0  0
   -5.4618   -0.5565    0.0000 N   0  0  0  0  0  0  0  0  0  0  0  0
    2.0680   -0.7350    0.0000 C   0  0  0  0  0  0  0  0  0  0  0  0
    2.6725   -0.1718    0.0000 C   0  0  0  0  0  0  0  0  0  0  0  0
    4.1290   -0.1718    0.0000 C   0  0  0  0  0  0  0  0  0  0  0  0
    2.3564   -1.5183    0.0000 C   0  0  0  0  0  0  0  0  0  0  0  0
    3.1810   -1.4908    0.0000 C   0  0  0  0  0  0  0  0  0  0  0  0
    1.5458   -1.3672    0.0000 C   0  0  0  0  0  0  0  0  0  0  0  0
    1.7931    0.0481    0.0000 C   0  0  0  0  0  0  0  0  0  0  0  0
    4.2664    0.6389    0.0000 C   0  0  0  0  0  0  0  0  0  0  0  0
    4.8848   -0.5428    0.0000 C   0  0  0  0  0  0  0  0  0  0  0  0
    5.0496    0.7626    0.0000 C   0  0  0  0  0  0  0  0  0  0  0  0
    0.7350   -1.2298    0.0000 C   0  0  0  0  0  0  0  0  0  0  0  0
    0.9824    0.1855    0.0000 C   0  0  0  0  0  0  0  0  0  0  0  0
    3.6618    1.2160    0.0000 C   0  0  0  0  0  0  0  0  0  0  0  0
   -0.3642   -0.3092    0.0000 C   0  0  0  0  0  0  0  0  0  0  0  0
   -3.3321   -0.5153    0.0000 C   0  0  0  0  0  0  0  0  0  0  0  0
   -1.7107   -0.7763    0.0000 C   0  0  0  0  0  0  0  0  0  0  0  0
   -0.9000   -0.9412    0.0000 C   0  0  0  0  0  0  0  0  0  0  0  0
   -3.0435   -1.2847    0.0000 C   0  0  0  0  0  0  0  0  0  0  0  0
   -1.9718   -0.0206    0.0000 C   0  0  0  0  0  0  0  0  0  0  0  0
   -2.2328   -1.4358    0.0000 C   0  0  0  0  0  0  0  0  0  0  0  0
   -4.7336   -0.9412    0.0000 C   0  0  0  0  0  0  0  0  0  0  0  0
  1 12  2  0  0  0  0
  2 19  1  0  0  0  0
  2 20  1  0  0  0  0
  3 20  2  0  0  0  0
  4 12  1  0  0  0  0
  4 13  1  0  0  0  0
  4 15  1  0  0  0  0
  5 21  1  0  0  0  0
  5 22  1  0  0  0  0
  5 24  1  0  0  0  0
  6  8  1  0  0  0  0
  6 25  1  0  0  0  0
  6 31  1  0  0  0  0
  7 25  1  0  0  0  0
  7 29  2  0  0  0  0
  8  9  2  0  0  0  0
  9 10  1  0  0  0  0
 10 31  2  0  0  0  0
 11 12  1  0  0  0  0
 11 14  1  0  0  0  0
 11 16  1  0  0  0  0
 11 17  1  0  0  0  0
 13 18  2  0  0  0  0
 13 19  1  0  0  0  0
 14 15  1  0  0  0  0
 16 21  1  0  0  0  0
 17 22  1  0  0  0  0
 18 20  1  0  0  0  0
 18 23  1  0  0  0  0
 24 27  1  0  0  0  0
 25 28  2  0  0  0  0
 26 27  1  0  0  0  0
 26 29  1  0  0  0  0
 26 30  2  0  0  0  0
 28 30  1  0  0  0  0
M  END
> <PUBCHEM_COMPOUND_ID_TYPE>
0

> <PUBCHEM_TOTAL_CHARGE>
0

> <PUBCHEM_SUBSTANCE_ID>
310944115

> <PUBCHEM_SUBSTANCE_VERSION>
1

> <PUBCHEM_EXT_DATASOURCE_NAME>
4488

> <PUBCHEM_EXT_DATASOURCE_REGID>
SCHEMBL16122190

> <PUBCHEM_SUBSTANCE_COMMENT>
InChI=1S/C21H25N7O3/c1-15-17(13-31-19(15)29)27-11-7-21(20(27)30)5-9-26(10-6-21)8-4-16-2-3-18(22-12-16)28-14-23-24-25-28/h2-3,12,14H,4-11,13H2,1H3
InChIKey=HKVFMNDHLVPFQU-UHFFFAOYSA-N

> <PUBCHEM_SUBSTANCE_SYNONYM>
SCHEMBL16122190

> <PUBCHEM_XREF_EXT_ID>
SCHEMBL16122190

> <PUBCHEM_EXT_DATASOURCE_URL>
https://www.surechembl.org/

> <PUBCHEM_EXT_SUBSTANCE_URL>
https://www.surechembl.org/chemical/SCHEMBL16122190

> <PUBCHEM_CID_ASSOCIATIONS>
117610398  1

> <PUBCHEM_COORDINATE_TYPE>
1
3

$$$$
