310940909
  -OEChem-07211613022D

 12 12  0     0  0  0  0  0  0999 V2000
    2.1577    0.9277    0.0000 I   0  0  0  0  0  0  0  0  0  0  0  0
   -2.1577   -0.2268    0.0000 O   0  0  0  0  0  0  0  0  0  0  0  0
    1.5118   -0.2268    0.0000 O   0  0  0  0  0  0  0  0  0  0  0  0
    0.0962    0.5978    0.0000 N   0  0  0  0  0  0  0  0  0  0  0  0
   -1.3469   -0.2130    0.0000 C   0  0  0  0  0  0  0  0  0  0  0  0
   -1.3194    0.6253    0.0000 C   0  0  0  0  0  0  0  0  0  0  0  0
   -0.6184   -0.6116    0.0000 C   0  0  0  0  0  0  0  0  0  0  0  0
   -0.6322    1.0239    0.0000 C   0  0  0  0  0  0  0  0  0  0  0  0
    0.0962   -0.1993    0.0000 C   0  0  0  0  0  0  0  0  0  0  0  0
    0.7971    1.0239    0.0000 C   0  0  0  0  0  0  0  0  0  0  0  0
    1.5255    0.6391    0.0000 C   0  0  0  0  0  0  0  0  0  0  0  0
   -1.9516   -1.0239    0.0000 C   0  0  0  0  0  0  0  0  0  0  0  0
  1 11  1  0  0  0  0
  2  5  1  0  0  0  0
  3 11  2  0  0  0  0
  4  8  1  0  0  0  0
  4  9  1  0  0  0  0
  4 10  1  0  0  0  0
  5  6  1  0  0  0  0
  5  7  1  0  0  0  0
  5 12  1  0  0  0  0
  6  8  1  0  0  0  0
  7  9  1  0  0  0  0
 10 11  1  0  0  0  0
M  END
> <PUBCHEM_COMPOUND_ID_TYPE>
0

> <PUBCHEM_TOTAL_CHARGE>
0

> <PUBCHEM_SUBSTANCE_ID>
310940909

> <PUBCHEM_SUBSTANCE_VERSION>
1

> <PUBCHEM_EXT_DATASOURCE_NAME>
4488

> <PUBCHEM_EXT_DATASOURCE_REGID>
SCHEMBL16118868

> <PUBCHEM_SUBSTANCE_COMMENT>
InChI=1S/C8H14INO2/c1-8(12)2-4-10(5-3-8)6-7(9)11/h12H,2-6H2,1H3
InChIKey=WHFQHEMSBOVXFW-UHFFFAOYSA-N

> <PUBCHEM_SUBSTANCE_SYNONYM>
SCHEMBL16118868

> <PUBCHEM_XREF_EXT_ID>
SCHEMBL16118868

> <PUBCHEM_EXT_DATASOURCE_URL>
https://www.surechembl.org/

> <PUBCHEM_EXT_SUBSTANCE_URL>
https://www.surechembl.org/chemical/SCHEMBL16118868

> <PUBCHEM_CID_ASSOCIATIONS>
117607818  1

> <PUBCHEM_COORDINATE_TYPE>
1
3

$$$$
