310945238
  -OEChem-07211613022D

 32 37  0     0  0  0  0  0  0999 V2000
   -2.4834   -2.6981    0.0000 F   0  0  0  0  0  0  0  0  0  0  0  0
    3.2675    2.6981    0.0000 O   0  0  0  0  0  0  0  0  0  0  0  0
   -3.3422    0.1401    0.0000 O   0  0  0  0  0  0  0  0  0  0  0  0
    1.9045    0.2334    0.0000 N   0  0  0  0  0  0  0  0  0  0  0  0
    4.0519    1.5404    0.0000 N   0  0  0  0  0  0  0  0  0  0  0  0
   -1.2137    0.8495    0.0000 N   0  0  0  0  0  0  0  0  0  0  0  0
   -3.3422   -1.2791    0.0000 N   0  0  0  0  0  0  0  0  0  0  0  0
    4.1452    0.7189    0.0000 C   0  0  0  0  0  0  0  0  0  0  0  0
    2.5954    1.3911    0.0000 C   0  0  0  0  0  0  0  0  0  0  0  0
    2.6701    0.5881    0.0000 C   0  0  0  0  0  0  0  0  0  0  0  0
    1.7365    1.5590    0.0000 C   0  0  0  0  0  0  0  0  0  0  0  0
    1.3257    0.8495    0.0000 C   0  0  0  0  0  0  0  0  0  0  0  0
    3.4543    0.2334    0.0000 C   0  0  0  0  0  0  0  0  0  0  0  0
    3.2675    1.8578    0.0000 C   0  0  0  0  0  0  0  0  0  0  0  0
    0.4855    0.8682    0.0000 C   0  0  0  0  0  0  0  0  0  0  0  0
    4.9668    0.7936    0.0000 C   0  0  0  0  0  0  0  0  0  0  0  0
    4.6493    0.0841    0.0000 C   0  0  0  0  0  0  0  0  0  0  0  0
    0.0560    1.5590    0.0000 C   0  0  0  0  0  0  0  0  0  0  0  0
    1.3257    2.2500    0.0000 C   0  0  0  0  0  0  0  0  0  0  0  0
    0.0560    0.1214    0.0000 C   0  0  0  0  0  0  0  0  0  0  0  0
    0.4855    2.2500    0.0000 C   0  0  0  0  0  0  0  0  0  0  0  0
   -0.8029    0.1588    0.0000 C   0  0  0  0  0  0  0  0  0  0  0  0
   -0.7842    1.5590    0.0000 C   0  0  0  0  0  0  0  0  0  0  0  0
   -1.2324   -0.5881    0.0000 C   0  0  0  0  0  0  0  0  0  0  0  0
   -2.0726   -0.5881    0.0000 C   0  0  0  0  0  0  0  0  0  0  0  0
   -0.8029   -1.2977    0.0000 C   0  0  0  0  0  0  0  0  0  0  0  0
   -2.5020   -1.2791    0.0000 C   0  0  0  0  0  0  0  0  0  0  0  0
   -2.0726   -1.9699    0.0000 C   0  0  0  0  0  0  0  0  0  0  0  0
   -1.2324   -1.9886    0.0000 C   0  0  0  0  0  0  0  0  0  0  0  0
   -3.7904   -0.5881    0.0000 C   0  0  0  0  0  0  0  0  0  0  0  0
   -4.6119   -0.5694    0.0000 C   0  0  0  0  0  0  0  0  0  0  0  0
   -4.9668    0.1588    0.0000 C   0  0  0  0  0  0  0  0  0  0  0  0
  1 28  1  0  0  0  0
  2 14  2  0  0  0  0
  3 30  2  0  0  0  0
  4 10  1  0  0  0  0
  4 12  1  0  0  0  0
  5  8  1  0  0  0  0
  5 14  1  0  0  0  0
  6 22  1  0  0  0  0
  6 23  2  0  0  0  0
  7 27  1  0  0  0  0
  7 30  1  0  0  0  0
  8 13  1  0  0  0  0
  8 16  1  0  0  0  0
  8 17  1  0  0  0  0
  9 10  2  0  0  0  0
  9 11  1  0  0  0  0
  9 14  1  0  0  0  0
 10 13  1  0  0  0  0
 11 12  2  0  0  0  0
 11 19  1  0  0  0  0
 12 15  1  0  0  0  0
 15 18  2  0  0  0  0
 15 20  1  0  0  0  0
 16 17  1  0  0  0  0
 18 21  1  0  0  0  0
 18 23  1  0  0  0  0
 19 21  1  0  0  0  0
 20 22  2  0  0  0  0
 22 24  1  0  0  0  0
 24 25  2  0  0  0  0
 24 26  1  0  0  0  0
 25 27  1  0  0  0  0
 26 29  2  0  0  0  0
 27 28  2  0  0  0  0
 28 29  1  0  0  0  0
 30 31  1  0  0  0  0
 31 32  2  0  0  0  0
M  END
> <PUBCHEM_COMPOUND_ID_TYPE>
0

> <PUBCHEM_TOTAL_CHARGE>
0

> <PUBCHEM_SUBSTANCE_ID>
310945238

> <PUBCHEM_SUBSTANCE_VERSION>
1

> <PUBCHEM_EXT_DATASOURCE_NAME>
4488

> <PUBCHEM_EXT_DATASOURCE_REGID>
SCHEMBL16123329

> <PUBCHEM_SUBSTANCE_COMMENT>
InChI=1S/C25H21FN4O2/c1-2-21(31)28-19-9-13(4-6-17(19)26)18-10-16-14(12-27-18)3-5-15-22-20(29-23(15)16)11-25(7-8-25)30-24(22)32/h2,4,6,9-10,12,29H,1,3,5,7-8,11H2,(H,28,31)(H,30,32)
InChIKey=STOSLXGWDSQMDT-UHFFFAOYSA-N

> <PUBCHEM_SUBSTANCE_SYNONYM>
SCHEMBL16123329

> <PUBCHEM_XREF_EXT_ID>
SCHEMBL16123329

> <PUBCHEM_EXT_DATASOURCE_URL>
https://www.surechembl.org/

> <PUBCHEM_EXT_SUBSTANCE_URL>
https://www.surechembl.org/chemical/SCHEMBL16123329

> <PUBCHEM_CID_ASSOCIATIONS>
86300314  1

> <PUBCHEM_COORDINATE_TYPE>
1
3

$$$$
