310930078
  -OEChem-07211613022D

 19 20  0     0  0  0  0  0  0999 V2000
    3.3247   -5.5876    0.0000 O   0  0  0  0  0  0  0  0  0  0  0  0
    4.7774   -5.3641    0.0000 O   0  0  0  0  0  0  0  0  0  0  0  0
    1.2572    0.0000    0.0000 O   0  0  0  0  0  0  0  0  0  0  0  0
    2.4865   -0.7264    0.0000 O   0  0  0  0  0  0  0  0  0  0  0  0
    1.2572   -1.4248    0.0000 N   0  0  0  0  0  0  0  0  0  0  0  0
    3.7717   -4.3025    0.0000 C   0  0  0  0  0  0  0  0  0  0  0  0
    2.9056   -4.3025    0.0000 C   0  0  0  0  0  0  0  0  0  0  0  0
    3.9952   -5.0848    0.0000 C   0  0  0  0  0  0  0  0  0  0  0  0
    2.9056   -2.8776    0.0000 C   0  0  0  0  0  0  0  0  0  0  0  0
    2.5145   -3.5761    0.0000 C   0  0  0  0  0  0  0  0  0  0  0  0
    2.6821   -5.0848    0.0000 C   0  0  0  0  0  0  0  0  0  0  0  0
    4.1628   -3.5761    0.0000 C   0  0  0  0  0  0  0  0  0  0  0  0
    3.7717   -2.8776    0.0000 C   0  0  0  0  0  0  0  0  0  0  0  0
    2.4865   -2.1512    0.0000 C   0  0  0  0  0  0  0  0  0  0  0  0
    1.6763   -2.1512    0.0000 C   0  0  0  0  0  0  0  0  0  0  0  0
    1.6763   -0.7264    0.0000 C   0  0  0  0  0  0  0  0  0  0  0  0
    0.4191   -1.4248    0.0000 C   0  0  0  0  0  0  0  0  0  0  0  0
    0.0000   -2.1512    0.0000 C   0  0  0  0  0  0  0  0  0  0  0  0
    0.4191   -2.8776    0.0000 C   0  0  0  0  0  0  0  0  0  0  0  0
  1  8  1  0  0  0  0
  1 11  1  0  0  0  0
  2  8  2  0  0  0  0
  3 16  2  0  0  0  0
  4 16  1  0  0  0  0
  5 15  1  0  0  0  0
  5 16  1  0  0  0  0
  5 17  1  0  0  0  0
  6  7  2  0  0  0  0
  6  8  1  0  0  0  0
  6 12  1  0  0  0  0
  7 10  1  0  0  0  0
  7 11  1  0  0  0  0
  9 10  2  0  0  0  0
  9 13  1  0  0  0  0
  9 14  1  0  0  0  0
 12 13  2  0  0  0  0
 14 15  1  0  0  0  0
 17 18  1  0  0  0  0
 18 19  2  0  0  0  0
M  END
> <PUBCHEM_COMPOUND_ID_TYPE>
0

> <PUBCHEM_TOTAL_CHARGE>
0

> <PUBCHEM_SUBSTANCE_ID>
310930078

> <PUBCHEM_SUBSTANCE_VERSION>
1

> <PUBCHEM_EXT_DATASOURCE_NAME>
4488

> <PUBCHEM_EXT_DATASOURCE_REGID>
SCHEMBL16107322

> <PUBCHEM_SUBSTANCE_COMMENT>
InChI=1S/C14H15NO4/c1-2-6-15(14(17)18)7-5-10-3-4-12-11(8-10)9-19-13(12)16/h2-4,8H,1,5-7,9H2,(H,17,18)
InChIKey=TTYGJSXLHRDLEZ-UHFFFAOYSA-N

> <PUBCHEM_SUBSTANCE_SYNONYM>
SCHEMBL16107322

> <PUBCHEM_XREF_EXT_ID>
SCHEMBL16107322

> <PUBCHEM_EXT_DATASOURCE_URL>
https://www.surechembl.org/

> <PUBCHEM_EXT_SUBSTANCE_URL>
https://www.surechembl.org/chemical/SCHEMBL16107322

> <PUBCHEM_CID_ASSOCIATIONS>
117599314  1

> <PUBCHEM_COORDINATE_TYPE>
1
3

$$$$
