310929670
  -OEChem-07211613022D

 68 75  0     1  0  0  0  0  0999 V2000
    9.2539    6.3698    0.0000 S   0  0  0  0  0  0  0  0  0  0  0  0
    8.1077    5.1829    0.0000 O   0  0  0  0  0  0  0  0  0  0  0  0
    5.4388    6.0031    0.0000 O   0  0  0  0  0  0  0  0  0  0  0  0
    5.4957    2.3479    0.0000 O   0  0  0  0  0  0  0  0  0  0  0  0
    4.0668    5.6479    0.0000 O   0  0  0  0  0  0  0  0  0  0  0  0
    9.4535    7.1703    0.0000 O   0  0  0  0  0  0  0  0  0  0  0  0
   10.0544    6.1703    0.0000 O   0  0  0  0  0  0  0  0  0  0  0  0
    2.6680    2.4606    0.0000 O   0  0  0  0  0  0  0  0  0  0  0  0
    6.9246   -0.1271    0.0000 O   0  0  0  0  0  0  0  0  0  0  0  0
    1.9233    3.5854    0.0000 O   0  0  0  0  0  0  0  0  0  0  0  0
    8.3536   -0.1271    0.0000 O   0  0  0  0  0  0  0  0  0  0  0  0
    6.7442    5.4219    0.0000 N   0  0  0  0  0  0  0  0  0  0  0  0
    4.7812    4.4104    0.0000 N   0  0  0  0  0  0  0  0  0  0  0  0
    8.4534    6.5694    0.0000 N   0  0  0  0  0  0  0  0  0  0  0  0
    3.3523    3.5854    0.0000 N   0  0  0  0  0  0  0  0  0  0  0  0
    6.9246    2.3479    0.0000 N   0  0  0  0  0  0  0  0  0  0  0  0
    7.0798    6.1756    0.0000 C   0  0  3  0  0  0  0  0  0  0  0  0
    6.3958    6.6369    0.0000 C   0  0  3  0  0  0  0  0  0  0  0  0
    7.1373    6.9985    0.0000 C   0  0  0  0  0  0  0  0  0  0  0  0
    7.8803    5.9760    0.0000 C   0  0  0  0  0  0  0  0  0  0  0  0
    5.5882    4.5820    0.0000 C   0  0  3  0  0  0  0  0  0  0  0  0
    5.9238    5.3356    0.0000 C   0  0  0  0  0  0  0  0  0  0  0  0
    5.5728    6.6944    0.0000 C   0  0  0  0  0  0  0  0  0  0  0  0
    5.4957    3.1729    0.0000 C   0  0  3  0  0  0  0  0  0  0  0  0
    6.0007    3.8675    0.0000 C   0  0  0  0  0  0  0  0  0  0  0  0
    4.7812    3.5854    0.0000 C   0  0  0  0  0  0  0  0  0  0  0  0
    4.0668    4.8229    0.0000 C   0  0  0  0  0  0  0  0  0  0  0  0
    3.3523    4.4104    0.0000 C   0  0  3  0  0  0  0  0  0  0  0  0
    9.0543    5.5693    0.0000 C   0  0  0  0  0  0  0  0  0  0  0  0
    5.2112    7.4359    0.0000 C   0  0  0  0  0  0  0  0  0  0  0  0
    2.6378    4.8229    0.0000 C   0  0  0  0  0  0  0  0  0  0  0  0
    6.2102    1.9354    0.0000 C   0  0  0  0  0  0  0  0  0  0  0  0
    8.4812    4.9759    0.0000 C   0  0  0  0  0  0  0  0  0  0  0  0
    9.2817    4.7763    0.0000 C   0  0  0  0  0  0  0  0  0  0  0  0
    6.2102    1.1104    0.0000 C   0  0  0  0  0  0  0  0  0  0  0  0
    2.6378    3.1729    0.0000 C   0  0  0  0  0  0  0  0  0  0  0  0
    6.9246    0.6979    0.0000 C   0  0  0  0  0  0  0  0  0  0  0  0
    2.5516    5.6434    0.0000 C   0  0  0  0  0  0  0  0  0  0  0  0
    1.8841    4.4874    0.0000 C   0  0  0  0  0  0  0  0  0  0  0  0
    3.3523    1.9354    0.0000 C   0  0  3  0  0  0  0  0  0  0  0  0
    7.6391    1.9354    0.0000 C   0  0  0  0  0  0  0  0  0  0  0  0
    7.6391    1.1104    0.0000 C   0  0  0  0  0  0  0  0  0  0  0  0
    3.3523    1.1104    0.0000 C   0  0  3  0  0  0  0  0  0  0  0  0
    5.4957    0.6979    0.0000 C   0  0  0  0  0  0  0  0  0  0  0  0
    1.7446    5.8150    0.0000 C   0  0  0  0  0  0  0  0  0  0  0  0
    1.3321    5.1005    0.0000 C   0  0  0  0  0  0  0  0  0  0  0  0
    2.5677    2.1904    0.0000 C   0  0  0  0  0  0  0  0  0  0  0  0
    8.3536    0.6979    0.0000 C   0  0  0  0  0  0  0  0  0  0  0  0
    8.3536    2.3479    0.0000 C   0  0  0  0  0  0  0  0  0  0  0  0
    2.5677    0.8555    0.0000 C   0  0  0  0  0  0  0  0  0  0  0  0
    4.0668    0.6979    0.0000 C   0  0  0  0  0  0  0  0  0  0  0  0
    2.0827    1.5229    0.0000 C   0  0  0  0  0  0  0  0  0  0  0  0
    5.4957   -0.1271    0.0000 C   0  0  0  0  0  0  0  0  0  0  0  0
    7.6391   -0.5396    0.0000 C   0  0  0  0  0  0  0  0  0  0  0  0
    9.0681    1.1104    0.0000 C   0  0  0  0  0  0  0  0  0  0  0  0
    9.0681    1.9354    0.0000 C   0  0  0  0  0  0  0  0  0  0  0  0
    4.0668   -0.1271    0.0000 C   0  0  0  0  0  0  0  0  0  0  0  0
    4.7812   -0.5396    0.0000 C   0  0  0  0  0  0  0  0  0  0  0  0
    7.6391   -1.3646    0.0000 C   0  0  0  0  0  0  0  0  0  0  0  0
    8.3536   -1.7771    0.0000 C   0  0  0  0  0  0  0  0  0  0  0  0
    8.3536   -2.6021    0.0000 C   0  0  0  0  0  0  0  0  0  0  0  0
    9.0681   -1.3646    0.0000 C   0  0  0  0  0  0  0  0  0  0  0  0
    6.1272    5.8568    0.0000 H   0  0  0  0  0  0  0  0  0  0  0  0
    6.4121    4.6251    0.0000 H   0  0  0  0  0  0  0  0  0  0  0  0
    6.2803    2.9179    0.0000 H   0  0  0  0  0  0  0  0  0  0  0  0
    3.3523    5.2354    0.0000 H   0  0  0  0  0  0  0  0  0  0  0  0
    3.0399    2.6990    0.0000 H   0  0  0  0  0  0  0  0  0  0  0  0
    3.2660    0.2900    0.0000 H   0  0  0  0  0  0  0  0  0  0  0  0
  1  6  2  0  0  0  0
  1  7  2  0  0  0  0
  1 14  1  0  0  0  0
  1 29  1  0  0  0  0
  2 20  2  0  0  0  0
  3 22  2  0  0  0  0
  4 24  1  0  0  0  0
  4 32  1  0  0  0  0
  5 27  2  0  0  0  0
  8 36  1  0  0  0  0
  8 40  1  0  0  0  0
  9 37  1  0  0  0  0
  9 54  1  0  0  0  0
 10 36  2  0  0  0  0
 11 54  2  0  0  0  0
 17 12  1  1  0  0  0
 12 22  1  0  0  0  0
 13 21  1  0  0  0  0
 13 26  1  0  0  0  0
 13 27  1  0  0  0  0
 14 20  1  0  0  0  0
 15 28  1  0  0  0  0
 15 36  1  0  0  0  0
 16 32  2  0  0  0  0
 16 41  1  0  0  0  0
 17 18  1  0  0  0  0
 17 19  1  0  0  0  0
 17 20  1  6  0  0  0
 18 19  1  0  0  0  0
 18 23  1  6  0  0  0
 18 63  1  1  0  0  0
 21 22  1  0  0  0  0
 21 25  1  0  0  0  0
 21 64  1  1  0  0  0
 23 30  2  0  0  0  0
 24 25  1  0  0  0  0
 24 26  1  0  0  0  0
 24 65  1  6  0  0  0
 27 28  1  0  0  0  0
 28 31  1  0  0  0  0
 28 66  1  6  0  0  0
 29 33  1  0  0  0  0
 29 34  1  0  0  0  0
 31 38  1  0  0  0  0
 31 39  1  0  0  0  0
 32 35  1  0  0  0  0
 33 34  1  0  0  0  0
 35 37  2  0  0  0  0
 35 44  1  0  0  0  0
 37 42  1  0  0  0  0
 38 45  1  0  0  0  0
 39 46  1  0  0  0  0
 40 43  1  0  0  0  0
 40 47  1  0  0  0  0
 40 67  1  6  0  0  0
 41 42  2  0  0  0  0
 41 49  1  0  0  0  0
 42 48  1  0  0  0  0
 43 50  1  0  0  0  0
 43 51  1  0  0  0  0
 43 68  1  1  0  0  0
 44 53  1  0  0  0  0
 45 46  1  0  0  0  0
 47 52  1  0  0  0  0
 48 55  2  0  0  0  0
 49 56  2  0  0  0  0
 50 52  1  0  0  0  0
 51 57  1  0  0  0  0
 53 58  2  0  0  0  0
 54 59  1  0  0  0  0
 55 56  1  0  0  0  0
 57 58  1  0  0  0  0
 59 60  1  0  0  0  0
 60 61  1  0  0  0  0
 60 62  1  0  0  0  0
M  END
> <PUBCHEM_COMPOUND_ID_TYPE>
0

> <PUBCHEM_TOTAL_CHARGE>
0

> <PUBCHEM_SUBSTANCE_ID>
310929670

> <PUBCHEM_SUBSTANCE_VERSION>
1

> <PUBCHEM_EXT_DATASOURCE_NAME>
4488

> <PUBCHEM_EXT_DATASOURCE_REGID>
SCHEMBL16106861

> <PUBCHEM_SUBSTANCE_COMMENT>
InChI=1S/C46H59N5O10S/c1-4-30-25-46(30,44(55)50-62(57,58)32-21-22-32)49-41(53)36-24-31-26-51(36)43(54)39(29-14-8-9-15-29)48-45(56)60-37-20-12-16-28(37)13-6-5-7-18-34-40(61-38(52)23-27(2)3)33-17-10-11-19-35(33)47-42(34)59-31/h4-5,7,10-11,17,19,27-32,36-37,39H,1,6,8-9,12-16,18,20-26H2,2-3H3,(H,48,56)(H,49,53)(H,50,55)/t28-,30-,31-,36+,37-,39+,46-/m1/s1
InChIKey=HMOYCLJEUGRHGV-AQUFRAKWSA-N

> <PUBCHEM_SUBSTANCE_SYNONYM>
SCHEMBL16106861

> <PUBCHEM_XREF_EXT_ID>
SCHEMBL16106861

> <PUBCHEM_EXT_DATASOURCE_URL>
https://www.surechembl.org/

> <PUBCHEM_EXT_SUBSTANCE_URL>
https://www.surechembl.org/chemical/SCHEMBL16106861

> <PUBCHEM_CID_ASSOCIATIONS>
117598968  1

> <PUBCHEM_COORDINATE_TYPE>
1
3

> <PUBCHEM_BONDANNOTATIONS>
17  12  5
17  20  6
18  23  6
18  63  5
21  64  5
24  65  6
28  66  6
40  67  6
43  68  5
58  57  3

$$$$
