310938554
  -OEChem-07211613022D

 29 32  0     0  0  0  0  0  0999 V2000
   -3.9913    0.8655    0.0000 S   0  0  0  0  0  0  0  0  0  0  0  0
    2.7538   -2.5155    0.0000 F   0  0  0  0  0  0  0  0  0  0  0  0
    3.9913   -1.8010    0.0000 F   0  0  0  0  0  0  0  0  0  0  0  0
    3.5788   -2.5155    0.0000 F   0  0  0  0  0  0  0  0  0  0  0  0
   -2.0072    2.5155    0.0000 O   0  0  0  0  0  0  0  0  0  0  0  0
   -0.5783    0.0405    0.0000 N   0  0  0  0  0  0  0  0  0  0  0  0
    0.2063    0.2954    0.0000 N   0  0  0  0  0  0  0  0  0  0  0  0
   -1.2928    1.2780    0.0000 N   0  0  0  0  0  0  0  0  0  0  0  0
   -1.2928   -1.1970    0.0000 N   0  0  0  0  0  0  0  0  0  0  0  0
   -2.7217    0.4530    0.0000 N   0  0  0  0  0  0  0  0  0  0  0  0
   -0.5783   -0.7845    0.0000 C   0  0  0  0  0  0  0  0  0  0  0  0
    0.6913   -0.3720    0.0000 C   0  0  0  0  0  0  0  0  0  0  0  0
   -1.2928    0.4530    0.0000 C   0  0  0  0  0  0  0  0  0  0  0  0
    1.5163   -0.3720    0.0000 C   0  0  0  0  0  0  0  0  0  0  0  0
    0.2063   -1.0395    0.0000 C   0  0  0  0  0  0  0  0  0  0  0  0
   -2.7217    1.2780    0.0000 C   0  0  0  0  0  0  0  0  0  0  0  0
   -2.0072    1.6905    0.0000 C   0  0  0  0  0  0  0  0  0  0  0  0
   -2.0072    0.0405    0.0000 C   0  0  0  0  0  0  0  0  0  0  0  0
    2.7538   -1.0865    0.0000 C   0  0  0  0  0  0  0  0  0  0  0  0
    1.9288   -1.0865    0.0000 C   0  0  0  0  0  0  0  0  0  0  0  0
   -3.5063    1.5329    0.0000 C   0  0  0  0  0  0  0  0  0  0  0  0
   -2.0072   -0.7845    0.0000 C   0  0  0  0  0  0  0  0  0  0  0  0
    1.9288    0.3424    0.0000 C   0  0  0  0  0  0  0  0  0  0  0  0
    3.1663   -1.8010    0.0000 C   0  0  0  0  0  0  0  0  0  0  0  0
   -3.5063    0.1980    0.0000 C   0  0  0  0  0  0  0  0  0  0  0  0
    3.1663   -0.3720    0.0000 C   0  0  0  0  0  0  0  0  0  0  0  0
    2.7538    0.3424    0.0000 C   0  0  0  0  0  0  0  0  0  0  0  0
   -3.9188    2.2474    0.0000 C   0  0  0  0  0  0  0  0  0  0  0  0
   -3.9188   -0.5165    0.0000 C   0  0  0  0  0  0  0  0  0  0  0  0
  1 21  1  0  0  0  0
  1 25  1  0  0  0  0
  2 24  1  0  0  0  0
  3 24  1  0  0  0  0
  4 24  1  0  0  0  0
  5 17  2  0  0  0  0
  6  7  1  0  0  0  0
  6 11  1  0  0  0  0
  6 13  1  0  0  0  0
  7 12  2  0  0  0  0
  8 13  1  0  0  0  0
  8 17  1  0  0  0  0
  9 11  1  0  0  0  0
  9 22  2  0  0  0  0
 10 16  1  0  0  0  0
 10 25  2  0  0  0  0
 11 15  2  0  0  0  0
 12 14  1  0  0  0  0
 12 15  1  0  0  0  0
 13 18  2  0  0  0  0
 14 20  1  0  0  0  0
 14 23  2  0  0  0  0
 16 17  1  0  0  0  0
 16 21  2  0  0  0  0
 18 22  1  0  0  0  0
 19 20  2  0  0  0  0
 19 24  1  0  0  0  0
 19 26  1  0  0  0  0
 21 28  1  0  0  0  0
 23 27  1  0  0  0  0
 25 29  1  0  0  0  0
 26 27  2  0  0  0  0
M  END
> <PUBCHEM_COMPOUND_ID_TYPE>
0

> <PUBCHEM_TOTAL_CHARGE>
0

> <PUBCHEM_SUBSTANCE_ID>
310938554

> <PUBCHEM_SUBSTANCE_VERSION>
1

> <PUBCHEM_EXT_DATASOURCE_NAME>
4488

> <PUBCHEM_EXT_DATASOURCE_REGID>
SCHEMBL16116468

> <PUBCHEM_SUBSTANCE_COMMENT>
InChI=1S/C19H14F3N5OS/c1-10-17(24-11(2)29-10)18(28)25-15-6-7-23-16-9-14(26-27(15)16)12-4-3-5-13(8-12)19(20,21)22/h3-9H,1-2H3,(H,25,28)
InChIKey=VBBPHROHRYDRGM-UHFFFAOYSA-N

> <PUBCHEM_SUBSTANCE_SYNONYM>
SCHEMBL16116468

> <PUBCHEM_XREF_EXT_ID>
SCHEMBL16116468

> <PUBCHEM_EXT_DATASOURCE_URL>
https://www.surechembl.org/

> <PUBCHEM_EXT_SUBSTANCE_URL>
https://www.surechembl.org/chemical/SCHEMBL16116468

> <PUBCHEM_CID_ASSOCIATIONS>
117605993  1

> <PUBCHEM_COORDINATE_TYPE>
1
3

$$$$
