310937290
  -OEChem-07211613022D

 19 20  0     0  0  0  0  0  0999 V2000
   -0.5052   -3.3500    0.0000 O   0  0  0  0  0  0  0  0  0  0  0  0
    0.2093   -0.1208    0.0000 O   0  0  0  0  0  0  0  0  0  0  0  0
   -1.2197   -0.1208    0.0000 O   0  0  0  0  0  0  0  0  0  0  0  0
    3.0671   -3.7625    0.0000 O   0  5  0  0  0  0  0  0  0  0  0  0
    2.3527   -2.5250    0.0000 O   0  0  0  0  0  0  0  0  0  0  0  0
   -0.5052   -1.3583    0.0000 N   0  0  0  0  0  0  0  0  0  0  0  0
    2.3527   -3.3500    0.0000 N   0  3  0  0  0  0  0  0  0  0  0  0
   -0.5052   -2.5250    0.0000 C   0  0  0  0  0  0  0  0  0  0  0  0
    0.2093   -3.7625    0.0000 C   0  0  0  0  0  0  0  0  0  0  0  0
    0.0782   -1.9417    0.0000 C   0  0  0  0  0  0  0  0  0  0  0  0
   -1.0886   -1.9417    0.0000 C   0  0  0  0  0  0  0  0  0  0  0  0
    1.6382   -3.7625    0.0000 C   0  0  0  0  0  0  0  0  0  0  0  0
    0.9237   -3.3500    0.0000 C   0  0  0  0  0  0  0  0  0  0  0  0
    0.9237   -5.0000    0.0000 C   0  0  0  0  0  0  0  0  0  0  0  0
    0.2093   -4.5875    0.0000 C   0  0  0  0  0  0  0  0  0  0  0  0
   -0.5052   -0.5333    0.0000 C   0  0  0  0  0  0  0  0  0  0  0  0
    1.6382   -4.5875    0.0000 C   0  0  0  0  0  0  0  0  0  0  0  0
    0.9237   -5.8250    0.0000 C   0  0  0  0  0  0  0  0  0  0  0  0
    1.6382   -6.2375    0.0000 C   0  0  0  0  0  0  0  0  0  0  0  0
  1  8  1  0  0  0  0
  1  9  1  0  0  0  0
  2 16  2  0  0  0  0
  3 16  1  0  0  0  0
  4  7  1  0  0  0  0
  5  7  2  0  0  0  0
  6 10  1  0  0  0  0
  6 11  1  0  0  0  0
  6 16  1  0  0  0  0
  7 12  1  0  0  0  0
  8 10  1  0  0  0  0
  8 11  1  0  0  0  0
  9 13  2  0  0  0  0
  9 15  1  0  0  0  0
 12 13  1  0  0  0  0
 12 17  2  0  0  0  0
 14 15  2  0  0  0  0
 14 17  1  0  0  0  0
 14 18  1  0  0  0  0
 18 19  2  0  0  0  0
M  CHG  2   4  -1   7   1
M  END
> <PUBCHEM_COMPOUND_ID_TYPE>
0

> <PUBCHEM_TOTAL_CHARGE>
0

> <PUBCHEM_SUBSTANCE_ID>
310937290

> <PUBCHEM_SUBSTANCE_VERSION>
1

> <PUBCHEM_EXT_DATASOURCE_NAME>
4488

> <PUBCHEM_EXT_DATASOURCE_REGID>
SCHEMBL16115035

> <PUBCHEM_SUBSTANCE_COMMENT>
InChI=1S/C12H12N2O5/c1-2-8-3-9(14(17)18)5-10(4-8)19-11-6-13(7-11)12(15)16/h2-5,11H,1,6-7H2,(H,15,16)
InChIKey=GARMGQHUMHZPNP-UHFFFAOYSA-N

> <PUBCHEM_SUBSTANCE_SYNONYM>
SCHEMBL16115035

> <PUBCHEM_XREF_EXT_ID>
SCHEMBL16115035

> <PUBCHEM_EXT_DATASOURCE_URL>
https://www.surechembl.org/

> <PUBCHEM_EXT_SUBSTANCE_URL>
https://www.surechembl.org/chemical/SCHEMBL16115035

> <PUBCHEM_CID_ASSOCIATIONS>
117605075  1

> <PUBCHEM_COORDINATE_TYPE>
1
3

$$$$
