310945965
  -OEChem-07211613022D

 29 31  0     1  0  0  0  0  0999 V2000
    4.0443   -1.7044    0.0000 O   0  0  0  0  0  0  0  0  0  0  0  0
    1.7532   -1.7044    0.0000 O   0  0  0  0  0  0  0  0  0  0  0  0
    1.0268   -1.2853    0.0000 O   0  0  0  0  0  0  0  0  0  0  0  0
   -1.1526    0.8102    0.0000 O   0  0  0  0  0  0  0  0  0  0  0  0
   -4.0443   -0.0280    0.0000 O   0  0  0  0  0  0  0  0  0  0  0  0
    1.7672   -0.0280    0.0000 N   0  0  0  0  0  0  0  0  0  0  0  0
   -0.4121   -0.4331    0.0000 N   0  0  0  0  0  0  0  0  0  0  0  0
   -2.5914   -0.0280    0.0000 N   0  0  0  0  0  0  0  0  0  0  0  0
    3.2061   -1.6485    0.0000 C   0  0  3  0  0  0  0  0  0  0  0  0
    2.4797   -1.2294    0.0000 C   0  0  0  0  0  0  0  0  0  0  0  0
    3.6252   -0.9639    0.0000 C   0  0  0  0  0  0  0  0  0  0  0  0
    2.5076   -0.4191    0.0000 C   0  0  3  0  0  0  0  0  0  0  0  0
    3.2201   -2.5006    0.0000 C   0  0  0  0  0  0  0  0  0  0  0  0
    3.2061    0.0000    0.0000 C   0  0  0  0  0  0  0  0  0  0  0  0
    1.0407   -0.3911    0.0000 C   0  0  0  0  0  0  0  0  0  0  0  0
    3.2201    0.8382    0.0000 C   0  0  0  0  0  0  0  0  0  0  0  0
    0.3143    0.0000    0.0000 C   0  0  3  0  0  0  0  0  0  0  0  0
   -1.1386   -0.0140    0.0000 C   0  0  0  0  0  0  0  0  0  0  0  0
   -1.8511   -0.4191    0.0000 C   0  0  0  0  0  0  0  0  0  0  0  0
    2.5076    1.2433    0.0000 C   0  0  0  0  0  0  0  0  0  0  0  0
    3.9465    1.2573    0.0000 C   0  0  0  0  0  0  0  0  0  0  0  0
   -1.8650   -1.2573    0.0000 C   0  0  0  0  0  0  0  0  0  0  0  0
   -3.2899   -0.4331    0.0000 C   0  0  0  0  0  0  0  0  0  0  0  0
    0.3143    0.8242    0.0000 C   0  0  0  0  0  0  0  0  0  0  0  0
   -2.5635   -1.6624    0.0000 C   0  0  0  0  0  0  0  0  0  0  0  0
   -3.3179   -1.2573    0.0000 C   0  0  0  0  0  0  0  0  0  0  0  0
    2.5076    2.0815    0.0000 C   0  0  0  0  0  0  0  0  0  0  0  0
    3.9465    2.0815    0.0000 C   0  0  0  0  0  0  0  0  0  0  0  0
    3.2061    2.5006    0.0000 C   0  0  0  0  0  0  0  0  0  0  0  0
  1  9  1  0  0  0  0
  1 11  1  0  0  0  0
  2 10  2  0  0  0  0
  3 15  2  0  0  0  0
  4 18  2  0  0  0  0
  5 23  2  0  0  0  0
 12  6  1  1  0  0  0
  6 15  1  0  0  0  0
  7 17  1  0  0  0  0
  7 18  1  0  0  0  0
  8 19  1  0  0  0  0
  8 23  1  0  0  0  0
  9 10  1  1  0  0  0
  9 11  1  0  0  0  0
  9 13  1  6  0  0  0
 10 12  1  0  0  0  0
 12 14  1  0  0  0  0
 14 16  1  0  0  0  0
 15 17  1  0  0  0  0
 16 20  2  0  0  0  0
 16 21  1  0  0  0  0
 17 24  1  1  0  0  0
 18 19  1  0  0  0  0
 19 22  2  0  0  0  0
 20 27  1  0  0  0  0
 21 28  2  0  0  0  0
 22 25  1  0  0  0  0
 23 26  1  0  0  0  0
 25 26  2  0  0  0  0
 27 29  2  0  0  0  0
 28 29  1  0  0  0  0
M  END
> <PUBCHEM_COMPOUND_ID_TYPE>
0

> <PUBCHEM_TOTAL_CHARGE>
0

> <PUBCHEM_SUBSTANCE_ID>
310945965

> <PUBCHEM_SUBSTANCE_VERSION>
1

> <PUBCHEM_EXT_DATASOURCE_NAME>
4488

> <PUBCHEM_EXT_DATASOURCE_REGID>
SCHEMBL16124070

> <PUBCHEM_SUBSTANCE_COMMENT>
InChI=1S/C21H23N3O5/c1-13(22-20(28)15-9-6-10-17(25)23-15)19(27)24-16(18(26)21(2)12-29-21)11-14-7-4-3-5-8-14/h3-10,13,16H,11-12H2,1-2H3,(H,22,28)(H,23,25)(H,24,27)/t13-,16-,21+/m0/s1
InChIKey=YNJMZRBUMATTLE-UYTHQXMGSA-N

> <PUBCHEM_SUBSTANCE_SYNONYM>
SCHEMBL16124070

> <PUBCHEM_XREF_EXT_ID>
SCHEMBL16124070

> <PUBCHEM_EXT_DATASOURCE_URL>
https://www.surechembl.org/

> <PUBCHEM_EXT_SUBSTANCE_URL>
https://www.surechembl.org/chemical/SCHEMBL16124070

> <PUBCHEM_CID_ASSOCIATIONS>
117611941  1

> <PUBCHEM_COORDINATE_TYPE>
1
3

> <PUBCHEM_BONDANNOTATIONS>
17  24  5
12  6  5
9  10  5
9  13  6

$$$$
