310936161
  -OEChem-07211613022D

 21 22  0     0  0  0  0  0  0999 V2000
    2.9858   -7.8573    0.0000 F   0  0  0  0  0  0  0  0  0  0  0  0
    0.8250   -1.6501    0.0000 O   0  0  0  0  0  0  0  0  0  0  0  0
    2.2786   -1.6501    0.0000 O   0  0  0  0  0  0  0  0  0  0  0  0
    1.5322   -2.8679    0.0000 N   0  0  0  0  0  0  0  0  0  0  0  0
    1.5322   -2.0429    0.0000 C   0  0  0  0  0  0  0  0  0  0  0  0
    1.5322   -4.5180    0.0000 C   0  0  0  0  0  0  0  0  0  0  0  0
    2.2786   -3.3001    0.0000 C   0  0  0  0  0  0  0  0  0  0  0  0
    0.8250   -3.3001    0.0000 C   0  0  0  0  0  0  0  0  0  0  0  0
    2.2786   -5.7751    0.0000 C   0  0  0  0  0  0  0  0  0  0  0  0
    2.2786   -4.1251    0.0000 C   0  0  0  0  0  0  0  0  0  0  0  0
    0.8250   -4.1251    0.0000 C   0  0  0  0  0  0  0  0  0  0  0  0
    1.5322   -5.3430    0.0000 C   0  0  0  0  0  0  0  0  0  0  0  0
    0.8250   -0.8250    0.0000 C   0  0  0  0  0  0  0  0  0  0  0  0
    2.2393   -6.6001    0.0000 C   0  0  0  0  0  0  0  0  0  0  0  0
    2.9858   -7.0323    0.0000 C   0  0  0  0  0  0  0  0  0  0  0  0
    2.9858   -5.3823    0.0000 C   0  0  0  0  0  0  0  0  0  0  0  0
    3.6929   -6.6001    0.0000 C   0  0  0  0  0  0  0  0  0  0  0  0
    3.6929   -5.7751    0.0000 C   0  0  0  0  0  0  0  0  0  0  0  0
    1.6893   -0.8250    0.0000 C   0  0  0  0  0  0  0  0  0  0  0  0
    0.8250    0.0000    0.0000 C   0  0  0  0  0  0  0  0  0  0  0  0
    0.0000   -0.8250    0.0000 C   0  0  0  0  0  0  0  0  0  0  0  0
  1 15  1  0  0  0  0
  2  5  1  0  0  0  0
  2 13  1  0  0  0  0
  3  5  2  0  0  0  0
  4  5  1  0  0  0  0
  4  7  1  0  0  0  0
  4  8  1  0  0  0  0
  6 10  1  0  0  0  0
  6 11  1  0  0  0  0
  6 12  1  0  0  0  0
  7 10  1  0  0  0  0
  8 11  1  0  0  0  0
  9 12  1  0  0  0  0
  9 14  2  0  0  0  0
  9 16  1  0  0  0  0
 13 19  1  0  0  0  0
 13 20  1  0  0  0  0
 13 21  1  0  0  0  0
 14 15  1  0  0  0  0
 15 17  2  0  0  0  0
 16 18  2  0  0  0  0
 17 18  1  0  0  0  0
M  END
> <PUBCHEM_COMPOUND_ID_TYPE>
0

> <PUBCHEM_TOTAL_CHARGE>
0

> <PUBCHEM_SUBSTANCE_ID>
310936161

> <PUBCHEM_SUBSTANCE_VERSION>
1

> <PUBCHEM_EXT_DATASOURCE_NAME>
4488

> <PUBCHEM_EXT_DATASOURCE_REGID>
SCHEMBL16113771

> <PUBCHEM_SUBSTANCE_COMMENT>
InChI=1S/C17H24FNO2/c1-17(2,3)21-16(20)19-9-7-13(8-10-19)11-14-5-4-6-15(18)12-14/h4-6,12-13H,7-11H2,1-3H3
InChIKey=XSLJIMLGVXHCMB-UHFFFAOYSA-N

> <PUBCHEM_SUBSTANCE_SYNONYM>
SCHEMBL16113771

> <PUBCHEM_XREF_EXT_ID>
SCHEMBL16113771

> <PUBCHEM_EXT_DATASOURCE_URL>
https://www.surechembl.org/

> <PUBCHEM_EXT_SUBSTANCE_URL>
https://www.surechembl.org/chemical/SCHEMBL16113771

> <PUBCHEM_CID_ASSOCIATIONS>
117604122  1

> <PUBCHEM_COORDINATE_TYPE>
1
3

$$$$
