310943649
  -OEChem-07211613022D

 38 42  0     0  0  0  0  0  0999 V2000
    4.6430    1.4365    0.0000 S   0  0  0  0  0  0  0  0  0  0  0  0
    1.7858    2.2461    0.0000 O   0  0  0  0  0  0  0  0  0  0  0  0
   -5.3732    2.2620    0.0000 O   0  0  0  0  0  0  0  0  0  0  0  0
   -2.5159   -2.6905    0.0000 O   0  0  0  0  0  0  0  0  0  0  0  0
    4.0557    2.0080    0.0000 O   0  0  0  0  0  0  0  0  0  0  0  0
    5.2303    0.8492    0.0000 O   0  0  0  0  0  0  0  0  0  0  0  0
   -3.2303    0.1984    0.0000 N   0  0  0  0  0  0  0  0  0  0  0  0
   -3.9446    1.4365    0.0000 N   0  0  0  0  0  0  0  0  0  0  0  0
   -2.5159   -1.0397    0.0000 N   0  0  0  0  0  0  0  0  0  0  0  0
   -0.3730    2.6747    0.0000 N   0  0  0  0  0  0  0  0  0  0  0  0
    1.0715    1.0238    0.0000 N   0  0  0  0  0  0  0  0  0  0  0  0
    3.9287    0.1984    0.0000 N   0  0  0  0  0  0  0  0  0  0  0  0
   -1.7858    1.0238    0.0000 C   0  0  0  0  0  0  0  0  0  0  0  0
   -1.0874    1.4365    0.0000 C   0  0  0  0  0  0  0  0  0  0  0  0
   -3.2303    1.0397    0.0000 C   0  0  0  0  0  0  0  0  0  0  0  0
   -2.5001   -0.2143    0.0000 C   0  0  0  0  0  0  0  0  0  0  0  0
   -2.5159    1.4365    0.0000 C   0  0  0  0  0  0  0  0  0  0  0  0
   -1.8017    0.1984    0.0000 C   0  0  0  0  0  0  0  0  0  0  0  0
   -1.0715    2.2620    0.0000 C   0  0  0  0  0  0  0  0  0  0  0  0
   -0.3412    1.0238    0.0000 C   0  0  0  0  0  0  0  0  0  0  0  0
    0.3412    1.4365    0.0000 C   0  0  0  0  0  0  0  0  0  0  0  0
    2.5001    1.0238    0.0000 C   0  0  0  0  0  0  0  0  0  0  0  0
    1.7699    1.4048    0.0000 C   0  0  0  0  0  0  0  0  0  0  0  0
    3.9287    1.0238    0.0000 C   0  0  0  0  0  0  0  0  0  0  0  0
    0.3571    2.2620    0.0000 C   0  0  0  0  0  0  0  0  0  0  0  0
    3.2144    1.4365    0.0000 C   0  0  0  0  0  0  0  0  0  0  0  0
   -3.9446    2.2620    0.0000 C   0  0  0  0  0  0  0  0  0  0  0  0
   -4.6748    1.0238    0.0000 C   0  0  0  0  0  0  0  0  0  0  0  0
   -1.7858   -1.4683    0.0000 C   0  0  0  0  0  0  0  0  0  0  0  0
   -3.2303   -1.4524    0.0000 C   0  0  0  0  0  0  0  0  0  0  0  0
    2.5001    0.1984    0.0000 C   0  0  0  0  0  0  0  0  0  0  0  0
   -1.7858    2.6905    0.0000 C   0  0  0  0  0  0  0  0  0  0  0  0
    3.1985   -0.2143    0.0000 C   0  0  0  0  0  0  0  0  0  0  0  0
   -4.6589    2.6747    0.0000 C   0  0  0  0  0  0  0  0  0  0  0  0
   -5.3732    1.4365    0.0000 C   0  0  0  0  0  0  0  0  0  0  0  0
   -1.8017   -2.2779    0.0000 C   0  0  0  0  0  0  0  0  0  0  0  0
   -3.2303   -2.2779    0.0000 C   0  0  0  0  0  0  0  0  0  0  0  0
    5.3732    1.8493    0.0000 C   0  0  0  0  0  0  0  0  0  0  0  0
  1  5  2  0  0  0  0
  1  6  2  0  0  0  0
  1 24  1  0  0  0  0
  1 38  1  0  0  0  0
  2 23  2  0  0  0  0
  3 34  1  0  0  0  0
  3 35  1  0  0  0  0
  4 36  1  0  0  0  0
  4 37  1  0  0  0  0
  7 15  2  0  0  0  0
  7 16  1  0  0  0  0
  8 15  1  0  0  0  0
  8 27  1  0  0  0  0
  8 28  1  0  0  0  0
  9 16  1  0  0  0  0
  9 29  1  0  0  0  0
  9 30  1  0  0  0  0
 10 19  2  0  0  0  0
 10 25  1  0  0  0  0
 11 21  1  0  0  0  0
 11 23  1  0  0  0  0
 12 24  1  0  0  0  0
 12 33  2  0  0  0  0
 13 14  1  0  0  0  0
 13 17  2  0  0  0  0
 13 18  1  0  0  0  0
 14 19  1  0  0  0  0
 14 20  2  0  0  0  0
 15 17  1  0  0  0  0
 16 18  2  0  0  0  0
 19 32  1  0  0  0  0
 20 21  1  0  0  0  0
 21 25  2  0  0  0  0
 22 23  1  0  0  0  0
 22 26  1  0  0  0  0
 22 31  2  0  0  0  0
 24 26  2  0  0  0  0
 27 34  1  0  0  0  0
 28 35  1  0  0  0  0
 29 36  1  0  0  0  0
 30 37  1  0  0  0  0
 31 33  1  0  0  0  0
M  END
> <PUBCHEM_COMPOUND_ID_TYPE>
0

> <PUBCHEM_TOTAL_CHARGE>
0

> <PUBCHEM_SUBSTANCE_ID>
310943649

> <PUBCHEM_SUBSTANCE_VERSION>
1

> <PUBCHEM_EXT_DATASOURCE_NAME>
4488

> <PUBCHEM_EXT_DATASOURCE_REGID>
SCHEMBL16121717

> <PUBCHEM_SUBSTANCE_COMMENT>
InChI=1S/C26H30N6O5S/c1-18-22(16-21(17-28-18)29-26(33)19-3-4-27-25(15-19)38(2,34)35)20-13-23(31-5-9-36-10-6-31)30-24(14-20)32-7-11-37-12-8-32/h3-4,13-17H,5-12H2,1-2H3,(H,29,33)
InChIKey=HPHJAKGAYBGKAV-UHFFFAOYSA-N

> <PUBCHEM_SUBSTANCE_SYNONYM>
SCHEMBL16121717

> <PUBCHEM_XREF_EXT_ID>
SCHEMBL16121717

> <PUBCHEM_EXT_DATASOURCE_URL>
https://www.surechembl.org/

> <PUBCHEM_EXT_SUBSTANCE_URL>
https://www.surechembl.org/chemical/SCHEMBL16121717

> <PUBCHEM_CID_ASSOCIATIONS>
117610040  1

> <PUBCHEM_COORDINATE_TYPE>
1
3

$$$$
