310942132
  -OEChem-07211613022D

 26 28  0     1  0  0  0  0  0999 V2000
   -0.0062    0.2180    0.0000 F   0  0  0  0  0  0  0  0  0  0  0  0
    2.8706    0.2180    0.0000 F   0  0  0  0  0  0  0  0  0  0  0  0
    1.4260    1.0399    0.0000 O   0  0  0  0  0  0  0  0  0  0  0  0
   -0.7161   -1.0274    0.0000 N   0  0  0  0  0  0  0  0  0  0  0  0
   -3.5930   -2.6962    0.0000 N   0  0  0  0  0  0  0  0  0  0  0  0
    0.7161   -1.0274    0.0000 C   0  0  0  0  0  0  0  0  0  0  0  0
    0.7161   -0.1931    0.0000 C   0  0  0  0  0  0  0  0  0  0  0  0
    1.4260    0.2180    0.0000 C   0  0  0  0  0  0  0  0  0  0  0  0
    0.0062   -1.4384    0.0000 C   0  0  3  0  0  0  0  0  0  0  0  0
    2.1607   -0.1931    0.0000 C   0  0  0  0  0  0  0  0  0  0  0  0
    1.4509   -1.4384    0.0000 C   0  0  0  0  0  0  0  0  0  0  0  0
    2.1607   -1.0274    0.0000 C   0  0  0  0  0  0  0  0  0  0  0  0
    2.1607    1.4633    0.0000 C   0  0  0  0  0  0  0  0  0  0  0  0
   -1.4509   -1.4509    0.0000 C   0  0  0  0  0  0  0  0  0  0  0  0
    0.0062   -2.2728    0.0000 C   0  0  0  0  0  0  0  0  0  0  0  0
    2.8830    1.0523    0.0000 C   0  0  0  0  0  0  0  0  0  0  0  0
    2.1732    2.2977    0.0000 C   0  0  0  0  0  0  0  0  0  0  0  0
   -2.1607   -1.0399    0.0000 C   0  0  0  0  0  0  0  0  0  0  0  0
   -1.4384   -2.2728    0.0000 C   0  0  0  0  0  0  0  0  0  0  0  0
   -2.8706   -2.2728    0.0000 C   0  0  0  0  0  0  0  0  0  0  0  0
   -2.8581   -1.4384    0.0000 C   0  0  0  0  0  0  0  0  0  0  0  0
   -2.1483   -2.6838    0.0000 C   0  0  0  0  0  0  0  0  0  0  0  0
    3.5930    1.4633    0.0000 C   0  0  0  0  0  0  0  0  0  0  0  0
    2.8706    2.6962    0.0000 C   0  0  0  0  0  0  0  0  0  0  0  0
    0.7161   -2.6838    0.0000 C   0  0  0  0  0  0  0  0  0  0  0  0
    3.5930    2.2977    0.0000 C   0  0  0  0  0  0  0  0  0  0  0  0
  1  7  1  0  0  0  0
  2 10  1  0  0  0  0
  3  8  1  0  0  0  0
  3 13  1  0  0  0  0
  4  9  1  0  0  0  0
 14  4  1  1  0  0  0
 20  5  1  6  0  0  0
  6  7  2  0  0  0  0
  6  9  1  0  0  0  0
  6 11  1  0  0  0  0
  7  8  1  0  0  0  0
  8 10  2  0  0  0  0
  9 15  1  0  0  0  0
 10 12  1  0  0  0  0
 11 12  2  0  0  0  0
 13 16  2  0  0  0  0
 13 17  1  0  0  0  0
 14 18  1  0  0  0  0
 14 19  1  0  0  0  0
 15 25  1  0  0  0  0
 16 23  1  0  0  0  0
 17 24  2  0  0  0  0
 18 21  1  0  0  0  0
 19 22  1  0  0  0  0
 20 21  1  0  0  0  0
 20 22  1  0  0  0  0
 23 26  2  0  0  0  0
 24 26  1  0  0  0  0
M  END
> <PUBCHEM_COMPOUND_ID_TYPE>
0

> <PUBCHEM_TOTAL_CHARGE>
0

> <PUBCHEM_SUBSTANCE_ID>
310942132

> <PUBCHEM_SUBSTANCE_VERSION>
1

> <PUBCHEM_EXT_DATASOURCE_NAME>
4488

> <PUBCHEM_EXT_DATASOURCE_REGID>
SCHEMBL16120167

> <PUBCHEM_SUBSTANCE_COMMENT>
InChI=1S/C21H26F2N2O/c1-2-19(25-15-10-8-14(24)9-11-15)17-12-13-18(22)21(20(17)23)26-16-6-4-3-5-7-16/h3-7,12-15,19,25H,2,8-11,24H2,1H3/t14-,15-,19?
InChIKey=QMSQEGVQCJJZKB-VNHLFDKOSA-N

> <PUBCHEM_SUBSTANCE_SYNONYM>
SCHEMBL16120167

> <PUBCHEM_XREF_EXT_ID>
SCHEMBL16120167

> <PUBCHEM_EXT_DATASOURCE_URL>
https://www.surechembl.org/

> <PUBCHEM_EXT_SUBSTANCE_URL>
https://www.surechembl.org/chemical/SCHEMBL16120167

> <PUBCHEM_CID_ASSOCIATIONS>
117608791  1

> <PUBCHEM_COORDINATE_TYPE>
1
3

> <PUBCHEM_BONDANNOTATIONS>
14  4  5
20  5  6

$$$$
