310936551
  -OEChem-07211613022D

 40 43  0     1  0  0  0  0  0999 V2000
    2.3236   -1.4470    0.0000 Cl  0  0  0  0  0  0  0  0  0  0  0  0
   -1.1773    1.9616    0.0000 O   0  0  0  0  0  0  0  0  0  0  0  0
   -5.2543    0.6368    0.0000 O   0  0  0  0  0  0  0  0  0  0  0  0
   -5.6241   -0.7434    0.0000 O   0  0  0  0  0  0  0  0  0  0  0  0
   -1.8380    4.2682    0.0000 O   0  0  0  0  0  0  0  0  0  0  0  0
   -3.2183    3.8984    0.0000 O   0  0  0  0  0  0  0  0  0  0  0  0
    0.9645   -1.0054    0.0000 N   0  0  0  0  0  0  0  0  0  0  0  0
   -0.6674    0.3923    0.0000 C   0  0  3  0  0  0  0  0  0  0  0  0
   -0.4125   -0.3923    0.0000 C   0  0  3  0  0  0  0  0  0  0  0  0
   -1.4744    0.5638    0.0000 C   0  0  3  0  0  0  0  0  0  0  0  0
    0.4125   -0.3923    0.0000 C   0  0  0  0  0  0  0  0  0  0  0  0
   -2.0264   -0.0493    0.0000 C   0  0  3  0  0  0  0  0  0  0  0  0
    0.6674    0.3923    0.0000 C   0  0  0  0  0  0  0  0  0  0  0  0
    0.0000    0.8772    0.0000 C   0  0  0  0  0  0  0  0  0  0  0  0
   -2.8334    0.1223    0.0000 C   0  0  3  0  0  0  0  0  0  0  0  0
   -0.9645   -1.0054    0.0000 C   0  0  0  0  0  0  0  0  0  0  0  0
   -1.7715   -0.8339    0.0000 C   0  0  0  0  0  0  0  0  0  0  0  0
   -0.0770   -1.1460    0.0000 C   0  0  0  0  0  0  0  0  0  0  0  0
   -3.0883    0.9069    0.0000 C   0  0  3  0  0  0  0  0  0  0  0  0
   -1.7294    1.3485    0.0000 C   0  0  0  0  0  0  0  0  0  0  0  0
    1.4744    0.5638    0.0000 C   0  0  0  0  0  0  0  0  0  0  0  0
   -3.3855   -0.4908    0.0000 C   0  0  0  0  0  0  0  0  0  0  0  0
    1.7715   -0.8339    0.0000 C   0  0  0  0  0  0  0  0  0  0  0  0
    2.0264   -0.0493    0.0000 C   0  0  0  0  0  0  0  0  0  0  0  0
   -2.2814    0.7354    0.0000 C   0  0  0  0  0  0  0  0  0  0  0  0
   -3.8954    1.0784    0.0000 C   0  0  0  0  0  0  0  0  0  0  0  0
   -4.4473    0.4653    0.0000 C   0  0  3  0  0  0  0  0  0  0  0  0
   -4.1924   -0.3193    0.0000 C   0  0  0  0  0  0  0  0  0  0  0  0
   -2.5363    1.5200    0.0000 C   0  0  0  0  0  0  0  0  0  0  0  0
   -2.7913    2.3046    0.0000 C   0  0  0  0  0  0  0  0  0  0  0  0
   -2.2079    2.8880    0.0000 C   0  0  0  0  0  0  0  0  0  0  0  0
   -5.8377    0.0535    0.0000 C   0  0  0  0  0  0  0  0  0  0  0  0
   -6.6346    0.2670    0.0000 C   0  0  0  0  0  0  0  0  0  0  0  0
   -2.4214    3.6849    0.0000 C   0  0  0  0  0  0  0  0  0  0  0  0
   -1.4110    3.1015    0.0000 C   0  0  0  0  0  0  0  0  0  0  0  0
   -1.6245    2.3046    0.0000 C   0  0  0  0  0  0  0  0  0  0  0  0
   -7.4315    0.4806    0.0000 C   0  0  0  0  0  0  0  0  0  0  0  0
   -6.8481    1.0639    0.0000 C   0  0  0  0  0  0  0  0  0  0  0  0
   -7.2179   -0.3163    0.0000 C   0  0  0  0  0  0  0  0  0  0  0  0
   -0.8390    1.1993    0.0000 H   0  0  0  0  0  0  0  0  0  0  0  0
  1 23  1  0  0  0  0
  2 20  1  0  0  0  0
 27  3  1  6  0  0  0
  3 32  1  0  0  0  0
  4 32  2  0  0  0  0
  5 34  2  0  0  0  0
  6 34  1  0  0  0  0
  7 11  2  0  0  0  0
  7 23  1  0  0  0  0
  8  9  1  0  0  0  0
  8 10  1  0  0  0  0
  8 14  1  0  0  0  0
  8 40  1  1  0  0  0
  9 11  1  0  0  0  0
  9 16  1  0  0  0  0
  9 18  1  6  0  0  0
 10 12  1  0  0  0  0
 10 20  1  1  0  0  0
 11 13  1  0  0  0  0
 12 15  1  0  0  0  0
 12 17  1  6  0  0  0
 13 14  1  0  0  0  0
 13 21  2  0  0  0  0
 15 19  1  0  0  0  0
 15 22  1  0  0  0  0
 15 25  1  1  0  0  0
 16 17  1  0  0  0  0
 19 26  1  0  0  0  0
 19 29  1  6  0  0  0
 21 24  1  0  0  0  0
 22 28  1  0  0  0  0
 23 24  2  0  0  0  0
 26 27  1  0  0  0  0
 27 28  1  0  0  0  0
 29 30  1  0  0  0  0
 30 31  1  0  0  0  0
 31 34  1  0  0  0  0
 31 35  1  0  0  0  0
 31 36  1  0  0  0  0
 32 33  1  0  0  0  0
 33 37  1  0  0  0  0
 33 38  1  0  0  0  0
 33 39  1  0  0  0  0
M  END
> <PUBCHEM_COMPOUND_ID_TYPE>
0

> <PUBCHEM_TOTAL_CHARGE>
0

> <PUBCHEM_SUBSTANCE_ID>
310936551

> <PUBCHEM_SUBSTANCE_VERSION>
1

> <PUBCHEM_EXT_DATASOURCE_NAME>
4488

> <PUBCHEM_EXT_DATASOURCE_REGID>
SCHEMBL16114205

> <PUBCHEM_SUBSTANCE_COMMENT>
InChI=1S/C32H48ClNO5/c1-29(2,3)28(38)39-21-11-14-31(6,20(17-21)10-13-30(4,5)27(36)37)23-12-15-32(7)24(22(23)18-35)16-19-8-9-25(33)34-26(19)32/h8-9,20-24,35H,10-18H2,1-7H3,(H,36,37)/t20-,21-,22+,23-,24-,31+,32-/m0/s1
InChIKey=BKTPNJQWEZMCOS-MPFFQQPMSA-N

> <PUBCHEM_SUBSTANCE_SYNONYM>
SCHEMBL16114205

> <PUBCHEM_XREF_EXT_ID>
SCHEMBL16114205

> <PUBCHEM_EXT_DATASOURCE_URL>
https://www.surechembl.org/

> <PUBCHEM_EXT_SUBSTANCE_URL>
https://www.surechembl.org/chemical/SCHEMBL16114205

> <PUBCHEM_CID_ASSOCIATIONS>
117604471  1

> <PUBCHEM_COORDINATE_TYPE>
1
3

> <PUBCHEM_BONDANNOTATIONS>
10  20  5
12  17  6
15  25  5
19  29  6
27  3  6
8  40  5
9  18  6

$$$$
