310932794
  -OEChem-07211613022D

 30 32  0     0  0  0  0  0  0999 V2000
    3.9915   -2.7420    0.0000 O   0  0  0  0  0  0  0  0  0  0  0  0
    8.4688   -2.8114    0.0000 O   0  0  0  0  0  0  0  0  0  0  0  0
    9.1977   -6.5252    0.0000 O   0  0  0  0  0  0  0  0  0  0  0  0
    4.8939   -1.5966    0.0000 N   0  0  0  0  0  0  0  0  0  0  0  0
    4.8245   -0.7636    0.0000 N   0  0  0  0  0  0  0  0  0  0  0  0
    6.3517   -1.5966    0.0000 N   0  0  0  0  0  0  0  0  0  0  0  0
    7.7747   -4.0609    0.0000 N   0  0  0  0  0  0  0  0  0  0  0  0
    0.0000   -2.4643    0.0000 N   0  0  0  0  0  0  0  0  0  0  0  0
    3.6097   -1.3189    0.0000 C   0  0  0  0  0  0  0  0  0  0  0  0
    4.1650   -1.9437    0.0000 C   0  0  0  0  0  0  0  0  0  0  0  0
    2.7767   -1.4231    0.0000 C   0  0  0  0  0  0  0  0  0  0  0  0
    5.6228   -2.0131    0.0000 C   0  0  0  0  0  0  0  0  0  0  0  0
    2.2908   -0.7636    0.0000 C   0  0  0  0  0  0  0  0  0  0  0  0
    3.9915   -0.6247    0.0000 C   0  0  0  0  0  0  0  0  0  0  0  0
    1.4577   -0.8677    0.0000 C   0  0  0  0  0  0  0  0  0  0  0  0
    2.4643   -2.1866    0.0000 C   0  0  0  0  0  0  0  0  0  0  0  0
    1.1454   -1.5966    0.0000 C   0  0  0  0  0  0  0  0  0  0  0  0
    5.6228   -2.8114    0.0000 C   0  0  0  0  0  0  0  0  0  0  0  0
    1.6313   -2.2561    0.0000 C   0  0  0  0  0  0  0  0  0  0  0  0
    7.0458   -2.8114    0.0000 C   0  0  0  0  0  0  0  0  0  0  0  0
    7.0458   -2.0131    0.0000 C   0  0  0  0  0  0  0  0  0  0  0  0
    6.3517   -3.2279    0.0000 C   0  0  0  0  0  0  0  0  0  0  0  0
    2.6032    0.0000    0.0000 C   0  0  0  0  0  0  0  0  0  0  0  0
    7.7747   -3.2279    0.0000 C   0  0  0  0  0  0  0  0  0  0  0  0
    0.3124   -1.7007    0.0000 C   0  0  0  0  0  0  0  0  0  0  0  0
    0.9718   -0.1735    0.0000 C   0  0  0  0  0  0  0  0  0  0  0  0
    8.4688   -4.4774    0.0000 C   0  0  0  0  0  0  0  0  0  0  0  0
    8.5036   -5.3104    0.0000 C   0  0  0  0  0  0  0  0  0  0  0  0
    9.1977   -5.6922    0.0000 C   0  0  0  0  0  0  0  0  0  0  0  0
    9.9266   -6.9417    0.0000 C   0  0  0  0  0  0  0  0  0  0  0  0
  1 10  1  0  0  0  0
  2 24  2  0  0  0  0
  3 29  1  0  0  0  0
  3 30  1  0  0  0  0
  4  5  1  0  0  0  0
  4 10  1  0  0  0  0
  4 12  1  0  0  0  0
  5 14  2  0  0  0  0
  6 12  2  0  0  0  0
  6 21  1  0  0  0  0
  7 24  1  0  0  0  0
  7 27  1  0  0  0  0
  8 25  3  0  0  0  0
  9 10  2  0  0  0  0
  9 11  1  0  0  0  0
  9 14  1  0  0  0  0
 11 13  1  0  0  0  0
 11 16  2  0  0  0  0
 12 18  1  0  0  0  0
 13 15  2  0  0  0  0
 13 23  1  0  0  0  0
 15 17  1  0  0  0  0
 15 26  1  0  0  0  0
 16 19  1  0  0  0  0
 17 19  2  0  0  0  0
 17 25  1  0  0  0  0
 18 22  2  0  0  0  0
 20 21  2  0  0  0  0
 20 22  1  0  0  0  0
 20 24  1  0  0  0  0
 27 28  1  0  0  0  0
 28 29  1  0  0  0  0
M  END
> <PUBCHEM_COMPOUND_ID_TYPE>
0

> <PUBCHEM_TOTAL_CHARGE>
0

> <PUBCHEM_SUBSTANCE_ID>
310932794

> <PUBCHEM_SUBSTANCE_VERSION>
1

> <PUBCHEM_EXT_DATASOURCE_NAME>
4488

> <PUBCHEM_EXT_DATASOURCE_REGID>
SCHEMBL16110181

> <PUBCHEM_SUBSTANCE_COMMENT>
InChI=1S/C22H23N5O3/c1-14-15(2)18(7-5-16(14)11-23)19-13-26-27(22(19)29)20-8-6-17(12-25-20)21(28)24-9-4-10-30-3/h5-8,12-13,29H,4,9-10H2,1-3H3,(H,24,28)
InChIKey=SROIQIJNUOCQAT-UHFFFAOYSA-N

> <PUBCHEM_SUBSTANCE_SYNONYM>
SCHEMBL16110181

> <PUBCHEM_XREF_EXT_ID>
SCHEMBL16110181

> <PUBCHEM_EXT_DATASOURCE_URL>
https://www.surechembl.org/

> <PUBCHEM_EXT_SUBSTANCE_URL>
https://www.surechembl.org/chemical/SCHEMBL16110181

> <PUBCHEM_CID_ASSOCIATIONS>
117601286  1

> <PUBCHEM_COORDINATE_TYPE>
1
3

$$$$
