310930171
  -OEChem-07211613022D

 14 14  0     1  0  0  0  0  0999 V2000
    3.3160   -1.4023    0.0000 S   0  0  0  0  0  0  0  0  0  0  0  0
    4.5368   -2.1282    0.0000 F   0  0  0  0  0  0  0  0  0  0  0  0
    4.5368   -0.6764    0.0000 F   0  0  0  0  0  0  0  0  0  0  0  0
    4.9493   -1.4023    0.0000 F   0  0  0  0  0  0  0  0  0  0  0  0
    3.3160   -0.4949    0.0000 O   0  0  0  0  0  0  0  0  0  0  0  0
    3.3160   -2.2107    0.0000 O   0  0  0  0  0  0  0  0  0  0  0  0
    2.5076   -1.4023    0.0000 N   0  0  0  0  0  0  0  0  0  0  0  0
    0.8084    0.0000    0.0000 N   0  0  0  0  0  0  0  0  0  0  0  0
    4.1244   -1.4023    0.0000 C   0  0  0  0  0  0  0  0  0  0  0  0
    2.0952   -0.6764    0.0000 C   0  0  0  0  0  0  0  0  0  0  0  0
    1.2868   -0.6764    0.0000 C   0  0  3  0  0  0  0  0  0  0  0  0
    0.7919   -1.3363    0.0000 C   0  0  0  0  0  0  0  0  0  0  0  0
    0.0165   -0.2475    0.0000 C   0  0  0  0  0  0  0  0  0  0  0  0
    0.0000   -1.0723    0.0000 C   0  0  0  0  0  0  0  0  0  0  0  0
  1  5  2  0  0  0  0
  1  6  2  0  0  0  0
  1  7  1  0  0  0  0
  1  9  1  0  0  0  0
  2  9  1  0  0  0  0
  3  9  1  0  0  0  0
  4  9  1  0  0  0  0
  7 10  1  0  0  0  0
  8 11  1  0  0  0  0
  8 13  1  0  0  0  0
 11 10  1  1  0  0  0
 11 12  1  0  0  0  0
 12 14  1  0  0  0  0
 13 14  1  0  0  0  0
M  END
> <PUBCHEM_COMPOUND_ID_TYPE>
0

> <PUBCHEM_TOTAL_CHARGE>
0

> <PUBCHEM_SUBSTANCE_ID>
310930171

> <PUBCHEM_SUBSTANCE_VERSION>
1

> <PUBCHEM_EXT_DATASOURCE_NAME>
4488

> <PUBCHEM_EXT_DATASOURCE_REGID>
SCHEMBL16107431

> <PUBCHEM_SUBSTANCE_COMMENT>
InChI=1S/C6H11F3N2O2S/c7-6(8,9)14(12,13)11-4-5-2-1-3-10-5/h5,10-11H,1-4H2/t5-/m1/s1
InChIKey=RIWFUAUXWIEOTK-RXMQYKEDSA-N

> <PUBCHEM_SUBSTANCE_SYNONYM>
SCHEMBL16107431

> <PUBCHEM_XREF_EXT_ID>
SCHEMBL16107431

> <PUBCHEM_EXT_DATASOURCE_URL>
https://www.surechembl.org/

> <PUBCHEM_EXT_SUBSTANCE_URL>
https://www.surechembl.org/chemical/SCHEMBL16107431

> <PUBCHEM_CID_ASSOCIATIONS>
70700475  1

> <PUBCHEM_COORDINATE_TYPE>
1
3

> <PUBCHEM_BONDANNOTATIONS>
11  10  5

$$$$
