310935551
  -OEChem-07211613022D

 38 43  0     1  0  0  0  0  0999 V2000
    3.6215   -0.4280    0.0000 O   0  0  0  0  0  0  0  0  0  0  0  0
    6.4530   -5.3665    0.0000 O   0  0  0  0  0  0  0  0  0  0  0  0
    2.1400   -5.3336    0.0000 N   0  0  3  0  0  0  0  0  0  0  0  0
    0.7243   -5.3665    0.0000 N   0  0  0  0  0  0  0  0  0  0  0  0
    0.0000   -4.1154    0.0000 N   0  0  0  0  0  0  0  0  0  0  0  0
    4.2801   -1.6791    0.0000 N   0  0  0  0  0  0  0  0  0  0  0  0
    5.7286   -4.1154    0.0000 N   0  0  0  0  0  0  0  0  0  0  0  0
    7.8687   -3.6874    0.0000 N   0  0  0  0  0  0  0  0  0  0  0  0
    1.4486   -4.1154    0.0000 C   0  0  0  0  0  0  0  0  0  0  0  0
    1.4486   -4.9385    0.0000 C   0  0  0  0  0  0  0  0  0  0  0  0
    0.7243   -3.6874    0.0000 C   0  0  0  0  0  0  0  0  0  0  0  0
    2.1400   -2.8972    0.0000 C   0  0  0  0  0  0  0  0  0  0  0  0
    0.7243   -2.8972    0.0000 C   0  0  0  0  0  0  0  0  0  0  0  0
    2.1400   -3.7203    0.0000 C   0  0  0  0  0  0  0  0  0  0  0  0
    3.5886   -5.3336    0.0000 C   0  0  0  0  0  0  0  0  0  0  0  0
    2.8643   -4.9385    0.0000 C   0  0  0  0  0  0  0  0  0  0  0  0
    1.4486   -2.4693    0.0000 C   0  0  0  0  0  0  0  0  0  0  0  0
    3.5886   -6.1567    0.0000 C   0  0  0  0  0  0  0  0  0  0  0  0
    2.8643   -2.4693    0.0000 C   0  0  0  0  0  0  0  0  0  0  0  0
    2.1400   -6.1567    0.0000 C   0  0  0  0  0  0  0  0  0  0  0  0
    0.0000   -4.9385    0.0000 C   0  0  0  0  0  0  0  0  0  0  0  0
    2.8643   -6.5847    0.0000 C   0  0  0  0  0  0  0  0  0  0  0  0
    4.2801   -4.9385    0.0000 C   0  0  0  0  0  0  0  0  0  0  0  0
    5.0043   -5.3336    0.0000 C   0  0  0  0  0  0  0  0  0  0  0  0
    4.2801   -6.5847    0.0000 C   0  0  0  0  0  0  0  0  0  0  0  0
    2.8643   -1.6462    0.0000 C   0  0  0  0  0  0  0  0  0  0  0  0
    5.0043   -6.1567    0.0000 C   0  0  0  0  0  0  0  0  0  0  0  0
    3.5557   -2.8972    0.0000 C   0  0  0  0  0  0  0  0  0  0  0  0
    0.0000   -2.4693    0.0000 C   0  0  0  0  0  0  0  0  0  0  0  0
    5.7286   -4.9385    0.0000 C   0  0  0  0  0  0  0  0  0  0  0  0
    3.5886   -1.2511    0.0000 C   0  0  0  0  0  0  0  0  0  0  0  0
    4.3130   -2.5022    0.0000 C   0  0  0  0  0  0  0  0  0  0  0  0
    6.4530   -3.7203    0.0000 C   0  0  3  0  0  0  0  0  0  0  0  0
    7.1444   -4.1154    0.0000 C   0  0  0  0  0  0  0  0  0  0  0  0
    6.4530   -2.8643    0.0000 C   0  0  0  0  0  0  0  0  0  0  0  0
    2.8972    0.0000    0.0000 C   0  0  0  0  0  0  0  0  0  0  0  0
    7.1444   -2.4693    0.0000 C   0  0  0  0  0  0  0  0  0  0  0  0
    7.8687   -2.8643    0.0000 C   0  0  0  0  0  0  0  0  0  0  0  0
  1 31  1  0  0  0  0
  1 36  1  0  0  0  0
  2 30  2  0  0  0  0
  3 10  1  0  0  0  0
  3 16  1  0  0  0  0
  3 20  1  0  0  0  0
  4 10  1  0  0  0  0
  4 21  2  0  0  0  0
  5 11  2  0  0  0  0
  5 21  1  0  0  0  0
  6 31  1  0  0  0  0
  6 32  2  0  0  0  0
  7 30  1  0  0  0  0
 33  7  1  1  0  0  0
  8 34  1  0  0  0  0
  8 38  1  0  0  0  0
  9 10  2  0  0  0  0
  9 11  1  0  0  0  0
  9 14  1  0  0  0  0
 11 13  1  0  0  0  0
 12 14  2  0  0  0  0
 12 17  1  0  0  0  0
 12 19  1  0  0  0  0
 13 17  2  0  0  0  0
 13 29  1  0  0  0  0
 15 16  1  0  0  0  0
 15 18  2  0  0  0  0
 15 23  1  0  0  0  0
 18 22  1  0  0  0  0
 18 25  1  0  0  0  0
 19 26  1  0  0  0  0
 19 28  2  0  0  0  0
 20 22  1  0  0  0  0
 23 24  2  0  0  0  0
 24 27  1  0  0  0  0
 24 30  1  0  0  0  0
 25 27  2  0  0  0  0
 26 31  2  0  0  0  0
 28 32  1  0  0  0  0
 33 34  1  0  0  0  0
 33 35  1  0  0  0  0
 35 37  1  0  0  0  0
 37 38  1  0  0  0  0
M  END
> <PUBCHEM_COMPOUND_ID_TYPE>
0

> <PUBCHEM_TOTAL_CHARGE>
0

> <PUBCHEM_SUBSTANCE_ID>
310935551

> <PUBCHEM_SUBSTANCE_VERSION>
1

> <PUBCHEM_EXT_DATASOURCE_NAME>
4488

> <PUBCHEM_EXT_DATASOURCE_REGID>
SCHEMBL16113122

> <PUBCHEM_SUBSTANCE_COMMENT>
InChI=1S/C30H32N6O2/c1-19-12-23(21-7-10-32-27(15-21)38-2)14-26-28(19)33-18-34-29(26)36-11-8-20-5-6-22(13-24(20)17-36)30(37)35-25-4-3-9-31-16-25/h5-7,10,12-15,18,25,31H,3-4,8-9,11,16-17H2,1-2H3,(H,35,37)/t25-/m0/s1
InChIKey=QGZWLDSWMHKDHA-VWLOTQADSA-N

> <PUBCHEM_SUBSTANCE_SYNONYM>
SCHEMBL16113122

> <PUBCHEM_XREF_EXT_ID>
SCHEMBL16113122

> <PUBCHEM_EXT_DATASOURCE_URL>
https://www.surechembl.org/

> <PUBCHEM_EXT_SUBSTANCE_URL>
https://www.surechembl.org/chemical/SCHEMBL16113122

> <PUBCHEM_CID_ASSOCIATIONS>
117603575  1

> <PUBCHEM_COORDINATE_TYPE>
1
3

> <PUBCHEM_BONDANNOTATIONS>
33  7  5

$$$$
