310943509
  -OEChem-07211613022D

 22 24  0     0  0  0  0  0  0999 V2000
    1.7687    1.4515    0.0000 Cl  0  0  0  0  0  0  0  0  0  0  0  0
    2.4985   -0.6266    0.0000 O   0  0  0  0  0  0  0  0  0  0  0  0
   -2.4985    2.2763    0.0000 O   0  0  0  0  0  0  0  0  0  0  0  0
    1.7687   -2.7046    0.0000 O   0  0  0  0  0  0  0  0  0  0  0  0
    0.3411   -1.0390    0.0000 N   0  0  0  0  0  0  0  0  0  0  0  0
   -0.3728    0.2141    0.0000 N   0  0  0  0  0  0  0  0  0  0  0  0
   -1.0866    1.4515    0.0000 N   0  0  0  0  0  0  0  0  0  0  0  0
    1.0549    0.2141    0.0000 N   0  0  0  0  0  0  0  0  0  0  0  0
    1.0549   -1.4515    0.0000 C   0  0  0  0  0  0  0  0  0  0  0  0
    0.3569   -0.1983    0.0000 C   0  0  0  0  0  0  0  0  0  0  0  0
   -0.3569    1.0549    0.0000 C   0  0  0  0  0  0  0  0  0  0  0  0
    1.0707    1.0549    0.0000 C   0  0  0  0  0  0  0  0  0  0  0  0
    0.3411    1.4515    0.0000 C   0  0  0  0  0  0  0  0  0  0  0  0
    1.0707   -0.6107    0.0000 C   0  0  0  0  0  0  0  0  0  0  0  0
    1.8005   -1.8639    0.0000 C   0  0  0  0  0  0  0  0  0  0  0  0
    1.0707   -2.2763    0.0000 C   0  0  0  0  0  0  0  0  0  0  0  0
   -1.0866    2.2922    0.0000 C   0  0  0  0  0  0  0  0  0  0  0  0
   -1.7687    1.0390    0.0000 C   0  0  0  0  0  0  0  0  0  0  0  0
    1.7846   -0.1983    0.0000 C   0  0  0  0  0  0  0  0  0  0  0  0
    2.4826   -1.4515    0.0000 C   0  0  0  0  0  0  0  0  0  0  0  0
   -1.8005    2.7046    0.0000 C   0  0  0  0  0  0  0  0  0  0  0  0
   -2.4985    1.4515    0.0000 C   0  0  0  0  0  0  0  0  0  0  0  0
  1 12  1  0  0  0  0
  2 19  1  0  0  0  0
  2 20  1  0  0  0  0
  3 21  1  0  0  0  0
  3 22  1  0  0  0  0
  4 16  1  0  0  0  0
  5  9  1  0  0  0  0
  5 10  1  0  0  0  0
  6 10  1  0  0  0  0
  6 11  2  0  0  0  0
  7 11  1  0  0  0  0
  7 17  1  0  0  0  0
  7 18  1  0  0  0  0
  8 10  2  0  0  0  0
  8 12  1  0  0  0  0
  9 14  1  0  0  0  0
  9 15  1  0  0  0  0
  9 16  1  0  0  0  0
 11 13  1  0  0  0  0
 12 13  2  0  0  0  0
 14 19  1  0  0  0  0
 15 20  1  0  0  0  0
 17 21  1  0  0  0  0
 18 22  1  0  0  0  0
M  END
> <PUBCHEM_COMPOUND_ID_TYPE>
0

> <PUBCHEM_TOTAL_CHARGE>
0

> <PUBCHEM_SUBSTANCE_ID>
310943509

> <PUBCHEM_SUBSTANCE_VERSION>
1

> <PUBCHEM_EXT_DATASOURCE_NAME>
4488

> <PUBCHEM_EXT_DATASOURCE_REGID>
SCHEMBL16121575

> <PUBCHEM_SUBSTANCE_COMMENT>
InChI=1S/C14H21ClN4O3/c15-11-9-12(19-3-7-22-8-4-19)17-13(16-11)18-14(10-20)1-5-21-6-2-14/h9,20H,1-8,10H2,(H,16,17,18)
InChIKey=UOKCVTIAHYTELW-UHFFFAOYSA-N

> <PUBCHEM_SUBSTANCE_SYNONYM>
SCHEMBL16121575

> <PUBCHEM_XREF_EXT_ID>
SCHEMBL16121575

> <PUBCHEM_EXT_DATASOURCE_URL>
https://www.surechembl.org/

> <PUBCHEM_EXT_SUBSTANCE_URL>
https://www.surechembl.org/chemical/SCHEMBL16121575

> <PUBCHEM_CID_ASSOCIATIONS>
117609927  1

> <PUBCHEM_COORDINATE_TYPE>
1
3

$$$$
