310949024
  -OEChem-07211613022D

 25 26  0     0  0  0  0  0  0999 V2000
    0.0900   -1.5523    0.0000 F   0  0  0  0  0  0  0  0  0  0  0  0
    3.0145    0.0975    0.0000 O   0  0  0  0  0  0  0  0  0  0  0  0
    2.2796   -1.1623    0.0000 O   0  0  0  0  0  0  0  0  0  0  0  0
    0.8098   -0.3074    0.0000 N   0  0  0  0  0  0  0  0  0  0  0  0
    0.0900    0.9523    0.0000 N   0  0  0  0  0  0  0  0  0  0  0  0
    0.8249    2.1971    0.0000 N   0  0  0  0  0  0  0  0  0  0  0  0
    0.0600    0.0825    0.0000 C   0  0  0  0  0  0  0  0  0  0  0  0
    1.5297    0.0825    0.0000 C   0  0  0  0  0  0  0  0  0  0  0  0
   -0.6449   -0.3225    0.0000 C   0  0  0  0  0  0  0  0  0  0  0  0
    1.5598    0.9223    0.0000 C   0  0  0  0  0  0  0  0  0  0  0  0
    0.8098    1.3273    0.0000 C   0  0  0  0  0  0  0  0  0  0  0  0
   -0.6599   -1.1623    0.0000 C   0  0  0  0  0  0  0  0  0  0  0  0
    2.2646   -0.3374    0.0000 C   0  0  0  0  0  0  0  0  0  0  0  0
   -1.3647    0.0675    0.0000 C   0  0  0  0  0  0  0  0  0  0  0  0
   -1.3647   -1.5673    0.0000 C   0  0  0  0  0  0  0  0  0  0  0  0
   -2.1297   -1.1473    0.0000 C   0  0  0  0  0  0  0  0  0  0  0  0
    2.2646    1.3122    0.0000 C   0  0  0  0  0  0  0  0  0  0  0  0
   -2.0996   -0.3225    0.0000 C   0  0  0  0  0  0  0  0  0  0  0  0
   -2.8195   -1.5523    0.0000 C   0  0  0  0  0  0  0  0  0  0  0  0
    2.9695    0.8623    0.0000 C   0  0  0  0  0  0  0  0  0  0  0  0
   -3.4044   -1.7172    0.0000 C   0  0  0  0  0  0  0  0  0  0  0  0
    3.7343   -0.3225    0.0000 C   0  0  0  0  0  0  0  0  0  0  0  0
   -3.4194   -2.1371    0.0000 C   0  0  0  0  0  0  0  0  0  0  0  0
   -3.7194   -1.7772    0.0000 C   0  0  0  0  0  0  0  0  0  0  0  0
   -3.7343   -2.1971    0.0000 C   0  0  0  0  0  0  0  0  0  0  0  0
  1 12  1  0  0  0  0
  2 13  1  0  0  0  0
  2 22  1  0  0  0  0
  3 13  2  0  0  0  0
  4  7  1  0  0  0  0
  4  8  2  0  0  0  0
  5  7  2  0  0  0  0
  5 11  1  0  0  0  0
  6 11  1  0  0  0  0
  7  9  1  0  0  0  0
  8 10  1  0  0  0  0
  8 13  1  0  0  0  0
  9 12  1  0  0  0  0
  9 14  2  0  0  0  0
 10 11  2  0  0  0  0
 10 17  1  0  0  0  0
 12 15  2  0  0  0  0
 14 18  1  0  0  0  0
 15 16  1  0  0  0  0
 16 18  2  0  0  0  0
 16 19  1  0  0  0  0
 17 20  2  0  0  0  0
 19 21  3  0  0  0  0
 21 23  1  0  0  0  0
 23 24  1  0  0  0  0
 24 25  1  0  0  0  0
M  END
> <PUBCHEM_COMPOUND_ID_TYPE>
0

> <PUBCHEM_TOTAL_CHARGE>
0

> <PUBCHEM_SUBSTANCE_ID>
310949024

> <PUBCHEM_SUBSTANCE_VERSION>
1

> <PUBCHEM_EXT_DATASOURCE_NAME>
4488

> <PUBCHEM_EXT_DATASOURCE_REGID>
SCHEMBL16127214

> <PUBCHEM_SUBSTANCE_COMMENT>
InChI=1S/C19H18FN3O2/c1-4-6-7-8-12-9-10-14(15(20)11-12)18-22-16(19(24)25-3)13(5-2)17(21)23-18/h5,9-11H,2,4,6H2,1,3H3,(H2,21,22,23)
InChIKey=VTFUIFAKRDHYPV-UHFFFAOYSA-N

> <PUBCHEM_SUBSTANCE_SYNONYM>
SCHEMBL16127214

> <PUBCHEM_XREF_EXT_ID>
SCHEMBL16127214

> <PUBCHEM_EXT_DATASOURCE_URL>
https://www.surechembl.org/

> <PUBCHEM_EXT_SUBSTANCE_URL>
https://www.surechembl.org/chemical/SCHEMBL16127214

> <PUBCHEM_CID_ASSOCIATIONS>
117614529  1

> <PUBCHEM_COORDINATE_TYPE>
1
3

$$$$
