310949820
  -OEChem-07211613022D

 22 23  0     0  0  0  0  0  0999 V2000
   -0.8348   -0.7264    0.0000 O   0  0  0  0  0  0  0  0  0  0  0  0
    2.9161   -0.0109    0.0000 O   0  0  0  0  0  0  0  0  0  0  0  0
    2.9161   -1.4201    0.0000 O   0  0  0  0  0  0  0  0  0  0  0  0
   -0.8564    0.7047    0.0000 N   0  0  0  0  0  0  0  0  0  0  0  0
   -3.3498   -0.7481    0.0000 N   0  0  0  0  0  0  0  0  0  0  0  0
   -1.2684    0.0109    0.0000 C   0  0  0  0  0  0  0  0  0  0  0  0
   -2.1140    0.0326    0.0000 C   0  0  0  0  0  0  0  0  0  0  0  0
   -0.0109   -0.6830    0.0000 C   0  0  0  0  0  0  0  0  0  0  0  0
    1.6369   -0.6613    0.0000 C   0  0  0  0  0  0  0  0  0  0  0  0
    0.4011   -1.3767    0.0000 C   0  0  0  0  0  0  0  0  0  0  0  0
    0.4011    0.0109    0.0000 C   0  0  0  0  0  0  0  0  0  0  0  0
    1.2467   -1.3767    0.0000 C   0  0  0  0  0  0  0  0  0  0  0  0
    1.2250    0.0542    0.0000 C   0  0  0  0  0  0  0  0  0  0  0  0
    2.5042   -0.6830    0.0000 C   0  0  0  0  0  0  0  0  0  0  0  0
   -2.5042    0.6830    0.0000 C   0  0  0  0  0  0  0  0  0  0  0  0
   -2.5259   -0.7047    0.0000 C   0  0  0  0  0  0  0  0  0  0  0  0
   -1.2684    1.3984    0.0000 C   0  0  0  0  0  0  0  0  0  0  0  0
   -2.0923    1.4201    0.0000 C   0  0  0  0  0  0  0  0  0  0  0  0
    3.7401   -0.0109    0.0000 C   0  0  0  0  0  0  0  0  0  0  0  0
   -3.7834   -1.4201    0.0000 C   0  0  0  0  0  0  0  0  0  0  0  0
   -4.1737   -0.0326    0.0000 C   0  0  0  0  0  0  0  0  0  0  0  0
    4.1737   -0.6830    0.0000 C   0  0  0  0  0  0  0  0  0  0  0  0
  1  6  1  0  0  0  0
  1  8  1  0  0  0  0
  2 14  1  0  0  0  0
  2 19  1  0  0  0  0
  3 14  2  0  0  0  0
  4  6  1  0  0  0  0
  4 17  2  0  0  0  0
  5 16  1  0  0  0  0
  5 20  1  0  0  0  0
  5 21  1  0  0  0  0
  6  7  2  0  0  0  0
  7 15  1  0  0  0  0
  7 16  1  0  0  0  0
  8 10  2  0  0  0  0
  8 11  1  0  0  0  0
  9 12  2  0  0  0  0
  9 13  1  0  0  0  0
  9 14  1  0  0  0  0
 10 12  1  0  0  0  0
 11 13  2  0  0  0  0
 15 18  2  0  0  0  0
 17 18  1  0  0  0  0
 19 22  1  0  0  0  0
M  END
> <PUBCHEM_COMPOUND_ID_TYPE>
0

> <PUBCHEM_TOTAL_CHARGE>
0

> <PUBCHEM_SUBSTANCE_ID>
310949820

> <PUBCHEM_SUBSTANCE_VERSION>
1

> <PUBCHEM_EXT_DATASOURCE_NAME>
4488

> <PUBCHEM_EXT_DATASOURCE_REGID>
SCHEMBL16128020

> <PUBCHEM_SUBSTANCE_COMMENT>
InChI=1S/C17H20N2O3/c1-4-21-17(20)13-7-9-15(10-8-13)22-16-14(12-19(2)3)6-5-11-18-16/h5-11H,4,12H2,1-3H3
InChIKey=PDQQEJJUUBLNNE-UHFFFAOYSA-N

> <PUBCHEM_SUBSTANCE_SYNONYM>
SCHEMBL16128020

> <PUBCHEM_XREF_EXT_ID>
SCHEMBL16128020

> <PUBCHEM_EXT_DATASOURCE_URL>
https://www.surechembl.org/

> <PUBCHEM_EXT_SUBSTANCE_URL>
https://www.surechembl.org/chemical/SCHEMBL16128020

> <PUBCHEM_CID_ASSOCIATIONS>
117615138  1

> <PUBCHEM_COORDINATE_TYPE>
1
3

$$$$
