310948467
  -OEChem-07211613022D

 31 34  0     1  0  0  0  0  0999 V2000
    2.0075   -3.1636    0.0000 F   0  0  0  0  0  0  0  0  0  0  0  0
    3.3823   -2.7886    0.0000 F   0  0  0  0  0  0  0  0  0  0  0  0
    2.8042   -3.3667    0.0000 F   0  0  0  0  0  0  0  0  0  0  0  0
   -2.6636   -1.3045    0.0000 O   0  0  0  0  0  0  0  0  0  0  0  0
    2.9136   -1.2107    0.0000 O   0  0  0  0  0  0  0  0  0  0  0  0
   -1.1639    1.0232    0.0000 N   0  0  0  0  0  0  0  0  0  0  0  0
   -0.6796    0.3515    0.0000 N   0  0  0  0  0  0  0  0  0  0  0  0
   -0.8983   -1.1014    0.0000 N   0  0  0  0  0  0  0  0  0  0  0  0
   -3.3823   -0.0703    0.0000 N   0  0  0  0  0  0  0  0  0  0  0  0
    1.0076    0.7733    0.0000 N   0  0  0  0  0  0  0  0  0  0  0  0
   -1.9606   -0.0547    0.0000 C   0  0  0  0  0  0  0  0  0  0  0  0
   -1.9450    0.7733    0.0000 C   0  0  0  0  0  0  0  0  0  0  0  0
   -1.1639   -0.3203    0.0000 C   0  0  0  0  0  0  0  0  0  0  0  0
   -0.8983    1.8200    0.0000 C   0  0  3  0  0  0  0  0  0  0  0  0
   -2.6636   -0.4609    0.0000 C   0  0  0  0  0  0  0  0  0  0  0  0
   -2.6792    1.1795    0.0000 C   0  0  0  0  0  0  0  0  0  0  0  0
   -0.1015    1.9919    0.0000 C   0  0  3  0  0  0  0  0  0  0  0  0
   -0.1015   -1.2733    0.0000 C   0  0  0  0  0  0  0  0  0  0  0  0
   -3.3667    0.7733    0.0000 C   0  0  0  0  0  0  0  0  0  0  0  0
   -1.4450    2.4293    0.0000 C   0  0  0  0  0  0  0  0  0  0  0  0
    1.5232   -1.6013    0.0000 C   0  0  0  0  0  0  0  0  0  0  0  0
    0.1484    2.7886    0.0000 C   0  0  0  0  0  0  0  0  0  0  0  0
    0.1640   -2.0543    0.0000 C   0  0  0  0  0  0  0  0  0  0  0  0
    0.4609   -0.6640    0.0000 C   0  0  0  0  0  0  0  0  0  0  0  0
    2.3356   -1.8044    0.0000 C   0  0  3  0  0  0  0  0  0  0  0  0
    2.5855   -2.5855    0.0000 C   0  0  0  0  0  0  0  0  0  0  0  0
    0.9764   -2.2262    0.0000 C   0  0  0  0  0  0  0  0  0  0  0  0
    1.2576   -0.8358    0.0000 C   0  0  0  0  0  0  0  0  0  0  0  0
    0.4609    1.3670    0.0000 C   0  0  0  0  0  0  0  0  0  0  0  0
   -1.1951    3.2104    0.0000 C   0  0  0  0  0  0  0  0  0  0  0  0
   -0.3827    3.3667    0.0000 C   0  0  0  0  0  0  0  0  0  0  0  0
  1 26  1  0  0  0  0
  2 26  1  0  0  0  0
  3 26  1  0  0  0  0
  4 15  2  0  0  0  0
  5 25  1  0  0  0  0
  6  7  1  0  0  0  0
  6 12  1  0  0  0  0
 14  6  1  1  0  0  0
  7 13  2  0  0  0  0
  8 13  1  0  0  0  0
  8 18  1  0  0  0  0
  9 15  1  0  0  0  0
  9 19  1  0  0  0  0
 10 29  3  0  0  0  0
 11 12  2  0  0  0  0
 11 13  1  0  0  0  0
 11 15  1  0  0  0  0
 12 16  1  0  0  0  0
 14 17  1  0  0  0  0
 14 20  1  0  0  0  0
 16 19  2  0  0  0  0
 17 22  1  0  0  0  0
 17 29  1  6  0  0  0
 18 23  2  0  0  0  0
 18 24  1  0  0  0  0
 20 30  1  0  0  0  0
 21 25  1  0  0  0  0
 21 27  2  0  0  0  0
 21 28  1  0  0  0  0
 22 31  1  0  0  0  0
 23 27  1  0  0  0  0
 24 28  2  0  0  0  0
 25 26  1  0  0  0  0
 30 31  1  0  0  0  0
M  END
> <PUBCHEM_COMPOUND_ID_TYPE>
0

> <PUBCHEM_TOTAL_CHARGE>
0

> <PUBCHEM_SUBSTANCE_ID>
310948467

> <PUBCHEM_SUBSTANCE_VERSION>
1

> <PUBCHEM_EXT_DATASOURCE_NAME>
4488

> <PUBCHEM_EXT_DATASOURCE_REGID>
SCHEMBL16126648

> <PUBCHEM_SUBSTANCE_COMMENT>
InChI=1S/C21H20F3N5O2/c22-21(23,24)18(30)12-5-7-14(8-6-12)27-19-17-16(9-10-26-20(17)31)29(28-19)15-4-2-1-3-13(15)11-25/h5-10,13,15,18,30H,1-4H2,(H,26,31)(H,27,28)/t13-,15+,18?/m1/s1
InChIKey=NWPXDSIAZJYICK-PWXCZCIESA-N

> <PUBCHEM_SUBSTANCE_SYNONYM>
SCHEMBL16126648

> <PUBCHEM_XREF_EXT_ID>
SCHEMBL16126648

> <PUBCHEM_EXT_DATASOURCE_URL>
https://www.surechembl.org/

> <PUBCHEM_EXT_SUBSTANCE_URL>
https://www.surechembl.org/chemical/SCHEMBL16126648

> <PUBCHEM_CID_ASSOCIATIONS>
117614025  1

> <PUBCHEM_COORDINATE_TYPE>
1
3

> <PUBCHEM_BONDANNOTATIONS>
17  29  6
14  6  5

$$$$
