310943997
  -OEChem-07211613022D

 35 40  0     0  0  0  0  0  0999 V2000
    0.0144    3.6926    0.0000 F   0  0  0  0  0  0  0  0  0  0  0  0
    2.1882    3.2175    0.0000 N   0  0  0  0  0  0  0  0  0  0  0  0
   -2.1882    3.2031    0.0000 N   0  0  0  0  0  0  0  0  0  0  0  0
    0.0144   -1.2453    0.0000 C   0  0  0  0  0  0  0  0  0  0  0  0
    0.0000    0.3959    0.0000 C   0  0  0  0  0  0  0  0  0  0  0  0
   -0.7342   -0.8134    0.0000 C   0  0  0  0  0  0  0  0  0  0  0  0
    0.7342   -0.8134    0.0000 C   0  0  0  0  0  0  0  0  0  0  0  0
   -0.7342    0.0072    0.0000 C   0  0  0  0  0  0  0  0  0  0  0  0
    0.7486   -0.0072    0.0000 C   0  0  0  0  0  0  0  0  0  0  0  0
    0.0000   -2.0658    0.0000 C   0  0  0  0  0  0  0  0  0  0  0  0
    0.0000    1.2309    0.0000 C   0  0  0  0  0  0  0  0  0  0  0  0
   -0.7198   -2.4689    0.0000 C   0  0  0  0  0  0  0  0  0  0  0  0
   -1.4540   -1.2165    0.0000 C   0  0  0  0  0  0  0  0  0  0  0  0
    1.4684   -1.2165    0.0000 C   0  0  0  0  0  0  0  0  0  0  0  0
   -1.4396    0.3815    0.0000 C   0  0  0  0  0  0  0  0  0  0  0  0
    1.4684    0.3959    0.0000 C   0  0  0  0  0  0  0  0  0  0  0  0
    0.7342    1.6340    0.0000 C   0  0  0  0  0  0  0  0  0  0  0  0
   -0.7198    1.6484    0.0000 C   0  0  0  0  0  0  0  0  0  0  0  0
   -0.7198   -3.2895    0.0000 C   0  0  0  0  0  0  0  0  0  0  0  0
    0.7630   -2.4833    0.0000 C   0  0  0  0  0  0  0  0  0  0  0  0
    0.7486    2.4833    0.0000 C   0  0  0  0  0  0  0  0  0  0  0  0
   -0.7342    2.4689    0.0000 C   0  0  0  0  0  0  0  0  0  0  0  0
    0.0000    2.8720    0.0000 C   0  0  0  0  0  0  0  0  0  0  0  0
   -2.1738   -0.8278    0.0000 C   0  0  0  0  0  0  0  0  0  0  0  0
    2.1738   -0.8134    0.0000 C   0  0  0  0  0  0  0  0  0  0  0  0
   -2.1882   -0.0360    0.0000 C   0  0  0  0  0  0  0  0  0  0  0  0
    2.1738   -0.0072    0.0000 C   0  0  0  0  0  0  0  0  0  0  0  0
   -1.4684   -2.0802    0.0000 C   0  0  0  0  0  0  0  0  0  0  0  0
    0.0144   -3.6926    0.0000 C   0  0  0  0  0  0  0  0  0  0  0  0
    0.7486   -3.2895    0.0000 C   0  0  0  0  0  0  0  0  0  0  0  0
   -1.4252   -3.6926    0.0000 C   0  0  0  0  0  0  0  0  0  0  0  0
   -2.1594   -2.4833    0.0000 C   0  0  0  0  0  0  0  0  0  0  0  0
    1.4540    2.8576    0.0000 C   0  0  0  0  0  0  0  0  0  0  0  0
   -1.4684    2.8576    0.0000 C   0  0  0  0  0  0  0  0  0  0  0  0
   -2.1738   -3.2895    0.0000 C   0  0  0  0  0  0  0  0  0  0  0  0
  1 23  1  0  0  0  0
  2 33  3  0  0  0  0
  3 34  3  0  0  0  0
  4  6  2  0  0  0  0
  4  7  1  0  0  0  0
  4 10  1  0  0  0  0
  5  8  2  0  0  0  0
  5  9  1  0  0  0  0
  5 11  1  0  0  0  0
  6  8  1  0  0  0  0
  6 13  1  0  0  0  0
  7  9  1  0  0  0  0
  7 14  2  0  0  0  0
  8 15  1  0  0  0  0
  9 16  2  0  0  0  0
 10 12  2  0  0  0  0
 10 20  1  0  0  0  0
 11 17  2  0  0  0  0
 11 18  1  0  0  0  0
 12 19  1  0  0  0  0
 12 28  1  0  0  0  0
 13 24  2  0  0  0  0
 14 25  1  0  0  0  0
 15 26  2  0  0  0  0
 16 27  1  0  0  0  0
 17 21  1  0  0  0  0
 18 22  2  0  0  0  0
 19 29  2  0  0  0  0
 19 31  1  0  0  0  0
 20 30  2  0  0  0  0
 21 23  2  0  0  0  0
 21 33  1  0  0  0  0
 22 23  1  0  0  0  0
 22 34  1  0  0  0  0
 24 26  1  0  0  0  0
 25 27  2  0  0  0  0
 28 32  2  0  0  0  0
 29 30  1  0  0  0  0
 31 35  2  0  0  0  0
 32 35  1  0  0  0  0
M  END
> <PUBCHEM_COMPOUND_ID_TYPE>
0

> <PUBCHEM_TOTAL_CHARGE>
0

> <PUBCHEM_SUBSTANCE_ID>
310943997

> <PUBCHEM_SUBSTANCE_VERSION>
1

> <PUBCHEM_EXT_DATASOURCE_NAME>
4488

> <PUBCHEM_EXT_DATASOURCE_REGID>
SCHEMBL16122068

> <PUBCHEM_SUBSTANCE_COMMENT>
InChI=1S/C32H17FN2/c33-32-22(18-34)16-21(17-23(32)19-35)30-26-11-3-5-13-28(26)31(29-14-6-4-12-27(29)30)25-15-7-9-20-8-1-2-10-24(20)25/h1-17H
InChIKey=AOIOVLBASJXXDH-UHFFFAOYSA-N

> <PUBCHEM_SUBSTANCE_SYNONYM>
SCHEMBL16122068

> <PUBCHEM_XREF_EXT_ID>
SCHEMBL16122068

> <PUBCHEM_EXT_DATASOURCE_URL>
https://www.surechembl.org/

> <PUBCHEM_EXT_SUBSTANCE_URL>
https://www.surechembl.org/chemical/SCHEMBL16122068

> <PUBCHEM_CID_ASSOCIATIONS>
117610302  1

> <PUBCHEM_COORDINATE_TYPE>
1
3

$$$$
