310944140
  -OEChem-07211613022D

 20 21  0     0  0  0  0  0  0999 V2000
    1.3859    1.3034    0.0000 O   0  0  0  0  0  0  0  0  0  0  0  0
   -1.7269   -0.8524    0.0000 O   0  0  0  0  0  0  0  0  0  0  0  0
   -1.7269    0.5774    0.0000 O   0  0  0  0  0  0  0  0  0  0  0  0
    2.4199    0.2695    0.0000 N   0  0  0  0  0  0  0  0  0  0  0  0
   -0.4950   -0.1375    0.0000 N   0  0  0  0  0  0  0  0  0  0  0  0
    1.1550   -0.1265    0.0000 C   0  0  0  0  0  0  0  0  0  0  0  0
    1.6389    0.5225    0.0000 C   0  0  0  0  0  0  0  0  0  0  0  0
    2.4199   -0.5444    0.0000 C   0  0  0  0  0  0  0  0  0  0  0  0
    1.6389   -0.7975    0.0000 C   0  0  0  0  0  0  0  0  0  0  0  0
    0.7479   -0.8415    0.0000 C   0  0  0  0  0  0  0  0  0  0  0  0
    0.7479    0.5665    0.0000 C   0  0  0  0  0  0  0  0  0  0  0  0
   -0.0880   -0.8415    0.0000 C   0  0  0  0  0  0  0  0  0  0  0  0
   -0.0770    0.5774    0.0000 C   0  0  0  0  0  0  0  0  0  0  0  0
   -1.3089   -0.1485    0.0000 C   0  0  0  0  0  0  0  0  0  0  0  0
    3.2448   -0.6325    0.0000 C   0  0  0  0  0  0  0  0  0  0  0  0
    2.7499   -1.3034    0.0000 C   0  0  0  0  0  0  0  0  0  0  0  0
   -2.4419   -0.4455    0.0000 C   0  0  0  0  0  0  0  0  0  0  0  0
   -2.4309    0.4014    0.0000 C   0  0  0  0  0  0  0  0  0  0  0  0
   -3.2448   -0.6434    0.0000 C   0  0  0  0  0  0  0  0  0  0  0  0
   -2.6509   -1.2374    0.0000 C   0  0  0  0  0  0  0  0  0  0  0  0
  1  7  2  0  0  0  0
  2 14  1  0  0  0  0
  2 17  1  0  0  0  0
  3 14  2  0  0  0  0
  4  7  1  0  0  0  0
  4  8  1  0  0  0  0
  5 12  1  0  0  0  0
  5 13  1  0  0  0  0
  5 14  1  0  0  0  0
  6  7  1  0  0  0  0
  6  9  1  0  0  0  0
  6 10  1  0  0  0  0
  6 11  1  0  0  0  0
  8  9  1  0  0  0  0
  8 15  1  0  0  0  0
  8 16  1  0  0  0  0
 10 12  1  0  0  0  0
 11 13  1  0  0  0  0
 17 18  1  0  0  0  0
 17 19  1  0  0  0  0
 17 20  1  0  0  0  0
M  END
> <PUBCHEM_COMPOUND_ID_TYPE>
0

> <PUBCHEM_TOTAL_CHARGE>
0

> <PUBCHEM_SUBSTANCE_ID>
310944140

> <PUBCHEM_SUBSTANCE_VERSION>
1

> <PUBCHEM_EXT_DATASOURCE_NAME>
4488

> <PUBCHEM_EXT_DATASOURCE_REGID>
SCHEMBL16122215

> <PUBCHEM_SUBSTANCE_COMMENT>
InChI=1S/C15H26N2O3/c1-13(2,3)20-12(19)17-8-6-15(7-9-17)10-14(4,5)16-11(15)18/h6-10H2,1-5H3,(H,16,18)
InChIKey=PQNIBGAZZDIQRN-UHFFFAOYSA-N

> <PUBCHEM_SUBSTANCE_SYNONYM>
SCHEMBL16122215

> <PUBCHEM_XREF_EXT_ID>
SCHEMBL16122215

> <PUBCHEM_EXT_DATASOURCE_URL>
https://www.surechembl.org/

> <PUBCHEM_EXT_SUBSTANCE_URL>
https://www.surechembl.org/chemical/SCHEMBL16122215

> <PUBCHEM_CID_ASSOCIATIONS>
117610421  1

> <PUBCHEM_COORDINATE_TYPE>
1
3

$$$$
