310941867
  -OEChem-07211613022D

 23 25  0     0  0  0  0  0  0999 V2000
    1.7591   -1.1476    0.0000 Br  0  0  0  0  0  0  0  0  0  0  0  0
   -2.8173   -2.2607    0.0000 F   0  0  0  0  0  0  0  0  0  0  0  0
   -3.9030   -1.9859    0.0000 F   0  0  0  0  0  0  0  0  0  0  0  0
   -3.6144   -0.8864    0.0000 F   0  0  0  0  0  0  0  0  0  0  0  0
    0.3299   -0.3230    0.0000 O   0  0  0  0  0  0  0  0  0  0  0  0
    2.4875    0.9276    0.0000 N   0  0  0  0  0  0  0  0  0  0  0  0
    1.9515    2.1645    0.0000 N   0  0  0  0  0  0  0  0  0  0  0  0
    2.7761    2.2607    0.0000 N   0  0  0  0  0  0  0  0  0  0  0  0
    3.9030    1.3125    0.0000 N   0  0  0  0  0  0  0  0  0  0  0  0
    1.7729    1.3674    0.0000 C   0  0  0  0  0  0  0  0  0  0  0  0
    1.0445    0.1031    0.0000 C   0  0  0  0  0  0  0  0  0  0  0  0
    3.0922    1.5049    0.0000 C   0  0  0  0  0  0  0  0  0  0  0  0
    1.7729   -0.3092    0.0000 C   0  0  0  0  0  0  0  0  0  0  0  0
    1.0720    0.9552    0.0000 C   0  0  0  0  0  0  0  0  0  0  0  0
    2.4737    0.1031    0.0000 C   0  0  0  0  0  0  0  0  0  0  0  0
   -2.5287   -1.1338    0.0000 C   0  0  0  0  0  0  0  0  0  0  0  0
   -3.2296   -1.5599    0.0000 C   0  0  0  0  0  0  0  0  0  0  0  0
   -1.0857   -0.3230    0.0000 C   0  0  0  0  0  0  0  0  0  0  0  0
   -0.3573    0.1168    0.0000 C   0  0  0  0  0  0  0  0  0  0  0  0
   -1.8140   -1.5460    0.0000 C   0  0  0  0  0  0  0  0  0  0  0  0
   -2.5012   -0.3092    0.0000 C   0  0  0  0  0  0  0  0  0  0  0  0
   -1.8003    0.0893    0.0000 C   0  0  0  0  0  0  0  0  0  0  0  0
   -1.0857   -1.1338    0.0000 C   0  0  0  0  0  0  0  0  0  0  0  0
  1 13  1  0  0  0  0
  2 17  1  0  0  0  0
  3 17  1  0  0  0  0
  4 17  1  0  0  0  0
  5 11  1  0  0  0  0
  5 19  1  0  0  0  0
  6 10  1  0  0  0  0
  6 12  1  0  0  0  0
  6 15  1  0  0  0  0
  7  8  1  0  0  0  0
  7 10  2  0  0  0  0
  8 12  2  0  0  0  0
  9 12  1  0  0  0  0
 10 14  1  0  0  0  0
 11 13  1  0  0  0  0
 11 14  2  0  0  0  0
 13 15  2  0  0  0  0
 16 17  1  1  0  0  0
 16 20  1  0  0  0  0
 16 21  1  0  0  0  0
 18 19  1  6  0  0  0
 18 22  1  0  0  0  0
 18 23  1  0  0  0  0
 20 23  1  0  0  0  0
 21 22  1  0  0  0  0
M  END
> <PUBCHEM_COMPOUND_ID_TYPE>
0

> <PUBCHEM_TOTAL_CHARGE>
0

> <PUBCHEM_SUBSTANCE_ID>
310941867

> <PUBCHEM_SUBSTANCE_VERSION>
1

> <PUBCHEM_EXT_DATASOURCE_NAME>
4488

> <PUBCHEM_EXT_DATASOURCE_REGID>
SCHEMBL16119899

> <PUBCHEM_SUBSTANCE_COMMENT>
InChI=1S/C14H16BrF3N4O/c15-10-6-22-12(20-21-13(22)19)5-11(10)23-7-8-1-3-9(4-2-8)14(16,17)18/h5-6,8-9H,1-4,7H2,(H2,19,21)/t8-,9-
InChIKey=HWPGSZSUBJPHBV-KYZUINATSA-N

> <PUBCHEM_SUBSTANCE_SYNONYM>
SCHEMBL16119899

> <PUBCHEM_XREF_EXT_ID>
SCHEMBL16119899

> <PUBCHEM_EXT_DATASOURCE_URL>
https://www.surechembl.org/

> <PUBCHEM_EXT_SUBSTANCE_URL>
https://www.surechembl.org/chemical/SCHEMBL16119899

> <PUBCHEM_CID_ASSOCIATIONS>
117608605  1

> <PUBCHEM_COORDINATE_TYPE>
1
3

> <PUBCHEM_BONDANNOTATIONS>
16  17  5
18  19  6

$$$$
