310928754
  -OEChem-07211613022D

 41 47  0     0  0  0  0  0  0999 V2000
    0.0499    2.1675    0.0000 S   0  0  0  0  0  0  0  0  0  0  0  0
    2.3734   -0.1567    0.0000 P   0  0  0  0  0  0  0  0  0  0  0  0
   -2.2737   -0.1567    0.0000 P   0  0  0  0  0  0  0  0  0  0  0  0
    2.9865    0.3953    0.0000 O   0  0  0  0  0  0  0  0  0  0  0  0
   -1.6606   -0.7087    0.0000 O   0  0  0  0  0  0  0  0  0  0  0  0
    0.4624    0.8980    0.0000 C   0  0  0  0  0  0  0  0  0  0  0  0
   -0.3626    0.8980    0.0000 C   0  0  0  0  0  0  0  0  0  0  0  0
    1.8214    0.4564    0.0000 C   0  0  0  0  0  0  0  0  0  0  0  0
   -1.7216    0.4564    0.0000 C   0  0  0  0  0  0  0  0  0  0  0  0
    0.7173    1.6826    0.0000 C   0  0  0  0  0  0  0  0  0  0  0  0
   -0.6176    1.6826    0.0000 C   0  0  0  0  0  0  0  0  0  0  0  0
   -0.9146    0.2849    0.0000 C   0  0  0  0  0  0  0  0  0  0  0  0
    1.0144    0.2849    0.0000 C   0  0  0  0  0  0  0  0  0  0  0  0
   -2.8867    0.3953    0.0000 C   0  0  0  0  0  0  0  0  0  0  0  0
   -2.8257   -0.7698    0.0000 C   0  0  0  0  0  0  0  0  0  0  0  0
    1.7603   -0.7087    0.0000 C   0  0  0  0  0  0  0  0  0  0  0  0
    2.9255   -0.7698    0.0000 C   0  0  0  0  0  0  0  0  0  0  0  0
    2.0763    1.2410    0.0000 C   0  0  0  0  0  0  0  0  0  0  0  0
   -1.9766    1.2410    0.0000 C   0  0  0  0  0  0  0  0  0  0  0  0
    1.5243    1.8541    0.0000 C   0  0  0  0  0  0  0  0  0  0  0  0
   -1.4245    1.8541    0.0000 C   0  0  0  0  0  0  0  0  0  0  0  0
   -3.6714    0.1404    0.0000 C   0  0  0  0  0  0  0  0  0  0  0  0
   -2.5707   -1.5544    0.0000 C   0  0  0  0  0  0  0  0  0  0  0  0
    1.9319   -1.5157    0.0000 C   0  0  0  0  0  0  0  0  0  0  0  0
    3.7324   -0.5983    0.0000 C   0  0  0  0  0  0  0  0  0  0  0  0
   -2.7152    1.2023    0.0000 C   0  0  0  0  0  0  0  0  0  0  0  0
   -3.6327   -0.5983    0.0000 C   0  0  0  0  0  0  0  0  0  0  0  0
    0.9757   -0.4538    0.0000 C   0  0  0  0  0  0  0  0  0  0  0  0
    2.6705   -1.5544    0.0000 C   0  0  0  0  0  0  0  0  0  0  0  0
   -4.2845    0.6924    0.0000 C   0  0  0  0  0  0  0  0  0  0  0  0
   -3.1228   -2.1675    0.0000 C   0  0  0  0  0  0  0  0  0  0  0  0
    1.3188   -2.0677    0.0000 C   0  0  0  0  0  0  0  0  0  0  0  0
    4.2845   -1.2114    0.0000 C   0  0  0  0  0  0  0  0  0  0  0  0
   -3.3283    1.7543    0.0000 C   0  0  0  0  0  0  0  0  0  0  0  0
   -4.1847   -1.2114    0.0000 C   0  0  0  0  0  0  0  0  0  0  0  0
    0.3626   -1.0058    0.0000 C   0  0  0  0  0  0  0  0  0  0  0  0
    3.2226   -2.1675    0.0000 C   0  0  0  0  0  0  0  0  0  0  0  0
   -4.1129    1.4994    0.0000 C   0  0  0  0  0  0  0  0  0  0  0  0
   -3.9297   -1.9960    0.0000 C   0  0  0  0  0  0  0  0  0  0  0  0
    0.5341   -1.8128    0.0000 C   0  0  0  0  0  0  0  0  0  0  0  0
    4.0295   -1.9960    0.0000 C   0  0  0  0  0  0  0  0  0  0  0  0
  1 10  1  0  0  0  0
  1 11  1  0  0  0  0
  2  4  2  0  0  0  0
  2  8  1  0  0  0  0
  2 16  1  0  0  0  0
  2 17  1  0  0  0  0
  3  5  2  0  0  0  0
  3  9  1  0  0  0  0
  3 14  1  0  0  0  0
  3 15  1  0  0  0  0
  6  7  1  0  0  0  0
  6 10  1  0  0  0  0
  6 13  2  0  0  0  0
  7 11  1  0  0  0  0
  7 12  2  0  0  0  0
  8 13  1  0  0  0  0
  8 18  2  0  0  0  0
  9 12  1  0  0  0  0
  9 19  2  0  0  0  0
 10 20  2  0  0  0  0
 11 21  2  0  0  0  0
 14 22  2  0  0  0  0
 14 26  1  0  0  0  0
 15 23  2  0  0  0  0
 15 27  1  0  0  0  0
 16 24  2  0  0  0  0
 16 28  1  0  0  0  0
 17 25  2  0  0  0  0
 17 29  1  0  0  0  0
 18 20  1  0  0  0  0
 19 21  1  0  0  0  0
 22 30  1  0  0  0  0
 23 31  1  0  0  0  0
 24 32  1  0  0  0  0
 25 33  1  0  0  0  0
 26 34  2  0  0  0  0
 27 35  2  0  0  0  0
 28 36  2  0  0  0  0
 29 37  2  0  0  0  0
 30 38  2  0  0  0  0
 31 39  2  0  0  0  0
 32 40  2  0  0  0  0
 33 41  2  0  0  0  0
 34 38  1  0  0  0  0
 35 39  1  0  0  0  0
 36 40  1  0  0  0  0
 37 41  1  0  0  0  0
M  END
> <PUBCHEM_COMPOUND_ID_TYPE>
0

> <PUBCHEM_TOTAL_CHARGE>
0

> <PUBCHEM_SUBSTANCE_ID>
310928754

> <PUBCHEM_SUBSTANCE_VERSION>
1

> <PUBCHEM_EXT_DATASOURCE_NAME>
11752

> <PUBCHEM_EXT_DATASOURCE_REGID>
BD304700

> <PUBCHEM_SUBSTANCE_SYNONYM>
1019842-99-9
Dibenzo[b,d]thiophene-2,8-diylbis(diphenylphosphine oxide)

> <PUBCHEM_GENERIC_REGISTRY_NAME>
1019842-99-9

> <PUBCHEM_XREF_EXT_ID>
BD304700

> <PUBCHEM_EXT_DATASOURCE_URL>
http://www.bidepharmatech.com/en/index.html

> <PUBCHEM_EXT_SUBSTANCE_URL>
http://www.bidepharmatech.com/en/goodsview_goodscode_BD304700.html

> <PUBCHEM_CID_ASSOCIATIONS>
60136199  1

> <PUBCHEM_COORDINATE_TYPE>
1
3

$$$$
