310937371
  -OEChem-07211613022D

 29 31  0     0  0  0  0  0  0999 V2000
   -0.0461   -1.8883    0.0000 S   0  0  0  0  0  0  0  0  0  0  0  0
   -4.9325    1.4623    0.0000 S   0  0  0  0  0  0  0  0  0  0  0  0
    0.2635    0.9602    0.0000 P   0  0  0  0  0  0  0  0  0  0  0  0
    0.6977   -2.3517    0.0000 O   0  0  0  0  0  0  0  0  0  0  0  0
    0.5826   -1.3024    0.0000 O   0  0  0  0  0  0  0  0  0  0  0  0
   -0.4103   -2.6834    0.0000 O   0  0  0  0  0  0  0  0  0  0  0  0
   -5.6550    1.9511    0.0000 O   0  0  0  0  0  0  0  0  0  0  0  0
   -4.5925    2.2701    0.0000 O   0  0  0  0  0  0  0  0  0  0  0  0
   -5.5262    0.8192    0.0000 O   0  0  0  0  0  0  0  0  0  0  0  0
   -1.3304    0.7686    0.0000 C   0  0  0  0  0  0  0  0  0  0  0  0
   -2.0145    1.2297    0.0000 C   0  0  0  0  0  0  0  0  0  0  0  0
   -1.3877   -0.0544    0.0000 C   0  0  0  0  0  0  0  0  0  0  0  0
   -2.7559    0.8678    0.0000 C   0  0  0  0  0  0  0  0  0  0  0  0
   -0.5891    1.1305    0.0000 C   0  0  0  0  0  0  0  0  0  0  0  0
   -1.7855   -0.3494    0.0000 C   0  0  0  0  0  0  0  0  0  0  0  0
   -0.7608   -1.3385    0.0000 C   0  0  0  0  0  0  0  0  0  0  0  0
   -0.7036   -0.5155    0.0000 C   0  0  0  0  0  0  0  0  0  0  0  0
   -2.8132    0.0448    0.0000 C   0  0  0  0  0  0  0  0  0  0  0  0
   -4.1814    0.9670    0.0000 C   0  0  0  0  0  0  0  0  0  0  0  0
   -3.4400    1.3289    0.0000 C   0  0  0  0  0  0  0  0  0  0  0  0
   -1.9573    2.0527    0.0000 C   0  0  0  0  0  0  0  0  0  0  0  0
   -0.5318    1.9535    0.0000 C   0  0  0  0  0  0  0  0  0  0  0  0
   -2.1863   -1.2393    0.0000 C   0  0  0  0  0  0  0  0  0  0  0  0
   -1.5022   -1.7004    0.0000 C   0  0  0  0  0  0  0  0  0  0  0  0
   -3.5546   -0.3171    0.0000 C   0  0  0  0  0  0  0  0  0  0  0  0
   -4.2387    0.1440    0.0000 C   0  0  0  0  0  0  0  0  0  0  0  0
   -1.2159    2.4146    0.0000 C   0  0  0  0  0  0  0  0  0  0  0  0
   -2.2912    0.3344    0.0000 C   0  0  0  0  0  0  0  0  0  0  0  0
   -2.5968   -0.7424    0.0000 C   0  0  0  0  0  0  0  0  0  0  0  0
  1  4  2  0  0  0  0
  1  5  2  0  0  0  0
  1  6  1  0  0  0  0
  1 16  1  0  0  0  0
  2  7  2  0  0  0  0
  2  8  2  0  0  0  0
  2  9  1  0  0  0  0
  2 19  1  0  0  0  0
  3 14  1  0  0  0  0
 10 11  1  0  0  0  0
 10 12  1  0  0  0  0
 10 14  2  0  0  0  0
 11 13  1  0  0  0  0
 11 21  2  0  0  0  0
 12 15  1  0  0  0  0
 12 17  2  0  0  0  0
 13 18  2  0  0  0  0
 13 20  1  0  0  0  0
 14 22  1  0  0  0  0
 15 23  2  0  0  0  0
 15 28  1  0  0  0  0
 16 17  1  0  0  0  0
 16 24  2  0  0  0  0
 18 25  1  0  0  0  0
 18 29  1  0  0  0  0
 19 20  2  0  0  0  0
 19 26  1  0  0  0  0
 21 27  1  0  0  0  0
 22 27  2  0  0  0  0
 23 24  1  0  0  0  0
 25 26  2  0  0  0  0
M  END
> <PUBCHEM_COMPOUND_ID_TYPE>
0

> <PUBCHEM_TOTAL_CHARGE>
0

> <PUBCHEM_SUBSTANCE_ID>
310937371

> <PUBCHEM_SUBSTANCE_VERSION>
1

> <PUBCHEM_EXT_DATASOURCE_NAME>
4488

> <PUBCHEM_EXT_DATASOURCE_REGID>
SCHEMBL16115127

> <PUBCHEM_SUBSTANCE_COMMENT>
InChI=1S/C20H19O6PS2/c1-12-6-8-14(28(21,22)23)10-17(12)16-4-3-5-19(27)20(16)18-11-15(29(24,25)26)9-7-13(18)2/h3-11H,27H2,1-2H3,(H,21,22,23)(H,24,25,26)
InChIKey=FQFFTRNVNDPLJW-UHFFFAOYSA-N

> <PUBCHEM_SUBSTANCE_SYNONYM>
SCHEMBL16115127

> <PUBCHEM_XREF_EXT_ID>
SCHEMBL16115127

> <PUBCHEM_EXT_DATASOURCE_URL>
https://www.surechembl.org/

> <PUBCHEM_EXT_SUBSTANCE_URL>
https://www.surechembl.org/chemical/SCHEMBL16115127

> <PUBCHEM_CID_ASSOCIATIONS>
117605142  1

> <PUBCHEM_COORDINATE_TYPE>
1
3

$$$$
