310929608
  -OEChem-07211613022D

 25 26  0     0  0  0  0  0  0999 V2000
   10.7973   -0.4227    0.0000 O   0  0  0  0  0  0  0  0  0  0  0  0
    0.0000   -1.6522    0.0000 O   0  0  0  0  0  0  0  0  0  0  0  0
    9.3756   -1.2680    0.0000 N   0  0  0  0  0  0  0  0  0  0  0  0
   10.1056   -1.6522    0.0000 C   0  0  0  0  0  0  0  0  0  0  0  0
   10.1056   -2.4976    0.0000 C   0  0  0  0  0  0  0  0  0  0  0  0
   10.7973   -1.2296    0.0000 C   0  0  0  0  0  0  0  0  0  0  0  0
    8.6455   -1.6522    0.0000 C   0  0  0  0  0  0  0  0  0  0  0  0
    9.4140   -2.9203    0.0000 C   0  0  0  0  0  0  0  0  0  0  0  0
   10.8357   -2.9203    0.0000 C   0  0  0  0  0  0  0  0  0  0  0  0
   11.5273   -1.6522    0.0000 C   0  0  0  0  0  0  0  0  0  0  0  0
    8.6840   -2.4976    0.0000 C   0  0  0  0  0  0  0  0  0  0  0  0
   11.5273   -2.4976    0.0000 C   0  0  0  0  0  0  0  0  0  0  0  0
    7.9539   -1.2680    0.0000 C   0  0  0  0  0  0  0  0  0  0  0  0
   10.0672    0.0000    0.0000 C   0  0  0  0  0  0  0  0  0  0  0  0
    7.2238   -1.6522    0.0000 C   0  0  0  0  0  0  0  0  0  0  0  0
    6.4938   -1.2680    0.0000 C   0  0  0  0  0  0  0  0  0  0  0  0
    9.3756   -0.4227    0.0000 C   0  0  0  0  0  0  0  0  0  0  0  0
    5.7637   -1.6522    0.0000 C   0  0  0  0  0  0  0  0  0  0  0  0
    5.0720   -1.2680    0.0000 C   0  0  0  0  0  0  0  0  0  0  0  0
    4.3419   -1.6522    0.0000 C   0  0  0  0  0  0  0  0  0  0  0  0
    3.6119   -1.2680    0.0000 C   0  0  0  0  0  0  0  0  0  0  0  0
    2.8818   -1.6522    0.0000 C   0  0  0  0  0  0  0  0  0  0  0  0
    2.1517   -1.2680    0.0000 C   0  0  0  0  0  0  0  0  0  0  0  0
    1.4601   -1.6522    0.0000 C   0  0  0  0  0  0  0  0  0  0  0  0
    0.7301   -1.2680    0.0000 C   0  0  0  0  0  0  0  0  0  0  0  0
  1  6  1  0  0  0  0
  1 14  1  0  0  0  0
  2 25  1  0  0  0  0
  3  4  2  0  0  0  0
  3  7  1  0  0  0  0
  4  5  1  0  0  0  0
  4  6  1  0  0  0  0
  5  8  2  0  0  0  0
  5  9  1  0  0  0  0
  6 10  2  0  0  0  0
  7 11  2  0  0  0  0
  7 13  1  0  0  0  0
  8 11  1  0  0  0  0
  9 12  2  0  0  0  0
 10 12  1  0  0  0  0
 13 15  1  0  0  0  0
 14 17  1  0  0  0  0
 15 16  1  0  0  0  0
 16 18  1  0  0  0  0
 18 19  1  0  0  0  0
 19 20  1  0  0  0  0
 20 21  1  0  0  0  0
 21 22  1  0  0  0  0
 22 23  1  0  0  0  0
 23 24  1  0  0  0  0
 24 25  1  0  0  0  0
M  END
> <PUBCHEM_COMPOUND_ID_TYPE>
0

> <PUBCHEM_TOTAL_CHARGE>
0

> <PUBCHEM_SUBSTANCE_ID>
310929608

> <PUBCHEM_SUBSTANCE_VERSION>
1

> <PUBCHEM_EXT_DATASOURCE_NAME>
4488

> <PUBCHEM_EXT_DATASOURCE_REGID>
SCHEMBL16106795

> <PUBCHEM_SUBSTANCE_COMMENT>
InChI=1S/C22H33NO2/c1-2-25-21-15-12-13-19-16-17-20(23-22(19)21)14-10-8-6-4-3-5-7-9-11-18-24/h12-13,15-17,24H,2-11,14,18H2,1H3
InChIKey=YSTDGIZKOZZGCU-UHFFFAOYSA-N

> <PUBCHEM_SUBSTANCE_SYNONYM>
SCHEMBL16106795

> <PUBCHEM_XREF_EXT_ID>
SCHEMBL16106795

> <PUBCHEM_EXT_DATASOURCE_URL>
https://www.surechembl.org/

> <PUBCHEM_EXT_SUBSTANCE_URL>
https://www.surechembl.org/chemical/SCHEMBL16106795

> <PUBCHEM_CID_ASSOCIATIONS>
85472043  1

> <PUBCHEM_COORDINATE_TYPE>
1
3

$$$$
