310932839
  -OEChem-07211613022D

 17 17  0     0  0  0  0  0  0999 V2000
    3.5095   -1.2271    0.0000 O   0  0  0  0  0  0  0  0  0  0  0  0
    2.8224    0.0000    0.0000 O   0  0  0  0  0  0  0  0  0  0  0  0
    2.1107   -4.5158    0.0000 O   0  0  0  0  0  0  0  0  0  0  0  0
    0.6872   -1.2271    0.0000 N   0  0  0  0  0  0  0  0  0  0  0  0
    2.1107   -1.2271    0.0000 C   0  0  0  0  0  0  0  0  0  0  0  0
    2.1107   -2.0370    0.0000 C   0  0  0  0  0  0  0  0  0  0  0  0
    2.8224   -0.8099    0.0000 C   0  0  0  0  0  0  0  0  0  0  0  0
    2.8224   -2.4542    0.0000 C   0  0  0  0  0  0  0  0  0  0  0  0
    1.3989   -2.4542    0.0000 C   0  0  0  0  0  0  0  0  0  0  0  0
    1.3989   -0.8099    0.0000 C   0  0  0  0  0  0  0  0  0  0  0  0
    2.1107   -3.6813    0.0000 C   0  0  0  0  0  0  0  0  0  0  0  0
    2.8224   -3.2641    0.0000 C   0  0  0  0  0  0  0  0  0  0  0  0
    1.3989   -3.2641    0.0000 C   0  0  0  0  0  0  0  0  0  0  0  0
    0.0000   -0.8099    0.0000 C   0  0  0  0  0  0  0  0  0  0  0  0
    0.7117   -2.0370    0.0000 C   0  0  0  0  0  0  0  0  0  0  0  0
    4.2212   -0.8099    0.0000 C   0  0  0  0  0  0  0  0  0  0  0  0
    2.8224   -4.9084    0.0000 C   0  0  0  0  0  0  0  0  0  0  0  0
  1  7  1  0  0  0  0
  1 16  1  0  0  0  0
  2  7  2  0  0  0  0
  3 11  1  0  0  0  0
  3 17  1  0  0  0  0
  4 10  1  0  0  0  0
  4 14  1  0  0  0  0
  4 15  1  0  0  0  0
  5  6  1  0  0  0  0
  5  7  1  0  0  0  0
  5 10  2  0  0  0  0
  6  8  2  0  0  0  0
  6  9  1  0  0  0  0
  8 12  1  0  0  0  0
  9 13  2  0  0  0  0
 11 12  2  0  0  0  0
 11 13  1  0  0  0  0
M  END
> <PUBCHEM_COMPOUND_ID_TYPE>
0

> <PUBCHEM_TOTAL_CHARGE>
0

> <PUBCHEM_SUBSTANCE_ID>
310932839

> <PUBCHEM_SUBSTANCE_VERSION>
1

> <PUBCHEM_EXT_DATASOURCE_NAME>
4488

> <PUBCHEM_EXT_DATASOURCE_REGID>
SCHEMBL16110228

> <PUBCHEM_SUBSTANCE_COMMENT>
InChI=1S/C13H17NO3/c1-14(2)9-12(13(15)17-4)10-5-7-11(16-3)8-6-10/h5-9H,1-4H3/b12-9+
InChIKey=HPUFXIPGACFZQP-FMIVXFBMSA-N

> <PUBCHEM_SUBSTANCE_SYNONYM>
SCHEMBL16110228

> <PUBCHEM_XREF_EXT_ID>
SCHEMBL16110228

> <PUBCHEM_EXT_DATASOURCE_URL>
https://www.surechembl.org/

> <PUBCHEM_EXT_SUBSTANCE_URL>
https://www.surechembl.org/chemical/SCHEMBL16110228

> <PUBCHEM_CID_ASSOCIATIONS>
117601327  1

> <PUBCHEM_COORDINATE_TYPE>
1
3

$$$$
