310940901
  -OEChem-07211613022D

 12 13  0     1  0  0  0  0  0999 V2000
   -2.0688   -0.0164    0.0000 O   0  0  0  0  0  0  0  0  0  0  0  0
   -1.4776    1.2314    0.0000 O   0  0  0  0  0  0  0  0  0  0  0  0
    1.5762   -1.0836    0.0000 N   0  0  0  0  0  0  0  0  0  0  0  0
    2.0688   -0.3940    0.0000 N   0  0  0  0  0  0  0  0  0  0  0  0
    0.7881    0.0164    0.0000 C   0  0  0  0  0  0  0  0  0  0  0  0
    0.7717   -0.8045    0.0000 C   0  0  0  0  0  0  0  0  0  0  0  0
   -0.6731    0.0000    0.0000 C   0  0  3  0  0  0  0  0  0  0  0  0
    0.0657    0.4105    0.0000 C   0  0  0  0  0  0  0  0  0  0  0  0
    0.0657   -1.2314    0.0000 C   0  0  0  0  0  0  0  0  0  0  0  0
    1.5926    0.2462    0.0000 C   0  0  0  0  0  0  0  0  0  0  0  0
   -0.6567   -0.8209    0.0000 C   0  0  0  0  0  0  0  0  0  0  0  0
   -1.4120    0.4269    0.0000 C   0  0  0  0  0  0  0  0  0  0  0  0
  1 12  2  0  0  0  0
  2 12  1  0  0  0  0
  3  4  1  0  0  0  0
  3  6  1  0  0  0  0
  4 10  2  0  0  0  0
  5  6  2  0  0  0  0
  5  8  1  0  0  0  0
  5 10  1  0  0  0  0
  6  9  1  0  0  0  0
  7  8  1  0  0  0  0
  7 11  1  0  0  0  0
  7 12  1  6  0  0  0
  9 11  1  0  0  0  0
M  END
> <PUBCHEM_COMPOUND_ID_TYPE>
0

> <PUBCHEM_TOTAL_CHARGE>
0

> <PUBCHEM_SUBSTANCE_ID>
310940901

> <PUBCHEM_SUBSTANCE_VERSION>
1

> <PUBCHEM_EXT_DATASOURCE_NAME>
4488

> <PUBCHEM_EXT_DATASOURCE_REGID>
SCHEMBL16118860

> <PUBCHEM_SUBSTANCE_COMMENT>
InChI=1S/C8H10N2O2/c11-8(12)5-1-2-7-6(3-5)4-9-10-7/h4-5H,1-3H2,(H,9,10)(H,11,12)/t5-/m0/s1
InChIKey=SQOPSWGOYYFIGA-YFKPBYRVSA-N

> <PUBCHEM_SUBSTANCE_SYNONYM>
SCHEMBL16118860

> <PUBCHEM_XREF_EXT_ID>
SCHEMBL16118860

> <PUBCHEM_EXT_DATASOURCE_URL>
https://www.surechembl.org/

> <PUBCHEM_EXT_SUBSTANCE_URL>
https://www.surechembl.org/chemical/SCHEMBL16118860

> <PUBCHEM_CID_ASSOCIATIONS>
86330465  1

> <PUBCHEM_COORDINATE_TYPE>
1
3

> <PUBCHEM_BONDANNOTATIONS>
7  12  6

$$$$
