310938807
  -OEChem-07211613022D

 21 23  0     0  0  0  0  0  0999 V2000
    3.1606   -0.7512    0.0000 O   0  0  0  0  0  0  0  0  0  0  0  0
    0.3027   -0.7512    0.0000 N   0  0  0  0  0  0  0  0  0  0  0  0
    2.4461   -1.9887    0.0000 N   0  0  0  0  0  0  0  0  0  0  0  0
   -0.4118   -0.3387    0.0000 N   0  0  0  0  0  0  0  0  0  0  0  0
    1.0172   -1.9887    0.0000 C   0  0  0  0  0  0  0  0  0  0  0  0
    0.3027   -1.5762    0.0000 C   0  0  0  0  0  0  0  0  0  0  0  0
    0.6047   -2.7031    0.0000 C   0  0  0  0  0  0  0  0  0  0  0  0
    1.4297   -2.7031    0.0000 C   0  0  0  0  0  0  0  0  0  0  0  0
    1.7317   -1.5762    0.0000 C   0  0  0  0  0  0  0  0  0  0  0  0
   -0.4118   -1.9887    0.0000 C   0  0  0  0  0  0  0  0  0  0  0  0
    3.1606   -1.5762    0.0000 C   0  0  0  0  0  0  0  0  0  0  0  0
    3.8751   -1.9887    0.0000 C   0  0  0  0  0  0  0  0  0  0  0  0
   -1.1262   -1.5762    0.0000 C   0  0  0  0  0  0  0  0  0  0  0  0
   -1.1262   -0.7512    0.0000 C   0  0  0  0  0  0  0  0  0  0  0  0
    3.8751   -2.8137    0.0000 C   0  0  0  0  0  0  0  0  0  0  0  0
    4.5895   -1.5762    0.0000 C   0  0  0  0  0  0  0  0  0  0  0  0
    4.5895   -3.2262    0.0000 C   0  0  0  0  0  0  0  0  0  0  0  0
    5.3040   -1.9887    0.0000 C   0  0  0  0  0  0  0  0  0  0  0  0
    5.3040   -2.8137    0.0000 C   0  0  0  0  0  0  0  0  0  0  0  0
   -1.8407   -0.3387    0.0000 C   0  0  0  0  0  0  0  0  0  0  0  0
    3.1606   -3.2262    0.0000 C   0  0  0  0  0  0  0  0  0  0  0  0
  1 11  2  0  0  0  0
  2  4  1  0  0  0  0
  2  6  2  0  0  0  0
  3  9  1  0  0  0  0
  3 11  1  0  0  0  0
  4 14  2  0  0  0  0
  5  6  1  0  0  0  0
  5  7  1  0  0  0  0
  5  8  1  0  0  0  0
  5  9  1  0  0  0  0
  6 10  1  0  0  0  0
  7  8  1  0  0  0  0
 10 13  2  0  0  0  0
 11 12  1  0  0  0  0
 12 15  1  0  0  0  0
 12 16  2  0  0  0  0
 13 14  1  0  0  0  0
 14 20  1  0  0  0  0
 15 17  2  0  0  0  0
 15 21  1  0  0  0  0
 16 18  1  0  0  0  0
 17 19  1  0  0  0  0
 18 19  2  0  0  0  0
M  END
> <PUBCHEM_COMPOUND_ID_TYPE>
0

> <PUBCHEM_TOTAL_CHARGE>
0

> <PUBCHEM_SUBSTANCE_ID>
310938807

> <PUBCHEM_SUBSTANCE_VERSION>
1

> <PUBCHEM_EXT_DATASOURCE_NAME>
4488

> <PUBCHEM_EXT_DATASOURCE_REGID>
SCHEMBL16116724

> <PUBCHEM_SUBSTANCE_COMMENT>
InChI=1S/C17H19N3O/c1-12-5-3-4-6-14(12)16(21)18-11-17(9-10-17)15-8-7-13(2)19-20-15/h3-8H,9-11H2,1-2H3,(H,18,21)
InChIKey=SEDLAVJOQWJOBA-UHFFFAOYSA-N

> <PUBCHEM_SUBSTANCE_SYNONYM>
SCHEMBL16116724

> <PUBCHEM_XREF_EXT_ID>
SCHEMBL16116724

> <PUBCHEM_EXT_DATASOURCE_URL>
https://www.surechembl.org/

> <PUBCHEM_EXT_SUBSTANCE_URL>
https://www.surechembl.org/chemical/SCHEMBL16116724

> <PUBCHEM_CID_ASSOCIATIONS>
117606215  1

> <PUBCHEM_COORDINATE_TYPE>
1
3

$$$$
