310947614
  -OEChem-07211613022D

 28 30  0     1  0  0  0  0  0999 V2000
   -2.2867   -2.3494    0.0000 Cl  0  0  0  0  0  0  0  0  0  0  0  0
    2.2867   -0.6902    0.0000 O   0  0  0  0  0  0  0  0  0  0  0  0
    1.5616    1.4013    0.0000 O   0  0  0  0  0  0  0  0  0  0  0  0
   -0.5856    1.8196    0.0000 O   0  0  0  0  0  0  0  0  0  0  0  0
    0.8506    1.8196    0.0000 O   0  0  0  0  0  0  0  0  0  0  0  0
    0.8506    0.1604    0.0000 N   0  0  0  0  0  0  0  0  0  0  0  0
    0.8506   -0.6623    0.0000 C   0  0  3  0  0  0  0  0  0  0  0  0
    0.1394    0.5786    0.0000 C   0  0  3  0  0  0  0  0  0  0  0  0
    1.5616   -1.0946    0.0000 C   0  0  3  0  0  0  0  0  0  0  0  0
   -0.5996    0.1324    0.0000 C   0  0  0  0  0  0  0  0  0  0  0  0
    1.5616    0.5647    0.0000 C   0  0  0  0  0  0  0  0  0  0  0  0
    0.1255   -1.0946    0.0000 C   0  0  0  0  0  0  0  0  0  0  0  0
    0.1255    1.4152    0.0000 C   0  0  0  0  0  0  0  0  0  0  0  0
    1.5616   -1.9311    0.0000 C   0  0  0  0  0  0  0  0  0  0  0  0
   -0.9900   -0.5508    0.0000 C   0  0  0  0  0  0  0  0  0  0  0  0
   -1.3943    0.1464    0.0000 C   0  0  0  0  0  0  0  0  0  0  0  0
    2.2727    0.1604    0.0000 C   0  0  0  0  0  0  0  0  0  0  0  0
   -0.5856   -0.6902    0.0000 C   0  0  0  0  0  0  0  0  0  0  0  0
    0.1255   -1.9311    0.0000 C   0  0  0  0  0  0  0  0  0  0  0  0
    0.8506   -2.3494    0.0000 C   0  0  0  0  0  0  0  0  0  0  0  0
    2.2727   -2.3494    0.0000 C   0  0  0  0  0  0  0  0  0  0  0  0
   -1.2967   -1.0946    0.0000 C   0  0  0  0  0  0  0  0  0  0  0  0
   -0.5716   -2.3494    0.0000 C   0  0  0  0  0  0  0  0  0  0  0  0
   -1.2967   -1.9311    0.0000 C   0  0  0  0  0  0  0  0  0  0  0  0
   -0.5856    2.6561    0.0000 C   0  0  0  0  0  0  0  0  0  0  0  0
    0.8645   -2.8653    0.0000 C   0  0  0  0  0  0  0  0  0  0  0  0
    2.2309   -2.8653    0.0000 C   0  0  0  0  0  0  0  0  0  0  0  0
   -1.3943    2.8653    0.0000 C   0  0  0  0  0  0  0  0  0  0  0  0
  1 24  1  0  0  0  0
  2  9  1  0  0  0  0
  2 17  1  0  0  0  0
  3 11  2  0  0  0  0
  4 13  1  0  0  0  0
  4 25  1  0  0  0  0
  5 13  2  0  0  0  0
  7  6  1  1  0  0  0
  6  8  1  0  0  0  0
  6 11  1  0  0  0  0
  7  9  1  0  0  0  0
  7 12  1  0  0  0  0
  8 10  1  0  0  0  0
  8 13  1  6  0  0  0
  9 14  1  6  0  0  0
 10 15  1  0  0  0  0
 10 16  1  0  0  0  0
 11 17  1  0  0  0  0
 12 18  2  0  0  0  0
 12 19  1  0  0  0  0
 14 20  2  0  0  0  0
 14 21  1  0  0  0  0
 15 16  1  0  0  0  0
 18 22  1  0  0  0  0
 19 23  2  0  0  0  0
 20 26  1  0  0  0  0
 21 27  2  0  0  0  0
 22 24  2  0  0  0  0
 23 24  1  0  0  0  0
 25 28  1  0  0  0  0
M  END
> <PUBCHEM_COMPOUND_ID_TYPE>
0

> <PUBCHEM_TOTAL_CHARGE>
0

> <PUBCHEM_SUBSTANCE_ID>
310947614

> <PUBCHEM_SUBSTANCE_VERSION>
1

> <PUBCHEM_EXT_DATASOURCE_NAME>
4488

> <PUBCHEM_EXT_DATASOURCE_REGID>
SCHEMBL16125779

> <PUBCHEM_SUBSTANCE_COMMENT>
InChI=1S/C22H26ClNO4/c1-4-14(5-2)21-19(15-9-11-17(23)12-10-15)24(18(25)13-28-21)20(16-7-8-16)22(26)27-6-3/h4-5,9-12,16,19-21H,1,6-8,13H2,2-3H3/b14-5+/t19-,20-,21-/m1/s1
InChIKey=HYLQARHIGZYTHS-RGJMRUMHSA-N

> <PUBCHEM_SUBSTANCE_SYNONYM>
SCHEMBL16125779

> <PUBCHEM_XREF_EXT_ID>
SCHEMBL16125779

> <PUBCHEM_EXT_DATASOURCE_URL>
https://www.surechembl.org/

> <PUBCHEM_EXT_SUBSTANCE_URL>
https://www.surechembl.org/chemical/SCHEMBL16125779

> <PUBCHEM_CID_ASSOCIATIONS>
117613334  1

> <PUBCHEM_COORDINATE_TYPE>
1
3

> <PUBCHEM_BONDANNOTATIONS>
7  6  5
8  13  6
9  14  6

$$$$
