310935407
  -OEChem-07211613022D

 18 19  0     0  0  0  0  0  0999 V2000
    1.4371   -3.6727    0.0000 O   0  0  0  0  0  0  0  0  0  0  0  0
    0.7186   -1.6234    0.0000 N   0  0  0  0  0  0  0  0  0  0  0  0
    1.4371   -5.3227    0.0000 N   0  0  0  0  0  0  0  0  0  0  0  0
    1.4371   -2.8476    0.0000 C   0  0  0  0  0  0  0  0  0  0  0  0
    2.1557   -4.0985    0.0000 C   0  0  0  0  0  0  0  0  0  0  0  0
    0.7186   -2.4485    0.0000 C   0  0  0  0  0  0  0  0  0  0  0  0
    2.1557   -4.8969    0.0000 C   0  0  0  0  0  0  0  0  0  0  0  0
    2.8743   -3.6727    0.0000 C   0  0  0  0  0  0  0  0  0  0  0  0
    2.8743   -5.3227    0.0000 C   0  0  0  0  0  0  0  0  0  0  0  0
    2.1291   -2.4485    0.0000 C   0  0  0  0  0  0  0  0  0  0  0  0
    0.7186   -3.2735    0.0000 C   0  0  0  0  0  0  0  0  0  0  0  0
    0.0000   -1.2242    0.0000 C   0  0  0  0  0  0  0  0  0  0  0  0
    1.4105   -1.2242    0.0000 C   0  0  0  0  0  0  0  0  0  0  0  0
    3.5929   -4.0985    0.0000 C   0  0  0  0  0  0  0  0  0  0  0  0
    3.5929   -4.8969    0.0000 C   0  0  0  0  0  0  0  0  0  0  0  0
    0.0000   -0.4258    0.0000 C   0  0  0  0  0  0  0  0  0  0  0  0
    1.4105   -0.3992    0.0000 C   0  0  0  0  0  0  0  0  0  0  0  0
    0.7186    0.0000    0.0000 C   0  0  0  0  0  0  0  0  0  0  0  0
  1  4  1  0  0  0  0
  1  5  1  0  0  0  0
  2  6  1  0  0  0  0
  2 12  1  0  0  0  0
  2 13  1  0  0  0  0
  3  7  1  0  0  0  0
  4  6  1  0  0  0  0
  4 10  1  0  0  0  0
  4 11  1  0  0  0  0
  5  7  2  0  0  0  0
  5  8  1  0  0  0  0
  7  9  1  0  0  0  0
  8 14  2  0  0  0  0
  9 15  2  0  0  0  0
 12 16  1  0  0  0  0
 13 17  1  0  0  0  0
 14 15  1  0  0  0  0
 16 18  1  0  0  0  0
 17 18  1  0  0  0  0
M  END
> <PUBCHEM_COMPOUND_ID_TYPE>
0

> <PUBCHEM_TOTAL_CHARGE>
0

> <PUBCHEM_SUBSTANCE_ID>
310935407

> <PUBCHEM_SUBSTANCE_VERSION>
1

> <PUBCHEM_EXT_DATASOURCE_NAME>
4488

> <PUBCHEM_EXT_DATASOURCE_REGID>
SCHEMBL16112948

> <PUBCHEM_SUBSTANCE_COMMENT>
InChI=1S/C15H24N2O/c1-15(2,12-17-10-6-3-7-11-17)18-14-9-5-4-8-13(14)16/h4-5,8-9H,3,6-7,10-12,16H2,1-2H3
InChIKey=MSEXXLNDBOODKC-UHFFFAOYSA-N

> <PUBCHEM_SUBSTANCE_SYNONYM>
SCHEMBL16112948

> <PUBCHEM_XREF_EXT_ID>
SCHEMBL16112948

> <PUBCHEM_EXT_DATASOURCE_URL>
https://www.surechembl.org/

> <PUBCHEM_EXT_SUBSTANCE_URL>
https://www.surechembl.org/chemical/SCHEMBL16112948

> <PUBCHEM_CID_ASSOCIATIONS>
117603452  1

> <PUBCHEM_COORDINATE_TYPE>
1
3

$$$$
