310945731
  -OEChem-07211613022D

 34 38  0     1  0  0  0  0  0999 V2000
    0.6930    2.6502    0.0000 F   0  0  0  0  0  0  0  0  0  0  0  0
    1.0488    1.6014    0.0000 F   0  0  0  0  0  0  0  0  0  0  0  0
   -0.0187    1.2642    0.0000 F   0  0  0  0  0  0  0  0  0  0  0  0
   -1.8917   -2.6128    0.0000 O   0  0  0  0  0  0  0  0  0  0  0  0
    2.3973   -0.3465    0.0000 O   0  0  0  0  0  0  0  0  0  0  0  0
   -1.1612   -1.3953    0.0000 N   0  0  0  0  0  0  0  0  0  0  0  0
    0.2997   -2.2944    0.0000 N   0  0  0  0  0  0  0  0  0  0  0  0
   -1.1612    1.1331    0.0000 N   0  0  0  0  0  0  0  0  0  0  0  0
   -0.3746   -3.4182    0.0000 N   0  0  0  0  0  0  0  0  0  0  0  0
    0.4308   -3.6054    0.0000 N   0  0  0  0  0  0  0  0  0  0  0  0
    1.0114    0.0093    0.0000 N   0  0  0  0  0  0  0  0  0  0  0  0
   -0.7679   -0.1405    0.0000 C   0  0  3  0  0  0  0  0  0  0  0  0
   -1.5920   -0.1030    0.0000 C   0  0  3  0  0  0  0  0  0  0  0  0
   -0.4308   -2.6128    0.0000 C   0  0  0  0  0  0  0  0  0  0  0  0
   -1.1612   -2.2007    0.0000 C   0  0  0  0  0  0  0  0  0  0  0  0
   -1.1237    1.9573    0.0000 C   0  0  0  0  0  0  0  0  0  0  0  0
   -0.5057   -0.8896    0.0000 C   0  0  0  0  0  0  0  0  0  0  0  0
   -1.8355   -0.8896    0.0000 C   0  0  0  0  0  0  0  0  0  0  0  0
    0.8428   -2.9312    0.0000 C   0  0  0  0  0  0  0  0  0  0  0  0
   -1.8355    0.6649    0.0000 C   0  0  0  0  0  0  0  0  0  0  0  0
   -0.4870    0.6649    0.0000 C   0  0  0  0  0  0  0  0  0  0  0  0
   -0.4120    2.3505    0.0000 C   0  0  0  0  0  0  0  0  0  0  0  0
    0.5620   -1.5264    0.0000 C   0  0  0  0  0  0  0  0  0  0  0  0
    1.3860   -1.3204    0.0000 C   0  0  0  0  0  0  0  0  0  0  0  0
    0.3184    1.9573    0.0000 C   0  0  0  0  0  0  0  0  0  0  0  0
    1.6482   -2.7439    0.0000 C   0  0  0  0  0  0  0  0  0  0  0  0
   -1.8355    2.3692    0.0000 C   0  0  0  0  0  0  0  0  0  0  0  0
    1.9291   -1.9759    0.0000 C   0  0  0  0  0  0  0  0  0  0  0  0
   -0.4120    3.1934    0.0000 C   0  0  0  0  0  0  0  0  0  0  0  0
    1.5920   -0.5525    0.0000 C   0  0  0  0  0  0  0  0  0  0  0  0
   -1.8355    3.2121    0.0000 C   0  0  0  0  0  0  0  0  0  0  0  0
   -1.1050    3.6054    0.0000 C   0  0  0  0  0  0  0  0  0  0  0  0
    0.3934    0.6088    0.0000 C   0  0  0  0  0  0  0  0  0  0  0  0
    1.4609    0.7586    0.0000 C   0  0  0  0  0  0  0  0  0  0  0  0
  1 25  1  0  0  0  0
  2 25  1  0  0  0  0
  3 25  1  0  0  0  0
  4 15  2  0  0  0  0
  5 30  2  0  0  0  0
  6 15  1  0  0  0  0
  6 17  1  0  0  0  0
  6 18  1  0  0  0  0
  7 14  1  0  0  0  0
  7 19  1  0  0  0  0
  7 23  1  0  0  0  0
  8 16  1  0  0  0  0
  8 20  1  0  0  0  0
  8 21  1  0  0  0  0
  9 10  1  0  0  0  0
  9 14  2  0  0  0  0
 10 19  2  0  0  0  0
 11 30  1  0  0  0  0
 11 33  1  0  0  0  0
 11 34  1  0  0  0  0
 12 13  1  0  0  0  0
 12 17  1  1  0  0  0
 12 21  1  0  0  0  0
 13 18  1  1  0  0  0
 13 20  1  0  0  0  0
 14 15  1  0  0  0  0
 16 22  2  0  0  0  0
 16 27  1  0  0  0  0
 19 26  1  0  0  0  0
 22 25  1  0  0  0  0
 22 29  1  0  0  0  0
 23 24  2  0  0  0  0
 24 28  1  0  0  0  0
 24 30  1  0  0  0  0
 26 28  2  0  0  0  0
 27 31  2  0  0  0  0
 29 32  2  0  0  0  0
 31 32  1  0  0  0  0
M  END
> <PUBCHEM_COMPOUND_ID_TYPE>
0

> <PUBCHEM_TOTAL_CHARGE>
0

> <PUBCHEM_SUBSTANCE_ID>
310945731

> <PUBCHEM_SUBSTANCE_VERSION>
1

> <PUBCHEM_EXT_DATASOURCE_NAME>
4488

> <PUBCHEM_EXT_DATASOURCE_REGID>
SCHEMBL16123835

> <PUBCHEM_SUBSTANCE_COMMENT>
InChI=1S/C23H23F3N6O2/c1-29(2)21(33)14-7-8-19-27-28-20(32(19)13-14)22(34)31-11-15-9-30(10-16(15)12-31)18-6-4-3-5-17(18)23(24,25)26/h3-8,13,15-16H,9-12H2,1-2H3/t15-,16+
InChIKey=PLDWKGVWQXTMOU-IYBDPMFKSA-N

> <PUBCHEM_SUBSTANCE_SYNONYM>
SCHEMBL16123835

> <PUBCHEM_XREF_EXT_ID>
SCHEMBL16123835

> <PUBCHEM_EXT_DATASOURCE_URL>
https://www.surechembl.org/

> <PUBCHEM_EXT_SUBSTANCE_URL>
https://www.surechembl.org/chemical/SCHEMBL16123835

> <PUBCHEM_CID_ASSOCIATIONS>
86296631  1

> <PUBCHEM_COORDINATE_TYPE>
1
3

> <PUBCHEM_BONDANNOTATIONS>
12  17  5
13  18  5

$$$$
