310939932
  -OEChem-07211613022D

 29 32  0     0  0  0  0  0  0999 V2000
    1.0164    4.7084    0.0000 Cl  0  0  0  0  0  0  0  0  0  0  0  0
   -1.8414    4.7084    0.0000 O   0  0  0  0  0  0  0  0  0  0  0  0
   -0.4125   -3.8834    0.0000 O   0  0  0  0  0  0  0  0  0  0  0  0
   -0.4125    2.2334    0.0000 O   0  0  0  0  0  0  0  0  0  0  0  0
   -1.1270   -0.6541    0.0000 N   0  0  0  0  0  0  0  0  0  0  0  0
   -1.1270   -2.6459    0.0000 N   0  0  0  0  0  0  0  0  0  0  0  0
   -1.1270    0.9959    0.0000 N   0  0  0  0  0  0  0  0  0  0  0  0
   -1.8414    3.0584    0.0000 N   0  0  0  0  0  0  0  0  0  0  0  0
   -1.1270   -1.4791    0.0000 C   0  0  0  0  0  0  0  0  0  0  0  0
    0.3020    3.4709    0.0000 C   0  0  0  0  0  0  0  0  0  0  0  0
    1.0164    3.0584    0.0000 C   0  0  0  0  0  0  0  0  0  0  0  0
   -1.7103   -2.0625    0.0000 C   0  0  0  0  0  0  0  0  0  0  0  0
   -0.5436   -2.0625    0.0000 C   0  0  0  0  0  0  0  0  0  0  0  0
   -1.1270    3.4709    0.0000 C   0  0  0  0  0  0  0  0  0  0  0  0
    0.3020    4.2959    0.0000 C   0  0  0  0  0  0  0  0  0  0  0  0
   -0.4125    3.0584    0.0000 C   0  0  0  0  0  0  0  0  0  0  0  0
   -1.1270    4.2959    0.0000 C   0  0  0  0  0  0  0  0  0  0  0  0
    1.4289    2.3439    0.0000 C   0  0  0  0  0  0  0  0  0  0  0  0
    1.8414    3.0584    0.0000 C   0  0  0  0  0  0  0  0  0  0  0  0
   -1.1270   -3.4709    0.0000 C   0  0  0  0  0  0  0  0  0  0  0  0
   -1.8414   -0.2416    0.0000 C   0  0  0  0  0  0  0  0  0  0  0  0
   -0.4125   -0.2416    0.0000 C   0  0  0  0  0  0  0  0  0  0  0  0
   -0.4125    4.7084    0.0000 C   0  0  0  0  0  0  0  0  0  0  0  0
   -1.1270    1.8209    0.0000 C   0  0  0  0  0  0  0  0  0  0  0  0
   -1.8414    0.5834    0.0000 C   0  0  0  0  0  0  0  0  0  0  0  0
   -0.4125    0.5834    0.0000 C   0  0  0  0  0  0  0  0  0  0  0  0
   -1.8414    2.2334    0.0000 C   0  0  0  0  0  0  0  0  0  0  0  0
   -1.8414   -3.8834    0.0000 C   0  0  0  0  0  0  0  0  0  0  0  0
   -1.8414   -4.7084    0.0000 C   0  0  0  0  0  0  0  0  0  0  0  0
  1 15  1  0  0  0  0
  2 17  1  0  0  0  0
  3 20  2  0  0  0  0
  4 24  2  0  0  0  0
  5  9  1  0  0  0  0
  5 21  1  0  0  0  0
  5 22  1  0  0  0  0
  6 12  1  0  0  0  0
  6 13  1  0  0  0  0
  6 20  1  0  0  0  0
  7 24  1  0  0  0  0
  7 25  1  0  0  0  0
  7 26  1  0  0  0  0
  8 14  1  0  0  0  0
  8 27  1  0  0  0  0
  9 12  1  0  0  0  0
  9 13  1  0  0  0  0
 10 11  1  0  0  0  0
 10 15  2  0  0  0  0
 10 16  1  0  0  0  0
 11 18  1  0  0  0  0
 11 19  1  0  0  0  0
 14 16  2  0  0  0  0
 14 17  1  0  0  0  0
 15 23  1  0  0  0  0
 17 23  2  0  0  0  0
 18 19  1  0  0  0  0
 20 28  1  0  0  0  0
 21 25  1  0  0  0  0
 22 26  1  0  0  0  0
 24 27  1  0  0  0  0
 28 29  2  0  0  0  0
M  END
> <PUBCHEM_COMPOUND_ID_TYPE>
0

> <PUBCHEM_TOTAL_CHARGE>
0

> <PUBCHEM_SUBSTANCE_ID>
310939932

> <PUBCHEM_SUBSTANCE_VERSION>
1

> <PUBCHEM_EXT_DATASOURCE_NAME>
4488

> <PUBCHEM_EXT_DATASOURCE_REGID>
SCHEMBL16117862

> <PUBCHEM_SUBSTANCE_COMMENT>
InChI=1S/C21H27ClN4O3/c1-2-20(28)26-12-15(13-26)24-5-7-25(8-6-24)21(29)11-23-18-9-16(14-3-4-14)17(22)10-19(18)27/h2,9-10,14-15,23,27H,1,3-8,11-13H2
InChIKey=LTHUJAPYGTUVMD-UHFFFAOYSA-N

> <PUBCHEM_SUBSTANCE_SYNONYM>
SCHEMBL16117862

> <PUBCHEM_XREF_EXT_ID>
SCHEMBL16117862

> <PUBCHEM_EXT_DATASOURCE_URL>
https://www.surechembl.org/

> <PUBCHEM_EXT_SUBSTANCE_URL>
https://www.surechembl.org/chemical/SCHEMBL16117862

> <PUBCHEM_CID_ASSOCIATIONS>
86279948  1

> <PUBCHEM_COORDINATE_TYPE>
1
3

$$$$
