310939643
  -OEChem-07211613022D

 61 73  0     0  0  0  0  0  0999 V2000
    3.4184   13.8530    0.0000 N   0  0  0  0  0  0  0  0  0  0  0  0
    3.4184   12.5181    0.0000 N   0  0  0  0  0  0  0  0  0  0  0  0
   -2.7741   12.4131    0.0000 C   0  0  0  0  0  0  0  0  0  0  0  0
   -2.7741   11.5881    0.0000 C   0  0  0  0  0  0  0  0  0  0  0  0
   -1.5045   12.0007    0.0000 C   0  0  0  0  0  0  0  0  0  0  0  0
   -1.9895   12.6680    0.0000 C   0  0  0  0  0  0  0  0  0  0  0  0
   -1.9895   11.3332    0.0000 C   0  0  0  0  0  0  0  0  0  0  0  0
   -3.4886   12.8257    0.0000 C   0  0  0  0  0  0  0  0  0  0  0  0
   -3.4886   11.1755    0.0000 C   0  0  0  0  0  0  0  0  0  0  0  0
   -4.2030   12.4131    0.0000 C   0  0  0  0  0  0  0  0  0  0  0  0
   -4.2030   11.5881    0.0000 C   0  0  0  0  0  0  0  0  0  0  0  0
   -0.6840   12.0869    0.0000 C   0  0  0  0  0  0  0  0  0  0  0  0
   -3.4886   13.6506    0.0000 C   0  0  0  0  0  0  0  0  0  0  0  0
   -3.4886   10.3506    0.0000 C   0  0  0  0  0  0  0  0  0  0  0  0
   -0.3484   12.8405    0.0000 C   0  0  0  0  0  0  0  0  0  0  0  0
   -1.6539   13.4217    0.0000 C   0  0  0  0  0  0  0  0  0  0  0  0
   -1.3552   10.5795    0.0000 C   0  0  0  0  0  0  0  0  0  0  0  0
   -0.8334   13.5080    0.0000 C   0  0  0  0  0  0  0  0  0  0  0  0
   -0.1992   11.4194    0.0000 C   0  0  0  0  0  0  0  0  0  0  0  0
   -4.2030   14.0632    0.0000 C   0  0  0  0  0  0  0  0  0  0  0  0
   -4.2030    9.9382    0.0000 C   0  0  0  0  0  0  0  0  0  0  0  0
   -4.9175   12.8257    0.0000 C   0  0  0  0  0  0  0  0  0  0  0  0
   -4.9175   11.1755    0.0000 C   0  0  0  0  0  0  0  0  0  0  0  0
   -0.5346   10.6657    0.0000 C   0  0  0  0  0  0  0  0  0  0  0  0
    0.4721   12.9268    0.0000 C   0  0  0  0  0  0  0  0  0  0  0  0
   -2.7741   14.0632    0.0000 C   0  0  0  0  0  0  0  0  0  0  0  0
   -2.7741    9.9382    0.0000 C   0  0  0  0  0  0  0  0  0  0  0  0
   -4.2030   14.8882    0.0000 C   0  0  0  0  0  0  0  0  0  0  0  0
   -4.2030    9.1130    0.0000 C   0  0  0  0  0  0  0  0  0  0  0  0
   -5.6320   12.4131    0.0000 C   0  0  0  0  0  0  0  0  0  0  0  0
   -5.6320   11.5881    0.0000 C   0  0  0  0  0  0  0  0  0  0  0  0
   -4.9175   13.6506    0.0000 C   0  0  0  0  0  0  0  0  0  0  0  0
   -4.9175   10.3506    0.0000 C   0  0  0  0  0  0  0  0  0  0  0  0
    0.9570   12.2594    0.0000 C   0  0  0  0  0  0  0  0  0  0  0  0
    0.8076   13.6805    0.0000 C   0  0  0  0  0  0  0  0  0  0  0  0
   -2.7741   14.8882    0.0000 C   0  0  0  0  0  0  0  0  0  0  0  0
   -2.7741    9.1130    0.0000 C   0  0  0  0  0  0  0  0  0  0  0  0
   -3.4886   15.3007    0.0000 C   0  0  0  0  0  0  0  0  0  0  0  0
   -3.4886    8.7006    0.0000 C   0  0  0  0  0  0  0  0  0  0  0  0
    2.1130   13.0993    0.0000 C   0  0  0  0  0  0  0  0  0  0  0  0
    2.9335   13.1855    0.0000 C   0  0  0  0  0  0  0  0  0  0  0  0
   -4.9175   15.3007    0.0000 C   0  0  0  0  0  0  0  0  0  0  0  0
   -4.9175    8.7006    0.0000 C   0  0  0  0  0  0  0  0  0  0  0  0
    1.7774   12.3456    0.0000 C   0  0  0  0  0  0  0  0  0  0  0  0
    1.6281   13.7667    0.0000 C   0  0  0  0  0  0  0  0  0  0  0  0
   -5.6320   14.0632    0.0000 C   0  0  0  0  0  0  0  0  0  0  0  0
   -5.6320    9.9382    0.0000 C   0  0  0  0  0  0  0  0  0  0  0  0
    4.2030   13.5981    0.0000 C   0  0  0  0  0  0  0  0  0  0  0  0
    4.2030   12.7730    0.0000 C   0  0  0  0  0  0  0  0  0  0  0  0
   -5.6320   14.8882    0.0000 C   0  0  0  0  0  0  0  0  0  0  0  0
   -5.6320    9.1130    0.0000 C   0  0  0  0  0  0  0  0  0  0  0  0
    3.0059   14.5674    0.0000 C   0  0  0  0  0  0  0  0  0  0  0  0
    4.9175   14.0104    0.0000 C   0  0  0  0  0  0  0  0  0  0  0  0
    4.9175   12.3605    0.0000 C   0  0  0  0  0  0  0  0  0  0  0  0
    3.4184   15.2819    0.0000 C   0  0  0  0  0  0  0  0  0  0  0  0
    2.1809   14.5674    0.0000 C   0  0  0  0  0  0  0  0  0  0  0  0
    5.6320   13.5981    0.0000 C   0  0  0  0  0  0  0  0  0  0  0  0
    5.6320   12.7730    0.0000 C   0  0  0  0  0  0  0  0  0  0  0  0
    3.0059   15.9963    0.0000 C   0  0  0  0  0  0  0  0  0  0  0  0
    1.7684   15.2819    0.0000 C   0  0  0  0  0  0  0  0  0  0  0  0
    2.1809   15.9963    0.0000 C   0  0  0  0  0  0  0  0  0  0  0  0
  1 41  1  0  0  0  0
  1 48  1  0  0  0  0
  1 52  1  0  0  0  0
  2 41  2  0  0  0  0
  2 49  1  0  0  0  0
  3  4  1  0  0  0  0
  3  6  1  0  0  0  0
  3  8  2  0  0  0  0
  4  7  1  0  0  0  0
  4  9  2  0  0  0  0
  5  6  1  0  0  0  0
  5  7  2  0  0  0  0
  5 12  1  0  0  0  0
  6 16  2  0  0  0  0
  7 17  1  0  0  0  0
  8 10  1  0  0  0  0
  8 13  1  0  0  0  0
  9 11  1  0  0  0  0
  9 14  1  0  0  0  0
 10 11  2  0  0  0  0
 10 22  1  0  0  0  0
 11 23  1  0  0  0  0
 12 15  1  0  0  0  0
 12 19  2  0  0  0  0
 13 20  1  0  0  0  0
 13 26  2  0  0  0  0
 14 21  2  0  0  0  0
 14 27  1  0  0  0  0
 15 18  2  0  0  0  0
 15 25  1  0  0  0  0
 16 18  1  0  0  0  0
 17 24  2  0  0  0  0
 19 24  1  0  0  0  0
 20 28  2  0  0  0  0
 20 32  1  0  0  0  0
 21 29  1  0  0  0  0
 21 33  1  0  0  0  0
 22 30  2  0  0  0  0
 23 31  2  0  0  0  0
 25 34  2  0  0  0  0
 25 35  1  0  0  0  0
 26 36  1  0  0  0  0
 27 37  2  0  0  0  0
 28 38  1  0  0  0  0
 28 42  1  0  0  0  0
 29 39  2  0  0  0  0
 29 43  1  0  0  0  0
 30 31  1  0  0  0  0
 32 46  2  0  0  0  0
 33 47  2  0  0  0  0
 34 44  1  0  0  0  0
 35 45  2  0  0  0  0
 36 38  2  0  0  0  0
 37 39  1  0  0  0  0
 40 41  1  0  0  0  0
 40 44  2  0  0  0  0
 40 45  1  0  0  0  0
 42 50  2  0  0  0  0
 43 51  2  0  0  0  0
 46 50  1  0  0  0  0
 47 51  1  0  0  0  0
 48 49  2  0  0  0  0
 48 53  1  0  0  0  0
 49 54  1  0  0  0  0
 52 55  2  0  0  0  0
 52 56  1  0  0  0  0
 53 57  2  0  0  0  0
 54 58  2  0  0  0  0
 55 59  1  0  0  0  0
 56 60  2  0  0  0  0
 57 58  1  0  0  0  0
 59 61  2  0  0  0  0
 60 61  1  0  0  0  0
M  END
> <PUBCHEM_COMPOUND_ID_TYPE>
0

> <PUBCHEM_TOTAL_CHARGE>
0

> <PUBCHEM_SUBSTANCE_ID>
310939643

> <PUBCHEM_SUBSTANCE_VERSION>
1

> <PUBCHEM_EXT_DATASOURCE_NAME>
4488

> <PUBCHEM_EXT_DATASOURCE_REGID>
SCHEMBL16117573

> <PUBCHEM_SUBSTANCE_COMMENT>
InChI=1S/C59H36N2/c1-2-19-41(20-3-1)61-53-30-11-10-29-52(53)60-59(61)40-33-31-39(32-34-40)44-35-36-51-54-45(44)27-14-28-50(54)57-55(46-25-12-17-37-15-4-6-21-42(37)46)48-23-8-9-24-49(48)56(58(51)57)47-26-13-18-38-16-5-7-22-43(38)47/h1-36H
InChIKey=LZSDJYWUFFQQPF-UHFFFAOYSA-N

> <PUBCHEM_SUBSTANCE_SYNONYM>
SCHEMBL16117573

> <PUBCHEM_XREF_EXT_ID>
SCHEMBL16117573

> <PUBCHEM_EXT_DATASOURCE_URL>
https://www.surechembl.org/

> <PUBCHEM_EXT_SUBSTANCE_URL>
https://www.surechembl.org/chemical/SCHEMBL16117573

> <PUBCHEM_CID_ASSOCIATIONS>
117606881  1

> <PUBCHEM_COORDINATE_TYPE>
1
3

$$$$
