310943550
  -OEChem-07211613022D

 35 38  0     0  0  0  0  0  0999 V2000
    4.6565    1.6659    0.0000 F   0  0  0  0  0  0  0  0  0  0  0  0
    5.3704    1.2534    0.0000 F   0  0  0  0  0  0  0  0  0  0  0  0
    5.3704    0.4284    0.0000 F   0  0  0  0  0  0  0  0  0  0  0  0
    1.8007    1.6659    0.0000 O   0  0  0  0  0  0  0  0  0  0  0  0
   -5.3704    1.6659    0.0000 O   0  0  0  0  0  0  0  0  0  0  0  0
   -1.7849   -0.3966    0.0000 N   0  0  0  0  0  0  0  0  0  0  0  0
   -3.2286   -0.3966    0.0000 N   0  0  0  0  0  0  0  0  0  0  0  0
   -3.9426    0.8409    0.0000 N   0  0  0  0  0  0  0  0  0  0  0  0
    1.0709    0.4284    0.0000 N   0  0  0  0  0  0  0  0  0  0  0  0
   -2.4988   -1.6500    0.0000 N   0  0  0  0  0  0  0  0  0  0  0  0
    3.9426   -0.3966    0.0000 N   0  0  0  0  0  0  0  0  0  0  0  0
   -1.7849    0.4284    0.0000 C   0  0  0  0  0  0  0  0  0  0  0  0
   -1.0709    0.8409    0.0000 C   0  0  0  0  0  0  0  0  0  0  0  0
   -3.2127    0.4284    0.0000 C   0  0  0  0  0  0  0  0  0  0  0  0
   -2.5147    0.8409    0.0000 C   0  0  0  0  0  0  0  0  0  0  0  0
   -2.4988   -0.8091    0.0000 C   0  0  0  0  0  0  0  0  0  0  0  0
   -1.0709    1.6659    0.0000 C   0  0  0  0  0  0  0  0  0  0  0  0
   -0.3570    0.4284    0.0000 C   0  0  0  0  0  0  0  0  0  0  0  0
    0.3570    0.8567    0.0000 C   0  0  0  0  0  0  0  0  0  0  0  0
    2.5147    0.4284    0.0000 C   0  0  0  0  0  0  0  0  0  0  0  0
    3.9426    0.4443    0.0000 C   0  0  0  0  0  0  0  0  0  0  0  0
    1.7849    0.8250    0.0000 C   0  0  0  0  0  0  0  0  0  0  0  0
   -0.3570    2.0625    0.0000 C   0  0  0  0  0  0  0  0  0  0  0  0
    4.6724    0.8567    0.0000 C   0  0  0  0  0  0  0  0  0  0  0  0
    0.3570    1.6659    0.0000 C   0  0  0  0  0  0  0  0  0  0  0  0
    3.2286    0.8409    0.0000 C   0  0  0  0  0  0  0  0  0  0  0  0
   -3.9426    1.6659    0.0000 C   0  0  0  0  0  0  0  0  0  0  0  0
   -4.6406    0.4284    0.0000 C   0  0  0  0  0  0  0  0  0  0  0  0
    2.5147   -0.3966    0.0000 C   0  0  0  0  0  0  0  0  0  0  0  0
    3.2444   -0.8091    0.0000 C   0  0  0  0  0  0  0  0  0  0  0  0
   -1.8007    2.0784    0.0000 C   0  0  0  0  0  0  0  0  0  0  0  0
   -4.6724    2.0784    0.0000 C   0  0  0  0  0  0  0  0  0  0  0  0
   -5.3704    0.8409    0.0000 C   0  0  0  0  0  0  0  0  0  0  0  0
   -3.2286   -2.0466    0.0000 C   0  0  0  0  0  0  0  0  0  0  0  0
   -1.7690   -2.0784    0.0000 C   0  0  0  0  0  0  0  0  0  0  0  0
  1 24  1  0  0  0  0
  2 24  1  0  0  0  0
  3 24  1  0  0  0  0
  4 22  2  0  0  0  0
  5 32  1  0  0  0  0
  5 33  1  0  0  0  0
  6 12  1  0  0  0  0
  6 16  2  0  0  0  0
  7 14  2  0  0  0  0
  7 16  1  0  0  0  0
  8 14  1  0  0  0  0
  8 27  1  0  0  0  0
  8 28  1  0  0  0  0
  9 19  1  0  0  0  0
  9 22  1  0  0  0  0
 10 16  1  0  0  0  0
 10 34  1  0  0  0  0
 10 35  1  0  0  0  0
 11 21  1  0  0  0  0
 11 30  2  0  0  0  0
 12 13  1  0  0  0  0
 12 15  2  0  0  0  0
 13 17  1  0  0  0  0
 13 18  2  0  0  0  0
 14 15  1  0  0  0  0
 17 23  2  0  0  0  0
 17 31  1  0  0  0  0
 18 19  1  0  0  0  0
 19 25  2  0  0  0  0
 20 22  1  0  0  0  0
 20 26  1  0  0  0  0
 20 29  2  0  0  0  0
 21 24  1  0  0  0  0
 21 26  2  0  0  0  0
 23 25  1  0  0  0  0
 27 32  1  0  0  0  0
 28 33  1  0  0  0  0
 29 30  1  0  0  0  0
M  END
> <PUBCHEM_COMPOUND_ID_TYPE>
0

> <PUBCHEM_TOTAL_CHARGE>
0

> <PUBCHEM_SUBSTANCE_ID>
310943550

> <PUBCHEM_SUBSTANCE_VERSION>
1

> <PUBCHEM_EXT_DATASOURCE_NAME>
4488

> <PUBCHEM_EXT_DATASOURCE_REGID>
SCHEMBL16121617

> <PUBCHEM_SUBSTANCE_COMMENT>
InChI=1S/C24H25F3N6O2/c1-15-4-5-17(29-22(34)16-6-7-28-20(12-16)24(25,26)27)13-18(15)19-14-21(31-23(30-19)32(2)3)33-8-10-35-11-9-33/h4-7,12-14H,8-11H2,1-3H3,(H,29,34)
InChIKey=ZDTLGOLVGAUYFE-UHFFFAOYSA-N

> <PUBCHEM_SUBSTANCE_SYNONYM>
SCHEMBL16121617

> <PUBCHEM_XREF_EXT_ID>
SCHEMBL16121617

> <PUBCHEM_EXT_DATASOURCE_URL>
https://www.surechembl.org/

> <PUBCHEM_EXT_SUBSTANCE_URL>
https://www.surechembl.org/chemical/SCHEMBL16121617

> <PUBCHEM_CID_ASSOCIATIONS>
117609961  1

> <PUBCHEM_COORDINATE_TYPE>
1
3

$$$$
