310941840
  -OEChem-07211613022D

 17 18  0     0  0  0  0  0  0999 V2000
    2.4943   -0.3821    0.0000 O   0  0  0  0  0  0  0  0  0  0  0  0
   -2.0898    1.8202    0.0000 O   0  0  0  0  0  0  0  0  0  0  0  0
   -1.2809    0.3370    0.0000 N   0  0  0  0  0  0  0  0  0  0  0  0
    2.4943    1.0561    0.0000 N   0  0  0  0  0  0  0  0  0  0  0  0
    0.0225   -0.3821    0.0000 C   0  0  0  0  0  0  0  0  0  0  0  0
    1.2359    0.3370    0.0000 C   0  0  0  0  0  0  0  0  0  0  0  0
    1.6404   -0.3370    0.0000 C   0  0  0  0  0  0  0  0  0  0  0  0
    1.2809   -1.1011    0.0000 C   0  0  0  0  0  0  0  0  0  0  0  0
    0.4270    0.2921    0.0000 C   0  0  0  0  0  0  0  0  0  0  0  0
    0.4270   -1.0561    0.0000 C   0  0  0  0  0  0  0  0  0  0  0  0
   -0.8314   -0.3370    0.0000 C   0  0  0  0  0  0  0  0  0  0  0  0
    1.6854    1.0561    0.0000 C   0  0  0  0  0  0  0  0  0  0  0  0
   -2.0898    0.3821    0.0000 C   0  0  0  0  0  0  0  0  0  0  0  0
   -0.8314    1.1011    0.0000 C   0  0  0  0  0  0  0  0  0  0  0  0
    1.6854   -1.8202    0.0000 C   0  0  0  0  0  0  0  0  0  0  0  0
   -2.4943    1.1011    0.0000 C   0  0  0  0  0  0  0  0  0  0  0  0
   -1.1910    1.7303    0.0000 C   0  0  0  0  0  0  0  0  0  0  0  0
  1  7  1  0  0  0  0
  2 16  1  0  0  0  0
  2 17  1  0  0  0  0
  3 11  1  0  0  0  0
  3 13  1  0  0  0  0
  3 14  1  0  0  0  0
  4 12  2  3  0  0  0
  5  9  1  0  0  0  0
  5 10  2  0  0  0  0
  5 11  1  0  0  0  0
  6  7  1  0  0  0  0
  6  9  2  0  0  0  0
  6 12  1  0  0  0  0
  7  8  2  0  0  0  0
  8 10  1  0  0  0  0
  8 15  1  0  0  0  0
 13 16  1  0  0  0  0
 14 17  1  0  0  0  0
M  END
> <PUBCHEM_COMPOUND_ID_TYPE>
0

> <PUBCHEM_TOTAL_CHARGE>
0

> <PUBCHEM_SUBSTANCE_ID>
310941840

> <PUBCHEM_SUBSTANCE_VERSION>
1

> <PUBCHEM_EXT_DATASOURCE_NAME>
4488

> <PUBCHEM_EXT_DATASOURCE_REGID>
SCHEMBL16119872

> <PUBCHEM_SUBSTANCE_COMMENT>
InChI=1S/C13H18N2O2/c1-10-6-11(7-12(8-14)13(10)16)9-15-2-4-17-5-3-15/h6-8,14,16H,2-5,9H2,1H3
InChIKey=OPGMBEWPTWJFJX-UHFFFAOYSA-N

> <PUBCHEM_SUBSTANCE_SYNONYM>
SCHEMBL16119872

> <PUBCHEM_XREF_EXT_ID>
SCHEMBL16119872

> <PUBCHEM_EXT_DATASOURCE_URL>
https://www.surechembl.org/

> <PUBCHEM_EXT_SUBSTANCE_URL>
https://www.surechembl.org/chemical/SCHEMBL16119872

> <PUBCHEM_CID_ASSOCIATIONS>
117608582  1

> <PUBCHEM_COORDINATE_TYPE>
1
3

$$$$
