310936787
  -OEChem-07211613022D

 42 45  0     1  0  0  0  0  0999 V2000
    1.4289    6.3536    0.0000 F   0  0  0  0  0  0  0  0  0  0  0  0
    1.1270    5.2266    0.0000 F   0  0  0  0  0  0  0  0  0  0  0  0
    0.3020    6.6555    0.0000 F   0  0  0  0  0  0  0  0  0  0  0  0
   -2.8579    6.3536    0.0000 F   0  0  0  0  0  0  0  0  0  0  0  0
   -2.5559    5.2266    0.0000 F   0  0  0  0  0  0  0  0  0  0  0  0
   -1.7309    6.6555    0.0000 F   0  0  0  0  0  0  0  0  0  0  0  0
    1.5207   -0.2370    0.0000 F   0  0  0  0  0  0  0  0  0  0  0  0
    0.6139   -0.9712    0.0000 F   0  0  0  0  0  0  0  0  0  0  0  0
    0.7864    0.6697    0.0000 F   0  0  0  0  0  0  0  0  0  0  0  0
   -0.0470    2.9812    0.0000 O   0  0  0  0  0  0  0  0  0  0  0  0
    0.1830    1.5291    0.0000 O   0  0  0  0  0  0  0  0  0  0  0  0
   -2.4324    1.6153    0.0000 O   0  0  0  0  0  0  0  0  0  0  0  0
   -4.0365   -1.8081    0.0000 O   0  0  0  0  0  0  0  0  0  0  0  0
   -1.1270    2.1965    0.0000 N   0  0  0  0  0  0  0  0  0  0  0  0
   -2.5817    0.1942    0.0000 N   0  0  0  0  0  0  0  0  0  0  0  0
   -1.4257   -0.6457    0.0000 N   0  0  0  0  0  0  0  0  0  0  0  0
   -0.7145    3.4661    0.0000 C   0  0  3  0  0  0  0  0  0  0  0  0
   -1.3819    2.9812    0.0000 C   0  0  3  0  0  0  0  0  0  0  0  0
   -0.7145    4.2911    0.0000 C   0  0  0  0  0  0  0  0  0  0  0  0
   -0.3020    2.1965    0.0000 C   0  0  0  0  0  0  0  0  0  0  0  0
   -1.2763    0.7754    0.0000 C   0  0  0  0  0  0  0  0  0  0  0  0
   -1.7613    0.1080    0.0000 C   0  0  0  0  0  0  0  0  0  0  0  0
   -1.6119    1.5291    0.0000 C   0  0  0  0  0  0  0  0  0  0  0  0
    0.0000    5.5286    0.0000 C   0  0  0  0  0  0  0  0  0  0  0  0
   -1.4289    5.5286    0.0000 C   0  0  0  0  0  0  0  0  0  0  0  0
   -1.4289    4.7036    0.0000 C   0  0  0  0  0  0  0  0  0  0  0  0
    0.0000    4.7036    0.0000 C   0  0  0  0  0  0  0  0  0  0  0  0
   -0.7145    5.9411    0.0000 C   0  0  0  0  0  0  0  0  0  0  0  0
   -0.1203   -0.0645    0.0000 C   0  0  0  0  0  0  0  0  0  0  0  0
   -0.4559    0.6892    0.0000 C   0  0  0  0  0  0  0  0  0  0  0  0
    0.7145    5.9411    0.0000 C   0  0  0  0  0  0  0  0  0  0  0  0
   -2.1434    5.9411    0.0000 C   0  0  0  0  0  0  0  0  0  0  0  0
   -3.0667   -0.4732    0.0000 C   0  0  0  0  0  0  0  0  0  0  0  0
    0.7002   -0.1507    0.0000 C   0  0  0  0  0  0  0  0  0  0  0  0
   -0.6052   -0.7319    0.0000 C   0  0  0  0  0  0  0  0  0  0  0  0
   -2.1665    3.2361    0.0000 C   0  0  0  0  0  0  0  0  0  0  0  0
   -2.9173    0.9479    0.0000 C   0  0  3  0  0  0  0  0  0  0  0  0
   -3.8871   -0.3870    0.0000 C   0  0  0  0  0  0  0  0  0  0  0  0
   -2.7311   -1.2269    0.0000 C   0  0  0  0  0  0  0  0  0  0  0  0
   -3.7378    1.0341    0.0000 C   0  0  0  0  0  0  0  0  0  0  0  0
   -4.3721   -1.0544    0.0000 C   0  0  0  0  0  0  0  0  0  0  0  0
   -3.2160   -1.8943    0.0000 C   0  0  0  0  0  0  0  0  0  0  0  0
  1 31  1  0  0  0  0
  2 31  1  0  0  0  0
  3 31  1  0  0  0  0
  4 32  1  0  0  0  0
  5 32  1  0  0  0  0
  6 32  1  0  0  0  0
  7 34  1  0  0  0  0
  8 34  1  0  0  0  0
  9 34  1  0  0  0  0
 10 17  1  0  0  0  0
 10 20  1  0  0  0  0
 11 20  2  0  0  0  0
 12 37  1  0  0  0  0
 13 41  1  0  0  0  0
 13 42  1  0  0  0  0
 14 18  1  0  0  0  0
 14 20  1  0  0  0  0
 14 23  1  0  0  0  0
 15 22  1  0  0  0  0
 15 33  1  0  0  0  0
 15 37  1  0  0  0  0
 16 22  2  0  0  0  0
 16 35  1  0  0  0  0
 17 18  1  0  0  0  0
 17 19  1  1  0  0  0
 18 36  1  1  0  0  0
 19 26  2  0  0  0  0
 19 27  1  0  0  0  0
 21 22  1  0  0  0  0
 21 23  1  0  0  0  0
 21 30  2  0  0  0  0
 24 27  2  0  0  0  0
 24 28  1  0  0  0  0
 24 31  1  0  0  0  0
 25 26  1  0  0  0  0
 25 28  2  0  0  0  0
 25 32  1  0  0  0  0
 29 30  1  0  0  0  0
 29 34  1  0  0  0  0
 29 35  2  0  0  0  0
 33 38  1  0  0  0  0
 33 39  1  0  0  0  0
 37 40  1  0  0  0  0
 38 41  1  0  0  0  0
 39 42  1  0  0  0  0
M  END
> <PUBCHEM_COMPOUND_ID_TYPE>
0

> <PUBCHEM_TOTAL_CHARGE>
0

> <PUBCHEM_SUBSTANCE_ID>
310936787

> <PUBCHEM_SUBSTANCE_VERSION>
1

> <PUBCHEM_EXT_DATASOURCE_NAME>
4488

> <PUBCHEM_EXT_DATASOURCE_REGID>
SCHEMBL16114472

> <PUBCHEM_SUBSTANCE_COMMENT>
InChI=1S/C26H26F9N3O4/c1-13-21(15-7-17(24(27,28)29)10-18(8-15)25(30,31)32)42-23(40)37(13)12-16-9-19(26(33,34)35)11-36-22(16)38(14(2)39)20-3-5-41-6-4-20/h7-11,13-14,20-21,39H,3-6,12H2,1-2H3/t13-,14?,21-/m0/s1
InChIKey=XKCUETCLUCIVQL-BJAAYSDOSA-N

> <PUBCHEM_SUBSTANCE_SYNONYM>
SCHEMBL16114472

> <PUBCHEM_XREF_EXT_ID>
SCHEMBL16114472

> <PUBCHEM_EXT_DATASOURCE_URL>
https://www.surechembl.org/

> <PUBCHEM_EXT_SUBSTANCE_URL>
https://www.surechembl.org/chemical/SCHEMBL16114472

> <PUBCHEM_CID_ASSOCIATIONS>
117604681  1

> <PUBCHEM_COORDINATE_TYPE>
1
3

> <PUBCHEM_BONDANNOTATIONS>
17  19  5
18  36  5

$$$$
