310933955
  -OEChem-07211613022D

 25 26  0     0  0  0  0  0  0999 V2000
    1.1270    1.8916    0.0000 O   0  0  0  0  0  0  0  0  0  0  0  0
    2.5559    1.8916    0.0000 O   0  0  0  0  0  0  0  0  0  0  0  0
    1.8987    7.2699    0.0000 O   0  0  0  0  0  0  0  0  0  0  0  0
   -0.8618    8.0096    0.0000 O   0  0  0  0  0  0  0  0  0  0  0  0
    1.8414    3.1291    0.0000 N   0  0  0  0  0  0  0  0  0  0  0  0
    1.2581    4.8792    0.0000 N   0  0  0  0  0  0  0  0  0  0  0  0
    3.0082    5.4626    0.0000 N   0  0  0  0  0  0  0  0  0  0  0  0
    1.8414    4.2959    0.0000 C   0  0  0  0  0  0  0  0  0  0  0  0
    2.4248    3.7125    0.0000 C   0  0  0  0  0  0  0  0  0  0  0  0
    1.2581    3.7125    0.0000 C   0  0  0  0  0  0  0  0  0  0  0  0
    1.8414    2.3041    0.0000 C   0  0  0  0  0  0  0  0  0  0  0  0
    2.4248    4.8792    0.0000 C   0  0  0  0  0  0  0  0  0  0  0  0
    1.4716    5.6761    0.0000 C   0  0  0  0  0  0  0  0  0  0  0  0
    0.8882    6.2595    0.0000 C   0  0  0  0  0  0  0  0  0  0  0  0
    1.1018    7.0564    0.0000 C   0  0  0  0  0  0  0  0  0  0  0  0
    1.1270    1.0666    0.0000 C   0  0  0  0  0  0  0  0  0  0  0  0
    0.0914    6.0460    0.0000 C   0  0  0  0  0  0  0  0  0  0  0  0
    0.5184    7.6397    0.0000 C   0  0  0  0  0  0  0  0  0  0  0  0
   -0.2785    7.4262    0.0000 C   0  0  0  0  0  0  0  0  0  0  0  0
   -0.4920    6.6293    0.0000 C   0  0  0  0  0  0  0  0  0  0  0  0
    1.1270    0.2416    0.0000 C   0  0  0  0  0  0  0  0  0  0  0  0
    0.3020    1.0666    0.0000 C   0  0  0  0  0  0  0  0  0  0  0  0
    1.9520    1.0666    0.0000 C   0  0  0  0  0  0  0  0  0  0  0  0
    2.4820    6.6865    0.0000 C   0  0  0  0  0  0  0  0  0  0  0  0
   -1.6587    7.7960    0.0000 C   0  0  0  0  0  0  0  0  0  0  0  0
  1 11  1  0  0  0  0
  1 16  1  0  0  0  0
  2 11  2  0  0  0  0
  3 15  1  0  0  0  0
  3 24  1  0  0  0  0
  4 19  1  0  0  0  0
  4 25  1  0  0  0  0
  5  9  1  0  0  0  0
  5 10  1  0  0  0  0
  5 11  1  0  0  0  0
  6  8  1  0  0  0  0
  6 13  1  0  0  0  0
  7 12  3  0  0  0  0
  8  9  1  0  0  0  0
  8 10  1  0  0  0  0
  8 12  1  0  0  0  0
 13 14  1  0  0  0  0
 14 15  2  0  0  0  0
 14 17  1  0  0  0  0
 15 18  1  0  0  0  0
 16 21  1  0  0  0  0
 16 22  1  0  0  0  0
 16 23  1  0  0  0  0
 17 20  2  0  0  0  0
 18 19  2  0  0  0  0
 19 20  1  0  0  0  0
M  END
> <PUBCHEM_COMPOUND_ID_TYPE>
0

> <PUBCHEM_TOTAL_CHARGE>
0

> <PUBCHEM_SUBSTANCE_ID>
310933955

> <PUBCHEM_SUBSTANCE_VERSION>
1

> <PUBCHEM_EXT_DATASOURCE_NAME>
4488

> <PUBCHEM_EXT_DATASOURCE_REGID>
SCHEMBL16111394

> <PUBCHEM_SUBSTANCE_COMMENT>
InChI=1S/C18H25N3O4/c1-17(2,3)25-16(22)21-11-18(10-19,12-21)20-9-13-6-7-14(23-4)8-15(13)24-5/h6-8,20H,9,11-12H2,1-5H3
InChIKey=BJDLYJRUGUGVLH-UHFFFAOYSA-N

> <PUBCHEM_SUBSTANCE_SYNONYM>
SCHEMBL16111394

> <PUBCHEM_XREF_EXT_ID>
SCHEMBL16111394

> <PUBCHEM_EXT_DATASOURCE_URL>
https://www.surechembl.org/

> <PUBCHEM_EXT_SUBSTANCE_URL>
https://www.surechembl.org/chemical/SCHEMBL16111394

> <PUBCHEM_CID_ASSOCIATIONS>
117602272  1

> <PUBCHEM_COORDINATE_TYPE>
1
3

$$$$
