310940478
  -OEChem-07211613022D

 17 18  0     0  0  0  0  0  0999 V2000
    0.0560    1.5602    0.0000 O   0  0  0  0  0  0  0  0  0  0  0  0
    0.3738    0.1589    0.0000 N   0  0  0  0  0  0  0  0  0  0  0  0
   -1.1771   -1.9339    0.0000 N   0  0  0  0  0  0  0  0  0  0  0  0
   -1.8685   -1.5041    0.0000 N   0  0  0  0  0  0  0  0  0  0  0  0
   -0.8595   -0.6259    0.0000 C   0  0  0  0  0  0  0  0  0  0  0  0
   -0.5606   -1.4294    0.0000 C   0  0  0  0  0  0  0  0  0  0  0  0
    0.6165    0.9809    0.0000 C   0  0  0  0  0  0  0  0  0  0  0  0
   -0.4672    0.0467    0.0000 C   0  0  0  0  0  0  0  0  0  0  0  0
   -1.6630   -0.7007    0.0000 C   0  0  0  0  0  0  0  0  0  0  0  0
    1.4201    1.1679    0.0000 C   0  0  0  0  0  0  0  0  0  0  0  0
    0.9716   -0.3831    0.0000 C   0  0  0  0  0  0  0  0  0  0  0  0
    0.2429   -1.6537    0.0000 C   0  0  0  0  0  0  0  0  0  0  0  0
    0.8969   -1.2052    0.0000 C   0  0  0  0  0  0  0  0  0  0  0  0
   -2.2609   -0.3270    0.0000 C   0  0  0  0  0  0  0  0  0  0  0  0
    1.6817    1.9339    0.0000 C   0  0  0  0  0  0  0  0  0  0  0  0
    2.2609    1.3360    0.0000 C   0  0  0  0  0  0  0  0  0  0  0  0
    1.9993    0.5139    0.0000 C   0  0  0  0  0  0  0  0  0  0  0  0
  1  7  2  0  0  0  0
  2  7  1  0  0  0  0
  2  8  1  0  0  0  0
  2 11  1  0  0  0  0
  3  4  1  0  0  0  0
  3  6  1  0  0  0  0
  4  9  2  0  0  0  0
  5  6  2  0  0  0  0
  5  8  1  0  0  0  0
  5  9  1  0  0  0  0
  6 12  1  0  0  0  0
  7 10  1  0  0  0  0
  9 14  1  0  0  0  0
 10 15  1  0  0  0  0
 10 16  1  0  0  0  0
 10 17  1  0  0  0  0
 11 13  1  0  0  0  0
 12 13  1  0  0  0  0
M  END
> <PUBCHEM_COMPOUND_ID_TYPE>
0

> <PUBCHEM_TOTAL_CHARGE>
0

> <PUBCHEM_SUBSTANCE_ID>
310940478

> <PUBCHEM_SUBSTANCE_VERSION>
1

> <PUBCHEM_EXT_DATASOURCE_NAME>
4488

> <PUBCHEM_EXT_DATASOURCE_REGID>
SCHEMBL16118431

> <PUBCHEM_SUBSTANCE_COMMENT>
InChI=1S/C13H21N3O/c1-9-10-8-16(12(17)13(2,3)4)7-5-6-11(10)15-14-9/h5-8H2,1-4H3,(H,14,15)
InChIKey=RPTNEESYVUPRFD-UHFFFAOYSA-N

> <PUBCHEM_SUBSTANCE_SYNONYM>
SCHEMBL16118431

> <PUBCHEM_XREF_EXT_ID>
SCHEMBL16118431

> <PUBCHEM_EXT_DATASOURCE_URL>
https://www.surechembl.org/

> <PUBCHEM_EXT_SUBSTANCE_URL>
https://www.surechembl.org/chemical/SCHEMBL16118431

> <PUBCHEM_CID_ASSOCIATIONS>
117607495  1

> <PUBCHEM_COORDINATE_TYPE>
1
3

$$$$
