310943975
  -OEChem-07211613022D

 24 27  0     0  0  0  0  0  0999 V2000
   -2.0099    2.0521    0.0000 F   0  0  0  0  0  0  0  0  0  0  0  0
    0.2703    0.7854    0.0000 O   0  0  0  0  0  0  0  0  0  0  0  0
    0.0844    1.5961    0.0000 N   0  0  0  0  0  0  0  0  0  0  0  0
   -2.0437   -2.0521    0.0000 N   0  0  0  0  0  0  0  0  0  0  0  0
    0.1014    0.0085    0.0000 C   0  0  0  0  0  0  0  0  0  0  0  0
   -0.6080   -0.4138    0.0000 C   0  0  0  0  0  0  0  0  0  0  0  0
    0.8276   -0.3970    0.0000 C   0  0  0  0  0  0  0  0  0  0  0  0
   -1.3343    0.0085    0.0000 C   0  0  0  0  0  0  0  0  0  0  0  0
    1.4356    0.1773    0.0000 C   0  0  0  0  0  0  0  0  0  0  0  0
    1.0809    0.8867    0.0000 C   0  0  0  0  0  0  0  0  0  0  0  0
   -1.3174    0.8361    0.0000 C   0  0  0  0  0  0  0  0  0  0  0  0
   -2.0268   -0.3970    0.0000 C   0  0  0  0  0  0  0  0  0  0  0  0
   -0.6080   -1.2414    0.0000 C   0  0  0  0  0  0  0  0  0  0  0  0
    0.8276   -1.2245    0.0000 C   0  0  0  0  0  0  0  0  0  0  0  0
   -2.0099    1.2245    0.0000 C   0  0  0  0  0  0  0  0  0  0  0  0
    2.2632    0.0760    0.0000 C   0  0  0  0  0  0  0  0  0  0  0  0
    0.1014   -1.6299    0.0000 C   0  0  0  0  0  0  0  0  0  0  0  0
    1.5708    1.5285    0.0000 C   0  0  0  0  0  0  0  0  0  0  0  0
   -2.7193    0.0085    0.0000 C   0  0  0  0  0  0  0  0  0  0  0  0
   -2.7024    0.8191    0.0000 C   0  0  0  0  0  0  0  0  0  0  0  0
   -0.6249    1.2245    0.0000 C   0  0  0  0  0  0  0  0  0  0  0  0
   -2.0437   -1.2583    0.0000 C   0  0  0  0  0  0  0  0  0  0  0  0
    2.7193    0.7009    0.0000 C   0  0  0  0  0  0  0  0  0  0  0  0
    2.3984    1.4609    0.0000 C   0  0  0  0  0  0  0  0  0  0  0  0
  1 15  1  0  0  0  0
  2  5  1  0  0  0  0
  2 10  1  0  0  0  0
  3 21  3  0  0  0  0
  4 22  3  0  0  0  0
  5  6  1  0  0  0  0
  5  7  2  0  0  0  0
  6  8  1  0  0  0  0
  6 13  2  0  0  0  0
  7  9  1  0  0  0  0
  7 14  1  0  0  0  0
  8 11  1  0  0  0  0
  8 12  2  0  0  0  0
  9 10  2  0  0  0  0
  9 16  1  0  0  0  0
 10 18  1  0  0  0  0
 11 15  2  0  0  0  0
 11 21  1  0  0  0  0
 12 19  1  0  0  0  0
 12 22  1  0  0  0  0
 13 17  1  0  0  0  0
 14 17  2  0  0  0  0
 15 20  1  0  0  0  0
 16 23  2  0  0  0  0
 18 24  2  0  0  0  0
 19 20  2  0  0  0  0
 23 24  1  0  0  0  0
M  END
> <PUBCHEM_COMPOUND_ID_TYPE>
0

> <PUBCHEM_TOTAL_CHARGE>
0

> <PUBCHEM_SUBSTANCE_ID>
310943975

> <PUBCHEM_SUBSTANCE_VERSION>
1

> <PUBCHEM_EXT_DATASOURCE_NAME>
4488

> <PUBCHEM_EXT_DATASOURCE_REGID>
SCHEMBL16122046

> <PUBCHEM_SUBSTANCE_COMMENT>
InChI=1S/C20H9FN2O/c21-17-9-8-12(10-22)19(16(17)11-23)15-6-3-5-14-13-4-1-2-7-18(13)24-20(14)15/h1-9H
InChIKey=TTXVKLSUKCNBBQ-UHFFFAOYSA-N

> <PUBCHEM_SUBSTANCE_SYNONYM>
SCHEMBL16122046

> <PUBCHEM_XREF_EXT_ID>
SCHEMBL16122046

> <PUBCHEM_EXT_DATASOURCE_URL>
https://www.surechembl.org/

> <PUBCHEM_EXT_SUBSTANCE_URL>
https://www.surechembl.org/chemical/SCHEMBL16122046

> <PUBCHEM_CID_ASSOCIATIONS>
117610282  1

> <PUBCHEM_COORDINATE_TYPE>
1
3

$$$$
