310948148
  -OEChem-07211613022D

 36 38  0     0  0  0  0  0  0999 V2000
    0.3351   -0.6632    0.0000 Br  0  0  0  0  0  0  0  0  0  0  0  0
   -2.2618    0.1326    0.0000 F   0  0  0  0  0  0  0  0  0  0  0  0
   -1.7312   -0.7888    0.0000 F   0  0  0  0  0  0  0  0  0  0  0  0
    3.9931    2.3945    0.0000 F   0  0  0  0  0  0  0  0  0  0  0  0
    2.7924    2.4364    0.0000 F   0  0  0  0  0  0  0  0  0  0  0  0
    3.8954    1.2217    0.0000 F   0  0  0  0  0  0  0  0  0  0  0  0
   -2.5550    1.8081    0.0000 O   0  0  0  0  0  0  0  0  0  0  0  0
    2.7365    1.2776    0.0000 O   0  0  0  0  0  0  0  0  0  0  0  0
   -3.9931   -0.6632    0.0000 O   0  0  0  0  0  0  0  0  0  0  0  0
   -1.8290   -1.9058    0.0000 O   0  0  0  0  0  0  0  0  0  0  0  0
   -3.2671   -1.9058    0.0000 O   0  0  0  0  0  0  0  0  0  0  0  0
   -1.1030    1.8360    0.0000 N   0  0  0  0  0  0  0  0  0  0  0  0
   -1.7732    2.3247    0.0000 N   0  0  0  0  0  0  0  0  0  0  0  0
   -1.5219    3.1065    0.0000 N   0  0  0  0  0  0  0  0  0  0  0  0
   -1.1030    0.9982    0.0000 C   0  0  0  0  0  0  0  0  0  0  0  0
   -0.4328    2.3247    0.0000 C   0  0  0  0  0  0  0  0  0  0  0  0
   -1.8151    0.5794    0.0000 C   0  0  0  0  0  0  0  0  0  0  0  0
    0.3630    2.0594    0.0000 C   0  0  0  0  0  0  0  0  0  0  0  0
   -2.5550    0.9844    0.0000 C   0  0  0  0  0  0  0  0  0  0  0  0
   -0.3909    0.5933    0.0000 C   0  0  0  0  0  0  0  0  0  0  0  0
   -2.5410   -0.6492    0.0000 C   0  0  0  0  0  0  0  0  0  0  0  0
   -0.6702    3.0926    0.0000 C   0  0  0  0  0  0  0  0  0  0  0  0
   -3.2671   -0.2164    0.0000 C   0  0  0  0  0  0  0  0  0  0  0  0
   -1.8151   -0.2443    0.0000 C   0  0  0  0  0  0  0  0  0  0  0  0
   -3.2531    0.5933    0.0000 C   0  0  0  0  0  0  0  0  0  0  0  0
   -0.3909   -0.2304    0.0000 C   0  0  0  0  0  0  0  0  0  0  0  0
    0.5445    1.2496    0.0000 C   0  0  0  0  0  0  0  0  0  0  0  0
    0.9773    2.6039    0.0000 C   0  0  0  0  0  0  0  0  0  0  0  0
   -1.1170   -0.6492    0.0000 C   0  0  0  0  0  0  0  0  0  0  0  0
   -2.5410   -1.4590    0.0000 C   0  0  0  0  0  0  0  0  0  0  0  0
    1.9407    1.5568    0.0000 C   0  0  0  0  0  0  0  0  0  0  0  0
    1.3403    0.9982    0.0000 C   0  0  0  0  0  0  0  0  0  0  0  0
    1.7732    2.3526    0.0000 C   0  0  0  0  0  0  0  0  0  0  0  0
    3.3648    1.8360    0.0000 C   0  0  0  0  0  0  0  0  0  0  0  0
   -1.8429   -2.7296    0.0000 C   0  0  0  0  0  0  0  0  0  0  0  0
   -2.5830   -3.1065    0.0000 C   0  0  0  0  0  0  0  0  0  0  0  0
  1 26  1  0  0  0  0
  2 21  1  0  0  0  0
  3 21  1  0  0  0  0
  4 34  1  0  0  0  0
  5 34  1  0  0  0  0
  6 34  1  0  0  0  0
  7 19  2  0  0  0  0
  8 31  1  0  0  0  0
  8 34  1  0  0  0  0
  9 23  2  0  0  0  0
 10 30  1  0  0  0  0
 10 35  1  0  0  0  0
 11 30  2  0  0  0  0
 12 13  1  0  0  0  0
 12 15  1  0  0  0  0
 12 16  1  0  0  0  0
 13 14  2  0  0  0  0
 14 22  1  0  0  0  0
 15 17  2  0  0  0  0
 15 20  1  0  0  0  0
 16 18  1  0  0  0  0
 16 22  2  0  0  0  0
 17 19  1  0  0  0  0
 17 24  1  0  0  0  0
 18 27  2  0  0  0  0
 18 28  1  0  0  0  0
 19 25  1  0  0  0  0
 20 26  2  0  0  0  0
 21 23  1  0  0  0  0
 21 30  1  0  0  0  0
 23 25  1  0  0  0  0
 24 29  2  0  0  0  0
 26 29  1  0  0  0  0
 27 32  1  0  0  0  0
 28 33  2  0  0  0  0
 31 32  2  0  0  0  0
 31 33  1  0  0  0  0
 35 36  1  0  0  0  0
M  END
> <PUBCHEM_COMPOUND_ID_TYPE>
0

> <PUBCHEM_TOTAL_CHARGE>
0

> <PUBCHEM_SUBSTANCE_ID>
310948148

> <PUBCHEM_SUBSTANCE_VERSION>
1

> <PUBCHEM_EXT_DATASOURCE_NAME>
4488

> <PUBCHEM_EXT_DATASOURCE_REGID>
SCHEMBL16126325

> <PUBCHEM_SUBSTANCE_COMMENT>
InChI=1S/C22H15BrF5N3O5/c1-2-35-20(34)21(24,25)19(33)10-18(32)15-8-5-13(23)9-16(15)31-17(11-29-30-31)12-3-6-14(7-4-12)36-22(26,27)28/h3-9,11H,2,10H2,1H3
InChIKey=QONBXOMXLYPECX-UHFFFAOYSA-N

> <PUBCHEM_SUBSTANCE_SYNONYM>
SCHEMBL16126325

> <PUBCHEM_XREF_EXT_ID>
SCHEMBL16126325

> <PUBCHEM_EXT_DATASOURCE_URL>
https://www.surechembl.org/

> <PUBCHEM_EXT_SUBSTANCE_URL>
https://www.surechembl.org/chemical/SCHEMBL16126325

> <PUBCHEM_CID_ASSOCIATIONS>
117613754  1

> <PUBCHEM_COORDINATE_TYPE>
1
3

$$$$
