310948114
  -OEChem-07211613022D

 43 47  0     0  0  0  0  0  0999 V2000
   -0.4157    4.4177    0.0000 F   0  0  0  0  0  0  0  0  0  0  0  0
    0.6928    4.6133    0.0000 F   0  0  0  0  0  0  0  0  0  0  0  0
    0.8722    3.4885    0.0000 F   0  0  0  0  0  0  0  0  0  0  0  0
    2.9098   -3.3744    0.0000 F   0  0  0  0  0  0  0  0  0  0  0  0
    2.6001   -2.2496    0.0000 F   0  0  0  0  0  0  0  0  0  0  0  0
    1.7850   -3.6352    0.0000 F   0  0  0  0  0  0  0  0  0  0  0  0
    0.9210    1.9888    0.0000 O   0  0  0  0  0  0  0  0  0  0  0  0
    1.4752   -2.5430    0.0000 O   0  0  0  0  0  0  0  0  0  0  0  0
   -0.6765    2.0214    0.0000 N   0  0  0  0  0  0  0  0  0  0  0  0
    2.0784    1.3367    0.0000 N   0  0  0  0  0  0  0  0  0  0  0  0
   -0.0081    2.5105    0.0000 N   0  0  0  0  0  0  0  0  0  0  0  0
   -2.1111   -4.6133    0.0000 N   0  0  0  0  0  0  0  0  0  0  0  0
    0.0408    0.7824    0.0000 C   0  0  0  0  0  0  0  0  0  0  0  0
    0.7580    1.1900    0.0000 C   0  0  0  0  0  0  0  0  0  0  0  0
   -0.6765    1.1900    0.0000 C   0  0  0  0  0  0  0  0  0  0  0  0
    1.4752    0.7824    0.0000 C   0  0  0  0  0  0  0  0  0  0  0  0
    0.0408   -0.0489    0.0000 C   0  0  0  0  0  0  0  0  0  0  0  0
   -0.6602   -0.4565    0.0000 C   0  0  0  0  0  0  0  0  0  0  0  0
    1.4590   -0.0489    0.0000 C   0  0  0  0  0  0  0  0  0  0  0  0
   -1.3775    0.7662    0.0000 C   0  0  0  0  0  0  0  0  0  0  0  0
    1.7525    2.0703    0.0000 C   0  0  0  0  0  0  0  0  0  0  0  0
   -0.2690    3.2766    0.0000 C   0  0  0  0  0  0  0  0  0  0  0  0
   -0.6765   -1.3041    0.0000 C   0  0  0  0  0  0  0  0  0  0  0  0
   -1.3612   -0.0652    0.0000 C   0  0  0  0  0  0  0  0  0  0  0  0
   -1.3285    2.4941    0.0000 C   0  0  0  0  0  0  0  0  0  0  0  0
    0.2201    3.9613    0.0000 C   0  0  0  0  0  0  0  0  0  0  0  0
   -1.0678    3.2929    0.0000 C   0  0  0  0  0  0  0  0  0  0  0  0
    0.7580   -0.4728    0.0000 C   0  0  0  0  0  0  0  0  0  0  0  0
    2.1763   -0.4728    0.0000 C   0  0  0  0  0  0  0  0  0  0  0  0
   -1.3775   -1.7117    0.0000 C   0  0  0  0  0  0  0  0  0  0  0  0
   -1.3938   -2.5430    0.0000 C   0  0  0  0  0  0  0  0  0  0  0  0
    0.0408   -1.7117    0.0000 C   0  0  0  0  0  0  0  0  0  0  0  0
   -2.1111   -2.9669    0.0000 C   0  0  0  0  0  0  0  0  0  0  0  0
    1.4752   -1.6954    0.0000 C   0  0  0  0  0  0  0  0  0  0  0  0
    0.7743   -1.2878    0.0000 C   0  0  0  0  0  0  0  0  0  0  0  0
    2.1763   -1.3041    0.0000 C   0  0  0  0  0  0  0  0  0  0  0  0
    2.1599    2.8202    0.0000 C   0  0  0  0  0  0  0  0  0  0  0  0
   -0.6765   -2.9506    0.0000 C   0  0  0  0  0  0  0  0  0  0  0  0
    0.0408   -2.5430    0.0000 C   0  0  0  0  0  0  0  0  0  0  0  0
   -2.1111   -3.7982    0.0000 C   0  0  0  0  0  0  0  0  0  0  0  0
    2.1926   -2.9506    0.0000 C   0  0  0  0  0  0  0  0  0  0  0  0
   -2.4860   -2.2333    0.0000 C   0  0  0  0  0  0  0  0  0  0  0  0
   -2.9098   -3.1951    0.0000 C   0  0  0  0  0  0  0  0  0  0  0  0
  1 26  1  0  0  0  0
  2 26  1  0  0  0  0
  3 26  1  0  0  0  0
  4 41  1  0  0  0  0
  5 41  1  0  0  0  0
  6 41  1  0  0  0  0
  7 14  1  0  0  0  0
  7 21  1  0  0  0  0
  8 34  1  0  0  0  0
  8 41  1  0  0  0  0
  9 11  1  0  0  0  0
  9 15  1  0  0  0  0
  9 25  1  0  0  0  0
 10 16  1  0  0  0  0
 10 21  2  0  0  0  0
 11 22  2  0  0  0  0
 12 40  3  0  0  0  0
 13 14  1  0  0  0  0
 13 15  1  0  0  0  0
 13 17  2  0  0  0  0
 14 16  2  0  0  0  0
 15 20  2  0  0  0  0
 16 19  1  0  0  0  0
 17 18  1  0  0  0  0
 18 23  1  0  0  0  0
 18 24  2  0  0  0  0
 19 28  2  0  0  0  0
 19 29  1  0  0  0  0
 20 24  1  0  0  0  0
 21 37  1  0  0  0  0
 22 26  1  0  0  0  0
 22 27  1  0  0  0  0
 23 30  2  0  0  0  0
 23 32  1  0  0  0  0
 25 27  2  0  0  0  0
 28 35  1  0  0  0  0
 29 36  2  0  0  0  0
 30 31  1  0  0  0  0
 31 33  1  0  0  0  0
 31 38  2  0  0  0  0
 32 39  2  0  0  0  0
 33 40  1  0  0  0  0
 33 42  1  0  0  0  0
 33 43  1  0  0  0  0
 34 35  2  0  0  0  0
 34 36  1  0  0  0  0
 38 39  1  0  0  0  0
M  END
> <PUBCHEM_COMPOUND_ID_TYPE>
0

> <PUBCHEM_TOTAL_CHARGE>
0

> <PUBCHEM_SUBSTANCE_ID>
310948114

> <PUBCHEM_SUBSTANCE_VERSION>
1

> <PUBCHEM_EXT_DATASOURCE_NAME>
4488

> <PUBCHEM_EXT_DATASOURCE_REGID>
SCHEMBL16126290

> <PUBCHEM_SUBSTANCE_COMMENT>
InChI=1S/C31H22F6N4O2/c1-18-39-27(19-7-10-23(11-8-19)43-31(35,36)37)28(42-18)24-16-21(20-5-4-6-22(15-20)29(2,3)17-38)9-12-25(24)41-14-13-26(40-41)30(32,33)34/h4-16H,1-3H3
InChIKey=YFCKFTJAAFKOOQ-UHFFFAOYSA-N

> <PUBCHEM_SUBSTANCE_SYNONYM>
SCHEMBL16126290

> <PUBCHEM_XREF_EXT_ID>
SCHEMBL16126290

> <PUBCHEM_EXT_DATASOURCE_URL>
https://www.surechembl.org/

> <PUBCHEM_EXT_SUBSTANCE_URL>
https://www.surechembl.org/chemical/SCHEMBL16126290

> <PUBCHEM_CID_ASSOCIATIONS>
117613731  1

> <PUBCHEM_COORDINATE_TYPE>
1
3

$$$$
