310931039
  -OEChem-07211613022D

 27 30  0     0  0  0  0  0  0999 V2000
    0.1502   -3.6354    0.0000 Cl  0  0  0  0  0  0  0  0  0  0  0  0
    0.9014   -5.1677    0.0000 Cl  0  0  0  0  0  0  0  0  0  0  0  0
    0.7511   -2.7341    0.0000 O   0  0  0  0  0  0  0  0  0  0  0  0
    2.2233   -2.5237    0.0000 N   0  0  0  0  0  0  0  0  0  0  0  0
    2.6139   -3.7857    0.0000 N   0  0  0  0  0  0  0  0  0  0  0  0
    3.6655   -2.7341    0.0000 N   0  0  0  0  0  0  0  0  0  0  0  0
    1.8027   -3.7857    0.0000 C   0  0  0  0  0  0  0  0  0  0  0  0
    1.5623   -3.0045    0.0000 C   0  0  0  0  0  0  0  0  0  0  0  0
    1.3220   -4.4466    0.0000 C   0  0  0  0  0  0  0  0  0  0  0  0
    2.1632   -4.5367    0.0000 C   0  0  0  0  0  0  0  0  0  0  0  0
    2.8843   -3.0045    0.0000 C   0  0  0  0  0  0  0  0  0  0  0  0
    2.2233   -1.6825    0.0000 C   0  0  0  0  0  0  0  0  0  0  0  0
    0.4807   -4.3865    0.0000 C   0  0  0  0  0  0  0  0  0  0  0  0
    1.8928   -5.3780    0.0000 C   0  0  0  0  0  0  0  0  0  0  0  0
    1.6525   -5.2278    0.0000 C   0  0  0  0  0  0  0  0  0  0  0  0
    3.0045   -4.5668    0.0000 C   0  0  0  0  0  0  0  0  0  0  0  0
    0.0000   -5.0476    0.0000 C   0  0  0  0  0  0  0  0  0  0  0  0
    2.1031   -5.9489    0.0000 C   0  0  0  0  0  0  0  0  0  0  0  0
    1.5022   -1.2619    0.0000 C   0  0  0  0  0  0  0  0  0  0  0  0
    2.9144   -1.2619    0.0000 C   0  0  0  0  0  0  0  0  0  0  0  0
    1.1718   -5.8888    0.0000 C   0  0  0  0  0  0  0  0  0  0  0  0
    3.3650   -5.3179    0.0000 C   0  0  0  0  0  0  0  0  0  0  0  0
    0.3305   -5.7987    0.0000 C   0  0  0  0  0  0  0  0  0  0  0  0
    2.9144   -6.0090    0.0000 C   0  0  0  0  0  0  0  0  0  0  0  0
    1.5022   -0.4507    0.0000 C   0  0  0  0  0  0  0  0  0  0  0  0
    2.9144   -0.4507    0.0000 C   0  0  0  0  0  0  0  0  0  0  0  0
    2.2233    0.0000    0.0000 C   0  0  0  0  0  0  0  0  0  0  0  0
  1 13  1  0  0  0  0
  2 14  1  0  0  0  0
  3  8  2  0  0  0  0
  4  8  1  0  0  0  0
  4 11  1  0  0  0  0
  4 12  1  0  0  0  0
  5  7  1  0  0  0  0
  5 11  1  0  0  0  0
  6 11  2  3  0  0  0
  7  8  1  0  0  0  0
  7  9  1  0  0  0  0
  7 10  1  0  0  0  0
  9 13  1  0  0  0  0
  9 15  2  0  0  0  0
 10 14  1  0  0  0  0
 10 16  2  0  0  0  0
 12 19  1  0  0  0  0
 12 20  1  0  0  0  0
 13 17  2  0  0  0  0
 14 18  2  0  0  0  0
 15 21  1  0  0  0  0
 16 22  1  0  0  0  0
 17 23  1  0  0  0  0
 18 24  1  0  0  0  0
 19 25  1  0  0  0  0
 20 26  1  0  0  0  0
 21 23  2  0  0  0  0
 22 24  2  0  0  0  0
 25 27  1  0  0  0  0
 26 27  1  0  0  0  0
M  END
> <PUBCHEM_COMPOUND_ID_TYPE>
0

> <PUBCHEM_TOTAL_CHARGE>
0

> <PUBCHEM_SUBSTANCE_ID>
310931039

> <PUBCHEM_SUBSTANCE_VERSION>
1

> <PUBCHEM_EXT_DATASOURCE_NAME>
4488

> <PUBCHEM_EXT_DATASOURCE_REGID>
SCHEMBL16108341

> <PUBCHEM_SUBSTANCE_COMMENT>
InChI=1S/C21H21Cl2N3O/c22-17-12-6-4-10-15(17)21(16-11-5-7-13-18(16)23)19(27)26(20(24)25-21)14-8-2-1-3-9-14/h4-7,10-14H,1-3,8-9H2,(H2,24,25)
InChIKey=ASWBODHRSNHLNV-UHFFFAOYSA-N

> <PUBCHEM_SUBSTANCE_SYNONYM>
SCHEMBL16108341

> <PUBCHEM_XREF_EXT_ID>
SCHEMBL16108341

> <PUBCHEM_EXT_DATASOURCE_URL>
https://www.surechembl.org/

> <PUBCHEM_EXT_SUBSTANCE_URL>
https://www.surechembl.org/chemical/SCHEMBL16108341

> <PUBCHEM_CID_ASSOCIATIONS>
86272416  1

> <PUBCHEM_COORDINATE_TYPE>
1
3

$$$$
