310937945
  -OEChem-07211613022D

 29 32  0     0  0  0  0  0  0999 V2000
    2.7512   -0.6994    0.0000 F   0  0  0  0  0  0  0  0  0  0  0  0
    2.6113   -6.5749    0.0000 O   0  0  0  0  0  0  0  0  0  0  0  0
    4.3366   -9.3261    0.0000 O   0  0  0  0  0  0  0  0  0  0  0  0
    5.3159   -8.3468    0.0000 O   0  0  0  0  0  0  0  0  0  0  0  0
    1.1658   -1.1658    0.0000 N   0  0  0  0  0  0  0  0  0  0  0  0
    3.9636   -7.9738    0.0000 N   0  0  0  0  0  0  0  0  0  0  0  0
    1.5388   -2.4714    0.0000 N   0  0  0  0  0  0  0  0  0  0  0  0
    1.9118   -3.8703    0.0000 N   0  0  0  0  0  0  0  0  0  0  0  0
    2.8911   -2.8445    0.0000 N   0  0  0  0  0  0  0  0  0  0  0  0
    0.5596    0.0000    0.0000 N   0  0  0  0  0  0  0  0  0  0  0  0
    1.7254   -1.7254    0.0000 C   0  0  0  0  0  0  0  0  0  0  0  0
    3.1709   -7.1344    0.0000 C   0  0  0  0  0  0  0  0  0  0  0  0
    2.0984   -3.0776    0.0000 C   0  0  0  0  0  0  0  0  0  0  0  0
    2.8445   -5.7822    0.0000 C   0  0  0  0  0  0  0  0  0  0  0  0
    2.5181   -1.4921    0.0000 C   0  0  0  0  0  0  0  0  0  0  0  0
    2.4714   -4.4299    0.0000 C   0  0  0  0  0  0  0  0  0  0  0  0
    3.1709   -7.9738    0.0000 C   0  0  0  0  0  0  0  0  0  0  0  0
    4.0102   -7.1344    0.0000 C   0  0  0  0  0  0  0  0  0  0  0  0
    2.2383   -5.2226    0.0000 C   0  0  0  0  0  0  0  0  0  0  0  0
    3.8237   -4.8029    0.0000 C   0  0  0  0  0  0  0  0  0  0  0  0
    3.0776   -2.0984    0.0000 C   0  0  0  0  0  0  0  0  0  0  0  0
    3.6372   -5.5490    0.0000 C   0  0  0  0  0  0  0  0  0  0  0  0
    3.2641   -4.2434    0.0000 C   0  0  0  0  0  0  0  0  0  0  0  0
    4.5232   -8.5334    0.0000 C   0  0  0  0  0  0  0  0  0  0  0  0
    1.2590   -0.3730    0.0000 C   0  0  0  0  0  0  0  0  0  0  0  0
    0.3730   -1.3057    0.0000 C   0  0  0  0  0  0  0  0  0  0  0  0
    0.0000   -0.5596    0.0000 C   0  0  0  0  0  0  0  0  0  0  0  0
    4.6164   -4.5698    0.0000 C   0  0  0  0  0  0  0  0  0  0  0  0
    4.8029   -3.7771    0.0000 C   0  0  0  0  0  0  0  0  0  0  0  0
  1 15  1  0  0  0  0
  2 12  1  0  0  0  0
  2 14  1  0  0  0  0
  3 24  2  0  0  0  0
  4 24  1  0  0  0  0
  5 11  1  0  0  0  0
  5 25  1  0  0  0  0
  5 26  1  0  0  0  0
  6 17  1  0  0  0  0
  6 18  1  0  0  0  0
  6 24  1  0  0  0  0
  7 11  2  0  0  0  0
  7 13  1  0  0  0  0
  8 13  1  0  0  0  0
  8 16  1  0  0  0  0
  9 13  2  0  0  0  0
  9 21  1  0  0  0  0
 10 25  2  0  0  0  0
 10 27  1  0  0  0  0
 11 15  1  0  0  0  0
 12 17  1  0  0  0  0
 12 18  1  0  0  0  0
 14 19  1  0  0  0  0
 14 22  2  0  0  0  0
 15 21  2  0  0  0  0
 16 19  2  0  0  0  0
 16 23  1  0  0  0  0
 20 22  1  0  0  0  0
 20 23  2  0  0  0  0
 20 28  1  0  0  0  0
 26 27  2  0  0  0  0
 28 29  1  0  0  0  0
M  END
> <PUBCHEM_COMPOUND_ID_TYPE>
0

> <PUBCHEM_TOTAL_CHARGE>
0

> <PUBCHEM_SUBSTANCE_ID>
310937945

> <PUBCHEM_SUBSTANCE_VERSION>
1

> <PUBCHEM_EXT_DATASOURCE_NAME>
4488

> <PUBCHEM_EXT_DATASOURCE_REGID>
SCHEMBL16115776

> <PUBCHEM_SUBSTANCE_COMMENT>
InChI=1S/C19H19FN6O3/c1-2-12-5-13(7-14(6-12)29-15-9-26(10-15)19(27)28)23-18-22-8-16(20)17(24-18)25-4-3-21-11-25/h3-8,11,15H,2,9-10H2,1H3,(H,27,28)(H,22,23,24)
InChIKey=WKXQJVVAFRIZDQ-UHFFFAOYSA-N

> <PUBCHEM_SUBSTANCE_SYNONYM>
SCHEMBL16115776

> <PUBCHEM_XREF_EXT_ID>
SCHEMBL16115776

> <PUBCHEM_EXT_DATASOURCE_URL>
https://www.surechembl.org/

> <PUBCHEM_EXT_SUBSTANCE_URL>
https://www.surechembl.org/chemical/SCHEMBL16115776

> <PUBCHEM_CID_ASSOCIATIONS>
117605549  1

> <PUBCHEM_COORDINATE_TYPE>
1
3

$$$$
