310943252
  -OEChem-07211613022D

 35 38  0     0  0  0  0  0  0999 V2000
    4.2928    1.5265    0.0000 F   0  0  0  0  0  0  0  0  0  0  0  0
    5.3621    1.2010    0.0000 F   0  0  0  0  0  0  0  0  0  0  0  0
    5.0211    0.1318    0.0000 F   0  0  0  0  0  0  0  0  0  0  0  0
    1.7822    1.6505    0.0000 O   0  0  0  0  0  0  0  0  0  0  0  0
   -5.3621    1.6505    0.0000 O   0  0  0  0  0  0  0  0  0  0  0  0
   -1.7822   -0.3952    0.0000 N   0  0  0  0  0  0  0  0  0  0  0  0
   -3.2080   -0.3952    0.0000 N   0  0  0  0  0  0  0  0  0  0  0  0
   -3.9208    0.8291    0.0000 N   0  0  0  0  0  0  0  0  0  0  0  0
   -0.3410    2.0690    0.0000 N   0  0  0  0  0  0  0  0  0  0  0  0
    1.0848    0.4262    0.0000 N   0  0  0  0  0  0  0  0  0  0  0  0
   -2.4951   -1.6350    0.0000 N   0  0  0  0  0  0  0  0  0  0  0  0
   -1.7822    0.4262    0.0000 C   0  0  0  0  0  0  0  0  0  0  0  0
   -1.0848    0.8291    0.0000 C   0  0  0  0  0  0  0  0  0  0  0  0
   -3.2080    0.4262    0.0000 C   0  0  0  0  0  0  0  0  0  0  0  0
   -2.5106    0.8291    0.0000 C   0  0  0  0  0  0  0  0  0  0  0  0
   -2.4951   -0.8136    0.0000 C   0  0  0  0  0  0  0  0  0  0  0  0
   -1.0693    1.6660    0.0000 C   0  0  0  0  0  0  0  0  0  0  0  0
   -0.3565    0.4262    0.0000 C   0  0  0  0  0  0  0  0  0  0  0  0
    0.3565    0.8445    0.0000 C   0  0  0  0  0  0  0  0  0  0  0  0
    2.5106    0.4262    0.0000 C   0  0  0  0  0  0  0  0  0  0  0  0
    1.7822    0.8136    0.0000 C   0  0  0  0  0  0  0  0  0  0  0  0
    3.9363    0.4262    0.0000 C   0  0  0  0  0  0  0  0  0  0  0  0
    0.3720    1.6505    0.0000 C   0  0  0  0  0  0  0  0  0  0  0  0
    4.6493    0.8291    0.0000 C   0  0  0  0  0  0  0  0  0  0  0  0
    3.2080    0.8291    0.0000 C   0  0  0  0  0  0  0  0  0  0  0  0
   -3.9208    1.6505    0.0000 C   0  0  0  0  0  0  0  0  0  0  0  0
   -4.6338    0.4262    0.0000 C   0  0  0  0  0  0  0  0  0  0  0  0
    2.5260   -0.4107    0.0000 C   0  0  0  0  0  0  0  0  0  0  0  0
    3.9208   -0.3952    0.0000 C   0  0  0  0  0  0  0  0  0  0  0  0
   -1.7977    2.0535    0.0000 C   0  0  0  0  0  0  0  0  0  0  0  0
    3.2390   -0.7981    0.0000 C   0  0  0  0  0  0  0  0  0  0  0  0
   -4.6338    2.0690    0.0000 C   0  0  0  0  0  0  0  0  0  0  0  0
   -5.3621    0.8445    0.0000 C   0  0  0  0  0  0  0  0  0  0  0  0
   -1.7667   -2.0690    0.0000 C   0  0  0  0  0  0  0  0  0  0  0  0
   -3.2080   -2.0690    0.0000 C   0  0  0  0  0  0  0  0  0  0  0  0
  1 24  1  0  0  0  0
  2 24  1  0  0  0  0
  3 24  1  0  0  0  0
  4 21  2  0  0  0  0
  5 32  1  0  0  0  0
  5 33  1  0  0  0  0
  6 12  1  0  0  0  0
  6 16  2  0  0  0  0
  7 14  2  0  0  0  0
  7 16  1  0  0  0  0
  8 14  1  0  0  0  0
  8 26  1  0  0  0  0
  8 27  1  0  0  0  0
  9 17  2  0  0  0  0
  9 23  1  0  0  0  0
 10 19  1  0  0  0  0
 10 21  1  0  0  0  0
 11 16  1  0  0  0  0
 11 34  1  0  0  0  0
 11 35  1  0  0  0  0
 12 13  1  0  0  0  0
 12 15  2  0  0  0  0
 13 17  1  0  0  0  0
 13 18  2  0  0  0  0
 14 15  1  0  0  0  0
 17 30  1  0  0  0  0
 18 19  1  0  0  0  0
 19 23  2  0  0  0  0
 20 21  1  0  0  0  0
 20 25  1  0  0  0  0
 20 28  2  0  0  0  0
 22 24  1  0  0  0  0
 22 25  2  0  0  0  0
 22 29  1  0  0  0  0
 26 32  1  0  0  0  0
 27 33  1  0  0  0  0
 28 31  1  0  0  0  0
 29 31  2  0  0  0  0
M  END
> <PUBCHEM_COMPOUND_ID_TYPE>
0

> <PUBCHEM_TOTAL_CHARGE>
0

> <PUBCHEM_SUBSTANCE_ID>
310943252

> <PUBCHEM_SUBSTANCE_VERSION>
1

> <PUBCHEM_EXT_DATASOURCE_NAME>
4488

> <PUBCHEM_EXT_DATASOURCE_REGID>
SCHEMBL16121314

> <PUBCHEM_SUBSTANCE_COMMENT>
InChI=1S/C24H25F3N6O2/c1-15-19(20-13-21(31-23(30-20)32(2)3)33-7-9-35-10-8-33)12-18(14-28-15)29-22(34)16-5-4-6-17(11-16)24(25,26)27/h4-6,11-14H,7-10H2,1-3H3,(H,29,34)
InChIKey=OQVUDDGTYDCRPY-UHFFFAOYSA-N

> <PUBCHEM_SUBSTANCE_SYNONYM>
SCHEMBL16121314

> <PUBCHEM_XREF_EXT_ID>
SCHEMBL16121314

> <PUBCHEM_EXT_DATASOURCE_URL>
https://www.surechembl.org/

> <PUBCHEM_EXT_SUBSTANCE_URL>
https://www.surechembl.org/chemical/SCHEMBL16121314

> <PUBCHEM_CID_ASSOCIATIONS>
117609677  1

> <PUBCHEM_COORDINATE_TYPE>
1
3

$$$$
