310931231
  -OEChem-07211613022D

 38 43  0     1  0  0  0  0  0999 V2000
    5.7814   -7.3674    0.0000 F   0  0  0  0  0  0  0  0  0  0  0  0
    4.9628   -5.8325    0.0000 O   0  0  0  0  0  0  0  0  0  0  0  0
    1.5349   -5.8325    0.0000 O   0  0  0  0  0  0  0  0  0  0  0  0
    2.4558  -10.2325    0.0000 O   0  0  0  0  0  0  0  0  0  0  0  0
    2.0465   -3.6326    0.0000 O   0  0  0  0  0  0  0  0  0  0  0  0
    2.8140   -5.1163    0.0000 N   0  0  0  0  0  0  0  0  0  0  0  0
    4.5023   -8.0325    0.0000 N   0  0  0  0  0  0  0  0  0  0  0  0
    3.3256   -2.9163    0.0000 N   0  0  0  0  0  0  0  0  0  0  0  0
    1.5860   -4.3488    0.0000 N   0  0  0  0  0  0  0  0  0  0  0  0
    1.2279   -2.2000    0.0000 N   0  0  0  0  0  0  0  0  0  0  0  0
    0.0000    0.0000    0.0000 N   0  0  0  0  0  0  0  0  0  0  0  0
    3.2744   -5.8325    0.0000 C   0  0  3  0  0  0  0  0  0  0  0  0
    3.6837   -6.5488    0.0000 C   0  0  0  0  0  0  0  0  0  0  0  0
    3.7349   -5.1163    0.0000 C   0  0  0  0  0  0  0  0  0  0  0  0
    4.5534   -6.6000    0.0000 C   0  0  0  0  0  0  0  0  0  0  0  0
    4.5534   -5.1163    0.0000 C   0  0  0  0  0  0  0  0  0  0  0  0
    2.8140   -6.5488    0.0000 C   0  0  0  0  0  0  0  0  0  0  0  0
    3.2744   -7.3163    0.0000 C   0  0  0  0  0  0  0  0  0  0  0  0
    4.9628   -7.3163    0.0000 C   0  0  0  0  0  0  0  0  0  0  0  0
    3.2744   -4.3488    0.0000 C   0  0  0  0  0  0  0  0  0  0  0  0
    3.6837   -7.9814    0.0000 C   0  0  0  0  0  0  0  0  0  0  0  0
    4.9628   -4.3488    0.0000 C   0  0  0  0  0  0  0  0  0  0  0  0
    1.9954   -5.1163    0.0000 C   0  0  0  0  0  0  0  0  0  0  0  0
    3.7349   -3.6837    0.0000 C   0  0  0  0  0  0  0  0  0  0  0  0
    1.9954   -6.5488    0.0000 C   0  0  0  0  0  0  0  0  0  0  0  0
    4.5534   -3.6837    0.0000 C   0  0  0  0  0  0  0  0  0  0  0  0
    3.2744   -8.7488    0.0000 C   0  0  0  0  0  0  0  0  0  0  0  0
    2.4046   -8.7488    0.0000 C   0  0  0  0  0  0  0  0  0  0  0  0
    3.6837   -9.4651    0.0000 C   0  0  0  0  0  0  0  0  0  0  0  0
    2.5070   -2.9163    0.0000 C   0  0  0  0  0  0  0  0  0  0  0  0
    2.0465   -2.2000    0.0000 C   0  0  0  0  0  0  0  0  0  0  0  0
    1.9954   -9.4651    0.0000 C   0  0  0  0  0  0  0  0  0  0  0  0
    3.2744  -10.1814    0.0000 C   0  0  0  0  0  0  0  0  0  0  0  0
    2.5070   -1.4837    0.0000 C   0  0  0  0  0  0  0  0  0  0  0  0
    1.2279   -0.7674    0.0000 C   0  0  0  0  0  0  0  0  0  0  0  0
    0.8186   -1.4837    0.0000 C   0  0  0  0  0  0  0  0  0  0  0  0
    2.0465   -0.7674    0.0000 C   0  0  0  0  0  0  0  0  0  0  0  0
    0.8186    0.0000    0.0000 C   0  0  0  0  0  0  0  0  0  0  0  0
  1 19  1  0  0  0  0
  2 15  1  0  0  0  0
  2 16  1  0  0  0  0
  3 23  1  0  0  0  0
  3 25  1  0  0  0  0
  4 32  1  0  0  0  0
  4 33  1  0  0  0  0
  5 30  2  0  0  0  0
 12  6  1  1  0  0  0
  6 23  2  0  0  0  0
  7 19  1  0  0  0  0
  7 21  2  0  0  0  0
  8 24  1  0  0  0  0
  8 30  1  0  0  0  0
  9 23  1  0  0  0  0
 10 31  1  0  0  0  0
 10 36  2  0  0  0  0
 11 38  3  0  0  0  0
 12 13  1  0  0  0  0
 12 14  1  0  0  0  0
 12 17  1  0  0  0  0
 13 15  1  0  0  0  0
 13 18  2  0  0  0  0
 14 16  2  0  0  0  0
 14 20  1  0  0  0  0
 15 19  2  0  0  0  0
 16 22  1  0  0  0  0
 17 25  1  0  0  0  0
 18 21  1  0  0  0  0
 20 24  2  0  0  0  0
 21 27  1  0  0  0  0
 22 26  2  0  0  0  0
 24 26  1  0  0  0  0
 27 28  2  0  0  0  0
 27 29  1  0  0  0  0
 28 32  1  0  0  0  0
 29 33  1  0  0  0  0
 30 31  1  0  0  0  0
 31 34  2  0  0  0  0
 34 37  1  0  0  0  0
 35 36  1  0  0  0  0
 35 37  2  0  0  0  0
 35 38  1  0  0  0  0
M  END
> <PUBCHEM_COMPOUND_ID_TYPE>
0

> <PUBCHEM_TOTAL_CHARGE>
0

> <PUBCHEM_SUBSTANCE_ID>
310931231

> <PUBCHEM_SUBSTANCE_VERSION>
1

> <PUBCHEM_EXT_DATASOURCE_NAME>
4488

> <PUBCHEM_EXT_DATASOURCE_REGID>
SCHEMBL16108540

> <PUBCHEM_SUBSTANCE_COMMENT>
InChI=1S/C27H21FN6O4/c28-24-23-19(12-21(33-24)16-5-8-36-9-6-16)27(7-10-37-26(30)34-27)18-11-17(2-4-22(18)38-23)32-25(35)20-3-1-15(13-29)14-31-20/h1-5,11-12,14H,6-10H2,(H2,30,34)(H,32,35)/t27-/m0/s1
InChIKey=NBCZERPKOSFQLK-MHZLTWQESA-N

> <PUBCHEM_SUBSTANCE_SYNONYM>
SCHEMBL16108540

> <PUBCHEM_XREF_EXT_ID>
SCHEMBL16108540

> <PUBCHEM_EXT_DATASOURCE_URL>
https://www.surechembl.org/

> <PUBCHEM_EXT_SUBSTANCE_URL>
https://www.surechembl.org/chemical/SCHEMBL16108540

> <PUBCHEM_CID_ASSOCIATIONS>
71542876  1

> <PUBCHEM_COORDINATE_TYPE>
1
3

> <PUBCHEM_BONDANNOTATIONS>
12  6  5

$$$$
