310948532
  -OEChem-07211613022D

 33 35  0     1  0  0  0  0  0999 V2000
   -3.9906    0.0000    0.0000 O   0  0  0  0  0  0  0  0  0  0  0  0
   -4.7112    1.2332    0.0000 O   0  0  0  0  0  0  0  0  0  0  0  0
   -0.2910    2.4664    0.0000 O   0  0  0  0  0  0  0  0  0  0  0  0
    0.4157   -0.4018    0.0000 N   0  0  0  0  0  0  0  0  0  0  0  0
    0.4157    1.2471    0.0000 N   0  0  0  0  0  0  0  0  0  0  0  0
    1.1362    2.4803    0.0000 N   0  0  0  0  0  0  0  0  0  0  0  0
    3.2978    2.0646    0.0000 N   0  0  0  0  0  0  0  0  0  0  0  0
    4.7112    0.4157    0.0000 N   0  0  0  0  0  0  0  0  0  0  0  0
   -2.4664    1.2609    0.0000 C   0  0  3  0  0  0  0  0  0  0  0  0
   -3.2701    1.2609    0.0000 C   0  0  3  0  0  0  0  0  0  0  0  0
   -1.7044    0.8175    0.0000 C   0  0  0  0  0  0  0  0  0  0  0  0
   -2.8821    1.9260    0.0000 C   0  0  0  0  0  0  0  0  0  0  0  0
   -0.2910    0.8452    0.0000 C   0  0  0  0  0  0  0  0  0  0  0  0
   -0.3049    0.0277    0.0000 C   0  0  0  0  0  0  0  0  0  0  0  0
   -1.0254    1.2332    0.0000 C   0  0  0  0  0  0  0  0  0  0  0  0
   -4.0183    0.8452    0.0000 C   0  0  0  0  0  0  0  0  0  0  0  0
   -1.7320    0.0139    0.0000 C   0  0  0  0  0  0  0  0  0  0  0  0
   -1.0115   -0.3880    0.0000 C   0  0  0  0  0  0  0  0  0  0  0  0
    0.4296    2.0646    0.0000 C   0  0  0  0  0  0  0  0  0  0  0  0
    0.4157   -1.2193    0.0000 C   0  0  0  0  0  0  0  0  0  0  0  0
    1.1362    0.0139    0.0000 C   0  0  0  0  0  0  0  0  0  0  0  0
    1.8568    2.0785    0.0000 C   0  0  0  0  0  0  0  0  0  0  0  0
   -0.2910   -1.6212    0.0000 C   0  0  0  0  0  0  0  0  0  0  0  0
    1.8568   -0.4018    0.0000 C   0  0  0  0  0  0  0  0  0  0  0  0
    2.5634    2.4803    0.0000 C   0  0  0  0  0  0  0  0  0  0  0  0
    1.8568    1.2471    0.0000 C   0  0  0  0  0  0  0  0  0  0  0  0
    3.2839    1.2471    0.0000 C   0  0  0  0  0  0  0  0  0  0  0  0
    2.5634    0.8452    0.0000 C   0  0  0  0  0  0  0  0  0  0  0  0
   -1.0254   -1.2193    0.0000 C   0  0  0  0  0  0  0  0  0  0  0  0
   -0.2771   -2.4803    0.0000 C   0  0  0  0  0  0  0  0  0  0  0  0
    2.5772    0.0277    0.0000 C   0  0  0  0  0  0  0  0  0  0  0  0
    1.8568   -1.2332    0.0000 C   0  0  0  0  0  0  0  0  0  0  0  0
    4.0045    0.8175    0.0000 C   0  0  0  0  0  0  0  0  0  0  0  0
  1 16  2  0  0  0  0
  2 16  1  0  0  0  0
  3 19  2  0  0  0  0
  4 14  1  0  0  0  0
  4 20  1  0  0  0  0
  4 21  1  0  0  0  0
  5 13  1  0  0  0  0
  5 19  1  0  0  0  0
  6 19  1  0  0  0  0
  6 22  1  0  0  0  0
  7 25  2  0  0  0  0
  7 27  1  0  0  0  0
  8 33  3  0  0  0  0
  9 10  1  0  0  0  0
  9 11  1  0  0  0  0
  9 12  1  1  0  0  0
 10 12  1  0  0  0  0
 10 16  1  1  0  0  0
 11 15  1  0  0  0  0
 11 17  2  0  0  0  0
 13 14  1  0  0  0  0
 13 15  2  0  0  0  0
 14 18  2  0  0  0  0
 17 18  1  0  0  0  0
 20 23  1  0  0  0  0
 21 24  1  0  0  0  0
 22 25  1  0  0  0  0
 22 26  2  0  0  0  0
 23 29  1  0  0  0  0
 23 30  1  0  0  0  0
 24 31  1  0  0  0  0
 24 32  1  0  0  0  0
 26 28  1  0  0  0  0
 27 28  2  0  0  0  0
 27 33  1  0  0  0  0
M  END
> <PUBCHEM_COMPOUND_ID_TYPE>
0

> <PUBCHEM_TOTAL_CHARGE>
0

> <PUBCHEM_SUBSTANCE_ID>
310948532

> <PUBCHEM_SUBSTANCE_VERSION>
1

> <PUBCHEM_EXT_DATASOURCE_NAME>
4488

> <PUBCHEM_EXT_DATASOURCE_REGID>
SCHEMBL16126714

> <PUBCHEM_SUBSTANCE_COMMENT>
InChI=1S/C25H31N5O3/c1-15(2)13-30(14-16(3)4)23-8-5-17(20-10-21(20)24(31)32)9-22(23)29-25(33)28-19-7-6-18(11-26)27-12-19/h5-9,12,15-16,20-21H,10,13-14H2,1-4H3,(H,31,32)(H2,28,29,33)/t20-,21-/m0/s1
InChIKey=ONVURFSKHBUTRF-SFTDATJTSA-N

> <PUBCHEM_SUBSTANCE_SYNONYM>
SCHEMBL16126714

> <PUBCHEM_XREF_EXT_ID>
SCHEMBL16126714

> <PUBCHEM_EXT_DATASOURCE_URL>
https://www.surechembl.org/

> <PUBCHEM_EXT_SUBSTANCE_URL>
https://www.surechembl.org/chemical/SCHEMBL16126714

> <PUBCHEM_CID_ASSOCIATIONS>
117614089  1

> <PUBCHEM_COORDINATE_TYPE>
1
3

> <PUBCHEM_BONDANNOTATIONS>
10  16  5
9  12  5

$$$$
