310947942
  -OEChem-07211613022D

 27 29  0     1  0  0  0  0  0999 V2000
    2.6812    3.6223    0.0000 O   0  0  0  0  0  0  0  0  0  0  0  0
   -1.8563    5.7657    0.0000 O   0  0  0  0  0  0  0  0  0  0  0  0
   -3.5062    4.3367    0.0000 O   0  0  0  0  0  0  0  0  0  0  0  0
   -4.3312    5.7657    0.0000 O   0  0  0  0  0  0  0  0  0  0  0  0
   -1.0313    4.3367    0.0000 N   0  0  0  0  0  0  0  0  0  0  0  0
   -3.0938    6.4801    0.0000 N   0  0  0  0  0  0  0  0  0  0  0  0
   -0.6187    3.6223    0.0000 C   0  0  0  0  0  0  0  0  0  0  0  0
   -1.8563    4.3367    0.0000 C   0  0  0  0  0  0  0  0  0  0  0  0
    0.2062    3.6223    0.0000 C   0  0  0  0  0  0  0  0  0  0  0  0
   -2.2687    5.0512    0.0000 C   0  0  3  0  0  0  0  0  0  0  0  0
   -3.0938    5.0512    0.0000 C   0  0  3  0  0  0  0  0  0  0  0  0
   -1.0313    2.9078    0.0000 C   0  0  0  0  0  0  0  0  0  0  0  0
    1.8563    3.6223    0.0000 C   0  0  0  0  0  0  0  0  0  0  0  0
   -2.2687    3.6223    0.0000 C   0  0  0  0  0  0  0  0  0  0  0  0
    0.6187    2.9078    0.0000 C   0  0  0  0  0  0  0  0  0  0  0  0
    0.6187    4.3367    0.0000 C   0  0  0  0  0  0  0  0  0  0  0  0
   -1.8563    2.9078    0.0000 C   0  0  0  0  0  0  0  0  0  0  0  0
    1.4437    2.9078    0.0000 C   0  0  0  0  0  0  0  0  0  0  0  0
    1.4437    4.3367    0.0000 C   0  0  0  0  0  0  0  0  0  0  0  0
    3.0938    2.9078    0.0000 C   0  0  0  0  0  0  0  0  0  0  0  0
   -3.5062    5.7657    0.0000 C   0  0  0  0  0  0  0  0  0  0  0  0
    2.6812    2.1933    0.0000 C   0  0  0  0  0  0  0  0  0  0  0  0
    3.9187    2.9078    0.0000 C   0  0  0  0  0  0  0  0  0  0  0  0
    3.9187    1.4789    0.0000 C   0  0  0  0  0  0  0  0  0  0  0  0
    3.0938    1.4789    0.0000 C   0  0  0  0  0  0  0  0  0  0  0  0
    4.3312    2.1933    0.0000 C   0  0  0  0  0  0  0  0  0  0  0  0
    4.3312    0.7644    0.0000 C   0  0  0  0  0  0  0  0  0  0  0  0
  1 13  1  0  0  0  0
  1 20  1  0  0  0  0
 10  2  1  1  0  0  0
 11  3  1  1  0  0  0
  4 21  2  0  0  0  0
  5  7  2  0  0  0  0
  5  8  1  0  0  0  0
  6 21  1  0  0  0  0
  7  9  1  0  0  0  0
  7 12  1  0  0  0  0
  8 10  1  0  0  0  0
  8 14  2  0  0  0  0
  9 15  2  0  0  0  0
  9 16  1  0  0  0  0
 10 11  1  0  0  0  0
 11 21  1  0  0  0  0
 12 17  2  0  0  0  0
 13 18  2  0  0  0  0
 13 19  1  0  0  0  0
 14 17  1  0  0  0  0
 15 18  1  0  0  0  0
 16 19  2  0  0  0  0
 20 22  2  0  0  0  0
 20 23  1  0  0  0  0
 22 25  1  0  0  0  0
 23 26  2  0  0  0  0
 24 25  2  0  0  0  0
 24 26  1  0  0  0  0
 24 27  1  0  0  0  0
M  END
> <PUBCHEM_COMPOUND_ID_TYPE>
0

> <PUBCHEM_TOTAL_CHARGE>
0

> <PUBCHEM_SUBSTANCE_ID>
310947942

> <PUBCHEM_SUBSTANCE_VERSION>
1

> <PUBCHEM_EXT_DATASOURCE_NAME>
4488

> <PUBCHEM_EXT_DATASOURCE_REGID>
SCHEMBL16126116

> <PUBCHEM_SUBSTANCE_COMMENT>
InChI=1S/C21H20N2O4/c1-13-5-9-15(10-6-13)27-16-11-7-14(8-12-16)17-3-2-4-18(23-17)19(24)20(25)21(22)26/h2-12,19-20,24-25H,1H3,(H2,22,26)/t19-,20+/m0/s1
InChIKey=XDFIPFQADFHNLT-VQTJNVASSA-N

> <PUBCHEM_SUBSTANCE_SYNONYM>
SCHEMBL16126116

> <PUBCHEM_XREF_EXT_ID>
SCHEMBL16126116

> <PUBCHEM_EXT_DATASOURCE_URL>
https://www.surechembl.org/

> <PUBCHEM_EXT_SUBSTANCE_URL>
https://www.surechembl.org/chemical/SCHEMBL16126116

> <PUBCHEM_CID_ASSOCIATIONS>
117613598  1

> <PUBCHEM_COORDINATE_TYPE>
1
3

> <PUBCHEM_BONDANNOTATIONS>
10  2  5
11  3  5

$$$$
