310947518
  -OEChem-07211613022D

 22 23  0     1  0  0  0  0  0999 V2000
   -7.9107   -5.1226    0.0000 F   0  0  0  0  0  0  0  0  0  0  0  0
   -7.0857   -3.1386    0.0000 O   0  0  0  0  0  0  0  0  0  0  0  0
   -6.2607   -5.1226    0.0000 O   0  0  0  0  0  0  0  0  0  0  0  0
   -5.7038   -3.2110    0.0000 O   0  0  0  0  0  0  0  0  0  0  0  0
   -7.4982   -5.8371    0.0000 O   0  0  0  0  0  0  0  0  0  0  0  0
   -4.9893   -4.4485    0.0000 O   0  0  0  0  0  0  0  0  0  0  0  0
   -6.6732   -4.4081    0.0000 C   0  0  3  0  0  0  0  0  0  0  0  0
   -6.4182   -3.6235    0.0000 C   0  0  3  0  0  0  0  0  0  0  0  0
   -7.4982   -4.4081    0.0000 C   0  0  3  0  0  0  0  0  0  0  0  0
   -7.7531   -3.6235    0.0000 C   0  0  3  0  0  0  0  0  0  0  0  0
   -6.6732   -5.8371    0.0000 C   0  0  0  0  0  0  0  0  0  0  0  0
   -5.9587   -3.9956    0.0000 C   0  0  0  0  0  0  0  0  0  0  0  0
   -8.1656   -2.9090    0.0000 C   0  0  0  0  0  0  0  0  0  0  0  0
   -6.2607   -6.5515    0.0000 C   0  0  0  0  0  0  0  0  0  0  0  0
   -4.9893   -3.6235    0.0000 C   0  0  0  0  0  0  0  0  0  0  0  0
   -6.6732   -7.2660    0.0000 C   0  0  0  0  0  0  0  0  0  0  0  0
   -5.4357   -6.5515    0.0000 C   0  0  0  0  0  0  0  0  0  0  0  0
   -8.9906   -2.9090    0.0000 C   0  0  0  0  0  0  0  0  0  0  0  0
   -4.2748   -3.2110    0.0000 C   0  0  0  0  0  0  0  0  0  0  0  0
   -6.2607   -7.9805    0.0000 C   0  0  0  0  0  0  0  0  0  0  0  0
   -5.0232   -7.2660    0.0000 C   0  0  0  0  0  0  0  0  0  0  0  0
   -5.4357   -7.9805    0.0000 C   0  0  0  0  0  0  0  0  0  0  0  0
  9  1  1  6  0  0  0
  2  8  1  0  0  0  0
  2 10  1  0  0  0  0
  7  3  1  6  0  0  0
  3 11  1  0  0  0  0
  4  8  1  0  0  0  0
  4 15  1  0  0  0  0
  5 11  2  0  0  0  0
  6 15  2  0  0  0  0
  7  8  1  0  0  0  0
  7  9  1  0  0  0  0
  7 12  1  1  0  0  0
  9 10  1  0  0  0  0
 10 13  1  1  0  0  0
 11 14  1  0  0  0  0
 13 18  1  0  0  0  0
 14 16  2  0  0  0  0
 14 17  1  0  0  0  0
 15 19  1  0  0  0  0
 16 20  1  0  0  0  0
 17 21  2  0  0  0  0
 20 22  2  0  0  0  0
 21 22  1  0  0  0  0
M  END
> <PUBCHEM_COMPOUND_ID_TYPE>
0

> <PUBCHEM_TOTAL_CHARGE>
0

> <PUBCHEM_SUBSTANCE_ID>
310947518

> <PUBCHEM_SUBSTANCE_VERSION>
1

> <PUBCHEM_EXT_DATASOURCE_NAME>
4488

> <PUBCHEM_EXT_DATASOURCE_REGID>
SCHEMBL16125680

> <PUBCHEM_SUBSTANCE_COMMENT>
InChI=1S/C16H19FO5/c1-4-12-13(17)16(3,15(21-12)20-10(2)18)22-14(19)11-8-6-5-7-9-11/h5-9,12-13,15H,4H2,1-3H3/t12-,13-,15?,16-/m1/s1
InChIKey=QOSVJEUBFZHYHT-IKCLOSNESA-N

> <PUBCHEM_SUBSTANCE_SYNONYM>
SCHEMBL16125680

> <PUBCHEM_XREF_EXT_ID>
SCHEMBL16125680

> <PUBCHEM_EXT_DATASOURCE_URL>
https://www.surechembl.org/

> <PUBCHEM_EXT_SUBSTANCE_URL>
https://www.surechembl.org/chemical/SCHEMBL16125680

> <PUBCHEM_CID_ASSOCIATIONS>
117613240  1

> <PUBCHEM_COORDINATE_TYPE>
1
3

> <PUBCHEM_BONDANNOTATIONS>
9  1  6
10  13  5
7  3  6
8  4  3
7  12  5

$$$$
