310948551
  -OEChem-07211613022D

 47 51  0     0  0  0  0  0  0999 V2000
    4.7031   -2.5878    0.0000 S   0  0  0  0  0  0  0  0  0  0  0  0
    4.1662    3.2535    0.0000 F   0  0  0  0  0  0  0  0  0  0  0  0
    3.1569    2.6522    0.0000 F   0  0  0  0  0  0  0  0  0  0  0  0
    4.7031    2.2013    0.0000 F   0  0  0  0  0  0  0  0  0  0  0  0
   -0.5368   -0.1611    0.0000 O   0  0  0  0  0  0  0  0  0  0  0  0
    3.6938    1.6643    0.0000 O   0  0  0  0  0  0  0  0  0  0  0  0
   -2.4267   -0.1611    0.0000 O   0  0  0  0  0  0  0  0  0  0  0  0
    4.0374   -3.0602    0.0000 O   0  0  0  0  0  0  0  0  0  0  0  0
    5.1970   -3.2535    0.0000 O   0  0  0  0  0  0  0  0  0  0  0  0
   -5.2830   -0.9771    0.0000 O   0  0  0  0  0  0  0  0  0  0  0  0
   -0.7946   -2.3945    0.0000 N   0  0  0  0  0  0  0  0  0  0  0  0
   -0.1288    1.1275    0.0000 N   0  0  0  0  0  0  0  0  0  0  0  0
   -1.6107   -2.2227    0.0000 N   0  0  0  0  0  0  0  0  0  0  0  0
   -3.1354   -1.3851    0.0000 N   0  0  0  0  0  0  0  0  0  0  0  0
    0.7732   -0.8053    0.0000 C   0  0  0  0  0  0  0  0  0  0  0  0
    0.3006   -0.1611    0.0000 C   0  0  0  0  0  0  0  0  0  0  0  0
    0.4295   -1.5569    0.0000 C   0  0  0  0  0  0  0  0  0  0  0  0
   -0.3650   -1.6428    0.0000 C   0  0  0  0  0  0  0  0  0  0  0  0
    0.5583    0.6549    0.0000 C   0  0  0  0  0  0  0  0  0  0  0  0
    1.6107   -0.7410    0.0000 C   0  0  0  0  0  0  0  0  0  0  0  0
    2.0830   -1.3851    0.0000 C   0  0  0  0  0  0  0  0  0  0  0  0
    1.3315    0.9128    0.0000 C   0  0  0  0  0  0  0  0  0  0  0  0
    0.9449   -2.2442    0.0000 C   0  0  0  0  0  0  0  0  0  0  0  0
   -0.7946    0.6549    0.0000 C   0  0  0  0  0  0  0  0  0  0  0  0
   -0.9449   -1.0416    0.0000 C   0  0  0  0  0  0  0  0  0  0  0  0
   -1.6750   -1.3851    0.0000 C   0  0  0  0  0  0  0  0  0  0  0  0
    1.7610   -2.1583    0.0000 C   0  0  0  0  0  0  0  0  0  0  0  0
    2.8992   -1.2993    0.0000 C   0  0  0  0  0  0  0  0  0  0  0  0
   -2.4267   -0.9771    0.0000 C   0  0  0  0  0  0  0  0  0  0  0  0
    1.9542    0.3543    0.0000 C   0  0  0  0  0  0  0  0  0  0  0  0
    1.5247    1.7073    0.0000 C   0  0  0  0  0  0  0  0  0  0  0  0
    3.3930   -1.9649    0.0000 C   0  0  0  0  0  0  0  0  0  0  0  0
    4.2091   -1.8791    0.0000 C   0  0  0  0  0  0  0  0  0  0  0  0
    3.2642   -0.5691    0.0000 C   0  0  0  0  0  0  0  0  0  0  0  0
   -0.4510   -3.1461    0.0000 C   0  0  0  0  0  0  0  0  0  0  0  0
    2.9206    1.4281    0.0000 C   0  0  0  0  0  0  0  0  0  0  0  0
    2.7274    0.6120    0.0000 C   0  0  0  0  0  0  0  0  0  0  0  0
    2.2764    1.9434    0.0000 C   0  0  0  0  0  0  0  0  0  0  0  0
   -1.9757    0.8913    0.0000 C   0  0  0  0  0  0  0  0  0  0  0  0
    4.5527   -1.1275    0.0000 C   0  0  0  0  0  0  0  0  0  0  0  0
    4.0803   -0.4832    0.0000 C   0  0  0  0  0  0  0  0  0  0  0  0
    3.9300    2.4375    0.0000 C   0  0  0  0  0  0  0  0  0  0  0  0
   -3.8441   -0.9771    0.0000 C   0  0  0  0  0  0  0  0  0  0  0  0
    5.3688   -2.0938    0.0000 C   0  0  0  0  0  0  0  0  0  0  0  0
   -4.5527   -1.3851    0.0000 C   0  0  0  0  0  0  0  0  0  0  0  0
   -4.1448   -2.1154    0.0000 C   0  0  0  0  0  0  0  0  0  0  0  0
   -5.3688   -2.1154    0.0000 C   0  0  0  0  0  0  0  0  0  0  0  0
  1  8  2  0  0  0  0
  1  9  2  0  0  0  0
  1 33  1  0  0  0  0
  1 44  1  0  0  0  0
  2 42  1  0  0  0  0
  3 42  1  0  0  0  0
  4 42  1  0  0  0  0
  5 16  1  0  0  0  0
  5 24  1  0  0  0  0
  6 36  1  0  0  0  0
  6 42  1  0  0  0  0
  7 29  2  0  0  0  0
 10 45  1  0  0  0  0
 11 13  1  0  0  0  0
 11 18  1  0  0  0  0
 11 35  1  0  0  0  0
 12 19  1  0  0  0  0
 12 24  2  0  0  0  0
 13 26  2  0  0  0  0
 14 29  1  0  0  0  0
 14 43  1  0  0  0  0
 15 16  1  0  0  0  0
 15 17  1  0  0  0  0
 15 20  2  0  0  0  0
 16 19  2  0  0  0  0
 17 18  1  0  0  0  0
 17 23  2  0  0  0  0
 18 25  2  0  0  0  0
 19 22  1  0  0  0  0
 20 21  1  0  0  0  0
 21 27  2  0  0  0  0
 21 28  1  0  0  0  0
 22 30  2  0  0  0  0
 22 31  1  0  0  0  0
 23 27  1  0  0  0  0
 24 39  1  0  0  0  0
 25 26  1  0  0  0  0
 26 29  1  0  0  0  0
 28 32  2  0  0  0  0
 28 34  1  0  0  0  0
 30 37  1  0  0  0  0
 31 38  2  0  0  0  0
 32 33  1  0  0  0  0
 33 40  2  0  0  0  0
 34 41  2  0  0  0  0
 36 37  2  0  0  0  0
 36 38  1  0  0  0  0
 40 41  1  0  0  0  0
 43 45  1  0  0  0  0
 45 46  1  0  0  0  0
 45 47  1  0  0  0  0
M  END
> <PUBCHEM_COMPOUND_ID_TYPE>
0

> <PUBCHEM_TOTAL_CHARGE>
0

> <PUBCHEM_SUBSTANCE_ID>
310948551

> <PUBCHEM_SUBSTANCE_VERSION>
1

> <PUBCHEM_EXT_DATASOURCE_NAME>
4488

> <PUBCHEM_EXT_DATASOURCE_REGID>
SCHEMBL16126733

> <PUBCHEM_SUBSTANCE_COMMENT>
InChI=1S/C33H31F3N4O6S/c1-19-38-29(20-9-12-23(13-10-20)46-33(34,35)36)30(45-19)26-16-22(21-7-6-8-24(15-21)47(5,43)44)11-14-25(26)28-17-27(39-40(28)4)31(41)37-18-32(2,3)42/h6-17,42H,18H2,1-5H3,(H,37,41)
InChIKey=UWQIZFDYLUVAHP-UHFFFAOYSA-N

> <PUBCHEM_SUBSTANCE_SYNONYM>
SCHEMBL16126733

> <PUBCHEM_XREF_EXT_ID>
SCHEMBL16126733

> <PUBCHEM_EXT_DATASOURCE_URL>
https://www.surechembl.org/

> <PUBCHEM_EXT_SUBSTANCE_URL>
https://www.surechembl.org/chemical/SCHEMBL16126733

> <PUBCHEM_CID_ASSOCIATIONS>
117614103  1

> <PUBCHEM_COORDINATE_TYPE>
1
3

$$$$
