310943118
  -OEChem-07211613022D

 39 42  0     0  0  0  0  0  0999 V2000
    3.9425    1.3240    0.0000 F   0  0  0  0  0  0  0  0  0  0  0  0
    5.0311    1.0151    0.0000 F   0  0  0  0  0  0  0  0  0  0  0  0
    4.7223   -0.0883    0.0000 F   0  0  0  0  0  0  0  0  0  0  0  0
   -3.5895    0.2059    0.0000 O   0  0  0  0  0  0  0  0  0  0  0  0
    0.7356    0.2059    0.0000 O   0  0  0  0  0  0  0  0  0  0  0  0
   -5.0311    2.6921    0.0000 O   0  0  0  0  0  0  0  0  0  0  0  0
   -3.5895    1.8683    0.0000 N   0  0  0  0  0  0  0  0  0  0  0  0
   -2.1478    0.2059    0.0000 N   0  0  0  0  0  0  0  0  0  0  0  0
    1.4417    1.4564    0.0000 N   0  0  0  0  0  0  0  0  0  0  0  0
    0.0000    3.1188    0.0000 N   0  0  0  0  0  0  0  0  0  0  0  0
    3.6042   -2.2802    0.0000 N   0  0  0  0  0  0  0  0  0  0  0  0
   -1.4270    1.4564    0.0000 C   0  0  0  0  0  0  0  0  0  0  0  0
   -0.7209    1.8683    0.0000 C   0  0  0  0  0  0  0  0  0  0  0  0
   -2.8539    1.4564    0.0000 C   0  0  0  0  0  0  0  0  0  0  0  0
   -2.8833    0.6326    0.0000 C   0  0  0  0  0  0  0  0  0  0  0  0
   -2.1626    1.8683    0.0000 C   0  0  0  0  0  0  0  0  0  0  0  0
   -0.7061    2.7069    0.0000 C   0  0  0  0  0  0  0  0  0  0  0  0
    2.1772    0.2059    0.0000 C   0  0  0  0  0  0  0  0  0  0  0  0
    3.6189    0.2059    0.0000 C   0  0  0  0  0  0  0  0  0  0  0  0
    0.7209    1.8683    0.0000 C   0  0  0  0  0  0  0  0  0  0  0  0
    0.0147    1.4564    0.0000 C   0  0  0  0  0  0  0  0  0  0  0  0
   -1.4417    0.6178    0.0000 C   0  0  0  0  0  0  0  0  0  0  0  0
    1.4564    0.6473    0.0000 C   0  0  0  0  0  0  0  0  0  0  0  0
    4.3250    0.6178    0.0000 C   0  0  0  0  0  0  0  0  0  0  0  0
    2.8833    0.6178    0.0000 C   0  0  0  0  0  0  0  0  0  0  0  0
    2.8981   -1.0298    0.0000 C   0  0  0  0  0  0  0  0  0  0  0  0
    2.1772   -0.6178    0.0000 C   0  0  0  0  0  0  0  0  0  0  0  0
    3.6042   -0.6178    0.0000 C   0  0  0  0  0  0  0  0  0  0  0  0
    0.7356    2.6921    0.0000 C   0  0  0  0  0  0  0  0  0  0  0  0
   -3.5895    2.6921    0.0000 C   0  0  0  0  0  0  0  0  0  0  0  0
   -4.2809    1.4711    0.0000 C   0  0  0  0  0  0  0  0  0  0  0  0
    2.8981   -1.8536    0.0000 C   0  0  0  0  0  0  0  0  0  0  0  0
   -1.4417    3.1040    0.0000 C   0  0  0  0  0  0  0  0  0  0  0  0
   -4.2956    3.1188    0.0000 C   0  0  0  0  0  0  0  0  0  0  0  0
   -5.0165    1.8683    0.0000 C   0  0  0  0  0  0  0  0  0  0  0  0
   -4.2956    0.6326    0.0000 C   0  0  0  0  0  0  0  0  0  0  0  0
    3.6337   -3.1188    0.0000 C   0  0  0  0  0  0  0  0  0  0  0  0
    4.3545   -1.8536    0.0000 C   0  0  0  0  0  0  0  0  0  0  0  0
   -5.0311    0.2207    0.0000 C   0  0  0  0  0  0  0  0  0  0  0  0
  1 24  1  0  0  0  0
  2 24  1  0  0  0  0
  3 24  1  0  0  0  0
  4 15  1  0  0  0  0
  4 36  1  0  0  0  0
  5 23  2  0  0  0  0
  6 34  1  0  0  0  0
  6 35  1  0  0  0  0
  7 14  1  0  0  0  0
  7 30  1  0  0  0  0
  7 31  1  0  0  0  0
  8 15  2  0  0  0  0
  8 22  1  0  0  0  0
  9 20  1  0  0  0  0
  9 23  1  0  0  0  0
 10 17  1  0  0  0  0
 10 29  2  0  0  0  0
 11 32  1  0  0  0  0
 11 37  1  0  0  0  0
 11 38  1  0  0  0  0
 12 13  1  0  0  0  0
 12 16  1  0  0  0  0
 12 22  2  0  0  0  0
 13 17  2  0  0  0  0
 13 21  1  0  0  0  0
 14 15  1  0  0  0  0
 14 16  2  0  0  0  0
 17 33  1  0  0  0  0
 18 23  1  0  0  0  0
 18 25  1  0  0  0  0
 18 27  2  0  0  0  0
 19 24  1  0  0  0  0
 19 25  2  0  0  0  0
 19 28  1  0  0  0  0
 20 21  2  0  0  0  0
 20 29  1  0  0  0  0
 26 27  1  0  0  0  0
 26 28  2  0  0  0  0
 26 32  1  0  0  0  0
 30 34  1  0  0  0  0
 31 35  1  0  0  0  0
 36 39  1  0  0  0  0
M  END
> <PUBCHEM_COMPOUND_ID_TYPE>
0

> <PUBCHEM_TOTAL_CHARGE>
0

> <PUBCHEM_SUBSTANCE_ID>
310943118

> <PUBCHEM_SUBSTANCE_VERSION>
1

> <PUBCHEM_EXT_DATASOURCE_NAME>
4488

> <PUBCHEM_EXT_DATASOURCE_REGID>
SCHEMBL16121178

> <PUBCHEM_SUBSTANCE_COMMENT>
InChI=1S/C28H32F3N5O3/c1-5-39-27-25(36-6-8-38-9-7-36)13-21(15-33-27)24-14-23(16-32-18(24)2)34-26(37)20-10-19(17-35(3)4)11-22(12-20)28(29,30)31/h10-16H,5-9,17H2,1-4H3,(H,34,37)
InChIKey=LFRYLTBUNLFVKS-UHFFFAOYSA-N

> <PUBCHEM_SUBSTANCE_SYNONYM>
SCHEMBL16121178

> <PUBCHEM_XREF_EXT_ID>
SCHEMBL16121178

> <PUBCHEM_EXT_DATASOURCE_URL>
https://www.surechembl.org/

> <PUBCHEM_EXT_SUBSTANCE_URL>
https://www.surechembl.org/chemical/SCHEMBL16121178

> <PUBCHEM_CID_ASSOCIATIONS>
117609548  1

> <PUBCHEM_COORDINATE_TYPE>
1
3

$$$$
