310945368
  -OEChem-07211613022D

  9  9  0     0  0  0  0  0  0999 V2000
   -0.9418    1.3405    0.0000 I   0  0  0  0  0  0  0  0  0  0  0  0
   -0.4881    0.1718    0.0000 N   0  0  0  0  0  0  0  0  0  0  0  0
    0.2269    1.4093    0.0000 N   0  0  0  0  0  0  0  0  0  0  0  0
   -0.4881    1.0106    0.0000 C   0  0  0  0  0  0  0  0  0  0  0  0
    0.2269   -0.2406    0.0000 C   0  0  0  0  0  0  0  0  0  0  0  0
    0.9280    0.1718    0.0000 C   0  0  0  0  0  0  0  0  0  0  0  0
    0.9418    0.9968    0.0000 C   0  0  0  0  0  0  0  0  0  0  0  0
    0.2131   -1.0655    0.0000 C   0  0  0  0  0  0  0  0  0  0  0  0
   -0.5293   -1.4093    0.0000 C   0  0  0  0  0  0  0  0  0  0  0  0
  1  4  1  0  0  0  0
  2  4  2  0  0  0  0
  2  5  1  0  0  0  0
  3  4  1  0  0  0  0
  3  7  2  0  0  0  0
  5  6  2  0  0  0  0
  5  8  1  0  0  0  0
  6  7  1  0  0  0  0
  8  9  2  0  0  0  0
M  END
> <PUBCHEM_COMPOUND_ID_TYPE>
0

> <PUBCHEM_TOTAL_CHARGE>
0

> <PUBCHEM_SUBSTANCE_ID>
310945368

> <PUBCHEM_SUBSTANCE_VERSION>
1

> <PUBCHEM_EXT_DATASOURCE_NAME>
4488

> <PUBCHEM_EXT_DATASOURCE_REGID>
SCHEMBL16123466

> <PUBCHEM_SUBSTANCE_COMMENT>
InChI=1S/C6H5IN2/c1-2-5-3-4-8-6(7)9-5/h2-4H,1H2
InChIKey=XAELGMQPIDSKEL-UHFFFAOYSA-N

> <PUBCHEM_SUBSTANCE_SYNONYM>
SCHEMBL16123466

> <PUBCHEM_XREF_EXT_ID>
SCHEMBL16123466

> <PUBCHEM_EXT_DATASOURCE_URL>
https://www.surechembl.org/

> <PUBCHEM_EXT_SUBSTANCE_URL>
https://www.surechembl.org/chemical/SCHEMBL16123466

> <PUBCHEM_CID_ASSOCIATIONS>
117611423  1

> <PUBCHEM_COORDINATE_TYPE>
1
3

$$$$
