310939452
  -OEChem-07211613022D

 31 34  0     0  0  0  0  0  0999 V2000
    0.9779   -1.8806    0.0000 S   0  0  0  0  0  0  0  0  0  0  0  0
    3.1481    1.1191    0.0000 F   0  0  0  0  0  0  0  0  0  0  0  0
    3.4501    2.2461    0.0000 F   0  0  0  0  0  0  0  0  0  0  0  0
    2.3231    2.5481    0.0000 F   0  0  0  0  0  0  0  0  0  0  0  0
   -2.7104   -1.8952    0.0000 O   0  0  0  0  0  0  0  0  0  0  0  0
   -3.4501    0.8653    0.0000 O   0  0  0  0  0  0  0  0  0  0  0  0
   -0.3320   -1.2132    0.0000 N   0  0  0  0  0  0  0  0  0  0  0  0
    1.2365    1.6761    0.0000 N   0  0  0  0  0  0  0  0  0  0  0  0
   -1.1166   -2.2931    0.0000 N   0  0  0  0  0  0  0  0  0  0  0  0
   -0.3320   -2.5481    0.0000 N   0  0  0  0  0  0  0  0  0  0  0  0
   -1.1166   -1.4681    0.0000 C   0  0  0  0  0  0  0  0  0  0  0  0
    0.0805   -0.4987    0.0000 C   0  0  0  0  0  0  0  0  0  0  0  0
    1.2365    0.3412    0.0000 C   0  0  0  0  0  0  0  0  0  0  0  0
    0.7516    1.0086    0.0000 C   0  0  0  0  0  0  0  0  0  0  0  0
    2.0211    1.4211    0.0000 C   0  0  0  0  0  0  0  0  0  0  0  0
   -1.7000   -0.8848    0.0000 C   0  0  0  0  0  0  0  0  0  0  0  0
    0.9010   -0.4125    0.0000 C   0  0  0  0  0  0  0  0  0  0  0  0
    0.1529   -1.8806    0.0000 C   0  0  0  0  0  0  0  0  0  0  0  0
    2.0211    0.5961    0.0000 C   0  0  0  0  0  0  0  0  0  0  0  0
    2.7356    1.8336    0.0000 C   0  0  0  0  0  0  0  0  0  0  0  0
   -0.4044    0.1687    0.0000 C   0  0  0  0  0  0  0  0  0  0  0  0
   -0.0689    0.9224    0.0000 C   0  0  0  0  0  0  0  0  0  0  0  0
   -2.4969   -1.0983    0.0000 C   0  0  0  0  0  0  0  0  0  0  0  0
   -1.4865   -0.0879    0.0000 C   0  0  0  0  0  0  0  0  0  0  0  0
   -2.0698    0.4955    0.0000 C   0  0  0  0  0  0  0  0  0  0  0  0
   -2.8667    0.2819    0.0000 C   0  0  0  0  0  0  0  0  0  0  0  0
   -3.0803   -0.5149    0.0000 C   0  0  0  0  0  0  0  0  0  0  0  0
    0.8240    2.3905    0.0000 C   0  0  0  0  0  0  0  0  0  0  0  0
   -1.8563    1.2924    0.0000 C   0  0  0  0  0  0  0  0  0  0  0  0
   -1.0594    1.5059    0.0000 C   0  0  0  0  0  0  0  0  0  0  0  0
   -2.4397    1.8757    0.0000 C   0  0  0  0  0  0  0  0  0  0  0  0
  1 18  2  0  0  0  0
  2 20  1  0  0  0  0
  3 20  1  0  0  0  0
  4 20  1  0  0  0  0
  5 23  1  0  0  0  0
  6 26  1  0  0  0  0
  7 11  1  0  0  0  0
  7 12  1  0  0  0  0
  7 18  1  0  0  0  0
  8 14  1  0  0  0  0
  8 15  1  0  0  0  0
  8 28  1  0  0  0  0
  9 10  1  0  0  0  0
  9 11  2  0  0  0  0
 10 18  1  0  0  0  0
 11 16  1  0  0  0  0
 12 17  2  0  0  0  0
 12 21  1  0  0  0  0
 13 14  2  0  0  0  0
 13 17  1  0  0  0  0
 13 19  1  0  0  0  0
 14 22  1  0  0  0  0
 15 19  2  0  0  0  0
 15 20  1  0  0  0  0
 16 23  1  0  0  0  0
 16 24  2  0  0  0  0
 21 22  2  0  0  0  0
 23 27  2  0  0  0  0
 24 25  1  0  0  0  0
 25 26  2  0  0  0  0
 25 29  1  0  0  0  0
 26 27  1  0  0  0  0
 29 30  1  0  0  0  0
 29 31  1  0  0  0  0
M  END
> <PUBCHEM_COMPOUND_ID_TYPE>
0

> <PUBCHEM_TOTAL_CHARGE>
0

> <PUBCHEM_SUBSTANCE_ID>
310939452

> <PUBCHEM_SUBSTANCE_VERSION>
1

> <PUBCHEM_EXT_DATASOURCE_NAME>
4488

> <PUBCHEM_EXT_DATASOURCE_REGID>
SCHEMBL16117376

> <PUBCHEM_SUBSTANCE_COMMENT>
InChI=1S/C21H19F3N4O2S/c1-10(2)13-8-14(17(30)9-16(13)29)19-25-26-20(31)28(19)12-4-5-15-11(6-12)7-18(27(15)3)21(22,23)24/h4-10,29-30H,1-3H3,(H,26,31)
InChIKey=OOCUQQSQAHDTJE-UHFFFAOYSA-N

> <PUBCHEM_SUBSTANCE_SYNONYM>
SCHEMBL16117376

> <PUBCHEM_XREF_EXT_ID>
SCHEMBL16117376

> <PUBCHEM_EXT_DATASOURCE_URL>
https://www.surechembl.org/

> <PUBCHEM_EXT_SUBSTANCE_URL>
https://www.surechembl.org/chemical/SCHEMBL16117376

> <PUBCHEM_CID_ASSOCIATIONS>
58102257  1

> <PUBCHEM_COORDINATE_TYPE>
1
3

$$$$
