310940653
  -OEChem-07211613022D

 41 46  0     1  0  0  0  0  0999 V2000
    2.5562    2.3868    0.0000 F   0  0  0  0  0  0  0  0  0  0  0  0
   -1.1418    0.1620    0.0000 O   0  0  0  0  0  0  0  0  0  0  0  0
    3.5139   -2.8140    0.0000 O   0  0  0  0  0  0  0  0  0  0  0  0
    2.2763   -2.0921    0.0000 O   0  0  0  0  0  0  0  0  0  0  0  0
    1.7901    0.0148    0.0000 N   0  0  0  0  0  0  0  0  0  0  0  0
    1.7901   -1.3260    0.0000 N   0  0  0  0  0  0  0  0  0  0  0  0
   -0.6851    1.6944    0.0000 N   0  0  0  0  0  0  0  0  0  0  0  0
   -3.2929   -0.2358    0.0000 N   0  0  0  0  0  0  0  0  0  0  0  0
    2.2468   -0.6483    0.0000 C   0  0  0  0  0  0  0  0  0  0  0  0
    1.0092   -0.2358    0.0000 C   0  0  0  0  0  0  0  0  0  0  0  0
    0.9945   -1.0461    0.0000 C   0  0  0  0  0  0  0  0  0  0  0  0
    3.1160   -0.6630    0.0000 C   0  0  3  0  0  0  0  0  0  0  0  0
    2.0405    0.8103    0.0000 C   0  0  0  0  0  0  0  0  0  0  0  0
    0.2726    0.1620    0.0000 C   0  0  0  0  0  0  0  0  0  0  0  0
    3.5286   -1.3407    0.0000 C   0  0  3  0  0  0  0  0  0  0  0  0
    0.2873   -1.4733    0.0000 C   0  0  0  0  0  0  0  0  0  0  0  0
    1.4954    1.4291    0.0000 C   0  0  0  0  0  0  0  0  0  0  0  0
   -0.4199   -0.2358    0.0000 C   0  0  0  0  0  0  0  0  0  0  0  0
    3.5286    0.0590    0.0000 C   0  0  0  0  0  0  0  0  0  0  0  0
   -0.4199   -1.0608    0.0000 C   0  0  0  0  0  0  0  0  0  0  0  0
    1.7312    2.2247    0.0000 C   0  0  0  0  0  0  0  0  0  0  0  0
    3.0866   -2.0774    0.0000 C   0  0  0  0  0  0  0  0  0  0  0  0
    0.6999    1.2523    0.0000 C   0  0  0  0  0  0  0  0  0  0  0  0
    4.3389   -1.3554    0.0000 C   0  0  0  0  0  0  0  0  0  0  0  0
    0.1252    1.8711    0.0000 C   0  0  0  0  0  0  0  0  0  0  0  0
    4.3389    0.0590    0.0000 C   0  0  0  0  0  0  0  0  0  0  0  0
    4.7368   -0.6630    0.0000 C   0  0  0  0  0  0  0  0  0  0  0  0
    1.2008    2.8140    0.0000 C   0  0  0  0  0  0  0  0  0  0  0  0
    0.3904    2.6520    0.0000 C   0  0  0  0  0  0  0  0  0  0  0  0
   -1.8490   -0.2358    0.0000 C   0  0  0  0  0  0  0  0  0  0  0  0
   -1.2302    2.3131    0.0000 C   0  0  0  0  0  0  0  0  0  0  0  0
   -0.9355    0.9135    0.0000 C   0  0  0  0  0  0  0  0  0  0  0  0
   -2.5857    0.1916    0.0000 C   0  0  0  0  0  0  0  0  0  0  0  0
   -2.0405    2.1363    0.0000 C   0  0  0  0  0  0  0  0  0  0  0  0
   -1.7164    0.7367    0.0000 C   0  0  0  0  0  0  0  0  0  0  0  0
   -2.5709    1.0019    0.0000 C   0  0  0  0  0  0  0  0  0  0  0  0
   -2.2910    1.3407    0.0000 C   0  0  0  0  0  0  0  0  0  0  0  0
   -4.0001    0.1768    0.0000 C   0  0  0  0  0  0  0  0  0  0  0  0
   -3.3076    1.4144    0.0000 C   0  0  0  0  0  0  0  0  0  0  0  0
   -4.0001    1.0019    0.0000 C   0  0  0  0  0  0  0  0  0  0  0  0
   -4.7368    1.3996    0.0000 C   0  0  0  0  0  0  0  0  0  0  0  0
  1 21  1  0  0  0  0
  2 18  1  0  0  0  0
  2 30  1  0  0  0  0
  3 22  2  0  0  0  0
  4 22  1  0  0  0  0
  5  9  1  0  0  0  0
  5 10  1  0  0  0  0
  5 13  1  0  0  0  0
  6  9  2  0  0  0  0
  6 11  1  0  0  0  0
  7 25  1  0  0  0  0
  7 31  1  0  0  0  0
  7 32  1  0  0  0  0
  8 33  1  0  0  0  0
  8 38  2  0  0  0  0
 12  9  1  1  0  0  0
 10 11  1  0  0  0  0
 10 14  2  0  0  0  0
 11 16  2  0  0  0  0
 12 15  1  0  0  0  0
 12 19  1  0  0  0  0
 13 17  1  0  0  0  0
 14 18  1  0  0  0  0
 15 22  1  1  0  0  0
 15 24  1  0  0  0  0
 16 20  1  0  0  0  0
 17 21  1  0  0  0  0
 17 23  2  0  0  0  0
 18 20  2  0  0  0  0
 19 26  1  0  0  0  0
 21 28  2  0  0  0  0
 23 25  1  0  0  0  0
 24 27  1  0  0  0  0
 25 29  2  0  0  0  0
 26 27  1  0  0  0  0
 28 29  1  0  0  0  0
 30 33  1  0  0  0  0
 31 34  1  0  0  0  0
 32 35  1  0  0  0  0
 33 36  2  0  0  0  0
 34 37  1  0  0  0  0
 35 37  1  0  0  0  0
 36 39  1  0  0  0  0
 38 40  1  0  0  0  0
 39 40  2  0  0  0  0
 40 41  1  0  0  0  0
M  END
> <PUBCHEM_COMPOUND_ID_TYPE>
0

> <PUBCHEM_TOTAL_CHARGE>
0

> <PUBCHEM_SUBSTANCE_ID>
310940653

> <PUBCHEM_SUBSTANCE_VERSION>
1

> <PUBCHEM_EXT_DATASOURCE_NAME>
4488

> <PUBCHEM_EXT_DATASOURCE_REGID>
SCHEMBL16118608

> <PUBCHEM_SUBSTANCE_COMMENT>
InChI=1S/C33H37FN4O3/c1-22-9-10-24(35-19-22)21-41-26-12-14-30-31(18-26)38(32(36-30)27-7-3-4-8-28(27)33(39)40)20-23-17-25(11-13-29(23)34)37-15-5-2-6-16-37/h9-14,17-19,27-28H,2-8,15-16,20-21H2,1H3,(H,39,40)/t27-,28+/m0/s1
InChIKey=KQBWPSIFHWACEU-WUFINQPMSA-N

> <PUBCHEM_SUBSTANCE_SYNONYM>
SCHEMBL16118608

> <PUBCHEM_XREF_EXT_ID>
SCHEMBL16118608

> <PUBCHEM_EXT_DATASOURCE_URL>
https://www.surechembl.org/

> <PUBCHEM_EXT_SUBSTANCE_URL>
https://www.surechembl.org/chemical/SCHEMBL16118608

> <PUBCHEM_CID_ASSOCIATIONS>
117607630  1

> <PUBCHEM_COORDINATE_TYPE>
1
3

> <PUBCHEM_BONDANNOTATIONS>
15  22  5
12  9  5

$$$$
