310929792
  -OEChem-07211613022D

 75 81  0     1  0  0  0  0  0999 V2000
    2.5219   -7.7398    0.0000 O   0  0  0  0  0  0  0  0  0  0  0  0
   11.2183   -3.1307    0.0000 O   0  0  0  0  0  0  0  0  0  0  0  0
    6.0874   -8.6964    0.0000 O   0  0  0  0  0  0  0  0  0  0  0  0
    8.6094   -5.7396    0.0000 O   0  0  0  0  0  0  0  0  0  0  0  0
    5.3048   -7.2180    0.0000 O   0  0  0  0  0  0  0  0  0  0  0  0
   10.2617   -5.8265    0.0000 O   0  0  0  0  0  0  0  0  0  0  0  0
   11.1314  -11.5661    0.0000 O   0  0  0  0  0  0  0  0  0  0  0  0
   13.6533  -11.5661    0.0000 O   0  0  0  0  0  0  0  0  0  0  0  0
   15.3056  -13.0445    0.0000 O   0  0  0  0  0  0  0  0  0  0  0  0
   17.4797  -13.7402    0.0000 O   0  0  0  0  0  0  0  0  0  0  0  0
   21.2191  -17.3927    0.0000 O   0  0  0  0  0  0  0  0  0  0  0  0
   19.1320  -15.2186    0.0000 O   0  0  0  0  0  0  0  0  0  0  0  0
   23.7411  -15.9144    0.0000 O   0  0  0  0  0  0  0  0  0  0  0  0
   25.0455  -16.6970    0.0000 O   0  0  0  0  0  0  0  0  0  0  0  0
    2.0871   -9.1312    0.0000 N   0  0  0  0  0  0  0  0  0  0  0  0
   10.1748   -2.0871    0.0000 N   0  0  0  0  0  0  0  0  0  0  0  0
    3.6525  -10.1748    0.0000 N   0  0  0  0  0  0  0  0  0  0  0  0
    8.4355   -2.9568    0.0000 N   0  0  0  0  0  0  0  0  0  0  0  0
   11.1314  -10.1748    0.0000 N   0  0  0  0  0  0  0  0  0  0  0  0
   21.2191  -15.9144    0.0000 N   0  0  0  0  0  0  0  0  0  0  0  0
   23.7411  -17.3927    0.0000 N   0  0  0  0  0  0  0  0  0  0  0  0
    3.5655   -8.6964    0.0000 C   0  0  0  0  0  0  0  0  0  0  0  0
    9.8269   -3.5655    0.0000 C   0  0  0  0  0  0  0  0  0  0  0  0
    2.6959   -8.5224    0.0000 C   0  0  0  0  0  0  0  0  0  0  0  0
   10.3486   -2.9568    0.0000 C   0  0  0  0  0  0  0  0  0  0  0  0
    4.0003   -9.4790    0.0000 C   0  0  0  0  0  0  0  0  0  0  0  0
    8.9573   -3.5655    0.0000 C   0  0  0  0  0  0  0  0  0  0  0  0
    2.1741  -10.0008    0.0000 C   0  0  3  0  0  0  0  0  0  0  0  0
    9.3921   -1.7393    0.0000 C   0  0  3  0  0  0  0  0  0  0  0  0
    4.0003   -8.0006    0.0000 C   0  0  0  0  0  0  0  0  0  0  0  0
   10.2617   -4.3482    0.0000 C   0  0  0  0  0  0  0  0  0  0  0  0
    5.2178   -8.6964    0.0000 C   0  0  0  0  0  0  0  0  0  0  0  0
    9.0442   -5.0439    0.0000 C   0  0  0  0  0  0  0  0  0  0  0  0
    4.8700   -8.0006    0.0000 C   0  0  0  0  0  0  0  0  0  0  0  0
    9.8269   -5.0439    0.0000 C   0  0  0  0  0  0  0  0  0  0  0  0
    4.8700   -9.3921    0.0000 C   0  0  0  0  0  0  0  0  0  0  0  0
    8.5224   -4.3482    0.0000 C   0  0  0  0  0  0  0  0  0  0  0  0
    1.3044   -8.9573    0.0000 C   0  0  0  0  0  0  0  0  0  0  0  0
   10.6965   -1.4784    0.0000 C   0  0  0  0  0  0  0  0  0  0  0  0
    2.8698  -10.4356    0.0000 C   0  0  0  0  0  0  0  0  0  0  0  0
    8.6094   -2.1741    0.0000 C   0  0  0  0  0  0  0  0  0  0  0  0
    1.3914  -10.2617    0.0000 C   0  0  0  0  0  0  0  0  0  0  0  0
    9.4790   -0.9566    0.0000 C   0  0  0  0  0  0  0  0  0  0  0  0
    0.8696   -9.7399    0.0000 C   0  0  0  0  0  0  0  0  0  0  0  0
   10.2617   -0.7827    0.0000 C   0  0  0  0  0  0  0  0  0  0  0  0
    7.3049   -7.9137    0.0000 C   0  0  0  0  0  0  0  0  0  0  0  0
    8.6094   -7.2180    0.0000 C   0  0  0  0  0  0  0  0  0  0  0  0
    6.5223   -8.0006    0.0000 C   0  0  0  0  0  0  0  0  0  0  0  0
    9.0442   -6.5223    0.0000 C   0  0  0  0  0  0  0  0  0  0  0  0
    0.0000   -9.7399    0.0000 C   0  0  0  0  0  0  0  0  0  0  0  0
   10.6095    0.0000    0.0000 C   0  0  0  0  0  0  0  0  0  0  0  0
    7.7398   -7.2180    0.0000 C   0  0  0  0  0  0  0  0  0  0  0  0
    8.6094   -8.6964    0.0000 C   0  0  0  0  0  0  0  0  0  0  0  0
    7.7398   -8.6964    0.0000 C   0  0  0  0  0  0  0  0  0  0  0  0
    9.0442   -7.9137    0.0000 C   0  0  0  0  0  0  0  0  0  0  0  0
    4.8700   -6.5223    0.0000 C   0  0  0  0  0  0  0  0  0  0  0  0
   11.0444   -5.8265    0.0000 C   0  0  0  0  0  0  0  0  0  0  0  0
    9.0442   -9.3921    0.0000 C   0  0  0  0  0  0  0  0  0  0  0  0
    9.8269   -9.3921    0.0000 C   0  0  0  0  0  0  0  0  0  0  0  0
   10.2617  -10.1748    0.0000 C   0  0  0  0  0  0  0  0  0  0  0  0
   11.5661  -10.8705    0.0000 C   0  0  0  0  0  0  0  0  0  0  0  0
   12.3488  -10.8705    0.0000 C   0  0  0  0  0  0  0  0  0  0  0  0
   12.7836  -11.5661    0.0000 C   0  0  0  0  0  0  0  0  0  0  0  0
   14.0881  -12.3488    0.0000 C   0  0  0  0  0  0  0  0  0  0  0  0
   14.9577  -12.3488    0.0000 C   0  0  0  0  0  0  0  0  0  0  0  0
   16.1752  -13.0445    0.0000 C   0  0  0  0  0  0  0  0  0  0  0  0
   21.6539  -16.6970    0.0000 C   0  0  0  0  0  0  0  0  0  0  0  0
   22.5236  -16.6970    0.0000 C   0  0  0  0  0  0  0  0  0  0  0  0
   16.6101  -13.7402    0.0000 C   0  0  0  0  0  0  0  0  0  0  0  0
   22.8714  -17.3927    0.0000 C   0  0  0  0  0  0  0  0  0  0  0  0
   20.3494  -15.9144    0.0000 C   0  0  0  0  0  0  0  0  0  0  0  0
   24.1759  -16.6970    0.0000 C   0  0  0  0  0  0  0  0  0  0  0  0
   20.0016  -15.2186    0.0000 C   0  0  0  0  0  0  0  0  0  0  0  0
   17.8275  -14.5229    0.0000 C   0  0  0  0  0  0  0  0  0  0  0  0
   18.6972  -14.5229    0.0000 C   0  0  0  0  0  0  0  0  0  0  0  0
  1 24  2  0  0  0  0
  2 25  2  0  0  0  0
  3 32  1  0  0  0  0
  3 48  1  0  0  0  0
  4 33  1  0  0  0  0
  4 49  1  0  0  0  0
  5 34  1  0  0  0  0
  5 56  1  0  0  0  0
  6 35  1  0  0  0  0
  6 57  1  0  0  0  0
  7 61  2  0  0  0  0
  8 63  1  0  0  0  0
  8 64  1  0  0  0  0
  9 65  1  0  0  0  0
  9 66  1  0  0  0  0
 10 69  1  0  0  0  0
 10 74  1  0  0  0  0
 11 67  2  0  0  0  0
 12 73  1  0  0  0  0
 12 75  1  0  0  0  0
 13 72  2  0  0  0  0
 14 72  1  0  0  0  0
 15 24  1  0  0  0  0
 28 15  1  6  0  0  0
 15 38  1  0  0  0  0
 16 25  1  0  0  0  0
 29 16  1  6  0  0  0
 16 39  1  0  0  0  0
 17 26  1  0  0  0  0
 17 40  2  0  0  0  0
 18 27  1  0  0  0  0
 18 41  2  0  0  0  0
 19 60  1  0  0  0  0
 19 61  1  0  0  0  0
 20 67  1  0  0  0  0
 20 71  1  0  0  0  0
 21 70  1  0  0  0  0
 21 72  1  0  0  0  0
 22 24  1  0  0  0  0
 22 26  2  0  0  0  0
 22 30  1  0  0  0  0
 23 25  1  0  0  0  0
 23 27  2  0  0  0  0
 23 31  1  0  0  0  0
 26 36  1  0  0  0  0
 27 37  1  0  0  0  0
 28 40  1  0  0  0  0
 28 42  1  0  0  0  0
 29 41  1  0  0  0  0
 29 43  1  0  0  0  0
 30 34  2  0  0  0  0
 31 35  2  0  0  0  0
 32 34  1  0  0  0  0
 32 36  2  0  0  0  0
 33 35  1  0  0  0  0
 33 37  2  0  0  0  0
 38 44  1  0  0  0  0
 39 45  1  0  0  0  0
 42 44  1  0  0  0  0
 43 45  1  0  0  0  0
 44 50  2  0  0  0  0
 45 51  2  0  0  0  0
 46 48  1  0  0  0  0
 46 52  2  0  0  0  0
 46 54  1  0  0  0  0
 47 49  1  0  0  0  0
 47 52  1  0  0  0  0
 47 55  2  0  0  0  0
 53 54  2  0  0  0  0
 53 55  1  0  0  0  0
 53 58  1  0  0  0  0
 58 59  3  0  0  0  0
 59 60  1  0  0  0  0
 61 62  1  0  0  0  0
 62 63  1  0  0  0  0
 64 65  1  0  0  0  0
 66 69  1  0  0  0  0
 67 68  1  0  0  0  0
 68 70  1  0  0  0  0
 71 73  1  0  0  0  0
 74 75  1  0  0  0  0
M  END
> <PUBCHEM_COMPOUND_ID_TYPE>
0

> <PUBCHEM_TOTAL_CHARGE>
0

> <PUBCHEM_SUBSTANCE_ID>
310929792

> <PUBCHEM_SUBSTANCE_VERSION>
1

> <PUBCHEM_EXT_DATASOURCE_NAME>
4488

> <PUBCHEM_EXT_DATASOURCE_REGID>
SCHEMBL16106994

> <PUBCHEM_SUBSTANCE_COMMENT>
InChI=1S/C54H63N7O14/c1-35-20-40-29-58-44-27-48(46(68-3)25-42(44)52(64)60(40)31-35)74-33-38-22-37(23-39(24-38)34-75-49-28-45-43(26-47(49)69-4)53(65)61-32-36(2)21-41(61)30-59-45)6-5-9-55-51(63)8-12-70-14-16-72-18-19-73-17-15-71-13-11-56-50(62)7-10-57-54(66)67/h22-30,40-41,57H,1-2,7-21,31-34H2,3-4H3,(H,55,63)(H,56,62)(H,66,67)/t40-,41-/m0/s1
InChIKey=OXAZNBBQSSBOKA-YATWDLPUSA-N

> <PUBCHEM_SUBSTANCE_SYNONYM>
SCHEMBL16106994

> <PUBCHEM_XREF_EXT_ID>
SCHEMBL16106994

> <PUBCHEM_EXT_DATASOURCE_URL>
https://www.surechembl.org/

> <PUBCHEM_EXT_SUBSTANCE_URL>
https://www.surechembl.org/chemical/SCHEMBL16106994

> <PUBCHEM_CID_ASSOCIATIONS>
117599075  1

> <PUBCHEM_COORDINATE_TYPE>
1
3

> <PUBCHEM_BONDANNOTATIONS>
28  15  6
29  16  6

$$$$
