310940320
  -OEChem-07211613022D

 16 17  0     0  0  0  0  0  0999 V2000
   -1.4965   -1.0254    0.0000 O   0  0  0  0  0  0  0  0  0  0  0  0
    2.8544    1.5380    0.0000 O   0  0  0  0  0  0  0  0  0  0  0  0
   -0.0138   -0.1109    0.0000 N   0  0  0  0  0  0  0  0  0  0  0  0
   -0.7206   -1.3440    0.0000 C   0  0  0  0  0  0  0  0  0  0  0  0
    0.7206    0.2910    0.0000 C   0  0  0  0  0  0  0  0  0  0  0  0
   -2.0508   -1.6351    0.0000 C   0  0  0  0  0  0  0  0  0  0  0  0
   -0.0138   -0.9422    0.0000 C   0  0  0  0  0  0  0  0  0  0  0  0
   -0.8176   -2.1755    0.0000 C   0  0  0  0  0  0  0  0  0  0  0  0
   -1.6351   -2.3418    0.0000 C   0  0  0  0  0  0  0  0  0  0  0  0
    2.1478    1.1362    0.0000 C   0  0  0  0  0  0  0  0  0  0  0  0
    1.4411   -0.0970    0.0000 C   0  0  0  0  0  0  0  0  0  0  0  0
    0.7206    1.1223    0.0000 C   0  0  0  0  0  0  0  0  0  0  0  0
    2.1478    0.3049    0.0000 C   0  0  0  0  0  0  0  0  0  0  0  0
    1.4272    1.5380    0.0000 C   0  0  0  0  0  0  0  0  0  0  0  0
   -2.8821   -1.5658    0.0000 C   0  0  0  0  0  0  0  0  0  0  0  0
    2.8821    2.3418    0.0000 C   0  0  0  0  0  0  0  0  0  0  0  0
  1  4  1  0  0  0  0
  1  6  1  0  0  0  0
  2 10  1  0  0  0  0
  2 16  1  0  0  0  0
  3  5  1  0  0  0  0
  3  7  2  0  0  0  0
  4  7  1  0  0  0  0
  4  8  2  0  0  0  0
  5 11  2  0  0  0  0
  5 12  1  0  0  0  0
  6  9  2  0  0  0  0
  6 15  1  0  0  0  0
  8  9  1  0  0  0  0
 10 13  2  0  0  0  0
 10 14  1  0  0  0  0
 11 13  1  0  0  0  0
 12 14  2  0  0  0  0
M  END
> <PUBCHEM_COMPOUND_ID_TYPE>
0

> <PUBCHEM_TOTAL_CHARGE>
0

> <PUBCHEM_SUBSTANCE_ID>
310940320

> <PUBCHEM_SUBSTANCE_VERSION>
1

> <PUBCHEM_EXT_DATASOURCE_NAME>
4488

> <PUBCHEM_EXT_DATASOURCE_REGID>
SCHEMBL16118264

> <PUBCHEM_SUBSTANCE_COMMENT>
InChI=1S/C13H13NO2/c1-10-3-6-13(16-10)9-14-11-4-7-12(15-2)8-5-11/h3-9H,1-2H3/b14-9+
InChIKey=QVEPAXZWXQSIRS-NTEUORMPSA-N

> <PUBCHEM_SUBSTANCE_SYNONYM>
SCHEMBL16118264

> <PUBCHEM_XREF_EXT_ID>
SCHEMBL16118264

> <PUBCHEM_EXT_DATASOURCE_URL>
https://www.surechembl.org/

> <PUBCHEM_EXT_SUBSTANCE_URL>
https://www.surechembl.org/chemical/SCHEMBL16118264

> <PUBCHEM_CID_ASSOCIATIONS>
681311  1

> <PUBCHEM_COORDINATE_TYPE>
1
3

> <PUBCHEM_BONDANNOTATIONS>
3  5  3

$$$$
