310937209
  -OEChem-07211613022D

 11 10  0     0  0  0  0  0  0999 V2000
    0.7091   -0.4052    0.0000 O   0  0  0  0  0  0  0  0  0  0  0  0
    0.0000   -1.6497    0.0000 O   0  0  0  0  0  0  0  0  0  0  0  0
    1.4327    0.0000    0.0000 O   0  0  0  0  0  0  0  0  0  0  0  0
    2.1418   -1.2301    0.0000 C   0  0  0  0  0  0  0  0  0  0  0  0
    1.4327   -1.6497    0.0000 C   0  0  0  0  0  0  0  0  0  0  0  0
    0.7091   -1.2301    0.0000 C   0  0  0  0  0  0  0  0  0  0  0  0
    2.8653   -1.6497    0.0000 C   0  0  0  0  0  0  0  0  0  0  0  0
    2.1418   -0.4052    0.0000 C   0  0  0  0  0  0  0  0  0  0  0  0
    2.8798   -2.4746    0.0000 C   0  0  0  0  0  0  0  0  0  0  0  0
    2.1562   -2.8943    0.0000 C   0  0  0  0  0  0  0  0  0  0  0  0
    3.5889   -2.8798    0.0000 C   0  0  0  0  0  0  0  0  0  0  0  0
  1  6  2  0  0  0  0
  2  6  1  0  0  0  0
  3  8  2  0  0  0  0
  4  5  1  0  0  0  0
  4  7  2  0  0  0  0
  4  8  1  0  0  0  0
  5  6  1  0  0  0  0
  7  9  1  0  0  0  0
  9 10  1  0  0  0  0
  9 11  1  0  0  0  0
M  END
> <PUBCHEM_COMPOUND_ID_TYPE>
0

> <PUBCHEM_TOTAL_CHARGE>
0

> <PUBCHEM_SUBSTANCE_ID>
310937209

> <PUBCHEM_SUBSTANCE_VERSION>
1

> <PUBCHEM_EXT_DATASOURCE_NAME>
4488

> <PUBCHEM_EXT_DATASOURCE_REGID>
SCHEMBL16114940

> <PUBCHEM_SUBSTANCE_COMMENT>
InChI=1S/C8H12O3/c1-6(2)3-7(5-9)4-8(10)11/h3,5-6H,4H2,1-2H3,(H,10,11)/b7-3+
InChIKey=YHBWAMKZPKOXND-XVNBXDOJSA-N

> <PUBCHEM_SUBSTANCE_SYNONYM>
SCHEMBL16114940

> <PUBCHEM_XREF_EXT_ID>
SCHEMBL16114940

> <PUBCHEM_EXT_DATASOURCE_URL>
https://www.surechembl.org/

> <PUBCHEM_EXT_SUBSTANCE_URL>
https://www.surechembl.org/chemical/SCHEMBL16114940

> <PUBCHEM_CID_ASSOCIATIONS>
117605018  1

> <PUBCHEM_COORDINATE_TYPE>
1
3

$$$$
