310940847
  -OEChem-07211613022D

 40 43  0     1  0  0  0  0  0999 V2000
    5.1877    0.9727    0.0000 O   0  0  0  0  0  0  0  0  0  0  0  0
    4.0567   -0.9878    0.0000 O   0  0  0  0  0  0  0  0  0  0  0  0
    1.6739    0.9727    0.0000 O   0  0  0  0  0  0  0  0  0  0  0  0
   -0.4825   -1.1235    0.0000 O   0  0  0  0  0  0  0  0  0  0  0  0
   -2.6391    0.9727    0.0000 O   0  0  0  0  0  0  0  0  0  0  0  0
    3.8455   -2.7823    0.0000 O   0  0  0  0  0  0  0  0  0  0  0  0
   -5.5045   -0.4750    0.0000 O   0  0  0  0  0  0  0  0  0  0  0  0
    2.3978   -0.2790    0.0000 N   0  0  0  0  0  0  0  0  0  0  0  0
    0.2413    0.1282    0.0000 N   0  0  0  0  0  0  0  0  0  0  0  0
   -1.9153   -0.2790    0.0000 N   0  0  0  0  0  0  0  0  0  0  0  0
    4.7655    0.3091    0.0000 C   0  0  3  0  0  0  0  0  0  0  0  0
    4.0567   -0.1131    0.0000 C   0  0  0  0  0  0  0  0  0  0  0  0
    4.3885    1.0029    0.0000 C   0  0  0  0  0  0  0  0  0  0  0  0
    3.3480    0.2941    0.0000 C   0  0  3  0  0  0  0  0  0  0  0  0
    5.5045   -0.1282    0.0000 C   0  0  0  0  0  0  0  0  0  0  0  0
    3.3480    1.3648    0.0000 C   0  0  0  0  0  0  0  0  0  0  0  0
    1.6739    0.1432    0.0000 C   0  0  0  0  0  0  0  0  0  0  0  0
    0.9803   -0.2488    0.0000 C   0  0  3  0  0  0  0  0  0  0  0  0
    2.6089    1.8022    0.0000 C   0  0  0  0  0  0  0  0  0  0  0  0
    0.9501   -1.1084    0.0000 C   0  0  0  0  0  0  0  0  0  0  0  0
   -0.4675   -0.2337    0.0000 C   0  0  0  0  0  0  0  0  0  0  0  0
    1.7041   -1.5005    0.0000 C   0  0  0  0  0  0  0  0  0  0  0  0
    1.8851    1.4553    0.0000 C   0  0  0  0  0  0  0  0  0  0  0  0
    2.5185    2.6165    0.0000 C   0  0  0  0  0  0  0  0  0  0  0  0
   -1.2064    0.1584    0.0000 C   0  0  3  0  0  0  0  0  0  0  0  0
   -3.3480   -0.2488    0.0000 C   0  0  3  0  0  0  0  0  0  0  0  0
   -2.6391    0.1584    0.0000 C   0  0  0  0  0  0  0  0  0  0  0  0
    1.3271    2.0585    0.0000 C   0  0  0  0  0  0  0  0  0  0  0  0
    1.7343    2.7823    0.0000 C   0  0  0  0  0  0  0  0  0  0  0  0
    1.7041   -2.3451    0.0000 C   0  0  0  0  0  0  0  0  0  0  0  0
    2.3978   -1.1084    0.0000 C   0  0  0  0  0  0  0  0  0  0  0  0
   -4.1171    0.0679    0.0000 C   0  0  0  0  0  0  0  0  0  0  0  0
   -3.4535   -1.0783    0.0000 C   0  0  0  0  0  0  0  0  0  0  0  0
   -4.6751   -0.5354    0.0000 C   0  0  3  0  0  0  0  0  0  0  0  0
    3.1369   -2.3300    0.0000 C   0  0  0  0  0  0  0  0  0  0  0  0
   -4.2528   -1.2441    0.0000 C   0  0  0  0  0  0  0  0  0  0  0  0
    2.4129   -2.7522    0.0000 C   0  0  0  0  0  0  0  0  0  0  0  0
    3.1369   -1.5156    0.0000 C   0  0  0  0  0  0  0  0  0  0  0  0
   -1.1914    0.9878    0.0000 C   0  0  0  0  0  0  0  0  0  0  0  0
    4.5846   -2.3451    0.0000 C   0  0  0  0  0  0  0  0  0  0  0  0
  1 11  1  0  0  0  0
  1 13  1  0  0  0  0
  2 12  2  0  0  0  0
  3 17  2  0  0  0  0
  4 21  2  0  0  0  0
  5 27  2  0  0  0  0
  6 35  1  0  0  0  0
  6 40  1  0  0  0  0
 34  7  1  1  0  0  0
 14  8  1  1  0  0  0
  8 17  1  0  0  0  0
 18  9  1  6  0  0  0
  9 21  1  0  0  0  0
 10 25  1  0  0  0  0
 10 27  1  0  0  0  0
 11 12  1  1  0  0  0
 11 13  1  0  0  0  0
 11 15  1  6  0  0  0
 12 14  1  0  0  0  0
 14 16  1  0  0  0  0
 16 19  1  0  0  0  0
 17 18  1  0  0  0  0
 18 20  1  0  0  0  0
 19 23  1  0  0  0  0
 19 24  1  0  0  0  0
 20 22  1  0  0  0  0
 21 25  1  0  0  0  0
 22 30  2  0  0  0  0
 22 31  1  0  0  0  0
 23 28  1  0  0  0  0
 24 29  1  0  0  0  0
 25 39  1  6  0  0  0
 26 27  1  1  0  0  0
 26 32  1  0  0  0  0
 26 33  1  0  0  0  0
 28 29  1  0  0  0  0
 30 37  1  0  0  0  0
 31 38  2  0  0  0  0
 32 34  1  0  0  0  0
 33 36  1  0  0  0  0
 34 36  1  0  0  0  0
 35 37  2  0  0  0  0
 35 38  1  0  0  0  0
M  END
> <PUBCHEM_COMPOUND_ID_TYPE>
0

> <PUBCHEM_TOTAL_CHARGE>
0

> <PUBCHEM_SUBSTANCE_ID>
310940847

> <PUBCHEM_SUBSTANCE_VERSION>
1

> <PUBCHEM_EXT_DATASOURCE_NAME>
4488

> <PUBCHEM_EXT_DATASOURCE_REGID>
SCHEMBL16118806

> <PUBCHEM_SUBSTANCE_COMMENT>
InChI=1S/C30H43N3O7/c1-18(31-28(37)21-10-11-22(34)16-21)27(36)33-25(15-20-8-12-23(39-3)13-9-20)29(38)32-24(14-19-6-4-5-7-19)26(35)30(2)17-40-30/h8-9,12-13,18-19,21-22,24-25,34H,4-7,10-11,14-17H2,1-3H3,(H,31,37)(H,32,38)(H,33,36)/t18-,21+,22-,24+,25+,30-/m1/s1
InChIKey=BVCQVLJZWSBKHP-SRWBRAMESA-N

> <PUBCHEM_SUBSTANCE_SYNONYM>
SCHEMBL16118806

> <PUBCHEM_XREF_EXT_ID>
SCHEMBL16118806

> <PUBCHEM_EXT_DATASOURCE_URL>
https://www.surechembl.org/

> <PUBCHEM_EXT_SUBSTANCE_URL>
https://www.surechembl.org/chemical/SCHEMBL16118806

> <PUBCHEM_CID_ASSOCIATIONS>
117607764  1

> <PUBCHEM_COORDINATE_TYPE>
1
3

> <PUBCHEM_BONDANNOTATIONS>
11  12  5
11  15  6
25  39  6
26  27  5
34  7  5
14  8  5
18  9  6

$$$$
