310947050
  -OEChem-07211613022D

 39 43  0     0  0  0  0  0  0999 V2000
    4.4324    2.3410    0.0000 S   0  0  0  0  0  0  0  0  0  0  0  0
   -2.2890   -1.8179    0.0000 F   0  0  0  0  0  0  0  0  0  0  0  0
   -3.7180   -2.6429    0.0000 O   0  0  0  0  0  0  0  0  0  0  0  0
   -5.1469   -0.1679    0.0000 O   0  0  0  0  0  0  0  0  0  0  0  0
    5.1469    1.9285    0.0000 O   0  0  0  0  0  0  0  0  0  0  0  0
    3.7180    2.7535    0.0000 O   0  0  0  0  0  0  0  0  0  0  0  0
   -2.2890   -0.1679    0.0000 N   0  0  0  0  0  0  0  0  0  0  0  0
   -0.8601   -0.1679    0.0000 N   0  0  0  0  0  0  0  0  0  0  0  0
    0.5689   -0.1679    0.0000 N   0  0  0  0  0  0  0  0  0  0  0  0
    0.5689   -1.8179    0.0000 N   0  0  0  0  0  0  0  0  0  0  0  0
    2.7824    0.9120    0.0000 N   0  0  0  0  0  0  0  0  0  0  0  0
    3.2674    0.2446    0.0000 N   0  0  0  0  0  0  0  0  0  0  0  0
   -3.7881    0.8146    0.0000 N   0  0  0  0  0  0  0  0  0  0  0  0
   -3.0035    1.8946    0.0000 N   0  0  0  0  0  0  0  0  0  0  0  0
   -3.0035   -0.5804    0.0000 C   0  0  0  0  0  0  0  0  0  0  0  0
   -1.5745   -0.5804    0.0000 C   0  0  0  0  0  0  0  0  0  0  0  0
   -0.1456   -0.5804    0.0000 C   0  0  0  0  0  0  0  0  0  0  0  0
   -0.1456   -1.4054    0.0000 C   0  0  0  0  0  0  0  0  0  0  0  0
   -3.0035   -1.4054    0.0000 C   0  0  0  0  0  0  0  0  0  0  0  0
    1.2833   -0.5804    0.0000 C   0  0  0  0  0  0  0  0  0  0  0  0
   -3.7180   -1.8179    0.0000 C   0  0  0  0  0  0  0  0  0  0  0  0
   -3.7180   -0.1679    0.0000 C   0  0  0  0  0  0  0  0  0  0  0  0
   -1.5745   -1.4054    0.0000 C   0  0  0  0  0  0  0  0  0  0  0  0
   -2.2890    0.6571    0.0000 C   0  0  0  0  0  0  0  0  0  0  0  0
    1.9978   -0.1679    0.0000 C   0  0  0  0  0  0  0  0  0  0  0  0
   -0.8601   -1.8179    0.0000 C   0  0  0  0  0  0  0  0  0  0  0  0
   -4.4324   -0.5804    0.0000 C   0  0  0  0  0  0  0  0  0  0  0  0
    1.2833   -1.4054    0.0000 C   0  0  0  0  0  0  0  0  0  0  0  0
   -4.4324   -1.4054    0.0000 C   0  0  0  0  0  0  0  0  0  0  0  0
   -3.0035    1.0696    0.0000 C   0  0  0  0  0  0  0  0  0  0  0  0
    1.9978    0.6571    0.0000 C   0  0  0  0  0  0  0  0  0  0  0  0
    2.7824   -0.4229    0.0000 C   0  0  0  0  0  0  0  0  0  0  0  0
    3.1949    1.6265    0.0000 C   0  0  0  0  0  0  0  0  0  0  0  0
   -4.2730    1.4821    0.0000 C   0  0  0  0  0  0  0  0  0  0  0  0
   -3.7881    2.1495    0.0000 C   0  0  0  0  0  0  0  0  0  0  0  0
    4.0199    1.6265    0.0000 C   0  0  0  0  0  0  0  0  0  0  0  0
   -4.4324   -3.0554    0.0000 C   0  0  0  0  0  0  0  0  0  0  0  0
   -5.1469    0.6571    0.0000 C   0  0  0  0  0  0  0  0  0  0  0  0
    4.8449    3.0554    0.0000 C   0  0  0  0  0  0  0  0  0  0  0  0
  1  5  2  0  0  0  0
  1  6  2  0  0  0  0
  1 36  1  0  0  0  0
  1 39  1  0  0  0  0
  2 19  1  0  0  0  0
  3 21  1  0  0  0  0
  3 37  1  0  0  0  0
  4 27  1  0  0  0  0
  4 38  1  0  0  0  0
  7 15  1  0  0  0  0
  7 16  1  0  0  0  0
  7 24  1  0  0  0  0
  8 16  2  0  0  0  0
  8 17  1  0  0  0  0
  9 17  2  0  0  0  0
  9 20  1  0  0  0  0
 10 18  2  0  0  0  0
 10 28  1  0  0  0  0
 11 12  1  0  0  0  0
 11 31  1  0  0  0  0
 11 33  1  0  0  0  0
 12 32  2  0  0  0  0
 13 30  2  0  0  0  0
 13 34  1  0  0  0  0
 14 30  1  0  0  0  0
 14 35  1  0  0  0  0
 15 19  1  0  0  0  0
 15 22  2  0  0  0  0
 16 23  1  0  0  0  0
 17 18  1  0  0  0  0
 18 26  1  0  0  0  0
 19 21  2  0  0  0  0
 20 25  1  0  0  0  0
 20 28  2  0  0  0  0
 21 29  1  0  0  0  0
 22 27  1  0  0  0  0
 23 26  2  0  0  0  0
 24 30  1  0  0  0  0
 25 31  2  0  0  0  0
 25 32  1  0  0  0  0
 27 29  2  0  0  0  0
 33 36  1  0  0  0  0
 34 35  2  0  0  0  0
M  END
> <PUBCHEM_COMPOUND_ID_TYPE>
0

> <PUBCHEM_TOTAL_CHARGE>
0

> <PUBCHEM_SUBSTANCE_ID>
310947050

> <PUBCHEM_SUBSTANCE_VERSION>
1

> <PUBCHEM_EXT_DATASOURCE_NAME>
4488

> <PUBCHEM_EXT_DATASOURCE_REGID>
SCHEMBL16125203

> <PUBCHEM_SUBSTANCE_COMMENT>
InChI=1S/C25H25FN8O4S/c1-37-17-10-20(24(26)21(11-17)38-2)34(15-22-27-6-7-28-22)23-5-4-18-25(32-23)31-19(13-29-18)16-12-30-33(14-16)8-9-39(3,35)36/h4-7,10-14H,8-9,15H2,1-3H3,(H,27,28)
InChIKey=VGJARENHWMQCIW-UHFFFAOYSA-N

> <PUBCHEM_SUBSTANCE_SYNONYM>
SCHEMBL16125203

> <PUBCHEM_XREF_EXT_ID>
SCHEMBL16125203

> <PUBCHEM_EXT_DATASOURCE_URL>
https://www.surechembl.org/

> <PUBCHEM_EXT_SUBSTANCE_URL>
https://www.surechembl.org/chemical/SCHEMBL16125203

> <PUBCHEM_CID_ASSOCIATIONS>
117612901  1

> <PUBCHEM_COORDINATE_TYPE>
1
3

$$$$
