310944537
  -OEChem-07211613022D

 24 26  0     0  0  0  0  0  0999 V2000
    2.8856   -1.6516    0.0000 Cl  0  0  0  0  0  0  0  0  0  0  0  0
   -0.5547   -2.4868    0.0000 S   0  0  0  0  0  0  0  0  0  0  0  0
    1.4397    0.8414    0.0000 O   0  0  0  0  0  0  0  0  0  0  0  0
   -2.8732    1.6766    0.0000 O   0  0  0  0  0  0  0  0  0  0  0  0
   -0.0436   -1.8012    0.0000 N   0  0  0  0  0  0  0  0  0  0  0  0
    1.5893   -0.8165    0.0000 N   0  0  0  0  0  0  0  0  0  0  0  0
   -0.0436   -3.1474    0.0000 N   0  0  0  0  0  0  0  0  0  0  0  0
    0.0187    0.8414    0.0000 N   0  0  0  0  0  0  0  0  0  0  0  0
   -1.4148    1.6766    0.0000 N   0  0  0  0  0  0  0  0  0  0  0  0
    0.7292   -2.0629    0.0000 C   0  0  0  0  0  0  0  0  0  0  0  0
    1.4522   -1.6516    0.0000 C   0  0  0  0  0  0  0  0  0  0  0  0
    0.7167   -2.8856    0.0000 C   0  0  0  0  0  0  0  0  0  0  0  0
    2.1751   -2.0504    0.0000 C   0  0  0  0  0  0  0  0  0  0  0  0
    1.4646   -3.2970    0.0000 C   0  0  0  0  0  0  0  0  0  0  0  0
    2.1751   -2.8856    0.0000 C   0  0  0  0  0  0  0  0  0  0  0  0
    0.7292    0.4300    0.0000 C   0  0  0  0  0  0  0  0  0  0  0  0
    0.7292   -0.3926    0.0000 C   0  0  0  0  0  0  0  0  0  0  0  0
    0.0062    1.6766    0.0000 C   0  0  0  0  0  0  0  0  0  0  0  0
   -0.6918    0.4300    0.0000 C   0  0  0  0  0  0  0  0  0  0  0  0
   -0.7042    2.0879    0.0000 C   0  0  0  0  0  0  0  0  0  0  0  0
   -1.4148    0.8414    0.0000 C   0  0  0  0  0  0  0  0  0  0  0  0
   -2.1377    2.1003    0.0000 C   0  0  0  0  0  0  0  0  0  0  0  0
   -2.1502    2.9230    0.0000 C   0  0  0  0  0  0  0  0  0  0  0  0
   -2.8856    3.2970    0.0000 C   0  0  0  0  0  0  0  0  0  0  0  0
  1 13  1  0  0  0  0
  2  5  1  0  0  0  0
  2  7  1  0  0  0  0
  3 16  2  0  0  0  0
  4 22  2  0  0  0  0
  5 10  1  0  0  0  0
  6 11  1  0  0  0  0
  6 17  1  0  0  0  0
  7 12  1  0  0  0  0
  8 16  1  0  0  0  0
  8 18  1  0  0  0  0
  8 19  1  0  0  0  0
  9 20  1  0  0  0  0
  9 21  1  0  0  0  0
  9 22  1  0  0  0  0
 10 11  2  0  0  0  0
 10 12  1  0  0  0  0
 11 13  1  0  0  0  0
 12 14  2  0  0  0  0
 13 15  2  0  0  0  0
 14 15  1  0  0  0  0
 16 17  1  0  0  0  0
 18 20  1  0  0  0  0
 19 21  1  0  0  0  0
 22 23  1  0  0  0  0
 23 24  2  0  0  0  0
M  END
> <PUBCHEM_COMPOUND_ID_TYPE>
0

> <PUBCHEM_TOTAL_CHARGE>
0

> <PUBCHEM_SUBSTANCE_ID>
310944537

> <PUBCHEM_SUBSTANCE_VERSION>
1

> <PUBCHEM_EXT_DATASOURCE_NAME>
4488

> <PUBCHEM_EXT_DATASOURCE_REGID>
SCHEMBL16122613

> <PUBCHEM_SUBSTANCE_COMMENT>
InChI=1S/C15H18ClN5O2S/c1-2-12(22)20-5-7-21(8-6-20)13(23)9-17-14-10(16)3-4-11-15(14)19-24-18-11/h2-4,17-19H,1,5-9H2
InChIKey=YAXCIHLQCIWHIZ-UHFFFAOYSA-N

> <PUBCHEM_SUBSTANCE_SYNONYM>
SCHEMBL16122613

> <PUBCHEM_XREF_EXT_ID>
SCHEMBL16122613

> <PUBCHEM_EXT_DATASOURCE_URL>
https://www.surechembl.org/

> <PUBCHEM_EXT_SUBSTANCE_URL>
https://www.surechembl.org/chemical/SCHEMBL16122613

> <PUBCHEM_CID_ASSOCIATIONS>
117610772  1

> <PUBCHEM_COORDINATE_TYPE>
1
3

$$$$
