310948270
  -OEChem-07211613022D

 31 35  0     1  0  0  0  0  0999 V2000
    2.4508   -2.5812    0.0000 S   0  0  0  0  0  0  0  0  0  0  0  0
   -2.5812   -2.0966    0.0000 O   0  0  0  0  0  0  0  0  0  0  0  0
    2.6371   -1.7798    0.0000 O   0  0  0  0  0  0  0  0  0  0  0  0
    2.2830   -3.4011    0.0000 O   0  0  0  0  0  0  0  0  0  0  0  0
   -1.0717    0.2329    0.0000 N   0  0  0  0  0  0  0  0  0  0  0  0
   -0.5684   -0.4380    0.0000 N   0  0  0  0  0  0  0  0  0  0  0  0
   -0.8107   -1.8916    0.0000 N   0  0  0  0  0  0  0  0  0  0  0  0
   -3.3080   -0.8480    0.0000 N   0  0  0  0  0  0  0  0  0  0  0  0
    1.1089   -0.0279    0.0000 N   0  0  0  0  0  0  0  0  0  0  0  0
   -1.8357   -0.0093    0.0000 C   0  0  0  0  0  0  0  0  0  0  0  0
   -1.8730   -0.8294    0.0000 C   0  0  0  0  0  0  0  0  0  0  0  0
   -0.2888    2.6185    0.0000 C   0  0  0  0  0  0  0  0  0  0  0  0
   -0.8107    1.0530    0.0000 C   0  0  3  0  0  0  0  0  0  0  0  0
   -1.0717   -1.0903    0.0000 C   0  0  0  0  0  0  0  0  0  0  0  0
    0.0093    1.2207    0.0000 C   0  0  3  0  0  0  0  0  0  0  0  0
    0.2702    1.9848    0.0000 C   0  0  0  0  0  0  0  0  0  0  0  0
   -2.5812   -1.2394    0.0000 C   0  0  0  0  0  0  0  0  0  0  0  0
   -0.4380    3.4011    0.0000 C   0  0  0  0  0  0  0  0  0  0  0  0
    0.3074    3.1775    0.0000 C   0  0  0  0  0  0  0  0  0  0  0  0
   -1.0903    2.4321    0.0000 C   0  0  0  0  0  0  0  0  0  0  0  0
   -1.3512    1.6494    0.0000 C   0  0  0  0  0  0  0  0  0  0  0  0
   -2.5998    0.4007    0.0000 C   0  0  0  0  0  0  0  0  0  0  0  0
    0.0093   -2.0593    0.0000 C   0  0  0  0  0  0  0  0  0  0  0  0
   -3.2893    0.0093    0.0000 C   0  0  0  0  0  0  0  0  0  0  0  0
    0.5684    0.5870    0.0000 C   0  0  0  0  0  0  0  0  0  0  0  0
    1.6307   -2.3949    0.0000 C   0  0  0  0  0  0  0  0  0  0  0  0
    0.2702   -2.8421    0.0000 C   0  0  0  0  0  0  0  0  0  0  0  0
    0.5684   -1.4443    0.0000 C   0  0  0  0  0  0  0  0  0  0  0  0
    1.0903   -3.0098    0.0000 C   0  0  0  0  0  0  0  0  0  0  0  0
    1.3884   -1.6307    0.0000 C   0  0  0  0  0  0  0  0  0  0  0  0
    3.3080   -2.7675    0.0000 C   0  0  0  0  0  0  0  0  0  0  0  0
  1  3  2  0  0  0  0
  1  4  2  0  0  0  0
  1 26  1  0  0  0  0
  1 31  1  0  0  0  0
  2 17  2  0  0  0  0
  5  6  1  0  0  0  0
  5 10  1  0  0  0  0
 13  5  1  6  0  0  0
  6 14  2  0  0  0  0
  7 14  1  0  0  0  0
  7 23  1  0  0  0  0
  8 17  1  0  0  0  0
  8 24  1  0  0  0  0
  9 25  3  0  0  0  0
 10 11  2  0  0  0  0
 10 22  1  0  0  0  0
 11 14  1  0  0  0  0
 11 17  1  0  0  0  0
 12 16  1  0  0  0  0
 12 18  1  0  0  0  0
 12 19  1  0  0  0  0
 12 20  1  0  0  0  0
 13 15  1  0  0  0  0
 13 21  1  0  0  0  0
 15 16  1  0  0  0  0
 15 25  1  6  0  0  0
 18 19  1  0  0  0  0
 20 21  1  0  0  0  0
 22 24  2  0  0  0  0
 23 27  2  0  0  0  0
 23 28  1  0  0  0  0
 26 29  2  0  0  0  0
 26 30  1  0  0  0  0
 27 29  1  0  0  0  0
 28 30  2  0  0  0  0
M  END
> <PUBCHEM_COMPOUND_ID_TYPE>
0

> <PUBCHEM_TOTAL_CHARGE>
0

> <PUBCHEM_SUBSTANCE_ID>
310948270

> <PUBCHEM_SUBSTANCE_VERSION>
1

> <PUBCHEM_EXT_DATASOURCE_NAME>
4488

> <PUBCHEM_EXT_DATASOURCE_REGID>
SCHEMBL16126447

> <PUBCHEM_SUBSTANCE_COMMENT>
InChI=1S/C22H23N5O3S/c1-31(29,30)16-4-2-15(3-5-16)25-20-19-18(7-11-24-21(19)28)27(26-20)17-6-8-22(9-10-22)12-14(17)13-23/h2-5,7,11,14,17H,6,8-10,12H2,1H3,(H,24,28)(H,25,26)/t14-,17-/m1/s1
InChIKey=VTJWCDXVXRPCAT-RHSMWYFYSA-N

> <PUBCHEM_SUBSTANCE_SYNONYM>
SCHEMBL16126447

> <PUBCHEM_XREF_EXT_ID>
SCHEMBL16126447

> <PUBCHEM_EXT_DATASOURCE_URL>
https://www.surechembl.org/

> <PUBCHEM_EXT_SUBSTANCE_URL>
https://www.surechembl.org/chemical/SCHEMBL16126447

> <PUBCHEM_CID_ASSOCIATIONS>
117613850  1

> <PUBCHEM_COORDINATE_TYPE>
1
3

> <PUBCHEM_BONDANNOTATIONS>
15  25  6
13  5  6

$$$$
