310942795
  -OEChem-07211613022D

 43 46  0     1  0  0  0  0  0999 V2000
   -3.4850    0.0842    0.0000 F   0  0  0  0  0  0  0  0  0  0  0  0
    3.4008   -1.1078    0.0000 F   0  0  0  0  0  0  0  0  0  0  0  0
   -3.1484   -3.2256    0.0000 F   0  0  0  0  0  0  0  0  0  0  0  0
   -0.8344   -1.8372    0.0000 O   0  0  0  0  0  0  0  0  0  0  0  0
   -0.0070   -3.2677    0.0000 O   0  0  0  0  0  0  0  0  0  0  0  0
    2.5874    1.2341    0.0000 O   0  0  0  0  0  0  0  0  0  0  0  0
    3.5972    0.2244    0.0000 O   0  0  0  0  0  0  0  0  0  0  0  0
   -1.1850    0.4768    0.0000 N   0  0  0  0  0  0  0  0  0  0  0  0
    0.5400   -0.9115    0.0000 N   0  0  0  0  0  0  0  0  0  0  0  0
   -1.1990   -0.8694    0.0000 N   0  0  0  0  0  0  0  0  0  0  0  0
    2.3069   -2.9310    0.0000 N   0  0  0  0  0  0  0  0  0  0  0  0
    4.0740    1.6408    0.0000 N   0  0  0  0  0  0  0  0  0  0  0  0
    0.1192   -0.1963    0.0000 C   0  0  3  0  0  0  0  0  0  0  0  0
   -0.7082   -0.1823    0.0000 C   0  0  0  0  0  0  0  0  0  0  0  0
    0.5259    0.5330    0.0000 C   0  0  0  0  0  0  0  0  0  0  0  0
   -1.9845   -0.6031    0.0000 C   0  0  0  0  0  0  0  0  0  0  0  0
   -1.9704    0.2384    0.0000 C   0  0  0  0  0  0  0  0  0  0  0  0
   -2.6576   -1.0939    0.0000 C   0  0  0  0  0  0  0  0  0  0  0  0
    0.0210   -1.8372    0.0000 C   0  0  0  0  0  0  0  0  0  0  0  0
    1.6198   -0.9115    0.0000 C   0  0  0  0  0  0  0  0  0  0  0  0
   -0.9326    1.2622    0.0000 C   0  0  0  0  0  0  0  0  0  0  0  0
    1.3533    0.5189    0.0000 C   0  0  0  0  0  0  0  0  0  0  0  0
   -3.4008   -0.7293    0.0000 C   0  0  0  0  0  0  0  0  0  0  0  0
    2.0125   -1.6128    0.0000 C   0  0  3  0  0  0  0  0  0  0  0  0
   -0.1893    0.9256    0.0000 C   0  0  0  0  0  0  0  0  0  0  0  0
    0.5259    1.3603    0.0000 C   0  0  0  0  0  0  0  0  0  0  0  0
   -2.5734   -1.9073    0.0000 C   0  0  0  0  0  0  0  0  0  0  0  0
    0.4138   -2.5383    0.0000 C   0  0  3  0  0  0  0  0  0  0  0  0
   -1.4795    1.8792    0.0000 C   0  0  0  0  0  0  0  0  0  0  0  0
    2.8398   -1.7109    0.0000 C   0  0  3  0  0  0  0  0  0  0  0  0
   -3.2185   -2.3841    0.0000 C   0  0  0  0  0  0  0  0  0  0  0  0
   -4.0740   -1.2341    0.0000 C   0  0  0  0  0  0  0  0  0  0  0  0
    1.7741    1.2341    0.0000 C   0  0  0  0  0  0  0  0  0  0  0  0
    1.7040   -2.3700    0.0000 C   0  0  0  0  0  0  0  0  0  0  0  0
   -3.9898   -2.0475    0.0000 C   0  0  0  0  0  0  0  0  0  0  0  0
    3.0222   -2.5102    0.0000 C   0  0  0  0  0  0  0  0  0  0  0  0
   -1.2271    2.6646    0.0000 C   0  0  0  0  0  0  0  0  0  0  0  0
   -2.2788    1.7109    0.0000 C   0  0  0  0  0  0  0  0  0  0  0  0
    1.2271   -2.5523    0.0000 C   0  0  0  0  0  0  0  0  0  0  0  0
   -1.7741    3.2677    0.0000 C   0  0  0  0  0  0  0  0  0  0  0  0
   -2.8259    2.3279    0.0000 C   0  0  0  0  0  0  0  0  0  0  0  0
   -2.5874    3.1133    0.0000 C   0  0  0  0  0  0  0  0  0  0  0  0
    3.3869    1.0377    0.0000 C   0  0  0  0  0  0  0  0  0  0  0  0
  1 23  1  0  0  0  0
 30  2  1  1  0  0  0
  3 31  1  0  0  0  0
  4 19  2  0  0  0  0
 28  5  1  6  0  0  0
  6 33  1  0  0  0  0
  6 43  1  0  0  0  0
  7 43  2  0  0  0  0
  8 14  1  0  0  0  0
  8 17  1  0  0  0  0
  8 21  1  0  0  0  0
 13  9  1  1  0  0  0
  9 19  1  0  0  0  0
  9 20  1  0  0  0  0
 10 14  2  0  0  0  0
 10 16  1  0  0  0  0
 11 34  1  0  0  0  0
 11 36  1  0  0  0  0
 12 43  1  0  0  0  0
 13 14  1  0  0  0  0
 13 15  1  0  0  0  0
 15 22  1  0  0  0  0
 15 25  1  0  0  0  0
 15 26  1  0  0  0  0
 16 17  2  0  0  0  0
 16 18  1  0  0  0  0
 18 23  2  0  0  0  0
 18 27  1  0  0  0  0
 19 28  1  0  0  0  0
 24 20  1  1  0  0  0
 21 29  1  0  0  0  0
 22 33  1  0  0  0  0
 23 32  1  0  0  0  0
 24 30  1  0  0  0  0
 24 34  1  0  0  0  0
 27 31  2  0  0  0  0
 28 39  1  0  0  0  0
 29 37  2  0  0  0  0
 29 38  1  0  0  0  0
 30 36  1  0  0  0  0
 31 35  1  0  0  0  0
 32 35  2  0  0  0  0
 37 40  1  0  0  0  0
 38 41  2  0  0  0  0
 40 42  2  0  0  0  0
 41 42  1  0  0  0  0
M  END
> <PUBCHEM_COMPOUND_ID_TYPE>
0

> <PUBCHEM_TOTAL_CHARGE>
0

> <PUBCHEM_SUBSTANCE_ID>
310942795

> <PUBCHEM_SUBSTANCE_VERSION>
1

> <PUBCHEM_EXT_DATASOURCE_NAME>
4488

> <PUBCHEM_EXT_DATASOURCE_REGID>
SCHEMBL16120848

> <PUBCHEM_SUBSTANCE_COMMENT>
InChI=1S/C31H38F3N5O4/c1-19(40)29(41)39(17-21-14-36-15-25(21)34)27(31(2,3)11-12-43-30(35)42)28-37-26(23-13-22(32)9-10-24(23)33)18-38(28)16-20-7-5-4-6-8-20/h4-10,13,18-19,21,25,27,36,40H,11-12,14-17H2,1-3H3,(H2,35,42)/t19-,21-,25-,27-/m0/s1
InChIKey=OOMPCGVGHYZHJO-VJZZRSOGSA-N

> <PUBCHEM_SUBSTANCE_SYNONYM>
SCHEMBL16120848

> <PUBCHEM_XREF_EXT_ID>
SCHEMBL16120848

> <PUBCHEM_EXT_DATASOURCE_URL>
https://www.surechembl.org/

> <PUBCHEM_EXT_SUBSTANCE_URL>
https://www.surechembl.org/chemical/SCHEMBL16120848

> <PUBCHEM_CID_ASSOCIATIONS>
117609300  1

> <PUBCHEM_COORDINATE_TYPE>
1
3

> <PUBCHEM_BONDANNOTATIONS>
30  2  5
24  20  5
28  5  6
13  9  5

$$$$
