310940877
  -OEChem-07211613022D

 45 48  0     1  0  0  0  0  0999 V2000
    3.9401    2.5746    0.0000 S   0  0  0  0  0  0  0  0  0  0  0  0
    5.0638   -1.0384    0.0000 O   0  0  0  0  0  0  0  0  0  0  0  0
    3.9259    0.9103    0.0000 O   0  0  0  0  0  0  0  0  0  0  0  0
    1.7780   -1.1521    0.0000 O   0  0  0  0  0  0  0  0  0  0  0  0
    0.3414    1.3371    0.0000 O   0  0  0  0  0  0  0  0  0  0  0  0
    3.5134    3.2858    0.0000 O   0  0  0  0  0  0  0  0  0  0  0  0
    4.3384    1.8634    0.0000 O   0  0  0  0  0  0  0  0  0  0  0  0
   -0.3698    0.9103    0.0000 O   0  0  0  0  0  0  0  0  0  0  0  0
   -2.5177   -1.1521    0.0000 O   0  0  0  0  0  0  0  0  0  0  0  0
   -5.3768   -1.1521    0.0000 O   0  0  0  0  0  0  0  0  0  0  0  0
    2.5035    0.0853    0.0000 N   0  0  0  0  0  0  0  0  0  0  0  0
    0.3556   -0.3271    0.0000 N   0  0  0  0  0  0  0  0  0  0  0  0
   -1.7922    0.0853    0.0000 N   0  0  0  0  0  0  0  0  0  0  0  0
   -3.9401   -0.3271    0.0000 N   0  0  0  0  0  0  0  0  0  0  0  0
    4.6655   -0.3130    0.0000 C   0  0  3  0  0  0  0  0  0  0  0  0
    3.8832    0.0996    0.0000 C   0  0  0  0  0  0  0  0  0  0  0  0
    4.2531   -1.0241    0.0000 C   0  0  0  0  0  0  0  0  0  0  0  0
    3.2289   -0.2987    0.0000 C   0  0  3  0  0  0  0  0  0  0  0  0
    5.3768    0.1138    0.0000 C   0  0  0  0  0  0  0  0  0  0  0  0
    1.0668    0.1138    0.0000 C   0  0  3  0  0  0  0  0  0  0  0  0
    1.7922   -0.2845    0.0000 C   0  0  0  0  0  0  0  0  0  0  0  0
    3.2431   -1.6500    0.0000 C   0  0  0  0  0  0  0  0  0  0  0  0
    1.0811    0.9530    0.0000 C   0  0  3  0  0  0  0  0  0  0  0  0
    1.7922    1.3513    0.0000 C   0  0  0  0  0  0  0  0  0  0  0  0
    2.5035   -2.0340    0.0000 C   0  0  0  0  0  0  0  0  0  0  0  0
    3.2289    2.1763    0.0000 C   0  0  0  0  0  0  0  0  0  0  0  0
    1.8065    2.1905    0.0000 C   0  0  0  0  0  0  0  0  0  0  0  0
    2.5177    0.9530    0.0000 C   0  0  0  0  0  0  0  0  0  0  0  0
   -0.3698    0.0853    0.0000 C   0  0  0  0  0  0  0  0  0  0  0  0
    2.5035    2.5746    0.0000 C   0  0  0  0  0  0  0  0  0  0  0  0
    3.2289    1.3513    0.0000 C   0  0  0  0  0  0  0  0  0  0  0  0
   -1.0668   -0.2987    0.0000 C   0  0  3  0  0  0  0  0  0  0  0  0
    1.7780   -1.6500    0.0000 C   0  0  0  0  0  0  0  0  0  0  0  0
    2.5035   -2.8733    0.0000 C   0  0  0  0  0  0  0  0  0  0  0  0
    1.0811   -2.0483    0.0000 C   0  0  0  0  0  0  0  0  0  0  0  0
    1.7922   -3.2858    0.0000 C   0  0  0  0  0  0  0  0  0  0  0  0
    4.6798    3.0155    0.0000 C   0  0  0  0  0  0  0  0  0  0  0  0
   -2.5035   -0.2845    0.0000 C   0  0  0  0  0  0  0  0  0  0  0  0
    1.0811   -2.8733    0.0000 C   0  0  0  0  0  0  0  0  0  0  0  0
   -1.0811   -1.1095    0.0000 C   0  0  0  0  0  0  0  0  0  0  0  0
   -3.2573    0.0996    0.0000 C   0  0  0  0  0  0  0  0  0  0  0  0
   -3.9401   -1.1380    0.0000 C   0  0  0  0  0  0  0  0  0  0  0  0
   -4.6940    0.0996    0.0000 C   0  0  0  0  0  0  0  0  0  0  0  0
   -4.6371   -1.5362    0.0000 C   0  0  0  0  0  0  0  0  0  0  0  0
   -5.3625   -0.2987    0.0000 C   0  0  0  0  0  0  0  0  0  0  0  0
  1  6  2  0  0  0  0
  1  7  2  0  0  0  0
  1 26  1  0  0  0  0
  1 37  1  0  0  0  0
  2 15  1  0  0  0  0
  2 17  1  0  0  0  0
  3 16  2  0  0  0  0
  4 21  2  0  0  0  0
 23  5  1  6  0  0  0
  8 29  2  0  0  0  0
  9 38  2  0  0  0  0
 10 44  1  0  0  0  0
 10 45  1  0  0  0  0
 18 11  1  6  0  0  0
 11 21  1  0  0  0  0
 20 12  1  1  0  0  0
 12 29  1  0  0  0  0
 13 32  1  0  0  0  0
 13 38  1  0  0  0  0
 14 41  1  0  0  0  0
 14 42  1  0  0  0  0
 14 43  1  0  0  0  0
 15 16  1  6  0  0  0
 15 17  1  0  0  0  0
 15 19  1  1  0  0  0
 16 18  1  0  0  0  0
 18 22  1  0  0  0  0
 20 21  1  0  0  0  0
 20 23  1  0  0  0  0
 22 25  1  0  0  0  0
 23 24  1  0  0  0  0
 24 27  2  0  0  0  0
 24 28  1  0  0  0  0
 25 33  2  0  0  0  0
 25 34  1  0  0  0  0
 26 30  2  0  0  0  0
 26 31  1  0  0  0  0
 27 30  1  0  0  0  0
 28 31  2  0  0  0  0
 29 32  1  0  0  0  0
 32 40  1  6  0  0  0
 33 35  1  0  0  0  0
 34 36  1  0  0  0  0
 35 39  1  0  0  0  0
 36 39  1  0  0  0  0
 38 41  1  0  0  0  0
 42 44  1  0  0  0  0
 43 45  1  0  0  0  0
M  END
> <PUBCHEM_COMPOUND_ID_TYPE>
0

> <PUBCHEM_TOTAL_CHARGE>
0

> <PUBCHEM_SUBSTANCE_ID>
310940877

> <PUBCHEM_SUBSTANCE_VERSION>
1

> <PUBCHEM_EXT_DATASOURCE_NAME>
4488

> <PUBCHEM_EXT_DATASOURCE_REGID>
SCHEMBL16118836

> <PUBCHEM_SUBSTANCE_COMMENT>
InChI=1S/C31H44N4O9S/c1-20(32-25(36)18-35-13-15-43-16-14-35)29(39)34-26(27(37)22-9-11-23(12-10-22)45(3,41)42)30(40)33-24(28(38)31(2)19-44-31)17-21-7-5-4-6-8-21/h7,9-12,20,24,26-27,37H,4-6,8,13-19H2,1-3H3,(H,32,36)(H,33,40)(H,34,39)/t20-,24-,26-,27+,31+/m0/s1
InChIKey=IVFSVAPVOZIVIQ-YOMOGWHRSA-N

> <PUBCHEM_SUBSTANCE_SYNONYM>
SCHEMBL16118836

> <PUBCHEM_XREF_EXT_ID>
SCHEMBL16118836

> <PUBCHEM_EXT_DATASOURCE_URL>
https://www.surechembl.org/

> <PUBCHEM_EXT_SUBSTANCE_URL>
https://www.surechembl.org/chemical/SCHEMBL16118836

> <PUBCHEM_CID_ASSOCIATIONS>
117607794  1

> <PUBCHEM_COORDINATE_TYPE>
1
3

> <PUBCHEM_BONDANNOTATIONS>
18  11  6
20  12  5
15  16  6
15  19  5
32  40  6
23  5  6

$$$$
