310947274
  -OEChem-07211613022D

 21 22  0     0  0  0  0  0  0999 V2000
   -0.0374    3.0361    0.0000 Br  0  0  0  0  0  0  0  0  0  0  0  0
    2.8501    3.7506    0.0000 O   0  0  0  0  0  0  0  0  0  0  0  0
    3.6752    2.3216    0.0000 C   0  0  0  0  0  0  0  0  0  0  0  0
    4.0876    3.0361    0.0000 C   0  0  0  0  0  0  0  0  0  0  0  0
    2.8501    2.3216    0.0000 C   0  0  0  0  0  0  0  0  0  0  0  0
    3.6752    3.7506    0.0000 C   0  0  0  0  0  0  0  0  0  0  0  0
    4.0876    1.6072    0.0000 C   0  0  0  0  0  0  0  0  0  0  0  0
    4.9126    3.0361    0.0000 C   0  0  0  0  0  0  0  0  0  0  0  0
    2.4375    1.6072    0.0000 C   0  0  0  0  0  0  0  0  0  0  0  0
    2.4375    3.0361    0.0000 C   0  0  0  0  0  0  0  0  0  0  0  0
    4.0876    4.4651    0.0000 C   0  0  0  0  0  0  0  0  0  0  0  0
    3.6752    5.1796    0.0000 C   0  0  0  0  0  0  0  0  0  0  0  0
    1.2001    2.3216    0.0000 C   0  0  0  0  0  0  0  0  0  0  0  0
    4.9126    1.6072    0.0000 C   0  0  0  0  0  0  0  0  0  0  0  0
    5.3251    2.3216    0.0000 C   0  0  0  0  0  0  0  0  0  0  0  0
    1.6127    1.6072    0.0000 C   0  0  0  0  0  0  0  0  0  0  0  0
    1.6127    3.0361    0.0000 C   0  0  0  0  0  0  0  0  0  0  0  0
    0.3750    2.3216    0.0000 C   0  0  0  0  0  0  0  0  0  0  0  0
    4.0876    5.8941    0.0000 C   0  0  0  0  0  0  0  0  0  0  0  0
    2.8501    5.1796    0.0000 C   0  0  0  0  0  0  0  0  0  0  0  0
    4.5001    5.1796    0.0000 C   0  0  0  0  0  0  0  0  0  0  0  0
  1 18  1  0  0  0  0
  2  6  2  0  0  0  0
  3  4  1  0  0  0  0
  3  5  1  0  0  0  0
  3  7  2  0  0  0  0
  4  6  1  0  0  0  0
  4  8  2  0  0  0  0
  5  9  2  0  0  0  0
  5 10  1  0  0  0  0
  6 11  1  0  0  0  0
  7 14  1  0  0  0  0
  8 15  1  0  0  0  0
  9 16  1  0  0  0  0
 10 17  2  0  0  0  0
 11 12  1  0  0  0  0
 12 19  1  0  0  0  0
 12 20  1  0  0  0  0
 12 21  1  0  0  0  0
 13 16  2  0  0  0  0
 13 17  1  0  0  0  0
 13 18  1  0  0  0  0
 14 15  2  0  0  0  0
M  END
> <PUBCHEM_COMPOUND_ID_TYPE>
0

> <PUBCHEM_TOTAL_CHARGE>
0

> <PUBCHEM_SUBSTANCE_ID>
310947274

> <PUBCHEM_SUBSTANCE_VERSION>
1

> <PUBCHEM_EXT_DATASOURCE_NAME>
4488

> <PUBCHEM_EXT_DATASOURCE_REGID>
SCHEMBL16125429

> <PUBCHEM_SUBSTANCE_COMMENT>
InChI=1S/C19H21BrO/c1-19(2,3)12-18(21)17-7-5-4-6-16(17)15-10-8-14(13-20)9-11-15/h4-11H,12-13H2,1-3H3
InChIKey=BNXSQDSJUSUYPJ-UHFFFAOYSA-N

> <PUBCHEM_SUBSTANCE_SYNONYM>
SCHEMBL16125429

> <PUBCHEM_XREF_EXT_ID>
SCHEMBL16125429

> <PUBCHEM_EXT_DATASOURCE_URL>
https://www.surechembl.org/

> <PUBCHEM_EXT_SUBSTANCE_URL>
https://www.surechembl.org/chemical/SCHEMBL16125429

> <PUBCHEM_CID_ASSOCIATIONS>
58232601  1

> <PUBCHEM_COORDINATE_TYPE>
1
3

$$$$
