310928658
  -OEChem-07211613022D

  7  7  0     1  0  0  0  0  0999 V2000
    1.4521    0.4048    0.0000 O   0  0  0  0  0  0  0  0  0  0  0  0
    0.4125   -0.6348    0.0000 N   0  0  0  0  0  0  0  0  0  0  0  0
   -1.4521    0.4048    0.0000 N   0  0  0  0  0  0  0  0  0  0  0  0
    0.6674    0.1498    0.0000 C   0  0  0  0  0  0  0  0  0  0  0  0
   -0.6674    0.1498    0.0000 C   0  0  3  0  0  0  0  0  0  0  0  0
   -0.0000    0.6348    0.0000 C   0  0  0  0  0  0  0  0  0  0  0  0
   -0.4125   -0.6348    0.0000 C   0  0  0  0  0  0  0  0  0  0  0  0
  1  4  2  0  0  0  0
  2  4  1  0  0  0  0
  2  7  1  0  0  0  0
  5  3  1  1  0  0  0
  4  6  1  0  0  0  0
  5  6  1  0  0  0  0
  5  7  1  0  0  0  0
M  END
> <PUBCHEM_COMPOUND_ID_TYPE>
0

> <PUBCHEM_TOTAL_CHARGE>
0

> <PUBCHEM_SUBSTANCE_ID>
310928658

> <PUBCHEM_SUBSTANCE_VERSION>
1

> <PUBCHEM_EXT_DATASOURCE_NAME>
11752

> <PUBCHEM_EXT_DATASOURCE_REGID>
BD222446

> <PUBCHEM_SUBSTANCE_SYNONYM>
(S)-4-Aminopyrrolidin-2-one
160806-40-6

> <PUBCHEM_GENERIC_REGISTRY_NAME>
160806-40-6

> <PUBCHEM_XREF_EXT_ID>
BD222446

> <PUBCHEM_EXT_DATASOURCE_URL>
http://www.bidepharmatech.com/en/index.html

> <PUBCHEM_EXT_SUBSTANCE_URL>
http://www.bidepharmatech.com/en/goodsview_goodscode_BD222446.html

> <PUBCHEM_CID_ASSOCIATIONS>
27369170  1

> <PUBCHEM_COORDINATE_TYPE>
1
3

> <PUBCHEM_BONDANNOTATIONS>
5  3  5

$$$$
