310943657
  -OEChem-07211613022D

 37 40  0     1  0  0  0  0  0999 V2000
    4.6666    2.2671    0.0000 F   0  0  0  0  0  0  0  0  0  0  0  0
    5.3879    1.8549    0.0000 F   0  0  0  0  0  0  0  0  0  0  0  0
    5.3879    1.0304    0.0000 F   0  0  0  0  0  0  0  0  0  0  0  0
   -5.3879    2.2671    0.0000 O   0  0  0  0  0  0  0  0  0  0  0  0
    1.7959    2.2671    0.0000 O   0  0  0  0  0  0  0  0  0  0  0  0
   -1.0894   -2.6940    0.0000 O   0  0  0  0  0  0  0  0  0  0  0  0
   -3.9600    1.4427    0.0000 N   0  0  0  0  0  0  0  0  0  0  0  0
   -3.2387    0.2061    0.0000 N   0  0  0  0  0  0  0  0  0  0  0  0
    1.0747    1.0304    0.0000 N   0  0  0  0  0  0  0  0  0  0  0  0
   -0.3680    2.6940    0.0000 N   0  0  0  0  0  0  0  0  0  0  0  0
   -2.5173   -1.0304    0.0000 N   0  0  0  0  0  0  0  0  0  0  0  0
    3.9453    0.2061    0.0000 N   0  0  0  0  0  0  0  0  0  0  0  0
   -1.7959    1.0452    0.0000 C   0  0  0  0  0  0  0  0  0  0  0  0
   -1.0894    1.4574    0.0000 C   0  0  0  0  0  0  0  0  0  0  0  0
   -3.2387    1.0452    0.0000 C   0  0  0  0  0  0  0  0  0  0  0  0
   -2.5320    1.4427    0.0000 C   0  0  0  0  0  0  0  0  0  0  0  0
   -1.0747    2.2818    0.0000 C   0  0  0  0  0  0  0  0  0  0  0  0
   -2.5173   -0.2061    0.0000 C   0  0  0  0  0  0  0  0  0  0  0  0
   -1.8107    0.2061    0.0000 C   0  0  0  0  0  0  0  0  0  0  0  0
   -0.3386    1.0452    0.0000 C   0  0  0  0  0  0  0  0  0  0  0  0
    0.3386    1.4574    0.0000 C   0  0  0  0  0  0  0  0  0  0  0  0
    2.5173    1.0304    0.0000 C   0  0  0  0  0  0  0  0  0  0  0  0
   -3.9453    2.2818    0.0000 C   0  0  3  0  0  0  0  0  0  0  0  0
    3.9600    1.0452    0.0000 C   0  0  0  0  0  0  0  0  0  0  0  0
    1.7812    1.4427    0.0000 C   0  0  0  0  0  0  0  0  0  0  0  0
    0.3680    2.2671    0.0000 C   0  0  0  0  0  0  0  0  0  0  0  0
    4.6814    1.4574    0.0000 C   0  0  0  0  0  0  0  0  0  0  0  0
    3.2092    1.4427    0.0000 C   0  0  0  0  0  0  0  0  0  0  0  0
   -4.6519    1.0452    0.0000 C   0  0  0  0  0  0  0  0  0  0  0  0
    2.5173    0.2061    0.0000 C   0  0  0  0  0  0  0  0  0  0  0  0
   -4.6814    2.6940    0.0000 C   0  0  0  0  0  0  0  0  0  0  0  0
   -1.8107    2.6792    0.0000 C   0  0  0  0  0  0  0  0  0  0  0  0
    3.2387   -0.2061    0.0000 C   0  0  0  0  0  0  0  0  0  0  0  0
   -5.3879    1.4427    0.0000 C   0  0  0  0  0  0  0  0  0  0  0  0
   -3.2534    2.6792    0.0000 C   0  0  0  0  0  0  0  0  0  0  0  0
   -1.7959   -1.4574    0.0000 C   0  0  0  0  0  0  0  0  0  0  0  0
   -1.7959   -2.2671    0.0000 C   0  0  0  0  0  0  0  0  0  0  0  0
  1 27  1  0  0  0  0
  2 27  1  0  0  0  0
  3 27  1  0  0  0  0
  4 31  1  0  0  0  0
  4 34  1  0  0  0  0
  5 25  2  0  0  0  0
  6 37  1  0  0  0  0
  7 15  1  0  0  0  0
  7 23  1  0  0  0  0
  7 29  1  0  0  0  0
  8 15  2  0  0  0  0
  8 18  1  0  0  0  0
  9 21  1  0  0  0  0
  9 25  1  0  0  0  0
 10 17  2  0  0  0  0
 10 26  1  0  0  0  0
 11 18  1  0  0  0  0
 11 36  1  0  0  0  0
 12 24  1  0  0  0  0
 12 33  2  0  0  0  0
 13 14  1  0  0  0  0
 13 16  2  0  0  0  0
 13 19  1  0  0  0  0
 14 17  1  0  0  0  0
 14 20  2  0  0  0  0
 15 16  1  0  0  0  0
 17 32  1  0  0  0  0
 18 19  2  0  0  0  0
 20 21  1  0  0  0  0
 21 26  2  0  0  0  0
 22 25  1  0  0  0  0
 22 28  1  0  0  0  0
 22 30  2  0  0  0  0
 23 31  1  0  0  0  0
 23 35  1  1  0  0  0
 24 27  1  0  0  0  0
 24 28  2  0  0  0  0
 29 34  1  0  0  0  0
 30 33  1  0  0  0  0
 36 37  1  0  0  0  0
M  END
> <PUBCHEM_COMPOUND_ID_TYPE>
0

> <PUBCHEM_TOTAL_CHARGE>
0

> <PUBCHEM_SUBSTANCE_ID>
310943657

> <PUBCHEM_SUBSTANCE_VERSION>
1

> <PUBCHEM_EXT_DATASOURCE_NAME>
4488

> <PUBCHEM_EXT_DATASOURCE_REGID>
SCHEMBL16121725

> <PUBCHEM_SUBSTANCE_COMMENT>
InChI=1S/C25H27F3N6O3/c1-15-14-37-8-6-34(15)23-11-18(10-22(33-23)30-5-7-35)20-12-19(13-31-16(20)2)32-24(36)17-3-4-29-21(9-17)25(26,27)28/h3-4,9-13,15,35H,5-8,14H2,1-2H3,(H,30,33)(H,32,36)/t15-/m1/s1
InChIKey=XQVFVYLAOBUEPN-OAHLLOKOSA-N

> <PUBCHEM_SUBSTANCE_SYNONYM>
SCHEMBL16121725

> <PUBCHEM_XREF_EXT_ID>
SCHEMBL16121725

> <PUBCHEM_EXT_DATASOURCE_URL>
https://www.surechembl.org/

> <PUBCHEM_EXT_SUBSTANCE_URL>
https://www.surechembl.org/chemical/SCHEMBL16121725

> <PUBCHEM_CID_ASSOCIATIONS>
117610047  1

> <PUBCHEM_COORDINATE_TYPE>
1
3

> <PUBCHEM_BONDANNOTATIONS>
23  35  5

$$$$
