310940214
  -OEChem-07211613022D

 35 39  0     0  0  0  0  0  0999 V2000
   -1.2088   -4.1015    0.0000 Cl  0  0  0  0  0  0  0  0  0  0  0  0
   -0.1084   -2.8677    0.0000 F   0  0  0  0  0  0  0  0  0  0  0  0
   -3.2930    0.4668    0.0000 O   0  0  0  0  0  0  0  0  0  0  0  0
   -0.5252    0.3335    0.0000 N   0  0  0  0  0  0  0  0  0  0  0  0
   -0.8587   -0.4335    0.0000 N   0  0  0  0  0  0  0  0  0  0  0  0
   -2.2425   -0.9504    0.0000 N   0  0  0  0  0  0  0  0  0  0  0  0
   -2.5760    1.7006    0.0000 N   0  0  0  0  0  0  0  0  0  0  0  0
    0.9253    2.9011    0.0000 N   0  0  0  0  0  0  0  0  0  0  0  0
    2.4426    0.0500    0.0000 N   0  0  0  0  0  0  0  0  0  0  0  0
    0.2584    0.5335    0.0000 C   0  0  0  0  0  0  0  0  0  0  0  0
   -1.1588    0.8837    0.0000 C   0  0  0  0  0  0  0  0  0  0  0  0
   -1.8591    0.4835    0.0000 C   0  0  0  0  0  0  0  0  0  0  0  0
   -1.6923   -0.3168    0.0000 C   0  0  0  0  0  0  0  0  0  0  0  0
   -2.5760    0.9003    0.0000 C   0  0  0  0  0  0  0  0  0  0  0  0
   -0.2918    1.0837    0.0000 C   0  0  0  0  0  0  0  0  0  0  0  0
    1.0587    0.7336    0.0000 C   0  0  0  0  0  0  0  0  0  0  0  0
   -1.1421    1.7173    0.0000 C   0  0  0  0  0  0  0  0  0  0  0  0
    0.8086   -0.1000    0.0000 C   0  0  0  0  0  0  0  0  0  0  0  0
   -1.8757    2.1176    0.0000 C   0  0  0  0  0  0  0  0  0  0  0  0
   -0.0917    1.8841    0.0000 C   0  0  0  0  0  0  0  0  0  0  0  0
    1.2755    1.5172    0.0000 C   0  0  0  0  0  0  0  0  0  0  0  0
    0.6920    2.1009    0.0000 C   0  0  0  0  0  0  0  0  0  0  0  0
   -1.9925   -1.7340    0.0000 C   0  0  0  0  0  0  0  0  0  0  0  0
    1.6423    0.0500    0.0000 C   0  0  0  0  0  0  0  0  0  0  0  0
   -1.1921   -1.9174    0.0000 C   0  0  0  0  0  0  0  0  0  0  0  0
   -2.5260   -2.3342    0.0000 C   0  0  0  0  0  0  0  0  0  0  0  0
   -0.9420   -2.6843    0.0000 C   0  0  0  0  0  0  0  0  0  0  0  0
   -1.4756   -3.3180    0.0000 C   0  0  0  0  0  0  0  0  0  0  0  0
   -2.2925   -3.1345    0.0000 C   0  0  0  0  0  0  0  0  0  0  0  0
    1.7256    3.1179    0.0000 C   0  0  0  0  0  0  0  0  0  0  0  0
    2.3092    2.5343    0.0000 C   0  0  0  0  0  0  0  0  0  0  0  0
    1.9425    3.9181    0.0000 C   0  0  0  0  0  0  0  0  0  0  0  0
    3.0928    2.7510    0.0000 C   0  0  0  0  0  0  0  0  0  0  0  0
    2.7427    4.1015    0.0000 C   0  0  0  0  0  0  0  0  0  0  0  0
    3.2930    3.5514    0.0000 C   0  0  0  0  0  0  0  0  0  0  0  0
  1 28  1  0  0  0  0
  2 27  1  0  0  0  0
  3 14  2  0  0  0  0
  4  5  1  0  0  0  0
  4 10  1  0  0  0  0
  4 11  1  0  0  0  0
  5 13  2  0  0  0  0
  6 13  1  0  0  0  0
  6 23  1  0  0  0  0
  7 14  1  0  0  0  0
  7 19  1  0  0  0  0
 22  8  1  1  0  0  0
  8 30  1  0  0  0  0
  9 24  3  0  0  0  0
 10 15  1  0  0  0  0
 10 16  1  0  0  0  0
 10 18  1  6  0  0  0
 11 12  2  0  0  0  0
 11 17  1  0  0  0  0
 12 13  1  0  0  0  0
 12 14  1  0  0  0  0
 15 20  1  0  0  0  0
 16 21  1  0  0  0  0
 17 19  2  0  0  0  0
 18 24  1  0  0  0  0
 20 22  1  0  0  0  0
 21 22  1  0  0  0  0
 23 25  1  0  0  0  0
 23 26  2  0  0  0  0
 25 27  2  0  0  0  0
 26 29  1  0  0  0  0
 27 28  1  0  0  0  0
 28 29  2  0  0  0  0
 30 31  2  0  0  0  0
 30 32  1  0  0  0  0
 31 33  1  0  0  0  0
 32 34  2  0  0  0  0
 33 35  2  0  0  0  0
 34 35  1  0  0  0  0
M  END
> <PUBCHEM_COMPOUND_ID_TYPE>
0

> <PUBCHEM_TOTAL_CHARGE>
0

> <PUBCHEM_SUBSTANCE_ID>
310940214

> <PUBCHEM_SUBSTANCE_VERSION>
1

> <PUBCHEM_EXT_DATASOURCE_NAME>
4488

> <PUBCHEM_EXT_DATASOURCE_REGID>
SCHEMBL16118148

> <PUBCHEM_SUBSTANCE_COMMENT>
InChI=1S/C26H24ClFN6O/c27-20-7-6-19(16-21(20)28)32-24-23-22(10-15-30-25(23)35)34(33-24)26(13-14-29)11-8-18(9-12-26)31-17-4-2-1-3-5-17/h1-7,10,15-16,18,31H,8-9,11-13H2,(H,30,35)(H,32,33)/t18-,26+
InChIKey=JMOKBFLKPVDJME-SKUGRUHMSA-N

> <PUBCHEM_SUBSTANCE_SYNONYM>
SCHEMBL16118148

> <PUBCHEM_XREF_EXT_ID>
SCHEMBL16118148

> <PUBCHEM_EXT_DATASOURCE_URL>
https://www.surechembl.org/

> <PUBCHEM_EXT_SUBSTANCE_URL>
https://www.surechembl.org/chemical/SCHEMBL16118148

> <PUBCHEM_CID_ASSOCIATIONS>
90462672  1

> <PUBCHEM_COORDINATE_TYPE>
1
3

> <PUBCHEM_BONDANNOTATIONS>
10  18  6
22  8  5

$$$$
