310929655
  -OEChem-07211613022D

 64 72  0     1  0  0  0  0  0999 V2000
    5.7314   -0.9469    0.0000 S   0  0  0  0  0  0  0  0  0  0  0  0
    5.3327   -2.5417    0.0000 O   0  0  0  0  0  0  0  0  0  0  0  0
    5.9307   -1.6945    0.0000 O   0  0  0  0  0  0  0  0  0  0  0  0
    5.4822   -0.1495    0.0000 O   0  0  0  0  0  0  0  0  0  0  0  0
    5.2829   -3.1896    0.0000 O   0  0  0  0  0  0  0  0  0  0  0  0
    6.3793   -5.5320    0.0000 O   0  0  0  0  0  0  0  0  0  0  0  0
    2.4919   -3.9870    0.0000 O   0  0  0  0  0  0  0  0  0  0  0  0
    7.4259   -8.3728    0.0000 O   0  0  0  0  0  0  0  0  0  0  0  0
    1.9437   -7.5754    0.0000 O   0  0  0  0  0  0  0  0  0  0  0  0
    0.9967   -6.7282    0.0000 O   0  0  0  0  0  0  0  0  0  0  0  0
    3.8873   -2.9903    0.0000 N   0  0  0  0  0  0  0  0  0  0  0  0
    4.9340   -1.1463    0.0000 N   0  0  0  0  0  0  0  0  0  0  0  0
    3.6880   -4.2861    0.0000 N   0  0  0  0  0  0  0  0  0  0  0  0
    1.9437   -5.8809    0.0000 N   0  0  0  0  0  0  0  0  0  0  0  0
    7.4259   -5.8809    0.0000 N   0  0  0  0  0  0  0  0  0  0  0  0
    9.5689   -9.5191    0.0000 N   0  0  0  0  0  0  0  0  0  0  0  0
    3.9372   -2.1929    0.0000 C   0  0  3  0  0  0  0  0  0  0  0  0
    3.2395   -1.7942    0.0000 C   0  0  3  0  0  0  0  0  0  0  0  0
    3.9372   -1.3456    0.0000 C   0  0  0  0  0  0  0  0  0  0  0  0
    4.7346   -1.9437    0.0000 C   0  0  0  0  0  0  0  0  0  0  0  0
    6.4790   -0.6978    0.0000 C   0  0  0  0  0  0  0  0  0  0  0  0
    4.5353   -3.4887    0.0000 C   0  0  0  0  0  0  0  0  0  0  0  0
    2.4420   -1.8440    0.0000 C   0  0  0  0  0  0  0  0  0  0  0  0
    4.4356   -4.2861    0.0000 C   0  0  3  0  0  0  0  0  0  0  0  0
    7.0770   -0.0997    0.0000 C   0  0  0  0  0  0  0  0  0  0  0  0
    7.3262   -0.8971    0.0000 C   0  0  0  0  0  0  0  0  0  0  0  0
    5.2829   -4.4854    0.0000 C   0  0  0  0  0  0  0  0  0  0  0  0
    2.9404   -4.6848    0.0000 C   0  0  0  0  0  0  0  0  0  0  0  0
    5.9307   -4.8343    0.0000 C   0  0  3  0  0  0  0  0  0  0  0  0
    6.0802    0.0000    0.0000 C   0  0  0  0  0  0  0  0  0  0  0  0
    4.9838   -3.9372    0.0000 C   0  0  0  0  0  0  0  0  0  0  0  0
    2.2926   -5.2330    0.0000 C   0  0  3  0  0  0  0  0  0  0  0  0
    1.6945   -4.7346    0.0000 C   0  0  0  0  0  0  0  0  0  0  0  0
    2.0434   -2.5417    0.0000 C   0  0  0  0  0  0  0  0  0  0  0  0
    6.6783   -6.3294    0.0000 C   0  0  0  0  0  0  0  0  0  0  0  0
    6.6783   -7.0770    0.0000 C   0  0  0  0  0  0  0  0  0  0  0  0
    7.4259   -7.5754    0.0000 C   0  0  0  0  0  0  0  0  0  0  0  0
    8.0738   -7.0770    0.0000 C   0  0  0  0  0  0  0  0  0  0  0  0
    8.0738   -6.3294    0.0000 C   0  0  0  0  0  0  0  0  0  0  0  0
    1.1463   -5.3327    0.0000 C   0  0  0  0  0  0  0  0  0  0  0  0
    1.3456   -3.9372    0.0000 C   0  0  0  0  0  0  0  0  0  0  0  0
    1.8440   -6.7282    0.0000 C   0  0  0  0  0  0  0  0  0  0  0  0
    2.1929   -4.0867    0.0000 C   0  0  0  0  0  0  0  0  0  0  0  0
    6.3793   -7.9243    0.0000 C   0  0  0  0  0  0  0  0  0  0  0  0
    8.8213   -7.5754    0.0000 C   0  0  0  0  0  0  0  0  0  0  0  0
    8.8213   -5.8809    0.0000 C   0  0  0  0  0  0  0  0  0  0  0  0
    2.2926   -8.2233    0.0000 C   0  0  3  0  0  0  0  0  0  0  0  0
    2.9404   -8.7715    0.0000 C   0  0  3  0  0  0  0  0  0  0  0  0
    0.3489   -5.2330    0.0000 C   0  0  0  0  0  0  0  0  0  0  0  0
    0.5482   -3.8376    0.0000 C   0  0  0  0  0  0  0  0  0  0  0  0
    8.1236   -8.7715    0.0000 C   0  0  0  0  0  0  0  0  0  0  0  0
    2.0932   -9.0207    0.0000 C   0  0  0  0  0  0  0  0  0  0  0  0
    9.5191   -7.0770    0.0000 C   0  0  0  0  0  0  0  0  0  0  0  0
    9.5191   -6.3294    0.0000 C   0  0  0  0  0  0  0  0  0  0  0  0
    0.0000   -4.4356    0.0000 C   0  0  0  0  0  0  0  0  0  0  0  0
    5.9307   -8.5721    0.0000 C   0  0  0  0  0  0  0  0  0  0  0  0
    3.6880   -9.1204    0.0000 C   0  0  0  0  0  0  0  0  0  0  0  0
    8.1735   -9.5689    0.0000 C   0  0  0  0  0  0  0  0  0  0  0  0
    8.8712   -8.3230    0.0000 C   0  0  0  0  0  0  0  0  0  0  0  0
    5.2829   -8.9210    0.0000 C   0  0  0  0  0  0  0  0  0  0  0  0
    4.4356   -9.1204    0.0000 C   0  0  0  0  0  0  0  0  0  0  0  0
    8.9210   -9.9676    0.0000 C   0  0  0  0  0  0  0  0  0  0  0  0
    9.5689   -8.7216    0.0000 C   0  0  0  0  0  0  0  0  0  0  0  0
   10.3165   -9.9178    0.0000 C   0  0  0  0  0  0  0  0  0  0  0  0
  1  3  2  0  0  0  0
  1  4  2  0  0  0  0
  1 12  1  0  0  0  0
  1 21  1  0  0  0  0
  2 20  2  0  0  0  0
  5 22  2  0  0  0  0
  6 29  1  0  0  0  0
  6 35  1  0  0  0  0
  7 28  2  0  0  0  0
  8 37  1  0  0  0  0
  8 51  1  0  0  0  0
  9 42  1  0  0  0  0
  9 47  1  0  0  0  0
 10 42  2  0  0  0  0
 17 11  1  1  0  0  0
 11 22  1  0  0  0  0
 12 20  1  0  0  0  0
 13 24  1  0  0  0  0
 13 28  1  0  0  0  0
 13 31  1  0  0  0  0
 14 32  1  0  0  0  0
 14 42  1  0  0  0  0
 15 35  1  0  0  0  0
 15 39  2  0  0  0  0
 16 62  1  0  0  0  0
 16 63  1  0  0  0  0
 16 64  1  0  0  0  0
 17 18  1  0  0  0  0
 17 19  1  0  0  0  0
 17 20  1  6  0  0  0
 18 19  1  0  0  0  0
 18 23  1  6  0  0  0
 21 25  1  0  0  0  0
 21 26  1  0  0  0  0
 21 30  1  0  0  0  0
 24 22  1  6  0  0  0
 23 34  2  0  0  0  0
 24 27  1  0  0  0  0
 25 26  1  0  0  0  0
 29 27  1  1  0  0  0
 32 28  1  1  0  0  0
 29 31  1  0  0  0  0
 32 33  1  0  0  0  0
 33 40  1  0  0  0  0
 33 41  1  0  0  0  0
 33 43  1  0  0  0  0
 35 36  2  0  0  0  0
 36 37  1  0  0  0  0
 36 44  1  0  0  0  0
 37 38  2  0  0  0  0
 38 39  1  0  0  0  0
 38 45  1  0  0  0  0
 39 46  1  0  0  0  0
 40 49  1  0  0  0  0
 41 50  1  0  0  0  0
 44 56  1  0  0  0  0
 45 53  2  0  0  0  0
 46 54  2  0  0  0  0
 47 48  1  0  0  0  0
 47 52  1  1  0  0  0
 48 52  1  6  0  0  0
 48 57  1  0  0  0  0
 49 55  1  0  0  0  0
 50 55  1  0  0  0  0
 51 58  1  0  0  0  0
 51 59  1  0  0  0  0
 53 54  1  0  0  0  0
 56 60  1  0  0  0  0
 57 61  1  0  0  0  0
 58 62  1  0  0  0  0
 59 63  1  0  0  0  0
 60 61  1  0  0  0  0
M  END
> <PUBCHEM_COMPOUND_ID_TYPE>
0

> <PUBCHEM_TOTAL_CHARGE>
0

> <PUBCHEM_SUBSTANCE_ID>
310929655

> <PUBCHEM_SUBSTANCE_VERSION>
1

> <PUBCHEM_EXT_DATASOURCE_NAME>
4488

> <PUBCHEM_EXT_DATASOURCE_REGID>
SCHEMBL16106846

> <PUBCHEM_SUBSTANCE_COMMENT>
InChI=1S/C48H66N6O9S/c1-5-31-28-48(31,44(57)52-64(59,60)47(3)22-23-47)51-41(55)37-27-33-29-54(37)43(56)40(46(2)20-12-7-13-21-46)50-45(58)63-38-26-30(38)14-8-6-9-16-35-39(61-32-18-24-53(4)25-19-32)34-15-10-11-17-36(34)49-42(35)62-33/h5,10-11,15,17,30-33,37-38,40H,1,6-9,12-14,16,18-29H2,2-4H3,(H,50,58)(H,51,55)(H,52,57)/t30-,31-,33-,37+,38-,40-,48-/m1/s1
InChIKey=MDYNQXMEIPMTKZ-OOJOQSQRSA-N

> <PUBCHEM_SUBSTANCE_SYNONYM>
SCHEMBL16106846

> <PUBCHEM_XREF_EXT_ID>
SCHEMBL16106846

> <PUBCHEM_EXT_DATASOURCE_URL>
https://www.surechembl.org/

> <PUBCHEM_EXT_SUBSTANCE_URL>
https://www.surechembl.org/chemical/SCHEMBL16106846

> <PUBCHEM_CID_ASSOCIATIONS>
117598954  1

> <PUBCHEM_COORDINATE_TYPE>
1
3

> <PUBCHEM_BONDANNOTATIONS>
17  11  5
17  20  6
18  23  6
24  22  6
29  27  5
32  28  5
47  52  5
48  52  6

$$$$
