310933162
  -OEChem-07211613022D

 43 48  0     1  0  0  0  0  0999 V2000
    0.0000   -3.0669    0.0000 Cl  0  0  0  0  0  0  0  0  0  0  0  0
    1.6464   -2.9377    0.0000 F   0  0  0  0  0  0  0  0  0  0  0  0
    4.6165   -5.8110    0.0000 O   0  0  0  0  0  0  0  0  0  0  0  0
    3.9063   -3.7448    0.0000 O   0  0  0  0  0  0  0  0  0  0  0  0
    7.5220    0.0000    0.0000 O   0  0  0  0  0  0  0  0  0  0  0  0
    8.2322   -1.2267    0.0000 O   0  0  0  0  0  0  0  0  0  0  0  0
    5.3267   -4.5842    0.0000 N   0  0  0  0  0  0  0  0  0  0  0  0
    2.5827   -4.2937    0.0000 N   0  0  0  0  0  0  0  0  0  0  0  0
    4.0031   -3.9063    0.0000 N   0  0  0  0  0  0  0  0  0  0  0  0
    4.6487   -2.4858    0.0000 N   0  0  0  0  0  0  0  0  0  0  0  0
    3.0023   -3.5511    0.0000 N   0  0  0  0  0  0  0  0  0  0  0  0
    8.9101   -5.0361    0.0000 N   0  0  0  0  0  0  0  0  0  0  0  0
    9.6526   -3.8094    0.0000 N   0  0  0  0  0  0  0  0  0  0  0  0
    5.3590   -3.7448    0.0000 C   0  0  3  0  0  0  0  0  0  0  0  0
    6.0692   -3.3251    0.0000 C   0  0  0  0  0  0  0  0  0  0  0  0
    6.7795   -3.7448    0.0000 C   0  0  0  0  0  0  0  0  0  0  0  0
    4.6165   -4.9716    0.0000 C   0  0  0  0  0  0  0  0  0  0  0  0
    7.4897   -3.3575    0.0000 C   0  0  0  0  0  0  0  0  0  0  0  0
    4.6487   -3.3251    0.0000 C   0  0  0  0  0  0  0  0  0  0  0  0
    3.9063   -4.5519    0.0000 C   0  0  0  0  0  0  0  0  0  0  0  0
    6.0369   -4.9716    0.0000 C   0  0  0  0  0  0  0  0  0  0  0  0
    6.7795   -4.5842    0.0000 C   0  0  0  0  0  0  0  0  0  0  0  0
    6.2306   -2.6795    0.0000 C   0  0  0  0  0  0  0  0  0  0  0  0
    8.1999   -3.7771    0.0000 C   0  0  0  0  0  0  0  0  0  0  0  0
    3.1314   -4.9070    0.0000 C   0  0  0  0  0  0  0  0  0  0  0  0
    7.4897   -2.5181    0.0000 C   0  0  0  0  0  0  0  0  0  0  0  0
    1.7756   -4.3582    0.0000 C   0  0  0  0  0  0  0  0  0  0  0  0
    6.9408   -2.2598    0.0000 C   0  0  0  0  0  0  0  0  0  0  0  0
    1.2913   -3.6803    0.0000 C   0  0  0  0  0  0  0  0  0  0  0  0
    5.3590   -2.0661    0.0000 C   0  0  0  0  0  0  0  0  0  0  0  0
    8.2322   -4.6165    0.0000 C   0  0  0  0  0  0  0  0  0  0  0  0
    8.9424   -3.3897    0.0000 C   0  0  0  0  0  0  0  0  0  0  0  0
    1.4204   -5.1330    0.0000 C   0  0  0  0  0  0  0  0  0  0  0  0
    0.4520   -3.7771    0.0000 C   0  0  0  0  0  0  0  0  0  0  0  0
    0.6134   -5.1976    0.0000 C   0  0  0  0  0  0  0  0  0  0  0  0
    0.0969   -4.5196    0.0000 C   0  0  0  0  0  0  0  0  0  0  0  0
    5.3590   -1.2267    0.0000 C   0  0  0  0  0  0  0  0  0  0  0  0
    6.0692   -2.4858    0.0000 C   0  0  0  0  0  0  0  0  0  0  0  0
    9.6849   -4.6487    0.0000 C   0  0  0  0  0  0  0  0  0  0  0  0
    6.7795   -1.2267    0.0000 C   0  0  0  0  0  0  0  0  0  0  0  0
    6.0692   -0.8393    0.0000 C   0  0  0  0  0  0  0  0  0  0  0  0
    6.7795   -2.0661    0.0000 C   0  0  0  0  0  0  0  0  0  0  0  0
    7.5220   -0.8393    0.0000 C   0  0  0  0  0  0  0  0  0  0  0  0
  1 34  1  0  0  0  0
  2 29  1  0  0  0  0
  3 17  2  0  0  0  0
  4 19  2  0  0  0  0
  5 43  2  0  0  0  0
  6 43  1  0  0  0  0
  7 14  1  0  0  0  0
  7 17  1  0  0  0  0
  7 21  1  0  0  0  0
  8 11  1  0  0  0  0
  8 25  1  0  0  0  0
  8 27  1  0  0  0  0
  9 11  2  0  0  0  0
  9 20  1  0  0  0  0
 10 19  1  0  0  0  0
 10 30  1  0  0  0  0
 12 31  2  0  0  0  0
 12 39  1  0  0  0  0
 13 32  1  0  0  0  0
 13 39  2  0  0  0  0
 14 15  1  0  0  0  0
 14 19  1  6  0  0  0
 15 16  2  0  0  0  0
 15 23  1  0  0  0  0
 16 18  1  0  0  0  0
 16 22  1  0  0  0  0
 17 20  1  0  0  0  0
 18 24  1  0  0  0  0
 18 26  2  0  0  0  0
 20 25  2  0  0  0  0
 21 22  1  0  0  0  0
 23 28  2  0  0  0  0
 24 31  1  0  0  0  0
 24 32  2  0  0  0  0
 26 28  1  0  0  0  0
 27 29  1  0  0  0  0
 27 33  2  0  0  0  0
 29 34  2  0  0  0  0
 30 37  2  0  0  0  0
 30 38  1  0  0  0  0
 33 35  1  0  0  0  0
 34 36  1  0  0  0  0
 35 36  2  0  0  0  0
 37 41  1  0  0  0  0
 38 42  2  0  0  0  0
 40 41  2  0  0  0  0
 40 42  1  0  0  0  0
 40 43  1  0  0  0  0
M  END
> <PUBCHEM_COMPOUND_ID_TYPE>
0

> <PUBCHEM_TOTAL_CHARGE>
0

> <PUBCHEM_SUBSTANCE_ID>
310933162

> <PUBCHEM_SUBSTANCE_VERSION>
1

> <PUBCHEM_EXT_DATASOURCE_NAME>
4488

> <PUBCHEM_EXT_DATASOURCE_REGID>
SCHEMBL16110571

> <PUBCHEM_SUBSTANCE_COMMENT>
InChI=1S/C30H21ClFN7O4/c31-23-5-2-6-25(26(23)32)39-15-24(36-37-39)29(41)38-12-11-21-20(18-13-33-16-34-14-18)3-1-4-22(21)27(38)28(40)35-19-9-7-17(8-10-19)30(42)43/h1-10,13-16,27H,11-12H2,(H,35,40)(H,42,43)/t27-/m0/s1
InChIKey=WNUYVQYWNLTYDS-MHZLTWQESA-N

> <PUBCHEM_SUBSTANCE_SYNONYM>
SCHEMBL16110571

> <PUBCHEM_XREF_EXT_ID>
SCHEMBL16110571

> <PUBCHEM_EXT_DATASOURCE_URL>
https://www.surechembl.org/

> <PUBCHEM_EXT_SUBSTANCE_URL>
https://www.surechembl.org/chemical/SCHEMBL16110571

> <PUBCHEM_CID_ASSOCIATIONS>
117601612  1

> <PUBCHEM_COORDINATE_TYPE>
1
3

> <PUBCHEM_BONDANNOTATIONS>
14  19  6

$$$$
