310939341
  -OEChem-07211613022D

 23 25  0     1  0  0  0  0  0999 V2000
    0.0000    1.1822    0.0000 Cl  0  0  0  0  0  0  0  0  0  0  0  0
   -1.4289   -1.2928    0.0000 F   0  0  0  0  0  0  0  0  0  0  0  0
    0.0000   -0.4678    0.0000 O   0  0  0  0  0  0  0  0  0  0  0  0
    2.8579    2.0072    0.0000 O   0  0  0  0  0  0  0  0  0  0  0  0
   -3.5724   -0.0553    0.0000 N   0  0  0  0  0  0  0  0  0  0  0  0
    1.4289    1.1822    0.0000 N   0  0  0  0  0  0  0  0  0  0  0  0
    3.5724    0.7697    0.0000 N   0  0  0  0  0  0  0  0  0  0  0  0
   -2.1434   -0.0553    0.0000 C   0  0  0  0  0  0  0  0  0  0  0  0
   -0.7145   -0.0553    0.0000 C   0  0  0  0  0  0  0  0  0  0  0  0
   -1.4289   -0.4678    0.0000 C   0  0  0  0  0  0  0  0  0  0  0  0
   -2.8579   -0.4678    0.0000 C   0  0  3  0  0  0  0  0  0  0  0  0
   -0.7145    0.7697    0.0000 C   0  0  0  0  0  0  0  0  0  0  0  0
   -2.8579   -1.2928    0.0000 C   0  0  0  0  0  0  0  0  0  0  0  0
   -2.1434    0.7697    0.0000 C   0  0  0  0  0  0  0  0  0  0  0  0
    0.7145   -0.0553    0.0000 C   0  0  0  0  0  0  0  0  0  0  0  0
   -1.4289    1.1822    0.0000 C   0  0  0  0  0  0  0  0  0  0  0  0
   -3.2704   -2.0072    0.0000 C   0  0  0  0  0  0  0  0  0  0  0  0
   -2.4454   -2.0072    0.0000 C   0  0  0  0  0  0  0  0  0  0  0  0
    2.1434    0.7697    0.0000 C   0  0  0  0  0  0  0  0  0  0  0  0
    0.7145    0.7697    0.0000 C   0  0  0  0  0  0  0  0  0  0  0  0
    1.4289   -0.4678    0.0000 C   0  0  0  0  0  0  0  0  0  0  0  0
    2.1434   -0.0553    0.0000 C   0  0  0  0  0  0  0  0  0  0  0  0
    2.8579    1.1822    0.0000 C   0  0  0  0  0  0  0  0  0  0  0  0
  1 12  1  0  0  0  0
  2 10  1  0  0  0  0
  3  9  1  0  0  0  0
  3 15  1  0  0  0  0
  4 23  2  0  0  0  0
 11  5  1  1  0  0  0
  6 19  1  0  0  0  0
  6 20  2  0  0  0  0
  7 23  1  0  0  0  0
  8 10  1  0  0  0  0
  8 11  1  0  0  0  0
  8 14  2  0  0  0  0
  9 10  2  0  0  0  0
  9 12  1  0  0  0  0
 11 13  1  0  0  0  0
 12 16  2  0  0  0  0
 13 17  1  0  0  0  0
 13 18  1  0  0  0  0
 14 16  1  0  0  0  0
 15 20  1  0  0  0  0
 15 21  2  0  0  0  0
 17 18  1  0  0  0  0
 19 22  2  0  0  0  0
 19 23  1  0  0  0  0
 21 22  1  0  0  0  0
M  END
> <PUBCHEM_COMPOUND_ID_TYPE>
0

> <PUBCHEM_TOTAL_CHARGE>
0

> <PUBCHEM_SUBSTANCE_ID>
310939341

> <PUBCHEM_SUBSTANCE_VERSION>
1

> <PUBCHEM_EXT_DATASOURCE_NAME>
4488

> <PUBCHEM_EXT_DATASOURCE_REGID>
SCHEMBL16117262

> <PUBCHEM_SUBSTANCE_COMMENT>
InChI=1S/C16H15ClFN3O2/c17-11-5-4-10(14(19)8-1-2-8)13(18)15(11)23-9-3-6-12(16(20)22)21-7-9/h3-8,14H,1-2,19H2,(H2,20,22)/t14-/m1/s1
InChIKey=HCHMGQLIBODGFK-CQSZACIVSA-N

> <PUBCHEM_SUBSTANCE_SYNONYM>
SCHEMBL16117262

> <PUBCHEM_XREF_EXT_ID>
SCHEMBL16117262

> <PUBCHEM_EXT_DATASOURCE_URL>
https://www.surechembl.org/

> <PUBCHEM_EXT_SUBSTANCE_URL>
https://www.surechembl.org/chemical/SCHEMBL16117262

> <PUBCHEM_CID_ASSOCIATIONS>
89544931  1

> <PUBCHEM_COORDINATE_TYPE>
1
3

> <PUBCHEM_BONDANNOTATIONS>
11  5  5

$$$$
