310938755
  -OEChem-07211613022D

 24 25  0     0  0  0  0  0  0999 V2000
    2.8858  -11.8166    0.0000 Br  0  0  0  0  0  0  0  0  0  0  0  0
   -0.6866   -8.1041    0.0000 Cl  0  0  0  0  0  0  0  0  0  0  0  0
    0.7424  -10.5791    0.0000 O   0  0  0  0  0  0  0  0  0  0  0  0
    1.4568  -11.8166    0.0000 O   0  0  0  0  0  0  0  0  0  0  0  0
   -2.1155  -13.0541    0.0000 N   0  0  0  0  0  0  0  0  0  0  0  0
    4.3147   -7.6916    0.0000 N   0  0  0  0  0  0  0  0  0  0  0  0
    0.0279  -10.9916    0.0000 C   0  0  0  0  0  0  0  0  0  0  0  0
    0.0279  -11.8166    0.0000 C   0  0  0  0  0  0  0  0  0  0  0  0
    0.7424   -9.7541    0.0000 C   0  0  0  0  0  0  0  0  0  0  0  0
   -0.6866  -12.2291    0.0000 C   0  0  0  0  0  0  0  0  0  0  0  0
   -1.4010  -11.8166    0.0000 C   0  0  0  0  0  0  0  0  0  0  0  0
   -0.6866  -10.5791    0.0000 C   0  0  0  0  0  0  0  0  0  0  0  0
    1.4568   -8.5166    0.0000 C   0  0  0  0  0  0  0  0  0  0  0  0
    1.4568   -9.3416    0.0000 C   0  0  0  0  0  0  0  0  0  0  0  0
    0.0279   -9.3416    0.0000 C   0  0  0  0  0  0  0  0  0  0  0  0
    0.0279   -8.5166    0.0000 C   0  0  0  0  0  0  0  0  0  0  0  0
   -1.4010  -10.9916    0.0000 C   0  0  0  0  0  0  0  0  0  0  0  0
    0.7424   -8.1041    0.0000 C   0  0  0  0  0  0  0  0  0  0  0  0
    0.7424  -12.2291    0.0000 C   0  0  0  0  0  0  0  0  0  0  0  0
    2.1713   -8.1041    0.0000 C   0  0  0  0  0  0  0  0  0  0  0  0
   -2.1155  -12.2291    0.0000 C   0  0  0  0  0  0  0  0  0  0  0  0
    2.8858   -8.5166    0.0000 C   0  0  0  0  0  0  0  0  0  0  0  0
    2.1713  -12.2291    0.0000 C   0  0  0  0  0  0  0  0  0  0  0  0
    3.6002   -8.1041    0.0000 C   0  0  0  0  0  0  0  0  0  0  0  0
  1 23  1  0  0  0  0
  2 16  1  0  0  0  0
  3  7  1  0  0  0  0
  3  9  1  0  0  0  0
  4 19  1  0  0  0  0
  4 23  1  0  0  0  0
  5 21  1  0  0  0  0
  6 24  3  0  0  0  0
  7  8  1  0  0  0  0
  7 12  2  0  0  0  0
  8 10  2  0  0  0  0
  8 19  1  0  0  0  0
  9 14  2  0  0  0  0
  9 15  1  0  0  0  0
 10 11  1  0  0  0  0
 11 17  2  0  0  0  0
 11 21  1  0  0  0  0
 12 17  1  0  0  0  0
 13 14  1  0  0  0  0
 13 18  2  0  0  0  0
 13 20  1  0  0  0  0
 15 16  2  0  0  0  0
 16 18  1  0  0  0  0
 20 22  2  0  0  0  0
 22 24  1  0  0  0  0
M  END
> <PUBCHEM_COMPOUND_ID_TYPE>
0

> <PUBCHEM_TOTAL_CHARGE>
0

> <PUBCHEM_SUBSTANCE_ID>
310938755

> <PUBCHEM_SUBSTANCE_VERSION>
1

> <PUBCHEM_EXT_DATASOURCE_NAME>
4488

> <PUBCHEM_EXT_DATASOURCE_REGID>
SCHEMBL16116671

> <PUBCHEM_SUBSTANCE_COMMENT>
InChI=1S/C18H16BrClN2O2/c19-12-23-11-15-6-14(10-22)3-4-18(15)24-17-8-13(2-1-5-21)7-16(20)9-17/h1-4,6-9H,10-12,22H2/b2-1+
InChIKey=DEBGXRYMZRUHCV-OWOJBTEDSA-N

> <PUBCHEM_SUBSTANCE_SYNONYM>
SCHEMBL16116671

> <PUBCHEM_XREF_EXT_ID>
SCHEMBL16116671

> <PUBCHEM_EXT_DATASOURCE_URL>
https://www.surechembl.org/

> <PUBCHEM_EXT_SUBSTANCE_URL>
https://www.surechembl.org/chemical/SCHEMBL16116671

> <PUBCHEM_CID_ASSOCIATIONS>
117606168  1

> <PUBCHEM_COORDINATE_TYPE>
1
3

$$$$
