310949964
  -OEChem-07211613022D

 28 32  0     1  0  0  0  0  0999 V2000
   -0.5866    1.4492    0.0000 N   0  0  0  0  0  0  0  0  0  0  0  0
   -0.5866    2.7880    0.0000 N   0  0  0  0  0  0  0  0  0  0  0  0
    0.1725   -0.8971    0.0000 N   0  0  0  0  0  0  0  0  0  0  0  0
    1.9944    1.7115    0.0000 N   0  0  0  0  0  0  0  0  0  0  0  0
   -0.1035    2.1255    0.0000 C   0  0  0  0  0  0  0  0  0  0  0  0
   -1.3733    1.7252    0.0000 C   0  0  0  0  0  0  0  0  0  0  0  0
   -1.3733    2.5396    0.0000 C   0  0  0  0  0  0  0  0  0  0  0  0
   -0.3381    0.6901    0.0000 C   0  0  0  0  0  0  0  0  0  0  0  0
    0.7384    2.1117    0.0000 C   0  0  3  0  0  0  0  0  0  0  0  0
   -2.1048    1.3112    0.0000 C   0  0  0  0  0  0  0  0  0  0  0  0
   -2.1048    2.9398    0.0000 C   0  0  0  0  0  0  0  0  0  0  0  0
   -0.8765    0.0414    0.0000 C   0  0  0  0  0  0  0  0  0  0  0  0
    0.4900    0.4969    0.0000 C   0  0  0  0  0  0  0  0  0  0  0  0
    1.2077    1.4630    0.0000 C   0  0  0  0  0  0  0  0  0  0  0  0
    1.1939    2.7880    0.0000 C   0  0  0  0  0  0  0  0  0  0  0  0
   -0.6280   -0.7177    0.0000 C   0  0  0  0  0  0  0  0  0  0  0  0
    0.7246   -0.2899    0.0000 C   0  0  0  0  0  0  0  0  0  0  0  0
   -2.7949    1.7115    0.0000 C   0  0  0  0  0  0  0  0  0  0  0  0
   -2.7949    2.5258    0.0000 C   0  0  0  0  0  0  0  0  0  0  0  0
    0.4347   -1.6839    0.0000 C   0  0  3  0  0  0  0  0  0  0  0  0
    1.9944    2.5396    0.0000 C   0  0  0  0  0  0  0  0  0  0  0  0
    1.2491   -1.8633    0.0000 C   0  0  0  0  0  0  0  0  0  0  0  0
    1.4009   -2.6638    0.0000 C   0  0  0  0  0  0  0  0  0  0  0  0
    1.8564   -1.3388    0.0000 C   0  0  0  0  0  0  0  0  0  0  0  0
   -0.1035   -2.3187    0.0000 C   0  0  0  0  0  0  0  0  0  0  0  0
    2.1876   -2.9398    0.0000 C   0  0  0  0  0  0  0  0  0  0  0  0
    2.6431   -1.6011    0.0000 C   0  0  0  0  0  0  0  0  0  0  0  0
    2.7949   -2.4154    0.0000 C   0  0  0  0  0  0  0  0  0  0  0  0
  1  5  1  0  0  0  0
  1  6  1  0  0  0  0
  1  8  1  0  0  0  0
  2  5  2  0  0  0  0
  2  7  1  0  0  0  0
  3 16  1  0  0  0  0
  3 17  1  0  0  0  0
  3 20  1  0  0  0  0
  4 14  1  0  0  0  0
  4 21  1  0  0  0  0
  9  5  1  6  0  0  0
  6  7  1  0  0  0  0
  6 10  2  0  0  0  0
  7 11  2  0  0  0  0
  8 12  1  0  0  0  0
  8 13  1  0  0  0  0
  9 14  1  0  0  0  0
  9 15  1  0  0  0  0
 10 18  1  0  0  0  0
 11 19  1  0  0  0  0
 12 16  1  0  0  0  0
 13 17  1  0  0  0  0
 15 21  1  0  0  0  0
 18 19  2  0  0  0  0
 20 22  1  0  0  0  0
 20 25  1  0  0  0  0
 22 23  2  0  0  0  0
 22 24  1  0  0  0  0
 23 26  1  0  0  0  0
 24 27  2  0  0  0  0
 26 28  2  0  0  0  0
 27 28  1  0  0  0  0
M  END
> <PUBCHEM_COMPOUND_ID_TYPE>
0

> <PUBCHEM_TOTAL_CHARGE>
0

> <PUBCHEM_SUBSTANCE_ID>
310949964

> <PUBCHEM_SUBSTANCE_VERSION>
1

> <PUBCHEM_EXT_DATASOURCE_NAME>
4488

> <PUBCHEM_EXT_DATASOURCE_REGID>
SCHEMBL16128193

> <PUBCHEM_SUBSTANCE_COMMENT>
InChI=1S/C24H30N4/c1-18(19-7-3-2-4-8-19)27-15-12-21(13-16-27)28-23-10-6-5-9-22(23)26-24(28)20-11-14-25-17-20/h2-10,18,20-21,25H,11-17H2,1H3/t18?,20-/m1/s1
InChIKey=VYGZKXQWYYXCDE-ROPPNANJSA-N

> <PUBCHEM_SUBSTANCE_SYNONYM>
SCHEMBL16128193

> <PUBCHEM_XREF_EXT_ID>
SCHEMBL16128193

> <PUBCHEM_EXT_DATASOURCE_URL>
https://www.surechembl.org/

> <PUBCHEM_EXT_SUBSTANCE_URL>
https://www.surechembl.org/chemical/SCHEMBL16128193

> <PUBCHEM_CID_ASSOCIATIONS>
86275013  1

> <PUBCHEM_COORDINATE_TYPE>
1
3

> <PUBCHEM_BONDANNOTATIONS>
9  5  6

$$$$
