310929119
  -OEChem-07211613022D

 59 64  0     0  0  0  0  0  0999 V2000
    4.2868   -4.5375    0.0000 S   0  0  0  0  0  0  0  0  0  0  0  0
    0.7144    1.6500    0.0000 O   0  0  0  0  0  0  0  0  0  0  0  0
    2.1434   -3.3000    0.0000 O   0  0  0  0  0  0  0  0  0  0  0  0
    1.4290   -2.8875    0.0000 O   0  0  0  0  0  0  0  0  0  0  0  0
    3.8743   -5.2520    0.0000 O   0  0  0  0  0  0  0  0  0  0  0  0
    4.6993   -3.8230    0.0000 O   0  0  0  0  0  0  0  0  0  0  0  0
    5.0013    4.1250    0.0000 O   0  0  0  0  0  0  0  0  0  0  0  0
    6.4302    0.8250    0.0000 O   0  0  0  0  0  0  0  0  0  0  0  0
   11.4316    0.4125    0.0000 O   0  0  0  0  0  0  0  0  0  0  0  0
    2.1434   -1.6500    0.0000 N   0  0  0  0  0  0  0  0  0  0  0  0
    0.7144   -1.6500    0.0000 N   0  0  0  0  0  0  0  0  0  0  0  0
    3.5724   -4.1250    0.0000 N   0  0  0  0  0  0  0  0  0  0  0  0
    3.5724    1.6500    0.0000 N   0  0  0  0  0  0  0  0  0  0  0  0
    2.8579    2.8875    0.0000 N   0  0  0  0  0  0  0  0  0  0  0  0
    7.1447    2.0625    0.0000 N   0  0  0  0  0  0  0  0  0  0  0  0
    9.2881    1.6500    0.0000 N   0  0  0  0  0  0  0  0  0  0  0  0
    2.8579   -2.0625    0.0000 C   0  0  0  0  0  0  0  0  0  0  0  0
    0.0000   -0.4125    0.0000 C   0  0  0  0  0  0  0  0  0  0  0  0
    2.8579   -2.8875    0.0000 C   0  0  0  0  0  0  0  0  0  0  0  0
    0.0000    0.4125    0.0000 C   0  0  0  0  0  0  0  0  0  0  0  0
    3.5724   -3.3000    0.0000 C   0  0  0  0  0  0  0  0  0  0  0  0
    4.2868   -2.0625    0.0000 C   0  0  0  0  0  0  0  0  0  0  0  0
    0.7144   -0.8250    0.0000 C   0  0  0  0  0  0  0  0  0  0  0  0
    0.7144    0.8250    0.0000 C   0  0  0  0  0  0  0  0  0  0  0  0
    3.5724   -1.6500    0.0000 C   0  0  0  0  0  0  0  0  0  0  0  0
    4.2868   -2.8875    0.0000 C   0  0  0  0  0  0  0  0  0  0  0  0
    5.0013   -1.6500    0.0000 C   0  0  0  0  0  0  0  0  0  0  0  0
    1.4290   -2.0625    0.0000 C   0  0  0  0  0  0  0  0  0  0  0  0
    1.4290   -0.4125    0.0000 C   0  0  0  0  0  0  0  0  0  0  0  0
    1.4290    0.4125    0.0000 C   0  0  0  0  0  0  0  0  0  0  0  0
   -0.7144   -0.8250    0.0000 C   0  0  0  0  0  0  0  0  0  0  0  0
   -0.7144    0.8250    0.0000 C   0  0  0  0  0  0  0  0  0  0  0  0
    1.4290    2.0625    0.0000 C   0  0  0  0  0  0  0  0  0  0  0  0
   -1.4290   -0.4125    0.0000 C   0  0  0  0  0  0  0  0  0  0  0  0
   -1.4290    0.4125    0.0000 C   0  0  0  0  0  0  0  0  0  0  0  0
    2.8579    2.0625    0.0000 C   0  0  0  0  0  0  0  0  0  0  0  0
    2.1434    1.6500    0.0000 C   0  0  0  0  0  0  0  0  0  0  0  0
    5.0013   -0.8250    0.0000 C   0  0  0  0  0  0  0  0  0  0  0  0
    5.7158   -1.2375    0.0000 C   0  0  0  0  0  0  0  0  0  0  0  0
    5.7158   -2.0625    0.0000 C   0  0  0  0  0  0  0  0  0  0  0  0
    4.2868    2.0625    0.0000 C   0  0  0  0  0  0  0  0  0  0  0  0
    1.4290    2.8875    0.0000 C   0  0  0  0  0  0  0  0  0  0  0  0
    5.7158    2.0625    0.0000 C   0  0  0  0  0  0  0  0  0  0  0  0
    5.0013    1.6500    0.0000 C   0  0  0  0  0  0  0  0  0  0  0  0
    5.0013    3.3000    0.0000 C   0  0  0  0  0  0  0  0  0  0  0  0
    4.2868    2.8875    0.0000 C   0  0  0  0  0  0  0  0  0  0  0  0
    2.1434    3.3000    0.0000 C   0  0  0  0  0  0  0  0  0  0  0  0
    2.1434   -4.1250    0.0000 C   0  0  0  0  0  0  0  0  0  0  0  0
    5.0013   -4.9500    0.0000 C   0  0  0  0  0  0  0  0  0  0  0  0
    5.7158    2.8875    0.0000 C   0  0  0  0  0  0  0  0  0  0  0  0
    6.4302    1.6500    0.0000 C   0  0  0  0  0  0  0  0  0  0  0  0
    7.8592    1.6500    0.0000 C   0  0  0  0  0  0  0  0  0  0  0  0
    5.7158    4.5375    0.0000 C   0  0  0  0  0  0  0  0  0  0  0  0
    8.5736    2.0625    0.0000 C   0  0  0  0  0  0  0  0  0  0  0  0
   10.0026    2.0625    0.0000 C   0  0  0  0  0  0  0  0  0  0  0  0
    9.2881    0.8250    0.0000 C   0  0  0  0  0  0  0  0  0  0  0  0
   10.7170    0.8250    0.0000 C   0  0  0  0  0  0  0  0  0  0  0  0
   10.7170    1.6500    0.0000 C   0  0  0  0  0  0  0  0  0  0  0  0
   10.0026    0.4125    0.0000 C   0  0  0  0  0  0  0  0  0  0  0  0
  1  5  2  0  0  0  0
  1  6  2  0  0  0  0
  1 12  1  0  0  0  0
  1 49  1  0  0  0  0
  2 24  1  0  0  0  0
  2 33  1  0  0  0  0
  3 19  1  0  0  0  0
  3 48  1  0  0  0  0
  4 28  2  0  0  0  0
  7 45  1  0  0  0  0
  7 53  1  0  0  0  0
  8 51  2  0  0  0  0
  9 57  1  0  0  0  0
 10 17  1  0  0  0  0
 10 28  1  0  0  0  0
 11 23  1  0  0  0  0
 11 28  1  0  0  0  0
 12 21  1  0  0  0  0
 13 36  1  0  0  0  0
 13 41  1  0  0  0  0
 14 36  2  0  0  0  0
 14 47  1  0  0  0  0
 15 51  1  0  0  0  0
 15 52  1  0  0  0  0
 16 54  1  0  0  0  0
 16 55  1  0  0  0  0
 16 56  1  0  0  0  0
 17 19  1  0  0  0  0
 17 25  2  0  0  0  0
 18 20  1  0  0  0  0
 18 23  2  0  0  0  0
 18 31  1  0  0  0  0
 19 21  2  0  0  0  0
 20 24  2  0  0  0  0
 20 32  1  0  0  0  0
 21 26  1  0  0  0  0
 22 25  1  0  0  0  0
 22 26  2  0  0  0  0
 22 27  1  0  0  0  0
 23 29  1  0  0  0  0
 24 30  1  0  0  0  0
 27 38  1  0  0  0  0
 27 39  1  0  0  0  0
 27 40  1  0  0  0  0
 29 30  2  0  0  0  0
 31 34  2  0  0  0  0
 32 35  2  0  0  0  0
 33 37  2  0  0  0  0
 33 42  1  0  0  0  0
 34 35  1  0  0  0  0
 36 37  1  0  0  0  0
 41 44  2  0  0  0  0
 41 46  1  0  0  0  0
 42 47  2  0  0  0  0
 43 44  1  0  0  0  0
 43 50  2  0  0  0  0
 43 51  1  0  0  0  0
 45 46  2  0  0  0  0
 45 50  1  0  0  0  0
 52 54  1  0  0  0  0
 55 58  1  0  0  0  0
 56 59  1  0  0  0  0
 57 58  1  0  0  0  0
 57 59  1  0  0  0  0
M  END
> <PUBCHEM_COMPOUND_ID_TYPE>
0

> <PUBCHEM_TOTAL_CHARGE>
0

> <PUBCHEM_SUBSTANCE_ID>
310929119

> <PUBCHEM_SUBSTANCE_VERSION>
1

> <PUBCHEM_EXT_DATASOURCE_NAME>
4488

> <PUBCHEM_EXT_DATASOURCE_REGID>
SCHEMBL16106282

> <PUBCHEM_SUBSTANCE_COMMENT>
InChI=1S/C43H51N7O8S/c1-43(2,3)28-23-36(40(57-5)37(24-28)49-59(6,54)55)48-42(53)47-35-11-12-38(34-10-8-7-9-33(34)35)58-31-13-16-44-39(26-31)46-29-21-27(22-32(25-29)56-4)41(52)45-17-20-50-18-14-30(51)15-19-50/h7-13,16,21-26,30,49,51H,14-15,17-20H2,1-6H3,(H,44,46)(H,45,52)(H2,47,48,53)
InChIKey=TYYKWQBVMJUBOB-UHFFFAOYSA-N

> <PUBCHEM_SUBSTANCE_SYNONYM>
SCHEMBL16106282

> <PUBCHEM_XREF_EXT_ID>
SCHEMBL16106282

> <PUBCHEM_EXT_DATASOURCE_URL>
https://www.surechembl.org/

> <PUBCHEM_EXT_SUBSTANCE_URL>
https://www.surechembl.org/chemical/SCHEMBL16106282

> <PUBCHEM_CID_ASSOCIATIONS>
117598598  1

> <PUBCHEM_COORDINATE_TYPE>
1
3

$$$$
