310941498
  -OEChem-07211613022D

 28 31  0     0  0  0  0  0  0999 V2000
    0.7328    2.1627    0.0000 S   0  0  0  0  0  0  0  0  0  0  0  0
   -3.0564   -1.3406    0.0000 S   0  0  0  0  0  0  0  0  0  0  0  0
   -1.6087   -0.5005    0.0000 O   0  0  0  0  0  0  0  0  0  0  0  0
   -0.1608   -0.5005    0.0000 O   0  0  0  0  0  0  0  0  0  0  0  0
    3.6463    1.1797    0.0000 O   0  0  0  0  0  0  0  0  0  0  0  0
    0.6077    0.8222    0.0000 N   0  0  0  0  0  0  0  0  0  0  0  0
    2.0019    1.3584    0.0000 N   0  0  0  0  0  0  0  0  0  0  0  0
   -4.4685   -2.1627    0.0000 N   0  0  0  0  0  0  0  0  0  0  0  0
   -0.8758    0.7686    0.0000 C   0  0  0  0  0  0  0  0  0  0  0  0
   -2.3415   -0.0715    0.0000 C   0  0  0  0  0  0  0  0  0  0  0  0
   -2.3237    0.7507    0.0000 C   0  0  0  0  0  0  0  0  0  0  0  0
   -0.1608    1.1797    0.0000 C   0  0  0  0  0  0  0  0  0  0  0  0
   -0.9294   -0.0715    0.0000 C   0  0  0  0  0  0  0  0  0  0  0  0
   -1.6444    1.1618    0.0000 C   0  0  0  0  0  0  0  0  0  0  0  0
   -3.0386   -0.5005    0.0000 C   0  0  0  0  0  0  0  0  0  0  0  0
    1.1618    1.4657    0.0000 C   0  0  0  0  0  0  0  0  0  0  0  0
   -0.0715    2.0019    0.0000 C   0  0  0  0  0  0  0  0  0  0  0  0
   -3.0922    1.1439    0.0000 C   0  0  0  0  0  0  0  0  0  0  0  0
   -3.7535   -0.1073    0.0000 C   0  0  0  0  0  0  0  0  0  0  0  0
    2.3237    0.5899    0.0000 C   0  0  0  0  0  0  0  0  0  0  0  0
   -3.7535    0.7507    0.0000 C   0  0  0  0  0  0  0  0  0  0  0  0
    3.1458    0.5183    0.0000 C   0  0  0  0  0  0  0  0  0  0  0  0
    1.8589   -0.0894    0.0000 C   0  0  0  0  0  0  0  0  0  0  0  0
    3.4854   -0.2324    0.0000 C   0  0  0  0  0  0  0  0  0  0  0  0
   -3.7714   -1.7517    0.0000 C   0  0  0  0  0  0  0  0  0  0  0  0
    2.1806   -0.8401    0.0000 C   0  0  0  0  0  0  0  0  0  0  0  0
    3.0028   -0.9116    0.0000 C   0  0  0  0  0  0  0  0  0  0  0  0
    4.4685    1.0725    0.0000 C   0  0  0  0  0  0  0  0  0  0  0  0
  1 16  1  0  0  0  0
  1 17  1  0  0  0  0
  2 15  1  0  0  0  0
  2 25  1  0  0  0  0
  3 10  1  0  0  0  0
  3 13  1  0  0  0  0
  4 13  2  0  0  0  0
  5 22  1  0  0  0  0
  5 28  1  0  0  0  0
  6 12  1  0  0  0  0
  6 16  2  0  0  0  0
  7 16  1  0  0  0  0
  7 20  1  0  0  0  0
  8 25  3  0  0  0  0
  9 12  1  0  0  0  0
  9 13  1  0  0  0  0
  9 14  2  0  0  0  0
 10 11  1  0  0  0  0
 10 15  2  0  0  0  0
 11 14  1  0  0  0  0
 11 18  2  0  0  0  0
 12 17  2  0  0  0  0
 15 19  1  0  0  0  0
 18 21  1  0  0  0  0
 19 21  2  0  0  0  0
 20 22  1  0  0  0  0
 20 23  2  0  0  0  0
 22 24  2  0  0  0  0
 23 26  1  0  0  0  0
 24 27  1  0  0  0  0
 26 27  2  0  0  0  0
M  END
> <PUBCHEM_COMPOUND_ID_TYPE>
0

> <PUBCHEM_TOTAL_CHARGE>
0

> <PUBCHEM_SUBSTANCE_ID>
310941498

> <PUBCHEM_SUBSTANCE_VERSION>
1

> <PUBCHEM_EXT_DATASOURCE_NAME>
4488

> <PUBCHEM_EXT_DATASOURCE_REGID>
SCHEMBL16119529

> <PUBCHEM_SUBSTANCE_COMMENT>
InChI=1S/C20H13N3O3S2/c1-25-16-7-3-2-6-14(16)22-20-23-15(10-27-20)13-9-12-5-4-8-17(28-11-21)18(12)26-19(13)24/h2-10H,1H3,(H,22,23)
InChIKey=BPIZHOXFTMRQGZ-UHFFFAOYSA-N

> <PUBCHEM_SUBSTANCE_SYNONYM>
SCHEMBL16119529

> <PUBCHEM_XREF_EXT_ID>
SCHEMBL16119529

> <PUBCHEM_EXT_DATASOURCE_URL>
https://www.surechembl.org/

> <PUBCHEM_EXT_SUBSTANCE_URL>
https://www.surechembl.org/chemical/SCHEMBL16119529

> <PUBCHEM_CID_ASSOCIATIONS>
117608318  1

> <PUBCHEM_COORDINATE_TYPE>
1
3

$$$$
