310937869
  -OEChem-07211613022D

 28 31  0     0  0  0  0  0  0999 V2000
    0.7608   -0.8590    0.0000 F   0  0  0  0  0  0  0  0  0  0  0  0
    1.6443   -2.2579    0.0000 F   0  0  0  0  0  0  0  0  0  0  0  0
    1.4725   -0.4418    0.0000 F   0  0  0  0  0  0  0  0  0  0  0  0
    3.5586    0.0000    0.0000 O   0  0  0  0  0  0  0  0  0  0  0  0
    2.8959   -1.2517    0.0000 N   0  0  0  0  0  0  0  0  0  0  0  0
    3.5586   -3.2641    0.0000 N   0  0  0  0  0  0  0  0  0  0  0  0
    5.0802   -2.3315    0.0000 N   0  0  0  0  0  0  0  0  0  0  0  0
    5.5465   -1.6689    0.0000 N   0  0  0  0  0  0  0  0  0  0  0  0
    0.0245   -3.6813    0.0000 N   0  0  0  0  0  0  0  0  0  0  0  0
    0.7117   -4.9084    0.0000 N   0  0  0  0  0  0  0  0  0  0  0  0
    2.8959   -2.0861    0.0000 C   0  0  0  0  0  0  0  0  0  0  0  0
    3.5586   -2.5032    0.0000 C   0  0  0  0  0  0  0  0  0  0  0  0
    4.2948   -2.0861    0.0000 C   0  0  0  0  0  0  0  0  0  0  0  0
    4.2948   -1.2517    0.0000 C   0  0  0  0  0  0  0  0  0  0  0  0
    3.5586   -0.8344    0.0000 C   0  0  0  0  0  0  0  0  0  0  0  0
    2.1597   -2.5032    0.0000 C   0  0  0  0  0  0  0  0  0  0  0  0
    2.1597   -3.2641    0.0000 C   0  0  0  0  0  0  0  0  0  0  0  0
    2.1843   -0.8344    0.0000 C   0  0  0  0  0  0  0  0  0  0  0  0
    5.0802   -0.9817    0.0000 C   0  0  0  0  0  0  0  0  0  0  0  0
    1.4480   -3.6813    0.0000 C   0  0  0  0  0  0  0  0  0  0  0  0
    2.8959   -3.6813    0.0000 C   0  0  0  0  0  0  0  0  0  0  0  0
    1.4725   -1.2517    0.0000 C   0  0  0  0  0  0  0  0  0  0  0  0
    0.7117   -3.2886    0.0000 C   0  0  0  0  0  0  0  0  0  0  0  0
    1.4235   -4.5157    0.0000 C   0  0  0  0  0  0  0  0  0  0  0  0
    0.7117   -2.4787    0.0000 C   0  0  0  0  0  0  0  0  0  0  0  0
    0.0000   -4.5157    0.0000 C   0  0  0  0  0  0  0  0  0  0  0  0
    0.0000   -2.0616    0.0000 C   0  0  0  0  0  0  0  0  0  0  0  0
    1.4235   -2.0616    0.0000 C   0  0  0  0  0  0  0  0  0  0  0  0
  1 22  1  0  0  0  0
  2 22  1  0  0  0  0
  3 22  1  0  0  0  0
  4 15  2  0  0  0  0
  5 11  1  0  0  0  0
  5 15  1  0  0  0  0
  5 18  1  0  0  0  0
  6 12  2  0  0  0  0
  6 21  1  0  0  0  0
  7  8  1  0  0  0  0
  7 13  1  0  0  0  0
  8 19  2  0  0  0  0
  9 23  2  0  0  0  0
  9 26  1  0  0  0  0
 10 24  1  0  0  0  0
 10 26  2  0  0  0  0
 11 12  1  0  0  0  0
 11 16  2  0  0  0  0
 12 13  1  0  0  0  0
 13 14  2  0  0  0  0
 14 15  1  0  0  0  0
 14 19  1  0  0  0  0
 16 17  1  0  0  0  0
 17 20  1  0  0  0  0
 17 21  2  0  0  0  0
 18 22  1  0  0  0  0
 20 23  1  0  0  0  0
 20 24  2  0  0  0  0
 23 25  1  0  0  0  0
 25 27  1  0  0  0  0
 25 28  1  0  0  0  0
M  END
> <PUBCHEM_COMPOUND_ID_TYPE>
0

> <PUBCHEM_TOTAL_CHARGE>
0

> <PUBCHEM_SUBSTANCE_ID>
310937869

> <PUBCHEM_SUBSTANCE_VERSION>
1

> <PUBCHEM_EXT_DATASOURCE_NAME>
4488

> <PUBCHEM_EXT_DATASOURCE_REGID>
SCHEMBL16115693

> <PUBCHEM_SUBSTANCE_COMMENT>
InChI=1S/C18H15F3N6O/c1-9(2)14-11(5-22-8-24-14)10-3-13-16(23-4-10)15-12(6-25-26-15)17(28)27(13)7-18(19,20)21/h3-6,8-9H,7H2,1-2H3,(H,25,26)
InChIKey=OTOSIRQCIQFQQV-UHFFFAOYSA-N

> <PUBCHEM_SUBSTANCE_SYNONYM>
SCHEMBL16115693

> <PUBCHEM_XREF_EXT_ID>
SCHEMBL16115693

> <PUBCHEM_EXT_DATASOURCE_URL>
https://www.surechembl.org/

> <PUBCHEM_EXT_SUBSTANCE_URL>
https://www.surechembl.org/chemical/SCHEMBL16115693

> <PUBCHEM_CID_ASSOCIATIONS>
86298960  1

> <PUBCHEM_COORDINATE_TYPE>
1
3

$$$$
