310938658
  -OEChem-07211613022D

 33 37  0     1  0  0  0  0  0999 V2000
   -4.3267   -4.9041    0.0000 Cl  0  0  0  0  0  0  0  0  0  0  0  0
   -0.7544   -5.3166    0.0000 O   0  0  0  0  0  0  0  0  0  0  0  0
   -0.0399   -6.5541    0.0000 O   0  0  0  0  0  0  0  0  0  0  0  0
   -4.3267   -7.3791    0.0000 O   0  0  0  0  0  0  0  0  0  0  0  0
    0.6733   -2.8416    0.0000 N   0  0  0  0  0  0  0  0  0  0  0  0
   -0.0399   -4.0791    0.0000 N   0  0  0  0  0  0  0  0  0  0  0  0
    1.3890   -4.0791    0.0000 N   0  0  0  0  0  0  0  0  0  0  0  0
    1.3890   -6.5541    0.0000 N   0  0  0  0  0  0  0  0  0  0  0  0
    1.0853   -1.5729    0.0000 C   0  0  3  0  0  0  0  0  0  0  0  0
    0.2603   -1.5742    0.0000 C   0  0  3  0  0  0  0  0  0  0  0  0
    0.6722   -0.8570    0.0000 C   0  0  0  0  0  0  0  0  0  0  0  0
    0.6746   -3.6666    0.0000 C   0  0  0  0  0  0  0  0  0  0  0  0
    1.3398   -2.3572    0.0000 C   0  0  0  0  0  0  0  0  0  0  0  0
    0.0041   -2.3584    0.0000 C   0  0  0  0  0  0  0  0  0  0  0  0
   -0.0399   -4.9041    0.0000 C   0  0  0  0  0  0  0  0  0  0  0  0
    0.6746   -5.3166    0.0000 C   0  0  0  0  0  0  0  0  0  0  0  0
    1.3890   -4.9041    0.0000 C   0  0  0  0  0  0  0  0  0  0  0  0
    0.6746   -6.1416    0.0000 C   0  0  0  0  0  0  0  0  0  0  0  0
   -1.4688   -4.9041    0.0000 C   0  0  0  0  0  0  0  0  0  0  0  0
   -2.1833   -5.3166    0.0000 C   0  0  0  0  0  0  0  0  0  0  0  0
    2.1035   -6.1416    0.0000 C   0  0  0  0  0  0  0  0  0  0  0  0
   -3.6123   -5.3166    0.0000 C   0  0  0  0  0  0  0  0  0  0  0  0
   -2.8978   -4.9041    0.0000 C   0  0  0  0  0  0  0  0  0  0  0  0
   -3.6123   -6.1416    0.0000 C   0  0  0  0  0  0  0  0  0  0  0  0
   -2.1833   -6.1416    0.0000 C   0  0  0  0  0  0  0  0  0  0  0  0
   -2.8978   -6.5541    0.0000 C   0  0  0  0  0  0  0  0  0  0  0  0
    2.8180   -6.5541    0.0000 C   0  0  0  0  0  0  0  0  0  0  0  0
    2.1035   -5.3166    0.0000 C   0  0  0  0  0  0  0  0  0  0  0  0
    3.5325   -5.3166    0.0000 C   0  0  0  0  0  0  0  0  0  0  0  0
    3.5325   -6.1416    0.0000 C   0  0  0  0  0  0  0  0  0  0  0  0
    2.8180   -4.9041    0.0000 C   0  0  0  0  0  0  0  0  0  0  0  0
   -4.3267   -6.5541    0.0000 C   0  0  0  0  0  0  0  0  0  0  0  0
    4.2469   -4.9041    0.0000 C   0  0  0  0  0  0  0  0  0  0  0  0
  1 22  1  0  0  0  0
  2 15  1  0  0  0  0
  2 19  1  0  0  0  0
  3 18  2  0  0  0  0
  4 32  1  0  0  0  0
  5 12  1  0  0  0  0
  5 13  1  0  0  0  0
  5 14  1  0  0  0  0
  6 12  1  0  0  0  0
  6 15  2  0  0  0  0
  7 12  2  0  0  0  0
  7 17  1  0  0  0  0
  8 18  1  0  0  0  0
 21  8  1  1  0  0  0
  9 10  1  0  0  0  0
  9 11  1  0  0  0  0
  9 13  1  0  0  0  0
 10 11  1  0  0  0  0
 10 14  1  0  0  0  0
 15 16  1  0  0  0  0
 16 17  2  0  0  0  0
 16 18  1  0  0  0  0
 19 20  1  0  0  0  0
 20 23  2  0  0  0  0
 20 25  1  0  0  0  0
 21 27  1  0  0  0  0
 21 28  1  0  0  0  0
 22 23  1  0  0  0  0
 22 24  2  0  0  0  0
 24 26  1  0  0  0  0
 24 32  1  0  0  0  0
 25 26  2  0  0  0  0
 27 30  1  0  0  0  0
 28 31  1  0  0  0  0
 29 30  1  0  0  0  0
 29 31  1  0  0  0  0
 29 33  1  6  0  0  0
M  END
> <PUBCHEM_COMPOUND_ID_TYPE>
0

> <PUBCHEM_TOTAL_CHARGE>
0

> <PUBCHEM_SUBSTANCE_ID>
310938658

> <PUBCHEM_SUBSTANCE_VERSION>
1

> <PUBCHEM_EXT_DATASOURCE_NAME>
4488

> <PUBCHEM_EXT_DATASOURCE_REGID>
SCHEMBL16116572

> <PUBCHEM_SUBSTANCE_COMMENT>
InChI=1S/C25H31ClN4O3/c1-15-2-6-20(7-3-15)28-23(32)21-10-27-25(30-11-18-9-19(18)12-30)29-24(21)33-14-16-4-5-17(13-31)22(26)8-16/h4-5,8,10,15,18-20,31H,2-3,6-7,9,11-14H2,1H3,(H,28,32)/t15-,18?,19?,20-
InChIKey=ZKYFXDXZKPGGFH-NSXOGYNNSA-N

> <PUBCHEM_SUBSTANCE_SYNONYM>
SCHEMBL16116572

> <PUBCHEM_XREF_EXT_ID>
SCHEMBL16116572

> <PUBCHEM_EXT_DATASOURCE_URL>
https://www.surechembl.org/

> <PUBCHEM_EXT_SUBSTANCE_URL>
https://www.surechembl.org/chemical/SCHEMBL16116572

> <PUBCHEM_CID_ASSOCIATIONS>
117606090  1

> <PUBCHEM_COORDINATE_TYPE>
1
3

> <PUBCHEM_BONDANNOTATIONS>
29  33  6
21  8  5

$$$$
