310941894
  -OEChem-07211613022D

 28 31  0     0  0  0  0  0  0999 V2000
    2.9318    2.8797    0.0000 Br  0  0  0  0  0  0  0  0  0  0  0  0
   -0.2883    0.5455    0.0000 O   0  0  0  0  0  0  0  0  0  0  0  0
   -1.1709   -2.0877    0.0000 O   0  0  0  0  0  0  0  0  0  0  0  0
   -1.6697   -2.9078    0.0000 O   0  0  0  0  0  0  0  0  0  0  0  0
    1.9054    1.8110    0.0000 N   0  0  0  0  0  0  0  0  0  0  0  0
    2.7069    0.7142    0.0000 N   0  0  0  0  0  0  0  0  0  0  0  0
    3.1991    1.3892    0.0000 N   0  0  0  0  0  0  0  0  0  0  0  0
   -3.1991   -0.2702    0.0000 N   0  0  0  0  0  0  0  0  0  0  0  0
    0.4570    1.7969    0.0000 C   0  0  0  0  0  0  0  0  0  0  0  0
    1.9054    0.9673    0.0000 C   0  0  0  0  0  0  0  0  0  0  0  0
    0.4429    0.9673    0.0000 C   0  0  0  0  0  0  0  0  0  0  0  0
   -0.2883    2.2329    0.0000 C   0  0  0  0  0  0  0  0  0  0  0  0
    1.1742    2.2188    0.0000 C   0  0  0  0  0  0  0  0  0  0  0  0
    1.1882    0.5595    0.0000 C   0  0  0  0  0  0  0  0  0  0  0  0
    2.7069    2.0501    0.0000 C   0  0  0  0  0  0  0  0  0  0  0  0
   -1.0898    2.2469    0.0000 C   0  0  0  0  0  0  0  0  0  0  0  0
   -0.7101    2.9078    0.0000 C   0  0  0  0  0  0  0  0  0  0  0  0
   -1.0195    0.9673    0.0000 C   0  0  0  0  0  0  0  0  0  0  0  0
   -1.7226    0.5595    0.0000 C   0  0  0  0  0  0  0  0  0  0  0  0
   -1.6697   -2.3759    0.0000 C   0  0  0  0  0  0  0  0  0  0  0  0
   -1.7507   -0.2842    0.0000 C   0  0  0  0  0  0  0  0  0  0  0  0
   -2.4819    0.9673    0.0000 C   0  0  0  0  0  0  0  0  0  0  0  0
   -2.4679   -0.6920    0.0000 C   0  0  0  0  0  0  0  0  0  0  0  0
   -3.1850    0.5595    0.0000 C   0  0  0  0  0  0  0  0  0  0  0  0
   -1.1599   -1.5336    0.0000 C   0  0  0  0  0  0  0  0  0  0  0  0
   -0.6611   -1.5114    0.0000 C   0  0  0  0  0  0  0  0  0  0  0  0
   -1.6697   -1.5336    0.0000 C   0  0  0  0  0  0  0  0  0  0  0  0
   -1.1709   -0.9905    0.0000 C   0  0  0  0  0  0  0  0  0  0  0  0
  1 15  1  0  0  0  0
  2 11  1  0  0  0  0
  2 18  1  0  0  0  0
  3 20  1  0  0  0  0
  3 25  1  0  0  0  0
  4 20  2  0  0  0  0
  5 10  1  0  0  0  0
  5 13  1  0  0  0  0
  5 15  1  0  0  0  0
  6  7  1  0  0  0  0
  6 10  2  0  0  0  0
  7 15  2  0  0  0  0
  8 20  1  0  0  0  0
  8 23  1  0  0  0  0
  8 24  1  0  0  0  0
  9 11  1  0  0  0  0
  9 12  1  0  0  0  0
  9 13  2  0  0  0  0
 10 14  1  0  0  0  0
 11 14  2  0  0  0  0
 12 16  1  0  0  0  0
 12 17  1  0  0  0  0
 16 17  1  0  0  0  0
 18 19  1  0  0  0  0
 19 21  1  0  0  0  0
 19 22  1  0  0  0  0
 21 23  1  0  0  0  0
 22 24  1  0  0  0  0
 25 26  1  0  0  0  0
 25 27  1  0  0  0  0
 25 28  1  0  0  0  0
M  END
> <PUBCHEM_COMPOUND_ID_TYPE>
0

> <PUBCHEM_TOTAL_CHARGE>
0

> <PUBCHEM_SUBSTANCE_ID>
310941894

> <PUBCHEM_SUBSTANCE_VERSION>
1

> <PUBCHEM_EXT_DATASOURCE_NAME>
4488

> <PUBCHEM_EXT_DATASOURCE_REGID>
SCHEMBL16119926

> <PUBCHEM_SUBSTANCE_COMMENT>
InChI=1S/C20H27BrN4O3/c1-20(2,3)28-19(26)24-8-6-13(7-9-24)12-27-16-10-17-22-23-18(21)25(17)11-15(16)14-4-5-14/h10-11,13-14H,4-9,12H2,1-3H3
InChIKey=IZSVBZRNZVRRFX-UHFFFAOYSA-N

> <PUBCHEM_SUBSTANCE_SYNONYM>
SCHEMBL16119926

> <PUBCHEM_XREF_EXT_ID>
SCHEMBL16119926

> <PUBCHEM_EXT_DATASOURCE_URL>
https://www.surechembl.org/

> <PUBCHEM_EXT_SUBSTANCE_URL>
https://www.surechembl.org/chemical/SCHEMBL16119926

> <PUBCHEM_CID_ASSOCIATIONS>
117608627  1

> <PUBCHEM_COORDINATE_TYPE>
1
3

$$$$
