310948724
  -OEChem-07211613022D

 24 26  0     1  0  0  0  0  0999 V2000
    0.2473    0.4603    0.0000 O   0  0  0  0  0  0  0  0  0  0  0  0
    1.6765    2.0956    0.0000 O   0  0  0  0  0  0  0  0  0  0  0  0
   -0.4810    1.6833    0.0000 O   0  0  0  0  0  0  0  0  0  0  0  0
    1.6765   -0.3642    0.0000 O   0  0  0  0  0  0  0  0  0  0  0  0
    3.1056    2.0956    0.0000 O   0  0  0  0  0  0  0  0  0  0  0  0
    3.1056    0.4603    0.0000 O   0  0  0  0  0  0  0  0  0  0  0  0
    0.9619    0.8726    0.0000 C   0  0  3  0  0  0  0  0  0  0  0  0
    1.6765    0.4603    0.0000 C   0  0  3  0  0  0  0  0  0  0  0  0
    0.9619    1.6971    0.0000 C   0  0  3  0  0  0  0  0  0  0  0  0
    2.3773    0.8726    0.0000 C   0  0  3  0  0  0  0  0  0  0  0  0
    2.3911    1.6833    0.0000 C   0  0  3  0  0  0  0  0  0  0  0  0
   -0.4673    0.8589    0.0000 C   0  0  3  0  0  0  0  0  0  0  0  0
    0.2473    2.0956    0.0000 C   0  0  0  0  0  0  0  0  0  0  0  0
   -1.5253    0.4741    0.0000 C   0  0  0  0  0  0  0  0  0  0  0  0
   -2.1162    1.0100    0.0000 C   0  0  0  0  0  0  0  0  0  0  0  0
   -1.6765   -0.3642    0.0000 C   0  0  0  0  0  0  0  0  0  0  0  0
    2.3635   -0.7764    0.0000 C   0  0  0  0  0  0  0  0  0  0  0  0
   -2.9269    0.7352    0.0000 C   0  0  0  0  0  0  0  0  0  0  0  0
   -2.4598   -0.6252    0.0000 C   0  0  0  0  0  0  0  0  0  0  0  0
    3.1056    2.8926    0.0000 C   0  0  0  0  0  0  0  0  0  0  0  0
   -3.1056   -0.0618    0.0000 C   0  0  0  0  0  0  0  0  0  0  0  0
    2.3498   -1.6146    0.0000 C   0  0  0  0  0  0  0  0  0  0  0  0
    3.0781   -2.0544    0.0000 C   0  0  0  0  0  0  0  0  0  0  0  0
    3.0506   -2.8926    0.0000 C   0  0  0  0  0  0  0  0  0  0  0  0
  7  1  1  6  0  0  0
 12  1  1  6  0  0  0
  9  2  1  1  0  0  0
  2 11  1  0  0  0  0
  3 12  1  0  0  0  0
  3 13  1  0  0  0  0
  8  4  1  6  0  0  0
  4 17  1  0  0  0  0
 11  5  1  6  0  0  0
  5 20  1  0  0  0  0
 10  6  1  1  0  0  0
  7  8  1  0  0  0  0
  7  9  1  0  0  0  0
  8 10  1  0  0  0  0
  9 13  1  0  0  0  0
 10 11  1  0  0  0  0
 12 14  1  0  0  0  0
 14 15  2  0  0  0  0
 14 16  1  0  0  0  0
 15 18  1  0  0  0  0
 16 19  2  0  0  0  0
 17 22  1  0  0  0  0
 18 21  2  0  0  0  0
 19 21  1  0  0  0  0
 22 23  1  0  0  0  0
 23 24  1  0  0  0  0
M  END
> <PUBCHEM_COMPOUND_ID_TYPE>
0

> <PUBCHEM_TOTAL_CHARGE>
0

> <PUBCHEM_SUBSTANCE_ID>
310948724

> <PUBCHEM_SUBSTANCE_VERSION>
1

> <PUBCHEM_EXT_DATASOURCE_NAME>
4488

> <PUBCHEM_EXT_DATASOURCE_REGID>
SCHEMBL16126908

> <PUBCHEM_SUBSTANCE_COMMENT>
InChI=1S/C18H26O6/c1-3-4-10-21-16-14(19)18(20-2)23-13-11-22-17(24-15(13)16)12-8-6-5-7-9-12/h5-9,13-19H,3-4,10-11H2,1-2H3/t13-,14+,15-,16+,17-,18+/m1/s1
InChIKey=GSOLUPTXXUBKOO-HTPGKPQGSA-N

> <PUBCHEM_SUBSTANCE_SYNONYM>
SCHEMBL16126908

> <PUBCHEM_XREF_EXT_ID>
SCHEMBL16126908

> <PUBCHEM_EXT_DATASOURCE_URL>
https://www.surechembl.org/

> <PUBCHEM_EXT_SUBSTANCE_URL>
https://www.surechembl.org/chemical/SCHEMBL16126908

> <PUBCHEM_CID_ASSOCIATIONS>
117614265  1

> <PUBCHEM_COORDINATE_TYPE>
1
3

> <PUBCHEM_BONDANNOTATIONS>
12  1  6
7  1  6
9  2  5
8  4  6
11  5  6
10  6  5

$$$$
