310942658
  -OEChem-07211613022D

 85 91  0     1  0  0  0  0  0999 V2000
   10.0420    1.9726    0.0000 F   0  0  0  0  0  0  0  0  0  0  0  0
    4.9232   -2.1029    0.0000 F   0  0  0  0  0  0  0  0  0  0  0  0
    6.7490    1.2226    0.0000 O   0  0  0  0  0  0  0  0  0  0  0  0
    8.0531   -2.6898    0.0000 O   0  0  0  0  0  0  0  0  0  0  0  0
    2.3312   -0.3587    0.0000 O   0  0  0  0  0  0  0  0  0  0  0  0
    3.0484    0.8803    0.0000 O   0  0  0  0  0  0  0  0  0  0  0  0
    5.4122    2.9506    0.0000 O   0  0  0  0  0  0  0  0  0  0  0  0
   -1.9726   -0.3587    0.0000 O   0  0  0  0  0  0  0  0  0  0  0  0
   -4.1244   -2.4290    0.0000 O   0  0  0  0  0  0  0  0  0  0  0  0
  -11.3135   -2.6409    0.0000 O   0  0  0  0  0  0  0  0  0  0  0  0
   -8.3955   -2.6409    0.0000 O   0  0  0  0  0  0  0  0  0  0  0  0
   -6.2599   -0.3587    0.0000 O   0  0  0  0  0  0  0  0  0  0  0  0
   -4.8416   -2.8365    0.0000 O   0  0  0  0  0  0  0  0  0  0  0  0
    8.6237    0.1141    0.0000 N   0  0  0  0  0  0  0  0  0  0  0  0
    6.4555   -0.1793    0.0000 N   0  0  0  0  0  0  0  0  0  0  0  0
    7.7271    1.1086    0.0000 N   0  0  0  0  0  0  0  0  0  0  0  0
    3.7657   -0.3424    0.0000 N   0  0  0  0  0  0  0  0  0  0  0  0
    5.3796    0.7825    0.0000 N   0  0  0  0  0  0  0  0  0  0  0  0
   -1.2552   -1.5813    0.0000 N   0  0  0  0  0  0  0  0  0  0  0  0
   -3.4071   -1.1738    0.0000 N   0  0  0  0  0  0  0  0  0  0  0  0
   -9.8626   -2.3964    0.0000 N   0  0  0  0  0  0  0  0  0  0  0  0
   -5.5589   -1.5813    0.0000 N   0  0  0  0  0  0  0  0  0  0  0  0
   -4.1244   -4.0755    0.0000 N   0  0  0  0  0  0  0  0  0  0  0  0
   -5.5589   -4.0755    0.0000 N   0  0  0  0  0  0  0  0  0  0  0  0
    7.8249    0.3098    0.0000 C   0  0  0  0  0  0  0  0  0  0  0  0
    7.2706   -0.3261    0.0000 C   0  0  3  0  0  0  0  0  0  0  0  0
    8.4607    1.4508    0.0000 C   0  0  0  0  0  0  0  0  0  0  0  0
    7.5315   -1.0923    0.0000 C   0  0  0  0  0  0  0  0  0  0  0  0
    9.0312    0.8314    0.0000 C   0  0  0  0  0  0  0  0  0  0  0  0
    8.6400    2.2822    0.0000 C   0  0  0  0  0  0  0  0  0  0  0  0
    6.1784    0.5868    0.0000 C   0  0  0  0  0  0  0  0  0  0  0  0
    5.9013   -0.7825    0.0000 C   0  0  0  0  0  0  0  0  0  0  0  0
    8.8845   -0.6521    0.0000 C   0  0  0  0  0  0  0  0  0  0  0  0
    5.1025   -0.6194    0.0000 C   0  0  3  0  0  0  0  0  0  0  0  0
    9.4062    2.5268    0.0000 C   0  0  0  0  0  0  0  0  0  0  0  0
    6.9935   -1.7443    0.0000 C   0  0  0  0  0  0  0  0  0  0  0  0
    8.3466   -1.2878    0.0000 C   0  0  0  0  0  0  0  0  0  0  0  0
    8.0368    2.8040    0.0000 C   0  0  0  0  0  0  0  0  0  0  0  0
    4.6623   -1.3367    0.0000 C   0  0  3  0  0  0  0  0  0  0  0  0
    9.6996   -0.8314    0.0000 C   0  0  0  0  0  0  0  0  0  0  0  0
    4.5971   -0.0326    0.0000 C   0  0  0  0  0  0  0  0  0  0  0  0
    8.1835    3.6191    0.0000 C   0  0  0  0  0  0  0  0  0  0  0  0
    3.8635   -1.1086    0.0000 C   0  0  0  0  0  0  0  0  0  0  0  0
    9.5855    3.3256    0.0000 C   0  0  0  0  0  0  0  0  0  0  0  0
    7.2543   -2.5105    0.0000 C   0  0  0  0  0  0  0  0  0  0  0  0
    8.5911   -2.0866    0.0000 C   0  0  0  0  0  0  0  0  0  0  0  0
    8.9660    3.8798    0.0000 C   0  0  0  0  0  0  0  0  0  0  0  0
    3.0321    0.0489    0.0000 C   0  0  0  0  0  0  0  0  0  0  0  0
   10.2539   -0.2120    0.0000 C   0  0  0  0  0  0  0  0  0  0  0  0
    9.9768   -1.6139    0.0000 C   0  0  0  0  0  0  0  0  0  0  0  0
    5.1188    1.5650    0.0000 C   0  0  3  0  0  0  0  0  0  0  0  0
    7.6945    4.0755    0.0000 C   0  0  0  0  0  0  0  0  0  0  0  0
   11.0527   -0.3750    0.0000 C   0  0  0  0  0  0  0  0  0  0  0  0
   10.7919   -1.7606    0.0000 C   0  0  0  0  0  0  0  0  0  0  0  0
   11.3135   -1.1575    0.0000 C   0  0  0  0  0  0  0  0  0  0  0  0
    5.6730    2.1844    0.0000 C   0  0  0  0  0  0  0  0  0  0  0  0
    4.3200    1.7280    0.0000 C   0  0  0  0  0  0  0  0  0  0  0  0
    1.6139    0.0652    0.0000 C   0  0  0  0  0  0  0  0  0  0  0  0
    0.8966   -0.3424    0.0000 C   0  0  0  0  0  0  0  0  0  0  0  0
    0.8966   -1.1738    0.0000 C   0  0  0  0  0  0  0  0  0  0  0  0
    0.1793    0.0489    0.0000 C   0  0  0  0  0  0  0  0  0  0  0  0
   -0.5542   -1.1738    0.0000 C   0  0  0  0  0  0  0  0  0  0  0  0
    0.1956   -1.5813    0.0000 C   0  0  0  0  0  0  0  0  0  0  0  0
   -0.5216   -0.3424    0.0000 C   0  0  0  0  0  0  0  0  0  0  0  0
   -1.9889   -1.1901    0.0000 C   0  0  0  0  0  0  0  0  0  0  0  0
   -2.6735   -1.5813    0.0000 C   0  0  3  0  0  0  0  0  0  0  0  0
   -4.1244   -1.5487    0.0000 C   0  0  0  0  0  0  0  0  0  0  0  0
   -4.8416   -1.1575    0.0000 C   0  0  3  0  0  0  0  0  0  0  0  0
  -10.4984   -2.9017    0.0000 C   0  0  0  0  0  0  0  0  0  0  0  0
   -9.2106   -2.8854    0.0000 C   0  0  0  0  0  0  0  0  0  0  0  0
   -2.6735   -2.3964    0.0000 C   0  0  0  0  0  0  0  0  0  0  0  0
   -4.8416   -0.3261    0.0000 C   0  0  0  0  0  0  0  0  0  0  0  0
  -10.2702   -3.6679    0.0000 C   0  0  0  0  0  0  0  0  0  0  0  0
   -9.4551   -3.6842    0.0000 C   0  0  0  0  0  0  0  0  0  0  0  0
   -9.8463   -1.5650    0.0000 C   0  0  0  0  0  0  0  0  0  0  0  0
   -6.2762   -1.1901    0.0000 C   0  0  0  0  0  0  0  0  0  0  0  0
   -3.3908   -2.8203    0.0000 C   0  0  0  0  0  0  0  0  0  0  0  0
   -9.1454   -1.1575    0.0000 C   0  0  0  0  0  0  0  0  0  0  0  0
   -6.9772   -1.5813    0.0000 C   0  0  0  0  0  0  0  0  0  0  0  0
   -5.5426    0.0815    0.0000 C   0  0  0  0  0  0  0  0  0  0  0  0
   -4.1081    0.0815    0.0000 C   0  0  0  0  0  0  0  0  0  0  0  0
   -8.4118   -1.5813    0.0000 C   0  0  0  0  0  0  0  0  0  0  0  0
   -7.7108   -1.1738    0.0000 C   0  0  0  0  0  0  0  0  0  0  0  0
   -3.4071   -3.6516    0.0000 C   0  0  0  0  0  0  0  0  0  0  0  0
   -4.8416   -3.6679    0.0000 C   0  0  0  0  0  0  0  0  0  0  0  0
  1 35  1  0  0  0  0
 39  2  1  1  0  0  0
  3 31  2  0  0  0  0
  4 45  1  0  0  0  0
  4 46  1  0  0  0  0
  5 48  1  0  0  0  0
  5 58  1  0  0  0  0
  6 48  2  0  0  0  0
  7 56  1  0  0  0  0
  8 65  2  0  0  0  0
  9 67  2  0  0  0  0
 10 69  2  0  0  0  0
 11 70  2  0  0  0  0
 12 76  2  0  0  0  0
 13 85  2  0  0  0  0
 14 25  1  0  0  0  0
 14 29  1  0  0  0  0
 14 33  1  0  0  0  0
 26 15  1  1  0  0  0
 15 31  1  0  0  0  0
 15 32  1  0  0  0  0
 16 25  2  0  0  0  0
 16 27  1  0  0  0  0
 17 41  1  0  0  0  0
 17 43  1  0  0  0  0
 17 48  1  0  0  0  0
 18 31  1  0  0  0  0
 18 51  1  0  0  0  0
 19 62  1  0  0  0  0
 19 65  1  0  0  0  0
 66 20  1  6  0  0  0
 20 67  1  0  0  0  0
 21 69  1  0  0  0  0
 21 70  1  0  0  0  0
 21 75  1  0  0  0  0
 68 22  1  1  0  0  0
 22 76  1  0  0  0  0
 23 84  1  0  0  0  0
 23 85  1  0  0  0  0
 24 85  1  0  0  0  0
 25 26  1  0  0  0  0
 26 28  1  0  0  0  0
 27 29  2  0  0  0  0
 27 30  1  0  0  0  0
 28 36  1  0  0  0  0
 28 37  1  0  0  0  0
 30 35  1  0  0  0  0
 30 38  2  0  0  0  0
 34 32  1  1  0  0  0
 33 40  1  0  0  0  0
 34 39  1  0  0  0  0
 34 41  1  0  0  0  0
 35 44  2  0  0  0  0
 36 45  1  0  0  0  0
 37 46  1  0  0  0  0
 38 42  1  0  0  0  0
 39 43  1  0  0  0  0
 40 49  2  0  0  0  0
 40 50  1  0  0  0  0
 42 47  2  0  0  0  0
 42 52  1  0  0  0  0
 44 47  1  0  0  0  0
 49 53  1  0  0  0  0
 50 54  2  0  0  0  0
 51 56  1  0  0  0  0
 51 57  1  1  0  0  0
 53 55  2  0  0  0  0
 54 55  1  0  0  0  0
 58 59  1  0  0  0  0
 59 60  2  0  0  0  0
 59 61  1  0  0  0  0
 60 63  1  0  0  0  0
 61 64  2  0  0  0  0
 62 63  2  0  0  0  0
 62 64  1  0  0  0  0
 65 66  1  0  0  0  0
 66 71  1  0  0  0  0
 67 68  1  0  0  0  0
 68 72  1  0  0  0  0
 69 73  1  0  0  0  0
 70 74  1  0  0  0  0
 71 77  1  0  0  0  0
 72 80  1  0  0  0  0
 72 81  1  0  0  0  0
 73 74  2  0  0  0  0
 75 78  1  0  0  0  0
 76 79  1  0  0  0  0
 77 84  1  0  0  0  0
 78 82  1  0  0  0  0
 79 83  1  0  0  0  0
 82 83  1  0  0  0  0
M  END
> <PUBCHEM_COMPOUND_ID_TYPE>
0

> <PUBCHEM_TOTAL_CHARGE>
0

> <PUBCHEM_SUBSTANCE_ID>
310942658

> <PUBCHEM_SUBSTANCE_VERSION>
1

> <PUBCHEM_EXT_DATASOURCE_NAME>
4488

> <PUBCHEM_EXT_DATASOURCE_REGID>
SCHEMBL16120704

> <PUBCHEM_SUBSTANCE_COMMENT>
InChI=1S/C61H79F2N11O11/c1-38(2)54(70-51(76)15-9-6-10-27-73-52(77)22-23-53(73)78)58(80)69-49(14-11-26-65-59(64)81)57(79)67-45-19-17-42(18-20-45)37-85-61(83)72-32-44(48(63)34-72)33-74(60(82)66-40(4)36-75)55(43-24-28-84-29-25-43)56-68-50(46-30-39(3)16-21-47(46)62)35-71(56)31-41-12-7-5-8-13-41/h5,7-8,12-13,16-23,30,35,38,40,43-44,48-49,54-55,75H,6,9-11,14-15,24-29,31-34,36-37H2,1-4H3,(H,66,82)(H,67,79)(H,69,80)(H,70,76)(H3,64,65,81)/t40-,44-,48-,49-,54-,55+/m0/s1
InChIKey=CUKFQMNYHVLQRD-CJTSFJJWSA-N

> <PUBCHEM_SUBSTANCE_SYNONYM>
SCHEMBL16120704

> <PUBCHEM_XREF_EXT_ID>
SCHEMBL16120704

> <PUBCHEM_EXT_DATASOURCE_URL>
https://www.surechembl.org/

> <PUBCHEM_EXT_SUBSTANCE_URL>
https://www.surechembl.org/chemical/SCHEMBL16120704

> <PUBCHEM_CID_ASSOCIATIONS>
117609188  1

> <PUBCHEM_COORDINATE_TYPE>
1
3

> <PUBCHEM_BONDANNOTATIONS>
26  15  5
39  2  5
66  20  6
68  22  5
34  32  5
51  57  5

$$$$
