310945538
  -OEChem-07211613022D

 34 37  0     0  0  0  0  0  0999 V2000
    0.0499    1.8858    0.0000 F   0  0  0  0  0  0  0  0  0  0  0  0
    0.8481    2.7639    0.0000 F   0  0  0  0  0  0  0  0  0  0  0  0
    1.6264    1.9058    0.0000 F   0  0  0  0  0  0  0  0  0  0  0  0
   -1.8260    1.6464    0.0000 F   0  0  0  0  0  0  0  0  0  0  0  0
   -4.1808   -0.7284    0.0000 F   0  0  0  0  0  0  0  0  0  0  0  0
   -4.9790    0.1497    0.0000 F   0  0  0  0  0  0  0  0  0  0  0  0
   -4.1808    1.0078    0.0000 F   0  0  0  0  0  0  0  0  0  0  0  0
    4.6796   -1.2473    0.0000 F   0  0  0  0  0  0  0  0  0  0  0  0
    4.9790   -2.4446    0.0000 F   0  0  0  0  0  0  0  0  0  0  0  0
    3.8814   -2.7639    0.0000 F   0  0  0  0  0  0  0  0  0  0  0  0
   -0.5887    0.8481    0.0000 N   0  0  0  0  0  0  0  0  0  0  0  0
   -0.5887   -0.5488    0.0000 N   0  0  0  0  0  0  0  0  0  0  0  0
    1.5266    0.5887    0.0000 N   0  0  0  0  0  0  0  0  0  0  0  0
    0.8481   -0.7084    0.0000 N   0  0  0  0  0  0  0  0  0  0  0  0
    2.9036   -2.0255    0.0000 N   0  0  0  0  0  0  0  0  0  0  0  0
    0.1497    0.5688    0.0000 C   0  0  0  0  0  0  0  0  0  0  0  0
    0.8282    1.0277    0.0000 C   0  0  0  0  0  0  0  0  0  0  0  0
    0.1297   -0.3093    0.0000 C   0  0  0  0  0  0  0  0  0  0  0  0
   -1.0477    0.1097    0.0000 C   0  0  0  0  0  0  0  0  0  0  0  0
    1.5066   -0.3093    0.0000 C   0  0  0  0  0  0  0  0  0  0  0  0
    0.8481    1.8858    0.0000 C   0  0  0  0  0  0  0  0  0  0  0  0
   -1.8459    0.1497    0.0000 C   0  0  0  0  0  0  0  0  0  0  0  0
    2.2251   -0.7284    0.0000 C   0  0  0  0  0  0  0  0  0  0  0  0
   -2.2450    0.8681    0.0000 C   0  0  0  0  0  0  0  0  0  0  0  0
   -2.2251   -0.6087    0.0000 C   0  0  0  0  0  0  0  0  0  0  0  0
   -3.4025    0.1097    0.0000 C   0  0  0  0  0  0  0  0  0  0  0  0
   -3.0034    0.8481    0.0000 C   0  0  0  0  0  0  0  0  0  0  0  0
    2.2051   -1.5865    0.0000 C   0  0  0  0  0  0  0  0  0  0  0  0
    2.8837   -0.3093    0.0000 C   0  0  0  0  0  0  0  0  0  0  0  0
   -2.9834   -0.6286    0.0000 C   0  0  0  0  0  0  0  0  0  0  0  0
    3.5622   -1.6065    0.0000 C   0  0  0  0  0  0  0  0  0  0  0  0
   -4.2007    0.1097    0.0000 C   0  0  0  0  0  0  0  0  0  0  0  0
    3.5821   -0.7484    0.0000 C   0  0  0  0  0  0  0  0  0  0  0  0
    4.2606   -2.0255    0.0000 C   0  0  0  0  0  0  0  0  0  0  0  0
  1 21  1  0  0  0  0
  2 21  1  0  0  0  0
  3 21  1  0  0  0  0
  4 24  1  0  0  0  0
  5 32  1  0  0  0  0
  6 32  1  0  0  0  0
  7 32  1  0  0  0  0
  8 34  1  0  0  0  0
  9 34  1  0  0  0  0
 10 34  1  0  0  0  0
 11 16  1  0  0  0  0
 11 19  2  0  0  0  0
 12 18  1  0  0  0  0
 12 19  1  0  0  0  0
 13 17  2  0  0  0  0
 13 20  1  0  0  0  0
 14 18  1  0  0  0  0
 14 20  2  0  0  0  0
 15 28  1  0  0  0  0
 15 31  2  0  0  0  0
 16 17  1  0  0  0  0
 16 18  2  0  0  0  0
 17 21  1  0  0  0  0
 19 22  1  0  0  0  0
 20 23  1  0  0  0  0
 22 24  2  0  0  0  0
 22 25  1  0  0  0  0
 23 28  2  0  0  0  0
 23 29  1  0  0  0  0
 24 27  1  0  0  0  0
 25 30  2  0  0  0  0
 26 27  2  0  0  0  0
 26 30  1  0  0  0  0
 26 32  1  0  0  0  0
 29 33  2  0  0  0  0
 31 33  1  0  0  0  0
 31 34  1  0  0  0  0
M  END
> <PUBCHEM_COMPOUND_ID_TYPE>
0

> <PUBCHEM_TOTAL_CHARGE>
0

> <PUBCHEM_SUBSTANCE_ID>
310945538

> <PUBCHEM_SUBSTANCE_VERSION>
1

> <PUBCHEM_EXT_DATASOURCE_NAME>
4488

> <PUBCHEM_EXT_DATASOURCE_REGID>
SCHEMBL16123636

> <PUBCHEM_SUBSTANCE_COMMENT>
InChI=1S/C19H7F10N5/c20-10-5-8(17(21,22)23)2-3-9(10)15-31-12-13(19(27,28)29)32-14(33-16(12)34-15)7-1-4-11(30-6-7)18(24,25)26/h1-6H,(H,31,32,33,34)
InChIKey=JMSRQLJQAIHSPH-UHFFFAOYSA-N

> <PUBCHEM_SUBSTANCE_SYNONYM>
SCHEMBL16123636

> <PUBCHEM_XREF_EXT_ID>
SCHEMBL16123636

> <PUBCHEM_EXT_DATASOURCE_URL>
https://www.surechembl.org/

> <PUBCHEM_EXT_SUBSTANCE_URL>
https://www.surechembl.org/chemical/SCHEMBL16123636

> <PUBCHEM_CID_ASSOCIATIONS>
117611579  1

> <PUBCHEM_COORDINATE_TYPE>
1
3

$$$$
