310931759
  -OEChem-07211613022D

 31 34  0     0  0  0  0  0  0999 V2000
    1.6397    0.0950    0.0000 O   0  0  0  0  0  0  0  0  0  0  0  0
   -2.1434    1.2375    0.0000 O   0  0  0  0  0  0  0  0  0  0  0  0
    5.6377    0.4164    0.0000 O   0  0  0  0  0  0  0  0  0  0  0  0
    9.0691    1.4926    0.0000 O   0  0  0  0  0  0  0  0  0  0  0  0
    2.0202    1.5151    0.0000 N   0  0  0  0  0  0  0  0  0  0  0  0
    1.6077    2.2295    0.0000 N   0  0  0  0  0  0  0  0  0  0  0  0
    3.3256    2.0963    0.0000 N   0  0  0  0  0  0  0  0  0  0  0  0
   -1.4290    0.0000    0.0000 N   0  0  0  0  0  0  0  0  0  0  0  0
    5.7871    1.8375    0.0000 N   0  0  0  0  0  0  0  0  0  0  0  0
    0.7145    1.2375    0.0000 C   0  0  0  0  0  0  0  0  0  0  0  0
    1.4682    0.9020    0.0000 C   0  0  0  0  0  0  0  0  0  0  0  0
    2.8407    1.4288    0.0000 C   0  0  0  0  0  0  0  0  0  0  0  0
    0.0000    0.8250    0.0000 C   0  0  0  0  0  0  0  0  0  0  0  0
    0.8007    2.0580    0.0000 C   0  0  0  0  0  0  0  0  0  0  0  0
    3.1762    0.6752    0.0000 C   0  0  0  0  0  0  0  0  0  0  0  0
    4.4817    1.2564    0.0000 C   0  0  0  0  0  0  0  0  0  0  0  0
   -0.7145    1.2375    0.0000 C   0  0  0  0  0  0  0  0  0  0  0  0
    0.0000    0.0000    0.0000 C   0  0  0  0  0  0  0  0  0  0  0  0
    4.1461    2.0100    0.0000 C   0  0  0  0  0  0  0  0  0  0  0  0
    3.9968    0.5889    0.0000 C   0  0  0  0  0  0  0  0  0  0  0  0
   -1.4290    0.8250    0.0000 C   0  0  0  0  0  0  0  0  0  0  0  0
    5.3022    1.1701    0.0000 C   0  0  0  0  0  0  0  0  0  0  0  0
   -0.7145   -0.4125    0.0000 C   0  0  0  0  0  0  0  0  0  0  0  0
    6.6076    1.7513    0.0000 C   0  0  0  0  0  0  0  0  0  0  0  0
    7.0925    2.4188    0.0000 C   0  0  0  0  0  0  0  0  0  0  0  0
    6.9432    0.9976    0.0000 C   0  0  0  0  0  0  0  0  0  0  0  0
    8.2486    1.5788    0.0000 C   0  0  0  0  0  0  0  0  0  0  0  0
    7.9130    2.3325    0.0000 C   0  0  0  0  0  0  0  0  0  0  0  0
    7.7636    0.9114    0.0000 C   0  0  0  0  0  0  0  0  0  0  0  0
   -2.8579    0.8250    0.0000 C   0  0  0  0  0  0  0  0  0  0  0  0
    9.5540    2.1601    0.0000 C   0  0  0  0  0  0  0  0  0  0  0  0
  1 11  1  0  0  0  0
  2 21  1  0  0  0  0
  2 30  1  0  0  0  0
  3 22  2  0  0  0  0
 27  4  1  6  0  0  0
  4 31  1  0  0  0  0
  5  6  1  0  0  0  0
  5 11  1  0  0  0  0
  5 12  1  0  0  0  0
  6 14  2  0  0  0  0
  7 12  2  0  0  0  0
  7 19  1  0  0  0  0
  8 21  2  0  0  0  0
  8 23  1  0  0  0  0
  9 22  1  0  0  0  0
 24  9  1  1  0  0  0
 10 11  2  0  0  0  0
 10 13  1  0  0  0  0
 10 14  1  0  0  0  0
 12 15  1  0  0  0  0
 13 17  2  0  0  0  0
 13 18  1  0  0  0  0
 15 20  2  0  0  0  0
 16 19  2  0  0  0  0
 16 20  1  0  0  0  0
 16 22  1  0  0  0  0
 17 21  1  0  0  0  0
 18 23  2  0  0  0  0
 24 25  1  0  0  0  0
 24 26  1  0  0  0  0
 25 28  1  0  0  0  0
 26 29  1  0  0  0  0
 27 28  1  0  0  0  0
 27 29  1  0  0  0  0
M  END
> <PUBCHEM_COMPOUND_ID_TYPE>
0

> <PUBCHEM_TOTAL_CHARGE>
0

> <PUBCHEM_SUBSTANCE_ID>
310931759

> <PUBCHEM_SUBSTANCE_VERSION>
1

> <PUBCHEM_EXT_DATASOURCE_NAME>
4488

> <PUBCHEM_EXT_DATASOURCE_REGID>
SCHEMBL16109088

> <PUBCHEM_SUBSTANCE_COMMENT>
InChI=1S/C22H25N5O4/c1-30-17-6-4-16(5-7-17)26-21(28)15-3-8-19(24-12-15)27-22(29)18(13-25-27)14-9-10-23-20(11-14)31-2/h3,8-13,16-17,29H,4-7H2,1-2H3,(H,26,28)/t16-,17-
InChIKey=PGZGFALDKGXGPY-QAQDUYKDSA-N

> <PUBCHEM_SUBSTANCE_SYNONYM>
SCHEMBL16109088

> <PUBCHEM_XREF_EXT_ID>
SCHEMBL16109088

> <PUBCHEM_EXT_DATASOURCE_URL>
https://www.surechembl.org/

> <PUBCHEM_EXT_SUBSTANCE_URL>
https://www.surechembl.org/chemical/SCHEMBL16109088

> <PUBCHEM_CID_ASSOCIATIONS>
117600446  1

> <PUBCHEM_COORDINATE_TYPE>
1
3

> <PUBCHEM_BONDANNOTATIONS>
27  4  6
24  9  5

$$$$
