310938628
  -OEChem-07211613022D

 36 40  0     0  0  0  0  0  0999 V2000
   -4.6441   -0.9760    0.0000 Cl  0  0  0  0  0  0  0  0  0  0  0  0
   -1.0717   -1.3885    0.0000 O   0  0  0  0  0  0  0  0  0  0  0  0
   -0.3572   -2.6260    0.0000 O   0  0  0  0  0  0  0  0  0  0  0  0
   -4.6441   -3.4510    0.0000 O   0  0  0  0  0  0  0  0  0  0  0  0
    4.6441   -1.3885    0.0000 O   0  0  0  0  0  0  0  0  0  0  0  0
    0.3572    1.0865    0.0000 N   0  0  0  0  0  0  0  0  0  0  0  0
   -0.3572   -0.1510    0.0000 N   0  0  0  0  0  0  0  0  0  0  0  0
    1.0717   -0.1510    0.0000 N   0  0  0  0  0  0  0  0  0  0  0  0
    1.0717   -2.6260    0.0000 N   0  0  0  0  0  0  0  0  0  0  0  0
    3.2151   -2.2135    0.0000 N   0  0  0  0  0  0  0  0  0  0  0  0
    0.3572    2.7365    0.0000 C   0  0  0  0  0  0  0  0  0  0  0  0
    0.7697    3.4510    0.0000 C   0  0  0  0  0  0  0  0  0  0  0  0
   -0.0553    3.4510    0.0000 C   0  0  0  0  0  0  0  0  0  0  0  0
    0.3572    0.2615    0.0000 C   0  0  0  0  0  0  0  0  0  0  0  0
    1.0717    2.3240    0.0000 C   0  0  0  0  0  0  0  0  0  0  0  0
   -0.3572    2.3240    0.0000 C   0  0  0  0  0  0  0  0  0  0  0  0
   -0.3572   -0.9760    0.0000 C   0  0  0  0  0  0  0  0  0  0  0  0
    0.3572   -1.3885    0.0000 C   0  0  0  0  0  0  0  0  0  0  0  0
    1.0717    1.4990    0.0000 C   0  0  0  0  0  0  0  0  0  0  0  0
   -0.3572    1.4990    0.0000 C   0  0  0  0  0  0  0  0  0  0  0  0
    1.0717   -0.9760    0.0000 C   0  0  0  0  0  0  0  0  0  0  0  0
    0.3572   -2.2135    0.0000 C   0  0  0  0  0  0  0  0  0  0  0  0
   -1.7862   -0.9760    0.0000 C   0  0  0  0  0  0  0  0  0  0  0  0
   -2.5006   -1.3885    0.0000 C   0  0  0  0  0  0  0  0  0  0  0  0
   -3.9296   -1.3885    0.0000 C   0  0  0  0  0  0  0  0  0  0  0  0
   -3.2151   -0.9760    0.0000 C   0  0  0  0  0  0  0  0  0  0  0  0
   -3.9296   -2.2135    0.0000 C   0  0  0  0  0  0  0  0  0  0  0  0
   -2.5006   -2.2135    0.0000 C   0  0  0  0  0  0  0  0  0  0  0  0
   -3.2151   -2.6260    0.0000 C   0  0  0  0  0  0  0  0  0  0  0  0
    1.7862   -2.2135    0.0000 C   0  0  0  0  0  0  0  0  0  0  0  0
    2.5006   -2.6260    0.0000 C   0  0  0  0  0  0  0  0  0  0  0  0
   -4.6441   -2.6260    0.0000 C   0  0  0  0  0  0  0  0  0  0  0  0
    3.9296   -2.6260    0.0000 C   0  0  0  0  0  0  0  0  0  0  0  0
    3.2151   -1.3885    0.0000 C   0  0  0  0  0  0  0  0  0  0  0  0
    4.6441   -2.2135    0.0000 C   0  0  0  0  0  0  0  0  0  0  0  0
    3.9296   -0.9760    0.0000 C   0  0  0  0  0  0  0  0  0  0  0  0
  1 25  1  0  0  0  0
  2 17  1  0  0  0  0
  2 23  1  0  0  0  0
  3 22  2  0  0  0  0
  4 32  1  0  0  0  0
  5 35  1  0  0  0  0
  5 36  1  0  0  0  0
  6 14  1  0  0  0  0
  6 19  1  0  0  0  0
  6 20  1  0  0  0  0
  7 14  1  0  0  0  0
  7 17  2  0  0  0  0
  8 14  2  0  0  0  0
  8 21  1  0  0  0  0
  9 22  1  0  0  0  0
  9 30  1  0  0  0  0
 10 31  1  0  0  0  0
 10 33  1  0  0  0  0
 10 34  1  0  0  0  0
 11 12  1  0  0  0  0
 11 13  1  0  0  0  0
 11 15  1  0  0  0  0
 11 16  1  0  0  0  0
 12 13  1  0  0  0  0
 15 19  1  0  0  0  0
 16 20  1  0  0  0  0
 17 18  1  0  0  0  0
 18 21  2  0  0  0  0
 18 22  1  0  0  0  0
 23 24  1  0  0  0  0
 24 26  2  0  0  0  0
 24 28  1  0  0  0  0
 25 26  1  0  0  0  0
 25 27  2  0  0  0  0
 27 29  1  0  0  0  0
 27 32  1  0  0  0  0
 28 29  2  0  0  0  0
 30 31  1  0  0  0  0
 33 35  1  0  0  0  0
 34 36  1  0  0  0  0
M  END
> <PUBCHEM_COMPOUND_ID_TYPE>
0

> <PUBCHEM_TOTAL_CHARGE>
0

> <PUBCHEM_SUBSTANCE_ID>
310938628

> <PUBCHEM_SUBSTANCE_VERSION>
1

> <PUBCHEM_EXT_DATASOURCE_NAME>
4488

> <PUBCHEM_EXT_DATASOURCE_REGID>
SCHEMBL16116542

> <PUBCHEM_SUBSTANCE_COMMENT>
InChI=1S/C26H34ClN5O4/c27-22-15-19(1-2-20(22)17-33)18-36-24-21(23(34)28-7-10-31-11-13-35-14-12-31)16-29-25(30-24)32-8-5-26(3-4-26)6-9-32/h1-2,15-16,33H,3-14,17-18H2,(H,28,34)
InChIKey=QFXJIIVMAROZNK-UHFFFAOYSA-N

> <PUBCHEM_SUBSTANCE_SYNONYM>
SCHEMBL16116542

> <PUBCHEM_XREF_EXT_ID>
SCHEMBL16116542

> <PUBCHEM_EXT_DATASOURCE_URL>
https://www.surechembl.org/

> <PUBCHEM_EXT_SUBSTANCE_URL>
https://www.surechembl.org/chemical/SCHEMBL16116542

> <PUBCHEM_CID_ASSOCIATIONS>
117606061  1

> <PUBCHEM_COORDINATE_TYPE>
1
3

$$$$
