310947129
  -OEChem-07211613022D

 18 19  0     0  0  0  0  0  0999 V2000
   -3.0041   -0.6396    0.0000 O   0  0  0  0  0  0  0  0  0  0  0  0
   -3.0041    0.6688    0.0000 O   0  0  0  0  0  0  0  0  0  0  0  0
    0.6213   -0.4203    0.0000 O   0  0  0  0  0  0  0  0  0  0  0  0
   -2.2293   -0.4130    0.0000 C   0  0  0  0  0  0  0  0  0  0  0  0
   -2.2147    0.4349    0.0000 C   0  0  0  0  0  0  0  0  0  0  0  0
   -0.8040   -0.4130    0.0000 C   0  0  0  0  0  0  0  0  0  0  0  0
   -0.7967    0.4349    0.0000 C   0  0  0  0  0  0  0  0  0  0  0  0
   -1.4765   -0.8077    0.0000 C   0  0  0  0  0  0  0  0  0  0  0  0
   -1.4765    0.8077    0.0000 C   0  0  0  0  0  0  0  0  0  0  0  0
   -3.4865   -0.0037    0.0000 C   0  0  0  0  0  0  0  0  0  0  0  0
   -0.0731   -0.8369    0.0000 C   0  0  0  0  0  0  0  0  0  0  0  0
   -0.0951    0.8296    0.0000 C   0  0  0  0  0  0  0  0  0  0  0  0
    0.6140    0.4276    0.0000 C   0  0  0  0  0  0  0  0  0  0  0  0
    1.3376   -0.8296    0.0000 C   0  0  0  0  0  0  0  0  0  0  0  0
    1.3230    0.8369    0.0000 C   0  0  0  0  0  0  0  0  0  0  0  0
    2.0539   -0.4203    0.0000 C   0  0  0  0  0  0  0  0  0  0  0  0
    2.7775   -0.0037    0.0000 C   0  0  0  0  0  0  0  0  0  0  0  0
    3.4865    0.4057    0.0000 C   0  0  0  0  0  0  0  0  0  0  0  0
  1  4  1  0  0  0  0
  1 10  1  0  0  0  0
  2  5  1  0  0  0  0
  2 10  1  0  0  0  0
  3 11  1  0  0  0  0
  3 14  1  0  0  0  0
  4  5  2  0  0  0  0
  4  8  1  0  0  0  0
  5  9  1  0  0  0  0
  6  7  1  0  0  0  0
  6  8  2  0  0  0  0
  6 11  1  0  0  0  0
  7  9  2  0  0  0  0
  7 12  1  0  0  0  0
 12 13  1  0  0  0  0
 13 15  1  0  0  0  0
 14 16  1  0  0  0  0
 16 17  3  0  0  0  0
 17 18  1  0  0  0  0
M  END
> <PUBCHEM_COMPOUND_ID_TYPE>
0

> <PUBCHEM_TOTAL_CHARGE>
0

> <PUBCHEM_SUBSTANCE_ID>
310947129

> <PUBCHEM_SUBSTANCE_VERSION>
1

> <PUBCHEM_EXT_DATASOURCE_NAME>
4488

> <PUBCHEM_EXT_DATASOURCE_REGID>
SCHEMBL16125283

> <PUBCHEM_SUBSTANCE_COMMENT>
InChI=1S/C15H18O3/c1-3-5-7-16-10-13-9-15-14(17-11-18-15)8-12(13)6-4-2/h8-9H,4,6-7,10-11H2,1-2H3
InChIKey=XHHGIAKCRPBYJB-UHFFFAOYSA-N

> <PUBCHEM_SUBSTANCE_SYNONYM>
SCHEMBL16125283

> <PUBCHEM_XREF_EXT_ID>
SCHEMBL16125283

> <PUBCHEM_EXT_DATASOURCE_URL>
https://www.surechembl.org/

> <PUBCHEM_EXT_SUBSTANCE_URL>
https://www.surechembl.org/chemical/SCHEMBL16125283

> <PUBCHEM_CID_ASSOCIATIONS>
54469495  1

> <PUBCHEM_COORDINATE_TYPE>
1
3

$$$$
