310941181
  -OEChem-07211613022D

 44 47  0     1  0  0  0  0  0999 V2000
    5.0733    0.4618    0.0000 O   0  0  0  0  0  0  0  0  0  0  0  0
    3.9429   -1.4958    0.0000 O   0  0  0  0  0  0  0  0  0  0  0  0
    1.7922    0.5721    0.0000 O   0  0  0  0  0  0  0  0  0  0  0  0
   -0.3585   -1.4958    0.0000 O   0  0  0  0  0  0  0  0  0  0  0  0
    3.9429   -3.1502    0.0000 O   0  0  0  0  0  0  0  0  0  0  0  0
   -2.4953    0.5721    0.0000 O   0  0  0  0  0  0  0  0  0  0  0  0
   -5.3628    0.5721    0.0000 O   0  0  0  0  0  0  0  0  0  0  0  0
    2.5091   -0.6686    0.0000 N   0  0  0  0  0  0  0  0  0  0  0  0
    0.3722   -0.2550    0.0000 N   0  0  0  0  0  0  0  0  0  0  0  0
   -1.7784   -0.6686    0.0000 N   0  0  0  0  0  0  0  0  0  0  0  0
   -3.9291   -0.2550    0.0000 N   0  0  0  0  0  0  0  0  0  0  0  0
   -0.3446    3.1502    0.0000 N   0  0  0  0  0  0  0  0  0  0  0  0
    4.6460   -0.1999    0.0000 C   0  0  3  0  0  0  0  0  0  0  0  0
    3.9429   -0.6273    0.0000 C   0  0  0  0  0  0  0  0  0  0  0  0
    4.2737    0.4756    0.0000 C   0  0  0  0  0  0  0  0  0  0  0  0
    3.2260   -0.2275    0.0000 C   0  0  3  0  0  0  0  0  0  0  0  0
    5.3628   -0.6273    0.0000 C   0  0  0  0  0  0  0  0  0  0  0  0
    3.2260    1.0960    0.0000 C   0  0  0  0  0  0  0  0  0  0  0  0
    1.7922   -0.2413    0.0000 C   0  0  0  0  0  0  0  0  0  0  0  0
    2.5229    1.5234    0.0000 C   0  0  0  0  0  0  0  0  0  0  0  0
    1.1029   -0.6273    0.0000 C   0  0  3  0  0  0  0  0  0  0  0  0
    1.0753   -1.4821    0.0000 C   0  0  0  0  0  0  0  0  0  0  0  0
    1.8060    1.1098    0.0000 C   0  0  0  0  0  0  0  0  0  0  0  0
    2.5229    2.3367    0.0000 C   0  0  0  0  0  0  0  0  0  0  0  0
    1.8198   -1.8818    0.0000 C   0  0  0  0  0  0  0  0  0  0  0  0
   -0.3446   -0.6135    0.0000 C   0  0  0  0  0  0  0  0  0  0  0  0
    1.0891    2.3506    0.0000 C   0  0  0  0  0  0  0  0  0  0  0  0
    1.1029    1.5096    0.0000 C   0  0  0  0  0  0  0  0  0  0  0  0
    1.7922    2.7503    0.0000 C   0  0  0  0  0  0  0  0  0  0  0  0
   -1.0615   -0.2275    0.0000 C   0  0  3  0  0  0  0  0  0  0  0  0
    2.5091   -1.4821    0.0000 C   0  0  0  0  0  0  0  0  0  0  0  0
    1.8198   -2.7090    0.0000 C   0  0  0  0  0  0  0  0  0  0  0  0
    3.2398   -2.6952    0.0000 C   0  0  0  0  0  0  0  0  0  0  0  0
    3.2398   -1.8956    0.0000 C   0  0  0  0  0  0  0  0  0  0  0  0
    2.5229   -3.1088    0.0000 C   0  0  0  0  0  0  0  0  0  0  0  0
   -2.4953   -0.2413    0.0000 C   0  0  0  0  0  0  0  0  0  0  0  0
    0.3860    2.7503    0.0000 C   0  0  0  0  0  0  0  0  0  0  0  0
   -1.0615    0.5997    0.0000 C   0  0  0  0  0  0  0  0  0  0  0  0
   -3.1846   -0.6273    0.0000 C   0  0  0  0  0  0  0  0  0  0  0  0
   -3.9291    0.5859    0.0000 C   0  0  0  0  0  0  0  0  0  0  0  0
   -4.6184   -0.6273    0.0000 C   0  0  0  0  0  0  0  0  0  0  0  0
   -4.6597    1.0132    0.0000 C   0  0  0  0  0  0  0  0  0  0  0  0
   -5.3628   -0.2275    0.0000 C   0  0  0  0  0  0  0  0  0  0  0  0
    4.6735   -2.7090    0.0000 C   0  0  0  0  0  0  0  0  0  0  0  0
  1 13  1  0  0  0  0
  1 15  1  0  0  0  0
  2 14  2  0  0  0  0
  3 19  2  0  0  0  0
  4 26  2  0  0  0  0
  5 33  1  0  0  0  0
  5 44  1  0  0  0  0
  6 36  2  0  0  0  0
  7 42  1  0  0  0  0
  7 43  1  0  0  0  0
 16  8  1  1  0  0  0
  8 19  1  0  0  0  0
 21  9  1  6  0  0  0
  9 26  1  0  0  0  0
 10 30  1  0  0  0  0
 10 36  1  0  0  0  0
 11 39  1  0  0  0  0
 11 40  1  0  0  0  0
 11 41  1  0  0  0  0
 12 37  3  0  0  0  0
 13 14  1  1  0  0  0
 13 15  1  0  0  0  0
 13 17  1  6  0  0  0
 14 16  1  0  0  0  0
 16 18  1  0  0  0  0
 18 20  1  0  0  0  0
 19 21  1  0  0  0  0
 20 23  2  0  0  0  0
 20 24  1  0  0  0  0
 21 22  1  0  0  0  0
 22 25  1  0  0  0  0
 23 28  1  0  0  0  0
 24 29  2  0  0  0  0
 25 31  2  0  0  0  0
 25 32  1  0  0  0  0
 26 30  1  0  0  0  0
 27 28  2  0  0  0  0
 27 29  1  0  0  0  0
 27 37  1  0  0  0  0
 30 38  1  1  0  0  0
 31 34  1  0  0  0  0
 32 35  2  0  0  0  0
 33 34  2  0  0  0  0
 33 35  1  0  0  0  0
 36 39  1  0  0  0  0
 40 42  1  0  0  0  0
 41 43  1  0  0  0  0
M  END
> <PUBCHEM_COMPOUND_ID_TYPE>
0

> <PUBCHEM_TOTAL_CHARGE>
0

> <PUBCHEM_SUBSTANCE_ID>
310941181

> <PUBCHEM_SUBSTANCE_VERSION>
1

> <PUBCHEM_EXT_DATASOURCE_NAME>
4488

> <PUBCHEM_EXT_DATASOURCE_REGID>
SCHEMBL16119141

> <PUBCHEM_SUBSTANCE_COMMENT>
InChI=1S/C32H39N5O7/c1-21(34-28(38)19-37-12-14-43-15-13-37)30(40)36-27(17-23-8-10-25(42-3)11-9-23)31(41)35-26(29(39)32(2)20-44-32)16-22-4-6-24(18-33)7-5-22/h4-11,21,26-27H,12-17,19-20H2,1-3H3,(H,34,38)(H,35,41)(H,36,40)/t21-,26-,27-,32+/m0/s1
InChIKey=KWQHKNBNQLLSGF-OYJHBXMHSA-N

> <PUBCHEM_SUBSTANCE_SYNONYM>
SCHEMBL16119141

> <PUBCHEM_XREF_EXT_ID>
SCHEMBL16119141

> <PUBCHEM_EXT_DATASOURCE_URL>
https://www.surechembl.org/

> <PUBCHEM_EXT_SUBSTANCE_URL>
https://www.surechembl.org/chemical/SCHEMBL16119141

> <PUBCHEM_CID_ASSOCIATIONS>
117608055  1

> <PUBCHEM_COORDINATE_TYPE>
1
3

> <PUBCHEM_BONDANNOTATIONS>
13  14  5
13  17  6
30  38  5
16  8  5
21  9  6

$$$$
