310944915
  -OEChem-07211613022D

 35 39  0     0  0  0  0  0  0999 V2000
   -0.7062    2.5924    0.0000 Cl  0  0  0  0  0  0  0  0  0  0  0  0
    3.9244   -2.4137    0.0000 O   0  0  0  0  0  0  0  0  0  0  0  0
    4.6396   -1.1622    0.0000 O   0  0  0  0  0  0  0  0  0  0  0  0
    1.0281    0.9297    0.0000 N   0  0  0  0  0  0  0  0  0  0  0  0
   -4.6396   -1.8594    0.0000 N   0  0  0  0  0  0  0  0  0  0  0  0
   -4.2283   -2.5924    0.0000 N   0  0  0  0  0  0  0  0  0  0  0  0
   -0.4201    0.9118    0.0000 C   0  0  0  0  0  0  0  0  0  0  0  0
   -0.4380    0.0715    0.0000 C   0  0  0  0  0  0  0  0  0  0  0  0
    0.2950    1.3231    0.0000 C   0  0  0  0  0  0  0  0  0  0  0  0
   -1.1890    1.3409    0.0000 C   0  0  0  0  0  0  0  0  0  0  0  0
   -1.1353   -0.3397    0.0000 C   0  0  0  0  0  0  0  0  0  0  0  0
    0.3129   -0.3397    0.0000 C   0  0  0  0  0  0  0  0  0  0  0  0
    0.3129    2.1633    0.0000 C   0  0  0  0  0  0  0  0  0  0  0  0
   -1.9398    1.1085    0.0000 C   0  0  0  0  0  0  0  0  0  0  0  0
   -1.3677    2.1098    0.0000 C   0  0  0  0  0  0  0  0  0  0  0  0
   -1.8862    0.0536    0.0000 C   0  0  0  0  0  0  0  0  0  0  0  0
   -1.1532   -1.1800    0.0000 C   0  0  0  0  0  0  0  0  0  0  0  0
    0.3129   -1.1979    0.0000 C   0  0  0  0  0  0  0  0  0  0  0  0
    1.0102    0.0536    0.0000 C   0  0  0  0  0  0  0  0  0  0  0  0
   -2.6014   -1.1800    0.0000 C   0  0  0  0  0  0  0  0  0  0  0  0
   -2.1544    1.8952    0.0000 C   0  0  0  0  0  0  0  0  0  0  0  0
   -2.5656   -0.3397    0.0000 C   0  0  0  0  0  0  0  0  0  0  0  0
   -1.8684   -1.5912    0.0000 C   0  0  0  0  0  0  0  0  0  0  0  0
   -3.3166   -1.5912    0.0000 C   0  0  0  0  0  0  0  0  0  0  0  0
    0.9922    2.5567    0.0000 C   0  0  0  0  0  0  0  0  0  0  0  0
    1.7432   -1.1800    0.0000 C   0  0  0  0  0  0  0  0  0  0  0  0
    1.0281   -1.5912    0.0000 C   0  0  0  0  0  0  0  0  0  0  0  0
    1.7432   -0.3576    0.0000 C   0  0  0  0  0  0  0  0  0  0  0  0
    1.7432    1.3231    0.0000 C   0  0  0  0  0  0  0  0  0  0  0  0
    1.7611    2.1455    0.0000 C   0  0  0  0  0  0  0  0  0  0  0  0
   -4.0853   -1.2694    0.0000 C   0  0  0  0  0  0  0  0  0  0  0  0
   -3.4059   -2.4315    0.0000 C   0  0  0  0  0  0  0  0  0  0  0  0
    2.4762   -1.6091    0.0000 C   0  0  0  0  0  0  0  0  0  0  0  0
    3.1735   -1.1979    0.0000 C   0  0  0  0  0  0  0  0  0  0  0  0
    3.9244   -1.5734    0.0000 C   0  0  0  0  0  0  0  0  0  0  0  0
  1 13  1  0  0  0  0
  2 35  2  0  0  0  0
  3 35  1  0  0  0  0
  4  9  2  0  0  0  0
  4 29  1  0  0  0  0
  5  6  1  0  0  0  0
  5 31  2  0  0  0  0
  6 32  1  0  0  0  0
  7  8  2  0  0  0  0
  7  9  1  0  0  0  0
  7 10  1  0  0  0  0
  8 11  1  0  0  0  0
  8 12  1  0  0  0  0
  9 13  1  0  0  0  0
 10 14  1  0  0  0  0
 10 15  1  0  0  0  0
 11 16  2  0  0  0  0
 11 17  1  0  0  0  0
 12 18  2  0  0  0  0
 12 19  1  0  0  0  0
 13 25  2  0  0  0  0
 14 21  1  0  0  0  0
 15 21  1  0  0  0  0
 16 22  1  0  0  0  0
 17 23  2  0  0  0  0
 18 27  1  0  0  0  0
 19 28  2  0  0  0  0
 20 22  2  0  0  0  0
 20 23  1  0  0  0  0
 20 24  1  0  0  0  0
 24 31  1  0  0  0  0
 24 32  2  0  0  0  0
 25 30  1  0  0  0  0
 26 27  2  0  0  0  0
 26 28  1  0  0  0  0
 26 33  1  0  0  0  0
 29 30  2  0  0  0  0
 33 34  2  0  0  0  0
 34 35  1  0  0  0  0
M  END
> <PUBCHEM_COMPOUND_ID_TYPE>
0

> <PUBCHEM_TOTAL_CHARGE>
0

> <PUBCHEM_SUBSTANCE_ID>
310944915

> <PUBCHEM_SUBSTANCE_VERSION>
1

> <PUBCHEM_EXT_DATASOURCE_NAME>
4488

> <PUBCHEM_EXT_DATASOURCE_REGID>
SCHEMBL16123000

> <PUBCHEM_SUBSTANCE_COMMENT>
InChI=1S/C29H24ClN3O2/c30-25-5-2-16-31-29(25)28(21-3-1-4-21)27(22-9-6-19(7-10-22)8-15-26(34)35)23-13-11-20(12-14-23)24-17-32-33-18-24/h2,5-18,21H,1,3-4H2,(H,32,33)(H,34,35)/b15-8+,28-27+
InChIKey=WLWJFWSKIDCPRA-WTEVFMHCSA-N

> <PUBCHEM_SUBSTANCE_SYNONYM>
SCHEMBL16123000

> <PUBCHEM_XREF_EXT_ID>
SCHEMBL16123000

> <PUBCHEM_EXT_DATASOURCE_URL>
https://www.surechembl.org/

> <PUBCHEM_EXT_SUBSTANCE_URL>
https://www.surechembl.org/chemical/SCHEMBL16123000

> <PUBCHEM_CID_ASSOCIATIONS>
86271644  1

> <PUBCHEM_COORDINATE_TYPE>
1
3

$$$$
