310942487
  -OEChem-07211613022D

 41 44  0     1  0  0  0  0  0999 V2000
   -2.8972    0.5527    0.0000 F   0  0  0  0  0  0  0  0  0  0  0  0
    3.6104   -0.5884    0.0000 F   0  0  0  0  0  0  0  0  0  0  0  0
   -2.8972   -2.7814    0.0000 F   0  0  0  0  0  0  0  0  0  0  0  0
    1.5244    1.4441    0.0000 O   0  0  0  0  0  0  0  0  0  0  0  0
   -0.1337   -1.4441    0.0000 O   0  0  0  0  0  0  0  0  0  0  0  0
   -0.5438   -3.6015    0.0000 O   0  0  0  0  0  0  0  0  0  0  0  0
   -0.5438    0.7132    0.0000 N   0  0  0  0  0  0  0  0  0  0  0  0
    1.1143   -0.7310    0.0000 N   0  0  0  0  0  0  0  0  0  0  0  0
   -0.6864   -0.6240    0.0000 N   0  0  0  0  0  0  0  0  0  0  0  0
    1.1143   -2.1573    0.0000 N   0  0  0  0  0  0  0  0  0  0  0  0
    2.9864   -2.6565    0.0000 N   0  0  0  0  0  0  0  0  0  0  0  0
    0.7043   -0.0178    0.0000 C   0  0  3  0  0  0  0  0  0  0  0  0
   -0.1516    0.0178    0.0000 C   0  0  0  0  0  0  0  0  0  0  0  0
    1.1322    0.7667    0.0000 C   0  0  0  0  0  0  0  0  0  0  0  0
   -1.4531   -0.2674    0.0000 C   0  0  0  0  0  0  0  0  0  0  0  0
   -1.3639    0.5527    0.0000 C   0  0  0  0  0  0  0  0  0  0  0  0
   -2.1841   -0.6953    0.0000 C   0  0  0  0  0  0  0  0  0  0  0  0
    0.7043   -1.4441    0.0000 C   0  0  0  0  0  0  0  0  0  0  0  0
    1.9523   -0.7310    0.0000 C   0  0  0  0  0  0  0  0  0  0  0  0
   -0.1337    1.4441    0.0000 C   0  0  0  0  0  0  0  0  0  0  0  0
   -2.8972   -0.2853    0.0000 C   0  0  0  0  0  0  0  0  0  0  0  0
    2.3802   -1.4263    0.0000 C   0  0  3  0  0  0  0  0  0  0  0  0
    0.6864    1.4441    0.0000 C   0  0  0  0  0  0  0  0  0  0  0  0
    1.9702    0.7132    0.0000 C   0  0  0  0  0  0  0  0  0  0  0  0
   -2.2019   -1.5333    0.0000 C   0  0  0  0  0  0  0  0  0  0  0  0
   -0.5616    2.1573    0.0000 C   0  0  0  0  0  0  0  0  0  0  0  0
    3.2004   -1.3372    0.0000 C   0  0  3  0  0  0  0  0  0  0  0  0
   -2.8794   -1.9255    0.0000 C   0  0  0  0  0  0  0  0  0  0  0  0
   -3.6104   -0.6953    0.0000 C   0  0  0  0  0  0  0  0  0  0  0  0
    2.2554   -2.2286    0.0000 C   0  0  0  0  0  0  0  0  0  0  0  0
   -3.6104   -1.5333    0.0000 C   0  0  0  0  0  0  0  0  0  0  0  0
    0.6864   -2.8705    0.0000 C   0  0  3  0  0  0  0  0  0  0  0  0
    1.0965    2.1751    0.0000 C   0  0  0  0  0  0  0  0  0  0  0  0
    3.5747   -2.0504    0.0000 C   0  0  0  0  0  0  0  0  0  0  0  0
   -1.3818    2.1751    0.0000 C   0  0  0  0  0  0  0  0  0  0  0  0
   -0.1337    2.8883    0.0000 C   0  0  0  0  0  0  0  0  0  0  0  0
   -1.7918    2.8883    0.0000 C   0  0  0  0  0  0  0  0  0  0  0  0
   -0.5616    3.6015    0.0000 C   0  0  0  0  0  0  0  0  0  0  0  0
   -0.1159   -2.8705    0.0000 C   0  0  0  0  0  0  0  0  0  0  0  0
   -1.3818    3.5837    0.0000 C   0  0  0  0  0  0  0  0  0  0  0  0
    1.1322   -3.6015    0.0000 C   0  0  0  0  0  0  0  0  0  0  0  0
  1 21  1  0  0  0  0
 27  2  1  1  0  0  0
  3 28  1  0  0  0  0
  4 14  1  0  0  0  0
  4 33  1  0  0  0  0
  5 18  2  0  0  0  0
  6 39  1  0  0  0  0
  7 13  1  0  0  0  0
  7 16  1  0  0  0  0
  7 20  1  0  0  0  0
  8 12  1  0  0  0  0
  8 18  1  0  0  0  0
  8 19  1  0  0  0  0
  9 13  2  0  0  0  0
  9 15  1  0  0  0  0
 10 18  1  0  0  0  0
 10 32  1  0  0  0  0
 11 30  1  0  0  0  0
 11 34  1  0  0  0  0
 12 13  1  0  0  0  0
 12 14  1  0  0  0  0
 14 23  1  0  0  0  0
 14 24  1  0  0  0  0
 15 16  2  0  0  0  0
 15 17  1  0  0  0  0
 17 21  1  0  0  0  0
 17 25  2  0  0  0  0
 22 19  1  1  0  0  0
 20 26  1  0  0  0  0
 21 29  2  0  0  0  0
 22 27  1  0  0  0  0
 22 30  1  0  0  0  0
 25 28  1  0  0  0  0
 26 35  2  0  0  0  0
 26 36  1  0  0  0  0
 27 34  1  0  0  0  0
 28 31  2  0  0  0  0
 29 31  1  0  0  0  0
 32 39  1  0  0  0  0
 32 41  1  1  0  0  0
 35 37  1  0  0  0  0
 36 38  2  0  0  0  0
 37 40  2  0  0  0  0
 38 40  1  0  0  0  0
M  END
> <PUBCHEM_COMPOUND_ID_TYPE>
0

> <PUBCHEM_TOTAL_CHARGE>
0

> <PUBCHEM_SUBSTANCE_ID>
310942487

> <PUBCHEM_SUBSTANCE_VERSION>
1

> <PUBCHEM_EXT_DATASOURCE_NAME>
4488

> <PUBCHEM_EXT_DATASOURCE_REGID>
SCHEMBL16120523

> <PUBCHEM_SUBSTANCE_COMMENT>
InChI=1S/C30H38F3N5O3/c1-19(18-39)35-29(40)38(16-21-13-34-14-25(21)33)27(30(2,3)41-4)28-36-26(23-12-22(31)10-11-24(23)32)17-37(28)15-20-8-6-5-7-9-20/h5-12,17,19,21,25,27,34,39H,13-16,18H2,1-4H3,(H,35,40)/t19-,21-,25-,27?/m0/s1
InChIKey=GVAJXCGVAYAZEH-MDYVGICFSA-N

> <PUBCHEM_SUBSTANCE_SYNONYM>
SCHEMBL16120523

> <PUBCHEM_XREF_EXT_ID>
SCHEMBL16120523

> <PUBCHEM_EXT_DATASOURCE_URL>
https://www.surechembl.org/

> <PUBCHEM_EXT_SUBSTANCE_URL>
https://www.surechembl.org/chemical/SCHEMBL16120523

> <PUBCHEM_CID_ASSOCIATIONS>
117609058  1

> <PUBCHEM_COORDINATE_TYPE>
1
3

> <PUBCHEM_BONDANNOTATIONS>
22  19  5
27  2  5
32  41  5

$$$$
