310940674
  -OEChem-07211613022D

 13 14  0     0  0  0  0  0  0999 V2000
    0.2807    2.7782    0.0000 O   0  0  0  0  0  0  0  0  0  0  0  0
    1.0148   -1.4683    0.0000 O   0  0  0  0  0  0  0  0  0  0  0  0
   -0.4534    1.4827    0.0000 N   0  0  0  0  0  0  0  0  0  0  0  0
   -0.4534   -1.4683    0.0000 N   0  0  0  0  0  0  0  0  0  0  0  0
   -0.4822    0.5758    0.0000 C   0  0  0  0  0  0  0  0  0  0  0  0
   -0.4822   -0.5470    0.0000 C   0  0  0  0  0  0  0  0  0  0  0  0
   -1.0437    0.0000    0.0000 C   0  0  0  0  0  0  0  0  0  0  0  0
    0.1223    0.0144    0.0000 C   0  0  0  0  0  0  0  0  0  0  0  0
   -0.6694    0.0720    0.0000 C   0  0  0  0  0  0  0  0  0  0  0  0
    0.2807    1.9001    0.0000 C   0  0  0  0  0  0  0  0  0  0  0  0
    0.2663   -1.9001    0.0000 C   0  0  0  0  0  0  0  0  0  0  0  0
    1.0437    1.4827    0.0000 C   0  0  0  0  0  0  0  0  0  0  0  0
    0.2807   -2.7782    0.0000 C   0  0  0  0  0  0  0  0  0  0  0  0
  1 10  2  0  0  0  0
  2 11  2  0  0  0  0
  3  5  1  0  0  0  0
  3 10  1  0  0  0  0
  4  6  1  0  0  0  0
  4 11  1  0  0  0  0
  5  7  1  0  0  0  0
  5  8  1  0  0  0  0
  5  9  1  0  0  0  0
  6  7  1  0  0  0  0
  6  8  1  0  0  0  0
  6  9  1  0  0  0  0
 10 12  1  0  0  0  0
 11 13  1  0  0  0  0
M  END
> <PUBCHEM_COMPOUND_ID_TYPE>
0

> <PUBCHEM_TOTAL_CHARGE>
0

> <PUBCHEM_SUBSTANCE_ID>
310940674

> <PUBCHEM_SUBSTANCE_VERSION>
1

> <PUBCHEM_EXT_DATASOURCE_NAME>
4488

> <PUBCHEM_EXT_DATASOURCE_REGID>
SCHEMBL16118629

> <PUBCHEM_SUBSTANCE_COMMENT>
InChI=1S/C9H14N2O2/c1-6(12)10-8-3-9(4-8,5-8)11-7(2)13/h3-5H2,1-2H3,(H,10,12)(H,11,13)
InChIKey=OGFMETTYQMIXNA-UHFFFAOYSA-N

> <PUBCHEM_SUBSTANCE_SYNONYM>
SCHEMBL16118629

> <PUBCHEM_XREF_EXT_ID>
SCHEMBL16118629

> <PUBCHEM_EXT_DATASOURCE_URL>
https://www.surechembl.org/

> <PUBCHEM_EXT_SUBSTANCE_URL>
https://www.surechembl.org/chemical/SCHEMBL16118629

> <PUBCHEM_CID_ASSOCIATIONS>
78425836  1

> <PUBCHEM_COORDINATE_TYPE>
1
3

$$$$
