310948010
  -OEChem-07211613022D

 21 25  0     1  0  0  0  0  0999 V2000
   -1.8931   -0.1178    0.0000 O   0  0  0  0  0  0  0  0  0  0  0  0
   -2.2024    2.0772    0.0000 O   0  0  0  0  0  0  0  0  0  0  0  0
    1.3922   -0.8839    0.0000 N   0  0  3  0  0  0  0  0  0  0  0  0
   -2.2024   -2.0772    0.0000 N   0  0  0  0  0  0  0  0  0  0  0  0
   -0.7587   -0.3830    0.0000 C   0  0  3  0  0  0  0  0  0  0  0  0
   -0.7587    0.4420    0.0000 C   0  0  0  0  0  0  0  0  0  0  0  0
   -1.4806   -0.8250    0.0000 C   0  0  3  0  0  0  0  0  0  0  0  0
   -0.0516   -0.8103    0.0000 C   0  0  3  0  0  0  0  0  0  0  0  0
   -1.4806    0.8545    0.0000 C   0  0  0  0  0  0  0  0  0  0  0  0
   -0.0663    0.8692    0.0000 C   0  0  0  0  0  0  0  0  0  0  0  0
    0.6556   -0.3978    0.0000 C   0  0  3  0  0  0  0  0  0  0  0  0
   -0.1842    0.0589    0.0000 C   0  0  0  0  0  0  0  0  0  0  0  0
   -1.4806   -1.6353    0.0000 C   0  0  3  0  0  0  0  0  0  0  0  0
    0.6556    0.4420    0.0000 C   0  0  0  0  0  0  0  0  0  0  0  0
   -0.0663   -1.6353    0.0000 C   0  0  0  0  0  0  0  0  0  0  0  0
   -1.4806    1.6795    0.0000 C   0  0  0  0  0  0  0  0  0  0  0  0
    1.1270    0.0442    0.0000 C   0  0  0  0  0  0  0  0  0  0  0  0
   -0.0663    1.6795    0.0000 C   0  0  0  0  0  0  0  0  0  0  0  0
   -0.7587   -2.0478    0.0000 C   0  0  0  0  0  0  0  0  0  0  0  0
   -0.7734    2.0772    0.0000 C   0  0  0  0  0  0  0  0  0  0  0  0
    2.2024   -0.6335    0.0000 C   0  0  0  0  0  0  0  0  0  0  0  0
  7  1  1  6  0  0  0
  1  9  1  0  0  0  0
  2 16  1  0  0  0  0
 11  3  1  1  0  0  0
  3 17  1  0  0  0  0
  3 21  1  0  0  0  0
 13  4  1  6  0  0  0
  5  6  1  6  0  0  0
  5  7  1  0  0  0  0
  5  8  1  0  0  0  0
  5 12  1  0  0  0  0
  6  9  1  0  0  0  0
  6 10  2  0  0  0  0
  7 13  1  0  0  0  0
  8 11  1  0  0  0  0
  8 15  1  0  0  0  0
  9 16  2  0  0  0  0
 10 14  1  0  0  0  0
 10 18  1  0  0  0  0
 11 14  1  0  0  0  0
 12 17  1  0  0  0  0
 13 19  1  0  0  0  0
 15 19  1  0  0  0  0
 16 20  1  0  0  0  0
 18 20  2  0  0  0  0
M  END
> <PUBCHEM_COMPOUND_ID_TYPE>
0

> <PUBCHEM_TOTAL_CHARGE>
0

> <PUBCHEM_SUBSTANCE_ID>
310948010

> <PUBCHEM_SUBSTANCE_VERSION>
1

> <PUBCHEM_EXT_DATASOURCE_NAME>
4488

> <PUBCHEM_EXT_DATASOURCE_REGID>
SCHEMBL16126184

> <PUBCHEM_SUBSTANCE_COMMENT>
InChI=1S/C17H22N2O2/c1-19-7-6-17-10-3-4-11(18)16(17)21-15-13(20)5-2-9(14(15)17)8-12(10)19/h2,5,10-12,16,20H,3-4,6-8,18H2,1H3/t10?,11-,12+,16-,17-/m0/s1
InChIKey=WMWOVQRNCVCKMB-SWYAEIFMSA-N

> <PUBCHEM_SUBSTANCE_SYNONYM>
SCHEMBL16126184

> <PUBCHEM_XREF_EXT_ID>
SCHEMBL16126184

> <PUBCHEM_EXT_DATASOURCE_URL>
https://www.surechembl.org/

> <PUBCHEM_EXT_SUBSTANCE_URL>
https://www.surechembl.org/chemical/SCHEMBL16126184

> <PUBCHEM_CID_ASSOCIATIONS>
117613654  1

> <PUBCHEM_COORDINATE_TYPE>
1
3

> <PUBCHEM_BONDANNOTATIONS>
7  1  6
11  3  5
13  4  6
5  6  6

$$$$
