310949093
  -OEChem-07211613022D

 11 10  0     0  0  0  0  0  0999 V2000
    0.5006    0.8734    0.0000 S   0  0  0  0  0  0  0  0  0  0  0  0
    0.8817    1.6051    0.0000 O   0  0  0  0  0  0  0  0  0  0  0  0
   -0.1092    1.4832    0.0000 O   0  0  0  0  0  0  0  0  0  0  0  0
   -1.1916    1.7119    0.0000 O   0  0  0  0  0  0  0  0  0  0  0  0
   -0.2312    0.4770    0.0000 N   0  0  0  0  0  0  0  0  0  0  0  0
    1.8472    0.1785    0.0000 N   0  0  0  0  0  0  0  0  0  0  0  0
    1.8140   -0.7667    0.0000 N   0  3  0  0  0  0  0  0  0  0  0  0
    1.7808   -1.7119    0.0000 N   0  5  0  0  0  0  0  0  0  0  0  0
    1.2171    0.4770    0.0000 C   0  0  0  0  0  0  0  0  0  0  0  0
   -1.1611    0.8734    0.0000 C   0  0  0  0  0  0  0  0  0  0  0  0
   -1.8472    0.4465    0.0000 C   0  0  0  0  0  0  0  0  0  0  0  0
  1  2  2  0  0  0  0
  1  3  2  0  0  0  0
  1  5  1  0  0  0  0
  1  9  1  0  0  0  0
  4 10  2  0  0  0  0
  5 10  1  0  0  0  0
  6  7  2  0  0  0  0
  6  9  1  0  0  0  0
  7  8  2  0  0  0  0
 10 11  1  0  0  0  0
M  CHG  2   7   1   8  -1
M  END
> <PUBCHEM_COMPOUND_ID_TYPE>
0

> <PUBCHEM_TOTAL_CHARGE>
0

> <PUBCHEM_SUBSTANCE_ID>
310949093

> <PUBCHEM_SUBSTANCE_VERSION>
1

> <PUBCHEM_EXT_DATASOURCE_NAME>
4488

> <PUBCHEM_EXT_DATASOURCE_REGID>
SCHEMBL16127283

> <PUBCHEM_SUBSTANCE_COMMENT>
InChI=1S/C3H6N4O3S/c1-3(8)6-11(9,10)2-5-7-4/h2H2,1H3,(H,6,8)
InChIKey=QQKJNDNZTYEADM-UHFFFAOYSA-N

> <PUBCHEM_SUBSTANCE_SYNONYM>
SCHEMBL16127283

> <PUBCHEM_XREF_EXT_ID>
SCHEMBL16127283

> <PUBCHEM_EXT_DATASOURCE_URL>
https://www.surechembl.org/

> <PUBCHEM_EXT_SUBSTANCE_URL>
https://www.surechembl.org/chemical/SCHEMBL16127283

> <PUBCHEM_CID_ASSOCIATIONS>
117614597  1

> <PUBCHEM_COORDINATE_TYPE>
1
3

$$$$
