310944074
  -OEChem-07211613022D

 31 35  0     1  0  0  0  0  0999 V2000
    2.3615   -0.4435    0.0000 O   0  0  0  0  0  0  0  0  0  0  0  0
    5.3659   -0.2772    0.0000 O   0  0  0  0  0  0  0  0  0  0  0  0
    5.1443   -1.7295    0.0000 O   0  0  0  0  0  0  0  0  0  0  0  0
   -0.3548   -0.4435    0.0000 O   0  0  0  0  0  0  0  0  0  0  0  0
    3.4147    0.6097    0.0000 N   0  0  0  0  0  0  0  0  0  0  0  0
    0.4767    0.9978    0.0000 N   0  0  0  0  0  0  0  0  0  0  0  0
   -4.0911    0.2550    0.0000 N   0  0  0  0  0  0  0  0  0  0  0  0
   -2.8493    0.9757    0.0000 N   0  0  0  0  0  0  0  0  0  0  0  0
   -4.5788    0.9202    0.0000 N   0  0  0  0  0  0  0  0  0  0  0  0
   -5.3659    0.6652    0.0000 N   0  0  0  0  0  0  0  0  0  0  0  0
   -5.3659   -0.1663    0.0000 N   0  0  0  0  0  0  0  0  0  0  0  0
    2.1286    1.0311    0.0000 C   0  0  0  0  0  0  0  0  0  0  0  0
    2.6386    0.3880    0.0000 C   0  0  0  0  0  0  0  0  0  0  0  0
    2.6165    1.6963    0.0000 C   0  0  0  0  0  0  0  0  0  0  0  0
    4.1021    0.1331    0.0000 C   0  0  0  0  0  0  0  0  0  0  0  0
    3.4036    1.4523    0.0000 C   0  0  0  0  0  0  0  0  0  0  0  0
    1.7184    0.2994    0.0000 C   0  0  0  0  0  0  0  0  0  0  0  0
    1.7184    1.7295    0.0000 C   0  0  0  0  0  0  0  0  0  0  0  0
    0.8980    0.2883    0.0000 C   0  0  0  0  0  0  0  0  0  0  0  0
    0.8869    1.7295    0.0000 C   0  0  0  0  0  0  0  0  0  0  0  0
    4.0911   -0.6873    0.0000 C   0  0  0  0  0  0  0  0  0  0  0  0
    4.8782    0.3880    0.0000 C   0  0  0  0  0  0  0  0  0  0  0  0
    4.8782   -0.9202    0.0000 C   0  0  0  0  0  0  0  0  0  0  0  0
   -0.3548    0.9978    0.0000 C   0  0  0  0  0  0  0  0  0  0  0  0
   -0.7761    0.2883    0.0000 C   0  0  3  0  0  0  0  0  0  0  0  0
   -1.6075    0.2772    0.0000 C   0  0  0  0  0  0  0  0  0  0  0  0
   -3.2707    0.2661    0.0000 C   0  0  0  0  0  0  0  0  0  0  0  0
   -2.0178    0.9867    0.0000 C   0  0  0  0  0  0  0  0  0  0  0  0
   -2.0178   -0.4435    0.0000 C   0  0  0  0  0  0  0  0  0  0  0  0
   -2.8493   -0.4435    0.0000 C   0  0  0  0  0  0  0  0  0  0  0  0
   -4.5788   -0.4103    0.0000 C   0  0  0  0  0  0  0  0  0  0  0  0
  1 13  2  0  0  0  0
  2 22  1  0  0  0  0
  2 23  1  0  0  0  0
  3 23  2  0  0  0  0
 25  4  1  1  0  0  0
  5 13  1  0  0  0  0
  5 15  1  0  0  0  0
  5 16  1  0  0  0  0
  6 19  1  0  0  0  0
  6 20  1  0  0  0  0
  6 24  1  0  0  0  0
  7  9  1  0  0  0  0
  7 27  1  0  0  0  0
  7 31  1  0  0  0  0
  8 27  1  0  0  0  0
  8 28  2  0  0  0  0
  9 10  2  0  0  0  0
 10 11  1  0  0  0  0
 11 31  2  0  0  0  0
 12 13  1  0  0  0  0
 12 14  1  0  0  0  0
 12 17  1  0  0  0  0
 12 18  1  0  0  0  0
 14 16  1  0  0  0  0
 15 21  2  0  0  0  0
 15 22  1  0  0  0  0
 17 19  1  0  0  0  0
 18 20  1  0  0  0  0
 21 23  1  0  0  0  0
 24 25  1  0  0  0  0
 25 26  1  0  0  0  0
 26 28  1  0  0  0  0
 26 29  2  0  0  0  0
 27 30  2  0  0  0  0
 29 30  1  0  0  0  0
M  END
> <PUBCHEM_COMPOUND_ID_TYPE>
0

> <PUBCHEM_TOTAL_CHARGE>
0

> <PUBCHEM_SUBSTANCE_ID>
310944074

> <PUBCHEM_SUBSTANCE_VERSION>
1

> <PUBCHEM_EXT_DATASOURCE_NAME>
4488

> <PUBCHEM_EXT_DATASOURCE_REGID>
SCHEMBL16122149

> <PUBCHEM_SUBSTANCE_COMMENT>
InChI=1S/C20H23N7O4/c28-16(14-1-2-17(21-10-14)27-13-22-23-24-27)11-25-6-3-20(4-7-25)5-8-26(19(20)30)15-9-18(29)31-12-15/h1-2,9-10,13,16,28H,3-8,11-12H2/t16-/m1/s1
InChIKey=LMRYMZSGPRPIOC-MRXNPFEDSA-N

> <PUBCHEM_SUBSTANCE_SYNONYM>
SCHEMBL16122149

> <PUBCHEM_XREF_EXT_ID>
SCHEMBL16122149

> <PUBCHEM_EXT_DATASOURCE_URL>
https://www.surechembl.org/

> <PUBCHEM_EXT_SUBSTANCE_URL>
https://www.surechembl.org/chemical/SCHEMBL16122149

> <PUBCHEM_CID_ASSOCIATIONS>
86271080  1

> <PUBCHEM_COORDINATE_TYPE>
1
3

> <PUBCHEM_BONDANNOTATIONS>
25  4  5

$$$$
