310945231
  -OEChem-07211613022D

 34 38  0     0  0  0  0  0  0999 V2000
    4.5864    1.8808    0.0000 O   0  0  0  0  0  0  0  0  0  0  0  0
   -2.3133   -1.5791    0.0000 O   0  0  0  0  0  0  0  0  0  0  0  0
   -2.2529    1.4383    0.0000 O   0  0  0  0  0  0  0  0  0  0  0  0
    2.6553   -0.0905    0.0000 N   0  0  0  0  0  0  0  0  0  0  0  0
   -0.0201    1.4383    0.0000 N   0  0  0  0  0  0  0  0  0  0  0  0
    5.0490    0.5129    0.0000 N   0  0  0  0  0  0  0  0  0  0  0  0
   -2.6351    0.0302    0.0000 N   0  0  0  0  0  0  0  0  0  0  0  0
   -5.0490   -2.2831    0.0000 N   0  0  0  0  0  0  0  0  0  0  0  0
    2.3133    0.6739    0.0000 C   0  0  0  0  0  0  0  0  0  0  0  0
    2.9168    1.2371    0.0000 C   0  0  0  0  0  0  0  0  0  0  0  0
    3.6409    0.8147    0.0000 C   0  0  0  0  0  0  0  0  0  0  0  0
    1.5287    0.9354    0.0000 C   0  0  0  0  0  0  0  0  0  0  0  0
    3.4397    0.0302    0.0000 C   0  0  0  0  0  0  0  0  0  0  0  0
    1.3679    1.7601    0.0000 C   0  0  0  0  0  0  0  0  0  0  0  0
    4.4255    1.0560    0.0000 C   0  0  0  0  0  0  0  0  0  0  0  0
    2.7357    2.0418    0.0000 C   0  0  0  0  0  0  0  0  0  0  0  0
    0.9454    0.3923    0.0000 C   0  0  0  0  0  0  0  0  0  0  0  0
    0.1408    0.6537    0.0000 C   0  0  0  0  0  0  0  0  0  0  0  0
    1.9512    2.2831    0.0000 C   0  0  0  0  0  0  0  0  0  0  0  0
    4.1036   -0.5331    0.0000 C   0  0  0  0  0  0  0  0  0  0  0  0
    0.5833    2.0015    0.0000 C   0  0  0  0  0  0  0  0  0  0  0  0
   -0.4627    0.0905    0.0000 C   0  0  0  0  0  0  0  0  0  0  0  0
    4.8680   -0.2917    0.0000 C   0  0  0  0  0  0  0  0  0  0  0  0
   -1.2673    0.3319    0.0000 C   0  0  0  0  0  0  0  0  0  0  0  0
   -1.8708   -0.2112    0.0000 C   0  0  0  0  0  0  0  0  0  0  0  0
   -0.3219   -0.7141    0.0000 C   0  0  0  0  0  0  0  0  0  0  0  0
   -1.6897   -0.9958    0.0000 C   0  0  0  0  0  0  0  0  0  0  0  0
   -0.9052   -1.2572    0.0000 C   0  0  0  0  0  0  0  0  0  0  0  0
   -2.8363    0.8147    0.0000 C   0  0  0  0  0  0  0  0  0  0  0  0
   -3.0777   -1.3176    0.0000 C   0  0  0  0  0  0  0  0  0  0  0  0
   -3.6208    1.0762    0.0000 C   0  0  0  0  0  0  0  0  0  0  0  0
   -3.6610   -1.9010    0.0000 C   0  0  0  0  0  0  0  0  0  0  0  0
   -3.7818    1.9010    0.0000 C   0  0  0  0  0  0  0  0  0  0  0  0
   -4.4858   -1.6998    0.0000 C   0  0  0  0  0  0  0  0  0  0  0  0
  1 15  2  0  0  0  0
  2 27  1  0  0  0  0
  2 30  1  0  0  0  0
  3 29  2  0  0  0  0
  4  9  1  0  0  0  0
  4 13  1  0  0  0  0
  5 18  2  0  0  0  0
  5 21  1  0  0  0  0
  6 15  1  0  0  0  0
  6 23  1  0  0  0  0
  7 25  1  0  0  0  0
  7 29  1  0  0  0  0
  8 34  1  0  0  0  0
  9 10  2  0  0  0  0
  9 12  1  0  0  0  0
 10 11  1  0  0  0  0
 10 16  1  0  0  0  0
 11 13  2  0  0  0  0
 11 15  1  0  0  0  0
 12 14  1  0  0  0  0
 12 17  2  0  0  0  0
 13 20  1  0  0  0  0
 14 19  1  0  0  0  0
 14 21  2  0  0  0  0
 16 19  1  0  0  0  0
 17 18  1  0  0  0  0
 18 22  1  0  0  0  0
 20 23  1  0  0  0  0
 22 24  2  0  0  0  0
 22 26  1  0  0  0  0
 24 25  1  0  0  0  0
 25 27  2  0  0  0  0
 26 28  2  0  0  0  0
 27 28  1  0  0  0  0
 29 31  1  0  0  0  0
 30 32  1  0  0  0  0
 31 33  2  0  0  0  0
 32 34  1  0  0  0  0
M  END
> <PUBCHEM_COMPOUND_ID_TYPE>
0

> <PUBCHEM_TOTAL_CHARGE>
0

> <PUBCHEM_SUBSTANCE_ID>
310945231

> <PUBCHEM_SUBSTANCE_VERSION>
1

> <PUBCHEM_EXT_DATASOURCE_NAME>
4488

> <PUBCHEM_EXT_DATASOURCE_REGID>
SCHEMBL16123321

> <PUBCHEM_SUBSTANCE_COMMENT>
InChI=1S/C26H27N5O3/c1-2-23(32)30-21-12-15(5-7-22(21)34-11-3-9-27)20-13-18-16(14-29-20)4-6-17-24-19(31-25(17)18)8-10-28-26(24)33/h2,5,7,12-14,31H,1,3-4,6,8-11,27H2,(H,28,33)(H,30,32)
InChIKey=HWRCUSVULODWLP-UHFFFAOYSA-N

> <PUBCHEM_SUBSTANCE_SYNONYM>
SCHEMBL16123321

> <PUBCHEM_XREF_EXT_ID>
SCHEMBL16123321

> <PUBCHEM_EXT_DATASOURCE_URL>
https://www.surechembl.org/

> <PUBCHEM_EXT_SUBSTANCE_URL>
https://www.surechembl.org/chemical/SCHEMBL16123321

> <PUBCHEM_CID_ASSOCIATIONS>
86300172  1

> <PUBCHEM_COORDINATE_TYPE>
1
3

$$$$
