310944697
  -OEChem-07211613022D

 13 14  0     0  0  0  0  0  0999 V2000
   -1.5042   -0.4164    0.0000 O   0  0  0  0  0  0  0  0  0  0  0  0
    0.6589    0.8392    0.0000 C   0  0  0  0  0  0  0  0  0  0  0  0
    1.3799    1.2494    0.0000 C   0  0  0  0  0  0  0  0  0  0  0  0
   -0.0497    1.2369    0.0000 C   0  0  0  0  0  0  0  0  0  0  0  0
   -0.7832    0.0062    0.0000 C   0  0  0  0  0  0  0  0  0  0  0  0
   -0.0497   -0.4040    0.0000 C   0  0  0  0  0  0  0  0  0  0  0  0
    0.6589    0.0062    0.0000 C   0  0  0  0  0  0  0  0  0  0  0  0
   -0.7459    0.8392    0.0000 C   0  0  0  0  0  0  0  0  0  0  0  0
    1.8026    1.9456    0.0000 C   0  0  0  0  0  0  0  0  0  0  0  0
    2.2004    1.2494    0.0000 C   0  0  0  0  0  0  0  0  0  0  0  0
   -0.0622    2.0699    0.0000 C   0  0  0  0  0  0  0  0  0  0  0  0
   -0.0373   -2.0699    0.0000 C   0  0  0  0  0  0  0  0  0  0  0  0
   -2.2004   -0.0062    0.0000 C   0  0  0  0  0  0  0  0  0  0  0  0
  1  5  1  0  0  0  0
  1 13  1  0  0  0  0
  2  3  1  0  0  0  0
  2  4  2  0  0  0  0
  2  7  1  0  0  0  0
  3  9  1  0  0  0  0
  3 10  1  0  0  0  0
  4  8  1  0  0  0  0
  4 11  1  0  0  0  0
  5  6  1  0  0  0  0
  5  8  2  0  0  0  0
  6  7  2  0  0  0  0
  6 12  1  0  0  0  0
  9 10  1  0  0  0  0
M  END
> <PUBCHEM_COMPOUND_ID_TYPE>
0

> <PUBCHEM_TOTAL_CHARGE>
0

> <PUBCHEM_SUBSTANCE_ID>
310944697

> <PUBCHEM_SUBSTANCE_VERSION>
1

> <PUBCHEM_EXT_DATASOURCE_NAME>
4488

> <PUBCHEM_EXT_DATASOURCE_REGID>
SCHEMBL16122776

> <PUBCHEM_SUBSTANCE_COMMENT>
InChI=1S/C12H16O/c1-8-7-12(13-3)9(2)6-11(8)10-4-5-10/h6-7,10H,4-5H2,1-3H3
InChIKey=XPZDUBVZDNWAKB-UHFFFAOYSA-N

> <PUBCHEM_SUBSTANCE_SYNONYM>
SCHEMBL16122776

> <PUBCHEM_XREF_EXT_ID>
SCHEMBL16122776

> <PUBCHEM_EXT_DATASOURCE_URL>
https://www.surechembl.org/

> <PUBCHEM_EXT_SUBSTANCE_URL>
https://www.surechembl.org/chemical/SCHEMBL16122776

> <PUBCHEM_CID_ASSOCIATIONS>
117610921  1

> <PUBCHEM_COORDINATE_TYPE>
1
3

$$$$
