310942160
  -OEChem-07211613022D

 20 19  0     0  0  0  0  0  0999 V2000
    3.6184   -0.9186    0.0000 S   0  0  0  0  0  0  0  0  0  0  0  0
   -2.8306   -0.5161    0.0000 S   0  0  0  0  0  0  0  0  0  0  0  0
    2.3276    0.2258    0.0000 O   0  0  0  0  0  0  0  0  0  0  0  0
   -4.1241    0.6306    0.0000 O   0  0  0  0  0  0  0  0  0  0  0  0
    3.6118   -0.3863    0.0000 O   0  0  0  0  0  0  0  0  0  0  0  0
    3.6051   -1.4575    0.0000 O   0  0  0  0  0  0  0  0  0  0  0  0
   -2.8373    0.0173    0.0000 O   0  0  0  0  0  0  0  0  0  0  0  0
   -2.8440   -1.0562    0.0000 O   0  0  0  0  0  0  0  0  0  0  0  0
    0.9064   -0.6011    0.0000 O   0  0  0  0  0  0  0  0  0  0  0  0
   -2.6942    1.4575    0.0000 O   0  0  0  0  0  0  0  0  0  0  0  0
    0.1914    0.6306    0.0000 N   0  0  0  0  0  0  0  0  0  0  0  0
   -1.9879    0.2258    0.0000 N   0  0  0  0  0  0  0  0  0  0  0  0
    0.8977    0.2603    0.0000 C   0  0  0  0  0  0  0  0  0  0  0  0
   -2.7114    0.6479    0.0000 C   0  0  0  0  0  0  0  0  0  0  0  0
    1.5955    0.6565    0.0000 C   0  0  0  0  0  0  0  0  0  0  0  0
   -3.4350    0.2516    0.0000 C   0  0  0  0  0  0  0  0  0  0  0  0
    4.1241   -0.9186    0.0000 C   0  0  0  0  0  0  0  0  0  0  0  0
   -2.3239   -0.5161    0.0000 C   0  0  0  0  0  0  0  0  0  0  0  0
   -1.2816    0.6565    0.0000 C   0  0  0  0  0  0  0  0  0  0  0  0
   -0.5580    0.2516    0.0000 C   0  0  0  0  0  0  0  0  0  0  0  0
  1  3  1  0  0  0  0
  1  5  2  0  0  0  0
  1  6  2  0  0  0  0
  1 17  1  0  0  0  0
  2  4  1  0  0  0  0
  2  7  2  0  0  0  0
  2  8  2  0  0  0  0
  2 18  1  0  0  0  0
  3 15  1  0  0  0  0
  4 16  1  0  0  0  0
  9 13  2  0  0  0  0
 10 14  2  0  0  0  0
 11 13  1  0  0  0  0
 11 20  1  0  0  0  0
 12 14  1  0  0  0  0
 12 19  1  0  0  0  0
 13 15  1  0  0  0  0
 14 16  1  0  0  0  0
 19 20  1  0  0  0  0
M  END
> <PUBCHEM_COMPOUND_ID_TYPE>
0

> <PUBCHEM_TOTAL_CHARGE>
0

> <PUBCHEM_SUBSTANCE_ID>
310942160

> <PUBCHEM_SUBSTANCE_VERSION>
1

> <PUBCHEM_EXT_DATASOURCE_NAME>
4488

> <PUBCHEM_EXT_DATASOURCE_REGID>
SCHEMBL16120195

> <PUBCHEM_SUBSTANCE_COMMENT>
InChI=1S/C8H16N2O8S2/c1-19(13,14)17-5-7(11)9-3-4-10-8(12)6-18-20(2,15)16/h3-6H2,1-2H3,(H,9,11)(H,10,12)
InChIKey=SYTRLSGUNFUNKL-UHFFFAOYSA-N

> <PUBCHEM_SUBSTANCE_SYNONYM>
SCHEMBL16120195

> <PUBCHEM_XREF_EXT_ID>
SCHEMBL16120195

> <PUBCHEM_EXT_DATASOURCE_URL>
https://www.surechembl.org/

> <PUBCHEM_EXT_SUBSTANCE_URL>
https://www.surechembl.org/chemical/SCHEMBL16120195

> <PUBCHEM_CID_ASSOCIATIONS>
230251  1

> <PUBCHEM_COORDINATE_TYPE>
1
3

$$$$
