310936213
  -OEChem-07211613022D

 44 46  0     1  0  0  0  0  0999 V2000
   -0.7633    8.6494    0.0000 P   0  0  3  0  0  0  0  0  0  0  0  0
   -2.1922    8.6494    0.0000 P   0  0  3  0  0  0  0  0  0  0  0  0
    2.1338    8.7263    0.0000 O   0  0  0  0  0  0  0  0  0  0  0  0
    2.6089   10.8076    0.0000 O   0  0  0  0  0  0  0  0  0  0  0  0
   -0.0488    9.0619    0.0000 O   0  0  0  0  0  0  0  0  0  0  0  0
    0.8533   10.4344    0.0000 O   0  0  0  0  0  0  0  0  0  0  0  0
   -1.4778    8.2369    0.0000 O   0  0  0  0  0  0  0  0  0  0  0  0
    6.0848    8.2687    0.0000 O   0  0  0  0  0  0  0  0  0  0  0  0
   -2.6047    7.9349    0.0000 O   0  0  0  0  0  0  0  0  0  0  0  0
   -0.3508    7.9349    0.0000 O   0  0  0  0  0  0  0  0  0  0  0  0
   -1.1758    9.3639    0.0000 O   0  0  0  0  0  0  0  0  0  0  0  0
   -1.7797    9.3639    0.0000 O   0  0  0  0  0  0  0  0  0  0  0  0
   -5.0501    8.6494    0.0000 O   0  0  0  0  0  0  0  0  0  0  0  0
   -4.3357    9.8869    0.0000 O   0  0  0  0  0  0  0  0  0  0  0  0
    3.5063    9.2532    0.0000 N   0  0  0  0  0  0  0  0  0  0  0  0
    4.8120    9.5307    0.0000 N   0  0  0  0  0  0  0  0  0  0  0  0
    3.6639    7.7541    0.0000 N   0  0  0  0  0  0  0  0  0  0  0  0
    5.0229    7.3125    0.0000 N   0  0  0  0  0  0  0  0  0  0  0  0
   -2.9067    9.0619    0.0000 N   0  0  0  0  0  0  0  0  0  0  0  0
    3.9610    6.3564    0.0000 N   0  0  0  0  0  0  0  0  0  0  0  0
   -0.9547    6.5060    0.0000 N   0  0  0  0  0  0  0  0  0  0  0  0
    2.6858    9.3394    0.0000 C   0  0  3  0  0  0  0  0  0  0  0  0
    3.9188    8.5387    0.0000 C   0  0  0  0  0  0  0  0  0  0  0  0
    4.7258    8.7103    0.0000 C   0  0  0  0  0  0  0  0  0  0  0  0
    2.2733   10.0539    0.0000 C   0  0  3  0  0  0  0  0  0  0  0  0
    1.3801    9.0619    0.0000 C   0  0  3  0  0  0  0  0  0  0  0  0
    1.4663    9.8824    0.0000 C   0  0  3  0  0  0  0  0  0  0  0  0
    4.0583    9.8663    0.0000 C   0  0  0  0  0  0  0  0  0  0  0  0
    5.2778    8.0972    0.0000 C   0  0  0  0  0  0  0  0  0  0  0  0
    4.2159    7.1410    0.0000 C   0  0  0  0  0  0  0  0  0  0  0  0
    0.6656    8.6494    0.0000 C   0  0  0  0  0  0  0  0  0  0  0  0
   -3.6212    8.6494    0.0000 C   0  0  3  0  0  0  0  0  0  0  0  0
   -4.3357    9.0619    0.0000 C   0  0  0  0  0  0  0  0  0  0  0  0
   -2.1922    7.2205    0.0000 C   0  0  0  0  0  0  0  0  0  0  0  0
   -3.6212    7.8244    0.0000 C   0  0  0  0  0  0  0  0  0  0  0  0
   -1.3672    7.2205    0.0000 C   0  0  0  0  0  0  0  0  0  0  0  0
   -5.7646    9.0619    0.0000 C   0  0  0  0  0  0  0  0  0  0  0  0
   -6.4791    8.6494    0.0000 C   0  0  0  0  0  0  0  0  0  0  0  0
   -7.1935    9.0619    0.0000 C   0  0  0  0  0  0  0  0  0  0  0  0
   -6.4791    7.8244    0.0000 C   0  0  0  0  0  0  0  0  0  0  0  0
   -7.9080    8.6494    0.0000 C   0  0  0  0  0  0  0  0  0  0  0  0
   -5.7646    7.4119    0.0000 C   0  0  0  0  0  0  0  0  0  0  0  0
   -8.6225    9.0619    0.0000 C   0  0  0  0  0  0  0  0  0  0  0  0
   -5.7646    6.5869    0.0000 C   0  0  0  0  0  0  0  0  0  0  0  0
  1  5  1  0  0  0  0
  1  7  1  0  0  0  0
  1 10  2  0  0  0  0
  1 11  1  0  0  0  0
  2  7  1  0  0  0  0
  2  9  1  0  0  0  0
  2 12  2  0  0  0  0
  2 19  1  0  0  0  0
  3 22  1  0  0  0  0
  3 26  1  0  0  0  0
 25  4  1  1  0  0  0
  5 31  1  0  0  0  0
 27  6  1  1  0  0  0
  8 29  2  0  0  0  0
  9 34  1  0  0  0  0
 13 33  1  0  0  0  0
 13 37  1  0  0  0  0
 14 33  2  0  0  0  0
 22 15  1  6  0  0  0
 15 23  1  0  0  0  0
 15 28  1  0  0  0  0
 16 24  1  0  0  0  0
 16 28  2  0  0  0  0
 17 23  1  0  0  0  0
 17 30  2  0  0  0  0
 18 29  1  0  0  0  0
 18 30  1  0  0  0  0
 19 32  1  0  0  0  0
 20 30  1  0  0  0  0
 21 36  1  0  0  0  0
 22 25  1  0  0  0  0
 23 24  2  0  0  0  0
 24 29  1  0  0  0  0
 25 27  1  0  0  0  0
 26 27  1  0  0  0  0
 26 31  1  6  0  0  0
 32 33  1  0  0  0  0
 32 35  1  1  0  0  0
 34 36  1  0  0  0  0
 37 38  1  0  0  0  0
 38 39  1  0  0  0  0
 38 40  1  0  0  0  0
 39 41  1  0  0  0  0
 40 42  1  0  0  0  0
 41 43  1  0  0  0  0
 42 44  1  0  0  0  0
M  END
> <PUBCHEM_COMPOUND_ID_TYPE>
0

> <PUBCHEM_TOTAL_CHARGE>
0

> <PUBCHEM_SUBSTANCE_ID>
310936213

> <PUBCHEM_SUBSTANCE_VERSION>
1

> <PUBCHEM_EXT_DATASOURCE_NAME>
4488

> <PUBCHEM_EXT_DATASOURCE_REGID>
SCHEMBL16113825

> <PUBCHEM_SUBSTANCE_COMMENT>
InChI=1S/C23H41N7O12P2/c1-4-6-14(7-5-2)10-38-22(34)13(3)29-43(35,39-9-8-24)42-44(36,37)40-11-15-17(31)18(32)21(41-15)30-12-26-16-19(30)27-23(25)28-20(16)33/h12-15,17-18,21,31-32H,4-11,24H2,1-3H3,(H,29,35)(H,36,37)(H3,25,27,28,33)/t13-,15+,17+,18+,21+,43?/m0/s1
InChIKey=OMTWAOLCYMZAEF-OQEWLGKRSA-N

> <PUBCHEM_SUBSTANCE_SYNONYM>
SCHEMBL16113825

> <PUBCHEM_XREF_EXT_ID>
SCHEMBL16113825

> <PUBCHEM_EXT_DATASOURCE_URL>
https://www.surechembl.org/

> <PUBCHEM_EXT_SUBSTANCE_URL>
https://www.surechembl.org/chemical/SCHEMBL16113825

> <PUBCHEM_CID_ASSOCIATIONS>
117604166  1

> <PUBCHEM_COORDINATE_TYPE>
1
3

> <PUBCHEM_BONDANNOTATIONS>
22  15  6
26  31  6
32  35  5
25  4  5
27  6  5

$$$$
