310935061
  -OEChem-07211613022D

 40 45  0     1  0  0  0  0  0999 V2000
    7.1572   -7.4812    0.0000 O   0  0  0  0  0  0  0  0  0  0  0  0
    6.0953   -8.4374    0.0000 O   0  0  0  0  0  0  0  0  0  0  0  0
    1.1270   -2.9196    0.0000 N   0  0  0  0  0  0  0  0  0  0  0  0
    0.3020   -2.9196    0.0000 N   0  0  0  0  0  0  0  0  0  0  0  0
    2.1889   -1.9634    0.0000 N   0  0  0  0  0  0  0  0  0  0  0  0
    4.6941   -5.8135    0.0000 N   0  0  0  0  0  0  0  0  0  0  0  0
    5.7982   -7.0397    0.0000 N   0  0  0  0  0  0  0  0  0  0  0  0
    4.3970   -4.4158    0.0000 N   0  0  0  0  0  0  0  0  0  0  0  0
    0.7144    0.8250    0.0000 N   0  0  0  0  0  0  0  0  0  0  0  0
    0.7144   -1.6500    0.0000 C   0  0  0  0  0  0  0  0  0  0  0  0
    1.3819   -2.1349    0.0000 C   0  0  0  0  0  0  0  0  0  0  0  0
    0.7144   -0.8250    0.0000 C   0  0  0  0  0  0  0  0  0  0  0  0
    0.0000   -0.4125    0.0000 C   0  0  0  0  0  0  0  0  0  0  0  0
    2.4860   -3.3611    0.0000 C   0  0  0  0  0  0  0  0  0  0  0  0
    0.0470   -2.1349    0.0000 C   0  0  0  0  0  0  0  0  0  0  0  0
    1.6790   -3.5327    0.0000 C   0  0  0  0  0  0  0  0  0  0  0  0
    3.0380   -3.9742    0.0000 C   0  0  0  0  0  0  0  0  0  0  0  0
    0.0000    0.4125    0.0000 C   0  0  0  0  0  0  0  0  0  0  0  0
    4.1421   -5.2004    0.0000 C   0  0  0  0  0  0  0  0  0  0  0  0
    2.7409   -2.5765    0.0000 C   0  0  0  0  0  0  0  0  0  0  0  0
    1.4290   -0.4125    0.0000 C   0  0  0  0  0  0  0  0  0  0  0  0
    4.4391   -6.5981    0.0000 C   0  0  3  0  0  0  0  0  0  0  0  0
    5.5011   -5.6419    0.0000 C   0  0  3  0  0  0  0  0  0  0  0  0
    3.8450   -3.8027    0.0000 C   0  0  0  0  0  0  0  0  0  0  0  0
    2.7831   -4.7588    0.0000 C   0  0  0  0  0  0  0  0  0  0  0  0
   -0.7144   -0.8250    0.0000 C   0  0  0  0  0  0  0  0  0  0  0  0
    3.3351   -5.3719    0.0000 C   0  0  0  0  0  0  0  0  0  0  0  0
    4.9912   -7.2112    0.0000 C   0  0  0  0  0  0  0  0  0  0  0  0
    6.0531   -6.2550    0.0000 C   0  0  0  0  0  0  0  0  0  0  0  0
    1.4290    0.4125    0.0000 C   0  0  0  0  0  0  0  0  0  0  0  0
   -0.7144    0.8250    0.0000 C   0  0  0  0  0  0  0  0  0  0  0  0
    6.3502   -7.6528    0.0000 C   0  0  0  0  0  0  0  0  0  0  0  0
   -1.4290   -0.4125    0.0000 C   0  0  0  0  0  0  0  0  0  0  0  0
   -1.4290    0.4125    0.0000 C   0  0  0  0  0  0  0  0  0  0  0  0
    5.7560   -4.8574    0.0000 C   0  0  0  0  0  0  0  0  0  0  0  0
    3.6322   -6.7697    0.0000 C   0  0  0  0  0  0  0  0  0  0  0  0
    7.7092   -8.0944    0.0000 C   0  0  0  0  0  0  0  0  0  0  0  0
    8.2613   -8.7075    0.0000 C   0  0  0  0  0  0  0  0  0  0  0  0
    7.4543   -8.8789    0.0000 C   0  0  0  0  0  0  0  0  0  0  0  0
    8.5162   -7.9228    0.0000 C   0  0  0  0  0  0  0  0  0  0  0  0
  1 32  1  0  0  0  0
  1 37  1  0  0  0  0
  2 32  2  0  0  0  0
  3  4  1  0  0  0  0
  3 11  1  0  0  0  0
  3 16  1  0  0  0  0
  4 15  2  0  0  0  0
  5 11  1  0  0  0  0
  5 20  2  0  0  0  0
  6 19  1  0  0  0  0
  6 22  1  0  0  0  0
  6 23  1  0  0  0  0
  7 28  1  0  0  0  0
  7 29  1  0  0  0  0
  7 32  1  0  0  0  0
  8 19  2  0  0  0  0
  8 24  1  0  0  0  0
  9 18  1  0  0  0  0
  9 30  2  0  0  0  0
 10 11  2  0  0  0  0
 10 12  1  0  0  0  0
 10 15  1  0  0  0  0
 12 13  1  0  0  0  0
 12 21  2  0  0  0  0
 13 18  1  0  0  0  0
 13 26  2  0  0  0  0
 14 16  2  0  0  0  0
 14 17  1  0  0  0  0
 14 20  1  0  0  0  0
 17 24  2  0  0  0  0
 17 25  1  0  0  0  0
 18 31  2  0  0  0  0
 19 27  1  0  0  0  0
 21 30  1  0  0  0  0
 22 28  1  0  0  0  0
 22 36  1  1  0  0  0
 23 29  1  0  0  0  0
 23 35  1  1  0  0  0
 25 27  2  0  0  0  0
 26 33  1  0  0  0  0
 31 34  1  0  0  0  0
 33 34  2  0  0  0  0
 37 38  1  0  0  0  0
 37 39  1  0  0  0  0
 37 40  1  0  0  0  0
M  END
> <PUBCHEM_COMPOUND_ID_TYPE>
0

> <PUBCHEM_TOTAL_CHARGE>
0

> <PUBCHEM_SUBSTANCE_ID>
310935061

> <PUBCHEM_SUBSTANCE_VERSION>
1

> <PUBCHEM_EXT_DATASOURCE_NAME>
4488

> <PUBCHEM_EXT_DATASOURCE_REGID>
SCHEMBL16112582

> <PUBCHEM_SUBSTANCE_COMMENT>
InChI=1S/C31H33N7O2/c1-20-17-36(30(39)40-31(3,4)5)18-21(2)38(20)28-11-10-22(14-33-28)23-15-34-29-26(16-35-37(29)19-23)24-12-13-32-27-9-7-6-8-25(24)27/h6-16,19-21H,17-18H2,1-5H3/t20-,21+
InChIKey=XWYBHGQDNMQCRH-OYRHEFFESA-N

> <PUBCHEM_SUBSTANCE_SYNONYM>
SCHEMBL16112582

> <PUBCHEM_XREF_EXT_ID>
SCHEMBL16112582

> <PUBCHEM_EXT_DATASOURCE_URL>
https://www.surechembl.org/

> <PUBCHEM_EXT_SUBSTANCE_URL>
https://www.surechembl.org/chemical/SCHEMBL16112582

> <PUBCHEM_CID_ASSOCIATIONS>
117603161  1

> <PUBCHEM_COORDINATE_TYPE>
1
3

> <PUBCHEM_BONDANNOTATIONS>
22  36  5
23  35  5

$$$$
