310942765
  -OEChem-07211613022D

 44 50  0     1  0  0  0  0  0999 V2000
    1.8200    0.6516    0.0000 O   0  0  0  0  0  0  0  0  0  0  0  0
    2.3442   -1.4754    0.0000 O   0  0  0  0  0  0  0  0  0  0  0  0
    1.0860   -1.4155    0.0000 O   0  0  0  0  0  0  0  0  0  0  0  0
    3.2130    0.3221    0.0000 N   0  0  0  0  0  0  0  0  0  0  0  0
    3.9170   -1.0410    0.0000 N   0  0  0  0  0  0  0  0  0  0  0  0
    5.3250   -0.9362    0.0000 N   0  0  0  0  0  0  0  0  0  0  0  0
   -0.3221    0.2022    0.0000 N   0  0  3  0  0  0  0  0  0  0  0  0
    5.9392    0.3670    0.0000 N   0  0  0  0  0  0  0  0  0  0  0  0
   -2.6438   -1.3256    0.0000 N   0  0  0  0  0  0  0  0  0  0  0  0
   -3.3178   -2.5090    0.0000 N   0  0  0  0  0  0  0  0  0  0  0  0
    4.5311    0.2771    0.0000 C   0  0  0  0  0  0  0  0  0  0  0  0
    3.8721   -0.1872    0.0000 C   0  0  0  0  0  0  0  0  0  0  0  0
    4.3364    1.0710    0.0000 C   0  0  0  0  0  0  0  0  0  0  0  0
    2.4341    0.1123    0.0000 C   0  0  3  0  0  0  0  0  0  0  0  0
    3.5276    1.1160    0.0000 C   0  0  0  0  0  0  0  0  0  0  0  0
    4.8457    1.7450    0.0000 C   0  0  0  0  0  0  0  0  0  0  0  0
    2.1046   -0.6516    0.0000 C   0  0  3  0  0  0  0  0  0  0  0  0
    5.2950   -0.0824    0.0000 C   0  0  0  0  0  0  0  0  0  0  0  0
    1.1160    0.2322    0.0000 C   0  0  3  0  0  0  0  0  0  0  0  0
    1.2807   -0.5917    0.0000 C   0  0  3  0  0  0  0  0  0  0  0  0
    4.9655    2.5539    0.0000 C   0  0  0  0  0  0  0  0  0  0  0  0
    5.5947    2.0596    0.0000 C   0  0  0  0  0  0  0  0  0  0  0  0
    0.3969    0.6366    0.0000 C   0  0  0  0  0  0  0  0  0  0  0  0
    4.6660   -1.3855    0.0000 C   0  0  0  0  0  0  0  0  0  0  0  0
   -0.5317   -0.6067    0.0000 C   0  0  0  0  0  0  0  0  0  0  0  0
   -0.8014   -1.7301    0.0000 C   0  0  0  0  0  0  0  0  0  0  0  0
   -1.2058   -1.0110    0.0000 C   0  0  0  0  0  0  0  0  0  0  0  0
   -0.1123   -1.3107    0.0000 C   0  0  0  0  0  0  0  0  0  0  0  0
   -1.0410    0.6366    0.0000 C   0  0  0  0  0  0  0  0  0  0  0  0
   -3.4677   -1.1459    0.0000 C   0  0  0  0  0  0  0  0  0  0  0  0
   -3.8721   -1.8799    0.0000 C   0  0  0  0  0  0  0  0  0  0  0  0
   -2.5689   -2.1495    0.0000 C   0  0  0  0  0  0  0  0  0  0  0  0
   -4.7109   -0.4419    0.0000 C   0  0  0  0  0  0  0  0  0  0  0  0
   -1.0261   -2.5539    0.0000 C   0  0  0  0  0  0  0  0  0  0  0  0
   -3.8871   -0.4419    0.0000 C   0  0  0  0  0  0  0  0  0  0  0  0
   -1.8649   -2.5539    0.0000 C   0  0  0  0  0  0  0  0  0  0  0  0
   -5.1154    0.2921    0.0000 C   0  0  0  0  0  0  0  0  0  0  0  0
   -4.6959   -1.8649    0.0000 C   0  0  0  0  0  0  0  0  0  0  0  0
   -5.0704   -1.1908    0.0000 C   0  0  0  0  0  0  0  0  0  0  0  0
   -1.0410    1.4754    0.0000 C   0  0  0  0  0  0  0  0  0  0  0  0
   -1.7450    0.1872    0.0000 C   0  0  0  0  0  0  0  0  0  0  0  0
   -5.9392    0.2622    0.0000 C   0  0  0  0  0  0  0  0  0  0  0  0
   -5.5347    0.9961    0.0000 C   0  0  0  0  0  0  0  0  0  0  0  0
   -4.6959    1.0110    0.0000 C   0  0  0  0  0  0  0  0  0  0  0  0
 14  1  1  1  0  0  0
  1 19  1  0  0  0  0
 17  2  1  6  0  0  0
 20  3  1  6  0  0  0
  4 12  1  0  0  0  0
  4 14  1  0  0  0  0
  4 15  1  0  0  0  0
  5 12  1  0  0  0  0
  5 24  2  0  0  0  0
  6 18  2  0  0  0  0
  6 24  1  0  0  0  0
  7 23  1  0  0  0  0
  7 25  1  0  0  0  0
  7 29  1  0  0  0  0
  8 18  1  0  0  0  0
  9 30  1  0  0  0  0
  9 32  2  0  0  0  0
 10 31  1  0  0  0  0
 10 32  1  0  0  0  0
 11 12  2  0  0  0  0
 11 13  1  0  0  0  0
 11 18  1  0  0  0  0
 13 15  2  0  0  0  0
 13 16  1  0  0  0  0
 14 17  1  0  0  0  0
 16 21  1  0  0  0  0
 16 22  1  0  0  0  0
 17 20  1  0  0  0  0
 19 20  1  0  0  0  0
 19 23  1  1  0  0  0
 21 22  1  0  0  0  0
 25 27  1  0  0  0  0
 25 28  1  0  0  0  0
 26 27  1  0  0  0  0
 26 28  1  0  0  0  0
 26 34  1  0  0  0  0
 29 40  1  0  0  0  0
 29 41  1  0  0  0  0
 30 31  2  0  0  0  0
 30 35  1  0  0  0  0
 31 38  1  0  0  0  0
 32 36  1  0  0  0  0
 33 35  2  0  0  0  0
 33 37  1  0  0  0  0
 33 39  1  0  0  0  0
 34 36  1  0  0  0  0
 37 42  1  0  0  0  0
 37 43  1  0  0  0  0
 37 44  1  0  0  0  0
 38 39  2  0  0  0  0
M  END
> <PUBCHEM_COMPOUND_ID_TYPE>
0

> <PUBCHEM_TOTAL_CHARGE>
0

> <PUBCHEM_SUBSTANCE_ID>
310942765

> <PUBCHEM_SUBSTANCE_VERSION>
1

> <PUBCHEM_EXT_DATASOURCE_NAME>
4488

> <PUBCHEM_EXT_DATASOURCE_REGID>
SCHEMBL16120818

> <PUBCHEM_SUBSTANCE_COMMENT>
InChI=1S/C34H47N7O3/c1-18(2)40(22-12-19(13-22)6-11-27-38-24-10-9-21(34(3,4)5)14-25(24)39-27)16-26-29(42)30(43)33(44-26)41-15-23(20-7-8-20)28-31(35)36-17-37-32(28)41/h9-10,14-15,17-20,22,26,29-30,33,42-43H,6-8,11-13,16H2,1-5H3,(H,38,39)(H2,35,36,37)/t19?,22?,26-,29-,30-,33-/m1/s1
InChIKey=COGUIQAZXIEIFH-SNTDODBSSA-N

> <PUBCHEM_SUBSTANCE_SYNONYM>
SCHEMBL16120818

> <PUBCHEM_XREF_EXT_ID>
SCHEMBL16120818

> <PUBCHEM_EXT_DATASOURCE_URL>
https://www.surechembl.org/

> <PUBCHEM_EXT_SUBSTANCE_URL>
https://www.surechembl.org/chemical/SCHEMBL16120818

> <PUBCHEM_CID_ASSOCIATIONS>
86275442  1

> <PUBCHEM_COORDINATE_TYPE>
1
3

> <PUBCHEM_BONDANNOTATIONS>
14  1  5
19  23  5
17  2  6
20  3  6

$$$$
