310944191
  -OEChem-07211613022D

 34 38  0     1  0  0  0  0  0999 V2000
    2.5978    0.1274    0.0000 O   0  0  0  0  0  0  0  0  0  0  0  0
    5.4339   -0.7699    0.0000 O   0  0  0  0  0  0  0  0  0  0  0  0
    5.5447    0.6924    0.0000 O   0  0  0  0  0  0  0  0  0  0  0  0
    4.0270    1.3349    0.0000 O   0  0  0  0  0  0  0  0  0  0  0  0
   -0.8143   -1.8888    0.0000 O   0  0  0  0  0  0  0  0  0  0  0  0
    3.3179   -1.1466    0.0000 N   0  0  0  0  0  0  0  0  0  0  0  0
    0.3711   -0.7478    0.0000 N   0  0  0  0  0  0  0  0  0  0  0  0
   -4.2042   -0.1828    0.0000 N   0  0  0  0  0  0  0  0  0  0  0  0
   -2.8084    0.1606    0.0000 N   0  0  0  0  0  0  0  0  0  0  0  0
   -4.4812    0.5927    0.0000 N   0  0  0  0  0  0  0  0  0  0  0  0
   -5.3121    0.5595    0.0000 N   0  0  0  0  0  0  0  0  0  0  0  0
   -5.5447   -0.2382    0.0000 N   0  0  0  0  0  0  0  0  0  0  0  0
    1.9775   -1.1687    0.0000 C   0  0  0  0  0  0  0  0  0  0  0  0
    2.6201   -0.6924    0.0000 C   0  0  0  0  0  0  0  0  0  0  0  0
    4.0824   -0.8475    0.0000 C   0  0  0  0  0  0  0  0  0  0  0  0
    2.2544   -1.9553    0.0000 C   0  0  0  0  0  0  0  0  0  0  0  0
    3.0853   -1.9221    0.0000 C   0  0  0  0  0  0  0  0  0  0  0  0
    4.2928   -0.0498    0.0000 C   0  0  0  0  0  0  0  0  0  0  0  0
    1.3793   -1.7559    0.0000 C   0  0  0  0  0  0  0  0  0  0  0  0
    1.7781   -0.3933    0.0000 C   0  0  0  0  0  0  0  0  0  0  0  0
    5.1127   -0.0277    0.0000 C   0  0  0  0  0  0  0  0  0  0  0  0
    4.8025   -1.2906    0.0000 C   0  0  0  0  0  0  0  0  0  0  0  0
    0.5816   -1.5233    0.0000 C   0  0  0  0  0  0  0  0  0  0  0  0
    0.9693   -0.1606    0.0000 C   0  0  0  0  0  0  0  0  0  0  0  0
    3.7611    0.5705    0.0000 C   0  0  0  0  0  0  0  0  0  0  0  0
   -0.4265   -0.5151    0.0000 C   0  0  0  0  0  0  0  0  0  0  0  0
   -1.0137   -1.0801    0.0000 C   0  0  3  0  0  0  0  0  0  0  0  0
   -1.8113   -0.8475    0.0000 C   0  0  0  0  0  0  0  0  0  0  0  0
   -3.4066   -0.4044    0.0000 C   0  0  0  0  0  0  0  0  0  0  0  0
   -2.0107   -0.0609    0.0000 C   0  0  0  0  0  0  0  0  0  0  0  0
   -2.3984   -1.4235    0.0000 C   0  0  0  0  0  0  0  0  0  0  0  0
   -3.2072   -1.1909    0.0000 C   0  0  0  0  0  0  0  0  0  0  0  0
   -4.8357   -0.6813    0.0000 C   0  0  0  0  0  0  0  0  0  0  0  0
    3.4841    1.9553    0.0000 C   0  0  0  0  0  0  0  0  0  0  0  0
  1 14  2  0  0  0  0
  2 21  1  0  0  0  0
  2 22  1  0  0  0  0
  3 21  2  0  0  0  0
  4 25  1  0  0  0  0
  4 34  1  0  0  0  0
 27  5  1  6  0  0  0
  6 14  1  0  0  0  0
  6 15  1  0  0  0  0
  6 17  1  0  0  0  0
  7 23  1  0  0  0  0
  7 24  1  0  0  0  0
  7 26  1  0  0  0  0
  8 10  1  0  0  0  0
  8 29  1  0  0  0  0
  8 33  1  0  0  0  0
  9 29  2  0  0  0  0
  9 30  1  0  0  0  0
 10 11  2  0  0  0  0
 11 12  1  0  0  0  0
 12 33  2  0  0  0  0
 13 14  1  0  0  0  0
 13 16  1  0  0  0  0
 13 19  1  0  0  0  0
 13 20  1  0  0  0  0
 15 18  2  0  0  0  0
 15 22  1  0  0  0  0
 16 17  1  0  0  0  0
 18 21  1  0  0  0  0
 18 25  1  0  0  0  0
 19 23  1  0  0  0  0
 20 24  1  0  0  0  0
 26 27  1  0  0  0  0
 27 28  1  0  0  0  0
 28 30  2  0  0  0  0
 28 31  1  0  0  0  0
 29 32  1  0  0  0  0
 31 32  2  0  0  0  0
M  END
> <PUBCHEM_COMPOUND_ID_TYPE>
0

> <PUBCHEM_TOTAL_CHARGE>
0

> <PUBCHEM_SUBSTANCE_ID>
310944191

> <PUBCHEM_SUBSTANCE_VERSION>
1

> <PUBCHEM_EXT_DATASOURCE_NAME>
4488

> <PUBCHEM_EXT_DATASOURCE_REGID>
SCHEMBL16122266

> <PUBCHEM_SUBSTANCE_COMMENT>
InChI=1S/C22H27N7O5/c1-33-12-16-17(13-34-20(16)31)28-9-6-22(21(28)32)4-7-27(8-5-22)11-18(30)15-2-3-19(23-10-15)29-14-24-25-26-29/h2-3,10,14,18,30H,4-9,11-13H2,1H3/t18-/m0/s1
InChIKey=ZHPOBXNWCLYDQJ-SFHVURJKSA-N

> <PUBCHEM_SUBSTANCE_SYNONYM>
SCHEMBL16122266

> <PUBCHEM_XREF_EXT_ID>
SCHEMBL16122266

> <PUBCHEM_EXT_DATASOURCE_URL>
https://www.surechembl.org/

> <PUBCHEM_EXT_SUBSTANCE_URL>
https://www.surechembl.org/chemical/SCHEMBL16122266

> <PUBCHEM_CID_ASSOCIATIONS>
86270884  1

> <PUBCHEM_COORDINATE_TYPE>
1
3

> <PUBCHEM_BONDANNOTATIONS>
27  5  6

$$$$
