310944714
  -OEChem-07211613022D

 31 33  0     0  0  0  0  0  0999 V2000
   -3.3815   -1.6753    0.0000 Cl  0  0  0  0  0  0  0  0  0  0  0  0
   -0.3647   -1.6753    0.0000 O   0  0  0  0  0  0  0  0  0  0  0  0
    1.0571    0.7974    0.0000 O   0  0  0  0  0  0  0  0  0  0  0  0
    4.6302   -1.2549    0.0000 O   0  0  0  0  0  0  0  0  0  0  0  0
   -0.3523   -0.0185    0.0000 N   0  0  0  0  0  0  0  0  0  0  0  0
    1.7989   -0.4265    0.0000 N   0  0  0  0  0  0  0  0  0  0  0  0
    3.2207   -1.2549    0.0000 N   0  0  0  0  0  0  0  0  0  0  0  0
   -3.9131    2.8622    0.0000 N   0  0  0  0  0  0  0  0  0  0  0  0
   -2.4913   -0.4265    0.0000 C   0  0  0  0  0  0  0  0  0  0  0  0
   -1.0695   -0.4265    0.0000 C   0  0  0  0  0  0  0  0  0  0  0  0
   -2.4913   -1.2549    0.0000 C   0  0  0  0  0  0  0  0  0  0  0  0
   -1.0818   -1.2549    0.0000 C   0  0  0  0  0  0  0  0  0  0  0  0
   -3.2207   -0.0061    0.0000 C   0  0  0  0  0  0  0  0  0  0  0  0
   -1.7866   -0.0309    0.0000 C   0  0  0  0  0  0  0  0  0  0  0  0
   -1.7742   -1.6629    0.0000 C   0  0  0  0  0  0  0  0  0  0  0  0
   -3.2084    0.7974    0.0000 C   0  0  0  0  0  0  0  0  0  0  0  0
    1.0695   -0.0309    0.0000 C   0  0  0  0  0  0  0  0  0  0  0  0
   -3.9131   -0.4265    0.0000 C   0  0  0  0  0  0  0  0  0  0  0  0
    0.3647   -0.4265    0.0000 C   0  0  0  0  0  0  0  0  0  0  0  0
   -3.9379    1.2178    0.0000 C   0  0  0  0  0  0  0  0  0  0  0  0
    2.5036   -0.0185    0.0000 C   0  0  0  0  0  0  0  0  0  0  0  0
    1.7866   -1.2549    0.0000 C   0  0  0  0  0  0  0  0  0  0  0  0
   -4.6302   -0.0185    0.0000 C   0  0  0  0  0  0  0  0  0  0  0  0
    3.2084   -0.4265    0.0000 C   0  0  0  0  0  0  0  0  0  0  0  0
    2.5160   -1.6629    0.0000 C   0  0  0  0  0  0  0  0  0  0  0  0
   -4.6302    0.7974    0.0000 C   0  0  0  0  0  0  0  0  0  0  0  0
    3.9131   -1.6753    0.0000 C   0  0  0  0  0  0  0  0  0  0  0  0
   -3.9131    2.0462    0.0000 C   0  0  0  0  0  0  0  0  0  0  0  0
    0.3523   -1.2549    0.0000 C   0  0  0  0  0  0  0  0  0  0  0  0
    3.9255   -2.5036    0.0000 C   0  0  0  0  0  0  0  0  0  0  0  0
    3.1960   -2.8622    0.0000 C   0  0  0  0  0  0  0  0  0  0  0  0
  1 11  1  0  0  0  0
  2 12  1  0  0  0  0
  2 29  1  0  0  0  0
  3 17  2  0  0  0  0
  4 27  2  0  0  0  0
  5 10  1  0  0  0  0
  5 19  1  0  0  0  0
  6 17  1  0  0  0  0
  6 21  1  0  0  0  0
  6 22  1  0  0  0  0
  7 24  1  0  0  0  0
  7 25  1  0  0  0  0
  7 27  1  0  0  0  0
  8 28  3  0  0  0  0
  9 11  2  0  0  0  0
  9 13  1  0  0  0  0
  9 14  1  0  0  0  0
 10 12  1  0  0  0  0
 10 14  2  0  0  0  0
 11 15  1  0  0  0  0
 12 15  2  0  0  0  0
 13 16  1  0  0  0  0
 13 18  2  0  0  0  0
 16 20  2  0  0  0  0
 17 19  1  0  0  0  0
 18 23  1  0  0  0  0
 20 26  1  0  0  0  0
 20 28  1  0  0  0  0
 21 24  1  0  0  0  0
 22 25  1  0  0  0  0
 23 26  2  0  0  0  0
 27 30  1  0  0  0  0
 30 31  2  0  0  0  0
M  END
> <PUBCHEM_COMPOUND_ID_TYPE>
0

> <PUBCHEM_TOTAL_CHARGE>
0

> <PUBCHEM_SUBSTANCE_ID>
310944714

> <PUBCHEM_SUBSTANCE_VERSION>
1

> <PUBCHEM_EXT_DATASOURCE_NAME>
4488

> <PUBCHEM_EXT_DATASOURCE_REGID>
SCHEMBL16122793

> <PUBCHEM_SUBSTANCE_COMMENT>
InChI=1S/C23H23ClN4O3/c1-3-22(29)27-7-9-28(10-8-27)23(30)15-26-20-12-18(19(24)13-21(20)31-2)17-6-4-5-16(11-17)14-25/h3-6,11-13,26H,1,7-10,15H2,2H3
InChIKey=CPUGKDJLIQEOLJ-UHFFFAOYSA-N

> <PUBCHEM_SUBSTANCE_SYNONYM>
SCHEMBL16122793

> <PUBCHEM_XREF_EXT_ID>
SCHEMBL16122793

> <PUBCHEM_EXT_DATASOURCE_URL>
https://www.surechembl.org/

> <PUBCHEM_EXT_SUBSTANCE_URL>
https://www.surechembl.org/chemical/SCHEMBL16122793

> <PUBCHEM_CID_ASSOCIATIONS>
117610936  1

> <PUBCHEM_COORDINATE_TYPE>
1
3

$$$$
