310938728
  -OEChem-07211613022D

 89 96  0     1  0  0  0  0  0999 V2000
    4.2126   -0.9220    0.0000 S   0  0  0  0  0  0  0  0  0  0  0  0
   -4.2030   -0.6573    0.0000 S   0  0  0  0  0  0  0  0  0  0  0  0
    2.9197    0.1705    0.0000 O   0  0  0  0  0  0  0  0  0  0  0  0
   -3.0172   -1.9855    0.0000 O   0  0  0  0  0  0  0  0  0  0  0  0
    2.7648   -2.3714    0.0000 O   0  0  0  0  0  0  0  0  0  0  0  0
   -3.4726    1.2456    0.0000 O   0  0  0  0  0  0  0  0  0  0  0  0
   -0.1232   -3.8420    0.0000 O   0  0  0  0  0  0  0  0  0  0  0  0
    1.6750    2.5169    0.0000 O   0  0  0  0  0  0  0  0  0  0  0  0
   -1.1973    3.0627    0.0000 O   0  0  0  0  0  0  0  0  0  0  0  0
    3.7800   -1.5429    0.0000 O   0  0  0  0  0  0  0  0  0  0  0  0
   -3.6496    0.0616    0.0000 O   0  0  0  0  0  0  0  0  0  0  0  0
   -2.2523   -3.0958    0.0000 O   0  0  0  0  0  0  0  0  0  0  0  0
    3.3217    1.2133    0.0000 O   0  0  0  0  0  0  0  0  0  0  0  0
    1.0565   -3.6842    0.0000 O   0  0  0  0  0  0  0  0  0  0  0  0
   -2.5994    3.3344    0.0000 O   0  0  0  0  0  0  0  0  0  0  0  0
    0.9890    3.6929    0.0000 O   0  0  0  0  0  0  0  0  0  0  0  0
    2.0651   -0.9207    0.0000 O   0  0  0  0  0  0  0  0  0  0  0  0
   -2.0757   -0.8808    0.0000 O   0  0  0  0  0  0  0  0  0  0  0  0
    1.6102   -1.8516    0.0000 O   0  0  0  0  0  0  0  0  0  0  0  0
   -0.5934   -2.5236    0.0000 O   0  0  0  0  0  0  0  0  0  0  0  0
    2.6841   -1.6998    0.0000 O   0  0  0  0  0  0  0  0  0  0  0  0
    1.4990    1.2878    0.0000 O   0  0  0  0  0  0  0  0  0  0  0  0
   -2.6788    0.2310    0.0000 O   0  0  0  0  0  0  0  0  0  0  0  0
   -2.5349    1.3846    0.0000 O   0  0  0  0  0  0  0  0  0  0  0  0
   -0.3168    2.2718    0.0000 O   0  0  0  0  0  0  0  0  0  0  0  0
   -1.4048   -2.3506    0.0000 O   0  0  0  0  0  0  0  0  0  0  0  0
    2.4191    0.6640    0.0000 O   0  0  0  0  0  0  0  0  0  0  0  0
    0.5936   -2.7858    0.0000 O   0  0  0  0  0  0  0  0  0  0  0  0
   -1.8557    2.4866    0.0000 O   0  0  0  0  0  0  0  0  0  0  0  0
    0.7122    2.5717    0.0000 O   0  0  0  0  0  0  0  0  0  0  0  0
    2.1555   -3.6032    0.0000 O   0  0  0  0  0  0  0  0  0  0  0  0
   -1.5769   -4.0940    0.0000 O   0  0  0  0  0  0  0  0  0  0  0  0
    3.4546    2.1405    0.0000 O   0  0  0  0  0  0  0  0  0  0  0  0
   -3.3549    3.0874    0.0000 O   0  0  0  0  0  0  0  0  0  0  0  0
    0.0314    4.0940    0.0000 O   0  0  0  0  0  0  0  0  0  0  0  0
    4.7057   -1.7760    0.0000 O   0  0  0  0  0  0  0  0  0  0  0  0
    5.6920   -1.7760    0.0000 O   0  0  0  0  0  0  0  0  0  0  0  0
   -4.7057    0.1910    0.0000 O   0  0  0  0  0  0  0  0  0  0  0  0
   -5.6920    0.1798    0.0000 O   0  0  0  0  0  0  0  0  0  0  0  0
    5.6920   -0.6372    0.0000 N   0  0  0  0  0  0  0  0  0  0  0  0
   -5.6790   -0.9589    0.0000 N   0  0  0  0  0  0  0  0  0  0  0  0
    3.0842   -0.1091    0.0000 C   0  0  3  0  0  0  0  0  0  0  0  0
   -3.2262   -1.4726    0.0000 C   0  0  3  0  0  0  0  0  0  0  0  0
    2.3622   -2.7740    0.0000 C   0  0  3  0  0  0  0  0  0  0  0  0
   -0.8459   -3.8453    0.0000 C   0  0  3  0  0  0  0  0  0  0  0  0
   -3.3595    1.9360    0.0000 C   0  0  3  0  0  0  0  0  0  0  0  0
    2.2249    2.3695    0.0000 C   0  0  3  0  0  0  0  0  0  0  0  0
   -0.5744    3.3945    0.0000 C   0  0  3  0  0  0  0  0  0  0  0  0
    3.3147   -2.2240    0.0000 C   0  0  3  0  0  0  0  0  0  0  0  0
   -3.0690    0.6489    0.0000 C   0  0  3  0  0  0  0  0  0  0  0  0
   -2.2771   -2.2714    0.0000 C   0  0  3  0  0  0  0  0  0  0  0  0
    3.0842    0.4233    0.0000 C   0  0  3  0  0  0  0  0  0  0  0  0
    0.3093   -3.3323    0.0000 C   0  0  3  0  0  0  0  0  0  0  0  0
   -1.7738    3.3541    0.0000 C   0  0  3  0  0  0  0  0  0  0  0  0
    1.5275    3.0668    0.0000 C   0  0  3  0  0  0  0  0  0  0  0  0
    2.6199   -0.7922    0.0000 C   0  0  3  0  0  0  0  0  0  0  0  0
   -2.6451   -0.8873    0.0000 C   0  0  3  0  0  0  0  0  0  0  0  0
    1.6166   -2.4210    0.0000 C   0  0  3  0  0  0  0  0  0  0  0  0
   -0.8726   -3.0198    0.0000 C   0  0  3  0  0  0  0  0  0  0  0  0
    3.1739   -1.4095    0.0000 C   0  0  3  0  0  0  0  0  0  0  0  0
    1.9888    1.5781    0.0000 C   0  0  3  0  0  0  0  0  0  0  0  0
   -3.0768   -0.1761    0.0000 C   0  0  3  0  0  0  0  0  0  0  0  0
   -2.5349    1.9540    0.0000 C   0  0  3  0  0  0  0  0  0  0  0  0
    3.2264   -0.9220    0.0000 C   0  0  3  0  0  0  0  0  0  0  0  0
   -3.2168   -0.6461    0.0000 C   0  0  3  0  0  0  0  0  0  0  0  0
   -0.0378    2.7681    0.0000 C   0  0  3  0  0  0  0  0  0  0  0  0
   -1.6839   -2.8469    0.0000 C   0  0  3  0  0  0  0  0  0  0  0  0
    2.7037    1.1572    0.0000 C   0  0  3  0  0  0  0  0  0  0  0  0
    1.0899   -3.0648    0.0000 C   0  0  3  0  0  0  0  0  0  0  0  0
   -2.3521    2.7656    0.0000 C   0  0  3  0  0  0  0  0  0  0  0  0
    0.7058    3.1410    0.0000 C   0  0  3  0  0  0  0  0  0  0  0  0
    1.5797   -3.0404    0.0000 C   0  0  3  0  0  0  0  0  0  0  0  0
   -1.4392   -3.2719    0.0000 C   0  0  3  0  0  0  0  0  0  0  0  0
    2.6062    1.6378    0.0000 C   0  0  3  0  0  0  0  0  0  0  0  0
   -2.7791    2.5245    0.0000 C   0  0  3  0  0  0  0  0  0  0  0  0
    0.2487    3.3185    0.0000 C   0  0  3  0  0  0  0  0  0  0  0  0
    3.7196   -0.6372    0.0000 C   0  0  0  0  0  0  0  0  0  0  0  0
   -3.7067   -0.9365    0.0000 C   0  0  0  0  0  0  0  0  0  0  0  0
    2.1490   -3.0339    0.0000 C   0  0  0  0  0  0  0  0  0  0  0  0
   -1.2857   -3.8203    0.0000 C   0  0  0  0  0  0  0  0  0  0  0  0
    2.8853    2.1340    0.0000 C   0  0  0  0  0  0  0  0  0  0  0  0
   -3.3485    2.5180    0.0000 C   0  0  0  0  0  0  0  0  0  0  0  0
   -0.2477    3.5975    0.0000 C   0  0  0  0  0  0  0  0  0  0  0  0
    4.7057   -0.6372    0.0000 C   0  0  0  0  0  0  0  0  0  0  0  0
   -4.6928   -0.9477    0.0000 C   0  0  0  0  0  0  0  0  0  0  0  0
    5.1989   -0.9220    0.0000 C   0  0  3  0  0  0  0  0  0  0  0  0
   -5.1891   -0.6685    0.0000 C   0  0  3  0  0  0  0  0  0  0  0  0
    5.1989   -1.4913    0.0000 C   0  0  0  0  0  0  0  0  0  0  0  0
   -5.1956   -0.0992    0.0000 C   0  0  0  0  0  0  0  0  0  0  0  0
  1 77  1  0  0  0  0
  1 84  1  0  0  0  0
  2 78  1  0  0  0  0
  2 85  1  0  0  0  0
 42  3  1  6  0  0  0
  3 52  1  0  0  0  0
 43  4  1  6  0  0  0
  4 51  1  0  0  0  0
 44  5  1  6  0  0  0
  5 49  1  0  0  0  0
 46  6  1  6  0  0  0
  6 50  1  0  0  0  0
 45  7  1  6  0  0  0
  7 53  1  0  0  0  0
 47  8  1  6  0  0  0
  8 55  1  0  0  0  0
 48  9  1  6  0  0  0
  9 54  1  0  0  0  0
 49 10  1  6  0  0  0
 10 64  1  0  0  0  0
 50 11  1  6  0  0  0
 11 65  1  0  0  0  0
 51 12  1  6  0  0  0
 12 73  1  0  0  0  0
 52 13  1  6  0  0  0
 13 74  1  0  0  0  0
 53 14  1  6  0  0  0
 14 72  1  0  0  0  0
 54 15  1  6  0  0  0
 15 75  1  0  0  0  0
 55 16  1  6  0  0  0
 16 76  1  0  0  0  0
 56 17  1  1  0  0  0
 18 57  1  0  0  0  0
 19 58  1  0  0  0  0
 59 20  1  1  0  0  0
 21 60  1  0  0  0  0
 61 22  1  1  0  0  0
 62 23  1  6  0  0  0
 24 63  1  0  0  0  0
 25 66  1  0  0  0  0
 26 67  1  0  0  0  0
 27 68  1  0  0  0  0
 69 28  1  6  0  0  0
 70 29  1  6  0  0  0
 71 30  1  6  0  0  0
 31 79  1  0  0  0  0
 32 80  1  0  0  0  0
 33 81  1  0  0  0  0
 34 82  1  0  0  0  0
 35 83  1  0  0  0  0
 36 88  2  0  0  0  0
 37 88  1  0  0  0  0
 38 89  2  0  0  0  0
 39 89  1  0  0  0  0
 86 40  1  1  0  0  0
 87 41  1  1  0  0  0
 42 56  1  0  0  0  0
 42 64  1  0  0  0  0
 43 57  1  0  0  0  0
 43 65  1  0  0  0  0
 44 58  1  0  0  0  0
 44 72  1  0  0  0  0
 45 59  1  0  0  0  0
 45 73  1  0  0  0  0
 46 63  1  0  0  0  0
 46 75  1  0  0  0  0
 47 61  1  0  0  0  0
 47 74  1  0  0  0  0
 48 66  1  0  0  0  0
 48 76  1  0  0  0  0
 49 60  1  0  0  0  0
 50 62  1  0  0  0  0
 51 67  1  0  0  0  0
 52 68  1  0  0  0  0
 53 69  1  0  0  0  0
 54 70  1  0  0  0  0
 55 71  1  0  0  0  0
 56 60  1  0  0  0  0
 57 62  1  0  0  0  0
 58 69  1  0  0  0  0
 59 67  1  0  0  0  0
 61 68  1  0  0  0  0
 63 70  1  0  0  0  0
 64 77  1  0  0  0  0
 65 78  1  0  0  0  0
 66 71  1  0  0  0  0
 72 79  1  0  0  0  0
 73 80  1  0  0  0  0
 74 81  1  0  0  0  0
 75 82  1  0  0  0  0
 76 83  1  0  0  0  0
 84 86  1  0  0  0  0
 85 87  1  0  0  0  0
 86 88  1  0  0  0  0
 87 89  1  0  0  0  0
M  END
> <PUBCHEM_COMPOUND_ID_TYPE>
0

> <PUBCHEM_TOTAL_CHARGE>
0

> <PUBCHEM_SUBSTANCE_ID>
310938728

> <PUBCHEM_SUBSTANCE_VERSION>
1

> <PUBCHEM_EXT_DATASOURCE_NAME>
4488

> <PUBCHEM_EXT_DATASOURCE_REGID>
SCHEMBL16116643

> <PUBCHEM_SUBSTANCE_COMMENT>
InChI=1S/C48H80N2O37S2/c49-10(40(70)71)6-88-8-17-38-25(62)32(69)48(80-17)85-37-16(5-55)76-44(28(65)21(37)58)83-35-14(3-53)78-46(30(67)23(35)60)87-39-18(9-89-7-11(50)41(72)73)79-47(31(68)24(39)61)84-36-15(4-54)75-43(27(64)20(36)57)81-33-12(1-51)74-42(26(63)19(33)56)82-34-13(2-52)77-45(86-38)29(66)22(34)59/h10-39,42-48,51-69H,1-9,49-50H2,(H,70,71)(H,72,73)/t10-,11-,12?,13?,14?,15?,16?,17?,18?,19?,20?,21?,22-,23-,24?,25-,26+,27+,28+,29?,30?,31+,32?,33-,34-,35-,36-,37-,38-,39-,42-,43-,44+,45-,46+,47+,48-/m1/s1
InChIKey=CPTURYOQDUAMRE-GWPYKISESA-N

> <PUBCHEM_SUBSTANCE_SYNONYM>
SCHEMBL16116643

> <PUBCHEM_XREF_EXT_ID>
SCHEMBL16116643

> <PUBCHEM_EXT_DATASOURCE_URL>
https://www.surechembl.org/

> <PUBCHEM_EXT_SUBSTANCE_URL>
https://www.surechembl.org/chemical/SCHEMBL16116643

> <PUBCHEM_CID_ASSOCIATIONS>
117606150  1

> <PUBCHEM_COORDINATE_TYPE>
1
3

> <PUBCHEM_BONDANNOTATIONS>
49  10  6
50  11  6
51  12  6
52  13  6
53  14  6
54  15  6
55  16  6
56  17  5
59  20  5
61  22  5
62  23  6
69  28  6
70  29  6
42  3  6
71  30  6
43  4  6
86  40  5
87  41  5
44  5  6
46  6  6
45  7  6
47  8  6
48  9  6

$$$$
