310938815
  -OEChem-07211613022D

 30 36  0     0  0  0  0  0  0999 V2000
   -3.5571    0.4818    0.0000 I   0  0  0  0  0  0  0  0  0  0  0  0
   -3.5571    2.1318    0.0000 N   0  0  0  0  0  0  0  0  0  0  0  0
   -3.5571    2.9568    0.0000 N   0  3  0  0  0  0  0  0  0  0  0  0
   -3.5571    3.7818    0.0000 N   0  5  0  0  0  0  0  0  0  0  0  0
   -5.7005    0.8943    0.0000 C   0  0  0  0  0  0  0  0  0  0  0  0
   -4.9861    0.4818    0.0000 C   0  0  0  0  0  0  0  0  0  0  0  0
   -5.7005   -0.7557    0.0000 C   0  0  0  0  0  0  0  0  0  0  0  0
   -4.9861   -0.3432    0.0000 C   0  0  0  0  0  0  0  0  0  0  0  0
   -6.4150    0.4818    0.0000 C   0  0  0  0  0  0  0  0  0  0  0  0
   -5.7005    1.7193    0.0000 C   0  0  0  0  0  0  0  0  0  0  0  0
   -6.4150   -0.3432    0.0000 C   0  0  0  0  0  0  0  0  0  0  0  0
   -5.7005   -1.5807    0.0000 C   0  0  0  0  0  0  0  0  0  0  0  0
   -4.2716    0.8943    0.0000 C   0  0  0  0  0  0  0  0  0  0  0  0
   -4.9861    2.1318    0.0000 C   0  0  0  0  0  0  0  0  0  0  0  0
   -4.2716    1.7193    0.0000 C   0  0  0  0  0  0  0  0  0  0  0  0
   -6.4150    2.1318    0.0000 C   0  0  0  0  0  0  0  0  0  0  0  0
   -4.9861   -1.9932    0.0000 C   0  0  0  0  0  0  0  0  0  0  0  0
   -6.4150   -1.9932    0.0000 C   0  0  0  0  0  0  0  0  0  0  0  0
   -7.1295    0.8943    0.0000 C   0  0  0  0  0  0  0  0  0  0  0  0
   -4.2716   -0.7557    0.0000 C   0  0  0  0  0  0  0  0  0  0  0  0
   -7.1295   -0.7557    0.0000 C   0  0  0  0  0  0  0  0  0  0  0  0
   -7.1295    1.7193    0.0000 C   0  0  0  0  0  0  0  0  0  0  0  0
   -4.2716   -1.5807    0.0000 C   0  0  0  0  0  0  0  0  0  0  0  0
   -4.9861    2.9568    0.0000 C   0  0  0  0  0  0  0  0  0  0  0  0
   -7.1295   -1.5807    0.0000 C   0  0  0  0  0  0  0  0  0  0  0  0
   -6.4150    2.9568    0.0000 C   0  0  0  0  0  0  0  0  0  0  0  0
   -4.9861   -2.8182    0.0000 C   0  0  0  0  0  0  0  0  0  0  0  0
   -6.4150   -2.8182    0.0000 C   0  0  0  0  0  0  0  0  0  0  0  0
   -5.7005    3.3693    0.0000 C   0  0  0  0  0  0  0  0  0  0  0  0
   -5.7005   -3.2307    0.0000 C   0  0  0  0  0  0  0  0  0  0  0  0
  1 13  1  0  0  0  0
  2  3  2  0  0  0  0
  2 15  1  0  0  0  0
  3  4  2  0  0  0  0
  5  6  2  0  0  0  0
  5  9  1  0  0  0  0
  5 10  1  0  0  0  0
  6  8  1  0  0  0  0
  6 13  1  0  0  0  0
  7  8  2  0  0  0  0
  7 11  1  0  0  0  0
  7 12  1  0  0  0  0
  8 20  1  0  0  0  0
  9 11  2  0  0  0  0
  9 19  1  0  0  0  0
 10 14  1  0  0  0  0
 10 16  2  0  0  0  0
 11 21  1  0  0  0  0
 12 17  2  0  0  0  0
 12 18  1  0  0  0  0
 13 15  2  0  0  0  0
 14 15  1  0  0  0  0
 14 24  2  0  0  0  0
 16 22  1  0  0  0  0
 16 26  1  0  0  0  0
 17 23  1  0  0  0  0
 17 27  1  0  0  0  0
 18 25  2  0  0  0  0
 18 28  1  0  0  0  0
 19 22  2  0  0  0  0
 20 23  2  0  0  0  0
 21 25  1  0  0  0  0
 24 29  1  0  0  0  0
 26 29  2  0  0  0  0
 27 30  2  0  0  0  0
 28 30  1  0  0  0  0
M  CHG  2   3   1   4  -1
M  END
> <PUBCHEM_COMPOUND_ID_TYPE>
0

> <PUBCHEM_TOTAL_CHARGE>
0

> <PUBCHEM_SUBSTANCE_ID>
310938815

> <PUBCHEM_SUBSTANCE_VERSION>
1

> <PUBCHEM_EXT_DATASOURCE_NAME>
4488

> <PUBCHEM_EXT_DATASOURCE_REGID>
SCHEMBL16116732

> <PUBCHEM_SUBSTANCE_COMMENT>
InChI=1S/C26H14IN3/c27-25-24-18-12-9-14-4-1-3-13-7-10-16(22(18)20(13)14)17-11-8-15-5-2-6-19(21(15)23(17)24)26(25)29-30-28/h1-2,4-9,11-12H,3,10H2
InChIKey=ZZPAOMOMZPTJHM-UHFFFAOYSA-N

> <PUBCHEM_SUBSTANCE_SYNONYM>
SCHEMBL16116732

> <PUBCHEM_XREF_EXT_ID>
SCHEMBL16116732

> <PUBCHEM_EXT_DATASOURCE_URL>
https://www.surechembl.org/

> <PUBCHEM_EXT_SUBSTANCE_URL>
https://www.surechembl.org/chemical/SCHEMBL16116732

> <PUBCHEM_CID_ASSOCIATIONS>
117606221  1

> <PUBCHEM_COORDINATE_TYPE>
1
3

$$$$
