310942334
  -OEChem-07211613022D

 30 33  0     0  0  0  0  0  0999 V2000
    2.5512    2.1794    0.0000 O   0  0  0  0  0  0  0  0  0  0  0  0
    0.4329   -2.0979    0.0000 O   0  0  0  0  0  0  0  0  0  0  0  0
   -2.4187   -2.0673    0.0000 O   0  0  0  0  0  0  0  0  0  0  0  0
    2.4595   -0.6009    0.0000 N   0  0  0  0  0  0  0  0  0  0  0  0
    3.2641   -0.7841    0.0000 N   0  0  0  0  0  0  0  0  0  0  0  0
    3.3047    1.8434    0.0000 N   0  0  0  0  0  0  0  0  0  0  0  0
   -0.2699   -0.8554    0.0000 N   0  0  0  0  0  0  0  0  0  0  0  0
   -3.1317   -0.8249    0.0000 N   0  0  0  0  0  0  0  0  0  0  0  0
    2.0724    0.1120    0.0000 C   0  0  0  0  0  0  0  0  0  0  0  0
    1.1559   -0.8656    0.0000 C   0  0  0  0  0  0  0  0  0  0  0  0
    1.9096   -1.2119    0.0000 C   0  0  0  0  0  0  0  0  0  0  0  0
    1.2476   -0.0407    0.0000 C   0  0  0  0  0  0  0  0  0  0  0  0
    2.4086    0.8656    0.0000 C   0  0  0  0  0  0  0  0  0  0  0  0
    0.4430   -1.2526    0.0000 C   0  0  0  0  0  0  0  0  0  0  0  0
    2.0012    1.5786    0.0000 C   0  0  0  0  0  0  0  0  0  0  0  0
    3.2132    1.0184    0.0000 C   0  0  0  0  0  0  0  0  0  0  0  0
    2.1539   -1.9859    0.0000 C   0  0  0  0  0  0  0  0  0  0  0  0
    0.6468    0.5092    0.0000 C   0  0  0  0  0  0  0  0  0  0  0  0
    3.5186   -1.5684    0.0000 C   0  0  0  0  0  0  0  0  0  0  0  0
    2.9687   -2.1794    0.0000 C   0  0  0  0  0  0  0  0  0  0  0  0
   -1.6957   -0.8351    0.0000 C   0  0  0  0  0  0  0  0  0  0  0  0
    1.1661    1.6804    0.0000 C   0  0  0  0  0  0  0  0  0  0  0  0
    3.8242    0.4583    0.0000 C   0  0  0  0  0  0  0  0  0  0  0  0
   -0.9726   -1.2526    0.0000 C   0  0  0  0  0  0  0  0  0  0  0  0
   -2.4086   -1.2221    0.0000 C   0  0  0  0  0  0  0  0  0  0  0  0
   -1.6855   -0.0102    0.0000 C   0  0  0  0  0  0  0  0  0  0  0  0
   -2.3882    0.3972    0.0000 C   0  0  0  0  0  0  0  0  0  0  0  0
   -3.1113    0.0102    0.0000 C   0  0  0  0  0  0  0  0  0  0  0  0
   -0.9522    0.4074    0.0000 C   0  0  0  0  0  0  0  0  0  0  0  0
   -3.8242    0.4278    0.0000 C   0  0  0  0  0  0  0  0  0  0  0  0
  1  6  1  0  0  0  0
  1 15  1  0  0  0  0
  2 14  2  0  0  0  0
  3 25  2  0  0  0  0
  4  5  1  0  0  0  0
  4  9  1  0  0  0  0
  4 11  1  0  0  0  0
  5 19  2  0  0  0  0
  6 16  2  0  0  0  0
  7 14  1  0  0  0  0
  7 24  1  0  0  0  0
  8 25  1  0  0  0  0
  8 28  1  0  0  0  0
  9 12  2  0  0  0  0
  9 13  1  0  0  0  0
 10 11  2  0  0  0  0
 10 12  1  0  0  0  0
 10 14  1  0  0  0  0
 11 17  1  0  0  0  0
 12 18  1  0  0  0  0
 13 15  2  0  0  0  0
 13 16  1  0  0  0  0
 15 22  1  0  0  0  0
 16 23  1  0  0  0  0
 17 20  2  0  0  0  0
 19 20  1  0  0  0  0
 21 24  1  0  0  0  0
 21 25  1  0  0  0  0
 21 26  2  0  0  0  0
 26 27  1  0  0  0  0
 26 29  1  0  0  0  0
 27 28  2  0  0  0  0
 28 30  1  0  0  0  0
M  END
> <PUBCHEM_COMPOUND_ID_TYPE>
0

> <PUBCHEM_TOTAL_CHARGE>
0

> <PUBCHEM_SUBSTANCE_ID>
310942334

> <PUBCHEM_SUBSTANCE_VERSION>
1

> <PUBCHEM_EXT_DATASOURCE_NAME>
4488

> <PUBCHEM_EXT_DATASOURCE_REGID>
SCHEMBL16120370

> <PUBCHEM_SUBSTANCE_COMMENT>
InChI=1S/C22H23N5O3/c1-11-9-12(2)25-21(28)16(11)10-23-22(29)18-13(3)20(19-14(4)26-30-15(19)5)27-17(18)7-6-8-24-27/h6-9H,10H2,1-5H3,(H,23,29)(H,25,28)
InChIKey=PTTQADVXWHPPJI-UHFFFAOYSA-N

> <PUBCHEM_SUBSTANCE_SYNONYM>
SCHEMBL16120370

> <PUBCHEM_XREF_EXT_ID>
SCHEMBL16120370

> <PUBCHEM_EXT_DATASOURCE_URL>
https://www.surechembl.org/

> <PUBCHEM_EXT_SUBSTANCE_URL>
https://www.surechembl.org/chemical/SCHEMBL16120370

> <PUBCHEM_CID_ASSOCIATIONS>
86299834  1

> <PUBCHEM_COORDINATE_TYPE>
1
3

$$$$
