310942343
  -OEChem-07211613022D

  9  9  0     0  0  0  0  0  0999 V2000
    1.7969   -0.4667    0.0000 Br  0  0  0  0  0  0  0  0  0  0  0  0
   -0.9611   -0.1880    0.0000 N   0  0  0  0  0  0  0  0  0  0  0  0
   -0.4039   -0.7870    0.0000 N   0  0  0  0  0  0  0  0  0  0  0  0
    0.3482   -0.4527    0.0000 C   0  0  0  0  0  0  0  0  0  0  0  0
    0.2647    0.3273    0.0000 C   0  0  0  0  0  0  0  0  0  0  0  0
   -0.5432    0.4944    0.0000 C   0  0  0  0  0  0  0  0  0  0  0  0
    1.1004   -0.8705    0.0000 C   0  0  0  0  0  0  0  0  0  0  0  0
    0.9054    0.8705    0.0000 C   0  0  0  0  0  0  0  0  0  0  0  0
   -1.7969   -0.2856    0.0000 C   0  0  0  0  0  0  0  0  0  0  0  0
  1  7  1  0  0  0  0
  2  3  1  0  0  0  0
  2  6  1  0  0  0  0
  2  9  1  0  0  0  0
  3  4  2  0  0  0  0
  4  5  1  0  0  0  0
  4  7  1  0  0  0  0
  5  6  2  0  0  0  0
  5  8  1  0  0  0  0
M  END
> <PUBCHEM_COMPOUND_ID_TYPE>
0

> <PUBCHEM_TOTAL_CHARGE>
0

> <PUBCHEM_SUBSTANCE_ID>
310942343

> <PUBCHEM_SUBSTANCE_VERSION>
1

> <PUBCHEM_EXT_DATASOURCE_NAME>
4488

> <PUBCHEM_EXT_DATASOURCE_REGID>
SCHEMBL16120379

> <PUBCHEM_SUBSTANCE_COMMENT>
InChI=1S/C6H9BrN2/c1-5-4-9(2)8-6(5)3-7/h4H,3H2,1-2H3
InChIKey=VZLHHXAFLCZGGB-UHFFFAOYSA-N

> <PUBCHEM_SUBSTANCE_SYNONYM>
SCHEMBL16120379

> <PUBCHEM_XREF_EXT_ID>
SCHEMBL16120379

> <PUBCHEM_EXT_DATASOURCE_URL>
https://www.surechembl.org/

> <PUBCHEM_EXT_SUBSTANCE_URL>
https://www.surechembl.org/chemical/SCHEMBL16120379

> <PUBCHEM_CID_ASSOCIATIONS>
117608967  1

> <PUBCHEM_COORDINATE_TYPE>
1
3

$$$$
