310939831
  -OEChem-07211613022D

 31 33  0     0  0  0  0  0  0999 V2000
    1.0717    3.0385    0.0000 Cl  0  0  0  0  0  0  0  0  0  0  0  0
   -3.2151   -2.7365    0.0000 S   0  0  0  0  0  0  0  0  0  0  0  0
   -0.3572    0.5635    0.0000 O   0  0  0  0  0  0  0  0  0  0  0  0
    1.0717   -1.9115    0.0000 O   0  0  0  0  0  0  0  0  0  0  0  0
   -2.8026   -2.0220    0.0000 O   0  0  0  0  0  0  0  0  0  0  0  0
   -3.6276   -3.4510    0.0000 O   0  0  0  0  0  0  0  0  0  0  0  0
    1.0717   -0.2615    0.0000 N   0  0  0  0  0  0  0  0  0  0  0  0
   -0.3572   -1.9115    0.0000 N   0  0  0  0  0  0  0  0  0  0  0  0
   -2.5006   -3.1490    0.0000 N   0  0  0  0  0  0  0  0  0  0  0  0
    1.7862    1.8010    0.0000 C   0  0  0  0  0  0  0  0  0  0  0  0
    1.0717    0.5635    0.0000 C   0  0  0  0  0  0  0  0  0  0  0  0
    1.0717    2.2135    0.0000 C   0  0  0  0  0  0  0  0  0  0  0  0
    2.5006    2.2135    0.0000 C   0  0  0  0  0  0  0  0  0  0  0  0
    1.7862    0.9760    0.0000 C   0  0  0  0  0  0  0  0  0  0  0  0
    0.3572    0.9760    0.0000 C   0  0  0  0  0  0  0  0  0  0  0  0
    0.3572    1.8010    0.0000 C   0  0  0  0  0  0  0  0  0  0  0  0
    0.3572   -1.4990    0.0000 C   0  0  0  0  0  0  0  0  0  0  0  0
   -1.7862   -2.7365    0.0000 C   0  0  0  0  0  0  0  0  0  0  0  0
    3.2151    1.8010    0.0000 C   0  0  0  0  0  0  0  0  0  0  0  0
    2.5006    3.0385    0.0000 C   0  0  0  0  0  0  0  0  0  0  0  0
    0.3572   -0.6740    0.0000 C   0  0  0  0  0  0  0  0  0  0  0  0
   -1.0717   -1.4990    0.0000 C   0  0  0  0  0  0  0  0  0  0  0  0
   -0.3572   -2.7365    0.0000 C   0  0  0  0  0  0  0  0  0  0  0  0
   -1.7862   -1.9115    0.0000 C   0  0  0  0  0  0  0  0  0  0  0  0
   -1.0717   -3.1490    0.0000 C   0  0  0  0  0  0  0  0  0  0  0  0
    3.9296    2.2135    0.0000 C   0  0  0  0  0  0  0  0  0  0  0  0
    3.2151    3.4510    0.0000 C   0  0  0  0  0  0  0  0  0  0  0  0
    3.9296    3.0385    0.0000 C   0  0  0  0  0  0  0  0  0  0  0  0
   -3.9296   -2.3240    0.0000 C   0  0  0  0  0  0  0  0  0  0  0  0
    4.6441    3.4510    0.0000 C   0  0  0  0  0  0  0  0  0  0  0  0
   -4.6441   -2.7365    0.0000 C   0  0  0  0  0  0  0  0  0  0  0  0
  1 12  1  0  0  0  0
  2  5  2  0  0  0  0
  2  6  2  0  0  0  0
  2  9  1  0  0  0  0
  2 29  1  0  0  0  0
  3 15  1  0  0  0  0
  4 17  2  0  0  0  0
  7 11  1  0  0  0  0
  7 21  1  0  0  0  0
  8 17  1  0  0  0  0
  8 22  1  0  0  0  0
  8 23  1  0  0  0  0
  9 18  1  0  0  0  0
 10 12  2  0  0  0  0
 10 13  1  0  0  0  0
 10 14  1  0  0  0  0
 11 14  2  0  0  0  0
 11 15  1  0  0  0  0
 12 16  1  0  0  0  0
 13 19  2  0  0  0  0
 13 20  1  0  0  0  0
 15 16  2  0  0  0  0
 17 21  1  0  0  0  0
 18 24  1  0  0  0  0
 18 25  1  0  0  0  0
 19 26  1  0  0  0  0
 20 27  2  0  0  0  0
 22 24  1  0  0  0  0
 23 25  1  0  0  0  0
 26 28  2  0  0  0  0
 27 28  1  0  0  0  0
 28 30  1  0  0  0  0
 29 31  2  0  0  0  0
M  END
> <PUBCHEM_COMPOUND_ID_TYPE>
0

> <PUBCHEM_TOTAL_CHARGE>
0

> <PUBCHEM_SUBSTANCE_ID>
310939831

> <PUBCHEM_SUBSTANCE_VERSION>
1

> <PUBCHEM_EXT_DATASOURCE_NAME>
4488

> <PUBCHEM_EXT_DATASOURCE_REGID>
SCHEMBL16117761

> <PUBCHEM_SUBSTANCE_COMMENT>
InChI=1S/C22H26ClN3O4S/c1-3-31(29,30)25-17-8-10-26(11-9-17)22(28)14-24-20-12-18(19(23)13-21(20)27)16-6-4-15(2)5-7-16/h3-7,12-13,17,24-25,27H,1,8-11,14H2,2H3
InChIKey=SGCGEADCJWTMTL-UHFFFAOYSA-N

> <PUBCHEM_SUBSTANCE_SYNONYM>
SCHEMBL16117761

> <PUBCHEM_XREF_EXT_ID>
SCHEMBL16117761

> <PUBCHEM_EXT_DATASOURCE_URL>
https://www.surechembl.org/

> <PUBCHEM_EXT_SUBSTANCE_URL>
https://www.surechembl.org/chemical/SCHEMBL16117761

> <PUBCHEM_CID_ASSOCIATIONS>
117607048  1

> <PUBCHEM_COORDINATE_TYPE>
1
3

$$$$
