310942993
  -OEChem-07211613022D

 30 31  0     0  0  0  0  0  0999 V2000
    0.9595    0.2128    0.0000 S   0  0  0  0  0  0  0  0  0  0  0  0
   -3.8129   -1.0471    0.0000 F   0  0  0  0  0  0  0  0  0  0  0  0
   -3.8630    0.0960    0.0000 F   0  0  0  0  0  0  0  0  0  0  0  0
   -2.7032    0.1376    0.0000 F   0  0  0  0  0  0  0  0  0  0  0  0
   -1.8272   -1.8147    0.0000 F   0  0  0  0  0  0  0  0  0  0  0  0
   -2.6115   -2.6491    0.0000 F   0  0  0  0  0  0  0  0  0  0  0  0
   -3.4458   -1.8481    0.0000 F   0  0  0  0  0  0  0  0  0  0  0  0
   -3.3624   -1.4476    0.0000 O   0  0  0  0  0  0  0  0  0  0  0  0
   -1.2015   -1.8398    0.0000 O   0  0  0  0  0  0  0  0  0  0  0  0
    0.9595   -0.6133    0.0000 O   0  0  0  0  0  0  0  0  0  0  0  0
    0.9512    1.0388    0.0000 O   0  0  0  0  0  0  0  0  0  0  0  0
    3.8463    1.8481    0.0000 O   0  0  0  0  0  0  0  0  0  0  0  0
    0.2503    0.6299    0.0000 N   0  0  0  0  0  0  0  0  0  0  0  0
   -2.6616   -1.0137    0.0000 C   0  0  0  0  0  0  0  0  0  0  0  0
   -1.9274   -0.6049    0.0000 C   0  0  0  0  0  0  0  0  0  0  0  0
   -2.6448   -1.8314    0.0000 C   0  0  0  0  0  0  0  0  0  0  0  0
   -3.2623   -0.4463    0.0000 C   0  0  0  0  0  0  0  0  0  0  0  0
   -1.2015   -1.0137    0.0000 C   0  0  0  0  0  0  0  0  0  0  0  0
   -1.9106    0.2128    0.0000 C   0  0  0  0  0  0  0  0  0  0  0  0
   -0.4755    0.2128    0.0000 C   0  0  0  0  0  0  0  0  0  0  0  0
   -0.4839   -0.6049    0.0000 C   0  0  0  0  0  0  0  0  0  0  0  0
   -1.2015    0.6216    0.0000 C   0  0  0  0  0  0  0  0  0  0  0  0
    1.6770    0.6216    0.0000 C   0  0  0  0  0  0  0  0  0  0  0  0
    2.4196    0.2128    0.0000 C   0  0  0  0  0  0  0  0  0  0  0  0
    1.6854    1.4392    0.0000 C   0  0  0  0  0  0  0  0  0  0  0  0
   -0.4923   -2.2485    0.0000 C   0  0  0  0  0  0  0  0  0  0  0  0
    3.1288    1.4392    0.0000 C   0  0  0  0  0  0  0  0  0  0  0  0
    3.1204    0.6133    0.0000 C   0  0  0  0  0  0  0  0  0  0  0  0
    2.4196    1.8398    0.0000 C   0  0  0  0  0  0  0  0  0  0  0  0
    3.8630    2.6491    0.0000 C   0  0  0  0  0  0  0  0  0  0  0  0
  1 10  2  0  0  0  0
  1 11  2  0  0  0  0
  1 13  1  0  0  0  0
  1 23  1  0  0  0  0
  2 17  1  0  0  0  0
  3 17  1  0  0  0  0
  4 17  1  0  0  0  0
  5 16  1  0  0  0  0
  6 16  1  0  0  0  0
  7 16  1  0  0  0  0
  8 14  1  0  0  0  0
  9 18  1  0  0  0  0
  9 26  1  0  0  0  0
 12 27  1  0  0  0  0
 12 30  1  0  0  0  0
 13 20  1  0  0  0  0
 14 15  1  0  0  0  0
 14 16  1  0  0  0  0
 14 17  1  0  0  0  0
 15 18  1  0  0  0  0
 15 19  2  0  0  0  0
 18 21  2  0  0  0  0
 19 22  1  0  0  0  0
 20 21  1  0  0  0  0
 20 22  2  0  0  0  0
 23 24  2  0  0  0  0
 23 25  1  0  0  0  0
 24 28  1  0  0  0  0
 25 29  2  0  0  0  0
 27 28  2  0  0  0  0
 27 29  1  0  0  0  0
M  END
> <PUBCHEM_COMPOUND_ID_TYPE>
0

> <PUBCHEM_TOTAL_CHARGE>
0

> <PUBCHEM_SUBSTANCE_ID>
310942993

> <PUBCHEM_SUBSTANCE_VERSION>
1

> <PUBCHEM_EXT_DATASOURCE_NAME>
4488

> <PUBCHEM_EXT_DATASOURCE_REGID>
SCHEMBL16121052

> <PUBCHEM_SUBSTANCE_COMMENT>
InChI=1S/C17H15F6NO5S/c1-28-11-4-6-12(7-5-11)30(26,27)24-10-3-8-13(14(9-10)29-2)15(25,16(18,19)20)17(21,22)23/h3-9,24-25H,1-2H3
InChIKey=XECZBOHOXAFCHE-UHFFFAOYSA-N

> <PUBCHEM_SUBSTANCE_SYNONYM>
SCHEMBL16121052

> <PUBCHEM_XREF_EXT_ID>
SCHEMBL16121052

> <PUBCHEM_EXT_DATASOURCE_URL>
https://www.surechembl.org/

> <PUBCHEM_EXT_SUBSTANCE_URL>
https://www.surechembl.org/chemical/SCHEMBL16121052

> <PUBCHEM_CID_ASSOCIATIONS>
117609448  1

> <PUBCHEM_COORDINATE_TYPE>
1
3

$$$$
