310948931
  -OEChem-07211613022D

 50 52  0     1  0  0  0  0  0999 V2000
   -5.0953   -2.2798    0.0000 Br  0  0  0  0  0  0  0  0  0  0  0  0
   -7.2009    1.5698    0.0000 S   0  0  0  0  0  0  0  0  0  0  0  0
   -4.2483    1.7317    0.0000 P   0  0  3  0  0  0  0  0  0  0  0  0
   -6.4159    0.4859    0.0000 O   0  0  0  0  0  0  0  0  0  0  0  0
   -4.9832    1.3081    0.0000 O   0  0  0  0  0  0  0  0  0  0  0  0
   -4.0489    0.9218    0.0000 O   0  0  0  0  0  0  0  0  0  0  0  0
   -4.2607    2.5539    0.0000 O   0  0  0  0  0  0  0  0  0  0  0  0
   -8.8079   -0.1993    0.0000 O   0  0  0  0  0  0  0  0  0  0  0  0
   -0.5482    2.5539    0.0000 O   0  0  0  0  0  0  0  0  0  0  0  0
   -7.4001   -0.5731    0.0000 N   0  0  0  0  0  0  0  0  0  0  0  0
   -8.4218   -1.5947    0.0000 N   0  0  0  0  0  0  0  0  0  0  0  0
   -3.4135    1.7317    0.0000 N   0  0  0  0  0  0  0  0  0  0  0  0
   -8.0480   -2.9775    0.0000 N   0  0  0  0  0  0  0  0  0  0  0  0
   -1.2458    1.3206    0.0000 N   0  0  0  0  0  0  0  0  0  0  0  0
   -7.1759    0.2243    0.0000 C   0  0  3  0  0  0  0  0  0  0  0  0
   -6.4035    1.3206    0.0000 C   0  0  3  0  0  0  0  0  0  0  0  0
   -8.1975   -0.7972    0.0000 C   0  0  0  0  0  0  0  0  0  0  0  0
   -7.6742    0.8970    0.0000 C   0  0  0  0  0  0  0  0  0  0  0  0
   -6.8271   -1.1586    0.0000 C   0  0  0  0  0  0  0  0  0  0  0  0
   -5.6810    1.7193    0.0000 C   0  0  0  0  0  0  0  0  0  0  0  0
   -7.8237   -2.1677    0.0000 C   0  0  0  0  0  0  0  0  0  0  0  0
   -7.0389   -1.9560    0.0000 C   0  0  0  0  0  0  0  0  0  0  0  0
   -4.2483    0.1246    0.0000 C   0  0  0  0  0  0  0  0  0  0  0  0
   -5.0455   -0.0997    0.0000 C   0  0  0  0  0  0  0  0  0  0  0  0
   -3.6626   -0.4610    0.0000 C   0  0  0  0  0  0  0  0  0  0  0  0
   -2.6910    1.3206    0.0000 C   0  0  0  0  0  0  0  0  0  0  0  0
   -4.6842   -1.4701    0.0000 C   0  0  0  0  0  0  0  0  0  0  0  0
   -5.2573   -0.8970    0.0000 C   0  0  0  0  0  0  0  0  0  0  0  0
   -3.8745   -1.2583    0.0000 C   0  0  0  0  0  0  0  0  0  0  0  0
   -1.9809    1.7317    0.0000 C   0  0  0  0  0  0  0  0  0  0  0  0
   -0.5358    1.7068    0.0000 C   0  0  0  0  0  0  0  0  0  0  0  0
    0.1869    1.3206    0.0000 C   0  0  0  0  0  0  0  0  0  0  0  0
    0.8970    1.7193    0.0000 C   0  0  0  0  0  0  0  0  0  0  0  0
    0.9094    2.5664    0.0000 C   0  0  0  0  0  0  0  0  0  0  0  0
    1.6196    2.9775    0.0000 C   0  0  0  0  0  0  0  0  0  0  0  0
    2.3421    2.5539    0.0000 C   0  0  0  0  0  0  0  0  0  0  0  0
    2.3421    1.7317    0.0000 C   0  0  0  0  0  0  0  0  0  0  0  0
    3.0647    1.3206    0.0000 C   0  0  0  0  0  0  0  0  0  0  0  0
    3.7748    1.7193    0.0000 C   0  0  0  0  0  0  0  0  0  0  0  0
    3.7872    2.5664    0.0000 C   0  0  0  0  0  0  0  0  0  0  0  0
    4.4974    2.9775    0.0000 C   0  0  0  0  0  0  0  0  0  0  0  0
    5.2199    2.5539    0.0000 C   0  0  0  0  0  0  0  0  0  0  0  0
    5.2199    1.7317    0.0000 C   0  0  0  0  0  0  0  0  0  0  0  0
    5.9425    1.3206    0.0000 C   0  0  0  0  0  0  0  0  0  0  0  0
    6.6526    1.7193    0.0000 C   0  0  0  0  0  0  0  0  0  0  0  0
    6.6651    2.5664    0.0000 C   0  0  0  0  0  0  0  0  0  0  0  0
    7.3751    2.9775    0.0000 C   0  0  0  0  0  0  0  0  0  0  0  0
    8.0978    2.5539    0.0000 C   0  0  0  0  0  0  0  0  0  0  0  0
    8.0978    1.7317    0.0000 C   0  0  0  0  0  0  0  0  0  0  0  0
    8.8079    1.3206    0.0000 C   0  0  0  0  0  0  0  0  0  0  0  0
  1 27  1  0  0  0  0
  2 16  1  0  0  0  0
  2 18  1  0  0  0  0
  3  5  1  0  0  0  0
  3  6  1  0  0  0  0
  3  7  2  0  0  0  0
  3 12  1  0  0  0  0
  4 15  1  0  0  0  0
  4 16  1  0  0  0  0
  5 20  1  0  0  0  0
  6 23  1  0  0  0  0
  8 17  2  0  0  0  0
  9 31  2  0  0  0  0
 10 15  1  0  0  0  0
 10 17  1  0  0  0  0
 10 19  1  0  0  0  0
 11 17  1  0  0  0  0
 11 21  2  0  0  0  0
 12 26  1  0  0  0  0
 13 21  1  0  0  0  0
 14 30  1  0  0  0  0
 14 31  1  0  0  0  0
 15 18  1  0  0  0  0
 16 20  1  6  0  0  0
 19 22  2  0  0  0  0
 21 22  1  0  0  0  0
 23 24  2  0  0  0  0
 23 25  1  0  0  0  0
 24 28  1  0  0  0  0
 25 29  2  0  0  0  0
 26 30  1  0  0  0  0
 27 28  2  0  0  0  0
 27 29  1  0  0  0  0
 31 32  1  0  0  0  0
 32 33  1  0  0  0  0
 33 34  1  0  0  0  0
 34 35  1  0  0  0  0
 35 36  2  0  0  0  0
 36 37  1  0  0  0  0
 37 38  1  0  0  0  0
 38 39  2  0  0  0  0
 39 40  1  0  0  0  0
 40 41  1  0  0  0  0
 41 42  2  0  0  0  0
 42 43  1  0  0  0  0
 43 44  1  0  0  0  0
 44 45  2  0  0  0  0
 45 46  1  0  0  0  0
 46 47  1  0  0  0  0
 47 48  2  0  0  0  0
 48 49  1  0  0  0  0
 49 50  1  0  0  0  0
M  END
> <PUBCHEM_COMPOUND_ID_TYPE>
0

> <PUBCHEM_TOTAL_CHARGE>
0

> <PUBCHEM_SUBSTANCE_ID>
310948931

> <PUBCHEM_SUBSTANCE_VERSION>
1

> <PUBCHEM_EXT_DATASOURCE_NAME>
4488

> <PUBCHEM_EXT_DATASOURCE_REGID>
SCHEMBL16127117

> <PUBCHEM_SUBSTANCE_COMMENT>
InChI=1S/C36H49BrN5O6PS/c1-2-3-4-5-6-7-8-9-10-11-12-13-14-15-16-17-18-19-33(43)39-25-26-40-49(45,48-31-22-20-30(37)21-23-31)46-28-35-47-34(29-50-35)42-27-24-32(38)41-36(42)44/h3-4,6-7,9-10,12-13,15-16,20-24,27,34-35H,2,5,8,11,14,17-19,25-26,28-29H2,1H3,(H,39,43)(H,40,45)(H2,38,41,44)/b4-3-,7-6-,10-9-,13-12-,16-15-/t34?,35-,49?/m1/s1
InChIKey=AOVWHEZQDYXPDW-XRKUFJHLSA-N

> <PUBCHEM_SUBSTANCE_SYNONYM>
SCHEMBL16127117

> <PUBCHEM_XREF_EXT_ID>
SCHEMBL16127117

> <PUBCHEM_EXT_DATASOURCE_URL>
https://www.surechembl.org/

> <PUBCHEM_EXT_SUBSTANCE_URL>
https://www.surechembl.org/chemical/SCHEMBL16127117

> <PUBCHEM_CID_ASSOCIATIONS>
117614444  1

> <PUBCHEM_COORDINATE_TYPE>
1
3

> <PUBCHEM_BONDANNOTATIONS>
16  20  6

$$$$
