310943090
  -OEChem-07211613022D

 29 31  0     1  0  0  0  0  0999 V2000
   -2.0989    0.4131    0.0000 O   0  0  0  0  0  0  0  0  0  0  0  0
   -2.3853   -2.5617    0.0000 O   0  0  0  0  0  0  0  0  0  0  0  0
    0.8098   -2.8371    0.0000 O   0  0  0  0  0  0  0  0  0  0  0  0
   -4.0711    1.4819    0.0000 O   0  0  0  0  0  0  0  0  0  0  0  0
   -4.4347    2.8371    0.0000 O   0  0  0  0  0  0  0  0  0  0  0  0
   -1.3166   -0.6555    0.0000 C   0  0  3  0  0  0  0  0  0  0  0  0
   -0.8098    0.0386    0.0000 C   0  0  0  0  0  0  0  0  0  0  0  0
   -2.1319   -0.4352    0.0000 C   0  0  3  0  0  0  0  0  0  0  0  0
   -1.3056    0.6555    0.0000 C   0  0  0  0  0  0  0  0  0  0  0  0
   -1.3277   -1.5149    0.0000 C   0  0  3  0  0  0  0  0  0  0  0  0
   -2.0989   -1.7463    0.0000 C   0  0  3  0  0  0  0  0  0  0  0  0
   -2.5837   -1.1404    0.0000 C   0  0  0  0  0  0  0  0  0  0  0  0
   -1.0522    1.4819    0.0000 C   0  0  0  0  0  0  0  0  0  0  0  0
    0.0055    0.0827    0.0000 C   0  0  0  0  0  0  0  0  0  0  0  0
   -0.6004   -1.9006    0.0000 C   0  0  0  0  0  0  0  0  0  0  0  0
   -0.1047    1.5370    0.0000 C   0  0  0  0  0  0  0  0  0  0  0  0
    0.3471    0.8649    0.0000 C   0  0  0  0  0  0  0  0  0  0  0  0
   -1.5921    2.0768    0.0000 C   0  0  0  0  0  0  0  0  0  0  0  0
    0.1487   -1.6141    0.0000 C   0  0  0  0  0  0  0  0  0  0  0  0
    0.8209   -1.9777    0.0000 C   0  0  3  0  0  0  0  0  0  0  0  0
   -2.4404    1.8785    0.0000 C   0  0  0  0  0  0  0  0  0  0  0  0
    1.5480   -1.6031    0.0000 C   0  0  3  0  0  0  0  0  0  0  0  0
   -2.9803    2.4735    0.0000 C   0  0  0  0  0  0  0  0  0  0  0  0
    2.2862   -1.9777    0.0000 C   0  0  0  0  0  0  0  0  0  0  0  0
   -3.8507    2.2531    0.0000 C   0  0  0  0  0  0  0  0  0  0  0  0
    1.5590   -0.7437    0.0000 C   0  0  0  0  0  0  0  0  0  0  0  0
    2.9803   -1.5921    0.0000 C   0  0  0  0  0  0  0  0  0  0  0  0
    3.7185   -1.1513    0.0000 C   0  0  0  0  0  0  0  0  0  0  0  0
    4.4347   -0.7437    0.0000 C   0  0  0  0  0  0  0  0  0  0  0  0
  1  8  1  0  0  0  0
  1  9  1  0  0  0  0
 11  2  1  1  0  0  0
 20  3  1  1  0  0  0
  4 25  2  0  0  0  0
  5 25  1  0  0  0  0
  6  7  1  1  0  0  0
  6  8  1  0  0  0  0
  6 10  1  0  0  0  0
  7  9  2  0  0  0  0
  7 14  1  0  0  0  0
  8 12  1  1  0  0  0
  9 13  1  0  0  0  0
 10 11  1  0  0  0  0
 10 15  1  6  0  0  0
 11 12  1  0  0  0  0
 13 16  2  0  0  0  0
 13 18  1  0  0  0  0
 14 17  2  0  0  0  0
 15 19  2  0  0  0  0
 16 17  1  0  0  0  0
 18 21  1  0  0  0  0
 19 20  1  0  0  0  0
 20 22  1  0  0  0  0
 21 23  1  0  0  0  0
 22 24  1  0  0  0  0
 22 26  1  6  0  0  0
 23 25  1  0  0  0  0
 24 27  1  0  0  0  0
 27 28  3  0  0  0  0
 28 29  1  0  0  0  0
M  END
> <PUBCHEM_COMPOUND_ID_TYPE>
0

> <PUBCHEM_TOTAL_CHARGE>
0

> <PUBCHEM_SUBSTANCE_ID>
310943090

> <PUBCHEM_SUBSTANCE_VERSION>
1

> <PUBCHEM_EXT_DATASOURCE_NAME>
4488

> <PUBCHEM_EXT_DATASOURCE_REGID>
SCHEMBL16121149

> <PUBCHEM_SUBSTANCE_COMMENT>
InChI=1S/C24H30O5/c1-3-4-7-15(2)19(25)13-12-17-20(26)14-21-23(17)18-10-5-8-16(24(18)29-21)9-6-11-22(27)28/h5,8,10,12-13,15,17,19-21,23,25-26H,6-7,9,11,14H2,1-2H3,(H,27,28)/b13-12+/t15-,17-,19+,20+,21-,23-/m1/s1
InChIKey=CTPOHARTNNSRSR-PUCIQUSYSA-N

> <PUBCHEM_SUBSTANCE_SYNONYM>
SCHEMBL16121149

> <PUBCHEM_XREF_EXT_ID>
SCHEMBL16121149

> <PUBCHEM_EXT_DATASOURCE_URL>
https://www.surechembl.org/

> <PUBCHEM_EXT_SUBSTANCE_URL>
https://www.surechembl.org/chemical/SCHEMBL16121149

> <PUBCHEM_CID_ASSOCIATIONS>
101022180  1

> <PUBCHEM_COORDINATE_TYPE>
1
3

> <PUBCHEM_BONDANNOTATIONS>
10  15  6
11  2  5
22  26  6
20  3  5
6  7  5
8  12  5

$$$$
