310940124
  -OEChem-07211613022D

 39 46  0     0  0  0  0  0  0999 V2000
   -7.0684    3.1413    0.0000 Br  0  0  0  0  0  0  0  0  0  0  0  0
   -3.8100    3.4411    0.0000 O   0  0  0  0  0  0  0  0  0  0  0  0
   -3.6385   -4.7909    0.0000 N   0  0  0  0  0  0  0  0  0  0  0  0
   -2.9711   -5.2758    0.0000 C   0  0  0  0  0  0  0  0  0  0  0  0
   -4.3060   -5.2758    0.0000 C   0  0  0  0  0  0  0  0  0  0  0  0
   -4.0510   -6.0604    0.0000 C   0  0  0  0  0  0  0  0  0  0  0  0
   -3.2260   -6.0604    0.0000 C   0  0  0  0  0  0  0  0  0  0  0  0
   -3.6385   -3.9659    0.0000 C   0  0  0  0  0  0  0  0  0  0  0  0
   -4.3530    2.2216    0.0000 C   0  0  0  0  0  0  0  0  0  0  0  0
   -4.9661    2.7737    0.0000 C   0  0  0  0  0  0  0  0  0  0  0  0
   -3.6385    2.6341    0.0000 C   0  0  0  0  0  0  0  0  0  0  0  0
   -4.6305    3.5273    0.0000 C   0  0  0  0  0  0  0  0  0  0  0  0
   -5.1129   -5.1043    0.0000 C   0  0  0  0  0  0  0  0  0  0  0  0
   -2.1641   -5.1043    0.0000 C   0  0  0  0  0  0  0  0  0  0  0  0
   -4.6030   -6.6735    0.0000 C   0  0  0  0  0  0  0  0  0  0  0  0
   -2.6740   -6.6735    0.0000 C   0  0  0  0  0  0  0  0  0  0  0  0
   -3.6385    0.9841    0.0000 C   0  0  0  0  0  0  0  0  0  0  0  0
   -4.3530    1.3966    0.0000 C   0  0  0  0  0  0  0  0  0  0  0  0
   -2.9240   -3.5534    0.0000 C   0  0  0  0  0  0  0  0  0  0  0  0
   -4.3530   -3.5534    0.0000 C   0  0  0  0  0  0  0  0  0  0  0  0
   -5.7866    2.6874    0.0000 C   0  0  0  0  0  0  0  0  0  0  0  0
   -2.9240    2.2216    0.0000 C   0  0  0  0  0  0  0  0  0  0  0  0
   -3.6385    0.1591    0.0000 C   0  0  0  0  0  0  0  0  0  0  0  0
   -3.6385   -2.3159    0.0000 C   0  0  0  0  0  0  0  0  0  0  0  0
   -2.9240    1.3966    0.0000 C   0  0  0  0  0  0  0  0  0  0  0  0
   -5.1154    4.1948    0.0000 C   0  0  0  0  0  0  0  0  0  0  0  0
   -3.6385   -1.4909    0.0000 C   0  0  0  0  0  0  0  0  0  0  0  0
   -5.6650   -5.7174    0.0000 C   0  0  0  0  0  0  0  0  0  0  0  0
   -1.6121   -5.7174    0.0000 C   0  0  0  0  0  0  0  0  0  0  0  0
   -5.4100   -6.5020    0.0000 C   0  0  0  0  0  0  0  0  0  0  0  0
   -1.8670   -6.5020    0.0000 C   0  0  0  0  0  0  0  0  0  0  0  0
   -6.2715    3.3549    0.0000 C   0  0  0  0  0  0  0  0  0  0  0  0
   -2.9240   -2.7284    0.0000 C   0  0  0  0  0  0  0  0  0  0  0  0
   -4.3530   -2.7284    0.0000 C   0  0  0  0  0  0  0  0  0  0  0  0
   -5.9359    4.1085    0.0000 C   0  0  0  0  0  0  0  0  0  0  0  0
   -4.3530   -0.2534    0.0000 C   0  0  0  0  0  0  0  0  0  0  0  0
   -2.9240   -0.2534    0.0000 C   0  0  0  0  0  0  0  0  0  0  0  0
   -4.3530   -1.0784    0.0000 C   0  0  0  0  0  0  0  0  0  0  0  0
   -2.9240   -1.0784    0.0000 C   0  0  0  0  0  0  0  0  0  0  0  0
  1 32  1  0  0  0  0
  2 11  1  0  0  0  0
  2 12  1  0  0  0  0
  3  4  1  0  0  0  0
  3  5  1  0  0  0  0
  3  8  1  0  0  0  0
  4  7  2  0  0  0  0
  4 14  1  0  0  0  0
  5  6  2  0  0  0  0
  5 13  1  0  0  0  0
  6  7  1  0  0  0  0
  6 15  1  0  0  0  0
  7 16  1  0  0  0  0
  8 19  2  0  0  0  0
  8 20  1  0  0  0  0
  9 10  1  0  0  0  0
  9 11  1  0  0  0  0
  9 18  2  0  0  0  0
 10 12  2  0  0  0  0
 10 21  1  0  0  0  0
 11 22  2  0  0  0  0
 12 26  1  0  0  0  0
 13 28  2  0  0  0  0
 14 29  2  0  0  0  0
 15 30  2  0  0  0  0
 16 31  2  0  0  0  0
 17 18  1  0  0  0  0
 17 23  1  0  0  0  0
 17 25  2  0  0  0  0
 19 33  1  0  0  0  0
 20 34  2  0  0  0  0
 21 32  2  0  0  0  0
 22 25  1  0  0  0  0
 23 36  2  0  0  0  0
 23 37  1  0  0  0  0
 24 27  1  0  0  0  0
 24 33  2  0  0  0  0
 24 34  1  0  0  0  0
 26 35  2  0  0  0  0
 27 38  2  0  0  0  0
 27 39  1  0  0  0  0
 28 30  1  0  0  0  0
 29 31  1  0  0  0  0
 32 35  1  0  0  0  0
 36 38  1  0  0  0  0
 37 39  2  0  0  0  0
M  END
> <PUBCHEM_COMPOUND_ID_TYPE>
0

> <PUBCHEM_TOTAL_CHARGE>
0

> <PUBCHEM_SUBSTANCE_ID>
310940124

> <PUBCHEM_SUBSTANCE_VERSION>
1

> <PUBCHEM_EXT_DATASOURCE_NAME>
4488

> <PUBCHEM_EXT_DATASOURCE_REGID>
SCHEMBL16118056

> <PUBCHEM_SUBSTANCE_COMMENT>
InChI=1S/C36H22BrNO/c37-27-16-20-36-32(22-27)31-21-26(15-19-35(31)39-36)25-11-9-23(10-12-25)24-13-17-28(18-14-24)38-33-7-3-1-5-29(33)30-6-2-4-8-34(30)38/h1-22H
InChIKey=DQRICOHMLUEVFO-UHFFFAOYSA-N

> <PUBCHEM_SUBSTANCE_SYNONYM>
SCHEMBL16118056

> <PUBCHEM_XREF_EXT_ID>
SCHEMBL16118056

> <PUBCHEM_EXT_DATASOURCE_URL>
https://www.surechembl.org/

> <PUBCHEM_EXT_SUBSTANCE_URL>
https://www.surechembl.org/chemical/SCHEMBL16118056

> <PUBCHEM_CID_ASSOCIATIONS>
117607251  1

> <PUBCHEM_COORDINATE_TYPE>
1
3

$$$$
