310938841
  -OEChem-07211613022D

 36 41  0     1  0  0  0  0  0999 V2000
    5.1305   -2.1450    0.0000 Br  0  0  0  0  0  0  0  0  0  0  0  0
   -3.3914    0.5073    0.0000 S   0  0  0  0  0  0  0  0  0  0  0  0
    3.3914    2.1305    0.0000 O   0  0  0  0  0  0  0  0  0  0  0  0
    2.1739    1.3913    0.0000 O   0  0  0  0  0  0  0  0  0  0  0  0
   -1.2174    0.8261    0.0000 O   0  0  0  0  0  0  0  0  0  0  0  0
    1.6667   -0.7391    0.0000 N   0  0  0  0  0  0  0  0  0  0  0  0
    1.6812    0.6377    0.0000 N   0  0  0  0  0  0  0  0  0  0  0  0
   -2.7102    1.6812    0.0000 N   0  0  0  0  0  0  0  0  0  0  0  0
    3.0001   -0.0290    0.0000 C   0  0  3  0  0  0  0  0  0  0  0  0
    3.7971   -0.0435    0.0000 C   0  0  0  0  0  0  0  0  0  0  0  0
    3.3914    0.6667    0.0000 C   0  0  3  0  0  0  0  0  0  0  0  0
    2.1739   -0.0435    0.0000 C   0  0  0  0  0  0  0  0  0  0  0  0
    2.9566    1.4058    0.0000 C   0  0  0  0  0  0  0  0  0  0  0  0
    0.8841   -0.4493    0.0000 C   0  0  0  0  0  0  0  0  0  0  0  0
    0.9130    0.3913    0.0000 C   0  0  0  0  0  0  0  0  0  0  0  0
    4.6088    0.1739    0.0000 C   0  0  0  0  0  0  0  0  0  0  0  0
    4.0290   -0.8841    0.0000 C   0  0  0  0  0  0  0  0  0  0  0  0
    1.9130   -1.5218    0.0000 C   0  0  0  0  0  0  0  0  0  0  0  0
    0.1884   -0.8696    0.0000 C   0  0  0  0  0  0  0  0  0  0  0  0
    0.2029    0.7971    0.0000 C   0  0  0  0  0  0  0  0  0  0  0  0
   -0.5073    0.4058    0.0000 C   0  0  0  0  0  0  0  0  0  0  0  0
    2.7247   -1.6957    0.0000 C   0  0  0  0  0  0  0  0  0  0  0  0
   -0.5073   -0.4348    0.0000 C   0  0  0  0  0  0  0  0  0  0  0  0
    3.0001   -2.4783    0.0000 C   0  0  0  0  0  0  0  0  0  0  0  0
    3.2465   -1.0580    0.0000 C   0  0  0  0  0  0  0  0  0  0  0  0
   -2.6377    0.8551    0.0000 C   0  0  0  0  0  0  0  0  0  0  0  0
   -1.9130    0.4203    0.0000 C   0  0  0  0  0  0  0  0  0  0  0  0
   -3.9276    1.1594    0.0000 C   0  0  0  0  0  0  0  0  0  0  0  0
   -3.5218    1.8696    0.0000 C   0  0  0  0  0  0  0  0  0  0  0  0
    3.7971   -2.6232    0.0000 C   0  0  0  0  0  0  0  0  0  0  0  0
    4.0580   -1.2029    0.0000 C   0  0  0  0  0  0  0  0  0  0  0  0
    4.3189   -1.9856    0.0000 C   0  0  0  0  0  0  0  0  0  0  0  0
   -4.7537    1.1739    0.0000 C   0  0  0  0  0  0  0  0  0  0  0  0
   -3.9131    2.6087    0.0000 C   0  0  0  0  0  0  0  0  0  0  0  0
   -5.1305    1.8841    0.0000 C   0  0  0  0  0  0  0  0  0  0  0  0
   -4.7247    2.6232    0.0000 C   0  0  0  0  0  0  0  0  0  0  0  0
  1 32  1  0  0  0  0
  2 26  1  0  0  0  0
  2 28  1  0  0  0  0
  3 13  2  0  0  0  0
  4 13  1  0  0  0  0
  5 21  1  0  0  0  0
  5 27  1  0  0  0  0
  6 12  1  0  0  0  0
  6 14  1  0  0  0  0
  6 18  1  0  0  0  0
  7 12  2  0  0  0  0
  7 15  1  0  0  0  0
  8 26  2  0  0  0  0
  8 29  1  0  0  0  0
  9 10  1  0  0  0  0
  9 11  1  0  0  0  0
  9 12  1  0  0  0  0
 10 11  1  0  0  0  0
 10 16  1  0  0  0  0
 10 17  1  0  0  0  0
 11 13  1  1  0  0  0
 14 15  1  0  0  0  0
 14 19  2  0  0  0  0
 15 20  2  0  0  0  0
 18 22  1  0  0  0  0
 19 23  1  0  0  0  0
 20 21  1  0  0  0  0
 21 23  2  0  0  0  0
 22 24  2  0  0  0  0
 22 25  1  0  0  0  0
 24 30  1  0  0  0  0
 25 31  2  0  0  0  0
 26 27  1  0  0  0  0
 28 29  2  0  0  0  0
 28 33  1  0  0  0  0
 29 34  1  0  0  0  0
 30 32  2  0  0  0  0
 31 32  1  0  0  0  0
 33 35  2  0  0  0  0
 34 36  2  0  0  0  0
 35 36  1  0  0  0  0
M  END
> <PUBCHEM_COMPOUND_ID_TYPE>
0

> <PUBCHEM_TOTAL_CHARGE>
0

> <PUBCHEM_SUBSTANCE_ID>
310938841

> <PUBCHEM_SUBSTANCE_VERSION>
1

> <PUBCHEM_EXT_DATASOURCE_NAME>
4488

> <PUBCHEM_EXT_DATASOURCE_REGID>
SCHEMBL16116760

> <PUBCHEM_SUBSTANCE_COMMENT>
InChI=1S/C28H24BrN3O3S/c1-28(2)24(25(28)27(33)34)26-31-20-13-18(35-15-23-30-19-5-3-4-6-22(19)36-23)11-12-21(20)32(26)14-16-7-9-17(29)10-8-16/h3-13,24-25H,14-15H2,1-2H3,(H,33,34)/t24?,25-/m0/s1
InChIKey=MMLYXRWVZASXHB-BBMPLOMVSA-N

> <PUBCHEM_SUBSTANCE_SYNONYM>
SCHEMBL16116760

> <PUBCHEM_XREF_EXT_ID>
SCHEMBL16116760

> <PUBCHEM_EXT_DATASOURCE_URL>
https://www.surechembl.org/

> <PUBCHEM_EXT_SUBSTANCE_URL>
https://www.surechembl.org/chemical/SCHEMBL16116760

> <PUBCHEM_CID_ASSOCIATIONS>
117606241  1

> <PUBCHEM_COORDINATE_TYPE>
1
3

> <PUBCHEM_BONDANNOTATIONS>
11  13  5

$$$$
