310940608
  -OEChem-07211613022D

 35 39  0     1  0  0  0  0  0999 V2000
    2.0065    3.3876    0.0000 S   0  0  0  0  0  0  0  0  0  0  0  0
    2.6799   -1.0651    0.0000 O   0  0  0  0  0  0  0  0  0  0  0  0
   -1.5254   -1.1888    0.0000 O   0  0  0  0  0  0  0  0  0  0  0  0
    2.7761    0.4329    0.0000 O   0  0  0  0  0  0  0  0  0  0  0  0
   -2.8173   -3.1265    0.0000 O   0  0  0  0  0  0  0  0  0  0  0  0
    2.8173    3.1265    0.0000 O   0  0  0  0  0  0  0  0  0  0  0  0
    2.2539    4.1572    0.0000 O   0  0  0  0  0  0  0  0  0  0  0  0
    1.5529   -0.3779    0.0000 N   0  0  0  0  0  0  0  0  0  0  0  0
    1.3742   -2.8654    0.0000 N   0  0  0  0  0  0  0  0  0  0  0  0
   -2.4050   -3.8549    0.0000 N   0  0  0  0  0  0  0  0  0  0  0  0
    1.3468   -1.1338    0.0000 C   0  0  0  0  0  0  0  0  0  0  0  0
    0.6459   -1.5461    0.0000 C   0  0  0  0  0  0  0  0  0  0  0  0
    2.0752   -1.5461    0.0000 C   0  0  0  0  0  0  0  0  0  0  0  0
    0.6184   -2.3569    0.0000 C   0  0  0  0  0  0  0  0  0  0  0  0
    2.3363   -0.2680    0.0000 C   0  0  0  0  0  0  0  0  0  0  0  0
   -0.8108   -2.3707    0.0000 C   0  0  0  0  0  0  0  0  0  0  0  0
    0.9758    0.2817    0.0000 C   0  0  3  0  0  0  0  0  0  0  0  0
   -0.0962   -1.1475    0.0000 C   0  0  0  0  0  0  0  0  0  0  0  0
   -0.7971   -1.5461    0.0000 C   0  0  0  0  0  0  0  0  0  0  0  0
   -0.0962   -2.7692    0.0000 C   0  0  0  0  0  0  0  0  0  0  0  0
   -1.5254   -2.7830    0.0000 C   0  0  0  0  0  0  0  0  0  0  0  0
    2.0614   -2.3707    0.0000 C   0  0  0  0  0  0  0  0  0  0  0  0
    1.2231    1.0926    0.0000 C   0  0  0  0  0  0  0  0  0  0  0  0
   -2.2814   -2.4393    0.0000 C   0  0  0  0  0  0  0  0  0  0  0  0
   -1.6217   -3.6075    0.0000 C   0  0  0  0  0  0  0  0  0  0  0  0
    0.1787    0.1306    0.0000 C   0  0  0  0  0  0  0  0  0  0  0  0
    0.6734    1.6835    0.0000 C   0  0  0  0  0  0  0  0  0  0  0  0
    2.0339    1.2712    0.0000 C   0  0  0  0  0  0  0  0  0  0  0  0
    1.7316    2.6593    0.0000 C   0  0  0  0  0  0  0  0  0  0  0  0
    0.9345    2.4943    0.0000 C   0  0  0  0  0  0  0  0  0  0  0  0
    2.2814    2.0545    0.0000 C   0  0  0  0  0  0  0  0  0  0  0  0
   -2.4462   -1.6286    0.0000 C   0  0  0  0  0  0  0  0  0  0  0  0
   -0.9895   -4.1572    0.0000 C   0  0  0  0  0  0  0  0  0  0  0  0
   -1.5254   -0.2817    0.0000 C   0  0  0  0  0  0  0  0  0  0  0  0
    1.2231    3.7037    0.0000 C   0  0  0  0  0  0  0  0  0  0  0  0
  1  6  2  0  0  0  0
  1  7  2  0  0  0  0
  1 29  1  0  0  0  0
  1 35  1  0  0  0  0
  2 13  1  0  0  0  0
  2 15  1  0  0  0  0
  3 19  1  0  0  0  0
  3 34  1  0  0  0  0
  4 15  2  0  0  0  0
  5 10  1  0  0  0  0
  5 24  1  0  0  0  0
  8 11  1  0  0  0  0
  8 15  1  0  0  0  0
  8 17  1  0  0  0  0
  9 14  2  0  0  0  0
  9 22  1  0  0  0  0
 10 25  2  0  0  0  0
 11 12  2  0  0  0  0
 11 13  1  0  0  0  0
 12 14  1  0  0  0  0
 12 18  1  0  0  0  0
 13 22  2  0  0  0  0
 14 20  1  0  0  0  0
 16 19  1  0  0  0  0
 16 20  2  0  0  0  0
 16 21  1  0  0  0  0
 17 23  1  0  0  0  0
 17 26  1  6  0  0  0
 18 19  2  0  0  0  0
 21 24  2  0  0  0  0
 21 25  1  0  0  0  0
 23 27  2  0  0  0  0
 23 28  1  0  0  0  0
 24 32  1  0  0  0  0
 25 33  1  0  0  0  0
 27 30  1  0  0  0  0
 28 31  2  0  0  0  0
 29 30  2  0  0  0  0
 29 31  1  0  0  0  0
M  END
> <PUBCHEM_COMPOUND_ID_TYPE>
0

> <PUBCHEM_TOTAL_CHARGE>
0

> <PUBCHEM_SUBSTANCE_ID>
310940608

> <PUBCHEM_SUBSTANCE_VERSION>
1

> <PUBCHEM_EXT_DATASOURCE_NAME>
4488

> <PUBCHEM_EXT_DATASOURCE_REGID>
SCHEMBL16118562

> <PUBCHEM_SUBSTANCE_COMMENT>
InChI=1S/C25H23N3O6S/c1-13-23(15(3)34-27-13)19-10-20-18(11-21(19)32-4)24-22(12-26-20)33-25(29)28(24)14(2)16-6-8-17(9-7-16)35(5,30)31/h6-12,14H,1-5H3/t14-/m1/s1
InChIKey=UCDXISRHKLSNJD-CQSZACIVSA-N

> <PUBCHEM_SUBSTANCE_SYNONYM>
SCHEMBL16118562

> <PUBCHEM_XREF_EXT_ID>
SCHEMBL16118562

> <PUBCHEM_EXT_DATASOURCE_URL>
https://www.surechembl.org/

> <PUBCHEM_EXT_SUBSTANCE_URL>
https://www.surechembl.org/chemical/SCHEMBL16118562

> <PUBCHEM_CID_ASSOCIATIONS>
117607595  1

> <PUBCHEM_COORDINATE_TYPE>
1
3

> <PUBCHEM_BONDANNOTATIONS>
17  26  6

$$$$
