310937577
  -OEChem-07211613022D

 44 48  0     1  0  0  0  0  0999 V2000
    1.4289    6.3536    0.0000 F   0  0  0  0  0  0  0  0  0  0  0  0
    1.1270    5.2266    0.0000 F   0  0  0  0  0  0  0  0  0  0  0  0
    0.3020    6.6555    0.0000 F   0  0  0  0  0  0  0  0  0  0  0  0
   -2.8579    6.3536    0.0000 F   0  0  0  0  0  0  0  0  0  0  0  0
   -2.5559    5.2266    0.0000 F   0  0  0  0  0  0  0  0  0  0  0  0
   -1.7309    6.6555    0.0000 F   0  0  0  0  0  0  0  0  0  0  0  0
   -0.0470    2.9812    0.0000 O   0  0  0  0  0  0  0  0  0  0  0  0
    0.1830    1.5291    0.0000 O   0  0  0  0  0  0  0  0  0  0  0  0
   -4.0365   -1.8081    0.0000 O   0  0  0  0  0  0  0  0  0  0  0  0
   -1.1270    2.1965    0.0000 N   0  0  0  0  0  0  0  0  0  0  0  0
   -2.5817    0.1942    0.0000 N   0  0  0  0  0  0  0  0  0  0  0  0
   -1.4257   -0.6457    0.0000 N   0  0  0  0  0  0  0  0  0  0  0  0
   -0.7145    3.4661    0.0000 C   0  0  3  0  0  0  0  0  0  0  0  0
   -1.3819    2.9812    0.0000 C   0  0  3  0  0  0  0  0  0  0  0  0
   -0.7145    4.2911    0.0000 C   0  0  0  0  0  0  0  0  0  0  0  0
   -0.3020    2.1965    0.0000 C   0  0  0  0  0  0  0  0  0  0  0  0
    0.0000    5.5286    0.0000 C   0  0  0  0  0  0  0  0  0  0  0  0
   -1.4289    5.5286    0.0000 C   0  0  0  0  0  0  0  0  0  0  0  0
   -1.2763    0.7754    0.0000 C   0  0  0  0  0  0  0  0  0  0  0  0
   -1.6119    1.5291    0.0000 C   0  0  0  0  0  0  0  0  0  0  0  0
   -1.4289    4.7036    0.0000 C   0  0  0  0  0  0  0  0  0  0  0  0
    0.0000    4.7036    0.0000 C   0  0  0  0  0  0  0  0  0  0  0  0
   -1.7613    0.1080    0.0000 C   0  0  0  0  0  0  0  0  0  0  0  0
   -0.7145    5.9411    0.0000 C   0  0  0  0  0  0  0  0  0  0  0  0
    0.7145    5.9411    0.0000 C   0  0  0  0  0  0  0  0  0  0  0  0
   -2.1434    5.9411    0.0000 C   0  0  0  0  0  0  0  0  0  0  0  0
   -0.4559    0.6892    0.0000 C   0  0  0  0  0  0  0  0  0  0  0  0
   -0.1203   -0.0645    0.0000 C   0  0  0  0  0  0  0  0  0  0  0  0
   -2.1665    3.2361    0.0000 C   0  0  0  0  0  0  0  0  0  0  0  0
   -0.6052   -0.7319    0.0000 C   0  0  0  0  0  0  0  0  0  0  0  0
   -3.0667   -0.4732    0.0000 C   0  0  0  0  0  0  0  0  0  0  0  0
    0.7002   -0.1507    0.0000 C   0  0  0  0  0  0  0  0  0  0  0  0
   -2.9173    0.9479    0.0000 C   0  0  0  0  0  0  0  0  0  0  0  0
    1.1851    0.5167    0.0000 C   0  0  0  0  0  0  0  0  0  0  0  0
   -3.8871   -0.3870    0.0000 C   0  0  0  0  0  0  0  0  0  0  0  0
   -2.7311   -1.2269    0.0000 C   0  0  0  0  0  0  0  0  0  0  0  0
    1.0357   -0.9044    0.0000 C   0  0  0  0  0  0  0  0  0  0  0  0
    2.0056    0.4305    0.0000 C   0  0  0  0  0  0  0  0  0  0  0  0
    1.8562   -0.9906    0.0000 C   0  0  0  0  0  0  0  0  0  0  0  0
   -4.3721   -1.0544    0.0000 C   0  0  0  0  0  0  0  0  0  0  0  0
   -3.2160   -1.8943    0.0000 C   0  0  0  0  0  0  0  0  0  0  0  0
    2.3411   -0.3232    0.0000 C   0  0  0  0  0  0  0  0  0  0  0  0
   -2.4324    1.6153    0.0000 C   0  0  0  0  0  0  0  0  0  0  0  0
    2.4905    1.0979    0.0000 C   0  0  0  0  0  0  0  0  0  0  0  0
  1 25  1  0  0  0  0
  2 25  1  0  0  0  0
  3 25  1  0  0  0  0
  4 26  1  0  0  0  0
  5 26  1  0  0  0  0
  6 26  1  0  0  0  0
  7 13  1  0  0  0  0
  7 16  1  0  0  0  0
  8 16  2  0  0  0  0
  9 40  1  0  0  0  0
  9 41  1  0  0  0  0
 10 14  1  0  0  0  0
 10 16  1  0  0  0  0
 10 20  1  0  0  0  0
 11 23  1  0  0  0  0
 11 31  1  0  0  0  0
 11 33  1  0  0  0  0
 12 23  2  0  0  0  0
 12 30  1  0  0  0  0
 13 14  1  0  0  0  0
 13 15  1  1  0  0  0
 14 29  1  1  0  0  0
 15 21  2  0  0  0  0
 15 22  1  0  0  0  0
 17 22  2  0  0  0  0
 17 24  1  0  0  0  0
 17 25  1  0  0  0  0
 18 21  1  0  0  0  0
 18 24  2  0  0  0  0
 18 26  1  0  0  0  0
 19 20  1  0  0  0  0
 19 23  1  0  0  0  0
 19 27  2  0  0  0  0
 27 28  1  0  0  0  0
 28 30  2  0  0  0  0
 28 32  1  0  0  0  0
 31 35  1  0  0  0  0
 31 36  1  0  0  0  0
 32 34  2  0  0  0  0
 32 37  1  0  0  0  0
 33 43  1  0  0  0  0
 34 38  1  0  0  0  0
 35 40  1  0  0  0  0
 36 41  1  0  0  0  0
 37 39  2  0  0  0  0
 38 42  2  0  0  0  0
 38 44  1  0  0  0  0
 39 42  1  0  0  0  0
M  END
> <PUBCHEM_COMPOUND_ID_TYPE>
0

> <PUBCHEM_TOTAL_CHARGE>
0

> <PUBCHEM_SUBSTANCE_ID>
310937577

> <PUBCHEM_SUBSTANCE_VERSION>
1

> <PUBCHEM_EXT_DATASOURCE_NAME>
4488

> <PUBCHEM_EXT_DATASOURCE_REGID>
SCHEMBL16115357

> <PUBCHEM_SUBSTANCE_COMMENT>
InChI=1S/C32H33F6N3O3/c1-4-40(27-8-10-43-11-9-27)29-24(13-23(17-39-29)21-7-5-6-19(2)12-21)18-41-20(3)28(44-30(41)42)22-14-25(31(33,34)35)16-26(15-22)32(36,37)38/h5-7,12-17,20,27-28H,4,8-11,18H2,1-3H3/t20-,28-/m0/s1
InChIKey=ORBNXDBXKZPOAF-MMTVBGGISA-N

> <PUBCHEM_SUBSTANCE_SYNONYM>
SCHEMBL16115357

> <PUBCHEM_XREF_EXT_ID>
SCHEMBL16115357

> <PUBCHEM_EXT_DATASOURCE_URL>
https://www.surechembl.org/

> <PUBCHEM_EXT_SUBSTANCE_URL>
https://www.surechembl.org/chemical/SCHEMBL16115357

> <PUBCHEM_CID_ASSOCIATIONS>
117605287  1

> <PUBCHEM_COORDINATE_TYPE>
1
3

> <PUBCHEM_BONDANNOTATIONS>
13  15  5
14  29  5

$$$$
