310929342
  -OEChem-07211613022D

 63 68  0     0  0  0  0  0  0999 V2000
    0.8250   -4.1249    0.0000 S   0  0  0  0  0  0  0  0  0  0  0  0
    2.2274   -4.1249    0.0000 O   0  0  0  0  0  0  0  0  0  0  0  0
    5.0324   -6.5999    0.0000 O   0  0  0  0  0  0  0  0  0  0  0  0
    1.7324   -4.1249    0.0000 O   0  0  0  0  0  0  0  0  0  0  0  0
    0.0000   -4.1249    0.0000 O   0  0  0  0  0  0  0  0  0  0  0  0
    4.3724   -2.0624    0.0000 O   0  0  0  0  0  0  0  0  0  0  0  0
    0.8250   -6.5174    0.0000 O   0  0  0  0  0  0  0  0  0  0  0  0
    4.8674  -11.5498    0.0000 O   0  0  0  0  0  0  0  0  0  0  0  0
    3.5474   -8.9923    0.0000 O   0  0  0  0  0  0  0  0  0  0  0  0
    6.9299  -11.9623    0.0000 O   0  0  0  0  0  0  0  0  0  0  0  0
    7.6723  -14.1072    0.0000 O   0  0  0  0  0  0  0  0  0  0  0  0
    6.1874  -15.6746    0.0000 O   0  0  0  0  0  0  0  0  0  0  0  0
    0.8250   -3.2999    0.0000 N   0  0  0  0  0  0  0  0  0  0  0  0
    3.6299   -3.2999    0.0000 N   0  0  0  0  0  0  0  0  0  0  0  0
    0.8250   -4.8674    0.0000 N   0  0  0  0  0  0  0  0  0  0  0  0
    5.0324   -3.2999    0.0000 N   0  0  0  0  0  0  0  0  0  0  0  0
    5.6924   -7.8373    0.0000 N   0  0  0  0  0  0  0  0  0  0  0  0
    6.3524   -9.0748    0.0000 N   0  0  0  0  0  0  0  0  0  0  0  0
    7.0949   -7.8373    0.0000 N   0  0  0  0  0  0  0  0  0  0  0  0
    1.4849   -2.8874    0.0000 C   0  0  0  0  0  0  0  0  0  0  0  0
    2.2274   -3.2999    0.0000 C   0  0  0  0  0  0  0  0  0  0  0  0
    2.8874   -2.8874    0.0000 C   0  0  0  0  0  0  0  0  0  0  0  0
    2.2274   -1.6499    0.0000 C   0  0  0  0  0  0  0  0  0  0  0  0
    1.4849   -2.0624    0.0000 C   0  0  0  0  0  0  0  0  0  0  0  0
    2.9699   -2.0624    0.0000 C   0  0  0  0  0  0  0  0  0  0  0  0
    4.3724   -4.5374    0.0000 C   0  0  0  0  0  0  0  0  0  0  0  0
    2.2274   -0.8250    0.0000 C   0  0  0  0  0  0  0  0  0  0  0  0
    4.3724   -5.3624    0.0000 C   0  0  0  0  0  0  0  0  0  0  0  0
    5.0324   -4.1249    0.0000 C   0  0  0  0  0  0  0  0  0  0  0  0
    5.0324   -5.7749    0.0000 C   0  0  0  0  0  0  0  0  0  0  0  0
    4.3724   -2.8874    0.0000 C   0  0  0  0  0  0  0  0  0  0  0  0
    5.7749   -4.5374    0.0000 C   0  0  0  0  0  0  0  0  0  0  0  0
    5.7749   -5.3624    0.0000 C   0  0  0  0  0  0  0  0  0  0  0  0
    3.6299   -4.1249    0.0000 C   0  0  0  0  0  0  0  0  0  0  0  0
    3.6299   -5.7749    0.0000 C   0  0  0  0  0  0  0  0  0  0  0  0
    5.6924   -7.0124    0.0000 C   0  0  0  0  0  0  0  0  0  0  0  0
    1.4849   -5.3624    0.0000 C   0  0  0  0  0  0  0  0  0  0  0  0
    0.0825   -5.3624    0.0000 C   0  0  0  0  0  0  0  0  0  0  0  0
    3.0524   -0.8250    0.0000 C   0  0  0  0  0  0  0  0  0  0  0  0
    2.2274    0.0000    0.0000 C   0  0  0  0  0  0  0  0  0  0  0  0
    1.4025   -0.8250    0.0000 C   0  0  0  0  0  0  0  0  0  0  0  0
    3.0524   -4.6199    0.0000 C   0  0  0  0  0  0  0  0  0  0  0  0
    2.8874   -5.2799    0.0000 C   0  0  0  0  0  0  0  0  0  0  0  0
    6.3524   -8.2498    0.0000 C   0  0  0  0  0  0  0  0  0  0  0  0
    2.9699   -4.5374    0.0000 C   0  0  0  0  0  0  0  0  0  0  0  0
    6.4349   -6.5999    0.0000 C   0  0  0  0  0  0  0  0  0  0  0  0
    0.0825   -6.1874    0.0000 C   0  0  0  0  0  0  0  0  0  0  0  0
    1.4849   -6.1874    0.0000 C   0  0  0  0  0  0  0  0  0  0  0  0
    5.6099   -9.4873    0.0000 C   0  0  0  0  0  0  0  0  0  0  0  0
    7.0949   -7.0949    0.0000 C   0  0  0  0  0  0  0  0  0  0  0  0
    5.6099  -10.3123    0.0000 C   0  0  0  0  0  0  0  0  0  0  0  0
    4.9499   -9.0748    0.0000 C   0  0  0  0  0  0  0  0  0  0  0  0
    4.8674  -10.7248    0.0000 C   0  0  0  0  0  0  0  0  0  0  0  0
    4.2074   -9.4048    0.0000 C   0  0  0  0  0  0  0  0  0  0  0  0
    4.2074  -10.2298    0.0000 C   0  0  0  0  0  0  0  0  0  0  0  0
    5.5274  -11.9623    0.0000 C   0  0  0  0  0  0  0  0  0  0  0  0
    2.8049   -9.4048    0.0000 C   0  0  0  0  0  0  0  0  0  0  0  0
    6.2699  -11.5498    0.0000 C   0  0  0  0  0  0  0  0  0  0  0  0
    6.9299  -12.7872    0.0000 C   0  0  0  0  0  0  0  0  0  0  0  0
    7.6723  -13.2822    0.0000 C   0  0  0  0  0  0  0  0  0  0  0  0
    6.9299  -14.4372    0.0000 C   0  0  0  0  0  0  0  0  0  0  0  0
    6.8474  -15.2622    0.0000 C   0  0  0  0  0  0  0  0  0  0  0  0
    6.1874  -16.4996    0.0000 C   0  0  0  0  0  0  0  0  0  0  0  0
  1  4  2  0  0  0  0
  1  5  2  0  0  0  0
  1 13  1  0  0  0  0
  1 15  1  0  0  0  0
  2 21  1  0  0  0  0
  2 45  1  0  0  0  0
  3 30  1  0  0  0  0
  3 36  1  0  0  0  0
  6 31  2  0  0  0  0
  7 47  1  0  0  0  0
  7 48  1  0  0  0  0
  8 53  1  0  0  0  0
  8 56  1  0  0  0  0
  9 54  1  0  0  0  0
  9 57  1  0  0  0  0
 10 58  1  0  0  0  0
 10 59  1  0  0  0  0
 11 60  1  0  0  0  0
 11 61  1  0  0  0  0
 12 62  1  0  0  0  0
 12 63  1  0  0  0  0
 13 20  1  0  0  0  0
 14 22  1  0  0  0  0
 14 31  1  0  0  0  0
 15 37  1  0  0  0  0
 15 38  1  0  0  0  0
 16 29  1  0  0  0  0
 16 31  1  0  0  0  0
 17 36  2  0  0  0  0
 17 44  1  0  0  0  0
 18 44  1  0  0  0  0
 18 49  1  0  0  0  0
 19 44  2  0  0  0  0
 19 50  1  0  0  0  0
 20 21  1  0  0  0  0
 20 24  2  0  0  0  0
 21 22  2  0  0  0  0
 22 25  1  0  0  0  0
 23 24  1  0  0  0  0
 23 25  2  0  0  0  0
 23 27  1  0  0  0  0
 26 28  2  0  0  0  0
 26 29  1  0  0  0  0
 26 34  1  0  0  0  0
 27 39  1  0  0  0  0
 27 40  1  0  0  0  0
 27 41  1  0  0  0  0
 28 30  1  0  0  0  0
 28 35  1  0  0  0  0
 29 32  2  0  0  0  0
 30 33  2  0  0  0  0
 32 33  1  0  0  0  0
 34 42  2  0  0  0  0
 35 43  2  0  0  0  0
 36 46  1  0  0  0  0
 37 48  1  0  0  0  0
 38 47  1  0  0  0  0
 42 43  1  0  0  0  0
 46 50  2  0  0  0  0
 49 51  2  0  0  0  0
 49 52  1  0  0  0  0
 51 53  1  0  0  0  0
 52 54  2  0  0  0  0
 53 55  2  0  0  0  0
 54 55  1  0  0  0  0
 56 58  1  0  0  0  0
 59 60  1  0  0  0  0
 61 62  1  0  0  0  0
M  END
> <PUBCHEM_COMPOUND_ID_TYPE>
0

> <PUBCHEM_TOTAL_CHARGE>
0

> <PUBCHEM_SUBSTANCE_ID>
310929342

> <PUBCHEM_SUBSTANCE_VERSION>
1

> <PUBCHEM_EXT_DATASOURCE_NAME>
4488

> <PUBCHEM_EXT_DATASOURCE_REGID>
SCHEMBL16106509

> <PUBCHEM_SUBSTANCE_COMMENT>
InChI=1S/C44H55N7O11S/c1-44(2,3)30-25-37(41(57-6)38(26-30)50-63(53,54)51-15-17-58-18-16-51)48-43(52)47-36-11-12-39(35-10-8-7-9-34(35)36)62-40-13-14-45-42(49-40)46-31-27-32(56-5)29-33(28-31)61-24-23-60-22-21-59-20-19-55-4/h7-14,25-29,50H,15-24H2,1-6H3,(H,45,46,49)(H2,47,48,52)
InChIKey=HARDADFQDKOPFH-UHFFFAOYSA-N

> <PUBCHEM_SUBSTANCE_SYNONYM>
SCHEMBL16106509

> <PUBCHEM_XREF_EXT_ID>
SCHEMBL16106509

> <PUBCHEM_EXT_DATASOURCE_URL>
https://www.surechembl.org/

> <PUBCHEM_EXT_SUBSTANCE_URL>
https://www.surechembl.org/chemical/SCHEMBL16106509

> <PUBCHEM_CID_ASSOCIATIONS>
86272596  1

> <PUBCHEM_COORDINATE_TYPE>
1
3

$$$$
