310935589
  -OEChem-07211613022D

 38 41  0     0  0  0  0  0  0999 V2000
    0.8090   -8.9885    0.0000 F   0  0  0  0  0  0  0  0  0  0  0  0
    6.9661   -4.0898    0.0000 F   0  0  0  0  0  0  0  0  0  0  0  0
    6.2919   -2.8763    0.0000 F   0  0  0  0  0  0  0  0  0  0  0  0
    6.9661   -3.2808    0.0000 F   0  0  0  0  0  0  0  0  0  0  0  0
    3.2808   -6.0672    0.0000 O   0  0  0  0  0  0  0  0  0  0  0  0
    4.8538   -3.6853    0.0000 O   0  0  0  0  0  0  0  0  0  0  0  0
    1.0786   -4.4942    0.0000 O   0  0  0  0  0  0  0  0  0  0  0  0
    3.4156   -0.4045    0.0000 O   0  0  0  0  0  0  0  0  0  0  0  0
    5.5280   -1.6179    0.0000 O   0  0  0  0  0  0  0  0  0  0  0  0
    4.8538   -0.4045    0.0000 O   0  0  0  0  0  0  0  0  0  0  0  0
    0.8090   -5.8425    0.0000 N   0  0  0  0  0  0  0  0  0  0  0  0
    2.7415   -4.8987    0.0000 C   0  0  0  0  0  0  0  0  0  0  0  0
    2.1573   -5.4380    0.0000 C   0  0  0  0  0  0  0  0  0  0  0  0
    3.4606   -5.3032    0.0000 C   0  0  0  0  0  0  0  0  0  0  0  0
    2.4718   -6.1572    0.0000 C   0  0  0  0  0  0  0  0  0  0  0  0
    3.4156   -3.6853    0.0000 C   0  0  0  0  0  0  0  0  0  0  0  0
    2.7415   -4.0448    0.0000 C   0  0  0  0  0  0  0  0  0  0  0  0
    4.1797   -4.0898    0.0000 C   0  0  0  0  0  0  0  0  0  0  0  0
    4.1797   -4.8987    0.0000 C   0  0  0  0  0  0  0  0  0  0  0  0
    2.0673   -6.8762    0.0000 C   0  0  0  0  0  0  0  0  0  0  0  0
    1.3483   -5.2583    0.0000 C   0  0  0  0  0  0  0  0  0  0  0  0
    3.4156   -2.8314    0.0000 C   0  0  0  0  0  0  0  0  0  0  0  0
    4.1347   -2.4269    0.0000 C   0  0  0  0  0  0  0  0  0  0  0  0
    4.1347   -1.6179    0.0000 C   0  0  0  0  0  0  0  0  0  0  0  0
    2.7415   -2.4269    0.0000 C   0  0  0  0  0  0  0  0  0  0  0  0
    2.4718   -7.5953    0.0000 C   0  0  0  0  0  0  0  0  0  0  0  0
    1.2584   -6.8762    0.0000 C   0  0  0  0  0  0  0  0  0  0  0  0
    3.4156   -1.2134    0.0000 C   0  0  0  0  0  0  0  0  0  0  0  0
    2.7415   -1.6179    0.0000 C   0  0  0  0  0  0  0  0  0  0  0  0
    4.8538   -1.2134    0.0000 C   0  0  0  0  0  0  0  0  0  0  0  0
    5.5729   -4.0898    0.0000 C   0  0  0  0  0  0  0  0  0  0  0  0
    2.0673   -8.3144    0.0000 C   0  0  0  0  0  0  0  0  0  0  0  0
    0.8539   -7.5953    0.0000 C   0  0  0  0  0  0  0  0  0  0  0  0
    1.2584   -8.2694    0.0000 C   0  0  0  0  0  0  0  0  0  0  0  0
    6.2919   -3.6853    0.0000 C   0  0  0  0  0  0  0  0  0  0  0  0
    0.0000   -5.6627    0.0000 C   0  0  0  0  0  0  0  0  0  0  0  0
    2.7415    0.0000    0.0000 C   0  0  0  0  0  0  0  0  0  0  0  0
    6.2470   -1.2134    0.0000 C   0  0  0  0  0  0  0  0  0  0  0  0
  1 34  1  0  0  0  0
  2 35  1  0  0  0  0
  3 35  1  0  0  0  0
  4 35  1  0  0  0  0
  5 14  1  0  0  0  0
  5 15  1  0  0  0  0
  6 18  1  0  0  0  0
  6 31  1  0  0  0  0
  7 21  2  0  0  0  0
  8 28  1  0  0  0  0
  8 37  1  0  0  0  0
  9 30  1  0  0  0  0
  9 38  1  0  0  0  0
 10 30  2  0  0  0  0
 11 21  1  0  0  0  0
 11 36  1  0  0  0  0
 12 13  1  0  0  0  0
 12 14  2  0  0  0  0
 12 17  1  0  0  0  0
 13 15  2  0  0  0  0
 13 21  1  0  0  0  0
 14 19  1  0  0  0  0
 15 20  1  0  0  0  0
 16 17  2  0  0  0  0
 16 18  1  0  0  0  0
 16 22  1  0  0  0  0
 18 19  2  0  0  0  0
 20 26  2  0  0  0  0
 20 27  1  0  0  0  0
 22 23  2  0  0  0  0
 22 25  1  0  0  0  0
 23 24  1  0  0  0  0
 24 28  2  0  0  0  0
 24 30  1  0  0  0  0
 25 29  2  0  0  0  0
 26 32  1  0  0  0  0
 27 33  2  0  0  0  0
 28 29  1  0  0  0  0
 31 35  1  0  0  0  0
 32 34  2  0  0  0  0
 33 34  1  0  0  0  0
M  END
> <PUBCHEM_COMPOUND_ID_TYPE>
0

> <PUBCHEM_TOTAL_CHARGE>
0

> <PUBCHEM_SUBSTANCE_ID>
310935589

> <PUBCHEM_SUBSTANCE_VERSION>
1

> <PUBCHEM_EXT_DATASOURCE_NAME>
4488

> <PUBCHEM_EXT_DATASOURCE_REGID>
SCHEMBL16113162

> <PUBCHEM_SUBSTANCE_COMMENT>
InChI=1S/C27H21F4NO6/c1-32-25(33)23-18-11-17(15-6-9-20(35-2)19(10-15)26(34)36-3)21(37-13-27(29,30)31)12-22(18)38-24(23)14-4-7-16(28)8-5-14/h4-12H,13H2,1-3H3,(H,32,33)
InChIKey=NPONCNXXXPOBLN-UHFFFAOYSA-N

> <PUBCHEM_SUBSTANCE_SYNONYM>
SCHEMBL16113162

> <PUBCHEM_XREF_EXT_ID>
SCHEMBL16113162

> <PUBCHEM_EXT_DATASOURCE_URL>
https://www.surechembl.org/

> <PUBCHEM_EXT_SUBSTANCE_URL>
https://www.surechembl.org/chemical/SCHEMBL16113162

> <PUBCHEM_CID_ASSOCIATIONS>
117603610  1

> <PUBCHEM_COORDINATE_TYPE>
1
3

$$$$
