310933301
  -OEChem-07211613022D

 47 55  0     0  0  0  0  0  0999 V2000
    0.0000    0.8772    0.0000 S   0  0  0  0  0  0  0  0  0  0  0  0
    2.4942    3.7023    0.0000 N   0  0  0  0  0  0  0  0  0  0  0  0
   -0.2418    4.7570    0.0000 C   0  0  0  0  0  0  0  0  0  0  0  0
    0.5832    4.7570    0.0000 C   0  0  0  0  0  0  0  0  0  0  0  0
    0.8381    5.5416    0.0000 C   0  0  0  0  0  0  0  0  0  0  0  0
   -0.4968    5.5416    0.0000 C   0  0  0  0  0  0  0  0  0  0  0  0
    0.1707    6.0265    0.0000 C   0  0  0  0  0  0  0  0  0  0  0  0
    1.1351    4.1439    0.0000 C   0  0  0  0  0  0  0  0  0  0  0  0
    1.9421    4.3154    0.0000 C   0  0  0  0  0  0  0  0  0  0  0  0
    1.6450    5.7131    0.0000 C   0  0  0  0  0  0  0  0  0  0  0  0
   -1.2505    5.8772    0.0000 C   0  0  0  0  0  0  0  0  0  0  0  0
    0.0844    6.8470    0.0000 C   0  0  0  0  0  0  0  0  0  0  0  0
    2.1971    5.1000    0.0000 C   0  0  0  0  0  0  0  0  0  0  0  0
    0.6674    0.3923    0.0000 C   0  0  0  0  0  0  0  0  0  0  0  0
    0.4125   -0.3923    0.0000 C   0  0  0  0  0  0  0  0  0  0  0  0
   -0.3281    3.9365    0.0000 C   0  0  0  0  0  0  0  0  0  0  0  0
   -0.9955    4.4214    0.0000 C   0  0  0  0  0  0  0  0  0  0  0  0
    2.2392    2.9177    0.0000 C   0  0  0  0  0  0  0  0  0  0  0  0
    1.4744    0.5638    0.0000 C   0  0  0  0  0  0  0  0  0  0  0  0
   -0.4125   -0.3923    0.0000 C   0  0  0  0  0  0  0  0  0  0  0  0
    3.3011    3.8738    0.0000 C   0  0  0  0  0  0  0  0  0  0  0  0
   -0.6674    0.3923    0.0000 C   0  0  0  0  0  0  0  0  0  0  0  0
    1.7294    1.3485    0.0000 C   0  0  0  0  0  0  0  0  0  0  0  0
   -1.3367    6.6976    0.0000 C   0  0  0  0  0  0  0  0  0  0  0  0
   -0.6693    7.1826    0.0000 C   0  0  0  0  0  0  0  0  0  0  0  0
    1.4323    2.7462    0.0000 C   0  0  0  0  0  0  0  0  0  0  0  0
    2.7913    2.3046    0.0000 C   0  0  0  0  0  0  0  0  0  0  0  0
    0.9645   -1.0054    0.0000 C   0  0  0  0  0  0  0  0  0  0  0  0
    2.0264   -0.0493    0.0000 C   0  0  0  0  0  0  0  0  0  0  0  0
    1.1773    1.9616    0.0000 C   0  0  0  0  0  0  0  0  0  0  0  0
    2.5363    1.5200    0.0000 C   0  0  0  0  0  0  0  0  0  0  0  0
   -0.9645   -1.0054    0.0000 C   0  0  0  0  0  0  0  0  0  0  0  0
    3.5561    4.6585    0.0000 C   0  0  0  0  0  0  0  0  0  0  0  0
    3.8532    3.2608    0.0000 C   0  0  0  0  0  0  0  0  0  0  0  0
   -1.4744    0.5638    0.0000 C   0  0  0  0  0  0  0  0  0  0  0  0
    1.7715   -0.8339    0.0000 C   0  0  0  0  0  0  0  0  0  0  0  0
    4.9151    4.2169    0.0000 C   0  0  0  0  0  0  0  0  0  0  0  0
   -1.7715   -0.8339    0.0000 C   0  0  0  0  0  0  0  0  0  0  0  0
    4.3631    4.8300    0.0000 C   0  0  0  0  0  0  0  0  0  0  0  0
    4.6601    3.4323    0.0000 C   0  0  0  0  0  0  0  0  0  0  0  0
   -2.0264   -0.0493    0.0000 C   0  0  0  0  0  0  0  0  0  0  0  0
    5.7221    4.3884    0.0000 C   0  0  0  0  0  0  0  0  0  0  0  0
    6.2741    3.7753    0.0000 C   0  0  0  0  0  0  0  0  0  0  0  0
    5.9770    5.1730    0.0000 C   0  0  0  0  0  0  0  0  0  0  0  0
    7.0810    3.9469    0.0000 C   0  0  0  0  0  0  0  0  0  0  0  0
    6.7840    5.3446    0.0000 C   0  0  0  0  0  0  0  0  0  0  0  0
    7.3360    4.7315    0.0000 C   0  0  0  0  0  0  0  0  0  0  0  0
  1 14  1  0  0  0  0
  1 22  1  0  0  0  0
  2  9  1  0  0  0  0
  2 18  1  0  0  0  0
  2 21  1  0  0  0  0
  3  4  1  0  0  0  0
  3  6  1  0  0  0  0
  3 16  1  0  0  0  0
  3 17  1  0  0  0  0
  4  5  2  0  0  0  0
  4  8  1  0  0  0  0
  5  7  1  0  0  0  0
  5 10  1  0  0  0  0
  6  7  2  0  0  0  0
  6 11  1  0  0  0  0
  7 12  1  0  0  0  0
  8  9  2  0  0  0  0
  9 13  1  0  0  0  0
 10 13  2  0  0  0  0
 11 24  2  0  0  0  0
 12 25  2  0  0  0  0
 14 15  1  0  0  0  0
 14 19  2  0  0  0  0
 15 20  1  0  0  0  0
 15 28  2  0  0  0  0
 18 26  2  0  0  0  0
 18 27  1  0  0  0  0
 19 23  1  0  0  0  0
 19 29  1  0  0  0  0
 20 22  1  0  0  0  0
 20 32  2  0  0  0  0
 21 33  2  0  0  0  0
 21 34  1  0  0  0  0
 22 35  2  0  0  0  0
 23 30  2  0  0  0  0
 23 31  1  0  0  0  0
 24 25  1  0  0  0  0
 26 30  1  0  0  0  0
 27 31  2  0  0  0  0
 28 36  1  0  0  0  0
 29 36  2  0  0  0  0
 32 38  1  0  0  0  0
 33 39  1  0  0  0  0
 34 40  2  0  0  0  0
 35 41  1  0  0  0  0
 37 39  2  0  0  0  0
 37 40  1  0  0  0  0
 37 42  1  0  0  0  0
 38 41  2  0  0  0  0
 42 43  2  0  0  0  0
 42 44  1  0  0  0  0
 43 45  1  0  0  0  0
 44 46  2  0  0  0  0
 45 47  2  0  0  0  0
 46 47  1  0  0  0  0
M  END
> <PUBCHEM_COMPOUND_ID_TYPE>
0

> <PUBCHEM_TOTAL_CHARGE>
0

> <PUBCHEM_SUBSTANCE_ID>
310933301

> <PUBCHEM_SUBSTANCE_VERSION>
1

> <PUBCHEM_EXT_DATASOURCE_NAME>
4488

> <PUBCHEM_EXT_DATASOURCE_REGID>
SCHEMBL16110712

> <PUBCHEM_SUBSTANCE_COMMENT>
InChI=1S/C45H33NS/c1-45(2)41-17-8-6-13-37(41)38-28-27-35(29-42(38)45)46(33-23-19-31(20-24-33)30-11-4-3-5-12-30)34-25-21-32(22-26-34)36-15-10-16-40-39-14-7-9-18-43(39)47-44(36)40/h3-29H,1-2H3
InChIKey=YGJSZDLENCSIPY-UHFFFAOYSA-N

> <PUBCHEM_SUBSTANCE_SYNONYM>
SCHEMBL16110712

> <PUBCHEM_XREF_EXT_ID>
SCHEMBL16110712

> <PUBCHEM_EXT_DATASOURCE_URL>
https://www.surechembl.org/

> <PUBCHEM_EXT_SUBSTANCE_URL>
https://www.surechembl.org/chemical/SCHEMBL16110712

> <PUBCHEM_CID_ASSOCIATIONS>
117601720  1

> <PUBCHEM_COORDINATE_TYPE>
1
3

$$$$
