310930597
  -OEChem-07211613022D

 31 33  0     1  0  0  0  0  0999 V2000
    2.9056   -6.4569    0.0000 Cl  0  0  0  0  0  0  0  0  0  0  0  0
    6.2632   -2.1631    0.0000 S   0  0  0  0  0  0  0  0  0  0  0  0
    5.3915   -0.7103    0.0000 F   0  0  0  0  0  0  0  0  0  0  0  0
    3.7773   -3.5836    0.0000 F   0  0  0  0  0  0  0  0  0  0  0  0
    2.9056   -2.1631    0.0000 O   0  0  0  0  0  0  0  0  0  0  0  0
    6.2632   -3.0671    0.0000 O   0  0  0  0  0  0  0  0  0  0  0  0
    6.2632   -1.3559    0.0000 O   0  0  0  0  0  0  0  0  0  0  0  0
    7.0703   -2.1631    0.0000 N   0  0  0  0  0  0  0  0  0  0  0  0
    0.4197   -2.1631    0.0000 N   0  0  0  0  0  0  0  0  0  0  0  0
    5.4238   -2.1631    0.0000 C   0  0  0  0  0  0  0  0  0  0  0  0
    5.0041   -1.4528    0.0000 C   0  0  0  0  0  0  0  0  0  0  0  0
    3.7450   -2.1631    0.0000 C   0  0  0  0  0  0  0  0  0  0  0  0
    4.1647   -2.8733    0.0000 C   0  0  0  0  0  0  0  0  0  0  0  0
    5.0041   -2.8733    0.0000 C   0  0  0  0  0  0  0  0  0  0  0  0
    4.1647   -1.4528    0.0000 C   0  0  0  0  0  0  0  0  0  0  0  0
    1.2591   -3.5836    0.0000 C   0  0  3  0  0  0  0  0  0  0  0  0
    1.6788   -2.8733    0.0000 C   0  0  3  0  0  0  0  0  0  0  0  0
    1.6465   -4.3262    0.0000 C   0  0  0  0  0  0  0  0  0  0  0  0
    2.4860   -2.8733    0.0000 C   0  0  0  0  0  0  0  0  0  0  0  0
    0.4197   -3.5836    0.0000 C   0  0  0  0  0  0  0  0  0  0  0  0
    1.2591   -2.1631    0.0000 C   0  0  0  0  0  0  0  0  0  0  0  0
    7.4578   -1.4205    0.0000 C   0  0  0  0  0  0  0  0  0  0  0  0
    2.4860   -4.3262    0.0000 C   0  0  0  0  0  0  0  0  0  0  0  0
    1.2591   -5.0364    0.0000 C   0  0  0  0  0  0  0  0  0  0  0  0
    0.0000   -2.8733    0.0000 C   0  0  0  0  0  0  0  0  0  0  0  0
    2.4860   -5.7467    0.0000 C   0  0  0  0  0  0  0  0  0  0  0  0
    7.0703   -0.7103    0.0000 C   0  0  0  0  0  0  0  0  0  0  0  0
    2.9056   -5.0364    0.0000 C   0  0  0  0  0  0  0  0  0  0  0  0
    1.6788   -5.7467    0.0000 C   0  0  0  0  0  0  0  0  0  0  0  0
    7.4578    0.0000    0.0000 C   0  0  0  0  0  0  0  0  0  0  0  0
    6.2310   -0.7103    0.0000 C   0  0  0  0  0  0  0  0  0  0  0  0
  1 26  1  0  0  0  0
  2  6  2  0  0  0  0
  2  7  2  0  0  0  0
  2  8  1  0  0  0  0
  2 10  1  0  0  0  0
  3 11  1  0  0  0  0
  4 13  1  0  0  0  0
  5 12  1  0  0  0  0
  5 19  1  0  0  0  0
  8 22  1  0  0  0  0
  9 21  1  0  0  0  0
  9 25  1  0  0  0  0
 10 11  1  0  0  0  0
 10 14  2  0  0  0  0
 11 15  2  0  0  0  0
 12 13  2  0  0  0  0
 12 15  1  0  0  0  0
 13 14  1  0  0  0  0
 16 17  1  0  0  0  0
 16 18  1  0  0  0  0
 16 20  1  1  0  0  0
 17 19  1  6  0  0  0
 17 21  1  0  0  0  0
 18 23  2  0  0  0  0
 18 24  1  0  0  0  0
 20 25  1  0  0  0  0
 22 27  1  0  0  0  0
 23 28  1  0  0  0  0
 24 29  2  0  0  0  0
 26 28  2  0  0  0  0
 26 29  1  0  0  0  0
 27 30  1  0  0  0  0
 27 31  1  0  0  0  0
M  END
> <PUBCHEM_COMPOUND_ID_TYPE>
0

> <PUBCHEM_TOTAL_CHARGE>
0

> <PUBCHEM_SUBSTANCE_ID>
310930597

> <PUBCHEM_SUBSTANCE_VERSION>
1

> <PUBCHEM_EXT_DATASOURCE_NAME>
4488

> <PUBCHEM_EXT_DATASOURCE_REGID>
SCHEMBL16107893

> <PUBCHEM_SUBSTANCE_COMMENT>
InChI=1S/C22H27ClF2N2O3S/c1-14(2)11-27-31(28,29)22-10-19(24)21(9-20(22)25)30-13-16-12-26-8-7-18(16)15-3-5-17(23)6-4-15/h3-6,9-10,14,16,18,26-27H,7-8,11-13H2,1-2H3/t16-,18-/m1/s1
InChIKey=QHQZPTNDCRWOPP-SJLPKXTDSA-N

> <PUBCHEM_SUBSTANCE_SYNONYM>
SCHEMBL16107893

> <PUBCHEM_XREF_EXT_ID>
SCHEMBL16107893

> <PUBCHEM_EXT_DATASOURCE_URL>
https://www.surechembl.org/

> <PUBCHEM_EXT_SUBSTANCE_URL>
https://www.surechembl.org/chemical/SCHEMBL16107893

> <PUBCHEM_CID_ASSOCIATIONS>
71558882  1

> <PUBCHEM_COORDINATE_TYPE>
1
3

> <PUBCHEM_BONDANNOTATIONS>
16  20  5
17  19  6

$$$$
