310943408
  -OEChem-07211613022D

 38 42  0     0  0  0  0  0  0999 V2000
    4.6300    2.4123    0.0000 F   0  0  0  0  0  0  0  0  0  0  0  0
    5.3459    1.9920    0.0000 F   0  0  0  0  0  0  0  0  0  0  0  0
    5.3459    1.1673    0.0000 F   0  0  0  0  0  0  0  0  0  0  0  0
   -2.0776   -2.8014    0.0000 O   0  0  0  0  0  0  0  0  0  0  0  0
    1.7819    2.4123    0.0000 O   0  0  0  0  0  0  0  0  0  0  0  0
   -5.3459    2.4123    0.0000 O   0  0  0  0  0  0  0  0  0  0  0  0
   -2.4824   -0.9027    0.0000 N   0  0  0  0  0  0  0  0  0  0  0  0
   -3.1982    0.3424    0.0000 N   0  0  0  0  0  0  0  0  0  0  0  0
   -3.9140    1.5718    0.0000 N   0  0  0  0  0  0  0  0  0  0  0  0
   -0.3502    2.8169    0.0000 N   0  0  0  0  0  0  0  0  0  0  0  0
    1.0817    1.1673    0.0000 N   0  0  0  0  0  0  0  0  0  0  0  0
    3.9297    0.3424    0.0000 N   0  0  0  0  0  0  0  0  0  0  0  0
    3.2138   -0.0778    0.0000 N   0  0  0  0  0  0  0  0  0  0  0  0
   -2.4824   -0.0623    0.0000 C   0  0  0  0  0  0  0  0  0  0  0  0
   -2.4979   -2.0699    0.0000 C   0  0  0  0  0  0  0  0  0  0  0  0
   -1.7664    1.1673    0.0000 C   0  0  0  0  0  0  0  0  0  0  0  0
   -1.0817    1.5874    0.0000 C   0  0  0  0  0  0  0  0  0  0  0  0
   -3.0737   -1.4941    0.0000 C   0  0  0  0  0  0  0  0  0  0  0  0
   -1.9220   -1.4785    0.0000 C   0  0  0  0  0  0  0  0  0  0  0  0
   -3.1982    1.1673    0.0000 C   0  0  0  0  0  0  0  0  0  0  0  0
   -1.7819    0.3424    0.0000 C   0  0  0  0  0  0  0  0  0  0  0  0
   -2.4824    1.5874    0.0000 C   0  0  0  0  0  0  0  0  0  0  0  0
   -1.0661    2.4123    0.0000 C   0  0  0  0  0  0  0  0  0  0  0  0
   -0.3657    1.1673    0.0000 C   0  0  0  0  0  0  0  0  0  0  0  0
    0.3502    1.5874    0.0000 C   0  0  0  0  0  0  0  0  0  0  0  0
   -2.8870   -2.8169    0.0000 C   0  0  0  0  0  0  0  0  0  0  0  0
    2.4979    1.1673    0.0000 C   0  0  0  0  0  0  0  0  0  0  0  0
    1.7819    1.5718    0.0000 C   0  0  0  0  0  0  0  0  0  0  0  0
    3.9297    1.1673    0.0000 C   0  0  0  0  0  0  0  0  0  0  0  0
    0.3657    2.4123    0.0000 C   0  0  0  0  0  0  0  0  0  0  0  0
    4.6611    1.5874    0.0000 C   0  0  0  0  0  0  0  0  0  0  0  0
    3.2138    1.5874    0.0000 C   0  0  0  0  0  0  0  0  0  0  0  0
   -3.9297    2.4123    0.0000 C   0  0  0  0  0  0  0  0  0  0  0  0
   -4.6455    1.1673    0.0000 C   0  0  0  0  0  0  0  0  0  0  0  0
    2.4979    0.3424    0.0000 C   0  0  0  0  0  0  0  0  0  0  0  0
   -1.7975    2.8169    0.0000 C   0  0  0  0  0  0  0  0  0  0  0  0
   -4.6455    2.8169    0.0000 C   0  0  0  0  0  0  0  0  0  0  0  0
   -5.3459    1.5874    0.0000 C   0  0  0  0  0  0  0  0  0  0  0  0
  1 31  1  0  0  0  0
  2 31  1  0  0  0  0
  3 31  1  0  0  0  0
  4 15  1  0  0  0  0
  5 28  2  0  0  0  0
  6 37  1  0  0  0  0
  6 38  1  0  0  0  0
  7 14  1  0  0  0  0
  7 18  1  0  0  0  0
  7 19  1  0  0  0  0
  8 14  1  0  0  0  0
  8 20  2  0  0  0  0
  9 20  1  0  0  0  0
  9 33  1  0  0  0  0
  9 34  1  0  0  0  0
 10 23  2  0  0  0  0
 10 30  1  0  0  0  0
 11 25  1  0  0  0  0
 11 28  1  0  0  0  0
 12 13  2  0  0  0  0
 12 29  1  0  0  0  0
 13 35  1  0  0  0  0
 14 21  2  0  0  0  0
 15 18  1  0  0  0  0
 15 19  1  0  0  0  0
 15 26  1  0  0  0  0
 16 17  1  0  0  0  0
 16 21  1  0  0  0  0
 16 22  2  0  0  0  0
 17 23  1  0  0  0  0
 17 24  2  0  0  0  0
 20 22  1  0  0  0  0
 23 36  1  0  0  0  0
 24 25  1  0  0  0  0
 25 30  2  0  0  0  0
 27 28  1  0  0  0  0
 27 32  1  0  0  0  0
 27 35  2  0  0  0  0
 29 31  1  0  0  0  0
 29 32  2  0  0  0  0
 33 37  1  0  0  0  0
 34 38  1  0  0  0  0
M  END
> <PUBCHEM_COMPOUND_ID_TYPE>
0

> <PUBCHEM_TOTAL_CHARGE>
0

> <PUBCHEM_SUBSTANCE_ID>
310943408

> <PUBCHEM_SUBSTANCE_VERSION>
1

> <PUBCHEM_EXT_DATASOURCE_NAME>
4488

> <PUBCHEM_EXT_DATASOURCE_REGID>
SCHEMBL16121472

> <PUBCHEM_SUBSTANCE_COMMENT>
InChI=1S/C25H26F3N7O3/c1-15-19(10-18(12-29-15)31-23(36)17-7-20(25(26,27)28)33-30-11-17)16-8-21(34-3-5-38-6-4-34)32-22(9-16)35-13-24(2,37)14-35/h7-12,37H,3-6,13-14H2,1-2H3,(H,31,36)
InChIKey=BUDNSYJHOCUHPV-UHFFFAOYSA-N

> <PUBCHEM_SUBSTANCE_SYNONYM>
SCHEMBL16121472

> <PUBCHEM_XREF_EXT_ID>
SCHEMBL16121472

> <PUBCHEM_EXT_DATASOURCE_URL>
https://www.surechembl.org/

> <PUBCHEM_EXT_SUBSTANCE_URL>
https://www.surechembl.org/chemical/SCHEMBL16121472

> <PUBCHEM_CID_ASSOCIATIONS>
117609832  1

> <PUBCHEM_COORDINATE_TYPE>
1
3

$$$$
