310938888
  -OEChem-07211613022D

 42 47  0     1  0  0  0  0  0999 V2000
    0.2601  -10.5484    0.0000 F   0  0  0  0  0  0  0  0  0  0  0  0
    0.9745   -6.0109    0.0000 O   0  0  0  0  0  0  0  0  0  0  0  0
    1.6890  -13.0234    0.0000 O   0  0  0  0  0  0  0  0  0  0  0  0
    1.6890   -7.2484    0.0000 N   0  0  0  0  0  0  0  0  0  0  0  0
    2.4035   -9.3109    0.0000 N   0  0  0  0  0  0  0  0  0  0  0  0
    3.8324   -9.3109    0.0000 N   0  0  0  0  0  0  0  0  0  0  0  0
    4.5469  -10.5484    0.0000 N   0  0  0  0  0  0  0  0  0  0  0  0
    5.2613   -9.3109    0.0000 N   0  0  0  0  0  0  0  0  0  0  0  0
    0.2601   -7.2484    0.0000 C   0  0  0  0  0  0  0  0  0  0  0  0
    0.9745   -6.8359    0.0000 C   0  0  0  0  0  0  0  0  0  0  0  0
    1.6890   -8.0734    0.0000 C   0  0  0  0  0  0  0  0  0  0  0  0
    0.2601   -8.0734    0.0000 C   0  0  0  0  0  0  0  0  0  0  0  0
   -0.4544   -6.8359    0.0000 C   0  0  0  0  0  0  0  0  0  0  0  0
    0.9745   -8.4859    0.0000 C   0  0  0  0  0  0  0  0  0  0  0  0
    2.4035   -6.8359    0.0000 C   0  0  0  0  0  0  0  0  0  0  0  0
    2.4035   -8.4859    0.0000 C   0  0  3  0  0  0  0  0  0  0  0  0
   -0.4544   -6.0109    0.0000 C   0  0  0  0  0  0  0  0  0  0  0  0
   -0.4544   -8.4859    0.0000 C   0  0  0  0  0  0  0  0  0  0  0  0
   -1.1689   -7.2484    0.0000 C   0  0  0  0  0  0  0  0  0  0  0  0
    3.1179   -9.7234    0.0000 C   0  0  0  0  0  0  0  0  0  0  0  0
    3.1179  -10.5484    0.0000 C   0  0  0  0  0  0  0  0  0  0  0  0
   -1.1689   -8.0734    0.0000 C   0  0  0  0  0  0  0  0  0  0  0  0
    3.1179   -7.2484    0.0000 C   0  0  0  0  0  0  0  0  0  0  0  0
    2.4035   -6.0109    0.0000 C   0  0  0  0  0  0  0  0  0  0  0  0
    2.4035  -10.9609    0.0000 C   0  0  0  0  0  0  0  0  0  0  0  0
   -1.1689   -5.5984    0.0000 C   0  0  0  0  0  0  0  0  0  0  0  0
    0.2601   -5.5984    0.0000 C   0  0  0  0  0  0  0  0  0  0  0  0
    3.1179   -8.0734    0.0000 C   0  0  0  0  0  0  0  0  0  0  0  0
    3.8324  -10.9609    0.0000 C   0  0  0  0  0  0  0  0  0  0  0  0
    4.5469   -9.7234    0.0000 C   0  0  0  0  0  0  0  0  0  0  0  0
   -1.1689   -4.7734    0.0000 C   0  0  0  0  0  0  0  0  0  0  0  0
    1.6890  -10.5484    0.0000 C   0  0  0  0  0  0  0  0  0  0  0  0
    2.4035  -11.7859    0.0000 C   0  0  0  0  0  0  0  0  0  0  0  0
    3.8324   -6.8359    0.0000 C   0  0  0  0  0  0  0  0  0  0  0  0
    3.1179   -5.5984    0.0000 C   0  0  0  0  0  0  0  0  0  0  0  0
    0.2601   -4.7734    0.0000 C   0  0  0  0  0  0  0  0  0  0  0  0
    0.9745  -10.9609    0.0000 C   0  0  0  0  0  0  0  0  0  0  0  0
    1.6890  -12.1984    0.0000 C   0  0  0  0  0  0  0  0  0  0  0  0
    3.8324   -6.0109    0.0000 C   0  0  0  0  0  0  0  0  0  0  0  0
   -0.4544   -4.3609    0.0000 C   0  0  0  0  0  0  0  0  0  0  0  0
    0.9745  -11.7859    0.0000 C   0  0  0  0  0  0  0  0  0  0  0  0
   -1.8834   -4.3609    0.0000 C   0  0  0  0  0  0  0  0  0  0  0  0
  1 37  1  0  0  0  0
  2 10  2  0  0  0  0
  3 38  1  0  0  0  0
  4 10  1  0  0  0  0
  4 11  1  0  0  0  0
  4 15  1  0  0  0  0
  5 16  1  0  0  0  0
  5 20  1  0  0  0  0
  6 20  1  0  0  0  0
  6 30  2  0  0  0  0
  7 29  2  0  0  0  0
  7 30  1  0  0  0  0
  8 30  1  0  0  0  0
  9 10  1  0  0  0  0
  9 12  1  0  0  0  0
  9 13  2  0  0  0  0
 11 14  2  0  0  0  0
 11 16  1  0  0  0  0
 12 14  1  0  0  0  0
 12 18  2  0  0  0  0
 13 17  1  0  0  0  0
 13 19  1  0  0  0  0
 15 23  2  0  0  0  0
 15 24  1  0  0  0  0
 16 28  1  6  0  0  0
 17 26  2  0  0  0  0
 17 27  1  0  0  0  0
 18 22  1  0  0  0  0
 19 22  2  0  0  0  0
 20 21  2  0  0  0  0
 21 25  1  0  0  0  0
 21 29  1  0  0  0  0
 23 34  1  0  0  0  0
 24 35  2  0  0  0  0
 25 32  2  0  0  0  0
 25 33  1  0  0  0  0
 26 31  1  0  0  0  0
 27 36  2  0  0  0  0
 31 40  2  0  0  0  0
 31 42  1  0  0  0  0
 32 37  1  0  0  0  0
 33 38  2  0  0  0  0
 34 39  2  0  0  0  0
 35 39  1  0  0  0  0
 36 40  1  0  0  0  0
 37 41  2  0  0  0  0
 38 41  1  0  0  0  0
M  END
> <PUBCHEM_COMPOUND_ID_TYPE>
0

> <PUBCHEM_TOTAL_CHARGE>
0

> <PUBCHEM_SUBSTANCE_ID>
310938888

> <PUBCHEM_SUBSTANCE_VERSION>
1

> <PUBCHEM_EXT_DATASOURCE_NAME>
4488

> <PUBCHEM_EXT_DATASOURCE_REGID>
SCHEMBL16116807

> <PUBCHEM_SUBSTANCE_COMMENT>
InChI=1S/C34H28FN5O2/c1-20-8-6-9-22(14-20)28-13-7-10-23-17-30(40(33(42)31(23)28)26-11-4-3-5-12-26)21(2)38-32-29(19-37-34(36)39-32)24-15-25(35)18-27(41)16-24/h3-19,21,41H,1-2H3,(H3,36,37,38,39)/t21-/m0/s1
InChIKey=MLQNOOKFXBFQEB-NRFANRHFSA-N

> <PUBCHEM_SUBSTANCE_SYNONYM>
SCHEMBL16116807

> <PUBCHEM_XREF_EXT_ID>
SCHEMBL16116807

> <PUBCHEM_EXT_DATASOURCE_URL>
https://www.surechembl.org/

> <PUBCHEM_EXT_SUBSTANCE_URL>
https://www.surechembl.org/chemical/SCHEMBL16116807

> <PUBCHEM_CID_ASSOCIATIONS>
117606286  1

> <PUBCHEM_COORDINATE_TYPE>
1
3

> <PUBCHEM_BONDANNOTATIONS>
16  28  6

$$$$
