310930431
  -OEChem-07211613022D

 32 35  0     0  0  0  0  0  0999 V2000
    3.2529   -2.4216    0.0000 S   0  0  0  0  0  0  0  0  0  0  0  0
    0.0000   -1.7349    0.0000 F   0  0  0  0  0  0  0  0  0  0  0  0
    0.0361   -3.1445    0.0000 F   0  0  0  0  0  0  0  0  0  0  0  0
    0.8313   -1.7349    0.0000 F   0  0  0  0  0  0  0  0  0  0  0  0
    3.6866   -3.2167    0.0000 O   0  0  0  0  0  0  0  0  0  0  0  0
    2.8553   -1.7349    0.0000 O   0  0  0  0  0  0  0  0  0  0  0  0
    7.4816    0.0000    0.0000 O   0  0  0  0  0  0  0  0  0  0  0  0
    2.5300   -3.6505    0.0000 N   0  0  0  0  0  0  0  0  0  0  0  0
    8.8550   -2.4577    0.0000 N   0  0  0  0  0  0  0  0  0  0  0  0
   10.3730   -2.2770    0.0000 N   0  0  0  0  0  0  0  0  0  0  0  0
    6.7949   -1.1927    0.0000 N   0  0  0  0  0  0  0  0  0  0  0  0
   10.8429   -1.6264    0.0000 N   0  0  0  0  0  0  0  0  0  0  0  0
    2.5300   -2.8191    0.0000 C   0  0  0  0  0  0  0  0  0  0  0  0
    3.9396   -2.0240    0.0000 C   0  0  0  0  0  0  0  0  0  0  0  0
    1.1204   -2.8191    0.0000 C   0  0  0  0  0  0  0  0  0  0  0  0
    1.8433   -2.4216    0.0000 C   0  0  0  0  0  0  0  0  0  0  0  0
    0.3976   -2.4577    0.0000 C   0  0  0  0  0  0  0  0  0  0  0  0
    4.6625   -2.4577    0.0000 C   0  0  0  0  0  0  0  0  0  0  0  0
    3.9757   -1.1927    0.0000 C   0  0  0  0  0  0  0  0  0  0  0  0
    1.1204   -3.6505    0.0000 C   0  0  0  0  0  0  0  0  0  0  0  0
    9.5779   -1.2289    0.0000 C   0  0  0  0  0  0  0  0  0  0  0  0
    9.5779   -2.0601    0.0000 C   0  0  0  0  0  0  0  0  0  0  0  0
    8.2045   -1.2289    0.0000 C   0  0  0  0  0  0  0  0  0  0  0  0
    1.8433   -4.0480    0.0000 C   0  0  0  0  0  0  0  0  0  0  0  0
    5.3492   -1.1927    0.0000 C   0  0  0  0  0  0  0  0  0  0  0  0
    5.3492   -2.0240    0.0000 C   0  0  0  0  0  0  0  0  0  0  0  0
    4.6625   -0.7951    0.0000 C   0  0  0  0  0  0  0  0  0  0  0  0
    8.8550   -0.8313    0.0000 C   0  0  0  0  0  0  0  0  0  0  0  0
    7.4816   -0.7951    0.0000 C   0  0  0  0  0  0  0  0  0  0  0  0
    8.2045   -2.0601    0.0000 C   0  0  0  0  0  0  0  0  0  0  0  0
   10.3730   -0.9759    0.0000 C   0  0  0  0  0  0  0  0  0  0  0  0
    6.0720   -0.7951    0.0000 C   0  0  0  0  0  0  0  0  0  0  0  0
  1  5  2  0  0  0  0
  1  6  2  0  0  0  0
  1 13  1  0  0  0  0
  1 14  1  0  0  0  0
  2 17  1  0  0  0  0
  3 17  1  0  0  0  0
  4 17  1  0  0  0  0
  7 29  2  0  0  0  0
  8 13  1  0  0  0  0
  8 24  2  0  0  0  0
  9 22  1  0  0  0  0
  9 30  2  0  0  0  0
 10 12  1  0  0  0  0
 10 22  1  0  0  0  0
 11 29  1  0  0  0  0
 11 32  1  0  0  0  0
 12 31  2  0  0  0  0
 13 16  2  0  0  0  0
 14 18  2  0  0  0  0
 14 19  1  0  0  0  0
 15 16  1  0  0  0  0
 15 17  1  0  0  0  0
 15 20  2  0  0  0  0
 18 26  1  0  0  0  0
 19 27  2  0  0  0  0
 20 24  1  0  0  0  0
 21 22  2  0  0  0  0
 21 28  1  0  0  0  0
 21 31  1  0  0  0  0
 23 28  2  0  0  0  0
 23 29  1  0  0  0  0
 23 30  1  0  0  0  0
 25 26  2  0  0  0  0
 25 27  1  0  0  0  0
 25 32  1  0  0  0  0
M  END
> <PUBCHEM_COMPOUND_ID_TYPE>
0

> <PUBCHEM_TOTAL_CHARGE>
0

> <PUBCHEM_SUBSTANCE_ID>
310930431

> <PUBCHEM_SUBSTANCE_VERSION>
1

> <PUBCHEM_EXT_DATASOURCE_NAME>
4488

> <PUBCHEM_EXT_DATASOURCE_REGID>
SCHEMBL16107721

> <PUBCHEM_SUBSTANCE_COMMENT>
InChI=1S/C20H14F3N5O3S/c21-20(22,23)15-5-6-24-17(8-15)32(30,31)16-3-1-12(2-4-16)9-26-19(29)14-7-13-11-27-28-18(13)25-10-14/h1-8,10-11H,9H2,(H,26,29)(H,25,27,28)
InChIKey=CRZRSMJPTRBLDV-UHFFFAOYSA-N

> <PUBCHEM_SUBSTANCE_SYNONYM>
SCHEMBL16107721

> <PUBCHEM_XREF_EXT_ID>
SCHEMBL16107721

> <PUBCHEM_EXT_DATASOURCE_URL>
https://www.surechembl.org/

> <PUBCHEM_EXT_SUBSTANCE_URL>
https://www.surechembl.org/chemical/SCHEMBL16107721

> <PUBCHEM_CID_ASSOCIATIONS>
117599568  1

> <PUBCHEM_COORDINATE_TYPE>
1
3

$$$$
