310943411
  -OEChem-07211613022D

 34 37  0     0  0  0  0  0  0999 V2000
   -1.7031    2.0540    0.0000 Cl  0  0  0  0  0  0  0  0  0  0  0  0
    3.8814    0.2997    0.0000 F   0  0  0  0  0  0  0  0  0  0  0  0
    4.7146    0.2997    0.0000 F   0  0  0  0  0  0  0  0  0  0  0  0
    5.0070   -0.8259    0.0000 F   0  0  0  0  0  0  0  0  0  0  0  0
   -3.5744   -0.8259    0.0000 O   0  0  0  0  0  0  0  0  0  0  0  0
    0.7090   -0.8259    0.0000 O   0  0  0  0  0  0  0  0  0  0  0  0
   -5.0070    1.6446    0.0000 O   0  0  0  0  0  0  0  0  0  0  0  0
   -2.1417   -0.8259    0.0000 N   0  0  0  0  0  0  0  0  0  0  0  0
   -3.5744    0.8259    0.0000 N   0  0  0  0  0  0  0  0  0  0  0  0
   -0.0073    2.0540    0.0000 N   0  0  0  0  0  0  0  0  0  0  0  0
    1.4253    0.4166    0.0000 N   0  0  0  0  0  0  0  0  0  0  0  0
   -1.4253    0.4166    0.0000 C   0  0  0  0  0  0  0  0  0  0  0  0
   -0.7237    0.8259    0.0000 C   0  0  0  0  0  0  0  0  0  0  0  0
   -2.8580    0.4166    0.0000 C   0  0  0  0  0  0  0  0  0  0  0  0
   -2.8580   -0.4020    0.0000 C   0  0  0  0  0  0  0  0  0  0  0  0
   -2.1417    0.8259    0.0000 C   0  0  0  0  0  0  0  0  0  0  0  0
   -1.4400   -0.4166    0.0000 C   0  0  0  0  0  0  0  0  0  0  0  0
   -0.7090    1.6592    0.0000 C   0  0  0  0  0  0  0  0  0  0  0  0
   -0.0073    0.4166    0.0000 C   0  0  0  0  0  0  0  0  0  0  0  0
    0.7090    0.8259    0.0000 C   0  0  0  0  0  0  0  0  0  0  0  0
    2.1563   -0.8113    0.0000 C   0  0  0  0  0  0  0  0  0  0  0  0
    1.4400   -0.3874    0.0000 C   0  0  0  0  0  0  0  0  0  0  0  0
    0.7237    1.6446    0.0000 C   0  0  0  0  0  0  0  0  0  0  0  0
    3.5744   -0.8113    0.0000 C   0  0  0  0  0  0  0  0  0  0  0  0
    4.2760   -0.3874    0.0000 C   0  0  0  0  0  0  0  0  0  0  0  0
    2.8580   -0.4313    0.0000 C   0  0  0  0  0  0  0  0  0  0  0  0
   -3.5744    1.6446    0.0000 C   0  0  0  0  0  0  0  0  0  0  0  0
   -4.2907    0.4166    0.0000 C   0  0  0  0  0  0  0  0  0  0  0  0
   -2.1417   -1.6592    0.0000 C   0  0  0  0  0  0  0  0  0  0  0  0
    2.1563   -1.6446    0.0000 C   0  0  0  0  0  0  0  0  0  0  0  0
    3.5744   -1.6446    0.0000 C   0  0  0  0  0  0  0  0  0  0  0  0
    2.8726   -2.0540    0.0000 C   0  0  0  0  0  0  0  0  0  0  0  0
   -4.3199    2.0540    0.0000 C   0  0  0  0  0  0  0  0  0  0  0  0
   -5.0070    0.8259    0.0000 C   0  0  0  0  0  0  0  0  0  0  0  0
  1 18  1  0  0  0  0
  2 25  1  0  0  0  0
  3 25  1  0  0  0  0
  4 25  1  0  0  0  0
  5 15  2  0  0  0  0
  6 22  2  0  0  0  0
  7 33  1  0  0  0  0
  7 34  1  0  0  0  0
  8 15  1  0  0  0  0
  8 17  1  0  0  0  0
  8 29  1  0  0  0  0
  9 14  1  0  0  0  0
  9 27  1  0  0  0  0
  9 28  1  0  0  0  0
 10 18  1  0  0  0  0
 10 23  2  0  0  0  0
 11 20  1  0  0  0  0
 11 22  1  0  0  0  0
 12 13  1  0  0  0  0
 12 16  1  0  0  0  0
 12 17  2  0  0  0  0
 13 18  2  0  0  0  0
 13 19  1  0  0  0  0
 14 15  1  0  0  0  0
 14 16  2  0  0  0  0
 19 20  2  0  0  0  0
 20 23  1  0  0  0  0
 21 22  1  0  0  0  0
 21 26  1  0  0  0  0
 21 30  2  0  0  0  0
 24 25  1  0  0  0  0
 24 26  2  0  0  0  0
 24 31  1  0  0  0  0
 27 33  1  0  0  0  0
 28 34  1  0  0  0  0
 30 32  1  0  0  0  0
 31 32  2  0  0  0  0
M  END
> <PUBCHEM_COMPOUND_ID_TYPE>
0

> <PUBCHEM_TOTAL_CHARGE>
0

> <PUBCHEM_SUBSTANCE_ID>
310943411

> <PUBCHEM_SUBSTANCE_VERSION>
1

> <PUBCHEM_EXT_DATASOURCE_NAME>
4488

> <PUBCHEM_EXT_DATASOURCE_REGID>
SCHEMBL16121475

> <PUBCHEM_SUBSTANCE_COMMENT>
InChI=1S/C23H20ClF3N4O3/c1-30-13-15(10-19(22(30)33)31-5-7-34-8-6-31)18-11-17(12-28-20(18)24)29-21(32)14-3-2-4-16(9-14)23(25,26)27/h2-4,9-13H,5-8H2,1H3,(H,29,32)
InChIKey=UDHXRVPPXWJDAN-UHFFFAOYSA-N

> <PUBCHEM_SUBSTANCE_SYNONYM>
SCHEMBL16121475

> <PUBCHEM_XREF_EXT_ID>
SCHEMBL16121475

> <PUBCHEM_EXT_DATASOURCE_URL>
https://www.surechembl.org/

> <PUBCHEM_EXT_SUBSTANCE_URL>
https://www.surechembl.org/chemical/SCHEMBL16121475

> <PUBCHEM_CID_ASSOCIATIONS>
117609835  1

> <PUBCHEM_COORDINATE_TYPE>
1
3

$$$$
