310929071
  -OEChem-07211613022D

 59 64  0     0  0  0  0  0  0999 V2000
    1.3658   -1.2471    0.0000 S   0  0  0  0  0  0  0  0  0  0  0  0
    7.0667   -1.1877    0.0000 O   0  0  0  0  0  0  0  0  0  0  0  0
    3.5630   -2.4942    0.0000 O   0  0  0  0  0  0  0  0  0  0  0  0
    4.9883   -4.0975    0.0000 O   0  0  0  0  0  0  0  0  0  0  0  0
    1.7815   -0.5344    0.0000 O   0  0  0  0  0  0  0  0  0  0  0  0
    0.9502   -1.9597    0.0000 O   0  0  0  0  0  0  0  0  0  0  0  0
   11.3424   -3.6224    0.0000 O   0  0  0  0  0  0  0  0  0  0  0  0
   12.7676   -0.3563    0.0000 O   0  0  0  0  0  0  0  0  0  0  0  0
   17.8153   -2.3754    0.0000 O   0  0  0  0  0  0  0  0  0  0  0  0
    3.5630   -4.1569    0.0000 N   0  0  0  0  0  0  0  0  0  0  0  0
    4.2757   -2.9098    0.0000 N   0  0  0  0  0  0  0  0  0  0  0  0
    2.0784   -1.6628    0.0000 N   0  0  0  0  0  0  0  0  0  0  0  0
    9.9171   -1.1283    0.0000 N   0  0  0  0  0  0  0  0  0  0  0  0
    9.2045   -2.3754    0.0000 N   0  0  0  0  0  0  0  0  0  0  0  0
   13.5396   -1.5440    0.0000 N   0  0  0  0  0  0  0  0  0  0  0  0
   16.3901   -1.5440    0.0000 N   0  0  0  0  0  0  0  0  0  0  0  0
    2.8504   -3.7412    0.0000 C   0  0  0  0  0  0  0  0  0  0  0  0
    2.8504   -2.9098    0.0000 C   0  0  0  0  0  0  0  0  0  0  0  0
    4.9883   -1.6628    0.0000 C   0  0  0  0  0  0  0  0  0  0  0  0
    5.6415   -1.2471    0.0000 C   0  0  0  0  0  0  0  0  0  0  0  0
    2.1378   -2.4942    0.0000 C   0  0  0  0  0  0  0  0  0  0  0  0
    1.4252   -3.7412    0.0000 C   0  0  0  0  0  0  0  0  0  0  0  0
    4.9883   -2.4942    0.0000 C   0  0  0  0  0  0  0  0  0  0  0  0
    6.3541   -1.6033    0.0000 C   0  0  0  0  0  0  0  0  0  0  0  0
    2.1378   -4.1569    0.0000 C   0  0  0  0  0  0  0  0  0  0  0  0
    1.4252   -2.9098    0.0000 C   0  0  0  0  0  0  0  0  0  0  0  0
    0.6532   -4.1569    0.0000 C   0  0  0  0  0  0  0  0  0  0  0  0
    4.2757   -3.7412    0.0000 C   0  0  0  0  0  0  0  0  0  0  0  0
    5.7009   -2.8504    0.0000 C   0  0  0  0  0  0  0  0  0  0  0  0
    6.4135   -2.4348    0.0000 C   0  0  0  0  0  0  0  0  0  0  0  0
    4.2163   -1.2471    0.0000 C   0  0  0  0  0  0  0  0  0  0  0  0
    5.6415   -0.4157    0.0000 C   0  0  0  0  0  0  0  0  0  0  0  0
    7.7794   -1.6033    0.0000 C   0  0  0  0  0  0  0  0  0  0  0  0
    4.2163   -0.4157    0.0000 C   0  0  0  0  0  0  0  0  0  0  0  0
    4.9289    0.0000    0.0000 C   0  0  0  0  0  0  0  0  0  0  0  0
    9.2045   -1.5440    0.0000 C   0  0  0  0  0  0  0  0  0  0  0  0
    8.4920   -1.1283    0.0000 C   0  0  0  0  0  0  0  0  0  0  0  0
    0.2375   -3.4443    0.0000 C   0  0  0  0  0  0  0  0  0  0  0  0
    0.0000   -4.5726    0.0000 C   0  0  0  0  0  0  0  0  0  0  0  0
    1.1283   -4.8695    0.0000 C   0  0  0  0  0  0  0  0  0  0  0  0
   10.6298   -1.5440    0.0000 C   0  0  0  0  0  0  0  0  0  0  0  0
    7.8387   -2.3754    0.0000 C   0  0  0  0  0  0  0  0  0  0  0  0
   12.0550   -1.5440    0.0000 C   0  0  0  0  0  0  0  0  0  0  0  0
   11.3424   -1.1283    0.0000 C   0  0  0  0  0  0  0  0  0  0  0  0
   11.3424   -2.7911    0.0000 C   0  0  0  0  0  0  0  0  0  0  0  0
   10.6298   -2.3754    0.0000 C   0  0  0  0  0  0  0  0  0  0  0  0
    8.5514   -2.8504    0.0000 C   0  0  0  0  0  0  0  0  0  0  0  0
    3.5037   -1.6628    0.0000 C   0  0  0  0  0  0  0  0  0  0  0  0
    0.6532   -0.8314    0.0000 C   0  0  0  0  0  0  0  0  0  0  0  0
   12.0550   -2.3754    0.0000 C   0  0  0  0  0  0  0  0  0  0  0  0
   12.7676   -1.1283    0.0000 C   0  0  0  0  0  0  0  0  0  0  0  0
   14.2522   -1.1283    0.0000 C   0  0  0  0  0  0  0  0  0  0  0  0
   12.1144   -4.0381    0.0000 C   0  0  0  0  0  0  0  0  0  0  0  0
   14.9648   -1.5440    0.0000 C   0  0  0  0  0  0  0  0  0  0  0  0
   15.6774   -1.1283    0.0000 C   0  0  0  0  0  0  0  0  0  0  0  0
   17.1027   -1.1283    0.0000 C   0  0  0  0  0  0  0  0  0  0  0  0
   16.3901   -2.3754    0.0000 C   0  0  0  0  0  0  0  0  0  0  0  0
   17.8153   -1.5440    0.0000 C   0  0  0  0  0  0  0  0  0  0  0  0
   17.1027   -2.7911    0.0000 C   0  0  0  0  0  0  0  0  0  0  0  0
  1  5  2  0  0  0  0
  1  6  2  0  0  0  0
  1 12  1  0  0  0  0
  1 49  1  0  0  0  0
  2 24  1  0  0  0  0
  2 33  1  0  0  0  0
  3 18  1  0  0  0  0
  3 48  1  0  0  0  0
  4 28  2  0  0  0  0
  7 45  1  0  0  0  0
  7 53  1  0  0  0  0
  8 51  2  0  0  0  0
  9 58  1  0  0  0  0
  9 59  1  0  0  0  0
 10 17  1  0  0  0  0
 10 28  1  0  0  0  0
 11 23  1  0  0  0  0
 11 28  1  0  0  0  0
 12 21  1  0  0  0  0
 13 36  1  0  0  0  0
 13 41  1  0  0  0  0
 14 36  1  0  0  0  0
 14 47  2  0  0  0  0
 15 51  1  0  0  0  0
 15 52  1  0  0  0  0
 16 55  1  0  0  0  0
 16 56  1  0  0  0  0
 16 57  1  0  0  0  0
 17 18  1  0  0  0  0
 17 25  2  0  0  0  0
 18 21  2  0  0  0  0
 19 20  2  0  0  0  0
 19 23  1  0  0  0  0
 19 31  1  0  0  0  0
 20 24  1  0  0  0  0
 20 32  1  0  0  0  0
 21 26  1  0  0  0  0
 22 25  1  0  0  0  0
 22 26  2  0  0  0  0
 22 27  1  0  0  0  0
 23 29  2  0  0  0  0
 24 30  2  0  0  0  0
 27 38  1  0  0  0  0
 27 39  1  0  0  0  0
 27 40  1  0  0  0  0
 29 30  1  0  0  0  0
 31 34  2  0  0  0  0
 32 35  2  0  0  0  0
 33 37  1  0  0  0  0
 33 42  2  0  0  0  0
 34 35  1  0  0  0  0
 36 37  2  0  0  0  0
 41 44  1  0  0  0  0
 41 46  2  0  0  0  0
 42 47  1  0  0  0  0
 43 44  2  0  0  0  0
 43 50  1  0  0  0  0
 43 51  1  0  0  0  0
 45 46  1  0  0  0  0
 45 50  2  0  0  0  0
 52 54  1  0  0  0  0
 54 55  1  0  0  0  0
 56 58  1  0  0  0  0
 57 59  1  0  0  0  0
M  END
> <PUBCHEM_COMPOUND_ID_TYPE>
0

> <PUBCHEM_TOTAL_CHARGE>
0

> <PUBCHEM_SUBSTANCE_ID>
310929071

> <PUBCHEM_SUBSTANCE_VERSION>
1

> <PUBCHEM_EXT_DATASOURCE_NAME>
4488

> <PUBCHEM_EXT_DATASOURCE_REGID>
SCHEMBL16106233

> <PUBCHEM_SUBSTANCE_COMMENT>
InChI=1S/C43H51N7O8S/c1-43(2,3)29-24-36(40(56-5)37(25-29)49-59(6,53)54)48-42(52)47-35-12-13-38(34-11-8-7-10-33(34)35)58-31-14-16-44-39(27-31)46-30-22-28(23-32(26-30)55-4)41(51)45-15-9-17-50-18-20-57-21-19-50/h7-8,10-14,16,22-27,49H,9,15,17-21H2,1-6H3,(H,44,46)(H,45,51)(H2,47,48,52)
InChIKey=NIMKGKUGIJVPTM-UHFFFAOYSA-N

> <PUBCHEM_SUBSTANCE_SYNONYM>
SCHEMBL16106233

> <PUBCHEM_XREF_EXT_ID>
SCHEMBL16106233

> <PUBCHEM_EXT_DATASOURCE_URL>
https://www.surechembl.org/

> <PUBCHEM_EXT_SUBSTANCE_URL>
https://www.surechembl.org/chemical/SCHEMBL16106233

> <PUBCHEM_CID_ASSOCIATIONS>
86275224  1

> <PUBCHEM_COORDINATE_TYPE>
1
3

$$$$
