310940474
  -OEChem-07211613022D

 27 30  0     0  0  0  0  0  0999 V2000
   -0.0161   -3.2775    0.0000 S   0  0  0  0  0  0  0  0  0  0  0  0
    0.5463    2.3296    0.0000 F   0  0  0  0  0  0  0  0  0  0  0  0
    0.8836    1.2692    0.0000 F   0  0  0  0  0  0  0  0  0  0  0  0
   -0.1928    0.9479    0.0000 F   0  0  0  0  0  0  0  0  0  0  0  0
   -1.2853   -0.8194    0.0000 N   0  0  0  0  0  0  0  0  0  0  0  0
   -0.7229   -2.8597    0.0000 N   0  0  0  0  0  0  0  0  0  0  0  0
    2.0083   -2.1207    0.0000 N   0  0  0  0  0  0  0  0  0  0  0  0
   -0.5623   -2.0404    0.0000 C   0  0  0  0  0  0  0  0  0  0  0  0
    0.2410   -1.9761    0.0000 C   0  0  0  0  0  0  0  0  0  0  0  0
   -1.3014   -1.6387    0.0000 C   0  0  0  0  0  0  0  0  0  0  0  0
    0.5784   -2.6831    0.0000 C   0  0  0  0  0  0  0  0  0  0  0  0
   -1.2692    1.6548    0.0000 C   0  0  0  0  0  0  0  0  0  0  0  0
   -0.5623    2.0404    0.0000 C   0  0  0  0  0  0  0  0  0  0  0  0
   -1.3174    0.8033    0.0000 C   0  0  0  0  0  0  0  0  0  0  0  0
    0.1607    1.6387    0.0000 C   0  0  0  0  0  0  0  0  0  0  0  0
    0.7229   -1.3014    0.0000 C   0  0  0  0  0  0  0  0  0  0  0  0
   -0.5463   -0.3856    0.0000 C   0  0  0  0  0  0  0  0  0  0  0  0
   -2.0082   -0.4017    0.0000 C   0  0  0  0  0  0  0  0  0  0  0  0
   -0.5463    0.3856    0.0000 C   0  0  0  0  0  0  0  0  0  0  0  0
   -2.0082    0.4017    0.0000 C   0  0  0  0  0  0  0  0  0  0  0  0
    1.4138   -2.7955    0.0000 C   0  0  0  0  0  0  0  0  0  0  0  0
   -1.9922    2.0565    0.0000 C   0  0  0  0  0  0  0  0  0  0  0  0
   -0.6587    2.8597    0.0000 C   0  0  0  0  0  0  0  0  0  0  0  0
    1.5584   -1.3817    0.0000 C   0  0  0  0  0  0  0  0  0  0  0  0
   -1.9440   -2.0083    0.0000 C   0  0  0  0  0  0  0  0  0  0  0  0
   -1.9922    2.8437    0.0000 C   0  0  0  0  0  0  0  0  0  0  0  0
   -1.2853    3.2775    0.0000 C   0  0  0  0  0  0  0  0  0  0  0  0
  1  6  1  0  0  0  0
  1 11  1  0  0  0  0
  2 15  1  0  0  0  0
  3 15  1  0  0  0  0
  4 15  1  0  0  0  0
  5 10  1  0  0  0  0
  5 17  1  0  0  0  0
  5 18  1  0  0  0  0
  6  8  2  0  0  0  0
  7 21  1  0  0  0  0
  7 24  1  0  0  0  0
  8  9  1  0  0  0  0
  8 10  1  0  0  0  0
  9 11  2  0  0  0  0
  9 16  1  0  0  0  0
 10 25  2  0  0  0  0
 11 21  1  0  0  0  0
 12 13  2  0  0  0  0
 12 14  1  0  0  0  0
 12 22  1  0  0  0  0
 13 15  1  0  0  0  0
 13 23  1  0  0  0  0
 14 19  1  0  0  0  0
 14 20  1  0  0  0  0
 16 24  1  0  0  0  0
 17 19  1  0  0  0  0
 18 20  1  0  0  0  0
 22 26  2  0  0  0  0
 23 27  2  0  0  0  0
 26 27  1  0  0  0  0
M  END
> <PUBCHEM_COMPOUND_ID_TYPE>
0

> <PUBCHEM_TOTAL_CHARGE>
0

> <PUBCHEM_SUBSTANCE_ID>
310940474

> <PUBCHEM_SUBSTANCE_VERSION>
1

> <PUBCHEM_EXT_DATASOURCE_NAME>
4488

> <PUBCHEM_EXT_DATASOURCE_REGID>
SCHEMBL16118427

> <PUBCHEM_SUBSTANCE_COMMENT>
InChI=1S/C20H22F3N3S/c1-13(19-16-6-9-24-12-18(16)27-25-19)26-10-7-14(8-11-26)15-4-2-3-5-17(15)20(21,22)23/h2-5,14,24H,1,6-12H2
InChIKey=BODAOMVZWMKESB-UHFFFAOYSA-N

> <PUBCHEM_SUBSTANCE_SYNONYM>
SCHEMBL16118427

> <PUBCHEM_XREF_EXT_ID>
SCHEMBL16118427

> <PUBCHEM_EXT_DATASOURCE_URL>
https://www.surechembl.org/

> <PUBCHEM_EXT_SUBSTANCE_URL>
https://www.surechembl.org/chemical/SCHEMBL16118427

> <PUBCHEM_CID_ASSOCIATIONS>
117607492  1

> <PUBCHEM_COORDINATE_TYPE>
1
3

$$$$
