310930837
  -OEChem-07211613022D

 25 28  0     1  0  0  0  0  0999 V2000
    3.9384   -2.2043    0.0000 F   0  0  0  0  0  0  0  0  0  0  0  0
    4.8201   -2.1455    0.0000 O   0  0  0  0  0  0  0  0  0  0  0  0
    6.3190   -0.7641    0.0000 O   0  0  0  0  0  0  0  0  0  0  0  0
    4.4968    0.0000    0.0000 O   0  0  0  0  0  0  0  0  0  0  0  0
    2.8509   -1.4402    0.0000 O   0  0  0  0  0  0  0  0  0  0  0  0
    8.8172   -2.3218    0.0000 O   0  0  0  0  0  0  0  0  0  0  0  0
    2.1455   -0.2351    0.0000 O   0  0  0  0  0  0  0  0  0  0  0  0
    6.3484   -2.1161    0.0000 N   0  0  0  0  0  0  0  0  0  0  0  0
    7.6416   -1.4989    0.0000 N   0  0  0  0  0  0  0  0  0  0  0  0
    5.5549   -1.8516    0.0000 C   0  0  3  0  0  0  0  0  0  0  0  0
    5.5843   -1.0287    0.0000 C   0  0  3  0  0  0  0  0  0  0  0  0
    4.2910   -1.4695    0.0000 C   0  0  3  0  0  0  0  0  0  0  0  0
    4.7613   -0.7936    0.0000 C   0  0  3  0  0  0  0  0  0  0  0  0
    6.7893   -1.4402    0.0000 C   0  0  0  0  0  0  0  0  0  0  0  0
    3.5857   -1.0287    0.0000 C   0  0  0  0  0  0  0  0  0  0  0  0
    6.7011   -2.8803    0.0000 C   0  0  0  0  0  0  0  0  0  0  0  0
    7.9943   -2.2631    0.0000 C   0  0  0  0  0  0  0  0  0  0  0  0
    7.5240   -2.9391    0.0000 C   0  0  0  0  0  0  0  0  0  0  0  0
    2.1455   -1.0287    0.0000 C   0  0  0  0  0  0  0  0  0  0  0  0
    1.4402   -1.4402    0.0000 C   0  0  0  0  0  0  0  0  0  0  0  0
    0.7347   -1.0287    0.0000 C   0  0  0  0  0  0  0  0  0  0  0  0
    1.4402   -2.2925    0.0000 C   0  0  0  0  0  0  0  0  0  0  0  0
    0.0000   -1.4402    0.0000 C   0  0  0  0  0  0  0  0  0  0  0  0
    0.7347   -2.7039    0.0000 C   0  0  0  0  0  0  0  0  0  0  0  0
    0.0000   -2.2925    0.0000 C   0  0  0  0  0  0  0  0  0  0  0  0
 12  1  1  1  0  0  0
 10  2  1  6  0  0  0
  2 12  1  0  0  0  0
  3 11  1  0  0  0  0
  3 14  1  0  0  0  0
 13  4  1  1  0  0  0
  5 15  1  0  0  0  0
  5 19  1  0  0  0  0
  6 17  2  0  0  0  0
  7 19  2  0  0  0  0
  8 10  1  0  0  0  0
  8 14  1  0  0  0  0
  8 16  1  0  0  0  0
  9 14  2  0  0  0  0
  9 17  1  0  0  0  0
 10 11  1  0  0  0  0
 11 13  1  0  0  0  0
 12 13  1  0  0  0  0
 12 15  1  6  0  0  0
 16 18  2  0  0  0  0
 17 18  1  0  0  0  0
 19 20  1  0  0  0  0
 20 21  2  0  0  0  0
 20 22  1  0  0  0  0
 21 23  1  0  0  0  0
 22 24  2  0  0  0  0
 23 25  2  0  0  0  0
 24 25  1  0  0  0  0
M  END
> <PUBCHEM_COMPOUND_ID_TYPE>
0

> <PUBCHEM_TOTAL_CHARGE>
0

> <PUBCHEM_SUBSTANCE_ID>
310930837

> <PUBCHEM_SUBSTANCE_VERSION>
1

> <PUBCHEM_EXT_DATASOURCE_NAME>
4488

> <PUBCHEM_EXT_DATASOURCE_REGID>
SCHEMBL16108134

> <PUBCHEM_SUBSTANCE_COMMENT>
InChI=1S/C16H13FN2O6/c17-16(8-23-14(22)9-4-2-1-3-5-9)12(21)11-13(25-16)19-7-6-10(20)18-15(19)24-11/h1-7,11-13,21H,8H2/t11?,12-,13+,16+/m0/s1
InChIKey=RDOOTHBQQFGPQV-YVAZLZIHSA-N

> <PUBCHEM_SUBSTANCE_SYNONYM>
SCHEMBL16108134

> <PUBCHEM_XREF_EXT_ID>
SCHEMBL16108134

> <PUBCHEM_EXT_DATASOURCE_URL>
https://www.surechembl.org/

> <PUBCHEM_EXT_SUBSTANCE_URL>
https://www.surechembl.org/chemical/SCHEMBL16108134

> <PUBCHEM_CID_ASSOCIATIONS>
117599832  1

> <PUBCHEM_COORDINATE_TYPE>
1
3

> <PUBCHEM_BONDANNOTATIONS>
12  1  5
12  15  6
10  2  6
13  4  5

$$$$
