310939960
  -OEChem-07211613022D

 23 25  0     0  0  0  0  0  0999 V2000
   -2.5151    0.6046    0.0000 Cl  0  0  0  0  0  0  0  0  0  0  0  0
   -0.1040    0.6608    0.0000 O   0  0  0  0  0  0  0  0  0  0  0  0
    3.0498    1.6567    0.0000 O   0  0  0  0  0  0  0  0  0  0  0  0
    2.3353    0.4192    0.0000 N   0  0  0  0  0  0  0  0  0  0  0  0
    0.6104   -0.5767    0.0000 N   0  0  0  0  0  0  0  0  0  0  0  0
   -1.6031   -1.6567    0.0000 N   0  0  0  0  0  0  0  0  0  0  0  0
   -0.8185   -1.4017    0.0000 N   0  0  0  0  0  0  0  0  0  0  0  0
   -2.0881   -0.9892    0.0000 C   0  0  0  0  0  0  0  0  0  0  0  0
   -0.8185   -0.5767    0.0000 C   0  0  0  0  0  0  0  0  0  0  0  0
    1.3249   -0.1642    0.0000 C   0  0  0  0  0  0  0  0  0  0  0  0
   -2.8849   -0.7757    0.0000 C   0  0  0  0  0  0  0  0  0  0  0  0
   -0.1040   -0.1642    0.0000 C   0  0  0  0  0  0  0  0  0  0  0  0
   -1.6031   -0.3218    0.0000 C   0  0  0  0  0  0  0  0  0  0  0  0
    2.1218   -0.3777    0.0000 C   0  0  0  0  0  0  0  0  0  0  0  0
    1.5384    0.6327    0.0000 C   0  0  0  0  0  0  0  0  0  0  0  0
   -3.0985    0.0212    0.0000 C   0  0  0  0  0  0  0  0  0  0  0  0
    3.0498    0.8317    0.0000 C   0  0  0  0  0  0  0  0  0  0  0  0
   -3.4683   -1.3590    0.0000 C   0  0  0  0  0  0  0  0  0  0  0  0
   -3.8954    0.2347    0.0000 C   0  0  0  0  0  0  0  0  0  0  0  0
   -4.2652   -1.1455    0.0000 C   0  0  0  0  0  0  0  0  0  0  0  0
    3.7643    0.4192    0.0000 C   0  0  0  0  0  0  0  0  0  0  0  0
   -4.4787   -0.3486    0.0000 C   0  0  0  0  0  0  0  0  0  0  0  0
    4.4787    0.8317    0.0000 C   0  0  0  0  0  0  0  0  0  0  0  0
  1 16  1  0  0  0  0
  2 12  2  0  0  0  0
  3 17  2  0  0  0  0
  4 14  1  0  0  0  0
  4 15  1  0  0  0  0
  4 17  1  0  0  0  0
  5 10  1  0  0  0  0
  5 12  1  0  0  0  0
  6  7  1  0  0  0  0
  6  8  1  0  0  0  0
  7  9  2  0  0  0  0
  8 11  1  0  0  0  0
  8 13  2  0  0  0  0
  9 12  1  0  0  0  0
  9 13  1  0  0  0  0
 10 14  1  0  0  0  0
 10 15  1  0  0  0  0
 11 16  2  0  0  0  0
 11 18  1  0  0  0  0
 16 19  1  0  0  0  0
 17 21  1  0  0  0  0
 18 20  2  0  0  0  0
 19 22  2  0  0  0  0
 20 22  1  0  0  0  0
 21 23  2  0  0  0  0
M  END
> <PUBCHEM_COMPOUND_ID_TYPE>
0

> <PUBCHEM_TOTAL_CHARGE>
0

> <PUBCHEM_SUBSTANCE_ID>
310939960

> <PUBCHEM_SUBSTANCE_VERSION>
1

> <PUBCHEM_EXT_DATASOURCE_NAME>
4488

> <PUBCHEM_EXT_DATASOURCE_REGID>
SCHEMBL16117890

> <PUBCHEM_SUBSTANCE_COMMENT>
InChI=1S/C16H15ClN4O2/c1-2-15(22)21-8-10(9-21)18-16(23)14-7-13(19-20-14)11-5-3-4-6-12(11)17/h2-7,10H,1,8-9H2,(H,18,23)(H,19,20)
InChIKey=ALHJVYTYOUUCKD-UHFFFAOYSA-N

> <PUBCHEM_SUBSTANCE_SYNONYM>
SCHEMBL16117890

> <PUBCHEM_XREF_EXT_ID>
SCHEMBL16117890

> <PUBCHEM_EXT_DATASOURCE_URL>
https://www.surechembl.org/

> <PUBCHEM_EXT_SUBSTANCE_URL>
https://www.surechembl.org/chemical/SCHEMBL16117890

> <PUBCHEM_CID_ASSOCIATIONS>
117607126  1

> <PUBCHEM_COORDINATE_TYPE>
1
3

$$$$
