310947934
  -OEChem-07211613022D

 18 20  0     0  0  0  0  0  0999 V2000
    0.0276    1.6500    0.0000 O   0  0  0  0  0  0  0  0  0  0  0  0
    3.6000   -0.4125    0.0000 O   0  0  0  0  0  0  0  0  0  0  0  0
    2.8855   -1.6500    0.0000 O   0  0  0  0  0  0  0  0  0  0  0  0
    0.7421    0.4125    0.0000 C   0  0  0  0  0  0  0  0  0  0  0  0
    0.7421   -0.4125    0.0000 C   0  0  0  0  0  0  0  0  0  0  0  0
    0.0276    0.8250    0.0000 C   0  0  0  0  0  0  0  0  0  0  0  0
   -0.6868    0.4125    0.0000 C   0  0  0  0  0  0  0  0  0  0  0  0
   -0.6868   -0.4125    0.0000 C   0  0  0  0  0  0  0  0  0  0  0  0
    0.0276   -0.8250    0.0000 C   0  0  0  0  0  0  0  0  0  0  0  0
    1.4566   -0.8250    0.0000 C   0  0  0  0  0  0  0  0  0  0  0  0
    2.1710   -0.4125    0.0000 C   0  0  0  0  0  0  0  0  0  0  0  0
    1.4566    0.8250    0.0000 C   0  0  0  0  0  0  0  0  0  0  0  0
    2.1710    0.4125    0.0000 C   0  0  0  0  0  0  0  0  0  0  0  0
   -1.4013    0.8250    0.0000 C   0  0  0  0  0  0  0  0  0  0  0  0
   -1.4013   -0.8250    0.0000 C   0  0  0  0  0  0  0  0  0  0  0  0
    2.8855   -0.8250    0.0000 C   0  0  0  0  0  0  0  0  0  0  0  0
   -2.1158    0.4125    0.0000 C   0  0  0  0  0  0  0  0  0  0  0  0
   -2.1158   -0.4125    0.0000 C   0  0  0  0  0  0  0  0  0  0  0  0
  1  6  2  0  0  0  0
  2 16  2  0  0  0  0
  3 16  1  0  0  0  0
  4  5  2  0  0  0  0
  4  6  1  0  0  0  0
  4 12  1  0  0  0  0
  5  9  1  0  0  0  0
  5 10  1  0  0  0  0
  6  7  1  0  0  0  0
  7  8  1  0  0  0  0
  7 14  2  0  0  0  0
  8  9  1  0  0  0  0
  8 15  2  0  0  0  0
 10 11  2  0  0  0  0
 11 13  1  0  0  0  0
 11 16  1  0  0  0  0
 12 13  2  0  0  0  0
 14 17  1  0  0  0  0
 15 18  1  0  0  0  0
 17 18  2  0  0  0  0
M  END
> <PUBCHEM_COMPOUND_ID_TYPE>
0

> <PUBCHEM_TOTAL_CHARGE>
0

> <PUBCHEM_SUBSTANCE_ID>
310947934

> <PUBCHEM_SUBSTANCE_VERSION>
1

> <PUBCHEM_EXT_DATASOURCE_NAME>
4488

> <PUBCHEM_EXT_DATASOURCE_REGID>
SCHEMBL16126108

> <PUBCHEM_SUBSTANCE_COMMENT>
InChI=1S/C15H10O3/c16-14-12-4-2-1-3-9(12)7-11-8-10(15(17)18)5-6-13(11)14/h1-6,8H,7H2,(H,17,18)
InChIKey=OJMJJSMGPZUXEU-UHFFFAOYSA-N

> <PUBCHEM_SUBSTANCE_SYNONYM>
SCHEMBL16126108

> <PUBCHEM_XREF_EXT_ID>
SCHEMBL16126108

> <PUBCHEM_EXT_DATASOURCE_URL>
https://www.surechembl.org/

> <PUBCHEM_EXT_SUBSTANCE_URL>
https://www.surechembl.org/chemical/SCHEMBL16126108

> <PUBCHEM_CID_ASSOCIATIONS>
29928960  1

> <PUBCHEM_COORDINATE_TYPE>
1
3

$$$$
