310941540
  -OEChem-07211613022D

 13 13  0     0  0  0  0  0  0999 V2000
   -0.3425   -1.8734    0.0000 O   0  0  0  0  0  0  0  0  0  0  0  0
   -1.8245   -1.0486    0.0000 O   0  0  0  0  0  0  0  0  0  0  0  0
   -1.0695    1.8175    0.0000 O   0  0  0  0  0  0  0  0  0  0  0  0
    0.3425    1.8734    0.0000 O   0  0  0  0  0  0  0  0  0  0  0  0
    1.8245   -0.6710    0.0000 O   0  0  0  0  0  0  0  0  0  0  0  0
    1.0975   -1.0345    0.0000 N   0  0  0  0  0  0  0  0  0  0  0  0
    0.3425   -0.5452    0.0000 C   0  0  0  0  0  0  0  0  0  0  0  0
   -0.3705   -0.9787    0.0000 C   0  0  0  0  0  0  0  0  0  0  0  0
   -0.3705    0.6710    0.0000 C   0  0  0  0  0  0  0  0  0  0  0  0
   -1.0975   -0.5732    0.0000 C   0  0  0  0  0  0  0  0  0  0  0  0
    0.3285    0.2796    0.0000 C   0  0  0  0  0  0  0  0  0  0  0  0
   -1.0835    0.2517    0.0000 C   0  0  0  0  0  0  0  0  0  0  0  0
   -0.3705    1.4540    0.0000 C   0  0  0  0  0  0  0  0  0  0  0  0
  1  8  1  0  0  0  0
  2 10  1  0  0  0  0
  3 13  2  0  0  0  0
  4 13  1  0  0  0  0
  5  6  2  0  0  0  0
  6  7  1  0  0  0  0
  7  8  2  0  0  0  0
  7 11  1  0  0  0  0
  8 10  1  0  0  0  0
  9 11  2  0  0  0  0
  9 12  1  0  0  0  0
  9 13  1  0  0  0  0
 10 12  2  0  0  0  0
M  END
> <PUBCHEM_COMPOUND_ID_TYPE>
0

> <PUBCHEM_TOTAL_CHARGE>
0

> <PUBCHEM_SUBSTANCE_ID>
310941540

> <PUBCHEM_SUBSTANCE_VERSION>
1

> <PUBCHEM_EXT_DATASOURCE_NAME>
4488

> <PUBCHEM_EXT_DATASOURCE_REGID>
SCHEMBL16119571

> <PUBCHEM_SUBSTANCE_COMMENT>
InChI=1S/C7H5NO5/c9-5-2-3(7(11)12)1-4(8-13)6(5)10/h1-2,9-10H,(H,11,12)
InChIKey=OITKKBKPSKEQEG-UHFFFAOYSA-N

> <PUBCHEM_SUBSTANCE_SYNONYM>
SCHEMBL16119571

> <PUBCHEM_XREF_EXT_ID>
SCHEMBL16119571

> <PUBCHEM_EXT_DATASOURCE_URL>
https://www.surechembl.org/

> <PUBCHEM_EXT_SUBSTANCE_URL>
https://www.surechembl.org/chemical/SCHEMBL16119571

> <PUBCHEM_CID_ASSOCIATIONS>
117608348  1

> <PUBCHEM_COORDINATE_TYPE>
1
3

$$$$
