310948417
  -OEChem-07211613022D

 28 31  0     1  0  0  0  0  0999 V2000
    2.4654   -2.0746    0.0000 S   0  0  0  0  0  0  0  0  0  0  0  0
   -2.5584   -1.5723    0.0000 O   0  0  0  0  0  0  0  0  0  0  0  0
    2.6328   -1.2559    0.0000 O   0  0  0  0  0  0  0  0  0  0  0  0
    3.2840   -2.2421    0.0000 O   0  0  0  0  0  0  0  0  0  0  0  0
   -1.0513    0.7908    0.0000 N   0  0  0  0  0  0  0  0  0  0  0  0
   -0.5489    0.1023    0.0000 N   0  0  0  0  0  0  0  0  0  0  0  0
   -0.7908   -1.3676    0.0000 N   0  0  0  0  0  0  0  0  0  0  0  0
   -3.2840   -0.3070    0.0000 N   0  0  0  0  0  0  0  0  0  0  0  0
    1.3490    0.8466    0.0000 N   0  0  0  0  0  0  0  0  0  0  0  0
   -1.8513   -0.3070    0.0000 C   0  0  0  0  0  0  0  0  0  0  0  0
   -1.8327    0.5303    0.0000 C   0  0  0  0  0  0  0  0  0  0  0  0
   -1.0513   -0.5675    0.0000 C   0  0  0  0  0  0  0  0  0  0  0  0
   -0.7908    1.5909    0.0000 C   0  0  3  0  0  0  0  0  0  0  0  0
   -2.5584   -0.7164    0.0000 C   0  0  0  0  0  0  0  0  0  0  0  0
   -2.5770    0.9397    0.0000 C   0  0  0  0  0  0  0  0  0  0  0  0
   -0.0279    1.8513    0.0000 C   0  0  3  0  0  0  0  0  0  0  0  0
    0.0279   -1.5350    0.0000 C   0  0  0  0  0  0  0  0  0  0  0  0
   -1.2559    2.2421    0.0000 C   0  0  0  0  0  0  0  0  0  0  0  0
   -3.2655    0.5303    0.0000 C   0  0  0  0  0  0  0  0  0  0  0  0
   -0.0093    2.6700    0.0000 C   0  0  0  0  0  0  0  0  0  0  0  0
   -0.7908    2.9119    0.0000 C   0  0  0  0  0  0  0  0  0  0  0  0
    1.6467   -1.8886    0.0000 C   0  0  0  0  0  0  0  0  0  0  0  0
    0.5861   -0.9210    0.0000 C   0  0  0  0  0  0  0  0  0  0  0  0
    0.3070   -2.3351    0.0000 C   0  0  0  0  0  0  0  0  0  0  0  0
    0.6791    1.3303    0.0000 C   0  0  0  0  0  0  0  0  0  0  0  0
    1.3861   -1.0885    0.0000 C   0  0  0  0  0  0  0  0  0  0  0  0
    1.1071   -2.5026    0.0000 C   0  0  0  0  0  0  0  0  0  0  0  0
    2.3165   -2.9119    0.0000 C   0  0  0  0  0  0  0  0  0  0  0  0
  1  3  2  0  0  0  0
  1  4  2  0  0  0  0
  1 22  1  0  0  0  0
  1 28  1  0  0  0  0
  2 14  2  0  0  0  0
  5  6  1  0  0  0  0
  5 11  1  0  0  0  0
 13  5  1  6  0  0  0
  6 12  2  0  0  0  0
  7 12  1  0  0  0  0
  7 17  1  0  0  0  0
  8 14  1  0  0  0  0
  8 19  1  0  0  0  0
  9 25  3  0  0  0  0
 10 11  2  0  0  0  0
 10 12  1  0  0  0  0
 10 14  1  0  0  0  0
 11 15  1  0  0  0  0
 13 16  1  0  0  0  0
 13 18  1  0  0  0  0
 15 19  2  0  0  0  0
 16 20  1  0  0  0  0
 16 25  1  1  0  0  0
 17 23  2  0  0  0  0
 17 24  1  0  0  0  0
 18 21  1  0  0  0  0
 20 21  1  0  0  0  0
 22 26  2  0  0  0  0
 22 27  1  0  0  0  0
 23 26  1  0  0  0  0
 24 27  2  0  0  0  0
M  END
> <PUBCHEM_COMPOUND_ID_TYPE>
0

> <PUBCHEM_TOTAL_CHARGE>
0

> <PUBCHEM_SUBSTANCE_ID>
310948417

> <PUBCHEM_SUBSTANCE_VERSION>
1

> <PUBCHEM_EXT_DATASOURCE_NAME>
4488

> <PUBCHEM_EXT_DATASOURCE_REGID>
SCHEMBL16126598

> <PUBCHEM_SUBSTANCE_COMMENT>
InChI=1S/C19H19N5O3S/c1-28(26,27)14-7-5-13(6-8-14)22-18-17-16(9-10-21-19(17)25)24(23-18)15-4-2-3-12(15)11-20/h5-10,12,15H,2-4H2,1H3,(H,21,25)(H,22,23)/t12-,15+/m0/s1
InChIKey=XNFBERIMCFBCPW-SWLSCSKDSA-N

> <PUBCHEM_SUBSTANCE_SYNONYM>
SCHEMBL16126598

> <PUBCHEM_XREF_EXT_ID>
SCHEMBL16126598

> <PUBCHEM_EXT_DATASOURCE_URL>
https://www.surechembl.org/

> <PUBCHEM_EXT_SUBSTANCE_URL>
https://www.surechembl.org/chemical/SCHEMBL16126598

> <PUBCHEM_CID_ASSOCIATIONS>
117613978  1

> <PUBCHEM_COORDINATE_TYPE>
1
3

> <PUBCHEM_BONDANNOTATIONS>
16  25  5
13  5  6

$$$$
