310933328
  -OEChem-07211613022D

 28 31  0     0  0  0  0  0  0999 V2000
    0.4283   -1.9467    0.0000 O   0  0  0  0  0  0  0  0  0  0  0  0
    0.0000   -4.5163    0.0000 O   0  0  0  0  0  0  0  0  0  0  0  0
    2.8810   -1.9856    0.0000 O   0  0  0  0  0  0  0  0  0  0  0  0
    3.5819   -4.0491    0.0000 O   0  0  0  0  0  0  0  0  0  0  0  0
    4.2827   -2.8421    0.0000 O   0  0  0  0  0  0  0  0  0  0  0  0
    1.4016   -4.4773    0.0000 N   0  0  0  0  0  0  0  0  0  0  0  0
    2.1413   -4.0491    0.0000 N   0  0  0  0  0  0  0  0  0  0  0  0
    0.1168   -2.6864    0.0000 N   0  0  0  0  0  0  0  0  0  0  0  0
    1.4405   -2.8032    0.0000 C   0  0  0  0  0  0  0  0  0  0  0  0
    0.7008   -3.2314    0.0000 C   0  0  0  0  0  0  0  0  0  0  0  0
    2.1413   -3.2314    0.0000 C   0  0  0  0  0  0  0  0  0  0  0  0
    1.2459   -2.0245    0.0000 C   0  0  0  0  0  0  0  0  0  0  0  0
    0.7398   -4.0880    0.0000 C   0  0  0  0  0  0  0  0  0  0  0  0
    2.8810   -2.8421    0.0000 C   0  0  0  0  0  0  0  0  0  0  0  0
    1.7909   -1.4016    0.0000 C   0  0  0  0  0  0  0  0  0  0  0  0
    1.4016   -5.2949    0.0000 C   0  0  0  0  0  0  0  0  0  0  0  0
    3.5819   -3.2314    0.0000 C   0  0  0  0  0  0  0  0  0  0  0  0
    1.5184   -0.6229    0.0000 C   0  0  0  0  0  0  0  0  0  0  0  0
    2.6085   -1.5573    0.0000 C   0  0  0  0  0  0  0  0  0  0  0  0
    0.7008   -5.7232    0.0000 C   0  0  0  0  0  0  0  0  0  0  0  0
    2.1413   -5.7232    0.0000 C   0  0  0  0  0  0  0  0  0  0  0  0
    0.7008   -6.5408    0.0000 C   0  0  0  0  0  0  0  0  0  0  0  0
    2.1413   -6.5408    0.0000 C   0  0  0  0  0  0  0  0  0  0  0  0
    1.4405   -6.9690    0.0000 C   0  0  0  0  0  0  0  0  0  0  0  0
    2.0634    0.0000    0.0000 C   0  0  0  0  0  0  0  0  0  0  0  0
    3.1536   -0.9344    0.0000 C   0  0  0  0  0  0  0  0  0  0  0  0
    2.8810   -0.1557    0.0000 C   0  0  0  0  0  0  0  0  0  0  0  0
    1.4405   -7.7867    0.0000 C   0  0  0  0  0  0  0  0  0  0  0  0
  1  8  1  0  0  0  0
  1 12  1  0  0  0  0
  2 13  2  0  0  0  0
  3 14  2  0  0  0  0
  4 17  2  0  0  0  0
  5 17  1  0  0  0  0
  6  7  1  0  0  0  0
  6 13  1  0  0  0  0
  6 16  1  0  0  0  0
  7 11  2  0  0  0  0
  8 10  2  0  0  0  0
  9 10  1  0  0  0  0
  9 11  1  0  0  0  0
  9 12  2  0  0  0  0
 10 13  1  0  0  0  0
 11 14  1  0  0  0  0
 12 15  1  0  0  0  0
 14 17  1  0  0  0  0
 15 18  2  0  0  0  0
 15 19  1  0  0  0  0
 16 20  2  0  0  0  0
 16 21  1  0  0  0  0
 18 25  1  0  0  0  0
 19 26  2  0  0  0  0
 20 22  1  0  0  0  0
 21 23  2  0  0  0  0
 22 24  2  0  0  0  0
 23 24  1  0  0  0  0
 24 28  1  0  0  0  0
 25 27  2  0  0  0  0
 26 27  1  0  0  0  0
M  END
> <PUBCHEM_COMPOUND_ID_TYPE>
0

> <PUBCHEM_TOTAL_CHARGE>
0

> <PUBCHEM_SUBSTANCE_ID>
310933328

> <PUBCHEM_SUBSTANCE_VERSION>
1

> <PUBCHEM_EXT_DATASOURCE_NAME>
4488

> <PUBCHEM_EXT_DATASOURCE_REGID>
SCHEMBL16110740

> <PUBCHEM_SUBSTANCE_COMMENT>
InChI=1S/C20H13N3O5/c1-11-7-9-13(10-8-11)23-19(25)16-14(15(21-23)17(24)20(26)27)18(28-22-16)12-5-3-2-4-6-12/h2-10H,1H3,(H,26,27)
InChIKey=LLRKXCMFDLJDKI-UHFFFAOYSA-N

> <PUBCHEM_SUBSTANCE_SYNONYM>
SCHEMBL16110740

> <PUBCHEM_XREF_EXT_ID>
SCHEMBL16110740

> <PUBCHEM_EXT_DATASOURCE_URL>
https://www.surechembl.org/

> <PUBCHEM_EXT_SUBSTANCE_URL>
https://www.surechembl.org/chemical/SCHEMBL16110740

> <PUBCHEM_CID_ASSOCIATIONS>
117601742  1

> <PUBCHEM_COORDINATE_TYPE>
1
3

$$$$
