310949889
  -OEChem-07211613022D

 22 24  0     1  0  0  0  0  0999 V2000
    0.7136   -0.4088    0.0000 N   0  0  0  0  0  0  0  0  0  0  0  0
   -1.4204    0.8245    0.0000 N   0  0  0  0  0  0  0  0  0  0  0  0
   -2.8476    1.6559    0.0000 N   0  0  0  0  0  0  0  0  0  0  0  0
    1.4342   -0.8245    0.0000 C   0  0  3  0  0  0  0  0  0  0  0  0
   -0.6998    0.4227    0.0000 C   0  0  0  0  0  0  0  0  0  0  0  0
   -2.1271    0.4227    0.0000 C   0  0  0  0  0  0  0  0  0  0  0  0
    2.1410   -0.4088    0.0000 C   0  0  0  0  0  0  0  0  0  0  0  0
    0.7136    0.4227    0.0000 C   0  0  0  0  0  0  0  0  0  0  0  0
    0.0070   -0.8245    0.0000 C   0  0  0  0  0  0  0  0  0  0  0  0
   -0.7136   -0.4088    0.0000 C   0  0  0  0  0  0  0  0  0  0  0  0
   -0.0208    0.8245    0.0000 C   0  0  0  0  0  0  0  0  0  0  0  0
   -2.8476    0.8245    0.0000 C   0  0  0  0  0  0  0  0  0  0  0  0
   -2.1410   -0.4088    0.0000 C   0  0  0  0  0  0  0  0  0  0  0  0
    2.1548    0.4227    0.0000 C   0  0  0  0  0  0  0  0  0  0  0  0
    2.8615   -0.8106    0.0000 C   0  0  0  0  0  0  0  0  0  0  0  0
   -3.5544    0.4088    0.0000 C   0  0  0  0  0  0  0  0  0  0  0  0
    1.4342   -1.6559    0.0000 C   0  0  0  0  0  0  0  0  0  0  0  0
   -2.8338   -0.8245    0.0000 C   0  0  0  0  0  0  0  0  0  0  0  0
   -3.5544   -0.4088    0.0000 C   0  0  0  0  0  0  0  0  0  0  0  0
    2.8476    0.8106    0.0000 C   0  0  0  0  0  0  0  0  0  0  0  0
    3.5544   -0.4088    0.0000 C   0  0  0  0  0  0  0  0  0  0  0  0
    3.5544    0.4088    0.0000 C   0  0  0  0  0  0  0  0  0  0  0  0
  1  4  1  0  0  0  0
  1  8  1  0  0  0  0
  1  9  1  0  0  0  0
  2  5  1  0  0  0  0
  2  6  1  0  0  0  0
  3 12  1  0  0  0  0
  4  7  1  0  0  0  0
  4 17  1  6  0  0  0
  5 10  1  0  0  0  0
  5 11  1  0  0  0  0
  6 12  2  0  0  0  0
  6 13  1  0  0  0  0
  7 14  1  0  0  0  0
  7 15  1  0  0  0  0
  8 11  1  0  0  0  0
  9 10  1  0  0  0  0
 12 16  1  0  0  0  0
 13 18  2  0  0  0  0
 14 20  1  0  0  0  0
 15 21  1  0  0  0  0
 16 19  2  0  0  0  0
 18 19  1  0  0  0  0
 20 22  1  0  0  0  0
 21 22  1  0  0  0  0
M  END
> <PUBCHEM_COMPOUND_ID_TYPE>
0

> <PUBCHEM_TOTAL_CHARGE>
0

> <PUBCHEM_SUBSTANCE_ID>
310949889

> <PUBCHEM_SUBSTANCE_VERSION>
1

> <PUBCHEM_EXT_DATASOURCE_NAME>
4488

> <PUBCHEM_EXT_DATASOURCE_REGID>
SCHEMBL16128100

> <PUBCHEM_SUBSTANCE_COMMENT>
InChI=1S/C19H31N3/c1-15(16-7-3-2-4-8-16)22-13-11-17(12-14-22)21-19-10-6-5-9-18(19)20/h5-6,9-10,15-17,21H,2-4,7-8,11-14,20H2,1H3/t15-/m0/s1
InChIKey=WEPGUPNGNSGRPF-HNNXBMFYSA-N

> <PUBCHEM_SUBSTANCE_SYNONYM>
SCHEMBL16128100

> <PUBCHEM_XREF_EXT_ID>
SCHEMBL16128100

> <PUBCHEM_EXT_DATASOURCE_URL>
https://www.surechembl.org/

> <PUBCHEM_EXT_SUBSTANCE_URL>
https://www.surechembl.org/chemical/SCHEMBL16128100

> <PUBCHEM_CID_ASSOCIATIONS>
117615176  1

> <PUBCHEM_COORDINATE_TYPE>
1
3

> <PUBCHEM_BONDANNOTATIONS>
4  17  6

$$$$
