310945049
  -OEChem-07211613022D

 35 39  0     1  0  0  0  0  0999 V2000
    2.1311   -2.7740    0.0000 S   0  0  0  0  0  0  0  0  0  0  0  0
   -2.1870    1.2228    0.0000 S   0  0  0  0  0  0  0  0  0  0  0  0
    3.6823   -3.3609    0.0000 O   0  0  0  0  0  0  0  0  0  0  0  0
    0.0629    0.3843    0.0000 O   0  0  0  0  0  0  0  0  0  0  0  0
   -1.4464    2.5084    0.0000 O   0  0  0  0  0  0  0  0  0  0  0  0
    3.0255   -0.7337    0.0000 N   0  0  0  0  0  0  0  0  0  0  0  0
   -0.9852   -0.5660    0.0000 N   0  0  0  0  0  0  0  0  0  0  0  0
   -2.3966   -0.1188    0.0000 N   0  0  0  0  0  0  0  0  0  0  0  0
    4.3111   -2.0892    0.0000 N   0  0  0  0  0  0  0  0  0  0  0  0
   -3.5844    0.7616    0.0000 N   0  0  0  0  0  0  0  0  0  0  0  0
   -0.7337    1.2647    0.0000 N   0  0  0  0  0  0  0  0  0  0  0  0
    1.7258   -1.4604    0.0000 C   0  0  0  0  0  0  0  0  0  0  0  0
    2.5503   -1.4743    0.0000 C   0  0  0  0  0  0  0  0  0  0  0  0
    2.8019   -2.2569    0.0000 C   0  0  0  0  0  0  0  0  0  0  0  0
    1.4464   -2.2708    0.0000 C   0  0  0  0  0  0  0  0  0  0  0  0
    0.3563   -1.0131    0.0000 C   0  0  0  0  0  0  0  0  0  0  0  0
    1.1669   -0.8594    0.0000 C   0  0  0  0  0  0  0  0  0  0  0  0
    3.5985   -2.5364    0.0000 C   0  0  0  0  0  0  0  0  0  0  0  0
   -1.5861    0.0210    0.0000 C   0  0  0  0  0  0  0  0  0  0  0  0
    0.6638   -2.4385    0.0000 C   0  0  0  0  0  0  0  0  0  0  0  0
   -0.2026   -0.4122    0.0000 C   0  0  0  0  0  0  0  0  0  0  0  0
   -1.4464    0.8455    0.0000 C   0  0  0  0  0  0  0  0  0  0  0  0
    0.1188   -1.8097    0.0000 C   0  0  0  0  0  0  0  0  0  0  0  0
   -2.7740    0.6219    0.0000 C   0  0  0  0  0  0  0  0  0  0  0  0
    3.8500   -0.6778    0.0000 C   0  0  0  0  0  0  0  0  0  0  0  0
    4.4229   -1.2647    0.0000 C   0  0  3  0  0  0  0  0  0  0  0  0
   -3.8779    1.5442    0.0000 C   0  0  0  0  0  0  0  0  0  0  0  0
   -4.1015    0.1188    0.0000 C   0  0  0  0  0  0  0  0  0  0  0  0
   -0.7197    2.0892    0.0000 C   0  0  0  0  0  0  0  0  0  0  0  0
    5.2055   -1.0131    0.0000 C   0  0  0  0  0  0  0  0  0  0  0  0
   -4.6885    1.6699    0.0000 C   0  0  0  0  0  0  0  0  0  0  0  0
   -4.9261    0.2446    0.0000 C   0  0  0  0  0  0  0  0  0  0  0  0
   -5.2055    1.0411    0.0000 C   0  0  0  0  0  0  0  0  0  0  0  0
   -0.0210    2.5084    0.0000 C   0  0  0  0  0  0  0  0  0  0  0  0
   -0.0908    3.3609    0.0000 C   0  0  0  0  0  0  0  0  0  0  0  0
  1 14  1  0  0  0  0
  1 15  1  0  0  0  0
  2 22  1  0  0  0  0
  2 24  1  0  0  0  0
  3 18  2  0  0  0  0
  4 21  2  0  0  0  0
  5 29  2  0  0  0  0
  6 13  1  0  0  0  0
  6 25  1  0  0  0  0
  7 19  1  0  0  0  0
  7 21  1  0  0  0  0
  8 19  1  0  0  0  0
  8 24  2  0  0  0  0
  9 18  1  0  0  0  0
  9 26  1  0  0  0  0
 10 24  1  0  0  0  0
 10 27  1  0  0  0  0
 10 28  1  0  0  0  0
 11 22  1  0  0  0  0
 11 29  1  0  0  0  0
 12 13  1  0  0  0  0
 12 15  1  0  0  0  0
 12 17  2  0  0  0  0
 13 14  2  0  0  0  0
 14 18  1  0  0  0  0
 15 20  2  0  0  0  0
 16 17  1  0  0  0  0
 16 21  1  0  0  0  0
 16 23  2  0  0  0  0
 19 22  2  0  0  0  0
 20 23  1  0  0  0  0
 25 26  1  0  0  0  0
 26 30  1  1  0  0  0
 27 31  1  0  0  0  0
 28 32  1  0  0  0  0
 29 34  1  0  0  0  0
 31 33  1  0  0  0  0
 32 33  1  0  0  0  0
 34 35  2  0  0  0  0
M  END
> <PUBCHEM_COMPOUND_ID_TYPE>
0

> <PUBCHEM_TOTAL_CHARGE>
0

> <PUBCHEM_SUBSTANCE_ID>
310945049

> <PUBCHEM_SUBSTANCE_VERSION>
1

> <PUBCHEM_EXT_DATASOURCE_NAME>
4488

> <PUBCHEM_EXT_DATASOURCE_REGID>
SCHEMBL16123137

> <PUBCHEM_SUBSTANCE_COMMENT>
InChI=1S/C24H26N6O3S2/c1-3-17(31)27-23-20(29-24(35-23)30-9-5-4-6-10-30)28-21(32)14-7-8-16-15(11-14)18-19(34-16)22(33)26-13(2)12-25-18/h3,7-8,11,13,25H,1,4-6,9-10,12H2,2H3,(H,26,33)(H,27,31)(H,28,32)/t13-/m1/s1
InChIKey=GAUAQGGTRGDZMU-CYBMUJFWSA-N

> <PUBCHEM_SUBSTANCE_SYNONYM>
SCHEMBL16123137

> <PUBCHEM_XREF_EXT_ID>
SCHEMBL16123137

> <PUBCHEM_EXT_DATASOURCE_URL>
https://www.surechembl.org/

> <PUBCHEM_EXT_SUBSTANCE_URL>
https://www.surechembl.org/chemical/SCHEMBL16123137

> <PUBCHEM_CID_ASSOCIATIONS>
117611172  1

> <PUBCHEM_COORDINATE_TYPE>
1
3

> <PUBCHEM_BONDANNOTATIONS>
26  30  5

$$$$
