310929809
  -OEChem-07211613022D

 23 24  0     1  0  0  0  0  0999 V2000
    5.0725   -1.1246    0.0000 O   0  0  0  0  0  0  0  0  0  0  0  0
    5.7902   -2.3448    0.0000 O   0  0  0  0  0  0  0  0  0  0  0  0
    5.7902   -3.1583    0.0000 O   0  0  0  0  0  0  0  0  0  0  0  0
    5.0964   -4.3786    0.0000 O   0  0  0  0  0  0  0  0  0  0  0  0
    2.2251   -4.4025    0.0000 O   0  0  0  0  0  0  0  0  0  0  0  0
    4.3786   -2.3448    0.0000 N   0  0  0  0  0  0  0  0  0  0  0  0
    4.3786   -0.7178    0.0000 C   0  0  3  0  0  0  0  0  0  0  0  0
    3.5411   -0.7178    0.0000 C   0  0  3  0  0  0  0  0  0  0  0  0
    3.9718    0.0000    0.0000 C   0  0  0  0  0  0  0  0  0  0  0  0
    4.3786   -3.1583    0.0000 C   0  0  3  0  0  0  0  0  0  0  0  0
    5.0725   -1.9381    0.0000 C   0  0  0  0  0  0  0  0  0  0  0  0
    3.6607   -3.5651    0.0000 C   0  0  0  0  0  0  0  0  0  0  0  0
    5.0964   -3.5651    0.0000 C   0  0  0  0  0  0  0  0  0  0  0  0
    2.8473   -1.1006    0.0000 C   0  0  0  0  0  0  0  0  0  0  0  0
    2.9430   -3.1583    0.0000 C   0  0  0  0  0  0  0  0  0  0  0  0
    3.6369   -4.3786    0.0000 C   0  0  0  0  0  0  0  0  0  0  0  0
    2.1295   -0.6939    0.0000 C   0  0  0  0  0  0  0  0  0  0  0  0
    2.2491   -3.5651    0.0000 C   0  0  0  0  0  0  0  0  0  0  0  0
    2.9430   -4.7853    0.0000 C   0  0  0  0  0  0  0  0  0  0  0  0
    1.4356   -1.1006    0.0000 C   0  0  0  0  0  0  0  0  0  0  0  0
    6.5080   -3.5651    0.0000 C   0  0  0  0  0  0  0  0  0  0  0  0
    0.7178   -0.6700    0.0000 C   0  0  0  0  0  0  0  0  0  0  0  0
    0.0000   -1.0767    0.0000 C   0  0  0  0  0  0  0  0  0  0  0  0
  7  1  1  1  0  0  0
  1 11  1  0  0  0  0
  2 11  2  0  0  0  0
  3 13  1  0  0  0  0
  3 21  1  0  0  0  0
  4 13  2  0  0  0  0
  5 18  1  0  0  0  0
  5 19  1  0  0  0  0
  6 10  1  0  0  0  0
  6 11  1  0  0  0  0
  7  8  1  0  0  0  0
  7  9  1  0  0  0  0
  8  9  1  0  0  0  0
  8 14  1  6  0  0  0
 10 12  1  0  0  0  0
 10 13  1  0  0  0  0
 12 15  1  0  0  0  0
 12 16  1  0  0  0  0
 14 17  1  0  0  0  0
 15 18  1  0  0  0  0
 16 19  1  0  0  0  0
 17 20  1  0  0  0  0
 20 22  1  0  0  0  0
 22 23  3  0  0  0  0
M  END
> <PUBCHEM_COMPOUND_ID_TYPE>
0

> <PUBCHEM_TOTAL_CHARGE>
0

> <PUBCHEM_SUBSTANCE_ID>
310929809

> <PUBCHEM_SUBSTANCE_VERSION>
1

> <PUBCHEM_EXT_DATASOURCE_NAME>
4488

> <PUBCHEM_EXT_DATASOURCE_REGID>
SCHEMBL16107012

> <PUBCHEM_SUBSTANCE_COMMENT>
InChI=1S/C17H25NO5/c1-3-4-5-6-13-11-14(13)23-17(20)18-15(16(19)21-2)12-7-9-22-10-8-12/h1,12-15H,4-11H2,2H3,(H,18,20)/t13-,14-,15?/m1/s1
InChIKey=PXPXDKROCRDTIF-GRKKQISMSA-N

> <PUBCHEM_SUBSTANCE_SYNONYM>
SCHEMBL16107012

> <PUBCHEM_XREF_EXT_ID>
SCHEMBL16107012

> <PUBCHEM_EXT_DATASOURCE_URL>
https://www.surechembl.org/

> <PUBCHEM_EXT_SUBSTANCE_URL>
https://www.surechembl.org/chemical/SCHEMBL16107012

> <PUBCHEM_CID_ASSOCIATIONS>
117599086  1

> <PUBCHEM_COORDINATE_TYPE>
1
3

> <PUBCHEM_BONDANNOTATIONS>
7  1  5
8  14  6

$$$$
