310936243
  -OEChem-07211613022D

 21 22  0     0  0  0  0  0  0999 V2000
    4.3847   -5.3242    0.0000 F   0  0  0  0  0  0  0  0  0  0  0  0
    0.8352   -1.6355    0.0000 O   0  0  0  0  0  0  0  0  0  0  0  0
    2.2271   -1.6355    0.0000 O   0  0  0  0  0  0  0  0  0  0  0  0
    1.5311   -2.8535    0.0000 N   0  0  0  0  0  0  0  0  0  0  0  0
    1.5311   -2.0184    0.0000 C   0  0  0  0  0  0  0  0  0  0  0  0
    1.5311   -4.4891    0.0000 C   0  0  0  0  0  0  0  0  0  0  0  0
    2.2619   -3.2711    0.0000 C   0  0  0  0  0  0  0  0  0  0  0  0
    0.8352   -3.2711    0.0000 C   0  0  0  0  0  0  0  0  0  0  0  0
    2.2271   -5.7070    0.0000 C   0  0  0  0  0  0  0  0  0  0  0  0
    2.2619   -4.0715    0.0000 C   0  0  0  0  0  0  0  0  0  0  0  0
    0.8352   -4.0715    0.0000 C   0  0  0  0  0  0  0  0  0  0  0  0
    1.5311   -5.3242    0.0000 C   0  0  0  0  0  0  0  0  0  0  0  0
    0.8352   -0.8004    0.0000 C   0  0  0  0  0  0  0  0  0  0  0  0
    2.9579   -5.3242    0.0000 C   0  0  0  0  0  0  0  0  0  0  0  0
    3.6539   -5.7070    0.0000 C   0  0  0  0  0  0  0  0  0  0  0  0
    2.2271   -6.5422    0.0000 C   0  0  0  0  0  0  0  0  0  0  0  0
    3.6539   -6.5422    0.0000 C   0  0  0  0  0  0  0  0  0  0  0  0
    2.9579   -6.9598    0.0000 C   0  0  0  0  0  0  0  0  0  0  0  0
    1.6704   -0.8004    0.0000 C   0  0  0  0  0  0  0  0  0  0  0  0
    0.8352    0.0000    0.0000 C   0  0  0  0  0  0  0  0  0  0  0  0
    0.0000   -0.8004    0.0000 C   0  0  0  0  0  0  0  0  0  0  0  0
  1 15  1  0  0  0  0
  2  5  1  0  0  0  0
  2 13  1  0  0  0  0
  3  5  2  0  0  0  0
  4  5  1  0  0  0  0
  4  7  1  0  0  0  0
  4  8  1  0  0  0  0
  6 10  1  0  0  0  0
  6 11  1  0  0  0  0
  6 12  2  0  0  0  0
  7 10  1  0  0  0  0
  8 11  1  0  0  0  0
  9 12  1  0  0  0  0
  9 14  2  0  0  0  0
  9 16  1  0  0  0  0
 13 19  1  0  0  0  0
 13 20  1  0  0  0  0
 13 21  1  0  0  0  0
 14 15  1  0  0  0  0
 15 17  2  0  0  0  0
 16 18  2  0  0  0  0
 17 18  1  0  0  0  0
M  END
> <PUBCHEM_COMPOUND_ID_TYPE>
0

> <PUBCHEM_TOTAL_CHARGE>
0

> <PUBCHEM_SUBSTANCE_ID>
310936243

> <PUBCHEM_SUBSTANCE_VERSION>
1

> <PUBCHEM_EXT_DATASOURCE_NAME>
4488

> <PUBCHEM_EXT_DATASOURCE_REGID>
SCHEMBL16113858

> <PUBCHEM_SUBSTANCE_COMMENT>
InChI=1S/C17H22FNO2/c1-17(2,3)21-16(20)19-9-7-13(8-10-19)11-14-5-4-6-15(18)12-14/h4-6,11-12H,7-10H2,1-3H3
InChIKey=HJXCLPMJBRBXDP-UHFFFAOYSA-N

> <PUBCHEM_SUBSTANCE_SYNONYM>
SCHEMBL16113858

> <PUBCHEM_XREF_EXT_ID>
SCHEMBL16113858

> <PUBCHEM_EXT_DATASOURCE_URL>
https://www.surechembl.org/

> <PUBCHEM_EXT_SUBSTANCE_URL>
https://www.surechembl.org/chemical/SCHEMBL16113858

> <PUBCHEM_CID_ASSOCIATIONS>
117604192  1

> <PUBCHEM_COORDINATE_TYPE>
1
3

$$$$
