310932424
  -OEChem-07211613022D

 33 35  0     0  0  0  0  0  0999 V2000
    7.1272   -4.5911    0.0000 Br  0  0  0  0  0  0  0  0  0  0  0  0
    9.1385   -2.9296    0.0000 S   0  0  0  0  0  0  0  0  0  0  0  0
    6.4276   -0.7870    0.0000 S   0  0  0  0  0  0  0  0  0  0  0  0
    5.7280   -2.0988    0.0000 O   0  0  0  0  0  0  0  0  0  0  0  0
    5.7280   -3.7603    0.0000 O   0  0  0  0  0  0  0  0  0  0  0  0
    8.6138   -2.2737    0.0000 N   0  0  0  0  0  0  0  0  0  0  0  0
    8.6138   -3.5854    0.0000 N   0  0  0  0  0  0  0  0  0  0  0  0
    7.1272   -2.0988    0.0000 C   0  0  0  0  0  0  0  0  0  0  0  0
    7.8267   -2.4923    0.0000 C   0  0  0  0  0  0  0  0  0  0  0  0
    7.8267   -3.3668    0.0000 C   0  0  0  0  0  0  0  0  0  0  0  0
    6.4276   -2.4923    0.0000 C   0  0  0  0  0  0  0  0  0  0  0  0
    6.4276   -3.3668    0.0000 C   0  0  0  0  0  0  0  0  0  0  0  0
    7.1272   -3.7603    0.0000 C   0  0  0  0  0  0  0  0  0  0  0  0
    7.1272   -1.2680    0.0000 C   0  0  0  0  0  0  0  0  0  0  0  0
    7.7830   -0.7870    0.0000 C   0  0  0  0  0  0  0  0  0  0  0  0
    6.6899    0.0000    0.0000 C   0  0  0  0  0  0  0  0  0  0  0  0
    7.5207    0.0000    0.0000 C   0  0  0  0  0  0  0  0  0  0  0  0
    4.9847   -2.4923    0.0000 C   0  0  0  0  0  0  0  0  0  0  0  0
    5.7280   -4.5911    0.0000 C   0  0  0  0  0  0  0  0  0  0  0  0
    4.2851   -2.0988    0.0000 C   0  0  0  0  0  0  0  0  0  0  0  0
    5.0284   -5.0284    0.0000 C   0  0  0  0  0  0  0  0  0  0  0  0
    3.5854   -2.4923    0.0000 C   0  0  0  0  0  0  0  0  0  0  0  0
    5.0284   -5.8154    0.0000 C   0  0  0  0  0  0  0  0  0  0  0  0
    2.8421   -2.0988    0.0000 C   0  0  0  0  0  0  0  0  0  0  0  0
    4.2851   -6.2526    0.0000 C   0  0  0  0  0  0  0  0  0  0  0  0
    2.1425   -2.4923    0.0000 C   0  0  0  0  0  0  0  0  0  0  0  0
    4.3288   -7.0834    0.0000 C   0  0  0  0  0  0  0  0  0  0  0  0
    1.3992   -2.0988    0.0000 C   0  0  0  0  0  0  0  0  0  0  0  0
    3.5854   -7.4769    0.0000 C   0  0  0  0  0  0  0  0  0  0  0  0
    0.6996   -2.4923    0.0000 C   0  0  0  0  0  0  0  0  0  0  0  0
    3.5854   -8.3077    0.0000 C   0  0  0  0  0  0  0  0  0  0  0  0
    0.0000   -2.0988    0.0000 C   0  0  0  0  0  0  0  0  0  0  0  0
    2.8858   -8.7450    0.0000 C   0  0  0  0  0  0  0  0  0  0  0  0
  1 13  1  0  0  0  0
  2  6  1  0  0  0  0
  2  7  1  0  0  0  0
  3 14  1  0  0  0  0
  3 16  1  0  0  0  0
  4 11  1  0  0  0  0
  4 18  1  0  0  0  0
  5 12  1  0  0  0  0
  5 19  1  0  0  0  0
  6  9  2  0  0  0  0
  7 10  2  0  0  0  0
  8  9  1  0  0  0  0
  8 11  2  0  0  0  0
  8 14  1  0  0  0  0
  9 10  1  0  0  0  0
 10 13  1  0  0  0  0
 11 12  1  0  0  0  0
 12 13  2  0  0  0  0
 14 15  2  0  0  0  0
 15 17  1  0  0  0  0
 16 17  2  0  0  0  0
 18 20  1  0  0  0  0
 19 21  1  0  0  0  0
 20 22  1  0  0  0  0
 21 23  1  0  0  0  0
 22 24  1  0  0  0  0
 23 25  1  0  0  0  0
 24 26  1  0  0  0  0
 25 27  1  0  0  0  0
 26 28  1  0  0  0  0
 27 29  1  0  0  0  0
 28 30  1  0  0  0  0
 29 31  1  0  0  0  0
 30 32  1  0  0  0  0
 31 33  1  0  0  0  0
M  END
> <PUBCHEM_COMPOUND_ID_TYPE>
0

> <PUBCHEM_TOTAL_CHARGE>
0

> <PUBCHEM_SUBSTANCE_ID>
310932424

> <PUBCHEM_SUBSTANCE_VERSION>
1

> <PUBCHEM_EXT_DATASOURCE_NAME>
4488

> <PUBCHEM_EXT_DATASOURCE_REGID>
SCHEMBL16109792

> <PUBCHEM_SUBSTANCE_COMMENT>
InChI=1S/C26H37BrN2O2S2/c1-3-5-7-9-11-13-17-30-25-21(20-16-15-19-32-20)23-24(29-33-28-23)22(27)26(25)31-18-14-12-10-8-6-4-2/h15-16,19H,3-14,17-18H2,1-2H3
InChIKey=JUILCAXBMHBCBT-UHFFFAOYSA-N

> <PUBCHEM_SUBSTANCE_SYNONYM>
SCHEMBL16109792

> <PUBCHEM_XREF_EXT_ID>
SCHEMBL16109792

> <PUBCHEM_EXT_DATASOURCE_URL>
https://www.surechembl.org/

> <PUBCHEM_EXT_SUBSTANCE_URL>
https://www.surechembl.org/chemical/SCHEMBL16109792

> <PUBCHEM_CID_ASSOCIATIONS>
117600976  1

> <PUBCHEM_COORDINATE_TYPE>
1
3

$$$$
