310942052
  -OEChem-07211613022D

 28 29  0     1  0  0  0  0  0999 V2000
    1.7873    1.8685    0.0000 Cl  0  0  0  0  0  0  0  0  0  0  0  0
   -2.5496    0.2062    0.0000 S   0  0  3  0  0  0  0  0  0  0  0  0
    0.3499   -0.6312    0.0000 F   0  0  0  0  0  0  0  0  0  0  0  0
    1.7747    0.2062    0.0000 O   0  0  0  0  0  0  0  0  0  0  0  0
   -2.5496   -0.6312    0.0000 O   0  0  0  0  0  0  0  0  0  0  0  0
   -1.8122    0.6187    0.0000 N   0  0  0  0  0  0  0  0  0  0  0  0
   -0.3749    0.6312    0.0000 C   0  0  0  0  0  0  0  0  0  0  0  0
    0.3625    0.2188    0.0000 C   0  0  0  0  0  0  0  0  0  0  0  0
   -1.0874    0.2062    0.0000 C   0  0  3  0  0  0  0  0  0  0  0  0
    1.0624    0.6312    0.0000 C   0  0  0  0  0  0  0  0  0  0  0  0
    1.0748    1.4561    0.0000 C   0  0  0  0  0  0  0  0  0  0  0  0
   -0.3625    1.4561    0.0000 C   0  0  0  0  0  0  0  0  0  0  0  0
   -1.0998   -0.6312    0.0000 C   0  0  0  0  0  0  0  0  0  0  0  0
    0.3499    1.8685    0.0000 C   0  0  0  0  0  0  0  0  0  0  0  0
   -3.2621    0.6312    0.0000 C   0  0  0  0  0  0  0  0  0  0  0  0
    2.4997    0.6312    0.0000 C   0  0  0  0  0  0  0  0  0  0  0  0
   -1.7998   -1.0436    0.0000 C   0  0  0  0  0  0  0  0  0  0  0  0
   -0.3749   -1.0436    0.0000 C   0  0  0  0  0  0  0  0  0  0  0  0
    3.2495    0.2188    0.0000 C   0  0  0  0  0  0  0  0  0  0  0  0
    2.5247    1.4561    0.0000 C   0  0  0  0  0  0  0  0  0  0  0  0
   -2.5371    1.0186    0.0000 C   0  0  0  0  0  0  0  0  0  0  0  0
   -3.2621    1.4435    0.0000 C   0  0  0  0  0  0  0  0  0  0  0  0
   -3.9494    0.2062    0.0000 C   0  0  0  0  0  0  0  0  0  0  0  0
    3.9494    0.6187    0.0000 C   0  0  0  0  0  0  0  0  0  0  0  0
    3.2370    1.8685    0.0000 C   0  0  0  0  0  0  0  0  0  0  0  0
   -1.7998   -1.8685    0.0000 C   0  0  0  0  0  0  0  0  0  0  0  0
   -0.3625   -1.8685    0.0000 C   0  0  0  0  0  0  0  0  0  0  0  0
    3.9494    1.4561    0.0000 C   0  0  0  0  0  0  0  0  0  0  0  0
  1 11  1  0  0  0  0
  2  5  2  0  0  0  0
  2  6  1  6  0  0  0
  2 15  1  0  0  0  0
  3  8  1  0  0  0  0
  4 10  1  0  0  0  0
  4 16  1  0  0  0  0
  9  6  1  6  0  0  0
  7  8  1  0  0  0  0
  7  9  1  0  0  0  0
  7 12  2  0  0  0  0
  8 10  2  0  0  0  0
  9 13  1  0  0  0  0
 10 11  1  0  0  0  0
 11 14  2  0  0  0  0
 12 14  1  0  0  0  0
 13 17  1  0  0  0  0
 13 18  1  0  0  0  0
 15 21  1  0  0  0  0
 15 22  1  0  0  0  0
 15 23  1  0  0  0  0
 16 19  2  0  0  0  0
 16 20  1  0  0  0  0
 17 26  1  0  0  0  0
 18 27  1  0  0  0  0
 19 24  1  0  0  0  0
 20 25  2  0  0  0  0
 24 28  2  0  0  0  0
 25 28  1  0  0  0  0
M  END
> <PUBCHEM_COMPOUND_ID_TYPE>
0

> <PUBCHEM_TOTAL_CHARGE>
0

> <PUBCHEM_SUBSTANCE_ID>
310942052

> <PUBCHEM_SUBSTANCE_VERSION>
1

> <PUBCHEM_EXT_DATASOURCE_NAME>
4488

> <PUBCHEM_EXT_DATASOURCE_REGID>
SCHEMBL16120087

> <PUBCHEM_SUBSTANCE_COMMENT>
InChI=1S/C22H29ClFNO2S/c1-6-15(7-2)20(25-28(26)22(3,4)5)17-13-14-18(23)21(19(17)24)27-16-11-9-8-10-12-16/h8-15,20,25H,6-7H2,1-5H3/t20-,28+/m0/s1
InChIKey=SIMHDQGHNDDMTH-WTYVLRPYSA-N

> <PUBCHEM_SUBSTANCE_SYNONYM>
SCHEMBL16120087

> <PUBCHEM_XREF_EXT_ID>
SCHEMBL16120087

> <PUBCHEM_EXT_DATASOURCE_URL>
https://www.surechembl.org/

> <PUBCHEM_EXT_SUBSTANCE_URL>
https://www.surechembl.org/chemical/SCHEMBL16120087

> <PUBCHEM_CID_ASSOCIATIONS>
117608730  1

> <PUBCHEM_COORDINATE_TYPE>
1
3

> <PUBCHEM_BONDANNOTATIONS>
2  6  6
9  6  6

$$$$
