310929154
  -OEChem-07211613022D

 20 21  0     0  0  0  0  0  0999 V2000
    2.8281   -3.0658    0.0000 O   0  0  0  0  0  0  0  0  0  0  0  0
    3.5886   -0.7129    0.0000 O   0  5  0  0  0  0  0  0  0  0  0  0
    3.8976   -2.1151    0.0000 O   0  0  0  0  0  0  0  0  0  0  0  0
    3.3510   -1.4972    0.0000 N   0  3  0  0  0  0  0  0  0  0  0  0
    1.6874   -4.0877    0.0000 N   0  0  0  0  0  0  0  0  0  0  0  0
    1.2120   -4.7532    0.0000 N   0  0  0  0  0  0  0  0  0  0  0  0
    0.4278   -4.4917    0.0000 N   0  0  0  0  0  0  0  0  0  0  0  0
    1.4735   -2.6142    0.0000 C   0  0  0  0  0  0  0  0  0  0  0  0
    2.2815   -2.4478    0.0000 C   0  0  0  0  0  0  0  0  0  0  0  0
    2.5192   -1.6636    0.0000 C   0  0  0  0  0  0  0  0  0  0  0  0
    1.1645   -1.2120    0.0000 C   0  0  0  0  0  0  0  0  0  0  0  0
    1.2120   -3.3985    0.0000 C   0  0  0  0  0  0  0  0  0  0  0  0
    0.9269   -1.9963    0.0000 C   0  0  0  0  0  0  0  0  0  0  0  0
    1.9725   -1.0457    0.0000 C   0  0  0  0  0  0  0  0  0  0  0  0
    0.6179   -0.5941    0.0000 C   0  0  0  0  0  0  0  0  0  0  0  0
    0.4278   -3.6837    0.0000 C   0  0  0  0  0  0  0  0  0  0  0  0
    1.2596   -0.0476    0.0000 C   0  0  0  0  0  0  0  0  0  0  0  0
    0.0713    0.0000    0.0000 C   0  0  0  0  0  0  0  0  0  0  0  0
    0.0000   -1.1408    0.0000 C   0  0  0  0  0  0  0  0  0  0  0  0
    3.6362   -2.8757    0.0000 C   0  0  0  0  0  0  0  0  0  0  0  0
  1  9  1  0  0  0  0
  1 20  1  0  0  0  0
  2  4  1  0  0  0  0
  3  4  2  0  0  0  0
  4 10  1  0  0  0  0
  5  6  1  0  0  0  0
  5 12  1  0  0  0  0
  6  7  2  0  0  0  0
  7 16  1  0  0  0  0
  8  9  1  0  0  0  0
  8 12  1  0  0  0  0
  8 13  2  0  0  0  0
  9 10  2  0  0  0  0
 10 14  1  0  0  0  0
 11 13  1  0  0  0  0
 11 14  2  0  0  0  0
 11 15  1  0  0  0  0
 12 16  2  0  0  0  0
 15 17  1  0  0  0  0
 15 18  1  0  0  0  0
 15 19  1  0  0  0  0
M  CHG  2   2  -1   4   1
M  END
> <PUBCHEM_COMPOUND_ID_TYPE>
0

> <PUBCHEM_TOTAL_CHARGE>
0

> <PUBCHEM_SUBSTANCE_ID>
310929154

> <PUBCHEM_SUBSTANCE_VERSION>
1

> <PUBCHEM_EXT_DATASOURCE_NAME>
4488

> <PUBCHEM_EXT_DATASOURCE_REGID>
SCHEMBL16106317

> <PUBCHEM_SUBSTANCE_COMMENT>
InChI=1S/C13H16N4O3/c1-13(2,3)8-5-9(10-7-14-16-15-10)12(20-4)11(6-8)17(18)19/h5-7H,1-4H3,(H,14,15,16)
InChIKey=FERGDBMXGXIDKL-UHFFFAOYSA-N

> <PUBCHEM_SUBSTANCE_SYNONYM>
SCHEMBL16106317

> <PUBCHEM_XREF_EXT_ID>
SCHEMBL16106317

> <PUBCHEM_EXT_DATASOURCE_URL>
https://www.surechembl.org/

> <PUBCHEM_EXT_SUBSTANCE_URL>
https://www.surechembl.org/chemical/SCHEMBL16106317

> <PUBCHEM_CID_ASSOCIATIONS>
117598620  1

> <PUBCHEM_COORDINATE_TYPE>
1
3

$$$$
