310948799
  -OEChem-07211613022D

 37 39  0     1  0  0  0  0  0999 V2000
   -5.0787    0.0413    0.0000 O   0  0  0  0  0  0  0  0  0  0  0  0
   -5.7806    1.2800    0.0000 O   0  0  0  0  0  0  0  0  0  0  0  0
   -1.3350    2.4637    0.0000 O   0  0  0  0  0  0  0  0  0  0  0  0
    4.3629    0.8258    0.0000 O   0  0  0  0  0  0  0  0  0  0  0  0
    3.6473    2.0507    0.0000 O   0  0  0  0  0  0  0  0  0  0  0  0
   -0.6332   -0.3991    0.0000 N   0  0  0  0  0  0  0  0  0  0  0  0
   -0.6332    1.2524    0.0000 N   0  0  0  0  0  0  0  0  0  0  0  0
    0.0826    2.4774    0.0000 N   0  0  0  0  0  0  0  0  0  0  0  0
    2.9454    0.8395    0.0000 N   0  0  0  0  0  0  0  0  0  0  0  0
   -3.5509    1.3075    0.0000 C   0  0  3  0  0  0  0  0  0  0  0  0
   -4.3492    1.2937    0.0000 C   0  0  3  0  0  0  0  0  0  0  0  0
   -2.7527    0.8120    0.0000 C   0  0  0  0  0  0  0  0  0  0  0  0
   -3.9363    1.9820    0.0000 C   0  0  0  0  0  0  0  0  0  0  0  0
   -1.3488    0.8395    0.0000 C   0  0  0  0  0  0  0  0  0  0  0  0
   -1.3488    0.0138    0.0000 C   0  0  0  0  0  0  0  0  0  0  0  0
   -2.0782    1.2249    0.0000 C   0  0  0  0  0  0  0  0  0  0  0  0
   -5.0924    0.8946    0.0000 C   0  0  0  0  0  0  0  0  0  0  0  0
   -2.7664    0.0138    0.0000 C   0  0  0  0  0  0  0  0  0  0  0  0
   -2.0507   -0.3991    0.0000 C   0  0  0  0  0  0  0  0  0  0  0  0
   -0.6194    2.0645    0.0000 C   0  0  0  0  0  0  0  0  0  0  0  0
   -0.6332   -1.2387    0.0000 C   0  0  0  0  0  0  0  0  0  0  0  0
    0.0551    0.0000    0.0000 C   0  0  0  0  0  0  0  0  0  0  0  0
    0.7982    2.0645    0.0000 C   0  0  0  0  0  0  0  0  0  0  0  0
   -1.3350   -1.6378    0.0000 C   0  0  0  0  0  0  0  0  0  0  0  0
    0.8120   -0.3991    0.0000 C   0  0  0  0  0  0  0  0  0  0  0  0
    0.7982    1.2524    0.0000 C   0  0  0  0  0  0  0  0  0  0  0  0
    1.5140    2.4637    0.0000 C   0  0  0  0  0  0  0  0  0  0  0  0
    2.2159    1.2524    0.0000 C   0  0  0  0  0  0  0  0  0  0  0  0
    1.5002    0.8395    0.0000 C   0  0  0  0  0  0  0  0  0  0  0  0
    2.2159    2.0645    0.0000 C   0  0  0  0  0  0  0  0  0  0  0  0
   -2.0782   -1.2387    0.0000 C   0  0  0  0  0  0  0  0  0  0  0  0
   -1.3488   -2.4774    0.0000 C   0  0  0  0  0  0  0  0  0  0  0  0
    0.7982   -1.2387    0.0000 C   0  0  0  0  0  0  0  0  0  0  0  0
    1.5415    0.0138    0.0000 C   0  0  0  0  0  0  0  0  0  0  0  0
    3.6335    1.2249    0.0000 C   0  0  0  0  0  0  0  0  0  0  0  0
    5.0511    1.2387    0.0000 C   0  0  0  0  0  0  0  0  0  0  0  0
    5.7806    0.8258    0.0000 C   0  0  0  0  0  0  0  0  0  0  0  0
  1 17  2  0  0  0  0
  2 17  1  0  0  0  0
  3 20  2  0  0  0  0
  4 35  1  0  0  0  0
  4 36  1  0  0  0  0
  5 35  2  0  0  0  0
  6 15  1  0  0  0  0
  6 21  1  0  0  0  0
  6 22  1  0  0  0  0
  7 14  1  0  0  0  0
  7 20  1  0  0  0  0
  8 20  1  0  0  0  0
  8 23  1  0  0  0  0
  9 28  1  0  0  0  0
  9 35  1  0  0  0  0
 10 11  1  0  0  0  0
 10 12  1  0  0  0  0
 10 13  1  1  0  0  0
 11 13  1  0  0  0  0
 11 17  1  1  0  0  0
 12 16  1  0  0  0  0
 12 18  2  0  0  0  0
 14 15  1  0  0  0  0
 14 16  2  0  0  0  0
 15 19  2  0  0  0  0
 18 19  1  0  0  0  0
 21 24  1  0  0  0  0
 22 25  1  0  0  0  0
 23 26  2  0  0  0  0
 23 27  1  0  0  0  0
 24 31  1  0  0  0  0
 24 32  1  0  0  0  0
 25 33  1  0  0  0  0
 25 34  1  0  0  0  0
 26 29  1  0  0  0  0
 27 30  2  0  0  0  0
 28 29  2  0  0  0  0
 28 30  1  0  0  0  0
 36 37  1  0  0  0  0
M  END
> <PUBCHEM_COMPOUND_ID_TYPE>
0

> <PUBCHEM_TOTAL_CHARGE>
0

> <PUBCHEM_SUBSTANCE_ID>
310948799

> <PUBCHEM_SUBSTANCE_VERSION>
1

> <PUBCHEM_EXT_DATASOURCE_NAME>
4488

> <PUBCHEM_EXT_DATASOURCE_REGID>
SCHEMBL16126983

> <PUBCHEM_SUBSTANCE_COMMENT>
InChI=1S/C28H38N4O5/c1-6-37-28(36)30-21-10-8-20(9-11-21)29-27(35)31-24-13-19(22-14-23(22)26(33)34)7-12-25(24)32(15-17(2)3)16-18(4)5/h7-13,17-18,22-23H,6,14-16H2,1-5H3,(H,30,36)(H,33,34)(H2,29,31,35)/t22-,23-/m0/s1
InChIKey=DGUSQWGPFOIVDE-GOTSBHOMSA-N

> <PUBCHEM_SUBSTANCE_SYNONYM>
SCHEMBL16126983

> <PUBCHEM_XREF_EXT_ID>
SCHEMBL16126983

> <PUBCHEM_EXT_DATASOURCE_URL>
https://www.surechembl.org/

> <PUBCHEM_EXT_SUBSTANCE_URL>
https://www.surechembl.org/chemical/SCHEMBL16126983

> <PUBCHEM_CID_ASSOCIATIONS>
117614338  1

> <PUBCHEM_COORDINATE_TYPE>
1
3

> <PUBCHEM_BONDANNOTATIONS>
10  13  5
11  17  5

$$$$
