310943393
  -OEChem-07211613022D

 34 37  0     0  0  0  0  0  0999 V2000
    4.3064    0.8459    0.0000 F   0  0  0  0  0  0  0  0  0  0  0  0
    5.3970    0.5383    0.0000 F   0  0  0  0  0  0  0  0  0  0  0  0
    5.0615   -0.5523    0.0000 F   0  0  0  0  0  0  0  0  0  0  0  0
   -3.9988   -1.4192    0.0000 O   0  0  0  0  0  0  0  0  0  0  0  0
    1.0906   -1.0836    0.0000 O   0  0  0  0  0  0  0  0  0  0  0  0
   -5.3970    1.0696    0.0000 O   0  0  0  0  0  0  0  0  0  0  0  0
   -3.9569    0.2167    0.0000 N   0  0  0  0  0  0  0  0  0  0  0  0
   -1.8317   -1.0556    0.0000 N   0  0  0  0  0  0  0  0  0  0  0  0
   -2.5587   -1.4471    0.0000 N   0  0  0  0  0  0  0  0  0  0  0  0
    1.8177    0.1468    0.0000 N   0  0  0  0  0  0  0  0  0  0  0  0
    3.9708   -1.0836    0.0000 N   0  0  0  0  0  0  0  0  0  0  0  0
   -1.8177   -0.2167    0.0000 C   0  0  0  0  0  0  0  0  0  0  0  0
   -1.0486    0.1608    0.0000 C   0  0  0  0  0  0  0  0  0  0  0  0
   -3.2438   -0.1888    0.0000 C   0  0  0  0  0  0  0  0  0  0  0  0
   -2.5448    0.2027    0.0000 C   0  0  0  0  0  0  0  0  0  0  0  0
   -3.2718   -1.0137    0.0000 C   0  0  0  0  0  0  0  0  0  0  0  0
   -1.0486    0.9717    0.0000 C   0  0  0  0  0  0  0  0  0  0  0  0
    0.3774    0.1747    0.0000 C   0  0  0  0  0  0  0  0  0  0  0  0
   -0.3215   -0.2447    0.0000 C   0  0  0  0  0  0  0  0  0  0  0  0
    1.1046   -0.2307    0.0000 C   0  0  0  0  0  0  0  0  0  0  0  0
    3.9708   -0.2447    0.0000 C   0  0  0  0  0  0  0  0  0  0  0  0
    0.3774    0.9717    0.0000 C   0  0  0  0  0  0  0  0  0  0  0  0
   -0.3355    1.3632    0.0000 C   0  0  0  0  0  0  0  0  0  0  0  0
    2.5448   -0.2447    0.0000 C   0  0  0  0  0  0  0  0  0  0  0  0
    4.6840    0.1468    0.0000 C   0  0  0  0  0  0  0  0  0  0  0  0
    3.2578    0.1608    0.0000 C   0  0  0  0  0  0  0  0  0  0  0  0
   -3.9429    1.0416    0.0000 C   0  0  0  0  0  0  0  0  0  0  0  0
   -4.6840   -0.1608    0.0000 C   0  0  0  0  0  0  0  0  0  0  0  0
    2.5307   -1.0696    0.0000 C   0  0  0  0  0  0  0  0  0  0  0  0
   -1.7757    1.3632    0.0000 C   0  0  0  0  0  0  0  0  0  0  0  0
    3.2578   -1.4751    0.0000 C   0  0  0  0  0  0  0  0  0  0  0  0
   -4.6561    1.4751    0.0000 C   0  0  0  0  0  0  0  0  0  0  0  0
   -5.3970    0.2586    0.0000 C   0  0  0  0  0  0  0  0  0  0  0  0
   -4.7120   -0.9997    0.0000 C   0  0  0  0  0  0  0  0  0  0  0  0
  1 25  1  0  0  0  0
  2 25  1  0  0  0  0
  3 25  1  0  0  0  0
  4 16  1  0  0  0  0
  4 34  1  0  0  0  0
  5 20  2  0  0  0  0
  6 32  1  0  0  0  0
  6 33  1  0  0  0  0
  7 14  1  0  0  0  0
  7 27  1  0  0  0  0
  7 28  1  0  0  0  0
  8  9  2  0  0  0  0
  8 12  1  0  0  0  0
  9 16  1  0  0  0  0
 10 20  1  0  0  0  0
 10 24  1  0  0  0  0
 11 21  1  0  0  0  0
 11 31  2  0  0  0  0
 12 13  1  0  0  0  0
 12 15  2  0  0  0  0
 13 17  2  0  0  0  0
 13 19  1  0  0  0  0
 14 15  1  0  0  0  0
 14 16  2  0  0  0  0
 17 23  1  0  0  0  0
 17 30  1  0  0  0  0
 18 19  2  0  0  0  0
 18 20  1  0  0  0  0
 18 22  1  0  0  0  0
 21 25  1  0  0  0  0
 21 26  2  0  0  0  0
 22 23  2  0  0  0  0
 24 26  1  0  0  0  0
 24 29  2  0  0  0  0
 27 32  1  0  0  0  0
 28 33  1  0  0  0  0
 29 31  1  0  0  0  0
M  END
> <PUBCHEM_COMPOUND_ID_TYPE>
0

> <PUBCHEM_TOTAL_CHARGE>
0

> <PUBCHEM_SUBSTANCE_ID>
310943393

> <PUBCHEM_SUBSTANCE_VERSION>
1

> <PUBCHEM_EXT_DATASOURCE_NAME>
4488

> <PUBCHEM_EXT_DATASOURCE_REGID>
SCHEMBL16121456

> <PUBCHEM_SUBSTANCE_COMMENT>
InChI=1S/C23H22F3N5O3/c1-14-3-4-15(21(32)28-16-5-6-27-20(12-16)23(24,25)26)11-17(14)18-13-19(22(33-2)30-29-18)31-7-9-34-10-8-31/h3-6,11-13H,7-10H2,1-2H3,(H,27,28,32)
InChIKey=HZGBRTKLYANMLH-UHFFFAOYSA-N

> <PUBCHEM_SUBSTANCE_SYNONYM>
SCHEMBL16121456

> <PUBCHEM_XREF_EXT_ID>
SCHEMBL16121456

> <PUBCHEM_EXT_DATASOURCE_URL>
https://www.surechembl.org/

> <PUBCHEM_EXT_SUBSTANCE_URL>
https://www.surechembl.org/chemical/SCHEMBL16121456

> <PUBCHEM_CID_ASSOCIATIONS>
117609817  1

> <PUBCHEM_COORDINATE_TYPE>
1
3

$$$$
