310943068
  -OEChem-07211613022D

 34 37  0     1  0  0  0  0  0999 V2000
   -1.0092   -3.2054    0.0000 S   0  0  0  0  0  0  0  0  0  0  0  0
   -0.3633   -3.7383    0.0000 O   0  0  0  0  0  0  0  0  0  0  0  0
   -1.5422   -3.8352    0.0000 O   0  0  0  0  0  0  0  0  0  0  0  0
   -0.6217   -0.9286    0.0000 O   0  0  0  0  0  0  0  0  0  0  0  0
    0.7186    3.6414    0.0000 O   0  0  0  0  0  0  0  0  0  0  0  0
    0.8316    1.4453    0.0000 N   0  0  0  0  0  0  0  0  0  0  0  0
    1.3322    0.7994    0.0000 N   0  0  0  0  0  0  0  0  0  0  0  0
    1.1546   -0.6702    0.0000 N   0  0  0  0  0  0  0  0  0  0  0  0
   -1.3807    0.2988    0.0000 N   0  0  0  0  0  0  0  0  0  0  0  0
    3.0278    1.2515    0.0000 N   0  0  0  0  0  0  0  0  0  0  0  0
    0.0565    0.3472    0.0000 C   0  0  0  0  0  0  0  0  0  0  0  0
    0.0565    1.1708    0.0000 C   0  0  0  0  0  0  0  0  0  0  0  0
    0.8639    0.0888    0.0000 C   0  0  0  0  0  0  0  0  0  0  0  0
    1.0577    2.2527    0.0000 C   0  0  3  0  0  0  0  0  0  0  0  0
   -0.6378   -0.0888    0.0000 C   0  0  0  0  0  0  0  0  0  0  0  0
   -1.6390   -2.6564    0.0000 C   0  0  0  0  0  0  0  0  0  0  0  0
   -0.4602   -2.5595    0.0000 C   0  0  0  0  0  0  0  0  0  0  0  0
   -0.7025    1.5583    0.0000 C   0  0  0  0  0  0  0  0  0  0  0  0
    0.6055   -1.3000    0.0000 C   0  0  0  0  0  0  0  0  0  0  0  0
    1.8813    2.4465    0.0000 C   0  0  3  0  0  0  0  0  0  0  0  0
   -2.4141   -2.9470    0.0000 C   0  0  0  0  0  0  0  0  0  0  0  0
   -1.3968    1.1384    0.0000 C   0  0  0  0  0  0  0  0  0  0  0  0
    0.3633   -2.7048    0.0000 C   0  0  0  0  0  0  0  0  0  0  0  0
   -0.7186   -1.7682    0.0000 C   0  0  0  0  0  0  0  0  0  0  0  0
    0.4925    2.8502    0.0000 C   0  0  0  0  0  0  0  0  0  0  0  0
    0.8800   -2.0912    0.0000 C   0  0  0  0  0  0  0  0  0  0  0  0
   -0.2018   -1.1708    0.0000 C   0  0  0  0  0  0  0  0  0  0  0  0
   -1.9135   -1.8813    0.0000 C   0  0  0  0  0  0  0  0  0  0  0  0
   -1.1061   -2.0266    0.0000 C   0  0  0  0  0  0  0  0  0  0  0  0
    2.1074    3.2378    0.0000 C   0  0  0  0  0  0  0  0  0  0  0  0
    2.4465    1.8167    0.0000 C   0  0  0  0  0  0  0  0  0  0  0  0
    1.5422    3.8352    0.0000 C   0  0  0  0  0  0  0  0  0  0  0  0
   -3.0278   -2.3980    0.0000 C   0  0  0  0  0  0  0  0  0  0  0  0
   -2.5433   -3.7868    0.0000 C   0  0  0  0  0  0  0  0  0  0  0  0
  1  2  2  0  0  0  0
  1  3  2  0  0  0  0
  1 16  1  0  0  0  0
  1 17  1  0  0  0  0
  4 15  2  0  0  0  0
  5 25  1  0  0  0  0
  5 32  1  0  0  0  0
  6  7  1  0  0  0  0
  6 12  1  0  0  0  0
 14  6  1  1  0  0  0
  7 13  2  0  0  0  0
  8 13  1  0  0  0  0
  8 19  1  0  0  0  0
  9 15  1  0  0  0  0
  9 22  1  0  0  0  0
 10 31  3  0  0  0  0
 11 12  2  0  0  0  0
 11 13  1  0  0  0  0
 11 15  1  0  0  0  0
 12 18  1  0  0  0  0
 14 20  1  0  0  0  0
 14 25  1  0  0  0  0
 16 21  1  0  0  0  0
 16 28  1  0  0  0  0
 16 29  1  0  0  0  0
 17 23  2  0  0  0  0
 17 24  1  0  0  0  0
 18 22  2  0  0  0  0
 19 26  2  0  0  0  0
 19 27  1  0  0  0  0
 20 30  1  0  0  0  0
 20 31  1  6  0  0  0
 21 33  1  0  0  0  0
 21 34  1  0  0  0  0
 23 26  1  0  0  0  0
 24 27  2  0  0  0  0
 30 32  1  0  0  0  0
M  END
> <PUBCHEM_COMPOUND_ID_TYPE>
0

> <PUBCHEM_TOTAL_CHARGE>
0

> <PUBCHEM_SUBSTANCE_ID>
310943068

> <PUBCHEM_SUBSTANCE_VERSION>
1

> <PUBCHEM_EXT_DATASOURCE_NAME>
4488

> <PUBCHEM_EXT_DATASOURCE_REGID>
SCHEMBL16121127

> <PUBCHEM_SUBSTANCE_COMMENT>
InChI=1S/C24H29N5O4S/c1-15(2)24(3,4)34(31,32)18-7-5-17(6-8-18)27-22-21-19(9-11-26-23(21)30)29(28-22)20-14-33-12-10-16(20)13-25/h5-9,11,15-16,20H,10,12,14H2,1-4H3,(H,26,30)(H,27,28)/t16-,20+/m1/s1
InChIKey=TWFDWXGERBQRFS-UZLBHIALSA-N

> <PUBCHEM_SUBSTANCE_SYNONYM>
SCHEMBL16121127

> <PUBCHEM_XREF_EXT_ID>
SCHEMBL16121127

> <PUBCHEM_EXT_DATASOURCE_URL>
https://www.surechembl.org/

> <PUBCHEM_EXT_SUBSTANCE_URL>
https://www.surechembl.org/chemical/SCHEMBL16121127

> <PUBCHEM_CID_ASSOCIATIONS>
117609505  1

> <PUBCHEM_COORDINATE_TYPE>
1
3

> <PUBCHEM_BONDANNOTATIONS>
20  31  6
14  6  5

$$$$
