310945358
  -OEChem-07211613022D

 25 27  0     0  0  0  0  0  0999 V2000
   -1.6935    1.2303    0.0000 Cl  0  0  0  0  0  0  0  0  0  0  0  0
    0.4777    1.8093    0.0000 F   0  0  0  0  0  0  0  0  0  0  0  0
    1.9540    1.8093    0.0000 F   0  0  0  0  0  0  0  0  0  0  0  0
    2.0409    1.2014    0.0000 F   0  0  0  0  0  0  0  0  0  0  0  0
    2.0554   -1.5777    0.0000 F   0  0  0  0  0  0  0  0  0  0  0  0
    3.4015   -0.6080    0.0000 F   0  0  0  0  0  0  0  0  0  0  0  0
    2.6633   -1.8093    0.0000 F   0  0  0  0  0  0  0  0  0  0  0  0
   -0.3619    0.4632    0.0000 N   0  0  0  0  0  0  0  0  0  0  0  0
    1.9251    0.2026    0.0000 N   0  0  0  0  0  0  0  0  0  0  0  0
   -0.3908   -0.8395    0.0000 N   0  0  0  0  0  0  0  0  0  0  0  0
    1.1580   -0.9987    0.0000 N   0  0  0  0  0  0  0  0  0  0  0  0
    0.4632    0.2026    0.0000 C   0  0  0  0  0  0  0  0  0  0  0  0
    1.1869    0.5935    0.0000 C   0  0  0  0  0  0  0  0  0  0  0  0
    0.4053   -0.6080    0.0000 C   0  0  0  0  0  0  0  0  0  0  0  0
   -0.8829   -0.1881    0.0000 C   0  0  0  0  0  0  0  0  0  0  0  0
    1.8962   -0.6224    0.0000 C   0  0  0  0  0  0  0  0  0  0  0  0
    1.2303    1.3896    0.0000 C   0  0  0  0  0  0  0  0  0  0  0  0
   -1.7225   -0.1593    0.0000 C   0  0  0  0  0  0  0  0  0  0  0  0
    2.6488   -1.0422    0.0000 C   0  0  0  0  0  0  0  0  0  0  0  0
   -2.1278    0.5066    0.0000 C   0  0  0  0  0  0  0  0  0  0  0  0
   -2.1711   -0.8685    0.0000 C   0  0  0  0  0  0  0  0  0  0  0  0
   -2.9528    0.5066    0.0000 C   0  0  0  0  0  0  0  0  0  0  0  0
   -2.9962   -0.8540    0.0000 C   0  0  0  0  0  0  0  0  0  0  0  0
   -3.4015   -0.1737    0.0000 C   0  0  0  0  0  0  0  0  0  0  0  0
   -1.7225   -1.5488    0.0000 C   0  0  0  0  0  0  0  0  0  0  0  0
  1 20  1  0  0  0  0
  2 17  1  0  0  0  0
  3 17  1  0  0  0  0
  4 17  1  0  0  0  0
  5 19  1  0  0  0  0
  6 19  1  0  0  0  0
  7 19  1  0  0  0  0
  8 12  1  0  0  0  0
  8 15  2  0  0  0  0
  9 13  2  0  0  0  0
  9 16  1  0  0  0  0
 10 14  1  0  0  0  0
 10 15  1  0  0  0  0
 11 14  1  0  0  0  0
 11 16  2  0  0  0  0
 12 13  1  0  0  0  0
 12 14  2  0  0  0  0
 13 17  1  0  0  0  0
 15 18  1  0  0  0  0
 16 19  1  0  0  0  0
 18 20  2  0  0  0  0
 18 21  1  0  0  0  0
 20 22  1  0  0  0  0
 21 23  2  0  0  0  0
 21 25  1  0  0  0  0
 22 24  2  0  0  0  0
 23 24  1  0  0  0  0
M  END
> <PUBCHEM_COMPOUND_ID_TYPE>
0

> <PUBCHEM_TOTAL_CHARGE>
0

> <PUBCHEM_SUBSTANCE_ID>
310945358

> <PUBCHEM_SUBSTANCE_VERSION>
1

> <PUBCHEM_EXT_DATASOURCE_NAME>
4488

> <PUBCHEM_EXT_DATASOURCE_REGID>
SCHEMBL16123456

> <PUBCHEM_SUBSTANCE_COMMENT>
InChI=1S/C14H7ClF6N4/c1-5-3-2-4-6(15)7(5)10-22-8-9(13(16,17)18)23-12(14(19,20)21)25-11(8)24-10/h2-4H,1H3,(H,22,23,24,25)
InChIKey=SLGMLYVIQXGGGK-UHFFFAOYSA-N

> <PUBCHEM_SUBSTANCE_SYNONYM>
SCHEMBL16123456

> <PUBCHEM_XREF_EXT_ID>
SCHEMBL16123456

> <PUBCHEM_EXT_DATASOURCE_URL>
https://www.surechembl.org/

> <PUBCHEM_EXT_SUBSTANCE_URL>
https://www.surechembl.org/chemical/SCHEMBL16123456

> <PUBCHEM_CID_ASSOCIATIONS>
117611416  1

> <PUBCHEM_COORDINATE_TYPE>
1
3

$$$$
