310929255
  -OEChem-07211613022D

 61 65  0     0  0  0  0  0  0999 V2000
    0.7425   -9.8998    0.0000 O   0  0  0  0  0  0  0  0  0  0  0  0
    3.5474  -12.3747    0.0000 O   0  0  0  0  0  0  0  0  0  0  0  0
    5.0324  -12.3747    0.0000 O   0  0  0  0  0  0  0  0  0  0  0  0
    1.4025  -14.4372    0.0000 O   0  0  0  0  0  0  0  0  0  0  0  0
    3.7949   -5.0324    0.0000 O   0  0  0  0  0  0  0  0  0  0  0  0
    5.1149   -7.5898    0.0000 O   0  0  0  0  0  0  0  0  0  0  0  0
    1.6499   -4.5374    0.0000 O   0  0  0  0  0  0  0  0  0  0  0  0
    0.9900   -2.3924    0.0000 O   0  0  0  0  0  0  0  0  0  0  0  0
    2.4749   -0.8250    0.0000 O   0  0  0  0  0  0  0  0  0  0  0  0
    2.1450  -13.1997    0.0000 N   0  0  0  0  0  0  0  0  0  0  0  0
    0.7425  -13.1997    0.0000 N   0  0  0  0  0  0  0  0  0  0  0  0
    5.6924  -13.6122    0.0000 N   0  0  0  0  0  0  0  0  0  0  0  0
    2.2274   -7.4248    0.0000 N   0  0  0  0  0  0  0  0  0  0  0  0
    2.8874   -8.7448    0.0000 N   0  0  0  0  0  0  0  0  0  0  0  0
    7.1773  -11.9622    0.0000 N   0  0  0  0  0  0  0  0  0  0  0  0
    3.5474  -13.1997    0.0000 C   0  0  0  0  0  0  0  0  0  0  0  0
    2.8874  -13.6122    0.0000 C   0  0  0  0  0  0  0  0  0  0  0  0
    4.2899  -13.6122    0.0000 C   0  0  0  0  0  0  0  0  0  0  0  0
    1.4025  -11.9622    0.0000 C   0  0  0  0  0  0  0  0  0  0  0  0
    3.5474  -14.8496    0.0000 C   0  0  0  0  0  0  0  0  0  0  0  0
    1.4025  -11.1372    0.0000 C   0  0  0  0  0  0  0  0  0  0  0  0
    0.7425  -12.3747    0.0000 C   0  0  0  0  0  0  0  0  0  0  0  0
    0.7425  -10.7248    0.0000 C   0  0  0  0  0  0  0  0  0  0  0  0
    2.8874  -14.4372    0.0000 C   0  0  0  0  0  0  0  0  0  0  0  0
    4.2899  -14.4372    0.0000 C   0  0  0  0  0  0  0  0  0  0  0  0
    3.5474  -15.6746    0.0000 C   0  0  0  0  0  0  0  0  0  0  0  0
    5.0324  -13.1997    0.0000 C   0  0  0  0  0  0  0  0  0  0  0  0
    1.4025  -13.6122    0.0000 C   0  0  0  0  0  0  0  0  0  0  0  0
    0.0000  -11.9622    0.0000 C   0  0  0  0  0  0  0  0  0  0  0  0
    0.0000  -11.1372    0.0000 C   0  0  0  0  0  0  0  0  0  0  0  0
    2.1450  -12.3747    0.0000 C   0  0  0  0  0  0  0  0  0  0  0  0
    2.1450  -10.7248    0.0000 C   0  0  0  0  0  0  0  0  0  0  0  0
    1.4850   -9.4873    0.0000 C   0  0  0  0  0  0  0  0  0  0  0  0
    3.0524  -12.1272    0.0000 C   0  0  0  0  0  0  0  0  0  0  0  0
    2.8874  -11.1372    0.0000 C   0  0  0  0  0  0  0  0  0  0  0  0
    2.7225  -15.6746    0.0000 C   0  0  0  0  0  0  0  0  0  0  0  0
    3.5474  -16.4996    0.0000 C   0  0  0  0  0  0  0  0  0  0  0  0
    4.3724  -15.6746    0.0000 C   0  0  0  0  0  0  0  0  0  0  0  0
    1.4850   -8.6623    0.0000 C   0  0  0  0  0  0  0  0  0  0  0  0
    2.2274   -8.2498    0.0000 C   0  0  0  0  0  0  0  0  0  0  0  0
    2.1450   -9.8998    0.0000 C   0  0  0  0  0  0  0  0  0  0  0  0
    2.9699   -7.0949    0.0000 C   0  0  0  0  0  0  0  0  0  0  0  0
    2.8874  -11.9622    0.0000 C   0  0  0  0  0  0  0  0  0  0  0  0
    2.8874   -9.5698    0.0000 C   0  0  0  0  0  0  0  0  0  0  0  0
    6.4349  -13.1997    0.0000 C   0  0  0  0  0  0  0  0  0  0  0  0
    2.9699   -6.2699    0.0000 C   0  0  0  0  0  0  0  0  0  0  0  0
    3.6299   -7.5073    0.0000 C   0  0  0  0  0  0  0  0  0  0  0  0
    3.7124   -5.8574    0.0000 C   0  0  0  0  0  0  0  0  0  0  0  0
    4.3724   -7.0949    0.0000 C   0  0  0  0  0  0  0  0  0  0  0  0
    4.4549   -6.2699    0.0000 C   0  0  0  0  0  0  0  0  0  0  0  0
    6.4349  -12.3747    0.0000 C   0  0  0  0  0  0  0  0  0  0  0  0
    3.0524   -4.6199    0.0000 C   0  0  0  0  0  0  0  0  0  0  0  0
    5.8574   -7.1773    0.0000 C   0  0  0  0  0  0  0  0  0  0  0  0
    2.3099   -4.9499    0.0000 C   0  0  0  0  0  0  0  0  0  0  0  0
    7.8373  -12.3747    0.0000 C   0  0  0  0  0  0  0  0  0  0  0  0
    7.1773  -11.1372    0.0000 C   0  0  0  0  0  0  0  0  0  0  0  0
    1.6499   -3.7124    0.0000 C   0  0  0  0  0  0  0  0  0  0  0  0
    0.9900   -3.2999    0.0000 C   0  0  0  0  0  0  0  0  0  0  0  0
    1.7324   -2.0625    0.0000 C   0  0  0  0  0  0  0  0  0  0  0  0
    1.7324   -1.2375    0.0000 C   0  0  0  0  0  0  0  0  0  0  0  0
    2.4749    0.0000    0.0000 C   0  0  0  0  0  0  0  0  0  0  0  0
  1 23  1  0  0  0  0
  1 33  1  0  0  0  0
  2 16  1  0  0  0  0
  2 43  1  0  0  0  0
  3 27  2  0  0  0  0
  4 28  2  0  0  0  0
  5 48  1  0  0  0  0
  5 52  1  0  0  0  0
  6 49  1  0  0  0  0
  6 53  1  0  0  0  0
  7 54  1  0  0  0  0
  7 57  1  0  0  0  0
  8 58  1  0  0  0  0
  8 59  1  0  0  0  0
  9 60  1  0  0  0  0
  9 61  1  0  0  0  0
 10 17  1  0  0  0  0
 10 28  1  0  0  0  0
 11 22  1  0  0  0  0
 11 28  1  0  0  0  0
 12 27  1  0  0  0  0
 12 45  1  0  0  0  0
 13 40  1  0  0  0  0
 13 42  1  0  0  0  0
 14 40  1  0  0  0  0
 14 44  2  0  0  0  0
 15 51  1  0  0  0  0
 15 55  1  0  0  0  0
 15 56  1  0  0  0  0
 16 17  1  0  0  0  0
 16 18  2  0  0  0  0
 17 24  2  0  0  0  0
 18 25  1  0  0  0  0
 18 27  1  0  0  0  0
 19 21  2  0  0  0  0
 19 22  1  0  0  0  0
 19 31  1  0  0  0  0
 20 24  1  0  0  0  0
 20 25  2  0  0  0  0
 20 26  1  0  0  0  0
 21 23  1  0  0  0  0
 21 32  1  0  0  0  0
 22 29  2  0  0  0  0
 23 30  2  0  0  0  0
 26 36  1  0  0  0  0
 26 37  1  0  0  0  0
 26 38  1  0  0  0  0
 29 30  1  0  0  0  0
 31 34  2  0  0  0  0
 32 35  2  0  0  0  0
 33 39  1  0  0  0  0
 33 41  2  0  0  0  0
 34 35  1  0  0  0  0
 39 40  2  0  0  0  0
 41 44  1  0  0  0  0
 42 46  2  0  0  0  0
 42 47  1  0  0  0  0
 45 51  1  0  0  0  0
 46 48  1  0  0  0  0
 47 49  2  0  0  0  0
 48 50  2  0  0  0  0
 49 50  1  0  0  0  0
 52 54  1  0  0  0  0
 57 58  1  0  0  0  0
 59 60  1  0  0  0  0
M  END
> <PUBCHEM_COMPOUND_ID_TYPE>
0

> <PUBCHEM_TOTAL_CHARGE>
0

> <PUBCHEM_SUBSTANCE_ID>
310929255

> <PUBCHEM_SUBSTANCE_VERSION>
1

> <PUBCHEM_EXT_DATASOURCE_NAME>
4488

> <PUBCHEM_EXT_DATASOURCE_REGID>
SCHEMBL16106419

> <PUBCHEM_SUBSTANCE_COMMENT>
InChI=1S/C46H58N6O9/c1-46(2,3)31-25-38(44(53)48-17-18-52(4)5)43(57-8)40(26-31)51-45(54)50-39-13-14-41(37-12-10-9-11-36(37)39)61-33-15-16-47-42(30-33)49-32-27-34(56-7)29-35(28-32)60-24-23-59-22-21-58-20-19-55-6/h9-16,25-30H,17-24H2,1-8H3,(H,47,49)(H,48,53)(H2,50,51,54)
InChIKey=OSOIKRIQGXULMU-UHFFFAOYSA-N

> <PUBCHEM_SUBSTANCE_SYNONYM>
SCHEMBL16106419

> <PUBCHEM_XREF_EXT_ID>
SCHEMBL16106419

> <PUBCHEM_EXT_DATASOURCE_URL>
https://www.surechembl.org/

> <PUBCHEM_EXT_SUBSTANCE_URL>
https://www.surechembl.org/chemical/SCHEMBL16106419

> <PUBCHEM_CID_ASSOCIATIONS>
86272830  1

> <PUBCHEM_COORDINATE_TYPE>
1
3

$$$$
