310948603
  -OEChem-07211613022D

 33 36  0     1  0  0  0  0  0999 V2000
    0.3369   -0.2063    0.0000 O   0  0  0  0  0  0  0  0  0  0  0  0
   -0.3781    2.6812    0.0000 O   0  0  0  0  0  0  0  0  0  0  0  0
   -3.8706   -0.2750    0.0000 N   0  0  0  0  0  0  0  0  0  0  0  0
   -2.5506   -0.2750    0.0000 N   0  0  0  0  0  0  0  0  0  0  0  0
    0.3231    1.4575    0.0000 N   0  0  0  0  0  0  0  0  0  0  0  0
   -3.6231   -1.0587    0.0000 N   0  0  0  0  0  0  0  0  0  0  0  0
   -2.7981   -1.0587    0.0000 N   0  0  0  0  0  0  0  0  0  0  0  0
    1.0381    2.6950    0.0000 N   0  0  0  0  0  0  0  0  0  0  0  0
   -2.5369    1.4575    0.0000 C   0  0  3  0  0  0  0  0  0  0  0  0
   -3.2106    1.0313    0.0000 C   0  0  3  0  0  0  0  0  0  0  0  0
   -1.7806    1.0175    0.0000 C   0  0  0  0  0  0  0  0  0  0  0  0
   -3.2106    1.8563    0.0000 C   0  0  0  0  0  0  0  0  0  0  0  0
   -3.2243    0.1788    0.0000 C   0  0  0  0  0  0  0  0  0  0  0  0
   -0.3781    1.0450    0.0000 C   0  0  0  0  0  0  0  0  0  0  0  0
   -1.0931    1.4438    0.0000 C   0  0  0  0  0  0  0  0  0  0  0  0
   -1.7943    0.2200    0.0000 C   0  0  0  0  0  0  0  0  0  0  0  0
   -0.3919    0.2200    0.0000 C   0  0  0  0  0  0  0  0  0  0  0  0
   -1.0794   -0.1925    0.0000 C   0  0  0  0  0  0  0  0  0  0  0  0
   -1.0794   -1.0313    0.0000 C   0  0  0  0  0  0  0  0  0  0  0  0
    0.3506    2.2825    0.0000 C   0  0  0  0  0  0  0  0  0  0  0  0
    1.0106    0.2063    0.0000 C   0  0  0  0  0  0  0  0  0  0  0  0
   -0.3781   -1.4438    0.0000 C   0  0  0  0  0  0  0  0  0  0  0  0
    1.7393    2.2825    0.0000 C   0  0  0  0  0  0  0  0  0  0  0  0
    1.7393    1.4575    0.0000 C   0  0  0  0  0  0  0  0  0  0  0  0
    2.4268    2.6812    0.0000 C   0  0  0  0  0  0  0  0  0  0  0  0
    1.7531   -0.1925    0.0000 C   0  0  0  0  0  0  0  0  0  0  0  0
   -0.3781   -2.2688    0.0000 C   0  0  0  0  0  0  0  0  0  0  0  0
    3.1419    1.4575    0.0000 C   0  0  0  0  0  0  0  0  0  0  0  0
    2.4543    1.0450    0.0000 C   0  0  0  0  0  0  0  0  0  0  0  0
    3.1556    2.2825    0.0000 C   0  0  0  0  0  0  0  0  0  0  0  0
    2.4406    0.2200    0.0000 C   0  0  0  0  0  0  0  0  0  0  0  0
    0.3506   -2.6950    0.0000 C   0  0  0  0  0  0  0  0  0  0  0  0
    3.8706    1.0175    0.0000 C   0  0  0  0  0  0  0  0  0  0  0  0
  1 17  1  0  0  0  0
  1 21  1  0  0  0  0
  2 20  2  0  0  0  0
  3  6  1  0  0  0  0
  3 13  2  0  0  0  0
  4  7  1  0  0  0  0
  4 13  1  0  0  0  0
  5 14  1  0  0  0  0
  5 20  1  0  0  0  0
  6  7  2  0  0  0  0
  8 20  1  0  0  0  0
  8 23  1  0  0  0  0
  9 10  1  0  0  0  0
  9 11  1  0  0  0  0
  9 12  1  1  0  0  0
 10 12  1  1  0  0  0
 10 13  1  0  0  0  0
 11 15  1  0  0  0  0
 11 16  2  0  0  0  0
 14 15  2  0  0  0  0
 14 17  1  0  0  0  0
 16 18  1  0  0  0  0
 17 18  2  0  0  0  0
 18 19  1  0  0  0  0
 19 22  1  0  0  0  0
 21 26  1  0  0  0  0
 22 27  1  0  0  0  0
 23 24  2  0  0  0  0
 23 25  1  0  0  0  0
 24 29  1  0  0  0  0
 25 30  2  0  0  0  0
 26 31  1  0  0  0  0
 27 32  1  0  0  0  0
 28 29  2  0  0  0  0
 28 30  1  0  0  0  0
 28 33  1  0  0  0  0
M  END
> <PUBCHEM_COMPOUND_ID_TYPE>
0

> <PUBCHEM_TOTAL_CHARGE>
0

> <PUBCHEM_SUBSTANCE_ID>
310948603

> <PUBCHEM_SUBSTANCE_VERSION>
1

> <PUBCHEM_EXT_DATASOURCE_NAME>
4488

> <PUBCHEM_EXT_DATASOURCE_REGID>
SCHEMBL16126786

> <PUBCHEM_SUBSTANCE_COMMENT>
InChI=1S/C25H32N6O2/c1-4-6-7-17-13-18(20-15-21(20)24-28-30-31-29-24)14-22(23(17)33-12-5-2)27-25(32)26-19-10-8-16(3)9-11-19/h8-11,13-14,20-21H,4-7,12,15H2,1-3H3,(H2,26,27,32)(H,28,29,30,31)/t20-,21-/m0/s1
InChIKey=OGXNNBUKIANDRN-SFTDATJTSA-N

> <PUBCHEM_SUBSTANCE_SYNONYM>
SCHEMBL16126786

> <PUBCHEM_XREF_EXT_ID>
SCHEMBL16126786

> <PUBCHEM_EXT_DATASOURCE_URL>
https://www.surechembl.org/

> <PUBCHEM_EXT_SUBSTANCE_URL>
https://www.surechembl.org/chemical/SCHEMBL16126786

> <PUBCHEM_CID_ASSOCIATIONS>
117614148  1

> <PUBCHEM_COORDINATE_TYPE>
1
3

> <PUBCHEM_BONDANNOTATIONS>
10  12  5
9  12  5

$$$$
