310949678
  -OEChem-07211613022D

 23 24  0     0  0  0  0  0  0999 V2000
   -0.8232   -1.8033    0.0000 O   0  0  0  0  0  0  0  0  0  0  0  0
   -2.4566    1.0715    0.0000 O   0  0  0  0  0  0  0  0  0  0  0  0
   -1.2283    0.3528    0.0000 O   0  0  0  0  0  0  0  0  0  0  0  0
    3.6850    0.3789    0.0000 O   0  0  0  0  0  0  0  0  0  0  0  0
   -0.8232   -0.3528    0.0000 N   0  0  0  0  0  0  0  0  0  0  0  0
    2.0385    1.8164    0.0000 N   0  0  0  0  0  0  0  0  0  0  0  0
   -2.0516   -1.0846    0.0000 C   0  0  0  0  0  0  0  0  0  0  0  0
   -2.4828   -0.3659    0.0000 C   0  0  0  0  0  0  0  0  0  0  0  0
   -1.2544   -1.0846    0.0000 C   0  0  0  0  0  0  0  0  0  0  0  0
    0.0000   -0.3528    0.0000 C   0  0  0  0  0  0  0  0  0  0  0  0
    1.2283    0.3528    0.0000 C   0  0  0  0  0  0  0  0  0  0  0  0
    1.6334   -0.3528    0.0000 C   0  0  0  0  0  0  0  0  0  0  0  0
    0.4181    0.3528    0.0000 C   0  0  0  0  0  0  0  0  0  0  0  0
   -2.4697   -1.8164    0.0000 C   0  0  0  0  0  0  0  0  0  0  0  0
   -2.0516    0.3398    0.0000 C   0  0  0  0  0  0  0  0  0  0  0  0
   -3.2799   -0.3789    0.0000 C   0  0  0  0  0  0  0  0  0  0  0  0
    0.4181   -1.0846    0.0000 C   0  0  0  0  0  0  0  0  0  0  0  0
    1.2283   -1.0846    0.0000 C   0  0  0  0  0  0  0  0  0  0  0  0
   -3.2799   -1.8164    0.0000 C   0  0  0  0  0  0  0  0  0  0  0  0
   -3.6850   -1.0977    0.0000 C   0  0  0  0  0  0  0  0  0  0  0  0
    1.6334    1.0846    0.0000 C   0  0  0  0  0  0  0  0  0  0  0  0
    2.4566   -0.3528    0.0000 C   0  0  0  0  0  0  0  0  0  0  0  0
    2.8617    0.3659    0.0000 C   0  0  0  0  0  0  0  0  0  0  0  0
  1  9  2  0  0  0  0
  2 15  2  0  0  0  0
  3 15  1  0  0  0  0
  4 23  1  0  0  0  0
  5  9  1  0  0  0  0
  5 10  1  0  0  0  0
  6 21  3  0  0  0  0
  7  8  1  0  0  0  0
  7  9  1  0  0  0  0
  7 14  2  0  0  0  0
  8 15  1  0  0  0  0
  8 16  2  0  0  0  0
 10 13  1  0  0  0  0
 10 17  2  0  0  0  0
 11 12  1  0  0  0  0
 11 13  2  0  0  0  0
 11 21  1  0  0  0  0
 12 18  2  0  0  0  0
 12 22  1  0  0  0  0
 14 19  1  0  0  0  0
 16 20  1  0  0  0  0
 17 18  1  0  0  0  0
 19 20  2  0  0  0  0
 22 23  1  0  0  0  0
M  END
> <PUBCHEM_COMPOUND_ID_TYPE>
0

> <PUBCHEM_TOTAL_CHARGE>
0

> <PUBCHEM_SUBSTANCE_ID>
310949678

> <PUBCHEM_SUBSTANCE_VERSION>
1

> <PUBCHEM_EXT_DATASOURCE_NAME>
4488

> <PUBCHEM_EXT_DATASOURCE_REGID>
SCHEMBL16127876

> <PUBCHEM_SUBSTANCE_COMMENT>
InChI=1S/C17H14N2O4/c18-10-12-9-13(6-5-11(12)7-8-20)19-16(21)14-3-1-2-4-15(14)17(22)23/h1-6,9,20H,7-8H2,(H,19,21)(H,22,23)
InChIKey=OUFDRPRBJAYPQY-UHFFFAOYSA-N

> <PUBCHEM_SUBSTANCE_SYNONYM>
SCHEMBL16127876

> <PUBCHEM_XREF_EXT_ID>
SCHEMBL16127876

> <PUBCHEM_EXT_DATASOURCE_URL>
https://www.surechembl.org/

> <PUBCHEM_EXT_SUBSTANCE_URL>
https://www.surechembl.org/chemical/SCHEMBL16127876

> <PUBCHEM_CID_ASSOCIATIONS>
85473202  1

> <PUBCHEM_COORDINATE_TYPE>
1
3

$$$$
