310948267
  -OEChem-07211613022D

 37 41  0     1  0  0  0  0  0999 V2000
   -0.4331   -2.8530    0.0000 F   0  0  0  0  0  0  0  0  0  0  0  0
    0.6256   -3.8016    0.0000 F   0  0  0  0  0  0  0  0  0  0  0  0
   -1.1480    2.1517    0.0000 O   0  0  0  0  0  0  0  0  0  0  0  0
    1.7255   -2.5917    0.0000 O   0  0  0  0  0  0  0  0  0  0  0  0
    1.6017    2.0142    0.0000 N   0  0  0  0  0  0  0  0  0  0  0  0
    1.2718    1.2580    0.0000 N   0  0  0  0  0  0  0  0  0  0  0  0
   -0.1031    0.7356    0.0000 N   0  0  0  0  0  0  0  0  0  0  0  0
   -0.4331    3.3891    0.0000 N   0  0  0  0  0  0  0  0  0  0  0  0
    2.4817    0.0069    0.0000 N   0  0  0  0  0  0  0  0  0  0  0  0
    0.2956    2.1517    0.0000 C   0  0  0  0  0  0  0  0  0  0  0  0
    0.9831    2.5642    0.0000 C   0  0  0  0  0  0  0  0  0  0  0  0
    0.4468    1.3543    0.0000 C   0  0  0  0  0  0  0  0  0  0  0  0
   -0.4468    2.5642    0.0000 C   0  0  0  0  0  0  0  0  0  0  0  0
    2.3992    2.1792    0.0000 C   0  0  3  0  0  0  0  0  0  0  0  0
    0.9968    3.3891    0.0000 C   0  0  0  0  0  0  0  0  0  0  0  0
    2.9492    1.5881    0.0000 C   0  0  3  0  0  0  0  0  0  0  0  0
    0.2681    3.8016    0.0000 C   0  0  0  0  0  0  0  0  0  0  0  0
    2.6742    2.9629    0.0000 C   0  0  0  0  0  0  0  0  0  0  0  0
    0.1443   -0.0343    0.0000 C   0  0  0  0  0  0  0  0  0  0  0  0
    3.7604    1.7393    0.0000 C   0  0  0  0  0  0  0  0  0  0  0  0
    2.7017    0.7769    0.0000 C   0  0  0  0  0  0  0  0  0  0  0  0
    3.4716    3.1279    0.0000 C   0  0  0  0  0  0  0  0  0  0  0  0
   -0.3781   -0.6531    0.0000 C   0  0  0  0  0  0  0  0  0  0  0  0
    0.9555   -0.2269    0.0000 C   0  0  0  0  0  0  0  0  0  0  0  0
   -1.8768    2.5642    0.0000 C   0  0  0  0  0  0  0  0  0  0  0  0
    3.9941    2.5505    0.0000 C   0  0  0  0  0  0  0  0  0  0  0  0
    0.6531   -1.6293    0.0000 C   0  0  0  0  0  0  0  0  0  0  0  0
   -0.1306   -1.4505    0.0000 C   0  0  0  0  0  0  0  0  0  0  0  0
    1.2030   -1.0243    0.0000 C   0  0  0  0  0  0  0  0  0  0  0  0
   -2.5642    2.1517    0.0000 C   0  0  0  0  0  0  0  0  0  0  0  0
    0.9143   -2.3992    0.0000 C   0  0  3  0  0  0  0  0  0  0  0  0
    0.3644   -3.0317    0.0000 C   0  0  0  0  0  0  0  0  0  0  0  0
   -3.2929    2.5505    0.0000 C   0  0  0  0  0  0  0  0  0  0  0  0
   -2.5779    1.3268    0.0000 C   0  0  0  0  0  0  0  0  0  0  0  0
   -3.9941    2.1517    0.0000 C   0  0  0  0  0  0  0  0  0  0  0  0
   -3.2791    0.9143    0.0000 C   0  0  0  0  0  0  0  0  0  0  0  0
   -3.9941    1.3268    0.0000 C   0  0  0  0  0  0  0  0  0  0  0  0
  1 32  1  0  0  0  0
  2 32  1  0  0  0  0
  3 13  1  0  0  0  0
  3 25  1  0  0  0  0
  4 31  1  0  0  0  0
  5  6  1  0  0  0  0
  5 11  1  0  0  0  0
 14  5  1  1  0  0  0
  6 12  2  0  0  0  0
  7 12  1  0  0  0  0
  7 19  1  0  0  0  0
  8 13  2  0  0  0  0
  8 17  1  0  0  0  0
  9 21  3  0  0  0  0
 10 11  2  0  0  0  0
 10 12  1  0  0  0  0
 10 13  1  0  0  0  0
 11 15  1  0  0  0  0
 14 16  1  0  0  0  0
 14 18  1  0  0  0  0
 15 17  2  0  0  0  0
 16 20  1  0  0  0  0
 16 21  1  6  0  0  0
 18 22  1  0  0  0  0
 19 23  2  0  0  0  0
 19 24  1  0  0  0  0
 20 26  1  0  0  0  0
 22 26  1  0  0  0  0
 23 28  1  0  0  0  0
 24 29  2  0  0  0  0
 25 30  1  0  0  0  0
 27 28  2  0  0  0  0
 27 29  1  0  0  0  0
 27 31  1  0  0  0  0
 30 33  2  0  0  0  0
 30 34  1  0  0  0  0
 31 32  1  0  0  0  0
 33 35  1  0  0  0  0
 34 36  2  0  0  0  0
 35 37  2  0  0  0  0
 36 37  1  0  0  0  0
M  END
> <PUBCHEM_COMPOUND_ID_TYPE>
0

> <PUBCHEM_TOTAL_CHARGE>
0

> <PUBCHEM_SUBSTANCE_ID>
310948267

> <PUBCHEM_SUBSTANCE_VERSION>
1

> <PUBCHEM_EXT_DATASOURCE_NAME>
4488

> <PUBCHEM_EXT_DATASOURCE_REGID>
SCHEMBL16126444

> <PUBCHEM_SUBSTANCE_COMMENT>
InChI=1S/C28H27F2N5O2/c29-26(30)25(36)19-10-12-21(13-11-19)33-27-24-23(35(34-27)22-9-5-4-8-20(22)16-31)14-15-32-28(24)37-17-18-6-2-1-3-7-18/h1-3,6-7,10-15,20,22,25-26,36H,4-5,8-9,17H2,(H,33,34)/t20-,22+,25?/m1/s1
InChIKey=GTIBHABEKWXVMG-BOQQILRGSA-N

> <PUBCHEM_SUBSTANCE_SYNONYM>
SCHEMBL16126444

> <PUBCHEM_XREF_EXT_ID>
SCHEMBL16126444

> <PUBCHEM_EXT_DATASOURCE_URL>
https://www.surechembl.org/

> <PUBCHEM_EXT_SUBSTANCE_URL>
https://www.surechembl.org/chemical/SCHEMBL16126444

> <PUBCHEM_CID_ASSOCIATIONS>
117613847  1

> <PUBCHEM_COORDINATE_TYPE>
1
3

> <PUBCHEM_BONDANNOTATIONS>
16  21  6
14  5  5

$$$$
