310949915
  -OEChem-07211613022D

 28 32  0     1  0  0  0  0  0999 V2000
    2.9814   -0.8765    0.0000 Cl  0  0  0  0  0  0  0  0  0  0  0  0
   -0.7730    1.3872    0.0000 N   0  0  0  0  0  0  0  0  0  0  0  0
   -0.7730    2.7260    0.0000 N   0  0  0  0  0  0  0  0  0  0  0  0
    0.0000   -0.9731    0.0000 N   0  0  0  0  0  0  0  0  0  0  0  0
    1.8219    1.6494    0.0000 N   0  0  0  0  0  0  0  0  0  0  0  0
    2.6777   -2.2705    0.0000 N   0  0  0  0  0  0  0  0  0  0  0  0
   -0.2898    2.0635    0.0000 C   0  0  0  0  0  0  0  0  0  0  0  0
   -1.5597    1.6632    0.0000 C   0  0  0  0  0  0  0  0  0  0  0  0
   -1.5597    2.4776    0.0000 C   0  0  0  0  0  0  0  0  0  0  0  0
   -0.5107    0.6142    0.0000 C   0  0  0  0  0  0  0  0  0  0  0  0
    0.5659    2.0497    0.0000 C   0  0  3  0  0  0  0  0  0  0  0  0
   -2.2636    1.2353    0.0000 C   0  0  0  0  0  0  0  0  0  0  0  0
   -2.2774    2.8779    0.0000 C   0  0  0  0  0  0  0  0  0  0  0  0
   -1.0490    0.0069    0.0000 C   0  0  0  0  0  0  0  0  0  0  0  0
    0.3036    0.4348    0.0000 C   0  0  0  0  0  0  0  0  0  0  0  0
    1.0352    1.4010    0.0000 C   0  0  0  0  0  0  0  0  0  0  0  0
    1.0214    2.7122    0.0000 C   0  0  0  0  0  0  0  0  0  0  0  0
   -2.9814    1.6494    0.0000 C   0  0  0  0  0  0  0  0  0  0  0  0
   -2.9814    2.4776    0.0000 C   0  0  0  0  0  0  0  0  0  0  0  0
   -0.8143   -0.7799    0.0000 C   0  0  0  0  0  0  0  0  0  0  0  0
    0.5521   -0.3519    0.0000 C   0  0  0  0  0  0  0  0  0  0  0  0
    1.8219    2.4776    0.0000 C   0  0  0  0  0  0  0  0  0  0  0  0
    0.2484   -1.7460    0.0000 C   0  0  0  0  0  0  0  0  0  0  0  0
    1.0628   -1.9255    0.0000 C   0  0  0  0  0  0  0  0  0  0  0  0
    1.6149   -1.3043    0.0000 C   0  0  0  0  0  0  0  0  0  0  0  0
    1.3112   -2.6984    0.0000 C   0  0  0  0  0  0  0  0  0  0  0  0
    2.4293   -1.4838    0.0000 C   0  0  0  0  0  0  0  0  0  0  0  0
    2.1256   -2.8779    0.0000 C   0  0  0  0  0  0  0  0  0  0  0  0
  1 27  1  0  0  0  0
  2  7  1  0  0  0  0
  2  8  1  0  0  0  0
  2 10  1  0  0  0  0
  3  7  2  0  0  0  0
  3  9  1  0  0  0  0
  4 20  1  0  0  0  0
  4 21  1  0  0  0  0
  4 23  1  0  0  0  0
  5 16  1  0  0  0  0
  5 22  1  0  0  0  0
  6 27  2  0  0  0  0
  6 28  1  0  0  0  0
 11  7  1  6  0  0  0
  8  9  1  0  0  0  0
  8 12  2  0  0  0  0
  9 13  2  0  0  0  0
 10 14  1  0  0  0  0
 10 15  1  0  0  0  0
 11 16  1  0  0  0  0
 11 17  1  0  0  0  0
 12 18  1  0  0  0  0
 13 19  1  0  0  0  0
 14 20  1  0  0  0  0
 15 21  1  0  0  0  0
 17 22  1  0  0  0  0
 18 19  2  0  0  0  0
 23 24  1  0  0  0  0
 24 25  2  0  0  0  0
 24 26  1  0  0  0  0
 25 27  1  0  0  0  0
 26 28  2  0  0  0  0
M  END
> <PUBCHEM_COMPOUND_ID_TYPE>
0

> <PUBCHEM_TOTAL_CHARGE>
0

> <PUBCHEM_SUBSTANCE_ID>
310949915

> <PUBCHEM_SUBSTANCE_VERSION>
1

> <PUBCHEM_EXT_DATASOURCE_NAME>
4488

> <PUBCHEM_EXT_DATASOURCE_REGID>
SCHEMBL16128136

> <PUBCHEM_SUBSTANCE_COMMENT>
InChI=1S/C22H26ClN5/c23-21-13-16(5-10-25-21)15-27-11-7-18(8-12-27)28-20-4-2-1-3-19(20)26-22(28)17-6-9-24-14-17/h1-5,10,13,17-18,24H,6-9,11-12,14-15H2/t17-/m1/s1
InChIKey=DNFKDONJMCNYAD-QGZVFWFLSA-N

> <PUBCHEM_SUBSTANCE_SYNONYM>
SCHEMBL16128136

> <PUBCHEM_XREF_EXT_ID>
SCHEMBL16128136

> <PUBCHEM_EXT_DATASOURCE_URL>
https://www.surechembl.org/

> <PUBCHEM_EXT_SUBSTANCE_URL>
https://www.surechembl.org/chemical/SCHEMBL16128136

> <PUBCHEM_CID_ASSOCIATIONS>
117615193  1

> <PUBCHEM_COORDINATE_TYPE>
1
3

> <PUBCHEM_BONDANNOTATIONS>
11  7  6

$$$$
