310947230
  -OEChem-07211613022D

 12 13  0     0  0  0  0  0  0999 V2000
   -1.3792    0.0000    0.0000 O   0  0  0  0  0  0  0  0  0  0  0  0
    1.4759    0.0000    0.0000 O   0  0  0  0  0  0  0  0  0  0  0  0
   -3.2193    0.0000    0.0000 N   0  0  0  0  0  0  0  0  0  0  0  0
    3.3160    0.0000    0.0000 N   0  0  0  0  0  0  0  0  0  0  0  0
   -4.0304    0.4125    0.0000 C   0  0  0  0  0  0  0  0  0  0  0  0
   -4.0304   -0.4125    0.0000 C   0  0  0  0  0  0  0  0  0  0  0  0
    4.0304   -0.4125    0.0000 C   0  0  0  0  0  0  0  0  0  0  0  0
    4.0304    0.4125    0.0000 C   0  0  0  0  0  0  0  0  0  0  0  0
   -2.3943    0.0000    0.0000 C   0  0  0  0  0  0  0  0  0  0  0  0
    2.3009    0.0000    0.0000 C   0  0  0  0  0  0  0  0  0  0  0  0
   -0.5542    0.0000    0.0000 C   0  0  0  0  0  0  0  0  0  0  0  0
    0.4608    0.0000    0.0000 C   0  0  0  0  0  0  0  0  0  0  0  0
  1  9  1  0  0  0  0
  1 11  1  0  0  0  0
  2 10  1  0  0  0  0
  2 12  1  0  0  0  0
  3  5  1  0  0  0  0
  3  6  1  0  0  0  0
  3  9  1  0  0  0  0
  4  7  1  0  0  0  0
  4  8  1  0  0  0  0
  4 10  1  0  0  0  0
  5  6  1  0  0  0  0
  7  8  1  0  0  0  0
 11 12  1  0  0  0  0
M  END
> <PUBCHEM_COMPOUND_ID_TYPE>
0

> <PUBCHEM_TOTAL_CHARGE>
0

> <PUBCHEM_SUBSTANCE_ID>
310947230

> <PUBCHEM_SUBSTANCE_VERSION>
1

> <PUBCHEM_EXT_DATASOURCE_NAME>
4488

> <PUBCHEM_EXT_DATASOURCE_REGID>
SCHEMBL16125385

> <PUBCHEM_SUBSTANCE_COMMENT>
InChI=1S/C8H16N2O2/c1-2-9(1)7-11-5-6-12-8-10-3-4-10/h1-8H2
InChIKey=ILFUHOVTQPGPGW-UHFFFAOYSA-N

> <PUBCHEM_SUBSTANCE_SYNONYM>
SCHEMBL16125385

> <PUBCHEM_XREF_EXT_ID>
SCHEMBL16125385

> <PUBCHEM_EXT_DATASOURCE_URL>
https://www.surechembl.org/

> <PUBCHEM_EXT_SUBSTANCE_URL>
https://www.surechembl.org/chemical/SCHEMBL16125385

> <PUBCHEM_CID_ASSOCIATIONS>
117613045  1

> <PUBCHEM_COORDINATE_TYPE>
1
3

$$$$
