310931800
  -OEChem-07211613022D

 24 26  0     0  0  0  0  0  0999 V2000
    2.8495   -0.4290    0.0000 O   0  0  0  0  0  0  0  0  0  0  0  0
    3.5542   -2.4512    0.0000 O   0  0  0  0  0  0  0  0  0  0  0  0
    0.0000   -5.3007    0.0000 O   0  0  0  0  0  0  0  0  0  0  0  0
    2.1448   -1.6546    0.0000 C   0  0  0  0  0  0  0  0  0  0  0  0
    1.4401   -2.8801    0.0000 C   0  0  0  0  0  0  0  0  0  0  0  0
    2.8495   -1.2256    0.0000 C   0  0  0  0  0  0  0  0  0  0  0  0
    1.4401   -3.6768    0.0000 C   0  0  0  0  0  0  0  0  0  0  0  0
    2.1448   -2.4512    0.0000 C   0  0  0  0  0  0  0  0  0  0  0  0
    3.5542   -1.6546    0.0000 C   0  0  0  0  0  0  0  0  0  0  0  0
    4.2589   -1.2256    0.0000 C   0  0  0  0  0  0  0  0  0  0  0  0
    1.4401   -1.2256    0.0000 C   0  0  0  0  0  0  0  0  0  0  0  0
    0.7047   -2.4512    0.0000 C   0  0  0  0  0  0  0  0  0  0  0  0
    0.7354   -4.1057    0.0000 C   0  0  0  0  0  0  0  0  0  0  0  0
    0.7047   -1.6546    0.0000 C   0  0  0  0  0  0  0  0  0  0  0  0
    2.1448   -4.1057    0.0000 C   0  0  0  0  0  0  0  0  0  0  0  0
    0.7047   -4.9024    0.0000 C   0  0  0  0  0  0  0  0  0  0  0  0
    4.2589   -0.3983    0.0000 C   0  0  0  0  0  0  0  0  0  0  0  0
    4.9636   -1.6239    0.0000 C   0  0  0  0  0  0  0  0  0  0  0  0
    2.1448   -4.9024    0.0000 C   0  0  0  0  0  0  0  0  0  0  0  0
    1.4401   -5.3313    0.0000 C   0  0  0  0  0  0  0  0  0  0  0  0
    4.9636    0.0000    0.0000 C   0  0  0  0  0  0  0  0  0  0  0  0
    5.6683   -1.2256    0.0000 C   0  0  0  0  0  0  0  0  0  0  0  0
    5.6683   -0.4290    0.0000 C   0  0  0  0  0  0  0  0  0  0  0  0
    0.0307   -6.1279    0.0000 C   0  0  0  0  0  0  0  0  0  0  0  0
  1  6  2  0  0  0  0
  2  9  2  0  0  0  0
  3 16  1  0  0  0  0
  3 24  1  0  0  0  0
  4  6  1  0  0  0  0
  4  8  2  0  0  0  0
  4 11  1  0  0  0  0
  5  7  1  0  0  0  0
  5  8  1  0  0  0  0
  5 12  2  0  0  0  0
  6  9  1  0  0  0  0
  7 13  1  0  0  0  0
  7 15  2  0  0  0  0
  9 10  1  0  0  0  0
 10 17  2  0  0  0  0
 10 18  1  0  0  0  0
 11 14  2  0  0  0  0
 12 14  1  0  0  0  0
 13 16  2  0  0  0  0
 15 19  1  0  0  0  0
 16 20  1  0  0  0  0
 17 21  1  0  0  0  0
 18 22  2  0  0  0  0
 19 20  2  0  0  0  0
 21 23  2  0  0  0  0
 22 23  1  0  0  0  0
M  END
> <PUBCHEM_COMPOUND_ID_TYPE>
0

> <PUBCHEM_TOTAL_CHARGE>
0

> <PUBCHEM_SUBSTANCE_ID>
310931800

> <PUBCHEM_SUBSTANCE_VERSION>
1

> <PUBCHEM_EXT_DATASOURCE_NAME>
4488

> <PUBCHEM_EXT_DATASOURCE_REGID>
SCHEMBL16109132

> <PUBCHEM_SUBSTANCE_COMMENT>
InChI=1S/C21H16O3/c1-24-19-12-6-10-17(14-19)16-9-5-11-18(13-16)21(23)20(22)15-7-3-2-4-8-15/h2-14H,1H3
InChIKey=DECKBHDMDLWOQH-UHFFFAOYSA-N

> <PUBCHEM_SUBSTANCE_SYNONYM>
SCHEMBL16109132

> <PUBCHEM_XREF_EXT_ID>
SCHEMBL16109132

> <PUBCHEM_EXT_DATASOURCE_URL>
https://www.surechembl.org/

> <PUBCHEM_EXT_SUBSTANCE_URL>
https://www.surechembl.org/chemical/SCHEMBL16109132

> <PUBCHEM_CID_ASSOCIATIONS>
117600478  1

> <PUBCHEM_COORDINATE_TYPE>
1
3

$$$$
