310934236
  -OEChem-07211613022D

 13 13  0     0  0  0  0  0  0999 V2000
   -4.2869    1.6500    0.0000 O   0  0  0  0  0  0  0  0  0  0  0  0
   -1.4290    1.6500    0.0000 O   0  0  0  0  0  0  0  0  0  0  0  0
   -5.7159    3.3001    0.0000 O   0  0  0  0  0  0  0  0  0  0  0  0
   -2.8579    1.6500    0.0000 N   0  0  0  0  0  0  0  0  0  0  0  0
   -3.5724    2.0625    0.0000 C   0  0  0  0  0  0  0  0  0  0  0  0
   -3.5724    2.8876    0.0000 C   0  0  0  0  0  0  0  0  0  0  0  0
   -2.1435    2.0625    0.0000 C   0  0  0  0  0  0  0  0  0  0  0  0
   -2.8579    3.3001    0.0000 C   0  0  0  0  0  0  0  0  0  0  0  0
   -2.1435    2.8876    0.0000 C   0  0  0  0  0  0  0  0  0  0  0  0
   -4.2869    3.3001    0.0000 C   0  0  0  0  0  0  0  0  0  0  0  0
   -5.0014    2.8876    0.0000 C   0  0  0  0  0  0  0  0  0  0  0  0
   -5.0014    2.0625    0.0000 C   0  0  0  0  0  0  0  0  0  0  0  0
   -0.7145    2.0625    0.0000 C   0  0  0  0  0  0  0  0  0  0  0  0
  1  5  1  0  0  0  0
  1 12  1  0  0  0  0
  2  7  1  0  0  0  0
  2 13  1  0  0  0  0
  3 11  2  0  0  0  0
  4  5  2  0  0  0  0
  4  7  1  0  0  0  0
  5  6  1  0  0  0  0
  6  8  2  0  0  0  0
  6 10  1  0  0  0  0
  7  9  2  0  0  0  0
  8  9  1  0  0  0  0
 10 11  1  0  0  0  0
M  END
> <PUBCHEM_COMPOUND_ID_TYPE>
0

> <PUBCHEM_TOTAL_CHARGE>
0

> <PUBCHEM_SUBSTANCE_ID>
310934236

> <PUBCHEM_SUBSTANCE_VERSION>
1

> <PUBCHEM_EXT_DATASOURCE_NAME>
4488

> <PUBCHEM_EXT_DATASOURCE_REGID>
SCHEMBL16111693

> <PUBCHEM_SUBSTANCE_COMMENT>
InChI=1S/C9H11NO3/c1-12-8-4-3-7(5-6-11)9(10-8)13-2/h3-4,6H,5H2,1-2H3
InChIKey=JNCHXWJPPMOJFD-UHFFFAOYSA-N

> <PUBCHEM_SUBSTANCE_SYNONYM>
SCHEMBL16111693

> <PUBCHEM_XREF_EXT_ID>
SCHEMBL16111693

> <PUBCHEM_EXT_DATASOURCE_URL>
https://www.surechembl.org/

> <PUBCHEM_EXT_SUBSTANCE_URL>
https://www.surechembl.org/chemical/SCHEMBL16111693

> <PUBCHEM_CID_ASSOCIATIONS>
117602498  1

> <PUBCHEM_COORDINATE_TYPE>
1
3

$$$$
