310946041
  -OEChem-07211613022D

 37 40  0     1  0  0  0  0  0999 V2000
    3.6494    1.5689    0.0000 O   0  0  0  0  0  0  0  0  0  0  0  0
    1.3823    1.5689    0.0000 O   0  0  0  0  0  0  0  0  0  0  0  0
   -2.7923    0.6152    0.0000 O   0  0  0  0  0  0  0  0  0  0  0  0
   -0.0553    1.5689    0.0000 O   0  0  0  0  0  0  0  0  0  0  0  0
    0.6635    1.1543    0.0000 O   0  0  0  0  0  0  0  0  0  0  0  0
   -2.9306   -2.5781    0.0000 O   0  0  0  0  0  0  0  0  0  0  0  0
    1.3823   -0.0760    0.0000 N   0  0  0  0  0  0  0  0  0  0  0  0
   -0.7741    0.3387    0.0000 N   0  0  0  0  0  0  0  0  0  0  0  0
   -1.5758    2.4122    0.0000 N   0  0  0  0  0  0  0  0  0  0  0  0
    2.8338    1.5828    0.0000 C   0  0  3  0  0  0  0  0  0  0  0  0
    2.0873    1.1128    0.0000 C   0  0  0  0  0  0  0  0  0  0  0  0
    3.2347    0.8916    0.0000 C   0  0  0  0  0  0  0  0  0  0  0  0
    2.1012    0.3387    0.0000 C   0  0  3  0  0  0  0  0  0  0  0  0
   -1.4929    1.5828    0.0000 C   0  0  3  0  0  0  0  0  0  0  0  0
   -2.2532    1.2649    0.0000 C   0  0  3  0  0  0  0  0  0  0  0  0
    2.8200    2.4122    0.0000 C   0  0  0  0  0  0  0  0  0  0  0  0
   -0.7465    1.1128    0.0000 C   0  0  0  0  0  0  0  0  0  0  0  0
    0.6497    0.3248    0.0000 C   0  0  0  0  0  0  0  0  0  0  0  0
   -0.0276   -0.0622    0.0000 C   0  0  3  0  0  0  0  0  0  0  0  0
    2.8062   -0.0622    0.0000 C   0  0  0  0  0  0  0  0  0  0  0  0
   -2.7923    1.8593    0.0000 C   0  0  0  0  0  0  0  0  0  0  0  0
    2.8200   -0.9054    0.0000 C   0  0  0  0  0  0  0  0  0  0  0  0
   -2.3777    2.5781    0.0000 C   0  0  0  0  0  0  0  0  0  0  0  0
   -0.0553   -0.8916    0.0000 C   0  0  0  0  0  0  0  0  0  0  0  0
   -1.9906    0.4908    0.0000 C   0  0  0  0  0  0  0  0  0  0  0  0
   -0.7603   -1.3201    0.0000 C   0  0  0  0  0  0  0  0  0  0  0  0
    3.5388   -1.3340    0.0000 C   0  0  0  0  0  0  0  0  0  0  0  0
    2.1150   -1.3063    0.0000 C   0  0  0  0  0  0  0  0  0  0  0  0
   -1.5067   -0.9192    0.0000 C   0  0  0  0  0  0  0  0  0  0  0  0
   -0.7741   -2.1357    0.0000 C   0  0  0  0  0  0  0  0  0  0  0  0
   -2.2117   -2.1357    0.0000 C   0  0  0  0  0  0  0  0  0  0  0  0
   -2.1841   -1.3201    0.0000 C   0  0  0  0  0  0  0  0  0  0  0  0
   -1.4929   -2.5505    0.0000 C   0  0  0  0  0  0  0  0  0  0  0  0
    3.5388   -2.1357    0.0000 C   0  0  0  0  0  0  0  0  0  0  0  0
    2.1150   -2.1357    0.0000 C   0  0  0  0  0  0  0  0  0  0  0  0
    2.8338   -2.5505    0.0000 C   0  0  0  0  0  0  0  0  0  0  0  0
   -3.6494   -2.1634    0.0000 C   0  0  0  0  0  0  0  0  0  0  0  0
  1 10  1  0  0  0  0
  1 12  1  0  0  0  0
  2 11  2  0  0  0  0
 15  3  1  1  0  0  0
  4 17  2  0  0  0  0
  5 18  2  0  0  0  0
  6 31  1  0  0  0  0
  6 37  1  0  0  0  0
 13  7  1  6  0  0  0
  7 18  1  0  0  0  0
  8 17  1  0  0  0  0
 19  8  1  6  0  0  0
  9 14  1  0  0  0  0
  9 23  1  0  0  0  0
 10 11  1  6  0  0  0
 10 12  1  0  0  0  0
 10 16  1  1  0  0  0
 11 13  1  0  0  0  0
 13 20  1  0  0  0  0
 14 15  1  0  0  0  0
 14 17  1  6  0  0  0
 15 21  1  0  0  0  0
 15 25  1  6  0  0  0
 18 19  1  0  0  0  0
 19 24  1  0  0  0  0
 20 22  1  0  0  0  0
 21 23  1  0  0  0  0
 22 27  2  0  0  0  0
 22 28  1  0  0  0  0
 24 26  1  0  0  0  0
 26 29  2  0  0  0  0
 26 30  1  0  0  0  0
 27 34  1  0  0  0  0
 28 35  2  0  0  0  0
 29 32  1  0  0  0  0
 30 33  2  0  0  0  0
 31 32  2  0  0  0  0
 31 33  1  0  0  0  0
 34 36  2  0  0  0  0
 35 36  1  0  0  0  0
M  END
> <PUBCHEM_COMPOUND_ID_TYPE>
0

> <PUBCHEM_TOTAL_CHARGE>
0

> <PUBCHEM_SUBSTANCE_ID>
310946041

> <PUBCHEM_SUBSTANCE_VERSION>
1

> <PUBCHEM_EXT_DATASOURCE_NAME>
4488

> <PUBCHEM_EXT_DATASOURCE_REGID>
SCHEMBL16124147

> <PUBCHEM_SUBSTANCE_COMMENT>
InChI=1S/C28H35N3O6/c1-27(35)13-14-29-23(27)26(34)31-22(16-19-9-11-20(36-3)12-10-19)25(33)30-21(24(32)28(2)17-37-28)15-18-7-5-4-6-8-18/h4-12,21-23,29,35H,13-17H2,1-3H3,(H,30,33)(H,31,34)/t21-,22-,23+,27-,28+/m0/s1
InChIKey=MGQXEWFQQFLJIX-HLSUJQSVSA-N

> <PUBCHEM_SUBSTANCE_SYNONYM>
SCHEMBL16124147

> <PUBCHEM_XREF_EXT_ID>
SCHEMBL16124147

> <PUBCHEM_EXT_DATASOURCE_URL>
https://www.surechembl.org/

> <PUBCHEM_EXT_SUBSTANCE_URL>
https://www.surechembl.org/chemical/SCHEMBL16124147

> <PUBCHEM_CID_ASSOCIATIONS>
117612012  1

> <PUBCHEM_COORDINATE_TYPE>
1
3

> <PUBCHEM_BONDANNOTATIONS>
10  11  6
10  16  5
14  17  6
15  25  6
15  3  5
13  7  6
19  8  6

$$$$
