310945091
  -OEChem-07211613022D

 34 38  0     0  0  0  0  0  0999 V2000
    3.9719    3.0418    0.0000 O   0  0  0  0  0  0  0  0  0  0  0  0
   -2.0558   -1.9069    0.0000 O   0  0  0  0  0  0  0  0  0  0  0  0
   -3.9533    0.3999    0.0000 O   0  0  0  0  0  0  0  0  0  0  0  0
   -4.2138   -2.3906    0.0000 O   0  0  0  0  0  0  0  0  0  0  0  0
    2.5022    0.6977    0.0000 N   0  0  0  0  0  0  0  0  0  0  0  0
    0.6977    0.7534    0.0000 N   0  0  0  0  0  0  0  0  0  0  0  0
   -0.4930    1.5720    0.0000 N   0  0  0  0  0  0  0  0  0  0  0  0
    4.7161    1.8325    0.0000 N   0  0  0  0  0  0  0  0  0  0  0  0
   -0.7349   -1.2930    0.0000 N   0  0  0  0  0  0  0  0  0  0  0  0
   -2.7627   -0.3999    0.0000 N   0  0  0  0  0  0  0  0  0  0  0  0
    1.9999    1.3488    0.0000 C   0  0  0  0  0  0  0  0  0  0  0  0
    2.4650    2.0371    0.0000 C   0  0  0  0  0  0  0  0  0  0  0  0
    3.2836    1.7953    0.0000 C   0  0  0  0  0  0  0  0  0  0  0  0
    1.1627    1.4418    0.0000 C   0  0  0  0  0  0  0  0  0  0  0  0
    3.2836    0.9767    0.0000 C   0  0  0  0  0  0  0  0  0  0  0  0
    0.8093    2.1674    0.0000 C   0  0  0  0  0  0  0  0  0  0  0  0
    3.9719    2.2046    0.0000 C   0  0  0  0  0  0  0  0  0  0  0  0
    2.1115    2.7812    0.0000 C   0  0  0  0  0  0  0  0  0  0  0  0
   -0.1581    0.8279    0.0000 C   0  0  0  0  0  0  0  0  0  0  0  0
    1.2930    2.8371    0.0000 C   0  0  0  0  0  0  0  0  0  0  0  0
   -0.0093    2.2418    0.0000 C   0  0  0  0  0  0  0  0  0  0  0  0
    4.0463    0.5674    0.0000 C   0  0  0  0  0  0  0  0  0  0  0  0
   -0.6233    0.1395    0.0000 C   0  0  0  0  0  0  0  0  0  0  0  0
    4.7347    0.9953    0.0000 C   0  0  0  0  0  0  0  0  0  0  0  0
   -1.4418    0.1954    0.0000 C   0  0  0  0  0  0  0  0  0  0  0  0
   -1.9255   -0.4744    0.0000 C   0  0  0  0  0  0  0  0  0  0  0  0
   -0.2698   -0.6046    0.0000 C   0  0  0  0  0  0  0  0  0  0  0  0
   -1.5720   -1.1999    0.0000 C   0  0  0  0  0  0  0  0  0  0  0  0
   -3.0975    0.3442    0.0000 C   0  0  0  0  0  0  0  0  0  0  0  0
   -2.8743   -1.8511    0.0000 C   0  0  0  0  0  0  0  0  0  0  0  0
   -2.6324    1.0325    0.0000 C   0  0  0  0  0  0  0  0  0  0  0  0
   -3.3952   -2.4836    0.0000 C   0  0  0  0  0  0  0  0  0  0  0  0
   -3.0603    1.7395    0.0000 C   0  0  0  0  0  0  0  0  0  0  0  0
   -4.7347   -3.0418    0.0000 C   0  0  0  0  0  0  0  0  0  0  0  0
  1 17  2  0  0  0  0
  2 28  1  0  0  0  0
  2 30  1  0  0  0  0
  3 29  2  0  0  0  0
  4 32  1  0  0  0  0
  4 34  1  0  0  0  0
  5 11  1  0  0  0  0
  5 15  1  0  0  0  0
  6 14  1  0  0  0  0
  6 19  2  0  0  0  0
  7 19  1  0  0  0  0
  7 21  2  0  0  0  0
  8 17  1  0  0  0  0
  8 24  1  0  0  0  0
  9 27  2  0  0  0  0
  9 28  1  0  0  0  0
 10 26  1  0  0  0  0
 10 29  1  0  0  0  0
 11 12  2  0  0  0  0
 11 14  1  0  0  0  0
 12 13  1  0  0  0  0
 12 18  1  0  0  0  0
 13 15  2  0  0  0  0
 13 17  1  0  0  0  0
 14 16  2  0  0  0  0
 15 22  1  0  0  0  0
 16 20  1  0  0  0  0
 16 21  1  0  0  0  0
 18 20  1  0  0  0  0
 19 23  1  0  0  0  0
 22 24  1  0  0  0  0
 23 25  2  0  0  0  0
 23 27  1  0  0  0  0
 25 26  1  0  0  0  0
 26 28  2  0  0  0  0
 29 31  1  0  0  0  0
 30 32  1  0  0  0  0
 31 33  2  0  0  0  0
M  END
> <PUBCHEM_COMPOUND_ID_TYPE>
0

> <PUBCHEM_TOTAL_CHARGE>
0

> <PUBCHEM_SUBSTANCE_ID>
310945091

> <PUBCHEM_SUBSTANCE_VERSION>
1

> <PUBCHEM_EXT_DATASOURCE_NAME>
4488

> <PUBCHEM_EXT_DATASOURCE_REGID>
SCHEMBL16123181

> <PUBCHEM_SUBSTANCE_COMMENT>
InChI=1S/C24H24N6O4/c1-3-18(31)28-17-10-14(12-27-24(17)34-9-8-33-2)22-26-11-13-4-5-15-19-16(6-7-25-23(19)32)29-21(15)20(13)30-22/h3,10-12,29H,1,4-9H2,2H3,(H,25,32)(H,28,31)
InChIKey=BSUUDCCUJATZHP-UHFFFAOYSA-N

> <PUBCHEM_SUBSTANCE_SYNONYM>
SCHEMBL16123181

> <PUBCHEM_XREF_EXT_ID>
SCHEMBL16123181

> <PUBCHEM_EXT_DATASOURCE_URL>
https://www.surechembl.org/

> <PUBCHEM_EXT_SUBSTANCE_URL>
https://www.surechembl.org/chemical/SCHEMBL16123181

> <PUBCHEM_CID_ASSOCIATIONS>
117611191  1

> <PUBCHEM_COORDINATE_TYPE>
1
3

$$$$
