310934679
  -OEChem-07211613022D

 24 26  0     0  0  0  0  0  0999 V2000
    1.5819   -1.4205    0.0000 O   0  0  0  0  0  0  0  0  0  0  0  0
    4.4876   -0.7103    0.0000 O   0  0  0  0  0  0  0  0  0  0  0  0
    1.5819    0.0000    0.0000 O   0  0  0  0  0  0  0  0  0  0  0  0
    2.4214   -1.4205    0.0000 N   0  0  0  0  0  0  0  0  0  0  0  0
    2.8087   -0.7103    0.0000 C   0  0  0  0  0  0  0  0  0  0  0  0
    2.0016   -0.7103    0.0000 C   0  0  0  0  0  0  0  0  0  0  0  0
    3.2608   -1.4205    0.0000 C   0  0  0  0  0  0  0  0  0  0  0  0
    3.2608    0.0000    0.0000 C   0  0  0  0  0  0  0  0  0  0  0  0
    2.4214   -2.8733    0.0000 C   0  0  0  0  0  0  0  0  0  0  0  0
    2.8411   -2.1308    0.0000 C   0  0  0  0  0  0  0  0  0  0  0  0
    1.6143   -4.2939    0.0000 C   0  0  0  0  0  0  0  0  0  0  0  0
    4.0679   -1.4205    0.0000 C   0  0  0  0  0  0  0  0  0  0  0  0
    4.0679    0.0000    0.0000 C   0  0  0  0  0  0  0  0  0  0  0  0
    1.2268   -5.0041    0.0000 C   0  0  0  0  0  0  0  0  0  0  0  0
    1.6143   -2.8733    0.0000 C   0  0  0  0  0  0  0  0  0  0  0  0
    2.8411   -3.5513    0.0000 C   0  0  0  0  0  0  0  0  0  0  0  0
    1.1946   -3.5836    0.0000 C   0  0  0  0  0  0  0  0  0  0  0  0
    2.4536   -4.2939    0.0000 C   0  0  0  0  0  0  0  0  0  0  0  0
    1.6465   -5.7467    0.0000 C   0  0  0  0  0  0  0  0  0  0  0  0
    0.3874   -5.0364    0.0000 C   0  0  0  0  0  0  0  0  0  0  0  0
    0.7749   -1.4205    0.0000 C   0  0  0  0  0  0  0  0  0  0  0  0
    1.2591   -6.4569    0.0000 C   0  0  0  0  0  0  0  0  0  0  0  0
    0.0000   -5.7467    0.0000 C   0  0  0  0  0  0  0  0  0  0  0  0
    0.4197   -6.4569    0.0000 C   0  0  0  0  0  0  0  0  0  0  0  0
  1  6  1  0  0  0  0
  1 21  1  0  0  0  0
  2 12  1  0  0  0  0
  2 13  1  0  0  0  0
  3  6  2  0  0  0  0
  4  5  1  0  0  0  0
  4 10  1  0  0  0  0
  5  6  1  0  0  0  0
  5  7  1  0  0  0  0
  5  8  1  0  0  0  0
  7 12  1  0  0  0  0
  8 13  1  0  0  0  0
  9 10  1  0  0  0  0
  9 15  2  0  0  0  0
  9 16  1  0  0  0  0
 11 14  1  0  0  0  0
 11 17  2  0  0  0  0
 11 18  1  0  0  0  0
 14 19  2  0  0  0  0
 14 20  1  0  0  0  0
 15 17  1  0  0  0  0
 16 18  2  0  0  0  0
 19 22  1  0  0  0  0
 20 23  2  0  0  0  0
 22 24  2  0  0  0  0
 23 24  1  0  0  0  0
M  END
> <PUBCHEM_COMPOUND_ID_TYPE>
0

> <PUBCHEM_TOTAL_CHARGE>
0

> <PUBCHEM_SUBSTANCE_ID>
310934679

> <PUBCHEM_SUBSTANCE_VERSION>
1

> <PUBCHEM_EXT_DATASOURCE_NAME>
4488

> <PUBCHEM_EXT_DATASOURCE_REGID>
SCHEMBL16112178

> <PUBCHEM_SUBSTANCE_COMMENT>
InChI=1S/C20H23NO3/c1-23-19(22)20(11-13-24-14-12-20)21-15-16-7-9-18(10-8-16)17-5-3-2-4-6-17/h2-10,21H,11-15H2,1H3
InChIKey=QAULBPGXKRTDCR-UHFFFAOYSA-N

> <PUBCHEM_SUBSTANCE_SYNONYM>
SCHEMBL16112178

> <PUBCHEM_XREF_EXT_ID>
SCHEMBL16112178

> <PUBCHEM_EXT_DATASOURCE_URL>
https://www.surechembl.org/

> <PUBCHEM_EXT_SUBSTANCE_URL>
https://www.surechembl.org/chemical/SCHEMBL16112178

> <PUBCHEM_CID_ASSOCIATIONS>
117602843  1

> <PUBCHEM_COORDINATE_TYPE>
1
3

$$$$
