310945078
  -OEChem-07211613022D

 33 36  0     0  0  0  0  0  0999 V2000
   -4.0905   -1.2104    0.0000 S   0  0  0  0  0  0  0  0  0  0  0  0
   -3.3131    0.0972    0.0000 F   0  0  0  0  0  0  0  0  0  0  0  0
    3.9139   -2.3589    0.0000 O   0  0  0  0  0  0  0  0  0  0  0  0
    4.6383   -1.1220    0.0000 O   0  0  0  0  0  0  0  0  0  0  0  0
   -4.2319   -2.5179    0.0000 N   0  0  0  0  0  0  0  0  0  0  0  0
   -0.4506    0.0795    0.0000 C   0  0  0  0  0  0  0  0  0  0  0  0
   -1.1397   -0.3269    0.0000 C   0  0  0  0  0  0  0  0  0  0  0  0
   -0.4152    0.9100    0.0000 C   0  0  0  0  0  0  0  0  0  0  0  0
    0.3092   -0.3269    0.0000 C   0  0  0  0  0  0  0  0  0  0  0  0
   -2.6063   -1.1397    0.0000 C   0  0  0  0  0  0  0  0  0  0  0  0
   -2.5886   -0.3269    0.0000 C   0  0  0  0  0  0  0  0  0  0  0  0
   -1.8818    0.0795    0.0000 C   0  0  0  0  0  0  0  0  0  0  0  0
   -1.1574   -1.1397    0.0000 C   0  0  0  0  0  0  0  0  0  0  0  0
    0.2916    1.3164    0.0000 C   0  0  0  0  0  0  0  0  0  0  0  0
   -3.3131   -1.5461    0.0000 C   0  0  0  0  0  0  0  0  0  0  0  0
   -1.8818   -1.5461    0.0000 C   0  0  0  0  0  0  0  0  0  0  0  0
    0.3269   -1.1397    0.0000 C   0  0  0  0  0  0  0  0  0  0  0  0
    1.0160    0.0795    0.0000 C   0  0  0  0  0  0  0  0  0  0  0  0
   -1.1397    1.3164    0.0000 C   0  0  0  0  0  0  0  0  0  0  0  0
   -3.4191   -2.3765    0.0000 C   0  0  0  0  0  0  0  0  0  0  0  0
    1.7405   -1.1397    0.0000 C   0  0  0  0  0  0  0  0  0  0  0  0
    1.0160   -1.5461    0.0000 C   0  0  0  0  0  0  0  0  0  0  0  0
    1.7405   -0.3269    0.0000 C   0  0  0  0  0  0  0  0  0  0  0  0
    1.0160    0.9100    0.0000 C   0  0  0  0  0  0  0  0  0  0  0  0
    0.3269    2.1292    0.0000 C   0  0  0  0  0  0  0  0  0  0  0  0
   -4.6383   -1.8642    0.0000 C   0  0  0  0  0  0  0  0  0  0  0  0
    1.7405    1.3164    0.0000 C   0  0  0  0  0  0  0  0  0  0  0  0
    1.0337    2.5179    0.0000 C   0  0  0  0  0  0  0  0  0  0  0  0
    2.4826   -1.5461    0.0000 C   0  0  0  0  0  0  0  0  0  0  0  0
   -1.1397    2.1469    0.0000 C   0  0  0  0  0  0  0  0  0  0  0  0
    1.7405    2.1292    0.0000 C   0  0  0  0  0  0  0  0  0  0  0  0
    3.1717   -1.1574    0.0000 C   0  0  0  0  0  0  0  0  0  0  0  0
    3.9139   -1.5285    0.0000 C   0  0  0  0  0  0  0  0  0  0  0  0
  1 15  1  0  0  0  0
  1 26  1  0  0  0  0
  2 11  1  0  0  0  0
  3 33  2  0  0  0  0
  4 33  1  0  0  0  0
  5 20  1  0  0  0  0
  5 26  2  0  0  0  0
  6  7  1  0  0  0  0
  6  8  2  0  0  0  0
  6  9  1  0  0  0  0
  7 12  2  0  0  0  0
  7 13  1  0  0  0  0
  8 14  1  0  0  0  0
  8 19  1  0  0  0  0
  9 17  2  0  0  0  0
  9 18  1  0  0  0  0
 10 11  2  0  0  0  0
 10 15  1  0  0  0  0
 10 16  1  0  0  0  0
 11 12  1  0  0  0  0
 13 16  2  0  0  0  0
 14 24  2  0  0  0  0
 14 25  1  0  0  0  0
 15 20  2  0  0  0  0
 17 22  1  0  0  0  0
 18 23  2  0  0  0  0
 19 30  1  0  0  0  0
 21 22  2  0  0  0  0
 21 23  1  0  0  0  0
 21 29  1  0  0  0  0
 24 27  1  0  0  0  0
 25 28  2  0  0  0  0
 27 31  2  0  0  0  0
 28 31  1  0  0  0  0
 29 32  2  0  0  0  0
 32 33  1  0  0  0  0
M  END
> <PUBCHEM_COMPOUND_ID_TYPE>
0

> <PUBCHEM_TOTAL_CHARGE>
0

> <PUBCHEM_SUBSTANCE_ID>
310945078

> <PUBCHEM_SUBSTANCE_VERSION>
1

> <PUBCHEM_EXT_DATASOURCE_NAME>
4488

> <PUBCHEM_EXT_DATASOURCE_REGID>
SCHEMBL16123168

> <PUBCHEM_SUBSTANCE_COMMENT>
InChI=1S/C28H22FNO2S/c1-2-23(20-6-4-3-5-7-20)28(21-11-8-19(9-12-21)10-15-27(31)32)22-13-14-24(25(29)16-22)26-17-30-18-33-26/h3-18H,2H2,1H3,(H,31,32)/b15-10+,28-23+
InChIKey=FRLMXSMVYMJJEQ-ULSYIEMISA-N

> <PUBCHEM_SUBSTANCE_SYNONYM>
SCHEMBL16123168

> <PUBCHEM_XREF_EXT_ID>
SCHEMBL16123168

> <PUBCHEM_EXT_DATASOURCE_URL>
https://www.surechembl.org/

> <PUBCHEM_EXT_SUBSTANCE_URL>
https://www.surechembl.org/chemical/SCHEMBL16123168

> <PUBCHEM_CID_ASSOCIATIONS>
86271187  1

> <PUBCHEM_COORDINATE_TYPE>
1
3

$$$$
