310936670
  -OEChem-07211613022D

 25 27  0     0  0  0  0  0  0999 V2000
    0.0000   -2.0900    0.0000 F   0  0  0  0  0  0  0  0  0  0  0  0
    3.2450   -3.5750    0.0000 O   0  0  0  0  0  0  0  0  0  0  0  0
    4.5099   -2.8600    0.0000 N   0  0  0  0  0  0  0  0  0  0  0  0
    6.9849    0.0000    0.0000 N   0  0  0  0  0  0  0  0  0  0  0  0
    6.9849   -1.4025    0.0000 N   0  0  0  0  0  0  0  0  0  0  0  0
    8.2499   -0.7150    0.0000 N   0  0  0  0  0  0  0  0  0  0  0  0
    3.2724   -2.1450    0.0000 C   0  0  0  0  0  0  0  0  0  0  0  0
    2.4475   -2.1175    0.0000 C   0  0  0  0  0  0  0  0  0  0  0  0
    3.6849   -2.8600    0.0000 C   0  0  0  0  0  0  0  0  0  0  0  0
    4.5099   -1.4300    0.0000 C   0  0  0  0  0  0  0  0  0  0  0  0
    3.6849   -1.4300    0.0000 C   0  0  0  0  0  0  0  0  0  0  0  0
    2.0625   -1.4025    0.0000 C   0  0  0  0  0  0  0  0  0  0  0  0
    2.0350   -2.8325    0.0000 C   0  0  0  0  0  0  0  0  0  0  0  0
    4.8950   -2.1450    0.0000 C   0  0  0  0  0  0  0  0  0  0  0  0
    1.2375   -1.4025    0.0000 C   0  0  0  0  0  0  0  0  0  0  0  0
    4.9224   -0.7150    0.0000 C   0  0  0  0  0  0  0  0  0  0  0  0
    0.8250   -2.1175    0.0000 C   0  0  0  0  0  0  0  0  0  0  0  0
    5.7474   -0.7150    0.0000 C   0  0  0  0  0  0  0  0  0  0  0  0
    1.2100   -2.8325    0.0000 C   0  0  0  0  0  0  0  0  0  0  0  0
    6.1874    0.0000    0.0000 C   0  0  0  0  0  0  0  0  0  0  0  0
    6.1874   -1.4025    0.0000 C   0  0  0  0  0  0  0  0  0  0  0  0
    7.4249   -0.7150    0.0000 C   0  0  0  0  0  0  0  0  0  0  0  0
    0.8525   -0.6875    0.0000 C   0  0  0  0  0  0  0  0  0  0  0  0
    3.6575   -4.2900    0.0000 C   0  0  0  0  0  0  0  0  0  0  0  0
    4.4825   -4.2900    0.0000 C   0  0  0  0  0  0  0  0  0  0  0  0
  1 17  1  0  0  0  0
  2  9  1  0  0  0  0
  2 24  1  0  0  0  0
  3  9  2  0  0  0  0
  3 14  1  0  0  0  0
  4 20  1  0  0  0  0
  4 22  2  0  0  0  0
  5 21  2  0  0  0  0
  5 22  1  0  0  0  0
  6 22  1  0  0  0  0
  7  8  1  0  0  0  0
  7  9  1  0  0  0  0
  7 11  2  0  0  0  0
  8 12  1  0  0  0  0
  8 13  2  0  0  0  0
 10 11  1  0  0  0  0
 10 14  2  0  0  0  0
 10 16  1  0  0  0  0
 12 15  2  0  0  0  0
 13 19  1  0  0  0  0
 15 17  1  0  0  0  0
 15 23  1  0  0  0  0
 16 18  1  0  0  0  0
 17 19  2  0  0  0  0
 18 20  2  0  0  0  0
 18 21  1  0  0  0  0
 24 25  1  0  0  0  0
M  END
> <PUBCHEM_COMPOUND_ID_TYPE>
0

> <PUBCHEM_TOTAL_CHARGE>
0

> <PUBCHEM_SUBSTANCE_ID>
310936670

> <PUBCHEM_SUBSTANCE_VERSION>
1

> <PUBCHEM_EXT_DATASOURCE_NAME>
4488

> <PUBCHEM_EXT_DATASOURCE_REGID>
SCHEMBL16114341

> <PUBCHEM_SUBSTANCE_COMMENT>
InChI=1S/C19H19FN4O/c1-3-25-18-16(15-4-5-17(20)12(2)6-15)8-13(9-22-18)7-14-10-23-19(21)24-11-14/h4-6,8-11H,3,7H2,1-2H3,(H2,21,23,24)
InChIKey=CVOHJEVOGBKMTC-UHFFFAOYSA-N

> <PUBCHEM_SUBSTANCE_SYNONYM>
SCHEMBL16114341

> <PUBCHEM_XREF_EXT_ID>
SCHEMBL16114341

> <PUBCHEM_EXT_DATASOURCE_URL>
https://www.surechembl.org/

> <PUBCHEM_EXT_SUBSTANCE_URL>
https://www.surechembl.org/chemical/SCHEMBL16114341

> <PUBCHEM_CID_ASSOCIATIONS>
117604579  1

> <PUBCHEM_COORDINATE_TYPE>
1
3

$$$$
