310932715
  -OEChem-07211613022D

 12 11  0     0  0  0  0  0  0999 V2000
    2.2500   -0.8250    0.0000 P   0  0  0  0  0  0  0  0  0  0  0  0
    0.8250   -4.1750    0.0000 P   0  0  0  0  0  0  0  0  0  0  0  0
    2.2500   -1.6750    0.0000 O   0  0  0  0  0  0  0  0  0  0  0  0
    0.8250   -3.3500    0.0000 O   0  0  0  0  0  0  0  0  0  0  0  0
    3.0750   -0.8250    0.0000 O   0  0  0  0  0  0  0  0  0  0  0  0
    0.0000   -4.2000    0.0000 O   0  0  0  0  0  0  0  0  0  0  0  0
    1.4250   -0.8250    0.0000 O   0  0  0  0  0  0  0  0  0  0  0  0
    2.2500    0.0000    0.0000 O   0  0  0  0  0  0  0  0  0  0  0  0
    1.6500   -4.1500    0.0000 O   0  0  0  0  0  0  0  0  0  0  0  0
    0.8500   -5.0000    0.0000 O   0  0  0  0  0  0  0  0  0  0  0  0
    1.5250   -2.9000    0.0000 C   0  0  0  0  0  0  0  0  0  0  0  0
    1.5250   -2.0750    0.0000 C   0  0  0  0  0  0  0  0  0  0  0  0
  1  3  1  0  0  0  0
  1  5  2  0  0  0  0
  1  7  1  0  0  0  0
  1  8  1  0  0  0  0
  2  4  1  0  0  0  0
  2  6  2  0  0  0  0
  2  9  1  0  0  0  0
  2 10  1  0  0  0  0
  3 12  1  0  0  0  0
  4 11  1  0  0  0  0
 11 12  2  0  0  0  0
M  END
> <PUBCHEM_COMPOUND_ID_TYPE>
0

> <PUBCHEM_TOTAL_CHARGE>
0

> <PUBCHEM_SUBSTANCE_ID>
310932715

> <PUBCHEM_SUBSTANCE_VERSION>
1

> <PUBCHEM_EXT_DATASOURCE_NAME>
4488

> <PUBCHEM_EXT_DATASOURCE_REGID>
SCHEMBL16110098

> <PUBCHEM_SUBSTANCE_COMMENT>
InChI=1S/C2H6O8P2/c3-11(4,5)9-1-2-10-12(6,7)8/h1-2H,(H2,3,4,5)(H2,6,7,8)/b2-1+
InChIKey=WQLYJZCJZDSLEG-OWOJBTEDSA-N

> <PUBCHEM_SUBSTANCE_SYNONYM>
SCHEMBL16110098

> <PUBCHEM_XREF_EXT_ID>
SCHEMBL16110098

> <PUBCHEM_EXT_DATASOURCE_URL>
https://www.surechembl.org/

> <PUBCHEM_EXT_SUBSTANCE_URL>
https://www.surechembl.org/chemical/SCHEMBL16110098

> <PUBCHEM_CID_ASSOCIATIONS>
117601222  1

> <PUBCHEM_COORDINATE_TYPE>
1
3

$$$$
