310947016
  -OEChem-07211613022D

 38 42  0     0  0  0  0  0  0999 V2000
   -0.9920   -2.0625    0.0000 F   0  0  0  0  0  0  0  0  0  0  0  0
   -2.4210   -2.8875    0.0000 O   0  0  0  0  0  0  0  0  0  0  0  0
   -3.8499   -0.4125    0.0000 O   0  0  0  0  0  0  0  0  0  0  0  0
   -2.4210    2.8875    0.0000 O   0  0  0  0  0  0  0  0  0  0  0  0
   -0.9920   -0.4125    0.0000 N   0  0  0  0  0  0  0  0  0  0  0  0
    0.4369   -0.4125    0.0000 N   0  0  0  0  0  0  0  0  0  0  0  0
    1.8659   -0.4125    0.0000 N   0  0  0  0  0  0  0  0  0  0  0  0
    1.8659   -2.0625    0.0000 N   0  0  0  0  0  0  0  0  0  0  0  0
   -1.7065    1.6500    0.0000 N   0  0  0  0  0  0  0  0  0  0  0  0
   -2.4210    0.4125    0.0000 N   0  0  0  0  0  0  0  0  0  0  0  0
    4.0794    0.6674    0.0000 N   0  0  0  0  0  0  0  0  0  0  0  0
    4.5644    0.0000    0.0000 N   0  0  0  0  0  0  0  0  0  0  0  0
   -1.7065   -0.8250    0.0000 C   0  0  0  0  0  0  0  0  0  0  0  0
   -0.2775   -0.8250    0.0000 C   0  0  0  0  0  0  0  0  0  0  0  0
    1.1514   -0.8250    0.0000 C   0  0  0  0  0  0  0  0  0  0  0  0
   -1.7065   -1.6500    0.0000 C   0  0  0  0  0  0  0  0  0  0  0  0
    1.1514   -1.6500    0.0000 C   0  0  0  0  0  0  0  0  0  0  0  0
   -2.4210   -2.0625    0.0000 C   0  0  0  0  0  0  0  0  0  0  0  0
   -0.9920    0.4125    0.0000 C   0  0  0  0  0  0  0  0  0  0  0  0
   -2.4210   -0.4125    0.0000 C   0  0  0  0  0  0  0  0  0  0  0  0
   -0.2775   -1.6500    0.0000 C   0  0  0  0  0  0  0  0  0  0  0  0
    2.5803   -0.8250    0.0000 C   0  0  0  0  0  0  0  0  0  0  0  0
   -3.1354   -0.8250    0.0000 C   0  0  0  0  0  0  0  0  0  0  0  0
    0.4369   -2.0625    0.0000 C   0  0  0  0  0  0  0  0  0  0  0  0
   -1.7065    0.8250    0.0000 C   0  0  0  0  0  0  0  0  0  0  0  0
   -3.1354   -1.6500    0.0000 C   0  0  0  0  0  0  0  0  0  0  0  0
    3.2948   -0.4125    0.0000 C   0  0  0  0  0  0  0  0  0  0  0  0
    2.5803   -1.6500    0.0000 C   0  0  0  0  0  0  0  0  0  0  0  0
    3.2948    0.4125    0.0000 C   0  0  0  0  0  0  0  0  0  0  0  0
    4.0794   -0.6674    0.0000 C   0  0  0  0  0  0  0  0  0  0  0  0
   -2.4210    2.0625    0.0000 C   0  0  0  0  0  0  0  0  0  0  0  0
   -3.1354    0.8250    0.0000 C   0  0  0  0  0  0  0  0  0  0  0  0
   -3.1354    1.6500    0.0000 C   0  0  0  0  0  0  0  0  0  0  0  0
   -3.1354   -3.3000    0.0000 C   0  0  0  0  0  0  0  0  0  0  0  0
   -4.5644   -0.8250    0.0000 C   0  0  0  0  0  0  0  0  0  0  0  0
   -3.8499    0.4125    0.0000 C   0  0  0  0  0  0  0  0  0  0  0  0
    4.4919    1.3819    0.0000 C   0  0  0  0  0  0  0  0  0  0  0  0
   -3.1354    3.3000    0.0000 C   0  0  0  0  0  0  0  0  0  0  0  0
  1 16  1  0  0  0  0
  2 18  1  0  0  0  0
  2 34  1  0  0  0  0
  3 23  1  0  0  0  0
  3 35  1  0  0  0  0
  4 31  1  0  0  0  0
  4 38  1  0  0  0  0
  5 13  1  0  0  0  0
  5 14  1  0  0  0  0
  5 19  1  0  0  0  0
  6 14  1  0  0  0  0
  6 15  2  0  0  0  0
  7 15  1  0  0  0  0
  7 22  2  0  0  0  0
  8 17  1  0  0  0  0
  8 28  2  0  0  0  0
  9 25  2  0  0  0  0
  9 31  1  0  0  0  0
 10 25  1  0  0  0  0
 10 32  2  0  0  0  0
 11 12  1  0  0  0  0
 11 29  1  0  0  0  0
 11 37  1  0  0  0  0
 12 30  2  0  0  0  0
 13 16  1  0  0  0  0
 13 20  2  0  0  0  0
 14 21  2  0  0  0  0
 15 17  1  0  0  0  0
 16 18  2  0  0  0  0
 17 24  2  0  0  0  0
 18 26  1  0  0  0  0
 19 25  1  0  0  0  0
 20 23  1  0  0  0  0
 21 24  1  0  0  0  0
 22 27  1  0  0  0  0
 22 28  1  0  0  0  0
 23 26  2  0  0  0  0
 27 29  2  0  0  0  0
 27 30  1  0  0  0  0
 31 33  2  0  0  0  0
 32 33  1  0  0  0  0
 32 36  1  0  0  0  0
M  END
> <PUBCHEM_COMPOUND_ID_TYPE>
0

> <PUBCHEM_TOTAL_CHARGE>
0

> <PUBCHEM_SUBSTANCE_ID>
310947016

> <PUBCHEM_SUBSTANCE_VERSION>
1

> <PUBCHEM_EXT_DATASOURCE_NAME>
4488

> <PUBCHEM_EXT_DATASOURCE_REGID>
SCHEMBL16125168

> <PUBCHEM_SUBSTANCE_COMMENT>
InChI=1S/C26H25FN8O3/c1-15-8-24(38-5)32-22(30-15)14-35(20-9-17(36-3)10-21(37-4)25(20)27)23-7-6-18-26(33-23)31-19(12-28-18)16-11-29-34(2)13-16/h6-13H,14H2,1-5H3
InChIKey=KYLPXRGTXZAXMU-UHFFFAOYSA-N

> <PUBCHEM_SUBSTANCE_SYNONYM>
SCHEMBL16125168

> <PUBCHEM_XREF_EXT_ID>
SCHEMBL16125168

> <PUBCHEM_EXT_DATASOURCE_URL>
https://www.surechembl.org/

> <PUBCHEM_EXT_SUBSTANCE_URL>
https://www.surechembl.org/chemical/SCHEMBL16125168

> <PUBCHEM_CID_ASSOCIATIONS>
117612868  1

> <PUBCHEM_COORDINATE_TYPE>
1
3

$$$$
