310930174
  -OEChem-07211613022D

 42 41  0     0  0  0  0  0  0999 V2000
    1.4802    1.6204    0.0000 O   0  0  0  0  0  0  0  0  0  0  0  0
    0.0513    1.6204    0.0000 O   0  0  0  0  0  0  0  0  0  0  0  0
    0.7658    2.8579    0.0000 N   0  0  0  0  0  0  0  0  0  0  0  0
    2.9092   -0.8546    0.0000 N   0  0  0  0  0  0  0  0  0  0  0  0
    0.7658    2.0329    0.0000 C   0  0  0  0  0  0  0  0  0  0  0  0
    0.0513    3.2704    0.0000 C   0  0  0  0  0  0  0  0  0  0  0  0
    1.4802    3.2704    0.0000 C   0  0  0  0  0  0  0  0  0  0  0  0
   -0.6632    2.8579    0.0000 C   0  0  0  0  0  0  0  0  0  0  0  0
    2.1947    2.8579    0.0000 C   0  0  0  0  0  0  0  0  0  0  0  0
    1.4802    0.7954    0.0000 C   0  0  0  0  0  0  0  0  0  0  0  0
   -1.3776    3.2704    0.0000 C   0  0  0  0  0  0  0  0  0  0  0  0
    2.9092    3.2704    0.0000 C   0  0  0  0  0  0  0  0  0  0  0  0
    2.1947    0.3829    0.0000 C   0  0  0  0  0  0  0  0  0  0  0  0
    2.1947   -0.4421    0.0000 C   0  0  0  0  0  0  0  0  0  0  0  0
   -2.0921    2.8579    0.0000 C   0  0  0  0  0  0  0  0  0  0  0  0
    3.6237    2.8579    0.0000 C   0  0  0  0  0  0  0  0  0  0  0  0
   -2.8066    3.2704    0.0000 C   0  0  0  0  0  0  0  0  0  0  0  0
    4.3381    3.2704    0.0000 C   0  0  0  0  0  0  0  0  0  0  0  0
   -3.5211    2.8579    0.0000 C   0  0  0  0  0  0  0  0  0  0  0  0
    5.0526    2.8579    0.0000 C   0  0  0  0  0  0  0  0  0  0  0  0
    2.9092   -1.6796    0.0000 C   0  0  0  0  0  0  0  0  0  0  0  0
    3.6237   -0.4421    0.0000 C   0  0  0  0  0  0  0  0  0  0  0  0
   -4.2355    3.2704    0.0000 C   0  0  0  0  0  0  0  0  0  0  0  0
    5.7671    3.2704    0.0000 C   0  0  0  0  0  0  0  0  0  0  0  0
   -4.9500    2.8579    0.0000 C   0  0  0  0  0  0  0  0  0  0  0  0
    6.4815    2.8579    0.0000 C   0  0  0  0  0  0  0  0  0  0  0  0
   -4.9500    2.0329    0.0000 C   0  0  0  0  0  0  0  0  0  0  0  0
    7.1960    3.2704    0.0000 C   0  0  0  0  0  0  0  0  0  0  0  0
   -5.6645    1.6204    0.0000 C   0  0  0  0  0  0  0  0  0  0  0  0
    7.9105    2.8579    0.0000 C   0  0  0  0  0  0  0  0  0  0  0  0
   -5.6645    0.7954    0.0000 C   0  0  0  0  0  0  0  0  0  0  0  0
    8.6249    3.2704    0.0000 C   0  0  0  0  0  0  0  0  0  0  0  0
   -6.3789    0.3829    0.0000 C   0  0  0  0  0  0  0  0  0  0  0  0
    8.6249    4.0954    0.0000 C   0  0  0  0  0  0  0  0  0  0  0  0
   -6.3789   -0.4421    0.0000 C   0  0  0  0  0  0  0  0  0  0  0  0
    9.3394    4.5079    0.0000 C   0  0  0  0  0  0  0  0  0  0  0  0
   -7.0934   -0.8546    0.0000 C   0  0  0  0  0  0  0  0  0  0  0  0
    9.3394    5.3329    0.0000 C   0  0  0  0  0  0  0  0  0  0  0  0
   -7.0934   -1.6796    0.0000 C   0  0  0  0  0  0  0  0  0  0  0  0
   10.0539    5.7454    0.0000 C   0  0  0  0  0  0  0  0  0  0  0  0
   -7.8079   -2.0921    0.0000 C   0  0  0  0  0  0  0  0  0  0  0  0
   10.0539    6.5704    0.0000 C   0  0  0  0  0  0  0  0  0  0  0  0
  1  5  1  0  0  0  0
  1 10  1  0  0  0  0
  2  5  2  0  0  0  0
  3  5  1  0  0  0  0
  3  6  1  0  0  0  0
  3  7  1  0  0  0  0
  4 14  1  0  0  0  0
  4 21  1  0  0  0  0
  4 22  1  0  0  0  0
  6  8  1  0  0  0  0
  7  9  1  0  0  0  0
  8 11  1  0  0  0  0
  9 12  1  0  0  0  0
 10 13  1  0  0  0  0
 11 15  1  0  0  0  0
 12 16  1  0  0  0  0
 13 14  1  0  0  0  0
 15 17  1  0  0  0  0
 16 18  1  0  0  0  0
 17 19  1  0  0  0  0
 18 20  1  0  0  0  0
 19 23  1  0  0  0  0
 20 24  1  0  0  0  0
 23 25  1  0  0  0  0
 24 26  1  0  0  0  0
 25 27  1  0  0  0  0
 26 28  1  0  0  0  0
 27 29  2  0  0  0  0
 28 30  2  0  0  0  0
 29 31  1  0  0  0  0
 30 32  1  0  0  0  0
 31 33  1  0  0  0  0
 32 34  1  0  0  0  0
 33 35  1  0  0  0  0
 34 36  1  0  0  0  0
 35 37  1  0  0  0  0
 36 38  1  0  0  0  0
 37 39  1  0  0  0  0
 38 40  1  0  0  0  0
 39 41  1  0  0  0  0
 40 42  1  0  0  0  0
M  END
> <PUBCHEM_COMPOUND_ID_TYPE>
0

> <PUBCHEM_TOTAL_CHARGE>
0

> <PUBCHEM_SUBSTANCE_ID>
310930174

> <PUBCHEM_SUBSTANCE_VERSION>
1

> <PUBCHEM_EXT_DATASOURCE_NAME>
4488

> <PUBCHEM_EXT_DATASOURCE_REGID>
SCHEMBL16107434

> <PUBCHEM_SUBSTANCE_COMMENT>
InChI=1S/C38H74N2O2/c1-5-7-9-11-13-15-17-19-21-23-25-27-29-31-35-40(38(41)42-37-33-34-39(3)4)36-32-30-28-26-24-22-20-18-16-14-12-10-8-6-2/h15-18H,5-14,19-37H2,1-4H3
InChIKey=QCJMXZBTGQIONB-UHFFFAOYSA-N

> <PUBCHEM_SUBSTANCE_SYNONYM>
SCHEMBL16107434

> <PUBCHEM_XREF_EXT_ID>
SCHEMBL16107434

> <PUBCHEM_EXT_DATASOURCE_URL>
https://www.surechembl.org/

> <PUBCHEM_EXT_SUBSTANCE_URL>
https://www.surechembl.org/chemical/SCHEMBL16107434

> <PUBCHEM_CID_ASSOCIATIONS>
117599391  1

> <PUBCHEM_COORDINATE_TYPE>
1
3

> <PUBCHEM_BONDANNOTATIONS>
27  25  3
28  26  3

$$$$
