310938385
  -OEChem-07211613022D

 18 19  0     0  0  0  0  0  0999 V2000
    2.9077   -3.5705    0.0000 O   0  0  0  0  0  0  0  0  0  0  0  0
    2.5015   -1.4325    0.0000 O   0  0  0  0  0  0  0  0  0  0  0  0
    0.4276   -3.5705    0.0000 N   0  3  0  0  0  0  0  0  0  0  0  0
    1.6677   -2.8436    0.0000 C   0  0  0  0  0  0  0  0  0  0  0  0
    2.5015   -2.8436    0.0000 C   0  0  0  0  0  0  0  0  0  0  0  0
    2.9077   -2.1380    0.0000 C   0  0  0  0  0  0  0  0  0  0  0  0
    1.2400   -3.5705    0.0000 C   0  0  0  0  0  0  0  0  0  0  0  0
    1.2400   -2.1380    0.0000 C   0  0  0  0  0  0  0  0  0  0  0  0
    3.7415   -2.1380    0.0000 C   0  0  0  0  0  0  0  0  0  0  0  0
    4.1478   -1.4325    0.0000 C   0  0  0  0  0  0  0  0  0  0  0  0
    0.4276   -2.1380    0.0000 C   0  0  0  0  0  0  0  0  0  0  0  0
    0.0000   -2.8436    0.0000 C   0  0  0  0  0  0  0  0  0  0  0  0
    3.7415   -0.7055    0.0000 C   0  0  0  0  0  0  0  0  0  0  0  0
    4.9602   -1.4325    0.0000 C   0  0  0  0  0  0  0  0  0  0  0  0
    0.0214   -4.2760    0.0000 C   0  0  0  0  0  0  0  0  0  0  0  0
    4.1478    0.0000    0.0000 C   0  0  0  0  0  0  0  0  0  0  0  0
    5.3878   -0.7269    0.0000 C   0  0  0  0  0  0  0  0  0  0  0  0
    4.9816    0.0000    0.0000 C   0  0  0  0  0  0  0  0  0  0  0  0
  1  5  2  0  0  0  0
  2  6  2  0  0  0  0
  3  7  1  0  0  0  0
  3 12  2  0  0  0  0
  3 15  1  0  0  0  0
  4  5  1  0  0  0  0
  4  7  2  0  0  0  0
  4  8  1  0  0  0  0
  5  6  1  0  0  0  0
  6  9  1  0  0  0  0
  8 11  2  0  0  0  0
  9 10  1  0  0  0  0
 10 13  2  0  0  0  0
 10 14  1  0  0  0  0
 11 12  1  0  0  0  0
 13 16  1  0  0  0  0
 14 17  2  0  0  0  0
 16 18  2  0  0  0  0
 17 18  1  0  0  0  0
M  CHG  1   3   1
M  END
> <PUBCHEM_COMPOUND_ID_TYPE>
0

> <PUBCHEM_TOTAL_CHARGE>
1

> <PUBCHEM_SUBSTANCE_ID>
310938385

> <PUBCHEM_SUBSTANCE_VERSION>
1

> <PUBCHEM_EXT_DATASOURCE_NAME>
4488

> <PUBCHEM_EXT_DATASOURCE_REGID>
SCHEMBL16116272

> <PUBCHEM_SUBSTANCE_COMMENT>
InChI=1S/C15H14NO2/c1-16-9-5-8-13(11-16)15(18)14(17)10-12-6-3-2-4-7-12/h2-9,11H,10H2,1H3/q+1
InChIKey=KZTLSZJXHSXARR-UHFFFAOYSA-N

> <PUBCHEM_SUBSTANCE_SYNONYM>
SCHEMBL16116272

> <PUBCHEM_XREF_EXT_ID>
SCHEMBL16116272

> <PUBCHEM_EXT_DATASOURCE_URL>
https://www.surechembl.org/

> <PUBCHEM_EXT_SUBSTANCE_URL>
https://www.surechembl.org/chemical/SCHEMBL16116272

> <PUBCHEM_CID_ASSOCIATIONS>
117605864  1

> <PUBCHEM_COORDINATE_TYPE>
1
3

$$$$
