310949519
  -OEChem-07211613022D

 25 26  0     0  0  0  0  0  0999 V2000
    2.8051    0.3921    0.0000 O   0  0  0  0  0  0  0  0  0  0  0  0
    1.4026    0.3921    0.0000 O   0  0  0  0  0  0  0  0  0  0  0  0
   -3.5291    1.6439    0.0000 O   0  0  0  0  0  0  0  0  0  0  0  0
   -0.0151   -2.1115    0.0000 O   0  0  0  0  0  0  0  0  0  0  0  0
   -2.1265    1.6439    0.0000 O   0  0  0  0  0  0  0  0  0  0  0  0
    0.6938   -0.8597    0.0000 N   0  0  0  0  0  0  0  0  0  0  0  0
   -0.7089   -0.8597    0.0000 N   0  0  0  0  0  0  0  0  0  0  0  0
    2.0963   -0.8597    0.0000 C   0  0  0  0  0  0  0  0  0  0  0  0
    1.4026   -1.2819    0.0000 C   0  0  0  0  0  0  0  0  0  0  0  0
    2.1115   -0.0301    0.0000 C   0  0  0  0  0  0  0  0  0  0  0  0
   -2.8352    0.3921    0.0000 C   0  0  0  0  0  0  0  0  0  0  0  0
   -2.1265   -0.8446    0.0000 C   0  0  0  0  0  0  0  0  0  0  0  0
    2.8051   -1.2819    0.0000 C   0  0  0  0  0  0  0  0  0  0  0  0
    1.4026   -2.1115    0.0000 C   0  0  0  0  0  0  0  0  0  0  0  0
   -0.0151   -1.2518    0.0000 C   0  0  0  0  0  0  0  0  0  0  0  0
   -2.1265   -0.0301    0.0000 C   0  0  0  0  0  0  0  0  0  0  0  0
   -2.8504    1.2216    0.0000 C   0  0  0  0  0  0  0  0  0  0  0  0
   -1.4176   -1.2668    0.0000 C   0  0  0  0  0  0  0  0  0  0  0  0
    2.8051   -2.1115    0.0000 C   0  0  0  0  0  0  0  0  0  0  0  0
    2.0813   -2.5035    0.0000 C   0  0  0  0  0  0  0  0  0  0  0  0
   -3.5291   -0.0301    0.0000 C   0  0  0  0  0  0  0  0  0  0  0  0
   -2.8352   -1.2668    0.0000 C   0  0  0  0  0  0  0  0  0  0  0  0
   -3.5291   -0.8597    0.0000 C   0  0  0  0  0  0  0  0  0  0  0  0
    3.5291   -0.0301    0.0000 C   0  0  0  0  0  0  0  0  0  0  0  0
   -3.5291    2.5035    0.0000 C   0  0  0  0  0  0  0  0  0  0  0  0
  1 10  1  0  0  0  0
  1 24  1  0  0  0  0
  2 10  2  0  0  0  0
  3 17  1  0  0  0  0
  3 25  1  0  0  0  0
  4 15  2  0  0  0  0
  5 17  2  0  0  0  0
  6  9  1  0  0  0  0
  6 15  1  0  0  0  0
  7 15  1  0  0  0  0
  7 18  1  0  0  0  0
  8  9  2  0  0  0  0
  8 10  1  0  0  0  0
  8 13  1  0  0  0  0
  9 14  1  0  0  0  0
 11 16  2  0  0  0  0
 11 17  1  0  0  0  0
 11 21  1  0  0  0  0
 12 16  1  0  0  0  0
 12 18  1  0  0  0  0
 12 22  2  0  0  0  0
 13 19  2  0  0  0  0
 14 20  2  0  0  0  0
 19 20  1  0  0  0  0
 21 23  2  0  0  0  0
 22 23  1  0  0  0  0
M  END
> <PUBCHEM_COMPOUND_ID_TYPE>
0

> <PUBCHEM_TOTAL_CHARGE>
0

> <PUBCHEM_SUBSTANCE_ID>
310949519

> <PUBCHEM_SUBSTANCE_VERSION>
1

> <PUBCHEM_EXT_DATASOURCE_NAME>
4488

> <PUBCHEM_EXT_DATASOURCE_REGID>
SCHEMBL16127714

> <PUBCHEM_SUBSTANCE_COMMENT>
InChI=1S/C18H18N2O5/c1-24-16(21)13-7-5-6-12(10-13)11-19-18(23)20-15-9-4-3-8-14(15)17(22)25-2/h3-10H,11H2,1-2H3,(H2,19,20,23)
InChIKey=PZHOJUMVNIDVSJ-UHFFFAOYSA-N

> <PUBCHEM_SUBSTANCE_SYNONYM>
SCHEMBL16127714

> <PUBCHEM_XREF_EXT_ID>
SCHEMBL16127714

> <PUBCHEM_EXT_DATASOURCE_URL>
https://www.surechembl.org/

> <PUBCHEM_EXT_SUBSTANCE_URL>
https://www.surechembl.org/chemical/SCHEMBL16127714

> <PUBCHEM_CID_ASSOCIATIONS>
117614954  1

> <PUBCHEM_COORDINATE_TYPE>
1
3

$$$$
