310940774
  -OEChem-07211613022D

 42 47  0     1  0  0  0  0  0999 V2000
    5.3841    3.3734    0.0000 F   0  0  0  0  0  0  0  0  0  0  0  0
    5.3841    2.5484    0.0000 F   0  0  0  0  0  0  0  0  0  0  0  0
   -1.7750   -0.5744    0.0000 O   0  0  0  0  0  0  0  0  0  0  0  0
    1.6719   -2.8430    0.0000 O   0  0  0  0  0  0  0  0  0  0  0  0
    2.9240   -3.5648    0.0000 O   0  0  0  0  0  0  0  0  0  0  0  0
    1.1858   -0.7218    0.0000 N   0  0  0  0  0  0  0  0  0  0  0  0
    1.1858   -2.0624    0.0000 N   0  0  0  0  0  0  0  0  0  0  0  0
    3.5869    2.0035    0.0000 N   0  0  3  0  0  0  0  0  0  0  0  0
   -3.9405   -0.9723    0.0000 N   0  0  0  0  0  0  0  0  0  0  0  0
    1.6572   -1.3847    0.0000 C   0  0  0  0  0  0  0  0  0  0  0  0
    0.3903   -0.9723    0.0000 C   0  0  0  0  0  0  0  0  0  0  0  0
    0.3903   -1.7972    0.0000 C   0  0  0  0  0  0  0  0  0  0  0  0
    2.5263   -1.3847    0.0000 C   0  0  3  0  0  0  0  0  0  0  0  0
    1.4510    0.0589    0.0000 C   0  0  0  0  0  0  0  0  0  0  0  0
   -0.3314   -0.5744    0.0000 C   0  0  0  0  0  0  0  0  0  0  0  0
    2.9387   -2.0918    0.0000 C   0  0  3  0  0  0  0  0  0  0  0  0
   -0.3314   -2.2244    0.0000 C   0  0  0  0  0  0  0  0  0  0  0  0
   -1.0532   -0.9723    0.0000 C   0  0  0  0  0  0  0  0  0  0  0  0
    2.2465    0.2504    0.0000 C   0  0  0  0  0  0  0  0  0  0  0  0
    2.9240   -0.6777    0.0000 C   0  0  0  0  0  0  0  0  0  0  0  0
   -1.0532   -1.8119    0.0000 C   0  0  0  0  0  0  0  0  0  0  0  0
    2.5116   -2.8430    0.0000 C   0  0  0  0  0  0  0  0  0  0  0  0
    3.7489   -2.1065    0.0000 C   0  0  0  0  0  0  0  0  0  0  0  0
    2.5116    1.0312    0.0000 C   0  0  0  0  0  0  0  0  0  0  0  0
    3.3218    1.2079    0.0000 C   0  0  0  0  0  0  0  0  0  0  0  0
    2.8062   -0.3682    0.0000 C   0  0  0  0  0  0  0  0  0  0  0  0
    3.7489   -0.6777    0.0000 C   0  0  0  0  0  0  0  0  0  0  0  0
    4.1614   -1.3847    0.0000 C   0  0  0  0  0  0  0  0  0  0  0  0
    3.8815    0.5892    0.0000 C   0  0  0  0  0  0  0  0  0  0  0  0
    4.6771    2.9609    0.0000 C   0  0  0  0  0  0  0  0  0  0  0  0
    4.3971    2.1654    0.0000 C   0  0  0  0  0  0  0  0  0  0  0  0
    3.6164   -0.1914    0.0000 C   0  0  0  0  0  0  0  0  0  0  0  0
    3.0272    2.6220    0.0000 C   0  0  0  0  0  0  0  0  0  0  0  0
   -2.4822   -0.9723    0.0000 C   0  0  0  0  0  0  0  0  0  0  0  0
    4.1172    3.5648    0.0000 C   0  0  0  0  0  0  0  0  0  0  0  0
    3.2924    3.4028    0.0000 C   0  0  0  0  0  0  0  0  0  0  0  0
   -3.2187   -0.5597    0.0000 C   0  0  0  0  0  0  0  0  0  0  0  0
   -3.2040    0.2651    0.0000 C   0  0  0  0  0  0  0  0  0  0  0  0
   -4.6476   -0.5597    0.0000 C   0  0  0  0  0  0  0  0  0  0  0  0
   -3.9405    0.6777    0.0000 C   0  0  0  0  0  0  0  0  0  0  0  0
   -4.6476    0.2651    0.0000 C   0  0  0  0  0  0  0  0  0  0  0  0
   -5.3841    0.6629    0.0000 C   0  0  0  0  0  0  0  0  0  0  0  0
  1 30  1  0  0  0  0
  2 30  1  0  0  0  0
  3 18  1  0  0  0  0
  3 34  1  0  0  0  0
  4 22  2  0  0  0  0
  5 22  1  0  0  0  0
  6 10  1  0  0  0  0
  6 11  1  0  0  0  0
  6 14  1  0  0  0  0
  7 10  2  0  0  0  0
  7 12  1  0  0  0  0
  8 25  1  0  0  0  0
  8 31  1  0  0  0  0
  8 33  1  0  0  0  0
  9 37  1  0  0  0  0
  9 39  2  0  0  0  0
 13 10  1  1  0  0  0
 11 12  1  0  0  0  0
 11 15  2  0  0  0  0
 12 17  2  0  0  0  0
 13 16  1  0  0  0  0
 13 20  1  0  0  0  0
 14 19  1  0  0  0  0
 15 18  1  0  0  0  0
 16 22  1  1  0  0  0
 16 23  1  0  0  0  0
 17 21  1  0  0  0  0
 18 21  2  0  0  0  0
 19 24  1  0  0  0  0
 19 26  2  0  0  0  0
 20 27  1  0  0  0  0
 23 28  1  0  0  0  0
 24 25  2  0  0  0  0
 25 29  1  0  0  0  0
 26 32  1  0  0  0  0
 27 28  1  0  0  0  0
 29 32  2  0  0  0  0
 30 31  1  0  0  0  0
 30 35  1  0  0  0  0
 33 36  1  0  0  0  0
 34 37  1  0  0  0  0
 35 36  1  0  0  0  0
 37 38  2  0  0  0  0
 38 40  1  0  0  0  0
 39 41  1  0  0  0  0
 40 41  2  0  0  0  0
 41 42  1  0  0  0  0
M  END
> <PUBCHEM_COMPOUND_ID_TYPE>
0

> <PUBCHEM_TOTAL_CHARGE>
0

> <PUBCHEM_SUBSTANCE_ID>
310940774

> <PUBCHEM_SUBSTANCE_VERSION>
1

> <PUBCHEM_EXT_DATASOURCE_NAME>
4488

> <PUBCHEM_EXT_DATASOURCE_REGID>
SCHEMBL16118733

> <PUBCHEM_SUBSTANCE_COMMENT>
InChI=1S/C33H36F2N4O3/c1-22-10-11-24(36-18-22)20-42-26-12-13-29-30(17-26)39(31(37-29)27-8-2-3-9-28(27)32(40)41)19-23-6-4-7-25(16-23)38-15-5-14-33(34,35)21-38/h4,6-7,10-13,16-18,27-28H,2-3,5,8-9,14-15,19-21H2,1H3,(H,40,41)/t27-,28+/m0/s1
InChIKey=WAXPVHJEWBFUHX-WUFINQPMSA-N

> <PUBCHEM_SUBSTANCE_SYNONYM>
SCHEMBL16118733

> <PUBCHEM_XREF_EXT_ID>
SCHEMBL16118733

> <PUBCHEM_EXT_DATASOURCE_URL>
https://www.surechembl.org/

> <PUBCHEM_EXT_SUBSTANCE_URL>
https://www.surechembl.org/chemical/SCHEMBL16118733

> <PUBCHEM_CID_ASSOCIATIONS>
117607726  1

> <PUBCHEM_COORDINATE_TYPE>
1
3

> <PUBCHEM_BONDANNOTATIONS>
13  10  5
16  22  5

$$$$
