310938768
  -OEChem-07211613022D

 35 38  0     1  0  0  0  0  0999 V2000
   -2.8785    1.3162    0.0000 O   0  0  0  0  0  0  0  0  0  0  0  0
   -8.1635   -2.2106    0.0000 O   0  0  0  0  0  0  0  0  0  0  0  0
   -3.8767    0.2644    0.0000 C   0  0  3  0  0  0  0  0  0  0  0  0
   -3.8767   -0.5606    0.0000 C   0  0  3  0  0  0  0  0  0  0  0  0
   -5.3056   -0.5606    0.0000 C   0  0  3  0  0  0  0  0  0  0  0  0
   -6.0201   -0.9731    0.0000 C   0  0  3  0  0  0  0  0  0  0  0  0
   -4.5911   -0.9731    0.0000 C   0  0  3  0  0  0  0  0  0  0  0  0
   -3.0920    0.5193    0.0000 C   0  0  3  0  0  0  0  0  0  0  0  0
   -6.0201   -1.7981    0.0000 C   0  0  0  0  0  0  0  0  0  0  0  0
   -4.5911    0.6769    0.0000 C   0  0  0  0  0  0  0  0  0  0  0  0
   -5.3056    0.2644    0.0000 C   0  0  0  0  0  0  0  0  0  0  0  0
   -3.0920   -0.8156    0.0000 C   0  0  0  0  0  0  0  0  0  0  0  0
   -4.5911   -1.7981    0.0000 C   0  0  0  0  0  0  0  0  0  0  0  0
   -6.7346   -0.5606    0.0000 C   0  0  0  0  0  0  0  0  0  0  0  0
   -2.6071   -0.1481    0.0000 C   0  0  0  0  0  0  0  0  0  0  0  0
   -5.3056   -2.2106    0.0000 C   0  0  0  0  0  0  0  0  0  0  0  0
   -3.8767    1.0894    0.0000 C   0  0  0  0  0  0  0  0  0  0  0  0
   -6.7346   -2.2106    0.0000 C   0  0  0  0  0  0  0  0  0  0  0  0
   -6.0201   -0.1481    0.0000 C   0  0  0  0  0  0  0  0  0  0  0  0
   -7.4490   -1.7981    0.0000 C   0  0  0  0  0  0  0  0  0  0  0  0
   -7.4490   -0.9731    0.0000 C   0  0  0  0  0  0  0  0  0  0  0  0
   -2.0816    1.5297    0.0000 C   0  0  0  0  0  0  0  0  0  0  0  0
   -1.4983    0.9464    0.0000 C   0  0  0  0  0  0  0  0  0  0  0  0
   -0.7014    1.1599    0.0000 C   0  0  0  0  0  0  0  0  0  0  0  0
   -0.1180    0.5765    0.0000 C   0  0  0  0  0  0  0  0  0  0  0  0
    0.6789    0.7901    0.0000 C   0  0  0  0  0  0  0  0  0  0  0  0
    1.2622    0.2067    0.0000 C   0  0  0  0  0  0  0  0  0  0  0  0
    2.0591    0.4202    0.0000 C   0  0  0  0  0  0  0  0  0  0  0  0
    2.6425   -0.1631    0.0000 C   0  0  0  0  0  0  0  0  0  0  0  0
    3.4394    0.0504    0.0000 C   0  0  0  0  0  0  0  0  0  0  0  0
    4.0227   -0.5330    0.0000 C   0  0  0  0  0  0  0  0  0  0  0  0
    4.8196   -0.3194    0.0000 C   0  0  0  0  0  0  0  0  0  0  0  0
    5.4030   -0.9028    0.0000 C   0  0  0  0  0  0  0  0  0  0  0  0
    6.1999   -0.6893    0.0000 C   0  0  0  0  0  0  0  0  0  0  0  0
    6.7832   -1.2726    0.0000 C   0  0  0  0  0  0  0  0  0  0  0  0
  8  1  1  1  0  0  0
  1 22  1  0  0  0  0
  2 20  2  0  0  0  0
  3  4  1  0  0  0  0
  3  8  1  0  0  0  0
  3 10  1  0  0  0  0
  3 17  1  1  0  0  0
  4  7  1  0  0  0  0
  4 12  1  1  0  0  0
  5  6  1  0  0  0  0
  5  7  1  0  0  0  0
  5 11  1  1  0  0  0
  6  9  1  0  0  0  0
  6 14  1  0  0  0  0
  6 19  1  1  0  0  0
  7 13  1  6  0  0  0
  8 15  1  0  0  0  0
  9 16  1  0  0  0  0
  9 18  2  0  0  0  0
 10 11  1  0  0  0  0
 12 15  1  0  0  0  0
 13 16  1  0  0  0  0
 14 21  1  0  0  0  0
 18 20  1  0  0  0  0
 20 21  1  0  0  0  0
 22 23  1  0  0  0  0
 23 24  1  0  0  0  0
 24 25  1  0  0  0  0
 25 26  1  0  0  0  0
 26 27  1  0  0  0  0
 27 28  1  0  0  0  0
 28 29  1  0  0  0  0
 29 30  1  0  0  0  0
 30 31  1  0  0  0  0
 31 32  1  0  0  0  0
 32 33  1  0  0  0  0
 33 34  1  0  0  0  0
 34 35  1  0  0  0  0
M  END
> <PUBCHEM_COMPOUND_ID_TYPE>
0

> <PUBCHEM_TOTAL_CHARGE>
0

> <PUBCHEM_SUBSTANCE_ID>
310938768

> <PUBCHEM_SUBSTANCE_VERSION>
1

> <PUBCHEM_EXT_DATASOURCE_NAME>
4488

> <PUBCHEM_EXT_DATASOURCE_REGID>
SCHEMBL16116684

> <PUBCHEM_SUBSTANCE_COMMENT>
InChI=1S/C33H56O2/c1-4-5-6-7-8-9-10-11-12-13-14-15-24-35-31-19-18-29-28-17-16-26-25-27(34)20-22-32(26,2)30(28)21-23-33(29,31)3/h25,28-31H,4-24H2,1-3H3/t28-,29-,30-,31-,32-,33-/m0/s1
InChIKey=ZRHIOMKSTKMDKK-FSJACQRISA-N

> <PUBCHEM_SUBSTANCE_SYNONYM>
SCHEMBL16116684

> <PUBCHEM_XREF_EXT_ID>
SCHEMBL16116684

> <PUBCHEM_EXT_DATASOURCE_URL>
https://www.surechembl.org/

> <PUBCHEM_EXT_SUBSTANCE_URL>
https://www.surechembl.org/chemical/SCHEMBL16116684

> <PUBCHEM_CID_ASSOCIATIONS>
117606181  1

> <PUBCHEM_COORDINATE_TYPE>
1
3

> <PUBCHEM_BONDANNOTATIONS>
8  1  5
3  17  5
4  12  5
5  11  5
6  19  5
7  13  6

$$$$
