310934300
  -OEChem-07211613022D

 25 26  0     1  0  0  0  0  0999 V2000
   -2.7347   -0.7460    0.0000 S   0  0  0  0  0  0  0  0  0  0  0  0
   -4.1636   -1.5710    0.0000 F   0  0  0  0  0  0  0  0  0  0  0  0
   -3.4492   -1.9835    0.0000 F   0  0  0  0  0  0  0  0  0  0  0  0
   -4.1636   -0.7460    0.0000 F   0  0  0  0  0  0  0  0  0  0  0  0
    0.8633    1.9276    0.0000 F   0  0  0  0  0  0  0  0  0  0  0  0
   -2.0202   -0.3335    0.0000 O   0  0  0  0  0  0  0  0  0  0  0  0
    1.4290   -1.0235    0.0000 O   0  0  0  0  0  0  0  0  0  0  0  0
   -3.1472   -0.0315    0.0000 O   0  0  0  0  0  0  0  0  0  0  0  0
   -2.3222   -1.4604    0.0000 O   0  0  0  0  0  0  0  0  0  0  0  0
    0.7145   -2.2610    0.0000 O   0  0  0  0  0  0  0  0  0  0  0  0
    0.0000   -1.0235    0.0000 C   0  0  3  0  0  0  0  0  0  0  0  0
    0.7450   -0.2520    0.0000 C   0  0  0  0  0  0  0  0  0  0  0  0
   -1.3057   -0.7460    0.0000 C   0  0  0  0  0  0  0  0  0  0  0  0
   -0.5520   -0.4104    0.0000 C   0  0  0  0  0  0  0  0  0  0  0  0
    0.7145   -1.4360    0.0000 C   0  0  0  0  0  0  0  0  0  0  0  0
   -0.4125   -1.7380    0.0000 C   0  0  0  0  0  0  0  0  0  0  0  0
   -3.4492   -1.1585    0.0000 C   0  0  0  0  0  0  0  0  0  0  0  0
    0.5176    0.5410    0.0000 C   0  0  0  0  0  0  0  0  0  0  0  0
   -1.2195   -1.5665    0.0000 C   0  0  0  0  0  0  0  0  0  0  0  0
    1.5455   -0.4516    0.0000 C   0  0  0  0  0  0  0  0  0  0  0  0
    1.0907    1.1345    0.0000 C   0  0  0  0  0  0  0  0  0  0  0  0
    2.1186    0.1418    0.0000 C   0  0  0  0  0  0  0  0  0  0  0  0
    1.8912    0.9349    0.0000 C   0  0  0  0  0  0  0  0  0  0  0  0
   -0.2829    0.7406    0.0000 C   0  0  0  0  0  0  0  0  0  0  0  0
    2.1434   -1.4360    0.0000 C   0  0  0  0  0  0  0  0  0  0  0  0
  1  6  1  0  0  0  0
  1  8  2  0  0  0  0
  1  9  2  0  0  0  0
  1 17  1  0  0  0  0
  2 17  1  0  0  0  0
  3 17  1  0  0  0  0
  4 17  1  0  0  0  0
  5 21  1  0  0  0  0
  6 13  1  0  0  0  0
  7 15  1  0  0  0  0
  7 25  1  0  0  0  0
 10 15  2  0  0  0  0
 11 12  1  0  0  0  0
 11 14  1  0  0  0  0
 11 15  1  1  0  0  0
 11 16  1  0  0  0  0
 12 18  1  0  0  0  0
 12 20  2  0  0  0  0
 13 14  2  0  0  0  0
 13 19  1  0  0  0  0
 16 19  1  0  0  0  0
 18 21  2  0  0  0  0
 18 24  1  0  0  0  0
 20 22  1  0  0  0  0
 21 23  1  0  0  0  0
 22 23  2  0  0  0  0
M  END
> <PUBCHEM_COMPOUND_ID_TYPE>
0

> <PUBCHEM_TOTAL_CHARGE>
0

> <PUBCHEM_SUBSTANCE_ID>
310934300

> <PUBCHEM_SUBSTANCE_VERSION>
1

> <PUBCHEM_EXT_DATASOURCE_NAME>
4488

> <PUBCHEM_EXT_DATASOURCE_REGID>
SCHEMBL16111758

> <PUBCHEM_SUBSTANCE_COMMENT>
InChI=1S/C15H14F4O5S/c1-9-11(4-3-5-12(9)16)14(13(20)23-2)7-6-10(8-14)24-25(21,22)15(17,18)19/h3-5,8H,6-7H2,1-2H3/t14-/m0/s1
InChIKey=RSWDQEIMBALUTJ-AWEZNQCLSA-N

> <PUBCHEM_SUBSTANCE_SYNONYM>
SCHEMBL16111758

> <PUBCHEM_XREF_EXT_ID>
SCHEMBL16111758

> <PUBCHEM_EXT_DATASOURCE_URL>
https://www.surechembl.org/

> <PUBCHEM_EXT_SUBSTANCE_URL>
https://www.surechembl.org/chemical/SCHEMBL16111758

> <PUBCHEM_CID_ASSOCIATIONS>
117602543  1

> <PUBCHEM_COORDINATE_TYPE>
1
3

> <PUBCHEM_BONDANNOTATIONS>
11  15  5

$$$$
