310933010
  -OEChem-07211613022D

 23 25  0     0  0  0  0  0  0999 V2000
    0.7966   -5.3312    0.0000 S   0  0  0  0  0  0  0  0  0  0  0  0
    0.0000   -5.1474    0.0000 F   0  0  0  0  0  0  0  0  0  0  0  0
    1.0417   -6.1278    0.0000 F   0  0  0  0  0  0  0  0  0  0  0  0
    0.5821   -4.5346    0.0000 F   0  0  0  0  0  0  0  0  0  0  0  0
    1.6239   -5.5457    0.0000 F   0  0  0  0  0  0  0  0  0  0  0  0
    0.2451   -5.9440    0.0000 F   0  0  0  0  0  0  0  0  0  0  0  0
    5.3312   -1.4400    0.0000 O   0  0  0  0  0  0  0  0  0  0  0  0
    2.9107   -2.1141    0.0000 N   0  0  0  0  0  0  0  0  0  0  0  0
    4.2588   -2.2979    0.0000 N   0  0  0  0  0  0  0  0  0  0  0  0
    3.9525    0.0000    0.0000 N   0  0  0  0  0  0  0  0  0  0  0  0
    1.3788   -4.7184    0.0000 C   0  0  0  0  0  0  0  0  0  0  0  0
    2.1754   -4.9329    0.0000 C   0  0  0  0  0  0  0  0  0  0  0  0
    1.1643   -3.9525    0.0000 C   0  0  0  0  0  0  0  0  0  0  0  0
    2.5124   -3.5235    0.0000 C   0  0  0  0  0  0  0  0  0  0  0  0
    2.7575   -4.3201    0.0000 C   0  0  0  0  0  0  0  0  0  0  0  0
    1.7158   -3.3397    0.0000 C   0  0  0  0  0  0  0  0  0  0  0  0
    3.0945   -2.9107    0.0000 C   0  0  0  0  0  0  0  0  0  0  0  0
    4.5346   -0.5821    0.0000 C   0  0  0  0  0  0  0  0  0  0  0  0
    3.6460   -1.7158    0.0000 C   0  0  0  0  0  0  0  0  0  0  0  0
    3.7686   -0.8885    0.0000 C   0  0  0  0  0  0  0  0  0  0  0  0
    3.8912   -3.0332    0.0000 C   0  0  0  0  0  0  0  0  0  0  0  0
    4.5346   -1.4400    0.0000 C   0  0  0  0  0  0  0  0  0  0  0  0
    5.3618   -0.5821    0.0000 C   0  0  0  0  0  0  0  0  0  0  0  0
  1  2  1  0  0  0  0
  1  3  1  0  0  0  0
  1  4  1  0  0  0  0
  1  5  1  0  0  0  0
  1  6  1  0  0  0  0
  1 11  1  0  0  0  0
  7 22  1  0  0  0  0
  7 23  1  0  0  0  0
  8 17  1  0  0  0  0
  8 19  2  0  0  0  0
  9 19  1  0  0  0  0
  9 21  1  0  0  0  0
 10 18  1  0  0  0  0
 11 12  2  0  0  0  0
 11 13  1  0  0  0  0
 12 15  1  0  0  0  0
 13 16  2  0  0  0  0
 14 15  2  0  0  0  0
 14 16  1  0  0  0  0
 14 17  1  0  0  0  0
 17 21  2  0  0  0  0
 18 20  1  0  0  0  0
 18 22  1  0  0  0  0
 18 23  1  0  0  0  0
 19 20  1  0  0  0  0
M  END
> <PUBCHEM_COMPOUND_ID_TYPE>
0

> <PUBCHEM_TOTAL_CHARGE>
0

> <PUBCHEM_SUBSTANCE_ID>
310933010

> <PUBCHEM_SUBSTANCE_VERSION>
1

> <PUBCHEM_EXT_DATASOURCE_NAME>
4488

> <PUBCHEM_EXT_DATASOURCE_REGID>
SCHEMBL16110410

> <PUBCHEM_SUBSTANCE_COMMENT>
InChI=1S/C13H14F5N3OS/c14-23(15,16,17,18)10-3-1-9(2-4-10)11-6-20-12(21-11)5-13(19)7-22-8-13/h1-4,6H,5,7-8,19H2,(H,20,21)
InChIKey=UQGODBCVLMQWOL-UHFFFAOYSA-N

> <PUBCHEM_SUBSTANCE_SYNONYM>
SCHEMBL16110410

> <PUBCHEM_XREF_EXT_ID>
SCHEMBL16110410

> <PUBCHEM_EXT_DATASOURCE_URL>
https://www.surechembl.org/

> <PUBCHEM_EXT_SUBSTANCE_URL>
https://www.surechembl.org/chemical/SCHEMBL16110410

> <PUBCHEM_CID_ASSOCIATIONS>
71523647  1

> <PUBCHEM_COORDINATE_TYPE>
1
3

$$$$
