310941589
  -OEChem-07211613022D

 29 32  0     0  0  0  0  0  0999 V2000
    1.4940    1.5455    0.0000 S   0  0  0  0  0  0  0  0  0  0  0  0
   -0.8586   -1.1162    0.0000 O   0  0  0  0  0  0  0  0  0  0  0  0
    0.5667   -1.1162    0.0000 O   0  0  0  0  0  0  0  0  0  0  0  0
   -3.7608   -1.1162    0.0000 O   0  0  0  0  0  0  0  0  0  0  0  0
    4.3790    0.5667    0.0000 O   0  0  0  0  0  0  0  0  0  0  0  0
   -4.4649    0.1202    0.0000 O   0  0  0  0  0  0  0  0  0  0  0  0
    1.3395    0.2060    0.0000 N   0  0  0  0  0  0  0  0  0  0  0  0
    2.7305    0.7384    0.0000 N   0  0  0  0  0  0  0  0  0  0  0  0
   -0.1374    0.1374    0.0000 C   0  0  0  0  0  0  0  0  0  0  0  0
    0.5667    0.5495    0.0000 C   0  0  0  0  0  0  0  0  0  0  0  0
   -1.5971    0.1374    0.0000 C   0  0  0  0  0  0  0  0  0  0  0  0
   -1.6142   -0.6869    0.0000 C   0  0  0  0  0  0  0  0  0  0  0  0
   -0.1718   -0.6869    0.0000 C   0  0  0  0  0  0  0  0  0  0  0  0
   -0.8758    0.5495    0.0000 C   0  0  0  0  0  0  0  0  0  0  0  0
    1.8890    0.8414    0.0000 C   0  0  0  0  0  0  0  0  0  0  0  0
    0.6697    1.3738    0.0000 C   0  0  0  0  0  0  0  0  0  0  0  0
   -2.3183   -1.1162    0.0000 C   0  0  0  0  0  0  0  0  0  0  0  0
   -2.3011    0.5323    0.0000 C   0  0  0  0  0  0  0  0  0  0  0  0
   -3.0395   -0.6869    0.0000 C   0  0  0  0  0  0  0  0  0  0  0  0
   -3.0052    0.1374    0.0000 C   0  0  0  0  0  0  0  0  0  0  0  0
    3.0395    0.0000    0.0000 C   0  0  0  0  0  0  0  0  0  0  0  0
    3.8810   -0.1031    0.0000 C   0  0  0  0  0  0  0  0  0  0  0  0
    2.5930   -0.7041    0.0000 C   0  0  0  0  0  0  0  0  0  0  0  0
    4.2245   -0.8758    0.0000 C   0  0  0  0  0  0  0  0  0  0  0  0
   -4.4820   -0.7212    0.0000 C   0  0  0  0  0  0  0  0  0  0  0  0
    2.9193   -1.4425    0.0000 C   0  0  0  0  0  0  0  0  0  0  0  0
    3.7264   -1.5455    0.0000 C   0  0  0  0  0  0  0  0  0  0  0  0
   -5.1861   -1.1162    0.0000 C   0  0  0  0  0  0  0  0  0  0  0  0
    5.1861    0.4636    0.0000 C   0  0  0  0  0  0  0  0  0  0  0  0
  1 15  1  0  0  0  0
  1 16  1  0  0  0  0
  2 12  1  0  0  0  0
  2 13  1  0  0  0  0
  3 13  2  0  0  0  0
  4 19  1  0  0  0  0
  4 25  1  0  0  0  0
  5 22  1  0  0  0  0
  5 29  1  0  0  0  0
  6 25  2  0  0  0  0
  7 10  1  0  0  0  0
  7 15  2  0  0  0  0
  8 15  1  0  0  0  0
  8 21  1  0  0  0  0
  9 10  1  0  0  0  0
  9 13  1  0  0  0  0
  9 14  2  0  0  0  0
 10 16  2  0  0  0  0
 11 12  1  0  0  0  0
 11 14  1  0  0  0  0
 11 18  2  0  0  0  0
 12 17  2  0  0  0  0
 17 19  1  0  0  0  0
 18 20  1  0  0  0  0
 19 20  2  0  0  0  0
 21 22  1  0  0  0  0
 21 23  2  0  0  0  0
 22 24  2  0  0  0  0
 23 26  1  0  0  0  0
 24 27  1  0  0  0  0
 25 28  1  0  0  0  0
 26 27  2  0  0  0  0
M  END
> <PUBCHEM_COMPOUND_ID_TYPE>
0

> <PUBCHEM_TOTAL_CHARGE>
0

> <PUBCHEM_SUBSTANCE_ID>
310941589

> <PUBCHEM_SUBSTANCE_VERSION>
1

> <PUBCHEM_EXT_DATASOURCE_NAME>
4488

> <PUBCHEM_EXT_DATASOURCE_REGID>
SCHEMBL16119620

> <PUBCHEM_SUBSTANCE_COMMENT>
InChI=1S/C21H16N2O5S/c1-12(24)27-14-8-7-13-9-15(20(25)28-19(13)10-14)17-11-29-21(23-17)22-16-5-3-4-6-18(16)26-2/h3-11H,1-2H3,(H,22,23)
InChIKey=UIACCNQTUTWQCM-UHFFFAOYSA-N

> <PUBCHEM_SUBSTANCE_SYNONYM>
SCHEMBL16119620

> <PUBCHEM_XREF_EXT_ID>
SCHEMBL16119620

> <PUBCHEM_EXT_DATASOURCE_URL>
https://www.surechembl.org/

> <PUBCHEM_EXT_SUBSTANCE_URL>
https://www.surechembl.org/chemical/SCHEMBL16119620

> <PUBCHEM_CID_ASSOCIATIONS>
117608390  1

> <PUBCHEM_COORDINATE_TYPE>
1
3

$$$$
