310942305
  -OEChem-07211613022D

 64 70  0     1  0  0  0  0  0999 V2000
    5.4994   -0.1130    0.0000 O   0  0  0  0  0  0  0  0  0  0  0  0
    4.1977   -0.7637    0.0000 O   0  0  0  0  0  0  0  0  0  0  0  0
    2.4973   -1.3350    0.0000 O   0  0  0  0  0  0  0  0  0  0  0  0
    2.9889    2.9822    0.0000 O   0  0  0  0  0  0  0  0  0  0  0  0
    0.7970   -0.8435    0.0000 O   0  0  0  0  0  0  0  0  0  0  0  0
    1.3284    2.9822    0.0000 O   0  0  0  0  0  0  0  0  0  0  0  0
   -0.8634    0.5912    0.0000 O   0  0  0  0  0  0  0  0  0  0  0  0
    4.9149   -2.0124    0.0000 O   0  0  0  0  0  0  0  0  0  0  0  0
    1.0627   -1.3350    0.0000 O   0  0  0  0  0  0  0  0  0  0  0  0
   -0.1063    2.9822    0.0000 O   0  0  0  0  0  0  0  0  0  0  0  0
   -1.2354    1.9727    0.0000 O   0  0  0  0  0  0  0  0  0  0  0  0
   -2.4707    0.1661    0.0000 O   0  0  0  0  0  0  0  0  0  0  0  0
   -1.0760   -0.2059    0.0000 O   0  0  0  0  0  0  0  0  0  0  0  0
   -4.6626    0.3122    0.0000 O   0  0  0  0  0  0  0  0  0  0  0  0
   -3.2678   -0.0598    0.0000 O   0  0  0  0  0  0  0  0  0  0  0  0
   -3.6264    1.3350    0.0000 N   0  0  0  0  0  0  0  0  0  0  0  0
   -1.3549   -1.8133    0.0000 N   0  0  0  0  0  0  0  0  0  0  0  0
    3.4935    1.3217    0.0000 C   0  0  3  0  0  0  0  0  0  0  0  0
    3.4935    0.4849    0.0000 C   0  0  3  0  0  0  0  0  0  0  0  0
    4.2109    0.0731    0.0000 C   0  0  3  0  0  0  0  0  0  0  0  0
    4.1977    1.7203    0.0000 C   0  0  3  0  0  0  0  0  0  0  0  0
    3.4935    2.1453    0.0000 C   0  0  0  0  0  0  0  0  0  0  0  0
    2.5106   -0.4982    0.0000 C   0  0  3  0  0  0  0  0  0  0  0  0
    2.5903    2.2648    0.0000 C   0  0  0  0  0  0  0  0  0  0  0  0
    4.9149    0.4849    0.0000 C   0  0  3  0  0  0  0  0  0  0  0  0
    1.2354   -0.1130    0.0000 C   0  0  3  0  0  0  0  0  0  0  0  0
    4.9282    1.3084    0.0000 C   0  0  0  0  0  0  0  0  0  0  0  0
    1.6339    0.5912    0.0000 C   0  0  0  0  0  0  0  0  0  0  0  0
    1.7668    2.2648    0.0000 C   0  0  3  0  0  0  0  0  0  0  0  0
    1.2221    1.3084    0.0000 C   0  0  0  0  0  0  0  0  0  0  0  0
    4.7953   -0.5115    0.0000 C   0  0  0  0  0  0  0  0  0  0  0  0
    0.3986   -0.1130    0.0000 C   0  0  0  0  0  0  0  0  0  0  0  0
    0.3852    1.3217    0.0000 C   0  0  0  0  0  0  0  0  0  0  0  0
   -0.0133    0.6045    0.0000 C   0  0  3  0  0  0  0  0  0  0  0  0
    2.3644    1.0162    0.0000 C   0  0  0  0  0  0  0  0  0  0  0  0
    2.3512    0.1793    0.0000 C   0  0  0  0  0  0  0  0  0  0  0  0
    4.9282   -1.1623    0.0000 C   0  0  0  0  0  0  0  0  0  0  0  0
    1.8066   -1.7468    0.0000 C   0  0  0  0  0  0  0  0  0  0  0  0
    0.0000    2.0257    0.0000 C   0  0  0  0  0  0  0  0  0  0  0  0
    0.6244    3.4072    0.0000 C   0  0  0  0  0  0  0  0  0  0  0  0
    1.7933   -2.5837    0.0000 C   0  0  0  0  0  0  0  0  0  0  0  0
    5.6455   -0.7637    0.0000 C   0  0  0  0  0  0  0  0  0  0  0  0
   -1.4612    1.1623    0.0000 C   0  0  0  0  0  0  0  0  0  0  0  0
    0.6244    4.2308    0.0000 C   0  0  0  0  0  0  0  0  0  0  0  0
   -2.2183    0.9630    0.0000 C   0  0  3  0  0  0  0  0  0  0  0  0
    1.0893   -2.9955    0.0000 C   0  0  0  0  0  0  0  0  0  0  0  0
    2.5106   -2.9955    0.0000 C   0  0  0  0  0  0  0  0  0  0  0  0
   -2.8427    1.5608    0.0000 C   0  0  3  0  0  0  0  0  0  0  0  0
    1.0760   -3.8190    0.0000 C   0  0  0  0  0  0  0  0  0  0  0  0
    2.5106   -3.8190    0.0000 C   0  0  0  0  0  0  0  0  0  0  0  0
    1.8066   -4.2308    0.0000 C   0  0  0  0  0  0  0  0  0  0  0  0
   -2.6036    2.3578    0.0000 C   0  0  0  0  0  0  0  0  0  0  0  0
   -1.8863   -0.4317    0.0000 C   0  0  0  0  0  0  0  0  0  0  0  0
   -3.1881    2.9424    0.0000 C   0  0  0  0  0  0  0  0  0  0  0  0
   -1.8066    2.5703    0.0000 C   0  0  0  0  0  0  0  0  0  0  0  0
   -3.8656    0.5513    0.0000 C   0  0  0  0  0  0  0  0  0  0  0  0
   -2.0855   -1.2287    0.0000 C   0  0  0  0  0  0  0  0  0  0  0  0
   -2.9756    3.7393    0.0000 C   0  0  0  0  0  0  0  0  0  0  0  0
   -1.6073    3.3674    0.0000 C   0  0  0  0  0  0  0  0  0  0  0  0
   -2.1784    3.9519    0.0000 C   0  0  0  0  0  0  0  0  0  0  0  0
   -4.8617   -0.4982    0.0000 C   0  0  0  0  0  0  0  0  0  0  0  0
   -5.6455   -0.7106    0.0000 C   0  0  0  0  0  0  0  0  0  0  0  0
   -4.2773   -1.0693    0.0000 C   0  0  0  0  0  0  0  0  0  0  0  0
   -5.0610   -1.2819    0.0000 C   0  0  0  0  0  0  0  0  0  0  0  0
  1 25  1  0  0  0  0
  1 31  1  0  0  0  0
 20  2  1  6  0  0  0
  2 37  1  0  0  0  0
 23  3  1  6  0  0  0
  3 38  1  0  0  0  0
  4 24  2  0  0  0  0
 26  5  1  6  0  0  0
 29  6  1  6  0  0  0
  6 40  1  0  0  0  0
 34  7  1  6  0  0  0
  7 43  1  0  0  0  0
  8 37  2  0  0  0  0
  9 38  2  0  0  0  0
 10 40  2  0  0  0  0
 11 43  2  0  0  0  0
 45 12  1  6  0  0  0
 12 53  1  0  0  0  0
 13 53  2  0  0  0  0
 14 56  1  0  0  0  0
 14 61  1  0  0  0  0
 15 56  2  0  0  0  0
 48 16  1  1  0  0  0
 16 56  1  0  0  0  0
 17 57  1  0  0  0  0
 18 19  1  0  0  0  0
 18 21  1  0  0  0  0
 18 22  1  0  0  0  0
 18 24  1  6  0  0  0
 19 20  1  0  0  0  0
 19 23  1  1  0  0  0
 20 25  1  0  0  0  0
 20 31  1  0  0  0  0
 21 22  1  1  0  0  0
 21 27  1  0  0  0  0
 23 26  1  0  0  0  0
 24 29  1  0  0  0  0
 25 27  1  1  0  0  0
 26 28  1  0  0  0  0
 26 32  1  0  0  0  0
 28 30  1  0  0  0  0
 28 35  1  0  0  0  0
 28 36  1  0  0  0  0
 29 30  1  0  0  0  0
 30 33  2  0  0  0  0
 32 34  1  0  0  0  0
 33 34  1  0  0  0  0
 33 39  1  0  0  0  0
 37 42  1  0  0  0  0
 38 41  1  0  0  0  0
 40 44  1  0  0  0  0
 41 46  2  0  0  0  0
 41 47  1  0  0  0  0
 43 45  1  0  0  0  0
 45 48  1  0  0  0  0
 46 49  1  0  0  0  0
 47 50  2  0  0  0  0
 48 52  1  0  0  0  0
 49 51  2  0  0  0  0
 50 51  1  0  0  0  0
 52 54  2  0  0  0  0
 52 55  1  0  0  0  0
 53 57  1  0  0  0  0
 54 58  1  0  0  0  0
 55 59  2  0  0  0  0
 58 60  2  0  0  0  0
 59 60  1  0  0  0  0
 61 62  1  0  0  0  0
 61 63  1  0  0  0  0
 61 64  1  0  0  0  0
M  END
> <PUBCHEM_COMPOUND_ID_TYPE>
0

> <PUBCHEM_TOTAL_CHARGE>
0

> <PUBCHEM_SUBSTANCE_ID>
310942305

> <PUBCHEM_SUBSTANCE_VERSION>
1

> <PUBCHEM_EXT_DATASOURCE_NAME>
4488

> <PUBCHEM_EXT_DATASOURCE_REGID>
SCHEMBL16120341

> <PUBCHEM_SUBSTANCE_COMMENT>
InChI=1S/C47H56N2O15/c1-24-30(60-41(55)36(61-32(52)22-48)34(27-15-11-9-12-16-27)49-42(56)64-43(4,5)6)21-47(57)39(62-40(54)28-17-13-10-14-18-28)37-45(38(53)35(59-25(2)50)33(24)44(47,7)8)20-29(45)19-31-46(37,23-58-31)63-26(3)51/h9-18,29-31,34-37,39,57H,19-23,48H2,1-8H3,(H,49,56)/t29-,30+,31-,34+,35+,36-,37+,39+,45-,46+,47+/m1/s1
InChIKey=HGKCIYWACHUMHS-CYTMXULXSA-N

> <PUBCHEM_SUBSTANCE_SYNONYM>
SCHEMBL16120341

> <PUBCHEM_XREF_EXT_ID>
SCHEMBL16120341

> <PUBCHEM_EXT_DATASOURCE_URL>
https://www.surechembl.org/

> <PUBCHEM_EXT_SUBSTANCE_URL>
https://www.surechembl.org/chemical/SCHEMBL16120341

> <PUBCHEM_CID_ASSOCIATIONS>
117608952  1

> <PUBCHEM_COORDINATE_TYPE>
1
3

> <PUBCHEM_BONDANNOTATIONS>
45  12  6
48  16  5
18  24  6
19  23  5
20  2  6
21  22  5
25  27  5
23  3  6
26  5  6
29  6  6
34  7  6

$$$$
