310928943
  -OEChem-07211613022D

 27 30  0     0  0  0  0  0  0999 V2000
    2.2717    1.9767    0.0000 O   0  0  0  0  0  0  0  0  0  0  0  0
    2.9391    0.8207    0.0000 O   0  0  0  0  0  0  0  0  0  0  0  0
    3.4911    1.4338    0.0000 C   0  0  0  0  0  0  0  0  0  0  0  0
    3.0786    2.1483    0.0000 C   0  0  0  0  0  0  0  0  0  0  0  0
    1.4710    0.7438    0.0000 C   0  0  0  0  0  0  0  0  0  0  0  0
    0.0420   -0.0812    0.0000 C   0  0  0  0  0  0  0  0  0  0  0  0
    1.4710   -0.0812    0.0000 C   0  0  0  0  0  0  0  0  0  0  0  0
    0.7565    1.1563    0.0000 C   0  0  0  0  0  0  0  0  0  0  0  0
    4.2448    1.7694    0.0000 C   0  0  0  0  0  0  0  0  0  0  0  0
    4.1586    0.9489    0.0000 C   0  0  0  0  0  0  0  0  0  0  0  0
    2.9924    2.9687    0.0000 C   0  0  0  0  0  0  0  0  0  0  0  0
    3.7461    2.6332    0.0000 C   0  0  0  0  0  0  0  0  0  0  0  0
   -0.6725   -0.4937    0.0000 C   0  0  0  0  0  0  0  0  0  0  0  0
    0.7565   -0.4937    0.0000 C   0  0  0  0  0  0  0  0  0  0  0  0
    0.0420    0.7438    0.0000 C   0  0  0  0  0  0  0  0  0  0  0  0
   -2.1014   -1.3187    0.0000 C   0  0  0  0  0  0  0  0  0  0  0  0
   -0.6725   -1.3187    0.0000 C   0  0  0  0  0  0  0  0  0  0  0  0
   -1.3869   -0.0812    0.0000 C   0  0  0  0  0  0  0  0  0  0  0  0
   -2.8159   -1.7312    0.0000 C   0  0  0  0  0  0  0  0  0  0  0  0
   -1.3869   -1.7312    0.0000 C   0  0  0  0  0  0  0  0  0  0  0  0
   -2.1014   -0.4937    0.0000 C   0  0  0  0  0  0  0  0  0  0  0  0
   -2.8159   -2.5562    0.0000 C   0  0  0  0  0  0  0  0  0  0  0  0
   -3.5303   -1.3187    0.0000 C   0  0  0  0  0  0  0  0  0  0  0  0
   -3.5303   -2.9687    0.0000 C   0  0  0  0  0  0  0  0  0  0  0  0
   -4.2448   -1.7312    0.0000 C   0  0  0  0  0  0  0  0  0  0  0  0
   -4.2448   -2.5562    0.0000 C   0  0  0  0  0  0  0  0  0  0  0  0
    2.1854    1.1563    0.0000 B   0  0  0  0  0  0  0  0  0  0  0  0
  1  4  1  0  0  0  0
  1 27  1  0  0  0  0
  2  3  1  0  0  0  0
  2 27  1  0  0  0  0
  3  4  1  0  0  0  0
  3  9  1  0  0  0  0
  3 10  1  0  0  0  0
  4 11  1  0  0  0  0
  4 12  1  0  0  0  0
  5  7  2  0  0  0  0
  5  8  1  0  0  0  0
  5 27  1  0  0  0  0
  6 13  1  0  0  0  0
  6 14  2  0  0  0  0
  6 15  1  0  0  0  0
  7 14  1  0  0  0  0
  8 15  2  0  0  0  0
 13 17  2  0  0  0  0
 13 18  1  0  0  0  0
 16 19  1  0  0  0  0
 16 20  2  0  0  0  0
 16 21  1  0  0  0  0
 17 20  1  0  0  0  0
 18 21  2  0  0  0  0
 19 22  2  0  0  0  0
 19 23  1  0  0  0  0
 22 24  1  0  0  0  0
 23 25  2  0  0  0  0
 24 26  2  0  0  0  0
 25 26  1  0  0  0  0
M  END
> <PUBCHEM_COMPOUND_ID_TYPE>
0

> <PUBCHEM_TOTAL_CHARGE>
0

> <PUBCHEM_SUBSTANCE_ID>
310928943

> <PUBCHEM_SUBSTANCE_VERSION>
1

> <PUBCHEM_EXT_DATASOURCE_NAME>
11752

> <PUBCHEM_EXT_DATASOURCE_REGID>
BD212900

> <PUBCHEM_SUBSTANCE_SYNONYM>
1080632-76-3
2-([1,1':4',1''-Terphenyl]-4-yl)-4,4,5,5-tetramethyl-1,3,2-dioxaborolane

> <PUBCHEM_GENERIC_REGISTRY_NAME>
1080632-76-3

> <PUBCHEM_XREF_EXT_ID>
BD212900

> <PUBCHEM_EXT_DATASOURCE_URL>
http://www.bidepharmatech.com/en/index.html

> <PUBCHEM_EXT_SUBSTANCE_URL>
http://www.bidepharmatech.com/en/goodsview_goodscode_BD212900.html

> <PUBCHEM_CID_ASSOCIATIONS>
58160927  1

> <PUBCHEM_COORDINATE_TYPE>
1
3

$$$$
