310933133
  -OEChem-07211613022D

 36 41  0     0  0  0  0  0  0999 V2000
    3.5651   -0.8840    0.0000 O   0  0  0  0  0  0  0  0  0  0  0  0
    2.8581   -4.6259    0.0000 O   0  0  0  0  0  0  0  0  0  0  0  0
    5.0678   -1.9151    0.0000 N   0  0  0  0  0  0  0  0  0  0  0  0
    2.8875   -2.1509    0.0000 N   0  0  0  0  0  0  0  0  0  0  0  0
    2.8875   -2.9759    0.0000 N   0  0  0  0  0  0  0  0  0  0  0  0
    4.2723   -4.6553    0.0000 N   0  0  0  0  0  0  0  0  0  0  0  0
    4.3313   -2.1509    0.0000 C   0  0  0  0  0  0  0  0  0  0  0  0
    4.3313   -2.9759    0.0000 C   0  0  0  0  0  0  0  0  0  0  0  0
    5.0678   -3.2116    0.0000 C   0  0  0  0  0  0  0  0  0  0  0  0
    5.5982   -2.5634    0.0000 C   0  0  0  0  0  0  0  0  0  0  0  0
    3.5651   -3.3884    0.0000 C   0  0  0  0  0  0  0  0  0  0  0  0
    3.5651   -1.7089    0.0000 C   0  0  0  0  0  0  0  0  0  0  0  0
    5.3035   -1.1197    0.0000 C   0  0  0  0  0  0  0  0  0  0  0  0
    3.5651   -4.2134    0.0000 C   0  0  0  0  0  0  0  0  0  0  0  0
    5.4509   -3.9482    0.0000 C   0  0  0  0  0  0  0  0  0  0  0  0
    6.3642   -2.6518    0.0000 C   0  0  0  0  0  0  0  0  0  0  0  0
    2.1509   -1.7384    0.0000 C   0  0  0  0  0  0  0  0  0  0  0  0
    4.9205   -0.4125    0.0000 C   0  0  0  0  0  0  0  0  0  0  0  0
    6.0401   -0.7366    0.0000 C   0  0  0  0  0  0  0  0  0  0  0  0
    6.2464   -4.0660    0.0000 C   0  0  0  0  0  0  0  0  0  0  0  0
    6.7178   -3.3884    0.0000 C   0  0  0  0  0  0  0  0  0  0  0  0
    5.6572    0.0000    0.0000 C   0  0  0  0  0  0  0  0  0  0  0  0
    4.9794   -4.2428    0.0000 C   0  0  0  0  0  0  0  0  0  0  0  0
    2.1509   -0.9134    0.0000 C   0  0  0  0  0  0  0  0  0  0  0  0
    1.4437   -2.1509    0.0000 C   0  0  0  0  0  0  0  0  0  0  0  0
    4.2428   -5.4509    0.0000 C   0  0  0  0  0  0  0  0  0  0  0  0
    1.4143   -0.5009    0.0000 C   0  0  0  0  0  0  0  0  0  0  0  0
    0.7366   -1.7384    0.0000 C   0  0  0  0  0  0  0  0  0  0  0  0
    0.7072   -0.9428    0.0000 C   0  0  0  0  0  0  0  0  0  0  0  0
    5.0089   -3.4178    0.0000 C   0  0  0  0  0  0  0  0  0  0  0  0
    5.6866   -4.6553    0.0000 C   0  0  0  0  0  0  0  0  0  0  0  0
    4.9500   -5.8928    0.0000 C   0  0  0  0  0  0  0  0  0  0  0  0
    5.7160   -3.0348    0.0000 C   0  0  0  0  0  0  0  0  0  0  0  0
    6.3938   -4.2723    0.0000 C   0  0  0  0  0  0  0  0  0  0  0  0
    6.4232   -3.4473    0.0000 C   0  0  0  0  0  0  0  0  0  0  0  0
    0.0000   -0.5303    0.0000 C   0  0  0  0  0  0  0  0  0  0  0  0
  1 12  2  0  0  0  0
  2 14  2  0  0  0  0
  3  7  1  0  0  0  0
  3 10  1  0  0  0  0
  3 13  1  0  0  0  0
  4  5  1  0  0  0  0
  4 12  1  0  0  0  0
  4 17  1  0  0  0  0
  5 11  2  0  0  0  0
  6 14  1  0  0  0  0
  6 23  1  0  0  0  0
  6 26  1  0  0  0  0
  7  8  2  0  0  0  0
  7 12  1  0  0  0  0
  8  9  1  0  0  0  0
  8 11  1  0  0  0  0
  9 10  2  0  0  0  0
  9 15  1  0  0  0  0
 10 16  1  0  0  0  0
 11 14  1  0  0  0  0
 13 18  1  0  0  0  0
 13 19  1  0  0  0  0
 15 20  2  0  0  0  0
 16 21  2  0  0  0  0
 17 24  2  0  0  0  0
 17 25  1  0  0  0  0
 18 22  1  0  0  0  0
 19 22  1  0  0  0  0
 20 21  1  0  0  0  0
 23 30  2  0  0  0  0
 23 31  1  0  0  0  0
 24 27  1  0  0  0  0
 25 28  2  0  0  0  0
 26 32  1  0  0  0  0
 27 29  2  0  0  0  0
 28 29  1  0  0  0  0
 29 36  1  0  0  0  0
 30 33  1  0  0  0  0
 31 34  2  0  0  0  0
 33 35  2  0  0  0  0
 34 35  1  0  0  0  0
M  END
> <PUBCHEM_COMPOUND_ID_TYPE>
0

> <PUBCHEM_TOTAL_CHARGE>
0

> <PUBCHEM_SUBSTANCE_ID>
310933133

> <PUBCHEM_SUBSTANCE_VERSION>
1

> <PUBCHEM_EXT_DATASOURCE_NAME>
4488

> <PUBCHEM_EXT_DATASOURCE_REGID>
SCHEMBL16110540

> <PUBCHEM_SUBSTANCE_COMMENT>
InChI=1S/C30H28N4O2/c1-3-32(21-10-5-4-6-11-21)29(35)27-26-24-14-7-8-15-25(24)33(22-12-9-13-22)28(26)30(36)34(31-27)23-18-16-20(2)17-19-23/h4-8,10-11,14-19,22H,3,9,12-13H2,1-2H3
InChIKey=MQMYQCJRLBZHPF-UHFFFAOYSA-N

> <PUBCHEM_SUBSTANCE_SYNONYM>
SCHEMBL16110540

> <PUBCHEM_XREF_EXT_ID>
SCHEMBL16110540

> <PUBCHEM_EXT_DATASOURCE_URL>
https://www.surechembl.org/

> <PUBCHEM_EXT_SUBSTANCE_URL>
https://www.surechembl.org/chemical/SCHEMBL16110540

> <PUBCHEM_CID_ASSOCIATIONS>
117601588  1

> <PUBCHEM_COORDINATE_TYPE>
1
3

$$$$
