310945977
  -OEChem-07211613022D

 28 32  0     1  0  0  0  0  0999 V2000
    1.1125    2.6909    0.0000 F   0  0  0  0  0  0  0  0  0  0  0  0
    1.4358    1.6260    0.0000 F   0  0  0  0  0  0  0  0  0  0  0  0
    0.3329    1.3027    0.0000 F   0  0  0  0  0  0  0  0  0  0  0  0
   -1.5119   -2.6719    0.0000 O   0  0  0  0  0  0  0  0  0  0  0  0
   -0.7702   -1.3978    0.0000 N   0  0  0  0  0  0  0  0  0  0  0  0
   -0.7512    1.1696    0.0000 N   0  0  0  0  0  0  0  0  0  0  0  0
    0.0475   -3.4898    0.0000 N   0  0  0  0  0  0  0  0  0  0  0  0
    0.8653   -3.6609    0.0000 N   0  0  0  0  0  0  0  0  0  0  0  0
    1.9684   -1.7781    0.0000 N   0  0  0  0  0  0  0  0  0  0  0  0
   -0.3519   -0.1046    0.0000 C   0  0  3  0  0  0  0  0  0  0  0  0
   -1.1886   -0.0475    0.0000 C   0  0  3  0  0  0  0  0  0  0  0  0
   -0.0095   -2.6719    0.0000 C   0  0  0  0  0  0  0  0  0  0  0  0
   -0.7702   -2.2346    0.0000 C   0  0  0  0  0  0  0  0  0  0  0  0
   -0.7322    2.0443    0.0000 C   0  0  0  0  0  0  0  0  0  0  0  0
    0.7322   -2.3106    0.0000 C   0  0  0  0  0  0  0  0  0  0  0  0
   -0.1046   -0.8844    0.0000 C   0  0  0  0  0  0  0  0  0  0  0  0
   -1.4548   -0.8844    0.0000 C   0  0  0  0  0  0  0  0  0  0  0  0
   -1.4168    0.6941    0.0000 C   0  0  0  0  0  0  0  0  0  0  0  0
   -0.1046    0.6561    0.0000 C   0  0  0  0  0  0  0  0  0  0  0  0
   -0.0475    2.4627    0.0000 C   0  0  0  0  0  0  0  0  0  0  0  0
    1.3217   -2.9382    0.0000 C   0  0  0  0  0  0  0  0  0  0  0  0
    0.7132    2.0064    0.0000 C   0  0  0  0  0  0  0  0  0  0  0  0
    1.1696   -1.5689    0.0000 C   0  0  0  0  0  0  0  0  0  0  0  0
   -1.4739    2.4438    0.0000 C   0  0  0  0  0  0  0  0  0  0  0  0
    2.0443   -2.5959    0.0000 C   0  0  0  0  0  0  0  0  0  0  0  0
   -0.0666    3.2616    0.0000 C   0  0  0  0  0  0  0  0  0  0  0  0
   -1.4929    3.2616    0.0000 C   0  0  0  0  0  0  0  0  0  0  0  0
   -0.7702    3.6609    0.0000 C   0  0  0  0  0  0  0  0  0  0  0  0
  1 22  1  0  0  0  0
  2 22  1  0  0  0  0
  3 22  1  0  0  0  0
  4 13  2  0  0  0  0
  5 13  1  0  0  0  0
  5 16  1  0  0  0  0
  5 17  1  0  0  0  0
  6 14  1  0  0  0  0
  6 18  1  0  0  0  0
  6 19  1  0  0  0  0
  7  8  1  0  0  0  0
  7 12  2  0  0  0  0
  8 21  1  0  0  0  0
  9 23  1  0  0  0  0
  9 25  1  0  0  0  0
 10 11  1  0  0  0  0
 10 16  1  1  0  0  0
 10 19  1  0  0  0  0
 11 17  1  1  0  0  0
 11 18  1  0  0  0  0
 12 13  1  0  0  0  0
 12 15  1  0  0  0  0
 14 20  2  0  0  0  0
 14 24  1  0  0  0  0
 15 21  2  0  0  0  0
 15 23  1  0  0  0  0
 20 22  1  0  0  0  0
 20 26  1  0  0  0  0
 21 25  1  0  0  0  0
 24 27  2  0  0  0  0
 26 28  2  0  0  0  0
 27 28  1  0  0  0  0
M  END
> <PUBCHEM_COMPOUND_ID_TYPE>
0

> <PUBCHEM_TOTAL_CHARGE>
0

> <PUBCHEM_SUBSTANCE_ID>
310945977

> <PUBCHEM_SUBSTANCE_VERSION>
1

> <PUBCHEM_EXT_DATASOURCE_NAME>
4488

> <PUBCHEM_EXT_DATASOURCE_REGID>
SCHEMBL16124082

> <PUBCHEM_SUBSTANCE_COMMENT>
InChI=1S/C19H20F3N5O/c20-19(21,22)14-3-1-2-4-16(14)26-7-11-9-27(10-12(11)8-26)18(28)17-13-5-23-6-15(13)24-25-17/h1-4,11-12,23H,5-10H2,(H,24,25)/t11-,12+
InChIKey=JZEAXDVMOMKDFG-TXEJJXNPSA-N

> <PUBCHEM_SUBSTANCE_SYNONYM>
SCHEMBL16124082

> <PUBCHEM_XREF_EXT_ID>
SCHEMBL16124082

> <PUBCHEM_EXT_DATASOURCE_URL>
https://www.surechembl.org/

> <PUBCHEM_EXT_SUBSTANCE_URL>
https://www.surechembl.org/chemical/SCHEMBL16124082

> <PUBCHEM_CID_ASSOCIATIONS>
86296437  1

> <PUBCHEM_COORDINATE_TYPE>
1
3

> <PUBCHEM_BONDANNOTATIONS>
10  16  5
11  17  5

$$$$
