310945309
  -OEChem-07211613022D

 29 32  0     1  0  0  0  0  0999 V2000
    2.0497   -1.9311    0.0000 S   0  0  0  0  0  0  0  0  0  0  0  0
    3.7111   -2.0066    0.0000 O   0  0  0  0  0  0  0  0  0  0  0  0
   -0.8847    0.4099    0.0000 O   0  0  0  0  0  0  0  0  0  0  0  0
   -2.3195    2.0713    0.0000 O   0  0  0  0  0  0  0  0  0  0  0  0
    2.2764    0.2697    0.0000 N   0  0  0  0  0  0  0  0  0  0  0  0
    3.9161   -0.6257    0.0000 N   0  0  0  0  0  0  0  0  0  0  0  0
   -1.5967   -0.8307    0.0000 N   0  0  0  0  0  0  0  0  0  0  0  0
   -3.0207    0.8307    0.0000 N   0  0  0  0  0  0  0  0  0  0  0  0
    1.2730   -0.8415    0.0000 C   0  0  0  0  0  0  0  0  0  0  0  0
    2.0497   -0.5825    0.0000 C   0  0  0  0  0  0  0  0  0  0  0  0
    2.5460   -1.2407    0.0000 C   0  0  0  0  0  0  0  0  0  0  0  0
    1.2623   -1.6613    0.0000 C   0  0  0  0  0  0  0  0  0  0  0  0
    0.5501   -0.4315    0.0000 C   0  0  0  0  0  0  0  0  0  0  0  0
    3.3659   -1.2514    0.0000 C   0  0  0  0  0  0  0  0  0  0  0  0
   -0.1618   -0.8415    0.0000 C   0  0  0  0  0  0  0  0  0  0  0  0
    0.5610   -2.0713    0.0000 C   0  0  0  0  0  0  0  0  0  0  0  0
   -0.1618   -1.6613    0.0000 C   0  0  0  0  0  0  0  0  0  0  0  0
   -0.8847   -0.4315    0.0000 C   0  0  0  0  0  0  0  0  0  0  0  0
    3.0423    0.5825    0.0000 C   0  0  0  0  0  0  0  0  0  0  0  0
    3.7759    0.2050    0.0000 C   0  0  3  0  0  0  0  0  0  0  0  0
   -2.3195   -0.4099    0.0000 C   0  0  3  0  0  0  0  0  0  0  0  0
   -2.3087    0.4099    0.0000 C   0  0  0  0  0  0  0  0  0  0  0  0
   -3.0099   -0.8307    0.0000 C   0  0  0  0  0  0  0  0  0  0  0  0
    4.4448    0.6904    0.0000 C   0  0  0  0  0  0  0  0  0  0  0  0
   -3.0423    1.6613    0.0000 C   0  0  0  0  0  0  0  0  0  0  0  0
   -3.7436    0.4099    0.0000 C   0  0  0  0  0  0  0  0  0  0  0  0
   -3.7436   -0.4207    0.0000 C   0  0  0  0  0  0  0  0  0  0  0  0
   -3.7543    2.0713    0.0000 C   0  0  0  0  0  0  0  0  0  0  0  0
   -4.4448    1.5858    0.0000 C   0  0  0  0  0  0  0  0  0  0  0  0
  1 11  1  0  0  0  0
  1 12  1  0  0  0  0
  2 14  2  0  0  0  0
  3 18  2  0  0  0  0
  4 25  2  0  0  0  0
  5 10  1  0  0  0  0
  5 19  1  0  0  0  0
  6 14  1  0  0  0  0
  6 20  1  0  0  0  0
  7 18  1  0  0  0  0
 21  7  1  1  0  0  0
  8 22  1  0  0  0  0
  8 25  1  0  0  0  0
  8 26  1  0  0  0  0
  9 10  1  0  0  0  0
  9 12  1  0  0  0  0
  9 13  2  0  0  0  0
 10 11  2  0  0  0  0
 11 14  1  0  0  0  0
 12 16  2  0  0  0  0
 13 15  1  0  0  0  0
 15 17  2  0  0  0  0
 15 18  1  0  0  0  0
 16 17  1  0  0  0  0
 19 20  1  0  0  0  0
 20 24  1  1  0  0  0
 21 22  1  0  0  0  0
 21 23  1  0  0  0  0
 23 27  1  0  0  0  0
 25 28  1  0  0  0  0
 26 27  1  0  0  0  0
 28 29  2  0  0  0  0
M  END
> <PUBCHEM_COMPOUND_ID_TYPE>
0

> <PUBCHEM_TOTAL_CHARGE>
0

> <PUBCHEM_SUBSTANCE_ID>
310945309

> <PUBCHEM_SUBSTANCE_VERSION>
1

> <PUBCHEM_EXT_DATASOURCE_NAME>
4488

> <PUBCHEM_EXT_DATASOURCE_REGID>
SCHEMBL16123407

> <PUBCHEM_SUBSTANCE_COMMENT>
InChI=1S/C21H24N4O3S/c1-3-17(26)25-8-4-5-14(11-25)24-20(27)13-6-7-16-15(9-13)18-19(29-16)21(28)23-12(2)10-22-18/h3,6-7,9,12,14,22H,1,4-5,8,10-11H2,2H3,(H,23,28)(H,24,27)/t12-,14+/m1/s1
InChIKey=UJMSABPCQMBRGT-OCCSQVGLSA-N

> <PUBCHEM_SUBSTANCE_SYNONYM>
SCHEMBL16123407

> <PUBCHEM_XREF_EXT_ID>
SCHEMBL16123407

> <PUBCHEM_EXT_DATASOURCE_URL>
https://www.surechembl.org/

> <PUBCHEM_EXT_SUBSTANCE_URL>
https://www.surechembl.org/chemical/SCHEMBL16123407

> <PUBCHEM_CID_ASSOCIATIONS>
117611367  1

> <PUBCHEM_COORDINATE_TYPE>
1
3

> <PUBCHEM_BONDANNOTATIONS>
20  24  5
21  7  5

$$$$
