310948762
  -OEChem-07211613022D

 29 32  0     0  0  0  0  0  0999 V2000
    4.1067   -1.2949    0.0000 F   0  0  0  0  0  0  0  0  0  0  0  0
    3.9402   -2.1088    0.0000 F   0  0  0  0  0  0  0  0  0  0  0  0
   -3.3852   -1.7389    0.0000 O   0  0  0  0  0  0  0  0  0  0  0  0
    2.1458   -2.7193    0.0000 O   0  0  0  0  0  0  0  0  0  0  0  0
   -1.8684    0.6105    0.0000 N   0  0  0  0  0  0  0  0  0  0  0  0
   -1.3874   -0.0740    0.0000 N   0  0  0  0  0  0  0  0  0  0  0  0
   -1.6094   -1.5354    0.0000 N   0  0  0  0  0  0  0  0  0  0  0  0
   -4.1067   -0.4810    0.0000 N   0  0  0  0  0  0  0  0  0  0  0  0
   -2.6638   -0.4810    0.0000 C   0  0  0  0  0  0  0  0  0  0  0  0
   -2.6453    0.3515    0.0000 C   0  0  0  0  0  0  0  0  0  0  0  0
   -1.8684   -0.7399    0.0000 C   0  0  0  0  0  0  0  0  0  0  0  0
   -3.3852   -0.8879    0.0000 C   0  0  0  0  0  0  0  0  0  0  0  0
   -1.6094    1.4059    0.0000 C   0  0  0  0  0  0  0  0  0  0  0  0
   -3.4037    0.7584    0.0000 C   0  0  0  0  0  0  0  0  0  0  0  0
   -0.7954   -1.7019    0.0000 C   0  0  0  0  0  0  0  0  0  0  0  0
   -4.0882    0.3515    0.0000 C   0  0  0  0  0  0  0  0  0  0  0  0
   -2.0718    2.0533    0.0000 C   0  0  0  0  0  0  0  0  0  0  0  0
   -0.8324    1.6649    0.0000 C   0  0  0  0  0  0  0  0  0  0  0  0
    0.5735   -1.2579    0.0000 C   0  0  0  0  0  0  0  0  0  0  0  0
   -0.2405   -1.0914    0.0000 C   0  0  0  0  0  0  0  0  0  0  0  0
    0.8139   -2.0348    0.0000 C   0  0  0  0  0  0  0  0  0  0  0  0
   -0.5365   -2.4788    0.0000 C   0  0  0  0  0  0  0  0  0  0  0  0
    0.2775   -2.6453    0.0000 C   0  0  0  0  0  0  0  0  0  0  0  0
   -1.6094    2.7193    0.0000 C   0  0  0  0  0  0  0  0  0  0  0  0
   -0.8324    2.4788    0.0000 C   0  0  0  0  0  0  0  0  0  0  0  0
    1.2394   -0.7769    0.0000 C   0  0  0  0  0  0  0  0  0  0  0  0
    3.3482   -1.5539    0.0000 C   0  0  0  0  0  0  0  0  0  0  0  0
    1.6464   -2.0348    0.0000 C   0  0  0  0  0  0  0  0  0  0  0  0
    2.6638   -0.9989    0.0000 C   0  0  0  0  0  0  0  0  0  0  0  0
  1 27  1  0  0  0  0
  2 27  1  0  0  0  0
  3 12  2  0  0  0  0
  4 28  2  0  0  0  0
  5  6  1  0  0  0  0
  5 10  1  0  0  0  0
  5 13  1  0  0  0  0
  6 11  2  0  0  0  0
  7 11  1  0  0  0  0
  7 15  1  0  0  0  0
  8 12  1  0  0  0  0
  8 16  1  0  0  0  0
  9 10  2  0  0  0  0
  9 11  1  0  0  0  0
  9 12  1  0  0  0  0
 10 14  1  0  0  0  0
 13 17  1  0  0  0  0
 13 18  1  0  0  0  0
 14 16  2  0  0  0  0
 15 20  2  0  0  0  0
 15 22  1  0  0  0  0
 17 24  1  0  0  0  0
 18 25  1  0  0  0  0
 19 20  1  0  0  0  0
 19 21  2  0  0  0  0
 19 26  1  0  0  0  0
 21 23  1  0  0  0  0
 21 28  1  0  0  0  0
 22 23  2  0  0  0  0
 24 25  1  0  0  0  0
 26 27  1  0  0  0  0
 27 29  1  0  0  0  0
M  END
> <PUBCHEM_COMPOUND_ID_TYPE>
0

> <PUBCHEM_TOTAL_CHARGE>
0

> <PUBCHEM_SUBSTANCE_ID>
310948762

> <PUBCHEM_SUBSTANCE_VERSION>
1

> <PUBCHEM_EXT_DATASOURCE_NAME>
4488

> <PUBCHEM_EXT_DATASOURCE_REGID>
SCHEMBL16126946

> <PUBCHEM_SUBSTANCE_COMMENT>
InChI=1S/C21H22F2N4O2/c1-21(22,23)11-14-10-15(7-6-13(14)12-28)25-19-18-17(8-9-24-20(18)29)27(26-19)16-4-2-3-5-16/h6-10,12,16H,2-5,11H2,1H3,(H,24,29)(H,25,26)
InChIKey=JQLJSFGROMKLCB-UHFFFAOYSA-N

> <PUBCHEM_SUBSTANCE_SYNONYM>
SCHEMBL16126946

> <PUBCHEM_XREF_EXT_ID>
SCHEMBL16126946

> <PUBCHEM_EXT_DATASOURCE_URL>
https://www.surechembl.org/

> <PUBCHEM_EXT_SUBSTANCE_URL>
https://www.surechembl.org/chemical/SCHEMBL16126946

> <PUBCHEM_CID_ASSOCIATIONS>
117614304  1

> <PUBCHEM_COORDINATE_TYPE>
1
3

> <PUBCHEM_BONDANNOTATIONS>
26  27  3

$$$$
