310935378
  -OEChem-07211613022D

 11 11  0     0  0  0  0  0  0999 V2000
    0.8375    0.0000    0.0000 Br  0  0  0  0  0  0  0  0  0  0  0  0
    0.0000   -1.4375    0.0000 Br  0  0  0  0  0  0  0  0  0  0  0  0
    3.7499   -0.7250    0.0000 O   0  0  0  0  0  0  0  0  0  0  0  0
    2.0625   -0.7250    0.0000 C   0  0  0  0  0  0  0  0  0  0  0  0
    2.4999   -1.4250    0.0000 C   0  0  0  0  0  0  0  0  0  0  0  0
    2.4999   -0.0125    0.0000 C   0  0  0  0  0  0  0  0  0  0  0  0
    1.2375   -0.7250    0.0000 C   0  0  0  0  0  0  0  0  0  0  0  0
    1.6625    0.0000    0.0000 C   0  0  0  0  0  0  0  0  0  0  0  0
    3.3125   -1.4250    0.0000 C   0  0  0  0  0  0  0  0  0  0  0  0
    3.3125   -0.0125    0.0000 C   0  0  0  0  0  0  0  0  0  0  0  0
    0.8250   -1.4375    0.0000 C   0  0  0  0  0  0  0  0  0  0  0  0
  1  8  1  0  0  0  0
  2 11  1  0  0  0  0
  3  9  1  0  0  0  0
  3 10  1  0  0  0  0
  4  5  1  0  0  0  0
  4  6  1  0  0  0  0
  4  7  1  0  0  0  0
  4  8  1  0  0  0  0
  5  9  1  0  0  0  0
  6 10  1  0  0  0  0
  7 11  1  0  0  0  0
M  END
> <PUBCHEM_COMPOUND_ID_TYPE>
0

> <PUBCHEM_TOTAL_CHARGE>
0

> <PUBCHEM_SUBSTANCE_ID>
310935378

> <PUBCHEM_SUBSTANCE_VERSION>
1

> <PUBCHEM_EXT_DATASOURCE_NAME>
4488

> <PUBCHEM_EXT_DATASOURCE_REGID>
SCHEMBL16112918

> <PUBCHEM_SUBSTANCE_COMMENT>
InChI=1S/C8H14Br2O/c9-4-1-8(7-10)2-5-11-6-3-8/h1-7H2
InChIKey=MYNMGJZGRVAGHG-UHFFFAOYSA-N

> <PUBCHEM_SUBSTANCE_SYNONYM>
SCHEMBL16112918

> <PUBCHEM_XREF_EXT_ID>
SCHEMBL16112918

> <PUBCHEM_EXT_DATASOURCE_URL>
https://www.surechembl.org/

> <PUBCHEM_EXT_SUBSTANCE_URL>
https://www.surechembl.org/chemical/SCHEMBL16112918

> <PUBCHEM_CID_ASSOCIATIONS>
117603430  1

> <PUBCHEM_COORDINATE_TYPE>
1
3

$$$$
