310931994
  -OEChem-07211613022D

 20 21  0     0  0  0  0  0  0999 V2000
    0.0000   -2.0855    0.0000 Br  0  0  0  0  0  0  0  0  0  0  0  0
    1.4438   -4.5835    0.0000 F   0  0  0  0  0  0  0  0  0  0  0  0
    2.2000   -0.7792    0.0000 O   0  0  0  0  0  0  0  0  0  0  0  0
    5.0189   -2.5209    0.0000 O   0  0  0  0  0  0  0  0  0  0  0  0
    4.3084   -1.2834    0.0000 O   0  0  0  0  0  0  0  0  0  0  0  0
    3.5522   -0.7792    0.0000 N   0  0  0  0  0  0  0  0  0  0  0  0
    2.8646   -2.0855    0.0000 C   0  0  0  0  0  0  0  0  0  0  0  0
    2.1542   -2.4980    0.0000 C   0  0  0  0  0  0  0  0  0  0  0  0
    2.8646   -1.2604    0.0000 C   0  0  0  0  0  0  0  0  0  0  0  0
    1.4438   -2.1084    0.0000 C   0  0  0  0  0  0  0  0  0  0  0  0
    2.1542   -3.3459    0.0000 C   0  0  0  0  0  0  0  0  0  0  0  0
    3.5980   -2.5209    0.0000 C   0  0  0  0  0  0  0  0  0  0  0  0
    0.7333   -2.4980    0.0000 C   0  0  0  0  0  0  0  0  0  0  0  0
    1.4438   -3.7584    0.0000 C   0  0  0  0  0  0  0  0  0  0  0  0
    0.7104   -3.3230    0.0000 C   0  0  0  0  0  0  0  0  0  0  0  0
    4.3084   -2.1084    0.0000 C   0  0  0  0  0  0  0  0  0  0  0  0
    2.4522    0.0000    0.0000 C   0  0  0  0  0  0  0  0  0  0  0  0
    3.2772    0.0000    0.0000 C   0  0  0  0  0  0  0  0  0  0  0  0
    5.7293   -2.1084    0.0000 C   0  0  0  0  0  0  0  0  0  0  0  0
    5.7293   -1.2834    0.0000 C   0  0  0  0  0  0  0  0  0  0  0  0
  1 13  1  0  0  0  0
  2 14  1  0  0  0  0
  3  9  1  0  0  0  0
  3 17  1  0  0  0  0
  4 16  1  0  0  0  0
  4 19  1  0  0  0  0
  5 16  2  0  0  0  0
  6  9  2  0  0  0  0
  6 18  1  0  0  0  0
  7  8  1  0  0  0  0
  7  9  1  0  0  0  0
  7 12  2  0  0  0  0
  8 10  1  0  0  0  0
  8 11  2  0  0  0  0
 10 13  2  0  0  0  0
 11 14  1  0  0  0  0
 12 16  1  0  0  0  0
 13 15  1  0  0  0  0
 14 15  2  0  0  0  0
 17 18  2  0  0  0  0
 19 20  1  0  0  0  0
M  END
> <PUBCHEM_COMPOUND_ID_TYPE>
0

> <PUBCHEM_TOTAL_CHARGE>
0

> <PUBCHEM_SUBSTANCE_ID>
310931994

> <PUBCHEM_SUBSTANCE_VERSION>
1

> <PUBCHEM_EXT_DATASOURCE_NAME>
4488

> <PUBCHEM_EXT_DATASOURCE_REGID>
SCHEMBL16109335

> <PUBCHEM_SUBSTANCE_COMMENT>
InChI=1S/C14H11BrFNO3/c1-2-19-13(18)8-12(14-17-3-4-20-14)9-5-10(15)7-11(16)6-9/h3-8H,2H2,1H3/b12-8-
InChIKey=DXRYLIOUEZXGHI-WQLSENKSSA-N

> <PUBCHEM_SUBSTANCE_SYNONYM>
SCHEMBL16109335

> <PUBCHEM_XREF_EXT_ID>
SCHEMBL16109335

> <PUBCHEM_EXT_DATASOURCE_URL>
https://www.surechembl.org/

> <PUBCHEM_EXT_SUBSTANCE_URL>
https://www.surechembl.org/chemical/SCHEMBL16109335

> <PUBCHEM_CID_ASSOCIATIONS>
117600636  1

> <PUBCHEM_COORDINATE_TYPE>
1
3

$$$$
