310946781
  -OEChem-07211613022D

 34 37  0     1  0  0  0  0  0999 V2000
    1.3517   -3.8148    0.0000 F   0  0  0  0  0  0  0  0  0  0  0  0
   -0.3566    2.3884    0.0000 O   0  0  0  0  0  0  0  0  0  0  0  0
   -2.5626   -2.0899    0.0000 O   0  0  0  0  0  0  0  0  0  0  0  0
    1.8493    2.4215    0.0000 O   0  0  0  0  0  0  0  0  0  0  0  0
    0.8873    3.4997    0.0000 O   0  0  0  0  0  0  0  0  0  0  0  0
   -1.0532    0.2322    0.0000 N   0  0  0  0  0  0  0  0  0  0  0  0
   -0.5556   -0.4312    0.0000 N   0  0  0  0  0  0  0  0  0  0  0  0
   -0.7878   -1.8908    0.0000 N   0  0  0  0  0  0  0  0  0  0  0  0
   -3.2757   -0.8459    0.0000 N   0  0  0  0  0  0  0  0  0  0  0  0
   -2.7118    2.0733    0.0000 N   0  0  0  0  0  0  0  0  0  0  0  0
    1.6503   -2.4050    0.0000 N   0  0  0  0  0  0  0  0  0  0  0  0
   -0.7878    1.0449    0.0000 C   0  0  3  0  0  0  0  0  0  0  0  0
   -1.8327   -0.0166    0.0000 C   0  0  0  0  0  0  0  0  0  0  0  0
   -1.8493   -0.8459    0.0000 C   0  0  0  0  0  0  0  0  0  0  0  0
   -1.0532   -1.0947    0.0000 C   0  0  0  0  0  0  0  0  0  0  0  0
   -2.5460   -1.2273    0.0000 C   0  0  0  0  0  0  0  0  0  0  0  0
   -0.9537    1.8410    0.0000 C   0  0  0  0  0  0  0  0  0  0  0  0
    0.0083    0.7795    0.0000 C   0  0  0  0  0  0  0  0  0  0  0  0
   -2.5460    0.3980    0.0000 C   0  0  0  0  0  0  0  0  0  0  0  0
   -1.5840    0.8293    0.0000 C   0  0  0  0  0  0  0  0  0  0  0  0
    0.4395    2.1562    0.0000 C   0  0  3  0  0  0  0  0  0  0  0  0
    0.6220    1.3269    0.0000 C   0  0  0  0  0  0  0  0  0  0  0  0
   -3.2591    0.0000    0.0000 C   0  0  0  0  0  0  0  0  0  0  0  0
    0.0249   -2.0567    0.0000 C   0  0  0  0  0  0  0  0  0  0  0  0
    1.0698    2.6703    0.0000 C   0  0  0  0  0  0  0  0  0  0  0  0
   -2.1479    1.4430    0.0000 C   0  0  0  0  0  0  0  0  0  0  0  0
    0.2902   -2.8362    0.0000 C   0  0  0  0  0  0  0  0  0  0  0  0
    0.5722   -1.4430    0.0000 C   0  0  0  0  0  0  0  0  0  0  0  0
    1.0864   -3.0187    0.0000 C   0  0  0  0  0  0  0  0  0  0  0  0
    2.4796    3.0021    0.0000 C   0  0  0  0  0  0  0  0  0  0  0  0
    1.4015   -1.6255    0.0000 C   0  0  0  0  0  0  0  0  0  0  0  0
    2.3137    3.8148    0.0000 C   0  0  0  0  0  0  0  0  0  0  0  0
    3.1099    3.5162    0.0000 C   0  0  0  0  0  0  0  0  0  0  0  0
    3.2757    2.7367    0.0000 C   0  0  0  0  0  0  0  0  0  0  0  0
  1 29  1  0  0  0  0
  2 17  1  0  0  0  0
  2 21  1  0  0  0  0
  3 16  2  0  0  0  0
  4 25  1  0  0  0  0
  4 30  1  0  0  0  0
  5 25  2  0  0  0  0
  6  7  1  0  0  0  0
  6 12  1  0  0  0  0
  6 13  1  0  0  0  0
  7 15  2  0  0  0  0
  8 15  1  0  0  0  0
  8 24  1  0  0  0  0
  9 16  1  0  0  0  0
  9 23  1  0  0  0  0
 10 26  3  0  0  0  0
 11 29  2  0  0  0  0
 11 31  1  0  0  0  0
 12 17  1  0  0  0  0
 12 18  1  0  0  0  0
 12 20  1  6  0  0  0
 13 14  2  0  0  0  0
 13 19  1  0  0  0  0
 14 15  1  0  0  0  0
 14 16  1  0  0  0  0
 18 22  1  0  0  0  0
 19 23  2  0  0  0  0
 20 26  1  0  0  0  0
 21 22  1  0  0  0  0
 21 25  1  6  0  0  0
 24 27  2  0  0  0  0
 24 28  1  0  0  0  0
 27 29  1  0  0  0  0
 28 31  2  0  0  0  0
 30 32  1  0  0  0  0
 30 33  1  0  0  0  0
 30 34  1  0  0  0  0
M  END
> <PUBCHEM_COMPOUND_ID_TYPE>
0

> <PUBCHEM_TOTAL_CHARGE>
0

> <PUBCHEM_SUBSTANCE_ID>
310946781

> <PUBCHEM_SUBSTANCE_VERSION>
1

> <PUBCHEM_EXT_DATASOURCE_NAME>
4488

> <PUBCHEM_EXT_DATASOURCE_REGID>
SCHEMBL16124905

> <PUBCHEM_SUBSTANCE_COMMENT>
InChI=1S/C23H25FN6O4/c1-22(2,3)34-21(32)16-4-7-23(8-9-25,13-33-16)30-15-6-11-27-20(31)18(15)19(29-30)28-14-5-10-26-17(24)12-14/h5-6,10-12,16H,4,7-8,13H2,1-3H3,(H,27,31)(H,26,28,29)/t16-,23-/m0/s1
InChIKey=HNZKLAYIYJMAQL-HJPURHCSSA-N

> <PUBCHEM_SUBSTANCE_SYNONYM>
SCHEMBL16124905

> <PUBCHEM_XREF_EXT_ID>
SCHEMBL16124905

> <PUBCHEM_EXT_DATASOURCE_URL>
https://www.surechembl.org/

> <PUBCHEM_EXT_SUBSTANCE_URL>
https://www.surechembl.org/chemical/SCHEMBL16124905

> <PUBCHEM_CID_ASSOCIATIONS>
117612643  1

> <PUBCHEM_COORDINATE_TYPE>
1
3

> <PUBCHEM_BONDANNOTATIONS>
12  20  6
21  25  6

$$$$
