310934217
  -OEChem-07211613022D

 21 22  0     1  0  0  0  0  0999 V2000
    1.7798    1.0799    0.0000 S   0  0  0  0  0  0  0  0  0  0  0  0
    3.2789   -1.2375    0.0000 F   0  0  0  0  0  0  0  0  0  0  0  0
    6.1368    2.0625    0.0000 F   0  0  0  0  0  0  0  0  0  0  0  0
    5.0098    2.3645    0.0000 F   0  0  0  0  0  0  0  0  0  0  0  0
    5.8348    0.9355    0.0000 F   0  0  0  0  0  0  0  0  0  0  0  0
    3.2789    1.2375    0.0000 O   0  0  0  0  0  0  0  0  0  0  0  0
    4.2954    1.9520    0.0000 O   0  0  0  0  0  0  0  0  0  0  0  0
    4.7079   -0.4125    0.0000 O   0  0  0  0  0  0  0  0  0  0  0  0
    1.7798   -0.2549    0.0000 N   0  0  0  0  0  0  0  0  0  0  0  0
    0.4699    0.4125    0.0000 N   0  0  0  0  0  0  0  0  0  0  0  0
    4.7079    1.2375    0.0000 C   0  0  3  0  0  0  0  0  0  0  0  0
    3.9934    0.8250    0.0000 C   0  0  3  0  0  0  0  0  0  0  0  0
    2.5645    0.0000    0.0000 C   0  0  3  0  0  0  0  0  0  0  0  0
    3.9934    0.0000    0.0000 C   0  0  3  0  0  0  0  0  0  0  0  0
    2.5645    0.8250    0.0000 C   0  0  3  0  0  0  0  0  0  0  0  0
    3.2789   -0.4125    0.0000 C   0  0  3  0  0  0  0  0  0  0  0  0
    5.4223    1.6500    0.0000 C   0  0  0  0  0  0  0  0  0  0  0  0
    1.2949    0.4125    0.0000 C   0  0  0  0  0  0  0  0  0  0  0  0
    5.1204    0.5230    0.0000 C   0  0  0  0  0  0  0  0  0  0  0  0
    0.0574   -0.3020    0.0000 C   0  0  0  0  0  0  0  0  0  0  0  0
   -0.7676   -0.3020    0.0000 C   0  0  0  0  0  0  0  0  0  0  0  0
 15  1  1  1  0  0  0
  1 18  1  0  0  0  0
 16  2  1  6  0  0  0
  3 17  1  0  0  0  0
  4 17  1  0  0  0  0
  5 17  1  0  0  0  0
  6 12  1  0  0  0  0
  6 15  1  0  0  0  0
  7 11  1  0  0  0  0
 14  8  1  1  0  0  0
 13  9  1  1  0  0  0
  9 18  2  0  0  0  0
 10 18  1  0  0  0  0
 10 20  1  0  0  0  0
 12 11  1  6  0  0  0
 11 17  1  0  0  0  0
 11 19  1  0  0  0  0
 12 14  1  0  0  0  0
 13 15  1  0  0  0  0
 13 16  1  0  0  0  0
 14 16  1  0  0  0  0
 20 21  1  0  0  0  0
M  END
> <PUBCHEM_COMPOUND_ID_TYPE>
0

> <PUBCHEM_TOTAL_CHARGE>
0

> <PUBCHEM_SUBSTANCE_ID>
310934217

> <PUBCHEM_SUBSTANCE_VERSION>
1

> <PUBCHEM_EXT_DATASOURCE_NAME>
4488

> <PUBCHEM_EXT_DATASOURCE_REGID>
SCHEMBL16111672

> <PUBCHEM_SUBSTANCE_COMMENT>
InChI=1S/C11H16F4N2O3S/c1-3-16-9-17-5-4(12)6(18)7(20-8(5)21-9)10(2,19)11(13,14)15/h4-8,18-19H,3H2,1-2H3,(H,16,17)/t4-,5-,6+,7+,8-,10?/m1/s1
InChIKey=LLQTVHWNSYQLHR-GUYPXRTISA-N

> <PUBCHEM_SUBSTANCE_SYNONYM>
SCHEMBL16111672

> <PUBCHEM_XREF_EXT_ID>
SCHEMBL16111672

> <PUBCHEM_EXT_DATASOURCE_URL>
https://www.surechembl.org/

> <PUBCHEM_EXT_SUBSTANCE_URL>
https://www.surechembl.org/chemical/SCHEMBL16111672

> <PUBCHEM_CID_ASSOCIATIONS>
117602480  1

> <PUBCHEM_COORDINATE_TYPE>
1
3

> <PUBCHEM_BONDANNOTATIONS>
15  1  5
12  11  6
16  2  6
14  8  5
13  9  5

$$$$
