310938457
  -OEChem-07211613022D

 16 17  0     0  0  0  0  0  0999 V2000
    5.3410   -1.4790    0.0000 O   0  0  0  0  0  0  0  0  0  0  0  0
    5.3410   -2.9170    0.0000 O   0  0  0  0  0  0  0  0  0  0  0  0
    0.0000   -1.4790    0.0000 O   0  0  0  0  0  0  0  0  0  0  0  0
    3.6360   -2.8759    0.0000 N   0  0  0  0  0  0  0  0  0  0  0  0
    0.8628   -0.3492    0.0000 N   0  0  0  0  0  0  0  0  0  0  0  0
    2.8554   -1.7872    0.0000 C   0  0  0  0  0  0  0  0  0  0  0  0
    2.1775   -1.3147    0.0000 C   0  0  0  0  0  0  0  0  0  0  0  0
    4.1084   -2.1980    0.0000 C   0  0  0  0  0  0  0  0  0  0  0  0
    3.6360   -1.5201    0.0000 C   0  0  0  0  0  0  0  0  0  0  0  0
    2.8554   -2.6089    0.0000 C   0  0  0  0  0  0  0  0  0  0  0  0
    4.9302   -2.1980    0.0000 C   0  0  0  0  0  0  0  0  0  0  0  0
    1.4380   -1.6639    0.0000 C   0  0  0  0  0  0  0  0  0  0  0  0
    2.2802   -0.5136    0.0000 C   0  0  0  0  0  0  0  0  0  0  0  0
    0.7601   -1.1504    0.0000 C   0  0  0  0  0  0  0  0  0  0  0  0
    1.6023    0.0000    0.0000 C   0  0  0  0  0  0  0  0  0  0  0  0
    6.1627   -1.4790    0.0000 C   0  0  0  0  0  0  0  0  0  0  0  0
  1 11  1  0  0  0  0
  1 16  1  0  0  0  0
  2 11  2  0  0  0  0
  3 14  1  0  0  0  0
  4  8  1  0  0  0  0
  4 10  1  0  0  0  0
  5 14  1  0  0  0  0
  5 15  2  0  0  0  0
  6  7  1  0  0  0  0
  6  9  1  0  0  0  0
  6 10  2  0  0  0  0
  7 12  1  0  0  0  0
  7 13  2  0  0  0  0
  8  9  2  0  0  0  0
  8 11  1  0  0  0  0
 12 14  2  0  0  0  0
 13 15  1  0  0  0  0
M  END
> <PUBCHEM_COMPOUND_ID_TYPE>
0

> <PUBCHEM_TOTAL_CHARGE>
0

> <PUBCHEM_SUBSTANCE_ID>
310938457

> <PUBCHEM_SUBSTANCE_VERSION>
1

> <PUBCHEM_EXT_DATASOURCE_NAME>
4488

> <PUBCHEM_EXT_DATASOURCE_REGID>
SCHEMBL16116358

> <PUBCHEM_SUBSTANCE_COMMENT>
InChI=1S/C11H10N2O3/c1-16-11(15)9-4-8(6-13-9)7-2-3-12-10(14)5-7/h2-6,13H,1H3,(H,12,14)
InChIKey=CSYXITGFSFNTKN-UHFFFAOYSA-N

> <PUBCHEM_SUBSTANCE_SYNONYM>
SCHEMBL16116358

> <PUBCHEM_XREF_EXT_ID>
SCHEMBL16116358

> <PUBCHEM_EXT_DATASOURCE_URL>
https://www.surechembl.org/

> <PUBCHEM_EXT_SUBSTANCE_URL>
https://www.surechembl.org/chemical/SCHEMBL16116358

> <PUBCHEM_CID_ASSOCIATIONS>
117605918  1

> <PUBCHEM_COORDINATE_TYPE>
1
3

$$$$
