310943000
  -OEChem-07211613022D

 25 28  0     0  0  0  0  0  0999 V2000
   -0.2917   -1.1064    0.0000 F   0  0  0  0  0  0  0  0  0  0  0  0
   -1.6194    1.1467    0.0000 F   0  0  0  0  0  0  0  0  0  0  0  0
    1.1568    1.9112    0.0000 O   0  0  0  0  0  0  0  0  0  0  0  0
    2.6253    1.9112    0.0000 O   0  0  0  0  0  0  0  0  0  0  0  0
    3.2087    0.9053    0.0000 O   0  0  0  0  0  0  0  0  0  0  0  0
    1.1768   -0.4426    0.0000 N   0  0  0  0  0  0  0  0  0  0  0  0
   -3.2087   -1.2875    0.0000 N   0  0  0  0  0  0  0  0  0  0  0  0
    0.4325    0.0201    0.0000 C   0  0  0  0  0  0  0  0  0  0  0  0
    0.4527    0.8449    0.0000 C   0  0  0  0  0  0  0  0  0  0  0  0
   -0.2917   -0.4024    0.0000 C   0  0  0  0  0  0  0  0  0  0  0  0
   -1.0361    0.0201    0.0000 C   0  0  0  0  0  0  0  0  0  0  0  0
    1.1568    1.2473    0.0000 C   0  0  0  0  0  0  0  0  0  0  0  0
    1.1768   -1.2673    0.0000 C   0  0  0  0  0  0  0  0  0  0  0  0
    1.9212    0.8449    0.0000 C   0  0  0  0  0  0  0  0  0  0  0  0
   -1.0159    0.8449    0.0000 C   0  0  0  0  0  0  0  0  0  0  0  0
    1.8810    0.0000    0.0000 C   0  0  0  0  0  0  0  0  0  0  0  0
   -0.3118    1.2473    0.0000 C   0  0  0  0  0  0  0  0  0  0  0  0
   -1.7602   -0.4024    0.0000 C   0  0  0  0  0  0  0  0  0  0  0  0
    0.7745   -1.9112    0.0000 C   0  0  0  0  0  0  0  0  0  0  0  0
    1.5591   -1.8910    0.0000 C   0  0  0  0  0  0  0  0  0  0  0  0
    2.6253    1.2473    0.0000 C   0  0  0  0  0  0  0  0  0  0  0  0
   -2.5046    0.0000    0.0000 C   0  0  0  0  0  0  0  0  0  0  0  0
   -1.7602   -1.2673    0.0000 C   0  0  0  0  0  0  0  0  0  0  0  0
   -3.2087   -0.4024    0.0000 C   0  0  0  0  0  0  0  0  0  0  0  0
   -2.5046   -1.6697    0.0000 C   0  0  0  0  0  0  0  0  0  0  0  0
  1 10  1  0  0  0  0
  2 15  1  0  0  0  0
  3 12  2  0  0  0  0
  4 21  2  0  0  0  0
  5 21  1  0  0  0  0
  6  8  1  0  0  0  0
  6 13  1  0  0  0  0
  6 16  1  0  0  0  0
  7 24  2  0  0  0  0
  7 25  1  0  0  0  0
  8  9  2  0  0  0  0
  8 10  1  0  0  0  0
  9 12  1  0  0  0  0
  9 17  1  0  0  0  0
 10 11  2  0  0  0  0
 11 15  1  0  0  0  0
 11 18  1  0  0  0  0
 12 14  1  0  0  0  0
 13 19  1  0  0  0  0
 13 20  1  0  0  0  0
 14 16  2  0  0  0  0
 14 21  1  0  0  0  0
 15 17  2  0  0  0  0
 18 22  2  0  0  0  0
 18 23  1  0  0  0  0
 19 20  1  0  0  0  0
 22 24  1  0  0  0  0
 23 25  2  0  0  0  0
M  END
> <PUBCHEM_COMPOUND_ID_TYPE>
0

> <PUBCHEM_TOTAL_CHARGE>
0

> <PUBCHEM_SUBSTANCE_ID>
310943000

> <PUBCHEM_SUBSTANCE_VERSION>
1

> <PUBCHEM_EXT_DATASOURCE_NAME>
4488

> <PUBCHEM_EXT_DATASOURCE_REGID>
SCHEMBL16121059

> <PUBCHEM_SUBSTANCE_COMMENT>
InChI=1S/C18H12F2N2O3/c19-13-7-11-16(15(20)14(13)9-3-5-21-6-4-9)22(10-1-2-10)8-12(17(11)23)18(24)25/h3-8,10H,1-2H2,(H,24,25)
InChIKey=HFRJZHBLHFAUHM-UHFFFAOYSA-N

> <PUBCHEM_SUBSTANCE_SYNONYM>
SCHEMBL16121059

> <PUBCHEM_XREF_EXT_ID>
SCHEMBL16121059

> <PUBCHEM_EXT_DATASOURCE_URL>
https://www.surechembl.org/

> <PUBCHEM_EXT_SUBSTANCE_URL>
https://www.surechembl.org/chemical/SCHEMBL16121059

> <PUBCHEM_CID_ASSOCIATIONS>
14969602  1

> <PUBCHEM_COORDINATE_TYPE>
1
3

$$$$
