310942277
  -OEChem-07211613022D

 29 31  0     1  0  0  0  0  0999 V2000
    1.2311    0.8624    0.0000 Cl  0  0  0  0  0  0  0  0  0  0  0  0
    2.7184   -0.7249    0.0000 S   0  0  0  0  0  0  0  0  0  0  0  0
   -0.2062   -1.6372    0.0000 F   0  0  0  0  0  0  0  0  0  0  0  0
    1.2311   -0.8124    0.0000 O   0  0  0  0  0  0  0  0  0  0  0  0
   -3.7557   -0.3750    0.0000 O   0  0  0  0  0  0  0  0  0  0  0  0
    2.0559    0.4374    0.0000 N   0  0  0  0  0  0  0  0  0  0  0  0
   -2.3684   -0.3875    0.0000 N   0  0  0  0  0  0  0  0  0  0  0  0
    4.5307    2.0497    0.0000 N   0  0  0  0  0  0  0  0  0  0  0  0
   -4.5307    0.8499    0.0000 N   0  0  0  0  0  0  0  0  0  0  0  0
    0.5062   -0.3750    0.0000 C   0  0  0  0  0  0  0  0  0  0  0  0
   -0.2062   -0.7999    0.0000 C   0  0  0  0  0  0  0  0  0  0  0  0
    1.9559   -0.3875    0.0000 C   0  0  0  0  0  0  0  0  0  0  0  0
    2.8684    0.6249    0.0000 C   0  0  0  0  0  0  0  0  0  0  0  0
   -0.9311   -0.3875    0.0000 C   0  0  0  0  0  0  0  0  0  0  0  0
    3.2808   -0.0875    0.0000 C   0  0  0  0  0  0  0  0  0  0  0  0
    0.5187    0.4499    0.0000 C   0  0  0  0  0  0  0  0  0  0  0  0
   -1.6436   -0.7999    0.0000 C   0  0  3  0  0  0  0  0  0  0  0  0
   -0.9187    0.4374    0.0000 C   0  0  0  0  0  0  0  0  0  0  0  0
   -0.2062    0.8499    0.0000 C   0  0  0  0  0  0  0  0  0  0  0  0
    3.2808    1.3249    0.0000 C   0  0  0  0  0  0  0  0  0  0  0  0
    4.1182   -0.1000    0.0000 C   0  0  0  0  0  0  0  0  0  0  0  0
    4.1057    1.3373    0.0000 C   0  0  0  0  0  0  0  0  0  0  0  0
    4.5182    0.6124    0.0000 C   0  0  0  0  0  0  0  0  0  0  0  0
   -1.6436   -1.6372    0.0000 C   0  0  0  0  0  0  0  0  0  0  0  0
   -2.3684    0.4499    0.0000 C   0  0  3  0  0  0  0  0  0  0  0  0
   -3.0808    0.8624    0.0000 C   0  0  0  0  0  0  0  0  0  0  0  0
   -0.9311   -2.0497    0.0000 C   0  0  0  0  0  0  0  0  0  0  0  0
   -1.6561    0.8624    0.0000 C   0  0  0  0  0  0  0  0  0  0  0  0
   -3.8057    0.4374    0.0000 C   0  0  0  0  0  0  0  0  0  0  0  0
  1 16  1  0  0  0  0
  2 12  1  0  0  0  0
  2 15  1  0  0  0  0
  3 11  1  0  0  0  0
  4 10  1  0  0  0  0
  4 12  1  0  0  0  0
  5 29  2  0  0  0  0
  6 12  2  0  0  0  0
  6 13  1  0  0  0  0
 17  7  1  1  0  0  0
  7 25  1  0  0  0  0
  8 22  1  0  0  0  0
  9 29  1  0  0  0  0
 10 11  2  0  0  0  0
 10 16  1  0  0  0  0
 11 14  1  0  0  0  0
 13 15  2  0  0  0  0
 13 20  1  0  0  0  0
 14 17  1  0  0  0  0
 14 18  2  0  0  0  0
 15 21  1  0  0  0  0
 16 19  2  0  0  0  0
 17 24  1  0  0  0  0
 18 19  1  0  0  0  0
 20 22  2  0  0  0  0
 21 23  2  0  0  0  0
 22 23  1  0  0  0  0
 24 27  1  0  0  0  0
 25 26  1  0  0  0  0
 25 28  1  0  0  0  0
 26 29  1  0  0  0  0
M  END
> <PUBCHEM_COMPOUND_ID_TYPE>
0

> <PUBCHEM_TOTAL_CHARGE>
0

> <PUBCHEM_SUBSTANCE_ID>
310942277

> <PUBCHEM_SUBSTANCE_VERSION>
1

> <PUBCHEM_EXT_DATASOURCE_NAME>
4488

> <PUBCHEM_EXT_DATASOURCE_REGID>
SCHEMBL16120312

> <PUBCHEM_SUBSTANCE_COMMENT>
InChI=1S/C20H22ClFN4O2S/c1-3-14(25-10(2)8-17(24)27)12-5-6-13(21)19(18(12)22)28-20-26-15-9-11(23)4-7-16(15)29-20/h4-7,9-10,14,25H,3,8,23H2,1-2H3,(H2,24,27)/t10?,14-/m1/s1
InChIKey=QKYGUJDZNYWDMZ-LNUXAPHWSA-N

> <PUBCHEM_SUBSTANCE_SYNONYM>
SCHEMBL16120312

> <PUBCHEM_XREF_EXT_ID>
SCHEMBL16120312

> <PUBCHEM_EXT_DATASOURCE_URL>
https://www.surechembl.org/

> <PUBCHEM_EXT_SUBSTANCE_URL>
https://www.surechembl.org/chemical/SCHEMBL16120312

> <PUBCHEM_CID_ASSOCIATIONS>
117608926  1

> <PUBCHEM_COORDINATE_TYPE>
1
3

> <PUBCHEM_BONDANNOTATIONS>
17  7  5

$$$$
