310943229
  -OEChem-07211613022D

 17 19  0     1  0  0  0  0  0999 V2000
    1.6790   -2.0423    0.0000 Br  0  0  0  0  0  0  0  0  0  0  0  0
    0.2455    2.0423    0.0000 O   0  0  0  0  0  0  0  0  0  0  0  0
    0.2651    0.4124    0.0000 N   0  0  0  0  0  0  0  0  0  0  0  0
    0.9720   -0.8051    0.0000 N   0  0  0  0  0  0  0  0  0  0  0  0
   -1.2273   -0.5498    0.0000 N   0  0  0  0  0  0  0  0  0  0  0  0
   -1.2273   -1.8851    0.0000 N   0  0  0  0  0  0  0  0  0  0  0  0
    0.2455   -0.3928    0.0000 C   0  0  0  0  0  0  0  0  0  0  0  0
   -0.4418   -0.8051    0.0000 C   0  0  0  0  0  0  0  0  0  0  0  0
   -0.4614   -1.6299    0.0000 C   0  0  0  0  0  0  0  0  0  0  0  0
    0.9524   -1.6103    0.0000 C   0  0  0  0  0  0  0  0  0  0  0  0
    0.9524    0.8444    0.0000 C   0  0  3  0  0  0  0  0  0  0  0  0
    0.2847   -2.0226    0.0000 C   0  0  0  0  0  0  0  0  0  0  0  0
   -0.4418    0.8248    0.0000 C   0  0  0  0  0  0  0  0  0  0  0  0
   -1.6986   -1.2371    0.0000 C   0  0  0  0  0  0  0  0  0  0  0  0
    0.9720    1.6495    0.0000 C   0  0  0  0  0  0  0  0  0  0  0  0
   -0.4222    1.6692    0.0000 C   0  0  0  0  0  0  0  0  0  0  0  0
    1.6986    0.4320    0.0000 C   0  0  0  0  0  0  0  0  0  0  0  0
  1 10  1  0  0  0  0
  2 15  1  0  0  0  0
  2 16  1  0  0  0  0
  3  7  1  0  0  0  0
  3 11  1  0  0  0  0
  3 13  1  0  0  0  0
  4  7  2  0  0  0  0
  4 10  1  0  0  0  0
  5  8  1  0  0  0  0
  5 14  2  0  0  0  0
  6  9  1  0  0  0  0
  6 14  1  0  0  0  0
  7  8  1  0  0  0  0
  8  9  2  0  0  0  0
  9 12  1  0  0  0  0
 10 12  2  0  0  0  0
 11 15  1  0  0  0  0
 11 17  1  1  0  0  0
 13 16  1  0  0  0  0
M  END
> <PUBCHEM_COMPOUND_ID_TYPE>
0

> <PUBCHEM_TOTAL_CHARGE>
0

> <PUBCHEM_SUBSTANCE_ID>
310943229

> <PUBCHEM_SUBSTANCE_VERSION>
1

> <PUBCHEM_EXT_DATASOURCE_NAME>
4488

> <PUBCHEM_EXT_DATASOURCE_REGID>
SCHEMBL16121290

> <PUBCHEM_SUBSTANCE_COMMENT>
InChI=1S/C11H13BrN4O/c1-7-5-17-3-2-16(7)11-10-8(13-6-14-10)4-9(12)15-11/h4,6-7H,2-3,5H2,1H3,(H,13,14)/t7-/m1/s1
InChIKey=DUCPYSHRTIMLRX-SSDOTTSWSA-N

> <PUBCHEM_SUBSTANCE_SYNONYM>
SCHEMBL16121290

> <PUBCHEM_XREF_EXT_ID>
SCHEMBL16121290

> <PUBCHEM_EXT_DATASOURCE_URL>
https://www.surechembl.org/

> <PUBCHEM_EXT_SUBSTANCE_URL>
https://www.surechembl.org/chemical/SCHEMBL16121290

> <PUBCHEM_CID_ASSOCIATIONS>
117609654  1

> <PUBCHEM_COORDINATE_TYPE>
1
3

> <PUBCHEM_BONDANNOTATIONS>
11  17  5

$$$$
