310944144
  -OEChem-07211613022D

 31 35  0     0  0  0  0  0  0999 V2000
    2.4850   -0.0552    0.0000 O   0  0  0  0  0  0  0  0  0  0  0  0
    5.0140   -1.6235    0.0000 O   0  0  0  0  0  0  0  0  0  0  0  0
    5.4890   -0.2319    0.0000 O   0  0  0  0  0  0  0  0  0  0  0  0
    2.8715   -1.4799    0.0000 N   0  0  0  0  0  0  0  0  0  0  0  0
    0.1215   -0.3645    0.0000 N   0  0  0  0  0  0  0  0  0  0  0  0
   -4.1858    1.2811    0.0000 N   0  0  0  0  0  0  0  0  0  0  0  0
   -2.0321    0.8725    0.0000 N   0  0  0  0  0  0  0  0  0  0  0  0
   -4.2631    2.0984    0.0000 N   0  0  0  0  0  0  0  0  0  0  0  0
   -5.0693    2.2641    0.0000 N   0  0  0  0  0  0  0  0  0  0  0  0
   -5.4890    1.5462    0.0000 N   0  0  0  0  0  0  0  0  0  0  0  0
    1.5462   -1.1817    0.0000 C   0  0  0  0  0  0  0  0  0  0  0  0
    2.2973   -0.8725    0.0000 C   0  0  0  0  0  0  0  0  0  0  0  0
    3.6999   -1.3805    0.0000 C   0  0  0  0  0  0  0  0  0  0  0  0
    1.5572   -1.9990    0.0000 C   0  0  0  0  0  0  0  0  0  0  0  0
    2.3414   -2.2641    0.0000 C   0  0  0  0  0  0  0  0  0  0  0  0
    0.8284   -1.5904    0.0000 C   0  0  0  0  0  0  0  0  0  0  0  0
    1.5572   -0.3645    0.0000 C   0  0  0  0  0  0  0  0  0  0  0  0
    4.0864   -0.6516    0.0000 C   0  0  0  0  0  0  0  0  0  0  0  0
    4.2741   -1.9769    0.0000 C   0  0  0  0  0  0  0  0  0  0  0  0
    4.8815   -0.8173    0.0000 C   0  0  0  0  0  0  0  0  0  0  0  0
    0.1215   -1.1817    0.0000 C   0  0  0  0  0  0  0  0  0  0  0  0
    0.8284    0.0442    0.0000 C   0  0  0  0  0  0  0  0  0  0  0  0
    3.7330    0.0994    0.0000 C   0  0  0  0  0  0  0  0  0  0  0  0
   -0.6074    0.0442    0.0000 C   0  0  0  0  0  0  0  0  0  0  0  0
   -3.4568    0.8836    0.0000 C   0  0  0  0  0  0  0  0  0  0  0  0
   -2.0431    0.0552    0.0000 C   0  0  0  0  0  0  0  0  0  0  0  0
   -1.3033   -0.3534    0.0000 C   0  0  0  0  0  0  0  0  0  0  0  0
   -2.7500    1.2811    0.0000 C   0  0  0  0  0  0  0  0  0  0  0  0
   -3.4679    0.0552    0.0000 C   0  0  0  0  0  0  0  0  0  0  0  0
   -2.7390   -0.3534    0.0000 C   0  0  0  0  0  0  0  0  0  0  0  0
   -4.9257    0.9608    0.0000 C   0  0  0  0  0  0  0  0  0  0  0  0
  1 12  2  0  0  0  0
  2 19  1  0  0  0  0
  2 20  1  0  0  0  0
  3 20  2  0  0  0  0
  4 12  1  0  0  0  0
  4 13  1  0  0  0  0
  4 15  1  0  0  0  0
  5 21  1  0  0  0  0
  5 22  1  0  0  0  0
  5 24  1  0  0  0  0
  6  8  1  0  0  0  0
  6 25  1  0  0  0  0
  6 31  1  0  0  0  0
  7 26  1  0  0  0  0
  7 28  2  0  0  0  0
  8  9  2  0  0  0  0
  9 10  1  0  0  0  0
 10 31  2  0  0  0  0
 11 12  1  0  0  0  0
 11 14  1  0  0  0  0
 11 16  1  0  0  0  0
 11 17  1  0  0  0  0
 13 18  2  0  0  0  0
 13 19  1  0  0  0  0
 14 15  1  0  0  0  0
 16 21  1  0  0  0  0
 17 22  1  0  0  0  0
 18 20  1  0  0  0  0
 18 23  1  0  0  0  0
 24 27  1  0  0  0  0
 25 28  1  0  0  0  0
 25 29  2  0  0  0  0
 26 27  1  0  0  0  0
 26 30  2  0  0  0  0
 29 30  1  0  0  0  0
M  END
> <PUBCHEM_COMPOUND_ID_TYPE>
0

> <PUBCHEM_TOTAL_CHARGE>
0

> <PUBCHEM_SUBSTANCE_ID>
310944144

> <PUBCHEM_SUBSTANCE_VERSION>
1

> <PUBCHEM_EXT_DATASOURCE_NAME>
4488

> <PUBCHEM_EXT_DATASOURCE_REGID>
SCHEMBL16122219

> <PUBCHEM_SUBSTANCE_COMMENT>
InChI=1S/C21H25N7O3/c1-15-18(13-31-19(15)29)27-11-7-21(20(27)30)5-9-26(10-6-21)8-4-16-2-3-17(12-22-16)28-14-23-24-25-28/h2-3,12,14H,4-11,13H2,1H3
InChIKey=IVDZLTAXHDETQY-UHFFFAOYSA-N

> <PUBCHEM_SUBSTANCE_SYNONYM>
SCHEMBL16122219

> <PUBCHEM_XREF_EXT_ID>
SCHEMBL16122219

> <PUBCHEM_EXT_DATASOURCE_URL>
https://www.surechembl.org/

> <PUBCHEM_EXT_SUBSTANCE_URL>
https://www.surechembl.org/chemical/SCHEMBL16122219

> <PUBCHEM_CID_ASSOCIATIONS>
117610425  1

> <PUBCHEM_COORDINATE_TYPE>
1
3

$$$$
