310942698
  -OEChem-07211613022D

 41 43  0     0  0  0  0  0  0999 V2000
   -1.5015    1.6706    0.0000 Cl  0  0  0  0  0  0  0  0  0  0  0  0
   -4.3775    1.6706    0.0000 Cl  0  0  0  0  0  0  0  0  0  0  0  0
    1.6495    1.6284    0.0000 S   0  0  0  0  0  0  0  0  0  0  0  0
    3.9757    0.6344    0.0000 S   0  0  0  0  0  0  0  0  0  0  0  0
    1.6495   -0.0212    0.0000 F   0  0  0  0  0  0  0  0  0  0  0  0
    2.0090    0.9094    0.0000 O   0  0  0  0  0  0  0  0  0  0  0  0
    1.2265    2.3685    0.0000 O   0  0  0  0  0  0  0  0  0  0  0  0
    3.0875    3.2778    0.0000 O   0  0  0  0  0  0  0  0  0  0  0  0
   -1.2477    0.0000    0.0000 O   0  0  0  0  0  0  0  0  0  0  0  0
    1.6284    3.3201    0.0000 O   0  0  0  0  0  0  0  0  0  0  0  0
   -1.2900   -4.9907    0.0000 O   0  0  0  0  0  0  0  0  0  0  0  0
    2.3685    2.0513    0.0000 N   0  0  0  0  0  0  0  0  0  0  0  0
    3.8276    1.9667    0.0000 N   0  0  0  0  0  0  0  0  0  0  0  0
   -1.2477   -2.4743    0.0000 N   0  0  0  0  0  0  0  0  0  0  0  0
    0.1692   -4.9907    0.0000 N   0  0  0  0  0  0  0  0  0  0  0  0
    0.9094    1.2688    0.0000 C   0  0  0  0  0  0  0  0  0  0  0  0
    0.8882    0.4441    0.0000 C   0  0  0  0  0  0  0  0  0  0  0  0
    3.0664    1.6706    0.0000 C   0  0  0  0  0  0  0  0  0  0  0  0
    2.3685    2.8972    0.0000 C   0  0  0  0  0  0  0  0  0  0  0  0
    0.1692    1.6706    0.0000 C   0  0  0  0  0  0  0  0  0  0  0  0
   -0.5498    0.4441    0.0000 C   0  0  0  0  0  0  0  0  0  0  0  0
   -0.5286    1.2688    0.0000 C   0  0  0  0  0  0  0  0  0  0  0  0
    0.1904    0.0423    0.0000 C   0  0  0  0  0  0  0  0  0  0  0  0
    3.1509    0.8459    0.0000 C   0  0  0  0  0  0  0  0  0  0  0  0
   -1.9878    0.4441    0.0000 C   0  0  0  0  0  0  0  0  0  0  0  0
    3.0664    4.1660    0.0000 C   0  0  0  0  0  0  0  0  0  0  0  0
    4.3775    1.3745    0.0000 C   0  0  0  0  0  0  0  0  0  0  0  0
   -2.6857    0.0423    0.0000 C   0  0  0  0  0  0  0  0  0  0  0  0
   -1.9878    1.2688    0.0000 C   0  0  0  0  0  0  0  0  0  0  0  0
   -3.4047    0.4653    0.0000 C   0  0  0  0  0  0  0  0  0  0  0  0
   -3.4047    1.2900    0.0000 C   0  0  0  0  0  0  0  0  0  0  0  0
   -2.6857    1.6706    0.0000 C   0  0  0  0  0  0  0  0  0  0  0  0
    3.0875    4.9907    0.0000 C   0  0  0  0  0  0  0  0  0  0  0  0
    2.2416    4.1237    0.0000 C   0  0  0  0  0  0  0  0  0  0  0  0
    3.9334    4.1449    0.0000 C   0  0  0  0  0  0  0  0  0  0  0  0
   -2.6857   -0.8036    0.0000 C   0  0  0  0  0  0  0  0  0  0  0  0
   -1.9878   -1.2265    0.0000 C   0  0  0  0  0  0  0  0  0  0  0  0
   -1.9878   -2.0302    0.0000 C   0  0  0  0  0  0  0  0  0  0  0  0
   -1.2688   -3.2778    0.0000 C   0  0  0  0  0  0  0  0  0  0  0  0
   -0.5498   -3.7219    0.0000 C   0  0  0  0  0  0  0  0  0  0  0  0
   -0.5710   -4.5255    0.0000 C   0  0  0  0  0  0  0  0  0  0  0  0
  1 22  1  0  0  0  0
  2 31  1  0  0  0  0
  3  6  2  0  0  0  0
  3  7  2  0  0  0  0
  3 12  1  0  0  0  0
  3 16  1  0  0  0  0
  4 24  1  0  0  0  0
  4 27  1  0  0  0  0
  5 17  1  0  0  0  0
  8 19  1  0  0  0  0
  8 26  1  0  0  0  0
  9 21  1  0  0  0  0
  9 25  1  0  0  0  0
 10 19  2  0  0  0  0
 11 41  2  0  0  0  0
 12 18  1  0  0  0  0
 12 19  1  0  0  0  0
 13 18  1  0  0  0  0
 13 27  2  0  0  0  0
 14 38  1  0  0  0  0
 14 39  1  0  0  0  0
 15 41  1  0  0  0  0
 16 17  1  0  0  0  0
 16 20  2  0  0  0  0
 17 23  2  0  0  0  0
 18 24  2  0  0  0  0
 20 22  1  0  0  0  0
 21 22  2  0  0  0  0
 21 23  1  0  0  0  0
 25 28  2  0  0  0  0
 25 29  1  0  0  0  0
 26 33  1  0  0  0  0
 26 34  1  0  0  0  0
 26 35  1  0  0  0  0
 28 30  1  0  0  0  0
 28 36  1  0  0  0  0
 29 32  2  0  0  0  0
 30 31  2  0  0  0  0
 31 32  1  0  0  0  0
 36 37  1  0  0  0  0
 37 38  1  0  0  0  0
 39 40  1  0  0  0  0
 40 41  1  0  0  0  0
M  END
> <PUBCHEM_COMPOUND_ID_TYPE>
0

> <PUBCHEM_TOTAL_CHARGE>
0

> <PUBCHEM_SUBSTANCE_ID>
310942698

> <PUBCHEM_SUBSTANCE_VERSION>
1

> <PUBCHEM_EXT_DATASOURCE_NAME>
4488

> <PUBCHEM_EXT_DATASOURCE_REGID>
SCHEMBL16120744

> <PUBCHEM_SUBSTANCE_COMMENT>
InChI=1S/C26H29Cl2FN4O6S2/c1-26(2,3)39-25(35)33(24-14-40-15-32-24)41(36,37)22-12-18(28)21(13-19(22)29)38-20-7-6-17(27)11-16(20)5-4-9-31-10-8-23(30)34/h6-7,11-15,31H,4-5,8-10H2,1-3H3,(H2,30,34)
InChIKey=QPUZVJLGIYWUAY-UHFFFAOYSA-N

> <PUBCHEM_SUBSTANCE_SYNONYM>
SCHEMBL16120744

> <PUBCHEM_XREF_EXT_ID>
SCHEMBL16120744

> <PUBCHEM_EXT_DATASOURCE_URL>
https://www.surechembl.org/

> <PUBCHEM_EXT_SUBSTANCE_URL>
https://www.surechembl.org/chemical/SCHEMBL16120744

> <PUBCHEM_CID_ASSOCIATIONS>
117609225  1

> <PUBCHEM_COORDINATE_TYPE>
1
3

$$$$
