310935591
  -OEChem-07211613022D

 37 40  0     0  0  0  0  0  0999 V2000
   -0.7145   -1.6500    0.0000 F   0  0  0  0  0  0  0  0  0  0  0  0
   -4.2868   -2.0625    0.0000 F   0  0  0  0  0  0  0  0  0  0  0  0
    4.5696    0.0000    0.0000 F   0  0  0  0  0  0  0  0  0  0  0  0
   -3.5724    1.6500    0.0000 F   0  0  0  0  0  0  0  0  0  0  0  0
   -3.5724    2.4750    0.0000 F   0  0  0  0  0  0  0  0  0  0  0  0
   -2.8579    2.8875    0.0000 F   0  0  0  0  0  0  0  0  0  0  0  0
    0.7846    0.6674    0.0000 O   0  0  0  0  0  0  0  0  0  0  0  0
    0.4875   -2.0652    0.0000 O   0  0  0  0  0  0  0  0  0  0  0  0
   -4.2868    0.4125    0.0000 O   0  0  0  0  0  0  0  0  0  0  0  0
   -5.0013   -0.8250    0.0000 O   0  0  0  0  0  0  0  0  0  0  0  0
    1.8465   -1.6236    0.0000 N   0  0  0  0  0  0  0  0  0  0  0  0
    0.0000   -0.4125    0.0000 C   0  0  0  0  0  0  0  0  0  0  0  0
    0.7846   -0.6674    0.0000 C   0  0  0  0  0  0  0  0  0  0  0  0
    0.0000    0.4125    0.0000 C   0  0  0  0  0  0  0  0  0  0  0  0
   -0.7145   -0.8250    0.0000 C   0  0  0  0  0  0  0  0  0  0  0  0
    1.2696    0.0000    0.0000 C   0  0  0  0  0  0  0  0  0  0  0  0
   -1.4290   -0.4125    0.0000 C   0  0  0  0  0  0  0  0  0  0  0  0
   -1.4290    0.4125    0.0000 C   0  0  0  0  0  0  0  0  0  0  0  0
   -0.7145    0.8250    0.0000 C   0  0  0  0  0  0  0  0  0  0  0  0
   -2.1434   -0.8250    0.0000 C   0  0  0  0  0  0  0  0  0  0  0  0
    1.0396   -1.4521    0.0000 C   0  0  0  0  0  0  0  0  0  0  0  0
    2.0946    0.0000    0.0000 C   0  0  0  0  0  0  0  0  0  0  0  0
   -2.1434    0.8250    0.0000 C   0  0  0  0  0  0  0  0  0  0  0  0
   -2.8579   -0.4125    0.0000 C   0  0  0  0  0  0  0  0  0  0  0  0
   -2.1434   -1.6500    0.0000 C   0  0  0  0  0  0  0  0  0  0  0  0
   -3.5724   -0.8250    0.0000 C   0  0  0  0  0  0  0  0  0  0  0  0
    2.5071   -0.7145    0.0000 C   0  0  0  0  0  0  0  0  0  0  0  0
    2.5071    0.7145    0.0000 C   0  0  0  0  0  0  0  0  0  0  0  0
   -3.5724   -1.6500    0.0000 C   0  0  0  0  0  0  0  0  0  0  0  0
   -2.8579   -2.0625    0.0000 C   0  0  0  0  0  0  0  0  0  0  0  0
   -2.1434    1.6500    0.0000 C   0  0  0  0  0  0  0  0  0  0  0  0
    3.3321   -0.7145    0.0000 C   0  0  0  0  0  0  0  0  0  0  0  0
    3.3321    0.7145    0.0000 C   0  0  0  0  0  0  0  0  0  0  0  0
   -4.2868   -0.4125    0.0000 C   0  0  0  0  0  0  0  0  0  0  0  0
    3.7446    0.0000    0.0000 C   0  0  0  0  0  0  0  0  0  0  0  0
   -2.8579    2.0625    0.0000 C   0  0  0  0  0  0  0  0  0  0  0  0
    2.1015   -2.4082    0.0000 C   0  0  0  0  0  0  0  0  0  0  0  0
  1 15  1  0  0  0  0
  2 29  1  0  0  0  0
  3 35  1  0  0  0  0
  4 36  1  0  0  0  0
  5 36  1  0  0  0  0
  6 36  1  0  0  0  0
  7 14  1  0  0  0  0
  7 16  1  0  0  0  0
  8 21  2  0  0  0  0
  9 34  2  0  0  0  0
 10 34  1  0  0  0  0
 11 21  1  0  0  0  0
 11 37  1  0  0  0  0
 12 13  1  0  0  0  0
 12 14  1  0  0  0  0
 12 15  2  0  0  0  0
 13 16  2  0  0  0  0
 13 21  1  0  0  0  0
 14 19  2  0  0  0  0
 15 17  1  0  0  0  0
 16 22  1  0  0  0  0
 17 18  2  0  0  0  0
 17 20  1  0  0  0  0
 18 19  1  0  0  0  0
 18 23  1  0  0  0  0
 20 24  1  0  0  0  0
 20 25  2  0  0  0  0
 22 27  2  0  0  0  0
 22 28  1  0  0  0  0
 23 31  1  0  0  0  0
 24 26  2  0  0  0  0
 25 30  1  0  0  0  0
 26 29  1  0  0  0  0
 26 34  1  0  0  0  0
 27 32  1  0  0  0  0
 28 33  2  0  0  0  0
 29 30  2  0  0  0  0
 31 36  1  0  0  0  0
 32 35  2  0  0  0  0
 33 35  1  0  0  0  0
M  END
> <PUBCHEM_COMPOUND_ID_TYPE>
0

> <PUBCHEM_TOTAL_CHARGE>
0

> <PUBCHEM_SUBSTANCE_ID>
310935591

> <PUBCHEM_SUBSTANCE_VERSION>
1

> <PUBCHEM_EXT_DATASOURCE_NAME>
4488

> <PUBCHEM_EXT_DATASOURCE_REGID>
SCHEMBL16113164

> <PUBCHEM_SUBSTANCE_COMMENT>
InChI=1S/C26H17F6NO4/c1-33-24(34)21-20-18(37-23(21)12-2-5-15(27)6-3-12)11-14(8-9-26(30,31)32)19(22(20)29)13-4-7-17(28)16(10-13)25(35)36/h2-7,10-11H,8-9H2,1H3,(H,33,34)(H,35,36)
InChIKey=WGZMWNXTYWRUJH-UHFFFAOYSA-N

> <PUBCHEM_SUBSTANCE_SYNONYM>
SCHEMBL16113164

> <PUBCHEM_XREF_EXT_ID>
SCHEMBL16113164

> <PUBCHEM_EXT_DATASOURCE_URL>
https://www.surechembl.org/

> <PUBCHEM_EXT_SUBSTANCE_URL>
https://www.surechembl.org/chemical/SCHEMBL16113164

> <PUBCHEM_CID_ASSOCIATIONS>
117603612  1

> <PUBCHEM_COORDINATE_TYPE>
1
3

$$$$
