310947786
  -OEChem-07211613022D

 23 24  0     1  0  0  0  0  0999 V2000
    3.1126   -1.3314    0.0000 S   0  0  0  0  0  0  0  0  0  0  0  0
   -1.9250    1.3314    0.0000 O   0  0  0  0  0  0  0  0  0  0  0  0
    2.2751   -1.3314    0.0000 O   0  0  0  0  0  0  0  0  0  0  0  0
   -0.3500   -1.3314    0.0000 O   0  0  0  0  0  0  0  0  0  0  0  0
   -0.4876    2.1688    0.0000 O   0  0  0  0  0  0  0  0  0  0  0  0
    3.1002   -0.5063    0.0000 O   0  0  0  0  0  0  0  0  0  0  0  0
    3.1002   -2.1688    0.0000 O   0  0  0  0  0  0  0  0  0  0  0  0
    3.9376   -1.3314    0.0000 O   0  0  0  0  0  0  0  0  0  0  0  0
    0.2624    0.0937    0.0000 N   0  0  0  0  0  0  0  0  0  0  0  0
    1.7001   -0.7438    0.0000 N   0  0  0  0  0  0  0  0  0  0  0  0
   -1.1875    0.9187    0.0000 N   0  0  0  0  0  0  0  0  0  0  0  0
   -3.9376    0.7438    0.0000 N   0  0  0  0  0  0  0  0  0  0  0  0
   -3.3626    1.3438    0.0000 C   0  0  0  0  0  0  0  0  0  0  0  0
    0.2624    0.9187    0.0000 C   0  0  3  0  0  0  0  0  0  0  0  0
    0.2624   -0.7188    0.0000 C   0  0  0  0  0  0  0  0  0  0  0  0
   -0.5251    1.3314    0.0000 C   0  0  0  0  0  0  0  0  0  0  0  0
   -3.9376    1.9313    0.0000 C   0  0  0  0  0  0  0  0  0  0  0  0
   -3.1501    2.1313    0.0000 C   0  0  0  0  0  0  0  0  0  0  0  0
   -2.6251    0.9187    0.0000 C   0  0  0  0  0  0  0  0  0  0  0  0
    0.9750   -0.3312    0.0000 C   0  0  0  0  0  0  0  0  0  0  0  0
    0.9625    1.3314    0.0000 C   0  0  0  0  0  0  0  0  0  0  0  0
    1.6751    0.0687    0.0000 C   0  0  0  0  0  0  0  0  0  0  0  0
    1.6875    0.9187    0.0000 C   0  0  0  0  0  0  0  0  0  0  0  0
  1  3  1  0  0  0  0
  1  6  2  0  0  0  0
  1  7  2  0  0  0  0
  1  8  1  0  0  0  0
  2 11  1  0  0  0  0
  2 19  1  0  0  0  0
  3 10  1  0  0  0  0
  4 15  2  0  0  0  0
  5 16  2  0  0  0  0
  9 14  1  0  0  0  0
  9 15  1  0  0  0  0
  9 20  1  0  0  0  0
 10 15  1  0  0  0  0
 11 16  1  0  0  0  0
 12 13  1  0  0  0  0
 13 17  1  0  0  0  0
 13 18  1  0  0  0  0
 13 19  1  0  0  0  0
 14 16  1  6  0  0  0
 14 21  1  0  0  0  0
 17 18  1  0  0  0  0
 20 22  1  0  0  0  0
 21 23  1  0  0  0  0
 22 23  1  0  0  0  0
M  END
> <PUBCHEM_COMPOUND_ID_TYPE>
0

> <PUBCHEM_TOTAL_CHARGE>
0

> <PUBCHEM_SUBSTANCE_ID>
310947786

> <PUBCHEM_SUBSTANCE_VERSION>
1

> <PUBCHEM_EXT_DATASOURCE_NAME>
4488

> <PUBCHEM_EXT_DATASOURCE_REGID>
SCHEMBL16125958

> <PUBCHEM_SUBSTANCE_COMMENT>
InChI=1S/C11H20N4O7S/c12-11(4-5-11)7-21-13-9(16)8-3-1-2-6-15(8)10(17)14-22-23(18,19)20/h8H,1-7,12H2,(H,13,16)(H,14,17)(H,18,19,20)/t8-/m0/s1
InChIKey=VSAWINAUDNBNLI-QMMMGPOBSA-N

> <PUBCHEM_SUBSTANCE_SYNONYM>
SCHEMBL16125958

> <PUBCHEM_XREF_EXT_ID>
SCHEMBL16125958

> <PUBCHEM_EXT_DATASOURCE_URL>
https://www.surechembl.org/

> <PUBCHEM_EXT_SUBSTANCE_URL>
https://www.surechembl.org/chemical/SCHEMBL16125958

> <PUBCHEM_CID_ASSOCIATIONS>
117613455  1

> <PUBCHEM_COORDINATE_TYPE>
1
3

> <PUBCHEM_BONDANNOTATIONS>
14  16  6

$$$$
