310929048
  -OEChem-07211613022D

 56 61  0     0  0  0  0  0  0999 V2000
    0.8250   -6.3249    0.0000 S   0  0  0  0  0  0  0  0  0  0  0  0
    7.2049   -2.5300    0.0000 O   0  0  0  0  0  0  0  0  0  0  0  0
    5.1149   -5.4449    0.0000 O   0  0  0  0  0  0  0  0  0  0  0  0
    0.0000   -6.2699    0.0000 O   0  0  0  0  0  0  0  0  0  0  0  0
    1.6500   -6.3249    0.0000 O   0  0  0  0  0  0  0  0  0  0  0  0
   12.9249   -1.6500    0.0000 O   0  0  0  0  0  0  0  0  0  0  0  0
   16.4998   -0.4400    0.0000 O   0  0  0  0  0  0  0  0  0  0  0  0
    4.4000   -4.2350    0.0000 N   0  0  0  0  0  0  0  0  0  0  0  0
    3.6849   -5.4449    0.0000 N   0  0  0  0  0  0  0  0  0  0  0  0
    0.8250   -5.4999    0.0000 N   0  0  0  0  0  0  0  0  0  0  0  0
   10.0649   -2.4750    0.0000 N   0  0  0  0  0  0  0  0  0  0  0  0
    9.3499   -3.6849    0.0000 N   0  0  0  0  0  0  0  0  0  0  0  0
   13.6399   -2.9150    0.0000 N   0  0  0  0  0  0  0  0  0  0  0  0
   15.0698   -1.2650    0.0000 N   0  0  0  0  0  0  0  0  0  0  0  0
    5.7749   -2.5850    0.0000 C   0  0  0  0  0  0  0  0  0  0  0  0
    5.0599   -3.0250    0.0000 C   0  0  0  0  0  0  0  0  0  0  0  0
    6.4900   -2.9700    0.0000 C   0  0  0  0  0  0  0  0  0  0  0  0
    5.0599   -3.7950    0.0000 C   0  0  0  0  0  0  0  0  0  0  0  0
    6.5449   -3.7950    0.0000 C   0  0  0  0  0  0  0  0  0  0  0  0
    5.8299   -4.1799    0.0000 C   0  0  0  0  0  0  0  0  0  0  0  0
    5.7749   -1.7600    0.0000 C   0  0  0  0  0  0  0  0  0  0  0  0
    4.3450   -2.5850    0.0000 C   0  0  0  0  0  0  0  0  0  0  0  0
    2.2550   -3.8500    0.0000 C   0  0  0  0  0  0  0  0  0  0  0  0
    2.9700   -5.0599    0.0000 C   0  0  0  0  0  0  0  0  0  0  0  0
    7.9199   -2.9150    0.0000 C   0  0  0  0  0  0  0  0  0  0  0  0
    4.4000   -5.0599    0.0000 C   0  0  0  0  0  0  0  0  0  0  0  0
    2.2000   -2.9700    0.0000 C   0  0  0  0  0  0  0  0  0  0  0  0
    1.5400   -5.0599    0.0000 C   0  0  0  0  0  0  0  0  0  0  0  0
    2.9700   -4.2350    0.0000 C   0  0  0  0  0  0  0  0  0  0  0  0
    1.5400   -4.2350    0.0000 C   0  0  0  0  0  0  0  0  0  0  0  0
    2.2550   -5.4449    0.0000 C   0  0  0  0  0  0  0  0  0  0  0  0
    5.0599   -1.3200    0.0000 C   0  0  0  0  0  0  0  0  0  0  0  0
    4.3450   -1.7600    0.0000 C   0  0  0  0  0  0  0  0  0  0  0  0
    9.3499   -2.9150    0.0000 C   0  0  0  0  0  0  0  0  0  0  0  0
    8.6349   -2.4750    0.0000 C   0  0  0  0  0  0  0  0  0  0  0  0
   10.7799   -2.9150    0.0000 C   0  0  0  0  0  0  0  0  0  0  0  0
    7.9199   -3.7399    0.0000 C   0  0  0  0  0  0  0  0  0  0  0  0
   12.2098   -2.9150    0.0000 C   0  0  0  0  0  0  0  0  0  0  0  0
   11.4949   -2.4750    0.0000 C   0  0  0  0  0  0  0  0  0  0  0  0
   11.4949   -4.1249    0.0000 C   0  0  0  0  0  0  0  0  0  0  0  0
   10.7799   -3.7399    0.0000 C   0  0  0  0  0  0  0  0  0  0  0  0
    8.6349   -4.1249    0.0000 C   0  0  0  0  0  0  0  0  0  0  0  0
   12.2098   -3.7399    0.0000 C   0  0  0  0  0  0  0  0  0  0  0  0
   12.9249   -2.4750    0.0000 C   0  0  0  0  0  0  0  0  0  0  0  0
    3.0800   -3.0250    0.0000 C   0  0  0  0  0  0  0  0  0  0  0  0
    2.2000   -2.2000    0.0000 C   0  0  0  0  0  0  0  0  0  0  0  0
    1.4300   -3.0250    0.0000 C   0  0  0  0  0  0  0  0  0  0  0  0
   11.4949   -4.9499    0.0000 C   0  0  0  0  0  0  0  0  0  0  0  0
    0.8250   -7.0949    0.0000 C   0  0  0  0  0  0  0  0  0  0  0  0
   14.3548   -2.4750    0.0000 C   0  0  0  0  0  0  0  0  0  0  0  0
   12.2098   -5.3899    0.0000 C   0  0  0  0  0  0  0  0  0  0  0  0
   14.3548   -1.6500    0.0000 C   0  0  0  0  0  0  0  0  0  0  0  0
   15.0698   -0.4400    0.0000 C   0  0  0  0  0  0  0  0  0  0  0  0
   15.7848   -1.6500    0.0000 C   0  0  0  0  0  0  0  0  0  0  0  0
   15.7848    0.0000    0.0000 C   0  0  0  0  0  0  0  0  0  0  0  0
   16.4998   -1.2650    0.0000 C   0  0  0  0  0  0  0  0  0  0  0  0
  1  4  2  0  0  0  0
  1  5  2  0  0  0  0
  1 10  1  0  0  0  0
  1 49  1  0  0  0  0
  2 17  1  0  0  0  0
  2 25  1  0  0  0  0
  3 26  2  0  0  0  0
  6 44  2  0  0  0  0
  7 55  1  0  0  0  0
  7 56  1  0  0  0  0
  8 18  1  0  0  0  0
  8 26  1  0  0  0  0
  9 24  1  0  0  0  0
  9 26  1  0  0  0  0
 10 28  1  0  0  0  0
 11 34  1  0  0  0  0
 11 36  1  0  0  0  0
 12 34  1  0  0  0  0
 12 42  2  0  0  0  0
 13 44  1  0  0  0  0
 13 50  1  0  0  0  0
 14 52  1  0  0  0  0
 14 53  1  0  0  0  0
 14 54  1  0  0  0  0
 15 16  2  0  0  0  0
 15 17  1  0  0  0  0
 15 21  1  0  0  0  0
 16 18  1  0  0  0  0
 16 22  1  0  0  0  0
 17 19  2  0  0  0  0
 18 20  2  0  0  0  0
 19 20  1  0  0  0  0
 21 32  2  0  0  0  0
 22 33  2  0  0  0  0
 23 27  1  0  0  0  0
 23 29  2  0  0  0  0
 23 30  1  0  0  0  0
 24 29  1  0  0  0  0
 24 31  2  0  0  0  0
 25 35  1  0  0  0  0
 25 37  2  0  0  0  0
 27 45  1  0  0  0  0
 27 46  1  0  0  0  0
 27 47  1  0  0  0  0
 28 30  2  0  0  0  0
 28 31  1  0  0  0  0
 32 33  1  0  0  0  0
 34 35  2  0  0  0  0
 36 39  1  0  0  0  0
 36 41  2  0  0  0  0
 37 42  1  0  0  0  0
 38 39  2  0  0  0  0
 38 43  1  0  0  0  0
 38 44  1  0  0  0  0
 40 41  1  0  0  0  0
 40 43  2  0  0  0  0
 40 48  1  0  0  0  0
 48 51  3  0  0  0  0
 50 52  1  0  0  0  0
 53 55  1  0  0  0  0
 54 56  1  0  0  0  0
M  END
> <PUBCHEM_COMPOUND_ID_TYPE>
0

> <PUBCHEM_TOTAL_CHARGE>
0

> <PUBCHEM_SUBSTANCE_ID>
310929048

> <PUBCHEM_SUBSTANCE_VERSION>
1

> <PUBCHEM_EXT_DATASOURCE_NAME>
4488

> <PUBCHEM_EXT_DATASOURCE_REGID>
SCHEMBL16106210

> <PUBCHEM_SUBSTANCE_COMMENT>
InChI=1S/C42H45N7O6S/c1-6-28-21-29(40(50)44-15-16-49-17-19-54-20-18-49)23-31(22-28)45-39-27-34(13-14-43-39)55-38-12-11-37(35-9-7-8-10-36(35)38)47-41(51)46-32-24-30(42(2,3)4)25-33(26-32)48-56(5,52)53/h1,7-14,21-27,48H,15-20H2,2-5H3,(H,43,45)(H,44,50)(H2,46,47,51)
InChIKey=PLKQSFNZQVHCGS-UHFFFAOYSA-N

> <PUBCHEM_SUBSTANCE_SYNONYM>
SCHEMBL16106210

> <PUBCHEM_XREF_EXT_ID>
SCHEMBL16106210

> <PUBCHEM_EXT_DATASOURCE_URL>
https://www.surechembl.org/

> <PUBCHEM_EXT_SUBSTANCE_URL>
https://www.surechembl.org/chemical/SCHEMBL16106210

> <PUBCHEM_CID_ASSOCIATIONS>
86274981  1

> <PUBCHEM_COORDINATE_TYPE>
1
3

$$$$
