310948918
  -OEChem-07211613022D

 57 60  0     1  0  0  0  0  0999 V2000
    3.0724    1.2425    0.0000 P   0  0  3  0  0  0  0  0  0  0  0  0
    6.0026   -1.0819    0.0000 F   0  0  0  0  0  0  0  0  0  0  0  0
    5.9903    1.0819    0.0000 O   0  0  0  0  0  0  0  0  0  0  0  0
    4.7910   -0.7109    0.0000 O   0  0  0  0  0  0  0  0  0  0  0  0
    3.7772    0.8222    0.0000 O   0  0  0  0  0  0  0  0  0  0  0  0
    3.0601    0.4142    0.0000 O   0  0  0  0  0  0  0  0  0  0  0  0
    7.2884    1.8360    0.0000 O   0  0  0  0  0  0  0  0  0  0  0  0
    3.0601    2.0586    0.0000 O   0  0  0  0  0  0  0  0  0  0  0  0
    9.7613    0.4142    0.0000 O   0  0  0  0  0  0  0  0  0  0  0  0
   -0.5131   -0.0062    0.0000 O   0  0  0  0  0  0  0  0  0  0  0  0
    7.3132    0.4142    0.0000 N   0  0  0  0  0  0  0  0  0  0  0  0
    8.6732    1.1313    0.0000 N   0  0  0  0  0  0  0  0  0  0  0  0
    2.3677    0.8222    0.0000 N   0  0  0  0  0  0  0  0  0  0  0  0
    0.2163    1.2425    0.0000 N   0  0  0  0  0  0  0  0  0  0  0  0
    5.9903   -0.2411    0.0000 C   0  0  3  0  0  0  0  0  0  0  0  0
    6.4972    0.4266    0.0000 C   0  0  3  0  0  0  0  0  0  0  0  0
    5.2113    0.0062    0.0000 C   0  0  3  0  0  0  0  0  0  0  0  0
    5.2237    0.8346    0.0000 C   0  0  3  0  0  0  0  0  0  0  0  0
    6.7073   -0.6614    0.0000 C   0  0  0  0  0  0  0  0  0  0  0  0
    7.7212    1.1313    0.0000 C   0  0  0  0  0  0  0  0  0  0  0  0
    4.4943    1.2302    0.0000 C   0  0  0  0  0  0  0  0  0  0  0  0
    7.7212   -0.3029    0.0000 C   0  0  0  0  0  0  0  0  0  0  0  0
    8.5372   -0.3029    0.0000 C   0  0  0  0  0  0  0  0  0  0  0  0
    8.9329    0.4266    0.0000 C   0  0  0  0  0  0  0  0  0  0  0  0
    6.7197   -1.4898    0.0000 C   0  0  0  0  0  0  0  0  0  0  0  0
    3.0724   -0.4142    0.0000 C   0  0  0  0  0  0  0  0  0  0  0  0
    2.3553   -0.8222    0.0000 C   0  0  0  0  0  0  0  0  0  0  0  0
    2.3553   -1.6382    0.0000 C   0  0  0  0  0  0  0  0  0  0  0  0
    3.7895   -0.8222    0.0000 C   0  0  0  0  0  0  0  0  0  0  0  0
    1.6382   -0.4142    0.0000 C   0  0  0  0  0  0  0  0  0  0  0  0
    3.0848   -2.0462    0.0000 C   0  0  0  0  0  0  0  0  0  0  0  0
    3.7895   -1.6382    0.0000 C   0  0  0  0  0  0  0  0  0  0  0  0
    1.6506    1.2425    0.0000 C   0  0  0  0  0  0  0  0  0  0  0  0
    1.6506   -2.0586    0.0000 C   0  0  0  0  0  0  0  0  0  0  0  0
    0.9459   -0.8222    0.0000 C   0  0  0  0  0  0  0  0  0  0  0  0
    0.9459   -1.6506    0.0000 C   0  0  0  0  0  0  0  0  0  0  0  0
    0.9335    0.8222    0.0000 C   0  0  0  0  0  0  0  0  0  0  0  0
   -0.4884    0.8469    0.0000 C   0  0  0  0  0  0  0  0  0  0  0  0
   -1.2178    1.2302    0.0000 C   0  0  0  0  0  0  0  0  0  0  0  0
   -1.9102    0.8346    0.0000 C   0  0  0  0  0  0  0  0  0  0  0  0
   -1.9226   -0.0062    0.0000 C   0  0  0  0  0  0  0  0  0  0  0  0
   -2.6273   -0.4142    0.0000 C   0  0  0  0  0  0  0  0  0  0  0  0
   -3.3568    0.0062    0.0000 C   0  0  0  0  0  0  0  0  0  0  0  0
   -3.3568    0.8222    0.0000 C   0  0  0  0  0  0  0  0  0  0  0  0
   -4.0738    1.2302    0.0000 C   0  0  0  0  0  0  0  0  0  0  0  0
   -4.7662    0.8346    0.0000 C   0  0  0  0  0  0  0  0  0  0  0  0
   -4.7786   -0.0062    0.0000 C   0  0  0  0  0  0  0  0  0  0  0  0
   -5.4833   -0.4142    0.0000 C   0  0  0  0  0  0  0  0  0  0  0  0
   -6.2004    0.0062    0.0000 C   0  0  0  0  0  0  0  0  0  0  0  0
   -6.2004    0.8222    0.0000 C   0  0  0  0  0  0  0  0  0  0  0  0
   -6.9176    1.2302    0.0000 C   0  0  0  0  0  0  0  0  0  0  0  0
   -7.6223    0.8346    0.0000 C   0  0  0  0  0  0  0  0  0  0  0  0
   -7.6347   -0.0062    0.0000 C   0  0  0  0  0  0  0  0  0  0  0  0
   -8.3394   -0.4142    0.0000 C   0  0  0  0  0  0  0  0  0  0  0  0
   -9.0565    0.0062    0.0000 C   0  0  0  0  0  0  0  0  0  0  0  0
   -9.0565    0.8222    0.0000 C   0  0  0  0  0  0  0  0  0  0  0  0
   -9.7613    1.2178    0.0000 C   0  0  0  0  0  0  0  0  0  0  0  0
  1  5  1  0  0  0  0
  1  6  1  0  0  0  0
  1  8  2  0  0  0  0
  1 13  1  0  0  0  0
 15  2  1  6  0  0  0
 16  3  1  1  0  0  0
  3 18  1  0  0  0  0
 17  4  1  6  0  0  0
  5 21  1  0  0  0  0
  6 26  1  0  0  0  0
  7 20  2  0  0  0  0
  9 24  2  0  0  0  0
 10 38  2  0  0  0  0
 11 16  1  0  0  0  0
 11 20  1  0  0  0  0
 11 22  1  0  0  0  0
 12 20  1  0  0  0  0
 12 24  1  0  0  0  0
 13 33  1  0  0  0  0
 14 37  1  0  0  0  0
 14 38  1  0  0  0  0
 15 16  1  0  0  0  0
 15 17  1  0  0  0  0
 15 19  1  1  0  0  0
 17 18  1  0  0  0  0
 18 21  1  1  0  0  0
 19 25  1  0  0  0  0
 22 23  2  0  0  0  0
 23 24  1  0  0  0  0
 26 27  2  0  0  0  0
 26 29  1  0  0  0  0
 27 28  1  0  0  0  0
 27 30  1  0  0  0  0
 28 31  2  0  0  0  0
 28 34  1  0  0  0  0
 29 32  2  0  0  0  0
 30 35  2  0  0  0  0
 31 32  1  0  0  0  0
 33 37  1  0  0  0  0
 34 36  2  0  0  0  0
 35 36  1  0  0  0  0
 38 39  1  0  0  0  0
 39 40  1  0  0  0  0
 40 41  1  0  0  0  0
 41 42  1  0  0  0  0
 42 43  2  0  0  0  0
 43 44  1  0  0  0  0
 44 45  1  0  0  0  0
 45 46  2  0  0  0  0
 46 47  1  0  0  0  0
 47 48  1  0  0  0  0
 48 49  2  0  0  0  0
 49 50  1  0  0  0  0
 50 51  1  0  0  0  0
 51 52  2  0  0  0  0
 52 53  1  0  0  0  0
 53 54  1  0  0  0  0
 54 55  2  0  0  0  0
 55 56  1  0  0  0  0
 56 57  1  0  0  0  0
M  END
> <PUBCHEM_COMPOUND_ID_TYPE>
0

> <PUBCHEM_TOTAL_CHARGE>
0

> <PUBCHEM_SUBSTANCE_ID>
310948918

> <PUBCHEM_SUBSTANCE_VERSION>
1

> <PUBCHEM_EXT_DATASOURCE_NAME>
4488

> <PUBCHEM_EXT_DATASOURCE_REGID>
SCHEMBL16127104

> <PUBCHEM_SUBSTANCE_COMMENT>
InChI=1S/C43H56FN4O8P/c1-3-5-6-7-8-9-10-11-12-13-14-15-16-17-18-19-20-28-38(49)45-30-31-46-57(53,56-36-27-23-25-34-24-21-22-26-35(34)36)54-33-37-40(51)43(44,4-2)41(55-37)48-32-29-39(50)47-42(48)52/h5-6,8-9,11-12,14-15,17-18,21-27,29,32,37,40-41,51H,3-4,7,10,13,16,19-20,28,30-31,33H2,1-2H3,(H,45,49)(H,46,53)(H,47,50,52)/b6-5-,9-8-,12-11-,15-14-,18-17-/t37-,40-,41-,43-,57?/m1/s1
InChIKey=BOTHDQXXAMNNHN-DPWWQSBYSA-N

> <PUBCHEM_SUBSTANCE_SYNONYM>
SCHEMBL16127104

> <PUBCHEM_XREF_EXT_ID>
SCHEMBL16127104

> <PUBCHEM_EXT_DATASOURCE_URL>
https://www.surechembl.org/

> <PUBCHEM_EXT_SUBSTANCE_URL>
https://www.surechembl.org/chemical/SCHEMBL16127104

> <PUBCHEM_CID_ASSOCIATIONS>
117614434  1

> <PUBCHEM_COORDINATE_TYPE>
1
3

> <PUBCHEM_BONDANNOTATIONS>
15  19  5
18  21  5
15  2  6
16  3  5
17  4  6

$$$$
