310944621
  -OEChem-07211613022D

 27 31  0     0  0  0  0  0  0999 V2000
   -0.0065    3.7177    0.0000 F   0  0  0  0  0  0  0  0  0  0  0  0
    2.1758    3.2473    0.0000 N   0  0  0  0  0  0  0  0  0  0  0  0
   -2.1758    3.2473    0.0000 N   0  0  0  0  0  0  0  0  0  0  0  0
   -0.0196   -1.2219    0.0000 C   0  0  0  0  0  0  0  0  0  0  0  0
   -0.0196   -2.0451    0.0000 C   0  0  0  0  0  0  0  0  0  0  0  0
   -0.7514   -0.8168    0.0000 C   0  0  0  0  0  0  0  0  0  0  0  0
    0.6991   -0.8168    0.0000 C   0  0  0  0  0  0  0  0  0  0  0  0
   -0.7514   -2.4633    0.0000 C   0  0  0  0  0  0  0  0  0  0  0  0
    0.7252   -2.4763    0.0000 C   0  0  0  0  0  0  0  0  0  0  0  0
   -0.0196    0.4247    0.0000 C   0  0  0  0  0  0  0  0  0  0  0  0
   -0.7252    0.0065    0.0000 C   0  0  0  0  0  0  0  0  0  0  0  0
    0.7122   -0.0065    0.0000 C   0  0  0  0  0  0  0  0  0  0  0  0
   -0.0065    1.2611    0.0000 C   0  0  0  0  0  0  0  0  0  0  0  0
   -1.4701   -1.2349    0.0000 C   0  0  0  0  0  0  0  0  0  0  0  0
    1.4440   -1.2349    0.0000 C   0  0  0  0  0  0  0  0  0  0  0  0
   -1.4570   -2.0582    0.0000 C   0  0  0  0  0  0  0  0  0  0  0  0
    1.4309   -2.0320    0.0000 C   0  0  0  0  0  0  0  0  0  0  0  0
   -0.7383   -3.3126    0.0000 C   0  0  0  0  0  0  0  0  0  0  0  0
    0.7122   -3.2996    0.0000 C   0  0  0  0  0  0  0  0  0  0  0  0
    0.7122    1.6661    0.0000 C   0  0  0  0  0  0  0  0  0  0  0  0
   -0.7252    1.6661    0.0000 C   0  0  0  0  0  0  0  0  0  0  0  0
    0.7252    2.5025    0.0000 C   0  0  0  0  0  0  0  0  0  0  0  0
   -0.7252    2.5025    0.0000 C   0  0  0  0  0  0  0  0  0  0  0  0
   -0.0065    2.9076    0.0000 C   0  0  0  0  0  0  0  0  0  0  0  0
    0.0065   -3.7177    0.0000 C   0  0  0  0  0  0  0  0  0  0  0  0
    1.4440    2.8814    0.0000 C   0  0  0  0  0  0  0  0  0  0  0  0
   -1.4570    2.8814    0.0000 C   0  0  0  0  0  0  0  0  0  0  0  0
  1 24  1  0  0  0  0
  2 26  3  0  0  0  0
  3 27  3  0  0  0  0
  4  5  2  0  0  0  0
  4  6  1  0  0  0  0
  4  7  1  0  0  0  0
  5  8  1  0  0  0  0
  5  9  1  0  0  0  0
  6 11  1  0  0  0  0
  6 14  2  0  0  0  0
  7 12  2  0  0  0  0
  7 15  1  0  0  0  0
  8 16  2  0  0  0  0
  8 18  1  0  0  0  0
  9 17  1  0  0  0  0
  9 19  2  0  0  0  0
 10 11  2  0  0  0  0
 10 12  1  0  0  0  0
 10 13  1  0  0  0  0
 13 20  2  0  0  0  0
 13 21  1  0  0  0  0
 14 16  1  0  0  0  0
 15 17  2  0  0  0  0
 18 25  2  0  0  0  0
 19 25  1  0  0  0  0
 20 22  1  0  0  0  0
 21 23  2  0  0  0  0
 22 24  2  0  0  0  0
 22 26  1  0  0  0  0
 23 24  1  0  0  0  0
 23 27  1  0  0  0  0
M  END
> <PUBCHEM_COMPOUND_ID_TYPE>
0

> <PUBCHEM_TOTAL_CHARGE>
0

> <PUBCHEM_SUBSTANCE_ID>
310944621

> <PUBCHEM_SUBSTANCE_VERSION>
1

> <PUBCHEM_EXT_DATASOURCE_NAME>
4488

> <PUBCHEM_EXT_DATASOURCE_REGID>
SCHEMBL16122699

> <PUBCHEM_SUBSTANCE_COMMENT>
InChI=1S/C24H11FN2/c25-24-20(12-26)10-19(11-21(24)13-27)18-8-16-6-4-14-2-1-3-15-5-7-17(9-18)23(16)22(14)15/h1-11H
InChIKey=NRYUSCYFEOVUBW-UHFFFAOYSA-N

> <PUBCHEM_SUBSTANCE_SYNONYM>
SCHEMBL16122699

> <PUBCHEM_XREF_EXT_ID>
SCHEMBL16122699

> <PUBCHEM_EXT_DATASOURCE_URL>
https://www.surechembl.org/

> <PUBCHEM_EXT_SUBSTANCE_URL>
https://www.surechembl.org/chemical/SCHEMBL16122699

> <PUBCHEM_CID_ASSOCIATIONS>
117610851  1

> <PUBCHEM_COORDINATE_TYPE>
1
3

$$$$
