310948253
  -OEChem-07211613022D

 42 48  0     1  0  0  0  0  0999 V2000
   -4.1724    2.0232    0.0000 O   0  0  0  0  0  0  0  0  0  0  0  0
   -0.6892   -3.6833    0.0000 O   0  0  0  0  0  0  0  0  0  0  0  0
   -1.4155    1.8898    0.0000 N   0  0  0  0  0  0  0  0  0  0  0  0
   -1.7564    1.1339    0.0000 N   0  0  0  0  0  0  0  0  0  0  0  0
   -3.1201    0.6003    0.0000 N   0  0  0  0  0  0  0  0  0  0  0  0
   -1.1339   -2.3048    0.0000 N   0  0  0  0  0  0  0  0  0  0  0  0
   -3.4610    3.2683    0.0000 N   0  0  0  0  0  0  0  0  0  0  0  0
    0.4224   -1.8009    0.0000 N   0  0  0  0  0  0  0  0  0  0  0  0
    1.6527   -2.8977    0.0000 N   0  0  0  0  0  0  0  0  0  0  0  0
    2.6012   -1.8305    0.0000 N   0  0  0  0  0  0  0  0  0  0  0  0
   -0.8819    0.0074    0.0000 N   0  0  0  0  0  0  0  0  0  0  0  0
   -2.7347    2.0380    0.0000 C   0  0  0  0  0  0  0  0  0  0  0  0
   -2.0380    2.4530    0.0000 C   0  0  0  0  0  0  0  0  0  0  0  0
   -2.5716    1.2229    0.0000 C   0  0  0  0  0  0  0  0  0  0  0  0
   -0.6003    2.0529    0.0000 C   0  0  3  0  0  0  0  0  0  0  0  0
   -3.4610    2.4530    0.0000 C   0  0  0  0  0  0  0  0  0  0  0  0
   -2.0232    3.2683    0.0000 C   0  0  0  0  0  0  0  0  0  0  0  0
   -2.8829   -0.1705    0.0000 C   0  0  0  0  0  0  0  0  0  0  0  0
   -1.8157   -1.1487    0.0000 C   0  0  0  0  0  0  0  0  0  0  0  0
   -2.3641   -1.7564    0.0000 C   0  0  0  0  0  0  0  0  0  0  0  0
   -0.0518    1.4452    0.0000 C   0  0  3  0  0  0  0  0  0  0  0  0
   -2.0677   -0.3631    0.0000 C   0  0  0  0  0  0  0  0  0  0  0  0
   -2.7643    3.6833    0.0000 C   0  0  0  0  0  0  0  0  0  0  0  0
   -1.0598   -1.4896    0.0000 C   0  0  0  0  0  0  0  0  0  0  0  0
   -0.3483    2.8532    0.0000 C   0  0  0  0  0  0  0  0  0  0  0  0
   -1.9639   -2.4679    0.0000 C   0  0  0  0  0  0  0  0  0  0  0  0
   -3.4017   -0.7782    0.0000 C   0  0  0  0  0  0  0  0  0  0  0  0
   -0.5114   -2.8384    0.0000 C   0  0  0  0  0  0  0  0  0  0  0  0
   -3.1645   -1.5785    0.0000 C   0  0  0  0  0  0  0  0  0  0  0  0
    0.2445   -2.6012    0.0000 C   0  0  0  0  0  0  0  0  0  0  0  0
    0.7485    1.6230    0.0000 C   0  0  0  0  0  0  0  0  0  0  0  0
   -0.4817    0.7485    0.0000 C   0  0  0  0  0  0  0  0  0  0  0  0
    0.4669    3.0015    0.0000 C   0  0  0  0  0  0  0  0  0  0  0  0
    1.0005    2.4086    0.0000 C   0  0  0  0  0  0  0  0  0  0  0  0
    0.8819   -3.1497    0.0000 C   0  0  0  0  0  0  0  0  0  0  0  0
    1.8454   -2.0825    0.0000 C   0  0  0  0  0  0  0  0  0  0  0  0
    1.2080   -1.5341    0.0000 C   0  0  0  0  0  0  0  0  0  0  0  0
    3.2386   -2.3790    0.0000 C   0  0  0  0  0  0  0  0  0  0  0  0
    2.7792   -1.0301    0.0000 C   0  0  0  0  0  0  0  0  0  0  0  0
    4.0093   -2.1418    0.0000 C   0  0  0  0  0  0  0  0  0  0  0  0
    3.5795   -0.7782    0.0000 C   0  0  0  0  0  0  0  0  0  0  0  0
    4.1724   -1.3265    0.0000 C   0  0  0  0  0  0  0  0  0  0  0  0
  1 16  2  0  0  0  0
  2 28  2  0  0  0  0
  3  4  1  0  0  0  0
  3 13  1  0  0  0  0
 15  3  1  1  0  0  0
  4 14  2  0  0  0  0
  5 14  1  0  0  0  0
  5 18  1  0  0  0  0
  6 24  1  0  0  0  0
  6 26  1  0  0  0  0
  6 28  1  0  0  0  0
  7 16  1  0  0  0  0
  7 23  1  0  0  0  0
  8 30  1  0  0  0  0
  8 37  2  0  0  0  0
  9 35  1  0  0  0  0
  9 36  2  0  0  0  0
 10 36  1  0  0  0  0
 10 38  1  0  0  0  0
 10 39  1  0  0  0  0
 11 32  3  0  0  0  0
 12 13  2  0  0  0  0
 12 14  1  0  0  0  0
 12 16  1  0  0  0  0
 13 17  1  0  0  0  0
 15 21  1  0  0  0  0
 15 25  1  0  0  0  0
 17 23  2  0  0  0  0
 18 22  1  0  0  0  0
 18 27  2  0  0  0  0
 19 20  1  0  0  0  0
 19 22  2  0  0  0  0
 19 24  1  0  0  0  0
 20 26  1  0  0  0  0
 20 29  2  0  0  0  0
 21 31  1  0  0  0  0
 21 32  1  6  0  0  0
 25 33  1  0  0  0  0
 27 29  1  0  0  0  0
 28 30  1  0  0  0  0
 30 35  2  0  0  0  0
 31 34  1  0  0  0  0
 33 34  1  0  0  0  0
 36 37  1  0  0  0  0
 38 40  1  0  0  0  0
 39 41  1  0  0  0  0
 40 42  1  0  0  0  0
 41 42  1  0  0  0  0
M  END
> <PUBCHEM_COMPOUND_ID_TYPE>
0

> <PUBCHEM_TOTAL_CHARGE>
0

> <PUBCHEM_SUBSTANCE_ID>
310948253

> <PUBCHEM_SUBSTANCE_VERSION>
1

> <PUBCHEM_EXT_DATASOURCE_NAME>
4488

> <PUBCHEM_EXT_DATASOURCE_REGID>
SCHEMBL16126430

> <PUBCHEM_SUBSTANCE_COMMENT>
InChI=1S/C31H33N9O2/c32-15-20-6-2-3-7-25(20)40-26-10-11-33-30(41)28(26)29(37-40)36-23-9-8-21-18-39(19-22(21)14-23)31(42)24-16-35-27(17-34-24)38-12-4-1-5-13-38/h8-11,14,16-17,20,25H,1-7,12-13,18-19H2,(H,33,41)(H,36,37)/t20-,25+/m1/s1
InChIKey=JPQVNJRHQKDPQT-NLFFAJNJSA-N

> <PUBCHEM_SUBSTANCE_SYNONYM>
SCHEMBL16126430

> <PUBCHEM_XREF_EXT_ID>
SCHEMBL16126430

> <PUBCHEM_EXT_DATASOURCE_URL>
https://www.surechembl.org/

> <PUBCHEM_EXT_SUBSTANCE_URL>
https://www.surechembl.org/chemical/SCHEMBL16126430

> <PUBCHEM_CID_ASSOCIATIONS>
117613833  1

> <PUBCHEM_COORDINATE_TYPE>
1
3

> <PUBCHEM_BONDANNOTATIONS>
21  32  6
15  3  5

$$$$
