310938200
  -OEChem-07211613022D

 23 26  0     0  0  0  0  0  0999 V2000
    2.5666   -4.5527    0.0000 O   0  0  0  0  0  0  0  0  0  0  0  0
    4.1860   -1.9861    0.0000 O   0  0  0  0  0  0  0  0  0  0  0  0
    1.3139   -4.1555    0.0000 N   0  0  0  0  0  0  0  0  0  0  0  0
    1.8027   -2.5360    0.0000 N   0  0  0  0  0  0  0  0  0  0  0  0
    2.0778   -5.2249    0.0000 N   0  0  0  0  0  0  0  0  0  0  0  0
    2.8416   -1.5888    0.0000 C   0  0  0  0  0  0  0  0  0  0  0  0
    2.3527   -3.1166    0.0000 C   0  0  0  0  0  0  0  0  0  0  0  0
    2.0778   -3.9110    0.0000 C   0  0  0  0  0  0  0  0  0  0  0  0
    3.3916   -2.1694    0.0000 C   0  0  0  0  0  0  0  0  0  0  0  0
    3.0860   -0.7944    0.0000 C   0  0  0  0  0  0  0  0  0  0  0  0
    1.3139   -4.9805    0.0000 C   0  0  0  0  0  0  0  0  0  0  0  0
    3.1471   -2.9638    0.0000 C   0  0  0  0  0  0  0  0  0  0  0  0
    0.6417   -5.4387    0.0000 C   0  0  0  0  0  0  0  0  0  0  0  0
    2.0167   -1.7416    0.0000 C   0  0  0  0  0  0  0  0  0  0  0  0
    2.9333    0.0000    0.0000 C   0  0  0  0  0  0  0  0  0  0  0  0
    3.7277   -0.2444    0.0000 C   0  0  0  0  0  0  0  0  0  0  0  0
    4.4305   -1.1917    0.0000 C   0  0  0  0  0  0  0  0  0  0  0  0
    5.2249   -1.0083    0.0000 C   0  0  0  0  0  0  0  0  0  0  0  0
    0.1528   -4.7666    0.0000 C   0  0  0  0  0  0  0  0  0  0  0  0
    0.0000   -5.9277    0.0000 C   0  0  0  0  0  0  0  0  0  0  0  0
    1.1305   -6.1110    0.0000 C   0  0  0  0  0  0  0  0  0  0  0  0
    5.8055   -0.4583    0.0000 C   0  0  0  0  0  0  0  0  0  0  0  0
    6.0193   -1.2528    0.0000 C   0  0  0  0  0  0  0  0  0  0  0  0
  1  5  1  0  0  0  0
  1  8  1  0  0  0  0
  2  9  1  0  0  0  0
  2 17  1  0  0  0  0
  3  8  2  0  0  0  0
  3 11  1  0  0  0  0
  4  7  1  0  0  0  0
  4 14  2  0  0  0  0
  5 11  2  0  0  0  0
  6  9  2  0  0  0  0
  6 10  1  0  0  0  0
  6 14  1  0  0  0  0
  7  8  1  0  0  0  0
  7 12  2  0  0  0  0
  9 12  1  0  0  0  0
 10 15  1  0  0  0  0
 10 16  1  0  0  0  0
 11 13  1  0  0  0  0
 13 19  1  0  0  0  0
 13 20  1  0  0  0  0
 13 21  1  0  0  0  0
 15 16  1  0  0  0  0
 17 18  1  0  0  0  0
 18 22  1  0  0  0  0
 18 23  1  0  0  0  0
 22 23  1  0  0  0  0
M  END
> <PUBCHEM_COMPOUND_ID_TYPE>
0

> <PUBCHEM_TOTAL_CHARGE>
0

> <PUBCHEM_SUBSTANCE_ID>
310938200

> <PUBCHEM_SUBSTANCE_VERSION>
1

> <PUBCHEM_EXT_DATASOURCE_NAME>
4488

> <PUBCHEM_EXT_DATASOURCE_REGID>
SCHEMBL16116055

> <PUBCHEM_SUBSTANCE_COMMENT>
InChI=1S/C18H23N3O2/c1-18(2,3)17-20-16(23-21-17)14-8-15(22-10-11-4-5-11)13(9-19-14)12-6-7-12/h8-9,11-12H,4-7,10H2,1-3H3
InChIKey=QQARDXULXGUIKC-UHFFFAOYSA-N

> <PUBCHEM_SUBSTANCE_SYNONYM>
SCHEMBL16116055

> <PUBCHEM_XREF_EXT_ID>
SCHEMBL16116055

> <PUBCHEM_EXT_DATASOURCE_URL>
https://www.surechembl.org/

> <PUBCHEM_EXT_SUBSTANCE_URL>
https://www.surechembl.org/chemical/SCHEMBL16116055

> <PUBCHEM_CID_ASSOCIATIONS>
86275941  1

> <PUBCHEM_COORDINATE_TYPE>
1
3

$$$$
