310944422
  -OEChem-07211613022D

 21 22  0     1  0  0  0  0  0999 V2000
   -1.8022    0.0284    0.0000 O   0  0  0  0  0  0  0  0  0  0  0  0
   -1.0643    1.2914    0.0000 O   0  0  0  0  0  0  0  0  0  0  0  0
    2.5401   -0.0710    0.0000 O   0  0  0  0  0  0  0  0  0  0  0  0
    3.2639   -1.3197    0.0000 O   0  0  0  0  0  0  0  0  0  0  0  0
   -0.3264    0.0284    0.0000 N   0  0  0  0  0  0  0  0  0  0  0  0
   -0.3122   -0.8089    0.0000 C   0  0  3  0  0  0  0  0  0  0  0  0
    0.4541    0.3832    0.0000 C   0  0  3  0  0  0  0  0  0  0  0  0
   -1.0785    0.4541    0.0000 C   0  0  0  0  0  0  0  0  0  0  0  0
    1.0785   -0.8514    0.0000 C   0  0  0  0  0  0  0  0  0  0  0  0
    0.3690   -1.2346    0.0000 C   0  0  0  0  0  0  0  0  0  0  0  0
    1.1352   -0.0284    0.0000 C   0  0  0  0  0  0  0  0  0  0  0  0
    0.4116   -0.8514    0.0000 C   0  0  0  0  0  0  0  0  0  0  0  0
    0.7805   -0.2129    0.0000 C   0  0  0  0  0  0  0  0  0  0  0  0
   -2.5117    0.4683    0.0000 C   0  0  0  0  0  0  0  0  0  0  0  0
    1.8306   -1.3055    0.0000 C   0  0  0  0  0  0  0  0  0  0  0  0
    2.5117   -0.8798    0.0000 C   0  0  0  0  0  0  0  0  0  0  0  0
   -2.5401    1.3197    0.0000 C   0  0  0  0  0  0  0  0  0  0  0  0
   -3.2639    0.0568    0.0000 C   0  0  0  0  0  0  0  0  0  0  0  0
   -1.7881    0.9082    0.0000 C   0  0  0  0  0  0  0  0  0  0  0  0
    1.8165    0.3690    0.0000 C   0  0  0  0  0  0  0  0  0  0  0  0
    1.8022    1.2204    0.0000 C   0  0  0  0  0  0  0  0  0  0  0  0
  1  8  1  0  0  0  0
  1 14  1  0  0  0  0
  2  8  2  0  0  0  0
  3 16  1  0  0  0  0
  3 20  1  0  0  0  0
  4 16  2  0  0  0  0
  5  6  1  0  0  0  0
  7  5  1  6  0  0  0
  5  8  1  0  0  0  0
  6 10  1  6  0  0  0
  6 12  1  0  0  0  0
  7 11  1  0  0  0  0
  7 13  1  0  0  0  0
  9 10  1  0  0  0  0
  9 11  1  0  0  0  0
  9 15  1  1  0  0  0
 12 13  1  0  0  0  0
 14 17  1  0  0  0  0
 14 18  1  0  0  0  0
 14 19  1  0  0  0  0
 15 16  1  0  0  0  0
 20 21  1  0  0  0  0
M  END
> <PUBCHEM_COMPOUND_ID_TYPE>
0

> <PUBCHEM_TOTAL_CHARGE>
0

> <PUBCHEM_SUBSTANCE_ID>
310944422

> <PUBCHEM_SUBSTANCE_VERSION>
1

> <PUBCHEM_EXT_DATASOURCE_NAME>
4488

> <PUBCHEM_EXT_DATASOURCE_REGID>
SCHEMBL16122497

> <PUBCHEM_SUBSTANCE_COMMENT>
InChI=1S/C16H27NO4/c1-5-20-14(18)10-11-8-12-6-7-13(9-11)17(12)15(19)21-16(2,3)4/h11-13H,5-10H2,1-4H3/t11-,12+,13-
InChIKey=ASJACRYUKHUULD-CLLJXQQHSA-N

> <PUBCHEM_SUBSTANCE_SYNONYM>
SCHEMBL16122497

> <PUBCHEM_XREF_EXT_ID>
SCHEMBL16122497

> <PUBCHEM_EXT_DATASOURCE_URL>
https://www.surechembl.org/

> <PUBCHEM_EXT_SUBSTANCE_URL>
https://www.surechembl.org/chemical/SCHEMBL16122497

> <PUBCHEM_CID_ASSOCIATIONS>
49759556  1

> <PUBCHEM_COORDINATE_TYPE>
1
3

> <PUBCHEM_BONDANNOTATIONS>
7  5  6
6  10  6
9  15  5

$$$$
