310945126
  -OEChem-07211613022D

 33 37  0     1  0  0  0  0  0999 V2000
    2.1047   -2.4830    0.0000 S   0  0  0  0  0  0  0  0  0  0  0  0
    3.7691   -2.5792    0.0000 O   0  0  0  0  0  0  0  0  0  0  0  0
   -0.8116   -0.1444    0.0000 O   0  0  0  0  0  0  0  0  0  0  0  0
   -1.6507    1.0936    0.0000 O   0  0  0  0  0  0  0  0  0  0  0  0
    2.3385   -0.3095    0.0000 N   0  0  0  0  0  0  0  0  0  0  0  0
    3.9755   -1.2037    0.0000 N   0  0  0  0  0  0  0  0  0  0  0  0
   -3.0814    1.0523    0.0000 N   0  0  0  0  0  0  0  0  0  0  0  0
   -1.5406   -1.3687    0.0000 N   0  0  0  0  0  0  0  0  0  0  0  0
    1.3206   -1.3825    0.0000 C   0  0  0  0  0  0  0  0  0  0  0  0
    2.1047   -1.1349    0.0000 C   0  0  0  0  0  0  0  0  0  0  0  0
    2.5861   -1.8089    0.0000 C   0  0  0  0  0  0  0  0  0  0  0  0
    1.3206   -2.1941    0.0000 C   0  0  0  0  0  0  0  0  0  0  0  0
    0.6053   -0.9835    0.0000 C   0  0  0  0  0  0  0  0  0  0  0  0
   -0.1100   -1.3825    0.0000 C   0  0  0  0  0  0  0  0  0  0  0  0
    3.4115   -1.8089    0.0000 C   0  0  0  0  0  0  0  0  0  0  0  0
    0.6053   -2.6205    0.0000 C   0  0  0  0  0  0  0  0  0  0  0  0
   -0.1100   -2.1941    0.0000 C   0  0  0  0  0  0  0  0  0  0  0  0
   -0.8391   -0.9698    0.0000 C   0  0  0  0  0  0  0  0  0  0  0  0
   -3.0538    0.2132    0.0000 C   0  0  0  0  0  0  0  0  0  0  0  0
   -3.7416   -0.2270    0.0000 C   0  0  0  0  0  0  0  0  0  0  0  0
   -2.2698   -0.9835    0.0000 C   0  0  0  0  0  0  0  0  0  0  0  0
    3.0951    0.0068    0.0000 C   0  0  0  0  0  0  0  0  0  0  0  0
    3.8379   -0.3783    0.0000 C   0  0  3  0  0  0  0  0  0  0  0  0
   -2.3248   -0.1720    0.0000 C   0  0  0  0  0  0  0  0  0  0  0  0
   -3.7004   -1.0523    0.0000 C   0  0  0  0  0  0  0  0  0  0  0  0
   -2.9575   -1.4238    0.0000 C   0  0  0  0  0  0  0  0  0  0  0  0
   -2.4210    1.4925    0.0000 C   0  0  0  0  0  0  0  0  0  0  0  0
   -4.4844    0.1582    0.0000 C   0  0  0  0  0  0  0  0  0  0  0  0
   -3.8104    1.4238    0.0000 C   0  0  0  0  0  0  0  0  0  0  0  0
   -4.5120    0.9835    0.0000 C   0  0  0  0  0  0  0  0  0  0  0  0
    4.5120    0.0894    0.0000 C   0  0  0  0  0  0  0  0  0  0  0  0
   -2.4348    2.3041    0.0000 C   0  0  0  0  0  0  0  0  0  0  0  0
   -3.1914    2.6205    0.0000 C   0  0  0  0  0  0  0  0  0  0  0  0
  1 11  1  0  0  0  0
  1 12  1  0  0  0  0
  2 15  2  0  0  0  0
  3 18  2  0  0  0  0
  4 27  2  0  0  0  0
  5 10  1  0  0  0  0
  5 22  1  0  0  0  0
  6 15  1  0  0  0  0
  6 23  1  0  0  0  0
  7 19  1  0  0  0  0
  7 27  1  0  0  0  0
  7 29  1  0  0  0  0
  8 18  1  0  0  0  0
  8 21  1  0  0  0  0
  9 10  1  0  0  0  0
  9 12  1  0  0  0  0
  9 13  2  0  0  0  0
 10 11  2  0  0  0  0
 11 15  1  0  0  0  0
 12 16  2  0  0  0  0
 13 14  1  0  0  0  0
 14 17  2  0  0  0  0
 14 18  1  0  0  0  0
 16 17  1  0  0  0  0
 19 20  2  0  0  0  0
 19 24  1  0  0  0  0
 20 25  1  0  0  0  0
 20 28  1  0  0  0  0
 21 24  2  0  0  0  0
 21 26  1  0  0  0  0
 22 23  1  0  0  0  0
 23 31  1  1  0  0  0
 25 26  2  0  0  0  0
 27 32  1  0  0  0  0
 28 30  1  0  0  0  0
 29 30  1  0  0  0  0
 32 33  2  0  0  0  0
M  END
> <PUBCHEM_COMPOUND_ID_TYPE>
0

> <PUBCHEM_TOTAL_CHARGE>
0

> <PUBCHEM_SUBSTANCE_ID>
310945126

> <PUBCHEM_SUBSTANCE_VERSION>
1

> <PUBCHEM_EXT_DATASOURCE_NAME>
4488

> <PUBCHEM_EXT_DATASOURCE_REGID>
SCHEMBL16123216

> <PUBCHEM_SUBSTANCE_COMMENT>
InChI=1S/C25H24N4O3S/c1-3-21(30)29-10-4-5-15-6-8-17(12-19(15)29)28-24(31)16-7-9-20-18(11-16)22-23(33-20)25(32)27-14(2)13-26-22/h3,6-9,11-12,14,26H,1,4-5,10,13H2,2H3,(H,27,32)(H,28,31)/t14-/m1/s1
InChIKey=VVPIVKYNJTWMIL-CQSZACIVSA-N

> <PUBCHEM_SUBSTANCE_SYNONYM>
SCHEMBL16123216

> <PUBCHEM_XREF_EXT_ID>
SCHEMBL16123216

> <PUBCHEM_EXT_DATASOURCE_URL>
https://www.surechembl.org/

> <PUBCHEM_EXT_SUBSTANCE_URL>
https://www.surechembl.org/chemical/SCHEMBL16123216

> <PUBCHEM_CID_ASSOCIATIONS>
117611221  1

> <PUBCHEM_COORDINATE_TYPE>
1
3

> <PUBCHEM_BONDANNOTATIONS>
23  31  5

$$$$
