310941711
  -OEChem-07211613022D

 25 27  0     0  0  0  0  0  0999 V2000
   -0.2604    1.2372    0.0000 S   0  0  0  0  0  0  0  0  0  0  0  0
   -0.1402   -1.2471    0.0000 F   0  0  0  0  0  0  0  0  0  0  0  0
    0.5710   -2.4793    0.0000 F   0  0  0  0  0  0  0  0  0  0  0  0
    1.2722   -1.2471    0.0000 O   0  0  0  0  0  0  0  0  0  0  0  0
    1.9834    2.4793    0.0000 O   0  0  0  0  0  0  0  0  0  0  0  0
    0.5610    2.4793    0.0000 N   0  0  0  0  0  0  0  0  0  0  0  0
   -1.4725    1.7881    0.0000 N   0  0  0  0  0  0  0  0  0  0  0  0
   -0.9216    2.4092    0.0000 N   0  0  0  0  0  0  0  0  0  0  0  0
    2.7047   -0.4157    0.0000 N   0  0  0  0  0  0  0  0  0  0  0  0
   -1.0618    1.0869    0.0000 C   0  0  0  0  0  0  0  0  0  0  0  0
   -0.1703    2.0886    0.0000 C   0  0  0  0  0  0  0  0  0  0  0  0
    1.2722    1.2572    0.0000 C   0  0  0  0  0  0  0  0  0  0  0  0
    1.2622    2.0786    0.0000 C   0  0  0  0  0  0  0  0  0  0  0  0
   -1.4925    0.3556    0.0000 C   0  0  0  0  0  0  0  0  0  0  0  0
    1.2822   -0.3957    0.0000 C   0  0  0  0  0  0  0  0  0  0  0  0
    1.9834    0.0250    0.0000 C   0  0  0  0  0  0  0  0  0  0  0  0
    1.9834    0.8264    0.0000 C   0  0  0  0  0  0  0  0  0  0  0  0
    0.5610    0.8364    0.0000 C   0  0  0  0  0  0  0  0  0  0  0  0
    0.5610    0.0050    0.0000 C   0  0  0  0  0  0  0  0  0  0  0  0
   -1.0718   -0.3656    0.0000 C   0  0  0  0  0  0  0  0  0  0  0  0
   -2.3039    0.3556    0.0000 C   0  0  0  0  0  0  0  0  0  0  0  0
    0.5610   -1.6379    0.0000 C   0  0  0  0  0  0  0  0  0  0  0  0
   -1.4826   -1.0669    0.0000 C   0  0  0  0  0  0  0  0  0  0  0  0
   -2.7047   -0.3757    0.0000 C   0  0  0  0  0  0  0  0  0  0  0  0
   -2.2940   -1.0669    0.0000 C   0  0  0  0  0  0  0  0  0  0  0  0
  1 10  1  0  0  0  0
  1 11  1  0  0  0  0
  2 22  1  0  0  0  0
  3 22  1  0  0  0  0
  4 15  1  0  0  0  0
  4 22  1  0  0  0  0
  5 13  2  0  0  0  0
  6 11  1  0  0  0  0
  6 13  1  0  0  0  0
  7  8  1  0  0  0  0
  7 10  2  0  0  0  0
  8 11  2  0  0  0  0
  9 16  1  0  0  0  0
 10 14  1  0  0  0  0
 12 13  1  0  0  0  0
 12 17  1  0  0  0  0
 12 18  2  0  0  0  0
 14 20  2  0  0  0  0
 14 21  1  0  0  0  0
 15 16  1  0  0  0  0
 15 19  2  0  0  0  0
 16 17  2  0  0  0  0
 18 19  1  0  0  0  0
 20 23  1  0  0  0  0
 21 24  2  0  0  0  0
 23 25  2  0  0  0  0
 24 25  1  0  0  0  0
M  END
> <PUBCHEM_COMPOUND_ID_TYPE>
0

> <PUBCHEM_TOTAL_CHARGE>
0

> <PUBCHEM_SUBSTANCE_ID>
310941711

> <PUBCHEM_SUBSTANCE_VERSION>
1

> <PUBCHEM_EXT_DATASOURCE_NAME>
4488

> <PUBCHEM_EXT_DATASOURCE_REGID>
SCHEMBL16119742

> <PUBCHEM_SUBSTANCE_COMMENT>
InChI=1S/C16H12F2N4O2S/c17-15(18)24-12-7-6-10(8-11(12)19)13(23)20-16-22-21-14(25-16)9-4-2-1-3-5-9/h1-8,15H,19H2,(H,20,22,23)
InChIKey=QRWFJQKLFYRJOG-UHFFFAOYSA-N

> <PUBCHEM_SUBSTANCE_SYNONYM>
SCHEMBL16119742

> <PUBCHEM_XREF_EXT_ID>
SCHEMBL16119742

> <PUBCHEM_EXT_DATASOURCE_URL>
https://www.surechembl.org/

> <PUBCHEM_EXT_SUBSTANCE_URL>
https://www.surechembl.org/chemical/SCHEMBL16119742

> <PUBCHEM_CID_ASSOCIATIONS>
117608483  1

> <PUBCHEM_COORDINATE_TYPE>
1
3

$$$$
