310938469
  -OEChem-07211613022D

 21 23  0     0  0  0  0  0  0999 V2000
    4.8274   -1.4790    0.0000 O   0  0  0  0  0  0  0  0  0  0  0  0
    4.8274   -2.8964    0.0000 O   0  0  0  0  0  0  0  0  0  0  0  0
    3.1224   -2.8553    0.0000 N   0  0  0  0  0  0  0  0  0  0  0  0
    0.3492   -0.3492    0.0000 N   0  0  0  0  0  0  0  0  0  0  0  0
    1.6845   -1.3147    0.0000 C   0  0  0  0  0  0  0  0  0  0  0  0
    2.3418   -1.7872    0.0000 C   0  0  0  0  0  0  0  0  0  0  0  0
    0.9244   -1.6639    0.0000 C   0  0  0  0  0  0  0  0  0  0  0  0
    3.5949   -2.1775    0.0000 C   0  0  0  0  0  0  0  0  0  0  0  0
    3.1224   -1.5201    0.0000 C   0  0  0  0  0  0  0  0  0  0  0  0
    0.8422   -2.4856    0.0000 C   0  0  0  0  0  0  0  0  0  0  0  0
    2.3418   -2.5883    0.0000 C   0  0  0  0  0  0  0  0  0  0  0  0
    1.7666   -0.5135    0.0000 C   0  0  0  0  0  0  0  0  0  0  0  0
    0.2671   -1.1503    0.0000 C   0  0  0  0  0  0  0  0  0  0  0  0
    4.4165   -2.1775    0.0000 C   0  0  0  0  0  0  0  0  0  0  0  0
    1.1093    0.0000    0.0000 C   0  0  0  0  0  0  0  0  0  0  0  0
    1.4996   -2.9786    0.0000 C   0  0  0  0  0  0  0  0  0  0  0  0
    0.0822   -2.8143    0.0000 C   0  0  0  0  0  0  0  0  0  0  0  0
    1.4174   -3.7797    0.0000 C   0  0  0  0  0  0  0  0  0  0  0  0
    0.0000   -3.6359    0.0000 C   0  0  0  0  0  0  0  0  0  0  0  0
    0.6573   -4.1084    0.0000 C   0  0  0  0  0  0  0  0  0  0  0  0
    5.6286   -1.4790    0.0000 C   0  0  0  0  0  0  0  0  0  0  0  0
  1 14  1  0  0  0  0
  1 21  1  0  0  0  0
  2 14  2  0  0  0  0
  3  8  1  0  0  0  0
  3 11  1  0  0  0  0
  4 13  1  0  0  0  0
  4 15  2  0  0  0  0
  5  6  1  0  0  0  0
  5  7  1  0  0  0  0
  5 12  2  0  0  0  0
  6  9  1  0  0  0  0
  6 11  2  0  0  0  0
  7 10  1  0  0  0  0
  7 13  2  0  0  0  0
  8  9  2  0  0  0  0
  8 14  1  0  0  0  0
 10 16  2  0  0  0  0
 10 17  1  0  0  0  0
 12 15  1  0  0  0  0
 16 18  1  0  0  0  0
 17 19  2  0  0  0  0
 18 20  2  0  0  0  0
 19 20  1  0  0  0  0
M  END
> <PUBCHEM_COMPOUND_ID_TYPE>
0

> <PUBCHEM_TOTAL_CHARGE>
0

> <PUBCHEM_SUBSTANCE_ID>
310938469

> <PUBCHEM_SUBSTANCE_VERSION>
1

> <PUBCHEM_EXT_DATASOURCE_NAME>
4488

> <PUBCHEM_EXT_DATASOURCE_REGID>
SCHEMBL16116370

> <PUBCHEM_SUBSTANCE_COMMENT>
InChI=1S/C17H14N2O2/c1-21-17(20)16-9-13(10-19-16)14-7-8-18-11-15(14)12-5-3-2-4-6-12/h2-11,19H,1H3
InChIKey=HHELWTPEZNEOMD-UHFFFAOYSA-N

> <PUBCHEM_SUBSTANCE_SYNONYM>
SCHEMBL16116370

> <PUBCHEM_XREF_EXT_ID>
SCHEMBL16116370

> <PUBCHEM_EXT_DATASOURCE_URL>
https://www.surechembl.org/

> <PUBCHEM_EXT_SUBSTANCE_URL>
https://www.surechembl.org/chemical/SCHEMBL16116370

> <PUBCHEM_CID_ASSOCIATIONS>
117605927  1

> <PUBCHEM_COORDINATE_TYPE>
1
3

$$$$
