310948221
  -OEChem-07211613022D

 18 19  0     0  0  0  0  0  0999 V2000
    3.0181   -0.1382    0.0000 Br  0  0  0  0  0  0  0  0  0  0  0  0
   -3.0181    0.4420    0.0000 F   0  0  0  0  0  0  0  0  0  0  0  0
   -2.9767    1.1740    0.0000 F   0  0  0  0  0  0  0  0  0  0  0  0
   -0.3108   -0.1382    0.0000 N   0  0  0  0  0  0  0  0  0  0  0  0
   -0.7942    0.5249    0.0000 N   0  0  0  0  0  0  0  0  0  0  0  0
    0.5180    1.2846    0.0000 N   0  0  0  0  0  0  0  0  0  0  0  0
   -1.5677    0.2901    0.0000 C   0  0  0  0  0  0  0  0  0  0  0  0
    0.5318   -0.1243    0.0000 C   0  0  0  0  0  0  0  0  0  0  0  0
   -0.7942   -0.7873    0.0000 C   0  0  0  0  0  0  0  0  0  0  0  0
   -2.2722    0.7735    0.0000 C   0  0  0  0  0  0  0  0  0  0  0  0
   -1.5815   -0.5387    0.0000 C   0  0  0  0  0  0  0  0  0  0  0  0
    0.9462    0.5801    0.0000 C   0  0  0  0  0  0  0  0  0  0  0  0
    0.9462   -0.8288    0.0000 C   0  0  0  0  0  0  0  0  0  0  0  0
    1.7749    0.5801    0.0000 C   0  0  0  0  0  0  0  0  0  0  0  0
    2.1893   -0.1243    0.0000 C   0  0  0  0  0  0  0  0  0  0  0  0
    1.7749   -0.8288    0.0000 C   0  0  0  0  0  0  0  0  0  0  0  0
   -0.5042   -1.5884    0.0000 C   0  0  0  0  0  0  0  0  0  0  0  0
   -2.1755    1.5884    0.0000 C   0  0  0  0  0  0  0  0  0  0  0  0
  1 15  1  0  0  0  0
  2 10  1  0  0  0  0
  3 10  1  0  0  0  0
  4  5  1  0  0  0  0
  4  8  1  0  0  0  0
  4  9  1  0  0  0  0
  5  7  2  0  0  0  0
  6 12  1  0  0  0  0
  7 10  1  0  0  0  0
  7 11  1  0  0  0  0
  8 12  1  0  0  0  0
  8 13  2  0  0  0  0
  9 11  2  0  0  0  0
  9 17  1  0  0  0  0
 10 18  1  0  0  0  0
 12 14  2  0  0  0  0
 13 16  1  0  0  0  0
 14 15  1  0  0  0  0
 15 16  2  0  0  0  0
M  END
> <PUBCHEM_COMPOUND_ID_TYPE>
0

> <PUBCHEM_TOTAL_CHARGE>
0

> <PUBCHEM_SUBSTANCE_ID>
310948221

> <PUBCHEM_SUBSTANCE_VERSION>
1

> <PUBCHEM_EXT_DATASOURCE_NAME>
4488

> <PUBCHEM_EXT_DATASOURCE_REGID>
SCHEMBL16126398

> <PUBCHEM_SUBSTANCE_COMMENT>
InChI=1S/C12H12BrF2N3/c1-7-5-11(12(2,14)15)17-18(7)10-4-3-8(13)6-9(10)16/h3-6H,16H2,1-2H3
InChIKey=CCXQHWJMTPNPMD-UHFFFAOYSA-N

> <PUBCHEM_SUBSTANCE_SYNONYM>
SCHEMBL16126398

> <PUBCHEM_XREF_EXT_ID>
SCHEMBL16126398

> <PUBCHEM_EXT_DATASOURCE_URL>
https://www.surechembl.org/

> <PUBCHEM_EXT_SUBSTANCE_URL>
https://www.surechembl.org/chemical/SCHEMBL16126398

> <PUBCHEM_CID_ASSOCIATIONS>
117613801  1

> <PUBCHEM_COORDINATE_TYPE>
1
3

$$$$
