310943419
  -OEChem-07211613022D

 34 37  0     0  0  0  0  0  0999 V2000
   -2.0548    1.8707    0.0000 Cl  0  0  0  0  0  0  0  0  0  0  0  0
    4.2496    1.3551    0.0000 F   0  0  0  0  0  0  0  0  0  0  0  0
    5.0745    1.3551    0.0000 F   0  0  0  0  0  0  0  0  0  0  0  0
    5.3691    0.2209    0.0000 F   0  0  0  0  0  0  0  0  0  0  0  0
   -3.9402   -1.0311    0.0000 O   0  0  0  0  0  0  0  0  0  0  0  0
    1.0679   -0.6186    0.0000 O   0  0  0  0  0  0  0  0  0  0  0  0
   -5.3691    1.4583    0.0000 O   0  0  0  0  0  0  0  0  0  0  0  0
   -2.5114   -1.0311    0.0000 N   0  0  0  0  0  0  0  0  0  0  0  0
   -3.9402    0.6334    0.0000 N   0  0  0  0  0  0  0  0  0  0  0  0
   -0.3609    1.8707    0.0000 N   0  0  0  0  0  0  0  0  0  0  0  0
    1.7897    0.6334    0.0000 N   0  0  0  0  0  0  0  0  0  0  0  0
   -1.8044    0.2209    0.0000 C   0  0  0  0  0  0  0  0  0  0  0  0
   -1.0827    0.6334    0.0000 C   0  0  0  0  0  0  0  0  0  0  0  0
   -3.2185    0.2209    0.0000 C   0  0  0  0  0  0  0  0  0  0  0  0
   -3.2185   -0.5892    0.0000 C   0  0  0  0  0  0  0  0  0  0  0  0
   -2.5114    0.6334    0.0000 C   0  0  0  0  0  0  0  0  0  0  0  0
   -1.8044   -0.6186    0.0000 C   0  0  0  0  0  0  0  0  0  0  0  0
   -1.0679    1.4730    0.0000 C   0  0  0  0  0  0  0  0  0  0  0  0
    0.3462    0.6334    0.0000 C   0  0  0  0  0  0  0  0  0  0  0  0
   -0.3609    0.2209    0.0000 C   0  0  0  0  0  0  0  0  0  0  0  0
    1.0827    0.2357    0.0000 C   0  0  0  0  0  0  0  0  0  0  0  0
    0.3609    1.4583    0.0000 C   0  0  0  0  0  0  0  0  0  0  0  0
    2.5114    0.2209    0.0000 C   0  0  0  0  0  0  0  0  0  0  0  0
    3.9255    0.2209    0.0000 C   0  0  0  0  0  0  0  0  0  0  0  0
   -3.9402    1.4583    0.0000 C   0  0  0  0  0  0  0  0  0  0  0  0
   -4.6473    0.2209    0.0000 C   0  0  0  0  0  0  0  0  0  0  0  0
    4.6473    0.6481    0.0000 C   0  0  0  0  0  0  0  0  0  0  0  0
    3.2185    0.6186    0.0000 C   0  0  0  0  0  0  0  0  0  0  0  0
   -2.4820   -1.8707    0.0000 C   0  0  0  0  0  0  0  0  0  0  0  0
    2.5114   -0.6040    0.0000 C   0  0  0  0  0  0  0  0  0  0  0  0
    3.9255   -0.6040    0.0000 C   0  0  0  0  0  0  0  0  0  0  0  0
   -4.6620    1.8707    0.0000 C   0  0  0  0  0  0  0  0  0  0  0  0
   -5.3691    0.6334    0.0000 C   0  0  0  0  0  0  0  0  0  0  0  0
    3.2332   -1.0164    0.0000 C   0  0  0  0  0  0  0  0  0  0  0  0
  1 18  1  0  0  0  0
  2 27  1  0  0  0  0
  3 27  1  0  0  0  0
  4 27  1  0  0  0  0
  5 15  2  0  0  0  0
  6 21  2  0  0  0  0
  7 32  1  0  0  0  0
  7 33  1  0  0  0  0
  8 15  1  0  0  0  0
  8 17  1  0  0  0  0
  8 29  1  0  0  0  0
  9 14  1  0  0  0  0
  9 25  1  0  0  0  0
  9 26  1  0  0  0  0
 10 18  1  0  0  0  0
 10 22  2  0  0  0  0
 11 21  1  0  0  0  0
 11 23  1  0  0  0  0
 12 13  1  0  0  0  0
 12 16  1  0  0  0  0
 12 17  2  0  0  0  0
 13 18  2  0  0  0  0
 13 20  1  0  0  0  0
 14 15  1  0  0  0  0
 14 16  2  0  0  0  0
 19 20  2  0  0  0  0
 19 21  1  0  0  0  0
 19 22  1  0  0  0  0
 23 28  1  0  0  0  0
 23 30  2  0  0  0  0
 24 27  1  0  0  0  0
 24 28  2  0  0  0  0
 24 31  1  0  0  0  0
 25 32  1  0  0  0  0
 26 33  1  0  0  0  0
 30 34  1  0  0  0  0
 31 34  2  0  0  0  0
M  END
> <PUBCHEM_COMPOUND_ID_TYPE>
0

> <PUBCHEM_TOTAL_CHARGE>
0

> <PUBCHEM_SUBSTANCE_ID>
310943419

> <PUBCHEM_SUBSTANCE_VERSION>
1

> <PUBCHEM_EXT_DATASOURCE_NAME>
4488

> <PUBCHEM_EXT_DATASOURCE_REGID>
SCHEMBL16121483

> <PUBCHEM_SUBSTANCE_COMMENT>
InChI=1S/C23H20ClF3N4O3/c1-30-13-15(10-19(22(30)33)31-5-7-34-8-6-31)18-9-14(12-28-20(18)24)21(32)29-17-4-2-3-16(11-17)23(25,26)27/h2-4,9-13H,5-8H2,1H3,(H,29,32)
InChIKey=DRUKQYOAKIEKNS-UHFFFAOYSA-N

> <PUBCHEM_SUBSTANCE_SYNONYM>
SCHEMBL16121483

> <PUBCHEM_XREF_EXT_ID>
SCHEMBL16121483

> <PUBCHEM_EXT_DATASOURCE_URL>
https://www.surechembl.org/

> <PUBCHEM_EXT_SUBSTANCE_URL>
https://www.surechembl.org/chemical/SCHEMBL16121483

> <PUBCHEM_CID_ASSOCIATIONS>
117609843  1

> <PUBCHEM_COORDINATE_TYPE>
1
3

$$$$
