310941112
  -OEChem-07211613022D

 42 45  0     1  0  0  0  0  0999 V2000
    5.2451    0.9777    0.0000 O   0  0  0  0  0  0  0  0  0  0  0  0
    4.1176   -0.9777    0.0000 O   0  0  0  0  0  0  0  0  0  0  0  0
    1.7341    0.9777    0.0000 O   0  0  0  0  0  0  0  0  0  0  0  0
   -0.4211   -1.1061    0.0000 O   0  0  0  0  0  0  0  0  0  0  0  0
   -2.5761    0.9777    0.0000 O   0  0  0  0  0  0  0  0  0  0  0  0
   -5.1595   -1.8197    0.0000 O   0  0  0  0  0  0  0  0  0  0  0  0
    3.9035   -2.7617    0.0000 O   0  0  0  0  0  0  0  0  0  0  0  0
    2.4620   -0.2783    0.0000 N   0  0  0  0  0  0  0  0  0  0  0  0
    0.3068    0.1356    0.0000 N   0  0  0  0  0  0  0  0  0  0  0  0
   -1.8625   -0.2783    0.0000 N   0  0  0  0  0  0  0  0  0  0  0  0
    4.8170    0.3068    0.0000 C   0  0  3  0  0  0  0  0  0  0  0  0
    4.1033   -0.1070    0.0000 C   0  0  0  0  0  0  0  0  0  0  0  0
    4.4459    0.9920    0.0000 C   0  0  0  0  0  0  0  0  0  0  0  0
    3.4040    0.2926    0.0000 C   0  0  3  0  0  0  0  0  0  0  0  0
    5.5449   -0.1213    0.0000 C   0  0  0  0  0  0  0  0  0  0  0  0
    3.4040    1.3630    0.0000 C   0  0  0  0  0  0  0  0  0  0  0  0
    1.7484    0.1498    0.0000 C   0  0  0  0  0  0  0  0  0  0  0  0
    1.0348   -0.2498    0.0000 C   0  0  3  0  0  0  0  0  0  0  0  0
    2.6618    1.7912    0.0000 C   0  0  0  0  0  0  0  0  0  0  0  0
    1.0062   -1.0918    0.0000 C   0  0  0  0  0  0  0  0  0  0  0  0
   -0.4068   -0.2355    0.0000 C   0  0  0  0  0  0  0  0  0  0  0  0
    1.7484   -1.4915    0.0000 C   0  0  0  0  0  0  0  0  0  0  0  0
    2.5904    2.6047    0.0000 C   0  0  0  0  0  0  0  0  0  0  0  0
    1.9197    1.4486    0.0000 C   0  0  0  0  0  0  0  0  0  0  0  0
   -3.2898   -0.2498    0.0000 C   0  0  0  0  0  0  0  0  0  0  0  0
   -1.1489    0.1641    0.0000 C   0  0  3  0  0  0  0  0  0  0  0  0
   -2.5619    0.1498    0.0000 C   0  0  0  0  0  0  0  0  0  0  0  0
   -4.7313   -1.0918    0.0000 C   0  0  0  0  0  0  0  0  0  0  0  0
   -4.0320    0.1498    0.0000 C   0  0  0  0  0  0  0  0  0  0  0  0
   -3.2898   -1.0775    0.0000 C   0  0  0  0  0  0  0  0  0  0  0  0
    1.7912    2.7617    0.0000 C   0  0  0  0  0  0  0  0  0  0  0  0
    1.3773    2.0624    0.0000 C   0  0  0  0  0  0  0  0  0  0  0  0
   -4.7170   -0.2498    0.0000 C   0  0  0  0  0  0  0  0  0  0  0  0
   -4.0034   -1.4915    0.0000 C   0  0  0  0  0  0  0  0  0  0  0  0
    1.7627   -2.3336    0.0000 C   0  0  0  0  0  0  0  0  0  0  0  0
    2.4620   -1.1061    0.0000 C   0  0  0  0  0  0  0  0  0  0  0  0
    3.1899   -2.3193    0.0000 C   0  0  0  0  0  0  0  0  0  0  0  0
    2.4620   -2.7332    0.0000 C   0  0  0  0  0  0  0  0  0  0  0  0
    3.1899   -1.5057    0.0000 C   0  0  0  0  0  0  0  0  0  0  0  0
   -1.1347    0.9777    0.0000 C   0  0  0  0  0  0  0  0  0  0  0  0
   -5.5449   -1.0918    0.0000 C   0  0  0  0  0  0  0  0  0  0  0  0
    4.6314   -2.3193    0.0000 C   0  0  0  0  0  0  0  0  0  0  0  0
  1 11  1  0  0  0  0
  1 13  1  0  0  0  0
  2 12  2  0  0  0  0
  3 17  2  0  0  0  0
  4 21  2  0  0  0  0
  5 27  2  0  0  0  0
 28  6  1  1  0  0  0
  7 37  1  0  0  0  0
  7 42  1  0  0  0  0
 14  8  1  1  0  0  0
  8 17  1  0  0  0  0
 18  9  1  6  0  0  0
  9 21  1  0  0  0  0
 10 26  1  0  0  0  0
 10 27  1  0  0  0  0
 11 12  1  1  0  0  0
 11 13  1  0  0  0  0
 11 15  1  6  0  0  0
 12 14  1  0  0  0  0
 14 16  1  0  0  0  0
 16 19  1  0  0  0  0
 17 18  1  0  0  0  0
 18 20  1  0  0  0  0
 19 23  2  0  0  0  0
 19 24  1  0  0  0  0
 20 22  1  0  0  0  0
 21 26  1  0  0  0  0
 22 35  2  0  0  0  0
 22 36  1  0  0  0  0
 23 31  1  0  0  0  0
 24 32  1  0  0  0  0
 25 27  1  1  0  0  0
 25 29  1  0  0  0  0
 25 30  1  0  0  0  0
 26 40  1  6  0  0  0
 28 33  1  0  0  0  0
 28 34  1  0  0  0  0
 28 41  1  6  0  0  0
 29 33  1  0  0  0  0
 30 34  1  0  0  0  0
 31 32  1  0  0  0  0
 35 38  1  0  0  0  0
 36 39  2  0  0  0  0
 37 38  2  0  0  0  0
 37 39  1  0  0  0  0
M  END
> <PUBCHEM_COMPOUND_ID_TYPE>
0

> <PUBCHEM_TOTAL_CHARGE>
0

> <PUBCHEM_SUBSTANCE_ID>
310941112

> <PUBCHEM_SUBSTANCE_VERSION>
1

> <PUBCHEM_EXT_DATASOURCE_NAME>
4488

> <PUBCHEM_EXT_DATASOURCE_REGID>
SCHEMBL16119072

> <PUBCHEM_SUBSTANCE_COMMENT>
InChI=1S/C32H45N3O7/c1-20(33-29(38)23-13-15-31(2,40)16-14-23)28(37)35-26(18-22-9-11-24(41-4)12-10-22)30(39)34-25(17-21-7-5-6-8-21)27(36)32(3)19-42-32/h7,9-12,20,23,25-26,40H,5-6,8,13-19H2,1-4H3,(H,33,38)(H,34,39)(H,35,37)/t20-,23-,25+,26+,31+,32-/m1/s1
InChIKey=DQKJGJYVIQBVBH-IXEAZQAMSA-N

> <PUBCHEM_SUBSTANCE_SYNONYM>
SCHEMBL16119072

> <PUBCHEM_XREF_EXT_ID>
SCHEMBL16119072

> <PUBCHEM_EXT_DATASOURCE_URL>
https://www.surechembl.org/

> <PUBCHEM_EXT_SUBSTANCE_URL>
https://www.surechembl.org/chemical/SCHEMBL16119072

> <PUBCHEM_CID_ASSOCIATIONS>
117607995  1

> <PUBCHEM_COORDINATE_TYPE>
1
3

> <PUBCHEM_BONDANNOTATIONS>
11  12  5
11  15  6
25  27  5
26  40  6
28  41  6
28  6  5
14  8  5
18  9  6

$$$$
