310945203
  -OEChem-07211613022D

 36 41  0     0  0  0  0  0  0999 V2000
    3.5191    3.7863    0.0000 O   0  0  0  0  0  0  0  0  0  0  0  0
   -2.8374    1.2068    0.0000 O   0  0  0  0  0  0  0  0  0  0  0  0
    2.2662    1.3358    0.0000 N   0  0  0  0  0  0  0  0  0  0  0  0
   -0.7738    1.9438    0.0000 N   0  0  0  0  0  0  0  0  0  0  0  0
    4.3482    2.6439    0.0000 N   0  0  0  0  0  0  0  0  0  0  0  0
   -2.0082   -1.6306    0.0000 N   0  0  0  0  0  0  0  0  0  0  0  0
   -2.8374   -0.1935    0.0000 N   0  0  0  0  0  0  0  0  0  0  0  0
   -2.8374   -3.0677    0.0000 N   0  0  0  0  0  0  0  0  0  0  0  0
    1.7135    1.9438    0.0000 C   0  0  0  0  0  0  0  0  0  0  0  0
    2.1188    2.6624    0.0000 C   0  0  0  0  0  0  0  0  0  0  0  0
    2.9295    2.4781    0.0000 C   0  0  0  0  0  0  0  0  0  0  0  0
    0.8844    1.9622    0.0000 C   0  0  0  0  0  0  0  0  0  0  0  0
    3.0032    1.6674    0.0000 C   0  0  0  0  0  0  0  0  0  0  0  0
    0.4790    2.6624    0.0000 C   0  0  0  0  0  0  0  0  0  0  0  0
    3.5928    2.9756    0.0000 C   0  0  0  0  0  0  0  0  0  0  0  0
    1.7135    3.3625    0.0000 C   0  0  0  0  0  0  0  0  0  0  0  0
    0.4790    1.2253    0.0000 C   0  0  0  0  0  0  0  0  0  0  0  0
   -0.3685    1.2253    0.0000 C   0  0  0  0  0  0  0  0  0  0  0  0
    0.8844    3.3625    0.0000 C   0  0  0  0  0  0  0  0  0  0  0  0
   -0.7738    0.5067    0.0000 C   0  0  0  0  0  0  0  0  0  0  0  0
    3.7770    1.3358    0.0000 C   0  0  0  0  0  0  0  0  0  0  0  0
   -0.3501    2.6624    0.0000 C   0  0  0  0  0  0  0  0  0  0  0  0
   -1.6029   -0.9304    0.0000 C   0  0  0  0  0  0  0  0  0  0  0  0
   -2.0082   -0.2118    0.0000 C   0  0  0  0  0  0  0  0  0  0  0  0
   -1.5845    0.4883    0.0000 C   0  0  0  0  0  0  0  0  0  0  0  0
    4.4403    1.7964    0.0000 C   0  0  0  0  0  0  0  0  0  0  0  0
   -0.3685   -0.1935    0.0000 C   0  0  0  0  0  0  0  0  0  0  0  0
   -0.7738   -0.9120    0.0000 C   0  0  0  0  0  0  0  0  0  0  0  0
   -2.8190   -1.6306    0.0000 C   0  0  0  0  0  0  0  0  0  0  0  0
   -1.6029   -2.3492    0.0000 C   0  0  0  0  0  0  0  0  0  0  0  0
   -3.2611    0.5067    0.0000 C   0  0  0  0  0  0  0  0  0  0  0  0
   -3.2427   -2.3492    0.0000 C   0  0  0  0  0  0  0  0  0  0  0  0
   -1.9899   -3.0677    0.0000 C   0  0  0  0  0  0  0  0  0  0  0  0
   -4.0718    0.5251    0.0000 C   0  0  0  0  0  0  0  0  0  0  0  0
   -3.2611   -3.7863    0.0000 C   0  0  0  0  0  0  0  0  0  0  0  0
   -4.4403    1.2621    0.0000 C   0  0  0  0  0  0  0  0  0  0  0  0
  1 15  2  0  0  0  0
  2 31  2  0  0  0  0
  3  9  1  0  0  0  0
  3 13  1  0  0  0  0
  4 18  1  0  0  0  0
  4 22  2  0  0  0  0
  5 15  1  0  0  0  0
  5 26  1  0  0  0  0
  6 23  1  0  0  0  0
  6 29  1  0  0  0  0
  6 30  1  0  0  0  0
  7 24  1  0  0  0  0
  7 31  1  0  0  0  0
  8 32  1  0  0  0  0
  8 33  1  0  0  0  0
  8 35  1  0  0  0  0
  9 10  2  0  0  0  0
  9 12  1  0  0  0  0
 10 11  1  0  0  0  0
 10 16  1  0  0  0  0
 11 13  2  0  0  0  0
 11 15  1  0  0  0  0
 12 14  2  0  0  0  0
 12 17  1  0  0  0  0
 13 21  1  0  0  0  0
 14 19  1  0  0  0  0
 14 22  1  0  0  0  0
 16 19  1  0  0  0  0
 17 18  2  0  0  0  0
 18 20  1  0  0  0  0
 20 25  2  0  0  0  0
 20 27  1  0  0  0  0
 21 26  1  0  0  0  0
 23 24  2  0  0  0  0
 23 28  1  0  0  0  0
 24 25  1  0  0  0  0
 27 28  2  0  0  0  0
 29 32  1  0  0  0  0
 30 33  1  0  0  0  0
 31 34  1  0  0  0  0
 34 36  2  0  0  0  0
M  END
> <PUBCHEM_COMPOUND_ID_TYPE>
0

> <PUBCHEM_TOTAL_CHARGE>
0

> <PUBCHEM_SUBSTANCE_ID>
310945203

> <PUBCHEM_SUBSTANCE_VERSION>
1

> <PUBCHEM_EXT_DATASOURCE_NAME>
4488

> <PUBCHEM_EXT_DATASOURCE_REGID>
SCHEMBL16123293

> <PUBCHEM_SUBSTANCE_COMMENT>
InChI=1S/C28H30N6O2/c1-3-25(35)31-23-14-17(5-7-24(23)34-12-10-33(2)11-13-34)22-15-20-18(16-30-22)4-6-19-26-21(32-27(19)20)8-9-29-28(26)36/h3,5,7,14-16,32H,1,4,6,8-13H2,2H3,(H,29,36)(H,31,35)
InChIKey=ASLPRZKKTQSKLN-UHFFFAOYSA-N

> <PUBCHEM_SUBSTANCE_SYNONYM>
SCHEMBL16123293

> <PUBCHEM_XREF_EXT_ID>
SCHEMBL16123293

> <PUBCHEM_EXT_DATASOURCE_URL>
https://www.surechembl.org/

> <PUBCHEM_EXT_SUBSTANCE_URL>
https://www.surechembl.org/chemical/SCHEMBL16123293

> <PUBCHEM_CID_ASSOCIATIONS>
86300019  1

> <PUBCHEM_COORDINATE_TYPE>
1
3

$$$$
