310931088
  -OEChem-07211613022D

 37 41  0     1  0  0  0  0  0999 V2000
    2.0820   -3.4842    0.0000 S   0  0  0  0  0  0  0  0  0  0  0  0
    4.9288   -2.5069    0.0000 O   0  0  0  0  0  0  0  0  0  0  0  0
    4.4190   -4.4615    0.0000 O   0  0  0  0  0  0  0  0  0  0  0  0
    0.9348   -1.2322    0.0000 O   0  0  0  0  0  0  0  0  0  0  0  0
    3.9091   -4.7589    0.0000 O   0  0  0  0  0  0  0  0  0  0  0  0
    4.6314   -5.9911    0.0000 O   0  0  0  0  0  0  0  0  0  0  0  0
    5.9911   -8.0306    0.0000 O   0  0  0  0  0  0  0  0  0  0  0  0
    5.5237   -6.6709    0.0000 O   0  0  0  0  0  0  0  0  0  0  0  0
    2.9743   -1.9971    0.0000 N   0  0  0  0  0  0  0  0  0  0  0  0
    2.5069   -3.9091    0.0000 N   0  0  0  0  0  0  0  0  0  0  0  0
    3.9091   -7.2233    0.0000 N   0  0  0  0  0  0  0  0  0  0  0  0
    3.3992   -2.7194    0.0000 C   0  0  0  0  0  0  0  0  0  0  0  0
    3.1868   -3.4842    0.0000 C   0  0  0  0  0  0  0  0  0  0  0  0
    4.2490   -2.9318    0.0000 C   0  0  0  0  0  0  0  0  0  0  0  0
    4.0366   -3.7391    0.0000 C   0  0  0  0  0  0  0  0  0  0  0  0
    2.1670   -1.9971    0.0000 C   0  0  3  0  0  0  0  0  0  0  0  0
    2.5069   -4.7164    0.0000 C   0  0  0  0  0  0  0  0  0  0  0  0
    3.2293   -5.1413    0.0000 C   0  0  0  0  0  0  0  0  0  0  0  0
    3.1868   -5.9911    0.0000 C   0  0  0  0  0  0  0  0  0  0  0  0
    1.7421   -1.3172    0.0000 C   0  0  0  0  0  0  0  0  0  0  0  0
    1.7421   -2.7194    0.0000 C   0  0  3  0  0  0  0  0  0  0  0  0
    3.9091   -6.4160    0.0000 C   0  0  0  0  0  0  0  0  0  0  0  0
    1.7846   -5.1413    0.0000 C   0  0  0  0  0  0  0  0  0  0  0  0
    4.5889   -7.7332    0.0000 C   0  0  3  0  0  0  0  0  0  0  0  0
    2.5069   -6.3735    0.0000 C   0  0  0  0  0  0  0  0  0  0  0  0
    2.0820   -0.5524    0.0000 C   0  0  0  0  0  0  0  0  0  0  0  0
    1.7846   -5.9911    0.0000 C   0  0  0  0  0  0  0  0  0  0  0  0
    0.9348   -2.8469    0.0000 C   0  0  0  0  0  0  0  0  0  0  0  0
    3.2718   -7.7332    0.0000 C   0  0  0  0  0  0  0  0  0  0  0  0
    0.7223   -0.3824    0.0000 C   0  0  0  0  0  0  0  0  0  0  0  0
    4.3340   -8.4980    0.0000 C   0  0  0  0  0  0  0  0  0  0  0  0
    1.4447    0.0000    0.0000 C   0  0  0  0  0  0  0  0  0  0  0  0
    5.3962   -7.4357    0.0000 C   0  0  0  0  0  0  0  0  0  0  0  0
    3.5267   -8.4980    0.0000 C   0  0  0  0  0  0  0  0  0  0  0  0
    1.4872   -4.0366    0.0000 C   0  0  0  0  0  0  0  0  0  0  0  0
    0.7648   -3.6542    0.0000 C   0  0  0  0  0  0  0  0  0  0  0  0
    0.0000   -0.0850    0.0000 C   0  0  0  0  0  0  0  0  0  0  0  0
  1 21  1  0  0  0  0
  1 35  1  0  0  0  0
  2 14  2  0  0  0  0
  3 15  2  0  0  0  0
  4 20  1  0  0  0  0
  4 30  1  0  0  0  0
  5 18  1  0  0  0  0
  6 22  2  0  0  0  0
  7 33  2  0  0  0  0
  8 33  1  0  0  0  0
  9 12  1  0  0  0  0
  9 16  1  0  0  0  0
 10 13  1  0  0  0  0
 10 17  1  0  0  0  0
 11 22  1  0  0  0  0
 11 24  1  0  0  0  0
 11 29  1  0  0  0  0
 12 13  2  0  0  0  0
 12 14  1  0  0  0  0
 13 15  1  0  0  0  0
 14 15  1  0  0  0  0
 16 20  1  0  0  0  0
 16 21  1  0  0  0  0
 17 18  1  0  0  0  0
 17 23  2  0  0  0  0
 18 19  2  0  0  0  0
 19 22  1  0  0  0  0
 19 25  1  0  0  0  0
 20 26  2  0  0  0  0
 21 28  1  0  0  0  0
 23 27  1  0  0  0  0
 24 31  1  0  0  0  0
 24 33  1  1  0  0  0
 25 27  2  0  0  0  0
 26 32  1  0  0  0  0
 28 36  1  0  0  0  0
 29 34  1  0  0  0  0
 30 32  2  0  0  0  0
 30 37  1  0  0  0  0
 31 34  1  0  0  0  0
 35 36  1  0  0  0  0
M  END
> <PUBCHEM_COMPOUND_ID_TYPE>
0

> <PUBCHEM_TOTAL_CHARGE>
0

> <PUBCHEM_SUBSTANCE_ID>
310931088

> <PUBCHEM_SUBSTANCE_VERSION>
1

> <PUBCHEM_EXT_DATASOURCE_NAME>
4488

> <PUBCHEM_EXT_DATASOURCE_REGID>
SCHEMBL16108392

> <PUBCHEM_SUBSTANCE_COMMENT>
InChI=1S/C26H27N3O7S/c1-13-9-10-17(36-13)19(18-8-4-12-37-18)28-21-20(23(31)24(21)32)27-15-6-2-5-14(22(15)30)25(33)29-11-3-7-16(29)26(34)35/h2,5-6,9-10,16,18-19,27-28,30H,3-4,7-8,11-12H2,1H3,(H,34,35)/t16-,18?,19?/m1/s1
InChIKey=SEAKARCOKOAPEQ-IPJUCJBFSA-N

> <PUBCHEM_SUBSTANCE_SYNONYM>
SCHEMBL16108392

> <PUBCHEM_XREF_EXT_ID>
SCHEMBL16108392

> <PUBCHEM_EXT_DATASOURCE_URL>
https://www.surechembl.org/

> <PUBCHEM_EXT_SUBSTANCE_URL>
https://www.surechembl.org/chemical/SCHEMBL16108392

> <PUBCHEM_CID_ASSOCIATIONS>
117599988  1

> <PUBCHEM_COORDINATE_TYPE>
1
3

> <PUBCHEM_BONDANNOTATIONS>
24  33  5

$$$$
