310931590
  -OEChem-07211613022D

 36 39  0     0  0  0  0  0  0999 V2000
    0.8870   -6.0005    0.0000 O   0  0  0  0  0  0  0  0  0  0  0  0
    0.0000   -9.7051    0.0000 O   0  0  0  0  0  0  0  0  0  0  0  0
    3.3916   -9.9660    0.0000 O   0  0  0  0  0  0  0  0  0  0  0  0
    3.0263   -2.0350    0.0000 O   0  0  0  0  0  0  0  0  0  0  0  0
    2.3480   -5.7396    0.0000 N   0  0  0  0  0  0  0  0  0  0  0  0
    2.7654   -7.0440    0.0000 N   0  0  0  0  0  0  0  0  0  0  0  0
    3.7568   -6.0005    0.0000 N   0  0  0  0  0  0  0  0  0  0  0  0
    2.3480   -3.2872    0.0000 N   0  0  0  0  0  0  0  0  0  0  0  0
    0.8870   -0.8349    0.0000 N   0  0  0  0  0  0  0  0  0  0  0  0
    1.9306   -7.0440    0.0000 C   0  0  0  0  0  0  0  0  0  0  0  0
    1.6697   -6.2092    0.0000 C   0  0  0  0  0  0  0  0  0  0  0  0
    1.4088   -7.6701    0.0000 C   0  0  0  0  0  0  0  0  0  0  0  0
    2.2958   -7.7746    0.0000 C   0  0  0  0  0  0  0  0  0  0  0  0
    2.9741   -6.2092    0.0000 C   0  0  0  0  0  0  0  0  0  0  0  0
    2.3480   -4.9047    0.0000 C   0  0  0  0  0  0  0  0  0  0  0  0
    1.7740   -8.4528    0.0000 C   0  0  0  0  0  0  0  0  0  0  0  0
    3.1307   -7.8267    0.0000 C   0  0  0  0  0  0  0  0  0  0  0  0
    0.6261   -7.6180    0.0000 C   0  0  0  0  0  0  0  0  0  0  0  0
    2.0350   -8.6094    0.0000 C   0  0  0  0  0  0  0  0  0  0  0  0
    3.0785   -4.5395    0.0000 C   0  0  0  0  0  0  0  0  0  0  0  0
    1.6175   -4.5395    0.0000 C   0  0  0  0  0  0  0  0  0  0  0  0
    1.3044   -9.1311    0.0000 C   0  0  0  0  0  0  0  0  0  0  0  0
    3.4959   -8.5572    0.0000 C   0  0  0  0  0  0  0  0  0  0  0  0
    0.1566   -8.2963    0.0000 C   0  0  0  0  0  0  0  0  0  0  0  0
    2.1915   -9.1833    0.0000 C   0  0  0  0  0  0  0  0  0  0  0  0
    0.4696   -9.0268    0.0000 C   0  0  0  0  0  0  0  0  0  0  0  0
    3.0263   -9.2355    0.0000 C   0  0  0  0  0  0  0  0  0  0  0  0
    3.0785   -3.7046    0.0000 C   0  0  0  0  0  0  0  0  0  0  0  0
    1.6175   -3.7046    0.0000 C   0  0  0  0  0  0  0  0  0  0  0  0
    2.3480   -2.4524    0.0000 C   0  0  0  0  0  0  0  0  0  0  0  0
    1.6175   -2.0350    0.0000 C   0  0  0  0  0  0  0  0  0  0  0  0
    0.3131  -10.4356    0.0000 C   0  0  0  0  0  0  0  0  0  0  0  0
    4.2264  -10.0182    0.0000 C   0  0  0  0  0  0  0  0  0  0  0  0
    1.6175   -1.2523    0.0000 C   0  0  0  0  0  0  0  0  0  0  0  0
    0.9392    0.0000    0.0000 C   0  0  0  0  0  0  0  0  0  0  0  0
    0.2087   -1.2523    0.0000 C   0  0  0  0  0  0  0  0  0  0  0  0
  1 11  2  0  0  0  0
  2 26  1  0  0  0  0
  2 32  1  0  0  0  0
  3 27  1  0  0  0  0
  3 33  1  0  0  0  0
  4 30  2  0  0  0  0
  5 11  1  0  0  0  0
  5 14  1  0  0  0  0
  5 15  1  0  0  0  0
  6 10  1  0  0  0  0
  6 14  1  0  0  0  0
  7 14  2  3  0  0  0
  8 28  1  0  0  0  0
  8 29  1  0  0  0  0
  8 30  1  0  0  0  0
  9 34  1  0  0  0  0
  9 35  1  0  0  0  0
  9 36  1  0  0  0  0
 10 11  1  0  0  0  0
 10 12  1  0  0  0  0
 10 13  1  0  0  0  0
 12 16  2  0  0  0  0
 12 18  1  0  0  0  0
 13 17  2  0  0  0  0
 13 19  1  0  0  0  0
 15 20  1  0  0  0  0
 15 21  1  0  0  0  0
 16 22  1  0  0  0  0
 17 23  1  0  0  0  0
 18 24  2  0  0  0  0
 19 25  2  0  0  0  0
 20 28  1  0  0  0  0
 21 29  1  0  0  0  0
 22 26  2  0  0  0  0
 23 27  2  0  0  0  0
 24 26  1  0  0  0  0
 25 27  1  0  0  0  0
 30 31  1  0  0  0  0
 31 34  1  0  0  0  0
M  END
> <PUBCHEM_COMPOUND_ID_TYPE>
0

> <PUBCHEM_TOTAL_CHARGE>
0

> <PUBCHEM_SUBSTANCE_ID>
310931590

> <PUBCHEM_SUBSTANCE_VERSION>
1

> <PUBCHEM_EXT_DATASOURCE_NAME>
4488

> <PUBCHEM_EXT_DATASOURCE_REGID>
SCHEMBL16108916

> <PUBCHEM_SUBSTANCE_COMMENT>
InChI=1S/C27H35N5O4/c1-30(2)16-15-24(33)31-17-13-21(14-18-31)32-25(34)27(29-26(32)28,19-5-9-22(35-3)10-6-19)20-7-11-23(36-4)12-8-20/h5-12,21H,13-18H2,1-4H3,(H2,28,29)
InChIKey=YETAFHYGTQCCHU-UHFFFAOYSA-N

> <PUBCHEM_SUBSTANCE_SYNONYM>
SCHEMBL16108916

> <PUBCHEM_XREF_EXT_ID>
SCHEMBL16108916

> <PUBCHEM_EXT_DATASOURCE_URL>
https://www.surechembl.org/

> <PUBCHEM_EXT_SUBSTANCE_URL>
https://www.surechembl.org/chemical/SCHEMBL16108916

> <PUBCHEM_CID_ASSOCIATIONS>
86272883  1

> <PUBCHEM_COORDINATE_TYPE>
1
3

$$$$
