310933593
  -OEChem-07211613022D

 32 36  0     0  0  0  0  0  0999 V2000
    0.8525   -3.1350    0.0000 F   0  0  0  0  0  0  0  0  0  0  0  0
    0.8525   -4.5650    0.0000 F   0  0  0  0  0  0  0  0  0  0  0  0
    1.6775   -3.1350    0.0000 F   0  0  0  0  0  0  0  0  0  0  0  0
    0.4125   -0.3850    0.0000 O   0  0  0  0  0  0  0  0  0  0  0  0
    5.5274   -2.2275    0.0000 O   0  0  0  0  0  0  0  0  0  0  0  0
    4.2074   -2.8600    0.0000 N   0  0  0  0  0  0  0  0  0  0  0  0
    4.2074   -1.5675    0.0000 N   0  0  0  0  0  0  0  0  0  0  0  0
    4.0975   -5.4999    0.0000 N   0  0  0  0  0  0  0  0  0  0  0  0
    0.0000   -1.1000    0.0000 N   0  0  0  0  0  0  0  0  0  0  0  0
    2.6950   -3.0249    0.0000 C   0  0  0  0  0  0  0  0  0  0  0  0
    3.4100   -2.6400    0.0000 C   0  0  0  0  0  0  0  0  0  0  0  0
    2.6950   -3.8499    0.0000 C   0  0  0  0  0  0  0  0  0  0  0  0
    3.4100   -1.7875    0.0000 C   0  0  0  0  0  0  0  0  0  0  0  0
    1.9800   -4.2624    0.0000 C   0  0  0  0  0  0  0  0  0  0  0  0
    3.3825   -4.2624    0.0000 C   0  0  0  0  0  0  0  0  0  0  0  0
    2.0075   -1.7875    0.0000 C   0  0  0  0  0  0  0  0  0  0  0  0
    2.0075   -2.6400    0.0000 C   0  0  0  0  0  0  0  0  0  0  0  0
    2.6950   -1.4025    0.0000 C   0  0  0  0  0  0  0  0  0  0  0  0
    4.7025   -2.2275    0.0000 C   0  0  0  0  0  0  0  0  0  0  0  0
    1.2925   -1.3750    0.0000 C   0  0  0  0  0  0  0  0  0  0  0  0
    3.3825   -5.0874    0.0000 C   0  0  0  0  0  0  0  0  0  0  0  0
    1.2650   -3.8499    0.0000 C   0  0  0  0  0  0  0  0  0  0  0  0
    1.9800   -5.0874    0.0000 C   0  0  0  0  0  0  0  0  0  0  0  0
    2.6950   -5.4999    0.0000 C   0  0  0  0  0  0  0  0  0  0  0  0
    1.2100   -0.5500    0.0000 C   0  0  0  0  0  0  0  0  0  0  0  0
    0.5500   -1.7050    0.0000 C   0  0  0  0  0  0  0  0  0  0  0  0
    4.0975   -3.8499    0.0000 C   0  0  0  0  0  0  0  0  0  0  0  0
    4.4550   -3.6575    0.0000 C   0  0  0  0  0  0  0  0  0  0  0  0
    4.8124   -4.2624    0.0000 C   0  0  0  0  0  0  0  0  0  0  0  0
    4.8124   -5.0874    0.0000 C   0  0  0  0  0  0  0  0  0  0  0  0
    1.8150    0.0000    0.0000 C   0  0  0  0  0  0  0  0  0  0  0  0
    0.3850   -2.5025    0.0000 C   0  0  0  0  0  0  0  0  0  0  0  0
  1 22  1  0  0  0  0
  2 22  1  0  0  0  0
  3 22  1  0  0  0  0
  4  9  1  0  0  0  0
  4 25  1  0  0  0  0
  5 19  2  0  0  0  0
  6 11  1  0  0  0  0
  6 19  1  0  0  0  0
  6 28  1  0  0  0  0
  7 13  1  0  0  0  0
  7 19  1  0  0  0  0
  8 21  2  0  0  0  0
  8 30  1  0  0  0  0
  9 26  2  0  0  0  0
 10 11  1  0  0  0  0
 10 12  1  0  0  0  0
 10 17  2  0  0  0  0
 11 13  2  0  0  0  0
 12 14  2  0  0  0  0
 12 15  1  0  0  0  0
 13 18  1  0  0  0  0
 14 22  1  0  0  0  0
 14 23  1  0  0  0  0
 15 21  1  0  0  0  0
 15 27  2  0  0  0  0
 16 17  1  0  0  0  0
 16 18  2  0  0  0  0
 16 20  1  0  0  0  0
 20 25  2  0  0  0  0
 20 26  1  0  0  0  0
 21 24  1  0  0  0  0
 23 24  2  0  0  0  0
 25 31  1  0  0  0  0
 26 32  1  0  0  0  0
 27 29  1  0  0  0  0
 29 30  2  0  0  0  0
M  END
> <PUBCHEM_COMPOUND_ID_TYPE>
0

> <PUBCHEM_TOTAL_CHARGE>
0

> <PUBCHEM_SUBSTANCE_ID>
310933593

> <PUBCHEM_SUBSTANCE_VERSION>
1

> <PUBCHEM_EXT_DATASOURCE_NAME>
4488

> <PUBCHEM_EXT_DATASOURCE_REGID>
SCHEMBL16111021

> <PUBCHEM_SUBSTANCE_COMMENT>
InChI=1S/C23H17F3N4O2/c1-11-19(12(2)32-29-11)13-9-15(21-18(10-13)28-22(31)30(21)3)20-14-5-4-8-27-17(14)7-6-16(20)23(24,25)26/h4-10H,1-3H3,(H,28,31)
InChIKey=WTILUZBDJGYVSE-UHFFFAOYSA-N

> <PUBCHEM_SUBSTANCE_SYNONYM>
SCHEMBL16111021

> <PUBCHEM_XREF_EXT_ID>
SCHEMBL16111021

> <PUBCHEM_EXT_DATASOURCE_URL>
https://www.surechembl.org/

> <PUBCHEM_EXT_SUBSTANCE_URL>
https://www.surechembl.org/chemical/SCHEMBL16111021

> <PUBCHEM_CID_ASSOCIATIONS>
117601975  1

> <PUBCHEM_COORDINATE_TYPE>
1
3

$$$$
