310948729
  -OEChem-07211613022D

 34 37  0     1  0  0  0  0  0999 V2000
   -3.2167    1.7046    0.0000 O   0  0  0  0  0  0  0  0  0  0  0  0
    1.5671   -1.9611    0.0000 O   0  0  0  0  0  0  0  0  0  0  0  0
    1.2738   -3.3542    0.0000 O   0  0  0  0  0  0  0  0  0  0  0  0
   -0.4674    1.5763    0.0000 N   0  0  0  0  0  0  0  0  0  0  0  0
   -0.7973    0.8248    0.0000 N   0  0  0  0  0  0  0  0  0  0  0  0
   -2.1719    0.2933    0.0000 N   0  0  0  0  0  0  0  0  0  0  0  0
   -2.5019    2.9509    0.0000 N   0  0  0  0  0  0  0  0  0  0  0  0
    0.3940   -0.4399    0.0000 N   0  0  0  0  0  0  0  0  0  0  0  0
    0.2108   -2.4011    0.0000 N   0  0  0  0  0  0  0  0  0  0  0  0
   -1.7871    1.7229    0.0000 C   0  0  0  0  0  0  0  0  0  0  0  0
   -1.0722    2.1261    0.0000 C   0  0  0  0  0  0  0  0  0  0  0  0
   -1.6038    0.9165    0.0000 C   0  0  0  0  0  0  0  0  0  0  0  0
    0.3391    1.7413    0.0000 C   0  0  3  0  0  0  0  0  0  0  0  0
   -2.5019    2.1445    0.0000 C   0  0  0  0  0  0  0  0  0  0  0  0
   -1.0539    2.9509    0.0000 C   0  0  0  0  0  0  0  0  0  0  0  0
    0.9256    1.1364    0.0000 C   0  0  3  0  0  0  0  0  0  0  0  0
   -1.8054    3.3542    0.0000 C   0  0  0  0  0  0  0  0  0  0  0  0
    0.6140    2.5294    0.0000 C   0  0  0  0  0  0  0  0  0  0  0  0
   -1.9154   -0.4765    0.0000 C   0  0  0  0  0  0  0  0  0  0  0  0
    1.6954    1.3197    0.0000 C   0  0  0  0  0  0  0  0  0  0  0  0
    0.6324    0.3666    0.0000 C   0  0  0  0  0  0  0  0  0  0  0  0
    1.4205    2.6760    0.0000 C   0  0  0  0  0  0  0  0  0  0  0  0
   -1.1089   -0.6782    0.0000 C   0  0  0  0  0  0  0  0  0  0  0  0
   -2.4286   -1.0814    0.0000 C   0  0  0  0  0  0  0  0  0  0  0  0
    1.9521    2.1078    0.0000 C   0  0  0  0  0  0  0  0  0  0  0  0
   -0.8523   -1.4480    0.0000 C   0  0  0  0  0  0  0  0  0  0  0  0
   -2.1903   -1.8696    0.0000 C   0  0  0  0  0  0  0  0  0  0  0  0
   -1.3838   -2.0528    0.0000 C   0  0  0  0  0  0  0  0  0  0  0  0
   -0.0275   -1.6312    0.0000 C   0  0  0  0  0  0  0  0  0  0  0  0
    1.0172   -2.5661    0.0000 C   0  0  0  0  0  0  0  0  0  0  0  0
    2.4102   -2.1261    0.0000 C   0  0  0  0  0  0  0  0  0  0  0  0
    2.9601   -1.5030    0.0000 C   0  0  0  0  0  0  0  0  0  0  0  0
    3.2167   -2.2911    0.0000 C   0  0  0  0  0  0  0  0  0  0  0  0
    2.6668   -2.9326    0.0000 C   0  0  0  0  0  0  0  0  0  0  0  0
  1 14  2  0  0  0  0
  2 30  1  0  0  0  0
  2 31  1  0  0  0  0
  3 30  2  0  0  0  0
  4  5  1  0  0  0  0
  4 11  1  0  0  0  0
 13  4  1  1  0  0  0
  5 12  2  0  0  0  0
  6 12  1  0  0  0  0
  6 19  1  0  0  0  0
  7 14  1  0  0  0  0
  7 17  1  0  0  0  0
  8 21  3  0  0  0  0
  9 29  1  0  0  0  0
  9 30  1  0  0  0  0
 10 11  2  0  0  0  0
 10 12  1  0  0  0  0
 10 14  1  0  0  0  0
 11 15  1  0  0  0  0
 13 16  1  0  0  0  0
 13 18  1  0  0  0  0
 15 17  2  0  0  0  0
 16 20  1  0  0  0  0
 16 21  1  6  0  0  0
 18 22  1  0  0  0  0
 19 23  1  0  0  0  0
 19 24  2  0  0  0  0
 20 25  1  0  0  0  0
 22 25  1  0  0  0  0
 23 26  2  0  0  0  0
 24 27  1  0  0  0  0
 26 28  1  0  0  0  0
 26 29  1  0  0  0  0
 27 28  2  0  0  0  0
 31 32  1  0  0  0  0
 31 33  1  0  0  0  0
 31 34  1  0  0  0  0
M  END
> <PUBCHEM_COMPOUND_ID_TYPE>
0

> <PUBCHEM_TOTAL_CHARGE>
0

> <PUBCHEM_SUBSTANCE_ID>
310948729

> <PUBCHEM_SUBSTANCE_VERSION>
1

> <PUBCHEM_EXT_DATASOURCE_NAME>
4488

> <PUBCHEM_EXT_DATASOURCE_REGID>
SCHEMBL16126913

> <PUBCHEM_SUBSTANCE_COMMENT>
InChI=1S/C25H30N6O3/c1-25(2,3)34-24(33)28-15-16-7-6-9-18(13-16)29-22-21-20(11-12-27-23(21)32)31(30-22)19-10-5-4-8-17(19)14-26/h6-7,9,11-13,17,19H,4-5,8,10,15H2,1-3H3,(H,27,32)(H,28,33)(H,29,30)/t17-,19+/m1/s1
InChIKey=JVXHYRZNZDAGCN-MJGOQNOKSA-N

> <PUBCHEM_SUBSTANCE_SYNONYM>
SCHEMBL16126913

> <PUBCHEM_XREF_EXT_ID>
SCHEMBL16126913

> <PUBCHEM_EXT_DATASOURCE_URL>
https://www.surechembl.org/

> <PUBCHEM_EXT_SUBSTANCE_URL>
https://www.surechembl.org/chemical/SCHEMBL16126913

> <PUBCHEM_CID_ASSOCIATIONS>
117614270  1

> <PUBCHEM_COORDINATE_TYPE>
1
3

> <PUBCHEM_BONDANNOTATIONS>
16  21  6
13  4  5

$$$$
