310931176
  -OEChem-07211613022D

 31 34  0     0  0  0  0  0  0999 V2000
    0.8968   -2.6903    0.0000 O   0  0  0  0  0  0  0  0  0  0  0  0
    0.0000   -6.4207    0.0000 O   0  0  0  0  0  0  0  0  0  0  0  0
    3.4435   -6.7077    0.0000 O   0  0  0  0  0  0  0  0  0  0  0  0
    2.3674   -2.4751    0.0000 N   0  0  0  0  0  0  0  0  0  0  0  0
    2.7620   -3.7663    0.0000 N   0  0  0  0  0  0  0  0  0  0  0  0
    3.8022   -2.6903    0.0000 N   0  0  0  0  0  0  0  0  0  0  0  0
    0.9326   -1.6500    0.0000 N   0  0  0  0  0  0  0  0  0  0  0  0
    1.9370   -3.7663    0.0000 C   0  0  0  0  0  0  0  0  0  0  0  0
    1.6859   -2.9772    0.0000 C   0  0  0  0  0  0  0  0  0  0  0  0
    1.4707   -4.4120    0.0000 C   0  0  0  0  0  0  0  0  0  0  0  0
    2.2957   -4.4838    0.0000 C   0  0  0  0  0  0  0  0  0  0  0  0
    3.0131   -2.9772    0.0000 C   0  0  0  0  0  0  0  0  0  0  0  0
    2.3674   -1.6500    0.0000 C   0  0  0  0  0  0  0  0  0  0  0  0
    1.7935   -5.1653    0.0000 C   0  0  0  0  0  0  0  0  0  0  0  0
    3.1566   -4.5197    0.0000 C   0  0  0  0  0  0  0  0  0  0  0  0
    0.6457   -4.3403    0.0000 C   0  0  0  0  0  0  0  0  0  0  0  0
    2.0446   -5.3447    0.0000 C   0  0  0  0  0  0  0  0  0  0  0  0
    1.6500   -1.2555    0.0000 C   0  0  0  0  0  0  0  0  0  0  0  0
    1.2913   -5.8468    0.0000 C   0  0  0  0  0  0  0  0  0  0  0  0
    3.5153   -5.2729    0.0000 C   0  0  0  0  0  0  0  0  0  0  0  0
    0.1435   -4.9859    0.0000 C   0  0  0  0  0  0  0  0  0  0  0  0
    2.2239   -5.9186    0.0000 C   0  0  0  0  0  0  0  0  0  0  0  0
    0.4663   -5.7392    0.0000 C   0  0  0  0  0  0  0  0  0  0  0  0
    3.0490   -5.9544    0.0000 C   0  0  0  0  0  0  0  0  0  0  0  0
    1.6500   -0.4305    0.0000 C   0  0  0  0  0  0  0  0  0  0  0  0
    0.9326   -0.0359    0.0000 C   0  0  0  0  0  0  0  0  0  0  0  0
    0.2152   -1.2555    0.0000 C   0  0  0  0  0  0  0  0  0  0  0  0
    0.2152   -0.4305    0.0000 C   0  0  0  0  0  0  0  0  0  0  0  0
    2.3674    0.0000    0.0000 C   0  0  0  0  0  0  0  0  0  0  0  0
    0.3228   -7.1740    0.0000 C   0  0  0  0  0  0  0  0  0  0  0  0
    4.2327   -6.7436    0.0000 C   0  0  0  0  0  0  0  0  0  0  0  0
  1  9  2  0  0  0  0
  2 23  1  0  0  0  0
  2 30  1  0  0  0  0
  3 24  1  0  0  0  0
  3 31  1  0  0  0  0
  4  9  1  0  0  0  0
  4 12  1  0  0  0  0
  4 13  1  0  0  0  0
  5  8  1  0  0  0  0
  5 12  1  0  0  0  0
  6 12  2  3  0  0  0
  7 18  1  0  0  0  0
  7 27  2  0  0  0  0
  8  9  1  0  0  0  0
  8 10  1  0  0  0  0
  8 11  1  0  0  0  0
 10 14  2  0  0  0  0
 10 16  1  0  0  0  0
 11 15  2  0  0  0  0
 11 17  1  0  0  0  0
 13 18  1  0  0  0  0
 14 19  1  0  0  0  0
 15 20  1  0  0  0  0
 16 21  2  0  0  0  0
 17 22  2  0  0  0  0
 18 25  2  0  0  0  0
 19 23  2  0  0  0  0
 20 24  2  0  0  0  0
 21 23  1  0  0  0  0
 22 24  1  0  0  0  0
 25 26  1  0  0  0  0
 25 29  1  0  0  0  0
 26 28  2  0  0  0  0
 27 28  1  0  0  0  0
M  END
> <PUBCHEM_COMPOUND_ID_TYPE>
0

> <PUBCHEM_TOTAL_CHARGE>
0

> <PUBCHEM_SUBSTANCE_ID>
310931176

> <PUBCHEM_SUBSTANCE_VERSION>
1

> <PUBCHEM_EXT_DATASOURCE_NAME>
4488

> <PUBCHEM_EXT_DATASOURCE_REGID>
SCHEMBL16108485

> <PUBCHEM_SUBSTANCE_COMMENT>
InChI=1S/C24H24N4O3/c1-16-5-4-14-26-21(16)15-28-22(29)24(27-23(28)25,17-6-10-19(30-2)11-7-17)18-8-12-20(31-3)13-9-18/h4-14H,15H2,1-3H3,(H2,25,27)
InChIKey=VJBSTWFHQGETPG-UHFFFAOYSA-N

> <PUBCHEM_SUBSTANCE_SYNONYM>
SCHEMBL16108485

> <PUBCHEM_XREF_EXT_ID>
SCHEMBL16108485

> <PUBCHEM_EXT_DATASOURCE_URL>
https://www.surechembl.org/

> <PUBCHEM_EXT_SUBSTANCE_URL>
https://www.surechembl.org/chemical/SCHEMBL16108485

> <PUBCHEM_CID_ASSOCIATIONS>
86275288  1

> <PUBCHEM_COORDINATE_TYPE>
1
3

$$$$
