310944568
  -OEChem-07211613022D

 14 14  0     0  0  0  0  0  0999 V2000
   -0.0312   -1.6472    0.0000 Cl  0  0  0  0  0  0  0  0  0  0  0  0
   -0.0312    1.6472    0.0000 F   0  0  0  0  0  0  0  0  0  0  0  0
   -1.4677   -0.8353    0.0000 O   0  0  0  0  0  0  0  0  0  0  0  0
    1.4520   -0.8353    0.0000 O   0  0  0  0  0  0  0  0  0  0  0  0
    2.1859    1.1476    0.0000 N   0  0  0  0  0  0  0  0  0  0  0  0
   -2.1859    1.1320    0.0000 N   0  0  0  0  0  0  0  0  0  0  0  0
    0.7026    0.4450    0.0000 C   0  0  0  0  0  0  0  0  0  0  0  0
   -0.7494    0.4294    0.0000 C   0  0  0  0  0  0  0  0  0  0  0  0
   -0.0469    0.8353    0.0000 C   0  0  0  0  0  0  0  0  0  0  0  0
   -0.7494   -0.3825    0.0000 C   0  0  0  0  0  0  0  0  0  0  0  0
    0.6870   -0.3825    0.0000 C   0  0  0  0  0  0  0  0  0  0  0  0
   -0.0312   -0.7885    0.0000 C   0  0  0  0  0  0  0  0  0  0  0  0
    1.4520    0.8197    0.0000 C   0  0  0  0  0  0  0  0  0  0  0  0
   -1.4677    0.8041    0.0000 C   0  0  0  0  0  0  0  0  0  0  0  0
  1 12  1  0  0  0  0
  2  9  1  0  0  0  0
  3 10  1  0  0  0  0
  4 11  1  0  0  0  0
  5 13  3  0  0  0  0
  6 14  3  0  0  0  0
  7  9  2  0  0  0  0
  7 11  1  0  0  0  0
  7 13  1  0  0  0  0
  8  9  1  0  0  0  0
  8 10  2  0  0  0  0
  8 14  1  0  0  0  0
 10 12  1  0  0  0  0
 11 12  2  0  0  0  0
M  END
> <PUBCHEM_COMPOUND_ID_TYPE>
0

> <PUBCHEM_TOTAL_CHARGE>
0

> <PUBCHEM_SUBSTANCE_ID>
310944568

> <PUBCHEM_SUBSTANCE_VERSION>
1

> <PUBCHEM_EXT_DATASOURCE_NAME>
4488

> <PUBCHEM_EXT_DATASOURCE_REGID>
SCHEMBL16122645

> <PUBCHEM_SUBSTANCE_COMMENT>
InChI=1S/C8H2ClFN2O2/c9-5-7(13)3(1-11)6(10)4(2-12)8(5)14/h13-14H
InChIKey=ZCGOLPOFJDODLB-UHFFFAOYSA-N

> <PUBCHEM_SUBSTANCE_SYNONYM>
SCHEMBL16122645

> <PUBCHEM_XREF_EXT_ID>
SCHEMBL16122645

> <PUBCHEM_EXT_DATASOURCE_URL>
https://www.surechembl.org/

> <PUBCHEM_EXT_SUBSTANCE_URL>
https://www.surechembl.org/chemical/SCHEMBL16122645

> <PUBCHEM_CID_ASSOCIATIONS>
85556522  1

> <PUBCHEM_COORDINATE_TYPE>
1
3

$$$$
