310949051
  -OEChem-07211613022D

 50 58  0     0  0  0  0  0  0999 V2000
   -0.5646    0.7502    0.0000 N   0  0  0  0  0  0  0  0  0  0  0  0
    1.6010    0.2707    0.0000 N   0  0  0  0  0  0  0  0  0  0  0  0
   -2.7301    0.2088    0.0000 N   0  0  0  0  0  0  0  0  0  0  0  0
    0.1005    1.2916    0.0000 C   0  0  0  0  0  0  0  0  0  0  0  0
    1.4463    1.7402    0.0000 C   0  0  0  0  0  0  0  0  0  0  0  0
   -0.1624    2.0496    0.0000 C   0  0  0  0  0  0  0  0  0  0  0  0
    1.1988    2.5291    0.0000 C   0  0  0  0  0  0  0  0  0  0  0  0
    2.2970    1.7402    0.0000 C   0  0  0  0  0  0  0  0  0  0  0  0
   -1.2607    1.2607    0.0000 C   0  0  0  0  0  0  0  0  0  0  0  0
   -1.0131    2.0650    0.0000 C   0  0  0  0  0  0  0  0  0  0  0  0
    1.8794    3.0240    0.0000 C   0  0  0  0  0  0  0  0  0  0  0  0
    2.5445    2.5755    0.0000 C   0  0  0  0  0  0  0  0  0  0  0  0
    0.9204    1.1215    0.0000 C   0  0  0  0  0  0  0  0  0  0  0  0
    0.3944    2.6683    0.0000 C   0  0  0  0  0  0  0  0  0  0  0  0
   -0.5646   -0.0850    0.0000 C   0  0  0  0  0  0  0  0  0  0  0  0
    0.1469   -0.4718    0.0000 C   0  0  0  0  0  0  0  0  0  0  0  0
   -1.2916   -0.5027    0.0000 C   0  0  0  0  0  0  0  0  0  0  0  0
   -2.0496    1.0750    0.0000 C   0  0  0  0  0  0  0  0  0  0  0  0
   -1.5391    2.6218    0.0000 C   0  0  0  0  0  0  0  0  0  0  0  0
    1.9722    3.8593    0.0000 C   0  0  0  0  0  0  0  0  0  0  0  0
    3.3179    2.9003    0.0000 C   0  0  0  0  0  0  0  0  0  0  0  0
    3.1323    1.5391    0.0000 C   0  0  0  0  0  0  0  0  0  0  0  0
    2.3125    0.9049    0.0000 C   0  0  0  0  0  0  0  0  0  0  0  0
   -0.5646   -1.7247    0.0000 C   0  0  0  0  0  0  0  0  0  0  0  0
    0.1469   -1.3071    0.0000 C   0  0  0  0  0  0  0  0  0  0  0  0
   -1.2761   -1.3225    0.0000 C   0  0  0  0  0  0  0  0  0  0  0  0
   -0.5646   -2.5909    0.0000 C   0  0  0  0  0  0  0  0  0  0  0  0
   -2.5909    1.6628    0.0000 C   0  0  0  0  0  0  0  0  0  0  0  0
   -2.3589    2.4517    0.0000 C   0  0  0  0  0  0  0  0  0  0  0  0
    2.7147    4.2306    0.0000 C   0  0  0  0  0  0  0  0  0  0  0  0
    3.4262    3.7201    0.0000 C   0  0  0  0  0  0  0  0  0  0  0  0
    0.8739   -0.0850    0.0000 C   0  0  0  0  0  0  0  0  0  0  0  0
   -2.0031   -0.1315    0.0000 C   0  0  0  0  0  0  0  0  0  0  0  0
   -1.2761   -2.9931    0.0000 C   0  0  0  0  0  0  0  0  0  0  0  0
    0.1624   -2.9622    0.0000 C   0  0  0  0  0  0  0  0  0  0  0  0
   -1.9877   -2.5909    0.0000 C   0  0  0  0  0  0  0  0  0  0  0  0
    0.8585   -2.5600    0.0000 C   0  0  0  0  0  0  0  0  0  0  0  0
   -1.2607   -3.8284    0.0000 C   0  0  0  0  0  0  0  0  0  0  0  0
    0.1469   -3.8129    0.0000 C   0  0  0  0  0  0  0  0  0  0  0  0
   -0.5491   -4.2306    0.0000 C   0  0  0  0  0  0  0  0  0  0  0  0
   -2.0031   -1.7556    0.0000 C   0  0  0  0  0  0  0  0  0  0  0  0
   -2.6992   -2.9931    0.0000 C   0  0  0  0  0  0  0  0  0  0  0  0
    1.5701   -2.9312    0.0000 C   0  0  0  0  0  0  0  0  0  0  0  0
    0.8739   -1.7247    0.0000 C   0  0  0  0  0  0  0  0  0  0  0  0
   -2.6992   -1.3690    0.0000 C   0  0  0  0  0  0  0  0  0  0  0  0
   -3.3953   -2.6374    0.0000 C   0  0  0  0  0  0  0  0  0  0  0  0
    2.2815   -2.5291    0.0000 C   0  0  0  0  0  0  0  0  0  0  0  0
    1.5701   -1.2916    0.0000 C   0  0  0  0  0  0  0  0  0  0  0  0
   -3.4262   -1.7711    0.0000 C   0  0  0  0  0  0  0  0  0  0  0  0
    2.2815   -1.7093    0.0000 C   0  0  0  0  0  0  0  0  0  0  0  0
  1  4  1  0  0  0  0
  1  9  1  0  0  0  0
  1 15  1  0  0  0  0
  2 32  3  0  0  0  0
  3 33  3  0  0  0  0
  4  6  2  0  0  0  0
  4 13  1  0  0  0  0
  5  7  1  0  0  0  0
  5  8  1  0  0  0  0
  5 13  2  0  0  0  0
  6 10  1  0  0  0  0
  6 14  1  0  0  0  0
  7 11  1  0  0  0  0
  7 14  2  0  0  0  0
  8 12  1  0  0  0  0
  8 22  1  0  0  0  0
  8 23  1  0  0  0  0
  9 10  2  0  0  0  0
  9 18  1  0  0  0  0
 10 19  1  0  0  0  0
 11 12  2  0  0  0  0
 11 20  1  0  0  0  0
 12 21  1  0  0  0  0
 15 16  2  0  0  0  0
 15 17  1  0  0  0  0
 16 25  1  0  0  0  0
 16 32  1  0  0  0  0
 17 26  2  0  0  0  0
 17 33  1  0  0  0  0
 18 28  2  0  0  0  0
 19 29  2  0  0  0  0
 20 30  2  0  0  0  0
 21 31  2  0  0  0  0
 24 25  2  0  0  0  0
 24 26  1  0  0  0  0
 24 27  1  0  0  0  0
 27 34  2  0  0  0  0
 27 35  1  0  0  0  0
 28 29  1  0  0  0  0
 30 31  1  0  0  0  0
 34 36  1  0  0  0  0
 34 38  1  0  0  0  0
 35 37  1  0  0  0  0
 35 39  2  0  0  0  0
 36 41  2  0  0  0  0
 36 42  1  0  0  0  0
 37 43  2  0  0  0  0
 37 44  1  0  0  0  0
 38 40  2  0  0  0  0
 39 40  1  0  0  0  0
 41 45  1  0  0  0  0
 42 46  2  0  0  0  0
 43 47  1  0  0  0  0
 44 48  2  0  0  0  0
 45 49  2  0  0  0  0
 46 49  1  0  0  0  0
 47 50  2  0  0  0  0
 48 50  1  0  0  0  0
M  END
> <PUBCHEM_COMPOUND_ID_TYPE>
0

> <PUBCHEM_TOTAL_CHARGE>
0

> <PUBCHEM_SUBSTANCE_ID>
310949051

> <PUBCHEM_SUBSTANCE_VERSION>
1

> <PUBCHEM_EXT_DATASOURCE_NAME>
4488

> <PUBCHEM_EXT_DATASOURCE_REGID>
SCHEMBL16127241

> <PUBCHEM_SUBSTANCE_COMMENT>
InChI=1S/C47H31N3/c1-47(2)41-22-11-9-18-37(41)39-26-40-38-19-10-12-23-43(38)50(44(40)27-42(39)47)46-33(28-48)24-32(25-34(46)29-49)45-35(30-14-5-3-6-15-30)20-13-21-36(45)31-16-7-4-8-17-31/h3-27H,1-2H3
InChIKey=WEPWDQXODPVFET-UHFFFAOYSA-N

> <PUBCHEM_SUBSTANCE_SYNONYM>
SCHEMBL16127241

> <PUBCHEM_XREF_EXT_ID>
SCHEMBL16127241

> <PUBCHEM_EXT_DATASOURCE_URL>
https://www.surechembl.org/

> <PUBCHEM_EXT_SUBSTANCE_URL>
https://www.surechembl.org/chemical/SCHEMBL16127241

> <PUBCHEM_CID_ASSOCIATIONS>
117614556  1

> <PUBCHEM_COORDINATE_TYPE>
1
3

$$$$
