310939432
  -OEChem-07211613022D

 16 17  0     0  0  0  0  0  0999 V2000
   -3.0795   -3.3681    0.0000 O   0  0  0  0  0  0  0  0  0  0  0  0
    2.3169   -3.0280    0.0000 O   0  0  0  0  0  0  0  0  0  0  0  0
   -2.6670   -4.6377    0.0000 N   0  0  0  0  0  0  0  0  0  0  0  0
   -3.4920   -4.6377    0.0000 N   0  0  0  0  0  0  0  0  0  0  0  0
   -2.4120   -3.8530    0.0000 C   0  0  0  0  0  0  0  0  0  0  0  0
   -3.7469   -3.8530    0.0000 C   0  0  0  0  0  0  0  0  0  0  0  0
   -0.1581   -3.0280    0.0000 C   0  0  0  0  0  0  0  0  0  0  0  0
   -1.6975   -3.4405    0.0000 C   0  0  0  0  0  0  0  0  0  0  0  0
   -0.8725   -3.4405    0.0000 C   0  0  0  0  0  0  0  0  0  0  0  0
    1.4919   -3.0280    0.0000 C   0  0  0  0  0  0  0  0  0  0  0  0
    0.2544   -3.7425    0.0000 C   0  0  0  0  0  0  0  0  0  0  0  0
    0.2544   -2.3136    0.0000 C   0  0  0  0  0  0  0  0  0  0  0  0
    1.0794   -3.7425    0.0000 C   0  0  0  0  0  0  0  0  0  0  0  0
    1.0794   -2.3136    0.0000 C   0  0  0  0  0  0  0  0  0  0  0  0
   -4.4614   -3.4405    0.0000 C   0  0  0  0  0  0  0  0  0  0  0  0
    2.7294   -2.3136    0.0000 C   0  0  0  0  0  0  0  0  0  0  0  0
  1  5  1  0  0  0  0
  1  6  1  0  0  0  0
  2 10  1  0  0  0  0
  2 16  1  0  0  0  0
  3  4  1  0  0  0  0
  3  5  2  0  0  0  0
  4  6  2  0  0  0  0
  5  8  1  0  0  0  0
  6 15  1  0  0  0  0
  7  9  1  0  0  0  0
  7 11  2  0  0  0  0
  7 12  1  0  0  0  0
  8  9  2  0  0  0  0
 10 13  2  0  0  0  0
 10 14  1  0  0  0  0
 11 13  1  0  0  0  0
 12 14  2  0  0  0  0
M  END
> <PUBCHEM_COMPOUND_ID_TYPE>
0

> <PUBCHEM_TOTAL_CHARGE>
0

> <PUBCHEM_SUBSTANCE_ID>
310939432

> <PUBCHEM_SUBSTANCE_VERSION>
1

> <PUBCHEM_EXT_DATASOURCE_NAME>
4488

> <PUBCHEM_EXT_DATASOURCE_REGID>
SCHEMBL16117354

> <PUBCHEM_SUBSTANCE_COMMENT>
InChI=1S/C12H12N2O2/c1-9-13-14-12(16-9)8-5-10-3-6-11(15-2)7-4-10/h3-8H,1-2H3/b8-5+
InChIKey=INQWMVFYRUUSGH-VMPITWQZSA-N

> <PUBCHEM_SUBSTANCE_SYNONYM>
SCHEMBL16117354

> <PUBCHEM_XREF_EXT_ID>
SCHEMBL16117354

> <PUBCHEM_EXT_DATASOURCE_URL>
https://www.surechembl.org/

> <PUBCHEM_EXT_SUBSTANCE_URL>
https://www.surechembl.org/chemical/SCHEMBL16117354

> <PUBCHEM_CID_ASSOCIATIONS>
117606756  1

> <PUBCHEM_COORDINATE_TYPE>
1
3

$$$$
