310929867
  -OEChem-07211613022D

 29 34  0     0  0  0  0  0  0999 V2000
    2.2058   -0.1697    0.0000 N   0  0  0  0  0  0  0  0  0  0  0  0
    2.2058   -1.4847    0.0000 C   0  0  0  0  0  0  0  0  0  0  0  0
    2.6937   -0.8272    0.0000 C   0  0  0  0  0  0  0  0  0  0  0  0
    1.4211   -1.2514    0.0000 C   0  0  0  0  0  0  0  0  0  0  0  0
    2.4604   -2.2695    0.0000 C   0  0  0  0  0  0  0  0  0  0  0  0
    3.5208   -0.8272    0.0000 C   0  0  0  0  0  0  0  0  0  0  0  0
    1.4211   -0.4030    0.0000 C   0  0  0  0  0  0  0  0  0  0  0  0
    1.9301   -2.8633    0.0000 C   0  0  0  0  0  0  0  0  0  0  0  0
    3.9238   -1.5059    0.0000 C   0  0  0  0  0  0  0  0  0  0  0  0
    0.6999   -1.6543    0.0000 C   0  0  0  0  0  0  0  0  0  0  0  0
    2.1634   -3.6481    0.0000 C   0  0  0  0  0  0  0  0  0  0  0  0
    3.2663   -2.4391    0.0000 C   0  0  0  0  0  0  0  0  0  0  0  0
    4.7510   -1.5271    0.0000 C   0  0  0  0  0  0  0  0  0  0  0  0
    3.9450   -0.1272    0.0000 C   0  0  0  0  0  0  0  0  0  0  0  0
    0.6999    0.0000    0.0000 C   0  0  0  0  0  0  0  0  0  0  0  0
    1.1241   -2.6724    0.0000 C   0  0  0  0  0  0  0  0  0  0  0  0
    3.4996   -2.2270    0.0000 C   0  0  0  0  0  0  0  0  0  0  0  0
    2.9482   -3.8178    0.0000 C   0  0  0  0  0  0  0  0  0  0  0  0
    0.0000   -1.2514    0.0000 C   0  0  0  0  0  0  0  0  0  0  0  0
    3.5208   -3.2239    0.0000 C   0  0  0  0  0  0  0  0  0  0  0  0
    5.1540   -0.8484    0.0000 C   0  0  0  0  0  0  0  0  0  0  0  0
    0.0000   -0.4030    0.0000 C   0  0  0  0  0  0  0  0  0  0  0  0
    4.7510   -0.1272    0.0000 C   0  0  0  0  0  0  0  0  0  0  0  0
    1.6120   -4.2420    0.0000 C   0  0  0  0  0  0  0  0  0  0  0  0
    5.1540   -2.2482    0.0000 C   0  0  0  0  0  0  0  0  0  0  0  0
    0.5514   -3.2875    0.0000 C   0  0  0  0  0  0  0  0  0  0  0  0
    3.9026   -2.9482    0.0000 C   0  0  0  0  0  0  0  0  0  0  0  0
    0.8059   -4.0723    0.0000 C   0  0  0  0  0  0  0  0  0  0  0  0
    4.7298   -2.9482    0.0000 C   0  0  0  0  0  0  0  0  0  0  0  0
  1  3  1  0  0  0  0
  1  7  1  0  0  0  0
  2  3  2  0  0  0  0
  2  4  1  0  0  0  0
  2  5  1  0  0  0  0
  3  6  1  0  0  0  0
  4  7  2  0  0  0  0
  4 10  1  0  0  0  0
  5  8  1  0  0  0  0
  5 12  2  0  0  0  0
  6  9  1  0  0  0  0
  6 14  2  0  0  0  0
  7 15  1  0  0  0  0
  8 11  2  0  0  0  0
  8 16  1  0  0  0  0
  9 13  2  0  0  0  0
  9 17  1  0  0  0  0
 10 19  2  0  0  0  0
 11 18  1  0  0  0  0
 11 24  1  0  0  0  0
 12 20  1  0  0  0  0
 13 21  1  0  0  0  0
 13 25  1  0  0  0  0
 14 23  1  0  0  0  0
 15 22  2  0  0  0  0
 16 26  2  0  0  0  0
 17 27  2  0  0  0  0
 18 20  2  0  0  0  0
 19 22  1  0  0  0  0
 21 23  2  0  0  0  0
 24 28  2  0  0  0  0
 25 29  2  0  0  0  0
 26 28  1  0  0  0  0
 27 29  1  0  0  0  0
M  END
> <PUBCHEM_COMPOUND_ID_TYPE>
0

> <PUBCHEM_TOTAL_CHARGE>
0

> <PUBCHEM_SUBSTANCE_ID>
310929867

> <PUBCHEM_SUBSTANCE_VERSION>
1

> <PUBCHEM_EXT_DATASOURCE_NAME>
4488

> <PUBCHEM_EXT_DATASOURCE_REGID>
SCHEMBL16107082

> <PUBCHEM_SUBSTANCE_COMMENT>
InChI=1S/C28H19N/c1-3-13-21-19(9-1)11-7-16-23(21)27-25-15-5-6-18-26(25)29-28(27)24-17-8-12-20-10-2-4-14-22(20)24/h1-18,29H
InChIKey=UVWSBQDDOMKCGO-UHFFFAOYSA-N

> <PUBCHEM_SUBSTANCE_SYNONYM>
SCHEMBL16107082

> <PUBCHEM_XREF_EXT_ID>
SCHEMBL16107082

> <PUBCHEM_EXT_DATASOURCE_URL>
https://www.surechembl.org/

> <PUBCHEM_EXT_SUBSTANCE_URL>
https://www.surechembl.org/chemical/SCHEMBL16107082

> <PUBCHEM_CID_ASSOCIATIONS>
117599137  1

> <PUBCHEM_COORDINATE_TYPE>
1
3

$$$$
