310947524
  -OEChem-07211613022D

 27 29  0     1  0  0  0  0  0999 V2000
   -7.4468    4.6434    0.0000 F   0  0  0  0  0  0  0  0  0  0  0  0
   -7.6176    5.3296    0.0000 O   0  0  0  0  0  0  0  0  0  0  0  0
   -6.7926    3.3456    0.0000 O   0  0  0  0  0  0  0  0  0  0  0  0
   -6.2357    5.2572    0.0000 O   0  0  0  0  0  0  0  0  0  0  0  0
   -8.0301    2.6311    0.0000 O   0  0  0  0  0  0  0  0  0  0  0  0
   -5.5212    4.0197    0.0000 O   0  0  0  0  0  0  0  0  0  0  0  0
   -7.2051    4.0601    0.0000 C   0  0  3  0  0  0  0  0  0  0  0  0
   -6.9502    4.8447    0.0000 C   0  0  3  0  0  0  0  0  0  0  0  0
   -8.0301    4.0601    0.0000 C   0  0  3  0  0  0  0  0  0  0  0  0
   -8.2851    4.8447    0.0000 C   0  0  3  0  0  0  0  0  0  0  0  0
   -6.4907    4.4726    0.0000 C   0  0  0  0  0  0  0  0  0  0  0  0
   -7.2051    2.6311    0.0000 C   0  0  0  0  0  0  0  0  0  0  0  0
   -5.5212    4.8447    0.0000 C   0  0  0  0  0  0  0  0  0  0  0  0
   -9.0820    5.0582    0.0000 C   0  0  0  0  0  0  0  0  0  0  0  0
   -6.7926    1.9166    0.0000 C   0  0  0  0  0  0  0  0  0  0  0  0
   -4.8068    5.2572    0.0000 C   0  0  0  0  0  0  0  0  0  0  0  0
   -7.2051    1.2022    0.0000 C   0  0  0  0  0  0  0  0  0  0  0  0
   -5.9676    1.9166    0.0000 C   0  0  0  0  0  0  0  0  0  0  0  0
   -9.6653    4.4748    0.0000 C   0  0  0  0  0  0  0  0  0  0  0  0
   -4.0923    4.8447    0.0000 C   0  0  0  0  0  0  0  0  0  0  0  0
   -4.8068    6.0822    0.0000 C   0  0  0  0  0  0  0  0  0  0  0  0
   -6.7926    0.4877    0.0000 C   0  0  0  0  0  0  0  0  0  0  0  0
   -5.5551    1.2022    0.0000 C   0  0  0  0  0  0  0  0  0  0  0  0
   -3.3778    5.2572    0.0000 C   0  0  0  0  0  0  0  0  0  0  0  0
   -4.0923    6.4947    0.0000 C   0  0  0  0  0  0  0  0  0  0  0  0
   -5.9676    0.4877    0.0000 C   0  0  0  0  0  0  0  0  0  0  0  0
   -3.3778    6.0822    0.0000 C   0  0  0  0  0  0  0  0  0  0  0  0
  9  1  1  1  0  0  0
  2  8  1  0  0  0  0
  2 10  1  0  0  0  0
  7  3  1  6  0  0  0
  3 12  1  0  0  0  0
  4  8  1  0  0  0  0
  4 13  1  0  0  0  0
  5 12  2  0  0  0  0
  6 13  2  0  0  0  0
  7  8  1  0  0  0  0
  7  9  1  0  0  0  0
  7 11  1  1  0  0  0
  9 10  1  0  0  0  0
 10 14  1  1  0  0  0
 12 15  1  0  0  0  0
 13 16  1  0  0  0  0
 14 19  1  0  0  0  0
 15 17  2  0  0  0  0
 15 18  1  0  0  0  0
 16 20  2  0  0  0  0
 16 21  1  0  0  0  0
 17 22  1  0  0  0  0
 18 23  2  0  0  0  0
 20 24  1  0  0  0  0
 21 25  2  0  0  0  0
 22 26  2  0  0  0  0
 23 26  1  0  0  0  0
 24 27  2  0  0  0  0
 25 27  1  0  0  0  0
M  END
> <PUBCHEM_COMPOUND_ID_TYPE>
0

> <PUBCHEM_TOTAL_CHARGE>
0

> <PUBCHEM_SUBSTANCE_ID>
310947524

> <PUBCHEM_SUBSTANCE_VERSION>
1

> <PUBCHEM_EXT_DATASOURCE_NAME>
4488

> <PUBCHEM_EXT_DATASOURCE_REGID>
SCHEMBL16125686

> <PUBCHEM_SUBSTANCE_COMMENT>
InChI=1S/C21H21FO5/c1-3-16-17(22)21(2,27-19(24)15-12-8-5-9-13-15)20(25-16)26-18(23)14-10-6-4-7-11-14/h4-13,16-17,20H,3H2,1-2H3/t16-,17+,20?,21-/m1/s1
InChIKey=BZIIUJSRRYXMQY-WIPNDSRSSA-N

> <PUBCHEM_SUBSTANCE_SYNONYM>
SCHEMBL16125686

> <PUBCHEM_XREF_EXT_ID>
SCHEMBL16125686

> <PUBCHEM_EXT_DATASOURCE_URL>
https://www.surechembl.org/

> <PUBCHEM_EXT_SUBSTANCE_URL>
https://www.surechembl.org/chemical/SCHEMBL16125686

> <PUBCHEM_CID_ASSOCIATIONS>
117613246  1

> <PUBCHEM_COORDINATE_TYPE>
1
3

> <PUBCHEM_BONDANNOTATIONS>
9  1  5
10  14  5
7  3  6
8  4  3
7  11  5

$$$$
