310937009
  -OEChem-07211613022D

 14 15  0     0  0  0  0  0  0999 V2000
    2.2849    0.0000    0.0000 Cl  0  0  0  0  0  0  0  0  0  0  0  0
    5.1540   -2.5255    0.0000 O   0  0  0  0  0  0  0  0  0  0  0  0
    2.2849   -2.5082    0.0000 N   0  0  0  0  0  0  0  0  0  0  0  0
    4.4324   -2.0960    0.0000 N   0  0  0  0  0  0  0  0  0  0  0  0
    3.7109   -3.3501    0.0000 N   0  0  0  0  0  0  0  0  0  0  0  0
    1.5462   -1.2713    0.0000 C   0  0  0  0  0  0  0  0  0  0  0  0
    2.9893   -2.0960    0.0000 C   0  0  0  0  0  0  0  0  0  0  0  0
    0.8247   -0.8418    0.0000 C   0  0  0  0  0  0  0  0  0  0  0  0
    2.2849   -0.8418    0.0000 C   0  0  0  0  0  0  0  0  0  0  0  0
    2.9893   -1.2713    0.0000 C   0  0  0  0  0  0  0  0  0  0  0  0
    1.5462   -2.0960    0.0000 C   0  0  0  0  0  0  0  0  0  0  0  0
    3.7109   -2.5255    0.0000 C   0  0  0  0  0  0  0  0  0  0  0  0
    0.0000   -0.8418    0.0000 C   0  0  0  0  0  0  0  0  0  0  0  0
    0.3952   -0.1203    0.0000 C   0  0  0  0  0  0  0  0  0  0  0  0
  1  9  1  0  0  0  0
  2  4  1  0  0  0  0
  3  7  1  0  0  0  0
  3 11  2  0  0  0  0
  4 12  2  0  0  0  0
  5 12  1  0  0  0  0
  6  8  1  0  0  0  0
  6  9  2  0  0  0  0
  6 11  1  0  0  0  0
  7 10  2  0  0  0  0
  7 12  1  0  0  0  0
  8 13  1  0  0  0  0
  8 14  1  0  0  0  0
  9 10  1  0  0  0  0
 13 14  1  0  0  0  0
M  END
> <PUBCHEM_COMPOUND_ID_TYPE>
0

> <PUBCHEM_TOTAL_CHARGE>
0

> <PUBCHEM_SUBSTANCE_ID>
310937009

> <PUBCHEM_SUBSTANCE_VERSION>
1

> <PUBCHEM_EXT_DATASOURCE_NAME>
4488

> <PUBCHEM_EXT_DATASOURCE_REGID>
SCHEMBL16114717

> <PUBCHEM_SUBSTANCE_COMMENT>
InChI=1S/C9H10ClN3O/c10-7-3-8(9(11)13-14)12-4-6(7)5-1-2-5/h3-5,14H,1-2H2,(H2,11,13)
InChIKey=XXWHTGQMIDMPHS-UHFFFAOYSA-N

> <PUBCHEM_SUBSTANCE_SYNONYM>
SCHEMBL16114717

> <PUBCHEM_XREF_EXT_ID>
SCHEMBL16114717

> <PUBCHEM_EXT_DATASOURCE_URL>
https://www.surechembl.org/

> <PUBCHEM_EXT_SUBSTANCE_URL>
https://www.surechembl.org/chemical/SCHEMBL16114717

> <PUBCHEM_CID_ASSOCIATIONS>
117604864  1

> <PUBCHEM_COORDINATE_TYPE>
1
3

$$$$
