310935773
  -OEChem-07211613022D

 25 27  0     0  0  0  0  0  0999 V2000
    0.8525   -0.6875    0.0000 F   0  0  0  0  0  0  0  0  0  0  0  0
    0.0000   -2.0900    0.0000 F   0  0  0  0  0  0  0  0  0  0  0  0
    3.2450   -3.5750    0.0000 O   0  0  0  0  0  0  0  0  0  0  0  0
    4.5099   -2.8600    0.0000 N   0  0  0  0  0  0  0  0  0  0  0  0
    6.9849    0.0000    0.0000 N   0  0  0  0  0  0  0  0  0  0  0  0
    6.9849   -1.4025    0.0000 N   0  0  0  0  0  0  0  0  0  0  0  0
    8.2499   -0.7150    0.0000 N   0  0  0  0  0  0  0  0  0  0  0  0
    3.2724   -2.1450    0.0000 C   0  0  0  0  0  0  0  0  0  0  0  0
    2.4475   -2.1175    0.0000 C   0  0  0  0  0  0  0  0  0  0  0  0
    3.6849   -2.8600    0.0000 C   0  0  0  0  0  0  0  0  0  0  0  0
    4.5099   -1.4300    0.0000 C   0  0  0  0  0  0  0  0  0  0  0  0
    3.6849   -1.4300    0.0000 C   0  0  0  0  0  0  0  0  0  0  0  0
    2.0625   -1.4025    0.0000 C   0  0  0  0  0  0  0  0  0  0  0  0
    1.2375   -1.4025    0.0000 C   0  0  0  0  0  0  0  0  0  0  0  0
    2.0350   -2.8325    0.0000 C   0  0  0  0  0  0  0  0  0  0  0  0
    4.8950   -2.1450    0.0000 C   0  0  0  0  0  0  0  0  0  0  0  0
    0.8250   -2.1175    0.0000 C   0  0  0  0  0  0  0  0  0  0  0  0
    4.9224   -0.7150    0.0000 C   0  0  0  0  0  0  0  0  0  0  0  0
    5.7474   -0.7150    0.0000 C   0  0  0  0  0  0  0  0  0  0  0  0
    1.2100   -2.8325    0.0000 C   0  0  0  0  0  0  0  0  0  0  0  0
    6.1874    0.0000    0.0000 C   0  0  0  0  0  0  0  0  0  0  0  0
    6.1874   -1.4025    0.0000 C   0  0  0  0  0  0  0  0  0  0  0  0
    7.4249   -0.7150    0.0000 C   0  0  0  0  0  0  0  0  0  0  0  0
    3.6575   -4.2900    0.0000 C   0  0  0  0  0  0  0  0  0  0  0  0
    4.4825   -4.2900    0.0000 C   0  0  0  0  0  0  0  0  0  0  0  0
  1 14  1  0  0  0  0
  2 17  1  0  0  0  0
  3 10  1  0  0  0  0
  3 24  1  0  0  0  0
  4 10  2  0  0  0  0
  4 16  1  0  0  0  0
  5 21  1  0  0  0  0
  5 23  2  0  0  0  0
  6 22  2  0  0  0  0
  6 23  1  0  0  0  0
  7 23  1  0  0  0  0
  8  9  1  0  0  0  0
  8 10  1  0  0  0  0
  8 12  2  0  0  0  0
  9 13  1  0  0  0  0
  9 15  2  0  0  0  0
 11 12  1  0  0  0  0
 11 16  2  0  0  0  0
 11 18  1  0  0  0  0
 13 14  2  0  0  0  0
 14 17  1  0  0  0  0
 15 20  1  0  0  0  0
 17 20  2  0  0  0  0
 18 19  1  0  0  0  0
 19 21  2  0  0  0  0
 19 22  1  0  0  0  0
 24 25  1  0  0  0  0
M  END
> <PUBCHEM_COMPOUND_ID_TYPE>
0

> <PUBCHEM_TOTAL_CHARGE>
0

> <PUBCHEM_SUBSTANCE_ID>
310935773

> <PUBCHEM_SUBSTANCE_VERSION>
1

> <PUBCHEM_EXT_DATASOURCE_NAME>
4488

> <PUBCHEM_EXT_DATASOURCE_REGID>
SCHEMBL16113357

> <PUBCHEM_SUBSTANCE_COMMENT>
InChI=1S/C18H16F2N4O/c1-2-25-17-14(13-3-4-15(19)16(20)7-13)6-11(8-22-17)5-12-9-23-18(21)24-10-12/h3-4,6-10H,2,5H2,1H3,(H2,21,23,24)
InChIKey=AVRJOAUKWBHOPZ-UHFFFAOYSA-N

> <PUBCHEM_SUBSTANCE_SYNONYM>
SCHEMBL16113357

> <PUBCHEM_XREF_EXT_ID>
SCHEMBL16113357

> <PUBCHEM_EXT_DATASOURCE_URL>
https://www.surechembl.org/

> <PUBCHEM_EXT_SUBSTANCE_URL>
https://www.surechembl.org/chemical/SCHEMBL16113357

> <PUBCHEM_CID_ASSOCIATIONS>
117603768  1

> <PUBCHEM_COORDINATE_TYPE>
1
3

$$$$
