310940048
  -OEChem-07211613022D

 33 36  0     0  0  0  0  0  0999 V2000
   -7.1442   -1.0846    0.0000 Cl  0  0  0  0  0  0  0  0  0  0  0  0
    1.7252   -3.1804    0.0000 O   0  0  0  0  0  0  0  0  0  0  0  0
   -4.2864   -1.0846    0.0000 O   0  0  0  0  0  0  0  0  0  0  0  0
    2.6778   -1.5305    0.0000 O   0  0  0  0  0  0  0  0  0  0  0  0
   -2.8575    1.3903    0.0000 O   0  0  0  0  0  0  0  0  0  0  0  0
    1.0106   -1.6680    0.0000 N   0  0  0  0  0  0  0  0  0  0  0  0
   -0.7141   -0.6721    0.0000 N   0  0  0  0  0  0  0  0  0  0  0  0
   -2.1430    0.1530    0.0000 N   0  0  0  0  0  0  0  0  0  0  0  0
    0.0002   -1.0846    0.0000 C   0  0  0  0  0  0  0  0  0  0  0  0
   -6.4298    0.1530    0.0000 C   0  0  0  0  0  0  0  0  0  0  0  0
   -7.1442    0.5653    0.0000 C   0  0  0  0  0  0  0  0  0  0  0  0
    0.2138   -1.8814    0.0000 C   0  0  0  0  0  0  0  0  0  0  0  0
    0.7972   -0.8710    0.0000 C   0  0  0  0  0  0  0  0  0  0  0  0
   -5.0010    0.1530    0.0000 C   0  0  0  0  0  0  0  0  0  0  0  0
   -6.4298   -0.6721    0.0000 C   0  0  0  0  0  0  0  0  0  0  0  0
    1.7252   -2.0804    0.0000 C   0  0  0  0  0  0  0  0  0  0  0  0
   -5.7153    0.5653    0.0000 C   0  0  0  0  0  0  0  0  0  0  0  0
   -5.0010   -0.6721    0.0000 C   0  0  0  0  0  0  0  0  0  0  0  0
   -7.5567    1.2798    0.0000 C   0  0  0  0  0  0  0  0  0  0  0  0
   -7.9693    0.5653    0.0000 C   0  0  0  0  0  0  0  0  0  0  0  0
   -5.7153   -1.0846    0.0000 C   0  0  0  0  0  0  0  0  0  0  0  0
   -1.4286   -1.0846    0.0000 C   0  0  0  0  0  0  0  0  0  0  0  0
   -0.7141    0.1530    0.0000 C   0  0  0  0  0  0  0  0  0  0  0  0
   -2.8575    0.5653    0.0000 C   0  0  0  0  0  0  0  0  0  0  0  0
   -2.1430   -0.6721    0.0000 C   0  0  0  0  0  0  0  0  0  0  0  0
   -1.4286    0.5653    0.0000 C   0  0  0  0  0  0  0  0  0  0  0  0
   -4.2864    0.5653    0.0000 C   0  0  0  0  0  0  0  0  0  0  0  0
   -3.5719    0.1530    0.0000 C   0  0  0  0  0  0  0  0  0  0  0  0
    2.6778   -3.7304    0.0000 C   0  0  0  0  0  0  0  0  0  0  0  0
    3.6303   -4.2804    0.0000 C   0  0  0  0  0  0  0  0  0  0  0  0
    3.6303   -3.1804    0.0000 C   0  0  0  0  0  0  0  0  0  0  0  0
    2.6778   -4.8304    0.0000 C   0  0  0  0  0  0  0  0  0  0  0  0
   -3.5719   -0.6721    0.0000 C   0  0  0  0  0  0  0  0  0  0  0  0
  1 15  1  0  0  0  0
  2 16  1  0  0  0  0
  2 29  1  0  0  0  0
  3 18  1  0  0  0  0
  3 33  1  0  0  0  0
  4 16  2  0  0  0  0
  5 24  2  0  0  0  0
  6 12  1  0  0  0  0
  6 13  1  0  0  0  0
  6 16  1  0  0  0  0
  7  9  1  0  0  0  0
  7 22  1  0  0  0  0
  7 23  1  0  0  0  0
  8 24  1  0  0  0  0
  8 25  1  0  0  0  0
  8 26  1  0  0  0  0
  9 12  1  0  0  0  0
  9 13  1  0  0  0  0
 10 11  1  0  0  0  0
 10 15  2  0  0  0  0
 10 17  1  0  0  0  0
 11 19  1  0  0  0  0
 11 20  1  0  0  0  0
 14 17  2  0  0  0  0
 14 18  1  0  0  0  0
 14 27  1  0  0  0  0
 15 21  1  0  0  0  0
 18 21  2  0  0  0  0
 19 20  1  0  0  0  0
 22 25  1  0  0  0  0
 23 26  1  0  0  0  0
 24 28  1  0  0  0  0
 27 28  2  0  0  0  0
 29 30  1  0  0  0  0
 29 31  1  0  0  0  0
 29 32  1  0  0  0  0
M  END
> <PUBCHEM_COMPOUND_ID_TYPE>
0

> <PUBCHEM_TOTAL_CHARGE>
0

> <PUBCHEM_SUBSTANCE_ID>
310940048

> <PUBCHEM_SUBSTANCE_VERSION>
1

> <PUBCHEM_EXT_DATASOURCE_NAME>
4488

> <PUBCHEM_EXT_DATASOURCE_REGID>
SCHEMBL16117978

> <PUBCHEM_SUBSTANCE_COMMENT>
InChI=1S/C25H34ClN3O4/c1-25(2,3)33-24(31)29-15-19(16-29)27-9-11-28(12-10-27)23(30)8-7-18-13-20(17-5-6-17)21(26)14-22(18)32-4/h7-8,13-14,17,19H,5-6,9-12,15-16H2,1-4H3/b8-7+
InChIKey=KMQIMNXHZGLYSZ-BQYQJAHWSA-N

> <PUBCHEM_SUBSTANCE_SYNONYM>
SCHEMBL16117978

> <PUBCHEM_XREF_EXT_ID>
SCHEMBL16117978

> <PUBCHEM_EXT_DATASOURCE_URL>
https://www.surechembl.org/

> <PUBCHEM_EXT_SUBSTANCE_URL>
https://www.surechembl.org/chemical/SCHEMBL16117978

> <PUBCHEM_CID_ASSOCIATIONS>
117607198  1

> <PUBCHEM_COORDINATE_TYPE>
1
3

$$$$
