310933468
  -OEChem-07211613022D

 62 68  0     0  0  0  0  0  0999 V2000
   10.4777   -9.5701    0.0000 S   0  0  0  0  0  0  0  0  0  0  0  0
    6.5176   -6.9301    0.0000 S   0  0  0  0  0  0  0  0  0  0  0  0
   12.7052   -9.5701    0.0000 S   0  0  0  0  0  0  0  0  0  0  0  0
    4.2901   -6.9301    0.0000 S   0  0  0  0  0  0  0  0  0  0  0  0
   10.2301   -6.7651    0.0000 O   0  0  0  0  0  0  0  0  0  0  0  0
    6.7651   -9.7352    0.0000 O   0  0  0  0  0  0  0  0  0  0  0  0
    9.2402   -8.6627    0.0000 C   0  0  0  0  0  0  0  0  0  0  0  0
    7.7551   -7.8376    0.0000 C   0  0  0  0  0  0  0  0  0  0  0  0
    9.2402   -7.8376    0.0000 C   0  0  0  0  0  0  0  0  0  0  0  0
    7.7551   -8.6627    0.0000 C   0  0  0  0  0  0  0  0  0  0  0  0
    9.9827   -8.9101    0.0000 C   0  0  0  0  0  0  0  0  0  0  0  0
    7.0126   -7.5901    0.0000 C   0  0  0  0  0  0  0  0  0  0  0  0
   10.4777   -8.2501    0.0000 C   0  0  0  0  0  0  0  0  0  0  0  0
    6.5176   -8.2501    0.0000 C   0  0  0  0  0  0  0  0  0  0  0  0
    9.9827   -7.5901    0.0000 C   0  0  0  0  0  0  0  0  0  0  0  0
    7.0126   -8.9101    0.0000 C   0  0  0  0  0  0  0  0  0  0  0  0
    8.4977   -9.0751    0.0000 C   0  0  0  0  0  0  0  0  0  0  0  0
    8.4977   -7.4251    0.0000 C   0  0  0  0  0  0  0  0  0  0  0  0
   11.2202   -8.4977    0.0000 C   0  0  0  0  0  0  0  0  0  0  0  0
    5.6926   -8.0027    0.0000 C   0  0  0  0  0  0  0  0  0  0  0  0
   11.2202   -9.3227    0.0000 C   0  0  0  0  0  0  0  0  0  0  0  0
    5.6926   -7.1776    0.0000 C   0  0  0  0  0  0  0  0  0  0  0  0
   11.9627   -9.8177    0.0000 C   0  0  0  0  0  0  0  0  0  0  0  0
    5.0326   -6.6826    0.0000 C   0  0  0  0  0  0  0  0  0  0  0  0
   11.9627   -8.0027    0.0000 C   0  0  0  0  0  0  0  0  0  0  0  0
    5.0326   -8.4977    0.0000 C   0  0  0  0  0  0  0  0  0  0  0  0
   11.9627  -10.6427    0.0000 C   0  0  0  0  0  0  0  0  0  0  0  0
    5.0326   -5.8576    0.0000 C   0  0  0  0  0  0  0  0  0  0  0  0
   12.7052  -10.8902    0.0000 C   0  0  0  0  0  0  0  0  0  0  0  0
    4.2901   -5.6101    0.0000 C   0  0  0  0  0  0  0  0  0  0  0  0
   12.7052   -8.4151    0.0000 C   0  0  0  0  0  0  0  0  0  0  0  0
    4.2901   -8.0851    0.0000 C   0  0  0  0  0  0  0  0  0  0  0  0
   13.2002  -10.2301    0.0000 C   0  0  0  0  0  0  0  0  0  0  0  0
    3.7951   -6.2701    0.0000 C   0  0  0  0  0  0  0  0  0  0  0  0
   12.9527  -11.7152    0.0000 C   0  0  0  0  0  0  0  0  0  0  0  0
    3.9600   -4.7851    0.0000 C   0  0  0  0  0  0  0  0  0  0  0  0
   13.3652   -7.9202    0.0000 C   0  0  0  0  0  0  0  0  0  0  0  0
    3.6301   -8.5802    0.0000 C   0  0  0  0  0  0  0  0  0  0  0  0
   12.4577  -12.2927    0.0000 C   0  0  0  0  0  0  0  0  0  0  0  0
    4.5376   -4.2076    0.0000 C   0  0  0  0  0  0  0  0  0  0  0  0
   14.1077   -8.2501    0.0000 C   0  0  0  0  0  0  0  0  0  0  0  0
    2.8876   -8.2501    0.0000 C   0  0  0  0  0  0  0  0  0  0  0  0
   12.7052  -13.0352    0.0000 C   0  0  0  0  0  0  0  0  0  0  0  0
    4.2901   -3.4651    0.0000 C   0  0  0  0  0  0  0  0  0  0  0  0
   14.7678   -7.7551    0.0000 C   0  0  0  0  0  0  0  0  0  0  0  0
    2.2275   -8.7452    0.0000 C   0  0  0  0  0  0  0  0  0  0  0  0
   12.1277  -13.6952    0.0000 C   0  0  0  0  0  0  0  0  0  0  0  0
    4.8676   -2.8050    0.0000 C   0  0  0  0  0  0  0  0  0  0  0  0
   15.5103   -8.0851    0.0000 C   0  0  0  0  0  0  0  0  0  0  0  0
    1.4025   -8.4151    0.0000 C   0  0  0  0  0  0  0  0  0  0  0  0
   12.3752  -14.5202    0.0000 C   0  0  0  0  0  0  0  0  0  0  0  0
    4.5376   -1.9800    0.0000 C   0  0  0  0  0  0  0  0  0  0  0  0
   16.1703   -7.5901    0.0000 C   0  0  0  0  0  0  0  0  0  0  0  0
    0.7425   -8.9101    0.0000 C   0  0  0  0  0  0  0  0  0  0  0  0
   11.7977  -15.0977    0.0000 C   0  0  0  0  0  0  0  0  0  0  0  0
    5.1151   -1.4025    0.0000 C   0  0  0  0  0  0  0  0  0  0  0  0
   16.9953   -7.9202    0.0000 C   0  0  0  0  0  0  0  0  0  0  0  0
    0.0000   -8.5802    0.0000 C   0  0  0  0  0  0  0  0  0  0  0  0
   12.1277  -15.8402    0.0000 C   0  0  0  0  0  0  0  0  0  0  0  0
    4.8676   -0.6600    0.0000 C   0  0  0  0  0  0  0  0  0  0  0  0
   11.5502  -16.5002    0.0000 C   0  0  0  0  0  0  0  0  0  0  0  0
    5.4451    0.0000    0.0000 C   0  0  0  0  0  0  0  0  0  0  0  0
  1 11  1  0  0  0  0
  1 21  1  0  0  0  0
  2 12  1  0  0  0  0
  2 22  1  0  0  0  0
  3 23  1  0  0  0  0
  3 33  1  0  0  0  0
  4 24  1  0  0  0  0
  4 34  1  0  0  0  0
  5 15  2  0  0  0  0
  6 16  2  0  0  0  0
  7  9  2  0  0  0  0
  7 11  1  0  0  0  0
  7 17  1  0  0  0  0
  8 10  1  0  0  0  0
  8 12  1  0  0  0  0
  8 18  2  0  0  0  0
  9 15  1  0  0  0  0
  9 18  1  0  0  0  0
 10 16  1  0  0  0  0
 10 17  2  0  0  0  0
 11 13  2  0  0  0  0
 12 14  2  0  0  0  0
 13 15  1  0  0  0  0
 13 19  1  0  0  0  0
 14 16  1  0  0  0  0
 14 20  1  0  0  0  0
 19 21  2  0  0  0  0
 19 25  1  0  0  0  0
 20 22  2  0  0  0  0
 20 26  1  0  0  0  0
 21 23  1  0  0  0  0
 22 24  1  0  0  0  0
 23 27  2  0  0  0  0
 24 28  2  0  0  0  0
 25 31  1  0  0  0  0
 26 32  1  0  0  0  0
 27 29  1  0  0  0  0
 28 30  1  0  0  0  0
 29 33  2  0  0  0  0
 29 35  1  0  0  0  0
 30 34  2  0  0  0  0
 30 36  1  0  0  0  0
 31 37  1  0  0  0  0
 32 38  1  0  0  0  0
 35 39  1  0  0  0  0
 36 40  1  0  0  0  0
 37 41  1  0  0  0  0
 38 42  1  0  0  0  0
 39 43  1  0  0  0  0
 40 44  1  0  0  0  0
 41 45  1  0  0  0  0
 42 46  1  0  0  0  0
 43 47  1  0  0  0  0
 44 48  1  0  0  0  0
 45 49  1  0  0  0  0
 46 50  1  0  0  0  0
 47 51  1  0  0  0  0
 48 52  1  0  0  0  0
 49 53  1  0  0  0  0
 50 54  1  0  0  0  0
 51 55  1  0  0  0  0
 52 56  1  0  0  0  0
 53 57  1  0  0  0  0
 54 58  1  0  0  0  0
 55 59  1  0  0  0  0
 56 60  1  0  0  0  0
 59 61  1  0  0  0  0
 60 62  1  0  0  0  0
M  END
> <PUBCHEM_COMPOUND_ID_TYPE>
0

> <PUBCHEM_TOTAL_CHARGE>
0

> <PUBCHEM_SUBSTANCE_ID>
310933468

> <PUBCHEM_SUBSTANCE_VERSION>
1

> <PUBCHEM_EXT_DATASOURCE_NAME>
4488

> <PUBCHEM_EXT_DATASOURCE_REGID>
SCHEMBL16110886

> <PUBCHEM_SUBSTANCE_COMMENT>
InChI=1S/C56H74O2S4/c1-5-9-13-17-21-25-29-39-33-47(59-37-39)53-41(31-27-23-19-15-11-7-3)49-51(57)43-36-46-44(35-45(43)55(49)61-53)52(58)50-42(32-28-24-20-16-12-8-4)54(62-56(46)50)48-34-40(38-60-48)30-26-22-18-14-10-6-2/h33-38H,5-32H2,1-4H3
InChIKey=MEDFFOHZFDNKGX-UHFFFAOYSA-N

> <PUBCHEM_SUBSTANCE_SYNONYM>
SCHEMBL16110886

> <PUBCHEM_XREF_EXT_ID>
SCHEMBL16110886

> <PUBCHEM_EXT_DATASOURCE_URL>
https://www.surechembl.org/

> <PUBCHEM_EXT_SUBSTANCE_URL>
https://www.surechembl.org/chemical/SCHEMBL16110886

> <PUBCHEM_CID_ASSOCIATIONS>
117601866  1

> <PUBCHEM_COORDINATE_TYPE>
1
3

$$$$
