310946421
  -OEChem-07211613022D

 17 16  0     0  0  0  0  0  0999 V2000
    2.8174    7.3025    0.0000 O   0  0  0  0  0  0  0  0  0  0  0  0
    4.2464    7.3025    0.0000 O   0  5  0  0  0  0  0  0  0  0  0  0
    3.5319    8.5400    0.0000 O   0  0  0  0  0  0  0  0  0  0  0  0
    3.5319    7.7150    0.0000 N   0  3  0  0  0  0  0  0  0  0  0  0
   -2.1839    7.7150    0.0000 C   0  0  0  0  0  0  0  0  0  0  0  0
   -1.4694    7.3025    0.0000 C   0  0  0  0  0  0  0  0  0  0  0  0
   -3.0089    7.7150    0.0000 C   0  0  0  0  0  0  0  0  0  0  0  0
   -1.7714    8.4295    0.0000 C   0  0  0  0  0  0  0  0  0  0  0  0
   -0.7549    7.7150    0.0000 C   0  0  0  0  0  0  0  0  0  0  0  0
   -0.0405    7.3025    0.0000 C   0  0  0  0  0  0  0  0  0  0  0  0
    2.1030    7.7150    0.0000 C   0  0  0  0  0  0  0  0  0  0  0  0
    1.3885    7.3025    0.0000 C   0  0  0  0  0  0  0  0  0  0  0  0
    0.6740    7.7150    0.0000 C   0  0  0  0  0  0  0  0  0  0  0  0
   -3.4214    7.0006    0.0000 C   0  0  0  0  0  0  0  0  0  0  0  0
   -0.9464    8.4295    0.0000 C   0  0  0  0  0  0  0  0  0  0  0  0
   -4.2464    7.0006    0.0000 C   0  0  0  0  0  0  0  0  0  0  0  0
   -0.5339    9.1440    0.0000 C   0  0  0  0  0  0  0  0  0  0  0  0
  1  4  1  0  0  0  0
  1 11  1  0  0  0  0
  2  4  1  0  0  0  0
  3  4  2  0  0  0  0
  5  6  1  0  0  0  0
  5  7  1  0  0  0  0
  5  8  1  0  0  0  0
  6  9  1  0  0  0  0
  7 14  1  0  0  0  0
  8 15  1  0  0  0  0
  9 10  1  0  0  0  0
 10 13  1  0  0  0  0
 11 12  1  0  0  0  0
 12 13  1  0  0  0  0
 14 16  1  0  0  0  0
 15 17  1  0  0  0  0
M  CHG  2   2  -1   4   1
M  END
> <PUBCHEM_COMPOUND_ID_TYPE>
0

> <PUBCHEM_TOTAL_CHARGE>
0

> <PUBCHEM_SUBSTANCE_ID>
310946421

> <PUBCHEM_SUBSTANCE_VERSION>
1

> <PUBCHEM_EXT_DATASOURCE_NAME>
4488

> <PUBCHEM_EXT_DATASOURCE_REGID>
SCHEMBL16124542

> <PUBCHEM_SUBSTANCE_COMMENT>
InChI=1S/C13H27NO3/c1-3-9-13(10-4-2)11-7-5-6-8-12-17-14(15)16/h13H,3-12H2,1-2H3
InChIKey=AFLRSYBSHTWKAC-UHFFFAOYSA-N

> <PUBCHEM_SUBSTANCE_SYNONYM>
SCHEMBL16124542

> <PUBCHEM_XREF_EXT_ID>
SCHEMBL16124542

> <PUBCHEM_EXT_DATASOURCE_URL>
https://www.surechembl.org/

> <PUBCHEM_EXT_SUBSTANCE_URL>
https://www.surechembl.org/chemical/SCHEMBL16124542

> <PUBCHEM_CID_ASSOCIATIONS>
117612334  1

> <PUBCHEM_COORDINATE_TYPE>
1
3

$$$$
