310932571
  -OEChem-07211613022D

 32 35  0     0  0  0  0  0  0999 V2000
    2.8183   -2.1043    0.0000 O   0  0  0  0  0  0  0  0  0  0  0  0
    0.1127   -2.3673    0.0000 O   0  0  0  0  0  0  0  0  0  0  0  0
    7.2524   -2.1794    0.0000 O   0  0  0  0  0  0  0  0  0  0  0  0
    8.0039   -7.5154    0.0000 O   0  0  0  0  0  0  0  0  0  0  0  0
    3.7201   -0.9770    0.0000 N   0  0  0  0  0  0  0  0  0  0  0  0
    3.6450   -0.1503    0.0000 N   0  0  0  0  0  0  0  0  0  0  0  0
    5.1481   -0.9770    0.0000 N   0  0  0  0  0  0  0  0  0  0  0  0
    0.0000   -0.9770    0.0000 N   0  0  0  0  0  0  0  0  0  0  0  0
    6.5760   -3.4195    0.0000 N   0  0  0  0  0  0  0  0  0  0  0  0
    8.0039   -5.8620    0.0000 N   0  0  0  0  0  0  0  0  0  0  0  0
    2.4049   -0.7140    0.0000 C   0  0  0  0  0  0  0  0  0  0  0  0
    2.9686   -1.3152    0.0000 C   0  0  0  0  0  0  0  0  0  0  0  0
    4.4341   -1.3904    0.0000 C   0  0  0  0  0  0  0  0  0  0  0  0
    1.5783   -0.7891    0.0000 C   0  0  0  0  0  0  0  0  0  0  0  0
    2.8183    0.0000    0.0000 C   0  0  0  0  0  0  0  0  0  0  0  0
    4.4341   -2.1794    0.0000 C   0  0  0  0  0  0  0  0  0  0  0  0
    1.2776   -1.5783    0.0000 C   0  0  0  0  0  0  0  0  0  0  0  0
    1.1273   -0.1503    0.0000 C   0  0  0  0  0  0  0  0  0  0  0  0
    5.8244   -2.1794    0.0000 C   0  0  0  0  0  0  0  0  0  0  0  0
    0.4509   -1.6158    0.0000 C   0  0  0  0  0  0  0  0  0  0  0  0
    5.8244   -1.3904    0.0000 C   0  0  0  0  0  0  0  0  0  0  0  0
    5.1481   -2.5928    0.0000 C   0  0  0  0  0  0  0  0  0  0  0  0
    6.5760   -2.5928    0.0000 C   0  0  0  0  0  0  0  0  0  0  0  0
    0.3006   -0.1879    0.0000 C   0  0  0  0  0  0  0  0  0  0  0  0
    7.2900   -3.8329    0.0000 C   0  0  0  0  0  0  0  0  0  0  0  0
    0.5637   -3.0437    0.0000 C   0  0  0  0  0  0  0  0  0  0  0  0
    7.2900   -4.6596    0.0000 C   0  0  0  0  0  0  0  0  0  0  0  0
    8.0039   -5.0354    0.0000 C   0  0  0  0  0  0  0  0  0  0  0  0
    8.7179   -6.2754    0.0000 C   0  0  0  0  0  0  0  0  0  0  0  0
    7.2900   -6.2754    0.0000 C   0  0  0  0  0  0  0  0  0  0  0  0
    8.7179   -7.1021    0.0000 C   0  0  0  0  0  0  0  0  0  0  0  0
    7.2900   -7.1021    0.0000 C   0  0  0  0  0  0  0  0  0  0  0  0
  1 12  1  0  0  0  0
  2 20  1  0  0  0  0
  2 26  1  0  0  0  0
  3 23  2  0  0  0  0
  4 31  1  0  0  0  0
  4 32  1  0  0  0  0
  5  6  1  0  0  0  0
  5 12  1  0  0  0  0
  5 13  1  0  0  0  0
  6 15  2  0  0  0  0
  7 13  2  0  0  0  0
  7 21  1  0  0  0  0
  8 20  1  0  0  0  0
  8 24  2  0  0  0  0
  9 23  1  0  0  0  0
  9 25  1  0  0  0  0
 10 28  1  0  0  0  0
 10 29  1  0  0  0  0
 10 30  1  0  0  0  0
 11 12  2  0  0  0  0
 11 14  1  0  0  0  0
 11 15  1  0  0  0  0
 13 16  1  0  0  0  0
 14 17  1  0  0  0  0
 14 18  2  0  0  0  0
 16 22  2  0  0  0  0
 17 20  2  0  0  0  0
 18 24  1  0  0  0  0
 19 21  2  0  0  0  0
 19 22  1  0  0  0  0
 19 23  1  0  0  0  0
 25 27  1  0  0  0  0
 27 28  1  0  0  0  0
 29 31  1  0  0  0  0
 30 32  1  0  0  0  0
M  END
> <PUBCHEM_COMPOUND_ID_TYPE>
0

> <PUBCHEM_TOTAL_CHARGE>
0

> <PUBCHEM_SUBSTANCE_ID>
310932571

> <PUBCHEM_SUBSTANCE_VERSION>
1

> <PUBCHEM_EXT_DATASOURCE_NAME>
4488

> <PUBCHEM_EXT_DATASOURCE_REGID>
SCHEMBL16109948

> <PUBCHEM_SUBSTANCE_COMMENT>
InChI=1S/C22H26N6O4/c1-31-20-13-16(5-7-23-20)18-15-26-28(22(18)30)19-4-3-17(14-25-19)21(29)24-6-2-8-27-9-11-32-12-10-27/h3-5,7,13-15,30H,2,6,8-12H2,1H3,(H,24,29)
InChIKey=NOPJQBUUHCTHEU-UHFFFAOYSA-N

> <PUBCHEM_SUBSTANCE_SYNONYM>
SCHEMBL16109948

> <PUBCHEM_XREF_EXT_ID>
SCHEMBL16109948

> <PUBCHEM_EXT_DATASOURCE_URL>
https://www.surechembl.org/

> <PUBCHEM_EXT_SUBSTANCE_URL>
https://www.surechembl.org/chemical/SCHEMBL16109948

> <PUBCHEM_CID_ASSOCIATIONS>
117601094  1

> <PUBCHEM_COORDINATE_TYPE>
1
3

$$$$
