310936438
  -OEChem-07211613022D

 33 37  0     0  0  0  0  0  0999 V2000
    7.1741   -0.3946    0.0000 N   0  0  0  0  0  0  0  0  0  0  0  0
    5.7392   -0.3946    0.0000 N   0  0  0  0  0  0  0  0  0  0  0  0
    5.0218   -1.6501    0.0000 N   0  0  0  0  0  0  0  0  0  0  0  0
    2.9055   -2.9055    0.0000 N   0  0  0  0  0  0  0  0  0  0  0  0
    0.0000   -3.7305    0.0000 N   0  0  0  0  0  0  0  0  0  0  0  0
   10.7611   -1.6142    0.0000 N   0  0  0  0  0  0  0  0  0  0  0  0
    6.4567   -1.6501    0.0000 C   0  0  0  0  0  0  0  0  0  0  0  0
    7.1741   -1.2196    0.0000 C   0  0  0  0  0  0  0  0  0  0  0  0
    5.7392   -1.2555    0.0000 C   0  0  0  0  0  0  0  0  0  0  0  0
    7.8915   -2.4392    0.0000 C   0  0  0  0  0  0  0  0  0  0  0  0
    7.8915   -1.6142    0.0000 C   0  0  0  0  0  0  0  0  0  0  0  0
    6.4567   -2.4392    0.0000 C   0  0  0  0  0  0  0  0  0  0  0  0
    8.6089   -2.8697    0.0000 C   0  0  0  0  0  0  0  0  0  0  0  0
    7.1741   -2.8697    0.0000 C   0  0  0  0  0  0  0  0  0  0  0  0
    6.4567    0.0000    0.0000 C   0  0  0  0  0  0  0  0  0  0  0  0
    2.1522   -2.5109    0.0000 C   0  0  0  0  0  0  0  0  0  0  0  0
    3.6229   -1.6501    0.0000 C   0  0  0  0  0  0  0  0  0  0  0  0
    9.3263   -2.4392    0.0000 C   0  0  0  0  0  0  0  0  0  0  0  0
    1.4348   -2.9055    0.0000 C   0  0  0  0  0  0  0  0  0  0  0  0
    4.3403   -1.2555    0.0000 C   0  0  0  0  0  0  0  0  0  0  0  0
    8.6089   -3.6947    0.0000 C   0  0  0  0  0  0  0  0  0  0  0  0
   10.0437   -2.8697    0.0000 C   0  0  0  0  0  0  0  0  0  0  0  0
    2.1522   -1.6501    0.0000 C   0  0  0  0  0  0  0  0  0  0  0  0
    3.5871   -2.4751    0.0000 C   0  0  0  0  0  0  0  0  0  0  0  0
    2.8697   -1.2555    0.0000 C   0  0  0  0  0  0  0  0  0  0  0  0
    1.4348   -3.7305    0.0000 C   0  0  0  0  0  0  0  0  0  0  0  0
    9.3263   -4.0892    0.0000 C   0  0  0  0  0  0  0  0  0  0  0  0
   10.0437   -3.6947    0.0000 C   0  0  0  0  0  0  0  0  0  0  0  0
    0.7174   -2.5109    0.0000 C   0  0  0  0  0  0  0  0  0  0  0  0
    0.7174   -4.1251    0.0000 C   0  0  0  0  0  0  0  0  0  0  0  0
    0.0000   -2.9055    0.0000 C   0  0  0  0  0  0  0  0  0  0  0  0
   10.7611   -2.4392    0.0000 C   0  0  0  0  0  0  0  0  0  0  0  0
    0.7174   -4.9501    0.0000 C   0  0  0  0  0  0  0  0  0  0  0  0
  1  8  2  0  0  0  0
  1 15  1  0  0  0  0
  2  9  1  0  0  0  0
  2 15  2  0  0  0  0
  3  9  1  0  0  0  0
  3 20  1  0  0  0  0
  4 16  2  0  0  0  0
  4 24  1  0  0  0  0
  5 30  1  0  0  0  0
  5 31  2  0  0  0  0
  6 32  3  0  0  0  0
  7  8  1  0  0  0  0
  7  9  2  0  0  0  0
  7 12  1  0  0  0  0
  8 11  1  0  0  0  0
 10 11  2  0  0  0  0
 10 13  1  0  0  0  0
 10 14  1  0  0  0  0
 12 14  2  0  0  0  0
 13 18  1  0  0  0  0
 13 21  2  0  0  0  0
 16 19  1  0  0  0  0
 16 23  1  0  0  0  0
 17 20  1  0  0  0  0
 17 24  2  0  0  0  0
 17 25  1  0  0  0  0
 18 22  2  0  0  0  0
 19 26  1  0  0  0  0
 19 29  2  0  0  0  0
 21 27  1  0  0  0  0
 22 28  1  0  0  0  0
 22 32  1  0  0  0  0
 23 25  2  0  0  0  0
 26 30  2  0  0  0  0
 27 28  2  0  0  0  0
 29 31  1  0  0  0  0
 30 33  1  0  0  0  0
M  END
> <PUBCHEM_COMPOUND_ID_TYPE>
0

> <PUBCHEM_TOTAL_CHARGE>
0

> <PUBCHEM_SUBSTANCE_ID>
310936438

> <PUBCHEM_SUBSTANCE_VERSION>
1

> <PUBCHEM_EXT_DATASOURCE_NAME>
4488

> <PUBCHEM_EXT_DATASOURCE_REGID>
SCHEMBL16114079

> <PUBCHEM_SUBSTANCE_COMMENT>
InChI=1S/C27H20N6/c1-18-11-23(9-10-29-18)25-8-5-20(15-30-25)16-31-27-24-7-6-22(13-26(24)32-17-33-27)21-4-2-3-19(12-21)14-28/h2-13,15,17H,16H2,1H3,(H,31,32,33)
InChIKey=FPUPSYMTAZAKMK-UHFFFAOYSA-N

> <PUBCHEM_SUBSTANCE_SYNONYM>
SCHEMBL16114079

> <PUBCHEM_XREF_EXT_ID>
SCHEMBL16114079

> <PUBCHEM_EXT_DATASOURCE_URL>
https://www.surechembl.org/

> <PUBCHEM_EXT_SUBSTANCE_URL>
https://www.surechembl.org/chemical/SCHEMBL16114079

> <PUBCHEM_CID_ASSOCIATIONS>
117604371  1

> <PUBCHEM_COORDINATE_TYPE>
1
3

$$$$
