310947313
  -OEChem-07211613022D

 32 35  0     1  0  0  0  0  0999 V2000
   -5.0944   -0.5121    0.0000 Br  0  0  0  0  0  0  0  0  0  0  0  0
   -0.8076    1.9629    0.0000 O   0  0  0  0  0  0  0  0  0  0  0  0
    5.0944   -0.4118    0.0000 O   0  0  0  0  0  0  0  0  0  0  0  0
    2.1204   -0.3546    0.0000 N   0  0  0  0  0  0  0  0  0  0  0  0
    2.6053    0.3129    0.0000 N   0  0  0  0  0  0  0  0  0  0  0  0
   -1.5221    0.7254    0.0000 N   0  0  0  0  0  0  0  0  0  0  0  0
    1.3358   -0.0996    0.0000 C   0  0  0  0  0  0  0  0  0  0  0  0
    1.3358    0.7254    0.0000 C   0  0  0  0  0  0  0  0  0  0  0  0
    2.1204    0.9803    0.0000 C   0  0  0  0  0  0  0  0  0  0  0  0
   -0.0931    0.7254    0.0000 C   0  0  0  0  0  0  0  0  0  0  0  0
    0.6213    1.1379    0.0000 C   0  0  0  0  0  0  0  0  0  0  0  0
    0.6213   -0.5121    0.0000 C   0  0  0  0  0  0  0  0  0  0  0  0
   -0.0931   -0.0996    0.0000 C   0  0  0  0  0  0  0  0  0  0  0  0
    2.3339   -1.1514    0.0000 C   0  0  0  0  0  0  0  0  0  0  0  0
   -0.8076    1.1379    0.0000 C   0  0  0  0  0  0  0  0  0  0  0  0
    3.1308   -1.3650    0.0000 C   0  0  0  0  0  0  0  0  0  0  0  0
    2.5329    1.6948    0.0000 C   0  0  0  0  0  0  0  0  0  0  0  0
   -2.2366    1.1379    0.0000 C   0  0  3  0  0  0  0  0  0  0  0  0
   -2.9510    0.7254    0.0000 C   0  0  0  0  0  0  0  0  0  0  0  0
    3.7142   -0.7816    0.0000 C   0  0  0  0  0  0  0  0  0  0  0  0
    3.3444   -2.1619    0.0000 C   0  0  0  0  0  0  0  0  0  0  0  0
    4.5111   -0.9951    0.0000 C   0  0  0  0  0  0  0  0  0  0  0  0
   -3.6655    1.1379    0.0000 C   0  0  0  0  0  0  0  0  0  0  0  0
   -2.9510   -0.0996    0.0000 C   0  0  0  0  0  0  0  0  0  0  0  0
    4.1412   -2.3754    0.0000 C   0  0  0  0  0  0  0  0  0  0  0  0
   -2.2366    1.9629    0.0000 C   0  0  0  0  0  0  0  0  0  0  0  0
    4.7246   -1.7920    0.0000 C   0  0  0  0  0  0  0  0  0  0  0  0
   -4.3800   -0.0996    0.0000 C   0  0  0  0  0  0  0  0  0  0  0  0
   -4.3800    0.7254    0.0000 C   0  0  0  0  0  0  0  0  0  0  0  0
   -3.6655   -0.5121    0.0000 C   0  0  0  0  0  0  0  0  0  0  0  0
   -2.9510    2.3754    0.0000 C   0  0  0  0  0  0  0  0  0  0  0  0
    4.8809    0.3851    0.0000 C   0  0  0  0  0  0  0  0  0  0  0  0
  1 28  1  0  0  0  0
  2 15  2  0  0  0  0
  3 22  1  0  0  0  0
  3 32  1  0  0  0  0
  4  5  1  0  0  0  0
  4  7  1  0  0  0  0
  4 14  1  0  0  0  0
  5  9  2  0  0  0  0
  6 15  1  0  0  0  0
 18  6  1  6  0  0  0
  7  8  1  0  0  0  0
  7 12  2  0  0  0  0
  8  9  1  0  0  0  0
  8 11  2  0  0  0  0
  9 17  1  0  0  0  0
 10 11  1  0  0  0  0
 10 13  2  0  0  0  0
 10 15  1  0  0  0  0
 12 13  1  0  0  0  0
 14 16  1  0  0  0  0
 16 20  1  0  0  0  0
 16 21  2  0  0  0  0
 18 19  1  0  0  0  0
 18 26  1  0  0  0  0
 19 23  2  0  0  0  0
 19 24  1  0  0  0  0
 20 22  2  0  0  0  0
 21 25  1  0  0  0  0
 22 27  1  0  0  0  0
 23 29  1  0  0  0  0
 24 30  2  0  0  0  0
 25 27  2  0  0  0  0
 26 31  1  0  0  0  0
 28 29  2  0  0  0  0
 28 30  1  0  0  0  0
M  END
> <PUBCHEM_COMPOUND_ID_TYPE>
0

> <PUBCHEM_TOTAL_CHARGE>
0

> <PUBCHEM_SUBSTANCE_ID>
310947313

> <PUBCHEM_SUBSTANCE_VERSION>
1

> <PUBCHEM_EXT_DATASOURCE_NAME>
4488

> <PUBCHEM_EXT_DATASOURCE_REGID>
SCHEMBL16125468

> <PUBCHEM_SUBSTANCE_COMMENT>
InChI=1S/C26H26BrN3O2/c1-4-24(19-8-11-21(27)12-9-19)28-26(31)20-10-13-25-23(15-20)17(2)29-30(25)16-18-6-5-7-22(14-18)32-3/h5-15,24H,4,16H2,1-3H3,(H,28,31)/t24-/m0/s1
InChIKey=CUOLWEWPGHQKJF-DEOSSOPVSA-N

> <PUBCHEM_SUBSTANCE_SYNONYM>
SCHEMBL16125468

> <PUBCHEM_XREF_EXT_ID>
SCHEMBL16125468

> <PUBCHEM_EXT_DATASOURCE_URL>
https://www.surechembl.org/

> <PUBCHEM_EXT_SUBSTANCE_URL>
https://www.surechembl.org/chemical/SCHEMBL16125468

> <PUBCHEM_CID_ASSOCIATIONS>
71577399  1

> <PUBCHEM_COORDINATE_TYPE>
1
3

> <PUBCHEM_BONDANNOTATIONS>
18  6  6

$$$$
