310936911
  -OEChem-07211613022D

 28 31  0     0  0  0  0  0  0999 V2000
   -5.7159   -1.6500    0.0000 F   0  0  0  0  0  0  0  0  0  0  0  0
    1.6077   -1.4045    0.0000 O   0  0  0  0  0  0  0  0  0  0  0  0
   -2.1435   -0.4125    0.0000 O   0  0  0  0  0  0  0  0  0  0  0  0
    0.7145    1.2375    0.0000 O   0  5  0  0  0  0  0  0  0  0  0  0
    0.0000    0.8250    0.0000 N   0  3  0  0  0  0  0  0  0  0  0  0
    1.4682   -0.0770    0.0000 N   0  0  0  0  0  0  0  0  0  0  0  0
    0.8007   -1.2330    0.0000 N   0  0  0  0  0  0  0  0  0  0  0  0
    0.0000    0.0000    0.0000 C   0  0  0  0  0  0  0  0  0  0  0  0
   -1.4290    0.8250    0.0000 C   0  0  0  0  0  0  0  0  0  0  0  0
    0.7145   -0.4125    0.0000 C   0  0  0  0  0  0  0  0  0  0  0  0
   -1.4290    0.0000    0.0000 C   0  0  0  0  0  0  0  0  0  0  0  0
   -2.1435    1.2375    0.0000 C   0  0  0  0  0  0  0  0  0  0  0  0
   -0.7145   -0.4125    0.0000 C   0  0  0  0  0  0  0  0  0  0  0  0
   -0.7145    1.2375    0.0000 C   0  0  0  0  0  0  0  0  0  0  0  0
    2.0202   -0.6901    0.0000 C   0  0  0  0  0  0  0  0  0  0  0  0
    2.8407   -0.6038    0.0000 C   0  0  0  0  0  0  0  0  0  0  0  0
   -2.9685    1.2375    0.0000 C   0  0  0  0  0  0  0  0  0  0  0  0
   -2.5560    1.9520    0.0000 C   0  0  0  0  0  0  0  0  0  0  0  0
   -2.8579    0.0000    0.0000 C   0  0  0  0  0  0  0  0  0  0  0  0
   -3.5724   -0.4125    0.0000 C   0  0  0  0  0  0  0  0  0  0  0  0
    3.1763    0.1499    0.0000 C   0  0  0  0  0  0  0  0  0  0  0  0
    3.6612   -0.5176    0.0000 C   0  0  0  0  0  0  0  0  0  0  0  0
    3.3256   -1.2713    0.0000 C   0  0  0  0  0  0  0  0  0  0  0  0
   -4.2869    0.0000    0.0000 C   0  0  0  0  0  0  0  0  0  0  0  0
   -3.5724   -1.2375    0.0000 C   0  0  0  0  0  0  0  0  0  0  0  0
   -5.0014   -1.2375    0.0000 C   0  0  0  0  0  0  0  0  0  0  0  0
   -5.0014   -0.4125    0.0000 C   0  0  0  0  0  0  0  0  0  0  0  0
   -4.2869   -1.6500    0.0000 C   0  0  0  0  0  0  0  0  0  0  0  0
  1 26  1  0  0  0  0
  2  7  1  0  0  0  0
  2 15  1  0  0  0  0
  3 11  1  0  0  0  0
  3 19  1  0  0  0  0
  4  5  1  0  0  0  0
  5  8  1  0  0  0  0
  5 14  2  0  0  0  0
  6 10  1  0  0  0  0
  6 15  2  0  0  0  0
  7 10  2  0  0  0  0
  8 10  1  0  0  0  0
  8 13  2  0  0  0  0
  9 11  2  0  0  0  0
  9 12  1  0  0  0  0
  9 14  1  0  0  0  0
 11 13  1  0  0  0  0
 12 17  1  0  0  0  0
 12 18  1  0  0  0  0
 15 16  1  0  0  0  0
 16 21  1  0  0  0  0
 16 22  1  0  0  0  0
 16 23  1  0  0  0  0
 17 18  1  0  0  0  0
 19 20  1  0  0  0  0
 20 24  2  0  0  0  0
 20 25  1  0  0  0  0
 24 27  1  0  0  0  0
 25 28  2  0  0  0  0
 26 27  2  0  0  0  0
 26 28  1  0  0  0  0
M  CHG  2   4  -1   5   1
M  END
> <PUBCHEM_COMPOUND_ID_TYPE>
0

> <PUBCHEM_TOTAL_CHARGE>
0

> <PUBCHEM_SUBSTANCE_ID>
310936911

> <PUBCHEM_SUBSTANCE_VERSION>
1

> <PUBCHEM_EXT_DATASOURCE_NAME>
4488

> <PUBCHEM_EXT_DATASOURCE_REGID>
SCHEMBL16114610

> <PUBCHEM_SUBSTANCE_COMMENT>
InChI=1S/C21H22FN3O3/c1-21(2,3)20-23-19(24-28-20)17-10-18(16(11-25(17)26)14-6-7-14)27-12-13-4-8-15(22)9-5-13/h4-5,8-11,14H,6-7,12H2,1-3H3
InChIKey=OSQFZTIUVPIOOQ-UHFFFAOYSA-N

> <PUBCHEM_SUBSTANCE_SYNONYM>
SCHEMBL16114610

> <PUBCHEM_XREF_EXT_ID>
SCHEMBL16114610

> <PUBCHEM_EXT_DATASOURCE_URL>
https://www.surechembl.org/

> <PUBCHEM_EXT_SUBSTANCE_URL>
https://www.surechembl.org/chemical/SCHEMBL16114610

> <PUBCHEM_CID_ASSOCIATIONS>
117604794  1

> <PUBCHEM_COORDINATE_TYPE>
1
3

$$$$
