310949578
  -OEChem-07211613022D

  5  4  0     0  0  0  0  0  0999 V2000
    1.2144    0.6828    0.0000 I   0  0  0  0  0  0  0  0  0  0  0  0
    0.8478    0.0412    0.0000 O   0  0  0  0  0  0  0  0  0  0  0  0
   -1.2144   -0.6828    0.0000 O   0  0  0  0  0  0  0  0  0  0  0  0
    0.0229    0.0504    0.0000 N   0  0  0  0  0  0  0  0  0  0  0  0
   -0.3895   -0.6645    0.0000 C   0  0  0  0  0  0  0  0  0  0  0  0
  1  2  1  0  0  0  0
  2  4  1  0  0  0  0
  3  5  1  0  0  0  0
  4  5  2  0  0  0  0
M  END
> <PUBCHEM_COMPOUND_ID_TYPE>
0

> <PUBCHEM_TOTAL_CHARGE>
0

> <PUBCHEM_SUBSTANCE_ID>
310949578

> <PUBCHEM_SUBSTANCE_VERSION>
1

> <PUBCHEM_EXT_DATASOURCE_NAME>
4488

> <PUBCHEM_EXT_DATASOURCE_REGID>
SCHEMBL16127774

> <PUBCHEM_SUBSTANCE_COMMENT>
InChI=1S/CH2INO2/c2-5-3-1-4/h1H,(H,3,4)
InChIKey=NXUNVMVRCWVJLK-UHFFFAOYSA-N

> <PUBCHEM_SUBSTANCE_SYNONYM>
SCHEMBL16127774

> <PUBCHEM_XREF_EXT_ID>
SCHEMBL16127774

> <PUBCHEM_EXT_DATASOURCE_URL>
https://www.surechembl.org/

> <PUBCHEM_EXT_SUBSTANCE_URL>
https://www.surechembl.org/chemical/SCHEMBL16127774

> <PUBCHEM_CID_ASSOCIATIONS>
117614986  1

> <PUBCHEM_COORDINATE_TYPE>
1
3

$$$$
