310940046
  -OEChem-07211613022D

 14 14  0     0  0  0  0  0  0999 V2000
   -2.1840    5.3848    0.0000 Cl  0  0  0  0  0  0  0  0  0  0  0  0
    0.6739    5.3848    0.0000 O   0  0  0  0  0  0  0  0  0  0  0  0
    0.6739    7.8598    0.0000 O   0  5  0  0  0  0  0  0  0  0  0  0
    1.3884    6.6223    0.0000 O   0  0  0  0  0  0  0  0  0  0  0  0
   -2.8985    6.6223    0.0000 O   0  0  0  0  0  0  0  0  0  0  0  0
    0.6739    7.0348    0.0000 N   0  3  0  0  0  0  0  0  0  0  0  0
   -0.0406    6.6223    0.0000 C   0  0  0  0  0  0  0  0  0  0  0  0
   -0.0406    5.7973    0.0000 C   0  0  0  0  0  0  0  0  0  0  0  0
   -1.4695    6.6223    0.0000 C   0  0  0  0  0  0  0  0  0  0  0  0
   -1.4695    5.7973    0.0000 C   0  0  0  0  0  0  0  0  0  0  0  0
   -0.7551    7.0348    0.0000 C   0  0  0  0  0  0  0  0  0  0  0  0
   -0.7551    5.3848    0.0000 C   0  0  0  0  0  0  0  0  0  0  0  0
   -2.1840    7.0348    0.0000 C   0  0  0  0  0  0  0  0  0  0  0  0
    1.3884    5.7973    0.0000 C   0  0  0  0  0  0  0  0  0  0  0  0
  1 10  1  0  0  0  0
  2  8  1  0  0  0  0
  2 14  1  0  0  0  0
  3  6  1  0  0  0  0
  4  6  2  0  0  0  0
  5 13  1  0  0  0  0
  6  7  1  0  0  0  0
  7  8  1  0  0  0  0
  7 11  2  0  0  0  0
  8 12  2  0  0  0  0
  9 10  2  0  0  0  0
  9 11  1  0  0  0  0
  9 13  1  0  0  0  0
 10 12  1  0  0  0  0
M  CHG  2   3  -1   6   1
M  END
> <PUBCHEM_COMPOUND_ID_TYPE>
0

> <PUBCHEM_TOTAL_CHARGE>
0

> <PUBCHEM_SUBSTANCE_ID>
310940046

> <PUBCHEM_SUBSTANCE_VERSION>
1

> <PUBCHEM_EXT_DATASOURCE_NAME>
4488

> <PUBCHEM_EXT_DATASOURCE_REGID>
SCHEMBL16117976

> <PUBCHEM_SUBSTANCE_COMMENT>
InChI=1S/C8H8ClNO4/c1-14-8-3-6(9)5(4-11)2-7(8)10(12)13/h2-3,11H,4H2,1H3
InChIKey=GGQSOKKNVQCTJY-UHFFFAOYSA-N

> <PUBCHEM_SUBSTANCE_SYNONYM>
SCHEMBL16117976

> <PUBCHEM_XREF_EXT_ID>
SCHEMBL16117976

> <PUBCHEM_EXT_DATASOURCE_URL>
https://www.surechembl.org/

> <PUBCHEM_EXT_SUBSTANCE_URL>
https://www.surechembl.org/chemical/SCHEMBL16117976

> <PUBCHEM_CID_ASSOCIATIONS>
117607196  1

> <PUBCHEM_COORDINATE_TYPE>
1
3

$$$$
