310942480
  -OEChem-07211613022D

 40 43  0     1  0  0  0  0  0999 V2000
   -1.2867   -1.4287    0.0000 F   0  0  0  0  0  0  0  0  0  0  0  0
   -2.4936    3.6827    0.0000 F   0  0  0  0  0  0  0  0  0  0  0  0
    1.1625   -3.6827    0.0000 F   0  0  0  0  0  0  0  0  0  0  0  0
    4.3572    1.4287    0.0000 F   0  0  0  0  0  0  0  0  0  0  0  0
   -2.6356    0.8075    0.0000 O   0  0  0  0  0  0  0  0  0  0  0  0
   -1.0737   -0.7720    0.0000 O   0  0  0  0  0  0  0  0  0  0  0  0
    0.9673    0.2751    0.0000 N   0  0  0  0  0  0  0  0  0  0  0  0
   -1.2513    1.3222    0.0000 N   0  0  0  0  0  0  0  0  0  0  0  0
   -0.2574   -0.2929    0.0000 N   0  0  0  0  0  0  0  0  0  0  0  0
   -3.7183    1.8902    0.0000 N   0  0  3  0  0  0  0  0  0  0  0  0
   -0.1864    1.1980    0.0000 C   0  0  3  0  0  0  0  0  0  0  0  0
    0.1509    0.4526    0.0000 C   0  0  0  0  0  0  0  0  0  0  0  0
    0.3106    1.9256    0.0000 C   0  0  0  0  0  0  0  0  0  0  0  0
    0.2929   -0.8963    0.0000 C   0  0  0  0  0  0  0  0  0  0  0  0
    1.0382   -0.5768    0.0000 C   0  0  0  0  0  0  0  0  0  0  0  0
    0.1153   -1.7304    0.0000 C   0  0  0  0  0  0  0  0  0  0  0  0
   -1.8725    0.4526    0.0000 C   0  0  0  0  0  0  0  0  0  0  0  0
   -1.6062    2.0854    0.0000 C   0  0  0  0  0  0  0  0  0  0  0  0
    1.5707    0.8253    0.0000 C   0  0  0  0  0  0  0  0  0  0  0  0
   -2.4049    2.1742    0.0000 C   0  0  3  0  0  0  0  0  0  0  0  0
   -0.6655   -1.9966    0.0000 C   0  0  0  0  0  0  0  0  0  0  0  0
    0.7188   -2.2984    0.0000 C   0  0  0  0  0  0  0  0  0  0  0  0
    2.3516    0.5768    0.0000 C   0  0  0  0  0  0  0  0  0  0  0  0
   -0.0089    2.6711    0.0000 C   0  0  0  0  0  0  0  0  0  0  0  0
    0.7720    2.5823    0.0000 C   0  0  0  0  0  0  0  0  0  0  0  0
    1.1448    1.8192    0.0000 C   0  0  0  0  0  0  0  0  0  0  0  0
   -1.8370   -0.3993    0.0000 C   0  0  3  0  0  0  0  0  0  0  0  0
   -2.8309    2.9018    0.0000 C   0  0  3  0  0  0  0  0  0  0  0  0
   -2.9550    1.5707    0.0000 C   0  0  0  0  0  0  0  0  0  0  0  0
    0.5591   -3.1148    0.0000 C   0  0  0  0  0  0  0  0  0  0  0  0
   -0.8253   -2.8131    0.0000 C   0  0  0  0  0  0  0  0  0  0  0  0
   -3.6117    2.7243    0.0000 C   0  0  0  0  0  0  0  0  0  0  0  0
   -0.2219   -3.3633    0.0000 C   0  0  0  0  0  0  0  0  0  0  0  0
    2.9728    1.1270    0.0000 C   0  0  0  0  0  0  0  0  0  0  0  0
    2.5291   -0.2396    0.0000 C   0  0  0  0  0  0  0  0  0  0  0  0
    3.7538    0.8786    0.0000 C   0  0  0  0  0  0  0  0  0  0  0  0
   -2.4759   -0.8963    0.0000 C   0  0  0  0  0  0  0  0  0  0  0  0
    3.3100   -0.5058    0.0000 C   0  0  0  0  0  0  0  0  0  0  0  0
    3.9134    0.0443    0.0000 C   0  0  0  0  0  0  0  0  0  0  0  0
   -4.3572    1.7127    0.0000 C   0  0  0  0  0  0  0  0  0  0  0  0
  1 21  1  0  0  0  0
 28  2  1  6  0  0  0
  3 30  1  0  0  0  0
  4 36  1  0  0  0  0
  5 17  2  0  0  0  0
 27  6  1  6  0  0  0
  7 12  1  0  0  0  0
  7 15  1  0  0  0  0
  7 19  1  0  0  0  0
 11  8  1  6  0  0  0
  8 17  1  0  0  0  0
  8 18  1  0  0  0  0
  9 12  2  0  0  0  0
  9 14  1  0  0  0  0
 10 29  1  0  0  0  0
 10 32  1  0  0  0  0
 10 40  1  0  0  0  0
 11 12  1  0  0  0  0
 11 13  1  0  0  0  0
 13 24  1  0  0  0  0
 13 25  1  0  0  0  0
 13 26  1  0  0  0  0
 14 15  2  0  0  0  0
 14 16  1  0  0  0  0
 16 21  1  0  0  0  0
 16 22  2  0  0  0  0
 17 27  1  0  0  0  0
 20 18  1  6  0  0  0
 19 23  1  0  0  0  0
 20 28  1  0  0  0  0
 20 29  1  0  0  0  0
 21 31  2  0  0  0  0
 22 30  1  0  0  0  0
 23 34  1  0  0  0  0
 23 35  2  0  0  0  0
 27 37  1  0  0  0  0
 28 32  1  0  0  0  0
 30 33  2  0  0  0  0
 31 33  1  0  0  0  0
 34 36  2  0  0  0  0
 35 38  1  0  0  0  0
 36 39  1  0  0  0  0
 38 39  2  0  0  0  0
M  END
> <PUBCHEM_COMPOUND_ID_TYPE>
0

> <PUBCHEM_TOTAL_CHARGE>
0

> <PUBCHEM_SUBSTANCE_ID>
310942480

> <PUBCHEM_SUBSTANCE_VERSION>
1

> <PUBCHEM_EXT_DATASOURCE_NAME>
4488

> <PUBCHEM_EXT_DATASOURCE_REGID>
SCHEMBL16120516

> <PUBCHEM_SUBSTANCE_COMMENT>
InChI=1S/C30H36F4N4O2/c1-18(39)29(40)38(15-20-14-36(5)16-25(20)34)27(30(2,3)4)28-35-26(23-12-22(32)9-10-24(23)33)17-37(28)13-19-7-6-8-21(31)11-19/h6-12,17-18,20,25,27,39H,13-16H2,1-5H3/t18-,20+,25+,27+/m1/s1
InChIKey=PMOMKKNUPCKZPW-RFFWCVQVSA-N

> <PUBCHEM_SUBSTANCE_SYNONYM>
SCHEMBL16120516

> <PUBCHEM_XREF_EXT_ID>
SCHEMBL16120516

> <PUBCHEM_EXT_DATASOURCE_URL>
https://www.surechembl.org/

> <PUBCHEM_EXT_SUBSTANCE_URL>
https://www.surechembl.org/chemical/SCHEMBL16120516

> <PUBCHEM_CID_ASSOCIATIONS>
117609051  1

> <PUBCHEM_COORDINATE_TYPE>
1
3

> <PUBCHEM_BONDANNOTATIONS>
20  18  6
28  2  6
27  6  6
11  8  6

$$$$
