310935128
  -OEChem-07211613022D

 27 30  0     1  0  0  0  0  0999 V2000
   -0.7144   -1.6500    0.0000 Br  0  0  0  0  0  0  0  0  0  0  0  0
    0.7846    0.6674    0.0000 S   0  0  0  0  0  0  0  0  0  0  0  0
    5.8391    1.0165    0.0000 F   0  0  0  0  0  0  0  0  0  0  0  0
    2.9603   -1.7756    0.0000 O   0  0  0  0  0  0  0  0  0  0  0  0
    4.1554   -1.3939    0.0000 O   0  0  0  0  0  0  0  0  0  0  0  0
    0.7846   -0.6674    0.0000 N   0  0  0  0  0  0  0  0  0  0  0  0
    3.3641   -0.4125    0.0000 C   0  0  3  0  0  0  0  0  0  0  0  0
    4.1891   -0.4125    0.0000 C   0  0  0  0  0  0  0  0  0  0  0  0
    2.0946    0.0000    0.0000 C   0  0  0  0  0  0  0  0  0  0  0  0
    2.5795   -0.6674    0.0000 C   0  0  0  0  0  0  0  0  0  0  0  0
    1.2696    0.0000    0.0000 C   0  0  0  0  0  0  0  0  0  0  0  0
    3.3641    0.4125    0.0000 C   0  0  0  0  0  0  0  0  0  0  0  0
    3.5636   -1.2130    0.0000 C   0  0  0  0  0  0  0  0  0  0  0  0
    2.5795    0.6674    0.0000 C   0  0  0  0  0  0  0  0  0  0  0  0
    0.0000   -0.4125    0.0000 C   0  0  0  0  0  0  0  0  0  0  0  0
    4.6016    0.3020    0.0000 C   0  0  0  0  0  0  0  0  0  0  0  0
    0.0000    0.4125    0.0000 C   0  0  0  0  0  0  0  0  0  0  0  0
    4.6016   -1.1270    0.0000 C   0  0  0  0  0  0  0  0  0  0  0  0
   -0.7144   -0.8250    0.0000 C   0  0  0  0  0  0  0  0  0  0  0  0
    5.4266    0.3020    0.0000 C   0  0  0  0  0  0  0  0  0  0  0  0
   -0.7144    0.8250    0.0000 C   0  0  0  0  0  0  0  0  0  0  0  0
    5.4266   -1.1270    0.0000 C   0  0  0  0  0  0  0  0  0  0  0  0
    5.8391   -0.4125    0.0000 C   0  0  0  0  0  0  0  0  0  0  0  0
   -1.4290   -0.4125    0.0000 C   0  0  0  0  0  0  0  0  0  0  0  0
    4.1891    1.0165    0.0000 C   0  0  0  0  0  0  0  0  0  0  0  0
   -1.4290    0.4125    0.0000 C   0  0  0  0  0  0  0  0  0  0  0  0
    3.1459   -2.5795    0.0000 C   0  0  0  0  0  0  0  0  0  0  0  0
  1 19  1  0  0  0  0
  2 11  1  0  0  0  0
  2 17  1  0  0  0  0
  3 20  1  0  0  0  0
  4 13  1  0  0  0  0
  4 27  1  0  0  0  0
  5 13  2  0  0  0  0
  6 11  2  0  0  0  0
  6 15  1  0  0  0  0
  7  8  1  0  0  0  0
  7 10  1  0  0  0  0
  7 12  1  0  0  0  0
  7 13  1  6  0  0  0
  8 16  1  0  0  0  0
  8 18  2  0  0  0  0
  9 10  2  0  0  0  0
  9 11  1  0  0  0  0
  9 14  1  0  0  0  0
 12 14  1  0  0  0  0
 15 17  1  0  0  0  0
 15 19  2  0  0  0  0
 16 20  2  0  0  0  0
 16 25  1  0  0  0  0
 17 21  2  0  0  0  0
 18 22  1  0  0  0  0
 19 24  1  0  0  0  0
 20 23  1  0  0  0  0
 21 26  1  0  0  0  0
 22 23  2  0  0  0  0
 24 26  2  0  0  0  0
M  END
> <PUBCHEM_COMPOUND_ID_TYPE>
0

> <PUBCHEM_TOTAL_CHARGE>
0

> <PUBCHEM_SUBSTANCE_ID>
310935128

> <PUBCHEM_SUBSTANCE_VERSION>
1

> <PUBCHEM_EXT_DATASOURCE_NAME>
4488

> <PUBCHEM_EXT_DATASOURCE_REGID>
SCHEMBL16112655

> <PUBCHEM_SUBSTANCE_COMMENT>
InChI=1S/C21H17BrFNO2S/c1-12-14(5-3-7-16(12)23)21(20(25)26-2)10-9-13(11-21)19-24-18-15(22)6-4-8-17(18)27-19/h3-8,11H,9-10H2,1-2H3/t21-/m0/s1
InChIKey=JUUAXFLWJLSFAS-NRFANRHFSA-N

> <PUBCHEM_SUBSTANCE_SYNONYM>
SCHEMBL16112655

> <PUBCHEM_XREF_EXT_ID>
SCHEMBL16112655

> <PUBCHEM_EXT_DATASOURCE_URL>
https://www.surechembl.org/

> <PUBCHEM_EXT_SUBSTANCE_URL>
https://www.surechembl.org/chemical/SCHEMBL16112655

> <PUBCHEM_CID_ASSOCIATIONS>
117603216  1

> <PUBCHEM_COORDINATE_TYPE>
1
3

> <PUBCHEM_BONDANNOTATIONS>
7  13  6

$$$$
