310936079
  -OEChem-07211613022D

 30 32  0     0  0  0  0  0  0999 V2000
    4.2988    0.0000    0.0000 Cl  0  0  0  0  0  0  0  0  0  0  0  0
    0.6948   -0.3908    0.0000 F   0  0  0  0  0  0  0  0  0  0  0  0
    0.0000   -1.6066    0.0000 F   0  0  0  0  0  0  0  0  0  0  0  0
    0.0000   -0.7816    0.0000 F   0  0  0  0  0  0  0  0  0  0  0  0
    1.4329   -2.4317    0.0000 O   0  0  0  0  0  0  0  0  0  0  0  0
    4.9936   -8.6845    0.0000 O   0  0  0  0  0  0  0  0  0  0  0  0
    2.1277   -3.6909    0.0000 N   0  0  0  0  0  0  0  0  0  0  0  0
    4.9936   -6.1660    0.0000 N   0  0  0  0  0  0  0  0  0  0  0  0
    3.6041   -6.1660    0.0000 N   0  0  0  0  0  0  0  0  0  0  0  0
    5.7318   -7.4253    0.0000 N   0  0  0  0  0  0  0  0  0  0  0  0
    2.8659   -2.4751    0.0000 C   0  0  0  0  0  0  0  0  0  0  0  0
    2.1277   -2.8659    0.0000 C   0  0  0  0  0  0  0  0  0  0  0  0
    2.8659   -1.6501    0.0000 C   0  0  0  0  0  0  0  0  0  0  0  0
    3.5607   -3.6909    0.0000 C   0  0  0  0  0  0  0  0  0  0  0  0
    3.5607   -2.8659    0.0000 C   0  0  0  0  0  0  0  0  0  0  0  0
    2.8659   -4.0818    0.0000 C   0  0  0  0  0  0  0  0  0  0  0  0
    4.2988   -4.1252    0.0000 C   0  0  0  0  0  0  0  0  0  0  0  0
    3.6041   -1.2593    0.0000 C   0  0  0  0  0  0  0  0  0  0  0  0
    2.1711   -1.2158    0.0000 C   0  0  0  0  0  0  0  0  0  0  0  0
    4.2988   -4.9502    0.0000 C   0  0  0  0  0  0  0  0  0  0  0  0
    3.6041   -0.4342    0.0000 C   0  0  0  0  0  0  0  0  0  0  0  0
    1.4329   -1.6066    0.0000 C   0  0  0  0  0  0  0  0  0  0  0  0
    0.6948   -1.2158    0.0000 C   0  0  0  0  0  0  0  0  0  0  0  0
    2.1711   -0.3908    0.0000 C   0  0  0  0  0  0  0  0  0  0  0  0
    4.9936   -5.3844    0.0000 C   0  0  0  0  0  0  0  0  0  0  0  0
    3.6041   -5.3844    0.0000 C   0  0  0  0  0  0  0  0  0  0  0  0
    2.9093    0.0000    0.0000 C   0  0  0  0  0  0  0  0  0  0  0  0
    4.2988   -6.6437    0.0000 C   0  0  0  0  0  0  0  0  0  0  0  0
    4.2988   -7.4253    0.0000 C   0  0  0  0  0  0  0  0  0  0  0  0
    4.9936   -7.8595    0.0000 C   0  0  0  0  0  0  0  0  0  0  0  0
  1 21  1  0  0  0  0
  2 23  1  0  0  0  0
  3 23  1  0  0  0  0
  4 23  1  0  0  0  0
  5 12  1  0  0  0  0
  5 22  1  0  0  0  0
  6 30  2  0  0  0  0
  7 12  2  0  0  0  0
  7 16  1  0  0  0  0
  8 25  1  0  0  0  0
  8 28  2  0  0  0  0
  9 26  2  0  0  0  0
  9 28  1  0  0  0  0
 10 30  1  0  0  0  0
 11 12  1  0  0  0  0
 11 13  1  0  0  0  0
 11 15  2  0  0  0  0
 13 18  1  0  0  0  0
 13 19  2  0  0  0  0
 14 15  1  0  0  0  0
 14 16  2  0  0  0  0
 14 17  1  0  0  0  0
 17 20  1  0  0  0  0
 18 21  2  0  0  0  0
 19 24  1  0  0  0  0
 20 25  2  0  0  0  0
 20 26  1  0  0  0  0
 21 27  1  0  0  0  0
 22 23  1  0  0  0  0
 24 27  2  0  0  0  0
 28 29  1  0  0  0  0
 29 30  1  0  0  0  0
M  END
> <PUBCHEM_COMPOUND_ID_TYPE>
0

> <PUBCHEM_TOTAL_CHARGE>
0

> <PUBCHEM_SUBSTANCE_ID>
310936079

> <PUBCHEM_SUBSTANCE_VERSION>
1

> <PUBCHEM_EXT_DATASOURCE_NAME>
4488

> <PUBCHEM_EXT_DATASOURCE_REGID>
SCHEMBL16113685

> <PUBCHEM_SUBSTANCE_COMMENT>
InChI=1S/C20H16ClF3N4O2/c21-15-3-1-2-14(6-15)16-5-12(8-28-19(16)30-11-20(22,23)24)4-13-9-26-18(27-10-13)7-17(25)29/h1-3,5-6,8-10H,4,7,11H2,(H2,25,29)
InChIKey=BTJBNXMJBYZNJE-UHFFFAOYSA-N

> <PUBCHEM_SUBSTANCE_SYNONYM>
SCHEMBL16113685

> <PUBCHEM_XREF_EXT_ID>
SCHEMBL16113685

> <PUBCHEM_EXT_DATASOURCE_URL>
https://www.surechembl.org/

> <PUBCHEM_EXT_SUBSTANCE_URL>
https://www.surechembl.org/chemical/SCHEMBL16113685

> <PUBCHEM_CID_ASSOCIATIONS>
117604045  1

> <PUBCHEM_COORDINATE_TYPE>
1
3

$$$$
