310943899
  -OEChem-07211613022D

 33 37  0     1  0  0  0  0  0999 V2000
    2.5834    1.1096    0.0000 O   0  0  0  0  0  0  0  0  0  0  0  0
    1.8107   -1.7057    0.0000 O   0  0  0  0  0  0  0  0  0  0  0  0
    5.4098    0.2374    0.0000 O   0  0  0  0  0  0  0  0  0  0  0  0
    5.5202    1.7057    0.0000 O   0  0  0  0  0  0  0  0  0  0  0  0
   -1.0047   -1.0765    0.0000 O   0  0  0  0  0  0  0  0  0  0  0  0
    3.3121   -0.1822    0.0000 N   0  0  0  0  0  0  0  0  0  0  0  0
    0.3754    0.2043    0.0000 N   0  0  0  0  0  0  0  0  0  0  0  0
   -4.1843    0.7231    0.0000 N   0  0  0  0  0  0  0  0  0  0  0  0
   -2.8043    1.0875    0.0000 N   0  0  0  0  0  0  0  0  0  0  0  0
   -4.4824    1.4960    0.0000 N   0  0  0  0  0  0  0  0  0  0  0  0
   -5.3104    1.4628    0.0000 N   0  0  0  0  0  0  0  0  0  0  0  0
   -5.5202    0.6569    0.0000 N   0  0  0  0  0  0  0  0  0  0  0  0
    1.9652   -0.2153    0.0000 C   0  0  0  0  0  0  0  0  0  0  0  0
    2.6166    0.2705    0.0000 C   0  0  0  0  0  0  0  0  0  0  0  0
    2.2743   -0.9771    0.0000 C   0  0  0  0  0  0  0  0  0  0  0  0
    4.0850    0.1380    0.0000 C   0  0  0  0  0  0  0  0  0  0  0  0
    3.0803   -0.9660    0.0000 C   0  0  0  0  0  0  0  0  0  0  0  0
    1.3911   -0.8115    0.0000 C   0  0  0  0  0  0  0  0  0  0  0  0
    1.7664    0.5686    0.0000 C   0  0  0  0  0  0  0  0  0  0  0  0
    4.2727    0.9440    0.0000 C   0  0  0  0  0  0  0  0  0  0  0  0
    0.5852   -0.5906    0.0000 C   0  0  0  0  0  0  0  0  0  0  0  0
    0.9605    0.7894    0.0000 C   0  0  0  0  0  0  0  0  0  0  0  0
    4.7915   -0.3036    0.0000 C   0  0  0  0  0  0  0  0  0  0  0  0
    5.0786    0.9771    0.0000 C   0  0  0  0  0  0  0  0  0  0  0  0
   -0.4195    0.4250    0.0000 C   0  0  0  0  0  0  0  0  0  0  0  0
    3.7206    1.5732    0.0000 C   0  0  0  0  0  0  0  0  0  0  0  0
   -1.0047   -0.1491    0.0000 C   0  0  3  0  0  0  0  0  0  0  0  0
   -1.8107    0.0718    0.0000 C   0  0  0  0  0  0  0  0  0  0  0  0
   -3.3894    0.5023    0.0000 C   0  0  0  0  0  0  0  0  0  0  0  0
   -2.0093    0.8667    0.0000 C   0  0  0  0  0  0  0  0  0  0  0  0
   -2.3847   -0.5134    0.0000 C   0  0  0  0  0  0  0  0  0  0  0  0
   -3.1796   -0.2926    0.0000 C   0  0  0  0  0  0  0  0  0  0  0  0
   -4.8247    0.2153    0.0000 C   0  0  0  0  0  0  0  0  0  0  0  0
  1 14  2  0  0  0  0
  2 15  2  0  0  0  0
  3 23  1  0  0  0  0
  3 24  1  0  0  0  0
  4 24  2  0  0  0  0
 27  5  1  6  0  0  0
  6 14  1  0  0  0  0
  6 16  1  0  0  0  0
  6 17  1  0  0  0  0
  7 21  1  0  0  0  0
  7 22  1  0  0  0  0
  7 25  1  0  0  0  0
  8 10  1  0  0  0  0
  8 29  1  0  0  0  0
  8 33  1  0  0  0  0
  9 29  2  0  0  0  0
  9 30  1  0  0  0  0
 10 11  2  0  0  0  0
 11 12  1  0  0  0  0
 12 33  2  0  0  0  0
 13 14  1  0  0  0  0
 13 15  1  0  0  0  0
 13 18  1  0  0  0  0
 13 19  1  0  0  0  0
 15 17  1  0  0  0  0
 16 20  2  0  0  0  0
 16 23  1  0  0  0  0
 18 21  1  0  0  0  0
 19 22  1  0  0  0  0
 20 24  1  0  0  0  0
 20 26  1  0  0  0  0
 25 27  1  0  0  0  0
 27 28  1  0  0  0  0
 28 30  2  0  0  0  0
 28 31  1  0  0  0  0
 29 32  1  0  0  0  0
 31 32  2  0  0  0  0
M  END
> <PUBCHEM_COMPOUND_ID_TYPE>
0

> <PUBCHEM_TOTAL_CHARGE>
0

> <PUBCHEM_SUBSTANCE_ID>
310943899

> <PUBCHEM_SUBSTANCE_VERSION>
1

> <PUBCHEM_EXT_DATASOURCE_NAME>
4488

> <PUBCHEM_EXT_DATASOURCE_REGID>
SCHEMBL16121970

> <PUBCHEM_SUBSTANCE_COMMENT>
InChI=1S/C21H23N7O5/c1-13-15(11-33-19(13)31)27-10-17(30)21(20(27)32)4-6-26(7-5-21)9-16(29)14-2-3-18(22-8-14)28-12-23-24-25-28/h2-3,8,12,16,29H,4-7,9-11H2,1H3/t16-/m0/s1
InChIKey=MFJWGCXGTBUEIP-INIZCTEOSA-N

> <PUBCHEM_SUBSTANCE_SYNONYM>
SCHEMBL16121970

> <PUBCHEM_XREF_EXT_ID>
SCHEMBL16121970

> <PUBCHEM_EXT_DATASOURCE_URL>
https://www.surechembl.org/

> <PUBCHEM_EXT_SUBSTANCE_URL>
https://www.surechembl.org/chemical/SCHEMBL16121970

> <PUBCHEM_CID_ASSOCIATIONS>
86271633  1

> <PUBCHEM_COORDINATE_TYPE>
1
3

> <PUBCHEM_BONDANNOTATIONS>
27  5  6

$$$$
