310932949
  -OEChem-07211613022D

 20 21  0     1  0  0  0  0  0999 V2000
   -1.4290    1.2375    0.0000 F   0  0  0  0  0  0  0  0  0  0  0  0
   -0.7145    0.8250    0.0000 F   0  0  0  0  0  0  0  0  0  0  0  0
   -1.4290    2.0625    0.0000 F   0  0  0  0  0  0  0  0  0  0  0  0
    4.3975    1.6500    0.0000 O   0  0  0  0  0  0  0  0  0  0  0  0
    3.6829    2.8876    0.0000 O   0  0  0  0  0  0  0  0  0  0  0  0
    0.0000    2.0625    0.0000 C   0  0  3  0  0  0  0  0  0  0  0  0
    0.8250    2.0625    0.0000 C   0  0  3  0  0  0  0  0  0  0  0  0
    0.4125    2.7770    0.0000 C   0  0  0  0  0  0  0  0  0  0  0  0
   -0.7145    1.6500    0.0000 C   0  0  0  0  0  0  0  0  0  0  0  0
    1.5395    1.6500    0.0000 C   0  0  0  0  0  0  0  0  0  0  0  0
    2.2540    2.0625    0.0000 C   0  0  0  0  0  0  0  0  0  0  0  0
    2.9685    1.6500    0.0000 C   0  0  0  0  0  0  0  0  0  0  0  0
    1.5395    0.8250    0.0000 C   0  0  0  0  0  0  0  0  0  0  0  0
    3.6829    2.0625    0.0000 C   0  0  0  0  0  0  0  0  0  0  0  0
    2.9685    0.8250    0.0000 C   0  0  0  0  0  0  0  0  0  0  0  0
    2.2540    0.4125    0.0000 C   0  0  0  0  0  0  0  0  0  0  0  0
    5.1119    2.0625    0.0000 C   0  0  0  0  0  0  0  0  0  0  0  0
    5.1119    2.8876    0.0000 C   0  0  0  0  0  0  0  0  0  0  0  0
    5.8264    2.4751    0.0000 C   0  0  0  0  0  0  0  0  0  0  0  0
    5.8264    1.6500    0.0000 C   0  0  0  0  0  0  0  0  0  0  0  0
  1  9  1  0  0  0  0
  2  9  1  0  0  0  0
  3  9  1  0  0  0  0
  4 14  1  0  0  0  0
  4 17  1  0  0  0  0
  5 14  2  0  0  0  0
  6  7  1  0  0  0  0
  6  8  1  0  0  0  0
  6  9  1  6  0  0  0
  7  8  1  1  0  0  0
  7 10  1  0  0  0  0
 10 11  2  0  0  0  0
 10 13  1  0  0  0  0
 11 12  1  0  0  0  0
 12 14  1  0  0  0  0
 12 15  2  0  0  0  0
 13 16  2  0  0  0  0
 15 16  1  0  0  0  0
 17 18  1  0  0  0  0
 17 19  1  0  0  0  0
 17 20  1  0  0  0  0
M  END
> <PUBCHEM_COMPOUND_ID_TYPE>
0

> <PUBCHEM_TOTAL_CHARGE>
0

> <PUBCHEM_SUBSTANCE_ID>
310932949

> <PUBCHEM_SUBSTANCE_VERSION>
1

> <PUBCHEM_EXT_DATASOURCE_NAME>
4488

> <PUBCHEM_EXT_DATASOURCE_REGID>
SCHEMBL16110345

> <PUBCHEM_SUBSTANCE_COMMENT>
InChI=1S/C15H17F3O2/c1-14(2,3)20-13(19)10-6-4-5-9(7-10)11-8-12(11)15(16,17)18/h4-7,11-12H,8H2,1-3H3/t11-,12+/m0/s1
InChIKey=XPBFPTFOKFECAT-NWDGAFQWSA-N

> <PUBCHEM_SUBSTANCE_SYNONYM>
SCHEMBL16110345

> <PUBCHEM_XREF_EXT_ID>
SCHEMBL16110345

> <PUBCHEM_EXT_DATASOURCE_URL>
https://www.surechembl.org/

> <PUBCHEM_EXT_SUBSTANCE_URL>
https://www.surechembl.org/chemical/SCHEMBL16110345

> <PUBCHEM_CID_ASSOCIATIONS>
117601426  1

> <PUBCHEM_COORDINATE_TYPE>
1
3

> <PUBCHEM_BONDANNOTATIONS>
6  9  6
7  8  5

$$$$
