310940887
  -OEChem-07211613022D

 41 44  0     1  0  0  0  0  0999 V2000
    5.3963    1.1631    0.0000 O   0  0  0  0  0  0  0  0  0  0  0  0
    3.9627   -0.5004    0.0000 O   0  0  0  0  0  0  0  0  0  0  0  0
    1.7988    1.5824    0.0000 O   0  0  0  0  0  0  0  0  0  0  0  0
   -0.3516   -0.5004    0.0000 O   0  0  0  0  0  0  0  0  0  0  0  0
    2.5156   -2.9754    0.0000 O   0  0  0  0  0  0  0  0  0  0  0  0
   -2.5156    1.5824    0.0000 O   0  0  0  0  0  0  0  0  0  0  0  0
   -5.3963    1.5824    0.0000 O   0  0  0  0  0  0  0  0  0  0  0  0
    2.5156    0.3246    0.0000 N   0  0  0  0  0  0  0  0  0  0  0  0
    0.3651    0.7439    0.0000 N   0  0  0  0  0  0  0  0  0  0  0  0
   -1.7988    0.3246    0.0000 N   0  0  0  0  0  0  0  0  0  0  0  0
   -3.9627    0.7439    0.0000 N   0  0  0  0  0  0  0  0  0  0  0  0
    4.6795    0.7574    0.0000 C   0  0  3  0  0  0  0  0  0  0  0  0
    3.9762    0.3651    0.0000 C   0  0  0  0  0  0  0  0  0  0  0  0
    5.3827    0.3516    0.0000 C   0  0  0  0  0  0  0  0  0  0  0  0
    3.2324    0.7574    0.0000 C   0  0  3  0  0  0  0  0  0  0  0  0
    4.0979    1.3254    0.0000 C   0  0  0  0  0  0  0  0  0  0  0  0
    3.2595    1.5824    0.0000 C   0  0  0  0  0  0  0  0  0  0  0  0
    1.7852    0.7303    0.0000 C   0  0  0  0  0  0  0  0  0  0  0  0
    1.1090    0.3381    0.0000 C   0  0  3  0  0  0  0  0  0  0  0  0
    3.9627    2.0016    0.0000 C   0  0  0  0  0  0  0  0  0  0  0  0
    1.0684   -0.5004    0.0000 C   0  0  0  0  0  0  0  0  0  0  0  0
    1.8123   -0.9061    0.0000 C   0  0  0  0  0  0  0  0  0  0  0  0
   -0.3516    0.3651    0.0000 C   0  0  0  0  0  0  0  0  0  0  0  0
    4.0574    2.8267    0.0000 C   0  0  0  0  0  0  0  0  0  0  0  0
    4.7336    1.6636    0.0000 C   0  0  0  0  0  0  0  0  0  0  0  0
    1.8123   -1.7311    0.0000 C   0  0  0  0  0  0  0  0  0  0  0  0
   -1.0684    0.7574    0.0000 C   0  0  3  0  0  0  0  0  0  0  0  0
    2.5291   -2.1369    0.0000 C   0  0  0  0  0  0  0  0  0  0  0  0
    2.5291   -0.5004    0.0000 C   0  0  0  0  0  0  0  0  0  0  0  0
    3.2324   -1.7311    0.0000 C   0  0  0  0  0  0  0  0  0  0  0  0
    4.8689    2.9754    0.0000 C   0  0  0  0  0  0  0  0  0  0  0  0
    5.2746    2.2721    0.0000 C   0  0  0  0  0  0  0  0  0  0  0  0
    3.2324   -0.9061    0.0000 C   0  0  0  0  0  0  0  0  0  0  0  0
   -2.5291    0.7303    0.0000 C   0  0  0  0  0  0  0  0  0  0  0  0
   -3.2189    0.3381    0.0000 C   0  0  0  0  0  0  0  0  0  0  0  0
   -1.0684    1.5824    0.0000 C   0  0  0  0  0  0  0  0  0  0  0  0
    3.9762   -2.1639    0.0000 C   0  0  0  0  0  0  0  0  0  0  0  0
   -3.9627    1.5824    0.0000 C   0  0  0  0  0  0  0  0  0  0  0  0
   -4.6525    0.3381    0.0000 C   0  0  0  0  0  0  0  0  0  0  0  0
   -4.6930    2.0016    0.0000 C   0  0  0  0  0  0  0  0  0  0  0  0
   -5.3963    0.7574    0.0000 C   0  0  0  0  0  0  0  0  0  0  0  0
  1 12  1  0  0  0  0
  1 14  1  0  0  0  0
  2 13  2  0  0  0  0
  3 18  2  0  0  0  0
  4 23  2  0  0  0  0
  5 28  1  0  0  0  0
  6 34  2  0  0  0  0
  7 40  1  0  0  0  0
  7 41  1  0  0  0  0
 15  8  1  1  0  0  0
  8 18  1  0  0  0  0
 19  9  1  6  0  0  0
  9 23  1  0  0  0  0
 10 27  1  0  0  0  0
 10 34  1  0  0  0  0
 11 35  1  0  0  0  0
 11 38  1  0  0  0  0
 11 39  1  0  0  0  0
 12 13  1  6  0  0  0
 12 14  1  0  0  0  0
 12 16  1  1  0  0  0
 13 15  1  0  0  0  0
 15 17  1  0  0  0  0
 17 20  1  0  0  0  0
 18 19  1  0  0  0  0
 19 21  1  0  0  0  0
 20 24  1  0  0  0  0
 20 25  1  0  0  0  0
 21 22  1  0  0  0  0
 22 26  2  0  0  0  0
 22 29  1  0  0  0  0
 23 27  1  0  0  0  0
 24 31  1  0  0  0  0
 25 32  1  0  0  0  0
 26 28  1  0  0  0  0
 27 36  1  1  0  0  0
 28 30  2  0  0  0  0
 29 33  2  0  0  0  0
 30 33  1  0  0  0  0
 30 37  1  0  0  0  0
 31 32  1  0  0  0  0
 34 35  1  0  0  0  0
 38 40  1  0  0  0  0
 39 41  1  0  0  0  0
M  END
> <PUBCHEM_COMPOUND_ID_TYPE>
0

> <PUBCHEM_TOTAL_CHARGE>
0

> <PUBCHEM_SUBSTANCE_ID>
310940887

> <PUBCHEM_SUBSTANCE_VERSION>
1

> <PUBCHEM_EXT_DATASOURCE_NAME>
4488

> <PUBCHEM_EXT_DATASOURCE_REGID>
SCHEMBL16118846

> <PUBCHEM_SUBSTANCE_COMMENT>
InChI=1S/C30H44N4O7/c1-19-8-9-22(16-25(19)35)15-24(33-28(38)20(2)31-26(36)17-34-10-12-40-13-11-34)29(39)32-23(14-21-6-4-5-7-21)27(37)30(3)18-41-30/h8-9,16,20-21,23-24,35H,4-7,10-15,17-18H2,1-3H3,(H,31,36)(H,32,39)(H,33,38)/t20-,23-,24-,30+/m0/s1
InChIKey=PJWCHPAWGQORKJ-NIHHQJGFSA-N

> <PUBCHEM_SUBSTANCE_SYNONYM>
SCHEMBL16118846

> <PUBCHEM_XREF_EXT_ID>
SCHEMBL16118846

> <PUBCHEM_EXT_DATASOURCE_URL>
https://www.surechembl.org/

> <PUBCHEM_EXT_SUBSTANCE_URL>
https://www.surechembl.org/chemical/SCHEMBL16118846

> <PUBCHEM_CID_ASSOCIATIONS>
117607804  1

> <PUBCHEM_COORDINATE_TYPE>
1
3

> <PUBCHEM_BONDANNOTATIONS>
12  13  6
12  16  5
27  36  5
15  8  5
19  9  6

$$$$
