310939416
  -OEChem-07211613022D

 60 65  0     1  0  0  0  0  0999 V2000
   17.1627    0.1625    0.0000 O   0  0  0  0  0  0  0  0  0  0  0  0
   15.8647   -0.4917    0.0000 O   0  0  0  0  0  0  0  0  0  0  0  0
   14.1730   -1.0565    0.0000 O   0  0  0  0  0  0  0  0  0  0  0  0
   12.4837   -0.5727    0.0000 O   0  0  0  0  0  0  0  0  0  0  0  0
   15.8647    2.8083    0.0000 O   0  0  0  0  0  0  0  0  0  0  0  0
   14.8482    2.6978    0.0000 O   0  0  0  0  0  0  0  0  0  0  0  0
   10.8337    0.8563    0.0000 O   0  0  0  0  0  0  0  0  0  0  0  0
   12.3732    2.6978    0.0000 O   0  0  0  0  0  0  0  0  0  0  0  0
   16.5793   -1.7293    0.0000 O   0  0  0  0  0  0  0  0  0  0  0  0
   12.7441   -1.0565    0.0000 O   0  0  0  0  0  0  0  0  0  0  0  0
   10.4638    2.2367    0.0000 O   0  0  0  0  0  0  0  0  0  0  0  0
    9.2399    0.4292    0.0000 O   0  0  0  0  0  0  0  0  0  0  0  0
    7.0626    0.5856    0.0000 O   0  0  0  0  0  0  0  0  0  0  0  0
    8.4429    0.2157    0.0000 O   0  0  0  0  0  0  0  0  0  0  0  0
    8.0731    1.5960    0.0000 N   0  0  0  0  0  0  0  0  0  0  0  0
   15.1502    0.7458    0.0000 C   0  0  3  0  0  0  0  0  0  0  0  0
   15.8647    0.3332    0.0000 C   0  0  3  0  0  0  0  0  0  0  0  0
   15.1502    1.5708    0.0000 C   0  0  3  0  0  0  0  0  0  0  0  0
   12.8963    0.1419    0.0000 C   0  0  3  0  0  0  0  0  0  0  0  0
   14.1730   -0.2315    0.0000 C   0  0  3  0  0  0  0  0  0  0  0  0
   13.3088    0.8563    0.0000 C   0  0  0  0  0  0  0  0  0  0  0  0
   16.5793    0.7458    0.0000 C   0  0  3  0  0  0  0  0  0  0  0  0
   14.4357    1.9833    0.0000 C   0  0  0  0  0  0  0  0  0  0  0  0
   12.8963    1.5708    0.0000 C   0  0  0  0  0  0  0  0  0  0  0  0
   15.8647    1.9833    0.0000 C   0  0  3  0  0  0  0  0  0  0  0  0
   13.6108    1.9833    0.0000 C   0  0  3  0  0  0  0  0  0  0  0  0
   16.4481   -0.2501    0.0000 C   0  0  0  0  0  0  0  0  0  0  0  0
   16.5793    1.5708    0.0000 C   0  0  0  0  0  0  0  0  0  0  0  0
   12.0712    0.1419    0.0000 C   0  0  0  0  0  0  0  0  0  0  0  0
   12.0712    1.5708    0.0000 C   0  0  0  0  0  0  0  0  0  0  0  0
   11.6587    0.8563    0.0000 C   0  0  3  0  0  0  0  0  0  0  0  0
   15.1502    2.3958    0.0000 C   0  0  0  0  0  0  0  0  0  0  0  0
   14.0233    1.2688    0.0000 C   0  0  0  0  0  0  0  0  0  0  0  0
   14.0233    0.4439    0.0000 C   0  0  0  0  0  0  0  0  0  0  0  0
   13.1983    2.6978    0.0000 C   0  0  0  0  0  0  0  0  0  0  0  0
   16.5793   -0.9042    0.0000 C   0  0  0  0  0  0  0  0  0  0  0  0
   13.4585   -1.4690    0.0000 C   0  0  0  0  0  0  0  0  0  0  0  0
   11.6587    2.2853    0.0000 C   0  0  0  0  0  0  0  0  0  0  0  0
   13.4585   -2.2940    0.0000 C   0  0  0  0  0  0  0  0  0  0  0  0
   10.2503    1.4397    0.0000 C   0  0  0  0  0  0  0  0  0  0  0  0
   15.1502    3.2209    0.0000 C   0  0  0  0  0  0  0  0  0  0  0  0
   17.2938   -0.4917    0.0000 C   0  0  0  0  0  0  0  0  0  0  0  0
    9.4534    1.2262    0.0000 C   0  0  3  0  0  0  0  0  0  0  0  0
   12.7441   -2.7065    0.0000 C   0  0  0  0  0  0  0  0  0  0  0  0
   14.1730   -2.7065    0.0000 C   0  0  0  0  0  0  0  0  0  0  0  0
    8.8700    1.8095    0.0000 C   0  0  3  0  0  0  0  0  0  0  0  0
   12.7441   -3.5315    0.0000 C   0  0  0  0  0  0  0  0  0  0  0  0
   14.1730   -3.5315    0.0000 C   0  0  0  0  0  0  0  0  0  0  0  0
    9.0836    2.6065    0.0000 C   0  0  0  0  0  0  0  0  0  0  0  0
   13.4585   -3.9440    0.0000 C   0  0  0  0  0  0  0  0  0  0  0  0
    8.5002    3.1899    0.0000 C   0  0  0  0  0  0  0  0  0  0  0  0
    9.8804    2.8200    0.0000 C   0  0  0  0  0  0  0  0  0  0  0  0
    7.8595    0.7991    0.0000 C   0  0  0  0  0  0  0  0  0  0  0  0
    8.7137    3.9868    0.0000 C   0  0  0  0  0  0  0  0  0  0  0  0
   10.0940    3.6169    0.0000 C   0  0  0  0  0  0  0  0  0  0  0  0
    9.5106    4.2002    0.0000 C   0  0  0  0  0  0  0  0  0  0  0  0
    6.8491   -0.2113    0.0000 C   0  0  0  0  0  0  0  0  0  0  0  0
    7.4325   -0.7947    0.0000 C   0  0  0  0  0  0  0  0  0  0  0  0
    6.0522   -0.4249    0.0000 C   0  0  0  0  0  0  0  0  0  0  0  0
    6.6356   -1.0082    0.0000 C   0  0  0  0  0  0  0  0  0  0  0  0
  1 22  1  0  0  0  0
  1 27  1  0  0  0  0
 17  2  1  6  0  0  0
  2 36  1  0  0  0  0
 20  3  1  6  0  0  0
  3 37  1  0  0  0  0
 19  4  1  6  0  0  0
 25  5  1  1  0  0  0
  5 41  1  0  0  0  0
  6 23  2  0  0  0  0
 31  7  1  6  0  0  0
  7 40  1  0  0  0  0
  8 35  1  0  0  0  0
  9 36  2  0  0  0  0
 10 37  2  0  0  0  0
 11 40  2  0  0  0  0
 43 12  1  6  0  0  0
 13 53  1  0  0  0  0
 13 57  1  0  0  0  0
 14 53  2  0  0  0  0
 46 15  1  1  0  0  0
 15 53  1  0  0  0  0
 16 17  1  0  0  0  0
 16 18  1  1  0  0  0
 16 20  1  0  0  0  0
 17 22  1  0  0  0  0
 17 27  1  0  0  0  0
 18 23  1  0  0  0  0
 18 25  1  0  0  0  0
 18 32  1  1  0  0  0
 19 20  1  0  0  0  0
 19 21  1  0  0  0  0
 19 29  1  0  0  0  0
 21 24  1  0  0  0  0
 21 33  1  0  0  0  0
 21 34  1  0  0  0  0
 22 28  1  1  0  0  0
 23 26  1  0  0  0  0
 24 26  1  0  0  0  0
 24 30  2  0  0  0  0
 25 28  1  0  0  0  0
 26 35  1  1  0  0  0
 29 31  1  0  0  0  0
 30 31  1  0  0  0  0
 30 38  1  0  0  0  0
 36 42  1  0  0  0  0
 37 39  1  0  0  0  0
 39 44  2  0  0  0  0
 39 45  1  0  0  0  0
 40 43  1  0  0  0  0
 43 46  1  0  0  0  0
 44 47  1  0  0  0  0
 45 48  2  0  0  0  0
 46 49  1  0  0  0  0
 47 50  2  0  0  0  0
 48 50  1  0  0  0  0
 49 51  2  0  0  0  0
 49 52  1  0  0  0  0
 51 54  1  0  0  0  0
 52 55  2  0  0  0  0
 54 56  2  0  0  0  0
 55 56  1  0  0  0  0
 57 58  1  0  0  0  0
 57 59  1  0  0  0  0
 57 60  1  0  0  0  0
M  END
> <PUBCHEM_COMPOUND_ID_TYPE>
0

> <PUBCHEM_TOTAL_CHARGE>
0

> <PUBCHEM_SUBSTANCE_ID>
310939416

> <PUBCHEM_SUBSTANCE_VERSION>
1

> <PUBCHEM_EXT_DATASOURCE_NAME>
4488

> <PUBCHEM_EXT_DATASOURCE_REGID>
SCHEMBL16117338

> <PUBCHEM_SUBSTANCE_COMMENT>
InChI=1S/C45H57NO14/c1-24-29(57-39(52)34(49)33(26-16-12-10-13-17-26)46-40(53)60-41(3,4)5)21-45(54)37(58-38(51)27-18-14-11-15-19-27)35-43(8,36(50)28(22-47)32(24)42(45,6)7)30(55-9)20-31-44(35,23-56-31)59-25(2)48/h10-19,28-31,33-35,37,47,49,54H,20-23H2,1-9H3,(H,46,53)/t28-,29+,30+,31-,33+,34-,35+,37+,43-,44+,45+/m1/s1
InChIKey=WXDAWKRBZIVUCZ-MCNGQHHZSA-N

> <PUBCHEM_SUBSTANCE_SYNONYM>
SCHEMBL16117338

> <PUBCHEM_XREF_EXT_ID>
SCHEMBL16117338

> <PUBCHEM_EXT_DATASOURCE_URL>
https://www.surechembl.org/

> <PUBCHEM_EXT_SUBSTANCE_URL>
https://www.surechembl.org/chemical/SCHEMBL16117338

> <PUBCHEM_CID_ASSOCIATIONS>
117606743  1

> <PUBCHEM_COORDINATE_TYPE>
1
3

> <PUBCHEM_BONDANNOTATIONS>
43  12  6
46  15  5
16  18  5
18  32  5
17  2  6
22  28  5
26  35  5
20  3  6
19  4  6
25  5  5
31  7  6

$$$$
