310946442
  -OEChem-07211613022D

  9  8  0     0  0  0  0  0  0999 V2000
    2.6447   -0.4200    0.0000 O   0  0  0  0  0  0  0  0  0  0  0  0
    3.8822    0.2945    0.0000 O   0  5  0  0  0  0  0  0  0  0  0  0
    2.6447    1.0090    0.0000 O   0  0  0  0  0  0  0  0  0  0  0  0
   -0.2298   -0.7772    0.0000 O   0  0  0  0  0  0  0  0  0  0  0  0
    3.0572    0.2945    0.0000 N   0  3  0  0  0  0  0  0  0  0  0  0
    0.8014   -0.4200    0.0000 N   0  0  0  0  0  0  0  0  0  0  0  0
    1.8197   -0.4200    0.0000 C   0  0  0  0  0  0  0  0  0  0  0  0
    0.1827   -0.0627    0.0000 C   0  0  0  0  0  0  0  0  0  0  0  0
   -0.8485   -0.4200    0.0000 C   0  0  0  0  0  0  0  0  0  0  0  0
  1  5  1  0  0  0  0
  1  7  1  0  0  0  0
  2  5  1  0  0  0  0
  3  5  2  0  0  0  0
  4  8  1  0  0  0  0
  4  9  1  0  0  0  0
  6  7  1  0  0  0  0
  6  8  1  0  0  0  0
M  CHG  2   2  -1   5   1
M  END
> <PUBCHEM_COMPOUND_ID_TYPE>
0

> <PUBCHEM_TOTAL_CHARGE>
0

> <PUBCHEM_SUBSTANCE_ID>
310946442

> <PUBCHEM_SUBSTANCE_VERSION>
1

> <PUBCHEM_EXT_DATASOURCE_NAME>
4488

> <PUBCHEM_EXT_DATASOURCE_REGID>
SCHEMBL16124563

> <PUBCHEM_SUBSTANCE_COMMENT>
InChI=1S/C3H8N2O4/c1-8-2-4-3-9-5(6)7/h4H,2-3H2,1H3
InChIKey=WEEGVGDWFXHGOQ-UHFFFAOYSA-N

> <PUBCHEM_SUBSTANCE_SYNONYM>
SCHEMBL16124563

> <PUBCHEM_XREF_EXT_ID>
SCHEMBL16124563

> <PUBCHEM_EXT_DATASOURCE_URL>
https://www.surechembl.org/

> <PUBCHEM_EXT_SUBSTANCE_URL>
https://www.surechembl.org/chemical/SCHEMBL16124563

> <PUBCHEM_CID_ASSOCIATIONS>
117612354  1

> <PUBCHEM_COORDINATE_TYPE>
1
3

$$$$
