310944649
  -OEChem-07211613022D

 33 37  0     0  0  0  0  0  0999 V2000
   -1.0999    2.8491    0.0000 F   0  0  0  0  0  0  0  0  0  0  0  0
   -1.1916   -0.4353    0.0000 N   0  0  0  0  0  0  0  0  0  0  0  0
    1.0541    2.2992    0.0000 N   0  0  0  0  0  0  0  0  0  0  0  0
   -3.2844    2.4061    0.0000 N   0  0  0  0  0  0  0  0  0  0  0  0
    1.7415   -0.6492    0.0000 C   0  0  0  0  0  0  0  0  0  0  0  0
    0.9472   -0.8784    0.0000 C   0  0  0  0  0  0  0  0  0  0  0  0
    0.9319   -1.7033    0.0000 C   0  0  0  0  0  0  0  0  0  0  0  0
    2.2151   -1.3214    0.0000 C   0  0  0  0  0  0  0  0  0  0  0  0
    1.7109   -1.9782    0.0000 C   0  0  0  0  0  0  0  0  0  0  0  0
   -0.4888   -0.8479    0.0000 C   0  0  0  0  0  0  0  0  0  0  0  0
    0.2444   -0.4659    0.0000 C   0  0  0  0  0  0  0  0  0  0  0  0
    0.1986   -2.0851    0.0000 C   0  0  0  0  0  0  0  0  0  0  0  0
   -0.4888   -1.6727    0.0000 C   0  0  0  0  0  0  0  0  0  0  0  0
   -1.1763    0.4201    0.0000 C   0  0  0  0  0  0  0  0  0  0  0  0
    3.0552   -1.4436    0.0000 C   0  0  0  0  0  0  0  0  0  0  0  0
    2.0470   -2.7421    0.0000 C   0  0  0  0  0  0  0  0  0  0  0  0
    1.3291    0.0687    0.0000 C   0  0  0  0  0  0  0  0  0  0  0  0
    2.5817   -0.4353    0.0000 C   0  0  0  0  0  0  0  0  0  0  0  0
   -1.9095   -0.8021    0.0000 C   0  0  0  0  0  0  0  0  0  0  0  0
   -0.4582    0.7868    0.0000 C   0  0  0  0  0  0  0  0  0  0  0  0
   -1.8331    0.8326    0.0000 C   0  0  0  0  0  0  0  0  0  0  0  0
    3.3607   -2.1922    0.0000 C   0  0  0  0  0  0  0  0  0  0  0  0
    2.8720   -2.8491    0.0000 C   0  0  0  0  0  0  0  0  0  0  0  0
   -0.4430    1.6116    0.0000 C   0  0  0  0  0  0  0  0  0  0  0  0
   -1.8484    1.6575    0.0000 C   0  0  0  0  0  0  0  0  0  0  0  0
   -1.1457    2.0393    0.0000 C   0  0  0  0  0  0  0  0  0  0  0  0
   -2.6581   -0.3895    0.0000 C   0  0  0  0  0  0  0  0  0  0  0  0
   -1.9248   -1.6269    0.0000 C   0  0  0  0  0  0  0  0  0  0  0  0
    0.3207    1.9782    0.0000 C   0  0  0  0  0  0  0  0  0  0  0  0
   -2.5817    2.0546    0.0000 C   0  0  0  0  0  0  0  0  0  0  0  0
   -3.3607   -0.7868    0.0000 C   0  0  0  0  0  0  0  0  0  0  0  0
   -2.6428   -2.0088    0.0000 C   0  0  0  0  0  0  0  0  0  0  0  0
   -3.3455   -1.5811    0.0000 C   0  0  0  0  0  0  0  0  0  0  0  0
  1 26  1  0  0  0  0
  2 10  1  0  0  0  0
  2 14  1  0  0  0  0
  2 19  1  0  0  0  0
  3 29  3  0  0  0  0
  4 30  3  0  0  0  0
  5  6  1  0  0  0  0
  5  8  1  0  0  0  0
  5 17  1  0  0  0  0
  5 18  1  0  0  0  0
  6  7  1  0  0  0  0
  6 11  2  0  0  0  0
  7  9  1  0  0  0  0
  7 12  2  0  0  0  0
  8  9  2  0  0  0  0
  8 15  1  0  0  0  0
  9 16  1  0  0  0  0
 10 11  1  0  0  0  0
 10 13  2  0  0  0  0
 12 13  1  0  0  0  0
 14 20  2  0  0  0  0
 14 21  1  0  0  0  0
 15 22  2  0  0  0  0
 16 23  2  0  0  0  0
 19 27  2  0  0  0  0
 19 28  1  0  0  0  0
 20 24  1  0  0  0  0
 21 25  2  0  0  0  0
 22 23  1  0  0  0  0
 24 26  2  0  0  0  0
 24 29  1  0  0  0  0
 25 26  1  0  0  0  0
 25 30  1  0  0  0  0
 27 31  1  0  0  0  0
 28 32  2  0  0  0  0
 31 33  2  0  0  0  0
 32 33  1  0  0  0  0
M  END
> <PUBCHEM_COMPOUND_ID_TYPE>
0

> <PUBCHEM_TOTAL_CHARGE>
0

> <PUBCHEM_SUBSTANCE_ID>
310944649

> <PUBCHEM_SUBSTANCE_VERSION>
1

> <PUBCHEM_EXT_DATASOURCE_NAME>
4488

> <PUBCHEM_EXT_DATASOURCE_REGID>
SCHEMBL16122727

> <PUBCHEM_SUBSTANCE_COMMENT>
InChI=1S/C29H20FN3/c1-29(2)26-11-7-6-10-24(26)25-13-12-22(16-27(25)29)33(21-8-4-3-5-9-21)23-14-19(17-31)28(30)20(15-23)18-32/h3-16H,1-2H3
InChIKey=PCNWDASXTLPZEL-UHFFFAOYSA-N

> <PUBCHEM_SUBSTANCE_SYNONYM>
SCHEMBL16122727

> <PUBCHEM_XREF_EXT_ID>
SCHEMBL16122727

> <PUBCHEM_EXT_DATASOURCE_URL>
https://www.surechembl.org/

> <PUBCHEM_EXT_SUBSTANCE_URL>
https://www.surechembl.org/chemical/SCHEMBL16122727

> <PUBCHEM_CID_ASSOCIATIONS>
117610879  1

> <PUBCHEM_COORDINATE_TYPE>
1
3

$$$$
