310938130
  -OEChem-07211613022D

 37 40  0     1  0  0  0  0  0999 V2000
   -0.6534    1.5387    0.0000 O   0  5  0  0  0  0  0  0  0  0  0  0
    0.9993    0.4570    0.0000 O   0  0  0  0  0  0  0  0  0  0  0  0
   -1.8659    0.0165    0.0000 O   0  0  0  0  0  0  0  0  0  0  0  0
    2.7400    1.7739    0.0000 O   0  0  0  0  0  0  0  0  0  0  0  0
    1.7839    0.7120    0.0000 O   0  0  0  0  0  0  0  0  0  0  0  0
   -0.1435   -0.0305    0.0000 N   0  0  3  0  0  0  0  0  0  0  0  0
   -0.3984    0.7541    0.0000 N   0  3  3  0  0  0  0  0  0  0  0  0
    1.3423    2.0710    0.0000 N   0  0  0  0  0  0  0  0  0  0  0  0
   -1.8659   -1.4124    0.0000 N   0  0  0  0  0  0  0  0  0  0  0  0
   -2.6864   -2.9276    0.0000 N   0  0  0  0  0  0  0  0  0  0  0  0
   -1.5304   -3.5950    0.0000 N   0  0  0  0  0  0  0  0  0  0  0  0
   -2.8579   -3.7346    0.0000 N   0  0  0  0  0  0  0  0  0  0  0  0
   -2.1435   -4.1471    0.0000 N   0  0  0  0  0  0  0  0  0  0  0  0
    0.6411   -0.2854    0.0000 C   0  0  0  0  0  0  0  0  0  0  0  0
   -0.6284   -0.6979    0.0000 C   0  0  3  0  0  0  0  0  0  0  0  0
    0.3862    1.0091    0.0000 C   0  0  0  0  0  0  0  0  0  0  0  0
    0.6411   -1.1104    0.0000 C   0  0  0  0  0  0  0  0  0  0  0  0
   -0.1435   -1.3654    0.0000 C   0  0  0  0  0  0  0  0  0  0  0  0
    0.5577    1.8160    0.0000 C   0  0  3  0  0  0  0  0  0  0  0  0
   -1.4534   -0.6979    0.0000 C   0  0  0  0  0  0  0  0  0  0  0  0
   -1.1831    0.4992    0.0000 C   0  0  0  0  0  0  0  0  0  0  0  0
    1.3556    0.1271    0.0000 C   0  0  0  0  0  0  0  0  0  0  0  0
    1.3556   -1.5229    0.0000 C   0  0  0  0  0  0  0  0  0  0  0  0
   -0.0554    2.3681    0.0000 C   0  0  0  0  0  0  0  0  0  0  0  0
    2.0701   -0.2854    0.0000 C   0  0  0  0  0  0  0  0  0  0  0  0
    1.9554    1.5189    0.0000 C   0  0  0  0  0  0  0  0  0  0  0  0
    2.0701   -1.1104    0.0000 C   0  0  0  0  0  0  0  0  0  0  0  0
    1.5139    2.8779    0.0000 C   0  0  0  0  0  0  0  0  0  0  0  0
   -1.7962    1.0512    0.0000 C   0  0  0  0  0  0  0  0  0  0  0  0
    0.1161    3.1750    0.0000 C   0  0  0  0  0  0  0  0  0  0  0  0
    0.9008    3.4300    0.0000 C   0  0  0  0  0  0  0  0  0  0  0  0
   -1.4534   -2.1269    0.0000 C   0  0  0  0  0  0  0  0  0  0  0  0
    2.9116    2.5808    0.0000 C   0  0  0  0  0  0  0  0  0  0  0  0
   -1.8659   -2.8414    0.0000 C   0  0  0  0  0  0  0  0  0  0  0  0
    3.0831    3.3878    0.0000 C   0  0  0  0  0  0  0  0  0  0  0  0
    3.7185    2.4093    0.0000 C   0  0  0  0  0  0  0  0  0  0  0  0
    2.1046    2.7524    0.0000 C   0  0  0  0  0  0  0  0  0  0  0  0
  1  7  1  0  0  0  0
  2 16  2  0  0  0  0
  3 20  2  0  0  0  0
  4 26  1  0  0  0  0
  4 33  1  0  0  0  0
  5 26  2  0  0  0  0
  6  7  1  0  0  0  0
  6 14  1  0  0  0  0
  6 15  1  0  0  0  0
  7 16  1  0  0  0  0
  7 21  1  0  0  0  0
  8 19  1  0  0  0  0
  8 26  1  0  0  0  0
  8 28  1  0  0  0  0
  9 20  1  0  0  0  0
  9 32  1  0  0  0  0
 10 12  2  0  0  0  0
 10 34  1  0  0  0  0
 11 13  1  0  0  0  0
 11 34  2  0  0  0  0
 12 13  1  0  0  0  0
 14 17  2  0  0  0  0
 14 22  1  0  0  0  0
 15 18  1  0  0  0  0
 15 20  1  1  0  0  0
 19 16  1  6  0  0  0
 17 18  1  0  0  0  0
 17 23  1  0  0  0  0
 19 24  1  0  0  0  0
 21 29  1  0  0  0  0
 22 25  2  0  0  0  0
 23 27  2  0  0  0  0
 24 30  1  0  0  0  0
 25 27  1  0  0  0  0
 28 31  1  0  0  0  0
 30 31  1  0  0  0  0
 32 34  1  0  0  0  0
 33 35  1  0  0  0  0
 33 36  1  0  0  0  0
 33 37  1  0  0  0  0
M  CHG  2   1  -1   7   1
M  END
> <PUBCHEM_COMPOUND_ID_TYPE>
0

> <PUBCHEM_TOTAL_CHARGE>
0

> <PUBCHEM_SUBSTANCE_ID>
310938130

> <PUBCHEM_SUBSTANCE_VERSION>
1

> <PUBCHEM_EXT_DATASOURCE_NAME>
4488

> <PUBCHEM_EXT_DATASOURCE_REGID>
SCHEMBL16115981

> <PUBCHEM_SUBSTANCE_COMMENT>
InChI=1S/C24H34N8O5/c1-5-32(36,22(34)18-12-8-9-13-30(18)23(35)37-24(2,3)4)31-17-11-7-6-10-16(17)14-19(31)21(33)25-15-20-26-28-29-27-20/h6-7,10-11,18-19H,5,8-9,12-15H2,1-4H3,(H,25,33)(H,26,27,28,29)/t18-,19-,32?/m0/s1
InChIKey=ORMVIMLYRNPCLD-OLEGZKDNSA-N

> <PUBCHEM_SUBSTANCE_SYNONYM>
SCHEMBL16115981

> <PUBCHEM_XREF_EXT_ID>
SCHEMBL16115981

> <PUBCHEM_EXT_DATASOURCE_URL>
https://www.surechembl.org/

> <PUBCHEM_EXT_SUBSTANCE_URL>
https://www.surechembl.org/chemical/SCHEMBL16115981

> <PUBCHEM_CID_ASSOCIATIONS>
117605686  1

> <PUBCHEM_COORDINATE_TYPE>
1
3

> <PUBCHEM_BONDANNOTATIONS>
15  20  5
19  16  6

$$$$
