310945668
  -OEChem-07211613022D

 29 30  0     1  0  0  0  0  0999 V2000
   -1.4486   -0.4308    0.0000 P   0  0  3  0  0  0  0  0  0  0  0  0
    2.2228   -2.3663    0.0000 F   0  0  0  0  0  0  0  0  0  0  0  0
    1.3861   -0.3559    0.0000 O   0  0  0  0  0  0  0  0  0  0  0  0
    0.5495   -2.3663    0.0000 O   0  0  0  0  0  0  0  0  0  0  0  0
   -0.7368   -0.8554    0.0000 O   0  0  0  0  0  0  0  0  0  0  0  0
    3.9211   -0.1311    0.0000 O   0  0  0  0  0  0  0  0  0  0  0  0
   -1.8731    0.2810    0.0000 O   0  0  0  0  0  0  0  0  0  0  0  0
    2.4975   -0.1311    0.0000 N   0  0  0  0  0  0  0  0  0  0  0  0
    3.2218    1.1176    0.0000 N   0  0  0  0  0  0  0  0  0  0  0  0
   -2.1478   -0.8429    0.0000 N   0  0  0  0  0  0  0  0  0  0  0  0
    2.6224    2.3663    0.0000 N   0  0  0  0  0  0  0  0  0  0  0  0
    1.8107   -1.6296    0.0000 C   0  0  3  0  0  0  0  0  0  0  0  0
    2.0604   -0.8429    0.0000 C   0  0  3  0  0  0  0  0  0  0  0  0
    0.9865   -1.6421    0.0000 C   0  0  3  0  0  0  0  0  0  0  0  0
    0.7243   -0.8554    0.0000 C   0  0  3  0  0  0  0  0  0  0  0  0
    3.1843    0.2935    0.0000 C   0  0  0  0  0  0  0  0  0  0  0  0
    0.0000   -0.4308    0.0000 C   0  0  0  0  0  0  0  0  0  0  0  0
    2.6099   -1.4298    0.0000 C   0  0  0  0  0  0  0  0  0  0  0  0
    1.7607    0.2935    0.0000 C   0  0  0  0  0  0  0  0  0  0  0  0
    2.4725    1.5422    0.0000 C   0  0  0  0  0  0  0  0  0  0  0  0
    1.7732    1.1176    0.0000 C   0  0  0  0  0  0  0  0  0  0  0  0
   -1.0240    0.2810    0.0000 C   0  0  0  0  0  0  0  0  0  0  0  0
   -2.8846   -0.4308    0.0000 C   0  0  3  0  0  0  0  0  0  0  0  0
   -2.8721    0.4059    0.0000 C   0  0  0  0  0  0  0  0  0  0  0  0
   -3.5589   -0.8429    0.0000 C   0  0  0  0  0  0  0  0  0  0  0  0
   -0.6618    0.5682    0.0000 C   0  0  0  0  0  0  0  0  0  0  0  0
   -2.1604    0.8179    0.0000 C   0  0  0  0  0  0  0  0  0  0  0  0
   -3.5964    0.8054    0.0000 C   0  0  0  0  0  0  0  0  0  0  0  0
   -3.9211   -1.2176    0.0000 C   0  0  0  0  0  0  0  0  0  0  0  0
  1  5  1  0  0  0  0
  1  7  2  0  0  0  0
  1 10  1  0  0  0  0
  1 22  1  0  0  0  0
 12  2  1  6  0  0  0
 13  3  1  1  0  0  0
  3 15  1  0  0  0  0
 14  4  1  6  0  0  0
  5 17  1  0  0  0  0
  6 16  2  0  0  0  0
  8 13  1  0  0  0  0
  8 16  1  0  0  0  0
  8 19  1  0  0  0  0
  9 16  1  0  0  0  0
  9 20  2  0  0  0  0
 23 10  1  6  0  0  0
 11 20  1  0  0  0  0
 12 13  1  0  0  0  0
 12 14  1  0  0  0  0
 12 18  1  1  0  0  0
 14 15  1  0  0  0  0
 15 17  1  1  0  0  0
 19 21  2  0  0  0  0
 20 21  1  0  0  0  0
 22 26  1  0  0  0  0
 23 24  1  0  0  0  0
 23 25  1  0  0  0  0
 24 27  1  0  0  0  0
 24 28  1  0  0  0  0
 25 29  1  0  0  0  0
M  END
> <PUBCHEM_COMPOUND_ID_TYPE>
0

> <PUBCHEM_TOTAL_CHARGE>
0

> <PUBCHEM_SUBSTANCE_ID>
310945668

> <PUBCHEM_SUBSTANCE_VERSION>
1

> <PUBCHEM_EXT_DATASOURCE_NAME>
4488

> <PUBCHEM_EXT_DATASOURCE_REGID>
SCHEMBL16123769

> <PUBCHEM_SUBSTANCE_COMMENT>
InChI=1S/C18H32FN4O5P/c1-6-12(11(3)4)22-29(26,7-2)27-10-13-15(24)18(5,19)16(28-13)23-9-8-14(20)21-17(23)25/h8-9,11-13,15-16,24H,6-7,10H2,1-5H3,(H,22,26)(H2,20,21,25)/t12-,13-,15-,16-,18-,29?/m1/s1
InChIKey=JRKATEIRBOUFTL-CCOLVDDTSA-N

> <PUBCHEM_SUBSTANCE_SYNONYM>
SCHEMBL16123769

> <PUBCHEM_XREF_EXT_ID>
SCHEMBL16123769

> <PUBCHEM_EXT_DATASOURCE_URL>
https://www.surechembl.org/

> <PUBCHEM_EXT_SUBSTANCE_URL>
https://www.surechembl.org/chemical/SCHEMBL16123769

> <PUBCHEM_CID_ASSOCIATIONS>
117611669  1

> <PUBCHEM_COORDINATE_TYPE>
1
3

> <PUBCHEM_BONDANNOTATIONS>
23  10  6
12  18  5
15  17  5
12  2  6
26  22  3
25  29  3
13  3  5
14  4  6

$$$$
