310949897
  -OEChem-07211613022D

 50 52  0     1  0  0  0  0  0999 V2000
   -1.7023    1.0639    0.0000 P   0  0  3  0  0  0  0  0  0  0  0  0
    1.7759   -0.3846    0.0000 F   0  0  0  0  0  0  0  0  0  0  0  0
    2.6107    0.2292    0.0000 F   0  0  0  0  0  0  0  0  0  0  0  0
    1.3012    1.6286    0.0000 O   0  0  0  0  0  0  0  0  0  0  0  0
    0.3765   -0.2619    0.0000 O   0  0  0  0  0  0  0  0  0  0  0  0
   -0.8675    0.8348    0.0000 O   0  0  0  0  0  0  0  0  0  0  0  0
    2.3652    2.7253    0.0000 O   0  0  0  0  0  0  0  0  0  0  0  0
   -1.8660    0.2782    0.0000 O   0  0  0  0  0  0  0  0  0  0  0  0
    1.6205   -1.0476    0.0000 O   0  0  0  0  0  0  0  0  0  0  0  0
   -1.4731    1.8251    0.0000 O   0  0  0  0  0  0  0  0  0  0  0  0
    1.8332   -3.1263    0.0000 O   0  0  0  0  0  0  0  0  0  0  0  0
   -3.8792    2.9626    0.0000 O   0  0  0  0  0  0  0  0  0  0  0  0
    1.9805   -1.7678    0.0000 O   0  0  0  0  0  0  0  0  0  0  0  0
   -4.2557    1.6368    0.0000 O   0  0  0  0  0  0  0  0  0  0  0  0
    2.8481    1.4322    0.0000 N   0  0  0  0  0  0  0  0  0  0  0  0
    3.8547    2.4634    0.0000 N   0  0  0  0  0  0  0  0  0  0  0  0
   -2.5616    1.2522    0.0000 N   0  0  0  0  0  0  0  0  0  0  0  0
    0.5975   -2.3488    0.0000 N   0  0  0  0  0  0  0  0  0  0  0  0
    5.3524    2.2015    0.0000 N   0  0  0  0  0  0  0  0  0  0  0  0
    1.7596    0.4256    0.0000 C   0  0  0  0  0  0  0  0  0  0  0  0
    2.0297    1.1949    0.0000 C   0  0  3  0  0  0  0  0  0  0  0  0
    0.8920    0.4256    0.0000 C   0  0  3  0  0  0  0  0  0  0  0  0
    0.6138    1.1621    0.0000 C   0  0  3  0  0  0  0  0  0  0  0  0
    3.0445    2.2097    0.0000 C   0  0  0  0  0  0  0  0  0  0  0  0
   -0.2210    1.3831    0.0000 C   0  0  0  0  0  0  0  0  0  0  0  0
    3.5192    0.9248    0.0000 C   0  0  0  0  0  0  0  0  0  0  0  0
    0.7120   -0.9657    0.0000 C   0  0  0  0  0  0  0  0  0  0  0  0
    0.2292   -1.6205    0.0000 C   0  0  3  0  0  0  0  0  0  0  0  0
    4.3294    1.1867    0.0000 C   0  0  0  0  0  0  0  0  0  0  0  0
    4.5176    1.9642    0.0000 C   0  0  0  0  0  0  0  0  0  0  0  0
   -0.6547   -1.5468    0.0000 C   0  0  0  0  0  0  0  0  0  0  0  0
   -2.7990    0.1228    0.0000 C   0  0  0  0  0  0  0  0  0  0  0  0
   -2.7907    2.0215    0.0000 C   0  0  3  0  0  0  0  0  0  0  0  0
    1.4486   -2.4225    0.0000 C   0  0  0  0  0  0  0  0  0  0  0  0
   -3.6337    2.2424    0.0000 C   0  0  0  0  0  0  0  0  0  0  0  0
   -1.1458   -2.2097    0.0000 C   0  0  0  0  0  0  0  0  0  0  0  0
   -0.9984   -0.8430    0.0000 C   0  0  0  0  0  0  0  0  0  0  0  0
   -3.3964    0.6547    0.0000 C   0  0  0  0  0  0  0  0  0  0  0  0
   -3.0118   -0.6711    0.0000 C   0  0  0  0  0  0  0  0  0  0  0  0
   -2.1851    2.5861    0.0000 C   0  0  0  0  0  0  0  0  0  0  0  0
    2.7171   -3.1836    0.0000 C   0  0  0  0  0  0  0  0  0  0  0  0
   -4.2394    0.4501    0.0000 C   0  0  0  0  0  0  0  0  0  0  0  0
   -3.8629   -0.8757    0.0000 C   0  0  0  0  0  0  0  0  0  0  0  0
   -4.4685   -0.3274    0.0000 C   0  0  0  0  0  0  0  0  0  0  0  0
   -4.7386    3.1755    0.0000 C   0  0  0  0  0  0  0  0  0  0  0  0
    3.0690   -3.9120    0.0000 C   0  0  0  0  0  0  0  0  0  0  0  0
    3.2164   -2.5452    0.0000 C   0  0  0  0  0  0  0  0  0  0  0  0
    3.5764   -3.1755    0.0000 C   0  0  0  0  0  0  0  0  0  0  0  0
   -4.9760    3.9120    0.0000 C   0  0  0  0  0  0  0  0  0  0  0  0
   -5.3524    2.5861    0.0000 C   0  0  0  0  0  0  0  0  0  0  0  0
  1  6  1  0  0  0  0
  1  8  1  6  0  0  0
  1 10  2  0  0  0  0
  1 17  1  1  0  0  0
  2 20  1  0  0  0  0
  3 20  1  0  0  0  0
  4 21  1  0  0  0  0
  4 23  1  0  0  0  0
 22  5  1  6  0  0  0
  5 27  1  0  0  0  0
  6 25  1  0  0  0  0
  7 24  2  0  0  0  0
  8 32  1  0  0  0  0
  9 27  2  0  0  0  0
 11 34  1  0  0  0  0
 11 41  1  0  0  0  0
 12 35  1  0  0  0  0
 12 45  1  0  0  0  0
 13 34  2  0  0  0  0
 14 35  2  0  0  0  0
 15 21  1  0  0  0  0
 15 24  1  0  0  0  0
 15 26  1  0  0  0  0
 16 24  1  0  0  0  0
 16 30  2  0  0  0  0
 17 33  1  0  0  0  0
 28 18  1  1  0  0  0
 18 34  1  0  0  0  0
 19 30  1  0  0  0  0
 20 21  1  0  0  0  0
 20 22  1  0  0  0  0
 22 23  1  0  0  0  0
 23 25  1  1  0  0  0
 26 29  2  0  0  0  0
 27 28  1  0  0  0  0
 28 31  1  0  0  0  0
 29 30  1  0  0  0  0
 31 36  1  0  0  0  0
 31 37  1  0  0  0  0
 32 38  2  0  0  0  0
 32 39  1  0  0  0  0
 33 35  1  0  0  0  0
 33 40  1  6  0  0  0
 38 42  1  0  0  0  0
 39 43  2  0  0  0  0
 41 46  1  0  0  0  0
 41 47  1  0  0  0  0
 41 48  1  0  0  0  0
 42 44  2  0  0  0  0
 43 44  1  0  0  0  0
 45 49  1  0  0  0  0
 45 50  1  0  0  0  0
M  END
> <PUBCHEM_COMPOUND_ID_TYPE>
0

> <PUBCHEM_TOTAL_CHARGE>
0

> <PUBCHEM_SUBSTANCE_ID>
310949897

> <PUBCHEM_SUBSTANCE_VERSION>
1

> <PUBCHEM_EXT_DATASOURCE_NAME>
4488

> <PUBCHEM_EXT_DATASOURCE_REGID>
SCHEMBL16128118

> <PUBCHEM_SUBSTANCE_COMMENT>
InChI=1S/C31H44F2N5O11P/c1-17(2)23(36-29(42)48-30(6,7)8)26(40)47-24-21(46-27(31(24,32)33)38-15-14-22(34)35-28(38)41)16-44-50(43,49-20-12-10-9-11-13-20)37-19(5)25(39)45-18(3)4/h9-15,17-19,21,23-24,27H,16H2,1-8H3,(H,36,42)(H,37,43)(H2,34,35,41)/t19-,21+,23-,24+,27?,50+/m0/s1
InChIKey=DJDOXWAXTQGHQH-RBVHKTQDSA-N

> <PUBCHEM_SUBSTANCE_SYNONYM>
SCHEMBL16128118

> <PUBCHEM_XREF_EXT_ID>
SCHEMBL16128118

> <PUBCHEM_EXT_DATASOURCE_URL>
https://www.surechembl.org/

> <PUBCHEM_EXT_SUBSTANCE_URL>
https://www.surechembl.org/chemical/SCHEMBL16128118

> <PUBCHEM_CID_ASSOCIATIONS>
117615182  1

> <PUBCHEM_COORDINATE_TYPE>
1
3

> <PUBCHEM_BONDANNOTATIONS>
1  17  5
1  8  6
28  18  5
23  25  5
33  40  6
22  5  6

$$$$
