310945992
  -OEChem-07211613022D

 46 50  0     1  0  0  0  0  0999 V2000
    3.6289    0.6429    0.0000 O   0  0  0  0  0  0  0  0  0  0  0  0
    2.1774   -1.0245    0.0000 O   0  0  0  0  0  0  0  0  0  0  0  0
    0.0000    1.0548    0.0000 O   0  0  0  0  0  0  0  0  0  0  0  0
   -2.9031    2.2514    0.0000 O   0  0  0  0  0  0  0  0  0  0  0  0
   -2.1774   -1.0245    0.0000 O   0  0  0  0  0  0  0  0  0  0  0  0
   -2.4359   -1.4695    0.0000 O   0  0  0  0  0  0  0  0  0  0  0  0
   -3.1159   -0.3480    0.0000 O   0  0  0  0  0  0  0  0  0  0  0  0
    2.1774   -2.6918    0.0000 O   0  0  0  0  0  0  0  0  0  0  0  0
    0.7258   -0.1810    0.0000 N   0  0  0  0  0  0  0  0  0  0  0  0
   -1.4516    0.2309    0.0000 N   0  0  0  0  0  0  0  0  0  0  0  0
   -3.6289   -0.1810    0.0000 N   0  0  0  0  0  0  0  0  0  0  0  0
    2.9031    0.2309    0.0000 C   0  0  3  0  0  0  0  0  0  0  0  0
    2.1774   -0.1614    0.0000 C   0  0  0  0  0  0  0  0  0  0  0  0
    3.6289   -0.1810    0.0000 C   0  0  0  0  0  0  0  0  0  0  0  0
    1.4516    0.2309    0.0000 C   0  0  3  0  0  0  0  0  0  0  0  0
    2.3147    0.8194    0.0000 C   0  0  0  0  0  0  0  0  0  0  0  0
    1.4712    1.0744    0.0000 C   0  0  0  0  0  0  0  0  0  0  0  0
    0.0000    0.2114    0.0000 C   0  0  0  0  0  0  0  0  0  0  0  0
   -0.7258   -0.1810    0.0000 C   0  0  3  0  0  0  0  0  0  0  0  0
   -2.9031    0.2309    0.0000 C   0  0  3  0  0  0  0  0  0  0  0  0
   -2.1774   -0.1614    0.0000 C   0  0  0  0  0  0  0  0  0  0  0  0
    2.1774    1.4864    0.0000 C   0  0  0  0  0  0  0  0  0  0  0  0
   -2.9031    1.1333    0.0000 C   0  0  0  0  0  0  0  0  0  0  0  0
   -0.7062   -1.0048    0.0000 C   0  0  0  0  0  0  0  0  0  0  0  0
    0.0000   -1.4364    0.0000 C   0  0  0  0  0  0  0  0  0  0  0  0
   -3.4721    1.6433    0.0000 C   0  0  0  0  0  0  0  0  0  0  0  0
   -2.3147    1.6433    0.0000 C   0  0  0  0  0  0  0  0  0  0  0  0
    2.1970    2.3298    0.0000 C   0  0  0  0  0  0  0  0  0  0  0  0
    2.9031    1.0744    0.0000 C   0  0  0  0  0  0  0  0  0  0  0  0
   -3.1040   -1.0638    0.0000 C   0  0  0  0  0  0  0  0  0  0  0  0
    0.0196   -2.2799    0.0000 C   0  0  0  0  0  0  0  0  0  0  0  0
    0.7062   -1.0441    0.0000 C   0  0  0  0  0  0  0  0  0  0  0  0
    2.9228    2.7222    0.0000 C   0  0  0  0  0  0  0  0  0  0  0  0
    3.6289    1.4864    0.0000 C   0  0  0  0  0  0  0  0  0  0  0  0
    1.4516   -2.2603    0.0000 C   0  0  0  0  0  0  0  0  0  0  0  0
    0.7454   -2.6722    0.0000 C   0  0  0  0  0  0  0  0  0  0  0  0
    1.4516   -1.4364    0.0000 C   0  0  0  0  0  0  0  0  0  0  0  0
    3.6289    2.3103    0.0000 C   0  0  0  0  0  0  0  0  0  0  0  0
   -1.6843   -1.0400    0.0000 C   0  0  0  0  0  0  0  0  0  0  0  0
   -0.9923   -1.4933    0.0000 C   0  0  0  0  0  0  0  0  0  0  0  0
   -0.9923   -2.3165    0.0000 C   0  0  0  0  0  0  0  0  0  0  0  0
   -0.2884   -1.0758    0.0000 C   0  0  0  0  0  0  0  0  0  0  0  0
    2.9228   -2.2603    0.0000 C   0  0  0  0  0  0  0  0  0  0  0  0
   -0.2884   -2.7222    0.0000 C   0  0  0  0  0  0  0  0  0  0  0  0
    0.4274   -1.4814    0.0000 C   0  0  0  0  0  0  0  0  0  0  0  0
    0.4274   -2.3046    0.0000 C   0  0  0  0  0  0  0  0  0  0  0  0
  1 12  1  0  0  0  0
  1 14  1  0  0  0  0
  2 13  2  0  0  0  0
  3 18  2  0  0  0  0
  4 26  1  0  0  0  0
  4 27  1  0  0  0  0
  5 21  2  0  0  0  0
  6 30  1  0  0  0  0
  6 39  1  0  0  0  0
  7 30  2  0  0  0  0
  8 35  1  0  0  0  0
  8 43  1  0  0  0  0
 15  9  1  1  0  0  0
  9 18  1  0  0  0  0
 19 10  1  6  0  0  0
 10 21  1  0  0  0  0
 20 11  1  1  0  0  0
 11 30  1  0  0  0  0
 12 13  1  6  0  0  0
 12 14  1  0  0  0  0
 12 16  1  1  0  0  0
 13 15  1  0  0  0  0
 15 17  1  0  0  0  0
 17 22  1  0  0  0  0
 18 19  1  0  0  0  0
 19 24  1  0  0  0  0
 20 21  1  0  0  0  0
 20 23  1  0  0  0  0
 22 28  2  0  0  0  0
 22 29  1  0  0  0  0
 23 26  1  0  0  0  0
 23 27  1  0  0  0  0
 24 25  1  0  0  0  0
 25 31  2  0  0  0  0
 25 32  1  0  0  0  0
 28 33  1  0  0  0  0
 29 34  2  0  0  0  0
 31 36  1  0  0  0  0
 32 37  2  0  0  0  0
 33 38  2  0  0  0  0
 34 38  1  0  0  0  0
 35 36  2  0  0  0  0
 35 37  1  0  0  0  0
 39 40  1  0  0  0  0
 40 41  2  0  0  0  0
 40 42  1  0  0  0  0
 41 44  1  0  0  0  0
 42 45  2  0  0  0  0
 44 46  2  0  0  0  0
 45 46  1  0  0  0  0
M  END
> <PUBCHEM_COMPOUND_ID_TYPE>
0

> <PUBCHEM_TOTAL_CHARGE>
0

> <PUBCHEM_SUBSTANCE_ID>
310945992

> <PUBCHEM_SUBSTANCE_VERSION>
1

> <PUBCHEM_EXT_DATASOURCE_NAME>
4488

> <PUBCHEM_EXT_DATASOURCE_REGID>
SCHEMBL16124098

> <PUBCHEM_SUBSTANCE_COMMENT>
InChI=1S/C35H39N3O8/c1-35(22-46-35)31(39)28(17-23-9-5-3-6-10-23)36-32(40)29(18-24-13-15-27(43-2)16-14-24)37-33(41)30(26-20-44-21-26)38-34(42)45-19-25-11-7-4-8-12-25/h3-16,26,28-30H,17-22H2,1-2H3,(H,36,40)(H,37,41)(H,38,42)/t28-,29-,30-,35+/m0/s1
InChIKey=NLPGHZFPWIXZFJ-UAFVBSIISA-N

> <PUBCHEM_SUBSTANCE_SYNONYM>
SCHEMBL16124098

> <PUBCHEM_XREF_EXT_ID>
SCHEMBL16124098

> <PUBCHEM_EXT_DATASOURCE_URL>
https://www.surechembl.org/

> <PUBCHEM_EXT_SUBSTANCE_URL>
https://www.surechembl.org/chemical/SCHEMBL16124098

> <PUBCHEM_CID_ASSOCIATIONS>
117611963  1

> <PUBCHEM_COORDINATE_TYPE>
1
3

> <PUBCHEM_BONDANNOTATIONS>
19  10  6
20  11  5
12  13  6
12  16  5
15  9  5

$$$$
