310941362
  -OEChem-07211613022D

 32 33  0     1  0  0  0  0  0999 V2000
    2.5527    0.8122    0.0000 O   0  0  0  0  0  0  0  0  0  0  0  0
   -0.3336   -0.0145    0.0000 O   0  0  0  0  0  0  0  0  0  0  0  0
    1.8275    2.0741    0.0000 O   0  0  0  0  0  0  0  0  0  0  0  0
    3.9886   -1.6825    0.0000 O   0  0  0  0  0  0  0  0  0  0  0  0
   -2.4947    2.0741    0.0000 O   0  0  0  0  0  0  0  0  0  0  0  0
   -5.3810    2.0741    0.0000 O   0  0  0  0  0  0  0  0  0  0  0  0
    0.3916    1.2328    0.0000 N   0  0  0  0  0  0  0  0  0  0  0  0
   -1.7695    0.8268    0.0000 N   0  0  0  0  0  0  0  0  0  0  0  0
   -3.9306    1.2328    0.0000 N   0  0  0  0  0  0  0  0  0  0  0  0
    1.0878    0.8412    0.0000 C   0  0  3  0  0  0  0  0  0  0  0  0
   -0.3481    0.8557    0.0000 C   0  0  0  0  0  0  0  0  0  0  0  0
    1.8275   -0.4206    0.0000 C   0  0  0  0  0  0  0  0  0  0  0  0
    1.0878   -0.0290    0.0000 C   0  0  0  0  0  0  0  0  0  0  0  0
    1.8130    1.2328    0.0000 C   0  0  0  0  0  0  0  0  0  0  0  0
   -1.0733    1.2473    0.0000 C   0  0  3  0  0  0  0  0  0  0  0  0
   -2.5237    1.2328    0.0000 C   0  0  0  0  0  0  0  0  0  0  0  0
    2.5382   -0.0290    0.0000 C   0  0  0  0  0  0  0  0  0  0  0  0
    1.8275   -1.2473    0.0000 C   0  0  0  0  0  0  0  0  0  0  0  0
    3.2489   -1.2473    0.0000 C   0  0  0  0  0  0  0  0  0  0  0  0
    3.2489   -0.4206    0.0000 C   0  0  0  0  0  0  0  0  0  0  0  0
    2.5527   -1.6680    0.0000 C   0  0  0  0  0  0  0  0  0  0  0  0
   -3.2345    0.8268    0.0000 C   0  0  0  0  0  0  0  0  0  0  0  0
   -1.0588    2.0741    0.0000 C   0  0  0  0  0  0  0  0  0  0  0  0
   -3.9451    2.0741    0.0000 C   0  0  0  0  0  0  0  0  0  0  0  0
   -4.6413    0.8412    0.0000 C   0  0  0  0  0  0  0  0  0  0  0  0
    3.2489    1.2038    0.0000 C   0  0  0  0  0  0  0  0  0  0  0  0
   -4.6703    2.4947    0.0000 C   0  0  0  0  0  0  0  0  0  0  0  0
   -5.3810    1.2473    0.0000 C   0  0  0  0  0  0  0  0  0  0  0  0
    3.9596    0.7977    0.0000 C   0  0  0  0  0  0  0  0  0  0  0  0
    3.9886   -2.4947    0.0000 C   0  0  0  0  0  0  0  0  0  0  0  0
    4.6704    1.2038    0.0000 C   0  0  0  0  0  0  0  0  0  0  0  0
    5.3810    0.7977    0.0000 C   0  0  0  0  0  0  0  0  0  0  0  0
  1 14  1  0  0  0  0
  1 26  1  0  0  0  0
  2 11  2  0  0  0  0
  3 14  2  0  0  0  0
  4 19  1  0  0  0  0
  4 30  1  0  0  0  0
  5 16  2  0  0  0  0
  6 27  1  0  0  0  0
  6 28  1  0  0  0  0
 10  7  1  6  0  0  0
  7 11  1  0  0  0  0
  8 15  1  0  0  0  0
  8 16  1  0  0  0  0
  9 22  1  0  0  0  0
  9 24  1  0  0  0  0
  9 25  1  0  0  0  0
 10 13  1  0  0  0  0
 10 14  1  0  0  0  0
 11 15  1  0  0  0  0
 12 13  1  0  0  0  0
 12 17  2  0  0  0  0
 12 18  1  0  0  0  0
 15 23  1  1  0  0  0
 16 22  1  0  0  0  0
 17 20  1  0  0  0  0
 18 21  2  0  0  0  0
 19 20  2  0  0  0  0
 19 21  1  0  0  0  0
 24 27  1  0  0  0  0
 25 28  1  0  0  0  0
 26 29  1  0  0  0  0
 29 31  1  0  0  0  0
 31 32  1  0  0  0  0
M  END
> <PUBCHEM_COMPOUND_ID_TYPE>
0

> <PUBCHEM_TOTAL_CHARGE>
0

> <PUBCHEM_SUBSTANCE_ID>
310941362

> <PUBCHEM_SUBSTANCE_VERSION>
1

> <PUBCHEM_EXT_DATASOURCE_NAME>
4488

> <PUBCHEM_EXT_DATASOURCE_REGID>
SCHEMBL16119322

> <PUBCHEM_SUBSTANCE_COMMENT>
InChI=1S/C23H35N3O6/c1-4-5-12-32-23(29)20(15-18-6-8-19(30-3)9-7-18)25-22(28)17(2)24-21(27)16-26-10-13-31-14-11-26/h6-9,17,20H,4-5,10-16H2,1-3H3,(H,24,27)(H,25,28)/t17-,20-/m0/s1
InChIKey=UCILQGUETNFYNP-PXNSSMCTSA-N

> <PUBCHEM_SUBSTANCE_SYNONYM>
SCHEMBL16119322

> <PUBCHEM_XREF_EXT_ID>
SCHEMBL16119322

> <PUBCHEM_EXT_DATASOURCE_URL>
https://www.surechembl.org/

> <PUBCHEM_EXT_SUBSTANCE_URL>
https://www.surechembl.org/chemical/SCHEMBL16119322

> <PUBCHEM_CID_ASSOCIATIONS>
117608205  1

> <PUBCHEM_COORDINATE_TYPE>
1
3

> <PUBCHEM_BONDANNOTATIONS>
15  23  5
10  7  6

$$$$
