310946898
  -OEChem-07211613022D

 26 29  0     0  0  0  0  0  0999 V2000
   -3.7917   -4.8589    0.0000 O   0  0  0  0  0  0  0  0  0  0  0  0
   -0.1771   -1.0762    0.0000 N   0  0  0  0  0  0  0  0  0  0  0  0
   -0.6620   -1.7436    0.0000 N   0  0  0  0  0  0  0  0  0  0  0  0
    2.0365   -2.1561    0.0000 N   0  0  0  0  0  0  0  0  0  0  0  0
    0.1928   -3.7913    0.0000 N   0  0  0  0  0  0  0  0  0  0  0  0
    1.3220   -3.3936    0.0000 N   0  0  0  0  0  0  0  0  0  0  0  0
   -2.1979   -4.4319    0.0000 N   0  0  0  0  0  0  0  0  0  0  0  0
   -0.8176   -4.8017    0.0000 N   0  0  0  0  0  0  0  0  0  0  0  0
    0.6076   -2.1561    0.0000 C   0  0  0  0  0  0  0  0  0  0  0  0
   -0.1771   -2.4110    0.0000 C   0  0  0  0  0  0  0  0  0  0  0  0
    0.6076   -1.3311    0.0000 C   0  0  0  0  0  0  0  0  0  0  0  0
   -0.3906   -3.2079    0.0000 C   0  0  0  0  0  0  0  0  0  0  0  0
    1.3220   -2.5686    0.0000 C   0  0  0  0  0  0  0  0  0  0  0  0
    1.3220   -0.9186    0.0000 C   0  0  0  0  0  0  0  0  0  0  0  0
   -1.1875   -3.4214    0.0000 C   0  0  0  0  0  0  0  0  0  0  0  0
   -1.4010   -4.2183    0.0000 C   0  0  0  0  0  0  0  0  0  0  0  0
    2.0365   -1.3311    0.0000 C   0  0  0  0  0  0  0  0  0  0  0  0
   -0.5896   -0.3617    0.0000 C   0  0  0  0  0  0  0  0  0  0  0  0
   -0.0207   -4.5882    0.0000 C   0  0  0  0  0  0  0  0  0  0  0  0
    2.0365   -3.8061    0.0000 C   0  0  0  0  0  0  0  0  0  0  0  0
   -2.7812   -3.8485    0.0000 C   0  0  0  0  0  0  0  0  0  0  0  0
   -2.4114   -5.2288    0.0000 C   0  0  0  0  0  0  0  0  0  0  0  0
   -3.5781   -4.0620    0.0000 C   0  0  0  0  0  0  0  0  0  0  0  0
   -3.2083   -5.4423    0.0000 C   0  0  0  0  0  0  0  0  0  0  0  0
    2.0365   -4.6311    0.0000 C   0  0  0  0  0  0  0  0  0  0  0  0
    2.7510   -3.3936    0.0000 C   0  0  0  0  0  0  0  0  0  0  0  0
  1 23  1  0  0  0  0
  1 24  1  0  0  0  0
  2  3  1  0  0  0  0
  2 11  1  0  0  0  0
  2 18  1  0  0  0  0
  3 10  2  0  0  0  0
  4 13  2  0  0  0  0
  4 17  1  0  0  0  0
  5 12  1  0  0  0  0
  5 19  2  0  0  0  0
  6 13  1  0  0  0  0
  6 20  1  0  0  0  0
  7 16  1  0  0  0  0
  7 21  1  0  0  0  0
  7 22  1  0  0  0  0
  8 16  2  0  0  0  0
  8 19  1  0  0  0  0
  9 10  1  0  0  0  0
  9 11  2  0  0  0  0
  9 13  1  0  0  0  0
 10 12  1  0  0  0  0
 11 14  1  0  0  0  0
 12 15  2  0  0  0  0
 14 17  2  0  0  0  0
 15 16  1  0  0  0  0
 20 25  1  0  0  0  0
 20 26  1  0  0  0  0
 21 23  1  0  0  0  0
 22 24  1  0  0  0  0
M  END
> <PUBCHEM_COMPOUND_ID_TYPE>
0

> <PUBCHEM_TOTAL_CHARGE>
0

> <PUBCHEM_SUBSTANCE_ID>
310946898

> <PUBCHEM_SUBSTANCE_VERSION>
1

> <PUBCHEM_EXT_DATASOURCE_NAME>
4488

> <PUBCHEM_EXT_DATASOURCE_REGID>
SCHEMBL16125022

> <PUBCHEM_SUBSTANCE_COMMENT>
InChI=1S/C18H23N7O/c1-12(2)22-18-16-14(4-5-19-18)24(3)23-17(16)13-10-15(21-11-20-13)25-6-8-26-9-7-25/h4-5,10-12H,6-9H2,1-3H3,(H,19,22)
InChIKey=SYUXOVROSBQZPQ-UHFFFAOYSA-N

> <PUBCHEM_SUBSTANCE_SYNONYM>
SCHEMBL16125022

> <PUBCHEM_XREF_EXT_ID>
SCHEMBL16125022

> <PUBCHEM_EXT_DATASOURCE_URL>
https://www.surechembl.org/

> <PUBCHEM_EXT_SUBSTANCE_URL>
https://www.surechembl.org/chemical/SCHEMBL16125022

> <PUBCHEM_CID_ASSOCIATIONS>
117612756  1

> <PUBCHEM_COORDINATE_TYPE>
1
3

$$$$
