310938906
  -OEChem-07211613022D

 12 12  0     0  0  0  0  0  0999 V2000
   -1.7997   -0.4124    0.0000 N   0  0  0  0  0  0  0  0  0  0  0  0
   -1.0873    0.0125    0.0000 C   0  0  0  0  0  0  0  0  0  0  0  0
   -1.0748    0.8374    0.0000 C   0  0  0  0  0  0  0  0  0  0  0  0
    0.3624    0.8374    0.0000 C   0  0  0  0  0  0  0  0  0  0  0  0
   -0.3624    1.2498    0.0000 C   0  0  0  0  0  0  0  0  0  0  0  0
   -0.3500   -0.3999    0.0000 C   0  0  0  0  0  0  0  0  0  0  0  0
    0.3500    0.0000    0.0000 C   0  0  0  0  0  0  0  0  0  0  0  0
    1.0748    1.2498    0.0000 C   0  0  0  0  0  0  0  0  0  0  0  0
   -1.7123    1.1873    0.0000 C   0  0  0  0  0  0  0  0  0  0  0  0
   -1.8122   -1.2498    0.0000 C   0  0  0  0  0  0  0  0  0  0  0  0
   -2.5246    0.0000    0.0000 C   0  0  0  0  0  0  0  0  0  0  0  0
    2.5246    0.4250    0.0000 C   0  0  0  0  0  0  0  0  0  0  0  0
  1  2  1  0  0  0  0
  1 10  1  0  0  0  0
  1 11  1  0  0  0  0
  2  3  2  0  0  0  0
  2  6  1  0  0  0  0
  3  5  1  0  0  0  0
  3  9  1  0  0  0  0
  4  5  2  0  0  0  0
  4  7  1  0  0  0  0
  4  8  1  0  0  0  0
  6  7  2  0  0  0  0
  8 12  1  0  0  0  0
M  END
> <PUBCHEM_COMPOUND_ID_TYPE>
0

> <PUBCHEM_TOTAL_CHARGE>
0

> <PUBCHEM_SUBSTANCE_ID>
310938906

> <PUBCHEM_SUBSTANCE_VERSION>
1

> <PUBCHEM_EXT_DATASOURCE_NAME>
4488

> <PUBCHEM_EXT_DATASOURCE_REGID>
SCHEMBL16116825

> <PUBCHEM_SUBSTANCE_COMMENT>
InChI=1S/C11H17N/c1-5-10-6-7-11(12(3)4)9(2)8-10/h6-8H,5H2,1-4H3
InChIKey=RGVPEWQRDLANSZ-UHFFFAOYSA-N

> <PUBCHEM_SUBSTANCE_SYNONYM>
SCHEMBL16116825

> <PUBCHEM_XREF_EXT_ID>
SCHEMBL16116825

> <PUBCHEM_EXT_DATASOURCE_URL>
https://www.surechembl.org/

> <PUBCHEM_EXT_SUBSTANCE_URL>
https://www.surechembl.org/chemical/SCHEMBL16116825

> <PUBCHEM_CID_ASSOCIATIONS>
117606303  1

> <PUBCHEM_COORDINATE_TYPE>
1
3

$$$$
