310939835
  -OEChem-07211613022D

 31 33  0     0  0  0  0  0  0999 V2000
    1.0717    3.0385    0.0000 Cl  0  0  0  0  0  0  0  0  0  0  0  0
    4.6441    3.4510    0.0000 Cl  0  0  0  0  0  0  0  0  0  0  0  0
   -3.2151   -2.7365    0.0000 S   0  0  0  0  0  0  0  0  0  0  0  0
   -0.3572    0.5635    0.0000 O   0  0  0  0  0  0  0  0  0  0  0  0
    1.0717   -1.9115    0.0000 O   0  0  0  0  0  0  0  0  0  0  0  0
   -2.8026   -2.0220    0.0000 O   0  0  0  0  0  0  0  0  0  0  0  0
   -3.6276   -3.4510    0.0000 O   0  0  0  0  0  0  0  0  0  0  0  0
    1.0717   -0.2615    0.0000 N   0  0  0  0  0  0  0  0  0  0  0  0
   -0.3572   -1.9115    0.0000 N   0  0  0  0  0  0  0  0  0  0  0  0
   -2.5006   -3.1490    0.0000 N   0  0  0  0  0  0  0  0  0  0  0  0
    1.7862    1.8010    0.0000 C   0  0  0  0  0  0  0  0  0  0  0  0
    1.0717    0.5635    0.0000 C   0  0  0  0  0  0  0  0  0  0  0  0
    1.0717    2.2135    0.0000 C   0  0  0  0  0  0  0  0  0  0  0  0
    2.5006    2.2135    0.0000 C   0  0  0  0  0  0  0  0  0  0  0  0
    1.7862    0.9760    0.0000 C   0  0  0  0  0  0  0  0  0  0  0  0
    0.3572    0.9760    0.0000 C   0  0  0  0  0  0  0  0  0  0  0  0
    0.3572    1.8010    0.0000 C   0  0  0  0  0  0  0  0  0  0  0  0
    0.3572   -1.4990    0.0000 C   0  0  0  0  0  0  0  0  0  0  0  0
    3.2151    1.8010    0.0000 C   0  0  0  0  0  0  0  0  0  0  0  0
    2.5006    3.0385    0.0000 C   0  0  0  0  0  0  0  0  0  0  0  0
   -1.7862   -2.7365    0.0000 C   0  0  0  0  0  0  0  0  0  0  0  0
    0.3572   -0.6740    0.0000 C   0  0  0  0  0  0  0  0  0  0  0  0
   -1.0717   -1.4990    0.0000 C   0  0  0  0  0  0  0  0  0  0  0  0
   -0.3572   -2.7365    0.0000 C   0  0  0  0  0  0  0  0  0  0  0  0
   -1.7862   -1.9115    0.0000 C   0  0  0  0  0  0  0  0  0  0  0  0
   -1.0717   -3.1490    0.0000 C   0  0  0  0  0  0  0  0  0  0  0  0
    3.9296    3.0385    0.0000 C   0  0  0  0  0  0  0  0  0  0  0  0
    3.9296    2.2135    0.0000 C   0  0  0  0  0  0  0  0  0  0  0  0
    3.2151    3.4510    0.0000 C   0  0  0  0  0  0  0  0  0  0  0  0
   -3.9296   -2.3240    0.0000 C   0  0  0  0  0  0  0  0  0  0  0  0
   -4.6441   -2.7365    0.0000 C   0  0  0  0  0  0  0  0  0  0  0  0
  1 13  1  0  0  0  0
  2 27  1  0  0  0  0
  3  6  2  0  0  0  0
  3  7  2  0  0  0  0
  3 10  1  0  0  0  0
  3 30  1  0  0  0  0
  4 16  1  0  0  0  0
  5 18  2  0  0  0  0
  8 12  1  0  0  0  0
  8 22  1  0  0  0  0
  9 18  1  0  0  0  0
  9 23  1  0  0  0  0
  9 24  1  0  0  0  0
 10 21  1  0  0  0  0
 11 13  2  0  0  0  0
 11 14  1  0  0  0  0
 11 15  1  0  0  0  0
 12 15  2  0  0  0  0
 12 16  1  0  0  0  0
 13 17  1  0  0  0  0
 14 19  2  0  0  0  0
 14 20  1  0  0  0  0
 16 17  2  0  0  0  0
 18 22  1  0  0  0  0
 19 28  1  0  0  0  0
 20 29  2  0  0  0  0
 21 25  1  0  0  0  0
 21 26  1  0  0  0  0
 23 25  1  0  0  0  0
 24 26  1  0  0  0  0
 27 28  2  0  0  0  0
 27 29  1  0  0  0  0
 30 31  2  0  0  0  0
M  END
> <PUBCHEM_COMPOUND_ID_TYPE>
0

> <PUBCHEM_TOTAL_CHARGE>
0

> <PUBCHEM_SUBSTANCE_ID>
310939835

> <PUBCHEM_SUBSTANCE_VERSION>
1

> <PUBCHEM_EXT_DATASOURCE_NAME>
4488

> <PUBCHEM_EXT_DATASOURCE_REGID>
SCHEMBL16117765

> <PUBCHEM_SUBSTANCE_COMMENT>
InChI=1S/C21H23Cl2N3O4S/c1-2-31(29,30)25-16-7-9-26(10-8-16)21(28)13-24-19-11-17(18(23)12-20(19)27)14-3-5-15(22)6-4-14/h2-6,11-12,16,24-25,27H,1,7-10,13H2
InChIKey=AAOWKGPSMZOJRU-UHFFFAOYSA-N

> <PUBCHEM_SUBSTANCE_SYNONYM>
SCHEMBL16117765

> <PUBCHEM_XREF_EXT_ID>
SCHEMBL16117765

> <PUBCHEM_EXT_DATASOURCE_URL>
https://www.surechembl.org/

> <PUBCHEM_EXT_SUBSTANCE_URL>
https://www.surechembl.org/chemical/SCHEMBL16117765

> <PUBCHEM_CID_ASSOCIATIONS>
117607052  1

> <PUBCHEM_COORDINATE_TYPE>
1
3

$$$$
