310943133
  -OEChem-07211613022D

 38 43  0     0  0  0  0  0  0999 V2000
   -3.6181   -0.2120    0.0000 O   0  0  0  0  0  0  0  0  0  0  0  0
   -5.0362    2.2732    0.0000 O   0  0  0  0  0  0  0  0  0  0  0  0
    0.6652   -0.2120    0.0000 O   0  0  0  0  0  0  0  0  0  0  0  0
   -3.6181   -2.6971    0.0000 O   0  0  0  0  0  0  0  0  0  0  0  0
   -3.6181    1.4546    0.0000 N   0  0  0  0  0  0  0  0  0  0  0  0
   -2.1855   -0.1973    0.0000 N   0  0  0  0  0  0  0  0  0  0  0  0
    1.3815    1.0453    0.0000 N   0  0  0  0  0  0  0  0  0  0  0  0
    3.5304   -1.0306    0.0000 N   0  0  0  0  0  0  0  0  0  0  0  0
    2.8141   -1.4400    0.0000 N   0  0  0  0  0  0  0  0  0  0  0  0
   -2.9018    1.0453    0.0000 C   0  0  0  0  0  0  0  0  0  0  0  0
   -1.4692    1.0453    0.0000 C   0  0  0  0  0  0  0  0  0  0  0  0
   -0.7675    1.4692    0.0000 C   0  0  0  0  0  0  0  0  0  0  0  0
   -2.9165    0.2120    0.0000 C   0  0  0  0  0  0  0  0  0  0  0  0
   -2.2002    1.4546    0.0000 C   0  0  0  0  0  0  0  0  0  0  0  0
   -0.7529    2.2879    0.0000 C   0  0  0  0  0  0  0  0  0  0  0  0
   -1.4838    0.2120    0.0000 C   0  0  0  0  0  0  0  0  0  0  0  0
   -0.0511    1.0453    0.0000 C   0  0  0  0  0  0  0  0  0  0  0  0
    0.6652    1.4692    0.0000 C   0  0  0  0  0  0  0  0  0  0  0  0
    3.5304   -0.1973    0.0000 C   0  0  0  0  0  0  0  0  0  0  0  0
    4.2468    0.2266    0.0000 C   0  0  0  0  0  0  0  0  0  0  0  0
    2.0978   -0.1973    0.0000 C   0  0  0  0  0  0  0  0  0  0  0  0
    1.3961    0.2266    0.0000 C   0  0  0  0  0  0  0  0  0  0  0  0
   -0.0511    2.6826    0.0000 C   0  0  0  0  0  0  0  0  0  0  0  0
    0.6652    2.2732    0.0000 C   0  0  0  0  0  0  0  0  0  0  0  0
    2.7995    0.2120    0.0000 C   0  0  0  0  0  0  0  0  0  0  0  0
   -3.6181    2.2732    0.0000 C   0  0  0  0  0  0  0  0  0  0  0  0
   -4.3199    1.0453    0.0000 C   0  0  0  0  0  0  0  0  0  0  0  0
   -3.6328   -1.0306    0.0000 C   0  0  0  0  0  0  0  0  0  0  0  0
    4.6415    0.8991    0.0000 C   0  0  0  0  0  0  0  0  0  0  0  0
    5.0362    0.2266    0.0000 C   0  0  0  0  0  0  0  0  0  0  0  0
    2.0978   -1.0160    0.0000 C   0  0  0  0  0  0  0  0  0  0  0  0
   -1.4838    2.6826    0.0000 C   0  0  0  0  0  0  0  0  0  0  0  0
   -4.3491    2.6971    0.0000 C   0  0  0  0  0  0  0  0  0  0  0  0
   -5.0362    1.4546    0.0000 C   0  0  0  0  0  0  0  0  0  0  0  0
   -2.9018   -1.4400    0.0000 C   0  0  0  0  0  0  0  0  0  0  0  0
   -4.3199   -1.4400    0.0000 C   0  0  0  0  0  0  0  0  0  0  0  0
   -2.9165   -2.2879    0.0000 C   0  0  0  0  0  0  0  0  0  0  0  0
   -4.3345   -2.2732    0.0000 C   0  0  0  0  0  0  0  0  0  0  0  0
  1 13  1  0  0  0  0
  1 28  1  0  0  0  0
  2 33  1  0  0  0  0
  2 34  1  0  0  0  0
  3 22  2  0  0  0  0
  4 37  1  0  0  0  0
  4 38  1  0  0  0  0
  5 10  1  0  0  0  0
  5 26  1  0  0  0  0
  5 27  1  0  0  0  0
  6 13  2  0  0  0  0
  6 16  1  0  0  0  0
  7 18  1  0  0  0  0
  7 22  1  0  0  0  0
  8  9  1  0  0  0  0
  8 19  1  0  0  0  0
  9 31  1  0  0  0  0
 10 13  1  0  0  0  0
 10 14  2  0  0  0  0
 11 12  1  0  0  0  0
 11 14  1  0  0  0  0
 11 16  2  0  0  0  0
 12 15  2  0  0  0  0
 12 17  1  0  0  0  0
 15 23  1  0  0  0  0
 15 32  1  0  0  0  0
 17 18  2  0  0  0  0
 18 24  1  0  0  0  0
 19 20  1  0  0  0  0
 19 25  2  0  0  0  0
 20 29  1  0  0  0  0
 20 30  1  0  0  0  0
 21 22  1  0  0  0  0
 21 25  1  0  0  0  0
 21 31  2  0  0  0  0
 23 24  2  0  0  0  0
 26 33  1  0  0  0  0
 27 34  1  0  0  0  0
 28 35  1  0  0  0  0
 28 36  1  0  0  0  0
 29 30  1  0  0  0  0
 35 37  1  0  0  0  0
 36 38  1  0  0  0  0
M  END
> <PUBCHEM_COMPOUND_ID_TYPE>
0

> <PUBCHEM_TOTAL_CHARGE>
0

> <PUBCHEM_SUBSTANCE_ID>
310943133

> <PUBCHEM_SUBSTANCE_VERSION>
1

> <PUBCHEM_EXT_DATASOURCE_NAME>
4488

> <PUBCHEM_EXT_DATASOURCE_REGID>
SCHEMBL16121193

> <PUBCHEM_SUBSTANCE_COMMENT>
InChI=1S/C29H35N5O4/c1-19-2-5-23(32-28(35)22-14-26(20-3-4-20)33-31-18-22)16-25(19)21-15-27(34-8-12-37-13-9-34)29(30-17-21)38-24-6-10-36-11-7-24/h2,5,14-18,20,24,31,33H,3-4,6-13H2,1H3,(H,32,35)
InChIKey=GUGLUIRIQBTJTH-UHFFFAOYSA-N

> <PUBCHEM_SUBSTANCE_SYNONYM>
SCHEMBL16121193

> <PUBCHEM_XREF_EXT_ID>
SCHEMBL16121193

> <PUBCHEM_EXT_DATASOURCE_URL>
https://www.surechembl.org/

> <PUBCHEM_EXT_SUBSTANCE_URL>
https://www.surechembl.org/chemical/SCHEMBL16121193

> <PUBCHEM_CID_ASSOCIATIONS>
117609563  1

> <PUBCHEM_COORDINATE_TYPE>
1
3

$$$$
