310948087
  -OEChem-07211613022D

 43 48  0     0  0  0  0  0  0999 V2000
   -2.0536   -3.4076    0.0000 S   0  0  0  0  0  0  0  0  0  0  0  0
    0.5829   -3.5332    0.0000 F   0  0  0  0  0  0  0  0  0  0  0  0
    1.6410   -3.8740    0.0000 F   0  0  0  0  0  0  0  0  0  0  0  0
   -0.3677    3.8919    0.0000 F   0  0  0  0  0  0  0  0  0  0  0  0
    0.7264    4.1071    0.0000 F   0  0  0  0  0  0  0  0  0  0  0  0
    0.9236    3.0131    0.0000 F   0  0  0  0  0  0  0  0  0  0  0  0
    0.9057    1.5244    0.0000 O   0  0  0  0  0  0  0  0  0  0  0  0
    0.8160   -2.4571    0.0000 O   0  0  0  0  0  0  0  0  0  0  0  0
    2.0894   -2.8696    0.0000 O   0  0  0  0  0  0  0  0  0  0  0  0
   -2.4302   -2.7441    0.0000 O   0  0  0  0  0  0  0  0  0  0  0  0
   -1.6590   -4.1071    0.0000 O   0  0  0  0  0  0  0  0  0  0  0  0
   -0.6187    1.5244    0.0000 N   0  0  0  0  0  0  0  0  0  0  0  0
    2.1253    0.9864    0.0000 N   0  0  0  0  0  0  0  0  0  0  0  0
    0.0448    2.0088    0.0000 N   0  0  0  0  0  0  0  0  0  0  0  0
    0.1166    0.3049    0.0000 C   0  0  0  0  0  0  0  0  0  0  0  0
    0.8160    0.7174    0.0000 C   0  0  0  0  0  0  0  0  0  0  0  0
   -0.6008    0.7174    0.0000 C   0  0  0  0  0  0  0  0  0  0  0  0
    1.5873    0.3587    0.0000 C   0  0  0  0  0  0  0  0  0  0  0  0
    1.7487   -0.4304    0.0000 C   0  0  0  0  0  0  0  0  0  0  0  0
    1.3183   -1.7576    0.0000 C   0  0  0  0  0  0  0  0  0  0  0  0
    0.0986   -0.5201    0.0000 C   0  0  0  0  0  0  0  0  0  0  0  0
   -0.6008   -0.9326    0.0000 C   0  0  0  0  0  0  0  0  0  0  0  0
    2.0894   -2.0267    0.0000 C   0  0  0  0  0  0  0  0  0  0  0  0
   -1.2824    2.0267    0.0000 C   0  0  0  0  0  0  0  0  0  0  0  0
    1.1568   -0.9864    0.0000 C   0  0  0  0  0  0  0  0  0  0  0  0
   -0.1883    2.7799    0.0000 C   0  0  0  0  0  0  0  0  0  0  0  0
    1.6948    1.6859    0.0000 C   0  0  0  0  0  0  0  0  0  0  0  0
   -1.3003    0.3049    0.0000 C   0  0  0  0  0  0  0  0  0  0  0  0
    1.3003   -3.1207    0.0000 C   0  0  0  0  0  0  0  0  0  0  0  0
    2.5378   -0.6815    0.0000 C   0  0  0  0  0  0  0  0  0  0  0  0
   -1.0134    2.7979    0.0000 C   0  0  0  0  0  0  0  0  0  0  0  0
   -1.3003   -0.5201    0.0000 C   0  0  0  0  0  0  0  0  0  0  0  0
   -0.6187   -1.7576    0.0000 C   0  0  0  0  0  0  0  0  0  0  0  0
    2.7172   -1.4886    0.0000 C   0  0  0  0  0  0  0  0  0  0  0  0
    0.2780    3.4614    0.0000 C   0  0  0  0  0  0  0  0  0  0  0  0
   -1.3003   -2.1701    0.0000 C   0  0  0  0  0  0  0  0  0  0  0  0
   -1.3362   -2.9951    0.0000 C   0  0  0  0  0  0  0  0  0  0  0  0
    0.0986   -2.1701    0.0000 C   0  0  0  0  0  0  0  0  0  0  0  0
   -2.0715    1.7397    0.0000 C   0  0  0  0  0  0  0  0  0  0  0  0
    2.0536    2.4571    0.0000 C   0  0  0  0  0  0  0  0  0  0  0  0
   -0.6008   -3.3897    0.0000 C   0  0  0  0  0  0  0  0  0  0  0  0
    0.0986   -2.9951    0.0000 C   0  0  0  0  0  0  0  0  0  0  0  0
   -2.7172   -3.8022    0.0000 C   0  0  0  0  0  0  0  0  0  0  0  0
  1 10  2  0  0  0  0
  1 11  2  0  0  0  0
  1 37  1  0  0  0  0
  1 43  1  0  0  0  0
  2 29  1  0  0  0  0
  3 29  1  0  0  0  0
  4 35  1  0  0  0  0
  5 35  1  0  0  0  0
  6 35  1  0  0  0  0
  7 16  1  0  0  0  0
  7 27  1  0  0  0  0
  8 20  1  0  0  0  0
  8 29  1  0  0  0  0
  9 23  1  0  0  0  0
  9 29  1  0  0  0  0
 12 14  1  0  0  0  0
 12 17  1  0  0  0  0
 12 24  1  0  0  0  0
 13 18  1  0  0  0  0
 13 27  2  0  0  0  0
 14 26  2  0  0  0  0
 15 16  1  0  0  0  0
 15 17  1  0  0  0  0
 15 21  2  0  0  0  0
 16 18  2  0  0  0  0
 17 28  2  0  0  0  0
 18 19  1  0  0  0  0
 19 25  1  0  0  0  0
 19 30  2  0  0  0  0
 20 23  1  0  0  0  0
 20 25  2  0  0  0  0
 21 22  1  0  0  0  0
 22 32  2  0  0  0  0
 22 33  1  0  0  0  0
 23 34  2  0  0  0  0
 24 31  2  0  0  0  0
 24 39  1  0  0  0  0
 26 31  1  0  0  0  0
 26 35  1  0  0  0  0
 27 40  1  0  0  0  0
 28 32  1  0  0  0  0
 30 34  1  0  0  0  0
 33 36  1  0  0  0  0
 33 38  2  0  0  0  0
 36 37  2  0  0  0  0
 37 41  1  0  0  0  0
 38 42  1  0  0  0  0
 41 42  2  0  0  0  0
M  END
> <PUBCHEM_COMPOUND_ID_TYPE>
0

> <PUBCHEM_TOTAL_CHARGE>
0

> <PUBCHEM_SUBSTANCE_ID>
310948087

> <PUBCHEM_SUBSTANCE_VERSION>
1

> <PUBCHEM_EXT_DATASOURCE_NAME>
4488

> <PUBCHEM_EXT_DATASOURCE_REGID>
SCHEMBL16126263

> <PUBCHEM_SUBSTANCE_COMMENT>
InChI=1S/C29H20F5N3O5S/c1-15-11-25(28(30,31)32)36-37(15)22-9-7-18(17-5-4-6-20(12-17)43(3,38)39)13-21(22)27-26(35-16(2)40-27)19-8-10-23-24(14-19)42-29(33,34)41-23/h4-14H,1-3H3
InChIKey=RSVXCERAHBBPKQ-UHFFFAOYSA-N

> <PUBCHEM_SUBSTANCE_SYNONYM>
SCHEMBL16126263

> <PUBCHEM_XREF_EXT_ID>
SCHEMBL16126263

> <PUBCHEM_EXT_DATASOURCE_URL>
https://www.surechembl.org/

> <PUBCHEM_EXT_SUBSTANCE_URL>
https://www.surechembl.org/chemical/SCHEMBL16126263

> <PUBCHEM_CID_ASSOCIATIONS>
117613706  1

> <PUBCHEM_COORDINATE_TYPE>
1
3

$$$$
