310943682
  -OEChem-07211613022D

 37 41  0     0  0  0  0  0  0999 V2000
   -2.4997   -2.8709    0.0000 O   0  0  0  0  0  0  0  0  0  0  0  0
   -5.3541    2.4585    0.0000 O   0  0  0  0  0  0  0  0  0  0  0  0
    1.7737    2.4585    0.0000 O   0  0  0  0  0  0  0  0  0  0  0  0
    5.3377    1.2210    0.0000 O   0  0  0  0  0  0  0  0  0  0  0  0
   -2.4997   -0.8580    0.0000 N   0  0  0  0  0  0  0  0  0  0  0  0
   -3.2257    0.3795    0.0000 N   0  0  0  0  0  0  0  0  0  0  0  0
   -3.9352    1.6170    0.0000 N   0  0  0  0  0  0  0  0  0  0  0  0
   -0.3547    2.8709    0.0000 N   0  0  0  0  0  0  0  0  0  0  0  0
    1.0642    1.2045    0.0000 N   0  0  0  0  0  0  0  0  0  0  0  0
    3.9187    0.3795    0.0000 N   0  0  0  0  0  0  0  0  0  0  0  0
   -1.7902    1.2210    0.0000 C   0  0  0  0  0  0  0  0  0  0  0  0
   -2.4997   -0.0330    0.0000 C   0  0  0  0  0  0  0  0  0  0  0  0
   -1.0807    1.6335    0.0000 C   0  0  0  0  0  0  0  0  0  0  0  0
   -3.2092    1.2210    0.0000 C   0  0  0  0  0  0  0  0  0  0  0  0
   -1.7902    0.3795    0.0000 C   0  0  0  0  0  0  0  0  0  0  0  0
   -2.4997    1.6335    0.0000 C   0  0  0  0  0  0  0  0  0  0  0  0
   -1.0642    2.4585    0.0000 C   0  0  0  0  0  0  0  0  0  0  0  0
   -0.3547    1.2210    0.0000 C   0  0  0  0  0  0  0  0  0  0  0  0
   -3.0772   -1.4520    0.0000 C   0  0  0  0  0  0  0  0  0  0  0  0
   -1.9222   -1.4685    0.0000 C   0  0  0  0  0  0  0  0  0  0  0  0
    0.3547    1.6335    0.0000 C   0  0  0  0  0  0  0  0  0  0  0  0
   -2.4997   -2.0130    0.0000 C   0  0  0  0  0  0  0  0  0  0  0  0
    0.3547    2.4585    0.0000 C   0  0  0  0  0  0  0  0  0  0  0  0
    2.4997    1.2210    0.0000 C   0  0  0  0  0  0  0  0  0  0  0  0
    1.7737    1.6170    0.0000 C   0  0  0  0  0  0  0  0  0  0  0  0
    3.9187    1.2210    0.0000 C   0  0  0  0  0  0  0  0  0  0  0  0
   -3.9352    2.4585    0.0000 C   0  0  0  0  0  0  0  0  0  0  0  0
   -4.6282    1.2210    0.0000 C   0  0  0  0  0  0  0  0  0  0  0  0
    4.6446    1.6500    0.0000 C   0  0  0  0  0  0  0  0  0  0  0  0
    3.2092    1.6335    0.0000 C   0  0  0  0  0  0  0  0  0  0  0  0
   -1.7902    2.8544    0.0000 C   0  0  0  0  0  0  0  0  0  0  0  0
    2.4997    0.3795    0.0000 C   0  0  0  0  0  0  0  0  0  0  0  0
   -4.6612    2.8709    0.0000 C   0  0  0  0  0  0  0  0  0  0  0  0
   -5.3541    1.6335    0.0000 C   0  0  0  0  0  0  0  0  0  0  0  0
    3.2257   -0.0330    0.0000 C   0  0  0  0  0  0  0  0  0  0  0  0
    4.6446    2.4749    0.0000 C   0  0  0  0  0  0  0  0  0  0  0  0
    5.3541    2.0459    0.0000 C   0  0  0  0  0  0  0  0  0  0  0  0
  1 22  1  0  0  0  0
  2 33  1  0  0  0  0
  2 34  1  0  0  0  0
  3 25  2  0  0  0  0
  4 29  1  0  0  0  0
  5 12  1  0  0  0  0
  5 19  1  0  0  0  0
  5 20  1  0  0  0  0
  6 12  1  0  0  0  0
  6 14  2  0  0  0  0
  7 14  1  0  0  0  0
  7 27  1  0  0  0  0
  7 28  1  0  0  0  0
  8 17  2  0  0  0  0
  8 23  1  0  0  0  0
  9 21  1  0  0  0  0
  9 25  1  0  0  0  0
 10 26  1  0  0  0  0
 10 35  2  0  0  0  0
 11 13  1  0  0  0  0
 11 15  1  0  0  0  0
 11 16  2  0  0  0  0
 12 15  2  0  0  0  0
 13 17  1  0  0  0  0
 13 18  2  0  0  0  0
 14 16  1  0  0  0  0
 17 31  1  0  0  0  0
 18 21  1  0  0  0  0
 19 22  1  0  0  0  0
 20 22  1  0  0  0  0
 21 23  2  0  0  0  0
 24 25  1  0  0  0  0
 24 30  1  0  0  0  0
 24 32  2  0  0  0  0
 26 29  1  0  0  0  0
 26 30  2  0  0  0  0
 27 33  1  0  0  0  0
 28 34  1  0  0  0  0
 29 36  1  0  0  0  0
 29 37  1  0  0  0  0
 32 35  1  0  0  0  0
M  END
> <PUBCHEM_COMPOUND_ID_TYPE>
0

> <PUBCHEM_TOTAL_CHARGE>
0

> <PUBCHEM_SUBSTANCE_ID>
310943682

> <PUBCHEM_SUBSTANCE_VERSION>
1

> <PUBCHEM_EXT_DATASOURCE_NAME>
4488

> <PUBCHEM_EXT_DATASOURCE_REGID>
SCHEMBL16121750

> <PUBCHEM_SUBSTANCE_COMMENT>
InChI=1S/C27H32N6O4/c1-17-22(13-20(14-29-17)30-26(35)18-4-5-28-23(10-18)27(2,3)36)19-11-24(32-6-8-37-9-7-32)31-25(12-19)33-15-21(34)16-33/h4-5,10-14,21,34,36H,6-9,15-16H2,1-3H3,(H,30,35)
InChIKey=IQTYZITZDLDRLV-UHFFFAOYSA-N

> <PUBCHEM_SUBSTANCE_SYNONYM>
SCHEMBL16121750

> <PUBCHEM_XREF_EXT_ID>
SCHEMBL16121750

> <PUBCHEM_EXT_DATASOURCE_URL>
https://www.surechembl.org/

> <PUBCHEM_EXT_SUBSTANCE_URL>
https://www.surechembl.org/chemical/SCHEMBL16121750

> <PUBCHEM_CID_ASSOCIATIONS>
117610071  1

> <PUBCHEM_COORDINATE_TYPE>
1
3

$$$$
