310942450
  -OEChem-07211613022D

 39 43  0     1  0  0  0  0  0999 V2000
   -2.7129    3.6318    0.0000 Br  0  0  0  0  0  0  0  0  0  0  0  0
   -4.1409    1.1485    0.0000 F   0  0  0  0  0  0  0  0  0  0  0  0
    3.4207   -0.1304    0.0000 O   0  0  0  0  0  0  0  0  0  0  0  0
    4.1409   -1.3720    0.0000 O   0  0  0  0  0  0  0  0  0  0  0  0
    0.1428    1.1361    0.0000 O   0  0  0  0  0  0  0  0  0  0  0  0
    1.2727   -2.2039    0.0000 O   0  0  0  0  0  0  0  0  0  0  0  0
   -1.6576   -0.5898    0.0000 O   0  0  0  0  0  0  0  0  0  0  0  0
    2.0052   -0.9623    0.0000 N   0  0  0  0  0  0  0  0  0  0  0  0
   -0.2421   -0.9623    0.0000 N   0  0  0  0  0  0  0  0  0  0  0  0
   -1.2727    1.1485    0.0000 N   0  0  0  0  0  0  0  0  0  0  0  0
   -1.2727    2.7999    0.0000 N   0  0  0  0  0  0  0  0  0  0  0  0
   -1.9804   -2.3901    0.0000 N   0  0  0  0  0  0  0  0  0  0  0  0
    2.7378   -1.3596    0.0000 C   0  0  3  0  0  0  0  0  0  0  0  0
    2.7254   -2.2163    0.0000 C   0  0  3  0  0  0  0  0  0  0  0  0
    3.3586   -1.7818    0.0000 C   0  0  0  0  0  0  0  0  0  0  0  0
    3.4331   -0.9747    0.0000 C   0  0  0  0  0  0  0  0  0  0  0  0
    1.3100   -1.3596    0.0000 C   0  0  0  0  0  0  0  0  0  0  0  0
    0.5649   -0.9499    0.0000 C   0  0  3  0  0  0  0  0  0  0  0  0
    3.1351   -3.2220    0.0000 C   0  0  0  0  0  0  0  0  0  0  0  0
    0.1552    0.3167    0.0000 C   0  0  3  0  0  0  0  0  0  0  0  0
    0.8257   -0.1676    0.0000 C   0  0  0  0  0  0  0  0  0  0  0  0
   -0.5029   -0.1676    0.0000 C   0  0  0  0  0  0  0  0  0  0  0  0
   -1.0367   -1.1857    0.0000 C   0  0  0  0  0  0  0  0  0  0  0  0
   -0.5649    1.5582    0.0000 C   0  0  0  0  0  0  0  0  0  0  0  0
   -1.9929    2.3901    0.0000 C   0  0  0  0  0  0  0  0  0  0  0  0
   -2.0052    1.5582    0.0000 C   0  0  0  0  0  0  0  0  0  0  0  0
   -0.5525    2.3901    0.0000 C   0  0  0  0  0  0  0  0  0  0  0  0
    2.4398   -3.6194    0.0000 C   0  0  0  0  0  0  0  0  0  0  0  0
   -2.7129    2.7999    0.0000 C   0  0  0  0  0  0  0  0  0  0  0  0
   -1.2727   -1.9680    0.0000 C   0  0  3  0  0  0  0  0  0  0  0  0
   -2.7005    1.1485    0.0000 C   0  0  0  0  0  0  0  0  0  0  0  0
   -3.4207    1.5582    0.0000 C   0  0  0  0  0  0  0  0  0  0  0  0
   -3.4083    2.3901    0.0000 C   0  0  0  0  0  0  0  0  0  0  0  0
    1.7072   -3.2220    0.0000 C   0  0  0  0  0  0  0  0  0  0  0  0
   -0.5525   -2.3901    0.0000 C   0  0  0  0  0  0  0  0  0  0  0  0
    0.1552    2.7999    0.0000 C   0  0  0  0  0  0  0  0  0  0  0  0
    0.9995   -3.6318    0.0000 C   0  0  0  0  0  0  0  0  0  0  0  0
   -0.5525   -3.2096    0.0000 C   0  0  0  0  0  0  0  0  0  0  0  0
    0.2918   -3.2220    0.0000 C   0  0  0  0  0  0  0  0  0  0  0  0
  1 29  1  0  0  0  0
  2 32  1  0  0  0  0
  3 16  2  0  0  0  0
  4 16  1  0  0  0  0
 20  5  1  6  0  0  0
  5 24  1  0  0  0  0
  6 17  2  0  0  0  0
  7 23  2  0  0  0  0
  8 13  1  0  0  0  0
  8 17  1  0  0  0  0
  9 18  1  0  0  0  0
  9 22  1  0  0  0  0
  9 23  1  0  0  0  0
 10 24  2  0  0  0  0
 10 26  1  0  0  0  0
 11 25  1  0  0  0  0
 11 27  2  0  0  0  0
 30 12  1  6  0  0  0
 13 14  1  0  0  0  0
 13 15  1  0  0  0  0
 13 16  1  1  0  0  0
 14 15  1  6  0  0  0
 14 19  1  0  0  0  0
 17 18  1  0  0  0  0
 18 21  1  1  0  0  0
 19 28  2  0  0  0  0
 20 21  1  0  0  0  0
 20 22  1  0  0  0  0
 23 30  1  0  0  0  0
 24 27  1  0  0  0  0
 25 26  1  0  0  0  0
 25 29  2  0  0  0  0
 26 31  2  0  0  0  0
 27 36  1  0  0  0  0
 28 34  1  0  0  0  0
 29 33  1  0  0  0  0
 30 35  1  0  0  0  0
 31 32  1  0  0  0  0
 32 33  2  0  0  0  0
 34 37  1  0  0  0  0
 35 38  1  0  0  0  0
 37 39  1  0  0  0  0
 38 39  1  0  0  0  0
M  END
> <PUBCHEM_COMPOUND_ID_TYPE>
0

> <PUBCHEM_TOTAL_CHARGE>
0

> <PUBCHEM_SUBSTANCE_ID>
310942450

> <PUBCHEM_SUBSTANCE_VERSION>
1

> <PUBCHEM_EXT_DATASOURCE_NAME>
4488

> <PUBCHEM_EXT_DATASOURCE_REGID>
SCHEMBL16120486

> <PUBCHEM_SUBSTANCE_COMMENT>
InChI=1S/C27H31BrFN5O5/c1-14-24(32-20-10-16(29)9-18(28)22(20)31-14)39-17-11-21-23(35)33-27(26(37)38)12-15(27)7-5-3-2-4-6-8-19(30)25(36)34(21)13-17/h5,7,9-10,15,17,19,21H,2-4,6,8,11-13,30H2,1H3,(H,33,35)(H,37,38)/b7-5-/t15-,17-,19+,21+,27-/m1/s1
InChIKey=GLWMOJUVQPRKQL-DMVLACTBSA-N

> <PUBCHEM_SUBSTANCE_SYNONYM>
SCHEMBL16120486

> <PUBCHEM_XREF_EXT_ID>
SCHEMBL16120486

> <PUBCHEM_EXT_DATASOURCE_URL>
https://www.surechembl.org/

> <PUBCHEM_EXT_SUBSTANCE_URL>
https://www.surechembl.org/chemical/SCHEMBL16120486

> <PUBCHEM_CID_ASSOCIATIONS>
117609038  1

> <PUBCHEM_COORDINATE_TYPE>
1
3

> <PUBCHEM_BONDANNOTATIONS>
30  12  6
13  16  5
14  15  6
18  21  5
20  5  6

$$$$
