310944224
  -OEChem-07211613022D

 24 25  0     0  0  0  0  0  0999 V2000
    0.0129    2.8481    0.0000 F   0  0  0  0  0  0  0  0  0  0  0  0
    0.0129   -2.8481    0.0000 F   0  0  0  0  0  0  0  0  0  0  0  0
   -2.1798    2.3939    0.0000 N   0  0  0  0  0  0  0  0  0  0  0  0
    2.1538   -2.4069    0.0000 N   0  0  0  0  0  0  0  0  0  0  0  0
    2.1798    2.4069    0.0000 N   0  0  0  0  0  0  0  0  0  0  0  0
   -2.1669   -2.4198    0.0000 N   0  0  0  0  0  0  0  0  0  0  0  0
    0.0000    0.4347    0.0000 C   0  0  0  0  0  0  0  0  0  0  0  0
   -0.0129   -0.3827    0.0000 C   0  0  0  0  0  0  0  0  0  0  0  0
   -0.7396    0.8499    0.0000 C   0  0  0  0  0  0  0  0  0  0  0  0
    0.7396   -0.7720    0.0000 C   0  0  0  0  0  0  0  0  0  0  0  0
   -0.7266    1.6413    0.0000 C   0  0  0  0  0  0  0  0  0  0  0  0
    0.7007   -1.5895    0.0000 C   0  0  0  0  0  0  0  0  0  0  0  0
    0.0000    2.0436    0.0000 C   0  0  0  0  0  0  0  0  0  0  0  0
   -0.0129   -1.9917    0.0000 C   0  0  0  0  0  0  0  0  0  0  0  0
    0.7266    0.8499    0.0000 C   0  0  0  0  0  0  0  0  0  0  0  0
   -0.7266   -0.7980    0.0000 C   0  0  0  0  0  0  0  0  0  0  0  0
    0.7266    1.6544    0.0000 C   0  0  0  0  0  0  0  0  0  0  0  0
   -0.7525   -1.6024    0.0000 C   0  0  0  0  0  0  0  0  0  0  0  0
   -1.4662    2.0306    0.0000 C   0  0  0  0  0  0  0  0  0  0  0  0
    1.4402   -2.0176    0.0000 C   0  0  0  0  0  0  0  0  0  0  0  0
   -1.4662    0.4347    0.0000 C   0  0  0  0  0  0  0  0  0  0  0  0
    1.4532   -0.3698    0.0000 C   0  0  0  0  0  0  0  0  0  0  0  0
    1.4532    2.0436    0.0000 C   0  0  0  0  0  0  0  0  0  0  0  0
   -1.4662   -2.0176    0.0000 C   0  0  0  0  0  0  0  0  0  0  0  0
  1 13  1  0  0  0  0
  2 14  1  0  0  0  0
  3 19  3  0  0  0  0
  4 20  3  0  0  0  0
  5 23  3  0  0  0  0
  6 24  3  0  0  0  0
  7  8  1  0  0  0  0
  7  9  1  0  0  0  0
  7 15  2  0  0  0  0
  8 10  2  0  0  0  0
  8 16  1  0  0  0  0
  9 11  2  0  0  0  0
  9 21  1  0  0  0  0
 10 12  1  0  0  0  0
 10 22  1  0  0  0  0
 11 13  1  0  0  0  0
 11 19  1  0  0  0  0
 12 14  2  0  0  0  0
 12 20  1  0  0  0  0
 13 17  2  0  0  0  0
 14 18  1  0  0  0  0
 15 17  1  0  0  0  0
 16 18  2  0  0  0  0
 17 23  1  0  0  0  0
 18 24  1  0  0  0  0
M  END
> <PUBCHEM_COMPOUND_ID_TYPE>
0

> <PUBCHEM_TOTAL_CHARGE>
0

> <PUBCHEM_SUBSTANCE_ID>
310944224

> <PUBCHEM_SUBSTANCE_VERSION>
1

> <PUBCHEM_EXT_DATASOURCE_NAME>
4488

> <PUBCHEM_EXT_DATASOURCE_REGID>
SCHEMBL16122299

> <PUBCHEM_SUBSTANCE_COMMENT>
InChI=1S/C18H8F2N4/c1-9-13(3-11(5-21)17(19)15(9)7-23)14-4-12(6-22)18(20)16(8-24)10(14)2/h3-4H,1-2H3
InChIKey=SWRIGZYXZKUMFO-UHFFFAOYSA-N

> <PUBCHEM_SUBSTANCE_SYNONYM>
SCHEMBL16122299

> <PUBCHEM_XREF_EXT_ID>
SCHEMBL16122299

> <PUBCHEM_EXT_DATASOURCE_URL>
https://www.surechembl.org/

> <PUBCHEM_EXT_SUBSTANCE_URL>
https://www.surechembl.org/chemical/SCHEMBL16122299

> <PUBCHEM_CID_ASSOCIATIONS>
117610495  1

> <PUBCHEM_COORDINATE_TYPE>
1
3

$$$$
