310949733
  -OEChem-07211613022D

 28 29  0     0  0  0  0  0  0999 V2000
   -3.2970    1.8895    0.0000 F   0  0  0  0  0  0  0  0  0  0  0  0
   -2.5035    2.6830    0.0000 F   0  0  0  0  0  0  0  0  0  0  0  0
   -1.7099    1.8895    0.0000 F   0  0  0  0  0  0  0  0  0  0  0  0
   -3.8072   -1.3793    0.0000 F   0  0  0  0  0  0  0  0  0  0  0  0
   -4.6952   -0.3023    0.0000 F   0  0  0  0  0  0  0  0  0  0  0  0
   -1.0675   -0.6046    0.0000 O   0  0  0  0  0  0  0  0  0  0  0  0
    3.9961    0.6046    0.0000 O   0  0  0  0  0  0  0  0  0  0  0  0
    4.6952   -0.5857    0.0000 O   0  0  0  0  0  0  0  0  0  0  0  0
    1.1053   -0.1700    0.0000 N   0  0  0  0  0  0  0  0  0  0  0  0
    2.5413   -0.1700    0.0000 N   0  0  0  0  0  0  0  0  0  0  0  0
    1.8422   -1.4171    0.0000 N   0  0  0  0  0  0  0  0  0  0  0  0
   -2.5035    1.0581    0.0000 C   0  0  0  0  0  0  0  0  0  0  0  0
   -2.5035    1.8895    0.0000 C   0  0  0  0  0  0  0  0  0  0  0  0
   -3.2215   -0.1134    0.0000 C   0  0  0  0  0  0  0  0  0  0  0  0
   -1.8233   -0.1700    0.0000 C   0  0  0  0  0  0  0  0  0  0  0  0
   -3.2025    0.6613    0.0000 C   0  0  0  0  0  0  0  0  0  0  0  0
   -1.8044    0.6424    0.0000 C   0  0  0  0  0  0  0  0  0  0  0  0
   -2.4846   -0.5668    0.0000 C   0  0  0  0  0  0  0  0  0  0  0  0
    1.8422   -0.5668    0.0000 C   0  0  0  0  0  0  0  0  0  0  0  0
    3.2593   -0.5668    0.0000 C   0  0  0  0  0  0  0  0  0  0  0  0
   -3.9205   -0.6046    0.0000 C   0  0  0  0  0  0  0  0  0  0  0  0
    2.5413   -1.8327    0.0000 C   0  0  0  0  0  0  0  0  0  0  0  0
    3.2593   -1.4171    0.0000 C   0  0  0  0  0  0  0  0  0  0  0  0
    3.9773   -0.1700    0.0000 C   0  0  0  0  0  0  0  0  0  0  0  0
    0.4062   -0.5668    0.0000 C   0  0  0  0  0  0  0  0  0  0  0  0
   -0.3874   -0.1700    0.0000 C   0  0  0  0  0  0  0  0  0  0  0  0
    1.0675    0.6802    0.0000 C   0  0  0  0  0  0  0  0  0  0  0  0
    2.5035   -2.6830    0.0000 C   0  0  0  0  0  0  0  0  0  0  0  0
  1 13  1  0  0  0  0
  2 13  1  0  0  0  0
  3 13  1  0  0  0  0
  4 21  1  0  0  0  0
  5 21  1  0  0  0  0
  6 15  1  0  0  0  0
  6 26  1  0  0  0  0
  7 24  2  0  0  0  0
  8 24  1  0  0  0  0
  9 19  1  0  0  0  0
  9 25  1  0  0  0  0
  9 27  1  0  0  0  0
 10 19  1  0  0  0  0
 10 20  2  0  0  0  0
 11 19  2  0  0  0  0
 11 22  1  0  0  0  0
 12 13  1  0  0  0  0
 12 16  1  0  0  0  0
 12 17  2  0  0  0  0
 14 16  2  0  0  0  0
 14 18  1  0  0  0  0
 14 21  1  0  0  0  0
 15 17  1  0  0  0  0
 15 18  2  0  0  0  0
 20 23  1  0  0  0  0
 20 24  1  0  0  0  0
 22 23  2  0  0  0  0
 22 28  1  0  0  0  0
 25 26  1  0  0  0  0
M  END
> <PUBCHEM_COMPOUND_ID_TYPE>
0

> <PUBCHEM_TOTAL_CHARGE>
0

> <PUBCHEM_SUBSTANCE_ID>
310949733

> <PUBCHEM_SUBSTANCE_VERSION>
1

> <PUBCHEM_EXT_DATASOURCE_NAME>
4488

> <PUBCHEM_EXT_DATASOURCE_REGID>
SCHEMBL16127931

> <PUBCHEM_SUBSTANCE_COMMENT>
InChI=1S/C17H16F5N3O3/c1-9-5-13(15(26)27)24-16(23-9)25(2)3-4-28-12-7-10(14(18)19)6-11(8-12)17(20,21)22/h5-8,14H,3-4H2,1-2H3,(H,26,27)
InChIKey=HVBJZYYMPYOXTK-UHFFFAOYSA-N

> <PUBCHEM_SUBSTANCE_SYNONYM>
SCHEMBL16127931

> <PUBCHEM_XREF_EXT_ID>
SCHEMBL16127931

> <PUBCHEM_EXT_DATASOURCE_URL>
https://www.surechembl.org/

> <PUBCHEM_EXT_SUBSTANCE_URL>
https://www.surechembl.org/chemical/SCHEMBL16127931

> <PUBCHEM_CID_ASSOCIATIONS>
117615074  1

> <PUBCHEM_COORDINATE_TYPE>
1
3

$$$$
