310941026
  -OEChem-07211613022D

 42 46  0     1  0  0  0  0  0999 V2000
    5.1831   -1.4663    0.0000 O   0  0  0  0  0  0  0  0  0  0  0  0
    4.0507    0.4936    0.0000 O   0  0  0  0  0  0  0  0  0  0  0  0
    1.6842   -1.4519    0.0000 O   0  0  0  0  0  0  0  0  0  0  0  0
   -0.4791    0.6243    0.0000 O   0  0  0  0  0  0  0  0  0  0  0  0
   -2.6279   -1.4519    0.0000 O   0  0  0  0  0  0  0  0  0  0  0  0
   -5.4880   -1.4519    0.0000 O   0  0  0  0  0  0  0  0  0  0  0  0
    2.3956   -0.2032    0.0000 N   0  0  0  0  0  0  0  0  0  0  0  0
    0.2469   -0.6243    0.0000 N   0  0  0  0  0  0  0  0  0  0  0  0
    2.5698    3.0779    0.0000 N   0  0  0  0  0  0  0  0  0  0  0  0
    3.7312    2.4100    0.0000 N   0  0  0  0  0  0  0  0  0  0  0  0
   -1.9019   -0.2032    0.0000 N   0  0  0  0  0  0  0  0  0  0  0  0
   -4.0507   -0.6243    0.0000 N   0  0  0  0  0  0  0  0  0  0  0  0
    4.7766   -0.7259    0.0000 C   0  0  3  0  0  0  0  0  0  0  0  0
    3.9926   -0.3194    0.0000 C   0  0  0  0  0  0  0  0  0  0  0  0
    4.3846   -1.4373    0.0000 C   0  0  0  0  0  0  0  0  0  0  0  0
    3.3393   -0.7114    0.0000 C   0  0  3  0  0  0  0  0  0  0  0  0
    5.4880   -0.3049    0.0000 C   0  0  0  0  0  0  0  0  0  0  0  0
    3.3247   -1.7857    0.0000 C   0  0  0  0  0  0  0  0  0  0  0  0
    1.6986   -0.5662    0.0000 C   0  0  0  0  0  0  0  0  0  0  0  0
    0.9727   -0.1742    0.0000 C   0  0  3  0  0  0  0  0  0  0  0  0
    2.6279   -2.2068    0.0000 C   0  0  0  0  0  0  0  0  0  0  0  0
    1.6842    1.0598    0.0000 C   0  0  0  0  0  0  0  0  0  0  0  0
    2.4100    2.3085    0.0000 C   0  0  0  0  0  0  0  0  0  0  0  0
    0.9873    0.6533    0.0000 C   0  0  0  0  0  0  0  0  0  0  0  0
    3.1215    1.9019    0.0000 C   0  0  0  0  0  0  0  0  0  0  0  0
    1.6986    1.8874    0.0000 C   0  0  0  0  0  0  0  0  0  0  0  0
    2.4100    0.6533    0.0000 C   0  0  0  0  0  0  0  0  0  0  0  0
    3.1215    1.0598    0.0000 C   0  0  0  0  0  0  0  0  0  0  0  0
   -0.4791   -0.2032    0.0000 C   0  0  0  0  0  0  0  0  0  0  0  0
    1.8584   -1.8874    0.0000 C   0  0  0  0  0  0  0  0  0  0  0  0
    2.5262   -3.0199    0.0000 C   0  0  0  0  0  0  0  0  0  0  0  0
    3.3973    3.1795    0.0000 C   0  0  0  0  0  0  0  0  0  0  0  0
   -1.1615   -0.5807    0.0000 C   0  0  3  0  0  0  0  0  0  0  0  0
    1.3212   -2.4827    0.0000 C   0  0  0  0  0  0  0  0  0  0  0  0
    1.7132   -3.1795    0.0000 C   0  0  0  0  0  0  0  0  0  0  0  0
   -2.6133   -0.5662    0.0000 C   0  0  0  0  0  0  0  0  0  0  0  0
   -1.1760   -1.4083    0.0000 C   0  0  0  0  0  0  0  0  0  0  0  0
   -3.3683   -0.1888    0.0000 C   0  0  0  0  0  0  0  0  0  0  0  0
   -4.0507   -1.4228    0.0000 C   0  0  0  0  0  0  0  0  0  0  0  0
   -4.7766   -0.1888    0.0000 C   0  0  0  0  0  0  0  0  0  0  0  0
   -4.7620   -1.8293    0.0000 C   0  0  0  0  0  0  0  0  0  0  0  0
   -5.4734   -0.5807    0.0000 C   0  0  0  0  0  0  0  0  0  0  0  0
  1 13  1  0  0  0  0
  1 15  1  0  0  0  0
  2 14  2  0  0  0  0
  3 19  2  0  0  0  0
  4 29  2  0  0  0  0
  5 36  2  0  0  0  0
  6 41  1  0  0  0  0
  6 42  1  0  0  0  0
 16  7  1  6  0  0  0
  7 19  1  0  0  0  0
 20  8  1  1  0  0  0
  8 29  1  0  0  0  0
  9 23  1  0  0  0  0
  9 32  2  0  0  0  0
 10 25  1  0  0  0  0
 10 32  1  0  0  0  0
 11 33  1  0  0  0  0
 11 36  1  0  0  0  0
 12 38  1  0  0  0  0
 12 39  1  0  0  0  0
 12 40  1  0  0  0  0
 13 14  1  6  0  0  0
 13 15  1  0  0  0  0
 13 17  1  1  0  0  0
 14 16  1  0  0  0  0
 16 18  1  0  0  0  0
 18 21  1  0  0  0  0
 19 20  1  0  0  0  0
 20 24  1  0  0  0  0
 21 30  1  0  0  0  0
 21 31  1  0  0  0  0
 22 24  1  0  0  0  0
 22 26  1  0  0  0  0
 22 27  2  0  0  0  0
 23 25  1  0  0  0  0
 23 26  2  0  0  0  0
 25 28  2  0  0  0  0
 27 28  1  0  0  0  0
 29 33  1  0  0  0  0
 30 34  1  0  0  0  0
 31 35  1  0  0  0  0
 33 37  1  6  0  0  0
 34 35  1  0  0  0  0
 36 38  1  0  0  0  0
 39 41  1  0  0  0  0
 40 42  1  0  0  0  0
M  END
> <PUBCHEM_COMPOUND_ID_TYPE>
0

> <PUBCHEM_TOTAL_CHARGE>
0

> <PUBCHEM_SUBSTANCE_ID>
310941026

> <PUBCHEM_SUBSTANCE_VERSION>
1

> <PUBCHEM_EXT_DATASOURCE_NAME>
4488

> <PUBCHEM_EXT_DATASOURCE_REGID>
SCHEMBL16118985

> <PUBCHEM_SUBSTANCE_COMMENT>
InChI=1S/C30H42N6O6/c1-19(33-26(37)16-36-9-11-41-12-10-36)28(39)35-25(15-21-7-8-22-23(14-21)32-18-31-22)29(40)34-24(13-20-5-3-4-6-20)27(38)30(2)17-42-30/h7-8,14,18-20,24-25H,3-6,9-13,15-17H2,1-2H3,(H,31,32)(H,33,37)(H,34,40)(H,35,39)/t19-,24-,25-,30+/m0/s1
InChIKey=JFSQPUDBQCSHEJ-DYJHIYBCSA-N

> <PUBCHEM_SUBSTANCE_SYNONYM>
SCHEMBL16118985

> <PUBCHEM_XREF_EXT_ID>
SCHEMBL16118985

> <PUBCHEM_EXT_DATASOURCE_URL>
https://www.surechembl.org/

> <PUBCHEM_EXT_SUBSTANCE_URL>
https://www.surechembl.org/chemical/SCHEMBL16118985

> <PUBCHEM_CID_ASSOCIATIONS>
117607924  1

> <PUBCHEM_COORDINATE_TYPE>
1
3

> <PUBCHEM_BONDANNOTATIONS>
13  14  6
13  17  5
33  37  6
16  7  6
20  8  5

$$$$
