310944666
  -OEChem-07211613022D

 31 33  0     0  0  0  0  0  0999 V2000
   -2.0462    2.0338    0.0000 Cl  0  0  0  0  0  0  0  0  0  0  0  0
   -5.0752    0.3894    0.0000 Cl  0  0  0  0  0  0  0  0  0  0  0  0
   -2.7632   -0.8469    0.0000 F   0  0  0  0  0  0  0  0  0  0  0  0
    0.0803   -0.8469    0.0000 O   0  0  0  0  0  0  0  0  0  0  0  0
    1.5021    1.6258    0.0000 O   0  0  0  0  0  0  0  0  0  0  0  0
    5.0752   -0.4389    0.0000 O   0  0  0  0  0  0  0  0  0  0  0  0
    0.0927    0.8098    0.0000 N   0  0  0  0  0  0  0  0  0  0  0  0
    2.2440    0.3894    0.0000 N   0  0  0  0  0  0  0  0  0  0  0  0
    3.6658   -0.4265    0.0000 N   0  0  0  0  0  0  0  0  0  0  0  0
   -2.0462    0.3894    0.0000 C   0  0  0  0  0  0  0  0  0  0  0  0
   -2.7756    0.8098    0.0000 C   0  0  0  0  0  0  0  0  0  0  0  0
   -0.6243    0.4018    0.0000 C   0  0  0  0  0  0  0  0  0  0  0  0
   -2.0462   -0.4265    0.0000 C   0  0  0  0  0  0  0  0  0  0  0  0
   -1.3291    0.7975    0.0000 C   0  0  0  0  0  0  0  0  0  0  0  0
   -0.6367   -0.4265    0.0000 C   0  0  0  0  0  0  0  0  0  0  0  0
   -2.7632    1.6382    0.0000 C   0  0  0  0  0  0  0  0  0  0  0  0
   -1.3414   -0.8346    0.0000 C   0  0  0  0  0  0  0  0  0  0  0  0
   -3.4680    0.4018    0.0000 C   0  0  0  0  0  0  0  0  0  0  0  0
   -4.1974    0.8098    0.0000 C   0  0  0  0  0  0  0  0  0  0  0  0
   -3.4680    2.0338    0.0000 C   0  0  0  0  0  0  0  0  0  0  0  0
    1.5145    0.7851    0.0000 C   0  0  0  0  0  0  0  0  0  0  0  0
    0.8098    0.3894    0.0000 C   0  0  0  0  0  0  0  0  0  0  0  0
   -4.1850    1.6258    0.0000 C   0  0  0  0  0  0  0  0  0  0  0  0
    2.9487    0.7975    0.0000 C   0  0  0  0  0  0  0  0  0  0  0  0
    2.2316   -0.4265    0.0000 C   0  0  0  0  0  0  0  0  0  0  0  0
    3.6658    0.3894    0.0000 C   0  0  0  0  0  0  0  0  0  0  0  0
    2.9487   -0.8469    0.0000 C   0  0  0  0  0  0  0  0  0  0  0  0
    4.3581   -0.8469    0.0000 C   0  0  0  0  0  0  0  0  0  0  0  0
    0.0927   -1.6753    0.0000 C   0  0  0  0  0  0  0  0  0  0  0  0
    4.3705   -1.6753    0.0000 C   0  0  0  0  0  0  0  0  0  0  0  0
    3.6410   -2.0338    0.0000 C   0  0  0  0  0  0  0  0  0  0  0  0
  1 16  1  0  0  0  0
  2 19  1  0  0  0  0
  3 13  1  0  0  0  0
  4 15  1  0  0  0  0
  4 29  1  0  0  0  0
  5 21  2  0  0  0  0
  6 28  2  0  0  0  0
  7 12  1  0  0  0  0
  7 22  1  0  0  0  0
  8 21  1  0  0  0  0
  8 24  1  0  0  0  0
  8 25  1  0  0  0  0
  9 26  1  0  0  0  0
  9 27  1  0  0  0  0
  9 28  1  0  0  0  0
 10 11  1  0  0  0  0
 10 13  2  0  0  0  0
 10 14  1  0  0  0  0
 11 16  1  0  0  0  0
 11 18  2  0  0  0  0
 12 14  2  0  0  0  0
 12 15  1  0  0  0  0
 13 17  1  0  0  0  0
 15 17  2  0  0  0  0
 16 20  2  0  0  0  0
 18 19  1  0  0  0  0
 19 23  2  0  0  0  0
 20 23  1  0  0  0  0
 21 22  1  0  0  0  0
 24 26  1  0  0  0  0
 25 27  1  0  0  0  0
 28 30  1  0  0  0  0
 30 31  2  0  0  0  0
M  END
> <PUBCHEM_COMPOUND_ID_TYPE>
0

> <PUBCHEM_TOTAL_CHARGE>
0

> <PUBCHEM_SUBSTANCE_ID>
310944666

> <PUBCHEM_SUBSTANCE_VERSION>
1

> <PUBCHEM_EXT_DATASOURCE_NAME>
4488

> <PUBCHEM_EXT_DATASOURCE_REGID>
SCHEMBL16122744

> <PUBCHEM_SUBSTANCE_COMMENT>
InChI=1S/C22H22Cl2FN3O3/c1-3-21(29)27-6-8-28(9-7-27)22(30)13-26-19-11-16(18(25)12-20(19)31-2)15-10-14(23)4-5-17(15)24/h3-5,10-12,26H,1,6-9,13H2,2H3
InChIKey=KZTVCXQDEGGTBM-UHFFFAOYSA-N

> <PUBCHEM_SUBSTANCE_SYNONYM>
SCHEMBL16122744

> <PUBCHEM_XREF_EXT_ID>
SCHEMBL16122744

> <PUBCHEM_EXT_DATASOURCE_URL>
https://www.surechembl.org/

> <PUBCHEM_EXT_SUBSTANCE_URL>
https://www.surechembl.org/chemical/SCHEMBL16122744

> <PUBCHEM_CID_ASSOCIATIONS>
117610895  1

> <PUBCHEM_COORDINATE_TYPE>
1
3

$$$$
