310945461
  -OEChem-07211613022D

 27 30  0     0  0  0  0  0  0999 V2000
   -1.4432    1.2320    0.0000 Cl  0  0  0  0  0  0  0  0  0  0  0  0
    0.6864    1.4256    0.0000 F   0  0  0  0  0  0  0  0  0  0  0  0
    1.5840    2.2176    0.0000 F   0  0  0  0  0  0  0  0  0  0  0  0
    2.4640    1.4256    0.0000 F   0  0  0  0  0  0  0  0  0  0  0  0
   -3.9600   -1.1440    0.0000 F   0  0  0  0  0  0  0  0  0  0  0  0
   -2.4288   -1.9360    0.0000 F   0  0  0  0  0  0  0  0  0  0  0  0
   -3.6432   -2.2176    0.0000 F   0  0  0  0  0  0  0  0  0  0  0  0
   -0.0352    0.4752    0.0000 N   0  0  0  0  0  0  0  0  0  0  0  0
   -0.0352   -0.8096    0.0000 N   0  0  0  0  0  0  0  0  0  0  0  0
    1.5664   -0.9680    0.0000 N   0  0  0  0  0  0  0  0  0  0  0  0
    2.3408    0.2288    0.0000 N   0  0  0  0  0  0  0  0  0  0  0  0
    0.8096    0.1936    0.0000 C   0  0  0  0  0  0  0  0  0  0  0  0
    0.7920   -0.5808    0.0000 C   0  0  0  0  0  0  0  0  0  0  0  0
    1.5664    0.6160    0.0000 C   0  0  0  0  0  0  0  0  0  0  0  0
   -0.5632   -0.1936    0.0000 C   0  0  0  0  0  0  0  0  0  0  0  0
    2.3232   -0.5808    0.0000 C   0  0  0  0  0  0  0  0  0  0  0  0
   -1.4256   -0.1936    0.0000 C   0  0  0  0  0  0  0  0  0  0  0  0
    1.5840    1.4080    0.0000 C   0  0  0  0  0  0  0  0  0  0  0  0
    3.1328   -0.9856    0.0000 C   0  0  0  0  0  0  0  0  0  0  0  0
   -1.8832    0.4928    0.0000 C   0  0  0  0  0  0  0  0  0  0  0  0
   -1.8656   -0.8448    0.0000 C   0  0  0  0  0  0  0  0  0  0  0  0
   -2.7633   -0.8624    0.0000 C   0  0  0  0  0  0  0  0  0  0  0  0
    3.9600   -1.0032    0.0000 C   0  0  0  0  0  0  0  0  0  0  0  0
    3.5552   -1.6544    0.0000 C   0  0  0  0  0  0  0  0  0  0  0  0
   -3.2032   -1.5488    0.0000 C   0  0  0  0  0  0  0  0  0  0  0  0
   -2.7633    0.4752    0.0000 C   0  0  0  0  0  0  0  0  0  0  0  0
   -3.1856   -0.1760    0.0000 C   0  0  0  0  0  0  0  0  0  0  0  0
  1 20  1  0  0  0  0
  2 18  1  0  0  0  0
  3 18  1  0  0  0  0
  4 18  1  0  0  0  0
  5 25  1  0  0  0  0
  6 25  1  0  0  0  0
  7 25  1  0  0  0  0
  8 12  1  0  0  0  0
  8 15  2  0  0  0  0
  9 13  1  0  0  0  0
  9 15  1  0  0  0  0
 10 13  1  0  0  0  0
 10 16  2  0  0  0  0
 11 14  2  0  0  0  0
 11 16  1  0  0  0  0
 12 13  2  0  0  0  0
 12 14  1  0  0  0  0
 14 18  1  0  0  0  0
 15 17  1  0  0  0  0
 16 19  1  0  0  0  0
 17 20  2  0  0  0  0
 17 21  1  0  0  0  0
 19 23  1  0  0  0  0
 19 24  1  0  0  0  0
 20 26  1  0  0  0  0
 21 22  2  0  0  0  0
 22 25  1  0  0  0  0
 22 27  1  0  0  0  0
 23 24  1  0  0  0  0
 26 27  2  0  0  0  0
M  END
> <PUBCHEM_COMPOUND_ID_TYPE>
0

> <PUBCHEM_TOTAL_CHARGE>
0

> <PUBCHEM_SUBSTANCE_ID>
310945461

> <PUBCHEM_SUBSTANCE_VERSION>
1

> <PUBCHEM_EXT_DATASOURCE_NAME>
4488

> <PUBCHEM_EXT_DATASOURCE_REGID>
SCHEMBL16123559

> <PUBCHEM_SUBSTANCE_COMMENT>
InChI=1S/C16H9ClF6N4/c17-9-4-3-7(15(18,19)20)5-8(9)13-24-10-11(16(21,22)23)25-12(6-1-2-6)26-14(10)27-13/h3-6H,1-2H2,(H,24,25,26,27)
InChIKey=OCZCRKDEPJAUMW-UHFFFAOYSA-N

> <PUBCHEM_SUBSTANCE_SYNONYM>
SCHEMBL16123559

> <PUBCHEM_XREF_EXT_ID>
SCHEMBL16123559

> <PUBCHEM_EXT_DATASOURCE_URL>
https://www.surechembl.org/

> <PUBCHEM_EXT_SUBSTANCE_URL>
https://www.surechembl.org/chemical/SCHEMBL16123559

> <PUBCHEM_CID_ASSOCIATIONS>
117611506  1

> <PUBCHEM_COORDINATE_TYPE>
1
3

$$$$
