310929394
  -OEChem-07211613022D

 59 63  0     0  0  0  0  0  0999 V2000
   -6.4302   -1.7606    0.0000 S   0  0  0  0  0  0  0  0  0  0  0  0
    0.0000   -0.5231    0.0000 O   0  0  0  0  0  0  0  0  0  0  0  0
   -4.2868   -0.5231    0.0000 O   0  0  0  0  0  0  0  0  0  0  0  0
   -3.5724   -0.1106    0.0000 O   0  0  0  0  0  0  0  0  0  0  0  0
   -6.8427   -1.0460    0.0000 O   0  0  0  0  0  0  0  0  0  0  0  0
   -6.0177   -2.4750    0.0000 O   0  0  0  0  0  0  0  0  0  0  0  0
    6.4302    0.7145    0.0000 O   0  0  0  0  0  0  0  0  0  0  0  0
    9.2881   -0.1106    0.0000 O   0  0  0  0  0  0  0  0  0  0  0  0
   11.4316   -0.5231    0.0000 O   0  0  0  0  0  0  0  0  0  0  0  0
   13.5750   -0.1106    0.0000 O   0  0  0  0  0  0  0  0  0  0  0  0
   -4.2868    1.1270    0.0000 N   0  0  0  0  0  0  0  0  0  0  0  0
   -2.8579    1.1270    0.0000 N   0  0  0  0  0  0  0  0  0  0  0  0
   -5.7158   -1.3481    0.0000 N   0  0  0  0  0  0  0  0  0  0  0  0
    1.4290   -0.5231    0.0000 N   0  0  0  0  0  0  0  0  0  0  0  0
    2.1434    0.7145    0.0000 N   0  0  0  0  0  0  0  0  0  0  0  0
    2.8579   -0.5231    0.0000 N   0  0  0  0  0  0  0  0  0  0  0  0
    7.1447   -0.5231    0.0000 N   0  0  0  0  0  0  0  0  0  0  0  0
   -5.0013    0.7145    0.0000 C   0  0  0  0  0  0  0  0  0  0  0  0
   -1.4290    1.1270    0.0000 C   0  0  0  0  0  0  0  0  0  0  0  0
   -5.0013   -0.1106    0.0000 C   0  0  0  0  0  0  0  0  0  0  0  0
   -0.7145    0.7145    0.0000 C   0  0  0  0  0  0  0  0  0  0  0  0
   -5.7158   -0.5231    0.0000 C   0  0  0  0  0  0  0  0  0  0  0  0
   -6.4302    0.7145    0.0000 C   0  0  0  0  0  0  0  0  0  0  0  0
   -2.1434    0.7145    0.0000 C   0  0  0  0  0  0  0  0  0  0  0  0
   -0.7145   -0.1106    0.0000 C   0  0  0  0  0  0  0  0  0  0  0  0
   -5.7158    1.1270    0.0000 C   0  0  0  0  0  0  0  0  0  0  0  0
   -6.4302   -0.1106    0.0000 C   0  0  0  0  0  0  0  0  0  0  0  0
   -7.1447    1.1270    0.0000 C   0  0  0  0  0  0  0  0  0  0  0  0
   -3.5724    0.7145    0.0000 C   0  0  0  0  0  0  0  0  0  0  0  0
   -2.1434   -0.1106    0.0000 C   0  0  0  0  0  0  0  0  0  0  0  0
   -1.4290   -0.5231    0.0000 C   0  0  0  0  0  0  0  0  0  0  0  0
   -1.4290    1.9520    0.0000 C   0  0  0  0  0  0  0  0  0  0  0  0
    0.0000    1.1270    0.0000 C   0  0  0  0  0  0  0  0  0  0  0  0
    0.7145   -0.1106    0.0000 C   0  0  0  0  0  0  0  0  0  0  0  0
   -0.7145    2.3645    0.0000 C   0  0  0  0  0  0  0  0  0  0  0  0
    0.0000    1.9520    0.0000 C   0  0  0  0  0  0  0  0  0  0  0  0
   -7.8592    1.5395    0.0000 C   0  0  0  0  0  0  0  0  0  0  0  0
   -7.1447    1.9520    0.0000 C   0  0  0  0  0  0  0  0  0  0  0  0
   -7.8592    0.7145    0.0000 C   0  0  0  0  0  0  0  0  0  0  0  0
    0.7145    0.7145    0.0000 C   0  0  0  0  0  0  0  0  0  0  0  0
    2.1434   -0.1106    0.0000 C   0  0  0  0  0  0  0  0  0  0  0  0
   -4.2868   -1.3481    0.0000 C   0  0  0  0  0  0  0  0  0  0  0  0
   -7.1447   -2.1731    0.0000 C   0  0  0  0  0  0  0  0  0  0  0  0
    1.4290    1.1270    0.0000 C   0  0  0  0  0  0  0  0  0  0  0  0
    4.2868   -0.5231    0.0000 C   0  0  0  0  0  0  0  0  0  0  0  0
    3.5724   -0.1106    0.0000 C   0  0  0  0  0  0  0  0  0  0  0  0
    5.7158   -0.5231    0.0000 C   0  0  0  0  0  0  0  0  0  0  0  0
    5.0013   -0.1106    0.0000 C   0  0  0  0  0  0  0  0  0  0  0  0
    4.2868   -1.3481    0.0000 C   0  0  0  0  0  0  0  0  0  0  0  0
    6.4302   -0.1106    0.0000 C   0  0  0  0  0  0  0  0  0  0  0  0
    5.7158   -1.3481    0.0000 C   0  0  0  0  0  0  0  0  0  0  0  0
    5.0013   -1.7606    0.0000 C   0  0  0  0  0  0  0  0  0  0  0  0
    7.8592   -0.1106    0.0000 C   0  0  0  0  0  0  0  0  0  0  0  0
    8.5736   -0.5231    0.0000 C   0  0  0  0  0  0  0  0  0  0  0  0
   10.0026   -0.5231    0.0000 C   0  0  0  0  0  0  0  0  0  0  0  0
   10.7170   -0.1106    0.0000 C   0  0  0  0  0  0  0  0  0  0  0  0
   12.1460   -0.1106    0.0000 C   0  0  0  0  0  0  0  0  0  0  0  0
   12.8605   -0.5231    0.0000 C   0  0  0  0  0  0  0  0  0  0  0  0
   14.2894   -0.5231    0.0000 C   0  0  0  0  0  0  0  0  0  0  0  0
  1  5  2  0  0  0  0
  1  6  2  0  0  0  0
  1 13  1  0  0  0  0
  1 43  1  0  0  0  0
  2 25  1  0  0  0  0
  2 34  1  0  0  0  0
  3 20  1  0  0  0  0
  3 42  1  0  0  0  0
  4 29  2  0  0  0  0
  7 50  2  0  0  0  0
  8 54  1  0  0  0  0
  8 55  1  0  0  0  0
  9 56  1  0  0  0  0
  9 57  1  0  0  0  0
 10 58  1  0  0  0  0
 10 59  1  0  0  0  0
 11 18  1  0  0  0  0
 11 29  1  0  0  0  0
 12 24  1  0  0  0  0
 12 29  1  0  0  0  0
 13 22  1  0  0  0  0
 14 34  2  0  0  0  0
 14 41  1  0  0  0  0
 15 41  2  0  0  0  0
 15 44  1  0  0  0  0
 16 41  1  0  0  0  0
 16 46  1  0  0  0  0
 17 50  1  0  0  0  0
 17 53  1  0  0  0  0
 18 20  1  0  0  0  0
 18 26  2  0  0  0  0
 19 21  1  0  0  0  0
 19 24  2  0  0  0  0
 19 32  1  0  0  0  0
 20 22  2  0  0  0  0
 21 25  2  0  0  0  0
 21 33  1  0  0  0  0
 22 27  1  0  0  0  0
 23 26  1  0  0  0  0
 23 27  2  0  0  0  0
 23 28  1  0  0  0  0
 24 30  1  0  0  0  0
 25 31  1  0  0  0  0
 28 37  1  0  0  0  0
 28 38  1  0  0  0  0
 28 39  1  0  0  0  0
 30 31  2  0  0  0  0
 32 35  2  0  0  0  0
 33 36  2  0  0  0  0
 34 40  1  0  0  0  0
 35 36  1  0  0  0  0
 40 44  2  0  0  0  0
 45 46  1  0  0  0  0
 45 48  2  0  0  0  0
 45 49  1  0  0  0  0
 47 48  1  0  0  0  0
 47 50  1  0  0  0  0
 47 51  2  0  0  0  0
 49 52  2  0  0  0  0
 51 52  1  0  0  0  0
 53 54  1  0  0  0  0
 55 56  1  0  0  0  0
 57 58  1  0  0  0  0
M  END
> <PUBCHEM_COMPOUND_ID_TYPE>
0

> <PUBCHEM_TOTAL_CHARGE>
0

> <PUBCHEM_SUBSTANCE_ID>
310929394

> <PUBCHEM_SUBSTANCE_VERSION>
1

> <PUBCHEM_EXT_DATASOURCE_NAME>
4488

> <PUBCHEM_EXT_DATASOURCE_REGID>
SCHEMBL16106567

> <PUBCHEM_SUBSTANCE_COMMENT>
InChI=1S/C42H51N7O9S/c1-42(2,3)30-25-34(38(55-5)35(26-30)49-59(6,52)53)47-41(51)46-33-14-15-36(32-13-8-7-12-31(32)33)58-37-16-17-44-40(48-37)45-27-28-10-9-11-29(24-28)39(50)43-18-19-56-22-23-57-21-20-54-4/h7-17,24-26,49H,18-23,27H2,1-6H3,(H,43,50)(H,44,45,48)(H2,46,47,51)
InChIKey=XERCYRLUVPJGEK-UHFFFAOYSA-N

> <PUBCHEM_SUBSTANCE_SYNONYM>
SCHEMBL16106567

> <PUBCHEM_XREF_EXT_ID>
SCHEMBL16106567

> <PUBCHEM_EXT_DATASOURCE_URL>
https://www.surechembl.org/

> <PUBCHEM_EXT_SUBSTANCE_URL>
https://www.surechembl.org/chemical/SCHEMBL16106567

> <PUBCHEM_CID_ASSOCIATIONS>
117598759  1

> <PUBCHEM_COORDINATE_TYPE>
1
3

$$$$
