310943650
  -OEChem-07211613022D

 34 38  0     0  0  0  0  0  0999 V2000
   -2.5558   -1.2374    0.0000 O   0  0  0  0  0  0  0  0  0  0  0  0
    1.7457    2.0771    0.0000 O   0  0  0  0  0  0  0  0  0  0  0  0
   -5.4284    2.0771    0.0000 O   0  0  0  0  0  0  0  0  0  0  0  0
   -3.9848    1.2521    0.0000 N   0  0  0  0  0  0  0  0  0  0  0  0
   -3.2777    0.0147    0.0000 N   0  0  0  0  0  0  0  0  0  0  0  0
   -0.4051    2.5042    0.0000 N   0  0  0  0  0  0  0  0  0  0  0  0
    1.0238    0.8396    0.0000 N   0  0  0  0  0  0  0  0  0  0  0  0
    3.8963    0.0147    0.0000 N   0  0  0  0  0  0  0  0  0  0  0  0
   -1.8340    0.8396    0.0000 C   0  0  0  0  0  0  0  0  0  0  0  0
   -1.1269    1.2669    0.0000 C   0  0  0  0  0  0  0  0  0  0  0  0
   -3.2629    0.8544    0.0000 C   0  0  0  0  0  0  0  0  0  0  0  0
   -2.5705    1.2521    0.0000 C   0  0  0  0  0  0  0  0  0  0  0  0
   -1.1122    2.0918    0.0000 C   0  0  0  0  0  0  0  0  0  0  0  0
   -1.8487    0.0000    0.0000 C   0  0  0  0  0  0  0  0  0  0  0  0
   -0.3757    0.8544    0.0000 C   0  0  0  0  0  0  0  0  0  0  0  0
   -2.5411   -0.3978    0.0000 C   0  0  0  0  0  0  0  0  0  0  0  0
    0.3020    1.2521    0.0000 C   0  0  0  0  0  0  0  0  0  0  0  0
    3.9111    0.8544    0.0000 C   0  0  0  0  0  0  0  0  0  0  0  0
    4.6182    1.2669    0.0000 C   0  0  0  0  0  0  0  0  0  0  0  0
    2.4674    0.8396    0.0000 C   0  0  0  0  0  0  0  0  0  0  0  0
    1.7309    1.2374    0.0000 C   0  0  0  0  0  0  0  0  0  0  0  0
    0.3167    2.0771    0.0000 C   0  0  0  0  0  0  0  0  0  0  0  0
    3.1598    1.2521    0.0000 C   0  0  0  0  0  0  0  0  0  0  0  0
    5.0307    1.9445    0.0000 C   0  0  0  0  0  0  0  0  0  0  0  0
    5.4284    1.2816    0.0000 C   0  0  0  0  0  0  0  0  0  0  0  0
   -3.9995    2.0918    0.0000 C   0  0  0  0  0  0  0  0  0  0  0  0
   -4.7066    0.8544    0.0000 C   0  0  0  0  0  0  0  0  0  0  0  0
    2.4674    0.0147    0.0000 C   0  0  0  0  0  0  0  0  0  0  0  0
   -1.8487    2.4895    0.0000 C   0  0  0  0  0  0  0  0  0  0  0  0
    3.2040   -0.3978    0.0000 C   0  0  0  0  0  0  0  0  0  0  0  0
   -4.7066    2.5042    0.0000 C   0  0  0  0  0  0  0  0  0  0  0  0
   -5.4284    1.2521    0.0000 C   0  0  0  0  0  0  0  0  0  0  0  0
   -1.8487   -1.6499    0.0000 C   0  0  0  0  0  0  0  0  0  0  0  0
   -1.8193   -2.5042    0.0000 C   0  0  0  0  0  0  0  0  0  0  0  0
  1 16  1  0  0  0  0
  1 33  1  0  0  0  0
  2 21  2  0  0  0  0
  3 31  1  0  0  0  0
  3 32  1  0  0  0  0
  4 11  1  0  0  0  0
  4 26  1  0  0  0  0
  4 27  1  0  0  0  0
  5 11  1  0  0  0  0
  5 16  2  0  0  0  0
  6 13  2  0  0  0  0
  6 22  1  0  0  0  0
  7 17  1  0  0  0  0
  7 21  1  0  0  0  0
  8 18  1  0  0  0  0
  8 30  2  0  0  0  0
  9 10  1  0  0  0  0
  9 12  1  0  0  0  0
  9 14  2  0  0  0  0
 10 13  1  0  0  0  0
 10 15  2  0  0  0  0
 11 12  2  0  0  0  0
 13 29  1  0  0  0  0
 14 16  1  0  0  0  0
 15 17  1  0  0  0  0
 17 22  2  0  0  0  0
 18 19  1  0  0  0  0
 18 23  2  0  0  0  0
 19 24  1  0  0  0  0
 19 25  1  0  0  0  0
 20 21  1  0  0  0  0
 20 23  1  0  0  0  0
 20 28  2  0  0  0  0
 24 25  1  0  0  0  0
 26 31  1  0  0  0  0
 27 32  1  0  0  0  0
 28 30  1  0  0  0  0
 33 34  1  0  0  0  0
M  END
> <PUBCHEM_COMPOUND_ID_TYPE>
0

> <PUBCHEM_TOTAL_CHARGE>
0

> <PUBCHEM_SUBSTANCE_ID>
310943650

> <PUBCHEM_SUBSTANCE_VERSION>
1

> <PUBCHEM_EXT_DATASOURCE_NAME>
4488

> <PUBCHEM_EXT_DATASOURCE_REGID>
SCHEMBL16121718

> <PUBCHEM_SUBSTANCE_COMMENT>
InChI=1S/C26H29N5O3/c1-3-34-25-14-20(13-24(30-25)31-8-10-33-11-9-31)22-15-21(16-28-17(22)2)29-26(32)19-6-7-27-23(12-19)18-4-5-18/h6-7,12-16,18H,3-5,8-11H2,1-2H3,(H,29,32)
InChIKey=VTHKEBCGQBGYOT-UHFFFAOYSA-N

> <PUBCHEM_SUBSTANCE_SYNONYM>
SCHEMBL16121718

> <PUBCHEM_XREF_EXT_ID>
SCHEMBL16121718

> <PUBCHEM_EXT_DATASOURCE_URL>
https://www.surechembl.org/

> <PUBCHEM_EXT_SUBSTANCE_URL>
https://www.surechembl.org/chemical/SCHEMBL16121718

> <PUBCHEM_CID_ASSOCIATIONS>
117610041  1

> <PUBCHEM_COORDINATE_TYPE>
1
3

$$$$
