310949337
  -OEChem-07211613022D

 32 33  0     1  0  0  0  0  0999 V2000
   -0.0073    2.4862    0.0000 O   0  0  0  0  0  0  0  0  0  0  0  0
   -3.5822    2.0743    0.0000 O   0  0  0  0  0  0  0  0  0  0  0  0
   -4.3031    0.8239    0.0000 O   0  0  0  0  0  0  0  0  0  0  0  0
    0.6988   -0.3972    0.0000 N   0  0  0  0  0  0  0  0  0  0  0  0
    0.6988    1.2652    0.0000 N   0  0  0  0  0  0  0  0  0  0  0  0
    1.4197    2.5010    0.0000 N   0  0  0  0  0  0  0  0  0  0  0  0
   -0.0220    0.0294    0.0000 C   0  0  0  0  0  0  0  0  0  0  0  0
   -0.0073    0.8386    0.0000 C   0  0  0  0  0  0  0  0  0  0  0  0
   -1.4344    0.8386    0.0000 C   0  0  0  0  0  0  0  0  0  0  0  0
   -0.7283    1.2358    0.0000 C   0  0  0  0  0  0  0  0  0  0  0  0
   -0.7283   -0.3972    0.0000 C   0  0  0  0  0  0  0  0  0  0  0  0
   -1.4344    0.0147    0.0000 C   0  0  0  0  0  0  0  0  0  0  0  0
   -2.1700    1.2505    0.0000 C   0  0  3  0  0  0  0  0  0  0  0  0
    0.7283    2.0890    0.0000 C   0  0  0  0  0  0  0  0  0  0  0  0
    0.6988   -1.2358    0.0000 C   0  0  0  0  0  0  0  0  0  0  0  0
    1.4050    0.0000    0.0000 C   0  0  0  0  0  0  0  0  0  0  0  0
   -2.8467    0.8533    0.0000 C   0  0  0  0  0  0  0  0  0  0  0  0
    2.1405    2.0890    0.0000 C   0  0  0  0  0  0  0  0  0  0  0  0
   -0.0073   -1.6477    0.0000 C   0  0  0  0  0  0  0  0  0  0  0  0
    2.1405   -0.3972    0.0000 C   0  0  0  0  0  0  0  0  0  0  0  0
   -2.1552    2.0743    0.0000 C   0  0  0  0  0  0  0  0  0  0  0  0
   -3.5969    1.2358    0.0000 C   0  0  0  0  0  0  0  0  0  0  0  0
    2.1552    1.2505    0.0000 C   0  0  0  0  0  0  0  0  0  0  0  0
    2.8467    2.4862    0.0000 C   0  0  0  0  0  0  0  0  0  0  0  0
    3.5675    1.2652    0.0000 C   0  0  0  0  0  0  0  0  0  0  0  0
    2.8614    0.8386    0.0000 C   0  0  0  0  0  0  0  0  0  0  0  0
    3.5675    2.0743    0.0000 C   0  0  0  0  0  0  0  0  0  0  0  0
   -0.7135   -1.2210    0.0000 C   0  0  0  0  0  0  0  0  0  0  0  0
    0.0073   -2.5010    0.0000 C   0  0  0  0  0  0  0  0  0  0  0  0
    2.8761    0.0000    0.0000 C   0  0  0  0  0  0  0  0  0  0  0  0
    2.1552   -1.2505    0.0000 C   0  0  0  0  0  0  0  0  0  0  0  0
    4.3031    0.8386    0.0000 C   0  0  0  0  0  0  0  0  0  0  0  0
  1 14  2  0  0  0  0
  2 22  2  0  0  0  0
  3 22  1  0  0  0  0
  4  7  1  0  0  0  0
  4 15  1  0  0  0  0
  4 16  1  0  0  0  0
  5  8  1  0  0  0  0
  5 14  1  0  0  0  0
  6 14  1  0  0  0  0
  6 18  1  0  0  0  0
  7  8  1  0  0  0  0
  7 11  2  0  0  0  0
  8 10  2  0  0  0  0
  9 10  1  0  0  0  0
  9 12  2  0  0  0  0
  9 13  1  0  0  0  0
 11 12  1  0  0  0  0
 13 17  1  0  0  0  0
 13 21  1  1  0  0  0
 15 19  1  0  0  0  0
 16 20  1  0  0  0  0
 17 22  1  0  0  0  0
 18 23  2  0  0  0  0
 18 24  1  0  0  0  0
 19 28  1  0  0  0  0
 19 29  1  0  0  0  0
 20 30  1  0  0  0  0
 20 31  1  0  0  0  0
 23 26  1  0  0  0  0
 24 27  2  0  0  0  0
 25 26  2  0  0  0  0
 25 27  1  0  0  0  0
 25 32  1  0  0  0  0
M  END
> <PUBCHEM_COMPOUND_ID_TYPE>
0

> <PUBCHEM_TOTAL_CHARGE>
0

> <PUBCHEM_SUBSTANCE_ID>
310949337

> <PUBCHEM_SUBSTANCE_VERSION>
1

> <PUBCHEM_EXT_DATASOURCE_NAME>
4488

> <PUBCHEM_EXT_DATASOURCE_REGID>
SCHEMBL16127527

> <PUBCHEM_SUBSTANCE_COMMENT>
InChI=1S/C26H37N3O3/c1-17(2)15-29(16-18(3)4)24-12-9-21(20(6)13-25(30)31)14-23(24)28-26(32)27-22-10-7-19(5)8-11-22/h7-12,14,17-18,20H,13,15-16H2,1-6H3,(H,30,31)(H2,27,28,32)/t20-/m1/s1
InChIKey=XNEMYXGEMLLQOO-HXUWFJFHSA-N

> <PUBCHEM_SUBSTANCE_SYNONYM>
SCHEMBL16127527

> <PUBCHEM_XREF_EXT_ID>
SCHEMBL16127527

> <PUBCHEM_EXT_DATASOURCE_URL>
https://www.surechembl.org/

> <PUBCHEM_EXT_SUBSTANCE_URL>
https://www.surechembl.org/chemical/SCHEMBL16127527

> <PUBCHEM_CID_ASSOCIATIONS>
117614812  1

> <PUBCHEM_COORDINATE_TYPE>
1
3

> <PUBCHEM_BONDANNOTATIONS>
13  21  5

$$$$
