310947269
  -OEChem-07211613022D

 34 37  0     0  0  0  0  0  0999 V2000
   -3.5166    4.1472    0.0000 O   0  0  0  0  0  0  0  0  0  0  0  0
  -11.2843    3.7982    0.0000 O   0  0  0  0  0  0  0  0  0  0  0  0
  -10.5697    5.0357    0.0000 O   0  0  0  0  0  0  0  0  0  0  0  0
   -4.7542    3.4326    0.0000 O   0  0  0  0  0  0  0  0  0  0  0  0
   -7.6417    2.7182    0.0000 N   0  0  0  0  0  0  0  0  0  0  0  0
   -7.1567    3.3857    0.0000 N   0  0  0  0  0  0  0  0  0  0  0  0
   -8.4264    2.9731    0.0000 C   0  0  0  0  0  0  0  0  0  0  0  0
   -8.4264    3.7982    0.0000 C   0  0  0  0  0  0  0  0  0  0  0  0
   -7.6417    4.0531    0.0000 C   0  0  0  0  0  0  0  0  0  0  0  0
   -9.1408    4.2107    0.0000 C   0  0  0  0  0  0  0  0  0  0  0  0
   -9.8553    3.7982    0.0000 C   0  0  0  0  0  0  0  0  0  0  0  0
   -9.1408    2.5606    0.0000 C   0  0  0  0  0  0  0  0  0  0  0  0
   -7.2292    2.0037    0.0000 C   0  0  0  0  0  0  0  0  0  0  0  0
   -6.4042    2.0037    0.0000 C   0  0  0  0  0  0  0  0  0  0  0  0
   -3.9292    2.0037    0.0000 C   0  0  0  0  0  0  0  0  0  0  0  0
   -9.8553    2.9731    0.0000 C   0  0  0  0  0  0  0  0  0  0  0  0
   -4.7542    2.0037    0.0000 C   0  0  0  0  0  0  0  0  0  0  0  0
   -3.5166    2.7182    0.0000 C   0  0  0  0  0  0  0  0  0  0  0  0
  -10.5697    4.2107    0.0000 C   0  0  0  0  0  0  0  0  0  0  0  0
   -5.9917    1.2892    0.0000 C   0  0  0  0  0  0  0  0  0  0  0  0
   -5.9917    2.7182    0.0000 C   0  0  0  0  0  0  0  0  0  0  0  0
   -3.9292    3.4326    0.0000 C   0  0  0  0  0  0  0  0  0  0  0  0
   -5.1666    1.2892    0.0000 C   0  0  0  0  0  0  0  0  0  0  0  0
   -5.1666    2.7182    0.0000 C   0  0  0  0  0  0  0  0  0  0  0  0
   -7.2292    4.7676    0.0000 C   0  0  0  0  0  0  0  0  0  0  0  0
   -3.5166    1.2892    0.0000 C   0  0  0  0  0  0  0  0  0  0  0  0
   -2.6917    2.7182    0.0000 C   0  0  0  0  0  0  0  0  0  0  0  0
   -2.6917    1.2892    0.0000 C   0  0  0  0  0  0  0  0  0  0  0  0
   -2.2791    2.0037    0.0000 C   0  0  0  0  0  0  0  0  0  0  0  0
   -3.9292    4.8615    0.0000 C   0  0  0  0  0  0  0  0  0  0  0  0
   -3.5166    5.5761    0.0000 C   0  0  0  0  0  0  0  0  0  0  0  0
   -4.7542    4.8615    0.0000 C   0  0  0  0  0  0  0  0  0  0  0  0
   -3.1041    4.8615    0.0000 C   0  0  0  0  0  0  0  0  0  0  0  0
  -11.9986    4.2107    0.0000 C   0  0  0  0  0  0  0  0  0  0  0  0
  1 22  1  0  0  0  0
  1 30  1  0  0  0  0
  2 19  1  0  0  0  0
  2 34  1  0  0  0  0
  3 19  2  0  0  0  0
  4 22  2  0  0  0  0
  5  6  1  0  0  0  0
  5  7  1  0  0  0  0
  5 13  1  0  0  0  0
  6  9  2  0  0  0  0
  7  8  1  0  0  0  0
  7 12  2  0  0  0  0
  8  9  1  0  0  0  0
  8 10  2  0  0  0  0
  9 25  1  0  0  0  0
 10 11  1  0  0  0  0
 11 16  2  0  0  0  0
 11 19  1  0  0  0  0
 12 16  1  0  0  0  0
 13 14  1  0  0  0  0
 14 20  2  0  0  0  0
 14 21  1  0  0  0  0
 15 17  1  0  0  0  0
 15 18  1  0  0  0  0
 15 26  2  0  0  0  0
 17 23  2  0  0  0  0
 17 24  1  0  0  0  0
 18 22  1  0  0  0  0
 18 27  2  0  0  0  0
 20 23  1  0  0  0  0
 21 24  2  0  0  0  0
 26 28  1  0  0  0  0
 27 29  1  0  0  0  0
 28 29  2  0  0  0  0
 30 31  1  0  0  0  0
 30 32  1  0  0  0  0
 30 33  1  0  0  0  0
M  END
> <PUBCHEM_COMPOUND_ID_TYPE>
0

> <PUBCHEM_TOTAL_CHARGE>
0

> <PUBCHEM_SUBSTANCE_ID>
310947269

> <PUBCHEM_SUBSTANCE_VERSION>
1

> <PUBCHEM_EXT_DATASOURCE_NAME>
4488

> <PUBCHEM_EXT_DATASOURCE_REGID>
SCHEMBL16125424

> <PUBCHEM_SUBSTANCE_COMMENT>
InChI=1S/C28H28N2O4/c1-18-24-16-21(26(31)33-5)14-15-25(24)30(29-18)17-19-10-12-20(13-11-19)22-8-6-7-9-23(22)27(32)34-28(2,3)4/h6-16H,17H2,1-5H3
InChIKey=ONBUZSYZCFUXSI-UHFFFAOYSA-N

> <PUBCHEM_SUBSTANCE_SYNONYM>
SCHEMBL16125424

> <PUBCHEM_XREF_EXT_ID>
SCHEMBL16125424

> <PUBCHEM_EXT_DATASOURCE_URL>
https://www.surechembl.org/

> <PUBCHEM_EXT_SUBSTANCE_URL>
https://www.surechembl.org/chemical/SCHEMBL16125424

> <PUBCHEM_CID_ASSOCIATIONS>
117613072  1

> <PUBCHEM_COORDINATE_TYPE>
1
3

$$$$
