310936519
  -OEChem-07211613022D

 27 29  0     0  0  0  0  0  0999 V2000
   -0.0296    0.1105    0.0000 P   0  0  0  0  0  0  0  0  0  0  0  0
   -0.7441   -0.3020    0.0000 O   0  0  0  0  0  0  0  0  0  0  0  0
    0.3829   -0.6039    0.0000 O   0  0  0  0  0  0  0  0  0  0  0  0
   -0.0296   -1.5395    0.0000 O   0  0  0  0  0  0  0  0  0  0  0  0
   -2.1730   -0.3020    0.0000 O   0  0  0  0  0  0  0  0  0  0  0  0
   -3.6020    1.3480    0.0000 O   0  0  0  0  0  0  0  0  0  0  0  0
    0.6849    0.5230    0.0000 C   0  0  0  0  0  0  0  0  0  0  0  0
   -0.4421    0.8250    0.0000 C   0  0  0  0  0  0  0  0  0  0  0  0
   -0.7441   -1.1270    0.0000 C   0  0  0  0  0  0  0  0  0  0  0  0
   -1.4586   -1.5395    0.0000 C   0  0  0  0  0  0  0  0  0  0  0  0
    0.6849    1.3480    0.0000 C   0  0  0  0  0  0  0  0  0  0  0  0
   -1.2671    0.8250    0.0000 C   0  0  0  0  0  0  0  0  0  0  0  0
    1.3993    0.1105    0.0000 C   0  0  0  0  0  0  0  0  0  0  0  0
   -0.0296    1.5395    0.0000 C   0  0  0  0  0  0  0  0  0  0  0  0
   -2.1730   -1.1270    0.0000 C   0  0  0  0  0  0  0  0  0  0  0  0
   -1.4586   -2.3645    0.0000 C   0  0  0  0  0  0  0  0  0  0  0  0
    1.3993    1.7605    0.0000 C   0  0  0  0  0  0  0  0  0  0  0  0
   -1.6796    1.5395    0.0000 C   0  0  0  0  0  0  0  0  0  0  0  0
    2.1138    0.5230    0.0000 C   0  0  0  0  0  0  0  0  0  0  0  0
   -0.4421    2.2539    0.0000 C   0  0  0  0  0  0  0  0  0  0  0  0
   -2.8875   -1.5395    0.0000 C   0  0  0  0  0  0  0  0  0  0  0  0
    2.1138    1.3480    0.0000 C   0  0  0  0  0  0  0  0  0  0  0  0
   -1.2671    2.2539    0.0000 C   0  0  0  0  0  0  0  0  0  0  0  0
   -2.1730   -2.7770    0.0000 C   0  0  0  0  0  0  0  0  0  0  0  0
   -2.8875   -2.3645    0.0000 C   0  0  0  0  0  0  0  0  0  0  0  0
   -2.8875    0.1105    0.0000 C   0  0  0  0  0  0  0  0  0  0  0  0
   -2.8875    0.9355    0.0000 C   0  0  0  0  0  0  0  0  0  0  0  0
  1  2  1  0  0  0  0
  1  3  2  0  0  0  0
  1  7  1  0  0  0  0
  1  8  1  0  0  0  0
  2  9  1  0  0  0  0
  4  9  2  0  0  0  0
  5 15  1  0  0  0  0
  5 26  1  0  0  0  0
  6 27  1  0  0  0  0
  7 11  2  0  0  0  0
  7 13  1  0  0  0  0
  8 12  2  0  0  0  0
  8 14  1  0  0  0  0
  9 10  1  0  0  0  0
 10 15  2  0  0  0  0
 10 16  1  0  0  0  0
 11 17  1  0  0  0  0
 12 18  1  0  0  0  0
 13 19  2  0  0  0  0
 14 20  2  0  0  0  0
 15 21  1  0  0  0  0
 16 24  2  0  0  0  0
 17 22  2  0  0  0  0
 18 23  2  0  0  0  0
 19 22  1  0  0  0  0
 20 23  1  0  0  0  0
 21 25  2  0  0  0  0
 24 25  1  0  0  0  0
 26 27  1  0  0  0  0
M  END
> <PUBCHEM_COMPOUND_ID_TYPE>
0

> <PUBCHEM_TOTAL_CHARGE>
0

> <PUBCHEM_SUBSTANCE_ID>
310936519

> <PUBCHEM_SUBSTANCE_VERSION>
1

> <PUBCHEM_EXT_DATASOURCE_NAME>
4488

> <PUBCHEM_EXT_DATASOURCE_REGID>
SCHEMBL16114170

> <PUBCHEM_SUBSTANCE_COMMENT>
InChI=1S/C21H19O5P/c22-15-16-25-20-14-8-7-13-19(20)21(23)26-27(24,17-9-3-1-4-10-17)18-11-5-2-6-12-18/h1-14,22H,15-16H2
InChIKey=HUTNMHOQGHQYLD-UHFFFAOYSA-N

> <PUBCHEM_SUBSTANCE_SYNONYM>
SCHEMBL16114170

> <PUBCHEM_XREF_EXT_ID>
SCHEMBL16114170

> <PUBCHEM_EXT_DATASOURCE_URL>
https://www.surechembl.org/

> <PUBCHEM_EXT_SUBSTANCE_URL>
https://www.surechembl.org/chemical/SCHEMBL16114170

> <PUBCHEM_CID_ASSOCIATIONS>
117604446  1

> <PUBCHEM_COORDINATE_TYPE>
1
3

$$$$
