310938518
  -OEChem-07211613022D

 42 45  0     1  0  0  0  0  0999 V2000
    1.2146   -0.9487    0.0000 O   0  0  0  0  0  0  0  0  0  0  0  0
    0.1410    3.9532    0.0000 O   0  0  0  0  0  0  0  0  0  0  0  0
   -1.8576   -1.0725    0.0000 O   0  0  0  0  0  0  0  0  0  0  0  0
    3.3580    1.1137    0.0000 O   0  0  0  0  0  0  0  0  0  0  0  0
    4.0725   -0.1237    0.0000 O   0  0  0  0  0  0  0  0  0  0  0  0
   -0.2143    1.7737    0.0000 N   0  0  3  0  0  0  0  0  0  0  0  0
   -1.1432    0.1650    0.0000 N   0  0  0  0  0  0  0  0  0  0  0  0
    1.0971    2.8913    0.0000 N   0  0  0  0  0  0  0  0  0  0  0  0
    0.2858   -1.4850    0.0000 N   0  0  0  0  0  0  0  0  0  0  0  0
    2.7498    2.4038    0.0000 N   0  0  0  0  0  0  0  0  0  0  0  0
    3.1623    3.6733    0.0000 N   0  0  0  0  0  0  0  0  0  0  0  0
    3.5748    2.4038    0.0000 N   0  0  0  0  0  0  0  0  0  0  0  0
    3.8297    3.1884    0.0000 N   0  0  0  0  0  0  0  0  0  0  0  0
    0.5001    0.2887    0.0000 C   0  0  3  0  0  0  0  0  0  0  0  0
    0.5001    1.3612    0.0000 C   0  0  3  0  0  0  0  0  0  0  0  0
   -0.9680    1.4382    0.0000 C   0  0  0  0  0  0  0  0  0  0  0  0
   -0.3006    2.5942    0.0000 C   0  0  3  0  0  0  0  0  0  0  0  0
   -1.5201    2.0513    0.0000 C   0  0  0  0  0  0  0  0  0  0  0  0
   -0.4287   -0.2475    0.0000 C   0  0  3  0  0  0  0  0  0  0  0  0
   -1.1076    2.7658    0.0000 C   0  0  0  0  0  0  0  0  0  0  0  0
    1.2146   -0.1237    0.0000 C   0  0  0  0  0  0  0  0  0  0  0  0
    0.3125    3.1463    0.0000 C   0  0  0  0  0  0  0  0  0  0  0  0
   -1.2229    0.6536    0.0000 C   0  0  0  0  0  0  0  0  0  0  0  0
    0.5001   -0.5362    0.0000 C   0  0  0  0  0  0  0  0  0  0  0  0
   -2.3270    1.8798    0.0000 C   0  0  0  0  0  0  0  0  0  0  0  0
    1.2146    1.7737    0.0000 C   0  0  0  0  0  0  0  0  0  0  0  0
   -0.4287   -1.0725    0.0000 C   0  0  0  0  0  0  0  0  0  0  0  0
    1.9291    0.2887    0.0000 C   0  0  0  0  0  0  0  0  0  0  0  0
   -2.0299    0.4820    0.0000 C   0  0  0  0  0  0  0  0  0  0  0  0
   -2.5820    1.0951    0.0000 C   0  0  0  0  0  0  0  0  0  0  0  0
   -1.8576   -0.2475    0.0000 C   0  0  0  0  0  0  0  0  0  0  0  0
    2.6435   -0.1237    0.0000 C   0  0  0  0  0  0  0  0  0  0  0  0
    1.7102    3.4434    0.0000 C   0  0  0  0  0  0  0  0  0  0  0  0
   -2.5721    0.1650    0.0000 C   0  0  0  0  0  0  0  0  0  0  0  0
    2.4949    3.1884    0.0000 C   0  0  0  0  0  0  0  0  0  0  0  0
    3.3580    0.2887    0.0000 C   0  0  0  0  0  0  0  0  0  0  0  0
   -3.2866   -0.2475    0.0000 C   0  0  0  0  0  0  0  0  0  0  0  0
   -4.0010    0.1650    0.0000 C   0  0  0  0  0  0  0  0  0  0  0  0
   -3.2866   -1.0725    0.0000 C   0  0  0  0  0  0  0  0  0  0  0  0
   -4.7155   -0.2475    0.0000 C   0  0  0  0  0  0  0  0  0  0  0  0
   -4.0010   -1.4850    0.0000 C   0  0  0  0  0  0  0  0  0  0  0  0
   -4.7155   -1.0725    0.0000 C   0  0  0  0  0  0  0  0  0  0  0  0
  1 21  2  0  0  0  0
  2 22  2  0  0  0  0
  3 31  2  0  0  0  0
  4 36  2  0  0  0  0
  5 36  1  0  0  0  0
  6 15  1  0  0  0  0
  6 16  1  0  0  0  0
  6 17  1  0  0  0  0
 19  7  1  1  0  0  0
  7 31  1  0  0  0  0
  8 22  1  0  0  0  0
  8 33  1  0  0  0  0
  9 27  1  0  0  0  0
 10 12  2  0  0  0  0
 10 35  1  0  0  0  0
 11 13  1  0  0  0  0
 11 35  2  0  0  0  0
 12 13  1  0  0  0  0
 14 15  1  0  0  0  0
 14 19  1  0  0  0  0
 14 21  1  1  0  0  0
 14 24  1  6  0  0  0
 15 26  1  0  0  0  0
 16 18  2  0  0  0  0
 16 23  1  0  0  0  0
 17 20  1  0  0  0  0
 17 22  1  0  0  0  0
 18 20  1  0  0  0  0
 18 25  1  0  0  0  0
 19 27  1  0  0  0  0
 21 28  1  0  0  0  0
 23 29  2  0  0  0  0
 25 30  2  0  0  0  0
 28 32  1  0  0  0  0
 29 30  1  0  0  0  0
 31 34  1  0  0  0  0
 32 36  1  0  0  0  0
 33 35  1  0  0  0  0
 34 37  1  0  0  0  0
 37 38  2  0  0  0  0
 37 39  1  0  0  0  0
 38 40  1  0  0  0  0
 39 41  2  0  0  0  0
 40 42  2  0  0  0  0
 41 42  1  0  0  0  0
M  END
> <PUBCHEM_COMPOUND_ID_TYPE>
0

> <PUBCHEM_TOTAL_CHARGE>
0

> <PUBCHEM_SUBSTANCE_ID>
310938518

> <PUBCHEM_SUBSTANCE_VERSION>
1

> <PUBCHEM_EXT_DATASOURCE_NAME>
4488

> <PUBCHEM_EXT_DATASOURCE_REGID>
SCHEMBL16116426

> <PUBCHEM_SUBSTANCE_COMMENT>
InChI=1S/C29H36N8O5/c1-18(37-21-11-7-6-10-20(21)15-22(37)28(42)31-17-25-33-35-36-34-25)29(2,24(38)12-13-27(40)41)23(16-30)32-26(39)14-19-8-4-3-5-9-19/h3-11,18,22-23H,12-17,30H2,1-2H3,(H,31,42)(H,32,39)(H,40,41)(H,33,34,35,36)/t18?,22?,23-,29-/m1/s1
InChIKey=HEWFHWCFALORGK-ZRABTMINSA-N

> <PUBCHEM_SUBSTANCE_SYNONYM>
SCHEMBL16116426

> <PUBCHEM_XREF_EXT_ID>
SCHEMBL16116426

> <PUBCHEM_EXT_DATASOURCE_URL>
https://www.surechembl.org/

> <PUBCHEM_EXT_SUBSTANCE_URL>
https://www.surechembl.org/chemical/SCHEMBL16116426

> <PUBCHEM_CID_ASSOCIATIONS>
117605971  1

> <PUBCHEM_COORDINATE_TYPE>
1
3

> <PUBCHEM_BONDANNOTATIONS>
14  21  5
14  24  6
19  7  5

$$$$
