310943915
  -OEChem-07211613022D

 33 37  0     1  0  0  0  0  0999 V2000
    2.3375    0.7865    0.0000 O   0  0  0  0  0  0  0  0  0  0  0  0
    5.3074    0.6435    0.0000 O   0  0  0  0  0  0  0  0  0  0  0  0
    5.0764    2.0845    0.0000 O   0  0  0  0  0  0  0  0  0  0  0  0
   -0.3575   -2.0845    0.0000 O   0  0  0  0  0  0  0  0  0  0  0  0
    3.3715   -0.2475    0.0000 N   0  0  0  0  0  0  0  0  0  0  0  0
    0.4675   -0.6545    0.0000 N   0  0  0  0  0  0  0  0  0  0  0  0
   -4.0534   -1.3695    0.0000 N   0  0  0  0  0  0  0  0  0  0  0  0
   -1.9965   -0.6545    0.0000 N   0  0  0  0  0  0  0  0  0  0  0  0
   -2.8215   -0.6545    0.0000 N   0  0  0  0  0  0  0  0  0  0  0  0
   -4.5374   -0.6985    0.0000 N   0  0  0  0  0  0  0  0  0  0  0  0
   -5.3074   -0.9515    0.0000 N   0  0  0  0  0  0  0  0  0  0  0  0
   -5.3074   -1.7765    0.0000 N   0  0  0  0  0  0  0  0  0  0  0  0
    2.1175   -0.6435    0.0000 C   0  0  0  0  0  0  0  0  0  0  0  0
    3.3715   -1.0615    0.0000 C   0  0  0  0  0  0  0  0  0  0  0  0
    2.6015    0.0055    0.0000 C   0  0  0  0  0  0  0  0  0  0  0  0
    2.5904   -1.3035    0.0000 C   0  0  0  0  0  0  0  0  0  0  0  0
    4.0424    0.2475    0.0000 C   0  0  0  0  0  0  0  0  0  0  0  0
    1.6995   -1.3585    0.0000 C   0  0  0  0  0  0  0  0  0  0  0  0
    1.7105    0.0605    0.0000 C   0  0  0  0  0  0  0  0  0  0  0  0
    4.1854   -1.2705    0.0000 C   0  0  0  0  0  0  0  0  0  0  0  0
    3.6134   -1.8645    0.0000 C   0  0  0  0  0  0  0  0  0  0  0  0
    4.0534    1.0724    0.0000 C   0  0  0  0  0  0  0  0  0  0  0  0
    0.8745   -1.3585    0.0000 C   0  0  0  0  0  0  0  0  0  0  0  0
    0.8745    0.0715    0.0000 C   0  0  0  0  0  0  0  0  0  0  0  0
    4.8234   -0.0055    0.0000 C   0  0  0  0  0  0  0  0  0  0  0  0
    4.8015    1.3035    0.0000 C   0  0  0  0  0  0  0  0  0  0  0  0
   -0.3575   -0.6545    0.0000 C   0  0  0  0  0  0  0  0  0  0  0  0
   -0.7645   -1.3585    0.0000 C   0  0  3  0  0  0  0  0  0  0  0  0
   -1.5894   -1.3475    0.0000 C   0  0  0  0  0  0  0  0  0  0  0  0
   -3.2394   -1.3585    0.0000 C   0  0  0  0  0  0  0  0  0  0  0  0
   -2.0075   -2.0735    0.0000 C   0  0  0  0  0  0  0  0  0  0  0  0
   -2.8215   -2.0735    0.0000 C   0  0  0  0  0  0  0  0  0  0  0  0
   -4.5374   -2.0184    0.0000 C   0  0  0  0  0  0  0  0  0  0  0  0
  1 15  2  0  0  0  0
  2 25  1  0  0  0  0
  2 26  1  0  0  0  0
  3 26  2  0  0  0  0
 28  4  1  6  0  0  0
  5 14  1  0  0  0  0
  5 15  1  0  0  0  0
  5 17  1  0  0  0  0
  6 23  1  0  0  0  0
  6 24  1  0  0  0  0
  6 27  1  0  0  0  0
  7 10  1  0  0  0  0
  7 30  1  0  0  0  0
  7 33  1  0  0  0  0
  8  9  1  0  0  0  0
  8 29  2  0  0  0  0
  9 30  2  0  0  0  0
 10 11  2  0  0  0  0
 11 12  1  0  0  0  0
 12 33  2  0  0  0  0
 13 15  1  0  0  0  0
 13 16  1  0  0  0  0
 13 18  1  0  0  0  0
 13 19  1  0  0  0  0
 14 16  1  0  0  0  0
 14 20  1  0  0  0  0
 14 21  1  0  0  0  0
 17 22  2  0  0  0  0
 17 25  1  0  0  0  0
 18 23  1  0  0  0  0
 19 24  1  0  0  0  0
 22 26  1  0  0  0  0
 27 28  1  0  0  0  0
 28 29  1  0  0  0  0
 29 31  1  0  0  0  0
 30 32  1  0  0  0  0
 31 32  2  0  0  0  0
M  END
> <PUBCHEM_COMPOUND_ID_TYPE>
0

> <PUBCHEM_TOTAL_CHARGE>
0

> <PUBCHEM_SUBSTANCE_ID>
310943915

> <PUBCHEM_SUBSTANCE_VERSION>
1

> <PUBCHEM_EXT_DATASOURCE_NAME>
4488

> <PUBCHEM_EXT_DATASOURCE_REGID>
SCHEMBL16121986

> <PUBCHEM_SUBSTANCE_COMMENT>
InChI=1S/C21H26N8O4/c1-20(2)12-21(19(32)29(20)14-9-18(31)33-11-14)5-7-27(8-6-21)10-16(30)15-3-4-17(24-23-15)28-13-22-25-26-28/h3-4,9,13,16,30H,5-8,10-12H2,1-2H3/t16-/m0/s1
InChIKey=HEYFWJWMGHCTRR-INIZCTEOSA-N

> <PUBCHEM_SUBSTANCE_SYNONYM>
SCHEMBL16121986

> <PUBCHEM_XREF_EXT_ID>
SCHEMBL16121986

> <PUBCHEM_EXT_DATASOURCE_URL>
https://www.surechembl.org/

> <PUBCHEM_EXT_SUBSTANCE_URL>
https://www.surechembl.org/chemical/SCHEMBL16121986

> <PUBCHEM_CID_ASSOCIATIONS>
86270982  1

> <PUBCHEM_COORDINATE_TYPE>
1
3

> <PUBCHEM_BONDANNOTATIONS>
28  4  6

$$$$
