310939461
  -OEChem-07211613022D

 29 31  0     1  0  0  0  0  0999 V2000
    7.2709   -3.1754    0.0000 Cl  0  0  0  0  0  0  0  0  0  0  0  0
    5.1274   -4.4129    0.0000 O   0  0  0  0  0  0  0  0  0  0  0  0
    6.5563   -4.4129    0.0000 O   0  0  0  0  0  0  0  0  0  0  0  0
    3.6984   -4.4129    0.0000 O   0  0  0  0  0  0  0  0  0  0  0  0
   11.1187   -6.3802    0.0000 O   0  0  0  0  0  0  0  0  0  0  0  0
   10.2393   -7.9033    0.0000 O   0  0  0  0  0  0  0  0  0  0  0  0
    5.1274   -5.2379    0.0000 C   0  0  3  0  0  0  0  0  0  0  0  0
    5.8419   -4.0004    0.0000 C   0  0  3  0  0  0  0  0  0  0  0  0
    4.4129   -5.6504    0.0000 C   0  0  0  0  0  0  0  0  0  0  0  0
    5.8419   -5.6504    0.0000 C   0  0  3  0  0  0  0  0  0  0  0  0
    5.8419   -3.1754    0.0000 C   0  0  0  0  0  0  0  0  0  0  0  0
    3.6984   -5.2379    0.0000 C   0  0  0  0  0  0  0  0  0  0  0  0
    6.5563   -5.2379    0.0000 C   0  0  0  0  0  0  0  0  0  0  0  0
    6.5563   -2.7629    0.0000 C   0  0  0  0  0  0  0  0  0  0  0  0
    4.4129   -6.4754    0.0000 C   0  0  0  0  0  0  0  0  0  0  0  0
    5.8419   -6.4754    0.0000 C   0  0  0  0  0  0  0  0  0  0  0  0
    5.1274   -2.7629    0.0000 C   0  0  0  0  0  0  0  0  0  0  0  0
    2.9839   -5.6504    0.0000 C   0  0  0  0  0  0  0  0  0  0  0  0
    6.5563   -1.9378    0.0000 C   0  0  0  0  0  0  0  0  0  0  0  0
    3.6984   -6.8879    0.0000 C   0  0  0  0  0  0  0  0  0  0  0  0
    5.1274   -1.9378    0.0000 C   0  0  0  0  0  0  0  0  0  0  0  0
    2.9839   -6.4754    0.0000 C   0  0  0  0  0  0  0  0  0  0  0  0
    5.8419   -1.5253    0.0000 C   0  0  0  0  0  0  0  0  0  0  0  0
    6.5563   -6.8879    0.0000 C   0  0  0  0  0  0  0  0  0  0  0  0
    7.2709   -6.4754    0.0000 C   0  0  0  0  0  0  0  0  0  0  0  0
    8.0958   -6.4754    0.0000 C   0  0  0  0  0  0  0  0  0  0  0  0
    8.8104   -6.8879    0.0000 C   0  0  0  0  0  0  0  0  0  0  0  0
    9.5248   -6.4754    0.0000 C   0  0  0  0  0  0  0  0  0  0  0  0
   10.2393   -6.8879    0.0000 C   0  0  0  0  0  0  0  0  0  0  0  0
  1 14  1  0  0  0  0
  7  2  1  1  0  0  0
  2  8  1  0  0  0  0
  3  8  1  0  0  0  0
  3 13  1  0  0  0  0
  4 12  1  0  0  0  0
  5 29  2  0  0  0  0
  6 29  1  0  0  0  0
  7  9  1  0  0  0  0
  7 10  1  0  0  0  0
  8 11  1  0  0  0  0
  9 12  2  0  0  0  0
  9 15  1  0  0  0  0
 10 13  1  0  0  0  0
 10 16  1  1  0  0  0
 11 14  2  0  0  0  0
 11 17  1  0  0  0  0
 12 18  1  0  0  0  0
 14 19  1  0  0  0  0
 15 20  2  0  0  0  0
 16 24  1  0  0  0  0
 17 21  2  0  0  0  0
 18 22  2  0  0  0  0
 19 23  2  0  0  0  0
 20 22  1  0  0  0  0
 21 23  1  0  0  0  0
 24 25  1  0  0  0  0
 25 26  2  0  0  0  0
 26 27  1  0  0  0  0
 27 28  1  0  0  0  0
 28 29  1  0  0  0  0
M  END
> <PUBCHEM_COMPOUND_ID_TYPE>
0

> <PUBCHEM_TOTAL_CHARGE>
0

> <PUBCHEM_SUBSTANCE_ID>
310939461

> <PUBCHEM_SUBSTANCE_VERSION>
1

> <PUBCHEM_EXT_DATASOURCE_NAME>
4488

> <PUBCHEM_EXT_DATASOURCE_REGID>
SCHEMBL16117385

> <PUBCHEM_SUBSTANCE_COMMENT>
InChI=1S/C23H25ClO5/c24-19-12-7-5-10-17(19)23-28-15-16(9-3-1-2-4-14-21(26)27)22(29-23)18-11-6-8-13-20(18)25/h1-2,5-8,10-13,16,22-23,25H,3-4,9,14-15H2,(H,26,27)/b2-1-/t16-,22+,23?/m1/s1
InChIKey=NCXKZILPQNQFIW-GLHFPAGISA-N

> <PUBCHEM_SUBSTANCE_SYNONYM>
SCHEMBL16117385

> <PUBCHEM_XREF_EXT_ID>
SCHEMBL16117385

> <PUBCHEM_EXT_DATASOURCE_URL>
https://www.surechembl.org/

> <PUBCHEM_EXT_SUBSTANCE_URL>
https://www.surechembl.org/chemical/SCHEMBL16117385

> <PUBCHEM_CID_ASSOCIATIONS>
117606776  1

> <PUBCHEM_COORDINATE_TYPE>
1
3

> <PUBCHEM_BONDANNOTATIONS>
10  16  5
7  2  5

$$$$
