310943328
  -OEChem-07211613022D

 33 36  0     0  0  0  0  0  0999 V2000
    4.0652    0.3019    0.0000 F   0  0  0  0  0  0  0  0  0  0  0  0
    4.8901    0.3019    0.0000 F   0  0  0  0  0  0  0  0  0  0  0  0
   -3.4466   -0.8470    0.0000 O   0  0  0  0  0  0  0  0  0  0  0  0
   -4.8901    1.6423    0.0000 O   0  0  0  0  0  0  0  0  0  0  0  0
    0.8691   -0.8470    0.0000 O   0  0  0  0  0  0  0  0  0  0  0  0
   -2.0179   -0.8322    0.0000 N   0  0  0  0  0  0  0  0  0  0  0  0
   -3.4614    0.8175    0.0000 N   0  0  0  0  0  0  0  0  0  0  0  0
    0.1473    2.0695    0.0000 N   0  0  0  0  0  0  0  0  0  0  0  0
    1.5907    0.4051    0.0000 N   0  0  0  0  0  0  0  0  0  0  0  0
    3.7412   -1.6570    0.0000 N   0  0  0  0  0  0  0  0  0  0  0  0
   -1.2814    0.4051    0.0000 C   0  0  0  0  0  0  0  0  0  0  0  0
   -2.7249    0.4051    0.0000 C   0  0  0  0  0  0  0  0  0  0  0  0
   -0.5892    0.8322    0.0000 C   0  0  0  0  0  0  0  0  0  0  0  0
   -2.7249   -0.4051    0.0000 C   0  0  0  0  0  0  0  0  0  0  0  0
   -2.0179    0.8175    0.0000 C   0  0  0  0  0  0  0  0  0  0  0  0
   -1.2962   -0.4198    0.0000 C   0  0  0  0  0  0  0  0  0  0  0  0
   -0.5597    1.6570    0.0000 C   0  0  0  0  0  0  0  0  0  0  0  0
    0.1767    0.4198    0.0000 C   0  0  0  0  0  0  0  0  0  0  0  0
    0.8543    0.8322    0.0000 C   0  0  0  0  0  0  0  0  0  0  0  0
    0.8691    1.6423    0.0000 C   0  0  0  0  0  0  0  0  0  0  0  0
    1.5907   -0.4051    0.0000 C   0  0  0  0  0  0  0  0  0  0  0  0
    2.3125   -0.8322    0.0000 C   0  0  0  0  0  0  0  0  0  0  0  0
   -3.4614    1.6570    0.0000 C   0  0  0  0  0  0  0  0  0  0  0  0
   -4.1536    0.4198    0.0000 C   0  0  0  0  0  0  0  0  0  0  0  0
   -1.9884   -1.6865    0.0000 C   0  0  0  0  0  0  0  0  0  0  0  0
    3.7560   -0.8322    0.0000 C   0  0  0  0  0  0  0  0  0  0  0  0
    3.0195   -0.4198    0.0000 C   0  0  0  0  0  0  0  0  0  0  0  0
   -1.2962    2.0547    0.0000 C   0  0  0  0  0  0  0  0  0  0  0  0
    2.3125   -1.6570    0.0000 C   0  0  0  0  0  0  0  0  0  0  0  0
   -4.1684    2.0695    0.0000 C   0  0  0  0  0  0  0  0  0  0  0  0
   -4.8901    0.8175    0.0000 C   0  0  0  0  0  0  0  0  0  0  0  0
    4.4482   -0.4051    0.0000 C   0  0  0  0  0  0  0  0  0  0  0  0
    3.0490   -2.0695    0.0000 C   0  0  0  0  0  0  0  0  0  0  0  0
  1 32  1  0  0  0  0
  2 32  1  0  0  0  0
  3 14  2  0  0  0  0
  4 30  1  0  0  0  0
  4 31  1  0  0  0  0
  5 21  2  0  0  0  0
  6 14  1  0  0  0  0
  6 16  1  0  0  0  0
  6 25  1  0  0  0  0
  7 12  1  0  0  0  0
  7 23  1  0  0  0  0
  7 24  1  0  0  0  0
  8 17  1  0  0  0  0
  8 20  2  0  0  0  0
  9 19  1  0  0  0  0
  9 21  1  0  0  0  0
 10 26  1  0  0  0  0
 10 33  2  0  0  0  0
 11 13  1  0  0  0  0
 11 15  1  0  0  0  0
 11 16  2  0  0  0  0
 12 14  1  0  0  0  0
 12 15  2  0  0  0  0
 13 17  2  0  0  0  0
 13 18  1  0  0  0  0
 17 28  1  0  0  0  0
 18 19  2  0  0  0  0
 19 20  1  0  0  0  0
 21 22  1  0  0  0  0
 22 27  1  0  0  0  0
 22 29  2  0  0  0  0
 23 30  1  0  0  0  0
 24 31  1  0  0  0  0
 26 27  2  0  0  0  0
 26 32  1  0  0  0  0
 29 33  1  0  0  0  0
M  END
> <PUBCHEM_COMPOUND_ID_TYPE>
0

> <PUBCHEM_TOTAL_CHARGE>
0

> <PUBCHEM_SUBSTANCE_ID>
310943328

> <PUBCHEM_SUBSTANCE_VERSION>
1

> <PUBCHEM_EXT_DATASOURCE_NAME>
4488

> <PUBCHEM_EXT_DATASOURCE_REGID>
SCHEMBL16121390

> <PUBCHEM_SUBSTANCE_COMMENT>
InChI=1S/C23H23F2N5O3/c1-14-18(16-10-20(23(32)29(2)13-16)30-5-7-33-8-6-30)11-17(12-27-14)28-22(31)15-3-4-26-19(9-15)21(24)25/h3-4,9-13,21H,5-8H2,1-2H3,(H,28,31)
InChIKey=KLICMIWUQDOPGS-UHFFFAOYSA-N

> <PUBCHEM_SUBSTANCE_SYNONYM>
SCHEMBL16121390

> <PUBCHEM_XREF_EXT_ID>
SCHEMBL16121390

> <PUBCHEM_EXT_DATASOURCE_URL>
https://www.surechembl.org/

> <PUBCHEM_EXT_SUBSTANCE_URL>
https://www.surechembl.org/chemical/SCHEMBL16121390

> <PUBCHEM_CID_ASSOCIATIONS>
117609753  1

> <PUBCHEM_COORDINATE_TYPE>
1
3

$$$$
