310938339
  -OEChem-07211613022D

 17 17  0     0  0  0  0  0  0999 V2000
    0.0000   -2.8556    0.0000 F   0  0  0  0  0  0  0  0  0  0  0  0
    0.7185   -1.6213    0.0000 F   0  0  0  0  0  0  0  0  0  0  0  0
    0.0000   -2.0450    0.0000 F   0  0  0  0  0  0  0  0  0  0  0  0
    1.4370   -3.6847    0.0000 O   0  0  0  0  0  0  0  0  0  0  0  0
    3.5741   -2.4503    0.0000 N   0  0  0  0  0  0  0  0  0  0  0  0
    2.1555    0.0000    0.0000 N   0  0  0  0  0  0  0  0  0  0  0  0
    2.1371   -2.4503    0.0000 C   0  0  0  0  0  0  0  0  0  0  0  0
    1.4370   -2.8556    0.0000 C   0  0  0  0  0  0  0  0  0  0  0  0
    0.7185   -2.4503    0.0000 C   0  0  0  0  0  0  0  0  0  0  0  0
    2.1371   -1.6213    0.0000 C   0  0  0  0  0  0  0  0  0  0  0  0
    2.8556   -2.8556    0.0000 C   0  0  0  0  0  0  0  0  0  0  0  0
    2.8372   -1.2344    0.0000 C   0  0  0  0  0  0  0  0  0  0  0  0
    1.4186   -1.2344    0.0000 C   0  0  0  0  0  0  0  0  0  0  0  0
    2.8741   -0.4053    0.0000 C   0  0  0  0  0  0  0  0  0  0  0  0
    1.4555   -0.3869    0.0000 C   0  0  0  0  0  0  0  0  0  0  0  0
    4.2742   -2.8556    0.0000 C   0  0  0  0  0  0  0  0  0  0  0  0
    3.5741   -1.6213    0.0000 C   0  0  0  0  0  0  0  0  0  0  0  0
  1  9  1  0  0  0  0
  2  9  1  0  0  0  0
  3  9  1  0  0  0  0
  4  8  2  0  0  0  0
  5 11  1  0  0  0  0
  5 16  1  0  0  0  0
  5 17  1  0  0  0  0
  6 14  2  0  0  0  0
  6 15  1  0  0  0  0
  7  8  1  0  0  0  0
  7 10  1  0  0  0  0
  7 11  2  0  0  0  0
  8  9  1  0  0  0  0
 10 12  2  0  0  0  0
 10 13  1  0  0  0  0
 12 14  1  0  0  0  0
 13 15  2  0  0  0  0
M  END
> <PUBCHEM_COMPOUND_ID_TYPE>
0

> <PUBCHEM_TOTAL_CHARGE>
0

> <PUBCHEM_SUBSTANCE_ID>
310938339

> <PUBCHEM_SUBSTANCE_VERSION>
1

> <PUBCHEM_EXT_DATASOURCE_NAME>
4488

> <PUBCHEM_EXT_DATASOURCE_REGID>
SCHEMBL16116221

> <PUBCHEM_SUBSTANCE_COMMENT>
InChI=1S/C11H11F3N2O/c1-16(2)7-9(10(17)11(12,13)14)8-3-5-15-6-4-8/h3-7H,1-2H3/b9-7+
InChIKey=YWBADQSQBJMUCH-VQHVLOKHSA-N

> <PUBCHEM_SUBSTANCE_SYNONYM>
SCHEMBL16116221

> <PUBCHEM_XREF_EXT_ID>
SCHEMBL16116221

> <PUBCHEM_EXT_DATASOURCE_URL>
https://www.surechembl.org/

> <PUBCHEM_EXT_SUBSTANCE_URL>
https://www.surechembl.org/chemical/SCHEMBL16116221

> <PUBCHEM_CID_ASSOCIATIONS>
10105860  1

> <PUBCHEM_COORDINATE_TYPE>
1
3

$$$$
