310942055
  -OEChem-07211613022D

 16 18  0     0  0  0  0  0  0999 V2000
    0.0137    0.0823    0.0000 N   0  0  0  0  0  0  0  0  0  0  0  0
   -1.4678    0.3978    0.0000 N   0  0  0  0  0  0  0  0  0  0  0  0
   -0.4116    1.3717    0.0000 C   0  0  0  0  0  0  0  0  0  0  0  0
    0.4253    1.3580    0.0000 C   0  0  0  0  0  0  0  0  0  0  0  0
   -0.6859    0.5899    0.0000 C   0  0  0  0  0  0  0  0  0  0  0  0
    0.6722    0.6036    0.0000 C   0  0  0  0  0  0  0  0  0  0  0  0
   -0.9740    1.9753    0.0000 C   0  0  0  0  0  0  0  0  0  0  0  0
    0.9603    1.9753    0.0000 C   0  0  0  0  0  0  0  0  0  0  0  0
    1.4815    0.4253    0.0000 C   0  0  0  0  0  0  0  0  0  0  0  0
    0.0000   -0.7270    0.0000 C   0  0  0  0  0  0  0  0  0  0  0  0
   -1.7559    1.8107    0.0000 C   0  0  0  0  0  0  0  0  0  0  0  0
   -2.0165    1.0151    0.0000 C   0  0  0  0  0  0  0  0  0  0  0  0
    1.7559    1.8244    0.0000 C   0  0  0  0  0  0  0  0  0  0  0  0
    2.0165    1.0288    0.0000 C   0  0  0  0  0  0  0  0  0  0  0  0
   -0.6859   -1.1249    0.0000 C   0  0  0  0  0  0  0  0  0  0  0  0
   -0.6996   -1.9753    0.0000 C   0  0  0  0  0  0  0  0  0  0  0  0
  1  5  1  0  0  0  0
  1  6  1  0  0  0  0
  1 10  1  0  0  0  0
  2  5  2  0  0  0  0
  2 12  1  0  0  0  0
  3  4  1  0  0  0  0
  3  5  1  0  0  0  0
  3  7  2  0  0  0  0
  4  6  2  0  0  0  0
  4  8  1  0  0  0  0
  6  9  1  0  0  0  0
  7 11  1  0  0  0  0
  8 13  2  0  0  0  0
  9 14  2  0  0  0  0
 10 15  1  0  0  0  0
 11 12  2  0  0  0  0
 13 14  1  0  0  0  0
 15 16  1  0  0  0  0
M  END
> <PUBCHEM_COMPOUND_ID_TYPE>
0

> <PUBCHEM_TOTAL_CHARGE>
0

> <PUBCHEM_SUBSTANCE_ID>
310942055

> <PUBCHEM_SUBSTANCE_VERSION>
1

> <PUBCHEM_EXT_DATASOURCE_NAME>
4488

> <PUBCHEM_EXT_DATASOURCE_REGID>
SCHEMBL16120090

> <PUBCHEM_SUBSTANCE_COMMENT>
InChI=1S/C14H14N2/c1-2-10-16-13-8-4-3-6-11(13)12-7-5-9-15-14(12)16/h3-9H,2,10H2,1H3
InChIKey=LFWPGJYCXIPWBQ-UHFFFAOYSA-N

> <PUBCHEM_SUBSTANCE_SYNONYM>
SCHEMBL16120090

> <PUBCHEM_XREF_EXT_ID>
SCHEMBL16120090

> <PUBCHEM_EXT_DATASOURCE_URL>
https://www.surechembl.org/

> <PUBCHEM_EXT_SUBSTANCE_URL>
https://www.surechembl.org/chemical/SCHEMBL16120090

> <PUBCHEM_CID_ASSOCIATIONS>
117608733  1

> <PUBCHEM_COORDINATE_TYPE>
1
3

$$$$
