310949615
  -OEChem-07211613022D

 21 23  0     0  0  0  0  0  0999 V2000
   -1.7309    1.3414    0.0000 O   0  0  0  0  0  0  0  0  0  0  0  0
   -1.0261    2.5778    0.0000 O   0  0  0  0  0  0  0  0  0  0  0  0
    1.9287    0.2658    0.0000 N   0  0  0  0  0  0  0  0  0  0  0  0
    2.4108    0.9334    0.0000 N   0  0  0  0  0  0  0  0  0  0  0  0
    1.1251    0.5255    0.0000 C   0  0  0  0  0  0  0  0  0  0  0  0
    1.1374    1.3538    0.0000 C   0  0  0  0  0  0  0  0  0  0  0  0
    1.9040    1.6010    0.0000 C   0  0  0  0  0  0  0  0  0  0  0  0
    0.4327    1.7494    0.0000 C   0  0  0  0  0  0  0  0  0  0  0  0
   -0.2967    1.3414    0.0000 C   0  0  0  0  0  0  0  0  0  0  0  0
    0.4327    0.1174    0.0000 C   0  0  0  0  0  0  0  0  0  0  0  0
    2.3366   -0.4389    0.0000 C   0  0  0  0  0  0  0  0  0  0  0  0
   -0.2843    0.5255    0.0000 C   0  0  0  0  0  0  0  0  0  0  0  0
   -1.0138    1.7494    0.0000 C   0  0  0  0  0  0  0  0  0  0  0  0
    1.7185   -1.1684    0.0000 C   0  0  0  0  0  0  0  0  0  0  0  0
    2.3243    2.3058    0.0000 C   0  0  0  0  0  0  0  0  0  0  0  0
    0.9272   -1.0447    0.0000 C   0  0  0  0  0  0  0  0  0  0  0  0
    2.0029   -1.9472    0.0000 C   0  0  0  0  0  0  0  0  0  0  0  0
    0.3956   -1.6629    0.0000 C   0  0  0  0  0  0  0  0  0  0  0  0
    1.4836   -2.5778    0.0000 C   0  0  0  0  0  0  0  0  0  0  0  0
    0.6676   -2.4418    0.0000 C   0  0  0  0  0  0  0  0  0  0  0  0
   -2.4108    1.7494    0.0000 C   0  0  0  0  0  0  0  0  0  0  0  0
  1 13  1  0  0  0  0
  1 21  1  0  0  0  0
  2 13  2  0  0  0  0
  3  4  1  0  0  0  0
  3  5  1  0  0  0  0
  3 11  1  0  0  0  0
  4  7  2  0  0  0  0
  5  6  1  0  0  0  0
  5 10  2  0  0  0  0
  6  7  1  0  0  0  0
  6  8  2  0  0  0  0
  7 15  1  0  0  0  0
  8  9  1  0  0  0  0
  9 12  2  0  0  0  0
  9 13  1  0  0  0  0
 10 12  1  0  0  0  0
 11 14  1  0  0  0  0
 14 16  2  0  0  0  0
 14 17  1  0  0  0  0
 16 18  1  0  0  0  0
 17 19  2  0  0  0  0
 18 20  2  0  0  0  0
 19 20  1  0  0  0  0
M  END
> <PUBCHEM_COMPOUND_ID_TYPE>
0

> <PUBCHEM_TOTAL_CHARGE>
0

> <PUBCHEM_SUBSTANCE_ID>
310949615

> <PUBCHEM_SUBSTANCE_VERSION>
1

> <PUBCHEM_EXT_DATASOURCE_NAME>
4488

> <PUBCHEM_EXT_DATASOURCE_REGID>
SCHEMBL16127813

> <PUBCHEM_SUBSTANCE_COMMENT>
InChI=1S/C17H16N2O2/c1-12-15-10-14(17(20)21-2)8-9-16(15)19(18-12)11-13-6-4-3-5-7-13/h3-10H,11H2,1-2H3
InChIKey=LZDPTPITVDHMBG-UHFFFAOYSA-N

> <PUBCHEM_SUBSTANCE_SYNONYM>
SCHEMBL16127813

> <PUBCHEM_XREF_EXT_ID>
SCHEMBL16127813

> <PUBCHEM_EXT_DATASOURCE_URL>
https://www.surechembl.org/

> <PUBCHEM_EXT_SUBSTANCE_URL>
https://www.surechembl.org/chemical/SCHEMBL16127813

> <PUBCHEM_CID_ASSOCIATIONS>
117615006  1

> <PUBCHEM_COORDINATE_TYPE>
1
3

$$$$
