310948390
  -OEChem-07211613022D

 32 35  0     1  0  0  0  0  0999 V2000
    2.7832   -1.8095    0.0000 S   0  0  0  0  0  0  0  0  0  0  0  0
    0.6561   -0.8978    0.0000 O   0  0  0  0  0  0  0  0  0  0  0  0
    3.4463   -1.3260    0.0000 O   0  0  0  0  0  0  0  0  0  0  0  0
    3.2667   -2.4725    0.0000 O   0  0  0  0  0  0  0  0  0  0  0  0
   -1.2915    1.0636    0.0000 N   0  0  0  0  0  0  0  0  0  0  0  0
   -0.5456    1.3951    0.0000 N   0  0  0  0  0  0  0  0  0  0  0  0
    0.8357    0.8702    0.0000 N   0  0  0  0  0  0  0  0  0  0  0  0
   -0.6976   -1.3399    0.0000 N   0  0  0  0  0  0  0  0  0  0  0  0
   -0.5871    3.1355    0.0000 N   0  0  0  0  0  0  0  0  0  0  0  0
   -0.4075    0.0691    0.0000 C   0  0  0  0  0  0  0  0  0  0  0  0
   -1.2224    0.2348    0.0000 C   0  0  0  0  0  0  0  0  0  0  0  0
    0.0069    0.7873    0.0000 C   0  0  0  0  0  0  0  0  0  0  0  0
   -2.0236    1.4780    0.0000 C   0  0  3  0  0  0  0  0  0  0  0  0
   -0.1588   -0.7044    0.0000 C   0  0  0  0  0  0  0  0  0  0  0  0
   -1.7473   -0.3729    0.0000 C   0  0  0  0  0  0  0  0  0  0  0  0
    2.2998   -1.1327    0.0000 C   0  0  0  0  0  0  0  0  0  0  0  0
    1.3053    0.2072    0.0000 C   0  0  0  0  0  0  0  0  0  0  0  0
   -2.0236    2.3067    0.0000 C   0  0  3  0  0  0  0  0  0  0  0  0
    2.1064   -2.2929    0.0000 C   0  0  0  0  0  0  0  0  0  0  0  0
   -1.5125   -1.1603    0.0000 C   0  0  0  0  0  0  0  0  0  0  0  0
   -2.7280    1.0636    0.0000 C   0  0  0  0  0  0  0  0  0  0  0  0
    2.6313   -0.3729    0.0000 C   0  0  0  0  0  0  0  0  0  0  0  0
    1.4711   -1.2155    0.0000 C   0  0  0  0  0  0  0  0  0  0  0  0
    2.1617    0.2763    0.0000 C   0  0  0  0  0  0  0  0  0  0  0  0
    1.0014   -0.5387    0.0000 C   0  0  0  0  0  0  0  0  0  0  0  0
   -2.7418    2.7073    0.0000 C   0  0  0  0  0  0  0  0  0  0  0  0
   -1.3053    2.7073    0.0000 C   0  0  0  0  0  0  0  0  0  0  0  0
   -3.4463    1.4780    0.0000 C   0  0  0  0  0  0  0  0  0  0  0  0
   -3.4463    2.2929    0.0000 C   0  0  0  0  0  0  0  0  0  0  0  0
    1.3468   -1.9614    0.0000 C   0  0  0  0  0  0  0  0  0  0  0  0
    1.4572   -2.8040    0.0000 C   0  0  0  0  0  0  0  0  0  0  0  0
    2.2169   -3.1355    0.0000 C   0  0  0  0  0  0  0  0  0  0  0  0
  1  3  2  0  0  0  0
  1  4  2  0  0  0  0
  1 16  1  0  0  0  0
  1 19  1  0  0  0  0
  2 14  2  0  0  0  0
  5  6  1  0  0  0  0
  5 11  1  0  0  0  0
 13  5  1  1  0  0  0
  6 12  2  0  0  0  0
  7 12  1  0  0  0  0
  7 17  1  0  0  0  0
  8 14  1  0  0  0  0
  8 20  1  0  0  0  0
  9 27  3  0  0  0  0
 10 11  2  0  0  0  0
 10 12  1  0  0  0  0
 10 14  1  0  0  0  0
 11 15  1  0  0  0  0
 13 18  1  0  0  0  0
 13 21  1  0  0  0  0
 15 20  2  0  0  0  0
 16 22  2  0  0  0  0
 16 23  1  0  0  0  0
 17 24  2  0  0  0  0
 17 25  1  0  0  0  0
 18 26  1  0  0  0  0
 18 27  1  6  0  0  0
 19 30  1  0  0  0  0
 19 31  1  0  0  0  0
 19 32  1  0  0  0  0
 21 28  1  0  0  0  0
 22 24  1  0  0  0  0
 23 25  2  0  0  0  0
 26 29  1  0  0  0  0
 28 29  1  0  0  0  0
M  END
> <PUBCHEM_COMPOUND_ID_TYPE>
0

> <PUBCHEM_TOTAL_CHARGE>
0

> <PUBCHEM_SUBSTANCE_ID>
310948390

> <PUBCHEM_SUBSTANCE_VERSION>
1

> <PUBCHEM_EXT_DATASOURCE_NAME>
4488

> <PUBCHEM_EXT_DATASOURCE_REGID>
SCHEMBL16126571

> <PUBCHEM_SUBSTANCE_COMMENT>
InChI=1S/C23H27N5O3S/c1-23(2,3)32(30,31)17-10-8-16(9-11-17)26-21-20-19(12-13-25-22(20)29)28(27-21)18-7-5-4-6-15(18)14-24/h8-13,15,18H,4-7H2,1-3H3,(H,25,29)(H,26,27)/t15-,18+/m1/s1
InChIKey=MIOFBJPHSJSMQP-QAPCUYQASA-N

> <PUBCHEM_SUBSTANCE_SYNONYM>
SCHEMBL16126571

> <PUBCHEM_XREF_EXT_ID>
SCHEMBL16126571

> <PUBCHEM_EXT_DATASOURCE_URL>
https://www.surechembl.org/

> <PUBCHEM_EXT_SUBSTANCE_URL>
https://www.surechembl.org/chemical/SCHEMBL16126571

> <PUBCHEM_CID_ASSOCIATIONS>
117613951  1

> <PUBCHEM_COORDINATE_TYPE>
1
3

> <PUBCHEM_BONDANNOTATIONS>
18  27  6
13  5  5

$$$$
