310939343
  -OEChem-07211613022D

 26 27  0     1  0  0  0  0  0999 V2000
    1.4289    1.4437    0.0000 Cl  0  0  0  0  0  0  0  0  0  0  0  0
    4.2868    1.4438    0.0000 Cl  0  0  0  0  0  0  0  0  0  0  0  0
    0.0000   -1.0313    0.0000 F   0  0  0  0  0  0  0  0  0  0  0  0
    1.4289   -0.2063    0.0000 O   0  0  0  0  0  0  0  0  0  0  0  0
   -4.2868   -0.2063    0.0000 O   0  0  0  0  0  0  0  0  0  0  0  0
   -2.1434    0.2062    0.0000 N   0  0  0  0  0  0  0  0  0  0  0  0
   -3.5724    1.0312    0.0000 N   0  0  0  0  0  0  0  0  0  0  0  0
    0.7145    0.2062    0.0000 C   0  0  0  0  0  0  0  0  0  0  0  0
    0.0000   -0.2063    0.0000 C   0  0  0  0  0  0  0  0  0  0  0  0
   -0.7145    0.2062    0.0000 C   0  0  0  0  0  0  0  0  0  0  0  0
    0.7145    1.0312    0.0000 C   0  0  0  0  0  0  0  0  0  0  0  0
   -1.4289   -0.2063    0.0000 C   0  0  3  0  0  0  0  0  0  0  0  0
   -0.7145    1.0312    0.0000 C   0  0  0  0  0  0  0  0  0  0  0  0
    0.0000    1.4438    0.0000 C   0  0  0  0  0  0  0  0  0  0  0  0
    2.1434    0.2062    0.0000 C   0  0  0  0  0  0  0  0  0  0  0  0
   -1.4289   -1.0313    0.0000 C   0  0  0  0  0  0  0  0  0  0  0  0
    2.8579   -0.2062    0.0000 C   0  0  0  0  0  0  0  0  0  0  0  0
    2.1434    1.0312    0.0000 C   0  0  0  0  0  0  0  0  0  0  0  0
   -2.1434    1.0312    0.0000 C   0  0  3  0  0  0  0  0  0  0  0  0
    3.5724    1.0312    0.0000 C   0  0  0  0  0  0  0  0  0  0  0  0
    3.5724    0.2062    0.0000 C   0  0  0  0  0  0  0  0  0  0  0  0
    2.8579    1.4437    0.0000 C   0  0  0  0  0  0  0  0  0  0  0  0
   -2.8579    1.4437    0.0000 C   0  0  0  0  0  0  0  0  0  0  0  0
   -0.7145   -1.4438    0.0000 C   0  0  0  0  0  0  0  0  0  0  0  0
   -1.4289    1.4437    0.0000 C   0  0  0  0  0  0  0  0  0  0  0  0
   -3.5724    0.2062    0.0000 C   0  0  0  0  0  0  0  0  0  0  0  0
  1 11  1  0  0  0  0
  2 20  1  0  0  0  0
  3  9  1  0  0  0  0
  4  8  1  0  0  0  0
  4 15  1  0  0  0  0
  5 26  2  0  0  0  0
 12  6  1  1  0  0  0
  6 19  1  0  0  0  0
  7 23  1  0  0  0  0
  7 26  1  0  0  0  0
  8  9  2  0  0  0  0
  8 11  1  0  0  0  0
  9 10  1  0  0  0  0
 10 12  1  0  0  0  0
 10 13  2  0  0  0  0
 11 14  2  0  0  0  0
 12 16  1  0  0  0  0
 13 14  1  0  0  0  0
 15 17  2  0  0  0  0
 15 18  1  0  0  0  0
 16 24  1  0  0  0  0
 17 21  1  0  0  0  0
 18 22  2  0  0  0  0
 19 23  1  0  0  0  0
 19 25  1  6  0  0  0
 20 21  2  0  0  0  0
 20 22  1  0  0  0  0
M  END
> <PUBCHEM_COMPOUND_ID_TYPE>
0

> <PUBCHEM_TOTAL_CHARGE>
0

> <PUBCHEM_SUBSTANCE_ID>
310939343

> <PUBCHEM_SUBSTANCE_VERSION>
1

> <PUBCHEM_EXT_DATASOURCE_NAME>
4488

> <PUBCHEM_EXT_DATASOURCE_REGID>
SCHEMBL16117264

> <PUBCHEM_SUBSTANCE_COMMENT>
InChI=1S/C19H21Cl2FN2O2/c1-3-17(24-12(2)10-23-11-25)15-8-9-16(21)19(18(15)22)26-14-6-4-13(20)5-7-14/h4-9,11-12,17,24H,3,10H2,1-2H3,(H,23,25)/t12-,17+/m0/s1
InChIKey=KRYDYNHKAWIJKT-YVEFUNNKSA-N

> <PUBCHEM_SUBSTANCE_SYNONYM>
SCHEMBL16117264

> <PUBCHEM_XREF_EXT_ID>
SCHEMBL16117264

> <PUBCHEM_EXT_DATASOURCE_URL>
https://www.surechembl.org/

> <PUBCHEM_EXT_SUBSTANCE_URL>
https://www.surechembl.org/chemical/SCHEMBL16117264

> <PUBCHEM_CID_ASSOCIATIONS>
117606670  1

> <PUBCHEM_COORDINATE_TYPE>
1
3

> <PUBCHEM_BONDANNOTATIONS>
19  25  6
12  6  5

$$$$
