310948878
  -OEChem-07211613022D

 56 60  0     1  0  0  0  0  0999 V2000
   -4.6002    1.0037    0.0000 P   0  0  3  0  0  0  0  0  0  0  0  0
   -5.3336    0.5791    0.0000 O   0  0  0  0  0  0  0  0  0  0  0  0
   -6.8392   -0.8107    0.0000 O   0  0  0  0  0  0  0  0  0  0  0  0
  -11.4587    2.3291    0.0000 O   0  0  0  0  0  0  0  0  0  0  0  0
   -4.2013    0.2702    0.0000 O   0  0  0  0  0  0  0  0  0  0  0  0
   -4.6131    1.8272    0.0000 O   0  0  0  0  0  0  0  0  0  0  0  0
   -0.9071    1.8272    0.0000 O   0  0  0  0  0  0  0  0  0  0  0  0
   -8.7436    1.4154    0.0000 N   0  0  0  0  0  0  0  0  0  0  0  0
   -9.5414    2.4963    0.0000 N   0  0  0  0  0  0  0  0  0  0  0  0
   -9.7473    0.3989    0.0000 N   0  0  0  0  0  0  0  0  0  0  0  0
  -11.1885    0.9780    0.0000 N   0  0  0  0  0  0  0  0  0  0  0  0
  -10.9183   -0.4889    0.0000 N   0  0  0  0  0  0  0  0  0  0  0  0
   -3.7638    1.0037    0.0000 N   0  0  0  0  0  0  0  0  0  0  0  0
   -1.6020    0.5791    0.0000 N   0  0  0  0  0  0  0  0  0  0  0  0
   -8.0230    1.0037    0.0000 C   0  0  3  0  0  0  0  0  0  0  0  0
   -9.5543    1.1709    0.0000 C   0  0  0  0  0  0  0  0  0  0  0  0
  -10.0303    1.8272    0.0000 C   0  0  0  0  0  0  0  0  0  0  0  0
   -7.2509    1.2353    0.0000 C   0  0  0  0  0  0  0  0  0  0  0  0
   -6.7620    0.5791    0.0000 C   0  0  3  0  0  0  0  0  0  0  0  0
   -7.2509   -0.0772    0.0000 C   0  0  3  0  0  0  0  0  0  0  0  0
   -8.0230    0.1673    0.0000 C   0  0  0  0  0  0  0  0  0  0  0  0
   -8.7565    2.2389    0.0000 C   0  0  0  0  0  0  0  0  0  0  0  0
  -10.8410    1.7371    0.0000 C   0  0  0  0  0  0  0  0  0  0  0  0
  -10.7123    0.3217    0.0000 C   0  0  0  0  0  0  0  0  0  0  0  0
   -6.0285    0.9908    0.0000 C   0  0  0  0  0  0  0  0  0  0  0  0
   -6.8263    1.9687    0.0000 C   0  0  0  0  0  0  0  0  0  0  0  0
   -4.4072   -0.5276    0.0000 C   0  0  0  0  0  0  0  0  0  0  0  0
   -3.8024   -1.1066    0.0000 C   0  0  0  0  0  0  0  0  0  0  0  0
   -4.0340   -1.9044    0.0000 C   0  0  0  0  0  0  0  0  0  0  0  0
   -5.1921   -0.7463    0.0000 C   0  0  0  0  0  0  0  0  0  0  0  0
   -3.0046   -0.9007    0.0000 C   0  0  0  0  0  0  0  0  0  0  0  0
   -4.8318   -2.1103    0.0000 C   0  0  0  0  0  0  0  0  0  0  0  0
   -5.3980   -1.5441    0.0000 C   0  0  0  0  0  0  0  0  0  0  0  0
   -3.4164   -2.4963    0.0000 C   0  0  0  0  0  0  0  0  0  0  0  0
   -3.0432    0.5791    0.0000 C   0  0  0  0  0  0  0  0  0  0  0  0
   -2.4256   -1.4798    0.0000 C   0  0  0  0  0  0  0  0  0  0  0  0
   -2.6443   -2.2905    0.0000 C   0  0  0  0  0  0  0  0  0  0  0  0
   -2.3226    1.0037    0.0000 C   0  0  0  0  0  0  0  0  0  0  0  0
   -0.8943    0.9908    0.0000 C   0  0  0  0  0  0  0  0  0  0  0  0
   -0.1609    0.5791    0.0000 C   0  0  0  0  0  0  0  0  0  0  0  0
    0.5598    1.0037    0.0000 C   0  0  0  0  0  0  0  0  0  0  0  0
    1.2803    0.5791    0.0000 C   0  0  0  0  0  0  0  0  0  0  0  0
    1.9880    0.9908    0.0000 C   0  0  0  0  0  0  0  0  0  0  0  0
    2.7215    0.5920    0.0000 C   0  0  0  0  0  0  0  0  0  0  0  0
    3.4292    0.9908    0.0000 C   0  0  0  0  0  0  0  0  0  0  0  0
    4.1627    0.5920    0.0000 C   0  0  0  0  0  0  0  0  0  0  0  0
    4.8704    1.0037    0.0000 C   0  0  0  0  0  0  0  0  0  0  0  0
    5.7197    0.9908    0.0000 C   0  0  0  0  0  0  0  0  0  0  0  0
    6.4274    0.5791    0.0000 C   0  0  0  0  0  0  0  0  0  0  0  0
    7.1480    1.0037    0.0000 C   0  0  0  0  0  0  0  0  0  0  0  0
    7.8686    0.5791    0.0000 C   0  0  0  0  0  0  0  0  0  0  0  0
    8.5763    0.9908    0.0000 C   0  0  0  0  0  0  0  0  0  0  0  0
    9.3098    0.5920    0.0000 C   0  0  0  0  0  0  0  0  0  0  0  0
   10.0175    0.9908    0.0000 C   0  0  0  0  0  0  0  0  0  0  0  0
   10.7510    0.5920    0.0000 C   0  0  0  0  0  0  0  0  0  0  0  0
   11.4587    1.0037    0.0000 C   0  0  0  0  0  0  0  0  0  0  0  0
  1  2  1  0  0  0  0
  1  5  1  0  0  0  0
  1  6  2  0  0  0  0
  1 13  1  0  0  0  0
  2 25  1  0  0  0  0
 20  3  1  1  0  0  0
  4 23  2  0  0  0  0
  5 27  1  0  0  0  0
  7 39  2  0  0  0  0
  8 15  1  0  0  0  0
  8 16  1  0  0  0  0
  8 22  1  0  0  0  0
  9 17  1  0  0  0  0
  9 22  2  0  0  0  0
 10 16  1  0  0  0  0
 10 24  1  0  0  0  0
 11 23  1  0  0  0  0
 11 24  2  0  0  0  0
 12 24  1  0  0  0  0
 13 35  1  0  0  0  0
 14 38  1  0  0  0  0
 14 39  1  0  0  0  0
 15 18  1  0  0  0  0
 15 21  1  0  0  0  0
 16 17  2  0  0  0  0
 17 23  1  0  0  0  0
 18 19  1  0  0  0  0
 18 26  2  0  0  0  0
 19 20  1  0  0  0  0
 19 25  1  6  0  0  0
 20 21  1  0  0  0  0
 27 28  1  0  0  0  0
 27 30  2  0  0  0  0
 28 29  2  0  0  0  0
 28 31  1  0  0  0  0
 29 32  1  0  0  0  0
 29 34  1  0  0  0  0
 30 33  1  0  0  0  0
 31 36  2  0  0  0  0
 32 33  2  0  0  0  0
 34 37  2  0  0  0  0
 35 38  1  0  0  0  0
 36 37  1  0  0  0  0
 39 40  1  0  0  0  0
 40 41  1  0  0  0  0
 41 42  1  0  0  0  0
 42 43  1  0  0  0  0
 43 44  1  0  0  0  0
 44 45  1  0  0  0  0
 45 46  1  0  0  0  0
 46 47  1  0  0  0  0
 47 48  2  0  0  0  0
 48 49  1  0  0  0  0
 49 50  1  0  0  0  0
 50 51  1  0  0  0  0
 51 52  1  0  0  0  0
 52 53  1  0  0  0  0
 53 54  1  0  0  0  0
 54 55  1  0  0  0  0
 55 56  1  0  0  0  0
M  END
> <PUBCHEM_COMPOUND_ID_TYPE>
0

> <PUBCHEM_TOTAL_CHARGE>
0

> <PUBCHEM_SUBSTANCE_ID>
310948878

> <PUBCHEM_SUBSTANCE_VERSION>
1

> <PUBCHEM_EXT_DATASOURCE_NAME>
4488

> <PUBCHEM_EXT_DATASOURCE_REGID>
SCHEMBL16127063

> <PUBCHEM_SUBSTANCE_COMMENT>
InChI=1S/C42H60N7O6P/c1-3-4-5-6-7-8-9-10-11-12-13-14-15-16-17-25-38(51)44-26-27-46-56(53,55-37-24-20-22-32-21-18-19-23-33(32)37)54-29-34-31(2)35(28-36(34)50)49-30-45-39-40(49)47-42(43)48-41(39)52/h10-11,18-24,30,34-36,50H,2-9,12-17,25-29H2,1H3,(H,44,51)(H,46,53)(H3,43,47,48,52)/b11-10-/t34-,35?,36-,56?/m0/s1
InChIKey=LEHYKXKBUGWIAM-LJFGJQGUSA-N

> <PUBCHEM_SUBSTANCE_SYNONYM>
SCHEMBL16127063

> <PUBCHEM_XREF_EXT_ID>
SCHEMBL16127063

> <PUBCHEM_EXT_DATASOURCE_URL>
https://www.surechembl.org/

> <PUBCHEM_EXT_SUBSTANCE_URL>
https://www.surechembl.org/chemical/SCHEMBL16127063

> <PUBCHEM_CID_ASSOCIATIONS>
117614408  1

> <PUBCHEM_COORDINATE_TYPE>
1
3

> <PUBCHEM_BONDANNOTATIONS>
19  25  6
20  3  5

$$$$
