310944186
  -OEChem-07211613022D

 35 39  0     1  0  0  0  0  0999 V2000
   -3.4636   -1.6326    0.0000 F   0  0  0  0  0  0  0  0  0  0  0  0
   -2.0297   -1.6326    0.0000 F   0  0  0  0  0  0  0  0  0  0  0  0
    2.4157   -0.0331    0.0000 O   0  0  0  0  0  0  0  0  0  0  0  0
    5.0080   -1.5664    0.0000 O   0  0  0  0  0  0  0  0  0  0  0  0
    5.4822   -0.1655    0.0000 O   0  0  0  0  0  0  0  0  0  0  0  0
   -1.3126   -1.2244    0.0000 O   0  0  0  0  0  0  0  0  0  0  0  0
    2.8791   -1.4339    0.0000 N   0  0  0  0  0  0  0  0  0  0  0  0
    0.1213   -0.4081    0.0000 N   0  0  0  0  0  0  0  0  0  0  0  0
   -4.1696    1.2464    0.0000 N   0  0  0  0  0  0  0  0  0  0  0  0
   -2.7356    1.2575    0.0000 N   0  0  0  0  0  0  0  0  0  0  0  0
   -4.2579    2.0628    0.0000 N   0  0  0  0  0  0  0  0  0  0  0  0
   -5.0632    2.2502    0.0000 N   0  0  0  0  0  0  0  0  0  0  0  0
   -5.4822    1.5333    0.0000 N   0  0  0  0  0  0  0  0  0  0  0  0
    1.5444   -1.2134    0.0000 C   0  0  0  0  0  0  0  0  0  0  0  0
    2.2723   -0.8714    0.0000 C   0  0  0  0  0  0  0  0  0  0  0  0
    3.6953   -1.3236    0.0000 C   0  0  0  0  0  0  0  0  0  0  0  0
    1.5995   -2.0297    0.0000 C   0  0  0  0  0  0  0  0  0  0  0  0
    2.3937   -2.2502    0.0000 C   0  0  0  0  0  0  0  0  0  0  0  0
    0.8494   -1.6216    0.0000 C   0  0  0  0  0  0  0  0  0  0  0  0
    1.5553   -0.3971    0.0000 C   0  0  0  0  0  0  0  0  0  0  0  0
    4.0703   -0.5847    0.0000 C   0  0  0  0  0  0  0  0  0  0  0  0
    4.2689   -1.9193    0.0000 C   0  0  0  0  0  0  0  0  0  0  0  0
    0.1103   -1.2134    0.0000 C   0  0  0  0  0  0  0  0  0  0  0  0
    0.8274    0.0220    0.0000 C   0  0  0  0  0  0  0  0  0  0  0  0
    4.8867   -0.7611    0.0000 C   0  0  0  0  0  0  0  0  0  0  0  0
   -2.0297    0.0220    0.0000 C   0  0  0  0  0  0  0  0  0  0  0  0
   -2.7247   -0.3971    0.0000 C   0  0  0  0  0  0  0  0  0  0  0  0
   -1.2906   -0.3860    0.0000 C   0  0  3  0  0  0  0  0  0  0  0  0
   -0.6178    0.0111    0.0000 C   0  0  0  0  0  0  0  0  0  0  0  0
   -3.4526    0.8383    0.0000 C   0  0  0  0  0  0  0  0  0  0  0  0
   -3.4526    0.0220    0.0000 C   0  0  0  0  0  0  0  0  0  0  0  0
   -2.0186    0.8383    0.0000 C   0  0  0  0  0  0  0  0  0  0  0  0
   -2.7467   -1.2134    0.0000 C   0  0  0  0  0  0  0  0  0  0  0  0
    3.7174    0.1765    0.0000 C   0  0  0  0  0  0  0  0  0  0  0  0
   -4.9308    0.9266    0.0000 C   0  0  0  0  0  0  0  0  0  0  0  0
  1 33  1  0  0  0  0
  2 33  1  0  0  0  0
  3 15  2  0  0  0  0
  4 22  1  0  0  0  0
  4 25  1  0  0  0  0
  5 25  2  0  0  0  0
 28  6  1  6  0  0  0
  7 15  1  0  0  0  0
  7 16  1  0  0  0  0
  7 18  1  0  0  0  0
  8 23  1  0  0  0  0
  8 24  1  0  0  0  0
  8 29  1  0  0  0  0
  9 11  1  0  0  0  0
  9 30  1  0  0  0  0
  9 35  1  0  0  0  0
 10 30  1  0  0  0  0
 10 32  2  0  0  0  0
 11 12  2  0  0  0  0
 12 13  1  0  0  0  0
 13 35  2  0  0  0  0
 14 15  1  0  0  0  0
 14 17  1  0  0  0  0
 14 19  1  0  0  0  0
 14 20  1  0  0  0  0
 16 21  2  0  0  0  0
 16 22  1  0  0  0  0
 17 18  1  0  0  0  0
 19 23  1  0  0  0  0
 20 24  1  0  0  0  0
 21 25  1  0  0  0  0
 21 34  1  0  0  0  0
 26 27  2  0  0  0  0
 26 28  1  0  0  0  0
 26 32  1  0  0  0  0
 27 31  1  0  0  0  0
 27 33  1  0  0  0  0
 28 29  1  0  0  0  0
 30 31  2  0  0  0  0
M  END
> <PUBCHEM_COMPOUND_ID_TYPE>
0

> <PUBCHEM_TOTAL_CHARGE>
0

> <PUBCHEM_SUBSTANCE_ID>
310944186

> <PUBCHEM_SUBSTANCE_VERSION>
1

> <PUBCHEM_EXT_DATASOURCE_NAME>
4488

> <PUBCHEM_EXT_DATASOURCE_REGID>
SCHEMBL16122261

> <PUBCHEM_SUBSTANCE_COMMENT>
InChI=1S/C22H25F2N7O4/c1-13-16(11-35-20(13)33)30-7-4-22(21(30)34)2-5-29(6-3-22)10-17(32)15-9-25-18(8-14(15)19(23)24)31-12-26-27-28-31/h8-9,12,17,19,32H,2-7,10-11H2,1H3/t17-/m0/s1
InChIKey=XTNAFWUKAXJPHI-KRWDZBQOSA-N

> <PUBCHEM_SUBSTANCE_SYNONYM>
SCHEMBL16122261

> <PUBCHEM_XREF_EXT_ID>
SCHEMBL16122261

> <PUBCHEM_EXT_DATASOURCE_URL>
https://www.surechembl.org/

> <PUBCHEM_EXT_SUBSTANCE_URL>
https://www.surechembl.org/chemical/SCHEMBL16122261

> <PUBCHEM_CID_ASSOCIATIONS>
117610460  1

> <PUBCHEM_COORDINATE_TYPE>
1
3

> <PUBCHEM_BONDANNOTATIONS>
28  6  6

$$$$
