310938889
  -OEChem-07211613022D

 18 18  0     1  0  0  0  0  0999 V2000
   -1.0975   -1.7309    0.0000 O   0  0  0  0  0  0  0  0  0  0  0  0
    3.2336    0.7587    0.0000 O   0  0  0  0  0  0  0  0  0  0  0  0
   -0.0074    1.7309    0.0000 O   0  0  0  0  0  0  0  0  0  0  0  0
   -0.3757    0.3461    0.0000 N   0  0  0  0  0  0  0  0  0  0  0  0
   -1.8193   -0.4787    0.0000 N   0  0  0  0  0  0  0  0  0  0  0  0
   -2.5412   -0.8913    0.0000 N   0  0  0  0  0  0  0  0  0  0  0  0
   -0.3757   -0.4787    0.0000 C   0  0  3  0  0  0  0  0  0  0  0  0
    1.0680   -0.4787    0.0000 C   0  0  0  0  0  0  0  0  0  0  0  0
   -1.0975   -0.8765    0.0000 C   0  0  0  0  0  0  0  0  0  0  0  0
    0.3609   -0.8913    0.0000 C   0  0  0  0  0  0  0  0  0  0  0  0
    1.0828    0.3461    0.0000 C   0  0  0  0  0  0  0  0  0  0  0  0
    1.8046   -0.8913    0.0000 C   0  0  0  0  0  0  0  0  0  0  0  0
    2.5117    0.3461    0.0000 C   0  0  0  0  0  0  0  0  0  0  0  0
    0.2136    0.9354    0.0000 C   0  0  0  0  0  0  0  0  0  0  0  0
    1.7751    0.7439    0.0000 C   0  0  0  0  0  0  0  0  0  0  0  0
    2.4970   -0.4787    0.0000 C   0  0  0  0  0  0  0  0  0  0  0  0
    1.0386    0.7292    0.0000 C   0  0  0  0  0  0  0  0  0  0  0  0
   -3.2336   -0.5229    0.0000 C   0  0  0  0  0  0  0  0  0  0  0  0
  1  9  2  0  0  0  0
  2 13  1  0  0  0  0
  3 14  2  0  0  0  0
  7  4  1  6  0  0  0
  4 14  1  0  0  0  0
  5  6  1  0  0  0  0
  5  9  1  0  0  0  0
  6 18  1  0  0  0  0
  7  9  1  0  0  0  0
  7 10  1  0  0  0  0
  8 10  1  0  0  0  0
  8 11  2  0  0  0  0
  8 12  1  0  0  0  0
 11 15  1  0  0  0  0
 12 16  2  0  0  0  0
 13 15  2  0  0  0  0
 13 16  1  0  0  0  0
 14 17  1  0  0  0  0
M  END
> <PUBCHEM_COMPOUND_ID_TYPE>
0

> <PUBCHEM_TOTAL_CHARGE>
0

> <PUBCHEM_SUBSTANCE_ID>
310938889

> <PUBCHEM_SUBSTANCE_VERSION>
1

> <PUBCHEM_EXT_DATASOURCE_NAME>
4488

> <PUBCHEM_EXT_DATASOURCE_REGID>
SCHEMBL16116808

> <PUBCHEM_SUBSTANCE_COMMENT>
InChI=1S/C12H17N3O3/c1-8(16)14-11(12(18)15-13-2)7-9-3-5-10(17)6-4-9/h3-6,11,13,17H,7H2,1-2H3,(H,14,16)(H,15,18)/t11-/m1/s1
InChIKey=BLGJLBQLYSZDGL-LLVKDONJSA-N

> <PUBCHEM_SUBSTANCE_SYNONYM>
SCHEMBL16116808

> <PUBCHEM_XREF_EXT_ID>
SCHEMBL16116808

> <PUBCHEM_EXT_DATASOURCE_URL>
https://www.surechembl.org/

> <PUBCHEM_EXT_SUBSTANCE_URL>
https://www.surechembl.org/chemical/SCHEMBL16116808

> <PUBCHEM_CID_ASSOCIATIONS>
117606287  1

> <PUBCHEM_COORDINATE_TYPE>
1
3

> <PUBCHEM_BONDANNOTATIONS>
7  4  6

$$$$
