310942741
  -OEChem-07211613022D

 55 60  0     1  0  0  0  0  0999 V2000
   -4.7398    2.8917    0.0000 F   0  0  0  0  0  0  0  0  0  0  0  0
   -4.7398   -0.4333    0.0000 F   0  0  0  0  0  0  0  0  0  0  0  0
   -1.9455    0.7693    0.0000 O   0  0  0  0  0  0  0  0  0  0  0  0
    2.3168    0.6809    0.0000 O   0  0  0  0  0  0  0  0  0  0  0  0
    0.6367    3.9528    0.0000 O   0  0  0  0  0  0  0  0  0  0  0  0
   -1.1142   -0.6632    0.0000 O   0  0  0  0  0  0  0  0  0  0  0  0
    3.7671    0.6809    0.0000 O   0  0  0  0  0  0  0  0  0  0  0  0
    2.5999   -4.3596    0.0000 O   0  0  0  0  0  0  0  0  0  0  0  0
    5.4296   -5.1024    0.0000 O   0  0  0  0  0  0  0  0  0  0  0  0
    3.9263   -2.3257    0.0000 O   0  0  0  0  0  0  0  0  0  0  0  0
   -2.2992    2.9624    0.0000 N   0  0  0  0  0  0  0  0  0  0  0  0
   -0.7074    1.4767    0.0000 N   0  0  0  0  0  0  0  0  0  0  0  0
   -2.5645    1.6536    0.0000 N   0  0  0  0  0  0  0  0  0  0  0  0
    2.3522    2.8032    0.0000 N   0  0  0  0  0  0  0  0  0  0  0  0
    2.8298   -0.5394    0.0000 N   0  0  0  0  0  0  0  0  0  0  0  0
    4.0855   -4.5187    0.0000 N   0  0  0  0  0  0  0  0  0  0  0  0
   -1.9631    2.2373    0.0000 C   0  0  0  0  0  0  0  0  0  0  0  0
   -1.1142    2.2019    0.0000 C   0  0  3  0  0  0  0  0  0  0  0  0
   -3.3073    2.0781    0.0000 C   0  0  0  0  0  0  0  0  0  0  0  0
   -0.5306    2.8209    0.0000 C   0  0  0  0  0  0  0  0  0  0  0  0
   -3.0950    2.8740    0.0000 C   0  0  0  0  0  0  0  0  0  0  0  0
   -4.0147    1.6536    0.0000 C   0  0  0  0  0  0  0  0  0  0  0  0
   -1.0965    0.7693    0.0000 C   0  0  0  0  0  0  0  0  0  0  0  0
    0.5660    1.4945    0.0000 C   0  0  0  0  0  0  0  0  0  0  0  0
   -1.8571    3.8997    0.0000 C   0  0  0  0  0  0  0  0  0  0  0  0
   -4.7221    2.0604    0.0000 C   0  0  0  0  0  0  0  0  0  0  0  0
    1.3795    1.8836    0.0000 C   0  0  3  0  0  0  0  0  0  0  0  0
   -0.7428    3.5637    0.0000 C   0  0  0  0  0  0  0  0  0  0  0  0
    0.2829    2.5733    0.0000 C   0  0  0  0  0  0  0  0  0  0  0  0
   -4.0147    0.8224    0.0000 C   0  0  0  0  0  0  0  0  0  0  0  0
   -2.4583    4.4833    0.0000 C   0  0  0  0  0  0  0  0  0  0  0  0
   -0.7074    0.0619    0.0000 C   0  0  3  0  0  0  0  0  0  0  0  0
    2.1223    1.4767    0.0000 C   0  0  3  0  0  0  0  0  0  0  0  0
   -4.7221    0.4156    0.0000 C   0  0  0  0  0  0  0  0  0  0  0  0
   -5.4296    1.6536    0.0000 C   0  0  0  0  0  0  0  0  0  0  0  0
    1.5386    2.6971    0.0000 C   0  0  0  0  0  0  0  0  0  0  0  0
   -0.1592    4.1650    0.0000 C   0  0  0  0  0  0  0  0  0  0  0  0
    0.8666    3.1569    0.0000 C   0  0  0  0  0  0  0  0  0  0  0  0
   -5.4296    0.8224    0.0000 C   0  0  0  0  0  0  0  0  0  0  0  0
    2.7059    2.0604    0.0000 C   0  0  0  0  0  0  0  0  0  0  0  0
   -2.2461    5.2793    0.0000 C   0  0  0  0  0  0  0  0  0  0  0  0
   -3.2365    4.2712    0.0000 C   0  0  0  0  0  0  0  0  0  0  0  0
    0.1238    0.0443    0.0000 C   0  0  0  0  0  0  0  0  0  0  0  0
    3.0243    0.2564    0.0000 C   0  0  0  0  0  0  0  0  0  0  0  0
   -2.7944    5.8452    0.0000 C   0  0  0  0  0  0  0  0  0  0  0  0
   -3.8202    4.8371    0.0000 C   0  0  0  0  0  0  0  0  0  0  0  0
   -3.6079    5.6506    0.0000 C   0  0  0  0  0  0  0  0  0  0  0  0
    3.3249   -4.8194    0.0000 C   0  0  0  0  0  0  0  0  0  0  0  0
    4.5806   -5.1555    0.0000 C   0  0  0  0  0  0  0  0  0  0  0  0
    3.3603   -5.6330    0.0000 C   0  0  0  0  0  0  0  0  0  0  0  0
    4.1562   -5.8452    0.0000 C   0  0  0  0  0  0  0  0  0  0  0  0
    3.5549   -0.9462    0.0000 C   0  0  0  0  0  0  0  0  0  0  0  0
    4.2977   -3.7052    0.0000 C   0  0  0  0  0  0  0  0  0  0  0  0
    3.7140   -3.1393    0.0000 C   0  0  0  0  0  0  0  0  0  0  0  0
    3.3427   -1.7421    0.0000 C   0  0  0  0  0  0  0  0  0  0  0  0
  1 26  1  0  0  0  0
  2 34  1  0  0  0  0
  3 23  2  0  0  0  0
 33  4  1  1  0  0  0
  4 44  1  0  0  0  0
  5 37  1  0  0  0  0
  5 38  1  0  0  0  0
 32  6  1  6  0  0  0
  7 44  2  0  0  0  0
  8 48  2  0  0  0  0
  9 49  2  0  0  0  0
 10 54  1  0  0  0  0
 10 55  1  0  0  0  0
 11 17  1  0  0  0  0
 11 21  1  0  0  0  0
 11 25  1  0  0  0  0
 18 12  1  1  0  0  0
 12 23  1  0  0  0  0
 12 24  1  0  0  0  0
 13 17  2  0  0  0  0
 13 19  1  0  0  0  0
 14 36  1  0  0  0  0
 14 40  1  0  0  0  0
 15 44  1  0  0  0  0
 15 52  1  0  0  0  0
 16 48  1  0  0  0  0
 16 49  1  0  0  0  0
 16 53  1  0  0  0  0
 17 18  1  0  0  0  0
 18 20  1  0  0  0  0
 19 21  2  0  0  0  0
 19 22  1  0  0  0  0
 20 28  1  0  0  0  0
 20 29  1  0  0  0  0
 22 26  2  0  0  0  0
 22 30  1  0  0  0  0
 23 32  1  0  0  0  0
 27 24  1  6  0  0  0
 25 31  1  0  0  0  0
 26 35  1  0  0  0  0
 27 33  1  0  0  0  0
 27 36  1  0  0  0  0
 28 37  1  0  0  0  0
 29 38  1  0  0  0  0
 30 34  2  0  0  0  0
 31 41  2  0  0  0  0
 31 42  1  0  0  0  0
 32 43  1  0  0  0  0
 33 40  1  0  0  0  0
 34 39  1  0  0  0  0
 35 39  2  0  0  0  0
 41 45  1  0  0  0  0
 42 46  2  0  0  0  0
 45 47  2  0  0  0  0
 46 47  1  0  0  0  0
 48 50  1  0  0  0  0
 49 51  1  0  0  0  0
 50 51  2  0  0  0  0
 52 55  1  0  0  0  0
 53 54  1  0  0  0  0
M  END
> <PUBCHEM_COMPOUND_ID_TYPE>
0

> <PUBCHEM_TOTAL_CHARGE>
0

> <PUBCHEM_SUBSTANCE_ID>
310942741

> <PUBCHEM_SUBSTANCE_VERSION>
1

> <PUBCHEM_EXT_DATASOURCE_NAME>
4488

> <PUBCHEM_EXT_DATASOURCE_REGID>
SCHEMBL16120793

> <PUBCHEM_SUBSTANCE_COMMENT>
InChI=1S/C39H46F2N6O8/c1-25(48)38(51)47(23-28-20-42-21-33(28)55-39(52)43-13-17-54-18-14-46-34(49)9-10-35(46)50)36(27-11-15-53-16-12-27)37-44-32(30-19-29(40)7-8-31(30)41)24-45(37)22-26-5-3-2-4-6-26/h2-10,19,24-25,27-28,33,36,42,48H,11-18,20-23H2,1H3,(H,43,52)/t25-,28-,33+,36+/m0/s1
InChIKey=NFGFWTCUKQKCRC-HGKXDPNRSA-N

> <PUBCHEM_SUBSTANCE_SYNONYM>
SCHEMBL16120793

> <PUBCHEM_XREF_EXT_ID>
SCHEMBL16120793

> <PUBCHEM_EXT_DATASOURCE_URL>
https://www.surechembl.org/

> <PUBCHEM_EXT_SUBSTANCE_URL>
https://www.surechembl.org/chemical/SCHEMBL16120793

> <PUBCHEM_CID_ASSOCIATIONS>
117609261  1

> <PUBCHEM_COORDINATE_TYPE>
1
3

> <PUBCHEM_BONDANNOTATIONS>
18  12  5
27  24  6
33  4  5
32  6  6

$$$$
