310940401
  -OEChem-07211613022D

 14 14  0     0  0  0  0  0  0999 V2000
   -1.7959   -1.2628    0.0000 O   0  0  0  0  0  0  0  0  0  0  0  0
    1.7959   -0.0190    0.0000 O   0  0  0  0  0  0  0  0  0  0  0  0
   -0.2094    1.2247    0.0000 N   0  3  0  0  0  0  0  0  0  0  0  0
   -0.3490    0.4251    0.0000 C   0  0  0  0  0  0  0  0  0  0  0  0
    0.3871    0.0063    0.0000 C   0  0  0  0  0  0  0  0  0  0  0  0
   -1.0598    0.0063    0.0000 C   0  0  0  0  0  0  0  0  0  0  0  0
   -1.0724   -0.8186    0.0000 C   0  0  0  0  0  0  0  0  0  0  0  0
    0.3744   -0.8186    0.0000 C   0  0  0  0  0  0  0  0  0  0  0  0
   -0.3363   -1.2247    0.0000 C   0  0  0  0  0  0  0  0  0  0  0  0
    1.0851    0.3998    0.0000 C   0  0  0  0  0  0  0  0  0  0  0  0
    0.3871    1.6435    0.0000 C   0  0  0  0  0  0  0  0  0  0  0  0
   -0.3490    2.0877    0.0000 C   0  0  0  0  0  0  0  0  0  0  0  0
   -1.0724    1.6435    0.0000 C   0  0  0  0  0  0  0  0  0  0  0  0
   -1.7959   -2.0877    0.0000 C   0  0  0  0  0  0  0  0  0  0  0  0
  1  7  1  0  0  0  0
  1 14  1  0  0  0  0
  2 10  2  0  0  0  0
  3  4  1  0  0  0  0
  3 11  1  0  0  0  0
  3 12  1  0  0  0  0
  3 13  1  0  0  0  0
  4  5  2  0  0  0  0
  4  6  1  0  0  0  0
  5  8  1  0  0  0  0
  5 10  1  0  0  0  0
  6  7  2  0  0  0  0
  7  9  1  0  0  0  0
  8  9  2  0  0  0  0
M  CHG  1   3   1
M  END
> <PUBCHEM_COMPOUND_ID_TYPE>
0

> <PUBCHEM_TOTAL_CHARGE>
1

> <PUBCHEM_SUBSTANCE_ID>
310940401

> <PUBCHEM_SUBSTANCE_VERSION>
1

> <PUBCHEM_EXT_DATASOURCE_NAME>
4488

> <PUBCHEM_EXT_DATASOURCE_REGID>
SCHEMBL16118349

> <PUBCHEM_SUBSTANCE_COMMENT>
InChI=1S/C11H16NO2/c1-12(2,3)11-7-10(14-4)6-5-9(11)8-13/h5-8H,1-4H3/q+1
InChIKey=YIRITLUTXKEDKM-UHFFFAOYSA-N

> <PUBCHEM_SUBSTANCE_SYNONYM>
SCHEMBL16118349

> <PUBCHEM_XREF_EXT_ID>
SCHEMBL16118349

> <PUBCHEM_EXT_DATASOURCE_URL>
https://www.surechembl.org/

> <PUBCHEM_EXT_SUBSTANCE_URL>
https://www.surechembl.org/chemical/SCHEMBL16118349

> <PUBCHEM_CID_ASSOCIATIONS>
57461915  1

> <PUBCHEM_COORDINATE_TYPE>
1
3

$$$$
