310933564
  -OEChem-07211613022D

 29 33  0     0  0  0  0  0  0999 V2000
    4.2454   -2.8858    0.0000 O   0  0  0  0  0  0  0  0  0  0  0  0
    0.4440   -0.3885    0.0000 O   0  0  0  0  0  0  0  0  0  0  0  0
    5.5496   -2.2198    0.0000 O   0  0  0  0  0  0  0  0  0  0  0  0
    4.2454   -1.5539    0.0000 N   0  0  0  0  0  0  0  0  0  0  0  0
    0.0000   -1.1099    0.0000 N   0  0  0  0  0  0  0  0  0  0  0  0
    3.4130   -5.1334    0.0000 N   0  0  0  0  0  0  0  0  0  0  0  0
    2.7193   -3.0523    0.0000 C   0  0  0  0  0  0  0  0  0  0  0  0
    3.4407   -2.6638    0.0000 C   0  0  0  0  0  0  0  0  0  0  0  0
    3.4407   -1.8036    0.0000 C   0  0  0  0  0  0  0  0  0  0  0  0
    2.0256   -1.8036    0.0000 C   0  0  0  0  0  0  0  0  0  0  0  0
    2.7193   -3.8847    0.0000 C   0  0  0  0  0  0  0  0  0  0  0  0
    1.3319   -1.3874    0.0000 C   0  0  0  0  0  0  0  0  0  0  0  0
    2.0256   -2.6638    0.0000 C   0  0  0  0  0  0  0  0  0  0  0  0
    2.7193   -1.3874    0.0000 C   0  0  0  0  0  0  0  0  0  0  0  0
    3.4130   -4.3287    0.0000 C   0  0  0  0  0  0  0  0  0  0  0  0
    4.7171   -2.2198    0.0000 C   0  0  0  0  0  0  0  0  0  0  0  0
    1.2209   -0.5549    0.0000 C   0  0  0  0  0  0  0  0  0  0  0  0
    0.5827   -1.7203    0.0000 C   0  0  0  0  0  0  0  0  0  0  0  0
    1.9978   -4.3010    0.0000 C   0  0  0  0  0  0  0  0  0  0  0  0
    4.1344   -3.9125    0.0000 C   0  0  0  0  0  0  0  0  0  0  0  0
    1.9978   -5.1056    0.0000 C   0  0  0  0  0  0  0  0  0  0  0  0
    2.6915   -5.5496    0.0000 C   0  0  0  0  0  0  0  0  0  0  0  0
    4.1622   -3.0800    0.0000 C   0  0  0  0  0  0  0  0  0  0  0  0
    4.8559   -4.3287    0.0000 C   0  0  0  0  0  0  0  0  0  0  0  0
    1.8314    0.0000    0.0000 C   0  0  0  0  0  0  0  0  0  0  0  0
    0.3885   -2.5251    0.0000 C   0  0  0  0  0  0  0  0  0  0  0  0
    4.8837   -2.6915    0.0000 C   0  0  0  0  0  0  0  0  0  0  0  0
    5.5773   -3.9402    0.0000 C   0  0  0  0  0  0  0  0  0  0  0  0
    5.5773   -3.1078    0.0000 C   0  0  0  0  0  0  0  0  0  0  0  0
  1  8  1  0  0  0  0
  1 16  1  0  0  0  0
  2  5  1  0  0  0  0
  2 17  1  0  0  0  0
  3 16  2  0  0  0  0
  4  9  1  0  0  0  0
  4 16  1  0  0  0  0
  5 18  2  0  0  0  0
  6 15  1  0  0  0  0
  6 22  2  0  0  0  0
  7  8  1  0  0  0  0
  7 11  1  0  0  0  0
  7 13  2  0  0  0  0
  8  9  2  0  0  0  0
  9 14  1  0  0  0  0
 10 12  1  0  0  0  0
 10 13  1  0  0  0  0
 10 14  2  0  0  0  0
 11 15  2  0  0  0  0
 11 19  1  0  0  0  0
 12 17  2  0  0  0  0
 12 18  1  0  0  0  0
 15 20  1  0  0  0  0
 17 25  1  0  0  0  0
 18 26  1  0  0  0  0
 19 21  2  0  0  0  0
 20 23  2  0  0  0  0
 20 24  1  0  0  0  0
 21 22  1  0  0  0  0
 23 27  1  0  0  0  0
 24 28  2  0  0  0  0
 27 29  2  0  0  0  0
 28 29  1  0  0  0  0
M  END
> <PUBCHEM_COMPOUND_ID_TYPE>
0

> <PUBCHEM_TOTAL_CHARGE>
0

> <PUBCHEM_SUBSTANCE_ID>
310933564

> <PUBCHEM_SUBSTANCE_VERSION>
1

> <PUBCHEM_EXT_DATASOURCE_NAME>
4488

> <PUBCHEM_EXT_DATASOURCE_REGID>
SCHEMBL16110987

> <PUBCHEM_SUBSTANCE_COMMENT>
InChI=1S/C23H17N3O3/c1-13-20(14(2)29-26-13)16-11-18(22-19(12-16)25-23(27)28-22)17-9-6-10-24-21(17)15-7-4-3-5-8-15/h3-12H,1-2H3,(H,25,27)
InChIKey=LMWJSCUJKDFDNC-UHFFFAOYSA-N

> <PUBCHEM_SUBSTANCE_SYNONYM>
SCHEMBL16110987

> <PUBCHEM_XREF_EXT_ID>
SCHEMBL16110987

> <PUBCHEM_EXT_DATASOURCE_URL>
https://www.surechembl.org/

> <PUBCHEM_EXT_SUBSTANCE_URL>
https://www.surechembl.org/chemical/SCHEMBL16110987

> <PUBCHEM_CID_ASSOCIATIONS>
86296579  1

> <PUBCHEM_COORDINATE_TYPE>
1
3

$$$$
