310944504
  -OEChem-07211613022D

 14 14  0     0  0  0  0  0  0999 V2000
   -1.3429   -0.8264    0.0000 Cl  0  0  0  0  0  0  0  0  0  0  0  0
    0.3296   -1.6429    0.0000 Cl  0  0  0  0  0  0  0  0  0  0  0  0
    1.7561   -0.8067    0.0000 Cl  0  0  0  0  0  0  0  0  0  0  0  0
    0.3394    1.6429    0.0000 F   0  0  0  0  0  0  0  0  0  0  0  0
   -1.7561    0.3443    0.0000 O   0  0  0  0  0  0  0  0  0  0  0  0
   -1.1560    1.6429    0.0000 N   0  0  0  0  0  0  0  0  0  0  0  0
   -0.3886    0.4427    0.0000 C   0  0  0  0  0  0  0  0  0  0  0  0
   -0.3984   -0.3837    0.0000 C   0  0  0  0  0  0  0  0  0  0  0  0
    0.3296    0.8460    0.0000 C   0  0  0  0  0  0  0  0  0  0  0  0
    0.3198   -0.8067    0.0000 C   0  0  0  0  0  0  0  0  0  0  0  0
    1.0477    0.4427    0.0000 C   0  0  0  0  0  0  0  0  0  0  0  0
    1.0281   -0.3837    0.0000 C   0  0  0  0  0  0  0  0  0  0  0  0
   -1.1166    0.8165    0.0000 C   0  0  0  0  0  0  0  0  0  0  0  0
    1.5199    0.7181    0.0000 C   0  0  0  0  0  0  0  0  0  0  0  0
  1  8  1  0  0  0  0
  2 10  1  0  0  0  0
  3 12  1  0  0  0  0
  4  9  1  0  0  0  0
  5 13  2  0  0  0  0
  6 13  1  0  0  0  0
  7  8  2  0  0  0  0
  7  9  1  0  0  0  0
  7 13  1  0  0  0  0
  8 10  1  0  0  0  0
  9 11  2  0  0  0  0
 10 12  2  0  0  0  0
 11 12  1  0  0  0  0
 11 14  1  0  0  0  0
M  END
> <PUBCHEM_COMPOUND_ID_TYPE>
0

> <PUBCHEM_TOTAL_CHARGE>
0

> <PUBCHEM_SUBSTANCE_ID>
310944504

> <PUBCHEM_SUBSTANCE_VERSION>
1

> <PUBCHEM_EXT_DATASOURCE_NAME>
4488

> <PUBCHEM_EXT_DATASOURCE_REGID>
SCHEMBL16122579

> <PUBCHEM_SUBSTANCE_COMMENT>
InChI=1S/C8H5Cl3FNO/c1-2-4(9)6(11)5(10)3(7(2)12)8(13)14/h1H3,(H2,13,14)
InChIKey=NNIOWXIZPOTYIA-UHFFFAOYSA-N

> <PUBCHEM_SUBSTANCE_SYNONYM>
SCHEMBL16122579

> <PUBCHEM_XREF_EXT_ID>
SCHEMBL16122579

> <PUBCHEM_EXT_DATASOURCE_URL>
https://www.surechembl.org/

> <PUBCHEM_EXT_SUBSTANCE_URL>
https://www.surechembl.org/chemical/SCHEMBL16122579

> <PUBCHEM_CID_ASSOCIATIONS>
117610741  1

> <PUBCHEM_COORDINATE_TYPE>
1
3

$$$$
