310947144
  -OEChem-07211613022D

 29 32  0     0  0  0  0  0  0999 V2000
   -0.9244   -1.7901    0.0000 Cl  0  0  0  0  0  0  0  0  0  0  0  0
    4.0498   -0.7777    0.0000 S   0  0  0  0  0  0  0  0  0  0  0  0
   -3.4776   -0.4109    0.0000 O   0  0  0  0  0  0  0  0  0  0  0  0
    3.6390   -0.0587    0.0000 O   0  0  0  0  0  0  0  0  0  0  0  0
    4.4754   -1.4966    0.0000 O   0  0  0  0  0  0  0  0  0  0  0  0
   -3.8151    1.7901    0.0000 O   0  0  0  0  0  0  0  0  0  0  0  0
    0.3961   -1.0125    0.0000 N   0  0  0  0  0  0  0  0  0  0  0  0
    0.3961    0.3229    0.0000 N   0  0  0  0  0  0  0  0  0  0  0  0
    1.8929    0.4842    0.0000 N   0  0  0  0  0  0  0  0  0  0  0  0
    3.3309   -1.1739    0.0000 N   0  0  0  0  0  0  0  0  0  0  0  0
   -2.5825    1.0859    0.0000 N   0  0  0  0  0  0  0  0  0  0  0  0
   -0.0734   -0.3521    0.0000 C   0  0  0  0  0  0  0  0  0  0  0  0
    1.1739   -0.7484    0.0000 C   0  0  0  0  0  0  0  0  0  0  0  0
    1.2032    0.0587    0.0000 C   0  0  0  0  0  0  0  0  0  0  0  0
   -0.9097   -0.3375    0.0000 C   0  0  0  0  0  0  0  0  0  0  0  0
    1.9222   -1.1739    0.0000 C   0  0  0  0  0  0  0  0  0  0  0  0
   -1.3206   -1.0711    0.0000 C   0  0  0  0  0  0  0  0  0  0  0  0
    2.6119   -0.7484    0.0000 C   0  0  0  0  0  0  0  0  0  0  0  0
   -1.3206    0.3521    0.0000 C   0  0  0  0  0  0  0  0  0  0  0  0
   -2.1423    0.3669    0.0000 C   0  0  0  0  0  0  0  0  0  0  0  0
    2.6412    0.0440    0.0000 C   0  0  0  0  0  0  0  0  0  0  0  0
   -2.1570   -1.0565    0.0000 C   0  0  0  0  0  0  0  0  0  0  0  0
   -2.5531   -0.3521    0.0000 C   0  0  0  0  0  0  0  0  0  0  0  0
   -3.3895    1.0711    0.0000 C   0  0  0  0  0  0  0  0  0  0  0  0
   -3.8004    0.3521    0.0000 C   0  0  0  0  0  0  0  0  0  0  0  0
   -4.6221    0.2788    0.0000 C   0  0  0  0  0  0  0  0  0  0  0  0
    4.7982   -0.3669    0.0000 C   0  0  0  0  0  0  0  0  0  0  0  0
   -4.0792   -0.9391    0.0000 C   0  0  0  0  0  0  0  0  0  0  0  0
   -4.7982   -0.5429    0.0000 C   0  0  0  0  0  0  0  0  0  0  0  0
  1 17  1  0  0  0  0
  2  4  2  0  0  0  0
  2  5  2  0  0  0  0
  2 10  1  0  0  0  0
  2 27  1  0  0  0  0
  3 25  1  0  0  0  0
  3 28  1  0  0  0  0
  6 24  2  0  0  0  0
  7 12  1  0  0  0  0
  7 13  1  0  0  0  0
  8 12  2  0  0  0  0
  8 14  1  0  0  0  0
  9 14  1  0  0  0  0
  9 21  2  0  0  0  0
 10 18  1  0  0  0  0
 11 20  1  0  0  0  0
 11 24  1  0  0  0  0
 12 15  1  0  0  0  0
 13 14  2  0  0  0  0
 13 16  1  0  0  0  0
 15 17  2  0  0  0  0
 15 19  1  0  0  0  0
 16 18  2  0  0  0  0
 17 22  1  0  0  0  0
 18 21  1  0  0  0  0
 19 20  2  0  0  0  0
 20 23  1  0  0  0  0
 22 23  2  0  0  0  0
 24 25  1  0  0  0  0
 25 26  2  0  0  0  0
 26 29  1  0  0  0  0
 28 29  2  0  0  0  0
M  END
> <PUBCHEM_COMPOUND_ID_TYPE>
0

> <PUBCHEM_TOTAL_CHARGE>
0

> <PUBCHEM_SUBSTANCE_ID>
310947144

> <PUBCHEM_SUBSTANCE_VERSION>
1

> <PUBCHEM_EXT_DATASOURCE_NAME>
4488

> <PUBCHEM_EXT_DATASOURCE_REGID>
SCHEMBL16125298

> <PUBCHEM_SUBSTANCE_COMMENT>
InChI=1S/C18H14ClN5O4S/c1-29(26,27)24-11-8-14-17(20-9-11)23-16(22-14)12-7-10(4-5-13(12)19)21-18(25)15-3-2-6-28-15/h2-9,24H,1H3,(H,21,25)(H,20,22,23)
InChIKey=AHLHSHTXNRTWKO-UHFFFAOYSA-N

> <PUBCHEM_SUBSTANCE_SYNONYM>
SCHEMBL16125298

> <PUBCHEM_XREF_EXT_ID>
SCHEMBL16125298

> <PUBCHEM_EXT_DATASOURCE_URL>
https://www.surechembl.org/

> <PUBCHEM_EXT_SUBSTANCE_URL>
https://www.surechembl.org/chemical/SCHEMBL16125298

> <PUBCHEM_CID_ASSOCIATIONS>
117612980  1

> <PUBCHEM_COORDINATE_TYPE>
1
3

$$$$
