310949330
  -OEChem-07211613022D

 31 34  0     1  0  0  0  0  0999 V2000
    0.9720    3.8054    0.0000 F   0  0  0  0  0  0  0  0  0  0  0  0
    1.2822    2.7299    0.0000 F   0  0  0  0  0  0  0  0  0  0  0  0
    0.2069    2.4404    0.0000 F   0  0  0  0  0  0  0  0  0  0  0  0
   -0.4136   -4.8394    0.0000 F   0  0  0  0  0  0  0  0  0  0  0  0
   -1.7992   -1.4891    0.0000 O   0  0  0  0  0  0  0  0  0  0  0  0
    1.7992   -2.7920    0.0000 O   0  0  0  0  0  0  0  0  0  0  0  0
    1.0755   -1.5097    0.0000 O   0  0  0  0  0  0  0  0  0  0  0  0
   -1.0341   -0.2069    0.0000 N   0  0  0  0  0  0  0  0  0  0  0  0
   -0.3516   -1.5097    0.0000 N   0  0  0  0  0  0  0  0  0  0  0  0
   -0.5585    1.0341    0.0000 C   0  0  3  0  0  0  0  0  0  0  0  0
   -1.3650    1.1167    0.0000 C   0  0  3  0  0  0  0  0  0  0  0  0
   -0.9307    2.3577    0.0000 C   0  0  0  0  0  0  0  0  0  0  0  0
   -0.8480    3.2263    0.0000 C   0  0  0  0  0  0  0  0  0  0  0  0
   -0.2689    1.8199    0.0000 C   0  0  0  0  0  0  0  0  0  0  0  0
   -1.5924    1.8820    0.0000 C   0  0  0  0  0  0  0  0  0  0  0  0
   -0.1240    3.5571    0.0000 C   0  0  0  0  0  0  0  0  0  0  0  0
   -0.3516    0.2275    0.0000 C   0  0  0  0  0  0  0  0  0  0  0  0
   -1.6752    0.2895    0.0000 C   0  0  0  0  0  0  0  0  0  0  0  0
   -1.0547   -1.0341    0.0000 C   0  0  0  0  0  0  0  0  0  0  0  0
    0.5791    3.1229    0.0000 C   0  0  0  0  0  0  0  0  0  0  0  0
   -0.3930   -2.3369    0.0000 C   0  0  0  0  0  0  0  0  0  0  0  0
   -1.5511    3.6192    0.0000 C   0  0  0  0  0  0  0  0  0  0  0  0
    0.3516   -2.7299    0.0000 C   0  0  0  0  0  0  0  0  0  0  0  0
   -0.1034    4.3637    0.0000 C   0  0  0  0  0  0  0  0  0  0  0  0
   -1.5304    4.4465    0.0000 C   0  0  0  0  0  0  0  0  0  0  0  0
   -0.8066    4.8394    0.0000 C   0  0  0  0  0  0  0  0  0  0  0  0
   -1.0755   -2.7299    0.0000 C   0  0  0  0  0  0  0  0  0  0  0  0
    0.3102   -3.5779    0.0000 C   0  0  0  0  0  0  0  0  0  0  0  0
    1.0341   -2.3163    0.0000 C   0  0  0  0  0  0  0  0  0  0  0  0
   -0.3930   -3.9915    0.0000 C   0  0  0  0  0  0  0  0  0  0  0  0
   -1.1167   -3.5365    0.0000 C   0  0  0  0  0  0  0  0  0  0  0  0
  1 20  1  0  0  0  0
  2 20  1  0  0  0  0
  3 20  1  0  0  0  0
  4 30  1  0  0  0  0
  5 19  2  0  0  0  0
  6 29  2  0  0  0  0
  7 29  1  0  0  0  0
  8 17  1  0  0  0  0
  8 18  1  0  0  0  0
  8 19  1  0  0  0  0
  9 19  1  0  0  0  0
  9 21  1  0  0  0  0
 10 11  1  0  0  0  0
 10 14  1  1  0  0  0
 10 17  1  0  0  0  0
 11 15  1  0  0  0  0
 11 18  1  0  0  0  0
 12 13  1  0  0  0  0
 12 14  1  0  0  0  0
 12 15  1  0  0  0  0
 13 16  2  0  0  0  0
 13 22  1  0  0  0  0
 16 20  1  0  0  0  0
 16 24  1  0  0  0  0
 21 23  1  0  0  0  0
 21 27  2  0  0  0  0
 22 25  2  0  0  0  0
 23 28  2  0  0  0  0
 23 29  1  0  0  0  0
 24 26  2  0  0  0  0
 25 26  1  0  0  0  0
 27 31  1  0  0  0  0
 28 30  1  0  0  0  0
 30 31  2  0  0  0  0
M  END
> <PUBCHEM_COMPOUND_ID_TYPE>
0

> <PUBCHEM_TOTAL_CHARGE>
0

> <PUBCHEM_SUBSTANCE_ID>
310949330

> <PUBCHEM_SUBSTANCE_VERSION>
1

> <PUBCHEM_EXT_DATASOURCE_NAME>
4488

> <PUBCHEM_EXT_DATASOURCE_REGID>
SCHEMBL16127520

> <PUBCHEM_SUBSTANCE_COMMENT>
InChI=1S/C22H20F4N2O3/c23-15-5-6-19(17(9-15)20(29)30)27-21(31)28-10-13-7-12(8-14(13)11-28)16-3-1-2-4-18(16)22(24,25)26/h1-6,9,12-14H,7-8,10-11H2,(H,27,31)(H,29,30)/t12?,13-,14?/m0/s1
InChIKey=JLVUZSRCFYVLQG-MOKVOYLWSA-N

> <PUBCHEM_SUBSTANCE_SYNONYM>
SCHEMBL16127520

> <PUBCHEM_XREF_EXT_ID>
SCHEMBL16127520

> <PUBCHEM_EXT_DATASOURCE_URL>
https://www.surechembl.org/

> <PUBCHEM_EXT_SUBSTANCE_URL>
https://www.surechembl.org/chemical/SCHEMBL16127520

> <PUBCHEM_CID_ASSOCIATIONS>
117614806  1

> <PUBCHEM_COORDINATE_TYPE>
1
3

> <PUBCHEM_BONDANNOTATIONS>
10  14  5

$$$$
