310944326
  -OEChem-07211613022D

 32 36  0     1  0  0  0  0  0999 V2000
    2.5920    0.8603    0.0000 O   0  0  0  0  0  0  0  0  0  0  0  0
    5.5701   -0.0662    0.0000 O   0  0  0  0  0  0  0  0  0  0  0  0
    5.8128    1.3788    0.0000 O   0  0  0  0  0  0  0  0  0  0  0  0
   -0.7831   -1.2574    0.0000 O   0  0  0  0  0  0  0  0  0  0  0  0
    3.4193   -0.3530    0.0000 N   0  0  0  0  0  0  0  0  0  0  0  0
    0.5294    0.0441    0.0000 N   0  0  0  0  0  0  0  0  0  0  0  0
   -4.5002   -0.5404    0.0000 N   0  0  0  0  0  0  0  0  0  0  0  0
   -3.2648    0.1765    0.0000 N   0  0  0  0  0  0  0  0  0  0  0  0
   -4.9193    0.1765    0.0000 N   0  0  0  0  0  0  0  0  0  0  0  0
   -5.7245    0.0000    0.0000 N   0  0  0  0  0  0  0  0  0  0  0  0
   -5.8128   -0.8273    0.0000 N   0  0  0  0  0  0  0  0  0  0  0  0
    2.0957   -0.5074    0.0000 C   0  0  0  0  0  0  0  0  0  0  0  0
    2.7023    0.0220    0.0000 C   0  0  0  0  0  0  0  0  0  0  0  0
    4.2244   -0.0441    0.0000 C   0  0  0  0  0  0  0  0  0  0  0  0
    2.4486   -1.2684    0.0000 C   0  0  0  0  0  0  0  0  0  0  0  0
    3.2538   -1.1692    0.0000 C   0  0  0  0  0  0  0  0  0  0  0  0
    1.4559   -1.0478    0.0000 C   0  0  0  0  0  0  0  0  0  0  0  0
    1.9523    0.2868    0.0000 C   0  0  0  0  0  0  0  0  0  0  0  0
    4.9083   -0.5404    0.0000 C   0  0  3  0  0  0  0  0  0  0  0  0
    4.5002    0.7169    0.0000 C   0  0  0  0  0  0  0  0  0  0  0  0
    0.6839   -0.7721    0.0000 C   0  0  0  0  0  0  0  0  0  0  0  0
    1.1581    0.5735    0.0000 C   0  0  0  0  0  0  0  0  0  0  0  0
    5.3054    0.6949    0.0000 C   0  0  0  0  0  0  0  0  0  0  0  0
   -0.6177    0.0331    0.0000 C   0  0  0  0  0  0  0  0  0  0  0  0
   -1.2023   -0.5404    0.0000 C   0  0  3  0  0  0  0  0  0  0  0  0
   -2.0295   -0.5404    0.0000 C   0  0  0  0  0  0  0  0  0  0  0  0
    4.9083   -1.3788    0.0000 C   0  0  0  0  0  0  0  0  0  0  0  0
   -3.6730   -0.5515    0.0000 C   0  0  0  0  0  0  0  0  0  0  0  0
   -2.4376    0.1654    0.0000 C   0  0  0  0  0  0  0  0  0  0  0  0
   -2.4376   -1.2574    0.0000 C   0  0  0  0  0  0  0  0  0  0  0  0
   -3.2648   -1.2574    0.0000 C   0  0  0  0  0  0  0  0  0  0  0  0
   -5.0517   -1.1581    0.0000 C   0  0  0  0  0  0  0  0  0  0  0  0
  1 13  2  0  0  0  0
  2 19  1  0  0  0  0
  2 23  1  0  0  0  0
  3 23  2  0  0  0  0
 25  4  1  6  0  0  0
  5 13  1  0  0  0  0
  5 14  1  0  0  0  0
  5 16  1  0  0  0  0
  6 21  1  0  0  0  0
  6 22  1  0  0  0  0
  6 24  1  0  0  0  0
  7  9  1  0  0  0  0
  7 28  1  0  0  0  0
  7 32  1  0  0  0  0
  8 28  2  0  0  0  0
  8 29  1  0  0  0  0
  9 10  2  0  0  0  0
 10 11  1  0  0  0  0
 11 32  2  0  0  0  0
 12 13  1  0  0  0  0
 12 15  1  0  0  0  0
 12 17  1  0  0  0  0
 12 18  1  0  0  0  0
 14 19  1  0  0  0  0
 14 20  2  0  0  0  0
 15 16  1  0  0  0  0
 17 21  1  0  0  0  0
 18 22  1  0  0  0  0
 19 27  1  0  0  0  0
 20 23  1  0  0  0  0
 24 25  1  0  0  0  0
 25 26  1  0  0  0  0
 26 29  2  0  0  0  0
 26 30  1  0  0  0  0
 28 31  1  0  0  0  0
 30 31  2  0  0  0  0
M  END
> <PUBCHEM_COMPOUND_ID_TYPE>
0

> <PUBCHEM_TOTAL_CHARGE>
0

> <PUBCHEM_SUBSTANCE_ID>
310944326

> <PUBCHEM_SUBSTANCE_VERSION>
1

> <PUBCHEM_EXT_DATASOURCE_NAME>
4488

> <PUBCHEM_EXT_DATASOURCE_REGID>
SCHEMBL16122401

> <PUBCHEM_SUBSTANCE_COMMENT>
InChI=1S/C21H25N7O4/c1-14-16(10-19(30)32-14)27-9-6-21(20(27)31)4-7-26(8-5-21)12-17(29)15-2-3-18(22-11-15)28-13-23-24-25-28/h2-3,10-11,13-14,17,29H,4-9,12H2,1H3/t14?,17-/m0/s1
InChIKey=WGORGOWGFRWFFP-JRZJBTRGSA-N

> <PUBCHEM_SUBSTANCE_SYNONYM>
SCHEMBL16122401

> <PUBCHEM_XREF_EXT_ID>
SCHEMBL16122401

> <PUBCHEM_EXT_DATASOURCE_URL>
https://www.surechembl.org/

> <PUBCHEM_EXT_SUBSTANCE_URL>
https://www.surechembl.org/chemical/SCHEMBL16122401

> <PUBCHEM_CID_ASSOCIATIONS>
117610585  1

> <PUBCHEM_COORDINATE_TYPE>
1
3

> <PUBCHEM_BONDANNOTATIONS>
25  4  6

$$$$
