310947535
  -OEChem-07211613022D

 22 23  0     1  0  0  0  0  0999 V2000
   -3.9227    1.2358    0.0000 F   0  0  0  0  0  0  0  0  0  0  0  0
   -3.0977    3.2198    0.0000 O   0  0  0  0  0  0  0  0  0  0  0  0
   -1.8602    1.9503    0.0000 O   0  0  0  0  0  0  0  0  0  0  0  0
   -1.7158    3.1474    0.0000 O   0  0  0  0  0  0  0  0  0  0  0  0
   -1.8602    0.5213    0.0000 O   0  0  0  0  0  0  0  0  0  0  0  0
   -1.0013    1.9099    0.0000 O   0  0  0  0  0  0  0  0  0  0  0  0
   -2.6852    1.9503    0.0000 C   0  0  3  0  0  0  0  0  0  0  0  0
   -2.4303    2.7349    0.0000 C   0  0  3  0  0  0  0  0  0  0  0  0
   -3.5102    1.9503    0.0000 C   0  0  3  0  0  0  0  0  0  0  0  0
   -3.7652    2.7349    0.0000 C   0  0  3  0  0  0  0  0  0  0  0  0
   -1.4477    1.2358    0.0000 C   0  0  0  0  0  0  0  0  0  0  0  0
   -2.2727    1.2358    0.0000 C   0  0  0  0  0  0  0  0  0  0  0  0
   -4.1777    3.4493    0.0000 C   0  0  0  0  0  0  0  0  0  0  0  0
   -0.6227    1.2358    0.0000 C   0  0  0  0  0  0  0  0  0  0  0  0
   -1.0013    2.7349    0.0000 C   0  0  0  0  0  0  0  0  0  0  0  0
   -0.2102    0.5213    0.0000 C   0  0  0  0  0  0  0  0  0  0  0  0
   -0.2102    1.9503    0.0000 C   0  0  0  0  0  0  0  0  0  0  0  0
   -5.0027    3.4493    0.0000 C   0  0  0  0  0  0  0  0  0  0  0  0
   -0.2869    3.1474    0.0000 C   0  0  0  0  0  0  0  0  0  0  0  0
    0.6148    0.5213    0.0000 C   0  0  0  0  0  0  0  0  0  0  0  0
    0.6148    1.9503    0.0000 C   0  0  0  0  0  0  0  0  0  0  0  0
    1.0273    1.2358    0.0000 C   0  0  0  0  0  0  0  0  0  0  0  0
  9  1  1  6  0  0  0
  2  8  1  0  0  0  0
  2 10  1  0  0  0  0
  7  3  1  1  0  0  0
  3 11  1  0  0  0  0
  8  4  1  1  0  0  0
  4 15  1  0  0  0  0
  5 11  2  0  0  0  0
  6 15  2  0  0  0  0
  7  8  1  0  0  0  0
  7  9  1  0  0  0  0
  7 12  1  6  0  0  0
  9 10  1  0  0  0  0
 10 13  1  1  0  0  0
 11 14  1  0  0  0  0
 13 18  1  0  0  0  0
 14 16  2  0  0  0  0
 14 17  1  0  0  0  0
 15 19  1  0  0  0  0
 16 20  1  0  0  0  0
 17 21  2  0  0  0  0
 20 22  2  0  0  0  0
 21 22  1  0  0  0  0
M  END
> <PUBCHEM_COMPOUND_ID_TYPE>
0

> <PUBCHEM_TOTAL_CHARGE>
0

> <PUBCHEM_SUBSTANCE_ID>
310947535

> <PUBCHEM_SUBSTANCE_VERSION>
1

> <PUBCHEM_EXT_DATASOURCE_NAME>
4488

> <PUBCHEM_EXT_DATASOURCE_REGID>
SCHEMBL16125698

> <PUBCHEM_SUBSTANCE_COMMENT>
InChI=1S/C16H19FO5/c1-4-12-13(17)16(3,15(21-12)20-10(2)18)22-14(19)11-8-6-5-7-9-11/h5-9,12-13,15H,4H2,1-3H3/t12-,13-,15-,16+/m1/s1
InChIKey=QOSVJEUBFZHYHT-XOUADPBQSA-N

> <PUBCHEM_SUBSTANCE_SYNONYM>
SCHEMBL16125698

> <PUBCHEM_XREF_EXT_ID>
SCHEMBL16125698

> <PUBCHEM_EXT_DATASOURCE_URL>
https://www.surechembl.org/

> <PUBCHEM_EXT_SUBSTANCE_URL>
https://www.surechembl.org/chemical/SCHEMBL16125698

> <PUBCHEM_CID_ASSOCIATIONS>
117613257  1

> <PUBCHEM_COORDINATE_TYPE>
1
3

> <PUBCHEM_BONDANNOTATIONS>
9  1  6
10  13  5
7  3  5
8  4  5
7  12  6

$$$$
