310936754
  -OEChem-07211613022D

 48 51  0     1  0  0  0  0  0999 V2000
    3.9679   -0.1572    0.0000 F   0  0  0  0  0  0  0  0  0  0  0  0
    2.5536    0.0000    0.0000 F   0  0  0  0  0  0  0  0  0  0  0  0
    3.8893   -0.9429    0.0000 F   0  0  0  0  0  0  0  0  0  0  0  0
    0.0000   -1.1786    0.0000 F   0  0  0  0  0  0  0  0  0  0  0  0
    0.5893   -2.4750    0.0000 F   0  0  0  0  0  0  0  0  0  0  0  0
    0.7464   -0.8643    0.0000 F   0  0  0  0  0  0  0  0  0  0  0  0
    2.3572   -7.1501    0.0000 F   0  0  0  0  0  0  0  0  0  0  0  0
    3.6143   -7.8572    0.0000 F   0  0  0  0  0  0  0  0  0  0  0  0
    2.7893   -6.4429    0.0000 F   0  0  0  0  0  0  0  0  0  0  0  0
    2.5536   -4.0072    0.0000 O   0  0  0  0  0  0  0  0  0  0  0  0
    2.9464   -5.4214    0.0000 O   0  0  0  0  0  0  0  0  0  0  0  0
    5.3036   -1.8464    0.0000 O   0  0  0  0  0  0  0  0  0  0  0  0
    6.7179   -1.8464    0.0000 O   0  0  0  0  0  0  0  0  0  0  0  0
    3.8501   -4.2822    0.0000 N   0  0  0  0  0  0  0  0  0  0  0  0
    6.0108   -5.5001    0.0000 N   0  0  3  0  0  0  0  0  0  0  0  0
    5.3036   -6.7179    0.0000 N   0  0  0  0  0  0  0  0  0  0  0  0
    6.0108   -3.0643    0.0000 N   0  0  0  0  0  0  0  0  0  0  0  0
    2.9857   -3.3000    0.0000 C   0  0  3  0  0  0  0  0  0  0  0  0
    3.7714   -3.4572    0.0000 C   0  0  3  0  0  0  0  0  0  0  0  0
    2.6322   -2.5536    0.0000 C   0  0  0  0  0  0  0  0  0  0  0  0
    3.1036   -4.6357    0.0000 C   0  0  0  0  0  0  0  0  0  0  0  0
    4.5964   -5.5001    0.0000 C   0  0  0  0  0  0  0  0  0  0  0  0
    5.3036   -5.9322    0.0000 C   0  0  0  0  0  0  0  0  0  0  0  0
    4.5572   -4.6751    0.0000 C   0  0  0  0  0  0  0  0  0  0  0  0
    2.7500   -1.1393    0.0000 C   0  0  0  0  0  0  0  0  0  0  0  0
    1.4929   -1.7286    0.0000 C   0  0  0  0  0  0  0  0  0  0  0  0
    1.8072   -2.4750    0.0000 C   0  0  0  0  0  0  0  0  0  0  0  0
    3.1036   -1.8857    0.0000 C   0  0  0  0  0  0  0  0  0  0  0  0
    1.9643   -1.0607    0.0000 C   0  0  0  0  0  0  0  0  0  0  0  0
    3.2214   -0.4714    0.0000 C   0  0  0  0  0  0  0  0  0  0  0  0
    0.6286   -1.6500    0.0000 C   0  0  0  0  0  0  0  0  0  0  0  0
    3.8893   -6.7179    0.0000 C   0  0  0  0  0  0  0  0  0  0  0  0
    3.8893   -5.9322    0.0000 C   0  0  0  0  0  0  0  0  0  0  0  0
    6.0108   -4.7143    0.0000 C   0  0  0  0  0  0  0  0  0  0  0  0
    3.1822   -7.1501    0.0000 C   0  0  0  0  0  0  0  0  0  0  0  0
    4.3607   -2.9072    0.0000 C   0  0  0  0  0  0  0  0  0  0  0  0
    4.5964   -7.1501    0.0000 C   0  0  0  0  0  0  0  0  0  0  0  0
    6.7179   -5.9322    0.0000 C   0  0  0  0  0  0  0  0  0  0  0  0
    6.7179   -4.2822    0.0000 C   0  0  0  0  0  0  0  0  0  0  0  0
    5.3036   -4.2822    0.0000 C   0  0  0  0  0  0  0  0  0  0  0  0
    6.7179   -3.4572    0.0000 C   0  0  0  0  0  0  0  0  0  0  0  0
    5.3036   -3.4572    0.0000 C   0  0  0  0  0  0  0  0  0  0  0  0
    6.0108   -2.2393    0.0000 C   0  0  0  0  0  0  0  0  0  0  0  0
    7.4251   -5.5001    0.0000 C   0  0  0  0  0  0  0  0  0  0  0  0
    5.3036   -1.0214    0.0000 C   0  0  0  0  0  0  0  0  0  0  0  0
    6.1286   -1.0214    0.0000 C   0  0  0  0  0  0  0  0  0  0  0  0
    5.3036   -0.2357    0.0000 C   0  0  0  0  0  0  0  0  0  0  0  0
    4.4786   -1.0214    0.0000 C   0  0  0  0  0  0  0  0  0  0  0  0
  1 30  1  0  0  0  0
  2 30  1  0  0  0  0
  3 30  1  0  0  0  0
  4 31  1  0  0  0  0
  5 31  1  0  0  0  0
  6 31  1  0  0  0  0
  7 35  1  0  0  0  0
  8 35  1  0  0  0  0
  9 35  1  0  0  0  0
 18 10  1  6  0  0  0
 10 21  1  0  0  0  0
 11 21  2  0  0  0  0
 12 43  1  0  0  0  0
 12 45  1  0  0  0  0
 13 43  2  0  0  0  0
 14 19  1  0  0  0  0
 14 21  1  0  0  0  0
 14 24  1  0  0  0  0
 15 23  1  0  0  0  0
 15 34  1  0  0  0  0
 15 38  1  0  0  0  0
 16 23  1  0  0  0  0
 16 37  2  0  0  0  0
 17 41  1  0  0  0  0
 17 42  1  0  0  0  0
 17 43  1  0  0  0  0
 18 19  1  0  0  0  0
 18 20  1  0  0  0  0
 19 36  1  6  0  0  0
 20 27  2  0  0  0  0
 20 28  1  0  0  0  0
 22 23  2  0  0  0  0
 22 24  1  0  0  0  0
 22 33  1  0  0  0  0
 25 28  2  0  0  0  0
 25 29  1  0  0  0  0
 25 30  1  0  0  0  0
 26 27  1  0  0  0  0
 26 29  2  0  0  0  0
 26 31  1  0  0  0  0
 32 33  2  0  0  0  0
 32 35  1  0  0  0  0
 32 37  1  0  0  0  0
 34 39  1  0  0  0  0
 34 40  1  0  0  0  0
 38 44  1  0  0  0  0
 39 41  1  0  0  0  0
 40 42  1  0  0  0  0
 45 46  1  0  0  0  0
 45 47  1  0  0  0  0
 45 48  1  0  0  0  0
M  END
> <PUBCHEM_COMPOUND_ID_TYPE>
0

> <PUBCHEM_TOTAL_CHARGE>
0

> <PUBCHEM_SUBSTANCE_ID>
310936754

> <PUBCHEM_SUBSTANCE_VERSION>
1

> <PUBCHEM_EXT_DATASOURCE_NAME>
4488

> <PUBCHEM_EXT_DATASOURCE_REGID>
SCHEMBL16114438

> <PUBCHEM_SUBSTANCE_COMMENT>
InChI=1S/C31H35F9N4O4/c1-6-43(23-7-9-42(10-8-23)26(45)48-28(3,4)5)25-19(13-22(15-41-25)31(38,39)40)16-44-17(2)24(47-27(44)46)18-11-20(29(32,33)34)14-21(12-18)30(35,36)37/h11-15,17,23-24H,6-10,16H2,1-5H3/t17-,24-/m0/s1
InChIKey=UDQLIEOQZKAMOC-XDHUDOTRSA-N

> <PUBCHEM_SUBSTANCE_SYNONYM>
SCHEMBL16114438

> <PUBCHEM_XREF_EXT_ID>
SCHEMBL16114438

> <PUBCHEM_EXT_DATASOURCE_URL>
https://www.surechembl.org/

> <PUBCHEM_EXT_SUBSTANCE_URL>
https://www.surechembl.org/chemical/SCHEMBL16114438

> <PUBCHEM_CID_ASSOCIATIONS>
72944885  1

> <PUBCHEM_COORDINATE_TYPE>
1
3

> <PUBCHEM_BONDANNOTATIONS>
18  10  6
19  36  6

$$$$
