310933768
  -OEChem-07211613022D

 17 19  0     0  0  0  0  0  0999 V2000
    2.1223   -2.4760    0.0000 O   0  0  0  0  0  0  0  0  0  0  0  0
    3.4427   -4.7161    0.0000 O   0  0  0  0  0  0  0  0  0  0  0  0
    0.0000   -0.4245    0.0000 N   0  0  0  0  0  0  0  0  0  0  0  0
    2.8297   -3.7258    0.0000 C   0  0  0  0  0  0  0  0  0  0  0  0
    1.4384   -1.2498    0.0000 C   0  0  0  0  0  0  0  0  0  0  0  0
    2.1459   -1.6507    0.0000 C   0  0  0  0  0  0  0  0  0  0  0  0
    1.4384   -0.4245    0.0000 C   0  0  0  0  0  0  0  0  0  0  0  0
    2.8533   -2.9004    0.0000 C   0  0  0  0  0  0  0  0  0  0  0  0
    2.6646   -4.5511    0.0000 C   0  0  0  0  0  0  0  0  0  0  0  0
    3.6314   -3.8908    0.0000 C   0  0  0  0  0  0  0  0  0  0  0  0
    2.8533   -1.2498    0.0000 C   0  0  0  0  0  0  0  0  0  0  0  0
    0.7310   -1.6507    0.0000 C   0  0  0  0  0  0  0  0  0  0  0  0
    2.1459    0.0000    0.0000 C   0  0  0  0  0  0  0  0  0  0  0  0
    0.7310    0.0000    0.0000 C   0  0  0  0  0  0  0  0  0  0  0  0
    2.8533   -0.4245    0.0000 C   0  0  0  0  0  0  0  0  0  0  0  0
    2.0279   -3.8908    0.0000 C   0  0  0  0  0  0  0  0  0  0  0  0
    0.0000   -1.2498    0.0000 C   0  0  0  0  0  0  0  0  0  0  0  0
  1  6  1  0  0  0  0
  1  8  1  0  0  0  0
  2  9  1  0  0  0  0
  2 10  1  0  0  0  0
  3 14  2  0  0  0  0
  3 17  1  0  0  0  0
  4  8  1  0  0  0  0
  4  9  1  0  0  0  0
  4 10  1  0  0  0  0
  4 16  1  0  0  0  0
  5  6  1  0  0  0  0
  5  7  2  0  0  0  0
  5 12  1  0  0  0  0
  6 11  2  0  0  0  0
  7 13  1  0  0  0  0
  7 14  1  0  0  0  0
 11 15  1  0  0  0  0
 12 17  1  0  0  0  0
 13 15  2  0  0  0  0
M  END
> <PUBCHEM_COMPOUND_ID_TYPE>
0

> <PUBCHEM_TOTAL_CHARGE>
0

> <PUBCHEM_SUBSTANCE_ID>
310933768

> <PUBCHEM_SUBSTANCE_VERSION>
1

> <PUBCHEM_EXT_DATASOURCE_NAME>
4488

> <PUBCHEM_EXT_DATASOURCE_REGID>
SCHEMBL16111204

> <PUBCHEM_SUBSTANCE_COMMENT>
InChI=1S/C14H17NO2/c1-14(8-16-9-14)10-17-13-4-2-3-11-7-15-6-5-12(11)13/h2-4,7H,5-6,8-10H2,1H3
InChIKey=KIAZKFWKOBQBAO-UHFFFAOYSA-N

> <PUBCHEM_SUBSTANCE_SYNONYM>
SCHEMBL16111204

> <PUBCHEM_XREF_EXT_ID>
SCHEMBL16111204

> <PUBCHEM_EXT_DATASOURCE_URL>
https://www.surechembl.org/

> <PUBCHEM_EXT_SUBSTANCE_URL>
https://www.surechembl.org/chemical/SCHEMBL16111204

> <PUBCHEM_CID_ASSOCIATIONS>
117602122  1

> <PUBCHEM_COORDINATE_TYPE>
1
3

$$$$
