310948871
  -OEChem-07211613022D

  9  9  0     1  0  0  0  0  0999 V2000
    0.0108    0.4125    0.0000 O   0  0  0  0  0  0  0  0  0  0  0  0
    1.4437   -1.2375    0.0000 O   0  0  0  0  0  0  0  0  0  0  0  0
   -1.4437    1.2375    0.0000 O   0  0  0  0  0  0  0  0  0  0  0  0
   -0.7273    0.0000    0.0000 C   0  0  3  0  0  0  0  0  0  0  0  0
    0.7056   -0.8250    0.0000 C   0  0  3  0  0  0  0  0  0  0  0  0
   -0.7273   -0.8250    0.0000 C   0  0  0  0  0  0  0  0  0  0  0  0
    0.7273   -0.0217    0.0000 C   0  0  0  0  0  0  0  0  0  0  0  0
    0.0108   -1.2375    0.0000 C   0  0  0  0  0  0  0  0  0  0  0  0
   -1.4437    0.4125    0.0000 C   0  0  0  0  0  0  0  0  0  0  0  0
  1  4  1  0  0  0  0
  1  7  1  0  0  0  0
  5  2  1  1  0  0  0
  3  9  1  0  0  0  0
  4  6  1  0  0  0  0
  4  9  1  1  0  0  0
  5  7  1  0  0  0  0
  5  8  1  0  0  0  0
  6  8  1  0  0  0  0
M  END
> <PUBCHEM_COMPOUND_ID_TYPE>
0

> <PUBCHEM_TOTAL_CHARGE>
0

> <PUBCHEM_SUBSTANCE_ID>
310948871

> <PUBCHEM_SUBSTANCE_VERSION>
1

> <PUBCHEM_EXT_DATASOURCE_NAME>
4488

> <PUBCHEM_EXT_DATASOURCE_REGID>
SCHEMBL16127056

> <PUBCHEM_SUBSTANCE_COMMENT>
InChI=1S/C6H12O3/c7-3-6-2-1-5(8)4-9-6/h5-8H,1-4H2/t5-,6-/m0/s1
InChIKey=SOCMOTOHJWIJEQ-WDSKDSINSA-N

> <PUBCHEM_SUBSTANCE_SYNONYM>
SCHEMBL16127056

> <PUBCHEM_XREF_EXT_ID>
SCHEMBL16127056

> <PUBCHEM_EXT_DATASOURCE_URL>
https://www.surechembl.org/

> <PUBCHEM_EXT_SUBSTANCE_URL>
https://www.surechembl.org/chemical/SCHEMBL16127056

> <PUBCHEM_CID_ASSOCIATIONS>
92953802  1

> <PUBCHEM_COORDINATE_TYPE>
1
3

> <PUBCHEM_BONDANNOTATIONS>
5  2  5
4  9  5

$$$$
