310930808
  -OEChem-07211613022D

 24 26  0     1  0  0  0  0  0999 V2000
    4.9402   -2.7665    0.0000 O   0  0  0  0  0  0  0  0  0  0  0  0
    3.7765   -0.3952    0.0000 N   0  0  0  0  0  0  0  0  0  0  0  0
    5.0500   -3.4691    0.0000 N   0  0  0  0  0  0  0  0  0  0  0  0
    3.8863   -1.8004    0.0000 C   0  0  3  0  0  0  0  0  0  0  0  0
    3.3593   -2.2176    0.0000 C   0  0  0  0  0  0  0  0  0  0  0  0
    3.8863   -2.6567    0.0000 C   0  0  3  0  0  0  0  0  0  0  0  0
    4.6767   -1.9761    0.0000 C   0  0  0  0  0  0  0  0  0  0  0  0
    2.9421   -2.9641    0.0000 C   0  0  0  0  0  0  0  0  0  0  0  0
    2.9421   -1.4711    0.0000 C   0  0  0  0  0  0  0  0  0  0  0  0
    4.2376   -1.0539    0.0000 C   0  0  0  0  0  0  0  0  0  0  0  0
    4.2376   -3.4032    0.0000 C   0  0  0  0  0  0  0  0  0  0  0  0
    5.2476   -1.3832    0.0000 C   0  0  0  0  0  0  0  0  0  0  0  0
    2.0859   -2.9641    0.0000 C   0  0  0  0  0  0  0  0  0  0  0  0
    2.0859   -1.4711    0.0000 C   0  0  0  0  0  0  0  0  0  0  0  0
    1.6248   -2.2176    0.0000 C   0  0  0  0  0  0  0  0  0  0  0  0
    0.8124   -2.2176    0.0000 C   0  0  0  0  0  0  0  0  0  0  0  0
    6.0380   -1.5589    0.0000 C   0  0  0  0  0  0  0  0  0  0  0  0
    5.0061   -0.5928    0.0000 C   0  0  0  0  0  0  0  0  0  0  0  0
    6.5869   -0.9661    0.0000 C   0  0  0  0  0  0  0  0  0  0  0  0
    5.5550    0.0000    0.0000 C   0  0  0  0  0  0  0  0  0  0  0  0
    0.8124   -1.3832    0.0000 C   0  0  0  0  0  0  0  0  0  0  0  0
    0.0000   -2.2176    0.0000 C   0  0  0  0  0  0  0  0  0  0  0  0
    0.8124   -3.0300    0.0000 C   0  0  0  0  0  0  0  0  0  0  0  0
    6.3454   -0.1756    0.0000 C   0  0  0  0  0  0  0  0  0  0  0  0
  1  7  2  0  0  0  0
  2 10  3  0  0  0  0
  3 11  3  0  0  0  0
  4  5  1  0  0  0  0
  4  6  1  0  0  0  0
  4  7  1  1  0  0  0
  4 10  1  6  0  0  0
  5  6  1  0  0  0  0
  5  8  1  0  0  0  0
  5  9  1  0  0  0  0
  6 11  1  6  0  0  0
  7 12  1  0  0  0  0
  8 13  1  0  0  0  0
  9 14  1  0  0  0  0
 12 17  2  0  0  0  0
 12 18  1  0  0  0  0
 13 15  1  0  0  0  0
 14 15  1  0  0  0  0
 15 16  1  0  0  0  0
 16 21  1  0  0  0  0
 16 22  1  0  0  0  0
 16 23  1  0  0  0  0
 17 19  1  0  0  0  0
 18 20  2  0  0  0  0
 19 24  2  0  0  0  0
 20 24  1  0  0  0  0
M  END
> <PUBCHEM_COMPOUND_ID_TYPE>
0

> <PUBCHEM_TOTAL_CHARGE>
0

> <PUBCHEM_SUBSTANCE_ID>
310930808

> <PUBCHEM_SUBSTANCE_VERSION>
1

> <PUBCHEM_EXT_DATASOURCE_NAME>
4488

> <PUBCHEM_EXT_DATASOURCE_REGID>
SCHEMBL16108105

> <PUBCHEM_SUBSTANCE_COMMENT>
InChI=1S/C21H24N2O/c1-19(2,3)16-9-11-20(12-10-16)17(13-22)21(20,14-23)18(24)15-7-5-4-6-8-15/h4-8,16-17H,9-12H2,1-3H3/t16?,17-,20?,21-/m1/s1
InChIKey=KUARLEDXBILAQF-BWGXQHLSSA-N

> <PUBCHEM_SUBSTANCE_SYNONYM>
SCHEMBL16108105

> <PUBCHEM_XREF_EXT_ID>
SCHEMBL16108105

> <PUBCHEM_EXT_DATASOURCE_URL>
https://www.surechembl.org/

> <PUBCHEM_EXT_SUBSTANCE_URL>
https://www.surechembl.org/chemical/SCHEMBL16108105

> <PUBCHEM_CID_ASSOCIATIONS>
722262  1

> <PUBCHEM_COORDINATE_TYPE>
1
3

> <PUBCHEM_BONDANNOTATIONS>
4  10  6
4  7  5
6  11  6

$$$$
