310940599
  -OEChem-07211613022D

 34 37  0     0  0  0  0  0  0999 V2000
   -0.0825    3.6675    0.0000 F   0  0  0  0  0  0  0  0  0  0  0  0
    0.2475    2.6025    0.0000 F   0  0  0  0  0  0  0  0  0  0  0  0
   -0.8475    2.2875    0.0000 F   0  0  0  0  0  0  0  0  0  0  0  0
   -2.6325   -0.7425    0.0000 O   0  0  0  0  0  0  0  0  0  0  0  0
   -1.1025   -1.5525    0.0000 N   0  0  0  0  0  0  0  0  0  0  0  0
   -1.8975    0.5025    0.0000 N   0  0  0  0  0  0  0  0  0  0  0  0
    0.9825   -1.0125    0.0000 N   0  0  0  0  0  0  0  0  0  0  0  0
    1.3875   -3.1575    0.0000 N   0  0  0  0  0  0  0  0  0  0  0  0
   -0.2775   -1.7325    0.0000 C   0  0  0  0  0  0  0  0  0  0  0  0
   -1.1925   -0.7425    0.0000 C   0  0  0  0  0  0  0  0  0  0  0  0
    0.1275   -1.0125    0.0000 C   0  0  0  0  0  0  0  0  0  0  0  0
   -1.8975   -0.3225    0.0000 C   0  0  0  0  0  0  0  0  0  0  0  0
   -0.4125   -0.3975    0.0000 C   0  0  0  0  0  0  0  0  0  0  0  0
   -1.9125    2.9775    0.0000 C   0  0  0  0  0  0  0  0  0  0  0  0
   -1.1925    3.3975    0.0000 C   0  0  0  0  0  0  0  0  0  0  0  0
   -1.9125    2.1525    0.0000 C   0  0  0  0  0  0  0  0  0  0  0  0
    0.1425   -2.4375    0.0000 C   0  0  0  0  0  0  0  0  0  0  0  0
    0.9825   -2.4375    0.0000 C   0  0  0  0  0  0  0  0  0  0  0  0
   -0.4725    2.9775    0.0000 C   0  0  0  0  0  0  0  0  0  0  0  0
    1.3875   -1.7325    0.0000 C   0  0  0  0  0  0  0  0  0  0  0  0
   -1.1775    0.9225    0.0000 C   0  0  0  0  0  0  0  0  0  0  0  0
   -2.6175    0.9075    0.0000 C   0  0  0  0  0  0  0  0  0  0  0  0
   -1.1925    1.7475    0.0000 C   0  0  0  0  0  0  0  0  0  0  0  0
   -2.6025    1.7325    0.0000 C   0  0  0  0  0  0  0  0  0  0  0  0
   -2.6025    3.3825    0.0000 C   0  0  0  0  0  0  0  0  0  0  0  0
   -1.1925    4.2225    0.0000 C   0  0  0  0  0  0  0  0  0  0  0  0
   -2.6175    4.2075    0.0000 C   0  0  0  0  0  0  0  0  0  0  0  0
   -1.9125    4.6125    0.0000 C   0  0  0  0  0  0  0  0  0  0  0  0
    2.2425   -3.1725    0.0000 C   0  0  0  0  0  0  0  0  0  0  0  0
    0.9825   -3.8925    0.0000 C   0  0  0  0  0  0  0  0  0  0  0  0
    2.6325   -3.8775    0.0000 C   0  0  0  0  0  0  0  0  0  0  0  0
    1.3875   -4.5975    0.0000 C   0  0  0  0  0  0  0  0  0  0  0  0
    2.2425   -4.5225    0.0000 C   0  0  0  0  0  0  0  0  0  0  0  0
    2.2875   -4.6125    0.0000 C   0  0  0  0  0  0  0  0  0  0  0  0
  1 19  1  0  0  0  0
  2 19  1  0  0  0  0
  3 19  1  0  0  0  0
  4 12  2  0  0  0  0
  5  9  1  0  0  0  0
  5 10  1  0  0  0  0
  6 12  1  0  0  0  0
  6 21  1  0  0  0  0
  6 22  1  0  0  0  0
  7 11  1  0  0  0  0
  7 20  2  0  0  0  0
  8 18  1  0  0  0  0
  8 29  1  0  0  0  0
  8 30  1  0  0  0  0
  9 11  2  0  0  0  0
  9 17  1  0  0  0  0
 10 12  1  0  0  0  0
 10 13  2  0  0  0  0
 11 13  1  0  0  0  0
 14 15  2  0  0  0  0
 14 16  1  0  0  0  0
 14 25  1  0  0  0  0
 15 19  1  0  0  0  0
 15 26  1  0  0  0  0
 16 23  1  0  0  0  0
 16 24  1  0  0  0  0
 17 18  2  0  0  0  0
 18 20  1  0  0  0  0
 21 23  1  0  0  0  0
 22 24  1  0  0  0  0
 25 27  2  0  0  0  0
 26 28  2  0  0  0  0
 27 28  1  0  0  0  0
 29 31  1  0  0  0  0
 30 32  1  0  0  0  0
 31 33  1  0  0  0  0
 32 34  1  0  0  0  0
M  END
> <PUBCHEM_COMPOUND_ID_TYPE>
0

> <PUBCHEM_TOTAL_CHARGE>
0

> <PUBCHEM_SUBSTANCE_ID>
310940599

> <PUBCHEM_SUBSTANCE_VERSION>
1

> <PUBCHEM_EXT_DATASOURCE_NAME>
4488

> <PUBCHEM_EXT_DATASOURCE_REGID>
SCHEMBL16118553

> <PUBCHEM_SUBSTANCE_COMMENT>
InChI=1S/C26H31F3N4O/c1-3-11-32(12-4-2)19-15-23-22(30-17-19)16-24(31-23)25(34)33-13-9-18(10-14-33)20-7-5-6-8-21(20)26(27,28)29/h5-8,15-18,31H,3-4,9-14H2,1-2H3
InChIKey=LJGODZQKCLDOTR-UHFFFAOYSA-N

> <PUBCHEM_SUBSTANCE_SYNONYM>
SCHEMBL16118553

> <PUBCHEM_XREF_EXT_ID>
SCHEMBL16118553

> <PUBCHEM_EXT_DATASOURCE_URL>
https://www.surechembl.org/

> <PUBCHEM_EXT_SUBSTANCE_URL>
https://www.surechembl.org/chemical/SCHEMBL16118553

> <PUBCHEM_CID_ASSOCIATIONS>
117607586  1

> <PUBCHEM_COORDINATE_TYPE>
1
3

$$$$
