310936200
  -OEChem-07211613022D

 18 20  0     0  0  0  0  0  0999 V2000
    2.1234   -2.5095    0.0000 O   0  0  0  0  0  0  0  0  0  0  0  0
    0.0000   -1.2460    0.0000 O   0  0  0  0  0  0  0  0  0  0  0  0
    0.7019   -2.4744    0.0000 O   0  0  0  0  0  0  0  0  0  0  0  0
    2.8781   -0.4212    0.0000 N   0  0  0  0  0  0  0  0  0  0  0  0
    3.6151   -0.1755    0.0000 N   0  0  0  0  0  0  0  0  0  0  0  0
    2.8781   -1.2636    0.0000 C   0  0  0  0  0  0  0  0  0  0  0  0
    3.6151   -1.4917    0.0000 C   0  0  0  0  0  0  0  0  0  0  0  0
    2.1234   -1.6847    0.0000 C   0  0  0  0  0  0  0  0  0  0  0  0
    1.4215   -1.2636    0.0000 C   0  0  0  0  0  0  0  0  0  0  0  0
    4.1416   -0.8424    0.0000 C   0  0  0  0  0  0  0  0  0  0  0  0
    1.4215   -0.4212    0.0000 C   0  0  0  0  0  0  0  0  0  0  0  0
    2.1234    0.0000    0.0000 C   0  0  0  0  0  0  0  0  0  0  0  0
    4.0012   -2.2463    0.0000 C   0  0  0  0  0  0  0  0  0  0  0  0
    0.7019   -1.6671    0.0000 C   0  0  0  0  0  0  0  0  0  0  0  0
    4.9313   -0.9301    0.0000 C   0  0  0  0  0  0  0  0  0  0  0  0
    4.7909   -2.3340    0.0000 C   0  0  0  0  0  0  0  0  0  0  0  0
    5.2647   -1.6847    0.0000 C   0  0  0  0  0  0  0  0  0  0  0  0
    0.7019   -0.0176    0.0000 C   0  0  0  0  0  0  0  0  0  0  0  0
  1  8  1  0  0  0  0
  2 14  2  0  0  0  0
  3 14  1  0  0  0  0
  4  5  1  0  0  0  0
  4  6  1  0  0  0  0
  4 12  1  0  0  0  0
  5 10  2  0  0  0  0
  6  7  2  0  0  0  0
  6  8  1  0  0  0  0
  7 10  1  0  0  0  0
  7 13  1  0  0  0  0
  8  9  2  0  0  0  0
  9 11  1  0  0  0  0
  9 14  1  0  0  0  0
 10 15  1  0  0  0  0
 11 12  2  0  0  0  0
 11 18  1  0  0  0  0
 13 16  2  0  0  0  0
 15 17  2  0  0  0  0
 16 17  1  0  0  0  0
M  END
> <PUBCHEM_COMPOUND_ID_TYPE>
0

> <PUBCHEM_TOTAL_CHARGE>
0

> <PUBCHEM_SUBSTANCE_ID>
310936200

> <PUBCHEM_SUBSTANCE_VERSION>
1

> <PUBCHEM_EXT_DATASOURCE_NAME>
4488

> <PUBCHEM_EXT_DATASOURCE_REGID>
SCHEMBL16113812

> <PUBCHEM_SUBSTANCE_COMMENT>
InChI=1S/C13H10N2O3/c1-7-6-15-11(12(16)10(7)13(17)18)8-4-2-3-5-9(8)14-15/h2-6,16H,1H3,(H,17,18)
InChIKey=CKJWWYWANHMXAB-UHFFFAOYSA-N

> <PUBCHEM_SUBSTANCE_SYNONYM>
SCHEMBL16113812

> <PUBCHEM_XREF_EXT_ID>
SCHEMBL16113812

> <PUBCHEM_EXT_DATASOURCE_URL>
https://www.surechembl.org/

> <PUBCHEM_EXT_SUBSTANCE_URL>
https://www.surechembl.org/chemical/SCHEMBL16113812

> <PUBCHEM_CID_ASSOCIATIONS>
117604154  1

> <PUBCHEM_COORDINATE_TYPE>
1
3

$$$$
