310938951
  -OEChem-07211613022D

 29 32  0     1  0  0  0  0  0999 V2000
    1.6146    1.2586    0.0000 O   0  0  0  0  0  0  0  0  0  0  0  0
    0.2697   -0.6347    0.0000 N   0  0  0  0  0  0  0  0  0  0  0  0
   -0.3977    0.6752    0.0000 N   0  0  0  0  0  0  0  0  0  0  0  0
    0.0148   -1.4193    0.0000 C   0  0  3  0  0  0  0  0  0  0  0  0
   -0.8102   -1.4193    0.0000 C   0  0  3  0  0  0  0  0  0  0  0  0
   -0.3977   -0.1498    0.0000 C   0  0  0  0  0  0  0  0  0  0  0  0
   -1.0651   -0.6347    0.0000 C   0  0  0  0  0  0  0  0  0  0  0  0
    1.8108   -1.6843    0.0000 C   0  0  0  0  0  0  0  0  0  0  0  0
   -1.2227   -2.1338    0.0000 C   0  0  0  0  0  0  0  0  0  0  0  0
    1.3983   -2.3988    0.0000 C   0  0  0  0  0  0  0  0  0  0  0  0
    2.6358   -1.6843    0.0000 C   0  0  0  0  0  0  0  0  0  0  0  0
   -0.2823   -0.0216    0.0000 C   0  0  0  0  0  0  0  0  0  0  0  0
   -2.0477   -2.1338    0.0000 C   0  0  0  0  0  0  0  0  0  0  0  0
   -0.8102   -2.8483    0.0000 C   0  0  0  0  0  0  0  0  0  0  0  0
    0.3168    1.0877    0.0000 C   0  0  3  0  0  0  0  0  0  0  0  0
    1.8108   -3.1132    0.0000 C   0  0  0  0  0  0  0  0  0  0  0  0
    3.0482   -2.3988    0.0000 C   0  0  0  0  0  0  0  0  0  0  0  0
    0.3168    1.9127    0.0000 C   0  0  0  0  0  0  0  0  0  0  0  0
   -2.4602   -2.8483    0.0000 C   0  0  0  0  0  0  0  0  0  0  0  0
   -1.2227   -3.5627    0.0000 C   0  0  0  0  0  0  0  0  0  0  0  0
    2.6358   -3.1132    0.0000 C   0  0  0  0  0  0  0  0  0  0  0  0
    1.0313    0.6752    0.0000 C   0  0  0  0  0  0  0  0  0  0  0  0
   -2.0477   -3.5627    0.0000 C   0  0  0  0  0  0  0  0  0  0  0  0
    1.0312    2.3252    0.0000 C   0  0  0  0  0  0  0  0  0  0  0  0
    1.7457    1.9127    0.0000 C   0  0  0  0  0  0  0  0  0  0  0  0
    1.0312    3.1502    0.0000 C   0  0  0  0  0  0  0  0  0  0  0  0
    2.4602    2.3252    0.0000 C   0  0  0  0  0  0  0  0  0  0  0  0
    1.7457    3.5627    0.0000 C   0  0  0  0  0  0  0  0  0  0  0  0
    2.4602    3.1502    0.0000 C   0  0  0  0  0  0  0  0  0  0  0  0
  1 22  1  0  0  0  0
  4  2  1  1  0  0  0
  2  6  1  0  0  0  0
  2 12  1  0  0  0  0
  3  6  2  0  0  0  0
 15  3  1  6  0  0  0
  4  5  1  0  0  0  0
  4  8  1  0  0  0  0
  5  7  1  6  0  0  0
  5  9  1  0  0  0  0
  6  7  1  0  0  0  0
  8 10  2  0  0  0  0
  8 11  1  0  0  0  0
  9 13  2  0  0  0  0
  9 14  1  0  0  0  0
 10 16  1  0  0  0  0
 11 17  2  0  0  0  0
 13 19  1  0  0  0  0
 14 20  2  0  0  0  0
 15 18  1  0  0  0  0
 15 22  1  0  0  0  0
 16 21  2  0  0  0  0
 17 21  1  0  0  0  0
 18 24  1  0  0  0  0
 19 23  2  0  0  0  0
 20 23  1  0  0  0  0
 24 25  2  0  0  0  0
 24 26  1  0  0  0  0
 25 27  1  0  0  0  0
 26 28  2  0  0  0  0
 27 29  2  0  0  0  0
 28 29  1  0  0  0  0
M  END
> <PUBCHEM_COMPOUND_ID_TYPE>
0

> <PUBCHEM_TOTAL_CHARGE>
0

> <PUBCHEM_SUBSTANCE_ID>
310938951

> <PUBCHEM_SUBSTANCE_VERSION>
1

> <PUBCHEM_EXT_DATASOURCE_NAME>
4488

> <PUBCHEM_EXT_DATASOURCE_REGID>
SCHEMBL16116870

> <PUBCHEM_SUBSTANCE_COMMENT>
InChI=1S/C26H28N2O/c1-28-25(27-23(19-29)17-20-11-5-2-6-12-20)18-24(21-13-7-3-8-14-21)26(28)22-15-9-4-10-16-22/h2-16,23-24,26,29H,17-19H2,1H3/b27-25-/t23-,24+,26+/m1/s1
InChIKey=ZIXAMZLYUJNTMN-LDTURWLLSA-N

> <PUBCHEM_SUBSTANCE_SYNONYM>
SCHEMBL16116870

> <PUBCHEM_XREF_EXT_ID>
SCHEMBL16116870

> <PUBCHEM_EXT_DATASOURCE_URL>
https://www.surechembl.org/

> <PUBCHEM_EXT_SUBSTANCE_URL>
https://www.surechembl.org/chemical/SCHEMBL16116870

> <PUBCHEM_CID_ASSOCIATIONS>
117606343  1

> <PUBCHEM_COORDINATE_TYPE>
1
3

> <PUBCHEM_BONDANNOTATIONS>
4  2  5
15  3  6
5  7  6

$$$$
