310940670
  -OEChem-07211613022D

 13 14  0     0  0  0  0  0  0999 V2000
    0.3556    2.5320    0.0000 O   0  0  0  0  0  0  0  0  0  0  0  0
   -0.3698    1.2661    0.0000 N   0  0  0  0  0  0  0  0  0  0  0  0
   -0.3840   -0.7540    0.0000 C   0  0  0  0  0  0  0  0  0  0  0  0
   -0.3983    0.3556    0.0000 C   0  0  0  0  0  0  0  0  0  0  0  0
   -0.9531   -0.2133    0.0000 C   0  0  0  0  0  0  0  0  0  0  0  0
    0.2133   -0.1849    0.0000 C   0  0  0  0  0  0  0  0  0  0  0  0
   -0.5832   -0.1280    0.0000 C   0  0  0  0  0  0  0  0  0  0  0  0
   -0.3698   -1.6785    0.0000 C   0  0  0  0  0  0  0  0  0  0  0  0
    0.3556    1.6643    0.0000 C   0  0  0  0  0  0  0  0  0  0  0  0
   -1.1096   -2.1052    0.0000 C   0  0  0  0  0  0  0  0  0  0  0  0
   -0.3698   -2.5320    0.0000 C   0  0  0  0  0  0  0  0  0  0  0  0
    0.3840   -2.0768    0.0000 C   0  0  0  0  0  0  0  0  0  0  0  0
    1.1096    1.2661    0.0000 C   0  0  0  0  0  0  0  0  0  0  0  0
  1  9  2  0  0  0  0
  2  4  1  0  0  0  0
  2  9  1  0  0  0  0
  3  5  1  0  0  0  0
  3  6  1  0  0  0  0
  3  7  1  0  0  0  0
  3  8  1  0  0  0  0
  4  5  1  0  0  0  0
  4  6  1  0  0  0  0
  4  7  1  0  0  0  0
  8 10  1  0  0  0  0
  8 11  1  0  0  0  0
  8 12  1  0  0  0  0
  9 13  1  0  0  0  0
M  END
> <PUBCHEM_COMPOUND_ID_TYPE>
0

> <PUBCHEM_TOTAL_CHARGE>
0

> <PUBCHEM_SUBSTANCE_ID>
310940670

> <PUBCHEM_SUBSTANCE_VERSION>
1

> <PUBCHEM_EXT_DATASOURCE_NAME>
4488

> <PUBCHEM_EXT_DATASOURCE_REGID>
SCHEMBL16118625

> <PUBCHEM_SUBSTANCE_COMMENT>
InChI=1S/C11H19NO/c1-8(13)12-11-5-10(6-11,7-11)9(2,3)4/h5-7H2,1-4H3,(H,12,13)
InChIKey=GASLTRJBOIYNBQ-UHFFFAOYSA-N

> <PUBCHEM_SUBSTANCE_SYNONYM>
SCHEMBL16118625

> <PUBCHEM_XREF_EXT_ID>
SCHEMBL16118625

> <PUBCHEM_EXT_DATASOURCE_URL>
https://www.surechembl.org/

> <PUBCHEM_EXT_SUBSTANCE_URL>
https://www.surechembl.org/chemical/SCHEMBL16118625

> <PUBCHEM_CID_ASSOCIATIONS>
117607646  1

> <PUBCHEM_COORDINATE_TYPE>
1
3

$$$$
