310949646
  -OEChem-07211613022D

 23 24  0     0  0  0  0  0  0999 V2000
    0.0198   -1.8616    0.0000 F   0  0  0  0  0  0  0  0  0  0  0  0
    1.4537   -1.8616    0.0000 F   0  0  0  0  0  0  0  0  0  0  0  0
    0.7170   -0.6249    0.0000 O   0  0  0  0  0  0  0  0  0  0  0  0
   -0.7170    1.8616    0.0000 O   0  0  0  0  0  0  0  0  0  0  0  0
   -0.7170   -1.4406    0.0000 O   0  0  0  0  0  0  0  0  0  0  0  0
   -0.0066    0.6249    0.0000 N   0  0  0  0  0  0  0  0  0  0  0  0
   -1.4274    0.6249    0.0000 C   0  0  0  0  0  0  0  0  0  0  0  0
   -1.4406   -0.1907    0.0000 C   0  0  0  0  0  0  0  0  0  0  0  0
   -0.7170    1.0196    0.0000 C   0  0  0  0  0  0  0  0  0  0  0  0
    1.4406    0.6117    0.0000 C   0  0  0  0  0  0  0  0  0  0  0  0
    1.4274   -0.1907    0.0000 C   0  0  0  0  0  0  0  0  0  0  0  0
    0.7039    1.0327    0.0000 C   0  0  0  0  0  0  0  0  0  0  0  0
   -2.1641    1.0196    0.0000 C   0  0  0  0  0  0  0  0  0  0  0  0
   -0.7039   -0.5986    0.0000 C   0  0  0  0  0  0  0  0  0  0  0  0
   -2.1641   -0.6117    0.0000 C   0  0  0  0  0  0  0  0  0  0  0  0
    2.1378    1.0196    0.0000 C   0  0  0  0  0  0  0  0  0  0  0  0
    2.1378   -0.6117    0.0000 C   0  0  0  0  0  0  0  0  0  0  0  0
   -2.8614    0.6249    0.0000 C   0  0  0  0  0  0  0  0  0  0  0  0
   -2.8614   -0.2039    0.0000 C   0  0  0  0  0  0  0  0  0  0  0  0
    2.8614    0.6249    0.0000 C   0  0  0  0  0  0  0  0  0  0  0  0
    2.8614   -0.2039    0.0000 C   0  0  0  0  0  0  0  0  0  0  0  0
    0.7170   -1.4406    0.0000 C   0  0  0  0  0  0  0  0  0  0  0  0
   -0.2171   -0.3486    0.0000 C   0  0  0  0  0  0  0  0  0  0  0  0
  1 22  1  0  0  0  0
  2 22  1  0  0  0  0
  3 11  1  0  0  0  0
  3 22  1  0  0  0  0
  4  9  2  0  0  0  0
  5 14  2  0  0  0  0
  6  9  1  0  0  0  0
  6 12  1  0  0  0  0
  7  8  1  0  0  0  0
  7  9  1  0  0  0  0
  7 13  2  0  0  0  0
  8 14  1  0  0  0  0
  8 15  2  0  0  0  0
 10 11  2  0  0  0  0
 10 12  1  0  0  0  0
 10 16  1  0  0  0  0
 11 17  1  0  0  0  0
 13 18  1  0  0  0  0
 14 23  1  0  0  0  0
 15 19  1  0  0  0  0
 16 20  2  0  0  0  0
 17 21  2  0  0  0  0
 18 19  2  0  0  0  0
 20 21  1  0  0  0  0
M  END
> <PUBCHEM_COMPOUND_ID_TYPE>
0

> <PUBCHEM_TOTAL_CHARGE>
0

> <PUBCHEM_SUBSTANCE_ID>
310949646

> <PUBCHEM_SUBSTANCE_VERSION>
1

> <PUBCHEM_EXT_DATASOURCE_NAME>
4488

> <PUBCHEM_EXT_DATASOURCE_REGID>
SCHEMBL16127844

> <PUBCHEM_SUBSTANCE_COMMENT>
InChI=1S/C17H15F2NO3/c1-11(21)13-7-3-4-8-14(13)16(22)20-10-12-6-2-5-9-15(12)23-17(18)19/h2-9,17H,10H2,1H3,(H,20,22)
InChIKey=SWEIPJLKKYPJPV-UHFFFAOYSA-N

> <PUBCHEM_SUBSTANCE_SYNONYM>
SCHEMBL16127844

> <PUBCHEM_XREF_EXT_ID>
SCHEMBL16127844

> <PUBCHEM_EXT_DATASOURCE_URL>
https://www.surechembl.org/

> <PUBCHEM_EXT_SUBSTANCE_URL>
https://www.surechembl.org/chemical/SCHEMBL16127844

> <PUBCHEM_CID_ASSOCIATIONS>
117615025  1

> <PUBCHEM_COORDINATE_TYPE>
1
3

$$$$
