310947231
  -OEChem-07211613022D

 12 12  0     0  0  0  0  0  0999 V2000
   -1.3117   -2.7124    0.0000 O   0  0  0  0  0  0  0  0  0  0  0  0
    1.4036   -2.7124    0.0000 O   0  0  0  0  0  0  0  0  0  0  0  0
   -3.0616   -2.7124    0.0000 N   0  0  0  0  0  0  0  0  0  0  0  0
    3.1536   -2.7124    0.0000 N   0  0  0  0  0  0  0  0  0  0  0  0
   -3.8330   -2.3201    0.0000 C   0  0  0  0  0  0  0  0  0  0  0  0
   -3.8330   -3.1047    0.0000 C   0  0  0  0  0  0  0  0  0  0  0  0
   -2.2770   -2.7124    0.0000 C   0  0  0  0  0  0  0  0  0  0  0  0
   -0.5271   -2.7124    0.0000 C   0  0  0  0  0  0  0  0  0  0  0  0
    0.4382   -2.7124    0.0000 C   0  0  0  0  0  0  0  0  0  0  0  0
    2.1882   -2.7124    0.0000 C   0  0  0  0  0  0  0  0  0  0  0  0
    3.8330   -3.1047    0.0000 C   0  0  0  0  0  0  0  0  0  0  0  0
    3.8330   -2.3201    0.0000 C   0  0  0  0  0  0  0  0  0  0  0  0
  1  7  1  0  0  0  0
  1  8  1  0  0  0  0
  2  9  1  0  0  0  0
  2 10  1  0  0  0  0
  3  5  1  0  0  0  0
  3  6  1  0  0  0  0
  3  7  1  0  0  0  0
  4 10  1  0  0  0  0
  4 11  1  0  0  0  0
  4 12  1  0  0  0  0
  5  6  1  0  0  0  0
  8  9  1  0  0  0  0
M  END
> <PUBCHEM_COMPOUND_ID_TYPE>
0

> <PUBCHEM_TOTAL_CHARGE>
0

> <PUBCHEM_SUBSTANCE_ID>
310947231

> <PUBCHEM_SUBSTANCE_VERSION>
1

> <PUBCHEM_EXT_DATASOURCE_NAME>
4488

> <PUBCHEM_EXT_DATASOURCE_REGID>
SCHEMBL16125386

> <PUBCHEM_SUBSTANCE_COMMENT>
InChI=1S/C8H18N2O2/c1-9(2)7-11-5-6-12-8-10-3-4-10/h3-8H2,1-2H3
InChIKey=OFKUKMUONNRKHQ-UHFFFAOYSA-N

> <PUBCHEM_SUBSTANCE_SYNONYM>
SCHEMBL16125386

> <PUBCHEM_XREF_EXT_ID>
SCHEMBL16125386

> <PUBCHEM_EXT_DATASOURCE_URL>
https://www.surechembl.org/

> <PUBCHEM_EXT_SUBSTANCE_URL>
https://www.surechembl.org/chemical/SCHEMBL16125386

> <PUBCHEM_CID_ASSOCIATIONS>
117613046  1

> <PUBCHEM_COORDINATE_TYPE>
1
3

$$$$
