310941912
  -OEChem-07211613022D

 22 23  0     0  0  0  0  0  0999 V2000
   -1.3119   -0.8404    0.0000 O   0  0  0  0  0  0  0  0  0  0  0  0
   -1.3119    0.6355    0.0000 N   0  0  0  0  0  0  0  0  0  0  0  0
    1.1889   -0.7995    0.0000 C   0  0  0  0  0  0  0  0  0  0  0  0
   -0.4509   -0.8404    0.0000 C   0  0  0  0  0  0  0  0  0  0  0  0
   -0.0410   -0.1025    0.0000 C   0  0  0  0  0  0  0  0  0  0  0  0
   -0.0410   -1.5374    0.0000 C   0  0  0  0  0  0  0  0  0  0  0  0
    2.0499   -0.8404    0.0000 C   0  0  0  0  0  0  0  0  0  0  0  0
    0.8199   -0.1435    0.0000 C   0  0  0  0  0  0  0  0  0  0  0  0
    0.8199   -1.5374    0.0000 C   0  0  0  0  0  0  0  0  0  0  0  0
   -0.4100    0.5944    0.0000 C   0  0  0  0  0  0  0  0  0  0  0  0
   -0.4100   -2.3163    0.0000 C   0  0  0  0  0  0  0  0  0  0  0  0
   -1.7218    1.3734    0.0000 C   0  0  0  0  0  0  0  0  0  0  0  0
    2.5008   -0.1435    0.0000 C   0  0  0  0  0  0  0  0  0  0  0  0
    2.9108   -0.8404    0.0000 C   0  0  0  0  0  0  0  0  0  0  0  0
    2.5008   -1.5783    0.0000 C   0  0  0  0  0  0  0  0  0  0  0  0
   -2.5418    1.3734    0.0000 C   0  0  0  0  0  0  0  0  0  0  0  0
   -1.3119    2.0703    0.0000 C   0  0  0  0  0  0  0  0  0  0  0  0
   -1.6809   -0.4714    0.0000 C   0  0  0  0  0  0  0  0  0  0  0  0
   -0.2049   -2.7262    0.0000 C   0  0  0  0  0  0  0  0  0  0  0  0
   -2.9108    2.0293    0.0000 C   0  0  0  0  0  0  0  0  0  0  0  0
   -1.6809    2.7262    0.0000 C   0  0  0  0  0  0  0  0  0  0  0  0
   -2.5418    2.7262    0.0000 C   0  0  0  0  0  0  0  0  0  0  0  0
  1  4  1  0  0  0  0
  1 18  1  0  0  0  0
  2 10  2  0  0  0  0
  2 12  1  0  0  0  0
  3  7  1  0  0  0  0
  3  8  2  0  0  0  0
  3  9  1  0  0  0  0
  4  5  2  0  0  0  0
  4  6  1  0  0  0  0
  5  8  1  0  0  0  0
  5 10  1  0  0  0  0
  6  9  2  0  0  0  0
  6 11  1  0  0  0  0
  7 13  1  0  0  0  0
  7 14  1  0  0  0  0
  7 15  1  0  0  0  0
 11 19  1  0  0  0  0
 12 16  1  0  0  0  0
 12 17  1  0  0  0  0
 16 20  1  0  0  0  0
 17 21  1  0  0  0  0
 20 22  1  0  0  0  0
 21 22  1  0  0  0  0
M  END
> <PUBCHEM_COMPOUND_ID_TYPE>
0

> <PUBCHEM_TOTAL_CHARGE>
0

> <PUBCHEM_SUBSTANCE_ID>
310941912

> <PUBCHEM_SUBSTANCE_VERSION>
1

> <PUBCHEM_EXT_DATASOURCE_NAME>
4488

> <PUBCHEM_EXT_DATASOURCE_REGID>
SCHEMBL16119944

> <PUBCHEM_SUBSTANCE_COMMENT>
InChI=1S/C20H31NO/c1-6-15-12-17(20(2,3)4)13-16(19(15)22-5)14-21-18-10-8-7-9-11-18/h12-14,18H,6-11H2,1-5H3/b21-14+
InChIKey=PUFUFGQZAXNATE-KGENOOAVSA-N

> <PUBCHEM_SUBSTANCE_SYNONYM>
SCHEMBL16119944

> <PUBCHEM_XREF_EXT_ID>
SCHEMBL16119944

> <PUBCHEM_EXT_DATASOURCE_URL>
https://www.surechembl.org/

> <PUBCHEM_EXT_SUBSTANCE_URL>
https://www.surechembl.org/chemical/SCHEMBL16119944

> <PUBCHEM_CID_ASSOCIATIONS>
117608644  1

> <PUBCHEM_COORDINATE_TYPE>
1
3

$$$$
