310932410
  -OEChem-07211613022D

 36 41  0     0  0  0  0  0  0999 V2000
    2.7090   -0.5595    0.0000 F   0  0  0  0  0  0  0  0  0  0  0  0
    0.4122   -0.3828    0.0000 O   0  0  0  0  0  0  0  0  0  0  0  0
    5.5357   -2.2379    0.0000 O   0  0  0  0  0  0  0  0  0  0  0  0
    2.2967   -4.5935    0.0000 N   0  0  0  0  0  0  0  0  0  0  0  0
    4.2401   -2.8856    0.0000 N   0  0  0  0  0  0  0  0  0  0  0  0
    4.2401   -1.5606    0.0000 N   0  0  0  0  0  0  0  0  0  0  0  0
    3.9457   -3.1801    0.0000 N   0  0  0  0  0  0  0  0  0  0  0  0
    1.4723   -4.5640    0.0000 N   0  0  0  0  0  0  0  0  0  0  0  0
    1.2662   -5.4769    0.0000 N   0  0  0  0  0  0  0  0  0  0  0  0
    0.0000   -1.0895    0.0000 N   0  0  0  0  0  0  0  0  0  0  0  0
    2.7090   -3.8868    0.0000 C   0  0  0  0  0  0  0  0  0  0  0  0
    2.7090   -3.0623    0.0000 C   0  0  0  0  0  0  0  0  0  0  0  0
    3.4451   -2.6501    0.0000 C   0  0  0  0  0  0  0  0  0  0  0  0
    3.5335   -3.8868    0.0000 C   0  0  0  0  0  0  0  0  0  0  0  0
    1.8845   -3.8574    0.0000 C   0  0  0  0  0  0  0  0  0  0  0  0
    3.4451   -1.7961    0.0000 C   0  0  0  0  0  0  0  0  0  0  0  0
    2.0317   -1.7961    0.0000 C   0  0  0  0  0  0  0  0  0  0  0  0
    2.0317   -2.6501    0.0000 C   0  0  0  0  0  0  0  0  0  0  0  0
    2.7090   -1.4134    0.0000 C   0  0  0  0  0  0  0  0  0  0  0  0
    1.3251   -1.3839    0.0000 C   0  0  0  0  0  0  0  0  0  0  0  0
    4.7407   -2.2379    0.0000 C   0  0  0  0  0  0  0  0  0  0  0  0
    1.4723   -4.6818    0.0000 C   0  0  0  0  0  0  0  0  0  0  0  0
    2.5912   -5.3591    0.0000 C   0  0  0  0  0  0  0  0  0  0  0  0
    3.9457   -4.6230    0.0000 C   0  0  0  0  0  0  0  0  0  0  0  0
    1.5017   -3.1212    0.0000 C   0  0  0  0  0  0  0  0  0  0  0  0
    1.2367   -0.5595    0.0000 C   0  0  0  0  0  0  0  0  0  0  0  0
    0.5595   -1.7078    0.0000 C   0  0  0  0  0  0  0  0  0  0  0  0
    1.9728   -5.8891    0.0000 C   0  0  0  0  0  0  0  0  0  0  0  0
    4.7996   -3.1506    0.0000 C   0  0  0  0  0  0  0  0  0  0  0  0
    0.6478   -4.5935    0.0000 C   0  0  0  0  0  0  0  0  0  0  0  0
    4.7702   -4.5935    0.0000 C   0  0  0  0  0  0  0  0  0  0  0  0
    0.6478   -3.1506    0.0000 C   0  0  0  0  0  0  0  0  0  0  0  0
    5.1530   -3.8868    0.0000 C   0  0  0  0  0  0  0  0  0  0  0  0
    0.2650   -3.8574    0.0000 C   0  0  0  0  0  0  0  0  0  0  0  0
    1.8256    0.0000    0.0000 C   0  0  0  0  0  0  0  0  0  0  0  0
    0.3828   -2.5323    0.0000 C   0  0  0  0  0  0  0  0  0  0  0  0
  1 19  1  0  0  0  0
  2 10  1  0  0  0  0
  2 26  1  0  0  0  0
  3 21  2  0  0  0  0
  4 11  1  0  0  0  0
  4 22  1  0  0  0  0
  4 23  1  0  0  0  0
  5 13  1  0  0  0  0
  5 21  1  0  0  0  0
  6 16  1  0  0  0  0
  6 21  1  0  0  0  0
  7 14  1  0  0  0  0
  7 29  2  0  0  0  0
  8 15  1  0  0  0  0
  8 30  2  0  0  0  0
  9 22  2  0  0  0  0
  9 28  1  0  0  0  0
 10 27  2  0  0  0  0
 11 12  1  0  0  0  0
 11 14  1  0  0  0  0
 11 15  1  0  0  0  0
 12 13  1  0  0  0  0
 12 18  2  0  0  0  0
 13 16  2  0  0  0  0
 14 24  2  0  0  0  0
 15 25  2  0  0  0  0
 16 19  1  0  0  0  0
 17 18  1  0  0  0  0
 17 19  2  0  0  0  0
 17 20  1  0  0  0  0
 20 26  2  0  0  0  0
 20 27  1  0  0  0  0
 23 28  2  0  0  0  0
 24 31  1  0  0  0  0
 25 32  1  0  0  0  0
 26 35  1  0  0  0  0
 27 36  1  0  0  0  0
 29 33  1  0  0  0  0
 30 34  1  0  0  0  0
 31 33  2  0  0  0  0
 32 34  2  0  0  0  0
M  END
> <PUBCHEM_COMPOUND_ID_TYPE>
0

> <PUBCHEM_TOTAL_CHARGE>
0

> <PUBCHEM_SUBSTANCE_ID>
310932410

> <PUBCHEM_SUBSTANCE_VERSION>
1

> <PUBCHEM_EXT_DATASOURCE_NAME>
4488

> <PUBCHEM_EXT_DATASOURCE_REGID>
SCHEMBL16109778

> <PUBCHEM_SUBSTANCE_COMMENT>
InChI=1S/C26H20FN7O2/c1-15-21(16(2)36-33-15)17-13-18(23-24(22(17)27)32-25(35)31-23)26(34-12-11-28-14-34,19-7-3-5-9-29-19)20-8-4-6-10-30-20/h3-14H,1-2H3,(H2,31,32,35)
InChIKey=UJEZIFSKHQZEIC-UHFFFAOYSA-N

> <PUBCHEM_SUBSTANCE_SYNONYM>
SCHEMBL16109778

> <PUBCHEM_XREF_EXT_ID>
SCHEMBL16109778

> <PUBCHEM_EXT_DATASOURCE_URL>
https://www.surechembl.org/

> <PUBCHEM_EXT_SUBSTANCE_URL>
https://www.surechembl.org/chemical/SCHEMBL16109778

> <PUBCHEM_CID_ASSOCIATIONS>
117600963  1

> <PUBCHEM_COORDINATE_TYPE>
1
3

$$$$
