310943691
  -OEChem-07211613022D

 32 35  0     0  0  0  0  0  0999 V2000
    4.6134    0.9853    0.0000 F   0  0  0  0  0  0  0  0  0  0  0  0
    5.3313    0.5729    0.0000 F   0  0  0  0  0  0  0  0  0  0  0  0
    1.7568    0.9853    0.0000 O   0  0  0  0  0  0  0  0  0  0  0  0
   -5.3466    1.0617    0.0000 O   0  0  0  0  0  0  0  0  0  0  0  0
    1.0541   -0.2521    0.0000 N   0  0  0  0  0  0  0  0  0  0  0  0
   -3.9106    0.2368    0.0000 N   0  0  0  0  0  0  0  0  0  0  0  0
   -3.2080   -1.0006    0.0000 N   0  0  0  0  0  0  0  0  0  0  0  0
    3.9106   -1.0617    0.0000 N   0  0  0  0  0  0  0  0  0  0  0  0
   -1.0999    0.1757    0.0000 C   0  0  0  0  0  0  0  0  0  0  0  0
   -1.7720   -0.1604    0.0000 C   0  0  0  0  0  0  0  0  0  0  0  0
    0.3208    0.1909    0.0000 C   0  0  0  0  0  0  0  0  0  0  0  0
   -1.0846    1.0006    0.0000 C   0  0  0  0  0  0  0  0  0  0  0  0
   -3.1927   -0.1604    0.0000 C   0  0  0  0  0  0  0  0  0  0  0  0
    2.4747   -0.2368    0.0000 C   0  0  0  0  0  0  0  0  0  0  0  0
    3.9106   -0.2368    0.0000 C   0  0  0  0  0  0  0  0  0  0  0  0
   -0.3819   -0.2368    0.0000 C   0  0  0  0  0  0  0  0  0  0  0  0
   -2.4900    0.2521    0.0000 C   0  0  0  0  0  0  0  0  0  0  0  0
    1.7568    0.1451    0.0000 C   0  0  0  0  0  0  0  0  0  0  0  0
    4.6439    0.1757    0.0000 C   0  0  0  0  0  0  0  0  0  0  0  0
    3.1927    0.1757    0.0000 C   0  0  0  0  0  0  0  0  0  0  0  0
   -1.7873   -0.9853    0.0000 C   0  0  0  0  0  0  0  0  0  0  0  0
    0.3208    1.0006    0.0000 C   0  0  0  0  0  0  0  0  0  0  0  0
   -0.3819    1.3825    0.0000 C   0  0  0  0  0  0  0  0  0  0  0  0
    2.4747   -1.0617    0.0000 C   0  0  0  0  0  0  0  0  0  0  0  0
   -2.5053   -1.3977    0.0000 C   0  0  0  0  0  0  0  0  0  0  0  0
    3.2080   -1.4742    0.0000 C   0  0  0  0  0  0  0  0  0  0  0  0
   -3.9106    1.0617    0.0000 C   0  0  0  0  0  0  0  0  0  0  0  0
   -4.6286   -0.1604    0.0000 C   0  0  0  0  0  0  0  0  0  0  0  0
   -1.8178    1.3825    0.0000 C   0  0  0  0  0  0  0  0  0  0  0  0
    5.3466   -0.2215    0.0000 C   0  0  0  0  0  0  0  0  0  0  0  0
   -4.6439    1.4742    0.0000 C   0  0  0  0  0  0  0  0  0  0  0  0
   -5.3466    0.2521    0.0000 C   0  0  0  0  0  0  0  0  0  0  0  0
  1 19  1  0  0  0  0
  2 19  1  0  0  0  0
  3 18  2  0  0  0  0
  4 31  1  0  0  0  0
  4 32  1  0  0  0  0
  5 11  1  0  0  0  0
  5 18  1  0  0  0  0
  6 13  1  0  0  0  0
  6 27  1  0  0  0  0
  6 28  1  0  0  0  0
  7 13  2  0  0  0  0
  7 25  1  0  0  0  0
  8 15  1  0  0  0  0
  8 26  2  0  0  0  0
  9 10  1  0  0  0  0
  9 12  1  0  0  0  0
  9 16  2  0  0  0  0
 10 17  2  0  0  0  0
 10 21  1  0  0  0  0
 11 16  1  0  0  0  0
 11 22  2  0  0  0  0
 12 23  2  0  0  0  0
 12 29  1  0  0  0  0
 13 17  1  0  0  0  0
 14 18  1  0  0  0  0
 14 20  1  0  0  0  0
 14 24  2  0  0  0  0
 15 19  1  0  0  0  0
 15 20  2  0  0  0  0
 19 30  1  0  0  0  0
 21 25  2  0  0  0  0
 22 23  1  0  0  0  0
 24 26  1  0  0  0  0
 27 31  1  0  0  0  0
 28 32  1  0  0  0  0
M  END
> <PUBCHEM_COMPOUND_ID_TYPE>
0

> <PUBCHEM_TOTAL_CHARGE>
0

> <PUBCHEM_SUBSTANCE_ID>
310943691

> <PUBCHEM_SUBSTANCE_VERSION>
1

> <PUBCHEM_EXT_DATASOURCE_NAME>
4488

> <PUBCHEM_EXT_DATASOURCE_REGID>
SCHEMBL16121759

> <PUBCHEM_SUBSTANCE_COMMENT>
InChI=1S/C24H24F2N4O2/c1-16-3-4-19(29-23(31)18-6-7-27-21(13-18)24(2,25)26)15-20(16)17-5-8-28-22(14-17)30-9-11-32-12-10-30/h3-8,13-15H,9-12H2,1-2H3,(H,29,31)
InChIKey=PYCRDHRFOVBBQM-UHFFFAOYSA-N

> <PUBCHEM_SUBSTANCE_SYNONYM>
SCHEMBL16121759

> <PUBCHEM_XREF_EXT_ID>
SCHEMBL16121759

> <PUBCHEM_EXT_DATASOURCE_URL>
https://www.surechembl.org/

> <PUBCHEM_EXT_SUBSTANCE_URL>
https://www.surechembl.org/chemical/SCHEMBL16121759

> <PUBCHEM_CID_ASSOCIATIONS>
117610078  1

> <PUBCHEM_COORDINATE_TYPE>
1
3

$$$$
