310929268
  -OEChem-07211613022D

 48 53  0     0  0  0  0  0  0999 V2000
    3.5036   -7.7794    0.0000 O   0  0  0  0  0  0  0  0  0  0  0  0
    2.1379   -5.2852    0.0000 O   0  0  0  0  0  0  0  0  0  0  0  0
    0.6532   -8.6108    0.0000 O   0  0  0  0  0  0  0  0  0  0  0  0
    4.9289   -7.7794    0.0000 O   0  0  0  0  0  0  0  0  0  0  0  0
    7.3636   -8.0169    0.0000 O   0  0  0  0  0  0  0  0  0  0  0  0
    2.0785   -8.6108    0.0000 N   0  0  0  0  0  0  0  0  0  0  0  0
    5.6415   -9.0264    0.0000 N   0  0  0  0  0  0  0  0  0  0  0  0
    1.3659   -9.8578    0.0000 N   0  0  0  0  0  0  0  0  0  0  0  0
    0.0000   -4.0381    0.0000 N   0  0  0  0  0  0  0  0  0  0  0  0
    0.7126   -2.8505    0.0000 N   0  0  0  0  0  0  0  0  0  0  0  0
    2.1972   -1.2471    0.0000 N   0  0  0  0  0  0  0  0  0  0  0  0
    2.7911   -9.0264    0.0000 C   0  0  0  0  0  0  0  0  0  0  0  0
    2.0785   -7.7794    0.0000 C   0  0  0  0  0  0  0  0  0  0  0  0
    3.5036   -8.6108    0.0000 C   0  0  0  0  0  0  0  0  0  0  0  0
    2.9692   -7.5418    0.0000 C   0  0  0  0  0  0  0  0  0  0  0  0
    4.2163   -9.0264    0.0000 C   0  0  0  0  0  0  0  0  0  0  0  0
    2.7911   -6.5323    0.0000 C   0  0  0  0  0  0  0  0  0  0  0  0
    3.5036  -10.2141    0.0000 C   0  0  0  0  0  0  0  0  0  0  0  0
    2.7911   -9.8578    0.0000 C   0  0  0  0  0  0  0  0  0  0  0  0
    2.0785   -6.1166    0.0000 C   0  0  0  0  0  0  0  0  0  0  0  0
    4.2163   -9.8578    0.0000 C   0  0  0  0  0  0  0  0  0  0  0  0
    1.3659   -9.0264    0.0000 C   0  0  0  0  0  0  0  0  0  0  0  0
    1.3659   -7.3636    0.0000 C   0  0  0  0  0  0  0  0  0  0  0  0
    3.5036  -11.0455    0.0000 C   0  0  0  0  0  0  0  0  0  0  0  0
    4.9289   -8.6108    0.0000 C   0  0  0  0  0  0  0  0  0  0  0  0
    1.3659   -6.5323    0.0000 C   0  0  0  0  0  0  0  0  0  0  0  0
    3.6818   -7.9575    0.0000 C   0  0  0  0  0  0  0  0  0  0  0  0
    3.5036   -6.1760    0.0000 C   0  0  0  0  0  0  0  0  0  0  0  0
    4.2163   -7.3636    0.0000 C   0  0  0  0  0  0  0  0  0  0  0  0
    4.2163   -6.5916    0.0000 C   0  0  0  0  0  0  0  0  0  0  0  0
    1.4252   -4.8695    0.0000 C   0  0  0  0  0  0  0  0  0  0  0  0
    2.6723  -11.0455    0.0000 C   0  0  0  0  0  0  0  0  0  0  0  0
    3.5036  -11.8769    0.0000 C   0  0  0  0  0  0  0  0  0  0  0  0
    4.3350  -11.0455    0.0000 C   0  0  0  0  0  0  0  0  0  0  0  0
    6.3541   -8.6108    0.0000 C   0  0  0  0  0  0  0  0  0  0  0  0
    2.7911   -7.3636    0.0000 C   0  0  0  0  0  0  0  0  0  0  0  0
    1.4252   -4.0975    0.0000 C   0  0  0  0  0  0  0  0  0  0  0  0
    0.7126   -5.2852    0.0000 C   0  0  0  0  0  0  0  0  0  0  0  0
    7.1855   -8.8483    0.0000 C   0  0  0  0  0  0  0  0  0  0  0  0
    6.5916   -7.7794    0.0000 C   0  0  0  0  0  0  0  0  0  0  0  0
    0.7126   -3.6818    0.0000 C   0  0  0  0  0  0  0  0  0  0  0  0
    0.0000   -4.8695    0.0000 C   0  0  0  0  0  0  0  0  0  0  0  0
    1.4252   -2.4348    0.0000 C   0  0  0  0  0  0  0  0  0  0  0  0
    1.4846   -1.6034    0.0000 C   0  0  0  0  0  0  0  0  0  0  0  0
    0.7720   -1.1877    0.0000 C   0  0  0  0  0  0  0  0  0  0  0  0
    2.1972   -0.4157    0.0000 C   0  0  0  0  0  0  0  0  0  0  0  0
    0.7720   -0.4157    0.0000 C   0  0  0  0  0  0  0  0  0  0  0  0
    1.4846    0.0000    0.0000 C   0  0  0  0  0  0  0  0  0  0  0  0
  1 14  1  0  0  0  0
  1 36  1  0  0  0  0
  2 20  1  0  0  0  0
  2 31  1  0  0  0  0
  3 22  2  0  0  0  0
  4 25  2  0  0  0  0
  5 39  1  0  0  0  0
  5 40  1  0  0  0  0
  6 12  1  0  0  0  0
  6 13  1  0  0  0  0
  6 22  1  0  0  0  0
  7 25  1  0  0  0  0
  7 35  1  0  0  0  0
  8 22  1  0  0  0  0
  9 41  2  0  0  0  0
  9 42  1  0  0  0  0
 10 41  1  0  0  0  0
 10 43  1  0  0  0  0
 11 44  2  0  0  0  0
 11 46  1  0  0  0  0
 12 14  1  0  0  0  0
 12 19  2  0  0  0  0
 13 15  1  0  0  0  0
 13 23  2  0  0  0  0
 14 16  2  0  0  0  0
 15 17  2  0  0  0  0
 15 27  1  0  0  0  0
 16 21  1  0  0  0  0
 16 25  1  0  0  0  0
 17 20  1  0  0  0  0
 17 28  1  0  0  0  0
 18 19  1  0  0  0  0
 18 21  2  0  0  0  0
 18 24  1  0  0  0  0
 20 26  2  0  0  0  0
 23 26  1  0  0  0  0
 24 32  1  0  0  0  0
 24 33  1  0  0  0  0
 24 34  1  0  0  0  0
 27 29  2  0  0  0  0
 28 30  2  0  0  0  0
 29 30  1  0  0  0  0
 31 37  2  0  0  0  0
 31 38  1  0  0  0  0
 35 39  1  0  0  0  0
 35 40  1  0  0  0  0
 37 41  1  0  0  0  0
 38 42  2  0  0  0  0
 43 44  1  0  0  0  0
 44 45  1  0  0  0  0
 45 47  2  0  0  0  0
 46 48  2  0  0  0  0
 47 48  1  0  0  0  0
M  END
> <PUBCHEM_COMPOUND_ID_TYPE>
0

> <PUBCHEM_TOTAL_CHARGE>
0

> <PUBCHEM_SUBSTANCE_ID>
310929268

> <PUBCHEM_SUBSTANCE_VERSION>
1

> <PUBCHEM_EXT_DATASOURCE_NAME>
4488

> <PUBCHEM_EXT_DATASOURCE_REGID>
SCHEMBL16106432

> <PUBCHEM_SUBSTANCE_COMMENT>
InChI=1S/C37H38N6O5/c1-37(2,3)23-17-29(35(44)42-25-21-47-22-25)34(46-4)31(18-23)43(36(38)45)30-12-13-32(28-11-6-5-10-27(28)30)48-26-14-16-40-33(19-26)41-20-24-9-7-8-15-39-24/h5-19,25H,20-22H2,1-4H3,(H2,38,45)(H,40,41)(H,42,44)
InChIKey=WSCDLGDEZSTIJI-UHFFFAOYSA-N

> <PUBCHEM_SUBSTANCE_SYNONYM>
SCHEMBL16106432

> <PUBCHEM_XREF_EXT_ID>
SCHEMBL16106432

> <PUBCHEM_EXT_DATASOURCE_URL>
https://www.surechembl.org/

> <PUBCHEM_EXT_SUBSTANCE_URL>
https://www.surechembl.org/chemical/SCHEMBL16106432

> <PUBCHEM_CID_ASSOCIATIONS>
117598688  1

> <PUBCHEM_COORDINATE_TYPE>
1
3

$$$$
