310943633
  -OEChem-07211613022D

 41 46  0     0  0  0  0  0  0999 V2000
   -3.5495    0.1178    0.0000 O   0  0  0  0  0  0  0  0  0  0  0  0
   -3.5662   -3.0112    0.0000 O   0  0  0  0  0  0  0  0  0  0  0  0
   -4.9457    2.6074    0.0000 O   0  0  0  0  0  0  0  0  0  0  0  0
    2.3215    2.3215    0.0000 O   0  0  0  0  0  0  0  0  0  0  0  0
   -3.5158    1.7663    0.0000 N   0  0  0  0  0  0  0  0  0  0  0  0
   -2.1028    0.1009    0.0000 N   0  0  0  0  0  0  0  0  0  0  0  0
    0.2018    2.8766    0.0000 N   0  0  0  0  0  0  0  0  0  0  0  0
    1.5308    1.1439    0.0000 N   0  0  0  0  0  0  0  0  0  0  0  0
    4.3569    0.1682    0.0000 N   0  0  0  0  0  0  0  0  0  0  0  0
    4.9456   -1.9177    0.0000 N   0  0  0  0  0  0  0  0  0  0  0  0
   -3.5158   -1.8336    0.0000 C   0  0  0  0  0  0  0  0  0  0  0  0
   -3.5495   -0.7065    0.0000 C   0  0  0  0  0  0  0  0  0  0  0  0
   -4.1046   -1.2953    0.0000 C   0  0  0  0  0  0  0  0  0  0  0  0
   -2.9775   -1.2449    0.0000 C   0  0  0  0  0  0  0  0  0  0  0  0
   -2.9607   -2.4560    0.0000 C   0  0  0  0  0  0  0  0  0  0  0  0
   -4.1214   -2.4055    0.0000 C   0  0  0  0  0  0  0  0  0  0  0  0
   -2.8429    0.5215    0.0000 C   0  0  0  0  0  0  0  0  0  0  0  0
   -2.8092    1.3458    0.0000 C   0  0  0  0  0  0  0  0  0  0  0  0
   -1.3626    1.3121    0.0000 C   0  0  0  0  0  0  0  0  0  0  0  0
   -0.6056    1.6990    0.0000 C   0  0  0  0  0  0  0  0  0  0  0  0
   -2.0859    1.7327    0.0000 C   0  0  0  0  0  0  0  0  0  0  0  0
   -1.3962    0.4878    0.0000 C   0  0  0  0  0  0  0  0  0  0  0  0
   -0.5383    2.5233    0.0000 C   0  0  0  0  0  0  0  0  0  0  0  0
    0.1009    1.2449    0.0000 C   0  0  0  0  0  0  0  0  0  0  0  0
    0.8243    1.6149    0.0000 C   0  0  0  0  0  0  0  0  0  0  0  0
   -3.5158    2.5906    0.0000 C   0  0  0  0  0  0  0  0  0  0  0  0
   -4.2223    1.3794    0.0000 C   0  0  0  0  0  0  0  0  0  0  0  0
    0.8915    2.4224    0.0000 C   0  0  0  0  0  0  0  0  0  0  0  0
    2.9607    1.0766    0.0000 C   0  0  0  0  0  0  0  0  0  0  0  0
    2.2542    1.5140    0.0000 C   0  0  0  0  0  0  0  0  0  0  0  0
    3.6167   -0.2018    0.0000 C   0  0  0  0  0  0  0  0  0  0  0  0
    3.5495   -1.0262    0.0000 C   0  0  0  0  0  0  0  0  0  0  0  0
    2.9270    0.2523    0.0000 C   0  0  0  0  0  0  0  0  0  0  0  0
   -4.2055    3.0112    0.0000 C   0  0  0  0  0  0  0  0  0  0  0  0
   -4.9457    1.7999    0.0000 C   0  0  0  0  0  0  0  0  0  0  0  0
   -1.2449    2.9439    0.0000 C   0  0  0  0  0  0  0  0  0  0  0  0
    3.6840    1.4299    0.0000 C   0  0  0  0  0  0  0  0  0  0  0  0
    4.4074    0.9757    0.0000 C   0  0  0  0  0  0  0  0  0  0  0  0
    4.2392   -1.4803    0.0000 C   0  0  0  0  0  0  0  0  0  0  0  0
    3.3644   -1.8336    0.0000 C   0  0  0  0  0  0  0  0  0  0  0  0
    2.8092   -1.3962    0.0000 C   0  0  0  0  0  0  0  0  0  0  0  0
  1 12  1  0  0  0  0
  1 17  1  0  0  0  0
  2 15  1  0  0  0  0
  2 16  1  0  0  0  0
  3 34  1  0  0  0  0
  3 35  1  0  0  0  0
  4 30  2  0  0  0  0
  5 18  1  0  0  0  0
  5 26  1  0  0  0  0
  5 27  1  0  0  0  0
  6 17  1  0  0  0  0
  6 22  2  0  0  0  0
  7 23  2  0  0  0  0
  7 28  1  0  0  0  0
  8 25  1  0  0  0  0
  8 30  1  0  0  0  0
  9 31  2  0  0  0  0
  9 38  1  0  0  0  0
 10 39  3  0  0  0  0
 11 13  1  0  0  0  0
 11 14  1  0  0  0  0
 11 15  1  0  0  0  0
 11 16  1  0  0  0  0
 12 13  1  0  0  0  0
 12 14  1  0  0  0  0
 17 18  2  0  0  0  0
 18 21  1  0  0  0  0
 19 20  1  0  0  0  0
 19 21  2  0  0  0  0
 19 22  1  0  0  0  0
 20 23  1  0  0  0  0
 20 24  2  0  0  0  0
 23 36  1  0  0  0  0
 24 25  1  0  0  0  0
 25 28  2  0  0  0  0
 26 34  1  0  0  0  0
 27 35  1  0  0  0  0
 29 30  1  0  0  0  0
 29 33  2  0  0  0  0
 29 37  1  0  0  0  0
 31 32  1  0  0  0  0
 31 33  1  0  0  0  0
 32 39  1  0  0  0  0
 32 40  1  0  0  0  0
 32 41  1  0  0  0  0
 37 38  2  0  0  0  0
M  END
> <PUBCHEM_COMPOUND_ID_TYPE>
0

> <PUBCHEM_TOTAL_CHARGE>
0

> <PUBCHEM_SUBSTANCE_ID>
310943633

> <PUBCHEM_SUBSTANCE_VERSION>
1

> <PUBCHEM_EXT_DATASOURCE_NAME>
4488

> <PUBCHEM_EXT_DATASOURCE_REGID>
SCHEMBL16121701

> <PUBCHEM_SUBSTANCE_COMMENT>
InChI=1S/C31H34N6O4/c1-20-25(12-23(16-34-20)36-28(38)21-4-5-33-27(11-21)30(2,3)17-32)22-10-26(37-6-8-39-9-7-37)29(35-15-22)41-24-13-31(14-24)18-40-19-31/h4-5,10-12,15-16,24H,6-9,13-14,18-19H2,1-3H3,(H,36,38)
InChIKey=AICYPNBSLOCCHN-UHFFFAOYSA-N

> <PUBCHEM_SUBSTANCE_SYNONYM>
SCHEMBL16121701

> <PUBCHEM_XREF_EXT_ID>
SCHEMBL16121701

> <PUBCHEM_EXT_DATASOURCE_URL>
https://www.surechembl.org/

> <PUBCHEM_EXT_SUBSTANCE_URL>
https://www.surechembl.org/chemical/SCHEMBL16121701

> <PUBCHEM_CID_ASSOCIATIONS>
117610024  1

> <PUBCHEM_COORDINATE_TYPE>
1
3

$$$$
