310929785
  -OEChem-07211613022D

 27 30  0     1  0  0  0  0  0999 V2000
    3.5518    2.0058    0.0000 O   0  0  0  0  0  0  0  0  0  0  0  0
    3.8957    1.5533    0.0000 O   0  0  0  0  0  0  0  0  0  0  0  0
    2.1811    2.0353    0.0000 O   0  0  0  0  0  0  0  0  0  0  0  0
    4.2643    2.4574    0.0000 O   0  0  0  0  0  0  0  0  0  0  0  0
    0.7215    1.8428    0.0000 O   0  0  0  0  0  0  0  0  0  0  0  0
    0.2772    0.5131    0.0000 O   0  0  0  0  0  0  0  0  0  0  0  0
   -2.1877    2.0758    0.0000 O   0  0  0  0  0  0  0  0  0  0  0  0
   -2.6319    0.7461    0.0000 O   0  0  0  0  0  0  0  0  0  0  0  0
    3.3177    1.0728    0.0000 C   0  0  3  0  0  0  0  0  0  0  0  0
    2.9806    1.7698    0.0000 C   0  0  3  0  0  0  0  0  0  0  0  0
    2.5894    0.5828    0.0000 C   0  0  3  0  0  0  0  0  0  0  0  0
    3.8678    0.3905    0.0000 C   0  0  3  0  0  0  0  0  0  0  0  0
    4.7121    1.7621    0.0000 C   0  0  3  0  0  0  0  0  0  0  0  0
    1.7724    0.8111    0.0000 C   0  0  3  0  0  0  0  0  0  0  0  0
    3.7535   -0.4408    0.0000 C   0  0  3  0  0  0  0  0  0  0  0  0
    1.4893    1.5863    0.0000 C   0  0  3  0  0  0  0  0  0  0  0  0
    4.7090    0.4015    0.0000 C   0  0  0  0  0  0  0  0  0  0  0  0
    2.4950   -0.2560    0.0000 C   0  0  0  0  0  0  0  0  0  0  0  0
    5.1886    1.0775    0.0000 C   0  0  0  0  0  0  0  0  0  0  0  0
    3.0478   -0.8638    0.0000 C   0  0  0  0  0  0  0  0  0  0  0  0
    5.3846    2.2126    0.0000 C   0  0  0  0  0  0  0  0  0  0  0  0
    1.2227    0.2169    0.0000 C   0  0  0  0  0  0  0  0  0  0  0  0
    4.4290   -0.8869    0.0000 C   0  0  0  0  0  0  0  0  0  0  0  0
    0.1155    1.3062    0.0000 C   0  0  0  0  0  0  0  0  0  0  0  0
   -0.6522    1.5628    0.0000 C   0  0  0  0  0  0  0  0  0  0  0  0
   -1.2582    1.0262    0.0000 C   0  0  0  0  0  0  0  0  0  0  0  0
   -2.0260    1.2828    0.0000 C   0  0  0  0  0  0  0  0  0  0  0  0
  1  4  1  0  0  0  0
  9  1  1  1  0  0  0
  2 10  1  0  0  0  0
  2 13  1  0  0  0  0
 10  3  1  1  0  0  0
  3 16  1  0  0  0  0
  4 13  1  0  0  0  0
 16  5  1  6  0  0  0
  5 24  1  0  0  0  0
  6 24  2  0  0  0  0
  7 27  2  0  0  0  0
  8 27  1  0  0  0  0
  9 10  1  0  0  0  0
  9 11  1  0  0  0  0
  9 12  1  0  0  0  0
 11 14  1  0  0  0  0
 11 18  1  1  0  0  0
 12 15  1  0  0  0  0
 12 17  1  1  0  0  0
 13 19  1  0  0  0  0
 13 21  1  6  0  0  0
 14 16  1  0  0  0  0
 14 22  1  6  0  0  0
 15 20  1  0  0  0  0
 15 23  1  1  0  0  0
 17 19  1  0  0  0  0
 18 20  1  0  0  0  0
 24 25  1  0  0  0  0
 25 26  1  0  0  0  0
 26 27  1  0  0  0  0
M  END
> <PUBCHEM_COMPOUND_ID_TYPE>
0

> <PUBCHEM_TOTAL_CHARGE>
0

> <PUBCHEM_SUBSTANCE_ID>
310929785

> <PUBCHEM_SUBSTANCE_VERSION>
1

> <PUBCHEM_EXT_DATASOURCE_NAME>
4488

> <PUBCHEM_EXT_DATASOURCE_REGID>
SCHEMBL16106987

> <PUBCHEM_SUBSTANCE_COMMENT>
InChI=1S/C19H28O8/c1-10-4-5-13-11(2)16(23-15(22)7-6-14(20)21)24-17-19(13)12(10)8-9-18(3,25-17)26-27-19/h10-13,16-17H,4-9H2,1-3H3,(H,20,21)/t10-,11-,12-,13-,16+,17-,18-,19-/m0/s1
InChIKey=FIHJKUPKCHIPAT-AYWVTRCFSA-N

> <PUBCHEM_SUBSTANCE_SYNONYM>
SCHEMBL16106987

> <PUBCHEM_XREF_EXT_ID>
SCHEMBL16106987

> <PUBCHEM_EXT_DATASOURCE_URL>
https://www.surechembl.org/

> <PUBCHEM_EXT_SUBSTANCE_URL>
https://www.surechembl.org/chemical/SCHEMBL16106987

> <PUBCHEM_CID_ASSOCIATIONS>
117599069  1

> <PUBCHEM_COORDINATE_TYPE>
1
3

> <PUBCHEM_BONDANNOTATIONS>
9  1  5
11  18  5
12  17  5
13  21  6
14  22  6
15  23  5
10  3  5
16  5  6

$$$$
