310942865
  -OEChem-07211613022D

 57 61  0     1  0  0  0  0  0999 V2000
   -4.2740    0.5061    0.0000 F   0  0  0  0  0  0  0  0  0  0  0  0
    2.2682   -0.6748    0.0000 F   0  0  0  0  0  0  0  0  0  0  0  0
   -4.2740   -2.8118    0.0000 F   0  0  0  0  0  0  0  0  0  0  0  0
   -1.6121    4.3864    0.0000 F   0  0  0  0  0  0  0  0  0  0  0  0
   -1.5559   -1.3497    0.0000 O   0  0  0  0  0  0  0  0  0  0  0  0
   -0.7124   -2.7931    0.0000 O   0  0  0  0  0  0  0  0  0  0  0  0
    2.0807   -3.8803    0.0000 O   0  0  0  0  0  0  0  0  0  0  0  0
   -4.1240    2.9242    0.0000 O   0  0  0  0  0  0  0  0  0  0  0  0
    0.6561   -3.8803    0.0000 O   0  0  0  0  0  0  0  0  0  0  0  0
   -1.9683   -3.5054    0.0000 O   0  0  0  0  0  0  0  0  0  0  0  0
   -4.1240    4.3677    0.0000 O   0  0  0  0  0  0  0  0  0  0  0  0
   -0.2999   -0.6186    0.0000 N   0  0  0  0  0  0  0  0  0  0  0  0
   -2.0433    0.7685    0.0000 N   0  0  0  0  0  0  0  0  0  0  0  0
   -2.0433   -0.5811    0.0000 N   0  0  0  0  0  0  0  0  0  0  0  0
    1.3684   -2.6243    0.0000 N   0  0  0  0  0  0  0  0  0  0  0  0
   -0.7124    0.0937    0.0000 C   0  0  3  0  0  0  0  0  0  0  0  0
   -1.5559    0.1125    0.0000 C   0  0  0  0  0  0  0  0  0  0  0  0
   -0.2812    0.8810    0.0000 C   0  0  0  0  0  0  0  0  0  0  0  0
   -2.8305   -0.2999    0.0000 C   0  0  0  0  0  0  0  0  0  0  0  0
   -2.8118    0.5249    0.0000 C   0  0  0  0  0  0  0  0  0  0  0  0
   -0.7124   -1.3497    0.0000 C   0  0  0  0  0  0  0  0  0  0  0  0
   -3.5429   -0.7311    0.0000 C   0  0  0  0  0  0  0  0  0  0  0  0
    0.5249   -0.6186    0.0000 C   0  0  0  0  0  0  0  0  0  0  0  0
   -1.6308    1.5371    0.0000 C   0  0  0  0  0  0  0  0  0  0  0  0
    0.9560   -1.3309    0.0000 C   0  0  3  0  0  0  0  0  0  0  0  0
    0.5249    0.8248    0.0000 C   0  0  0  0  0  0  0  0  0  0  0  0
   -4.2740   -0.3186    0.0000 C   0  0  0  0  0  0  0  0  0  0  0  0
   -0.2999   -2.0620    0.0000 C   0  0  3  0  0  0  0  0  0  0  0  0
   -0.7311    1.5183    0.0000 C   0  0  0  0  0  0  0  0  0  0  0  0
    0.1125    1.5559    0.0000 C   0  0  0  0  0  0  0  0  0  0  0  0
   -2.0433    2.2120    0.0000 C   0  0  0  0  0  0  0  0  0  0  0  0
    1.7808   -1.3684    0.0000 C   0  0  3  0  0  0  0  0  0  0  0  0
   -3.5616   -1.5559    0.0000 C   0  0  0  0  0  0  0  0  0  0  0  0
    0.6936   -2.1370    0.0000 C   0  0  0  0  0  0  0  0  0  0  0  0
    2.0433   -2.1183    0.0000 C   0  0  0  0  0  0  0  0  0  0  0  0
   -4.2552   -1.9683    0.0000 C   0  0  0  0  0  0  0  0  0  0  0  0
   -4.9675   -0.7311    0.0000 C   0  0  0  0  0  0  0  0  0  0  0  0
   -2.8681    2.2307    0.0000 C   0  0  0  0  0  0  0  0  0  0  0  0
   -1.6308    2.9618    0.0000 C   0  0  0  0  0  0  0  0  0  0  0  0
    1.3684   -3.4492    0.0000 C   0  0  0  0  0  0  0  0  0  0  0  0
   -4.9675   -1.5746    0.0000 C   0  0  0  0  0  0  0  0  0  0  0  0
    0.8998    1.5933    0.0000 C   0  0  0  0  0  0  0  0  0  0  0  0
   -3.2804    2.9431    0.0000 C   0  0  0  0  0  0  0  0  0  0  0  0
   -2.0433    3.6366    0.0000 C   0  0  0  0  0  0  0  0  0  0  0  0
    0.2812   -2.6243    0.0000 C   0  0  0  0  0  0  0  0  0  0  0  0
   -2.8681    3.6553    0.0000 C   0  0  0  0  0  0  0  0  0  0  0  0
   -1.5371   -2.7556    0.0000 C   0  0  0  0  0  0  0  0  0  0  0  0
    2.8118   -3.4492    0.0000 C   0  0  0  0  0  0  0  0  0  0  0  0
   -1.9870   -2.0620    0.0000 C   0  0  0  0  0  0  0  0  0  0  0  0
   -4.5364    3.6553    0.0000 C   0  0  0  0  0  0  0  0  0  0  0  0
    3.5429   -3.8615    0.0000 C   0  0  0  0  0  0  0  0  0  0  0  0
    3.5429   -4.7051    0.0000 C   0  0  0  0  0  0  0  0  0  0  0  0
    4.2552   -3.4679    0.0000 C   0  0  0  0  0  0  0  0  0  0  0  0
    4.2740   -5.0988    0.0000 C   0  0  0  0  0  0  0  0  0  0  0  0
    4.9675   -3.8803    0.0000 C   0  0  0  0  0  0  0  0  0  0  0  0
    4.9675   -4.6863    0.0000 C   0  0  0  0  0  0  0  0  0  0  0  0
   -4.5551    5.0988    0.0000 C   0  0  0  0  0  0  0  0  0  0  0  0
  1 27  1  0  0  0  0
 32  2  1  1  0  0  0
  3 36  1  0  0  0  0
  4 44  1  0  0  0  0
  5 21  2  0  0  0  0
  6 28  1  0  0  0  0
  6 47  1  0  0  0  0
  7 40  1  0  0  0  0
  7 48  1  0  0  0  0
  8 43  1  0  0  0  0
  8 50  1  0  0  0  0
  9 40  2  0  0  0  0
 10 47  2  0  0  0  0
 11 50  1  0  0  0  0
 11 57  1  0  0  0  0
 16 12  1  1  0  0  0
 12 21  1  0  0  0  0
 12 23  1  0  0  0  0
 13 17  1  0  0  0  0
 13 20  1  0  0  0  0
 13 24  1  0  0  0  0
 14 17  2  0  0  0  0
 14 19  1  0  0  0  0
 15 34  1  0  0  0  0
 15 35  1  0  0  0  0
 15 40  1  0  0  0  0
 16 17  1  0  0  0  0
 16 18  1  0  0  0  0
 18 26  1  0  0  0  0
 18 29  1  0  0  0  0
 18 30  1  0  0  0  0
 19 20  2  0  0  0  0
 19 22  1  0  0  0  0
 21 28  1  0  0  0  0
 22 27  2  0  0  0  0
 22 33  1  0  0  0  0
 25 23  1  1  0  0  0
 24 31  1  0  0  0  0
 25 32  1  0  0  0  0
 25 34  1  0  0  0  0
 26 42  2  0  0  0  0
 27 37  1  0  0  0  0
 28 45  1  6  0  0  0
 31 38  1  0  0  0  0
 31 39  2  0  0  0  0
 32 35  1  0  0  0  0
 33 36  2  0  0  0  0
 36 41  1  0  0  0  0
 37 41  2  0  0  0  0
 38 43  2  0  0  0  0
 39 44  1  0  0  0  0
 43 46  1  0  0  0  0
 44 46  2  0  0  0  0
 47 49  1  0  0  0  0
 48 51  1  0  0  0  0
 51 52  2  0  0  0  0
 51 53  1  0  0  0  0
 52 54  1  0  0  0  0
 53 55  2  0  0  0  0
 54 56  2  0  0  0  0
 55 56  1  0  0  0  0
M  END
> <PUBCHEM_COMPOUND_ID_TYPE>
0

> <PUBCHEM_TOTAL_CHARGE>
0

> <PUBCHEM_SUBSTANCE_ID>
310942865

> <PUBCHEM_SUBSTANCE_VERSION>
1

> <PUBCHEM_EXT_DATASOURCE_NAME>
4488

> <PUBCHEM_EXT_DATASOURCE_REGID>
SCHEMBL16120923

> <PUBCHEM_SUBSTANCE_COMMENT>
InChI=1S/C42H46F4N4O7/c1-7-42(4,5)38(39-47-37(34-18-31(43)13-14-35(34)45)23-48(39)19-29-15-32(44)17-33(16-29)56-25-54-6)50(40(52)26(2)57-27(3)51)21-30-20-49(22-36(30)46)41(53)55-24-28-11-9-8-10-12-28/h7-18,23,26,30,36,38H,1,19-22,24-25H2,2-6H3/t26-,30-,36-,38-/m0/s1
InChIKey=UKRSFQJAMUPTLX-URABKJQFSA-N

> <PUBCHEM_SUBSTANCE_SYNONYM>
SCHEMBL16120923

> <PUBCHEM_XREF_EXT_ID>
SCHEMBL16120923

> <PUBCHEM_EXT_DATASOURCE_URL>
https://www.surechembl.org/

> <PUBCHEM_EXT_SUBSTANCE_URL>
https://www.surechembl.org/chemical/SCHEMBL16120923

> <PUBCHEM_CID_ASSOCIATIONS>
117609353  1

> <PUBCHEM_COORDINATE_TYPE>
1
3

> <PUBCHEM_BONDANNOTATIONS>
16  12  5
32  2  5
25  23  5
28  45  6

$$$$
