310936990
  -OEChem-07211613022D

 30 34  0     0  0  0  0  0  0999 V2000
    0.7219   -4.1765    0.0000 O   0  0  0  0  0  0  0  0  0  0  0  0
    3.6094   -2.4750    0.0000 O   0  0  0  0  0  0  0  0  0  0  0  0
    1.3922  -10.3124    0.0000 O   0  0  0  0  0  0  0  0  0  0  0  0
    1.3922   -5.4140    0.0000 N   0  0  0  0  0  0  0  0  0  0  0  0
    1.3922   -8.6625    0.0000 N   0  0  0  0  0  0  0  0  0  0  0  0
    0.0000   -6.1875    0.0000 N   0  0  0  0  0  0  0  0  0  0  0  0
    4.2796   -1.2375    0.0000 N   0  0  0  0  0  0  0  0  0  0  0  0
    2.8875   -1.2375    0.0000 N   0  0  0  0  0  0  0  0  0  0  0  0
    0.7219   -6.5999    0.0000 C   0  0  0  0  0  0  0  0  0  0  0  0
    1.3922   -6.2390    0.0000 C   0  0  0  0  0  0  0  0  0  0  0  0
    1.3922   -7.8375    0.0000 C   0  0  0  0  0  0  0  0  0  0  0  0
    0.6703   -7.4249    0.0000 C   0  0  0  0  0  0  0  0  0  0  0  0
    0.7219   -4.9499    0.0000 C   0  0  0  0  0  0  0  0  0  0  0  0
    2.1141   -6.5999    0.0000 C   0  0  0  0  0  0  0  0  0  0  0  0
    2.1141   -7.4249    0.0000 C   0  0  0  0  0  0  0  0  0  0  0  0
    0.0000   -5.3625    0.0000 C   0  0  0  0  0  0  0  0  0  0  0  0
    1.3922   -3.7641    0.0000 C   0  0  0  0  0  0  0  0  0  0  0  0
    2.8875   -2.8875    0.0000 C   0  0  0  0  0  0  0  0  0  0  0  0
    2.1141   -9.0749    0.0000 C   0  0  0  0  0  0  0  0  0  0  0  0
    0.7219   -9.0749    0.0000 C   0  0  0  0  0  0  0  0  0  0  0  0
    1.4438   -2.9391    0.0000 C   0  0  0  0  0  0  0  0  0  0  0  0
    2.1656   -4.1250    0.0000 C   0  0  0  0  0  0  0  0  0  0  0  0
    2.1656   -2.5265    0.0000 C   0  0  0  0  0  0  0  0  0  0  0  0
    2.8359   -3.7125    0.0000 C   0  0  0  0  0  0  0  0  0  0  0  0
    3.5578   -1.7015    0.0000 C   0  0  0  0  0  0  0  0  0  0  0  0
    0.7219   -9.8999    0.0000 C   0  0  0  0  0  0  0  0  0  0  0  0
    2.1141   -9.8999    0.0000 C   0  0  0  0  0  0  0  0  0  0  0  0
    4.2796   -0.4641    0.0000 C   0  0  0  0  0  0  0  0  0  0  0  0
    2.8875   -0.4125    0.0000 C   0  0  0  0  0  0  0  0  0  0  0  0
    3.5578    0.0000    0.0000 C   0  0  0  0  0  0  0  0  0  0  0  0
  1 13  1  0  0  0  0
 17  1  1  6  0  0  0
 18  2  1  1  0  0  0
  2 25  1  0  0  0  0
  3 26  1  0  0  0  0
  3 27  1  0  0  0  0
  4 10  2  0  0  0  0
  4 13  1  0  0  0  0
  5 11  1  0  0  0  0
  5 19  1  0  0  0  0
  5 20  1  0  0  0  0
  6  9  2  0  0  0  0
  6 16  1  0  0  0  0
  7 25  2  0  0  0  0
  7 28  1  0  0  0  0
  8 25  1  0  0  0  0
  8 29  2  0  0  0  0
  9 10  1  0  0  0  0
  9 12  1  0  0  0  0
 10 14  1  0  0  0  0
 11 12  2  0  0  0  0
 11 15  1  0  0  0  0
 13 16  2  0  0  0  0
 14 15  2  0  0  0  0
 17 21  1  0  0  0  0
 17 22  1  0  0  0  0
 18 23  1  0  0  0  0
 18 24  1  0  0  0  0
 19 27  1  0  0  0  0
 20 26  1  0  0  0  0
 21 23  1  0  0  0  0
 22 24  1  0  0  0  0
 28 30  2  0  0  0  0
 29 30  1  0  0  0  0
M  END
> <PUBCHEM_COMPOUND_ID_TYPE>
0

> <PUBCHEM_TOTAL_CHARGE>
0

> <PUBCHEM_SUBSTANCE_ID>
310936990

> <PUBCHEM_SUBSTANCE_VERSION>
1

> <PUBCHEM_EXT_DATASOURCE_NAME>
4488

> <PUBCHEM_EXT_DATASOURCE_REGID>
SCHEMBL16114696

> <PUBCHEM_SUBSTANCE_COMMENT>
InChI=1S/C22H25N5O3/c1-8-23-22(24-9-1)30-18-5-3-17(4-6-18)29-21-15-25-20-14-16(2-7-19(20)26-21)27-10-12-28-13-11-27/h1-2,7-9,14-15,17-18H,3-6,10-13H2/t17-,18-
InChIKey=SEPSOCDSCNLSCT-IYARVYRRSA-N

> <PUBCHEM_SUBSTANCE_SYNONYM>
SCHEMBL16114696

> <PUBCHEM_XREF_EXT_ID>
SCHEMBL16114696

> <PUBCHEM_EXT_DATASOURCE_URL>
https://www.surechembl.org/

> <PUBCHEM_EXT_SUBSTANCE_URL>
https://www.surechembl.org/chemical/SCHEMBL16114696

> <PUBCHEM_CID_ASSOCIATIONS>
117604850  1

> <PUBCHEM_COORDINATE_TYPE>
1
3

> <PUBCHEM_BONDANNOTATIONS>
17  1  6
18  2  5

$$$$
