310949769
  -OEChem-07211613022D

134141  0     1  0  0  0  0  0999 V2000
   -6.9284   -1.9713    0.0000 S   0  0  0  0  0  0  0  0  0  0  0  0
   -2.2600    6.2108    0.0000 P   0  0  0  0  0  0  0  0  0  0  0  0
   -1.0723    3.2250    0.0000 O   0  0  0  0  0  0  0  0  0  0  0  0
   -3.4807    1.1960    0.0000 O   0  0  0  0  0  0  0  0  0  0  0  0
    1.1052    1.6084    0.0000 O   0  0  0  0  0  0  0  0  0  0  0  0
    0.1155   -5.7489    0.0000 O   0  0  0  0  0  0  0  0  0  0  0  0
    9.8317   -0.6681    0.0000 O   0  0  0  0  0  0  0  0  0  0  0  0
    6.5325   -2.7301    0.0000 O   0  0  0  0  0  0  0  0  0  0  0  0
    4.4704   -5.7489    0.0000 O   0  0  0  0  0  0  0  0  0  0  0  0
    2.2930   -4.1323    0.0000 O   0  0  0  0  0  0  0  0  0  0  0  0
    5.8891    0.9815    0.0000 O   0  0  0  0  0  0  0  0  0  0  0  0
   -2.2765    5.3860    0.0000 O   0  0  0  0  0  0  0  0  0  0  0  0
   -2.3260   -3.3899    0.0000 O   0  0  0  0  0  0  0  0  0  0  0  0
    3.2827    3.2250    0.0000 O   0  0  0  0  0  0  0  0  0  0  0  0
   -5.0973   -0.2887    0.0000 O   0  0  0  0  0  0  0  0  0  0  0  0
   -5.0973   -4.7261    0.0000 O   0  0  0  0  0  0  0  0  0  0  0  0
    4.3385    3.5549    0.0000 O   0  0  0  0  0  0  0  0  0  0  0  0
    5.3448    4.6272    0.0000 O   0  0  0  0  0  0  0  0  0  0  0  0
   -2.2765    7.0356    0.0000 O   0  0  0  0  0  0  0  0  0  0  0  0
   -2.9858    6.6232    0.0000 O   0  0  0  0  0  0  0  0  0  0  0  0
   -1.5507    6.6232    0.0000 O   0  0  0  0  0  0  0  0  0  0  0  0
    2.0455   -2.3672    0.0000 O   0  0  0  0  0  0  0  0  0  0  0  0
   -7.2913   -4.4787    0.0000 O   0  0  0  0  0  0  0  0  0  0  0  0
   -4.9159   -6.8871    0.0000 O   0  0  0  0  0  0  0  0  0  0  0  0
   -9.6173   -3.2744    0.0000 O   0  0  0  0  0  0  0  0  0  0  0  0
   -2.8704    2.1857    0.0000 N   0  0  0  0  0  0  0  0  0  0  0  0
   -0.2474    2.4002    0.0000 N   0  0  0  0  0  0  0  0  0  0  0  0
   -1.2042   -2.9446    0.0000 N   0  0  0  0  0  0  0  0  0  0  0  0
    8.1656   -2.2352    0.0000 N   0  0  0  0  0  0  0  0  0  0  0  0
    1.9300    2.4167    0.0000 N   0  0  0  0  0  0  0  0  0  0  0  0
    1.4847   -4.9571    0.0000 N   0  0  0  0  0  0  0  0  0  0  0  0
    5.7406   -4.6107    0.0000 N   0  0  0  0  0  0  0  0  0  0  0  0
   -0.6928   -4.9241    0.0000 N   0  0  0  0  0  0  0  0  0  0  0  0
   -5.9221    1.4269    0.0000 N   0  0  0  0  0  0  0  0  0  0  0  0
    3.6622   -4.9241    0.0000 N   0  0  0  0  0  0  0  0  0  0  0  0
    7.4068    1.5589    0.0000 N   0  0  0  0  0  0  0  0  0  0  0  0
    4.1075    2.4002    0.0000 N   0  0  0  0  0  0  0  0  0  0  0  0
   -3.5136   -4.2312    0.0000 N   0  0  0  0  0  0  0  0  0  0  0  0
   -5.8066   -3.8849    0.0000 N   0  0  0  0  0  0  0  0  0  0  0  0
   -7.9676   -3.5384    0.0000 N   0  0  0  0  0  0  0  0  0  0  0  0
   -9.8317   -4.6932    0.0000 N   0  0  0  0  0  0  0  0  0  0  0  0
    0.0165   -2.3837    0.0000 C   0  0  0  0  0  0  0  0  0  0  0  0
    0.0990   -3.2085    0.0000 C   0  0  0  0  0  0  0  0  0  0  0  0
   -0.7918   -2.2187    0.0000 C   0  0  0  0  0  0  0  0  0  0  0  0
   -1.7321    1.9548    0.0000 C   0  0  3  0  0  0  0  0  0  0  0  0
   -1.0887    2.4002    0.0000 C   0  0  0  0  0  0  0  0  0  0  0  0
    0.4124    2.9115    0.0000 C   0  0  3  0  0  0  0  0  0  0  0  0
   -3.6622    2.0208    0.0000 C   0  0  0  0  0  0  0  0  0  0  0  0
   -0.6434   -3.5384    0.0000 C   0  0  0  0  0  0  0  0  0  0  0  0
    0.8413   -3.6374    0.0000 C   0  0  0  0  0  0  0  0  0  0  0  0
    0.8248   -4.4622    0.0000 C   0  0  3  0  0  0  0  0  0  0  0  0
    0.5608   -1.7899    0.0000 C   0  0  0  0  0  0  0  0  0  0  0  0
   -4.4704    2.3012    0.0000 C   0  0  3  0  0  0  0  0  0  0  0  0
    1.1052    2.4497    0.0000 C   0  0  0  0  0  0  0  0  0  0  0  0
   -1.7651    1.0970    0.0000 C   0  0  0  0  0  0  0  0  0  0  0  0
   -1.0228   -1.4269    0.0000 C   0  0  0  0  0  0  0  0  0  0  0  0
    7.8521   -3.3075    0.0000 C   0  0  3  0  0  0  0  0  0  0  0  0
    0.1320   -4.9076    0.0000 C   0  0  0  0  0  0  0  0  0  0  0  0
    8.9904   -0.6516    0.0000 C   0  0  0  0  0  0  0  0  0  0  0  0
    8.5615    0.9320    0.0000 C   0  0  3  0  0  0  0  0  0  0  0  0
    7.0439   -3.3735    0.0000 C   0  0  0  0  0  0  0  0  0  0  0  0
   -1.0392    0.7011    0.0000 C   0  0  0  0  0  0  0  0  0  0  0  0
    0.3134   -0.9981    0.0000 C   0  0  0  0  0  0  0  0  0  0  0  0
    5.1303   -4.5777    0.0000 C   0  0  3  0  0  0  0  0  0  0  0  0
   -0.4949   -0.8331    0.0000 C   0  0  0  0  0  0  0  0  0  0  0  0
    0.4289    3.7199    0.0000 C   0  0  0  0  0  0  0  0  0  0  0  0
   -4.6519    3.0930    0.0000 C   0  0  0  0  0  0  0  0  0  0  0  0
    4.5035   -5.0725    0.0000 C   0  0  0  0  0  0  0  0  0  0  0  0
    2.3094   -4.9571    0.0000 C   0  0  0  0  0  0  0  0  0  0  0  0
   -1.7651   -4.7427    0.0000 C   0  0  3  0  0  0  0  0  0  0  0  0
   -2.8704    3.0436    0.0000 C   0  0  0  0  0  0  0  0  0  0  0  0
    8.3800   -3.9838    0.0000 C   0  0  0  0  0  0  0  0  0  0  0  0
    0.0330    1.6084    0.0000 C   0  0  0  0  0  0  0  0  0  0  0  0
   -4.0580    3.6704    0.0000 C   0  0  0  0  0  0  0  0  0  0  0  0
    6.1035    1.8063    0.0000 C   0  0  0  0  0  0  0  0  0  0  0  0
    8.9739    1.7073    0.0000 C   0  0  0  0  0  0  0  0  0  0  0  0
    2.6229    1.9548    0.0000 C   0  0  0  0  0  0  0  0  0  0  0  0
    5.5427    2.4002    0.0000 C   0  0  3  0  0  0  0  0  0  0  0  0
    3.0023   -5.4025    0.0000 C   0  0  0  0  0  0  0  0  0  0  0  0
    8.0501   -4.7427    0.0000 C   0  0  0  0  0  0  0  0  0  0  0  0
   -2.6394   -3.9509    0.0000 C   0  0  0  0  0  0  0  0  0  0  0  0
    3.2662    2.4002    0.0000 C   0  0  0  0  0  0  0  0  0  0  0  0
    5.0808   -3.7199    0.0000 C   0  0  0  0  0  0  0  0  0  0  0  0
   -0.8083   -0.0907    0.0000 C   0  0  0  0  0  0  0  0  0  0  0  0
   -0.4619    1.2784    0.0000 C   0  0  0  0  0  0  0  0  0  0  0  0
   -5.9221   -0.0413    0.0000 C   0  0  0  0  0  0  0  0  0  0  0  0
    9.0069   -2.1197    0.0000 C   0  0  0  0  0  0  0  0  0  0  0  0
   -1.8805   -5.5674    0.0000 C   0  0  0  0  0  0  0  0  0  0  0  0
    4.3055   -3.3735    0.0000 C   0  0  0  0  0  0  0  0  0  0  0  0
   -0.2969    4.1323    0.0000 C   0  0  0  0  0  0  0  0  0  0  0  0
   -4.2560    4.4622    0.0000 C   0  0  0  0  0  0  0  0  0  0  0  0
   -3.2497    3.4394    0.0000 C   0  0  0  0  0  0  0  0  0  0  0  0
    2.1775    3.2250    0.0000 C   0  0  0  0  0  0  0  0  0  0  0  0
   -2.6229   -5.8809    0.0000 C   0  0  0  0  0  0  0  0  0  0  0  0
   -2.8704    4.8086    0.0000 C   0  0  0  0  0  0  0  0  0  0  0  0
   -4.1406   -3.6704    0.0000 C   0  0  3  0  0  0  0  0  0  0  0  0
    5.7406    3.2085    0.0000 C   0  0  0  0  0  0  0  0  0  0  0  0
   -0.0165   -0.2887    0.0000 C   0  0  0  0  0  0  0  0  0  0  0  0
    0.3299    1.0805    0.0000 C   0  0  0  0  0  0  0  0  0  0  0  0
   -3.6622    5.0396    0.0000 C   0  0  0  0  0  0  0  0  0  0  0  0
   -2.6723    4.0168    0.0000 C   0  0  0  0  0  0  0  0  0  0  0  0
    7.2418   -4.8581    0.0000 C   0  0  0  0  0  0  0  0  0  0  0  0
    8.5615   -5.3860    0.0000 C   0  0  0  0  0  0  0  0  0  0  0  0
   -6.7139   -0.4866    0.0000 C   0  0  0  0  0  0  0  0  0  0  0  0
   -4.9159   -3.9178    0.0000 C   0  0  0  0  0  0  0  0  0  0  0  0
    3.4972   -4.0993    0.0000 C   0  0  0  0  0  0  0  0  0  0  0  0
    0.5444    0.2722    0.0000 C   0  0  0  0  0  0  0  0  0  0  0  0
    4.2230   -2.5817    0.0000 C   0  0  0  0  0  0  0  0  0  0  0  0
    3.6622   -3.8519    0.0000 C   0  0  0  0  0  0  0  0  0  0  0  0
    8.5285    2.3672    0.0000 C   0  0  0  0  0  0  0  0  0  0  0  0
    9.8152    1.7073    0.0000 C   0  0  0  0  0  0  0  0  0  0  0  0
   -6.4170   -3.3075    0.0000 C   0  0  3  0  0  0  0  0  0  0  0  0
    5.1468    3.7859    0.0000 C   0  0  0  0  0  0  0  0  0  0  0  0
   -0.2969    4.9571    0.0000 C   0  0  0  0  0  0  0  0  0  0  0  0
   -3.2827   -5.4190    0.0000 C   0  0  0  0  0  0  0  0  0  0  0  0
   -2.7218   -6.7056    0.0000 C   0  0  0  0  0  0  0  0  0  0  0  0
   -3.9261   -2.8621    0.0000 C   0  0  0  0  0  0  0  0  0  0  0  0
    6.9448   -5.6169    0.0000 C   0  0  0  0  0  0  0  0  0  0  0  0
    8.2481   -6.1448    0.0000 C   0  0  0  0  0  0  0  0  0  0  0  0
    2.8209   -2.6971    0.0000 C   0  0  0  0  0  0  0  0  0  0  0  0
    3.4972   -2.2352    0.0000 C   0  0  0  0  0  0  0  0  0  0  0  0
    2.8868   -3.5219    0.0000 C   0  0  0  0  0  0  0  0  0  0  0  0
   -6.2521   -2.4992    0.0000 C   0  0  0  0  0  0  0  0  0  0  0  0
    7.4232   -6.2603    0.0000 C   0  0  0  0  0  0  0  0  0  0  0  0
   -7.1429   -3.6374    0.0000 C   0  0  0  0  0  0  0  0  0  0  0  0
   -4.1570   -6.5408    0.0000 C   0  0  0  0  0  0  0  0  0  0  0  0
   -4.0415   -5.7324    0.0000 C   0  0  0  0  0  0  0  0  0  0  0  0
   -3.4807   -7.0356    0.0000 C   0  0  0  0  0  0  0  0  0  0  0  0
   -4.5694   -2.3012    0.0000 C   0  0  0  0  0  0  0  0  0  0  0  0
   -1.0063    5.3860    0.0000 C   0  0  0  0  0  0  0  0  0  0  0  0
   -4.3715   -1.4929    0.0000 C   0  0  0  0  0  0  0  0  0  0  0  0
   -5.3448   -2.5652    0.0000 C   0  0  0  0  0  0  0  0  0  0  0  0
   -8.4955   -4.1653    0.0000 C   0  0  0  0  0  0  0  0  0  0  0  0
   -9.3038   -4.0498    0.0000 C   0  0  0  0  0  0  0  0  0  0  0  0
  1104  1  0  0  0  0
  1123  1  0  0  0  0
  2 12  1  0  0  0  0
  2 19  2  0  0  0  0
  2 20  1  0  0  0  0
  2 21  1  0  0  0  0
  3 46  2  0  0  0  0
  4 48  2  0  0  0  0
  5 54  2  0  0  0  0
  6 58  2  0  0  0  0
  7 59  2  0  0  0  0
  8 61  2  0  0  0  0
  9 68  2  0  0  0  0
 10 69  2  0  0  0  0
 11 75  2  0  0  0  0
 12 95  1  0  0  0  0
 13 81  2  0  0  0  0
 14 82  2  0  0  0  0
 15 86  2  0  0  0  0
 16105  2  0  0  0  0
 17113  2  0  0  0  0
 18113  1  0  0  0  0
 22120  1  0  0  0  0
 23125  2  0  0  0  0
 24126  1  0  0  0  0
 25134  2  0  0  0  0
 26 45  1  0  0  0  0
 26 48  1  0  0  0  0
 26 71  1  0  0  0  0
 27 46  1  0  0  0  0
 27 47  1  0  0  0  0
 27 73  1  0  0  0  0
 28 44  1  0  0  0  0
 28 49  1  0  0  0  0
 29 57  1  0  0  0  0
 29 59  1  0  0  0  0
 29 87  1  0  0  0  0
 30 54  1  0  0  0  0
 30 77  1  0  0  0  0
 30 93  1  0  0  0  0
 31 51  1  0  0  0  0
 31 69  1  0  0  0  0
 32 61  1  0  0  0  0
 32 64  1  0  0  0  0
 33 58  1  0  0  0  0
 33 70  1  0  0  0  0
 34 53  1  0  0  0  0
 34 86  1  0  0  0  0
 35 68  1  0  0  0  0
 35 79  1  0  0  0  0
 35106  1  0  0  0  0
 36 60  1  0  0  0  0
 36 75  1  0  0  0  0
 37 78  1  0  0  0  0
 37 82  1  0  0  0  0
 38 81  1  0  0  0  0
 38 96  1  0  0  0  0
 39105  1  0  0  0  0
 39112  1  0  0  0  0
 40125  1  0  0  0  0
 40133  1  0  0  0  0
 41134  1  0  0  0  0
 42 43  1  0  0  0  0
 42 44  2  0  0  0  0
 42 52  1  0  0  0  0
 43 49  2  0  0  0  0
 43 50  1  0  0  0  0
 44 56  1  0  0  0  0
 45 46  1  0  0  0  0
 45 55  1  6  0  0  0
 47 54  1  0  0  0  0
 47 66  1  1  0  0  0
 48 53  1  0  0  0  0
 51 50  1  6  0  0  0
 51 58  1  0  0  0  0
 52 63  2  0  0  0  0
 53 67  1  1  0  0  0
 55 62  1  0  0  0  0
 56 65  2  0  0  0  0
 57 61  1  0  0  0  0
 57 72  1  1  0  0  0
 59 60  1  0  0  0  0
 60 76  1  1  0  0  0
 62 84  2  0  0  0  0
 62 85  1  0  0  0  0
 63 65  1  0  0  0  0
 64 68  1  0  0  0  0
 64 83  1  6  0  0  0
 66 90  1  0  0  0  0
 67 74  1  0  0  0  0
 69 79  1  0  0  0  0
 70 81  1  0  0  0  0
 70 88  1  1  0  0  0
 72 80  1  0  0  0  0
 74 91  2  0  0  0  0
 74 92  1  0  0  0  0
 75 78  1  0  0  0  0
 76110  1  0  0  0  0
 76111  1  0  0  0  0
 77 82  1  0  0  0  0
 78 97  1  1  0  0  0
 80102  2  0  0  0  0
 80103  1  0  0  0  0
 83 89  1  0  0  0  0
 84 98  1  0  0  0  0
 85 99  2  0  0  0  0
 86104  1  0  0  0  0
 88 94  1  0  0  0  0
 89108  2  0  0  0  0
 89109  1  0  0  0  0
 90114  1  0  0  0  0
 91100  1  0  0  0  0
 92101  2  0  0  0  0
 94115  2  0  0  0  0
 94116  1  0  0  0  0
 95100  2  0  0  0  0
 95101  1  0  0  0  0
 96105  1  0  0  0  0
 96117  1  6  0  0  0
 97113  1  0  0  0  0
 98107  2  0  0  0  0
 99107  1  0  0  0  0
102118  1  0  0  0  0
103119  2  0  0  0  0
108121  1  0  0  0  0
109122  2  0  0  0  0
112123  1  0  0  0  0
112125  1  6  0  0  0
114130  1  0  0  0  0
115127  1  0  0  0  0
116128  2  0  0  0  0
117129  1  0  0  0  0
118124  2  0  0  0  0
119124  1  0  0  0  0
120121  2  0  0  0  0
120122  1  0  0  0  0
126127  2  0  0  0  0
126128  1  0  0  0  0
129131  1  0  0  0  0
129132  1  0  0  0  0
133134  1  0  0  0  0
M  END
> <PUBCHEM_COMPOUND_ID_TYPE>
0

> <PUBCHEM_TOTAL_CHARGE>
0

> <PUBCHEM_SUBSTANCE_ID>
310949769

> <PUBCHEM_SUBSTANCE_VERSION>
1

> <PUBCHEM_EXT_DATASOURCE_NAME>
4488

> <PUBCHEM_EXT_DATASOURCE_REGID>
SCHEMBL16127967

> <PUBCHEM_SUBSTANCE_COMMENT>
InChI=1S/C93H119N16O23PS/c1-11-12-27-74-91(126)106(7)51-79(114)98-70(47-81(116)117)87(122)104-82(55(4)5)93(128)108(9)75(44-56-21-15-13-16-22-56)88(123)102-71(42-59-30-36-63(111)37-31-59)89(124)105(6)50-78(113)97-69(46-61-48-95-66-26-20-19-25-65(61)66)86(121)101-68(41-58-28-34-62(110)35-29-58)85(120)100-67(40-54(2)3)84(119)103-73(83(118)96-49-77(94)112)52-134-53-80(115)99-72(43-60-32-38-64(39-33-60)132-133(129,130)131)90(125)109(10)76(92(127)107(74)8)45-57-23-17-14-18-24-57/h13-26,28-39,48,54-55,67-76,82,95,110-111H,11-12,27,40-47,49-53H2,1-10H3,(H2,94,112)(H,96,118)(H,97,113)(H,98,114)(H,99,115)(H,100,120)(H,101,121)(H,102,123)(H,103,119)(H,104,122)(H,116,117)(H2,129,130,131)/t67-,68-,69-,70-,71-,72-,73-,74-,75-,76-,82-/m0/s1
InChIKey=JXJWXCJRBKLIGM-OVRAIAOKSA-N

> <PUBCHEM_SUBSTANCE_SYNONYM>
SCHEMBL16127967

> <PUBCHEM_XREF_EXT_ID>
SCHEMBL16127967

> <PUBCHEM_EXT_DATASOURCE_URL>
https://www.surechembl.org/

> <PUBCHEM_EXT_SUBSTANCE_URL>
https://www.surechembl.org/chemical/SCHEMBL16127967

> <PUBCHEM_CID_ASSOCIATIONS>
117615094  1

> <PUBCHEM_COORDINATE_TYPE>
1
3

> <PUBCHEM_BONDANNOTATIONS>
112  125  6
45  55  6
47  66  5
51  50  6
53  67  5
57  72  5
60  76  5
64  83  6
70  88  5
78  97  5
96  117  6

$$$$
