310949604
  -OEChem-07211613022D

 29 33  0     1  0  0  0  0  0999 V2000
   -0.6199    1.3983    0.0000 N   0  0  0  0  0  0  0  0  0  0  0  0
   -0.6199    2.7346    0.0000 N   0  0  0  0  0  0  0  0  0  0  0  0
    0.1515   -0.9712    0.0000 N   0  0  0  0  0  0  0  0  0  0  0  0
    1.9562    1.6462    0.0000 N   0  0  0  0  0  0  0  0  0  0  0  0
   -0.1240    2.0734    0.0000 C   0  0  0  0  0  0  0  0  0  0  0  0
   -1.4052    1.6601    0.0000 C   0  0  0  0  0  0  0  0  0  0  0  0
   -1.4052    2.4729    0.0000 C   0  0  0  0  0  0  0  0  0  0  0  0
   -0.3720    0.6268    0.0000 C   0  0  0  0  0  0  0  0  0  0  0  0
    0.7026    2.0595    0.0000 C   0  0  3  0  0  0  0  0  0  0  0  0
    0.3995   -1.7565    0.0000 C   0  0  0  0  0  0  0  0  0  0  0  0
   -2.1215    1.2467    0.0000 C   0  0  0  0  0  0  0  0  0  0  0  0
   -0.8954   -0.0069    0.0000 C   0  0  0  0  0  0  0  0  0  0  0  0
    0.4546    0.4339    0.0000 C   0  0  0  0  0  0  0  0  0  0  0  0
   -2.1354    2.8724    0.0000 C   0  0  0  0  0  0  0  0  0  0  0  0
   -0.6613   -0.7922    0.0000 C   0  0  0  0  0  0  0  0  0  0  0  0
    0.7026   -0.3375    0.0000 C   0  0  0  0  0  0  0  0  0  0  0  0
    1.2123   -1.9218    0.0000 C   0  0  0  0  0  0  0  0  0  0  0  0
    1.1848    1.3983    0.0000 C   0  0  0  0  0  0  0  0  0  0  0  0
    1.1709    2.7346    0.0000 C   0  0  0  0  0  0  0  0  0  0  0  0
   -2.8242    1.6462    0.0000 C   0  0  0  0  0  0  0  0  0  0  0  0
   -2.8242    2.4729    0.0000 C   0  0  0  0  0  0  0  0  0  0  0  0
    1.9562    2.4729    0.0000 C   0  0  0  0  0  0  0  0  0  0  0  0
    0.3169   -2.5830    0.0000 C   0  0  0  0  0  0  0  0  0  0  0  0
   -0.4409   -1.7427    0.0000 C   0  0  0  0  0  0  0  0  0  0  0  0
    1.4603   -2.6933    0.0000 C   0  0  0  0  0  0  0  0  0  0  0  0
    1.7633   -1.3156    0.0000 C   0  0  0  0  0  0  0  0  0  0  0  0
    2.2869   -2.8724    0.0000 C   0  0  0  0  0  0  0  0  0  0  0  0
    2.5624   -1.4810    0.0000 C   0  0  0  0  0  0  0  0  0  0  0  0
    2.8242   -2.2662    0.0000 C   0  0  0  0  0  0  0  0  0  0  0  0
  1  5  1  0  0  0  0
  1  6  1  0  0  0  0
  1  8  1  0  0  0  0
  2  5  2  0  0  0  0
  2  7  1  0  0  0  0
  3 10  1  0  0  0  0
  3 15  1  0  0  0  0
  3 16  1  0  0  0  0
  4 18  1  0  0  0  0
  4 22  1  0  0  0  0
  9  5  1  6  0  0  0
  6  7  1  0  0  0  0
  6 11  2  0  0  0  0
  7 14  2  0  0  0  0
  8 12  1  0  0  0  0
  8 13  1  0  0  0  0
  9 18  1  0  0  0  0
  9 19  1  0  0  0  0
 10 17  1  0  0  0  0
 10 23  1  0  0  0  0
 10 24  1  0  0  0  0
 11 20  1  0  0  0  0
 12 15  1  0  0  0  0
 13 16  1  0  0  0  0
 14 21  1  0  0  0  0
 17 25  2  0  0  0  0
 17 26  1  0  0  0  0
 19 22  1  0  0  0  0
 20 21  2  0  0  0  0
 25 27  1  0  0  0  0
 26 28  2  0  0  0  0
 27 29  2  0  0  0  0
 28 29  1  0  0  0  0
M  END
> <PUBCHEM_COMPOUND_ID_TYPE>
0

> <PUBCHEM_TOTAL_CHARGE>
0

> <PUBCHEM_SUBSTANCE_ID>
310949604

> <PUBCHEM_SUBSTANCE_VERSION>
1

> <PUBCHEM_EXT_DATASOURCE_NAME>
4488

> <PUBCHEM_EXT_DATASOURCE_REGID>
SCHEMBL16127801

> <PUBCHEM_SUBSTANCE_COMMENT>
InChI=1S/C25H32N4/c1-25(2,20-8-4-3-5-9-20)28-16-13-21(14-17-28)29-23-11-7-6-10-22(23)27-24(29)19-12-15-26-18-19/h3-11,19,21,26H,12-18H2,1-2H3/t19-/m1/s1
InChIKey=BAIIOSZNDGPETE-LJQANCHMSA-N

> <PUBCHEM_SUBSTANCE_SYNONYM>
SCHEMBL16127801

> <PUBCHEM_XREF_EXT_ID>
SCHEMBL16127801

> <PUBCHEM_EXT_DATASOURCE_URL>
https://www.surechembl.org/

> <PUBCHEM_EXT_SUBSTANCE_URL>
https://www.surechembl.org/chemical/SCHEMBL16127801

> <PUBCHEM_CID_ASSOCIATIONS>
86274527  1

> <PUBCHEM_COORDINATE_TYPE>
1
3

> <PUBCHEM_BONDANNOTATIONS>
9  5  6

$$$$
