310940310
  -OEChem-07211613022D

 25 26  0     0  0  0  0  0  0999 V2000
    0.0124   -0.6243    0.0000 O   0  0  0  0  0  0  0  0  0  0  0  0
   -1.4464    1.8482    0.0000 O   0  0  0  0  0  0  0  0  0  0  0  0
    4.2652    1.8482    0.0000 O   0  0  0  0  0  0  0  0  0  0  0  0
    3.6965    0.6119    0.0000 N   0  0  0  0  0  0  0  0  0  0  0  0
    0.7047    1.4403    0.0000 C   0  0  0  0  0  0  0  0  0  0  0  0
    1.4217    1.8482    0.0000 C   0  0  0  0  0  0  0  0  0  0  0  0
   -0.0124    0.2040    0.0000 C   0  0  0  0  0  0  0  0  0  0  0  0
   -0.7171    1.4403    0.0000 C   0  0  0  0  0  0  0  0  0  0  0  0
   -0.0124    1.8358    0.0000 C   0  0  0  0  0  0  0  0  0  0  0  0
    0.7047    0.6119    0.0000 C   0  0  0  0  0  0  0  0  0  0  0  0
    2.1512    1.4403    0.0000 C   0  0  0  0  0  0  0  0  0  0  0  0
    2.8434    1.8606    0.0000 C   0  0  0  0  0  0  0  0  0  0  0  0
   -0.7047    0.6119    0.0000 C   0  0  0  0  0  0  0  0  0  0  0  0
    1.4341    2.6642    0.0000 C   0  0  0  0  0  0  0  0  0  0  0  0
    2.8434    2.6765    0.0000 C   0  0  0  0  0  0  0  0  0  0  0  0
    2.1264    3.0721    0.0000 C   0  0  0  0  0  0  0  0  0  0  0  0
    3.5482    1.4279    0.0000 C   0  0  0  0  0  0  0  0  0  0  0  0
    0.7171   -1.0200    0.0000 C   0  0  0  0  0  0  0  0  0  0  0  0
   -2.1264    1.4403    0.0000 C   0  0  0  0  0  0  0  0  0  0  0  0
    0.7294   -1.8482    0.0000 C   0  0  0  0  0  0  0  0  0  0  0  0
   -2.8311    1.8482    0.0000 C   0  0  0  0  0  0  0  0  0  0  0  0
    1.4588   -2.2439    0.0000 C   0  0  0  0  0  0  0  0  0  0  0  0
   -3.5482    1.4155    0.0000 C   0  0  0  0  0  0  0  0  0  0  0  0
    1.4588   -3.0721    0.0000 C   0  0  0  0  0  0  0  0  0  0  0  0
   -4.2652    1.8358    0.0000 C   0  0  0  0  0  0  0  0  0  0  0  0
  1  7  1  0  0  0  0
  1 18  1  0  0  0  0
  2  8  1  0  0  0  0
  2 19  1  0  0  0  0
  3 17  2  0  0  0  0
  4 17  1  0  0  0  0
  5  6  1  0  0  0  0
  5  9  2  0  0  0  0
  5 10  1  0  0  0  0
  6 11  1  0  0  0  0
  6 14  2  0  0  0  0
  7 10  2  0  0  0  0
  7 13  1  0  0  0  0
  8  9  1  0  0  0  0
  8 13  2  0  0  0  0
 11 12  2  0  0  0  0
 12 15  1  0  0  0  0
 12 17  1  0  0  0  0
 14 16  1  0  0  0  0
 15 16  2  0  0  0  0
 18 20  1  0  0  0  0
 19 21  1  0  0  0  0
 20 22  1  0  0  0  0
 21 23  1  0  0  0  0
 22 24  1  0  0  0  0
 23 25  1  0  0  0  0
M  END
> <PUBCHEM_COMPOUND_ID_TYPE>
0

> <PUBCHEM_TOTAL_CHARGE>
0

> <PUBCHEM_SUBSTANCE_ID>
310940310

> <PUBCHEM_SUBSTANCE_VERSION>
1

> <PUBCHEM_EXT_DATASOURCE_NAME>
4488

> <PUBCHEM_EXT_DATASOURCE_REGID>
SCHEMBL16118254

> <PUBCHEM_SUBSTANCE_COMMENT>
InChI=1S/C21H27NO3/c1-3-5-10-24-19-13-18(14-20(15-19)25-11-6-4-2)16-8-7-9-17(12-16)21(22)23/h7-9,12-15H,3-6,10-11H2,1-2H3,(H2,22,23)
InChIKey=JWKUVJYUPKFAGA-UHFFFAOYSA-N

> <PUBCHEM_SUBSTANCE_SYNONYM>
SCHEMBL16118254

> <PUBCHEM_XREF_EXT_ID>
SCHEMBL16118254

> <PUBCHEM_EXT_DATASOURCE_URL>
https://www.surechembl.org/

> <PUBCHEM_EXT_SUBSTANCE_URL>
https://www.surechembl.org/chemical/SCHEMBL16118254

> <PUBCHEM_CID_ASSOCIATIONS>
117607380  1

> <PUBCHEM_COORDINATE_TYPE>
1
3

$$$$
