310939032
  -OEChem-07211613022D

 22 23  0     0  0  0  0  0  0999 V2000
    0.8919    6.2798    0.0000 S   0  0  0  0  0  0  0  0  0  0  0  0
    0.3085    5.6965    0.0000 O   0  0  0  0  0  0  0  0  0  0  0  0
    1.1054    5.4829    0.0000 O   0  0  0  0  0  0  0  0  0  0  0  0
    3.8322    7.7309    0.0000 O   0  0  0  0  0  0  0  0  0  0  0  0
   -3.2488    7.3893    0.0000 O   0  0  0  0  0  0  0  0  0  0  0  0
   -2.2384    8.3998    0.0000 O   0  0  0  0  0  0  0  0  0  0  0  0
    0.3085    6.8632    0.0000 N   0  0  0  0  0  0  0  0  0  0  0  0
    1.6888    6.4934    0.0000 C   0  0  0  0  0  0  0  0  0  0  0  0
   -0.4883    6.6497    0.0000 C   0  0  0  0  0  0  0  0  0  0  0  0
    1.6888    7.3184    0.0000 C   0  0  0  0  0  0  0  0  0  0  0  0
    2.4033    6.0809    0.0000 C   0  0  0  0  0  0  0  0  0  0  0  0
   -1.8686    7.0195    0.0000 C   0  0  0  0  0  0  0  0  0  0  0  0
   -1.0717    7.2330    0.0000 C   0  0  0  0  0  0  0  0  0  0  0  0
    3.1177    7.3184    0.0000 C   0  0  0  0  0  0  0  0  0  0  0  0
   -0.7019    5.8528    0.0000 C   0  0  0  0  0  0  0  0  0  0  0  0
    2.4033    7.7309    0.0000 C   0  0  0  0  0  0  0  0  0  0  0  0
    3.1177    6.4934    0.0000 C   0  0  0  0  0  0  0  0  0  0  0  0
   -2.4520    7.6029    0.0000 C   0  0  0  0  0  0  0  0  0  0  0  0
   -2.0821    6.2226    0.0000 C   0  0  0  0  0  0  0  0  0  0  0  0
   -1.4988    5.6392    0.0000 C   0  0  0  0  0  0  0  0  0  0  0  0
    3.8322    8.5559    0.0000 C   0  0  0  0  0  0  0  0  0  0  0  0
   -3.8322    7.9727    0.0000 C   0  0  0  0  0  0  0  0  0  0  0  0
  1  2  2  0  0  0  0
  1  3  2  0  0  0  0
  1  7  1  0  0  0  0
  1  8  1  0  0  0  0
  4 14  1  0  0  0  0
  4 21  1  0  0  0  0
  5 18  1  0  0  0  0
  5 22  1  0  0  0  0
  6 18  2  0  0  0  0
  7  9  1  0  0  0  0
  8 10  2  0  0  0  0
  8 11  1  0  0  0  0
  9 13  1  0  0  0  0
  9 15  2  0  0  0  0
 10 16  1  0  0  0  0
 11 17  2  0  0  0  0
 12 13  2  0  0  0  0
 12 18  1  0  0  0  0
 12 19  1  0  0  0  0
 14 16  2  0  0  0  0
 14 17  1  0  0  0  0
 15 20  1  0  0  0  0
 19 20  2  0  0  0  0
M  END
> <PUBCHEM_COMPOUND_ID_TYPE>
0

> <PUBCHEM_TOTAL_CHARGE>
0

> <PUBCHEM_SUBSTANCE_ID>
310939032

> <PUBCHEM_SUBSTANCE_VERSION>
1

> <PUBCHEM_EXT_DATASOURCE_NAME>
4488

> <PUBCHEM_EXT_DATASOURCE_REGID>
SCHEMBL16116951

> <PUBCHEM_SUBSTANCE_COMMENT>
InChI=1S/C15H15NO5S/c1-20-13-6-8-14(9-7-13)22(18,19)16-12-5-3-4-11(10-12)15(17)21-2/h3-10,16H,1-2H3
InChIKey=QIEDALLWQOZBSN-UHFFFAOYSA-N

> <PUBCHEM_SUBSTANCE_SYNONYM>
SCHEMBL16116951

> <PUBCHEM_XREF_EXT_ID>
SCHEMBL16116951

> <PUBCHEM_EXT_DATASOURCE_URL>
https://www.surechembl.org/

> <PUBCHEM_EXT_SUBSTANCE_URL>
https://www.surechembl.org/chemical/SCHEMBL16116951

> <PUBCHEM_CID_ASSOCIATIONS>
6467481  1

> <PUBCHEM_COORDINATE_TYPE>
1
3

$$$$
