310941574
  -OEChem-07211613022D

 21 22  0     0  0  0  0  0  0999 V2000
   -1.5918    0.6186    0.0000 S   0  0  0  0  0  0  0  0  0  0  0  0
    1.6612   -0.5680    0.0000 O   0  0  0  0  0  0  0  0  0  0  0  0
    1.1817   -1.3564    0.0000 O   0  0  0  0  0  0  0  0  0  0  0  0
   -0.2886    1.1795    0.0000 N   0  0  0  0  0  0  0  0  0  0  0  0
   -1.5753    1.7898    0.0000 N   0  0  0  0  0  0  0  0  0  0  0  0
    0.1237    0.4537    0.0000 C   0  0  0  0  0  0  0  0  0  0  0  0
   -1.1795    1.2124    0.0000 C   0  0  0  0  0  0  0  0  0  0  0  0
    1.1817   -0.8450    0.0000 C   0  0  0  0  0  0  0  0  0  0  0  0
   -0.2722   -0.3052    0.0000 C   0  0  0  0  0  0  0  0  0  0  0  0
    0.9485    0.4372    0.0000 C   0  0  0  0  0  0  0  0  0  0  0  0
    0.1237   -0.9980    0.0000 C   0  0  0  0  0  0  0  0  0  0  0  0
    1.3774   -0.3052    0.0000 C   0  0  0  0  0  0  0  0  0  0  0  0
    1.6718   -0.0353    0.0000 C   0  0  0  0  0  0  0  0  0  0  0  0
    0.9485   -1.0145    0.0000 C   0  0  0  0  0  0  0  0  0  0  0  0
   -2.2682    0.8001    0.0000 C   0  0  0  0  0  0  0  0  0  0  0  0
   -2.2682    1.5588    0.0000 C   0  0  0  0  0  0  0  0  0  0  0  0
    2.1513   -0.0139    0.0000 C   0  0  0  0  0  0  0  0  0  0  0  0
    1.1817   -0.0353    0.0000 C   0  0  0  0  0  0  0  0  0  0  0  0
    1.6612    0.4868    0.0000 C   0  0  0  0  0  0  0  0  0  0  0  0
   -0.2886   -1.7898    0.0000 C   0  0  0  0  0  0  0  0  0  0  0  0
    2.2682   -0.2886    0.0000 C   0  0  0  0  0  0  0  0  0  0  0  0
  1  7  1  0  0  0  0
  1 15  1  0  0  0  0
  2  8  1  0  0  0  0
  2 13  1  0  0  0  0
  3  8  2  0  0  0  0
  4  6  1  0  0  0  0
  4  7  1  0  0  0  0
  4  8  1  0  0  0  0
  5  7  2  0  0  0  0
  5 16  1  0  0  0  0
  6  9  2  0  0  0  0
  6 10  1  0  0  0  0
  9 11  1  0  0  0  0
 10 12  2  0  0  0  0
 11 14  2  0  0  0  0
 11 20  1  0  0  0  0
 12 14  1  0  0  0  0
 12 21  1  0  0  0  0
 13 17  1  0  0  0  0
 13 18  1  0  0  0  0
 13 19  1  0  0  0  0
 15 16  2  0  0  0  0
M  END
> <PUBCHEM_COMPOUND_ID_TYPE>
0

> <PUBCHEM_TOTAL_CHARGE>
0

> <PUBCHEM_SUBSTANCE_ID>
310941574

> <PUBCHEM_SUBSTANCE_VERSION>
1

> <PUBCHEM_EXT_DATASOURCE_NAME>
4488

> <PUBCHEM_EXT_DATASOURCE_REGID>
SCHEMBL16119605

> <PUBCHEM_SUBSTANCE_COMMENT>
InChI=1S/C16H20N2O2S/c1-11-8-12(2)10-13(9-11)18(14-17-6-7-21-14)15(19)20-16(3,4)5/h6-10H,1-5H3
InChIKey=PLFRGRYNUSIBHJ-UHFFFAOYSA-N

> <PUBCHEM_SUBSTANCE_SYNONYM>
SCHEMBL16119605

> <PUBCHEM_XREF_EXT_ID>
SCHEMBL16119605

> <PUBCHEM_EXT_DATASOURCE_URL>
https://www.surechembl.org/

> <PUBCHEM_EXT_SUBSTANCE_URL>
https://www.surechembl.org/chemical/SCHEMBL16119605

> <PUBCHEM_CID_ASSOCIATIONS>
117608376  1

> <PUBCHEM_COORDINATE_TYPE>
1
3

$$$$
