310943294
  -OEChem-07211613022D

 39 43  0     0  0  0  0  0  0999 V2000
    1.4207    2.2561    0.0000 O   0  0  0  0  0  0  0  0  0  0  0  0
   -5.7143    2.2561    0.0000 O   0  0  0  0  0  0  0  0  0  0  0  0
   -2.8571   -2.6776    0.0000 O   0  0  0  0  0  0  0  0  0  0  0  0
   -3.5598    0.2108    0.0000 N   0  0  0  0  0  0  0  0  0  0  0  0
   -4.2780    1.4442    0.0000 N   0  0  0  0  0  0  0  0  0  0  0  0
   -2.8571   -1.0227    0.0000 N   0  0  0  0  0  0  0  0  0  0  0  0
   -0.7182    2.6776    0.0000 N   0  0  0  0  0  0  0  0  0  0  0  0
    0.7182    1.0382    0.0000 N   0  0  0  0  0  0  0  0  0  0  0  0
    3.5598    0.2108    0.0000 N   0  0  0  0  0  0  0  0  0  0  0  0
    5.7143    2.2092    0.0000 N   0  0  0  0  0  0  0  0  0  0  0  0
   -2.1389    1.0382    0.0000 C   0  0  0  0  0  0  0  0  0  0  0  0
   -1.4364    1.4442    0.0000 C   0  0  0  0  0  0  0  0  0  0  0  0
   -3.5598    1.0382    0.0000 C   0  0  0  0  0  0  0  0  0  0  0  0
   -2.8571   -0.1951    0.0000 C   0  0  0  0  0  0  0  0  0  0  0  0
   -2.8571    1.4442    0.0000 C   0  0  0  0  0  0  0  0  0  0  0  0
   -2.1546    0.2108    0.0000 C   0  0  0  0  0  0  0  0  0  0  0  0
   -1.4207    2.2717    0.0000 C   0  0  0  0  0  0  0  0  0  0  0  0
   -0.7182    1.0382    0.0000 C   0  0  0  0  0  0  0  0  0  0  0  0
   -0.0156    1.4442    0.0000 C   0  0  0  0  0  0  0  0  0  0  0  0
    2.1389    1.0382    0.0000 C   0  0  0  0  0  0  0  0  0  0  0  0
    0.0000    2.2717    0.0000 C   0  0  0  0  0  0  0  0  0  0  0  0
    1.4207    1.4286    0.0000 C   0  0  0  0  0  0  0  0  0  0  0  0
    3.5753    1.0382    0.0000 C   0  0  0  0  0  0  0  0  0  0  0  0
    4.2935    1.4442    0.0000 C   0  0  0  0  0  0  0  0  0  0  0  0
    2.8416    1.4442    0.0000 C   0  0  0  0  0  0  0  0  0  0  0  0
   -4.2935    2.2717    0.0000 C   0  0  0  0  0  0  0  0  0  0  0  0
   -4.9805    1.0382    0.0000 C   0  0  0  0  0  0  0  0  0  0  0  0
   -2.1389   -1.4286    0.0000 C   0  0  0  0  0  0  0  0  0  0  0  0
   -3.5598   -1.4286    0.0000 C   0  0  0  0  0  0  0  0  0  0  0  0
   -2.1546    2.6620    0.0000 C   0  0  0  0  0  0  0  0  0  0  0  0
    2.1389    0.2108    0.0000 C   0  0  0  0  0  0  0  0  0  0  0  0
    2.8571   -0.1951    0.0000 C   0  0  0  0  0  0  0  0  0  0  0  0
   -4.9962    2.6776    0.0000 C   0  0  0  0  0  0  0  0  0  0  0  0
   -5.6987    1.4286    0.0000 C   0  0  0  0  0  0  0  0  0  0  0  0
   -2.1546   -2.2561    0.0000 C   0  0  0  0  0  0  0  0  0  0  0  0
   -3.5598   -2.2561    0.0000 C   0  0  0  0  0  0  0  0  0  0  0  0
    4.9962    1.8501    0.0000 C   0  0  0  0  0  0  0  0  0  0  0  0
    4.2623    2.2717    0.0000 C   0  0  0  0  0  0  0  0  0  0  0  0
    4.9962    1.0227    0.0000 C   0  0  0  0  0  0  0  0  0  0  0  0
  1 22  2  0  0  0  0
  2 33  1  0  0  0  0
  2 34  1  0  0  0  0
  3 35  1  0  0  0  0
  3 36  1  0  0  0  0
  4 13  2  0  0  0  0
  4 14  1  0  0  0  0
  5 13  1  0  0  0  0
  5 26  1  0  0  0  0
  5 27  1  0  0  0  0
  6 14  1  0  0  0  0
  6 28  1  0  0  0  0
  6 29  1  0  0  0  0
  7 17  2  0  0  0  0
  7 21  1  0  0  0  0
  8 19  1  0  0  0  0
  8 22  1  0  0  0  0
  9 23  1  0  0  0  0
  9 32  2  0  0  0  0
 10 37  3  0  0  0  0
 11 12  1  0  0  0  0
 11 15  2  0  0  0  0
 11 16  1  0  0  0  0
 12 17  1  0  0  0  0
 12 18  2  0  0  0  0
 13 15  1  0  0  0  0
 14 16  2  0  0  0  0
 17 30  1  0  0  0  0
 18 19  1  0  0  0  0
 19 21  2  0  0  0  0
 20 22  1  0  0  0  0
 20 25  1  0  0  0  0
 20 31  2  0  0  0  0
 23 24  1  0  0  0  0
 23 25  2  0  0  0  0
 24 37  1  0  0  0  0
 24 38  1  0  0  0  0
 24 39  1  0  0  0  0
 26 33  1  0  0  0  0
 27 34  1  0  0  0  0
 28 35  1  0  0  0  0
 29 36  1  0  0  0  0
 31 32  1  0  0  0  0
M  END
> <PUBCHEM_COMPOUND_ID_TYPE>
0

> <PUBCHEM_TOTAL_CHARGE>
0

> <PUBCHEM_SUBSTANCE_ID>
310943294

> <PUBCHEM_SUBSTANCE_VERSION>
1

> <PUBCHEM_EXT_DATASOURCE_NAME>
4488

> <PUBCHEM_EXT_DATASOURCE_REGID>
SCHEMBL16121356

> <PUBCHEM_SUBSTANCE_COMMENT>
InChI=1S/C29H33N7O3/c1-20-24(17-23(18-32-20)33-28(37)21-4-5-31-25(14-21)29(2,3)19-30)22-15-26(35-6-10-38-11-7-35)34-27(16-22)36-8-12-39-13-9-36/h4-5,14-18H,6-13H2,1-3H3,(H,33,37)
InChIKey=HULVKZCBRXGLIR-UHFFFAOYSA-N

> <PUBCHEM_SUBSTANCE_SYNONYM>
SCHEMBL16121356

> <PUBCHEM_XREF_EXT_ID>
SCHEMBL16121356

> <PUBCHEM_EXT_DATASOURCE_URL>
https://www.surechembl.org/

> <PUBCHEM_EXT_SUBSTANCE_URL>
https://www.surechembl.org/chemical/SCHEMBL16121356

> <PUBCHEM_CID_ASSOCIATIONS>
117609719  1

> <PUBCHEM_COORDINATE_TYPE>
1
3

$$$$
