310941959
  -OEChem-07211613022D

 21 24  0     0  0  0  0  0  0999 V2000
    2.4564    1.4825    0.0000 O   0  0  0  0  0  0  0  0  0  0  0  0
   -0.7196   -0.7506    0.0000 N   0  0  0  0  0  0  0  0  0  0  0  0
    1.4514    2.3758    0.0000 N   0  0  0  0  0  0  0  0  0  0  0  0
   -0.3102    0.5148    0.0000 C   0  0  0  0  0  0  0  0  0  0  0  0
   -0.0621   -0.2419    0.0000 C   0  0  0  0  0  0  0  0  0  0  0  0
   -1.1662    0.5272    0.0000 C   0  0  0  0  0  0  0  0  0  0  0  0
   -1.4391   -0.2544    0.0000 C   0  0  0  0  0  0  0  0  0  0  0  0
    0.2481    1.1352    0.0000 C   0  0  0  0  0  0  0  0  0  0  0  0
    1.0546    0.9615    0.0000 C   0  0  0  0  0  0  0  0  0  0  0  0
    0.7567   -0.4157    0.0000 C   0  0  0  0  0  0  0  0  0  0  0  0
   -1.7120    1.1228    0.0000 C   0  0  0  0  0  0  0  0  0  0  0  0
    1.3151    0.1799    0.0000 C   0  0  0  0  0  0  0  0  0  0  0  0
   -2.2456   -0.4157    0.0000 C   0  0  0  0  0  0  0  0  0  0  0  0
    1.6252    1.5941    0.0000 C   0  0  0  0  0  0  0  0  0  0  0  0
   -0.7320   -1.5570    0.0000 C   0  0  0  0  0  0  0  0  0  0  0  0
   -2.5185    0.9615    0.0000 C   0  0  0  0  0  0  0  0  0  0  0  0
   -2.7914    0.1675    0.0000 C   0  0  0  0  0  0  0  0  0  0  0  0
   -1.4514   -1.9540    0.0000 C   0  0  0  0  0  0  0  0  0  0  0  0
    2.7914    2.2518    0.0000 C   0  0  0  0  0  0  0  0  0  0  0  0
    2.1587    2.7976    0.0000 C   0  0  0  0  0  0  0  0  0  0  0  0
   -1.4391   -2.7976    0.0000 C   0  0  0  0  0  0  0  0  0  0  0  0
  1 14  1  0  0  0  0
  1 19  1  0  0  0  0
  2  5  1  0  0  0  0
  2  7  1  0  0  0  0
  2 15  1  0  0  0  0
  3 14  2  0  0  0  0
  3 20  1  0  0  0  0
  4  5  2  0  0  0  0
  4  6  1  0  0  0  0
  4  8  1  0  0  0  0
  5 10  1  0  0  0  0
  6  7  1  0  0  0  0
  6 11  2  0  0  0  0
  7 13  2  0  0  0  0
  8  9  2  0  0  0  0
  9 12  1  0  0  0  0
  9 14  1  0  0  0  0
 10 12  2  0  0  0  0
 11 16  1  0  0  0  0
 13 17  1  0  0  0  0
 15 18  1  0  0  0  0
 16 17  2  0  0  0  0
 18 21  1  0  0  0  0
 19 20  1  0  0  0  0
M  END
> <PUBCHEM_COMPOUND_ID_TYPE>
0

> <PUBCHEM_TOTAL_CHARGE>
0

> <PUBCHEM_SUBSTANCE_ID>
310941959

> <PUBCHEM_SUBSTANCE_VERSION>
1

> <PUBCHEM_EXT_DATASOURCE_NAME>
4488

> <PUBCHEM_EXT_DATASOURCE_REGID>
SCHEMBL16119993

> <PUBCHEM_SUBSTANCE_COMMENT>
InChI=1S/C18H18N2O/c1-2-10-20-16-6-4-3-5-14(16)15-12-13(7-8-17(15)20)18-19-9-11-21-18/h3-8,12H,2,9-11H2,1H3
InChIKey=QZFFPYMIZCBBSP-UHFFFAOYSA-N

> <PUBCHEM_SUBSTANCE_SYNONYM>
SCHEMBL16119993

> <PUBCHEM_XREF_EXT_ID>
SCHEMBL16119993

> <PUBCHEM_EXT_DATASOURCE_URL>
https://www.surechembl.org/

> <PUBCHEM_EXT_SUBSTANCE_URL>
https://www.surechembl.org/chemical/SCHEMBL16119993

> <PUBCHEM_CID_ASSOCIATIONS>
86271059  1

> <PUBCHEM_COORDINATE_TYPE>
1
3

$$$$
