310931008
  -OEChem-07211613022D

 37 41  0     0  0  0  0  0  0999 V2000
   -6.4304    0.8250    0.0000 S   0  0  0  0  0  0  0  0  0  0  0  0
   -6.0179    1.5395    0.0000 O   0  0  0  0  0  0  0  0  0  0  0  0
   -6.8429    0.1106    0.0000 O   0  0  0  0  0  0  0  0  0  0  0  0
   -9.2883    0.8250    0.0000 O   0  0  0  0  0  0  0  0  0  0  0  0
   -2.1435   -1.6500    0.0000 O   0  0  0  0  0  0  0  0  0  0  0  0
  -12.8607    2.0625    0.0000 O   0  0  0  0  0  0  0  0  0  0  0  0
    0.0000   -0.4125    0.0000 N   0  0  0  0  0  0  0  0  0  0  0  0
    0.7847    0.6674    0.0000 N   0  0  0  0  0  0  0  0  0  0  0  0
   -2.8579   -0.4125    0.0000 N   0  0  0  0  0  0  0  0  0  0  0  0
  -11.4318    1.2375    0.0000 N   0  0  0  0  0  0  0  0  0  0  0  0
   -7.1449    1.2375    0.0000 C   0  0  0  0  0  0  0  0  0  0  0  0
   -5.7159    0.4125    0.0000 C   0  0  0  0  0  0  0  0  0  0  0  0
   -7.8594    0.8250    0.0000 C   0  0  0  0  0  0  0  0  0  0  0  0
   -5.0014    0.8250    0.0000 C   0  0  0  0  0  0  0  0  0  0  0  0
   -5.7159   -0.4125    0.0000 C   0  0  0  0  0  0  0  0  0  0  0  0
   -7.1449    2.0625    0.0000 C   0  0  0  0  0  0  0  0  0  0  0  0
   -8.5738    1.2375    0.0000 C   0  0  0  0  0  0  0  0  0  0  0  0
    0.0000    0.4125    0.0000 C   0  0  0  0  0  0  0  0  0  0  0  0
   -1.4290   -0.4125    0.0000 C   0  0  0  0  0  0  0  0  0  0  0  0
   -4.2869   -0.4125    0.0000 C   0  0  0  0  0  0  0  0  0  0  0  0
   -4.2869    0.4125    0.0000 C   0  0  0  0  0  0  0  0  0  0  0  0
   -5.0014   -0.8250    0.0000 C   0  0  0  0  0  0  0  0  0  0  0  0
   -0.7145   -0.8250    0.0000 C   0  0  0  0  0  0  0  0  0  0  0  0
   -2.1435   -0.8250    0.0000 C   0  0  0  0  0  0  0  0  0  0  0  0
   -7.8594    2.4751    0.0000 C   0  0  0  0  0  0  0  0  0  0  0  0
   -8.5738    2.0625    0.0000 C   0  0  0  0  0  0  0  0  0  0  0  0
   -0.7145    0.8250    0.0000 C   0  0  0  0  0  0  0  0  0  0  0  0
   -1.4290    0.4125    0.0000 C   0  0  0  0  0  0  0  0  0  0  0  0
    0.7847   -0.6674    0.0000 C   0  0  0  0  0  0  0  0  0  0  0  0
   -3.5724   -0.8250    0.0000 C   0  0  0  0  0  0  0  0  0  0  0  0
    1.2696    0.0000    0.0000 C   0  0  0  0  0  0  0  0  0  0  0  0
  -10.0028    1.2375    0.0000 C   0  0  0  0  0  0  0  0  0  0  0  0
  -10.7173    0.8250    0.0000 C   0  0  0  0  0  0  0  0  0  0  0  0
  -12.1463    0.8250    0.0000 C   0  0  0  0  0  0  0  0  0  0  0  0
  -11.4318    2.0625    0.0000 C   0  0  0  0  0  0  0  0  0  0  0  0
  -12.8607    1.2375    0.0000 C   0  0  0  0  0  0  0  0  0  0  0  0
  -12.1463    2.4751    0.0000 C   0  0  0  0  0  0  0  0  0  0  0  0
  1  2  2  0  0  0  0
  1  3  2  0  0  0  0
  1 11  1  0  0  0  0
  1 12  1  0  0  0  0
  4 17  1  0  0  0  0
  4 32  1  0  0  0  0
  5 24  2  0  0  0  0
  6 36  1  0  0  0  0
  6 37  1  0  0  0  0
  7 18  1  0  0  0  0
  7 23  1  0  0  0  0
  7 29  1  0  0  0  0
  8 18  2  0  0  0  0
  8 31  1  0  0  0  0
  9 24  1  0  0  0  0
  9 30  1  0  0  0  0
 10 33  1  0  0  0  0
 10 34  1  0  0  0  0
 10 35  1  0  0  0  0
 11 13  1  0  0  0  0
 11 16  2  0  0  0  0
 12 14  2  0  0  0  0
 12 15  1  0  0  0  0
 13 17  2  0  0  0  0
 14 21  1  0  0  0  0
 15 22  2  0  0  0  0
 16 25  1  0  0  0  0
 17 26  1  0  0  0  0
 18 27  1  0  0  0  0
 19 23  2  0  0  0  0
 19 24  1  0  0  0  0
 19 28  1  0  0  0  0
 20 21  2  0  0  0  0
 20 22  1  0  0  0  0
 20 30  1  0  0  0  0
 25 26  2  0  0  0  0
 27 28  2  0  0  0  0
 29 31  2  0  0  0  0
 32 33  1  0  0  0  0
 34 36  1  0  0  0  0
 35 37  1  0  0  0  0
M  END
> <PUBCHEM_COMPOUND_ID_TYPE>
0

> <PUBCHEM_TOTAL_CHARGE>
0

> <PUBCHEM_SUBSTANCE_ID>
310931008

> <PUBCHEM_SUBSTANCE_VERSION>
1

> <PUBCHEM_EXT_DATASOURCE_NAME>
4488

> <PUBCHEM_EXT_DATASOURCE_REGID>
SCHEMBL16108308

> <PUBCHEM_SUBSTANCE_COMMENT>
InChI=1S/C27H28N4O5S/c32-27(22-6-9-26-28-10-11-31(26)20-22)29-19-21-4-7-24(8-5-21)37(33,34)25-3-1-2-23(18-25)36-17-14-30-12-15-35-16-13-30/h1-11,18,20H,12-17,19H2,(H,29,32)
InChIKey=OKZDYWCYOBWQLS-UHFFFAOYSA-N

> <PUBCHEM_SUBSTANCE_SYNONYM>
SCHEMBL16108308

> <PUBCHEM_XREF_EXT_ID>
SCHEMBL16108308

> <PUBCHEM_EXT_DATASOURCE_URL>
https://www.surechembl.org/

> <PUBCHEM_EXT_SUBSTANCE_URL>
https://www.surechembl.org/chemical/SCHEMBL16108308

> <PUBCHEM_CID_ASSOCIATIONS>
117599936  1

> <PUBCHEM_COORDINATE_TYPE>
1
3

$$$$
