310949437
  -OEChem-07211613022D

 12 13  0     0  0  0  0  0  0999 V2000
    1.4231   -0.1180    0.0000 I   0  0  0  0  0  0  0  0  0  0  0  0
    0.2138    0.7521    0.0000 O   0  0  0  0  0  0  0  0  0  0  0  0
    0.3908   -0.0443    0.0000 C   0  0  0  0  0  0  0  0  0  0  0  0
   -0.3171   -0.4424    0.0000 C   0  0  0  0  0  0  0  0  0  0  0  0
   -0.6120    0.8701    0.0000 C   0  0  0  0  0  0  0  0  0  0  0  0
   -0.9365    0.1033    0.0000 C   0  0  0  0  0  0  0  0  0  0  0  0
    1.1134   -0.4424    0.0000 C   0  0  0  0  0  0  0  0  0  0  0  0
   -0.3171   -1.2830    0.0000 C   0  0  0  0  0  0  0  0  0  0  0  0
    1.0987   -1.2830    0.0000 C   0  0  0  0  0  0  0  0  0  0  0  0
    0.3908   -1.6960    0.0000 C   0  0  0  0  0  0  0  0  0  0  0  0
   -1.4231    1.0176    0.0000 C   0  0  0  0  0  0  0  0  0  0  0  0
   -0.6120    1.6960    0.0000 C   0  0  0  0  0  0  0  0  0  0  0  0
  1  7  1  0  0  0  0
  2  3  1  0  0  0  0
  2  5  1  0  0  0  0
  3  4  1  0  0  0  0
  3  7  2  0  0  0  0
  4  6  1  0  0  0  0
  4  8  2  0  0  0  0
  5  6  1  0  0  0  0
  5 11  1  0  0  0  0
  5 12  1  0  0  0  0
  7  9  1  0  0  0  0
  8 10  1  0  0  0  0
  9 10  2  0  0  0  0
M  END
> <PUBCHEM_COMPOUND_ID_TYPE>
0

> <PUBCHEM_TOTAL_CHARGE>
0

> <PUBCHEM_SUBSTANCE_ID>
310949437

> <PUBCHEM_SUBSTANCE_VERSION>
1

> <PUBCHEM_EXT_DATASOURCE_NAME>
4488

> <PUBCHEM_EXT_DATASOURCE_REGID>
SCHEMBL16127631

> <PUBCHEM_SUBSTANCE_COMMENT>
InChI=1S/C10H11IO/c1-10(2)6-7-4-3-5-8(11)9(7)12-10/h3-5H,6H2,1-2H3
InChIKey=PSLOYZDWEVKVDI-UHFFFAOYSA-N

> <PUBCHEM_SUBSTANCE_SYNONYM>
SCHEMBL16127631

> <PUBCHEM_XREF_EXT_ID>
SCHEMBL16127631

> <PUBCHEM_EXT_DATASOURCE_URL>
https://www.surechembl.org/

> <PUBCHEM_EXT_SUBSTANCE_URL>
https://www.surechembl.org/chemical/SCHEMBL16127631

> <PUBCHEM_CID_ASSOCIATIONS>
11043965  1

> <PUBCHEM_COORDINATE_TYPE>
1
3

$$$$
