310929577
  -OEChem-07211613022D

 50 56  0     1  0  0  0  0  0999 V2000
    6.1067   -2.5932    0.0000 O   0  0  0  0  0  0  0  0  0  0  0  0
    7.0687   -5.4375    0.0000 O   0  0  0  0  0  0  0  0  0  0  0  0
    1.5058   -4.6427    0.0000 O   0  0  0  0  0  0  0  0  0  0  0  0
    2.0077   -1.0456    0.0000 O   0  0  0  0  0  0  0  0  0  0  0  0
    5.0192   -0.1673    0.0000 O   0  0  0  0  0  0  0  0  0  0  0  0
    3.5971    0.0000    0.0000 O   0  0  0  0  0  0  0  0  0  0  0  0
    0.5856   -3.7226    0.0000 O   0  0  0  0  0  0  0  0  0  0  0  0
    3.2625   -1.2966    0.0000 N   0  0  0  0  0  0  0  0  0  0  0  0
    7.0687   -2.9697    0.0000 N   0  0  0  0  0  0  0  0  0  0  0  0
    1.5058   -2.9697    0.0000 N   0  0  0  0  0  0  0  0  0  0  0  0
    6.3995   -3.3461    0.0000 C   0  0  0  0  0  0  0  0  0  0  0  0
    6.3995   -4.2245    0.0000 C   0  0  0  0  0  0  0  0  0  0  0  0
    7.0687   -4.6427    0.0000 C   0  0  0  0  0  0  0  0  0  0  0  0
    7.7797   -4.2245    0.0000 C   0  0  0  0  0  0  0  0  0  0  0  0
    4.1408   -1.2966    0.0000 C   0  0  3  0  0  0  0  0  0  0  0  0
    5.6048   -1.8822    0.0000 C   0  0  3  0  0  0  0  0  0  0  0  0
    7.7797   -3.3461    0.0000 C   0  0  0  0  0  0  0  0  0  0  0  0
    2.5096   -1.7149    0.0000 C   0  0  0  0  0  0  0  0  0  0  0  0
    4.6009   -0.9202    0.0000 C   0  0  0  0  0  0  0  0  0  0  0  0
    1.8822   -2.3005    0.0000 C   0  0  3  0  0  0  0  0  0  0  0  0
    4.9356   -1.5058    0.0000 C   0  0  0  0  0  0  0  0  0  0  0  0
    1.8822   -5.3120    0.0000 C   0  0  3  0  0  0  0  0  0  0  0  0
    4.2663   -0.5019    0.0000 C   0  0  0  0  0  0  0  0  0  0  0  0
    1.2548   -1.7985    0.0000 C   0  0  0  0  0  0  0  0  0  0  0  0
    6.1067   -5.0192    0.0000 C   0  0  0  0  0  0  0  0  0  0  0  0
    8.5326   -4.6427    0.0000 C   0  0  0  0  0  0  0  0  0  0  0  0
    8.5326   -2.9697    0.0000 C   0  0  0  0  0  0  0  0  0  0  0  0
    2.5096   -5.8975    0.0000 C   0  0  3  0  0  0  0  0  0  0  0  0
    1.4221   -3.7644    0.0000 C   0  0  0  0  0  0  0  0  0  0  0  0
    1.2130   -5.7302    0.0000 C   0  0  0  0  0  0  0  0  0  0  0  0
    9.2437   -4.2245    0.0000 C   0  0  0  0  0  0  0  0  0  0  0  0
    9.2437   -3.3461    0.0000 C   0  0  0  0  0  0  0  0  0  0  0  0
    0.4601   -2.0077    0.0000 C   0  0  0  0  0  0  0  0  0  0  0  0
    1.2966   -0.9620    0.0000 C   0  0  0  0  0  0  0  0  0  0  0  0
    2.2168   -6.6922    0.0000 C   0  0  0  0  0  0  0  0  0  0  0  0
    6.3576   -5.8557    0.0000 C   0  0  0  0  0  0  0  0  0  0  0  0
    5.6048   -5.6048    0.0000 C   0  0  0  0  0  0  0  0  0  0  0  0
    3.2625   -6.1903    0.0000 C   0  0  0  0  0  0  0  0  0  0  0  0
    1.3385   -6.5668    0.0000 C   0  0  0  0  0  0  0  0  0  0  0  0
    2.5514   -4.8100    0.0000 C   0  0  0  0  0  0  0  0  0  0  0  0
    0.0000   -1.3385    0.0000 C   0  0  0  0  0  0  0  0  0  0  0  0
    0.5019   -0.7110    0.0000 C   0  0  0  0  0  0  0  0  0  0  0  0
    6.3576   -6.7341    0.0000 C   0  0  0  0  0  0  0  0  0  0  0  0
    4.8100   -5.8139    0.0000 C   0  0  0  0  0  0  0  0  0  0  0  0
    4.1408   -6.2740    0.0000 C   0  0  0  0  0  0  0  0  0  0  0  0
    5.6466   -7.1105    0.0000 C   0  0  0  0  0  0  0  0  0  0  0  0
    7.0687   -7.1105    0.0000 C   0  0  0  0  0  0  0  0  0  0  0  0
    5.6466   -7.9470    0.0000 C   0  0  0  0  0  0  0  0  0  0  0  0
    7.0687   -7.9470    0.0000 C   0  0  0  0  0  0  0  0  0  0  0  0
    6.3576   -8.3653    0.0000 C   0  0  0  0  0  0  0  0  0  0  0  0
  1 11  1  0  0  0  0
  1 16  1  0  0  0  0
  2 13  1  0  0  0  0
  2 36  1  0  0  0  0
  3 22  1  0  0  0  0
  3 29  1  0  0  0  0
  4 18  2  0  0  0  0
  5 23  2  0  0  0  0
  6 23  1  0  0  0  0
  7 29  2  0  0  0  0
  8 15  1  0  0  0  0
  8 18  1  0  0  0  0
  8 19  1  0  0  0  0
  9 11  1  0  0  0  0
  9 17  2  0  0  0  0
 10 20  1  0  0  0  0
 10 29  1  0  0  0  0
 11 12  2  0  0  0  0
 12 13  1  0  0  0  0
 12 25  1  0  0  0  0
 13 14  2  0  0  0  0
 14 17  1  0  0  0  0
 14 26  1  0  0  0  0
 15 21  1  0  0  0  0
 15 23  1  6  0  0  0
 16 19  1  0  0  0  0
 16 21  1  1  0  0  0
 17 27  1  0  0  0  0
 20 18  1  1  0  0  0
 20 24  1  0  0  0  0
 22 28  1  0  0  0  0
 22 30  1  0  0  0  0
 22 40  1  6  0  0  0
 24 33  1  0  0  0  0
 24 34  1  0  0  0  0
 25 37  1  0  0  0  0
 26 31  2  0  0  0  0
 27 32  2  0  0  0  0
 28 35  1  6  0  0  0
 28 38  1  0  0  0  0
 30 39  1  0  0  0  0
 31 32  1  0  0  0  0
 33 41  1  0  0  0  0
 34 42  1  0  0  0  0
 35 39  1  0  0  0  0
 36 43  1  0  0  0  0
 37 44  2  0  0  0  0
 38 45  1  0  0  0  0
 41 42  1  0  0  0  0
 43 46  2  0  0  0  0
 43 47  1  0  0  0  0
 44 45  1  0  0  0  0
 46 48  1  0  0  0  0
 47 49  2  0  0  0  0
 48 50  2  0  0  0  0
 49 50  1  0  0  0  0
M  END
> <PUBCHEM_COMPOUND_ID_TYPE>
0

> <PUBCHEM_TOTAL_CHARGE>
0

> <PUBCHEM_SUBSTANCE_ID>
310929577

> <PUBCHEM_SUBSTANCE_VERSION>
1

> <PUBCHEM_EXT_DATASOURCE_NAME>
4488

> <PUBCHEM_EXT_DATASOURCE_REGID>
SCHEMBL16106763

> <PUBCHEM_SUBSTANCE_COMMENT>
InChI=1S/C40H47N3O7/c1-40-22-12-18-28(40)17-6-3-7-20-31-35(48-25-26-13-4-2-5-14-26)30-19-10-11-21-32(30)41-36(31)49-29-23-33(38(45)46)43(24-29)37(44)34(42-39(47)50-40)27-15-8-9-16-27/h2-5,7,10-11,13-14,19,21,27-29,33-34H,6,8-9,12,15-18,20,22-25H2,1H3,(H,42,47)(H,45,46)/b7-3+/t28-,29-,33+,34+,40-/m1/s1
InChIKey=RUQUUGFXSDAGGA-GGYOYMPNSA-N

> <PUBCHEM_SUBSTANCE_SYNONYM>
SCHEMBL16106763

> <PUBCHEM_XREF_EXT_ID>
SCHEMBL16106763

> <PUBCHEM_EXT_DATASOURCE_URL>
https://www.surechembl.org/

> <PUBCHEM_EXT_SUBSTANCE_URL>
https://www.surechembl.org/chemical/SCHEMBL16106763

> <PUBCHEM_CID_ASSOCIATIONS>
117598889  1

> <PUBCHEM_COORDINATE_TYPE>
1
3

> <PUBCHEM_BONDANNOTATIONS>
15  23  6
16  21  5
20  18  5
22  40  6
28  35  6

$$$$
