310935270
  -OEChem-07211613022D

 37 41  0     1  0  0  0  0  0999 V2000
    4.6183    6.1256    0.0000 F   0  0  0  0  0  0  0  0  0  0  0  0
    3.4771    4.9339    0.0000 F   0  0  0  0  0  0  0  0  0  0  0  0
    3.4519    6.1003    0.0000 F   0  0  0  0  0  0  0  0  0  0  0  0
    0.8305    2.1442    0.0000 O   0  0  0  0  0  0  0  0  0  0  0  0
    7.2699    2.2814    0.0000 O   0  0  0  0  0  0  0  0  0  0  0  0
    5.4357    5.1898    0.0000 O   0  0  0  0  0  0  0  0  0  0  0  0
    7.5612    3.6803    0.0000 O   0  0  0  0  0  0  0  0  0  0  0  0
    4.4473    4.1578    0.0000 N   0  0  0  0  0  0  0  0  0  0  0  0
    1.6479    2.0328    0.0000 C   0  0  3  0  0  0  0  0  0  0  0  0
    2.4706    2.0937    0.0000 C   0  0  3  0  0  0  0  0  0  0  0  0
    1.3357    2.7964    0.0000 C   0  0  3  0  0  0  0  0  0  0  0  0
    2.6669    2.8951    0.0000 C   0  0  3  0  0  0  0  0  0  0  0  0
    1.6225    1.2082    0.0000 C   0  0  0  0  0  0  0  0  0  0  0  0
    1.9654    3.3293    0.0000 C   0  0  0  0  0  0  0  0  0  0  0  0
    3.4590    3.1258    0.0000 C   0  0  3  0  0  0  0  0  0  0  0  0
    3.0665    1.5231    0.0000 C   0  0  0  0  0  0  0  0  0  0  0  0
    4.0548    2.5551    0.0000 C   0  0  3  0  0  0  0  0  0  0  0  0
    2.1917    1.3173    0.0000 C   0  0  0  0  0  0  0  0  0  0  0  0
    3.8586    1.7538    0.0000 C   0  0  0  0  0  0  0  0  0  0  0  0
    4.8469    2.7858    0.0000 C   0  0  3  0  0  0  0  0  0  0  0  0
    2.3240    0.7739    0.0000 C   0  0  0  0  0  0  0  0  0  0  0  0
    0.8957    0.8178    0.0000 C   0  0  0  0  0  0  0  0  0  0  0  0
    3.6552    3.9271    0.0000 C   0  0  0  0  0  0  0  0  0  0  0  0
    5.1051    2.0023    0.0000 C   0  0  3  0  0  0  0  0  0  0  0  0
    5.3964    3.4012    0.0000 C   0  0  0  0  0  0  0  0  0  0  0  0
    2.2986   -0.0507    0.0000 C   0  0  0  0  0  0  0  0  0  0  0  0
    0.8704   -0.0068    0.0000 C   0  0  0  0  0  0  0  0  0  0  0  0
    4.2127    3.3135    0.0000 C   0  0  0  0  0  0  0  0  0  0  0  0
    1.5718   -0.4411    0.0000 C   0  0  0  0  0  0  0  0  0  0  0  0
    5.9128    1.8341    0.0000 C   0  0  0  0  0  0  0  0  0  0  0  0
    6.2041    3.2331    0.0000 C   0  0  0  0  0  0  0  0  0  0  0  0
    6.4623    2.4495    0.0000 C   0  0  3  0  0  0  0  0  0  0  0  0
    4.5556    1.3869    0.0000 C   0  0  0  0  0  0  0  0  0  0  0  0
    4.6436    4.9591    0.0000 C   0  0  0  0  0  0  0  0  0  0  0  0
    4.0477    5.5297    0.0000 C   0  0  0  0  0  0  0  0  0  0  0  0
    7.8194    2.8967    0.0000 C   0  0  0  0  0  0  0  0  0  0  0  0
    8.6271    2.7286    0.0000 C   0  0  0  0  0  0  0  0  0  0  0  0
  1 35  1  0  0  0  0
  2 35  1  0  0  0  0
  3 35  1  0  0  0  0
  9  4  1  6  0  0  0
  4 11  1  0  0  0  0
 32  5  1  6  0  0  0
  5 36  1  0  0  0  0
  6 34  2  0  0  0  0
  7 36  2  0  0  0  0
  8 23  1  0  0  0  0
  8 34  1  0  0  0  0
  9 10  1  0  0  0  0
  9 11  1  0  0  0  0
  9 13  1  0  0  0  0
 10 12  1  0  0  0  0
 10 16  1  0  0  0  0
 10 18  1  1  0  0  0
 11 14  1  6  0  0  0
 12 14  1  1  0  0  0
 12 15  1  0  0  0  0
 13 21  2  0  0  0  0
 13 22  1  0  0  0  0
 15 17  1  0  0  0  0
 15 23  1  6  0  0  0
 16 19  1  0  0  0  0
 17 19  1  1  0  0  0
 17 20  1  0  0  0  0
 20 24  1  0  0  0  0
 20 25  1  0  0  0  0
 20 28  1  1  0  0  0
 21 26  1  0  0  0  0
 22 27  2  0  0  0  0
 24 30  1  0  0  0  0
 24 33  1  6  0  0  0
 25 31  1  0  0  0  0
 26 29  2  0  0  0  0
 27 29  1  0  0  0  0
 30 32  1  0  0  0  0
 31 32  1  0  0  0  0
 34 35  1  0  0  0  0
 36 37  1  0  0  0  0
M  END
> <PUBCHEM_COMPOUND_ID_TYPE>
0

> <PUBCHEM_TOTAL_CHARGE>
0

> <PUBCHEM_SUBSTANCE_ID>
310935270

> <PUBCHEM_SUBSTANCE_VERSION>
1

> <PUBCHEM_EXT_DATASOURCE_NAME>
4488

> <PUBCHEM_EXT_DATASOURCE_REGID>
SCHEMBL16112802

> <PUBCHEM_SUBSTANCE_COMMENT>
InChI=1S/C29H38F3NO4/c1-17-14-20(36-18(2)34)10-12-26(17,3)22-11-13-27(4)23(21(22)16-33-25(35)29(30,31)32)15-24-28(27,37-24)19-8-6-5-7-9-19/h5-9,17,20-24H,10-16H2,1-4H3,(H,33,35)/t17-,20-,21+,22-,23-,24+,26+,27-,28+/m0/s1
InChIKey=TZCJPHHERXANLB-IPXOXSEXSA-N

> <PUBCHEM_SUBSTANCE_SYNONYM>
SCHEMBL16112802

> <PUBCHEM_XREF_EXT_ID>
SCHEMBL16112802

> <PUBCHEM_EXT_DATASOURCE_URL>
https://www.surechembl.org/

> <PUBCHEM_EXT_SUBSTANCE_URL>
https://www.surechembl.org/chemical/SCHEMBL16112802

> <PUBCHEM_CID_ASSOCIATIONS>
117603340  1

> <PUBCHEM_COORDINATE_TYPE>
1
3

> <PUBCHEM_BONDANNOTATIONS>
10  18  5
11  14  6
12  14  5
15  23  6
17  19  5
20  28  5
24  33  6
9  4  6
32  5  6

$$$$
