310940951
  -OEChem-07211613022D

 42 45  0     1  0  0  0  0  0999 V2000
    5.2337   -1.4327    0.0000 O   0  0  0  0  0  0  0  0  0  0  0  0
    4.0934    0.5409    0.0000 O   0  0  0  0  0  0  0  0  0  0  0  0
    1.7104   -1.4181    0.0000 O   0  0  0  0  0  0  0  0  0  0  0  0
   -0.4678    0.6579    0.0000 O   0  0  0  0  0  0  0  0  0  0  0  0
   -2.6315   -1.4181    0.0000 O   0  0  0  0  0  0  0  0  0  0  0  0
    3.8742    3.1724    0.0000 O   0  0  0  0  0  0  0  0  0  0  0  0
   -5.5115   -1.4181    0.0000 O   0  0  0  0  0  0  0  0  0  0  0  0
    2.4122   -0.1754    0.0000 N   0  0  0  0  0  0  0  0  0  0  0  0
    0.2485   -0.5847    0.0000 N   0  0  0  0  0  0  0  0  0  0  0  0
   -1.9152   -0.1754    0.0000 N   0  0  0  0  0  0  0  0  0  0  0  0
   -4.0788   -0.5847    0.0000 N   0  0  0  0  0  0  0  0  0  0  0  0
    4.5758    1.9152    0.0000 N   0  0  0  0  0  0  0  0  0  0  0  0
    4.8098   -0.7017    0.0000 C   0  0  3  0  0  0  0  0  0  0  0  0
    4.0203   -0.2778    0.0000 C   0  0  0  0  0  0  0  0  0  0  0  0
    4.4004   -1.3888    0.0000 C   0  0  0  0  0  0  0  0  0  0  0  0
    3.3771   -0.6725    0.0000 C   0  0  3  0  0  0  0  0  0  0  0  0
    5.5115   -0.2778    0.0000 C   0  0  0  0  0  0  0  0  0  0  0  0
    3.3479   -1.7689    0.0000 C   0  0  0  0  0  0  0  0  0  0  0  0
    1.6959   -0.5409    0.0000 C   0  0  0  0  0  0  0  0  0  0  0  0
    0.9795   -0.1462    0.0000 C   0  0  3  0  0  0  0  0  0  0  0  0
    2.6461   -2.1929    0.0000 C   0  0  0  0  0  0  0  0  0  0  0  0
    0.9941    0.6871    0.0000 C   0  0  0  0  0  0  0  0  0  0  0  0
    1.6812    1.1110    0.0000 C   0  0  0  0  0  0  0  0  0  0  0  0
   -0.4824   -0.1608    0.0000 C   0  0  0  0  0  0  0  0  0  0  0  0
    1.8713   -1.8566    0.0000 C   0  0  0  0  0  0  0  0  0  0  0  0
    2.5437   -3.0115    0.0000 C   0  0  0  0  0  0  0  0  0  0  0  0
   -1.1842   -0.5555    0.0000 C   0  0  3  0  0  0  0  0  0  0  0  0
    1.7104    1.9444    0.0000 C   0  0  0  0  0  0  0  0  0  0  0  0
    2.4268    0.7017    0.0000 C   0  0  0  0  0  0  0  0  0  0  0  0
    1.3303   -2.4707    0.0000 C   0  0  0  0  0  0  0  0  0  0  0  0
    1.7251   -3.1724    0.0000 C   0  0  0  0  0  0  0  0  0  0  0  0
    3.1431    1.9444    0.0000 C   0  0  0  0  0  0  0  0  0  0  0  0
    2.4122    2.3537    0.0000 C   0  0  0  0  0  0  0  0  0  0  0  0
    3.1431    1.1110    0.0000 C   0  0  0  0  0  0  0  0  0  0  0  0
   -2.6315   -0.5409    0.0000 C   0  0  0  0  0  0  0  0  0  0  0  0
    3.8595    2.3391    0.0000 C   0  0  0  0  0  0  0  0  0  0  0  0
   -3.3771   -0.1462    0.0000 C   0  0  0  0  0  0  0  0  0  0  0  0
   -1.1842   -1.3742    0.0000 C   0  0  0  0  0  0  0  0  0  0  0  0
   -4.0788   -1.3888    0.0000 C   0  0  0  0  0  0  0  0  0  0  0  0
   -4.8098   -0.1462    0.0000 C   0  0  0  0  0  0  0  0  0  0  0  0
   -4.7951   -1.8128    0.0000 C   0  0  0  0  0  0  0  0  0  0  0  0
   -5.5115   -0.5555    0.0000 C   0  0  0  0  0  0  0  0  0  0  0  0
  1 13  1  0  0  0  0
  1 15  1  0  0  0  0
  2 14  2  0  0  0  0
  3 19  2  0  0  0  0
  4 24  2  0  0  0  0
  5 35  2  0  0  0  0
  6 36  2  0  0  0  0
  7 41  1  0  0  0  0
  7 42  1  0  0  0  0
 16  8  1  6  0  0  0
  8 19  1  0  0  0  0
 20  9  1  1  0  0  0
  9 24  1  0  0  0  0
 10 27  1  0  0  0  0
 10 35  1  0  0  0  0
 11 37  1  0  0  0  0
 11 39  1  0  0  0  0
 11 40  1  0  0  0  0
 12 36  1  0  0  0  0
 13 14  1  6  0  0  0
 13 15  1  0  0  0  0
 13 17  1  1  0  0  0
 14 16  1  0  0  0  0
 16 18  1  0  0  0  0
 18 21  1  0  0  0  0
 19 20  1  0  0  0  0
 20 22  1  0  0  0  0
 21 25  1  0  0  0  0
 21 26  1  0  0  0  0
 22 23  1  0  0  0  0
 23 28  2  0  0  0  0
 23 29  1  0  0  0  0
 24 27  1  0  0  0  0
 25 30  1  0  0  0  0
 26 31  1  0  0  0  0
 27 38  1  6  0  0  0
 28 33  1  0  0  0  0
 29 34  2  0  0  0  0
 30 31  1  0  0  0  0
 32 33  2  0  0  0  0
 32 34  1  0  0  0  0
 32 36  1  0  0  0  0
 35 37  1  0  0  0  0
 39 41  1  0  0  0  0
 40 42  1  0  0  0  0
M  END
> <PUBCHEM_COMPOUND_ID_TYPE>
0

> <PUBCHEM_TOTAL_CHARGE>
0

> <PUBCHEM_SUBSTANCE_ID>
310940951

> <PUBCHEM_SUBSTANCE_VERSION>
1

> <PUBCHEM_EXT_DATASOURCE_NAME>
4488

> <PUBCHEM_EXT_DATASOURCE_REGID>
SCHEMBL16118910

> <PUBCHEM_SUBSTANCE_COMMENT>
InChI=1S/C30H43N5O7/c1-19(32-25(36)17-35-11-13-41-14-12-35)28(39)34-24(16-21-7-9-22(10-8-21)27(31)38)29(40)33-23(15-20-5-3-4-6-20)26(37)30(2)18-42-30/h7-10,19-20,23-24H,3-6,11-18H2,1-2H3,(H2,31,38)(H,32,36)(H,33,40)(H,34,39)/t19-,23-,24-,30+/m0/s1
InChIKey=PNEKWIYKYSKLKJ-FFHGTZDOSA-N

> <PUBCHEM_SUBSTANCE_SYNONYM>
SCHEMBL16118910

> <PUBCHEM_XREF_EXT_ID>
SCHEMBL16118910

> <PUBCHEM_EXT_DATASOURCE_URL>
https://www.surechembl.org/

> <PUBCHEM_EXT_SUBSTANCE_URL>
https://www.surechembl.org/chemical/SCHEMBL16118910

> <PUBCHEM_CID_ASSOCIATIONS>
117607859  1

> <PUBCHEM_COORDINATE_TYPE>
1
3

> <PUBCHEM_BONDANNOTATIONS>
13  14  6
13  17  5
27  38  6
16  8  6
20  9  5

$$$$
