310941755
  -OEChem-07211613022D

 31 36  0     1  0  0  0  0  0999 V2000
    3.1308    0.2846    0.0000 S   0  0  0  0  0  0  0  0  0  0  0  0
   -1.5279    0.4794    0.0000 O   0  0  0  0  0  0  0  0  0  0  0  0
    2.8312    1.0486    0.0000 O   0  0  0  0  0  0  0  0  0  0  0  0
    3.6402    0.8988    0.0000 O   0  0  0  0  0  0  0  0  0  0  0  0
    0.9437    0.4494    0.0000 N   0  0  0  0  0  0  0  0  0  0  0  0
    2.3669    0.0299    0.0000 N   0  0  0  0  0  0  0  0  0  0  0  0
    1.0935    1.8725    0.0000 N   0  0  0  0  0  0  0  0  0  0  0  0
    1.8576    1.4980    0.0000 N   0  0  0  0  0  0  0  0  0  0  0  0
    3.7450   -0.2996    0.0000 N   0  0  0  0  0  0  0  0  0  0  0  0
   -3.8499   -0.3895    0.0000 C   0  0  0  0  0  0  0  0  0  0  0  0
   -3.2207   -0.9587    0.0000 C   0  0  3  0  0  0  0  0  0  0  0  0
   -4.3892   -0.2097    0.0000 C   0  0  3  0  0  0  0  0  0  0  0  0
   -0.2996   -0.2547    0.0000 C   0  0  0  0  0  0  0  0  0  0  0  0
    0.5393    1.2134    0.0000 C   0  0  0  0  0  0  0  0  0  0  0  0
    1.7527    0.6142    0.0000 C   0  0  0  0  0  0  0  0  0  0  0  0
   -0.7340    0.4794    0.0000 C   0  0  0  0  0  0  0  0  0  0  0  0
   -2.7863   -0.2547    0.0000 C   0  0  3  0  0  0  0  0  0  0  0  0
   -4.0147   -0.9737    0.0000 C   0  0  0  0  0  0  0  0  0  0  0  0
    0.5093   -0.2996    0.0000 C   0  0  0  0  0  0  0  0  0  0  0  0
   -0.7340   -1.0337    0.0000 C   0  0  0  0  0  0  0  0  0  0  0  0
   -0.2696    1.2284    0.0000 C   0  0  0  0  0  0  0  0  0  0  0  0
   -3.9847    0.5093    0.0000 C   0  0  0  0  0  0  0  0  0  0  0  0
   -3.1608    0.4944    0.0000 C   0  0  0  0  0  0  0  0  0  0  0  0
   -1.9624   -0.2547    0.0000 C   0  0  0  0  0  0  0  0  0  0  0  0
   -0.7340   -1.8725    0.0000 C   0  0  0  0  0  0  0  0  0  0  0  0
   -1.4231   -1.4531    0.0000 C   0  0  0  0  0  0  0  0  0  0  0  0
   -4.3592   -0.9887    0.0000 C   0  0  0  0  0  0  0  0  0  0  0  0
   -4.5839   -0.5842    0.0000 C   0  0  0  0  0  0  0  0  0  0  0  0
    3.7750   -1.1535    0.0000 C   0  0  0  0  0  0  0  0  0  0  0  0
    4.5540   -0.2696    0.0000 C   0  0  0  0  0  0  0  0  0  0  0  0
    4.5839   -1.1235    0.0000 C   0  0  0  0  0  0  0  0  0  0  0  0
  1  3  2  0  0  0  0
  1  4  2  0  0  0  0
  1  6  1  0  0  0  0
  1  9  1  0  0  0  0
  2 16  1  0  0  0  0
  2 24  1  0  0  0  0
  5 14  1  0  0  0  0
  5 15  1  0  0  0  0
  5 19  1  0  0  0  0
  6 15  1  0  0  0  0
  7  8  1  0  0  0  0
  7 14  2  0  0  0  0
  8 15  2  0  0  0  0
  9 29  1  0  0  0  0
  9 30  1  0  0  0  0
 10 11  1  0  0  0  0
 10 12  1  0  0  0  0
 10 27  1  0  0  0  0
 10 28  1  0  0  0  0
 11 17  1  0  0  0  0
 11 18  1  6  0  0  0
 12 18  1  6  0  0  0
 12 22  1  0  0  0  0
 13 16  1  0  0  0  0
 13 19  2  0  0  0  0
 13 20  1  0  0  0  0
 14 21  1  0  0  0  0
 16 21  2  0  0  0  0
 17 23  1  0  0  0  0
 17 24  1  6  0  0  0
 20 25  1  0  0  0  0
 20 26  1  0  0  0  0
 22 23  1  0  0  0  0
 25 26  1  0  0  0  0
 29 31  1  0  0  0  0
 30 31  1  0  0  0  0
M  END
> <PUBCHEM_COMPOUND_ID_TYPE>
0

> <PUBCHEM_TOTAL_CHARGE>
0

> <PUBCHEM_SUBSTANCE_ID>
310941755

> <PUBCHEM_SUBSTANCE_VERSION>
1

> <PUBCHEM_EXT_DATASOURCE_NAME>
4488

> <PUBCHEM_EXT_DATASOURCE_REGID>
SCHEMBL16119786

> <PUBCHEM_SUBSTANCE_COMMENT>
InChI=1S/C22H31N5O3S/c1-22(2)16-7-6-15(18(22)10-16)13-30-19-11-20-23-24-21(25-31(28,29)26-8-3-9-26)27(20)12-17(19)14-4-5-14/h11-12,14-16,18H,3-10,13H2,1-2H3,(H,24,25)/t15-,16+,18+/m1/s1
InChIKey=RCPXFVHAVBREEX-RYRKJORJSA-N

> <PUBCHEM_SUBSTANCE_SYNONYM>
SCHEMBL16119786

> <PUBCHEM_XREF_EXT_ID>
SCHEMBL16119786

> <PUBCHEM_EXT_DATASOURCE_URL>
https://www.surechembl.org/

> <PUBCHEM_EXT_SUBSTANCE_URL>
https://www.surechembl.org/chemical/SCHEMBL16119786

> <PUBCHEM_CID_ASSOCIATIONS>
117608514  1

> <PUBCHEM_COORDINATE_TYPE>
1
3

> <PUBCHEM_BONDANNOTATIONS>
11  18  6
12  18  6
17  24  6

$$$$
