310934386
  -OEChem-07211613022D

 13 12  0     1  0  0  0  0  0999 V2000
    0.0000   -0.8250    0.0000 O   0  0  0  0  0  0  0  0  0  0  0  0
   -0.7145    1.2375    0.0000 O   0  0  0  0  0  0  0  0  0  0  0  0
   -1.4290   -0.8250    0.0000 O   0  0  0  0  0  0  0  0  0  0  0  0
    1.4290    1.6500    0.0000 O   0  0  0  0  0  0  0  0  0  0  0  0
    2.1435    0.4125    0.0000 O   0  0  0  0  0  0  0  0  0  0  0  0
   -2.8579    0.0000    0.0000 O   0  0  0  0  0  0  0  0  0  0  0  0
    0.7145    1.2375    0.0000 N   0  0  0  0  0  0  0  0  0  0  0  0
    0.0000    0.0000    0.0000 C   0  0  3  0  0  0  0  0  0  0  0  0
   -0.7145    0.4125    0.0000 C   0  0  3  0  0  0  0  0  0  0  0  0
    0.7145    0.4125    0.0000 C   0  0  3  0  0  0  0  0  0  0  0  0
   -1.4290    0.0000    0.0000 C   0  0  3  0  0  0  0  0  0  0  0  0
    1.4290    0.0000    0.0000 C   0  0  0  0  0  0  0  0  0  0  0  0
   -2.1435    0.4125    0.0000 C   0  0  0  0  0  0  0  0  0  0  0  0
  8  1  1  1  0  0  0
  9  2  1  1  0  0  0
 11  3  1  6  0  0  0
  4  7  2  0  0  0  0
  5 12  2  0  0  0  0
  6 13  1  0  0  0  0
 10  7  1  1  0  0  0
  8  9  1  0  0  0  0
  8 10  1  0  0  0  0
  9 11  1  0  0  0  0
 10 12  1  0  0  0  0
 11 13  1  0  0  0  0
M  END
> <PUBCHEM_COMPOUND_ID_TYPE>
0

> <PUBCHEM_TOTAL_CHARGE>
0

> <PUBCHEM_SUBSTANCE_ID>
310934386

> <PUBCHEM_SUBSTANCE_VERSION>
1

> <PUBCHEM_EXT_DATASOURCE_NAME>
4488

> <PUBCHEM_EXT_DATASOURCE_REGID>
SCHEMBL16111857

> <PUBCHEM_SUBSTANCE_COMMENT>
InChI=1S/C6H11NO6/c8-1-3(7-13)5(11)6(12)4(10)2-9/h1,3-6,9-12H,2H2/t3-,4+,5+,6+/m0/s1
InChIKey=LULQLAGYAIJXHJ-SLPGGIOYSA-N

> <PUBCHEM_SUBSTANCE_SYNONYM>
SCHEMBL16111857

> <PUBCHEM_XREF_EXT_ID>
SCHEMBL16111857

> <PUBCHEM_EXT_DATASOURCE_URL>
https://www.surechembl.org/

> <PUBCHEM_EXT_SUBSTANCE_URL>
https://www.surechembl.org/chemical/SCHEMBL16111857

> <PUBCHEM_CID_ASSOCIATIONS>
117602610  1

> <PUBCHEM_COORDINATE_TYPE>
1
3

> <PUBCHEM_BONDANNOTATIONS>
8  1  5
9  2  5
11  3  6
10  7  5

$$$$
