310942091
  -OEChem-07211613022D

 30 31  0     1  0  0  0  0  0999 V2000
    1.8054    0.4623    0.0000 Cl  0  0  0  0  0  0  0  0  0  0  0  0
    0.3686   -2.0241    0.0000 F   0  0  0  0  0  0  0  0  0  0  0  0
    1.7929   -1.1994    0.0000 O   0  0  0  0  0  0  0  0  0  0  0  0
   -0.3686    1.7117    0.0000 O   0  0  0  0  0  0  0  0  0  0  0  0
   -3.9794    1.2994    0.0000 O   0  0  0  0  0  0  0  0  0  0  0  0
   -1.7929   -0.7746    0.0000 N   0  0  0  0  0  0  0  0  0  0  0  0
   -1.7929    1.7242    0.0000 N   0  0  0  0  0  0  0  0  0  0  0  0
   -0.3686   -0.7746    0.0000 C   0  0  0  0  0  0  0  0  0  0  0  0
    0.3686   -1.1870    0.0000 C   0  0  0  0  0  0  0  0  0  0  0  0
    1.0808   -0.7746    0.0000 C   0  0  0  0  0  0  0  0  0  0  0  0
    1.0932    0.0625    0.0000 C   0  0  0  0  0  0  0  0  0  0  0  0
   -1.0683   -1.1870    0.0000 C   0  0  3  0  0  0  0  0  0  0  0  0
   -0.3436    0.0500    0.0000 C   0  0  0  0  0  0  0  0  0  0  0  0
    0.3810    0.4623    0.0000 C   0  0  0  0  0  0  0  0  0  0  0  0
    2.5176   -0.7746    0.0000 C   0  0  0  0  0  0  0  0  0  0  0  0
   -1.0808   -2.0366    0.0000 C   0  0  0  0  0  0  0  0  0  0  0  0
   -1.7805    0.0625    0.0000 C   0  0  3  0  0  0  0  0  0  0  0  0
    2.5426    0.0500    0.0000 C   0  0  0  0  0  0  0  0  0  0  0  0
    3.2672   -1.1870    0.0000 C   0  0  0  0  0  0  0  0  0  0  0  0
   -1.0808    0.4623    0.0000 C   0  0  0  0  0  0  0  0  0  0  0  0
   -1.0808    1.2994    0.0000 C   0  0  0  0  0  0  0  0  0  0  0  0
    3.2672    0.4623    0.0000 C   0  0  0  0  0  0  0  0  0  0  0  0
    3.9794   -0.7746    0.0000 C   0  0  0  0  0  0  0  0  0  0  0  0
   -1.7805   -2.4364    0.0000 C   0  0  0  0  0  0  0  0  0  0  0  0
   -2.5051    0.4623    0.0000 C   0  0  0  0  0  0  0  0  0  0  0  0
    3.9794    0.0500    0.0000 C   0  0  0  0  0  0  0  0  0  0  0  0
   -3.2423    1.7367    0.0000 C   0  0  0  0  0  0  0  0  0  0  0  0
   -2.5051    1.3119    0.0000 C   0  0  0  0  0  0  0  0  0  0  0  0
   -3.6546    2.4239    0.0000 C   0  0  0  0  0  0  0  0  0  0  0  0
   -2.8175    2.4364    0.0000 C   0  0  0  0  0  0  0  0  0  0  0  0
  1 11  1  0  0  0  0
  2  9  1  0  0  0  0
  3 10  1  0  0  0  0
  3 15  1  0  0  0  0
  4 21  2  0  0  0  0
  5 27  1  0  0  0  0
 12  6  1  1  0  0  0
  6 17  1  0  0  0  0
  7 21  1  0  0  0  0
  7 28  1  0  0  0  0
  8  9  1  0  0  0  0
  8 12  1  0  0  0  0
  8 13  2  0  0  0  0
  9 10  2  0  0  0  0
 10 11  1  0  0  0  0
 11 14  2  0  0  0  0
 12 16  1  0  0  0  0
 13 14  1  0  0  0  0
 15 18  2  0  0  0  0
 15 19  1  0  0  0  0
 16 24  1  0  0  0  0
 17 20  1  0  0  0  0
 17 25  1  6  0  0  0
 18 22  1  0  0  0  0
 19 23  2  0  0  0  0
 20 21  1  0  0  0  0
 22 26  2  0  0  0  0
 23 26  1  0  0  0  0
 27 28  1  0  0  0  0
 27 29  1  0  0  0  0
 27 30  1  0  0  0  0
M  END
> <PUBCHEM_COMPOUND_ID_TYPE>
0

> <PUBCHEM_TOTAL_CHARGE>
0

> <PUBCHEM_SUBSTANCE_ID>
310942091

> <PUBCHEM_SUBSTANCE_VERSION>
1

> <PUBCHEM_EXT_DATASOURCE_NAME>
4488

> <PUBCHEM_EXT_DATASOURCE_REGID>
SCHEMBL16120126

> <PUBCHEM_SUBSTANCE_COMMENT>
InChI=1S/C23H30ClFN2O3/c1-5-19(27-15(2)13-20(28)26-14-23(3,4)29)17-11-12-18(24)22(21(17)25)30-16-9-7-6-8-10-16/h6-12,15,19,27,29H,5,13-14H2,1-4H3,(H,26,28)/t15-,19-/m1/s1
InChIKey=CQRLVJJRFIMXOE-DNVCBOLYSA-N

> <PUBCHEM_SUBSTANCE_SYNONYM>
SCHEMBL16120126

> <PUBCHEM_XREF_EXT_ID>
SCHEMBL16120126

> <PUBCHEM_EXT_DATASOURCE_URL>
https://www.surechembl.org/

> <PUBCHEM_EXT_SUBSTANCE_URL>
https://www.surechembl.org/chemical/SCHEMBL16120126

> <PUBCHEM_CID_ASSOCIATIONS>
117608753  1

> <PUBCHEM_COORDINATE_TYPE>
1
3

> <PUBCHEM_BONDANNOTATIONS>
17  25  6
12  6  5

$$$$
