310939994
  -OEChem-07211613022D

 19 20  0     0  0  0  0  0  0999 V2000
    1.0461    3.3248    0.0000 O   0  0  0  0  0  0  0  0  0  0  0  0
    1.4159    4.7050    0.0000 O   0  0  0  0  0  0  0  0  0  0  0  0
   -3.8296    3.9226    0.0000 O   0  0  0  0  0  0  0  0  0  0  0  0
    0.0356    4.3351    0.0000 N   0  0  0  0  0  0  0  0  0  0  0  0
   -2.4006    3.9226    0.0000 N   0  0  0  0  0  0  0  0  0  0  0  0
   -1.1311    4.3351    0.0000 C   0  0  0  0  0  0  0  0  0  0  0  0
   -0.5477    3.7517    0.0000 C   0  0  0  0  0  0  0  0  0  0  0  0
   -0.5477    4.9186    0.0000 C   0  0  0  0  0  0  0  0  0  0  0  0
   -1.6160    3.6678    0.0000 C   0  0  0  0  0  0  0  0  0  0  0  0
   -1.6160    5.0026    0.0000 C   0  0  0  0  0  0  0  0  0  0  0  0
    0.8325    4.1216    0.0000 C   0  0  0  0  0  0  0  0  0  0  0  0
   -2.4006    4.7477    0.0000 C   0  0  0  0  0  0  0  0  0  0  0  0
   -3.1152    3.5102    0.0000 C   0  0  0  0  0  0  0  0  0  0  0  0
    1.8430    3.1113    0.0000 C   0  0  0  0  0  0  0  0  0  0  0  0
   -3.1152    2.6851    0.0000 C   0  0  0  0  0  0  0  0  0  0  0  0
    2.4263    3.6945    0.0000 C   0  0  0  0  0  0  0  0  0  0  0  0
    2.6398    2.8976    0.0000 C   0  0  0  0  0  0  0  0  0  0  0  0
    2.0566    2.3143    0.0000 C   0  0  0  0  0  0  0  0  0  0  0  0
   -3.8296    2.2726    0.0000 C   0  0  0  0  0  0  0  0  0  0  0  0
  1 11  1  0  0  0  0
  1 14  1  0  0  0  0
  2 11  2  0  0  0  0
  3 13  2  0  0  0  0
  4  7  1  0  0  0  0
  4  8  1  0  0  0  0
  4 11  1  0  0  0  0
  5  9  1  0  0  0  0
  5 12  1  0  0  0  0
  5 13  1  0  0  0  0
  6  7  1  0  0  0  0
  6  8  1  0  0  0  0
  6  9  1  0  0  0  0
  6 10  1  0  0  0  0
 10 12  1  0  0  0  0
 13 15  1  0  0  0  0
 14 16  1  0  0  0  0
 14 17  1  0  0  0  0
 14 18  1  0  0  0  0
 15 19  2  0  0  0  0
M  END
> <PUBCHEM_COMPOUND_ID_TYPE>
0

> <PUBCHEM_TOTAL_CHARGE>
0

> <PUBCHEM_SUBSTANCE_ID>
310939994

> <PUBCHEM_SUBSTANCE_VERSION>
1

> <PUBCHEM_EXT_DATASOURCE_NAME>
4488

> <PUBCHEM_EXT_DATASOURCE_REGID>
SCHEMBL16117924

> <PUBCHEM_SUBSTANCE_COMMENT>
InChI=1S/C14H22N2O3/c1-5-11(17)15-7-6-14(8-15)9-16(10-14)12(18)19-13(2,3)4/h5H,1,6-10H2,2-4H3
InChIKey=NIBKIXLRLPNQME-UHFFFAOYSA-N

> <PUBCHEM_SUBSTANCE_SYNONYM>
SCHEMBL16117924

> <PUBCHEM_XREF_EXT_ID>
SCHEMBL16117924

> <PUBCHEM_EXT_DATASOURCE_URL>
https://www.surechembl.org/

> <PUBCHEM_EXT_SUBSTANCE_URL>
https://www.surechembl.org/chemical/SCHEMBL16117924

> <PUBCHEM_CID_ASSOCIATIONS>
117607157  1

> <PUBCHEM_COORDINATE_TYPE>
1
3

$$$$
