310946128
  -OEChem-07211613022D

 39 45  0     0  0  0  0  0  0999 V2000
    2.9051    5.7757    0.0000 O   0  0  0  0  0  0  0  0  0  0  0  0
   -0.3768    5.9472    0.0000 N   0  0  0  0  0  0  0  0  0  0  0  0
   -2.8338    4.3468    0.0000 C   0  0  0  0  0  0  0  0  0  0  0  0
   -2.0268    4.5183    0.0000 C   0  0  0  0  0  0  0  0  0  0  0  0
   -1.6143    3.8038    0.0000 C   0  0  0  0  0  0  0  0  0  0  0  0
   -2.9200    3.5263    0.0000 C   0  0  0  0  0  0  0  0  0  0  0  0
   -2.1664    3.1907    0.0000 C   0  0  0  0  0  0  0  0  0  0  0  0
   -0.7893    5.2328    0.0000 C   0  0  0  0  0  0  0  0  0  0  0  0
   -1.6143    5.2328    0.0000 C   0  0  0  0  0  0  0  0  0  0  0  0
   -0.7893    3.8038    0.0000 C   0  0  0  0  0  0  0  0  0  0  0  0
    0.4482    5.9472    0.0000 C   0  0  0  0  0  0  0  0  0  0  0  0
    1.6857    5.2328    0.0000 C   0  0  0  0  0  0  0  0  0  0  0  0
   -0.3768    4.5183    0.0000 C   0  0  0  0  0  0  0  0  0  0  0  0
   -3.5875    3.0414    0.0000 C   0  0  0  0  0  0  0  0  0  0  0  0
    2.0982    5.9472    0.0000 C   0  0  0  0  0  0  0  0  0  0  0  0
   -2.0801    2.3702    0.0000 C   0  0  0  0  0  0  0  0  0  0  0  0
    2.2377    4.6197    0.0000 C   0  0  0  0  0  0  0  0  0  0  0  0
   -0.7893    6.6617    0.0000 C   0  0  0  0  0  0  0  0  0  0  0  0
    0.8607    5.2328    0.0000 C   0  0  0  0  0  0  0  0  0  0  0  0
   -2.8338    5.1718    0.0000 C   0  0  0  0  0  0  0  0  0  0  0  0
   -3.6588    4.3468    0.0000 C   0  0  0  0  0  0  0  0  0  0  0  0
    2.9914    4.9552    0.0000 C   0  0  0  0  0  0  0  0  0  0  0  0
    0.8607    6.6617    0.0000 C   0  0  0  0  0  0  0  0  0  0  0  0
    1.6857    6.6617    0.0000 C   0  0  0  0  0  0  0  0  0  0  0  0
   -3.5012    2.2209    0.0000 C   0  0  0  0  0  0  0  0  0  0  0  0
   -2.7476    1.8853    0.0000 C   0  0  0  0  0  0  0  0  0  0  0  0
    2.1515    3.7992    0.0000 C   0  0  0  0  0  0  0  0  0  0  0  0
   -0.3768    7.3762    0.0000 C   0  0  0  0  0  0  0  0  0  0  0  0
   -1.6143    6.6617    0.0000 C   0  0  0  0  0  0  0  0  0  0  0  0
    3.6588    4.4703    0.0000 C   0  0  0  0  0  0  0  0  0  0  0  0
   -0.7893    8.0906    0.0000 C   0  0  0  0  0  0  0  0  0  0  0  0
    2.8189    3.3143    0.0000 C   0  0  0  0  0  0  0  0  0  0  0  0
    3.5726    3.6498    0.0000 C   0  0  0  0  0  0  0  0  0  0  0  0
   -2.0268    7.3762    0.0000 C   0  0  0  0  0  0  0  0  0  0  0  0
   -1.6143    8.0906    0.0000 C   0  0  0  0  0  0  0  0  0  0  0  0
   -0.3768    8.8051    0.0000 C   0  0  0  0  0  0  0  0  0  0  0  0
   -0.7893    9.5196    0.0000 C   0  0  0  0  0  0  0  0  0  0  0  0
   -0.3768   10.2341    0.0000 C   0  0  0  0  0  0  0  0  0  0  0  0
   -0.7893   10.9485    0.0000 C   0  0  0  0  0  0  0  0  0  0  0  0
  1 15  1  0  0  0  0
  1 22  1  0  0  0  0
  2  8  1  0  0  0  0
  2 11  1  0  0  0  0
  2 18  1  0  0  0  0
  3  4  1  0  0  0  0
  3  6  1  0  0  0  0
  3 20  1  0  0  0  0
  3 21  1  0  0  0  0
  4  5  2  0  0  0  0
  4  9  1  0  0  0  0
  5  7  1  0  0  0  0
  5 10  1  0  0  0  0
  6  7  2  0  0  0  0
  6 14  1  0  0  0  0
  7 16  1  0  0  0  0
  8  9  2  0  0  0  0
  8 13  1  0  0  0  0
 10 13  2  0  0  0  0
 11 19  2  0  0  0  0
 11 23  1  0  0  0  0
 12 15  2  0  0  0  0
 12 17  1  0  0  0  0
 12 19  1  0  0  0  0
 14 25  2  0  0  0  0
 15 24  1  0  0  0  0
 16 26  2  0  0  0  0
 17 22  2  0  0  0  0
 17 27  1  0  0  0  0
 18 28  2  0  0  0  0
 18 29  1  0  0  0  0
 22 30  1  0  0  0  0
 23 24  2  0  0  0  0
 25 26  1  0  0  0  0
 27 32  2  0  0  0  0
 28 31  1  0  0  0  0
 29 34  2  0  0  0  0
 30 33  2  0  0  0  0
 31 35  2  0  0  0  0
 31 36  1  0  0  0  0
 32 33  1  0  0  0  0
 34 35  1  0  0  0  0
 36 37  1  0  0  0  0
 37 38  1  0  0  0  0
 38 39  1  0  0  0  0
M  END
> <PUBCHEM_COMPOUND_ID_TYPE>
0

> <PUBCHEM_TOTAL_CHARGE>
0

> <PUBCHEM_SUBSTANCE_ID>
310946128

> <PUBCHEM_SUBSTANCE_VERSION>
1

> <PUBCHEM_EXT_DATASOURCE_NAME>
4488

> <PUBCHEM_EXT_DATASOURCE_REGID>
SCHEMBL16124237

> <PUBCHEM_SUBSTANCE_COMMENT>
InChI=1S/C37H33NO/c1-4-5-11-25-12-10-13-26(22-25)38(27-19-21-36-32(23-27)31-15-7-9-17-35(31)39-36)28-18-20-30-29-14-6-8-16-33(29)37(2,3)34(30)24-28/h6-10,12-24H,4-5,11H2,1-3H3
InChIKey=ZDPLPFSQTHGPJZ-UHFFFAOYSA-N

> <PUBCHEM_SUBSTANCE_SYNONYM>
SCHEMBL16124237

> <PUBCHEM_XREF_EXT_ID>
SCHEMBL16124237

> <PUBCHEM_EXT_DATASOURCE_URL>
https://www.surechembl.org/

> <PUBCHEM_EXT_SUBSTANCE_URL>
https://www.surechembl.org/chemical/SCHEMBL16124237

> <PUBCHEM_CID_ASSOCIATIONS>
117612087  1

> <PUBCHEM_COORDINATE_TYPE>
1
3

$$$$
