310942065
  -OEChem-07211613022D

 20 22  0     0  0  0  0  0  0999 V2000
    2.5653    1.6088    0.0000 O   0  0  0  0  0  0  0  0  0  0  0  0
   -0.5404   -0.5777    0.0000 N   0  0  0  0  0  0  0  0  0  0  0  0
    1.4846    0.3417    0.0000 N   0  0  0  0  0  0  0  0  0  0  0  0
   -0.1304    0.7019    0.0000 C   0  0  0  0  0  0  0  0  0  0  0  0
    0.1056   -0.0559    0.0000 C   0  0  0  0  0  0  0  0  0  0  0  0
   -0.9752    0.7144    0.0000 C   0  0  0  0  0  0  0  0  0  0  0  0
   -1.2237   -0.0683    0.0000 C   0  0  0  0  0  0  0  0  0  0  0  0
    0.4286    1.3355    0.0000 C   0  0  0  0  0  0  0  0  0  0  0  0
    1.2113    1.1740    0.0000 C   0  0  0  0  0  0  0  0  0  0  0  0
    0.9379   -0.2298    0.0000 C   0  0  0  0  0  0  0  0  0  0  0  0
    1.7579    1.8075    0.0000 C   0  0  0  0  0  0  0  0  0  0  0  0
   -1.5094    1.3106    0.0000 C   0  0  0  0  0  0  0  0  0  0  0  0
   -2.0188   -0.2422    0.0000 C   0  0  0  0  0  0  0  0  0  0  0  0
   -0.5404   -1.3852    0.0000 C   0  0  0  0  0  0  0  0  0  0  0  0
   -2.3045    1.1492    0.0000 C   0  0  0  0  0  0  0  0  0  0  0  0
   -2.5653    0.3665    0.0000 C   0  0  0  0  0  0  0  0  0  0  0  0
   -1.2485   -1.7827    0.0000 C   0  0  0  0  0  0  0  0  0  0  0  0
    1.0374    2.2300    0.0000 C   0  0  0  0  0  0  0  0  0  0  0  0
    1.7703    2.6399    0.0000 C   0  0  0  0  0  0  0  0  0  0  0  0
   -1.2609   -2.6399    0.0000 C   0  0  0  0  0  0  0  0  0  0  0  0
  1 11  1  0  0  0  0
  2  5  1  0  0  0  0
  2  7  1  0  0  0  0
  2 14  1  0  0  0  0
  3  9  1  0  0  0  0
  3 10  2  0  0  0  0
  4  5  2  0  0  0  0
  4  6  1  0  0  0  0
  4  8  1  0  0  0  0
  5 10  1  0  0  0  0
  6  7  1  0  0  0  0
  6 12  2  0  0  0  0
  7 13  2  0  0  0  0
  8  9  2  0  0  0  0
  9 11  1  0  0  0  0
 11 18  1  0  0  0  0
 11 19  1  0  0  0  0
 12 15  1  0  0  0  0
 13 16  1  0  0  0  0
 14 17  1  0  0  0  0
 15 16  2  0  0  0  0
 17 20  1  0  0  0  0
M  END
> <PUBCHEM_COMPOUND_ID_TYPE>
0

> <PUBCHEM_TOTAL_CHARGE>
0

> <PUBCHEM_SUBSTANCE_ID>
310942065

> <PUBCHEM_SUBSTANCE_VERSION>
1

> <PUBCHEM_EXT_DATASOURCE_NAME>
4488

> <PUBCHEM_EXT_DATASOURCE_REGID>
SCHEMBL16120100

> <PUBCHEM_SUBSTANCE_COMMENT>
InChI=1S/C17H20N2O/c1-4-9-19-14-8-6-5-7-12(14)13-10-16(17(2,3)20)18-11-15(13)19/h5-8,10-11,20H,4,9H2,1-3H3
InChIKey=DARLLTYSJJCXTE-UHFFFAOYSA-N

> <PUBCHEM_SUBSTANCE_SYNONYM>
SCHEMBL16120100

> <PUBCHEM_XREF_EXT_ID>
SCHEMBL16120100

> <PUBCHEM_EXT_DATASOURCE_URL>
https://www.surechembl.org/

> <PUBCHEM_EXT_SUBSTANCE_URL>
https://www.surechembl.org/chemical/SCHEMBL16120100

> <PUBCHEM_CID_ASSOCIATIONS>
117608739  1

> <PUBCHEM_COORDINATE_TYPE>
1
3

$$$$
