310938345
  -OEChem-07211613022D

 15 16  0     0  0  0  0  0  0999 V2000
    3.1086   -0.7430    0.0000 Cl  0  0  0  0  0  0  0  0  0  0  0  0
    4.5492   -2.8963    0.0000 O   0  0  0  0  0  0  0  0  0  0  0  0
    4.5492   -1.4861    0.0000 O   0  0  0  0  0  0  0  0  0  0  0  0
    2.8508   -2.8508    0.0000 N   0  0  0  0  0  0  0  0  0  0  0  0
    0.0910   -0.3639    0.0000 N   0  0  0  0  0  0  0  0  0  0  0  0
    2.0775   -1.7894    0.0000 C   0  0  0  0  0  0  0  0  0  0  0  0
    2.8508   -1.5164    0.0000 C   0  0  0  0  0  0  0  0  0  0  0  0
    3.3361   -2.1836    0.0000 C   0  0  0  0  0  0  0  0  0  0  0  0
    1.4103   -1.3041    0.0000 C   0  0  0  0  0  0  0  0  0  0  0  0
    2.0775   -2.5931    0.0000 C   0  0  0  0  0  0  0  0  0  0  0  0
    4.1550   -2.1836    0.0000 C   0  0  0  0  0  0  0  0  0  0  0  0
    1.5012   -0.5156    0.0000 C   0  0  0  0  0  0  0  0  0  0  0  0
    0.6672   -1.6680    0.0000 C   0  0  0  0  0  0  0  0  0  0  0  0
    0.8492    0.0000    0.0000 C   0  0  0  0  0  0  0  0  0  0  0  0
    0.0000   -1.1525    0.0000 C   0  0  0  0  0  0  0  0  0  0  0  0
  1  7  1  0  0  0  0
  2 11  2  0  0  0  0
  3 11  1  0  0  0  0
  4  8  1  0  0  0  0
  4 10  1  0  0  0  0
  5 14  2  0  0  0  0
  5 15  1  0  0  0  0
  6  7  1  0  0  0  0
  6  9  1  0  0  0  0
  6 10  2  0  0  0  0
  7  8  2  0  0  0  0
  8 11  1  0  0  0  0
  9 12  2  0  0  0  0
  9 13  1  0  0  0  0
 12 14  1  0  0  0  0
 13 15  2  0  0  0  0
M  END
> <PUBCHEM_COMPOUND_ID_TYPE>
0

> <PUBCHEM_TOTAL_CHARGE>
0

> <PUBCHEM_SUBSTANCE_ID>
310938345

> <PUBCHEM_SUBSTANCE_VERSION>
1

> <PUBCHEM_EXT_DATASOURCE_NAME>
4488

> <PUBCHEM_EXT_DATASOURCE_REGID>
SCHEMBL16116227

> <PUBCHEM_SUBSTANCE_COMMENT>
InChI=1S/C10H7ClN2O2/c11-8-7(5-13-9(8)10(14)15)6-1-3-12-4-2-6/h1-5,13H,(H,14,15)
InChIKey=FZFFDIWWDCTFSL-UHFFFAOYSA-N

> <PUBCHEM_SUBSTANCE_SYNONYM>
SCHEMBL16116227

> <PUBCHEM_XREF_EXT_ID>
SCHEMBL16116227

> <PUBCHEM_EXT_DATASOURCE_URL>
https://www.surechembl.org/

> <PUBCHEM_EXT_SUBSTANCE_URL>
https://www.surechembl.org/chemical/SCHEMBL16116227

> <PUBCHEM_CID_ASSOCIATIONS>
117605831  1

> <PUBCHEM_COORDINATE_TYPE>
1
3

$$$$
