310939529
  -OEChem-07211613022D

 48 53  0     1  0  0  0  0  0999 V2000
   -1.2264    6.8309    0.0000 O   0  0  0  0  0  0  0  0  0  0  0  0
   -0.0995    6.5290    0.0000 O   0  0  0  0  0  0  0  0  0  0  0  0
   -0.6949    9.0379    0.0000 O   0  0  0  0  0  0  0  0  0  0  0  0
    0.4236    3.9731    0.0000 O   0  0  0  0  0  0  0  0  0  0  0  0
    0.4236    5.4020    0.0000 O   0  0  0  0  0  0  0  0  0  0  0  0
    0.7340    9.0379    0.0000 O   0  0  0  0  0  0  0  0  0  0  0  0
   -3.3210    7.2434    0.0000 C   0  0  3  0  0  0  0  0  0  0  0  0
   -3.3210    6.4184    0.0000 C   0  0  3  0  0  0  0  0  0  0  0  0
   -2.5364    7.4984    0.0000 C   0  0  3  0  0  0  0  0  0  0  0  0
   -2.0514    6.8309    0.0000 C   0  0  3  0  0  0  0  0  0  0  0  0
   -4.7499    6.4184    0.0000 C   0  0  0  0  0  0  0  0  0  0  0  0
   -4.7499    7.2434    0.0000 C   0  0  0  0  0  0  0  0  0  0  0  0
   -2.5364    6.1635    0.0000 C   0  0  0  0  0  0  0  0  0  0  0  0
   -4.0354    7.6559    0.0000 C   0  0  0  0  0  0  0  0  0  0  0  0
   -4.0354    6.0059    0.0000 C   0  0  0  0  0  0  0  0  0  0  0  0
   -5.4644    6.0059    0.0000 C   0  0  0  0  0  0  0  0  0  0  0  0
   -2.1239    8.2129    0.0000 C   0  0  0  0  0  0  0  0  0  0  0  0
   -0.8139    6.1165    0.0000 C   0  0  0  0  0  0  0  0  0  0  0  0
   -5.4644    7.6559    0.0000 C   0  0  0  0  0  0  0  0  0  0  0  0
   -1.2264    5.4020    0.0000 C   0  0  3  0  0  0  0  0  0  0  0  0
   -6.1789    6.4184    0.0000 C   0  0  0  0  0  0  0  0  0  0  0  0
   -6.1789    7.2434    0.0000 C   0  0  0  0  0  0  0  0  0  0  0  0
   -0.8139    4.6875    0.0000 C   0  0  3  0  0  0  0  0  0  0  0  0
   -1.4094    7.8004    0.0000 C   0  0  0  0  0  0  0  0  0  0  0  0
   -5.4644    5.0939    0.0000 C   0  0  0  0  0  0  0  0  0  0  0  0
   -2.0514    5.4020    0.0000 C   0  0  0  0  0  0  0  0  0  0  0  0
    0.0111    4.6875    0.0000 C   0  0  0  0  0  0  0  0  0  0  0  0
   -0.6949    8.2129    0.0000 C   0  0  3  0  0  0  0  0  0  0  0  0
   -1.2264    3.9731    0.0000 C   0  0  0  0  0  0  0  0  0  0  0  0
   -2.4639    4.6875    0.0000 C   0  0  0  0  0  0  0  0  0  0  0  0
   -2.0514    3.9731    0.0000 C   0  0  0  0  0  0  0  0  0  0  0  0
    0.0196    7.8004    0.0000 C   0  0  0  0  0  0  0  0  0  0  0  0
    0.0196    9.4504    0.0000 C   0  0  3  0  0  0  0  0  0  0  0  0
    1.2486    3.9731    0.0000 C   0  0  0  0  0  0  0  0  0  0  0  0
    0.7340    8.2129    0.0000 C   0  0  0  0  0  0  0  0  0  0  0  0
    1.6611    3.2586    0.0000 C   0  0  0  0  0  0  0  0  0  0  0  0
    0.0196   10.2754    0.0000 C   0  0  0  0  0  0  0  0  0  0  0  0
    1.2486    2.5441    0.0000 C   0  0  0  0  0  0  0  0  0  0  0  0
    2.4861    3.2586    0.0000 C   0  0  0  0  0  0  0  0  0  0  0  0
    1.4485    9.4504    0.0000 C   0  0  0  0  0  0  0  0  0  0  0  0
    0.7340   10.6879    0.0000 C   0  0  0  0  0  0  0  0  0  0  0  0
    1.4485    7.8004    0.0000 C   0  0  0  0  0  0  0  0  0  0  0  0
    1.4485   10.2754    0.0000 C   0  0  0  0  0  0  0  0  0  0  0  0
    1.6611    1.8296    0.0000 C   0  0  0  0  0  0  0  0  0  0  0  0
    2.8986    2.5441    0.0000 C   0  0  0  0  0  0  0  0  0  0  0  0
    2.4861    1.8296    0.0000 C   0  0  0  0  0  0  0  0  0  0  0  0
    2.1630    8.2129    0.0000 C   0  0  0  0  0  0  0  0  0  0  0  0
    2.8774    7.8004    0.0000 C   0  0  0  0  0  0  0  0  0  0  0  0
 10  1  1  6  0  0  0
  1 18  1  0  0  0  0
  2 18  2  0  0  0  0
 28  3  1  1  0  0  0
  3 33  1  0  0  0  0
  4 27  1  0  0  0  0
  4 34  1  0  0  0  0
  5 27  2  0  0  0  0
  6 33  1  0  0  0  0
  6 40  1  0  0  0  0
  7  8  1  0  0  0  0
  7  9  1  0  0  0  0
  7 14  1  6  0  0  0
  8 13  1  6  0  0  0
  8 15  1  0  0  0  0
  9 10  1  0  0  0  0
  9 17  1  1  0  0  0
 10 13  1  0  0  0  0
 11 12  2  0  0  0  0
 11 15  1  0  0  0  0
 11 16  1  0  0  0  0
 12 14  1  0  0  0  0
 12 19  1  0  0  0  0
 16 21  2  0  0  0  0
 16 25  1  0  0  0  0
 17 24  1  0  0  0  0
 20 18  1  1  0  0  0
 19 22  2  0  0  0  0
 20 23  1  0  0  0  0
 20 26  1  0  0  0  0
 21 22  1  0  0  0  0
 23 27  1  1  0  0  0
 23 29  1  0  0  0  0
 24 28  1  0  0  0  0
 26 30  1  0  0  0  0
 28 32  1  0  0  0  0
 29 31  1  0  0  0  0
 30 31  1  0  0  0  0
 32 35  1  0  0  0  0
 33 37  1  0  0  0  0
 34 36  1  0  0  0  0
 35 42  1  0  0  0  0
 36 38  2  0  0  0  0
 36 39  1  0  0  0  0
 37 41  1  0  0  0  0
 38 44  1  0  0  0  0
 39 45  2  0  0  0  0
 40 43  1  0  0  0  0
 41 43  1  0  0  0  0
 42 47  1  0  0  0  0
 44 46  2  0  0  0  0
 45 46  1  0  0  0  0
 47 48  1  0  0  0  0
M  END
> <PUBCHEM_COMPOUND_ID_TYPE>
0

> <PUBCHEM_TOTAL_CHARGE>
0

> <PUBCHEM_SUBSTANCE_ID>
310939529

> <PUBCHEM_SUBSTANCE_VERSION>
1

> <PUBCHEM_EXT_DATASOURCE_NAME>
4488

> <PUBCHEM_EXT_DATASOURCE_REGID>
SCHEMBL16117458

> <PUBCHEM_SUBSTANCE_COMMENT>
InChI=1S/C42H58O6/c1-3-4-6-18-33(47-40-21-11-12-24-45-40)22-23-34-38-25-31-17-13-14-29(2)37(31)26-32(38)27-39(34)48-42(44)36-20-10-9-19-35(36)41(43)46-28-30-15-7-5-8-16-30/h5,7-8,13-17,32-36,38-40H,3-4,6,9-12,18-28H2,1-2H3/t32-,33-,34+,35-,36+,38-,39+,40?/m0/s1
InChIKey=YKABJSDVZPQQBN-MXDYOFDISA-N

> <PUBCHEM_SUBSTANCE_SYNONYM>
SCHEMBL16117458

> <PUBCHEM_XREF_EXT_ID>
SCHEMBL16117458

> <PUBCHEM_EXT_DATASOURCE_URL>
https://www.surechembl.org/

> <PUBCHEM_EXT_SUBSTANCE_URL>
https://www.surechembl.org/chemical/SCHEMBL16117458

> <PUBCHEM_CID_ASSOCIATIONS>
117606826  1

> <PUBCHEM_COORDINATE_TYPE>
1
3

> <PUBCHEM_BONDANNOTATIONS>
10  1  6
20  18  5
23  27  5
28  3  5
7  14  6
8  13  6
9  17  5

$$$$
