310931679
  -OEChem-07211613022D

 28 30  0     1  0  0  0  0  0999 V2000
    7.1500   -3.3121    0.0000 F   0  0  0  0  0  0  0  0  0  0  0  0
    0.0000   -3.3384    0.0000 F   0  0  0  0  0  0  0  0  0  0  0  0
    0.7097   -4.5739    0.0000 F   0  0  0  0  0  0  0  0  0  0  0  0
    0.0000   -4.1533    0.0000 F   0  0  0  0  0  0  0  0  0  0  0  0
    5.7568   -3.3121    0.0000 O   0  0  0  0  0  0  0  0  0  0  0  0
    2.1555   -3.7327    0.0000 O   0  0  0  0  0  0  0  0  0  0  0  0
    5.0207   -2.0766    0.0000 N   0  0  0  0  0  0  0  0  0  0  0  0
    5.7568   -0.8412    0.0000 N   0  0  0  0  0  0  0  0  0  0  0  0
    4.3110    0.0000    0.0000 N   0  0  0  0  0  0  0  0  0  0  0  0
    6.4665   -2.0766    0.0000 C   0  0  0  0  0  0  0  0  0  0  0  0
    5.7568   -2.4972    0.0000 C   0  0  0  0  0  0  0  0  0  0  0  0
    5.0207   -1.2618    0.0000 C   0  0  0  0  0  0  0  0  0  0  0  0
    6.4665   -1.2618    0.0000 C   0  0  0  0  0  0  0  0  0  0  0  0
    4.3110   -2.4972    0.0000 C   0  0  0  0  0  0  0  0  0  0  0  0
    7.1762   -2.4972    0.0000 C   0  0  0  0  0  0  0  0  0  0  0  0
    4.3110   -0.8412    0.0000 C   0  0  3  0  0  0  0  0  0  0  0  0
    7.1762   -0.8412    0.0000 C   0  0  0  0  0  0  0  0  0  0  0  0
    4.3110   -3.3384    0.0000 C   0  0  0  0  0  0  0  0  0  0  0  0
    3.7590   -2.2607    0.0000 C   0  0  0  0  0  0  0  0  0  0  0  0
    7.8860   -2.0766    0.0000 C   0  0  0  0  0  0  0  0  0  0  0  0
    7.8860   -1.2618    0.0000 C   0  0  0  0  0  0  0  0  0  0  0  0
    2.8652   -3.3384    0.0000 C   0  0  0  0  0  0  0  0  0  0  0  0
    3.6012   -3.7327    0.0000 C   0  0  0  0  0  0  0  0  0  0  0  0
    2.8652   -2.4972    0.0000 C   0  0  0  0  0  0  0  0  0  0  0  0
    3.5750   -1.2618    0.0000 C   0  0  0  0  0  0  0  0  0  0  0  0
    1.4458   -3.3384    0.0000 C   0  0  0  0  0  0  0  0  0  0  0  0
    0.7097   -3.7327    0.0000 C   0  0  0  0  0  0  0  0  0  0  0  0
    3.5750   -2.0766    0.0000 C   0  0  0  0  0  0  0  0  0  0  0  0
  1 15  1  0  0  0  0
  2 27  1  0  0  0  0
  3 27  1  0  0  0  0
  4 27  1  0  0  0  0
  5 11  2  0  0  0  0
  6 22  1  0  0  0  0
  6 26  1  0  0  0  0
  7 11  1  0  0  0  0
  7 12  1  0  0  0  0
  7 14  1  0  0  0  0
  8 12  2  0  0  0  0
  8 13  1  0  0  0  0
 16  9  1  6  0  0  0
 10 11  1  0  0  0  0
 10 13  2  0  0  0  0
 10 15  1  0  0  0  0
 12 16  1  0  0  0  0
 13 17  1  0  0  0  0
 14 18  2  0  0  0  0
 14 19  1  0  0  0  0
 15 20  2  0  0  0  0
 16 25  1  0  0  0  0
 17 21  2  0  0  0  0
 18 23  1  0  0  0  0
 19 24  2  0  0  0  0
 20 21  1  0  0  0  0
 22 23  2  0  0  0  0
 22 24  1  0  0  0  0
 25 28  1  0  0  0  0
 26 27  1  0  0  0  0
M  END
> <PUBCHEM_COMPOUND_ID_TYPE>
0

> <PUBCHEM_TOTAL_CHARGE>
0

> <PUBCHEM_SUBSTANCE_ID>
310931679

> <PUBCHEM_SUBSTANCE_VERSION>
1

> <PUBCHEM_EXT_DATASOURCE_NAME>
4488

> <PUBCHEM_EXT_DATASOURCE_REGID>
SCHEMBL16109005

> <PUBCHEM_SUBSTANCE_COMMENT>
InChI=1S/C19H17F4N3O2/c1-2-14(24)17-25-15-5-3-4-13(20)16(15)18(27)26(17)11-6-8-12(9-7-11)28-10-19(21,22)23/h3-9,14H,2,10,24H2,1H3/t14-/m0/s1
InChIKey=NRNHEOHQVGTMEO-AWEZNQCLSA-N

> <PUBCHEM_SUBSTANCE_SYNONYM>
SCHEMBL16109005

> <PUBCHEM_XREF_EXT_ID>
SCHEMBL16109005

> <PUBCHEM_EXT_DATASOURCE_URL>
https://www.surechembl.org/

> <PUBCHEM_EXT_SUBSTANCE_URL>
https://www.surechembl.org/chemical/SCHEMBL16109005

> <PUBCHEM_CID_ASSOCIATIONS>
117600385  1

> <PUBCHEM_COORDINATE_TYPE>
1
3

> <PUBCHEM_BONDANNOTATIONS>
16  9  6

$$$$
