310941528
  -OEChem-07211613022D

 24 27  0     0  0  0  0  0  0999 V2000
   -3.7883    0.6448    0.0000 Br  0  0  0  0  0  0  0  0  0  0  0  0
   -1.2090   -3.0482    0.0000 O   0  0  0  0  0  0  0  0  0  0  0  0
   -0.7400    1.1578    0.0000 O   0  0  0  0  0  0  0  0  0  0  0  0
   -0.0953   -1.7147    0.0000 N   0  0  0  0  0  0  0  0  0  0  0  0
   -2.5720   -2.5207    0.0000 N   0  0  0  0  0  0  0  0  0  0  0  0
   -1.2090    0.1173    0.0000 N   0  0  0  0  0  0  0  0  0  0  0  0
   -1.5901   -1.6267    0.0000 C   0  0  0  0  0  0  0  0  0  0  0  0
   -0.8280   -1.2897    0.0000 C   0  0  0  0  0  0  0  0  0  0  0  0
   -2.3081   -1.2164    0.0000 C   0  0  0  0  0  0  0  0  0  0  0  0
   -0.6521   -0.4836    0.0000 C   0  0  0  0  0  0  0  0  0  0  0  0
    0.1685   -0.4103    0.0000 C   0  0  0  0  0  0  0  0  0  0  0  0
   -1.7806   -2.4181    0.0000 C   0  0  0  0  0  0  0  0  0  0  0  0
   -2.9237   -1.7586    0.0000 C   0  0  0  0  0  0  0  0  0  0  0  0
    0.5055   -1.1431    0.0000 C   0  0  0  0  0  0  0  0  0  0  0  0
   -2.4841   -0.4250    0.0000 C   0  0  0  0  0  0  0  0  0  0  0  0
   -3.7150   -1.5095    0.0000 C   0  0  0  0  0  0  0  0  0  0  0  0
    0.6668    0.2491    0.0000 C   0  0  0  0  0  0  0  0  0  0  0  0
    1.3409   -1.2310    0.0000 C   0  0  0  0  0  0  0  0  0  0  0  0
   -3.2754   -0.1319    0.0000 C   0  0  0  0  0  0  0  0  0  0  0  0
   -3.8762   -0.7034    0.0000 C   0  0  0  0  0  0  0  0  0  0  0  0
    1.4875    0.1759    0.0000 C   0  0  0  0  0  0  0  0  0  0  0  0
    1.8246   -0.5715    0.0000 C   0  0  0  0  0  0  0  0  0  0  0  0
    0.0660    1.3190    0.0000 C   0  0  0  0  0  0  0  0  0  0  0  0
    0.3298    2.1103    0.0000 C   0  0  0  0  0  0  0  0  0  0  0  0
  1 19  1  0  0  0  0
  2 12  2  0  0  0  0
  3  6  1  0  0  0  0
  3 23  1  0  0  0  0
  4  8  1  0  0  0  0
  4 14  1  0  0  0  0
  5 12  1  0  0  0  0
  5 13  1  0  0  0  0
  6 10  2  0  0  0  0
  7  8  2  0  0  0  0
  7  9  1  0  0  0  0
  7 12  1  0  0  0  0
  8 10  1  0  0  0  0
  9 13  2  0  0  0  0
  9 15  1  0  0  0  0
 10 11  1  0  0  0  0
 11 14  2  0  0  0  0
 11 17  1  0  0  0  0
 13 16  1  0  0  0  0
 14 18  1  0  0  0  0
 15 19  2  0  0  0  0
 16 20  2  0  0  0  0
 17 21  2  0  0  0  0
 18 22  2  0  0  0  0
 19 20  1  0  0  0  0
 21 22  1  0  0  0  0
 23 24  1  0  0  0  0
M  END
> <PUBCHEM_COMPOUND_ID_TYPE>
0

> <PUBCHEM_TOTAL_CHARGE>
0

> <PUBCHEM_SUBSTANCE_ID>
310941528

> <PUBCHEM_SUBSTANCE_VERSION>
1

> <PUBCHEM_EXT_DATASOURCE_NAME>
4488

> <PUBCHEM_EXT_DATASOURCE_REGID>
SCHEMBL16119559

> <PUBCHEM_SUBSTANCE_COMMENT>
InChI=1S/C18H14BrN3O2/c1-2-24-22-16-11-5-3-4-6-13(11)20-17(16)15-12-9-10(19)7-8-14(12)21-18(15)23/h3-9,20H,2H2,1H3,(H,21,23)/b17-15-,22-16+
InChIKey=IENDSWFCQOQWEM-HPBPSMLHSA-N

> <PUBCHEM_SUBSTANCE_SYNONYM>
SCHEMBL16119559

> <PUBCHEM_XREF_EXT_ID>
SCHEMBL16119559

> <PUBCHEM_EXT_DATASOURCE_URL>
https://www.surechembl.org/

> <PUBCHEM_EXT_SUBSTANCE_URL>
https://www.surechembl.org/chemical/SCHEMBL16119559

> <PUBCHEM_CID_ASSOCIATIONS>
117608338  1

> <PUBCHEM_COORDINATE_TYPE>
1
3

$$$$
