310946997
  -OEChem-07211613022D

 41 46  0     0  0  0  0  0  0999 V2000
   -2.7979   -0.9130    0.0000 F   0  0  0  0  0  0  0  0  0  0  0  0
    2.7344    1.4854    0.0000 O   0  0  0  0  0  0  0  0  0  0  0  0
    4.9413    3.3970    0.0000 O   0  0  0  0  0  0  0  0  0  0  0  0
   -4.2268   -1.7380    0.0000 O   0  0  0  0  0  0  0  0  0  0  0  0
   -2.7979   -4.2130    0.0000 O   0  0  0  0  0  0  0  0  0  0  0  0
    3.9719    2.1999    0.0000 N   0  0  0  0  0  0  0  0  0  0  0  0
    1.7583   -1.7380    0.0000 N   0  0  0  0  0  0  0  0  0  0  0  0
    0.3294   -1.7380    0.0000 N   0  0  0  0  0  0  0  0  0  0  0  0
   -1.3689   -1.7380    0.0000 N   0  0  0  0  0  0  0  0  0  0  0  0
    1.7583   -3.3880    0.0000 N   0  0  0  0  0  0  0  0  0  0  0  0
    3.9719   -0.6580    0.0000 N   0  0  0  0  0  0  0  0  0  0  0  0
    4.4568   -1.3255    0.0000 N   0  0  0  0  0  0  0  0  0  0  0  0
    3.5594    3.4694    0.0000 C   0  0  0  0  0  0  0  0  0  0  0  0
    2.8919    2.9845    0.0000 C   0  0  0  0  0  0  0  0  0  0  0  0
    3.1469    2.1999    0.0000 C   0  0  0  0  0  0  0  0  0  0  0  0
    4.2268    2.9845    0.0000 C   0  0  0  0  0  0  0  0  0  0  0  0
    1.0438   -2.1505    0.0000 C   0  0  0  0  0  0  0  0  0  0  0  0
    2.4728   -2.1505    0.0000 C   0  0  0  0  0  0  0  0  0  0  0  0
    1.0438   -2.9755    0.0000 C   0  0  0  0  0  0  0  0  0  0  0  0
    3.1872   -1.7380    0.0000 C   0  0  0  0  0  0  0  0  0  0  0  0
    3.4731    4.2899    0.0000 C   0  0  0  0  0  0  0  0  0  0  0  0
    2.1382    3.3200    0.0000 C   0  0  0  0  0  0  0  0  0  0  0  0
   -0.3851   -2.1505    0.0000 C   0  0  0  0  0  0  0  0  0  0  0  0
    4.3844    1.4854    0.0000 C   0  0  0  0  0  0  0  0  0  0  0  0
   -2.0834   -2.1505    0.0000 C   0  0  0  0  0  0  0  0  0  0  0  0
   -2.7979   -1.7380    0.0000 C   0  0  0  0  0  0  0  0  0  0  0  0
    2.4728   -2.9755    0.0000 C   0  0  0  0  0  0  0  0  0  0  0  0
    0.3294   -3.3880    0.0000 C   0  0  0  0  0  0  0  0  0  0  0  0
    3.1872   -0.9130    0.0000 C   0  0  0  0  0  0  0  0  0  0  0  0
   -0.3851   -2.9755    0.0000 C   0  0  0  0  0  0  0  0  0  0  0  0
   -3.5123   -2.1505    0.0000 C   0  0  0  0  0  0  0  0  0  0  0  0
    2.7195    4.6255    0.0000 C   0  0  0  0  0  0  0  0  0  0  0  0
    2.0520    4.1405    0.0000 C   0  0  0  0  0  0  0  0  0  0  0  0
    3.9719   -1.9929    0.0000 C   0  0  0  0  0  0  0  0  0  0  0  0
   -2.0834   -2.9755    0.0000 C   0  0  0  0  0  0  0  0  0  0  0  0
    3.9719    0.7709    0.0000 C   0  0  0  0  0  0  0  0  0  0  0  0
   -2.7979   -3.3880    0.0000 C   0  0  0  0  0  0  0  0  0  0  0  0
    4.3844    0.0565    0.0000 C   0  0  0  0  0  0  0  0  0  0  0  0
   -3.5123   -2.9755    0.0000 C   0  0  0  0  0  0  0  0  0  0  0  0
   -4.9413   -2.1505    0.0000 C   0  0  0  0  0  0  0  0  0  0  0  0
   -2.0834   -4.6255    0.0000 C   0  0  0  0  0  0  0  0  0  0  0  0
  1 26  1  0  0  0  0
  2 15  2  0  0  0  0
  3 16  2  0  0  0  0
  4 31  1  0  0  0  0
  4 40  1  0  0  0  0
  5 37  1  0  0  0  0
  5 41  1  0  0  0  0
  6 15  1  0  0  0  0
  6 16  1  0  0  0  0
  6 24  1  0  0  0  0
  7 17  1  0  0  0  0
  7 18  2  0  0  0  0
  8 17  2  0  0  0  0
  8 23  1  0  0  0  0
  9 23  1  0  0  0  0
  9 25  1  0  0  0  0
 10 19  1  0  0  0  0
 10 27  2  0  0  0  0
 11 12  1  0  0  0  0
 11 29  1  0  0  0  0
 11 38  1  0  0  0  0
 12 34  2  0  0  0  0
 13 14  2  0  0  0  0
 13 16  1  0  0  0  0
 13 21  1  0  0  0  0
 14 15  1  0  0  0  0
 14 22  1  0  0  0  0
 17 19  1  0  0  0  0
 18 20  1  0  0  0  0
 18 27  1  0  0  0  0
 19 28  2  0  0  0  0
 20 29  2  0  0  0  0
 20 34  1  0  0  0  0
 21 32  2  0  0  0  0
 22 33  2  0  0  0  0
 23 30  2  0  0  0  0
 24 36  1  0  0  0  0
 25 26  2  0  0  0  0
 25 35  1  0  0  0  0
 26 31  1  0  0  0  0
 28 30  1  0  0  0  0
 31 39  2  0  0  0  0
 32 33  1  0  0  0  0
 35 37  2  0  0  0  0
 36 38  1  0  0  0  0
 37 39  1  0  0  0  0
M  END
> <PUBCHEM_COMPOUND_ID_TYPE>
0

> <PUBCHEM_TOTAL_CHARGE>
0

> <PUBCHEM_SUBSTANCE_ID>
310946997

> <PUBCHEM_SUBSTANCE_VERSION>
1

> <PUBCHEM_EXT_DATASOURCE_NAME>
4488

> <PUBCHEM_EXT_DATASOURCE_REGID>
SCHEMBL16125149

> <PUBCHEM_SUBSTANCE_COMMENT>
InChI=1S/C29H24FN7O4/c1-40-18-12-22(26(30)24(13-18)41-2)33-25-9-8-21-27(35-25)34-23(15-31-21)17-14-32-36(16-17)10-5-11-37-28(38)19-6-3-4-7-20(19)29(37)39/h3-4,6-9,12-16H,5,10-11H2,1-2H3,(H,33,34,35)
InChIKey=MYRAYLAJDBZGBI-UHFFFAOYSA-N

> <PUBCHEM_SUBSTANCE_SYNONYM>
SCHEMBL16125149

> <PUBCHEM_XREF_EXT_ID>
SCHEMBL16125149

> <PUBCHEM_EXT_DATASOURCE_URL>
https://www.surechembl.org/

> <PUBCHEM_EXT_SUBSTANCE_URL>
https://www.surechembl.org/chemical/SCHEMBL16125149

> <PUBCHEM_CID_ASSOCIATIONS>
117612851  1

> <PUBCHEM_COORDINATE_TYPE>
1
3

$$$$
