310941700
  -OEChem-07211613022D

 37 41  0     0  0  0  0  0  0999 V2000
   -2.4905    1.1285    0.0000 S   0  0  0  0  0  0  0  0  0  0  0  0
    1.8056    0.0701    0.0000 O   0  0  0  0  0  0  0  0  0  0  0  0
    0.3580    1.7355    0.0000 O   0  0  0  0  0  0  0  0  0  0  0  0
   -1.0896   -2.4516    0.0000 O   0  0  0  0  0  0  0  0  0  0  0  0
    3.2687   -0.7860    0.0000 N   0  0  0  0  0  0  0  0  0  0  0  0
    1.0740   -1.2063    0.0000 N   0  0  0  0  0  0  0  0  0  0  0  0
    4.7163    0.0544    0.0000 N   0  0  0  0  0  0  0  0  0  0  0  0
   -1.0896    1.7200    0.0000 N   0  0  0  0  0  0  0  0  0  0  0  0
   -3.1753    2.2803    0.0000 N   0  0  0  0  0  0  0  0  0  0  0  0
   -2.3660    2.4516    0.0000 N   0  0  0  0  0  0  0  0  0  0  0  0
    2.5371   -1.1908    0.0000 C   0  0  0  0  0  0  0  0  0  0  0  0
    2.1325   -1.9068    0.0000 C   0  0  0  0  0  0  0  0  0  0  0  0
    2.9419   -1.9068    0.0000 C   0  0  0  0  0  0  0  0  0  0  0  0
    1.7900   -0.7705    0.0000 C   0  0  0  0  0  0  0  0  0  0  0  0
    4.0159   -1.1752    0.0000 C   0  0  0  0  0  0  0  0  0  0  0  0
    3.2843    0.0856    0.0000 C   0  0  0  0  0  0  0  0  0  0  0  0
    0.3424   -0.7549    0.0000 C   0  0  0  0  0  0  0  0  0  0  0  0
   -0.3580   -1.1597    0.0000 C   0  0  0  0  0  0  0  0  0  0  0  0
    0.3580    0.0856    0.0000 C   0  0  0  0  0  0  0  0  0  0  0  0
   -0.3735    0.5059    0.0000 C   0  0  0  0  0  0  0  0  0  0  0  0
    4.7163   -0.7705    0.0000 C   0  0  0  0  0  0  0  0  0  0  0  0
    3.9692    0.4903    0.0000 C   0  0  0  0  0  0  0  0  0  0  0  0
   -0.3892    1.3153    0.0000 C   0  0  0  0  0  0  0  0  0  0  0  0
   -1.0740   -0.7705    0.0000 C   0  0  0  0  0  0  0  0  0  0  0  0
   -3.2843    1.4710    0.0000 C   0  0  0  0  0  0  0  0  0  0  0  0
   -1.0740    0.0856    0.0000 C   0  0  0  0  0  0  0  0  0  0  0  0
   -1.9457    1.7667    0.0000 C   0  0  0  0  0  0  0  0  0  0  0  0
   -4.0003    1.0507    0.0000 C   0  0  0  0  0  0  0  0  0  0  0  0
   -0.3735   -2.0313    0.0000 C   0  0  0  0  0  0  0  0  0  0  0  0
   -4.7163    1.4553    0.0000 C   0  0  0  0  0  0  0  0  0  0  0  0
   -4.0003    0.2257    0.0000 C   0  0  0  0  0  0  0  0  0  0  0  0
    5.4323    0.4903    0.0000 C   0  0  0  0  0  0  0  0  0  0  0  0
   -5.4323    1.0507    0.0000 C   0  0  0  0  0  0  0  0  0  0  0  0
   -4.6852   -0.1790    0.0000 C   0  0  0  0  0  0  0  0  0  0  0  0
   -5.4323    0.2101    0.0000 C   0  0  0  0  0  0  0  0  0  0  0  0
   -4.7163    2.2959    0.0000 C   0  0  0  0  0  0  0  0  0  0  0  0
   -1.8212   -2.0313    0.0000 C   0  0  0  0  0  0  0  0  0  0  0  0
  1 25  1  0  0  0  0
  1 27  1  0  0  0  0
  2 14  2  0  0  0  0
  3 23  2  0  0  0  0
  4 29  1  0  0  0  0
  4 37  1  0  0  0  0
  5 11  1  0  0  0  0
  5 15  1  0  0  0  0
  5 16  1  0  0  0  0
  6 14  1  0  0  0  0
  6 17  1  0  0  0  0
  7 21  1  0  0  0  0
  7 22  1  0  0  0  0
  7 32  1  0  0  0  0
  8 23  1  0  0  0  0
  8 27  1  0  0  0  0
  9 10  1  0  0  0  0
  9 25  2  0  0  0  0
 10 27  2  0  0  0  0
 11 12  1  0  0  0  0
 11 13  1  0  0  0  0
 11 14  1  0  0  0  0
 12 13  1  0  0  0  0
 15 21  1  0  0  0  0
 16 22  1  0  0  0  0
 17 18  1  0  0  0  0
 17 19  2  0  0  0  0
 18 24  2  0  0  0  0
 18 29  1  0  0  0  0
 19 20  1  0  0  0  0
 20 23  1  0  0  0  0
 20 26  2  0  0  0  0
 24 26  1  0  0  0  0
 25 28  1  0  0  0  0
 28 30  1  0  0  0  0
 28 31  2  0  0  0  0
 30 33  2  0  0  0  0
 30 36  1  0  0  0  0
 31 34  1  0  0  0  0
 33 35  1  0  0  0  0
 34 35  2  0  0  0  0
M  END
> <PUBCHEM_COMPOUND_ID_TYPE>
0

> <PUBCHEM_TOTAL_CHARGE>
0

> <PUBCHEM_SUBSTANCE_ID>
310941700

> <PUBCHEM_SUBSTANCE_VERSION>
1

> <PUBCHEM_EXT_DATASOURCE_NAME>
4488

> <PUBCHEM_EXT_DATASOURCE_REGID>
SCHEMBL16119731

> <PUBCHEM_SUBSTANCE_COMMENT>
InChI=1S/C27H32N6O3S/c1-18-6-4-5-7-21(18)24-30-31-26(37-24)29-23(34)19-8-9-20(17-36-3)22(16-19)28-25(35)27(10-11-27)33-14-12-32(2)13-15-33/h4-9,16H,10-15,17H2,1-3H3,(H,28,35)(H,29,31,34)
InChIKey=BWPANBDMTCMGJL-UHFFFAOYSA-N

> <PUBCHEM_SUBSTANCE_SYNONYM>
SCHEMBL16119731

> <PUBCHEM_XREF_EXT_ID>
SCHEMBL16119731

> <PUBCHEM_EXT_DATASOURCE_URL>
https://www.surechembl.org/

> <PUBCHEM_EXT_SUBSTANCE_URL>
https://www.surechembl.org/chemical/SCHEMBL16119731

> <PUBCHEM_CID_ASSOCIATIONS>
117608473  1

> <PUBCHEM_COORDINATE_TYPE>
1
3

$$$$
