310944931
  -OEChem-07211613022D

 24 27  0     1  0  0  0  0  0999 V2000
   -3.8822    0.2905    0.0000 O   0  0  0  0  0  0  0  0  0  0  0  0
   -3.8080    1.6629    0.0000 O   0  0  0  0  0  0  0  0  0  0  0  0
   -0.4698   -1.3661    0.0000 O   0  0  0  0  0  0  0  0  0  0  0  0
    0.9767   -0.5378    0.0000 N   0  0  3  0  0  0  0  0  0  0  0  0
    3.4742   -0.2287    0.0000 N   0  0  0  0  0  0  0  0  0  0  0  0
   -2.6088   -0.1174    0.0000 C   0  0  0  0  0  0  0  0  0  0  0  0
   -2.5964    0.6986    0.0000 C   0  0  0  0  0  0  0  0  0  0  0  0
   -1.8916   -0.5255    0.0000 C   0  0  0  0  0  0  0  0  0  0  0  0
   -1.1869   -0.1174    0.0000 C   0  0  0  0  0  0  0  0  0  0  0  0
    2.2254   -0.9458    0.0000 C   0  0  3  0  0  0  0  0  0  0  0  0
   -3.3752    0.9458    0.0000 C   0  0  0  0  0  0  0  0  0  0  0  0
   -0.4451   -0.5378    0.0000 C   0  0  3  0  0  0  0  0  0  0  0  0
   -1.8793    1.1065    0.0000 C   0  0  0  0  0  0  0  0  0  0  0  0
   -3.3752   -0.3771    0.0000 C   0  0  0  0  0  0  0  0  0  0  0  0
   -1.1745    0.6986    0.0000 C   0  0  0  0  0  0  0  0  0  0  0  0
    1.7680   -0.2905    0.0000 C   0  0  0  0  0  0  0  0  0  0  0  0
    0.2472   -0.1298    0.0000 C   0  0  0  0  0  0  0  0  0  0  0  0
    1.7557   -1.6135    0.0000 C   0  0  0  0  0  0  0  0  0  0  0  0
    0.9644   -1.3538    0.0000 C   0  0  0  0  0  0  0  0  0  0  0  0
    2.6582   -0.2411    0.0000 C   0  0  0  0  0  0  0  0  0  0  0  0
    2.6458   -1.6629    0.0000 C   0  0  0  0  0  0  0  0  0  0  0  0
   -1.8793   -1.3538    0.0000 C   0  0  0  0  0  0  0  0  0  0  0  0
    3.4742   -1.6629    0.0000 C   0  0  0  0  0  0  0  0  0  0  0  0
    3.8822   -0.9335    0.0000 C   0  0  0  0  0  0  0  0  0  0  0  0
  1 11  1  0  0  0  0
  1 14  1  0  0  0  0
  2 11  2  0  0  0  0
 12  3  1  6  0  0  0
  4 16  1  0  0  0  0
  4 17  1  0  0  0  0
  4 19  1  0  0  0  0
  5 20  1  0  0  0  0
  5 24  1  0  0  0  0
  6  7  1  0  0  0  0
  6  8  2  0  0  0  0
  6 14  1  0  0  0  0
  7 11  1  0  0  0  0
  7 13  2  0  0  0  0
  8  9  1  0  0  0  0
  8 22  1  0  0  0  0
  9 12  1  0  0  0  0
  9 15  2  0  0  0  0
 10 16  1  0  0  0  0
 10 18  1  0  0  0  0
 10 20  1  0  0  0  0
 10 21  1  0  0  0  0
 12 17  1  0  0  0  0
 13 15  1  0  0  0  0
 18 19  1  0  0  0  0
 21 23  1  0  0  0  0
 23 24  1  0  0  0  0
M  END
> <PUBCHEM_COMPOUND_ID_TYPE>
0

> <PUBCHEM_TOTAL_CHARGE>
0

> <PUBCHEM_SUBSTANCE_ID>
310944931

> <PUBCHEM_SUBSTANCE_VERSION>
1

> <PUBCHEM_EXT_DATASOURCE_NAME>
4488

> <PUBCHEM_EXT_DATASOURCE_REGID>
SCHEMBL16123016

> <PUBCHEM_SUBSTANCE_COMMENT>
InChI=1S/C19H26N2O3/c1-13-14(3-4-15-16(13)10-24-18(15)23)17(22)9-21-8-6-19(12-21)5-2-7-20-11-19/h3-4,17,20,22H,2,5-12H2,1H3/t17-,19?/m0/s1
InChIKey=FVEBJKROMXBAAR-KKFHFHRHSA-N

> <PUBCHEM_SUBSTANCE_SYNONYM>
SCHEMBL16123016

> <PUBCHEM_XREF_EXT_ID>
SCHEMBL16123016

> <PUBCHEM_EXT_DATASOURCE_URL>
https://www.surechembl.org/

> <PUBCHEM_EXT_SUBSTANCE_URL>
https://www.surechembl.org/chemical/SCHEMBL16123016

> <PUBCHEM_CID_ASSOCIATIONS>
117611092  1

> <PUBCHEM_COORDINATE_TYPE>
1
3

> <PUBCHEM_BONDANNOTATIONS>
12  3  6

$$$$
