310934474
  -OEChem-07211613022D

 27 29  0     0  0  0  0  0  0999 V2000
    7.0456   -5.2776    0.0000 F   0  0  0  0  0  0  0  0  0  0  0  0
    7.0456   -3.8527    0.0000 F   0  0  0  0  0  0  0  0  0  0  0  0
    6.2276   -5.2776    0.0000 F   0  0  0  0  0  0  0  0  0  0  0  0
    1.5042    0.0000    0.0000 O   0  0  0  0  0  0  0  0  0  0  0  0
    0.0000   -0.6861    0.0000 O   0  0  0  0  0  0  0  0  0  0  0  0
    2.0847   -2.1110    0.0000 N   0  0  0  0  0  0  0  0  0  0  0  0
    2.8763   -2.3749    0.0000 N   0  0  0  0  0  0  0  0  0  0  0  0
    4.5916   -2.4277    0.0000 N   0  0  0  0  0  0  0  0  0  0  0  0
    5.4096   -3.8527    0.0000 N   0  0  0  0  0  0  0  0  0  0  0  0
    0.6861   -1.1611    0.0000 N   0  0  0  0  0  0  0  0  0  0  0  0
    2.0847   -1.2931    0.0000 C   0  0  0  0  0  0  0  0  0  0  0  0
    3.3513   -1.7153    0.0000 C   0  0  0  0  0  0  0  0  0  0  0  0
    2.8763   -1.0291    0.0000 C   0  0  0  0  0  0  0  0  0  0  0  0
    1.4250   -2.5860    0.0000 C   0  0  0  0  0  0  0  0  0  0  0  0
    1.4250   -0.8180    0.0000 C   0  0  0  0  0  0  0  0  0  0  0  0
    4.1693   -1.7153    0.0000 C   0  0  0  0  0  0  0  0  0  0  0  0
    1.5042   -3.4305    0.0000 C   0  0  0  0  0  0  0  0  0  0  0  0
    0.6861   -2.2694    0.0000 C   0  0  0  0  0  0  0  0  0  0  0  0
    4.1693   -3.1402    0.0000 C   0  0  0  0  0  0  0  0  0  0  0  0
    5.3832   -2.4277    0.0000 C   0  0  0  0  0  0  0  0  0  0  0  0
    5.8054   -3.1402    0.0000 C   0  0  0  0  0  0  0  0  0  0  0  0
    4.5652   -3.8527    0.0000 C   0  0  0  0  0  0  0  0  0  0  0  0
    5.8054   -4.5652    0.0000 C   0  0  0  0  0  0  0  0  0  0  0  0
    6.6499   -4.5652    0.0000 C   0  0  0  0  0  0  0  0  0  0  0  0
    0.8444   -3.9055    0.0000 C   0  0  0  0  0  0  0  0  0  0  0  0
    0.0000   -2.7444    0.0000 C   0  0  0  0  0  0  0  0  0  0  0  0
    0.0792   -3.5624    0.0000 C   0  0  0  0  0  0  0  0  0  0  0  0
  1 24  1  0  0  0  0
  2 24  1  0  0  0  0
  3 24  1  0  0  0  0
  4 15  2  0  0  0  0
  5 10  1  0  0  0  0
  6  7  1  0  0  0  0
  6 11  1  0  0  0  0
  6 14  1  0  0  0  0
  7 12  2  0  0  0  0
  8 16  1  0  0  0  0
  8 19  1  0  0  0  0
  8 20  1  0  0  0  0
  9 21  1  0  0  0  0
  9 22  1  0  0  0  0
  9 23  1  0  0  0  0
 10 15  1  0  0  0  0
 11 13  2  0  0  0  0
 11 15  1  0  0  0  0
 12 13  1  0  0  0  0
 12 16  1  0  0  0  0
 14 17  2  0  0  0  0
 14 18  1  0  0  0  0
 17 25  1  0  0  0  0
 18 26  2  0  0  0  0
 19 22  1  0  0  0  0
 20 21  1  0  0  0  0
 23 24  1  0  0  0  0
 25 27  2  0  0  0  0
 26 27  1  0  0  0  0
M  END
> <PUBCHEM_COMPOUND_ID_TYPE>
0

> <PUBCHEM_TOTAL_CHARGE>
0

> <PUBCHEM_SUBSTANCE_ID>
310934474

> <PUBCHEM_SUBSTANCE_VERSION>
1

> <PUBCHEM_EXT_DATASOURCE_NAME>
4488

> <PUBCHEM_EXT_DATASOURCE_REGID>
SCHEMBL16111954

> <PUBCHEM_SUBSTANCE_COMMENT>
InChI=1S/C17H20F3N5O2/c18-17(19,20)12-24-8-6-23(7-9-24)11-13-10-15(16(26)22-27)25(21-13)14-4-2-1-3-5-14/h1-5,10,27H,6-9,11-12H2,(H,22,26)
InChIKey=PKSBOVXCNKOLCB-UHFFFAOYSA-N

> <PUBCHEM_SUBSTANCE_SYNONYM>
SCHEMBL16111954

> <PUBCHEM_XREF_EXT_ID>
SCHEMBL16111954

> <PUBCHEM_EXT_DATASOURCE_URL>
https://www.surechembl.org/

> <PUBCHEM_EXT_SUBSTANCE_URL>
https://www.surechembl.org/chemical/SCHEMBL16111954

> <PUBCHEM_CID_ASSOCIATIONS>
86292240  1

> <PUBCHEM_COORDINATE_TYPE>
1
3

$$$$
