310933167
  -OEChem-07211613022D

 30 33  0     0  0  0  0  0  0999 V2000
   -0.7144   -1.2375    0.0000 F   0  0  0  0  0  0  0  0  0  0  0  0
    1.9432    2.9832    0.0000 O   0  0  0  0  0  0  0  0  0  0  0  0
   -1.4802    5.0731    0.0000 O   0  0  0  0  0  0  0  0  0  0  0  0
   -4.0056    3.5013    0.0000 O   0  0  0  0  0  0  0  0  0  0  0  0
    1.4681    0.9020    0.0000 N   0  0  0  0  0  0  0  0  0  0  0  0
    2.0202    1.5151    0.0000 N   0  0  0  0  0  0  0  0  0  0  0  0
    0.3591    3.4170    0.0000 N   0  0  0  0  0  0  0  0  0  0  0  0
   -2.4363    4.0111    0.0000 N   0  0  0  0  0  0  0  0  0  0  0  0
   -2.8579   -0.8250    0.0000 N   0  0  0  0  0  0  0  0  0  0  0  0
    0.8007    2.0580    0.0000 C   0  0  0  0  0  0  0  0  0  0  0  0
    0.7144    1.2375    0.0000 C   0  0  0  0  0  0  0  0  0  0  0  0
    0.0000    0.8250    0.0000 C   0  0  0  0  0  0  0  0  0  0  0  0
    0.1876    2.6100    0.0000 C   0  0  0  0  0  0  0  0  0  0  0  0
    1.6077    2.2295    0.0000 C   0  0  0  0  0  0  0  0  0  0  0  0
    0.0000    0.0000    0.0000 C   0  0  0  0  0  0  0  0  0  0  0  0
   -0.7144   -0.4125    0.0000 C   0  0  0  0  0  0  0  0  0  0  0  0
   -0.7144    1.2375    0.0000 C   0  0  0  0  0  0  0  0  0  0  0  0
   -1.4290    0.0000    0.0000 C   0  0  0  0  0  0  0  0  0  0  0  0
   -0.5970    2.3551    0.0000 C   0  0  0  0  0  0  0  0  0  0  0  0
   -1.0386    3.7141    0.0000 C   0  0  0  0  0  0  0  0  0  0  0  0
   -1.4290    0.8250    0.0000 C   0  0  0  0  0  0  0  0  0  0  0  0
   -0.2540    3.9690    0.0000 C   0  0  0  0  0  0  0  0  0  0  0  0
   -1.2101    2.9071    0.0000 C   0  0  0  0  0  0  0  0  0  0  0  0
   -1.6517    4.2661    0.0000 C   0  0  0  0  0  0  0  0  0  0  0  0
    0.7144   -0.4125    0.0000 C   0  0  0  0  0  0  0  0  0  0  0  0
   -2.1434   -0.4125    0.0000 C   0  0  0  0  0  0  0  0  0  0  0  0
   -2.6078    3.2042    0.0000 C   0  0  0  0  0  0  0  0  0  0  0  0
   -3.0494    4.5632    0.0000 C   0  0  0  0  0  0  0  0  0  0  0  0
   -3.3925    2.9493    0.0000 C   0  0  0  0  0  0  0  0  0  0  0  0
   -3.8340    4.3083    0.0000 C   0  0  0  0  0  0  0  0  0  0  0  0
  1 16  1  0  0  0  0
  2 14  1  0  0  0  0
  3 24  2  0  0  0  0
  4 29  1  0  0  0  0
  4 30  1  0  0  0  0
  5  6  1  0  0  0  0
  5 11  2  0  0  0  0
  6 14  1  0  0  0  0
  7 13  2  0  0  0  0
  7 22  1  0  0  0  0
  8 24  1  0  0  0  0
  8 27  1  0  0  0  0
  8 28  1  0  0  0  0
  9 26  3  0  0  0  0
 10 11  1  0  0  0  0
 10 13  1  0  0  0  0
 10 14  2  0  0  0  0
 11 12  1  0  0  0  0
 12 15  1  0  0  0  0
 12 17  2  0  0  0  0
 13 19  1  0  0  0  0
 15 16  2  0  0  0  0
 15 25  1  0  0  0  0
 16 18  1  0  0  0  0
 17 21  1  0  0  0  0
 18 21  2  0  0  0  0
 18 26  1  0  0  0  0
 19 23  2  0  0  0  0
 20 22  2  0  0  0  0
 20 23  1  0  0  0  0
 20 24  1  0  0  0  0
 27 29  1  0  0  0  0
 28 30  1  0  0  0  0
M  END
> <PUBCHEM_COMPOUND_ID_TYPE>
0

> <PUBCHEM_TOTAL_CHARGE>
0

> <PUBCHEM_SUBSTANCE_ID>
310933167

> <PUBCHEM_SUBSTANCE_VERSION>
1

> <PUBCHEM_EXT_DATASOURCE_NAME>
4488

> <PUBCHEM_EXT_DATASOURCE_REGID>
SCHEMBL16110576

> <PUBCHEM_SUBSTANCE_COMMENT>
InChI=1S/C21H18FN5O3/c1-12-15(4-2-13(10-23)18(12)22)19-17(20(28)26-25-19)16-5-3-14(11-24-16)21(29)27-6-8-30-9-7-27/h2-5,11H,6-9H2,1H3,(H2,25,26,28)
InChIKey=SLCQZLUXHAUXQO-UHFFFAOYSA-N

> <PUBCHEM_SUBSTANCE_SYNONYM>
SCHEMBL16110576

> <PUBCHEM_XREF_EXT_ID>
SCHEMBL16110576

> <PUBCHEM_EXT_DATASOURCE_URL>
https://www.surechembl.org/

> <PUBCHEM_EXT_SUBSTANCE_URL>
https://www.surechembl.org/chemical/SCHEMBL16110576

> <PUBCHEM_CID_ASSOCIATIONS>
117601615  1

> <PUBCHEM_COORDINATE_TYPE>
1
3

$$$$
