310942876
  -OEChem-07211613022D

 55 59  0     1  0  0  0  0  0999 V2000
   -5.8666    0.0879    0.0000 F   0  0  0  0  0  0  0  0  0  0  0  0
    1.0181   -1.0840    0.0000 F   0  0  0  0  0  0  0  0  0  0  0  0
   -5.5297   -3.2080    0.0000 F   0  0  0  0  0  0  0  0  0  0  0  0
   -3.2153   -1.8310    0.0000 O   0  0  0  0  0  0  0  0  0  0  0  0
   -2.3803   -3.2666    0.0000 O   0  0  0  0  0  0  0  0  0  0  0  0
    0.2124    1.2744    0.0000 O   0  0  0  0  0  0  0  0  0  0  0  0
    0.2124    2.7099    0.0000 O   0  0  0  0  0  0  0  0  0  0  0  0
    5.4125    2.7392    0.0000 O   0  0  0  0  0  0  0  0  0  0  0  0
    5.4125   -0.1904    0.0000 O   0  0  0  0  0  0  0  0  0  0  0  0
    3.1128    0.5420    0.0000 O   0  0  0  0  0  0  0  0  0  0  0  0
   -3.5815    0.4980    0.0000 N   0  0  0  0  0  0  0  0  0  0  0  0
   -1.8530   -0.8935    0.0000 N   0  0  0  0  0  0  0  0  0  0  0  0
   -3.5815   -0.8349    0.0000 N   0  0  0  0  0  0  0  0  0  0  0  0
   -0.0806   -2.9297    0.0000 N   0  0  0  0  0  0  0  0  0  0  0  0
    5.1782    1.2744    0.0000 N   0  0  0  0  0  0  0  0  0  0  0  0
    1.4575    1.9921    0.0000 N   0  0  0  0  0  0  0  0  0  0  0  0
   -2.2631   -0.1758    0.0000 C   0  0  3  0  0  0  0  0  0  0  0  0
   -3.0981   -0.1611    0.0000 C   0  0  0  0  0  0  0  0  0  0  0  0
   -1.8676    0.5713    0.0000 C   0  0  0  0  0  0  0  0  0  0  0  0
   -4.3725   -0.5713    0.0000 C   0  0  0  0  0  0  0  0  0  0  0  0
   -4.3579    0.2490    0.0000 C   0  0  0  0  0  0  0  0  0  0  0  0
   -5.0463   -1.0693    0.0000 C   0  0  0  0  0  0  0  0  0  0  0  0
   -2.3657   -1.8310    0.0000 C   0  0  0  0  0  0  0  0  0  0  0  0
   -0.7690   -0.8935    0.0000 C   0  0  0  0  0  0  0  0  0  0  0  0
   -3.3325    1.3037    0.0000 C   0  0  0  0  0  0  0  0  0  0  0  0
   -1.0327    0.5566    0.0000 C   0  0  0  0  0  0  0  0  0  0  0  0
   -5.7934   -0.7324    0.0000 C   0  0  0  0  0  0  0  0  0  0  0  0
   -0.3735   -1.5966    0.0000 C   0  0  3  0  0  0  0  0  0  0  0  0
   -2.5854    0.9521    0.0000 C   0  0  0  0  0  0  0  0  0  0  0  0
   -1.8676    1.3916    0.0000 C   0  0  0  0  0  0  0  0  0  0  0  0
   -4.9585   -1.8896    0.0000 C   0  0  0  0  0  0  0  0  0  0  0  0
   -1.9848   -2.5341    0.0000 C   0  0  3  0  0  0  0  0  0  0  0  0
   -3.9184    1.8896    0.0000 C   0  0  0  0  0  0  0  0  0  0  0  0
    0.4614   -1.6846    0.0000 C   0  0  3  0  0  0  0  0  0  0  0  0
   -5.6029   -2.3730    0.0000 C   0  0  0  0  0  0  0  0  0  0  0  0
   -6.4526   -1.2304    0.0000 C   0  0  0  0  0  0  0  0  0  0  0  0
   -0.6079    1.2744    0.0000 C   0  0  0  0  0  0  0  0  0  0  0  0
   -0.6958   -2.3730    0.0000 C   0  0  0  0  0  0  0  0  0  0  0  0
   -6.3646   -2.0507    0.0000 C   0  0  0  0  0  0  0  0  0  0  0  0
   -3.6987    2.6953    0.0000 C   0  0  0  0  0  0  0  0  0  0  0  0
   -4.7094    1.6846    0.0000 C   0  0  0  0  0  0  0  0  0  0  0  0
    0.6225   -2.4902    0.0000 C   0  0  0  0  0  0  0  0  0  0  0  0
   -1.1645   -2.5488    0.0000 C   0  0  0  0  0  0  0  0  0  0  0  0
   -4.2846    3.2666    0.0000 C   0  0  0  0  0  0  0  0  0  0  0  0
   -5.2807    2.2705    0.0000 C   0  0  0  0  0  0  0  0  0  0  0  0
   -5.0756    3.0615    0.0000 C   0  0  0  0  0  0  0  0  0  0  0  0
    0.6372    1.9921    0.0000 C   0  0  0  0  0  0  0  0  0  0  0  0
    5.6762    0.6445    0.0000 C   0  0  0  0  0  0  0  0  0  0  0  0
    5.6615    1.9335    0.0000 C   0  0  0  0  0  0  0  0  0  0  0  0
    6.4379    0.8496    0.0000 C   0  0  0  0  0  0  0  0  0  0  0  0
    6.4526    1.6846    0.0000 C   0  0  0  0  0  0  0  0  0  0  0  0
    4.3579    1.2744    0.0000 C   0  0  0  0  0  0  0  0  0  0  0  0
    1.8530    1.2891    0.0000 C   0  0  0  0  0  0  0  0  0  0  0  0
    3.9331    0.5566    0.0000 C   0  0  0  0  0  0  0  0  0  0  0  0
    2.7026    1.2744    0.0000 C   0  0  0  0  0  0  0  0  0  0  0  0
  1 27  1  0  0  0  0
 34  2  1  1  0  0  0
  3 35  1  0  0  0  0
  4 23  2  0  0  0  0
 32  5  1  6  0  0  0
  6 37  1  0  0  0  0
  6 47  1  0  0  0  0
  7 47  2  0  0  0  0
  8 49  2  0  0  0  0
  9 48  2  0  0  0  0
 10 54  1  0  0  0  0
 10 55  1  0  0  0  0
 11 18  1  0  0  0  0
 11 21  1  0  0  0  0
 11 25  1  0  0  0  0
 17 12  1  1  0  0  0
 12 23  1  0  0  0  0
 12 24  1  0  0  0  0
 13 18  2  0  0  0  0
 13 20  1  0  0  0  0
 14 38  1  0  0  0  0
 14 42  1  0  0  0  0
 15 48  1  0  0  0  0
 15 49  1  0  0  0  0
 15 52  1  0  0  0  0
 16 47  1  0  0  0  0
 16 53  1  0  0  0  0
 17 18  1  0  0  0  0
 17 19  1  0  0  0  0
 19 26  1  0  0  0  0
 19 29  1  0  0  0  0
 19 30  1  0  0  0  0
 20 21  2  0  0  0  0
 20 22  1  0  0  0  0
 22 27  2  0  0  0  0
 22 31  1  0  0  0  0
 23 32  1  0  0  0  0
 28 24  1  1  0  0  0
 25 33  1  0  0  0  0
 26 37  1  0  0  0  0
 27 36  1  0  0  0  0
 28 34  1  0  0  0  0
 28 38  1  0  0  0  0
 31 35  2  0  0  0  0
 32 43  1  0  0  0  0
 33 40  2  0  0  0  0
 33 41  1  0  0  0  0
 34 42  1  0  0  0  0
 35 39  1  0  0  0  0
 36 39  2  0  0  0  0
 40 44  1  0  0  0  0
 41 45  2  0  0  0  0
 44 46  2  0  0  0  0
 45 46  1  0  0  0  0
 48 50  1  0  0  0  0
 49 51  1  0  0  0  0
 50 51  2  0  0  0  0
 52 54  1  0  0  0  0
 53 55  1  0  0  0  0
M  END
> <PUBCHEM_COMPOUND_ID_TYPE>
0

> <PUBCHEM_TOTAL_CHARGE>
0

> <PUBCHEM_SUBSTANCE_ID>
310942876

> <PUBCHEM_SUBSTANCE_VERSION>
1

> <PUBCHEM_EXT_DATASOURCE_NAME>
4488

> <PUBCHEM_EXT_DATASOURCE_REGID>
SCHEMBL16120934

> <PUBCHEM_SUBSTANCE_COMMENT>
InChI=1S/C39H47F3N6O7/c1-25(49)37(52)48(23-27-20-43-21-31(27)42)35(39(2,3)13-16-55-38(53)44-14-17-54-18-15-47-33(50)11-12-34(47)51)36-45-32(29-19-28(40)9-10-30(29)41)24-46(36)22-26-7-5-4-6-8-26/h4-12,19,24-25,27,31,35,43,49H,13-18,20-23H2,1-3H3,(H,44,53)/t25-,27-,31-,35-/m0/s1
InChIKey=AWKWAKUSSURPTN-FGAJOIMPSA-N

> <PUBCHEM_SUBSTANCE_SYNONYM>
SCHEMBL16120934

> <PUBCHEM_XREF_EXT_ID>
SCHEMBL16120934

> <PUBCHEM_EXT_DATASOURCE_URL>
https://www.surechembl.org/

> <PUBCHEM_EXT_SUBSTANCE_URL>
https://www.surechembl.org/chemical/SCHEMBL16120934

> <PUBCHEM_CID_ASSOCIATIONS>
117609363  1

> <PUBCHEM_COORDINATE_TYPE>
1
3

> <PUBCHEM_BONDANNOTATIONS>
17  12  5
34  2  5
28  24  5
32  5  6

$$$$
