310933355
  -OEChem-07211613022D

 30 34  0     0  0  0  0  0  0999 V2000
    0.0000   -4.4275    0.0000 O   0  0  0  0  0  0  0  0  0  0  0  0
    5.5000   -3.3000    0.0000 O   0  0  0  0  0  0  0  0  0  0  0  0
    4.2075   -2.6400    0.0000 N   0  0  0  0  0  0  0  0  0  0  0  0
    4.2075   -3.9600    0.0000 N   0  0  0  0  0  0  0  0  0  0  0  0
    2.6675   -0.0275    0.0000 N   0  0  0  0  0  0  0  0  0  0  0  0
    0.3850   -5.1424    0.0000 N   0  0  0  0  0  0  0  0  0  0  0  0
    2.6950   -2.4750    0.0000 C   0  0  0  0  0  0  0  0  0  0  0  0
    2.6675   -1.6500    0.0000 C   0  0  0  0  0  0  0  0  0  0  0  0
    3.4100   -2.8600    0.0000 C   0  0  0  0  0  0  0  0  0  0  0  0
    3.4100   -3.7400    0.0000 C   0  0  0  0  0  0  0  0  0  0  0  0
    2.0075   -3.7400    0.0000 C   0  0  0  0  0  0  0  0  0  0  0  0
    3.3825   -1.2375    0.0000 C   0  0  0  0  0  0  0  0  0  0  0  0
    1.9525   -1.2650    0.0000 C   0  0  0  0  0  0  0  0  0  0  0  0
    2.0075   -2.8600    0.0000 C   0  0  0  0  0  0  0  0  0  0  0  0
    1.2925   -4.1249    0.0000 C   0  0  0  0  0  0  0  0  0  0  0  0
    2.6950   -4.1249    0.0000 C   0  0  0  0  0  0  0  0  0  0  0  0
    3.3825   -0.4125    0.0000 C   0  0  0  0  0  0  0  0  0  0  0  0
    1.9525   -0.4400    0.0000 C   0  0  0  0  0  0  0  0  0  0  0  0
    4.6750   -3.3000    0.0000 C   0  0  0  0  0  0  0  0  0  0  0  0
    0.5225   -3.8225    0.0000 C   0  0  0  0  0  0  0  0  0  0  0  0
    1.2100   -4.9499    0.0000 C   0  0  0  0  0  0  0  0  0  0  0  0
    4.0975   -1.6500    0.0000 C   0  0  0  0  0  0  0  0  0  0  0  0
    1.2375   -1.6775    0.0000 C   0  0  0  0  0  0  0  0  0  0  0  0
    4.0699    0.0000    0.0000 C   0  0  0  0  0  0  0  0  0  0  0  0
    4.7850   -1.2100    0.0000 C   0  0  0  0  0  0  0  0  0  0  0  0
    4.7850   -0.4125    0.0000 C   0  0  0  0  0  0  0  0  0  0  0  0
    1.2375   -0.0275    0.0000 C   0  0  0  0  0  0  0  0  0  0  0  0
    0.3575   -3.0250    0.0000 C   0  0  0  0  0  0  0  0  0  0  0  0
    1.8150   -5.5000    0.0000 C   0  0  0  0  0  0  0  0  0  0  0  0
    1.2650   -2.5025    0.0000 C   0  0  0  0  0  0  0  0  0  0  0  0
  1  6  1  0  0  0  0
  1 20  1  0  0  0  0
  2 19  2  0  0  0  0
  3  9  1  0  0  0  0
  3 19  1  0  0  0  0
  4 10  1  0  0  0  0
  4 19  1  0  0  0  0
  5 17  2  0  0  0  0
  5 18  1  0  0  0  0
  6 21  2  0  0  0  0
  7  8  1  0  0  0  0
  7  9  1  0  0  0  0
  7 14  2  0  0  0  0
  8 12  2  0  0  0  0
  8 13  1  0  0  0  0
  9 10  2  0  0  0  0
 10 16  1  0  0  0  0
 11 14  1  0  0  0  0
 11 15  1  0  0  0  0
 11 16  2  0  0  0  0
 12 17  1  0  0  0  0
 12 22  1  0  0  0  0
 13 18  2  0  0  0  0
 13 23  1  0  0  0  0
 15 20  2  0  0  0  0
 15 21  1  0  0  0  0
 17 24  1  0  0  0  0
 18 27  1  0  0  0  0
 20 28  1  0  0  0  0
 21 29  1  0  0  0  0
 22 25  2  0  0  0  0
 23 30  1  0  0  0  0
 24 26  2  0  0  0  0
 25 26  1  0  0  0  0
M  END
> <PUBCHEM_COMPOUND_ID_TYPE>
0

> <PUBCHEM_TOTAL_CHARGE>
0

> <PUBCHEM_SUBSTANCE_ID>
310933355

> <PUBCHEM_SUBSTANCE_VERSION>
1

> <PUBCHEM_EXT_DATASOURCE_NAME>
4488

> <PUBCHEM_EXT_DATASOURCE_REGID>
SCHEMBL16110768

> <PUBCHEM_SUBSTANCE_COMMENT>
InChI=1S/C24H22N4O2/c1-5-16-12(2)25-19-9-7-6-8-17(19)22(16)18-10-15(21-13(3)28-30-14(21)4)11-20-23(18)27-24(29)26-20/h6-11H,5H2,1-4H3,(H2,26,27,29)
InChIKey=QJFSUBRRHZIAAU-UHFFFAOYSA-N

> <PUBCHEM_SUBSTANCE_SYNONYM>
SCHEMBL16110768

> <PUBCHEM_XREF_EXT_ID>
SCHEMBL16110768

> <PUBCHEM_EXT_DATASOURCE_URL>
https://www.surechembl.org/

> <PUBCHEM_EXT_SUBSTANCE_URL>
https://www.surechembl.org/chemical/SCHEMBL16110768

> <PUBCHEM_CID_ASSOCIATIONS>
117601766  1

> <PUBCHEM_COORDINATE_TYPE>
1
3

$$$$
