310932436
  -OEChem-07211613022D

 21 24  0     0  0  0  0  0  0999 V2000
    2.6905   -3.8564    0.0000 I   0  0  0  0  0  0  0  0  0  0  0  0
    5.5379   -2.2197    0.0000 O   0  0  0  0  0  0  0  0  0  0  0  0
    0.4035   -0.3811    0.0000 O   0  0  0  0  0  0  0  0  0  0  0  0
    4.2151   -2.8698    0.0000 N   0  0  0  0  0  0  0  0  0  0  0  0
    4.2151   -1.5471    0.0000 N   0  0  0  0  0  0  0  0  0  0  0  0
    0.0000   -1.0986    0.0000 N   0  0  0  0  0  0  0  0  0  0  0  0
    3.4303   -2.6456    0.0000 C   0  0  0  0  0  0  0  0  0  0  0  0
    3.4303   -1.7936    0.0000 C   0  0  0  0  0  0  0  0  0  0  0  0
    4.4841   -3.6546    0.0000 C   0  0  0  0  0  0  0  0  0  0  0  0
    4.7084   -2.2197    0.0000 C   0  0  0  0  0  0  0  0  0  0  0  0
    2.6905   -3.0492    0.0000 C   0  0  0  0  0  0  0  0  0  0  0  0
    2.0178   -1.7936    0.0000 C   0  0  0  0  0  0  0  0  0  0  0  0
    2.6905   -1.3901    0.0000 C   0  0  0  0  0  0  0  0  0  0  0  0
    1.3004   -1.3677    0.0000 C   0  0  0  0  0  0  0  0  0  0  0  0
    2.0178   -2.6456    0.0000 C   0  0  0  0  0  0  0  0  0  0  0  0
    5.0671   -4.2151    0.0000 C   0  0  0  0  0  0  0  0  0  0  0  0
    4.3047   -4.4841    0.0000 C   0  0  0  0  0  0  0  0  0  0  0  0
    1.2107   -0.5605    0.0000 C   0  0  0  0  0  0  0  0  0  0  0  0
    0.5605   -1.7040    0.0000 C   0  0  0  0  0  0  0  0  0  0  0  0
    1.8160    0.0000    0.0000 C   0  0  0  0  0  0  0  0  0  0  0  0
    0.3811   -2.5111    0.0000 C   0  0  0  0  0  0  0  0  0  0  0  0
  1 11  1  0  0  0  0
  2 10  2  0  0  0  0
  3  6  1  0  0  0  0
  3 18  1  0  0  0  0
  4  7  1  0  0  0  0
  4  9  1  0  0  0  0
  4 10  1  0  0  0  0
  5  8  1  0  0  0  0
  5 10  1  0  0  0  0
  6 19  2  0  0  0  0
  7  8  2  0  0  0  0
  7 11  1  0  0  0  0
  8 13  1  0  0  0  0
  9 16  1  0  0  0  0
  9 17  1  0  0  0  0
 11 15  2  0  0  0  0
 12 13  2  0  0  0  0
 12 14  1  0  0  0  0
 12 15  1  0  0  0  0
 14 18  2  0  0  0  0
 14 19  1  0  0  0  0
 16 17  1  0  0  0  0
 18 20  1  0  0  0  0
 19 21  1  0  0  0  0
M  END
> <PUBCHEM_COMPOUND_ID_TYPE>
0

> <PUBCHEM_TOTAL_CHARGE>
0

> <PUBCHEM_SUBSTANCE_ID>
310932436

> <PUBCHEM_SUBSTANCE_VERSION>
1

> <PUBCHEM_EXT_DATASOURCE_NAME>
4488

> <PUBCHEM_EXT_DATASOURCE_REGID>
SCHEMBL16109804

> <PUBCHEM_SUBSTANCE_COMMENT>
InChI=1S/C15H14IN3O2/c1-7-13(8(2)21-18-7)9-5-11(16)14-12(6-9)17-15(20)19(14)10-3-4-10/h5-6,10H,3-4H2,1-2H3,(H,17,20)
InChIKey=IXSDJQKXEBJJMP-UHFFFAOYSA-N

> <PUBCHEM_SUBSTANCE_SYNONYM>
SCHEMBL16109804

> <PUBCHEM_XREF_EXT_ID>
SCHEMBL16109804

> <PUBCHEM_EXT_DATASOURCE_URL>
https://www.surechembl.org/

> <PUBCHEM_EXT_SUBSTANCE_URL>
https://www.surechembl.org/chemical/SCHEMBL16109804

> <PUBCHEM_CID_ASSOCIATIONS>
117600984  1

> <PUBCHEM_COORDINATE_TYPE>
1
3

$$$$
