310949301
  -OEChem-07211613022D

 18 19  0     0  0  0  0  0  0999 V2000
   -1.4627    0.9587    0.0000 F   0  0  0  0  0  0  0  0  0  0  0  0
   -1.8191    2.0280    0.0000 F   0  0  0  0  0  0  0  0  0  0  0  0
   -0.7498    2.3845    0.0000 F   0  0  0  0  0  0  0  0  0  0  0  0
   -1.0693   -0.7743    0.0000 F   0  0  0  0  0  0  0  0  0  0  0  0
    1.8191   -0.7621    0.0000 F   0  0  0  0  0  0  0  0  0  0  0  0
    0.3442   -0.7374    0.0000 C   0  0  0  0  0  0  0  0  0  0  0  0
    0.3564    0.0860    0.0000 C   0  0  0  0  0  0  0  0  0  0  0  0
   -0.3810    1.3029    0.0000 C   0  0  0  0  0  0  0  0  0  0  0  0
   -1.1062    1.6839    0.0000 C   0  0  0  0  0  0  0  0  0  0  0  0
   -0.3688    0.4794    0.0000 C   0  0  0  0  0  0  0  0  0  0  0  0
   -0.3688   -1.1553    0.0000 C   0  0  0  0  0  0  0  0  0  0  0  0
    1.0939   -1.1431    0.0000 C   0  0  0  0  0  0  0  0  0  0  0  0
    1.0939    0.5285    0.0000 C   0  0  0  0  0  0  0  0  0  0  0  0
    0.3564    1.7085    0.0000 C   0  0  0  0  0  0  0  0  0  0  0  0
    1.0693    1.3152    0.0000 C   0  0  0  0  0  0  0  0  0  0  0  0
   -0.3564   -1.9912    0.0000 C   0  0  0  0  0  0  0  0  0  0  0  0
    1.0816   -1.9666    0.0000 C   0  0  0  0  0  0  0  0  0  0  0  0
    0.3688   -2.3845    0.0000 C   0  0  0  0  0  0  0  0  0  0  0  0
  1  9  1  0  0  0  0
  2  9  1  0  0  0  0
  3  9  1  0  0  0  0
  4 11  1  0  0  0  0
  5 12  1  0  0  0  0
  6  7  1  0  0  0  0
  6 11  1  0  0  0  0
  6 12  2  0  0  0  0
  7 10  1  0  0  0  0
  7 13  2  0  0  0  0
  8  9  1  0  0  0  0
  8 10  2  0  0  0  0
  8 14  1  0  0  0  0
 11 16  2  0  0  0  0
 12 17  1  0  0  0  0
 13 15  1  0  0  0  0
 14 15  2  0  0  0  0
 16 18  1  0  0  0  0
 17 18  2  0  0  0  0
M  END
> <PUBCHEM_COMPOUND_ID_TYPE>
0

> <PUBCHEM_TOTAL_CHARGE>
0

> <PUBCHEM_SUBSTANCE_ID>
310949301

> <PUBCHEM_SUBSTANCE_VERSION>
1

> <PUBCHEM_EXT_DATASOURCE_NAME>
4488

> <PUBCHEM_EXT_DATASOURCE_REGID>
SCHEMBL16127491

> <PUBCHEM_SUBSTANCE_COMMENT>
InChI=1S/C13H7F5/c14-10-5-2-6-11(15)12(10)8-3-1-4-9(7-8)13(16,17)18/h1-7H
InChIKey=RIVBBLLMJXIBIM-UHFFFAOYSA-N

> <PUBCHEM_SUBSTANCE_SYNONYM>
SCHEMBL16127491

> <PUBCHEM_XREF_EXT_ID>
SCHEMBL16127491

> <PUBCHEM_EXT_DATASOURCE_URL>
https://www.surechembl.org/

> <PUBCHEM_EXT_SUBSTANCE_URL>
https://www.surechembl.org/chemical/SCHEMBL16127491

> <PUBCHEM_CID_ASSOCIATIONS>
117614785  1

> <PUBCHEM_COORDINATE_TYPE>
1
3

$$$$
