310938902
  -OEChem-07211613022D

 12 12  0     0  0  0  0  0  0999 V2000
   -0.5663    0.8826    0.0000 O   0  0  0  0  0  0  0  0  0  0  0  0
    0.2133   -0.5737    0.0000 N   0  0  0  0  0  0  0  0  0  0  0  0
   -1.3754   -0.5737    0.0000 C   0  0  0  0  0  0  0  0  0  0  0  0
   -0.5811   -0.1177    0.0000 C   0  0  0  0  0  0  0  0  0  0  0  0
   -1.6696   -0.1030    0.0000 C   0  0  0  0  0  0  0  0  0  0  0  0
   -2.0815   -0.8826    0.0000 C   0  0  0  0  0  0  0  0  0  0  0  0
   -2.6552   -0.1030    0.0000 C   0  0  0  0  0  0  0  0  0  0  0  0
   -2.9347   -0.5590    0.0000 C   0  0  0  0  0  0  0  0  0  0  0  0
    0.8458   -0.1912    0.0000 C   0  0  0  0  0  0  0  0  0  0  0  0
    1.5520   -0.6178    0.0000 C   0  0  0  0  0  0  0  0  0  0  0  0
    2.1991   -0.2648    0.0000 C   0  0  0  0  0  0  0  0  0  0  0  0
    2.9347    0.1912    0.0000 C   0  0  0  0  0  0  0  0  0  0  0  0
  1  4  2  0  0  0  0
  2  4  1  0  0  0  0
  2  9  1  0  0  0  0
  3  4  1  0  0  0  0
  3  5  1  0  0  0  0
  3  6  1  0  0  0  0
  5  7  2  0  0  0  0
  6  8  2  0  0  0  0
  7  8  1  0  0  0  0
  9 10  1  0  0  0  0
 10 11  1  0  0  0  0
 11 12  3  0  0  0  0
M  END
> <PUBCHEM_COMPOUND_ID_TYPE>
0

> <PUBCHEM_TOTAL_CHARGE>
0

> <PUBCHEM_SUBSTANCE_ID>
310938902

> <PUBCHEM_SUBSTANCE_VERSION>
1

> <PUBCHEM_EXT_DATASOURCE_NAME>
4488

> <PUBCHEM_EXT_DATASOURCE_REGID>
SCHEMBL16116821

> <PUBCHEM_SUBSTANCE_COMMENT>
InChI=1S/C10H11NO/c1-2-3-8-11-10(12)9-6-4-5-7-9/h1,4-7,9H,3,8H2,(H,11,12)
InChIKey=AEHMQNKFLKJWEG-UHFFFAOYSA-N

> <PUBCHEM_SUBSTANCE_SYNONYM>
SCHEMBL16116821

> <PUBCHEM_XREF_EXT_ID>
SCHEMBL16116821

> <PUBCHEM_EXT_DATASOURCE_URL>
https://www.surechembl.org/

> <PUBCHEM_EXT_SUBSTANCE_URL>
https://www.surechembl.org/chemical/SCHEMBL16116821

> <PUBCHEM_CID_ASSOCIATIONS>
117606299  1

> <PUBCHEM_COORDINATE_TYPE>
1
3

$$$$
