310944077
  -OEChem-07211613022D

 30 32  0     0  0  0  0  0  0999 V2000
    1.7998    4.4057    0.0000 Cl  0  0  0  0  0  0  0  0  0  0  0  0
    1.7998    2.7309    0.0000 Cl  0  0  0  0  0  0  0  0  0  0  0  0
   -1.4623    3.6808    0.0000 F   0  0  0  0  0  0  0  0  0  0  0  0
   -1.7998    4.7807    0.0000 F   0  0  0  0  0  0  0  0  0  0  0  0
   -0.6999    5.1056    0.0000 F   0  0  0  0  0  0  0  0  0  0  0  0
    0.3500    1.9060    0.0000 O   0  0  0  0  0  0  0  0  0  0  0  0
    0.3500   -4.2682    0.0000 O   0  0  0  0  0  0  0  0  0  0  0  0
   -0.3500   -1.0062    0.0000 N   0  0  0  0  0  0  0  0  0  0  0  0
   -0.3500   -3.0184    0.0000 N   0  0  0  0  0  0  0  0  0  0  0  0
   -0.3500    0.6562    0.0000 N   0  0  0  0  0  0  0  0  0  0  0  0
   -1.0749    2.7435    0.0000 N   0  0  0  0  0  0  0  0  0  0  0  0
   -0.3624    3.9933    0.0000 C   0  0  0  0  0  0  0  0  0  0  0  0
   -0.3624    3.1684    0.0000 C   0  0  0  0  0  0  0  0  0  0  0  0
   -0.3624   -1.8560    0.0000 C   0  0  0  0  0  0  0  0  0  0  0  0
   -1.0874    4.4057    0.0000 C   0  0  0  0  0  0  0  0  0  0  0  0
    0.3500    4.3933    0.0000 C   0  0  0  0  0  0  0  0  0  0  0  0
    1.0749    3.9933    0.0000 C   0  0  0  0  0  0  0  0  0  0  0  0
    0.2250   -2.4309    0.0000 C   0  0  0  0  0  0  0  0  0  0  0  0
   -0.9374   -2.4309    0.0000 C   0  0  0  0  0  0  0  0  0  0  0  0
    1.0624    3.1684    0.0000 C   0  0  0  0  0  0  0  0  0  0  0  0
    0.3624    2.7435    0.0000 C   0  0  0  0  0  0  0  0  0  0  0  0
   -0.3750    1.4936    0.0000 C   0  0  0  0  0  0  0  0  0  0  0  0
    0.3500   -0.5937    0.0000 C   0  0  0  0  0  0  0  0  0  0  0  0
   -1.0874   -0.5937    0.0000 C   0  0  0  0  0  0  0  0  0  0  0  0
   -0.3874   -3.8433    0.0000 C   0  0  0  0  0  0  0  0  0  0  0  0
    0.3624    0.2437    0.0000 C   0  0  0  0  0  0  0  0  0  0  0  0
   -1.0749    0.2437    0.0000 C   0  0  0  0  0  0  0  0  0  0  0  0
   -1.0749    1.9060    0.0000 C   0  0  0  0  0  0  0  0  0  0  0  0
   -1.0749   -4.2682    0.0000 C   0  0  0  0  0  0  0  0  0  0  0  0
   -1.0249   -5.1056    0.0000 C   0  0  0  0  0  0  0  0  0  0  0  0
  1 17  1  0  0  0  0
  2 20  1  0  0  0  0
  3 15  1  0  0  0  0
  4 15  1  0  0  0  0
  5 15  1  0  0  0  0
  6 22  2  0  0  0  0
  7 25  2  0  0  0  0
  8 14  1  0  0  0  0
  8 23  1  0  0  0  0
  8 24  1  0  0  0  0
  9 18  1  0  0  0  0
  9 19  1  0  0  0  0
  9 25  1  0  0  0  0
 10 22  1  0  0  0  0
 10 26  1  0  0  0  0
 10 27  1  0  0  0  0
 11 13  1  0  0  0  0
 11 28  1  0  0  0  0
 12 13  1  0  0  0  0
 12 15  1  0  0  0  0
 12 16  2  0  0  0  0
 13 21  2  0  0  0  0
 14 18  1  0  0  0  0
 14 19  1  0  0  0  0
 16 17  1  0  0  0  0
 17 20  2  0  0  0  0
 20 21  1  0  0  0  0
 22 28  1  0  0  0  0
 23 26  1  0  0  0  0
 24 27  1  0  0  0  0
 25 29  1  0  0  0  0
 29 30  2  0  0  0  0
M  END
> <PUBCHEM_COMPOUND_ID_TYPE>
0

> <PUBCHEM_TOTAL_CHARGE>
0

> <PUBCHEM_SUBSTANCE_ID>
310944077

> <PUBCHEM_SUBSTANCE_VERSION>
1

> <PUBCHEM_EXT_DATASOURCE_NAME>
4488

> <PUBCHEM_EXT_DATASOURCE_REGID>
SCHEMBL16122152

> <PUBCHEM_SUBSTANCE_COMMENT>
InChI=1S/C19H21Cl2F3N4O2/c1-2-17(29)28-10-12(11-28)26-3-5-27(6-4-26)18(30)9-25-16-8-15(21)14(20)7-13(16)19(22,23)24/h2,7-8,12,25H,1,3-6,9-11H2
InChIKey=RXKOXBXVXVEOGG-UHFFFAOYSA-N

> <PUBCHEM_SUBSTANCE_SYNONYM>
SCHEMBL16122152

> <PUBCHEM_XREF_EXT_ID>
SCHEMBL16122152

> <PUBCHEM_EXT_DATASOURCE_URL>
https://www.surechembl.org/

> <PUBCHEM_EXT_SUBSTANCE_URL>
https://www.surechembl.org/chemical/SCHEMBL16122152

> <PUBCHEM_CID_ASSOCIATIONS>
86279817  1

> <PUBCHEM_COORDINATE_TYPE>
1
3

$$$$
