310947805
  -OEChem-07211613022D

 25 26  0     1  0  0  0  0  0999 V2000
    3.1078   -1.5913    0.0000 S   0  0  0  0  0  0  0  0  0  0  0  0
    2.2715   -1.5913    0.0000 O   0  0  0  0  0  0  0  0  0  0  0  0
   -1.7474    1.2170    0.0000 O   0  0  0  0  0  0  0  0  0  0  0  0
    0.0000   -1.5913    0.0000 O   0  0  0  0  0  0  0  0  0  0  0  0
   -0.3121    2.0407    0.0000 O   0  0  0  0  0  0  0  0  0  0  0  0
    3.5197   -2.3028    0.0000 O   0  0  0  0  0  0  0  0  0  0  0  0
    3.5197   -0.8675    0.0000 O   0  0  0  0  0  0  0  0  0  0  0  0
    3.9316   -1.5913    0.0000 O   0  0  0  0  0  0  0  0  0  0  0  0
    0.4369   -0.0312    0.0000 N   0  0  0  0  0  0  0  0  0  0  0  0
    1.8722   -0.8675    0.0000 N   0  0  0  0  0  0  0  0  0  0  0  0
   -1.0110    0.8050    0.0000 N   0  0  0  0  0  0  0  0  0  0  0  0
   -3.6694    2.3028    0.0000 N   0  0  0  0  0  0  0  0  0  0  0  0
   -3.8442    0.4306    0.0000 N   0  0  0  0  0  0  0  0  0  0  0  0
    0.4369    0.8050    0.0000 C   0  0  3  0  0  0  0  0  0  0  0  0
    0.4369   -0.8300    0.0000 C   0  0  0  0  0  0  0  0  0  0  0  0
   -0.3370    1.2045    0.0000 C   0  0  0  0  0  0  0  0  0  0  0  0
   -3.2576    1.0297    0.0000 C   0  0  3  0  0  0  0  0  0  0  0  0
    1.1483   -0.4431    0.0000 C   0  0  0  0  0  0  0  0  0  0  0  0
    1.1483    1.2170    0.0000 C   0  0  0  0  0  0  0  0  0  0  0  0
   -2.4463    0.8050    0.0000 C   0  0  0  0  0  0  0  0  0  0  0  0
    1.8597   -0.0437    0.0000 C   0  0  0  0  0  0  0  0  0  0  0  0
    1.8722    0.7926    0.0000 C   0  0  0  0  0  0  0  0  0  0  0  0
   -3.9316    1.5040    0.0000 C   0  0  0  0  0  0  0  0  0  0  0  0
   -2.5961    1.5040    0.0000 C   0  0  0  0  0  0  0  0  0  0  0  0
   -2.8457    2.2903    0.0000 C   0  0  0  0  0  0  0  0  0  0  0  0
  1  2  1  0  0  0  0
  1  6  2  0  0  0  0
  1  7  2  0  0  0  0
  1  8  1  0  0  0  0
  2 10  1  0  0  0  0
  3 11  1  0  0  0  0
  3 20  1  0  0  0  0
  4 15  2  0  0  0  0
  5 16  2  0  0  0  0
  9 14  1  0  0  0  0
  9 15  1  0  0  0  0
  9 18  1  0  0  0  0
 10 15  1  0  0  0  0
 11 16  1  0  0  0  0
 12 23  1  0  0  0  0
 12 25  1  0  0  0  0
 13 17  1  0  0  0  0
 14 16  1  6  0  0  0
 14 19  1  0  0  0  0
 17 20  1  0  0  0  0
 17 23  1  0  0  0  0
 17 24  1  0  0  0  0
 18 21  1  0  0  0  0
 19 22  1  0  0  0  0
 21 22  1  0  0  0  0
 24 25  1  0  0  0  0
M  END
> <PUBCHEM_COMPOUND_ID_TYPE>
0

> <PUBCHEM_TOTAL_CHARGE>
0

> <PUBCHEM_SUBSTANCE_ID>
310947805

> <PUBCHEM_SUBSTANCE_VERSION>
1

> <PUBCHEM_EXT_DATASOURCE_NAME>
4488

> <PUBCHEM_EXT_DATASOURCE_REGID>
SCHEMBL16125977

> <PUBCHEM_SUBSTANCE_COMMENT>
InChI=1S/C12H23N5O7S/c13-12(4-5-14-7-12)8-23-15-10(18)9-3-1-2-6-17(9)11(19)16-24-25(20,21)22/h9,14H,1-8,13H2,(H,15,18)(H,16,19)(H,20,21,22)/t9-,12?/m0/s1
InChIKey=BOXBWOPJEUXJQJ-QHGLUPRGSA-N

> <PUBCHEM_SUBSTANCE_SYNONYM>
SCHEMBL16125977

> <PUBCHEM_XREF_EXT_ID>
SCHEMBL16125977

> <PUBCHEM_EXT_DATASOURCE_URL>
https://www.surechembl.org/

> <PUBCHEM_EXT_SUBSTANCE_URL>
https://www.surechembl.org/chemical/SCHEMBL16125977

> <PUBCHEM_CID_ASSOCIATIONS>
117613474  1

> <PUBCHEM_COORDINATE_TYPE>
1
3

> <PUBCHEM_BONDANNOTATIONS>
14  16  6

$$$$
