310931697
  -OEChem-07211613022D

 37 41  0     1  0  0  0  0  0999 V2000
    1.7309    1.9520    0.0000 Br  0  0  0  0  0  0  0  0  0  0  0  0
    0.8643    2.7317    0.0000 F   0  0  0  0  0  0  0  0  0  0  0  0
    3.5337    3.7522    0.0000 F   0  0  0  0  0  0  0  0  0  0  0  0
    2.9445    5.2935    0.0000 F   0  0  0  0  0  0  0  0  0  0  0  0
    0.2751    4.2730    0.0000 F   0  0  0  0  0  0  0  0  0  0  0  0
    1.3152    5.5538    0.0000 F   0  0  0  0  0  0  0  0  0  0  0  0
    2.5559    0.5230    0.0000 O   0  0  0  0  0  0  0  0  0  0  0  0
    2.8579   -1.6500    0.0000 O   0  0  0  0  0  0  0  0  0  0  0  0
    3.3083    2.3412    0.0000 N   0  3  3  0  0  0  0  0  0  0  0  0
    0.0000    0.0000    0.0000 N   0  0  0  0  0  0  0  0  0  0  0  0
    2.8579    1.6500    0.0000 C   0  0  3  0  0  0  0  0  0  0  0  0
    2.1434    1.2375    0.0000 C   0  0  3  0  0  0  0  0  0  0  0  0
    4.0694    2.3754    0.0000 C   0  0  3  0  0  0  0  0  0  0  0  0
    3.0731    3.2232    0.0000 C   0  0  0  0  0  0  0  0  0  0  0  0
    1.4289    0.8250    0.0000 C   0  0  0  0  0  0  0  0  0  0  0  0
    2.4936    2.4714    0.0000 C   0  0  0  0  0  0  0  0  0  0  0  0
    3.6349    1.6919    0.0000 C   0  0  0  0  0  0  0  0  0  0  0  0
    4.3162    2.0544    0.0000 C   0  0  0  0  0  0  0  0  0  0  0  0
    3.8360    3.2213    0.0000 C   0  0  3  0  0  0  0  0  0  0  0  0
    2.1990    3.2420    0.0000 C   0  0  0  0  0  0  0  0  0  0  0  0
    4.9509    2.2099    0.0000 C   0  0  0  0  0  0  0  0  0  0  0  0
    1.4289    0.0000    0.0000 C   0  0  0  0  0  0  0  0  0  0  0  0
    1.3843    3.3722    0.0000 C   0  0  0  0  0  0  0  0  0  0  0  0
    2.7191    3.8824    0.0000 C   0  0  0  0  0  0  0  0  0  0  0  0
    0.7145   -0.4125    0.0000 C   0  0  0  0  0  0  0  0  0  0  0  0
    0.7145    1.2375    0.0000 C   0  0  0  0  0  0  0  0  0  0  0  0
    2.4245    4.6530    0.0000 C   0  0  0  0  0  0  0  0  0  0  0  0
    1.0897    4.1428    0.0000 C   0  0  0  0  0  0  0  0  0  0  0  0
    1.6098    4.7832    0.0000 C   0  0  0  0  0  0  0  0  0  0  0  0
    4.3367    3.8770    0.0000 C   0  0  0  0  0  0  0  0  0  0  0  0
    2.1434   -0.4125    0.0000 C   0  0  0  0  0  0  0  0  0  0  0  0
    0.0000    0.8250    0.0000 C   0  0  0  0  0  0  0  0  0  0  0  0
    2.1434   -1.2375    0.0000 C   0  0  0  0  0  0  0  0  0  0  0  0
    0.7145   -1.2375    0.0000 C   0  0  0  0  0  0  0  0  0  0  0  0
    1.4289   -1.6500    0.0000 C   0  0  0  0  0  0  0  0  0  0  0  0
    5.1549    3.7713    0.0000 C   0  0  0  0  0  0  0  0  0  0  0  0
    2.8579   -2.4750    0.0000 C   0  0  0  0  0  0  0  0  0  0  0  0
  1 12  1  0  0  0  0
  2 23  1  0  0  0  0
  3 24  1  0  0  0  0
  4 27  1  0  0  0  0
  5 28  1  0  0  0  0
  6 29  1  0  0  0  0
  7 12  1  0  0  0  0
  8 33  1  0  0  0  0
  8 37  1  0  0  0  0
  9 11  1  0  0  0  0
  9 14  1  0  0  0  0
  9 16  1  0  0  0  0
  9 18  1  0  0  0  0
 10 25  1  0  0  0  0
 10 32  2  0  0  0  0
 11 12  1  1  0  0  0
 11 17  1  0  0  0  0
 12 15  1  0  0  0  0
 13 17  1  1  0  0  0
 13 19  1  0  0  0  0
 13 21  1  0  0  0  0
 14 19  1  0  0  0  0
 15 22  1  0  0  0  0
 15 26  2  0  0  0  0
 16 20  1  0  0  0  0
 18 21  1  0  0  0  0
 19 30  1  6  0  0  0
 20 23  2  0  0  0  0
 20 24  1  0  0  0  0
 22 25  1  0  0  0  0
 22 31  2  0  0  0  0
 23 28  1  0  0  0  0
 24 27  2  0  0  0  0
 25 34  2  0  0  0  0
 26 32  1  0  0  0  0
 27 29  1  0  0  0  0
 28 29  2  0  0  0  0
 30 36  2  0  0  0  0
 31 33  1  0  0  0  0
 33 35  2  0  0  0  0
 34 35  1  0  0  0  0
M  CHG  1   9   1
M  END
> <PUBCHEM_COMPOUND_ID_TYPE>
0

> <PUBCHEM_TOTAL_CHARGE>
1

> <PUBCHEM_SUBSTANCE_ID>
310931697

> <PUBCHEM_SUBSTANCE_VERSION>
1

> <PUBCHEM_EXT_DATASOURCE_NAME>
4488

> <PUBCHEM_EXT_DATASOURCE_REGID>
SCHEMBL16109024

> <PUBCHEM_SUBSTANCE_COMMENT>
InChI=1S/C27H25BrF5N2O2/c1-3-14-12-35(13-18-22(29)24(31)26(33)25(32)23(18)30)9-7-15(14)10-21(35)27(28,36)19-6-8-34-20-5-4-16(37-2)11-17(19)20/h3-6,8,11,14-15,21,36H,1,7,9-10,12-13H2,2H3/q+1/t14-,15-,21-,27?,35?/m0/s1
InChIKey=WHORWRFJNNIFBT-FHCPPTAISA-N

> <PUBCHEM_SUBSTANCE_SYNONYM>
SCHEMBL16109024

> <PUBCHEM_XREF_EXT_ID>
SCHEMBL16109024

> <PUBCHEM_EXT_DATASOURCE_URL>
https://www.surechembl.org/

> <PUBCHEM_EXT_SUBSTANCE_URL>
https://www.surechembl.org/chemical/SCHEMBL16109024

> <PUBCHEM_CID_ASSOCIATIONS>
117600399  1

> <PUBCHEM_COORDINATE_TYPE>
1
3

> <PUBCHEM_BONDANNOTATIONS>
11  12  5
13  17  5
19  30  6

$$$$
