310939175
  -OEChem-07211613022D

 20 21  0     1  0  0  0  0  0999 V2000
    0.7145    1.8562    0.0000 Cl  0  0  0  0  0  0  0  0  0  0  0  0
   -0.7145   -0.6188    0.0000 F   0  0  0  0  0  0  0  0  0  0  0  0
    0.7145    0.2062    0.0000 O   0  0  0  0  0  0  0  0  0  0  0  0
   -2.8579    0.6187    0.0000 N   0  0  0  0  0  0  0  0  0  0  0  0
    0.0000    0.6187    0.0000 C   0  0  0  0  0  0  0  0  0  0  0  0
   -0.7145    0.2062    0.0000 C   0  0  0  0  0  0  0  0  0  0  0  0
   -1.4289    0.6187    0.0000 C   0  0  0  0  0  0  0  0  0  0  0  0
    0.0000    1.4437    0.0000 C   0  0  0  0  0  0  0  0  0  0  0  0
   -1.4289    1.4437    0.0000 C   0  0  0  0  0  0  0  0  0  0  0  0
   -2.1434    0.2062    0.0000 C   0  0  3  0  0  0  0  0  0  0  0  0
   -0.7145    1.8563    0.0000 C   0  0  0  0  0  0  0  0  0  0  0  0
    1.4289    0.6187    0.0000 C   0  0  0  0  0  0  0  0  0  0  0  0
   -2.1434   -0.6188    0.0000 C   0  0  0  0  0  0  0  0  0  0  0  0
    2.1434    0.2062    0.0000 C   0  0  0  0  0  0  0  0  0  0  0  0
    1.4289    1.4438    0.0000 C   0  0  0  0  0  0  0  0  0  0  0  0
    2.8579    0.6187    0.0000 C   0  0  0  0  0  0  0  0  0  0  0  0
    2.1434    1.8563    0.0000 C   0  0  0  0  0  0  0  0  0  0  0  0
    2.8579    1.4438    0.0000 C   0  0  0  0  0  0  0  0  0  0  0  0
   -2.8579   -1.0313    0.0000 C   0  0  0  0  0  0  0  0  0  0  0  0
   -2.8579   -1.8563    0.0000 C   0  0  0  0  0  0  0  0  0  0  0  0
  1  8  1  0  0  0  0
  2  6  1  0  0  0  0
  3  5  1  0  0  0  0
  3 12  1  0  0  0  0
 10  4  1  1  0  0  0
  5  6  1  0  0  0  0
  5  8  2  0  0  0  0
  6  7  2  0  0  0  0
  7  9  1  0  0  0  0
  7 10  1  0  0  0  0
  8 11  1  0  0  0  0
  9 11  2  0  0  0  0
 10 13  1  0  0  0  0
 12 14  2  0  0  0  0
 12 15  1  0  0  0  0
 13 19  1  0  0  0  0
 14 16  1  0  0  0  0
 15 17  2  0  0  0  0
 16 18  2  0  0  0  0
 17 18  1  0  0  0  0
 19 20  1  0  0  0  0
M  END
> <PUBCHEM_COMPOUND_ID_TYPE>
0

> <PUBCHEM_TOTAL_CHARGE>
0

> <PUBCHEM_SUBSTANCE_ID>
310939175

> <PUBCHEM_SUBSTANCE_VERSION>
1

> <PUBCHEM_EXT_DATASOURCE_NAME>
4488

> <PUBCHEM_EXT_DATASOURCE_REGID>
SCHEMBL16117096

> <PUBCHEM_SUBSTANCE_COMMENT>
InChI=1S/C16H17ClFNO/c1-2-6-14(19)12-9-10-13(17)16(15(12)18)20-11-7-4-3-5-8-11/h3-5,7-10,14H,2,6,19H2,1H3/t14-/m1/s1
InChIKey=HZKCGUUHIMAQJY-CQSZACIVSA-N

> <PUBCHEM_SUBSTANCE_SYNONYM>
SCHEMBL16117096

> <PUBCHEM_XREF_EXT_ID>
SCHEMBL16117096

> <PUBCHEM_EXT_DATASOURCE_URL>
https://www.surechembl.org/

> <PUBCHEM_EXT_SUBSTANCE_URL>
https://www.surechembl.org/chemical/SCHEMBL16117096

> <PUBCHEM_CID_ASSOCIATIONS>
117606525  1

> <PUBCHEM_COORDINATE_TYPE>
1
3

> <PUBCHEM_BONDANNOTATIONS>
10  4  5

$$$$
