310928752
  -OEChem-07211613022D

 14 14  0     0  0  0  0  0  0999 V2000
    2.1434    0.8803    0.0000 Cl  0  0  0  0  0  0  0  0  0  0  0  0
    1.4289    0.4678    0.0000 S   0  0  0  0  0  0  0  0  0  0  0  0
    1.4289   -1.1822    0.0000 O   0  0  0  0  0  0  0  0  0  0  0  0
    1.8414   -0.2467    0.0000 O   0  0  0  0  0  0  0  0  0  0  0  0
    1.0164    1.1822    0.0000 O   0  0  0  0  0  0  0  0  0  0  0  0
    0.7145    0.0553    0.0000 C   0  0  0  0  0  0  0  0  0  0  0  0
    0.7145   -0.7697    0.0000 C   0  0  0  0  0  0  0  0  0  0  0  0
    0.0000    0.4678    0.0000 C   0  0  0  0  0  0  0  0  0  0  0  0
   -0.7145    0.0553    0.0000 C   0  0  0  0  0  0  0  0  0  0  0  0
    0.0000   -1.1822    0.0000 C   0  0  0  0  0  0  0  0  0  0  0  0
   -0.7145   -0.7697    0.0000 C   0  0  0  0  0  0  0  0  0  0  0  0
   -1.4289    0.4678    0.0000 C   0  0  0  0  0  0  0  0  0  0  0  0
    2.1434   -0.7697    0.0000 C   0  0  0  0  0  0  0  0  0  0  0  0
   -2.1434    0.0553    0.0000 C   0  0  0  0  0  0  0  0  0  0  0  0
  1  2  1  0  0  0  0
  2  4  2  0  0  0  0
  2  5  2  0  0  0  0
  2  6  1  0  0  0  0
  3  7  1  0  0  0  0
  3 13  1  0  0  0  0
  6  7  1  0  0  0  0
  6  8  2  0  0  0  0
  7 10  2  0  0  0  0
  8  9  1  0  0  0  0
  9 11  2  0  0  0  0
  9 12  1  0  0  0  0
 10 11  1  0  0  0  0
 12 14  1  0  0  0  0
M  END
> <PUBCHEM_COMPOUND_ID_TYPE>
0

> <PUBCHEM_TOTAL_CHARGE>
0

> <PUBCHEM_SUBSTANCE_ID>
310928752

> <PUBCHEM_SUBSTANCE_VERSION>
1

> <PUBCHEM_EXT_DATASOURCE_NAME>
11752

> <PUBCHEM_EXT_DATASOURCE_REGID>
BD29806

> <PUBCHEM_SUBSTANCE_SYNONYM>
5-Ethyl-2-methoxybenzene-1-sulfonyl chloride
88040-88-4

> <PUBCHEM_GENERIC_REGISTRY_NAME>
88040-88-4

> <PUBCHEM_XREF_EXT_ID>
BD29806

> <PUBCHEM_EXT_DATASOURCE_URL>
http://www.bidepharmatech.com/en/index.html

> <PUBCHEM_EXT_SUBSTANCE_URL>
http://www.bidepharmatech.com/en/goodsview_goodscode_BD29806.html

> <PUBCHEM_CID_ASSOCIATIONS>
2758862  1

> <PUBCHEM_COORDINATE_TYPE>
1
3

$$$$
