310942464
  -OEChem-07211613022D

 32 35  0     0  0  0  0  0  0999 V2000
   -1.4393   -1.1691    0.0000 O   0  0  0  0  0  0  0  0  0  0  0  0
   -2.8828    1.3019    0.0000 N   0  0  0  0  0  0  0  0  0  0  0  0
    0.0044   -0.3454    0.0000 N   0  0  0  0  0  0  0  0  0  0  0  0
    1.4481   -0.3454    0.0000 N   0  0  0  0  0  0  0  0  0  0  0  0
    0.7307    0.8857    0.0000 N   0  0  0  0  0  0  0  0  0  0  0  0
    2.8918   -0.3454    0.0000 N   0  0  0  0  0  0  0  0  0  0  0  0
   -4.3265    2.1256    0.0000 N   0  0  0  0  0  0  0  0  0  0  0  0
    5.0528    1.7005    0.0000 N   0  0  0  0  0  0  0  0  0  0  0  0
   -0.7130    0.0709    0.0000 C   0  0  0  0  0  0  0  0  0  0  0  0
   -1.4215   -0.3365    0.0000 C   0  0  0  0  0  0  0  0  0  0  0  0
   -2.1478    0.8857    0.0000 C   0  0  0  0  0  0  0  0  0  0  0  0
    0.7307    0.0709    0.0000 C   0  0  0  0  0  0  0  0  0  0  0  0
    2.1743    0.0709    0.0000 C   0  0  0  0  0  0  0  0  0  0  0  0
   -2.1478    0.0709    0.0000 C   0  0  0  0  0  0  0  0  0  0  0  0
    2.1832    0.8857    0.0000 C   0  0  0  0  0  0  0  0  0  0  0  0
   -0.7130    0.8857    0.0000 C   0  0  0  0  0  0  0  0  0  0  0  0
   -1.4303    1.2931    0.0000 C   0  0  0  0  0  0  0  0  0  0  0  0
    1.4481    1.2931    0.0000 C   0  0  0  0  0  0  0  0  0  0  0  0
   -3.5825    0.8946    0.0000 C   0  0  0  0  0  0  0  0  0  0  0  0
   -2.8740    2.1168    0.0000 C   0  0  0  0  0  0  0  0  0  0  0  0
    2.8829   -1.2576    0.0000 C   0  0  0  0  0  0  0  0  0  0  0  0
    2.8918    1.2931    0.0000 C   0  0  0  0  0  0  0  0  0  0  0  0
   -4.3088    1.2931    0.0000 C   0  0  0  0  0  0  0  0  0  0  0  0
   -3.6003    2.5330    0.0000 C   0  0  0  0  0  0  0  0  0  0  0  0
    2.2363   -1.7536    0.0000 C   0  0  0  0  0  0  0  0  0  0  0  0
    3.5649   -1.7625    0.0000 C   0  0  0  0  0  0  0  0  0  0  0  0
    3.6357    0.8946    0.0000 C   0  0  0  0  0  0  0  0  0  0  0  0
   -2.1655   -1.5942    0.0000 C   0  0  0  0  0  0  0  0  0  0  0  0
    2.5198   -2.5330    0.0000 C   0  0  0  0  0  0  0  0  0  0  0  0
    3.3345   -2.5330    0.0000 C   0  0  0  0  0  0  0  0  0  0  0  0
   -5.0528    2.5242    0.0000 C   0  0  0  0  0  0  0  0  0  0  0  0
    4.3354    1.3019    0.0000 C   0  0  0  0  0  0  0  0  0  0  0  0
  1 10  1  0  0  0  0
  1 28  1  0  0  0  0
  2 11  1  0  0  0  0
  2 19  1  0  0  0  0
  2 20  1  0  0  0  0
  3  9  1  0  0  0  0
  3 12  1  0  0  0  0
  4 12  1  0  0  0  0
  4 13  2  0  0  0  0
  5 12  2  0  0  0  0
  5 18  1  0  0  0  0
  6 13  1  0  0  0  0
  6 21  1  0  0  0  0
  7 23  1  0  0  0  0
  7 24  1  0  0  0  0
  7 31  1  0  0  0  0
  8 32  3  0  0  0  0
  9 10  2  0  0  0  0
  9 16  1  0  0  0  0
 10 14  1  0  0  0  0
 11 14  2  0  0  0  0
 11 17  1  0  0  0  0
 13 15  1  0  0  0  0
 15 18  2  0  0  0  0
 15 22  1  0  0  0  0
 16 17  2  0  0  0  0
 19 23  1  0  0  0  0
 20 24  1  0  0  0  0
 21 25  1  0  0  0  0
 21 26  1  0  0  0  0
 22 27  2  0  0  0  0
 25 29  1  0  0  0  0
 26 30  1  0  0  0  0
 27 32  1  0  0  0  0
 29 30  1  0  0  0  0
M  END
> <PUBCHEM_COMPOUND_ID_TYPE>
0

> <PUBCHEM_TOTAL_CHARGE>
0

> <PUBCHEM_SUBSTANCE_ID>
310942464

> <PUBCHEM_SUBSTANCE_VERSION>
1

> <PUBCHEM_EXT_DATASOURCE_NAME>
4488

> <PUBCHEM_EXT_DATASOURCE_REGID>
SCHEMBL16120500

> <PUBCHEM_SUBSTANCE_COMMENT>
InChI=1S/C24H31N7O/c1-30-12-14-31(15-13-30)20-9-10-21(22(16-20)32-2)28-24-26-17-18(6-5-11-25)23(29-24)27-19-7-3-4-8-19/h5-6,9-10,16-17,19H,3-4,7-8,12-15H2,1-2H3,(H2,26,27,28,29)/b6-5+
InChIKey=GTHGZTDOHSOEEC-AATRIKPKSA-N

> <PUBCHEM_SUBSTANCE_SYNONYM>
SCHEMBL16120500

> <PUBCHEM_XREF_EXT_ID>
SCHEMBL16120500

> <PUBCHEM_EXT_DATASOURCE_URL>
https://www.surechembl.org/

> <PUBCHEM_EXT_SUBSTANCE_URL>
https://www.surechembl.org/chemical/SCHEMBL16120500

> <PUBCHEM_CID_ASSOCIATIONS>
90456404  1

> <PUBCHEM_COORDINATE_TYPE>
1
3

$$$$
