310932058
  -OEChem-07211613022D

 38 43  0     1  0  0  0  0  0999 V2000
    1.5860   -5.8326    0.0000 S   0  0  0  0  0  0  0  0  0  0  0  0
    5.8326   -7.3675    0.0000 F   0  0  0  0  0  0  0  0  0  0  0  0
    5.0140   -5.8838    0.0000 O   0  0  0  0  0  0  0  0  0  0  0  0
    3.3256  -10.2326    0.0000 O   0  0  0  0  0  0  0  0  0  0  0  0
    2.0465   -3.6326    0.0000 O   0  0  0  0  0  0  0  0  0  0  0  0
    0.8186    0.0000    0.0000 O   0  0  0  0  0  0  0  0  0  0  0  0
    2.8651   -5.1163    0.0000 N   0  0  0  0  0  0  0  0  0  0  0  0
    4.5535   -8.0326    0.0000 N   0  0  0  0  0  0  0  0  0  0  0  0
    3.3256   -2.9163    0.0000 N   0  0  0  0  0  0  0  0  0  0  0  0
    1.5860   -4.3488    0.0000 N   0  0  0  0  0  0  0  0  0  0  0  0
    1.2791   -2.2000    0.0000 N   0  0  0  0  0  0  0  0  0  0  0  0
    3.2744   -5.8326    0.0000 C   0  0  3  0  0  0  0  0  0  0  0  0
    3.7349   -6.6000    0.0000 C   0  0  0  0  0  0  0  0  0  0  0  0
    3.7349   -5.1163    0.0000 C   0  0  0  0  0  0  0  0  0  0  0  0
    4.5535   -6.6000    0.0000 C   0  0  0  0  0  0  0  0  0  0  0  0
    4.5535   -5.1163    0.0000 C   0  0  0  0  0  0  0  0  0  0  0  0
    2.8139   -6.5488    0.0000 C   0  0  0  0  0  0  0  0  0  0  0  0
    3.2744   -7.3675    0.0000 C   0  0  0  0  0  0  0  0  0  0  0  0
    4.9628   -7.3675    0.0000 C   0  0  0  0  0  0  0  0  0  0  0  0
    3.2744   -4.3488    0.0000 C   0  0  0  0  0  0  0  0  0  0  0  0
    3.6838   -8.0326    0.0000 C   0  0  0  0  0  0  0  0  0  0  0  0
    5.0140   -4.3488    0.0000 C   0  0  0  0  0  0  0  0  0  0  0  0
    1.9954   -5.1163    0.0000 C   0  0  0  0  0  0  0  0  0  0  0  0
    3.7349   -3.6838    0.0000 C   0  0  0  0  0  0  0  0  0  0  0  0
    1.9954   -6.5488    0.0000 C   0  0  0  0  0  0  0  0  0  0  0  0
    4.6047   -3.6838    0.0000 C   0  0  0  0  0  0  0  0  0  0  0  0
    3.2744   -8.7489    0.0000 C   0  0  0  0  0  0  0  0  0  0  0  0
    3.7349   -9.4651    0.0000 C   0  0  0  0  0  0  0  0  0  0  0  0
    2.4558   -8.7489    0.0000 C   0  0  0  0  0  0  0  0  0  0  0  0
    2.5070   -2.9163    0.0000 C   0  0  0  0  0  0  0  0  0  0  0  0
    2.0977   -2.2000    0.0000 C   0  0  0  0  0  0  0  0  0  0  0  0
    2.0465   -9.5163    0.0000 C   0  0  0  0  0  0  0  0  0  0  0  0
    2.4558  -10.2326    0.0000 C   0  0  0  0  0  0  0  0  0  0  0  0
    2.5070   -1.4837    0.0000 C   0  0  0  0  0  0  0  0  0  0  0  0
    1.2791   -0.7674    0.0000 C   0  0  0  0  0  0  0  0  0  0  0  0
    0.8186   -1.4837    0.0000 C   0  0  0  0  0  0  0  0  0  0  0  0
    2.0977   -0.7674    0.0000 C   0  0  0  0  0  0  0  0  0  0  0  0
    0.0000    0.0000    0.0000 C   0  0  0  0  0  0  0  0  0  0  0  0
  1 23  1  0  0  0  0
  1 25  1  0  0  0  0
  2 19  1  0  0  0  0
  3 15  1  0  0  0  0
  3 16  1  0  0  0  0
  4 28  1  0  0  0  0
  4 33  1  0  0  0  0
  5 30  2  0  0  0  0
  6 35  1  0  0  0  0
  6 38  1  0  0  0  0
 12  7  1  1  0  0  0
  7 23  2  0  0  0  0
  8 19  1  0  0  0  0
  8 21  2  0  0  0  0
  9 24  1  0  0  0  0
  9 30  1  0  0  0  0
 10 23  1  0  0  0  0
 11 31  1  0  0  0  0
 11 36  2  0  0  0  0
 12 13  1  0  0  0  0
 12 14  1  0  0  0  0
 12 17  1  0  0  0  0
 13 15  1  0  0  0  0
 13 18  2  0  0  0  0
 14 16  2  0  0  0  0
 14 20  1  0  0  0  0
 15 19  2  0  0  0  0
 16 22  1  0  0  0  0
 17 25  1  0  0  0  0
 18 21  1  0  0  0  0
 20 24  2  0  0  0  0
 21 27  1  0  0  0  0
 22 26  2  0  0  0  0
 24 26  1  0  0  0  0
 27 28  1  0  0  0  0
 27 29  2  0  0  0  0
 29 32  1  0  0  0  0
 30 31  1  0  0  0  0
 31 34  2  0  0  0  0
 32 33  1  0  0  0  0
 34 37  1  0  0  0  0
 35 36  1  0  0  0  0
 35 37  2  0  0  0  0
M  END
> <PUBCHEM_COMPOUND_ID_TYPE>
0

> <PUBCHEM_TOTAL_CHARGE>
0

> <PUBCHEM_SUBSTANCE_ID>
310932058

> <PUBCHEM_SUBSTANCE_VERSION>
1

> <PUBCHEM_EXT_DATASOURCE_NAME>
4488

> <PUBCHEM_EXT_DATASOURCE_REGID>
SCHEMBL16109404

> <PUBCHEM_SUBSTANCE_COMMENT>
InChI=1S/C27H24FN5O4S/c1-35-17-5-6-20(30-13-17)25(34)31-16-4-7-22-18(11-16)27(8-10-38-26(29)33-27)19-12-21(15-3-2-9-36-14-15)32-24(28)23(19)37-22/h3-7,11-13H,2,8-10,14H2,1H3,(H2,29,33)(H,31,34)/t27-/m0/s1
InChIKey=HRPUIVOMPDBGJT-MHZLTWQESA-N

> <PUBCHEM_SUBSTANCE_SYNONYM>
SCHEMBL16109404

> <PUBCHEM_XREF_EXT_ID>
SCHEMBL16109404

> <PUBCHEM_EXT_DATASOURCE_URL>
https://www.surechembl.org/

> <PUBCHEM_EXT_SUBSTANCE_URL>
https://www.surechembl.org/chemical/SCHEMBL16109404

> <PUBCHEM_CID_ASSOCIATIONS>
71542620  1

> <PUBCHEM_COORDINATE_TYPE>
1
3

> <PUBCHEM_BONDANNOTATIONS>
12  7  5

$$$$
