310939518
  -OEChem-07211613022D

 46 50  0     1  0  0  0  0  0999 V2000
    2.9119  -10.2926    0.0000 O   0  0  0  0  0  0  0  0  0  0  0  0
   -1.3260  -11.9426    0.0000 O   0  0  0  0  0  0  0  0  0  0  0  0
    4.1494  -11.0071    0.0000 O   0  0  0  0  0  0  0  0  0  0  0  0
    3.4434   -8.0857    0.0000 O   0  0  0  0  0  0  0  0  0  0  0  0
    4.7047  -11.3769    0.0000 O   0  0  0  0  0  0  0  0  0  0  0  0
    5.0745  -12.7572    0.0000 O   0  0  0  0  0  0  0  0  0  0  0  0
    0.1029  -13.5926    0.0000 O   0  0  0  0  0  0  0  0  0  0  0  0
   -1.3260  -13.5926    0.0000 O   0  0  0  0  0  0  0  0  0  0  0  0
    0.8174   -9.8801    0.0000 C   0  0  3  0  0  0  0  0  0  0  0  0
    0.8174  -10.7051    0.0000 C   0  0  3  0  0  0  0  0  0  0  0  0
    1.6020   -9.6252    0.0000 C   0  0  3  0  0  0  0  0  0  0  0  0
    2.0869  -10.2926    0.0000 C   0  0  3  0  0  0  0  0  0  0  0  0
   -0.6116  -10.7051    0.0000 C   0  0  0  0  0  0  0  0  0  0  0  0
   -0.6116   -9.8801    0.0000 C   0  0  0  0  0  0  0  0  0  0  0  0
    1.6020  -10.9601    0.0000 C   0  0  0  0  0  0  0  0  0  0  0  0
    0.1029   -9.4676    0.0000 C   0  0  0  0  0  0  0  0  0  0  0  0
    0.1029  -11.1176    0.0000 C   0  0  0  0  0  0  0  0  0  0  0  0
   -1.3260  -11.1176    0.0000 C   0  0  0  0  0  0  0  0  0  0  0  0
    2.0145   -8.9107    0.0000 C   0  0  0  0  0  0  0  0  0  0  0  0
   -1.3260   -9.4676    0.0000 C   0  0  0  0  0  0  0  0  0  0  0  0
    3.3244  -11.0071    0.0000 C   0  0  0  0  0  0  0  0  0  0  0  0
   -2.0405  -10.7051    0.0000 C   0  0  0  0  0  0  0  0  0  0  0  0
    3.1109  -11.8040    0.0000 C   0  0  3  0  0  0  0  0  0  0  0  0
   -2.0405   -9.8801    0.0000 C   0  0  0  0  0  0  0  0  0  0  0  0
    2.7290   -9.3232    0.0000 C   0  0  0  0  0  0  0  0  0  0  0  0
    3.6943  -12.3873    0.0000 C   0  0  3  0  0  0  0  0  0  0  0  0
    2.3140  -12.0175    0.0000 C   0  0  0  0  0  0  0  0  0  0  0  0
   -0.6116  -12.3551    0.0000 C   0  0  0  0  0  0  0  0  0  0  0  0
    3.4434   -8.9107    0.0000 C   0  0  3  0  0  0  0  0  0  0  0  0
    4.4911  -12.1738    0.0000 C   0  0  0  0  0  0  0  0  0  0  0  0
    3.4807  -13.1842    0.0000 C   0  0  0  0  0  0  0  0  0  0  0  0
    2.1005  -12.8144    0.0000 C   0  0  0  0  0  0  0  0  0  0  0  0
    2.6838  -13.3978    0.0000 C   0  0  0  0  0  0  0  0  0  0  0  0
   -0.6116  -13.1801    0.0000 C   0  0  0  0  0  0  0  0  0  0  0  0
    4.1579   -9.3232    0.0000 C   0  0  0  0  0  0  0  0  0  0  0  0
    4.1579  -10.1482    0.0000 C   0  0  0  0  0  0  0  0  0  0  0  0
    0.8174  -13.1801    0.0000 C   0  0  0  0  0  0  0  0  0  0  0  0
    1.5318  -13.5926    0.0000 C   0  0  0  0  0  0  0  0  0  0  0  0
    4.8724  -10.5607    0.0000 C   0  0  0  0  0  0  0  0  0  0  0  0
    1.5318  -14.4176    0.0000 C   0  0  0  0  0  0  0  0  0  0  0  0
    2.2463  -13.1801    0.0000 C   0  0  0  0  0  0  0  0  0  0  0  0
    2.2463  -14.8301    0.0000 C   0  0  0  0  0  0  0  0  0  0  0  0
    2.9608  -13.5926    0.0000 C   0  0  0  0  0  0  0  0  0  0  0  0
    4.8724  -11.3857    0.0000 C   0  0  0  0  0  0  0  0  0  0  0  0
    2.9608  -14.4176    0.0000 C   0  0  0  0  0  0  0  0  0  0  0  0
    5.5868  -11.7982    0.0000 C   0  0  0  0  0  0  0  0  0  0  0  0
 12  1  1  6  0  0  0
  1 21  1  0  0  0  0
  2 18  1  0  0  0  0
  2 28  1  0  0  0  0
  3 21  2  0  0  0  0
 29  4  1  1  0  0  0
  5 30  2  0  0  0  0
  6 30  1  0  0  0  0
  7 34  1  0  0  0  0
  7 37  1  0  0  0  0
  8 34  2  0  0  0  0
  9 10  1  0  0  0  0
  9 11  1  0  0  0  0
  9 16  1  6  0  0  0
 10 15  1  6  0  0  0
 10 17  1  0  0  0  0
 11 12  1  0  0  0  0
 11 19  1  1  0  0  0
 12 15  1  0  0  0  0
 13 14  2  0  0  0  0
 13 17  1  0  0  0  0
 13 18  1  0  0  0  0
 14 16  1  0  0  0  0
 14 20  1  0  0  0  0
 18 22  2  0  0  0  0
 19 25  1  0  0  0  0
 20 24  2  0  0  0  0
 23 21  1  1  0  0  0
 22 24  1  0  0  0  0
 23 26  1  0  0  0  0
 23 27  1  0  0  0  0
 25 29  1  0  0  0  0
 26 30  1  1  0  0  0
 26 31  1  0  0  0  0
 27 32  1  0  0  0  0
 28 34  1  0  0  0  0
 29 35  1  0  0  0  0
 31 33  1  0  0  0  0
 32 33  1  0  0  0  0
 35 36  1  0  0  0  0
 36 39  1  0  0  0  0
 37 38  1  0  0  0  0
 38 40  2  0  0  0  0
 38 41  1  0  0  0  0
 39 44  1  0  0  0  0
 40 42  1  0  0  0  0
 41 43  2  0  0  0  0
 42 45  2  0  0  0  0
 43 45  1  0  0  0  0
 44 46  1  0  0  0  0
M  END
> <PUBCHEM_COMPOUND_ID_TYPE>
0

> <PUBCHEM_TOTAL_CHARGE>
0

> <PUBCHEM_SUBSTANCE_ID>
310939518

> <PUBCHEM_SUBSTANCE_VERSION>
1

> <PUBCHEM_EXT_DATASOURCE_NAME>
4488

> <PUBCHEM_EXT_DATASOURCE_REGID>
SCHEMBL16117447

> <PUBCHEM_SUBSTANCE_COMMENT>
InChI=1S/C38H50O8/c1-2-3-5-14-28(39)18-19-29-32-20-26-13-10-17-34(44-24-36(40)45-23-25-11-6-4-7-12-25)33(26)21-27(32)22-35(29)46-38(43)31-16-9-8-15-30(31)37(41)42/h4,6-7,10-13,17,27-32,35,39H,2-3,5,8-9,14-16,18-24H2,1H3,(H,41,42)/t27-,28-,29+,30-,31+,32-,35+/m0/s1
InChIKey=DNCAMXYNQYSFOU-RVWDIANBSA-N

> <PUBCHEM_SUBSTANCE_SYNONYM>
SCHEMBL16117447

> <PUBCHEM_XREF_EXT_ID>
SCHEMBL16117447

> <PUBCHEM_EXT_DATASOURCE_URL>
https://www.surechembl.org/

> <PUBCHEM_EXT_SUBSTANCE_URL>
https://www.surechembl.org/chemical/SCHEMBL16117447

> <PUBCHEM_CID_ASSOCIATIONS>
117606814  1

> <PUBCHEM_COORDINATE_TYPE>
1
3

> <PUBCHEM_BONDANNOTATIONS>
12  1  6
10  15  6
11  19  5
23  21  5
26  30  5
29  4  5
9  16  6

$$$$
