310949121
  -OEChem-07211613022D

 47 54  0     0  0  0  0  0  0999 V2000
    0.0536    2.2714    0.0000 F   0  0  0  0  0  0  0  0  0  0  0  0
   -0.4020    3.3167    0.0000 F   0  0  0  0  0  0  0  0  0  0  0  0
    0.6701    3.7723    0.0000 F   0  0  0  0  0  0  0  0  0  0  0  0
    3.4708    0.5695    0.0000 F   0  0  0  0  0  0  0  0  0  0  0  0
    0.6164    0.5695    0.0000 F   0  0  0  0  0  0  0  0  0  0  0  0
    0.6031   -1.0787    0.0000 F   0  0  0  0  0  0  0  0  0  0  0  0
    3.4708   -1.0922    0.0000 F   0  0  0  0  0  0  0  0  0  0  0  0
    2.0503   -1.8962    0.0000 F   0  0  0  0  0  0  0  0  0  0  0  0
   -0.2680    1.5478    0.0000 N   0  0  0  0  0  0  0  0  0  0  0  0
   -1.2463   -1.6014    0.0000 N   0  0  0  0  0  0  0  0  0  0  0  0
    1.3133    1.8158    0.0000 C   0  0  0  0  0  0  0  0  0  0  0  0
   -0.3886    0.7303    0.0000 C   0  0  0  0  0  0  0  0  0  0  0  0
   -1.2060    0.6097    0.0000 C   0  0  0  0  0  0  0  0  0  0  0  0
   -1.0318    1.9364    0.0000 C   0  0  0  0  0  0  0  0  0  0  0  0
   -1.5947    1.3468    0.0000 C   0  0  0  0  0  0  0  0  0  0  0  0
    2.0503    1.4271    0.0000 C   0  0  0  0  0  0  0  0  0  0  0  0
    1.3267    2.6332    0.0000 C   0  0  0  0  0  0  0  0  0  0  0  0
   -0.9648   -0.7973    0.0000 C   0  0  0  0  0  0  0  0  0  0  0  0
    2.0369    0.5830    0.0000 C   0  0  0  0  0  0  0  0  0  0  0  0
   -1.4875   -0.1407    0.0000 C   0  0  0  0  0  0  0  0  0  0  0  0
    0.1474    0.0871    0.0000 C   0  0  0  0  0  0  0  0  0  0  0  0
   -2.0637   -1.7890    0.0000 C   0  0  0  0  0  0  0  0  0  0  0  0
   -0.8041   -2.2580    0.0000 C   0  0  0  0  0  0  0  0  0  0  0  0
   -2.0905   -2.6064    0.0000 C   0  0  0  0  0  0  0  0  0  0  0  0
   -1.2998   -2.9013    0.0000 C   0  0  0  0  0  0  0  0  0  0  0  0
    0.3618    3.0353    0.0000 C   0  0  0  0  0  0  0  0  0  0  0  0
   -0.1474   -0.6500    0.0000 C   0  0  0  0  0  0  0  0  0  0  0  0
   -1.2328    2.7136    0.0000 C   0  0  0  0  0  0  0  0  0  0  0  0
    2.7472    0.1809    0.0000 C   0  0  0  0  0  0  0  0  0  0  0  0
    1.3267    0.1675    0.0000 C   0  0  0  0  0  0  0  0  0  0  0  0
   -2.3987    1.5611    0.0000 C   0  0  0  0  0  0  0  0  0  0  0  0
    2.7337    1.8292    0.0000 C   0  0  0  0  0  0  0  0  0  0  0  0
    2.0235    3.0620    0.0000 C   0  0  0  0  0  0  0  0  0  0  0  0
    1.2998   -0.6633    0.0000 C   0  0  0  0  0  0  0  0  0  0  0  0
    2.7337   -0.6500    0.0000 C   0  0  0  0  0  0  0  0  0  0  0  0
    2.7472    2.6466    0.0000 C   0  0  0  0  0  0  0  0  0  0  0  0
    2.0369   -1.0654    0.0000 C   0  0  0  0  0  0  0  0  0  0  0  0
   -2.0503    2.9146    0.0000 C   0  0  0  0  0  0  0  0  0  0  0  0
   -2.6131    2.3250    0.0000 C   0  0  0  0  0  0  0  0  0  0  0  0
   -2.7337   -1.3601    0.0000 C   0  0  0  0  0  0  0  0  0  0  0  0
    0.0134   -2.3786    0.0000 C   0  0  0  0  0  0  0  0  0  0  0  0
   -2.7873   -2.9816    0.0000 C   0  0  0  0  0  0  0  0  0  0  0  0
   -0.9916   -3.6785    0.0000 C   0  0  0  0  0  0  0  0  0  0  0  0
   -3.4708   -1.7622    0.0000 C   0  0  0  0  0  0  0  0  0  0  0  0
    0.3350   -3.1425    0.0000 C   0  0  0  0  0  0  0  0  0  0  0  0
   -3.4574   -2.5796    0.0000 C   0  0  0  0  0  0  0  0  0  0  0  0
   -0.1608   -3.7723    0.0000 C   0  0  0  0  0  0  0  0  0  0  0  0
  1 26  1  0  0  0  0
  2 26  1  0  0  0  0
  3 26  1  0  0  0  0
  4 29  1  0  0  0  0
  5 30  1  0  0  0  0
  6 34  1  0  0  0  0
  7 35  1  0  0  0  0
  8 37  1  0  0  0  0
  9 11  1  0  0  0  0
  9 12  1  0  0  0  0
  9 14  1  0  0  0  0
 10 18  1  0  0  0  0
 10 22  1  0  0  0  0
 10 23  1  0  0  0  0
 11 16  1  0  0  0  0
 11 17  2  0  0  0  0
 12 13  2  0  0  0  0
 12 21  1  0  0  0  0
 13 15  1  0  0  0  0
 13 20  1  0  0  0  0
 14 15  2  0  0  0  0
 14 28  1  0  0  0  0
 15 31  1  0  0  0  0
 16 19  1  0  0  0  0
 16 32  2  0  0  0  0
 17 26  1  0  0  0  0
 17 33  1  0  0  0  0
 18 20  2  0  0  0  0
 18 27  1  0  0  0  0
 19 29  2  0  0  0  0
 19 30  1  0  0  0  0
 21 27  2  0  0  0  0
 22 24  2  0  0  0  0
 22 40  1  0  0  0  0
 23 25  2  0  0  0  0
 23 41  1  0  0  0  0
 24 25  1  0  0  0  0
 24 42  1  0  0  0  0
 25 43  1  0  0  0  0
 28 38  2  0  0  0  0
 29 35  1  0  0  0  0
 30 34  2  0  0  0  0
 31 39  2  0  0  0  0
 32 36  1  0  0  0  0
 33 36  2  0  0  0  0
 34 37  1  0  0  0  0
 35 37  2  0  0  0  0
 38 39  1  0  0  0  0
 40 44  2  0  0  0  0
 41 45  2  0  0  0  0
 42 46  2  0  0  0  0
 43 47  2  0  0  0  0
 44 46  1  0  0  0  0
 45 47  1  0  0  0  0
M  END
> <PUBCHEM_COMPOUND_ID_TYPE>
0

> <PUBCHEM_TOTAL_CHARGE>
0

> <PUBCHEM_SUBSTANCE_ID>
310949121

> <PUBCHEM_SUBSTANCE_VERSION>
1

> <PUBCHEM_EXT_DATASOURCE_NAME>
4488

> <PUBCHEM_EXT_DATASOURCE_REGID>
SCHEMBL16127311

> <PUBCHEM_SUBSTANCE_COMMENT>
InChI=1S/C37H18F8N2/c38-31-30(32(39)34(41)35(42)33(31)40)23-11-7-12-25(37(43,44)45)36(23)47-28-15-6-3-10-22(28)24-18-19(16-17-29(24)47)46-26-13-4-1-8-20(26)21-9-2-5-14-27(21)46/h1-18H
InChIKey=SQMYAIULDSRQLA-UHFFFAOYSA-N

> <PUBCHEM_SUBSTANCE_SYNONYM>
SCHEMBL16127311

> <PUBCHEM_XREF_EXT_ID>
SCHEMBL16127311

> <PUBCHEM_EXT_DATASOURCE_URL>
https://www.surechembl.org/

> <PUBCHEM_EXT_SUBSTANCE_URL>
https://www.surechembl.org/chemical/SCHEMBL16127311

> <PUBCHEM_CID_ASSOCIATIONS>
117614618  1

> <PUBCHEM_COORDINATE_TYPE>
1
3

$$$$
