310943801
  -OEChem-07211613022D

 33 37  0     1  0  0  0  0  0999 V2000
    2.3596    0.7920    0.0000 O   0  0  0  0  0  0  0  0  0  0  0  0
    5.3298    0.6600    0.0000 O   0  0  0  0  0  0  0  0  0  0  0  0
    5.0987    2.1011    0.0000 O   0  0  0  0  0  0  0  0  0  0  0  0
   -0.3465   -2.1011    0.0000 O   0  0  0  0  0  0  0  0  0  0  0  0
    3.4047   -0.2420    0.0000 N   0  0  0  0  0  0  0  0  0  0  0  0
    0.4785   -0.6710    0.0000 N   0  0  0  0  0  0  0  0  0  0  0  0
   -4.0537   -1.3861    0.0000 N   0  0  0  0  0  0  0  0  0  0  0  0
   -1.9966   -2.1011    0.0000 N   0  0  0  0  0  0  0  0  0  0  0  0
   -4.5377   -0.7150    0.0000 N   0  0  0  0  0  0  0  0  0  0  0  0
   -5.3298   -0.9681    0.0000 N   0  0  0  0  0  0  0  0  0  0  0  0
   -5.3298   -1.7931    0.0000 N   0  0  0  0  0  0  0  0  0  0  0  0
    2.1286   -0.6490    0.0000 C   0  0  0  0  0  0  0  0  0  0  0  0
    2.6127    0.0000    0.0000 C   0  0  0  0  0  0  0  0  0  0  0  0
    4.0647    0.2530    0.0000 C   0  0  0  0  0  0  0  0  0  0  0  0
    2.6127   -1.3091    0.0000 C   0  0  0  0  0  0  0  0  0  0  0  0
    3.3937   -1.0670    0.0000 C   0  0  0  0  0  0  0  0  0  0  0  0
    1.7326   -1.3641    0.0000 C   0  0  0  0  0  0  0  0  0  0  0  0
    1.7106    0.0550    0.0000 C   0  0  0  0  0  0  0  0  0  0  0  0
    4.0757    1.0780    0.0000 C   0  0  0  0  0  0  0  0  0  0  0  0
    4.8568    0.0000    0.0000 C   0  0  0  0  0  0  0  0  0  0  0  0
    4.8237    1.3091    0.0000 C   0  0  0  0  0  0  0  0  0  0  0  0
    0.8966   -1.3751    0.0000 C   0  0  0  0  0  0  0  0  0  0  0  0
    0.8855    0.0440    0.0000 C   0  0  0  0  0  0  0  0  0  0  0  0
   -1.5896   -1.3751    0.0000 C   0  0  0  0  0  0  0  0  0  0  0  0
   -0.3465   -0.6600    0.0000 C   0  0  0  0  0  0  0  0  0  0  0  0
   -0.7646   -1.3751    0.0000 C   0  0  3  0  0  0  0  0  0  0  0  0
   -1.9966   -0.6710    0.0000 C   0  0  0  0  0  0  0  0  0  0  0  0
   -3.2287   -1.3751    0.0000 C   0  0  0  0  0  0  0  0  0  0  0  0
    3.3937    1.5621    0.0000 C   0  0  0  0  0  0  0  0  0  0  0  0
   -2.8217   -0.6600    0.0000 C   0  0  0  0  0  0  0  0  0  0  0  0
   -2.8217   -2.0901    0.0000 C   0  0  0  0  0  0  0  0  0  0  0  0
   -4.5377   -2.0351    0.0000 C   0  0  0  0  0  0  0  0  0  0  0  0
   -1.5896    0.0660    0.0000 C   0  0  0  0  0  0  0  0  0  0  0  0
  1 13  2  0  0  0  0
  2 20  1  0  0  0  0
  2 21  1  0  0  0  0
  3 21  2  0  0  0  0
 26  4  1  1  0  0  0
  5 13  1  0  0  0  0
  5 14  1  0  0  0  0
  5 16  1  0  0  0  0
  6 22  1  0  0  0  0
  6 23  1  0  0  0  0
  6 25  1  0  0  0  0
  7  9  1  0  0  0  0
  7 28  1  0  0  0  0
  7 32  1  0  0  0  0
  8 24  2  0  0  0  0
  8 31  1  0  0  0  0
  9 10  2  0  0  0  0
 10 11  1  0  0  0  0
 11 32  2  0  0  0  0
 12 13  1  0  0  0  0
 12 15  1  0  0  0  0
 12 17  1  0  0  0  0
 12 18  1  0  0  0  0
 14 19  2  0  0  0  0
 14 20  1  0  0  0  0
 15 16  1  0  0  0  0
 17 22  1  0  0  0  0
 18 23  1  0  0  0  0
 19 21  1  0  0  0  0
 19 29  1  0  0  0  0
 24 26  1  0  0  0  0
 24 27  1  0  0  0  0
 25 26  1  0  0  0  0
 27 30  2  0  0  0  0
 27 33  1  0  0  0  0
 28 30  1  0  0  0  0
 28 31  2  0  0  0  0
M  END
> <PUBCHEM_COMPOUND_ID_TYPE>
0

> <PUBCHEM_TOTAL_CHARGE>
0

> <PUBCHEM_SUBSTANCE_ID>
310943801

> <PUBCHEM_SUBSTANCE_VERSION>
1

> <PUBCHEM_EXT_DATASOURCE_NAME>
4488

> <PUBCHEM_EXT_DATASOURCE_REGID>
SCHEMBL16121872

> <PUBCHEM_SUBSTANCE_COMMENT>
InChI=1S/C22H27N7O4/c1-14-9-16(29-13-24-25-26-29)10-23-19(14)18(30)11-27-6-3-22(4-7-27)5-8-28(21(22)32)17-12-33-20(31)15(17)2/h9-10,13,18,30H,3-8,11-12H2,1-2H3/t18-/m1/s1
InChIKey=RYHGGFKXBAMPIF-GOSISDBHSA-N

> <PUBCHEM_SUBSTANCE_SYNONYM>
SCHEMBL16121872

> <PUBCHEM_XREF_EXT_ID>
SCHEMBL16121872

> <PUBCHEM_EXT_DATASOURCE_URL>
https://www.surechembl.org/

> <PUBCHEM_EXT_SUBSTANCE_URL>
https://www.surechembl.org/chemical/SCHEMBL16121872

> <PUBCHEM_CID_ASSOCIATIONS>
86271273  1

> <PUBCHEM_COORDINATE_TYPE>
1
3

> <PUBCHEM_BONDANNOTATIONS>
26  4  5

$$$$
