310934911
  -OEChem-07211613022D

 36 39  0     1  0  0  0  0  0999 V2000
    0.8545   -2.1509    0.0000 F   0  0  0  0  0  0  0  0  0  0  0  0
    1.6795   -3.5653    0.0000 O   0  0  0  0  0  0  0  0  0  0  0  0
    1.6795   -0.7072    0.0000 O   0  0  0  0  0  0  0  0  0  0  0  0
    2.0920   -5.7457    0.0000 O   0  0  0  0  0  0  0  0  0  0  0  0
    6.1582   -2.0626    0.0000 O   0  0  0  0  0  0  0  0  0  0  0  0
    0.8545   -5.0090    0.0000 O   0  0  0  0  0  0  0  0  0  0  0  0
    6.8948   -3.3001    0.0000 O   0  0  0  0  0  0  0  0  0  0  0  0
    4.5671   -4.3019    0.0000 N   0  0  0  0  0  0  0  0  0  0  0  0
    5.3921   -4.0956    0.0000 N   0  0  0  0  0  0  0  0  0  0  0  0
    3.3295   -3.5947    0.0000 C   0  0  0  0  0  0  0  0  0  0  0  0
    4.1546   -3.5947    0.0000 C   0  0  0  0  0  0  0  0  0  0  0  0
    2.9170   -4.3019    0.0000 C   0  0  0  0  0  0  0  0  0  0  0  0
    2.9170   -2.8581    0.0000 C   0  0  0  0  0  0  0  0  0  0  0  0
    3.3295   -5.0090    0.0000 C   0  0  0  0  0  0  0  0  0  0  0  0
    3.3295   -2.1509    0.0000 C   0  0  0  0  0  0  0  0  0  0  0  0
    2.0920   -4.3019    0.0000 C   0  0  3  0  0  0  0  0  0  0  0  0
    4.7144   -2.9465    0.0000 C   0  0  0  0  0  0  0  0  0  0  0  0
    4.1546   -5.0090    0.0000 C   0  0  0  0  0  0  0  0  0  0  0  0
    2.9170   -1.4143    0.0000 C   0  0  0  0  0  0  0  0  0  0  0  0
    5.4510   -3.3001    0.0000 C   0  0  0  0  0  0  0  0  0  0  0  0
    2.0920   -2.8581    0.0000 C   0  0  0  0  0  0  0  0  0  0  0  0
    2.0920   -1.4143    0.0000 C   0  0  0  0  0  0  0  0  0  0  0  0
    1.6795   -2.1509    0.0000 C   0  0  0  0  0  0  0  0  0  0  0  0
    1.6795   -5.0090    0.0000 C   0  0  0  0  0  0  0  0  0  0  0  0
    6.1582   -2.8581    0.0000 C   0  0  0  0  0  0  0  0  0  0  0  0
    3.3295   -0.7072    0.0000 C   0  0  0  0  0  0  0  0  0  0  0  0
    3.0644   -5.8930    0.0000 C   0  0  0  0  0  0  0  0  0  0  0  0
    4.1546   -2.1509    0.0000 C   0  0  0  0  0  0  0  0  0  0  0  0
    0.8545   -3.5653    0.0000 C   0  0  0  0  0  0  0  0  0  0  0  0
    2.9170    0.0000    0.0000 C   0  0  0  0  0  0  0  0  0  0  0  0
    2.0920    0.0000    0.0000 C   0  0  0  0  0  0  0  0  0  0  0  0
    0.0000   -3.5358    0.0000 C   0  0  0  0  0  0  0  0  0  0  0  0
    0.8545   -2.7403    0.0000 C   0  0  0  0  0  0  0  0  0  0  0  0
    0.8250   -4.3903    0.0000 C   0  0  0  0  0  0  0  0  0  0  0  0
    2.9170   -5.7457    0.0000 C   0  0  0  0  0  0  0  0  0  0  0  0
    6.8653   -1.6206    0.0000 C   0  0  0  0  0  0  0  0  0  0  0  0
  1 23  1  0  0  0  0
 16  2  1  1  0  0  0
  2 29  1  0  0  0  0
  3 22  1  0  0  0  0
  3 31  1  0  0  0  0
  4 24  1  0  0  0  0
  4 35  1  0  0  0  0
  5 25  1  0  0  0  0
  5 36  1  0  0  0  0
  6 24  2  0  0  0  0
  7 25  2  0  0  0  0
  8  9  1  0  0  0  0
  8 11  1  0  0  0  0
  8 18  1  0  0  0  0
  9 20  2  0  0  0  0
 10 11  1  0  0  0  0
 10 12  2  0  0  0  0
 10 13  1  0  0  0  0
 11 17  2  0  0  0  0
 12 14  1  0  0  0  0
 12 16  1  0  0  0  0
 13 15  2  0  0  0  0
 13 21  1  0  0  0  0
 14 18  2  0  0  0  0
 14 27  1  0  0  0  0
 15 19  1  0  0  0  0
 15 28  1  0  0  0  0
 16 24  1  0  0  0  0
 17 20  1  0  0  0  0
 19 22  2  0  0  0  0
 19 26  1  0  0  0  0
 20 25  1  0  0  0  0
 21 23  2  0  0  0  0
 22 23  1  0  0  0  0
 26 30  1  0  0  0  0
 29 32  1  0  0  0  0
 29 33  1  0  0  0  0
 29 34  1  0  0  0  0
 30 31  1  0  0  0  0
M  END
> <PUBCHEM_COMPOUND_ID_TYPE>
0

> <PUBCHEM_TOTAL_CHARGE>
0

> <PUBCHEM_SUBSTANCE_ID>
310934911

> <PUBCHEM_SUBSTANCE_VERSION>
1

> <PUBCHEM_EXT_DATASOURCE_NAME>
4488

> <PUBCHEM_EXT_DATASOURCE_REGID>
SCHEMBL16112424

> <PUBCHEM_SUBSTANCE_COMMENT>
InChI=1S/C27H31FN2O6/c1-14-13-30-20(12-19(29-30)25(31)33-6)22(21(14)24(26(32)34-7)36-27(3,4)5)17-11-18(28)23-16(15(17)2)9-8-10-35-23/h11-13,24H,8-10H2,1-7H3/t24-/m0/s1
InChIKey=ADNBIAJLXBGDSC-DEOSSOPVSA-N

> <PUBCHEM_SUBSTANCE_SYNONYM>
SCHEMBL16112424

> <PUBCHEM_XREF_EXT_ID>
SCHEMBL16112424

> <PUBCHEM_EXT_DATASOURCE_URL>
https://www.surechembl.org/

> <PUBCHEM_EXT_SUBSTANCE_URL>
https://www.surechembl.org/chemical/SCHEMBL16112424

> <PUBCHEM_CID_ASSOCIATIONS>
117603037  1

> <PUBCHEM_COORDINATE_TYPE>
1
3

> <PUBCHEM_BONDANNOTATIONS>
16  2  5

$$$$
