310947242
  -OEChem-07211613022D

 40 43  0     0  0  0  0  0  0999 V2000
   -2.1247    1.8242    0.0000 N   0  0  0  0  0  0  0  0  0  0  0  0
    1.1753    1.8242    0.0000 N   0  0  0  0  0  0  0  0  0  0  0  0
    1.5878    2.5387    0.0000 N   0  0  0  0  0  0  0  0  0  0  0  0
   -2.5372    2.5387    0.0000 N   0  0  0  0  0  0  0  0  0  0  0  0
    4.8878    2.5387    0.0000 N   0  0  0  0  0  0  0  0  0  0  0  0
   -5.8372    2.5387    0.0000 N   0  0  0  0  0  0  0  0  0  0  0  0
   -6.2497    1.8242    0.0000 N   0  0  0  0  0  0  0  0  0  0  0  0
   -1.2997    1.8242    0.0000 C   0  0  0  0  0  0  0  0  0  0  0  0
   -0.8872    1.1097    0.0000 C   0  0  0  0  0  0  0  0  0  0  0  0
    0.3503    1.8242    0.0000 C   0  0  0  0  0  0  0  0  0  0  0  0
   -0.0622    1.1097    0.0000 C   0  0  0  0  0  0  0  0  0  0  0  0
   -0.8872    2.5387    0.0000 C   0  0  0  0  0  0  0  0  0  0  0  0
    2.4128    2.5387    0.0000 C   0  0  0  0  0  0  0  0  0  0  0  0
    4.0628    2.5387    0.0000 C   0  0  0  0  0  0  0  0  0  0  0  0
   -0.0622    2.5387    0.0000 C   0  0  0  0  0  0  0  0  0  0  0  0
   -3.3622    2.5387    0.0000 C   0  0  0  0  0  0  0  0  0  0  0  0
   -5.0122    2.5387    0.0000 C   0  0  0  0  0  0  0  0  0  0  0  0
    2.8253    1.8242    0.0000 C   0  0  0  0  0  0  0  0  0  0  0  0
    2.8253    3.2531    0.0000 C   0  0  0  0  0  0  0  0  0  0  0  0
    3.6503    1.8242    0.0000 C   0  0  0  0  0  0  0  0  0  0  0  0
    3.6503    3.2531    0.0000 C   0  0  0  0  0  0  0  0  0  0  0  0
   -3.7747    1.8242    0.0000 C   0  0  0  0  0  0  0  0  0  0  0  0
   -3.7747    3.2531    0.0000 C   0  0  0  0  0  0  0  0  0  0  0  0
   -4.5997    1.8242    0.0000 C   0  0  0  0  0  0  0  0  0  0  0  0
   -4.5997    3.2531    0.0000 C   0  0  0  0  0  0  0  0  0  0  0  0
   -7.0747    1.8242    0.0000 C   0  0  0  0  0  0  0  0  0  0  0  0
   -1.2997    0.3952    0.0000 C   0  0  0  0  0  0  0  0  0  0  0  0
   -8.7247    1.8242    0.0000 C   0  0  0  0  0  0  0  0  0  0  0  0
   -7.4872    1.1097    0.0000 C   0  0  0  0  0  0  0  0  0  0  0  0
   -7.4872    2.5387    0.0000 C   0  0  0  0  0  0  0  0  0  0  0  0
    5.3003    1.8242    0.0000 C   0  0  0  0  0  0  0  0  0  0  0  0
    5.3003    3.2531    0.0000 C   0  0  0  0  0  0  0  0  0  0  0  0
   -8.3122    1.1097    0.0000 C   0  0  0  0  0  0  0  0  0  0  0  0
   -8.3122    2.5387    0.0000 C   0  0  0  0  0  0  0  0  0  0  0  0
   -9.5497    1.8242    0.0000 C   0  0  0  0  0  0  0  0  0  0  0  0
    4.8878    3.9676    0.0000 C   0  0  0  0  0  0  0  0  0  0  0  0
    4.8878    1.1097    0.0000 C   0  0  0  0  0  0  0  0  0  0  0  0
   -9.9622    1.1097    0.0000 C   0  0  0  0  0  0  0  0  0  0  0  0
  -10.7872    1.1097    0.0000 C   0  0  0  0  0  0  0  0  0  0  0  0
  -11.1997    0.3952    0.0000 C   0  0  0  0  0  0  0  0  0  0  0  0
  1  4  2  0  0  0  0
  1  8  1  0  0  0  0
  2  3  2  0  0  0  0
  2 10  1  0  0  0  0
  3 13  1  0  0  0  0
  4 16  1  0  0  0  0
  5 14  1  0  0  0  0
  5 31  1  0  0  0  0
  5 32  1  0  0  0  0
  6  7  2  0  0  0  0
  6 17  1  0  0  0  0
  7 26  1  0  0  0  0
  8  9  2  0  0  0  0
  8 12  1  0  0  0  0
  9 11  1  0  0  0  0
  9 27  1  0  0  0  0
 10 11  2  0  0  0  0
 10 15  1  0  0  0  0
 12 15  2  0  0  0  0
 13 18  2  0  0  0  0
 13 19  1  0  0  0  0
 14 20  2  0  0  0  0
 14 21  1  0  0  0  0
 16 22  2  0  0  0  0
 16 23  1  0  0  0  0
 17 24  2  0  0  0  0
 17 25  1  0  0  0  0
 18 20  1  0  0  0  0
 19 21  2  0  0  0  0
 22 24  1  0  0  0  0
 23 25  2  0  0  0  0
 26 29  2  0  0  0  0
 26 30  1  0  0  0  0
 28 33  2  0  0  0  0
 28 34  1  0  0  0  0
 28 35  1  0  0  0  0
 29 33  1  0  0  0  0
 30 34  2  0  0  0  0
 31 37  1  0  0  0  0
 32 36  1  0  0  0  0
 35 38  1  0  0  0  0
 38 39  1  0  0  0  0
 39 40  1  0  0  0  0
M  END
> <PUBCHEM_COMPOUND_ID_TYPE>
0

> <PUBCHEM_TOTAL_CHARGE>
0

> <PUBCHEM_SUBSTANCE_ID>
310947242

> <PUBCHEM_SUBSTANCE_VERSION>
1

> <PUBCHEM_EXT_DATASOURCE_NAME>
4488

> <PUBCHEM_EXT_DATASOURCE_REGID>
SCHEMBL16125397

> <PUBCHEM_SUBSTANCE_COMMENT>
InChI=1S/C33H37N7/c1-5-8-9-26-10-12-27(13-11-26)34-35-28-14-16-29(17-15-28)37-39-33-23-20-31(24-25(33)4)38-36-30-18-21-32(22-19-30)40(6-2)7-3/h10-24H,5-9H2,1-4H3/b35-34+,38-36+,39-37+
InChIKey=WGKQKXPIDNRQHX-XQHDHFLYSA-N

> <PUBCHEM_SUBSTANCE_SYNONYM>
SCHEMBL16125397

> <PUBCHEM_XREF_EXT_ID>
SCHEMBL16125397

> <PUBCHEM_EXT_DATASOURCE_URL>
https://www.surechembl.org/

> <PUBCHEM_EXT_SUBSTANCE_URL>
https://www.surechembl.org/chemical/SCHEMBL16125397

> <PUBCHEM_CID_ASSOCIATIONS>
88577883  1

> <PUBCHEM_COORDINATE_TYPE>
1
3

$$$$
