310930648
  -OEChem-07211613022D

 31 34  0     0  0  0  0  0  0999 V2000
   -6.4303    0.8250    0.0000 S   0  0  0  0  0  0  0  0  0  0  0  0
   -6.0178    1.5395    0.0000 O   0  0  0  0  0  0  0  0  0  0  0  0
   -6.8428    0.1106    0.0000 O   0  0  0  0  0  0  0  0  0  0  0  0
   -2.1434   -1.6500    0.0000 O   0  0  0  0  0  0  0  0  0  0  0  0
    0.0000   -0.4125    0.0000 N   0  0  0  0  0  0  0  0  0  0  0  0
    0.7846    0.6674    0.0000 N   0  0  0  0  0  0  0  0  0  0  0  0
   -2.8579   -0.4125    0.0000 N   0  0  0  0  0  0  0  0  0  0  0  0
   -5.7158    0.4125    0.0000 C   0  0  0  0  0  0  0  0  0  0  0  0
   -7.1448    1.2375    0.0000 C   0  0  0  0  0  0  0  0  0  0  0  0
    0.0000    0.4125    0.0000 C   0  0  0  0  0  0  0  0  0  0  0  0
   -5.0013    0.8250    0.0000 C   0  0  0  0  0  0  0  0  0  0  0  0
   -5.7158   -0.4125    0.0000 C   0  0  0  0  0  0  0  0  0  0  0  0
   -1.4290   -0.4125    0.0000 C   0  0  0  0  0  0  0  0  0  0  0  0
   -7.1448    2.0625    0.0000 C   0  0  0  0  0  0  0  0  0  0  0  0
   -7.8592    0.8250    0.0000 C   0  0  0  0  0  0  0  0  0  0  0  0
   -4.2868   -0.4125    0.0000 C   0  0  0  0  0  0  0  0  0  0  0  0
   -0.7145   -0.8250    0.0000 C   0  0  0  0  0  0  0  0  0  0  0  0
   -8.5737    2.0625    0.0000 C   0  0  0  0  0  0  0  0  0  0  0  0
   -2.1434   -0.8250    0.0000 C   0  0  0  0  0  0  0  0  0  0  0  0
   -4.2868    0.4125    0.0000 C   0  0  0  0  0  0  0  0  0  0  0  0
   -5.0013   -0.8250    0.0000 C   0  0  0  0  0  0  0  0  0  0  0  0
   -7.8592    2.4750    0.0000 C   0  0  0  0  0  0  0  0  0  0  0  0
   -8.5737    1.2375    0.0000 C   0  0  0  0  0  0  0  0  0  0  0  0
   -0.7145    0.8250    0.0000 C   0  0  0  0  0  0  0  0  0  0  0  0
   -1.4290    0.4125    0.0000 C   0  0  0  0  0  0  0  0  0  0  0  0
    0.7846   -0.6674    0.0000 C   0  0  0  0  0  0  0  0  0  0  0  0
   -3.5724   -0.8250    0.0000 C   0  0  0  0  0  0  0  0  0  0  0  0
    1.2696    0.0000    0.0000 C   0  0  0  0  0  0  0  0  0  0  0  0
   -9.2882    2.4750    0.0000 C   0  0  0  0  0  0  0  0  0  0  0  0
   -9.2882    3.3000    0.0000 C   0  0  0  0  0  0  0  0  0  0  0  0
  -10.0027    2.0625    0.0000 C   0  0  0  0  0  0  0  0  0  0  0  0
  1  2  2  0  0  0  0
  1  3  2  0  0  0  0
  1  8  1  0  0  0  0
  1  9  1  0  0  0  0
  4 19  2  0  0  0  0
  5 10  1  0  0  0  0
  5 17  1  0  0  0  0
  5 26  1  0  0  0  0
  6 10  2  0  0  0  0
  6 28  1  0  0  0  0
  7 19  1  0  0  0  0
  7 27  1  0  0  0  0
  8 11  2  0  0  0  0
  8 12  1  0  0  0  0
  9 14  2  0  0  0  0
  9 15  1  0  0  0  0
 10 24  1  0  0  0  0
 11 20  1  0  0  0  0
 12 21  2  0  0  0  0
 13 17  2  0  0  0  0
 13 19  1  0  0  0  0
 13 25  1  0  0  0  0
 14 22  1  0  0  0  0
 15 23  2  0  0  0  0
 16 20  2  0  0  0  0
 16 21  1  0  0  0  0
 16 27  1  0  0  0  0
 18 22  2  0  0  0  0
 18 23  1  0  0  0  0
 18 29  1  0  0  0  0
 24 25  2  0  0  0  0
 26 28  2  0  0  0  0
 29 30  1  0  0  0  0
 29 31  1  0  0  0  0
M  END
> <PUBCHEM_COMPOUND_ID_TYPE>
0

> <PUBCHEM_TOTAL_CHARGE>
0

> <PUBCHEM_SUBSTANCE_ID>
310930648

> <PUBCHEM_SUBSTANCE_VERSION>
1

> <PUBCHEM_EXT_DATASOURCE_NAME>
4488

> <PUBCHEM_EXT_DATASOURCE_REGID>
SCHEMBL16107945

> <PUBCHEM_SUBSTANCE_COMMENT>
InChI=1S/C24H23N3O3S/c1-17(2)19-5-10-22(11-6-19)31(29,30)21-8-3-18(4-9-21)15-26-24(28)20-7-12-23-25-13-14-27(23)16-20/h3-14,16-17H,15H2,1-2H3,(H,26,28)
InChIKey=TUCPWEJEFBJOQJ-UHFFFAOYSA-N

> <PUBCHEM_SUBSTANCE_SYNONYM>
SCHEMBL16107945

> <PUBCHEM_XREF_EXT_ID>
SCHEMBL16107945

> <PUBCHEM_EXT_DATASOURCE_URL>
https://www.surechembl.org/

> <PUBCHEM_EXT_SUBSTANCE_URL>
https://www.surechembl.org/chemical/SCHEMBL16107945

> <PUBCHEM_CID_ASSOCIATIONS>
66614758  1

> <PUBCHEM_COORDINATE_TYPE>
1
3

$$$$
