310937429
  -OEChem-07211613022D

 26 29  0     0  0  0  0  0  0999 V2000
    2.5791   -4.5749    0.0000 O   0  0  0  0  0  0  0  0  0  0  0  0
    4.2064   -1.9958    0.0000 O   0  0  0  0  0  0  0  0  0  0  0  0
    1.3203   -4.1758    0.0000 N   0  0  0  0  0  0  0  0  0  0  0  0
    1.8115   -2.5484    0.0000 N   0  0  0  0  0  0  0  0  0  0  0  0
    2.0879   -5.2504    0.0000 N   0  0  0  0  0  0  0  0  0  0  0  0
    6.2943   -0.0307    0.0000 N   0  0  0  0  0  0  0  0  0  0  0  0
    2.8555   -1.5966    0.0000 C   0  0  0  0  0  0  0  0  0  0  0  0
    2.3642   -3.1318    0.0000 C   0  0  0  0  0  0  0  0  0  0  0  0
    2.0879   -3.9301    0.0000 C   0  0  0  0  0  0  0  0  0  0  0  0
    3.4081   -2.1800    0.0000 C   0  0  0  0  0  0  0  0  0  0  0  0
    3.1011   -0.7983    0.0000 C   0  0  0  0  0  0  0  0  0  0  0  0
    1.3203   -5.0048    0.0000 C   0  0  0  0  0  0  0  0  0  0  0  0
    3.1625   -2.9783    0.0000 C   0  0  0  0  0  0  0  0  0  0  0  0
    0.6448   -5.4654    0.0000 C   0  0  0  0  0  0  0  0  0  0  0  0
    2.0264   -1.7502    0.0000 C   0  0  0  0  0  0  0  0  0  0  0  0
    2.9476    0.0000    0.0000 C   0  0  0  0  0  0  0  0  0  0  0  0
    3.7459   -0.2456    0.0000 C   0  0  0  0  0  0  0  0  0  0  0  0
    4.4521   -1.1975    0.0000 C   0  0  0  0  0  0  0  0  0  0  0  0
    0.1535   -4.7898    0.0000 C   0  0  0  0  0  0  0  0  0  0  0  0
    0.0000   -5.9566    0.0000 C   0  0  0  0  0  0  0  0  0  0  0  0
    1.1361   -6.1408    0.0000 C   0  0  0  0  0  0  0  0  0  0  0  0
    5.2504   -1.0132    0.0000 C   0  0  0  0  0  0  0  0  0  0  0  0
    5.5267   -0.2150    0.0000 C   0  0  0  0  0  0  0  0  0  0  0  0
    5.8338   -1.5966    0.0000 C   0  0  0  0  0  0  0  0  0  0  0  0
    6.6321   -1.4124    0.0000 C   0  0  0  0  0  0  0  0  0  0  0  0
    6.8777   -0.6448    0.0000 C   0  0  0  0  0  0  0  0  0  0  0  0
  1  5  1  0  0  0  0
  1  9  1  0  0  0  0
  2 10  1  0  0  0  0
  2 18  1  0  0  0  0
  3  9  2  0  0  0  0
  3 12  1  0  0  0  0
  4  8  1  0  0  0  0
  4 15  2  0  0  0  0
  5 12  2  0  0  0  0
  6 23  1  0  0  0  0
  6 26  2  0  0  0  0
  7 10  2  0  0  0  0
  7 11  1  0  0  0  0
  7 15  1  0  0  0  0
  8  9  1  0  0  0  0
  8 13  2  0  0  0  0
 10 13  1  0  0  0  0
 11 16  1  0  0  0  0
 11 17  1  0  0  0  0
 12 14  1  0  0  0  0
 14 19  1  0  0  0  0
 14 20  1  0  0  0  0
 14 21  1  0  0  0  0
 16 17  1  0  0  0  0
 18 22  1  0  0  0  0
 22 23  2  0  0  0  0
 22 24  1  0  0  0  0
 24 25  2  0  0  0  0
 25 26  1  0  0  0  0
M  END
> <PUBCHEM_COMPOUND_ID_TYPE>
0

> <PUBCHEM_TOTAL_CHARGE>
0

> <PUBCHEM_SUBSTANCE_ID>
310937429

> <PUBCHEM_SUBSTANCE_VERSION>
1

> <PUBCHEM_EXT_DATASOURCE_NAME>
4488

> <PUBCHEM_EXT_DATASOURCE_REGID>
SCHEMBL16115193

> <PUBCHEM_SUBSTANCE_COMMENT>
InChI=1S/C20H22N4O2/c1-20(2,3)19-23-18(26-24-19)16-9-17(15(11-22-16)14-6-7-14)25-12-13-5-4-8-21-10-13/h4-5,8-11,14H,6-7,12H2,1-3H3
InChIKey=ZDIVRCOUEVDYIV-UHFFFAOYSA-N

> <PUBCHEM_SUBSTANCE_SYNONYM>
SCHEMBL16115193

> <PUBCHEM_XREF_EXT_ID>
SCHEMBL16115193

> <PUBCHEM_EXT_DATASOURCE_URL>
https://www.surechembl.org/

> <PUBCHEM_EXT_SUBSTANCE_URL>
https://www.surechembl.org/chemical/SCHEMBL16115193

> <PUBCHEM_CID_ASSOCIATIONS>
117605182  1

> <PUBCHEM_COORDINATE_TYPE>
1
3

$$$$
