310943757
  -OEChem-07211613022D

 38 42  0     0  0  0  0  0  0999 V2000
    4.6508    2.3942    0.0000 F   0  0  0  0  0  0  0  0  0  0  0  0
    5.3626    1.9898    0.0000 F   0  0  0  0  0  0  0  0  0  0  0  0
    5.3626    1.1647    0.0000 F   0  0  0  0  0  0  0  0  0  0  0  0
   -2.0787   -2.7986    0.0000 O   0  0  0  0  0  0  0  0  0  0  0  0
   -5.3626    2.3942    0.0000 O   0  0  0  0  0  0  0  0  0  0  0  0
    1.7876    2.3942    0.0000 O   0  0  0  0  0  0  0  0  0  0  0  0
   -2.4993   -0.9059    0.0000 N   0  0  0  0  0  0  0  0  0  0  0  0
   -3.2111    0.3397    0.0000 N   0  0  0  0  0  0  0  0  0  0  0  0
   -3.9229    1.5692    0.0000 N   0  0  0  0  0  0  0  0  0  0  0  0
   -0.3478    2.8148    0.0000 N   0  0  0  0  0  0  0  0  0  0  0  0
    1.0758    1.1647    0.0000 N   0  0  0  0  0  0  0  0  0  0  0  0
    3.9390    0.3397    0.0000 N   0  0  0  0  0  0  0  0  0  0  0  0
   -2.4993   -0.0809    0.0000 C   0  0  0  0  0  0  0  0  0  0  0  0
   -2.4993   -2.0706    0.0000 C   0  0  0  0  0  0  0  0  0  0  0  0
   -1.7713    1.1647    0.0000 C   0  0  0  0  0  0  0  0  0  0  0  0
   -1.0758    1.5692    0.0000 C   0  0  0  0  0  0  0  0  0  0  0  0
   -3.0655   -1.5045    0.0000 C   0  0  0  0  0  0  0  0  0  0  0  0
   -1.9331   -1.5045    0.0000 C   0  0  0  0  0  0  0  0  0  0  0  0
   -3.2111    1.1647    0.0000 C   0  0  0  0  0  0  0  0  0  0  0  0
   -1.7876    0.3235    0.0000 C   0  0  0  0  0  0  0  0  0  0  0  0
   -2.4993    1.5692    0.0000 C   0  0  0  0  0  0  0  0  0  0  0  0
   -1.0596    2.3942    0.0000 C   0  0  0  0  0  0  0  0  0  0  0  0
   -0.3316    1.1647    0.0000 C   0  0  0  0  0  0  0  0  0  0  0  0
    0.3478    1.5692    0.0000 C   0  0  0  0  0  0  0  0  0  0  0  0
   -2.8876   -2.8148    0.0000 C   0  0  0  0  0  0  0  0  0  0  0  0
    2.4993    1.1647    0.0000 C   0  0  0  0  0  0  0  0  0  0  0  0
    0.3640    2.3942    0.0000 C   0  0  0  0  0  0  0  0  0  0  0  0
    1.7713    1.5530    0.0000 C   0  0  0  0  0  0  0  0  0  0  0  0
    3.9390    1.1647    0.0000 C   0  0  0  0  0  0  0  0  0  0  0  0
   -3.9390    2.3942    0.0000 C   0  0  0  0  0  0  0  0  0  0  0  0
   -4.6185    1.1647    0.0000 C   0  0  0  0  0  0  0  0  0  0  0  0
    4.6508    1.5692    0.0000 C   0  0  0  0  0  0  0  0  0  0  0  0
    3.2111    1.5692    0.0000 C   0  0  0  0  0  0  0  0  0  0  0  0
   -1.7876    2.7824    0.0000 C   0  0  0  0  0  0  0  0  0  0  0  0
    2.4993    0.3397    0.0000 C   0  0  0  0  0  0  0  0  0  0  0  0
    3.2272   -0.0809    0.0000 C   0  0  0  0  0  0  0  0  0  0  0  0
   -4.6508    2.7986    0.0000 C   0  0  0  0  0  0  0  0  0  0  0  0
   -5.3464    1.5692    0.0000 C   0  0  0  0  0  0  0  0  0  0  0  0
  1 32  1  0  0  0  0
  2 32  1  0  0  0  0
  3 32  1  0  0  0  0
  4 14  1  0  0  0  0
  5 37  1  0  0  0  0
  5 38  1  0  0  0  0
  6 28  2  0  0  0  0
  7 13  1  0  0  0  0
  7 17  1  0  0  0  0
  7 18  1  0  0  0  0
  8 13  1  0  0  0  0
  8 19  2  0  0  0  0
  9 19  1  0  0  0  0
  9 30  1  0  0  0  0
  9 31  1  0  0  0  0
 10 22  2  0  0  0  0
 10 27  1  0  0  0  0
 11 24  1  0  0  0  0
 11 28  1  0  0  0  0
 12 29  1  0  0  0  0
 12 36  2  0  0  0  0
 13 20  2  0  0  0  0
 14 17  1  0  0  0  0
 14 18  1  0  0  0  0
 14 25  1  0  0  0  0
 15 16  1  0  0  0  0
 15 20  1  0  0  0  0
 15 21  2  0  0  0  0
 16 22  1  0  0  0  0
 16 23  2  0  0  0  0
 19 21  1  0  0  0  0
 22 34  1  0  0  0  0
 23 24  1  0  0  0  0
 24 27  2  0  0  0  0
 26 28  1  0  0  0  0
 26 33  1  0  0  0  0
 26 35  2  0  0  0  0
 29 32  1  0  0  0  0
 29 33  2  0  0  0  0
 30 37  1  0  0  0  0
 31 38  1  0  0  0  0
 35 36  1  0  0  0  0
M  END
> <PUBCHEM_COMPOUND_ID_TYPE>
0

> <PUBCHEM_TOTAL_CHARGE>
0

> <PUBCHEM_SUBSTANCE_ID>
310943757

> <PUBCHEM_SUBSTANCE_VERSION>
1

> <PUBCHEM_EXT_DATASOURCE_NAME>
4488

> <PUBCHEM_EXT_DATASOURCE_REGID>
SCHEMBL16121826

> <PUBCHEM_SUBSTANCE_COMMENT>
InChI=1S/C26H27F3N6O3/c1-16-20(12-19(13-31-16)32-24(36)17-3-4-30-21(9-17)26(27,28)29)18-10-22(34-5-7-38-8-6-34)33-23(11-18)35-14-25(2,37)15-35/h3-4,9-13,37H,5-8,14-15H2,1-2H3,(H,32,36)
InChIKey=NMDPUDHWDDVMOD-UHFFFAOYSA-N

> <PUBCHEM_SUBSTANCE_SYNONYM>
SCHEMBL16121826

> <PUBCHEM_XREF_EXT_ID>
SCHEMBL16121826

> <PUBCHEM_EXT_DATASOURCE_URL>
https://www.surechembl.org/

> <PUBCHEM_EXT_SUBSTANCE_URL>
https://www.surechembl.org/chemical/SCHEMBL16121826

> <PUBCHEM_CID_ASSOCIATIONS>
117610119  1

> <PUBCHEM_COORDINATE_TYPE>
1
3

$$$$
