310947288
  -OEChem-07211613022D

 43 47  0     1  0  0  0  0  0999 V2000
    3.6922    3.5859    0.0000 O   0  0  0  0  0  0  0  0  0  0  0  0
   -3.3609    4.4744    0.0000 O   0  0  0  0  0  0  0  0  0  0  0  0
    2.4547    2.8714    0.0000 O   0  0  0  0  0  0  0  0  0  0  0  0
   -7.6477    1.1744    0.0000 O   0  5  0  0  0  0  0  0  0  0  0  0
   -8.3622    2.4119    0.0000 O   0  0  0  0  0  0  0  0  0  0  0  0
   -0.4328    2.1569    0.0000 N   0  0  0  0  0  0  0  0  0  0  0  0
    0.0521    2.8244    0.0000 N   0  0  0  0  0  0  0  0  0  0  0  0
   -4.0753    3.2369    0.0000 N   0  0  0  0  0  0  0  0  0  0  0  0
   -7.6477    1.9994    0.0000 N   0  3  0  0  0  0  0  0  0  0  0  0
   -1.2175    2.4119    0.0000 C   0  0  0  0  0  0  0  0  0  0  0  0
   -1.2175    3.2369    0.0000 C   0  0  0  0  0  0  0  0  0  0  0  0
   -2.6464    3.2369    0.0000 C   0  0  0  0  0  0  0  0  0  0  0  0
   -1.9319    3.6494    0.0000 C   0  0  0  0  0  0  0  0  0  0  0  0
   -0.4328    3.4918    0.0000 C   0  0  0  0  0  0  0  0  0  0  0  0
   -1.9319    1.9994    0.0000 C   0  0  0  0  0  0  0  0  0  0  0  0
   -0.0203    1.4424    0.0000 C   0  0  0  0  0  0  0  0  0  0  0  0
    3.2797    1.4424    0.0000 C   0  0  0  0  0  0  0  0  0  0  0  0
    0.8047    1.4424    0.0000 C   0  0  0  0  0  0  0  0  0  0  0  0
    2.4547    1.4424    0.0000 C   0  0  0  0  0  0  0  0  0  0  0  0
   -2.6464    2.4119    0.0000 C   0  0  0  0  0  0  0  0  0  0  0  0
    3.6922    2.1569    0.0000 C   0  0  0  0  0  0  0  0  0  0  0  0
   -3.3609    3.6494    0.0000 C   0  0  0  0  0  0  0  0  0  0  0  0
    1.2172    0.7280    0.0000 C   0  0  0  0  0  0  0  0  0  0  0  0
    1.2172    2.1569    0.0000 C   0  0  0  0  0  0  0  0  0  0  0  0
    2.0422    0.7280    0.0000 C   0  0  0  0  0  0  0  0  0  0  0  0
    2.0422    2.1569    0.0000 C   0  0  0  0  0  0  0  0  0  0  0  0
    3.2797    2.8714    0.0000 C   0  0  0  0  0  0  0  0  0  0  0  0
    3.6922    0.7280    0.0000 C   0  0  0  0  0  0  0  0  0  0  0  0
    4.5172    2.1569    0.0000 C   0  0  0  0  0  0  0  0  0  0  0  0
   -4.7898    3.6494    0.0000 C   0  0  3  0  0  0  0  0  0  0  0  0
   -5.5043    3.2369    0.0000 C   0  0  0  0  0  0  0  0  0  0  0  0
    4.5172    0.7280    0.0000 C   0  0  0  0  0  0  0  0  0  0  0  0
    4.9297    1.4424    0.0000 C   0  0  0  0  0  0  0  0  0  0  0  0
    3.2797    4.3003    0.0000 C   0  0  0  0  0  0  0  0  0  0  0  0
   -6.2187    3.6494    0.0000 C   0  0  0  0  0  0  0  0  0  0  0  0
   -5.5043    2.4119    0.0000 C   0  0  0  0  0  0  0  0  0  0  0  0
   -6.9332    2.4119    0.0000 C   0  0  0  0  0  0  0  0  0  0  0  0
   -6.9332    3.2369    0.0000 C   0  0  0  0  0  0  0  0  0  0  0  0
   -6.2187    1.9994    0.0000 C   0  0  0  0  0  0  0  0  0  0  0  0
   -4.7898    4.4744    0.0000 C   0  0  0  0  0  0  0  0  0  0  0  0
    3.6922    5.0148    0.0000 C   0  0  0  0  0  0  0  0  0  0  0  0
    2.4547    4.3003    0.0000 C   0  0  0  0  0  0  0  0  0  0  0  0
    4.1047    4.3003    0.0000 C   0  0  0  0  0  0  0  0  0  0  0  0
  1 27  1  0  0  0  0
  1 34  1  0  0  0  0
  2 22  2  0  0  0  0
  3 27  2  0  0  0  0
  4  9  1  0  0  0  0
  5  9  2  0  0  0  0
  6  7  1  0  0  0  0
  6 10  1  0  0  0  0
  6 16  1  0  0  0  0
  7 14  2  0  0  0  0
  8 22  1  0  0  0  0
  8 30  1  0  0  0  0
  9 37  1  0  0  0  0
 10 11  1  0  0  0  0
 10 15  2  0  0  0  0
 11 13  2  0  0  0  0
 11 14  1  0  0  0  0
 12 13  1  0  0  0  0
 12 20  2  0  0  0  0
 12 22  1  0  0  0  0
 15 20  1  0  0  0  0
 16 18  1  0  0  0  0
 17 19  1  0  0  0  0
 17 21  1  0  0  0  0
 17 28  2  0  0  0  0
 18 23  2  0  0  0  0
 18 24  1  0  0  0  0
 19 25  2  0  0  0  0
 19 26  1  0  0  0  0
 21 27  1  0  0  0  0
 21 29  2  0  0  0  0
 23 25  1  0  0  0  0
 24 26  2  0  0  0  0
 28 32  1  0  0  0  0
 29 33  1  0  0  0  0
 30 31  1  0  0  0  0
 30 40  1  6  0  0  0
 31 35  2  0  0  0  0
 31 36  1  0  0  0  0
 32 33  2  0  0  0  0
 34 41  1  0  0  0  0
 34 42  1  0  0  0  0
 34 43  1  0  0  0  0
 35 38  1  0  0  0  0
 36 39  2  0  0  0  0
 37 38  2  0  0  0  0
 37 39  1  0  0  0  0
M  CHG  2   4  -1   9   1
M  END
> <PUBCHEM_COMPOUND_ID_TYPE>
0

> <PUBCHEM_TOTAL_CHARGE>
0

> <PUBCHEM_SUBSTANCE_ID>
310947288

> <PUBCHEM_SUBSTANCE_VERSION>
1

> <PUBCHEM_EXT_DATASOURCE_NAME>
4488

> <PUBCHEM_EXT_DATASOURCE_REGID>
SCHEMBL16125443

> <PUBCHEM_SUBSTANCE_COMMENT>
InChI=1S/C34H32N4O5/c1-22(24-13-16-28(17-14-24)38(41)42)36-32(39)26-15-18-31-27(19-26)20-35-37(31)21-23-9-11-25(12-10-23)29-7-5-6-8-30(29)33(40)43-34(2,3)4/h5-20,22H,21H2,1-4H3,(H,36,39)/t22-/m0/s1
InChIKey=OGPFUHKDQBTORR-QFIPXVFZSA-N

> <PUBCHEM_SUBSTANCE_SYNONYM>
SCHEMBL16125443

> <PUBCHEM_XREF_EXT_ID>
SCHEMBL16125443

> <PUBCHEM_EXT_DATASOURCE_URL>
https://www.surechembl.org/

> <PUBCHEM_EXT_SUBSTANCE_URL>
https://www.surechembl.org/chemical/SCHEMBL16125443

> <PUBCHEM_CID_ASSOCIATIONS>
117613078  1

> <PUBCHEM_COORDINATE_TYPE>
1
3

> <PUBCHEM_BONDANNOTATIONS>
30  40  6

$$$$
