310942840
  -OEChem-07211613022D

 36 41  0     0  0  0  0  0  0999 V2000
    6.8591   -0.2302    0.0000 F   0  0  0  0  0  0  0  0  0  0  0  0
   -4.8566   -1.0358    0.0000 O   0  0  0  0  0  0  0  0  0  0  0  0
    4.5804    1.6112    0.0000 O   0  0  0  0  0  0  0  0  0  0  0  0
   -4.8566    1.4501    0.0000 O   0  0  0  0  0  0  0  0  0  0  0  0
   -2.0025   -1.0358    0.0000 O   0  0  0  0  0  0  0  0  0  0  0  0
    3.7748    1.4501    0.0000 N   0  0  0  0  0  0  0  0  0  0  0  0
    1.5651   -0.6215    0.0000 N   0  0  0  0  0  0  0  0  0  0  0  0
   -5.5702   -0.6215    0.0000 C   0  0  0  0  0  0  0  0  0  0  0  0
   -4.1431   -0.6215    0.0000 C   0  0  0  0  0  0  0  0  0  0  0  0
   -4.1431    0.2071    0.0000 C   0  0  0  0  0  0  0  0  0  0  0  0
   -4.8566    0.6215    0.0000 C   0  0  0  0  0  0  0  0  0  0  0  0
   -5.5472    0.2302    0.0000 C   0  0  0  0  0  0  0  0  0  0  0  0
    4.4423    0.2992    0.0000 C   0  0  0  0  0  0  0  0  0  0  0  0
    3.6827    0.6445    0.0000 C   0  0  0  0  0  0  0  0  0  0  0  0
    4.9718    0.9207    0.0000 C   0  0  0  0  0  0  0  0  0  0  0  0
   -6.3298   -0.2992    0.0000 C   0  0  0  0  0  0  0  0  0  0  0  0
   -5.6622   -1.4501    0.0000 C   0  0  0  0  0  0  0  0  0  0  0  0
   -3.4066   -1.0128    0.0000 C   0  0  0  0  0  0  0  0  0  0  0  0
    2.9693    0.2302    0.0000 C   0  0  0  0  0  0  0  0  0  0  0  0
   -3.4296    0.6215    0.0000 C   0  0  0  0  0  0  0  0  0  0  0  0
   -2.7160   -0.5985    0.0000 C   0  0  0  0  0  0  0  0  0  0  0  0
    4.7185   -0.5063    0.0000 C   0  0  0  0  0  0  0  0  0  0  0  0
    5.8004    0.7135    0.0000 C   0  0  0  0  0  0  0  0  0  0  0  0
   -6.8591   -0.8977    0.0000 C   0  0  0  0  0  0  0  0  0  0  0  0
   -6.4678   -1.6112    0.0000 C   0  0  0  0  0  0  0  0  0  0  0  0
   -2.7160    0.2071    0.0000 C   0  0  0  0  0  0  0  0  0  0  0  0
    6.0304   -0.0460    0.0000 C   0  0  0  0  0  0  0  0  0  0  0  0
    5.5011   -0.6676    0.0000 C   0  0  0  0  0  0  0  0  0  0  0  0
    2.9462   -0.6445    0.0000 C   0  0  0  0  0  0  0  0  0  0  0  0
    2.2557    0.6215    0.0000 C   0  0  0  0  0  0  0  0  0  0  0  0
    1.5651    0.2071    0.0000 C   0  0  0  0  0  0  0  0  0  0  0  0
    2.3017   -1.0358    0.0000 C   0  0  0  0  0  0  0  0  0  0  0  0
   -1.3119   -0.6215    0.0000 C   0  0  0  0  0  0  0  0  0  0  0  0
    0.8747   -1.0358    0.0000 C   0  0  0  0  0  0  0  0  0  0  0  0
   -0.5524   -1.0358    0.0000 C   0  0  0  0  0  0  0  0  0  0  0  0
    0.1150   -0.6215    0.0000 C   0  0  0  0  0  0  0  0  0  0  0  0
  1 27  1  0  0  0  0
  2  8  1  0  0  0  0
  2  9  1  0  0  0  0
  3  6  1  0  0  0  0
  3 15  1  0  0  0  0
  4 11  2  0  0  0  0
  5 21  1  0  0  0  0
  5 33  1  0  0  0  0
  6 14  2  0  0  0  0
  7 31  1  0  0  0  0
  7 32  1  0  0  0  0
  7 34  1  0  0  0  0
  8 12  1  0  0  0  0
  8 16  1  0  0  0  0
  8 17  1  0  0  0  0
  9 10  2  0  0  0  0
  9 18  1  0  0  0  0
 10 11  1  0  0  0  0
 10 20  1  0  0  0  0
 11 12  1  0  0  0  0
 13 14  1  0  0  0  0
 13 15  2  0  0  0  0
 13 22  1  0  0  0  0
 14 19  1  0  0  0  0
 15 23  1  0  0  0  0
 16 24  1  0  0  0  0
 17 25  1  0  0  0  0
 18 21  2  0  0  0  0
 19 29  1  0  0  0  0
 19 30  1  0  0  0  0
 20 26  2  0  0  0  0
 21 26  1  0  0  0  0
 22 28  2  0  0  0  0
 23 27  2  0  0  0  0
 24 25  1  0  0  0  0
 27 28  1  0  0  0  0
 29 32  1  0  0  0  0
 30 31  1  0  0  0  0
 33 35  1  0  0  0  0
 34 36  1  0  0  0  0
 35 36  1  0  0  0  0
M  END
> <PUBCHEM_COMPOUND_ID_TYPE>
0

> <PUBCHEM_TOTAL_CHARGE>
0

> <PUBCHEM_SUBSTANCE_ID>
310942840

> <PUBCHEM_SUBSTANCE_VERSION>
1

> <PUBCHEM_EXT_DATASOURCE_NAME>
4488

> <PUBCHEM_EXT_DATASOURCE_REGID>
SCHEMBL16120895

> <PUBCHEM_SUBSTANCE_COMMENT>
InChI=1S/C29H33FN2O4/c30-21-5-7-24-27(17-21)36-31-28(24)20-9-14-32(15-10-20)13-3-4-16-34-22-6-8-23-25(33)19-29(11-1-2-12-29)35-26(23)18-22/h5-8,17-18,20H,1-4,9-16,19H2
InChIKey=JXPRUSGUNVAYTR-UHFFFAOYSA-N

> <PUBCHEM_SUBSTANCE_SYNONYM>
SCHEMBL16120895

> <PUBCHEM_XREF_EXT_ID>
SCHEMBL16120895

> <PUBCHEM_EXT_DATASOURCE_URL>
https://www.surechembl.org/

> <PUBCHEM_EXT_SUBSTANCE_URL>
https://www.surechembl.org/chemical/SCHEMBL16120895

> <PUBCHEM_CID_ASSOCIATIONS>
86274950  1

> <PUBCHEM_COORDINATE_TYPE>
1
3

$$$$
