310949182
  -OEChem-07211613022D

 10 10  0     0  0  0  0  0  0999 V2000
   -0.5146    2.3057    0.0000 I   0  0  0  0  0  0  0  0  0  0  0  0
    0.1304   -0.9882    0.0000 N   0  0  0  0  0  0  0  0  0  0  0  0
    1.0225   -1.9901    0.0000 N   0  0  0  0  0  0  0  0  0  0  0  0
   -1.0225    1.8391    0.0000 N   0  0  0  0  0  0  0  0  0  0  0  0
    0.9264   -1.1529    0.0000 C   0  0  0  0  0  0  0  0  0  0  0  0
   -0.2951   -1.7018    0.0000 C   0  0  0  0  0  0  0  0  0  0  0  0
   -0.4598   -0.3980    0.0000 C   0  0  0  0  0  0  0  0  0  0  0  0
    0.2539   -2.3057    0.0000 C   0  0  0  0  0  0  0  0  0  0  0  0
   -0.4460    0.4392    0.0000 C   0  0  0  0  0  0  0  0  0  0  0  0
   -1.0225    1.0294    0.0000 C   0  0  0  0  0  0  0  0  0  0  0  0
  1  4  1  0  0  0  0
  2  5  1  0  0  0  0
  2  6  1  0  0  0  0
  2  7  1  0  0  0  0
  3  5  2  0  0  0  0
  3  8  1  0  0  0  0
  4 10  1  0  0  0  0
  6  8  2  0  0  0  0
  7  9  1  0  0  0  0
  9 10  1  0  0  0  0
M  END
> <PUBCHEM_COMPOUND_ID_TYPE>
0

> <PUBCHEM_TOTAL_CHARGE>
0

> <PUBCHEM_SUBSTANCE_ID>
310949182

> <PUBCHEM_SUBSTANCE_VERSION>
1

> <PUBCHEM_EXT_DATASOURCE_NAME>
4488

> <PUBCHEM_EXT_DATASOURCE_REGID>
SCHEMBL16127372

> <PUBCHEM_SUBSTANCE_COMMENT>
InChI=1S/C6H10IN3/c7-9-2-1-4-10-5-3-8-6-10/h3,5-6,9H,1-2,4H2
InChIKey=OMTHAYULOUOJAT-UHFFFAOYSA-N

> <PUBCHEM_SUBSTANCE_SYNONYM>
SCHEMBL16127372

> <PUBCHEM_XREF_EXT_ID>
SCHEMBL16127372

> <PUBCHEM_EXT_DATASOURCE_URL>
https://www.surechembl.org/

> <PUBCHEM_EXT_SUBSTANCE_URL>
https://www.surechembl.org/chemical/SCHEMBL16127372

> <PUBCHEM_CID_ASSOCIATIONS>
117614673  1

> <PUBCHEM_COORDINATE_TYPE>
1
3

$$$$
