310948696
  -OEChem-07211613022D

 13 13  0     1  0  0  0  0  0999 V2000
   -0.0344    1.1686    0.0000 O   0  0  0  0  0  0  0  0  0  0  0  0
    1.3817   -0.4674    0.0000 O   0  0  0  0  0  0  0  0  0  0  0  0
   -0.0344   -1.2923    0.0000 O   0  0  0  0  0  0  0  0  0  0  0  0
   -1.4367   -0.4674    0.0000 O   0  0  0  0  0  0  0  0  0  0  0  0
   -2.1516    0.7562    0.0000 O   0  0  0  0  0  0  0  0  0  0  0  0
    0.6668   -0.0550    0.0000 C   0  0  3  0  0  0  0  0  0  0  0  0
   -0.0206   -0.4674    0.0000 C   0  0  3  0  0  0  0  0  0  0  0  0
   -0.7356   -0.0550    0.0000 C   0  0  3  0  0  0  0  0  0  0  0  0
   -0.7356    0.7699    0.0000 C   0  0  3  0  0  0  0  0  0  0  0  0
    0.6805    0.7699    0.0000 C   0  0  3  0  0  0  0  0  0  0  0  0
   -1.4230    1.1824    0.0000 C   0  0  0  0  0  0  0  0  0  0  0  0
    2.1516    1.7049    0.0000 C   0  0  0  0  0  0  0  0  0  0  0  0
    1.3817   -1.7049    0.0000 C   0  0  0  0  0  0  0  0  0  0  0  0
  1  9  1  0  0  0  0
  1 10  1  0  0  0  0
  6  2  1  1  0  0  0
  2 13  1  0  0  0  0
  7  3  1  1  0  0  0
  8  4  1  6  0  0  0
  5 11  1  0  0  0  0
  6  7  1  0  0  0  0
  6 10  1  0  0  0  0
  7  8  1  0  0  0  0
  8  9  1  0  0  0  0
  9 11  1  6  0  0  0
 10 12  1  0  0  0  0
M  END
> <PUBCHEM_COMPOUND_ID_TYPE>
0

> <PUBCHEM_TOTAL_CHARGE>
0

> <PUBCHEM_SUBSTANCE_ID>
310948696

> <PUBCHEM_SUBSTANCE_VERSION>
1

> <PUBCHEM_EXT_DATASOURCE_NAME>
4488

> <PUBCHEM_EXT_DATASOURCE_REGID>
SCHEMBL16126880

> <PUBCHEM_SUBSTANCE_COMMENT>
InChI=1S/C8H16O5/c1-4-8(12-2)7(11)6(10)5(3-9)13-4/h4-11H,3H2,1-2H3/t4?,5-,6+,7-,8+/m0/s1
InChIKey=YOOVLMSQNVYNLT-YMSFOUKASA-N

> <PUBCHEM_SUBSTANCE_SYNONYM>
SCHEMBL16126880

> <PUBCHEM_XREF_EXT_ID>
SCHEMBL16126880

> <PUBCHEM_EXT_DATASOURCE_URL>
https://www.surechembl.org/

> <PUBCHEM_EXT_SUBSTANCE_URL>
https://www.surechembl.org/chemical/SCHEMBL16126880

> <PUBCHEM_CID_ASSOCIATIONS>
117614237  1

> <PUBCHEM_COORDINATE_TYPE>
1
3

> <PUBCHEM_BONDANNOTATIONS>
6  2  5
7  3  5
8  4  6
9  11  6

$$$$
