310941975
  -OEChem-07211613022D

 17 19  0     0  0  0  0  0  0999 V2000
   -2.3376   -1.8117    0.0000 F   0  0  0  0  0  0  0  0  0  0  0  0
    2.6152    0.8474    0.0000 O   0  0  0  0  0  0  0  0  0  0  0  0
   -0.5406   -1.3295    0.0000 N   0  0  0  0  0  0  0  0  0  0  0  0
   -0.1461   -0.0438    0.0000 C   0  0  0  0  0  0  0  0  0  0  0  0
   -0.9935   -0.0292    0.0000 C   0  0  0  0  0  0  0  0  0  0  0  0
   -1.2565   -0.8182    0.0000 C   0  0  0  0  0  0  0  0  0  0  0  0
    0.1169   -0.8036    0.0000 C   0  0  0  0  0  0  0  0  0  0  0  0
   -2.0747   -0.9935    0.0000 C   0  0  0  0  0  0  0  0  0  0  0  0
    0.4091    0.5552    0.0000 C   0  0  0  0  0  0  0  0  0  0  0  0
    1.2272    0.3945    0.0000 C   0  0  0  0  0  0  0  0  0  0  0  0
   -1.5487    0.5552    0.0000 C   0  0  0  0  0  0  0  0  0  0  0  0
    0.9351   -0.9935    0.0000 C   0  0  0  0  0  0  0  0  0  0  0  0
    1.4902   -0.3798    0.0000 C   0  0  0  0  0  0  0  0  0  0  0  0
   -2.6152   -0.3798    0.0000 C   0  0  0  0  0  0  0  0  0  0  0  0
   -2.3522    0.3798    0.0000 C   0  0  0  0  0  0  0  0  0  0  0  0
    1.7678    1.0373    0.0000 C   0  0  0  0  0  0  0  0  0  0  0  0
    1.5048    1.8117    0.0000 C   0  0  0  0  0  0  0  0  0  0  0  0
  1  8  1  0  0  0  0
  2 16  2  0  0  0  0
  3  6  1  0  0  0  0
  3  7  1  0  0  0  0
  4  5  1  0  0  0  0
  4  7  2  0  0  0  0
  4  9  1  0  0  0  0
  5  6  1  0  0  0  0
  5 11  2  0  0  0  0
  6  8  2  0  0  0  0
  7 12  1  0  0  0  0
  8 14  1  0  0  0  0
  9 10  2  0  0  0  0
 10 13  1  0  0  0  0
 10 16  1  0  0  0  0
 11 15  1  0  0  0  0
 12 13  2  0  0  0  0
 14 15  2  0  0  0  0
 16 17  1  0  0  0  0
M  END
> <PUBCHEM_COMPOUND_ID_TYPE>
0

> <PUBCHEM_TOTAL_CHARGE>
0

> <PUBCHEM_SUBSTANCE_ID>
310941975

> <PUBCHEM_SUBSTANCE_VERSION>
1

> <PUBCHEM_EXT_DATASOURCE_NAME>
4488

> <PUBCHEM_EXT_DATASOURCE_REGID>
SCHEMBL16120009

> <PUBCHEM_SUBSTANCE_COMMENT>
InChI=1S/C14H10FNO/c1-8(17)9-5-6-13-11(7-9)10-3-2-4-12(15)14(10)16-13/h2-7,16H,1H3
InChIKey=ABVGQCHSXPWHSU-UHFFFAOYSA-N

> <PUBCHEM_SUBSTANCE_SYNONYM>
SCHEMBL16120009

> <PUBCHEM_XREF_EXT_ID>
SCHEMBL16120009

> <PUBCHEM_EXT_DATASOURCE_URL>
https://www.surechembl.org/

> <PUBCHEM_EXT_SUBSTANCE_URL>
https://www.surechembl.org/chemical/SCHEMBL16120009

> <PUBCHEM_CID_ASSOCIATIONS>
117608681  1

> <PUBCHEM_COORDINATE_TYPE>
1
3

$$$$
