310949020
  -OEChem-07211613022D

 13 14  0     0  0  0  0  0  0999 V2000
    0.9033    1.4420    0.0000 I   0  0  0  0  0  0  0  0  0  0  0  0
    1.1863   -1.5835    0.0000 F   0  0  0  0  0  0  0  0  0  0  0  0
    0.4788   -2.0079    0.0000 F   0  0  0  0  0  0  0  0  0  0  0  0
    0.8162   -0.4081    0.0000 O   0  0  0  0  0  0  0  0  0  0  0  0
   -0.3265   -1.0938    0.0000 O   0  0  0  0  0  0  0  0  0  0  0  0
    0.1959    0.1687    0.0000 C   0  0  0  0  0  0  0  0  0  0  0  0
    0.4898   -1.1699    0.0000 C   0  0  0  0  0  0  0  0  0  0  0  0
   -0.4788   -0.2557    0.0000 C   0  0  0  0  0  0  0  0  0  0  0  0
    0.2177    1.0176    0.0000 C   0  0  0  0  0  0  0  0  0  0  0  0
   -0.5006    1.4420    0.0000 C   0  0  0  0  0  0  0  0  0  0  0  0
   -1.1863    0.1687    0.0000 C   0  0  0  0  0  0  0  0  0  0  0  0
   -1.1863    1.0067    0.0000 C   0  0  0  0  0  0  0  0  0  0  0  0
   -0.5006    2.0079    0.0000 C   0  0  0  0  0  0  0  0  0  0  0  0
  1  9  1  0  0  0  0
  2  7  1  0  0  0  0
  3  7  1  0  0  0  0
  4  6  1  0  0  0  0
  4  7  1  0  0  0  0
  5  7  1  0  0  0  0
  5  8  1  0  0  0  0
  6  8  2  0  0  0  0
  6  9  1  0  0  0  0
  8 11  1  0  0  0  0
  9 10  2  0  0  0  0
 10 12  1  0  0  0  0
 10 13  1  0  0  0  0
 11 12  2  0  0  0  0
M  END
> <PUBCHEM_COMPOUND_ID_TYPE>
0

> <PUBCHEM_TOTAL_CHARGE>
0

> <PUBCHEM_SUBSTANCE_ID>
310949020

> <PUBCHEM_SUBSTANCE_VERSION>
1

> <PUBCHEM_EXT_DATASOURCE_NAME>
4488

> <PUBCHEM_EXT_DATASOURCE_REGID>
SCHEMBL16127210

> <PUBCHEM_SUBSTANCE_COMMENT>
InChI=1S/C8H5F2IO2/c1-4-2-3-5-7(6(4)11)13-8(9,10)12-5/h2-3H,1H3
InChIKey=MHVJNEVIQNBBHI-UHFFFAOYSA-N

> <PUBCHEM_SUBSTANCE_SYNONYM>
SCHEMBL16127210

> <PUBCHEM_XREF_EXT_ID>
SCHEMBL16127210

> <PUBCHEM_EXT_DATASOURCE_URL>
https://www.surechembl.org/

> <PUBCHEM_EXT_SUBSTANCE_URL>
https://www.surechembl.org/chemical/SCHEMBL16127210

> <PUBCHEM_CID_ASSOCIATIONS>
117614525  1

> <PUBCHEM_COORDINATE_TYPE>
1
3

$$$$
