310931620
  -OEChem-07211613022D

 24 26  0     0  0  0  0  0  0999 V2000
    4.2547   -2.4677    0.0000 O   0  0  0  0  0  0  0  0  0  0  0  0
    3.5456   -0.4255    0.0000 O   0  0  0  0  0  0  0  0  0  0  0  0
    0.7091   -1.2197    0.0000 O   0  0  0  0  0  0  0  0  0  0  0  0
    8.4812   -2.4677    0.0000 N   0  0  0  0  0  0  0  0  0  0  0  0
    4.9639   -1.2197    0.0000 C   0  0  0  0  0  0  0  0  0  0  0  0
    4.2547   -1.6452    0.0000 C   0  0  0  0  0  0  0  0  0  0  0  0
    3.5456   -1.2197    0.0000 C   0  0  0  0  0  0  0  0  0  0  0  0
    2.8365   -1.6452    0.0000 C   0  0  0  0  0  0  0  0  0  0  0  0
    6.3821   -1.2197    0.0000 C   0  0  0  0  0  0  0  0  0  0  0  0
    5.6730   -1.6452    0.0000 C   0  0  0  0  0  0  0  0  0  0  0  0
    7.0913   -1.6452    0.0000 C   0  0  0  0  0  0  0  0  0  0  0  0
    4.9639   -0.3971    0.0000 C   0  0  0  0  0  0  0  0  0  0  0  0
    2.1274   -1.2481    0.0000 C   0  0  0  0  0  0  0  0  0  0  0  0
    6.3821   -0.4255    0.0000 C   0  0  0  0  0  0  0  0  0  0  0  0
    2.8081   -2.4677    0.0000 C   0  0  0  0  0  0  0  0  0  0  0  0
    1.4182   -1.6452    0.0000 C   0  0  0  0  0  0  0  0  0  0  0  0
    5.6730    0.0000    0.0000 C   0  0  0  0  0  0  0  0  0  0  0  0
    7.0913   -2.4394    0.0000 C   0  0  0  0  0  0  0  0  0  0  0  0
    7.8004   -1.2197    0.0000 C   0  0  0  0  0  0  0  0  0  0  0  0
    2.1274   -2.8932    0.0000 C   0  0  0  0  0  0  0  0  0  0  0  0
    1.4182   -2.4677    0.0000 C   0  0  0  0  0  0  0  0  0  0  0  0
    7.7720   -2.8932    0.0000 C   0  0  0  0  0  0  0  0  0  0  0  0
    8.5095   -1.6735    0.0000 C   0  0  0  0  0  0  0  0  0  0  0  0
    0.0000   -1.6452    0.0000 C   0  0  0  0  0  0  0  0  0  0  0  0
  1  6  2  0  0  0  0
  2  7  2  0  0  0  0
  3 16  1  0  0  0  0
  3 24  1  0  0  0  0
  4 22  2  0  0  0  0
  4 23  1  0  0  0  0
  5  6  1  0  0  0  0
  5 10  1  0  0  0  0
  5 12  2  0  0  0  0
  6  7  1  0  0  0  0
  7  8  1  0  0  0  0
  8 13  1  0  0  0  0
  8 15  2  0  0  0  0
  9 10  2  0  0  0  0
  9 11  1  0  0  0  0
  9 14  1  0  0  0  0
 11 18  2  0  0  0  0
 11 19  1  0  0  0  0
 12 17  1  0  0  0  0
 13 16  2  0  0  0  0
 14 17  2  0  0  0  0
 15 20  1  0  0  0  0
 16 21  1  0  0  0  0
 18 22  1  0  0  0  0
 19 23  2  0  0  0  0
 20 21  2  0  0  0  0
M  END
> <PUBCHEM_COMPOUND_ID_TYPE>
0

> <PUBCHEM_TOTAL_CHARGE>
0

> <PUBCHEM_SUBSTANCE_ID>
310931620

> <PUBCHEM_SUBSTANCE_VERSION>
1

> <PUBCHEM_EXT_DATASOURCE_NAME>
4488

> <PUBCHEM_EXT_DATASOURCE_REGID>
SCHEMBL16108946

> <PUBCHEM_SUBSTANCE_COMMENT>
InChI=1S/C20H15NO3/c1-24-18-7-3-6-17(13-18)20(23)19(22)16-5-2-4-15(12-16)14-8-10-21-11-9-14/h2-13H,1H3
InChIKey=VSVQNJYPIASBSE-UHFFFAOYSA-N

> <PUBCHEM_SUBSTANCE_SYNONYM>
SCHEMBL16108946

> <PUBCHEM_XREF_EXT_ID>
SCHEMBL16108946

> <PUBCHEM_EXT_DATASOURCE_URL>
https://www.surechembl.org/

> <PUBCHEM_EXT_SUBSTANCE_URL>
https://www.surechembl.org/chemical/SCHEMBL16108946

> <PUBCHEM_CID_ASSOCIATIONS>
117600339  1

> <PUBCHEM_COORDINATE_TYPE>
1
3

$$$$
