310942699
  -OEChem-07211613022D

 34 36  0     0  0  0  0  0  0999 V2000
   -1.4932    2.9865    0.0000 Cl  0  0  0  0  0  0  0  0  0  0  0  0
   -4.3739    2.9865    0.0000 Cl  0  0  0  0  0  0  0  0  0  0  0  0
    1.6415    2.9442    0.0000 S   0  0  0  0  0  0  0  0  0  0  0  0
    3.9714    1.9486    0.0000 S   0  0  0  0  0  0  0  0  0  0  0  0
    1.6415    1.2920    0.0000 F   0  0  0  0  0  0  0  0  0  0  0  0
   -1.2603    1.3344    0.0000 O   0  0  0  0  0  0  0  0  0  0  0  0
    2.0228    2.2240    0.0000 O   0  0  0  0  0  0  0  0  0  0  0  0
    1.1967    3.6855    0.0000 O   0  0  0  0  0  0  0  0  0  0  0  0
   -1.3026   -3.6855    0.0000 O   0  0  0  0  0  0  0  0  0  0  0  0
    2.3828    3.3677    0.0000 N   0  0  0  0  0  0  0  0  0  0  0  0
    3.8444    3.3042    0.0000 N   0  0  0  0  0  0  0  0  0  0  0  0
   -1.2603   -1.1650    0.0000 N   0  0  0  0  0  0  0  0  0  0  0  0
    0.1588   -3.6855    0.0000 N   0  0  0  0  0  0  0  0  0  0  0  0
    0.9002    2.5841    0.0000 C   0  0  0  0  0  0  0  0  0  0  0  0
    0.8790    1.7580    0.0000 C   0  0  0  0  0  0  0  0  0  0  0  0
   -0.5613    1.7580    0.0000 C   0  0  0  0  0  0  0  0  0  0  0  0
   -0.5401    2.5841    0.0000 C   0  0  0  0  0  0  0  0  0  0  0  0
    0.1800    2.9865    0.0000 C   0  0  0  0  0  0  0  0  0  0  0  0
    0.1588    1.3556    0.0000 C   0  0  0  0  0  0  0  0  0  0  0  0
   -2.0016    1.7580    0.0000 C   0  0  0  0  0  0  0  0  0  0  0  0
    3.0607    2.9865    0.0000 C   0  0  0  0  0  0  0  0  0  0  0  0
   -2.7006    1.3556    0.0000 C   0  0  0  0  0  0  0  0  0  0  0  0
   -2.0016    2.5841    0.0000 C   0  0  0  0  0  0  0  0  0  0  0  0
    3.1454    2.1605    0.0000 C   0  0  0  0  0  0  0  0  0  0  0  0
   -3.3996    1.7792    0.0000 C   0  0  0  0  0  0  0  0  0  0  0  0
   -3.4207    2.6053    0.0000 C   0  0  0  0  0  0  0  0  0  0  0  0
   -2.6794    2.9865    0.0000 C   0  0  0  0  0  0  0  0  0  0  0  0
   -2.7006    0.5083    0.0000 C   0  0  0  0  0  0  0  0  0  0  0  0
    4.3739    2.7112    0.0000 C   0  0  0  0  0  0  0  0  0  0  0  0
   -2.0016    0.0847    0.0000 C   0  0  0  0  0  0  0  0  0  0  0  0
   -2.0016   -0.7202    0.0000 C   0  0  0  0  0  0  0  0  0  0  0  0
   -1.2815   -1.9698    0.0000 C   0  0  0  0  0  0  0  0  0  0  0  0
   -0.5613   -2.4146    0.0000 C   0  0  0  0  0  0  0  0  0  0  0  0
   -0.5825   -3.2195    0.0000 C   0  0  0  0  0  0  0  0  0  0  0  0
  1 17  1  0  0  0  0
  2 26  1  0  0  0  0
  3  7  2  0  0  0  0
  3  8  2  0  0  0  0
  3 10  1  0  0  0  0
  3 14  1  0  0  0  0
  4 24  1  0  0  0  0
  4 29  1  0  0  0  0
  5 15  1  0  0  0  0
  6 16  1  0  0  0  0
  6 20  1  0  0  0  0
  9 34  2  0  0  0  0
 10 21  1  0  0  0  0
 11 21  1  0  0  0  0
 11 29  2  0  0  0  0
 12 31  1  0  0  0  0
 12 32  1  0  0  0  0
 13 34  1  0  0  0  0
 14 15  1  0  0  0  0
 14 18  2  0  0  0  0
 15 19  2  0  0  0  0
 16 17  2  0  0  0  0
 16 19  1  0  0  0  0
 17 18  1  0  0  0  0
 20 22  2  0  0  0  0
 20 23  1  0  0  0  0
 21 24  2  0  0  0  0
 22 25  1  0  0  0  0
 22 28  1  0  0  0  0
 23 27  2  0  0  0  0
 25 26  2  0  0  0  0
 26 27  1  0  0  0  0
 28 30  1  0  0  0  0
 30 31  1  0  0  0  0
 32 33  1  0  0  0  0
 33 34  1  0  0  0  0
M  END
> <PUBCHEM_COMPOUND_ID_TYPE>
0

> <PUBCHEM_TOTAL_CHARGE>
0

> <PUBCHEM_SUBSTANCE_ID>
310942699

> <PUBCHEM_SUBSTANCE_VERSION>
1

> <PUBCHEM_EXT_DATASOURCE_NAME>
4488

> <PUBCHEM_EXT_DATASOURCE_REGID>
SCHEMBL16120745

> <PUBCHEM_SUBSTANCE_COMMENT>
InChI=1S/C21H21Cl2FN4O4S2/c22-14-3-4-17(13(8-14)2-1-6-26-7-5-20(25)29)32-18-10-16(24)19(9-15(18)23)34(30,31)28-21-11-33-12-27-21/h3-4,8-12,26,28H,1-2,5-7H2,(H2,25,29)
InChIKey=KHYQZKIWLFOPOO-UHFFFAOYSA-N

> <PUBCHEM_SUBSTANCE_SYNONYM>
SCHEMBL16120745

> <PUBCHEM_XREF_EXT_ID>
SCHEMBL16120745

> <PUBCHEM_EXT_DATASOURCE_URL>
https://www.surechembl.org/

> <PUBCHEM_EXT_SUBSTANCE_URL>
https://www.surechembl.org/chemical/SCHEMBL16120745

> <PUBCHEM_CID_ASSOCIATIONS>
85472143  1

> <PUBCHEM_COORDINATE_TYPE>
1
3

$$$$
