310929909
  -OEChem-07211613022D

 52 55  0     1  0  0  0  0  0999 V2000
   -0.3316  -11.2993    0.0000 O   0  0  0  0  0  0  0  0  0  0  0  0
   -3.8472  -11.8612    0.0000 O   0  0  0  0  0  0  0  0  0  0  0  0
    2.1434  -12.7283    0.0000 O   0  0  0  0  0  0  0  0  0  0  0  0
    2.5559   -6.9020    0.0000 O   0  0  0  0  0  0  0  0  0  0  0  0
   -3.8472  -10.7375    0.0000 O   0  0  0  0  0  0  0  0  0  0  0  0
   -3.0073  -13.0172    0.0000 O   0  0  0  0  0  0  0  0  0  0  0  0
   -3.0073   -9.5814    0.0000 O   0  0  0  0  0  0  0  0  0  0  0  0
    5.8559   -5.4730    0.0000 O   0  0  0  0  0  0  0  0  0  0  0  0
    3.7934   -7.6164    0.0000 O   0  0  0  0  0  0  0  0  0  0  0  0
    4.6184   -4.7586    0.0000 O   0  0  0  0  0  0  0  0  0  0  0  0
   -2.4261  -11.7118    0.0000 N   0  0  0  0  0  0  0  0  0  0  0  0
   -0.3316  -12.7283    0.0000 N   0  0  0  0  0  0  0  0  0  0  0  0
    0.9059  -14.8717    0.0000 N   0  0  0  0  0  0  0  0  0  0  0  0
    3.7934   -6.1875    0.0000 N   0  0  0  0  0  0  0  0  0  0  0  0
    0.0809  -12.0138    0.0000 C   0  0  0  0  0  0  0  0  0  0  0  0
    0.9059  -12.0138    0.0000 C   0  0  0  0  0  0  0  0  0  0  0  0
    0.9059  -13.4427    0.0000 C   0  0  0  0  0  0  0  0  0  0  0  0
    1.3184  -12.7283    0.0000 C   0  0  0  0  0  0  0  0  0  0  0  0
   -1.1566  -11.2993    0.0000 C   0  0  3  0  0  0  0  0  0  0  0  0
   -2.4261  -10.8868    0.0000 C   0  0  3  0  0  0  0  0  0  0  0  0
    0.0809  -13.4427    0.0000 C   0  0  0  0  0  0  0  0  0  0  0  0
   -1.6415  -11.9668    0.0000 C   0  0  0  0  0  0  0  0  0  0  0  0
   -1.6415  -10.6319    0.0000 C   0  0  0  0  0  0  0  0  0  0  0  0
   -3.0936  -12.1967    0.0000 C   0  0  0  0  0  0  0  0  0  0  0  0
   -3.0936  -10.4019    0.0000 C   0  0  0  0  0  0  0  0  0  0  0  0
    1.3184  -11.2993    0.0000 C   0  0  0  0  0  0  0  0  0  0  0  0
    1.3184  -14.1572    0.0000 C   0  0  0  0  0  0  0  0  0  0  0  0
   -0.3316  -14.1572    0.0000 C   0  0  0  0  0  0  0  0  0  0  0  0
    2.1434   -7.6164    0.0000 C   0  0  3  0  0  0  0  0  0  0  0  0
    2.1434   -8.4414    0.0000 C   0  0  3  0  0  0  0  0  0  0  0  0
    1.4289   -8.0289    0.0000 C   0  0  0  0  0  0  0  0  0  0  0  0
    0.0809  -14.8717    0.0000 C   0  0  0  0  0  0  0  0  0  0  0  0
    4.6184   -6.1875    0.0000 C   0  0  3  0  0  0  0  0  0  0  0  0
   -4.5147  -12.3461    0.0000 C   0  0  0  0  0  0  0  0  0  0  0  0
    2.1434  -11.2993    0.0000 C   0  0  0  0  0  0  0  0  0  0  0  0
    3.3809   -6.9020    0.0000 C   0  0  0  0  0  0  0  0  0  0  0  0
    5.0309   -6.9020    0.0000 C   0  0  0  0  0  0  0  0  0  0  0  0
    2.5559   -9.1559    0.0000 C   0  0  0  0  0  0  0  0  0  0  0  0
    5.0309   -5.4730    0.0000 C   0  0  0  0  0  0  0  0  0  0  0  0
    2.5559  -10.5849    0.0000 C   0  0  0  0  0  0  0  0  0  0  0  0
    2.1434   -9.8704    0.0000 C   0  0  0  0  0  0  0  0  0  0  0  0
    6.2684   -4.7586    0.0000 C   0  0  0  0  0  0  0  0  0  0  0  0
   -5.1821  -12.8310    0.0000 C   0  0  0  0  0  0  0  0  0  0  0  0
   -4.0298  -13.0136    0.0000 C   0  0  0  0  0  0  0  0  0  0  0  0
   -4.9996  -11.6787    0.0000 C   0  0  0  0  0  0  0  0  0  0  0  0
    4.3164   -7.3145    0.0000 C   0  0  0  0  0  0  0  0  0  0  0  0
    5.7454   -6.4895    0.0000 C   0  0  0  0  0  0  0  0  0  0  0  0
    5.4434   -7.6164    0.0000 C   0  0  0  0  0  0  0  0  0  0  0  0
   -4.5147  -10.2525    0.0000 C   0  0  0  0  0  0  0  0  0  0  0  0
    6.6809   -4.0441    0.0000 C   0  0  0  0  0  0  0  0  0  0  0  0
    6.9829   -5.1711    0.0000 C   0  0  0  0  0  0  0  0  0  0  0  0
    5.5539   -4.3461    0.0000 C   0  0  0  0  0  0  0  0  0  0  0  0
  1 15  1  0  0  0  0
  1 19  1  0  0  0  0
  2 24  1  0  0  0  0
  2 34  1  0  0  0  0
  3 18  1  0  0  0  0
 29  4  1  1  0  0  0
  4 36  1  0  0  0  0
  5 25  1  0  0  0  0
  5 49  1  0  0  0  0
  6 24  2  0  0  0  0
  7 25  2  0  0  0  0
  8 39  1  0  0  0  0
  8 42  1  0  0  0  0
  9 36  2  0  0  0  0
 10 39  2  0  0  0  0
 11 20  1  0  0  0  0
 11 22  1  0  0  0  0
 11 24  1  0  0  0  0
 12 15  1  0  0  0  0
 12 21  2  0  0  0  0
 13 27  2  0  0  0  0
 13 32  1  0  0  0  0
 33 14  1  6  0  0  0
 14 36  1  0  0  0  0
 15 16  2  0  0  0  0
 16 18  1  0  0  0  0
 16 26  1  0  0  0  0
 17 18  2  0  0  0  0
 17 21  1  0  0  0  0
 17 27  1  0  0  0  0
 19 22  1  0  0  0  0
 19 23  1  0  0  0  0
 20 23  1  0  0  0  0
 20 25  1  0  0  0  0
 21 28  1  0  0  0  0
 26 35  1  0  0  0  0
 28 32  2  0  0  0  0
 29 30  1  0  0  0  0
 29 31  1  0  0  0  0
 30 31  1  0  0  0  0
 30 38  1  6  0  0  0
 33 37  1  0  0  0  0
 33 39  1  0  0  0  0
 34 43  1  0  0  0  0
 34 44  1  0  0  0  0
 34 45  1  0  0  0  0
 35 40  1  0  0  0  0
 37 46  1  0  0  0  0
 37 47  1  0  0  0  0
 37 48  1  0  0  0  0
 38 41  1  0  0  0  0
 40 41  1  0  0  0  0
 42 50  1  0  0  0  0
 42 51  1  0  0  0  0
 42 52  1  0  0  0  0
M  END
> <PUBCHEM_COMPOUND_ID_TYPE>
0

> <PUBCHEM_TOTAL_CHARGE>
0

> <PUBCHEM_SUBSTANCE_ID>
310929909

> <PUBCHEM_SUBSTANCE_VERSION>
1

> <PUBCHEM_EXT_DATASOURCE_NAME>
4488

> <PUBCHEM_EXT_DATASOURCE_REGID>
SCHEMBL16107126

> <PUBCHEM_SUBSTANCE_COMMENT>
InChI=1S/C38H56N4O10/c1-36(2,3)30(33(45)51-37(4,5)6)41-34(46)50-28-18-22(28)14-12-11-13-15-24-29(43)25-20-39-17-16-26(25)40-31(24)49-23-19-27(32(44)48-10)42(21-23)35(47)52-38(7,8)9/h16-17,20,22-23,27-28,30H,11-15,18-19,21H2,1-10H3,(H,40,43)(H,41,46)/t22-,23?,27?,28-,30-/m1/s1
InChIKey=JBIAVSNVRAZJFK-KMBQCVMPSA-N

> <PUBCHEM_SUBSTANCE_SYNONYM>
SCHEMBL16107126

> <PUBCHEM_XREF_EXT_ID>
SCHEMBL16107126

> <PUBCHEM_EXT_DATASOURCE_URL>
https://www.surechembl.org/

> <PUBCHEM_EXT_SUBSTANCE_URL>
https://www.surechembl.org/chemical/SCHEMBL16107126

> <PUBCHEM_CID_ASSOCIATIONS>
117599170  1

> <PUBCHEM_COORDINATE_TYPE>
1
3

> <PUBCHEM_BONDANNOTATIONS>
33  14  6
30  38  6
29  4  5

$$$$
