310930807
  -OEChem-07211613022D

 35 38  0     0  0  0  0  0  0999 V2000
    3.3002   -2.7705    0.0000 O   0  0  0  0  0  0  0  0  0  0  0  0
    1.6704   -5.0113    0.0000 O   0  0  0  0  0  0  0  0  0  0  0  0
    4.1558   -6.7633    0.0000 O   0  0  0  0  0  0  0  0  0  0  0  0
    4.7669    0.0000    0.0000 O   0  0  0  0  0  0  0  0  0  0  0  0
    4.7669   -2.5668    0.0000 N   0  0  0  0  0  0  0  0  0  0  0  0
    5.1743   -3.8298    0.0000 N   0  0  0  0  0  0  0  0  0  0  0  0
    6.2336   -2.7705    0.0000 N   0  0  0  0  0  0  0  0  0  0  0  0
    4.3188   -3.8298    0.0000 C   0  0  0  0  0  0  0  0  0  0  0  0
    4.0743   -3.0557    0.0000 C   0  0  0  0  0  0  0  0  0  0  0  0
    3.8298   -4.5225    0.0000 C   0  0  0  0  0  0  0  0  0  0  0  0
    4.7262   -4.6039    0.0000 C   0  0  0  0  0  0  0  0  0  0  0  0
    5.4188   -3.0557    0.0000 C   0  0  0  0  0  0  0  0  0  0  0  0
    4.7669   -1.7112    0.0000 C   0  0  0  0  0  0  0  0  0  0  0  0
    3.0150   -4.4410    0.0000 C   0  0  0  0  0  0  0  0  0  0  0  0
    4.4410   -5.4595    0.0000 C   0  0  0  0  0  0  0  0  0  0  0  0
    4.1965   -5.2966    0.0000 C   0  0  0  0  0  0  0  0  0  0  0  0
    5.5410   -4.6447    0.0000 C   0  0  0  0  0  0  0  0  0  0  0  0
    2.5260   -5.1336    0.0000 C   0  0  0  0  0  0  0  0  0  0  0  0
    4.6447   -6.0299    0.0000 C   0  0  0  0  0  0  0  0  0  0  0  0
    5.4595   -1.2630    0.0000 C   0  0  0  0  0  0  0  0  0  0  0  0
    4.0336   -1.2630    0.0000 C   0  0  0  0  0  0  0  0  0  0  0  0
    3.6669   -5.9892    0.0000 C   0  0  0  0  0  0  0  0  0  0  0  0
    5.9077   -5.3781    0.0000 C   0  0  0  0  0  0  0  0  0  0  0  0
    2.8520   -5.8670    0.0000 C   0  0  0  0  0  0  0  0  0  0  0  0
    5.4595   -6.1115    0.0000 C   0  0  0  0  0  0  0  0  0  0  0  0
    5.4595   -0.4482    0.0000 C   0  0  0  0  0  0  0  0  0  0  0  0
    4.0336   -0.4482    0.0000 C   0  0  0  0  0  0  0  0  0  0  0  0
    1.3445   -4.2780    0.0000 C   0  0  0  0  0  0  0  0  0  0  0  0
    3.3409   -6.6818    0.0000 C   0  0  0  0  0  0  0  0  0  0  0  0
    0.4889   -4.1965    0.0000 C   0  0  0  0  0  0  0  0  0  0  0  0
    2.8927   -7.4152    0.0000 C   0  0  0  0  0  0  0  0  0  0  0  0
    0.1630   -3.4224    0.0000 C   0  0  0  0  0  0  0  0  0  0  0  0
    0.0000   -4.8484    0.0000 C   0  0  0  0  0  0  0  0  0  0  0  0
    2.0372   -7.3745    0.0000 C   0  0  0  0  0  0  0  0  0  0  0  0
    3.2594   -8.1486    0.0000 C   0  0  0  0  0  0  0  0  0  0  0  0
  1  9  2  0  0  0  0
  2 18  1  0  0  0  0
  2 28  1  0  0  0  0
  3 19  1  0  0  0  0
  3 29  1  0  0  0  0
  4 26  1  0  0  0  0
  4 27  1  0  0  0  0
  5  9  1  0  0  0  0
  5 12  1  0  0  0  0
  5 13  1  0  0  0  0
  6  8  1  0  0  0  0
  6 12  1  0  0  0  0
  7 12  2  3  0  0  0
  8  9  1  0  0  0  0
  8 10  1  0  0  0  0
  8 11  1  0  0  0  0
 10 14  1  0  0  0  0
 10 16  2  0  0  0  0
 11 15  1  0  0  0  0
 11 17  2  0  0  0  0
 13 20  1  0  0  0  0
 13 21  1  0  0  0  0
 14 18  2  0  0  0  0
 15 19  2  0  0  0  0
 16 22  1  0  0  0  0
 17 23  1  0  0  0  0
 18 24  1  0  0  0  0
 19 25  1  0  0  0  0
 20 26  1  0  0  0  0
 21 27  1  0  0  0  0
 22 24  2  0  0  0  0
 23 25  2  0  0  0  0
 28 30  1  0  0  0  0
 29 31  1  0  0  0  0
 30 32  1  0  0  0  0
 30 33  1  0  0  0  0
 31 34  1  0  0  0  0
 31 35  1  0  0  0  0
M  END
> <PUBCHEM_COMPOUND_ID_TYPE>
0

> <PUBCHEM_TOTAL_CHARGE>
0

> <PUBCHEM_SUBSTANCE_ID>
310930807

> <PUBCHEM_SUBSTANCE_VERSION>
1

> <PUBCHEM_EXT_DATASOURCE_NAME>
4488

> <PUBCHEM_EXT_DATASOURCE_REGID>
SCHEMBL16108104

> <PUBCHEM_SUBSTANCE_COMMENT>
InChI=1S/C28H37N3O4/c1-19(2)17-34-24-9-5-7-21(15-24)28(22-8-6-10-25(16-22)35-18-20(3)4)26(32)31(27(29)30-28)23-11-13-33-14-12-23/h5-10,15-16,19-20,23H,11-14,17-18H2,1-4H3,(H2,29,30)
InChIKey=ZUOXZAYHYUMHSV-UHFFFAOYSA-N

> <PUBCHEM_SUBSTANCE_SYNONYM>
SCHEMBL16108104

> <PUBCHEM_XREF_EXT_ID>
SCHEMBL16108104

> <PUBCHEM_EXT_DATASOURCE_URL>
https://www.surechembl.org/

> <PUBCHEM_EXT_SUBSTANCE_URL>
https://www.surechembl.org/chemical/SCHEMBL16108104

> <PUBCHEM_CID_ASSOCIATIONS>
86273368  1

> <PUBCHEM_COORDINATE_TYPE>
1
3

$$$$
