310942779
  -OEChem-07211613022D

 62 68  0     1  0  0  0  0  0999 V2000
   -0.1819   -6.6705    0.0000 S   0  0  0  0  0  0  0  0  0  0  0  0
    3.6385    3.3959    0.0000 F   0  0  0  0  0  0  0  0  0  0  0  0
   -2.9108    4.5077    0.0000 F   0  0  0  0  0  0  0  0  0  0  0  0
   -2.9108    1.2532    0.0000 F   0  0  0  0  0  0  0  0  0  0  0  0
    0.7075    1.1522    0.0000 O   0  0  0  0  0  0  0  0  0  0  0  0
   -0.1213    2.5671    0.0000 O   0  0  0  0  0  0  0  0  0  0  0  0
    1.9607    6.0844    0.0000 O   0  0  0  0  0  0  0  0  0  0  0  0
   -0.5458    1.8597    0.0000 O   0  0  0  0  0  0  0  0  0  0  0  0
   -1.2937   -5.3971    0.0000 O   0  0  0  0  0  0  0  0  0  0  0  0
    1.2532   -3.9619    0.0000 O   0  0  0  0  0  0  0  0  0  0  0  0
   -2.3650   -5.4577    0.0000 O   0  0  0  0  0  0  0  0  0  0  0  0
   -3.0725   -6.6705    0.0000 O   0  0  0  0  0  0  0  0  0  0  0  0
    1.1320    3.2746    0.0000 N   0  0  0  0  0  0  0  0  0  0  0  0
   -0.5458    4.6896    0.0000 N   0  0  0  0  0  0  0  0  0  0  0  0
   -0.6872    3.3757    0.0000 N   0  0  0  0  0  0  0  0  0  0  0  0
    2.9916    1.3948    0.0000 N   0  0  0  0  0  0  0  0  0  0  0  0
   -0.5458    0.4649    0.0000 N   0  0  0  0  0  0  0  0  0  0  0  0
   -0.1415   -4.4673    0.0000 N   0  0  0  0  0  0  0  0  0  0  0  0
   -1.6373   -7.4791    0.0000 N   0  0  0  0  0  0  0  0  0  0  0  0
    0.7075    3.9821    0.0000 C   0  0  3  0  0  0  0  0  0  0  0  0
   -0.1415    4.0023    0.0000 C   0  0  0  0  0  0  0  0  0  0  0  0
    2.2841    1.7990    0.0000 C   0  0  3  0  0  0  0  0  0  0  0  0
    2.3852    2.5671    0.0000 C   0  0  3  0  0  0  0  0  0  0  0  0
    0.7277    2.5469    0.0000 C   0  0  0  0  0  0  0  0  0  0  0  0
    1.1320    1.8597    0.0000 C   0  0  3  0  0  0  0  0  0  0  0  0
    1.9809    3.2544    0.0000 C   0  0  0  0  0  0  0  0  0  0  0  0
    1.1320    4.6896    0.0000 C   0  0  0  0  0  0  0  0  0  0  0  0
    3.2140    2.6682    0.0000 C   0  0  3  0  0  0  0  0  0  0  0  0
   -1.4756    3.6991    0.0000 C   0  0  0  0  0  0  0  0  0  0  0  0
   -1.3543    4.5077    0.0000 C   0  0  0  0  0  0  0  0  0  0  0  0
    3.5980    1.9607    0.0000 C   0  0  0  0  0  0  0  0  0  0  0  0
   -2.1831    3.2948    0.0000 C   0  0  0  0  0  0  0  0  0  0  0  0
   -0.1415    5.3971    0.0000 C   0  0  0  0  0  0  0  0  0  0  0  0
    0.7277    5.3566    0.0000 C   0  0  0  0  0  0  0  0  0  0  0  0
    1.9607    4.6694    0.0000 C   0  0  0  0  0  0  0  0  0  0  0  0
   -2.9108    3.6991    0.0000 C   0  0  0  0  0  0  0  0  0  0  0  0
   -0.1213    1.1522    0.0000 C   0  0  0  0  0  0  0  0  0  0  0  0
   -2.2033    2.4661    0.0000 C   0  0  0  0  0  0  0  0  0  0  0  0
   -0.5660    6.0844    0.0000 C   0  0  0  0  0  0  0  0  0  0  0  0
    1.1320    6.0844    0.0000 C   0  0  0  0  0  0  0  0  0  0  0  0
    2.3852    5.3971    0.0000 C   0  0  0  0  0  0  0  0  0  0  0  0
   -2.9108    2.0820    0.0000 C   0  0  0  0  0  0  0  0  0  0  0  0
   -3.6183    3.2746    0.0000 C   0  0  0  0  0  0  0  0  0  0  0  0
   -3.6385    2.4863    0.0000 C   0  0  0  0  0  0  0  0  0  0  0  0
   -1.3948    6.1045    0.0000 C   0  0  0  0  0  0  0  0  0  0  0  0
   -0.1415    6.7918    0.0000 C   0  0  0  0  0  0  0  0  0  0  0  0
   -0.4649   -5.2152    0.0000 C   0  0  0  0  0  0  0  0  0  0  0  0
   -1.7990    6.7918    0.0000 C   0  0  0  0  0  0  0  0  0  0  0  0
   -0.5660    7.4791    0.0000 C   0  0  0  0  0  0  0  0  0  0  0  0
    0.1415   -5.7407    0.0000 C   0  0  3  0  0  0  0  0  0  0  0  0
   -0.1213   -0.2628    0.0000 C   0  0  0  0  0  0  0  0  0  0  0  0
    0.6670   -4.5683    0.0000 C   0  0  0  0  0  0  0  0  0  0  0  0
    0.8692   -5.3566    0.0000 C   0  0  0  0  0  0  0  0  0  0  0  0
   -1.3948    7.4791    0.0000 C   0  0  0  0  0  0  0  0  0  0  0  0
   -0.5458   -3.7598    0.0000 C   0  0  0  0  0  0  0  0  0  0  0  0
   -0.5458   -0.9500    0.0000 C   0  0  0  0  0  0  0  0  0  0  0  0
   -0.1213   -3.0725    0.0000 C   0  0  0  0  0  0  0  0  0  0  0  0
   -0.8894   -6.2461    0.0000 C   0  0  0  0  0  0  0  0  0  0  0  0
   -0.1213   -1.6576    0.0000 C   0  0  0  0  0  0  0  0  0  0  0  0
   -0.5458   -2.3650    0.0000 C   0  0  0  0  0  0  0  0  0  0  0  0
   -1.6373   -6.6705    0.0000 C   0  0  3  0  0  0  0  0  0  0  0  0
   -2.3852   -6.2663    0.0000 C   0  0  0  0  0  0  0  0  0  0  0  0
  1 50  1  0  0  0  0
  1 58  1  0  0  0  0
 28  2  1  1  0  0  0
  3 36  1  0  0  0  0
  4 42  1  0  0  0  0
 25  5  1  6  0  0  0
  5 37  1  0  0  0  0
  6 24  2  0  0  0  0
  7 40  1  0  0  0  0
  7 41  1  0  0  0  0
  8 37  2  0  0  0  0
  9 47  2  0  0  0  0
 10 52  2  0  0  0  0
 11 62  2  0  0  0  0
 12 62  1  0  0  0  0
 13 20  1  0  0  0  0
 13 24  1  0  0  0  0
 13 26  1  0  0  0  0
 14 21  1  0  0  0  0
 14 30  1  0  0  0  0
 14 33  1  0  0  0  0
 15 21  2  0  0  0  0
 15 29  1  0  0  0  0
 16 22  1  0  0  0  0
 16 31  1  0  0  0  0
 17 37  1  0  0  0  0
 17 51  1  0  0  0  0
 18 47  1  0  0  0  0
 18 52  1  0  0  0  0
 18 55  1  0  0  0  0
 61 19  1  6  0  0  0
 20 21  1  1  0  0  0
 20 27  1  0  0  0  0
 22 23  1  0  0  0  0
 22 25  1  0  0  0  0
 23 26  1  1  0  0  0
 23 28  1  0  0  0  0
 24 25  1  0  0  0  0
 27 34  1  0  0  0  0
 27 35  1  0  0  0  0
 28 31  1  0  0  0  0
 29 30  2  0  0  0  0
 29 32  1  0  0  0  0
 32 36  1  0  0  0  0
 32 38  2  0  0  0  0
 33 39  1  0  0  0  0
 34 40  1  0  0  0  0
 35 41  1  0  0  0  0
 36 43  2  0  0  0  0
 38 42  1  0  0  0  0
 39 45  2  0  0  0  0
 39 46  1  0  0  0  0
 42 44  2  0  0  0  0
 43 44  1  0  0  0  0
 45 48  1  0  0  0  0
 46 49  2  0  0  0  0
 47 50  1  0  0  0  0
 48 54  2  0  0  0  0
 49 54  1  0  0  0  0
 50 53  1  0  0  0  0
 51 56  1  0  0  0  0
 52 53  1  0  0  0  0
 55 57  1  0  0  0  0
 56 59  1  0  0  0  0
 57 60  1  0  0  0  0
 58 61  1  0  0  0  0
 59 60  1  0  0  0  0
 61 62  1  0  0  0  0
M  END
> <PUBCHEM_COMPOUND_ID_TYPE>
0

> <PUBCHEM_TOTAL_CHARGE>
0

> <PUBCHEM_SUBSTANCE_ID>
310942779

> <PUBCHEM_SUBSTANCE_VERSION>
1

> <PUBCHEM_EXT_DATASOURCE_NAME>
4488

> <PUBCHEM_EXT_DATASOURCE_REGID>
SCHEMBL16120832

> <PUBCHEM_SUBSTANCE_COMMENT>
InChI=1S/C43H52F3N7O8S/c44-27-10-11-30(45)28(18-27)33-23-51(21-25-8-4-3-5-9-25)39(50-33)37(26-12-16-60-17-13-26)53-22-29-31(46)20-49-36(29)38(41(53)56)61-43(59)48-14-6-1-2-7-15-52-35(54)19-34(40(52)55)62-24-32(47)42(57)58/h3-5,8-11,18,23,26,29,31-32,34,36-38,49H,1-2,6-7,12-17,19-22,24,47H2,(H,48,59)(H,57,58)/t29-,31-,32-,34?,36?,37+,38-/m0/s1
InChIKey=URROZXGSAWRPHR-XDVPFQPBSA-N

> <PUBCHEM_SUBSTANCE_SYNONYM>
SCHEMBL16120832

> <PUBCHEM_XREF_EXT_ID>
SCHEMBL16120832

> <PUBCHEM_EXT_DATASOURCE_URL>
https://www.surechembl.org/

> <PUBCHEM_EXT_SUBSTANCE_URL>
https://www.surechembl.org/chemical/SCHEMBL16120832

> <PUBCHEM_CID_ASSOCIATIONS>
117609285  1

> <PUBCHEM_COORDINATE_TYPE>
1
3

> <PUBCHEM_BONDANNOTATIONS>
61  19  6
28  2  5
20  21  5
23  26  5
25  5  6

$$$$
