310942495
  -OEChem-07211613022D

 79 83  0     1  0  0  0  0  0999 V2000
    9.7228   -1.1896    0.0000 F   0  0  0  0  0  0  0  0  0  0  0  0
   11.0824    1.8516    0.0000 F   0  0  0  0  0  0  0  0  0  0  0  0
    8.1665    1.6726    0.0000 O   0  0  0  0  0  0  0  0  0  0  0  0
    2.4240    1.6726    0.0000 O   0  0  0  0  0  0  0  0  0  0  0  0
    3.1396    2.9070    0.0000 O   0  0  0  0  0  0  0  0  0  0  0  0
   -1.8695    1.6726    0.0000 O   0  0  0  0  0  0  0  0  0  0  0  0
   -4.0340   -0.3846    0.0000 O   0  0  0  0  0  0  0  0  0  0  0  0
  -11.2076   -0.5993    0.0000 O   0  0  0  0  0  0  0  0  0  0  0  0
   -8.2917   -0.6173    0.0000 O   0  0  0  0  0  0  0  0  0  0  0  0
   -6.1628    1.6726    0.0000 O   0  0  0  0  0  0  0  0  0  0  0  0
   -4.7496   -0.8140    0.0000 O   0  0  0  0  0  0  0  0  0  0  0  0
    7.5224   -0.3846    0.0000 N   0  0  0  0  0  0  0  0  0  0  0  0
    8.2022    0.7782    0.0000 N   0  0  0  0  0  0  0  0  0  0  0  0
    6.7353    1.6726    0.0000 N   0  0  0  0  0  0  0  0  0  0  0  0
    7.4329    2.9249    0.0000 N   0  0  0  0  0  0  0  0  0  0  0  0
    3.8551    1.6726    0.0000 N   0  0  0  0  0  0  0  0  0  0  0  0
   -9.7585   -0.3846    0.0000 N   0  0  0  0  0  0  0  0  0  0  0  0
   -3.3006    0.8498    0.0000 N   0  0  0  0  0  0  0  0  0  0  0  0
   -1.1538    0.4383    0.0000 N   0  0  0  0  0  0  0  0  0  0  0  0
   -5.4652    0.4383    0.0000 N   0  0  0  0  0  0  0  0  0  0  0  0
   -4.0340   -2.0483    0.0000 N   0  0  0  0  0  0  0  0  0  0  0  0
   -5.4652   -2.0483    0.0000 N   0  0  0  0  0  0  0  0  0  0  0  0
    7.4687    0.4561    0.0000 C   0  0  0  0  0  0  0  0  0  0  0  0
    6.7353    0.8498    0.0000 C   0  0  3  0  0  0  0  0  0  0  0  0
    8.7568    0.1699    0.0000 C   0  0  0  0  0  0  0  0  0  0  0  0
    6.0018    0.4383    0.0000 C   0  0  0  0  0  0  0  0  0  0  0  0
    8.3632   -0.5456    0.0000 C   0  0  0  0  0  0  0  0  0  0  0  0
    9.5976    0.2415    0.0000 C   0  0  0  0  0  0  0  0  0  0  0  0
    6.9321   -0.9570    0.0000 C   0  0  0  0  0  0  0  0  0  0  0  0
    7.4329    2.1199    0.0000 C   0  0  0  0  0  0  0  0  0  0  0  0
   10.0627   -0.4025    0.0000 C   0  0  0  0  0  0  0  0  0  0  0  0
    6.0018    2.1020    0.0000 C   0  0  0  0  0  0  0  0  0  0  0  0
    9.9374    1.0108    0.0000 C   0  0  0  0  0  0  0  0  0  0  0  0
    7.0752   -1.7442    0.0000 C   0  0  0  0  0  0  0  0  0  0  0  0
    5.2863    0.8498    0.0000 C   0  0  0  0  0  0  0  0  0  0  0  0
    5.2863    0.0269    0.0000 C   0  0  0  0  0  0  0  0  0  0  0  0
    6.0376   -0.4025    0.0000 C   0  0  0  0  0  0  0  0  0  0  0  0
   10.7424    1.0823    0.0000 C   0  0  0  0  0  0  0  0  0  0  0  0
   10.9035   -0.3131    0.0000 C   0  0  0  0  0  0  0  0  0  0  0  0
   11.2076    0.4204    0.0000 C   0  0  0  0  0  0  0  0  0  0  0  0
    5.2863    1.6905    0.0000 C   0  0  0  0  0  0  0  0  0  0  0  0
    6.4848   -2.2988    0.0000 C   0  0  0  0  0  0  0  0  0  0  0  0
    7.8802   -2.0125    0.0000 C   0  0  0  0  0  0  0  0  0  0  0  0
    4.5707    2.1020    0.0000 C   0  0  3  0  0  0  0  0  0  0  0  0
    6.6637   -3.1038    0.0000 C   0  0  0  0  0  0  0  0  0  0  0  0
    8.0412   -2.7997    0.0000 C   0  0  0  0  0  0  0  0  0  0  0  0
    8.1843    3.3542    0.0000 C   0  0  0  0  0  0  0  0  0  0  0  0
    7.4329   -3.3542    0.0000 C   0  0  0  0  0  0  0  0  0  0  0  0
    4.5886    2.9249    0.0000 C   0  0  0  0  0  0  0  0  0  0  0  0
    3.1396    2.0842    0.0000 C   0  0  0  0  0  0  0  0  0  0  0  0
    3.9982    3.2469    0.0000 C   0  0  0  0  0  0  0  0  0  0  0  0
    1.6905    2.0842    0.0000 C   0  0  0  0  0  0  0  0  0  0  0  0
    1.0108    1.6905    0.0000 C   0  0  0  0  0  0  0  0  0  0  0  0
   -2.5850    0.4383    0.0000 C   0  0  3  0  0  0  0  0  0  0  0  0
   -0.4382    0.8677    0.0000 C   0  0  0  0  0  0  0  0  0  0  0  0
   -1.8873    0.8498    0.0000 C   0  0  0  0  0  0  0  0  0  0  0  0
   -4.7496    0.8677    0.0000 C   0  0  3  0  0  0  0  0  0  0  0  0
   -4.0162    0.4740    0.0000 C   0  0  0  0  0  0  0  0  0  0  0  0
  -10.4026   -0.8677    0.0000 C   0  0  0  0  0  0  0  0  0  0  0  0
   -9.1146   -0.8677    0.0000 C   0  0  0  0  0  0  0  0  0  0  0  0
    0.9929    0.8498    0.0000 C   0  0  0  0  0  0  0  0  0  0  0  0
    0.2594    2.0842    0.0000 C   0  0  0  0  0  0  0  0  0  0  0  0
    0.2952    0.4561    0.0000 C   0  0  0  0  0  0  0  0  0  0  0  0
   -0.4204    1.6905    0.0000 C   0  0  0  0  0  0  0  0  0  0  0  0
  -10.1700   -1.6368    0.0000 C   0  0  0  0  0  0  0  0  0  0  0  0
   -9.3472   -1.6547    0.0000 C   0  0  0  0  0  0  0  0  0  0  0  0
   -4.7317    1.7084    0.0000 C   0  0  0  0  0  0  0  0  0  0  0  0
   -9.7407    0.4561    0.0000 C   0  0  0  0  0  0  0  0  0  0  0  0
   -2.5672   -0.3668    0.0000 C   0  0  0  0  0  0  0  0  0  0  0  0
   -6.1807    0.8498    0.0000 C   0  0  0  0  0  0  0  0  0  0  0  0
   -9.0430    0.8677    0.0000 C   0  0  0  0  0  0  0  0  0  0  0  0
   -3.2827   -0.7961    0.0000 C   0  0  0  0  0  0  0  0  0  0  0  0
   -6.8784    0.4561    0.0000 C   0  0  0  0  0  0  0  0  0  0  0  0
   -5.4652    2.1020    0.0000 C   0  0  0  0  0  0  0  0  0  0  0  0
   -4.0162    2.1199    0.0000 C   0  0  0  0  0  0  0  0  0  0  0  0
   -8.2917    0.4561    0.0000 C   0  0  0  0  0  0  0  0  0  0  0  0
   -7.6298    0.8498    0.0000 C   0  0  0  0  0  0  0  0  0  0  0  0
   -3.3006   -1.6368    0.0000 C   0  0  0  0  0  0  0  0  0  0  0  0
   -4.7496   -1.6368    0.0000 C   0  0  0  0  0  0  0  0  0  0  0  0
  1 31  1  0  0  0  0
  2 38  1  0  0  0  0
  3 30  2  0  0  0  0
  4 50  1  0  0  0  0
  4 52  1  0  0  0  0
  5 50  2  0  0  0  0
  6 56  2  0  0  0  0
  7 58  2  0  0  0  0
  8 59  2  0  0  0  0
  9 60  2  0  0  0  0
 10 70  2  0  0  0  0
 11 79  2  0  0  0  0
 12 23  1  0  0  0  0
 12 27  1  0  0  0  0
 12 29  1  0  0  0  0
 13 23  2  0  0  0  0
 13 25  1  0  0  0  0
 24 14  1  1  0  0  0
 14 30  1  0  0  0  0
 14 32  1  0  0  0  0
 15 30  1  0  0  0  0
 15 47  1  0  0  0  0
 44 16  1  1  0  0  0
 16 50  1  0  0  0  0
 17 59  1  0  0  0  0
 17 60  1  0  0  0  0
 17 68  1  0  0  0  0
 54 18  1  6  0  0  0
 18 58  1  0  0  0  0
 19 55  1  0  0  0  0
 19 56  1  0  0  0  0
 57 20  1  1  0  0  0
 20 70  1  0  0  0  0
 21 78  1  0  0  0  0
 21 79  1  0  0  0  0
 22 79  1  0  0  0  0
 23 24  1  0  0  0  0
 24 26  1  0  0  0  0
 25 27  2  0  0  0  0
 25 28  1  0  0  0  0
 26 35  1  0  0  0  0
 26 36  1  0  0  0  0
 26 37  1  0  0  0  0
 28 31  2  0  0  0  0
 28 33  1  0  0  0  0
 29 34  1  0  0  0  0
 31 39  1  0  0  0  0
 32 41  1  0  0  0  0
 33 38  2  0  0  0  0
 34 42  2  0  0  0  0
 34 43  1  0  0  0  0
 38 40  1  0  0  0  0
 39 40  2  0  0  0  0
 41 44  1  0  0  0  0
 42 45  1  0  0  0  0
 43 46  2  0  0  0  0
 44 49  1  0  0  0  0
 45 48  2  0  0  0  0
 46 48  1  0  0  0  0
 49 51  1  0  0  0  0
 52 53  1  0  0  0  0
 53 61  2  0  0  0  0
 53 62  1  0  0  0  0
 54 56  1  0  0  0  0
 54 69  1  0  0  0  0
 55 63  2  0  0  0  0
 55 64  1  0  0  0  0
 57 58  1  0  0  0  0
 57 67  1  0  0  0  0
 59 65  1  0  0  0  0
 60 66  1  0  0  0  0
 61 63  1  0  0  0  0
 62 64  2  0  0  0  0
 65 66  2  0  0  0  0
 67 74  1  0  0  0  0
 67 75  1  0  0  0  0
 68 71  1  0  0  0  0
 69 72  1  0  0  0  0
 70 73  1  0  0  0  0
 71 76  1  0  0  0  0
 72 78  1  0  0  0  0
 73 77  1  0  0  0  0
 76 77  1  0  0  0  0
M  END
> <PUBCHEM_COMPOUND_ID_TYPE>
0

> <PUBCHEM_TOTAL_CHARGE>
0

> <PUBCHEM_SUBSTANCE_ID>
310942495

> <PUBCHEM_SUBSTANCE_VERSION>
1

> <PUBCHEM_EXT_DATASOURCE_NAME>
4488

> <PUBCHEM_EXT_DATASOURCE_REGID>
SCHEMBL16120531

> <PUBCHEM_SUBSTANCE_COMMENT>
InChI=1S/C57H75F2N11O9/c1-8-40(28-31-70(55(77)61-7)50(57(4,5)6)51-65-45(42-32-39(58)22-25-43(42)59)34-68(51)33-37-16-11-9-12-17-37)64-56(78)79-35-38-20-23-41(24-21-38)63-52(74)44(18-15-29-62-54(60)76)66-53(75)49(36(2)3)67-46(71)19-13-10-14-30-69-47(72)26-27-48(69)73/h9,11-12,16-17,20-27,32,34,36,40,44,49-50H,8,10,13-15,18-19,28-31,33,35H2,1-7H3,(H,61,77)(H,63,74)(H,64,78)(H,66,75)(H,67,71)(H3,60,62,76)/t40-,44-,49-,50-/m0/s1
InChIKey=DYJBZKLSUDKQPT-SQCINXDMSA-N

> <PUBCHEM_SUBSTANCE_SYNONYM>
SCHEMBL16120531

> <PUBCHEM_XREF_EXT_ID>
SCHEMBL16120531

> <PUBCHEM_EXT_DATASOURCE_URL>
https://www.surechembl.org/

> <PUBCHEM_EXT_SUBSTANCE_URL>
https://www.surechembl.org/chemical/SCHEMBL16120531

> <PUBCHEM_CID_ASSOCIATIONS>
117609065  1

> <PUBCHEM_COORDINATE_TYPE>
1
3

> <PUBCHEM_BONDANNOTATIONS>
24  14  5
44  16  5
54  18  6
57  20  5

$$$$
