310949870
  -OEChem-07211613022D

 29 33  0     1  0  0  0  0  0999 V2000
   -3.3190    1.2283    0.0000 Cl  0  0  0  0  0  0  0  0  0  0  0  0
   -3.3190    2.8843    0.0000 Cl  0  0  0  0  0  0  0  0  0  0  0  0
   -0.1311    1.3939    0.0000 N   0  0  0  0  0  0  0  0  0  0  0  0
   -0.1311    2.7325    0.0000 N   0  0  0  0  0  0  0  0  0  0  0  0
    0.6417   -0.9660    0.0000 N   0  0  0  0  0  0  0  0  0  0  0  0
    2.4496    1.6422    0.0000 N   0  0  0  0  0  0  0  0  0  0  0  0
   -0.9177    1.6560    0.0000 C   0  0  0  0  0  0  0  0  0  0  0  0
    0.3519    2.0701    0.0000 C   0  0  0  0  0  0  0  0  0  0  0  0
   -0.9039    2.4841    0.0000 C   0  0  0  0  0  0  0  0  0  0  0  0
    0.1311    0.6072    0.0000 C   0  0  0  0  0  0  0  0  0  0  0  0
    1.1938    2.0425    0.0000 C   0  0  3  0  0  0  0  0  0  0  0  0
   -1.6215    1.2421    0.0000 C   0  0  0  0  0  0  0  0  0  0  0  0
   -1.6353    2.8705    0.0000 C   0  0  0  0  0  0  0  0  0  0  0  0
   -2.3530    1.6560    0.0000 C   0  0  0  0  0  0  0  0  0  0  0  0
   -2.3392    2.4704    0.0000 C   0  0  0  0  0  0  0  0  0  0  0  0
   -0.4210   -0.0276    0.0000 C   0  0  0  0  0  0  0  0  0  0  0  0
    0.9454    0.4279    0.0000 C   0  0  0  0  0  0  0  0  0  0  0  0
    1.6905    1.3939    0.0000 C   0  0  0  0  0  0  0  0  0  0  0  0
    1.6629    2.7325    0.0000 C   0  0  0  0  0  0  0  0  0  0  0  0
   -0.1726   -0.7866    0.0000 C   0  0  0  0  0  0  0  0  0  0  0  0
    1.1938   -0.3589    0.0000 C   0  0  0  0  0  0  0  0  0  0  0  0
    2.4634    2.4704    0.0000 C   0  0  0  0  0  0  0  0  0  0  0  0
    0.8901   -1.7388    0.0000 C   0  0  0  0  0  0  0  0  0  0  0  0
    1.7043   -1.9321    0.0000 C   0  0  0  0  0  0  0  0  0  0  0  0
    2.2564   -1.3249    0.0000 C   0  0  0  0  0  0  0  0  0  0  0  0
    1.9666   -2.7049    0.0000 C   0  0  0  0  0  0  0  0  0  0  0  0
    3.0568   -1.4905    0.0000 C   0  0  0  0  0  0  0  0  0  0  0  0
    2.7670   -2.8843    0.0000 C   0  0  0  0  0  0  0  0  0  0  0  0
    3.3190   -2.2771    0.0000 C   0  0  0  0  0  0  0  0  0  0  0  0
  1 14  1  0  0  0  0
  2 15  1  0  0  0  0
  3  7  1  0  0  0  0
  3  8  1  0  0  0  0
  3 10  1  0  0  0  0
  4  8  2  0  0  0  0
  4  9  1  0  0  0  0
  5 20  1  0  0  0  0
  5 21  1  0  0  0  0
  5 23  1  0  0  0  0
  6 18  1  0  0  0  0
  6 22  1  0  0  0  0
  7  9  1  0  0  0  0
  7 12  2  0  0  0  0
 11  8  1  6  0  0  0
  9 13  2  0  0  0  0
 10 16  1  0  0  0  0
 10 17  1  0  0  0  0
 11 18  1  0  0  0  0
 11 19  1  0  0  0  0
 12 14  1  0  0  0  0
 13 15  1  0  0  0  0
 14 15  2  0  0  0  0
 16 20  1  0  0  0  0
 17 21  1  0  0  0  0
 19 22  1  0  0  0  0
 23 24  1  0  0  0  0
 24 25  2  0  0  0  0
 24 26  1  0  0  0  0
 25 27  1  0  0  0  0
 26 28  2  0  0  0  0
 27 29  2  0  0  0  0
 28 29  1  0  0  0  0
M  END
> <PUBCHEM_COMPOUND_ID_TYPE>
0

> <PUBCHEM_TOTAL_CHARGE>
0

> <PUBCHEM_SUBSTANCE_ID>
310949870

> <PUBCHEM_SUBSTANCE_VERSION>
1

> <PUBCHEM_EXT_DATASOURCE_NAME>
4488

> <PUBCHEM_EXT_DATASOURCE_REGID>
SCHEMBL16128076

> <PUBCHEM_SUBSTANCE_COMMENT>
InChI=1S/C23H26Cl2N4/c24-19-12-21-22(13-20(19)25)29(23(27-21)17-6-9-26-14-17)18-7-10-28(11-8-18)15-16-4-2-1-3-5-16/h1-5,12-13,17-18,26H,6-11,14-15H2/t17-/m1/s1
InChIKey=GHPYJZIEXYOCOD-QGZVFWFLSA-N

> <PUBCHEM_SUBSTANCE_SYNONYM>
SCHEMBL16128076

> <PUBCHEM_XREF_EXT_ID>
SCHEMBL16128076

> <PUBCHEM_EXT_DATASOURCE_URL>
https://www.surechembl.org/

> <PUBCHEM_EXT_SUBSTANCE_URL>
https://www.surechembl.org/chemical/SCHEMBL16128076

> <PUBCHEM_CID_ASSOCIATIONS>
117615167  1

> <PUBCHEM_COORDINATE_TYPE>
1
3

> <PUBCHEM_BONDANNOTATIONS>
11  8  6

$$$$
