310944122
  -OEChem-07211613022D

 34 38  0     1  0  0  0  0  0999 V2000
    2.5390    0.8500    0.0000 O   0  0  0  0  0  0  0  0  0  0  0  0
    5.4644    0.2649    0.0000 O   0  0  0  0  0  0  0  0  0  0  0  0
    5.4533    1.7332    0.0000 O   0  0  0  0  0  0  0  0  0  0  0  0
   -0.6403   -1.5676    0.0000 O   0  0  0  0  0  0  0  0  0  0  0  0
    3.4111   -0.3311    0.0000 N   0  0  0  0  0  0  0  0  0  0  0  0
    0.4526   -0.2981    0.0000 N   0  0  0  0  0  0  0  0  0  0  0  0
   -2.2520   -1.2474    0.0000 N   0  0  0  0  0  0  0  0  0  0  0  0
   -4.1397   -0.1435    0.0000 N   0  0  0  0  0  0  0  0  0  0  0  0
   -4.4819    0.6071    0.0000 N   0  0  0  0  0  0  0  0  0  0  0  0
   -5.3098    0.5078    0.0000 N   0  0  0  0  0  0  0  0  0  0  0  0
   -5.4644   -0.2981    0.0000 N   0  0  0  0  0  0  0  0  0  0  0  0
    2.0975   -0.5409    0.0000 C   0  0  0  0  0  0  0  0  0  0  0  0
    2.6715    0.0221    0.0000 C   0  0  0  0  0  0  0  0  0  0  0  0
    3.2897   -1.1370    0.0000 C   0  0  3  0  0  0  0  0  0  0  0  0
    4.1397    0.0552    0.0000 C   0  0  0  0  0  0  0  0  0  0  0  0
    2.4727   -1.2584    0.0000 C   0  0  0  0  0  0  0  0  0  0  0  0
    1.5786   -1.1812    0.0000 C   0  0  0  0  0  0  0  0  0  0  0  0
    1.7994    0.2208    0.0000 C   0  0  0  0  0  0  0  0  0  0  0  0
    4.2722    0.8721    0.0000 C   0  0  0  0  0  0  0  0  0  0  0  0
    4.8903   -0.3091    0.0000 C   0  0  0  0  0  0  0  0  0  0  0  0
    5.0670    0.9825    0.0000 C   0  0  0  0  0  0  0  0  0  0  0  0
    0.7617   -1.0487    0.0000 C   0  0  0  0  0  0  0  0  0  0  0  0
    0.9714    0.3532    0.0000 C   0  0  0  0  0  0  0  0  0  0  0  0
    3.8858   -1.7332    0.0000 C   0  0  0  0  0  0  0  0  0  0  0  0
   -0.3532   -0.1766    0.0000 C   0  0  0  0  0  0  0  0  0  0  0  0
   -1.7111   -0.6071    0.0000 C   0  0  0  0  0  0  0  0  0  0  0  0
   -0.9052   -0.7838    0.0000 C   0  0  3  0  0  0  0  0  0  0  0  0
    3.6650    1.4462    0.0000 C   0  0  0  0  0  0  0  0  0  0  0  0
   -1.9760    0.1546    0.0000 C   0  0  0  0  0  0  0  0  0  0  0  0
   -3.3338   -0.2981    0.0000 C   0  0  0  0  0  0  0  0  0  0  0  0
   -2.7819    0.3201    0.0000 C   0  0  0  0  0  0  0  0  0  0  0  0
   -3.0689   -1.0819    0.0000 C   0  0  0  0  0  0  0  0  0  0  0  0
   -4.7468   -0.6954    0.0000 C   0  0  0  0  0  0  0  0  0  0  0  0
   -1.4130    0.7838    0.0000 C   0  0  0  0  0  0  0  0  0  0  0  0
  1 13  2  0  0  0  0
  2 20  1  0  0  0  0
  2 21  1  0  0  0  0
  3 21  2  0  0  0  0
 27  4  1  6  0  0  0
  5 13  1  0  0  0  0
  5 14  1  0  0  0  0
  5 15  1  0  0  0  0
  6 22  1  0  0  0  0
  6 23  1  0  0  0  0
  6 25  1  0  0  0  0
  7 26  1  0  0  0  0
  7 32  2  0  0  0  0
  8  9  1  0  0  0  0
  8 30  1  0  0  0  0
  8 33  1  0  0  0  0
  9 10  2  0  0  0  0
 10 11  1  0  0  0  0
 11 33  2  0  0  0  0
 12 13  1  0  0  0  0
 12 16  1  0  0  0  0
 12 17  1  0  0  0  0
 12 18  1  0  0  0  0
 14 16  1  0  0  0  0
 14 24  1  0  0  0  0
 15 19  2  0  0  0  0
 15 20  1  0  0  0  0
 17 22  1  0  0  0  0
 18 23  1  0  0  0  0
 19 21  1  0  0  0  0
 19 28  1  0  0  0  0
 25 27  1  0  0  0  0
 26 27  1  0  0  0  0
 26 29  2  0  0  0  0
 29 31  1  0  0  0  0
 29 34  1  0  0  0  0
 30 31  2  0  0  0  0
 30 32  1  0  0  0  0
M  END
> <PUBCHEM_COMPOUND_ID_TYPE>
0

> <PUBCHEM_TOTAL_CHARGE>
0

> <PUBCHEM_SUBSTANCE_ID>
310944122

> <PUBCHEM_SUBSTANCE_VERSION>
1

> <PUBCHEM_EXT_DATASOURCE_NAME>
4488

> <PUBCHEM_EXT_DATASOURCE_REGID>
SCHEMBL16122197

> <PUBCHEM_SUBSTANCE_COMMENT>
InChI=1S/C23H29N7O4/c1-14-8-17(29-13-25-26-27-29)10-24-20(14)19(31)11-28-6-4-23(5-7-28)9-15(2)30(22(23)33)18-12-34-21(32)16(18)3/h8,10,13,15,19,31H,4-7,9,11-12H2,1-3H3/t15?,19-/m0/s1
InChIKey=CUUPCMNMRRHLQV-FUBQLUNQSA-N

> <PUBCHEM_SUBSTANCE_SYNONYM>
SCHEMBL16122197

> <PUBCHEM_XREF_EXT_ID>
SCHEMBL16122197

> <PUBCHEM_EXT_DATASOURCE_URL>
https://www.surechembl.org/

> <PUBCHEM_EXT_SUBSTANCE_URL>
https://www.surechembl.org/chemical/SCHEMBL16122197

> <PUBCHEM_CID_ASSOCIATIONS>
117610404  1

> <PUBCHEM_COORDINATE_TYPE>
1
3

> <PUBCHEM_BONDANNOTATIONS>
27  4  6

$$$$
