310942638
  -OEChem-07211613022D

 59 65  0     1  0  0  0  0  0999 V2000
    3.3221    2.4750    0.0000 F   0  0  0  0  0  0  0  0  0  0  0  0
    2.1730   -4.2134    0.0000 F   0  0  0  0  0  0  0  0  0  0  0  0
    0.0663    2.1214    0.0000 F   0  0  0  0  0  0  0  0  0  0  0  0
    1.2154   -0.0884    0.0000 O   0  0  0  0  0  0  0  0  0  0  0  0
    5.1932   -2.4161    0.0000 O   0  0  0  0  0  0  0  0  0  0  0  0
   -1.6279   -0.9134    0.0000 O   0  0  0  0  0  0  0  0  0  0  0  0
   -2.3350   -2.1656    0.0000 O   0  0  0  0  0  0  0  0  0  0  0  0
   -4.6481    4.2135    0.0000 O   0  0  0  0  0  0  0  0  0  0  0  0
   -6.0918    1.6795    0.0000 O   0  0  0  0  0  0  0  0  0  0  0  0
   -3.7641    1.1638    0.0000 O   0  0  0  0  0  0  0  0  0  0  0  0
    3.7199    0.1621    0.0000 N   0  0  0  0  0  0  0  0  0  0  0  0
    2.3498   -1.5763    0.0000 N   0  0  0  0  0  0  0  0  0  0  0  0
    2.3940    0.1621    0.0000 N   0  0  0  0  0  0  0  0  0  0  0  0
    0.4935   -1.3259    0.0000 N   0  0  0  0  0  0  0  0  0  0  0  0
    0.3315   -3.1085    0.0000 N   0  0  0  0  0  0  0  0  0  0  0  0
   -5.1784    2.8286    0.0000 N   0  0  0  0  0  0  0  0  0  0  0  0
   -3.0569   -0.9134    0.0000 N   0  0  0  0  0  0  0  0  0  0  0  0
    3.0717   -0.3241    0.0000 C   0  0  0  0  0  0  0  0  0  0  0  0
    3.0569   -1.1638    0.0000 C   0  0  3  0  0  0  0  0  0  0  0  0
    2.6444    0.9576    0.0000 C   0  0  0  0  0  0  0  0  0  0  0  0
    3.7788   -1.5763    0.0000 C   0  0  0  0  0  0  0  0  0  0  0  0
    3.4842    0.9429    0.0000 C   0  0  0  0  0  0  0  0  0  0  0  0
    2.1583    1.6353    0.0000 C   0  0  0  0  0  0  0  0  0  0  0  0
    1.2007   -0.9281    0.0000 C   0  0  0  0  0  0  0  0  0  0  0  0
    2.3350   -2.4161    0.0000 C   0  0  0  0  0  0  0  0  0  0  0  0
    4.5007   -0.0884    0.0000 C   0  0  0  0  0  0  0  0  0  0  0  0
    2.4971    2.3866    0.0000 C   0  0  0  0  0  0  0  0  0  0  0  0
    1.6426   -2.8286    0.0000 C   0  0  3  0  0  0  0  0  0  0  0  0
    3.7788   -2.4013    0.0000 C   0  0  0  0  0  0  0  0  0  0  0  0
    4.4566   -1.1638    0.0000 C   0  0  0  0  0  0  0  0  0  0  0  0
    1.3627    1.5469    0.0000 C   0  0  0  0  0  0  0  0  0  0  0  0
    5.0900    0.4862    0.0000 C   0  0  0  0  0  0  0  0  0  0  0  0
    1.5542   -3.6536    0.0000 C   0  0  3  0  0  0  0  0  0  0  0  0
    0.8766    2.2246    0.0000 C   0  0  0  0  0  0  0  0  0  0  0  0
   -0.2283   -0.9134    0.0000 C   0  0  0  0  0  0  0  0  0  0  0  0
    2.0257    3.0348    0.0000 C   0  0  0  0  0  0  0  0  0  0  0  0
    0.4935   -2.1656    0.0000 C   0  0  0  0  0  0  0  0  0  0  0  0
    0.8766   -2.4897    0.0000 C   0  0  0  0  0  0  0  0  0  0  0  0
    5.1784   -1.5763    0.0000 C   0  0  0  0  0  0  0  0  0  0  0  0
    4.4860   -2.8138    0.0000 C   0  0  0  0  0  0  0  0  0  0  0  0
   -0.9060   -1.3112    0.0000 C   0  0  3  0  0  0  0  0  0  0  0  0
    1.2154    2.9612    0.0000 C   0  0  0  0  0  0  0  0  0  0  0  0
    5.8856    0.2799    0.0000 C   0  0  0  0  0  0  0  0  0  0  0  0
    4.8838    1.2670    0.0000 C   0  0  0  0  0  0  0  0  0  0  0  0
    0.7440   -3.8156    0.0000 C   0  0  0  0  0  0  0  0  0  0  0  0
   -0.1842   -2.5634    0.0000 C   0  0  0  0  0  0  0  0  0  0  0  0
   -0.9208   -2.1509    0.0000 C   0  0  0  0  0  0  0  0  0  0  0  0
    6.4749    0.8545    0.0000 C   0  0  0  0  0  0  0  0  0  0  0  0
    5.4583    1.8710    0.0000 C   0  0  0  0  0  0  0  0  0  0  0  0
    6.2686    1.6647    0.0000 C   0  0  0  0  0  0  0  0  0  0  0  0
   -2.3498   -1.2964    0.0000 C   0  0  0  0  0  0  0  0  0  0  0  0
   -5.9150    2.5339    0.0000 C   0  0  0  0  0  0  0  0  0  0  0  0
   -5.2816    3.6536    0.0000 C   0  0  0  0  0  0  0  0  0  0  0  0
   -6.4749    3.1085    0.0000 C   0  0  0  0  0  0  0  0  0  0  0  0
   -6.0624    3.8304    0.0000 C   0  0  0  0  0  0  0  0  0  0  0  0
   -4.4713    2.4161    0.0000 C   0  0  0  0  0  0  0  0  0  0  0  0
   -3.0569   -0.0737    0.0000 C   0  0  0  0  0  0  0  0  0  0  0  0
   -4.4713    1.5911    0.0000 C   0  0  0  0  0  0  0  0  0  0  0  0
   -3.7493    0.3388    0.0000 C   0  0  0  0  0  0  0  0  0  0  0  0
  1 27  1  0  0  0  0
 33  2  1  1  0  0  0
  3 34  1  0  0  0  0
  4 24  2  0  0  0  0
  5 39  1  0  0  0  0
  5 40  1  0  0  0  0
  6 41  1  0  0  0  0
  6 51  1  0  0  0  0
  7 51  2  0  0  0  0
  8 53  2  0  0  0  0
  9 52  2  0  0  0  0
 10 58  1  0  0  0  0
 10 59  1  0  0  0  0
 11 18  1  0  0  0  0
 11 22  1  0  0  0  0
 11 26  1  0  0  0  0
 19 12  1  1  0  0  0
 12 24  1  0  0  0  0
 12 25  1  0  0  0  0
 13 18  2  0  0  0  0
 13 20  1  0  0  0  0
 14 24  1  0  0  0  0
 14 35  1  0  0  0  0
 14 37  1  0  0  0  0
 15 38  1  0  0  0  0
 15 45  1  0  0  0  0
 16 52  1  0  0  0  0
 16 53  1  0  0  0  0
 16 56  1  0  0  0  0
 17 51  1  0  0  0  0
 17 57  1  0  0  0  0
 18 19  1  0  0  0  0
 19 21  1  0  0  0  0
 20 22  2  0  0  0  0
 20 23  1  0  0  0  0
 21 29  1  0  0  0  0
 21 30  1  0  0  0  0
 23 27  1  0  0  0  0
 23 31  2  0  0  0  0
 28 25  1  1  0  0  0
 26 32  1  0  0  0  0
 27 36  2  0  0  0  0
 28 33  1  0  0  0  0
 28 38  1  0  0  0  0
 29 40  1  0  0  0  0
 30 39  1  0  0  0  0
 31 34  1  0  0  0  0
 32 43  2  0  0  0  0
 32 44  1  0  0  0  0
 33 45  1  0  0  0  0
 34 42  2  0  0  0  0
 35 41  1  0  0  0  0
 36 42  1  0  0  0  0
 37 46  1  0  0  0  0
 41 47  1  0  0  0  0
 43 48  1  0  0  0  0
 44 49  2  0  0  0  0
 46 47  1  0  0  0  0
 48 50  2  0  0  0  0
 49 50  1  0  0  0  0
 52 54  1  0  0  0  0
 53 55  1  0  0  0  0
 54 55  2  0  0  0  0
 56 58  1  0  0  0  0
 57 59  1  0  0  0  0
M  END
> <PUBCHEM_COMPOUND_ID_TYPE>
0

> <PUBCHEM_TOTAL_CHARGE>
0

> <PUBCHEM_SUBSTANCE_ID>
310942638

> <PUBCHEM_SUBSTANCE_VERSION>
1

> <PUBCHEM_EXT_DATASOURCE_NAME>
4488

> <PUBCHEM_EXT_DATASOURCE_REGID>
SCHEMBL16120684

> <PUBCHEM_SUBSTANCE_COMMENT>
InChI=1S/C42H50F3N7O7/c43-31-8-9-34(44)33(21-31)36-27-50(24-28-5-2-1-3-6-28)40(48-36)39(29-12-17-57-18-13-29)52(25-30-22-46-23-35(30)45)42(56)49-15-4-7-32(26-49)59-41(55)47-14-19-58-20-16-51-37(53)10-11-38(51)54/h1-3,5-6,8-11,21,27,29-30,32,35,39,46H,4,7,12-20,22-26H2,(H,47,55)/t30-,32?,35-,39+/m0/s1
InChIKey=FBABGLSGEDGKRZ-NFTAXQOASA-N

> <PUBCHEM_SUBSTANCE_SYNONYM>
SCHEMBL16120684

> <PUBCHEM_XREF_EXT_ID>
SCHEMBL16120684

> <PUBCHEM_EXT_DATASOURCE_URL>
https://www.surechembl.org/

> <PUBCHEM_EXT_SUBSTANCE_URL>
https://www.surechembl.org/chemical/SCHEMBL16120684

> <PUBCHEM_CID_ASSOCIATIONS>
117609169  1

> <PUBCHEM_COORDINATE_TYPE>
1
3

> <PUBCHEM_BONDANNOTATIONS>
19  12  5
33  2  5
28  25  5

$$$$
