310948607
  -OEChem-07211613022D

 25 27  0     1  0  0  0  0  0999 V2000
   -2.0074    3.8703    0.0000 Br  0  0  0  0  0  0  0  0  0  0  0  0
   -1.8423    0.5981    0.0000 S   0  0  0  0  0  0  0  0  0  0  0  0
   -1.8286   -0.2269    0.0000 O   0  0  0  0  0  0  0  0  0  0  0  0
   -2.6536    0.5018    0.0000 O   0  0  0  0  0  0  0  0  0  0  0  0
    1.4574   -2.3442    0.0000 O   0  0  0  0  0  0  0  0  0  0  0  0
    0.2200   -3.0454    0.0000 O   0  0  0  0  0  0  0  0  0  0  0  0
   -1.0174    0.5156    0.0000 N   0  0  3  0  0  0  0  0  0  0  0  0
   -2.0074    1.4093    0.0000 C   0  0  0  0  0  0  0  0  0  0  0  0
   -1.3061    1.8217    0.0000 C   0  0  0  0  0  0  0  0  0  0  0  0
   -0.6875    1.2718    0.0000 C   0  0  0  0  0  0  0  0  0  0  0  0
   -0.6049   -0.1856    0.0000 C   0  0  0  0  0  0  0  0  0  0  0  0
   -2.7086    1.8217    0.0000 C   0  0  0  0  0  0  0  0  0  0  0  0
   -1.2924    2.6329    0.0000 C   0  0  0  0  0  0  0  0  0  0  0  0
   -2.0074    3.0454    0.0000 C   0  0  0  0  0  0  0  0  0  0  0  0
   -1.0036   -0.9006    0.0000 C   0  0  0  0  0  0  0  0  0  0  0  0
    0.2200   -0.1994    0.0000 C   0  0  0  0  0  0  0  0  0  0  0  0
   -2.7086    2.6329    0.0000 C   0  0  0  0  0  0  0  0  0  0  0  0
    0.2200   -1.6292    0.0000 C   0  0  0  0  0  0  0  0  0  0  0  0
   -0.6049   -1.6155    0.0000 C   0  0  0  0  0  0  0  0  0  0  0  0
    0.6324   -0.9143    0.0000 C   0  0  0  0  0  0  0  0  0  0  0  0
    0.6462   -2.3304    0.0000 C   0  0  0  0  0  0  0  0  0  0  0  0
    1.8561   -3.0454    0.0000 C   0  0  0  0  0  0  0  0  0  0  0  0
    1.0861   -3.3479    0.0000 C   0  0  0  0  0  0  0  0  0  0  0  0
    2.7086   -3.0316    0.0000 C   0  0  0  0  0  0  0  0  0  0  0  0
    2.0211   -3.8703    0.0000 C   0  0  0  0  0  0  0  0  0  0  0  0
  1 14  1  0  0  0  0
  2  3  2  0  0  0  0
  2  4  2  0  0  0  0
  2  7  1  0  0  0  0
  2  8  1  0  0  0  0
  5 21  1  0  0  0  0
  5 22  1  0  0  0  0
  6 21  2  0  0  0  0
  7 10  1  0  0  0  0
 11  7  1  1  0  0  0
  8  9  1  0  0  0  0
  8 12  2  0  0  0  0
  9 10  1  0  0  0  0
  9 13  2  0  0  0  0
 11 15  1  0  0  0  0
 11 16  1  0  0  0  0
 12 17  1  0  0  0  0
 13 14  1  0  0  0  0
 14 17  2  0  0  0  0
 15 19  1  0  0  0  0
 16 20  1  0  0  0  0
 18 19  1  0  0  0  0
 18 20  1  0  0  0  0
 18 21  1  1  0  0  0
 22 23  1  0  0  0  0
 22 24  1  0  0  0  0
 22 25  1  0  0  0  0
M  END
> <PUBCHEM_COMPOUND_ID_TYPE>
0

> <PUBCHEM_TOTAL_CHARGE>
0

> <PUBCHEM_SUBSTANCE_ID>
310948607

> <PUBCHEM_SUBSTANCE_VERSION>
1

> <PUBCHEM_EXT_DATASOURCE_NAME>
4488

> <PUBCHEM_EXT_DATASOURCE_REGID>
SCHEMBL16126790

> <PUBCHEM_SUBSTANCE_COMMENT>
InChI=1S/C18H24BrNO4S/c1-18(2,3)24-17(21)12-4-7-15(8-5-12)20-11-13-10-14(19)6-9-16(13)25(20,22)23/h6,9-10,12,15H,4-5,7-8,11H2,1-3H3/t12-,15+
InChIKey=OQUIZLXMDDXTFH-JNSHFYNHSA-N

> <PUBCHEM_SUBSTANCE_SYNONYM>
SCHEMBL16126790

> <PUBCHEM_XREF_EXT_ID>
SCHEMBL16126790

> <PUBCHEM_EXT_DATASOURCE_URL>
https://www.surechembl.org/

> <PUBCHEM_EXT_SUBSTANCE_URL>
https://www.surechembl.org/chemical/SCHEMBL16126790

> <PUBCHEM_CID_ASSOCIATIONS>
117613936  1

> <PUBCHEM_COORDINATE_TYPE>
1
3

> <PUBCHEM_BONDANNOTATIONS>
18  21  5
11  7  5

$$$$
