310949611
  -OEChem-07211613022D

  9  8  0     0  0  0  0  0  0999 V2000
    1.0135    0.2794    0.0000 N   0  0  0  0  0  0  0  0  0  0  0  0
   -1.3093   -0.7067    0.0000 N   0  0  0  0  0  0  0  0  0  0  0  0
   -1.7256    0.0055    0.0000 N   0  0  0  0  0  0  0  0  0  0  0  0
    0.3013    0.7067    0.0000 C   0  0  0  0  0  0  0  0  0  0  0  0
   -0.4109    0.2903    0.0000 C   0  0  0  0  0  0  0  0  0  0  0  0
   -0.5095   -0.5314    0.0000 C   0  0  0  0  0  0  0  0  0  0  0  0
    1.0025   -0.5424    0.0000 C   0  0  0  0  0  0  0  0  0  0  0  0
    1.7256    0.6958    0.0000 C   0  0  0  0  0  0  0  0  0  0  0  0
   -1.1888    0.6081    0.0000 C   0  0  0  0  0  0  0  0  0  0  0  0
  1  4  1  0  0  0  0
  1  7  1  0  0  0  0
  1  8  1  0  0  0  0
  2  3  1  0  0  0  0
  2  6  1  0  0  0  0
  3  9  2  0  0  0  0
  4  5  1  0  0  0  0
  5  6  2  0  0  0  0
M  END
> <PUBCHEM_COMPOUND_ID_TYPE>
0

> <PUBCHEM_TOTAL_CHARGE>
0

> <PUBCHEM_SUBSTANCE_ID>
310949611

> <PUBCHEM_SUBSTANCE_VERSION>
1

> <PUBCHEM_EXT_DATASOURCE_NAME>
4488

> <PUBCHEM_EXT_DATASOURCE_REGID>
SCHEMBL16127809

> <PUBCHEM_SUBSTANCE_COMMENT>
InChI=1S/C6H13N3/c1-7-8-5-4-6-9(2)3/h4-5,8H,1,6H2,2-3H3/b5-4+
InChIKey=CIQLHVDDCVKYIK-SNAWJCMRSA-N

> <PUBCHEM_SUBSTANCE_SYNONYM>
SCHEMBL16127809

> <PUBCHEM_XREF_EXT_ID>
SCHEMBL16127809

> <PUBCHEM_EXT_DATASOURCE_URL>
https://www.surechembl.org/

> <PUBCHEM_EXT_SUBSTANCE_URL>
https://www.surechembl.org/chemical/SCHEMBL16127809

> <PUBCHEM_CID_ASSOCIATIONS>
117615003  1

> <PUBCHEM_COORDINATE_TYPE>
1
3

$$$$
