310947286
  -OEChem-07211613022D

 35 38  0     0  0  0  0  0  0999 V2000
   -2.1753    2.2906    0.0000 O   0  0  0  0  0  0  0  0  0  0  0  0
    4.0227    0.1430    0.0000 O   0  0  0  0  0  0  0  0  0  0  0  0
    5.4517    0.1430    0.0000 O   0  0  0  0  0  0  0  0  0  0  0  0
   -5.0332    1.4656    0.0000 O   0  0  0  0  0  0  0  0  0  0  0  0
    0.7528   -0.0269    0.0000 N   0  0  0  0  0  0  0  0  0  0  0  0
    1.2377    0.6406    0.0000 N   0  0  0  0  0  0  0  0  0  0  0  0
   -2.8897    1.0531    0.0000 N   0  0  0  0  0  0  0  0  0  0  0  0
   -0.0319    1.0531    0.0000 C   0  0  0  0  0  0  0  0  0  0  0  0
   -0.0319    0.2281    0.0000 C   0  0  0  0  0  0  0  0  0  0  0  0
    0.7528    1.3080    0.0000 C   0  0  0  0  0  0  0  0  0  0  0  0
   -0.7463    1.4656    0.0000 C   0  0  0  0  0  0  0  0  0  0  0  0
   -1.4608    1.0531    0.0000 C   0  0  0  0  0  0  0  0  0  0  0  0
   -0.7463   -0.1844    0.0000 C   0  0  0  0  0  0  0  0  0  0  0  0
    0.9663   -0.8238    0.0000 C   0  0  0  0  0  0  0  0  0  0  0  0
    0.9663    2.1049    0.0000 C   0  0  0  0  0  0  0  0  0  0  0  0
   -1.4608    0.2281    0.0000 C   0  0  0  0  0  0  0  0  0  0  0  0
    1.7632   -1.0373    0.0000 C   0  0  0  0  0  0  0  0  0  0  0  0
   -2.1753    1.4656    0.0000 C   0  0  0  0  0  0  0  0  0  0  0  0
    3.3570   -1.4643    0.0000 C   0  0  0  0  0  0  0  0  0  0  0  0
    4.1538   -1.6779    0.0000 C   0  0  0  0  0  0  0  0  0  0  0  0
    1.9767   -1.8342    0.0000 C   0  0  0  0  0  0  0  0  0  0  0  0
    2.3465   -0.4539    0.0000 C   0  0  0  0  0  0  0  0  0  0  0  0
    4.7372   -1.0945    0.0000 C   0  0  0  0  0  0  0  0  0  0  0  0
    2.7736   -2.0477    0.0000 C   0  0  0  0  0  0  0  0  0  0  0  0
    3.1434   -0.6674    0.0000 C   0  0  0  0  0  0  0  0  0  0  0  0
    0.3829    2.6883    0.0000 C   0  0  0  0  0  0  0  0  0  0  0  0
    1.7632    2.3184    0.0000 C   0  0  0  0  0  0  0  0  0  0  0  0
    4.3674   -2.4747    0.0000 C   0  0  0  0  0  0  0  0  0  0  0  0
    4.7372   -0.2695    0.0000 C   0  0  0  0  0  0  0  0  0  0  0  0
    5.5341   -1.3080    0.0000 C   0  0  0  0  0  0  0  0  0  0  0  0
    5.1643   -2.6883    0.0000 C   0  0  0  0  0  0  0  0  0  0  0  0
    5.7476   -2.1049    0.0000 C   0  0  0  0  0  0  0  0  0  0  0  0
   -3.6042    1.4656    0.0000 C   0  0  0  0  0  0  0  0  0  0  0  0
   -4.3187    1.0531    0.0000 C   0  0  0  0  0  0  0  0  0  0  0  0
   -5.7476    1.0531    0.0000 C   0  0  0  0  0  0  0  0  0  0  0  0
  1 18  2  0  0  0  0
  2 29  2  0  0  0  0
  3 29  1  0  0  0  0
  4 34  1  0  0  0  0
  4 35  1  0  0  0  0
  5  6  1  0  0  0  0
  5  9  1  0  0  0  0
  5 14  1  0  0  0  0
  6 10  2  0  0  0  0
  7 18  1  0  0  0  0
  7 33  1  0  0  0  0
  8  9  1  0  0  0  0
  8 10  1  0  0  0  0
  8 11  2  0  0  0  0
  9 13  2  0  0  0  0
 10 15  1  0  0  0  0
 11 12  1  0  0  0  0
 12 16  2  0  0  0  0
 12 18  1  0  0  0  0
 13 16  1  0  0  0  0
 14 17  1  0  0  0  0
 15 26  1  0  0  0  0
 15 27  1  0  0  0  0
 17 21  2  0  0  0  0
 17 22  1  0  0  0  0
 19 20  1  0  0  0  0
 19 24  2  0  0  0  0
 19 25  1  0  0  0  0
 20 23  1  0  0  0  0
 20 28  2  0  0  0  0
 21 24  1  0  0  0  0
 22 25  2  0  0  0  0
 23 29  1  0  0  0  0
 23 30  2  0  0  0  0
 28 31  1  0  0  0  0
 30 32  1  0  0  0  0
 31 32  2  0  0  0  0
 33 34  1  0  0  0  0
M  END
> <PUBCHEM_COMPOUND_ID_TYPE>
0

> <PUBCHEM_TOTAL_CHARGE>
0

> <PUBCHEM_SUBSTANCE_ID>
310947286

> <PUBCHEM_SUBSTANCE_VERSION>
1

> <PUBCHEM_EXT_DATASOURCE_NAME>
4488

> <PUBCHEM_EXT_DATASOURCE_REGID>
SCHEMBL16125441

> <PUBCHEM_SUBSTANCE_COMMENT>
InChI=1S/C28H29N3O4/c1-18(2)26-24-16-21(27(32)29-14-15-35-3)12-13-25(24)31(30-26)17-19-8-10-20(11-9-19)22-6-4-5-7-23(22)28(33)34/h4-13,16,18H,14-15,17H2,1-3H3,(H,29,32)(H,33,34)
InChIKey=XFOUFTIRZHNNPE-UHFFFAOYSA-N

> <PUBCHEM_SUBSTANCE_SYNONYM>
SCHEMBL16125441

> <PUBCHEM_XREF_EXT_ID>
SCHEMBL16125441

> <PUBCHEM_EXT_DATASOURCE_URL>
https://www.surechembl.org/

> <PUBCHEM_EXT_SUBSTANCE_URL>
https://www.surechembl.org/chemical/SCHEMBL16125441

> <PUBCHEM_CID_ASSOCIATIONS>
71577141  1

> <PUBCHEM_COORDINATE_TYPE>
1
3

$$$$
