310944222
  -OEChem-07211613022D

 42 45  0     0  0  0  0  0  0999 V2000
    0.0079    3.9478    0.0000 F   0  0  0  0  0  0  0  0  0  0  0  0
    3.5695   -2.2615    0.0000 F   0  0  0  0  0  0  0  0  0  0  0  0
   -3.5537   -2.3245    0.0000 F   0  0  0  0  0  0  0  0  0  0  0  0
   -2.1512   -3.9478    0.0000 N   0  0  0  0  0  0  0  0  0  0  0  0
    2.1039   -3.9005    0.0000 N   0  0  0  0  0  0  0  0  0  0  0  0
    2.1512    3.4907    0.0000 N   0  0  0  0  0  0  0  0  0  0  0  0
   -4.3102   -0.3231    0.0000 N   0  0  0  0  0  0  0  0  0  0  0  0
    4.3102   -0.2758    0.0000 N   0  0  0  0  0  0  0  0  0  0  0  0
   -2.1512    3.4277    0.0000 N   0  0  0  0  0  0  0  0  0  0  0  0
   -0.0237    0.6383    0.0000 C   0  0  0  0  0  0  0  0  0  0  0  0
    0.7013   -0.5752    0.0000 C   0  0  0  0  0  0  0  0  0  0  0  0
   -0.7328   -0.6068    0.0000 C   0  0  0  0  0  0  0  0  0  0  0  0
    0.7170    0.2443    0.0000 C   0  0  0  0  0  0  0  0  0  0  0  0
   -0.0079   -1.0007    0.0000 C   0  0  0  0  0  0  0  0  0  0  0  0
   -0.7170    0.2285    0.0000 C   0  0  0  0  0  0  0  0  0  0  0  0
   -0.0079    1.4892    0.0000 C   0  0  0  0  0  0  0  0  0  0  0  0
    1.4262   -1.0007    0.0000 C   0  0  0  0  0  0  0  0  0  0  0  0
   -1.4262   -1.0165    0.0000 C   0  0  0  0  0  0  0  0  0  0  0  0
    0.6855    1.8990    0.0000 C   0  0  0  0  0  0  0  0  0  0  0  0
    1.4262   -1.8202    0.0000 C   0  0  0  0  0  0  0  0  0  0  0  0
   -1.4420   -1.8675    0.0000 C   0  0  0  0  0  0  0  0  0  0  0  0
   -0.7013    1.8833    0.0000 C   0  0  0  0  0  0  0  0  0  0  0  0
    2.1354   -0.5909    0.0000 C   0  0  0  0  0  0  0  0  0  0  0  0
   -2.1512   -0.6225    0.0000 C   0  0  0  0  0  0  0  0  0  0  0  0
    0.7013    2.7343    0.0000 C   0  0  0  0  0  0  0  0  0  0  0  0
    2.1039   -2.2299    0.0000 C   0  0  0  0  0  0  0  0  0  0  0  0
   -2.1354   -2.2615    0.0000 C   0  0  0  0  0  0  0  0  0  0  0  0
   -0.7170    2.7185    0.0000 C   0  0  0  0  0  0  0  0  0  0  0  0
    2.8446   -0.9692    0.0000 C   0  0  0  0  0  0  0  0  0  0  0  0
   -2.8604   -1.0322    0.0000 C   0  0  0  0  0  0  0  0  0  0  0  0
    1.4262    0.6225    0.0000 C   0  0  0  0  0  0  0  0  0  0  0  0
    0.0079   -1.8518    0.0000 C   0  0  0  0  0  0  0  0  0  0  0  0
   -1.4105    0.6383    0.0000 C   0  0  0  0  0  0  0  0  0  0  0  0
   -0.0237    3.1282    0.0000 C   0  0  0  0  0  0  0  0  0  0  0  0
    2.8288   -1.8202    0.0000 C   0  0  0  0  0  0  0  0  0  0  0  0
   -2.8761   -1.8833    0.0000 C   0  0  0  0  0  0  0  0  0  0  0  0
    1.4262    3.1282    0.0000 C   0  0  0  0  0  0  0  0  0  0  0  0
    2.1039   -3.0810    0.0000 C   0  0  0  0  0  0  0  0  0  0  0  0
   -2.1512   -3.1282    0.0000 C   0  0  0  0  0  0  0  0  0  0  0  0
   -1.4420    3.0967    0.0000 C   0  0  0  0  0  0  0  0  0  0  0  0
    3.5695   -0.6068    0.0000 C   0  0  0  0  0  0  0  0  0  0  0  0
   -3.5853   -0.6540    0.0000 C   0  0  0  0  0  0  0  0  0  0  0  0
  1 34  1  0  0  0  0
  2 35  1  0  0  0  0
  3 36  1  0  0  0  0
  4 39  3  0  0  0  0
  5 38  3  0  0  0  0
  6 37  3  0  0  0  0
  7 42  3  0  0  0  0
  8 41  3  0  0  0  0
  9 40  3  0  0  0  0
 10 13  1  0  0  0  0
 10 15  2  0  0  0  0
 10 16  1  0  0  0  0
 11 13  2  0  0  0  0
 11 14  1  0  0  0  0
 11 17  1  0  0  0  0
 12 14  2  0  0  0  0
 12 15  1  0  0  0  0
 12 18  1  0  0  0  0
 13 31  1  0  0  0  0
 14 32  1  0  0  0  0
 15 33  1  0  0  0  0
 16 19  2  0  0  0  0
 16 22  1  0  0  0  0
 17 20  2  0  0  0  0
 17 23  1  0  0  0  0
 18 21  2  0  0  0  0
 18 24  1  0  0  0  0
 19 25  1  0  0  0  0
 20 26  1  0  0  0  0
 21 27  1  0  0  0  0
 22 28  2  0  0  0  0
 23 29  2  0  0  0  0
 24 30  2  0  0  0  0
 25 34  2  0  0  0  0
 25 37  1  0  0  0  0
 26 35  2  0  0  0  0
 26 38  1  0  0  0  0
 27 36  2  0  0  0  0
 27 39  1  0  0  0  0
 28 34  1  0  0  0  0
 28 40  1  0  0  0  0
 29 35  1  0  0  0  0
 29 41  1  0  0  0  0
 30 36  1  0  0  0  0
 30 42  1  0  0  0  0
M  END
> <PUBCHEM_COMPOUND_ID_TYPE>
0

> <PUBCHEM_TOTAL_CHARGE>
0

> <PUBCHEM_SUBSTANCE_ID>
310944222

> <PUBCHEM_SUBSTANCE_VERSION>
1

> <PUBCHEM_EXT_DATASOURCE_NAME>
4488

> <PUBCHEM_EXT_DATASOURCE_REGID>
SCHEMBL16122297

> <PUBCHEM_SUBSTANCE_COMMENT>
InChI=1S/C33H15F3N6/c1-16-28(19-4-22(10-37)31(34)23(5-19)11-38)17(2)30(21-8-26(14-41)33(36)27(9-21)15-42)18(3)29(16)20-6-24(12-39)32(35)25(7-20)13-40/h4-9H,1-3H3
InChIKey=VEZBTHWEIAIKMX-UHFFFAOYSA-N

> <PUBCHEM_SUBSTANCE_SYNONYM>
SCHEMBL16122297

> <PUBCHEM_XREF_EXT_ID>
SCHEMBL16122297

> <PUBCHEM_EXT_DATASOURCE_URL>
https://www.surechembl.org/

> <PUBCHEM_EXT_SUBSTANCE_URL>
https://www.surechembl.org/chemical/SCHEMBL16122297

> <PUBCHEM_CID_ASSOCIATIONS>
117610493  1

> <PUBCHEM_COORDINATE_TYPE>
1
3

$$$$
