310929077
  -OEChem-07211613022D

 58 63  0     1  0  0  0  0  0999 V2000
    2.1635   -9.2952    0.0000 O   0  0  0  0  0  0  0  0  0  0  0  0
    5.0482  -11.8594    0.0000 O   0  0  0  0  0  0  0  0  0  0  0  0
    6.4906  -11.8594    0.0000 O   0  0  0  0  0  0  0  0  0  0  0  0
    2.8847  -13.9428    0.0000 O   0  0  0  0  0  0  0  0  0  0  0  0
    3.0449   -3.8463    0.0000 O   0  0  0  0  0  0  0  0  0  0  0  0
    0.9616    0.0000    0.0000 O   0  0  0  0  0  0  0  0  0  0  0  0
    3.6059  -12.6607    0.0000 N   0  0  0  0  0  0  0  0  0  0  0  0
    2.1635  -12.6607    0.0000 N   0  0  0  0  0  0  0  0  0  0  0  0
    1.4423   -8.0131    0.0000 N   0  0  0  0  0  0  0  0  0  0  0  0
    7.2118  -13.0614    0.0000 N   0  0  0  0  0  0  0  0  0  0  0  0
    0.8013   -6.7310    0.0000 N   0  0  0  0  0  0  0  0  0  0  0  0
    0.0000   -8.0131    0.0000 N   0  0  0  0  0  0  0  0  0  0  0  0
    1.6026   -3.7661    0.0000 N   0  0  0  0  0  0  0  0  0  0  0  0
    0.8814   -1.6828    0.0000 N   0  0  0  0  0  0  0  0  0  0  0  0
    2.8847  -11.3786    0.0000 C   0  0  0  0  0  0  0  0  0  0  0  0
    5.0482  -12.6607    0.0000 C   0  0  0  0  0  0  0  0  0  0  0  0
    4.3270  -13.0614    0.0000 C   0  0  0  0  0  0  0  0  0  0  0  0
    2.8847  -10.5773    0.0000 C   0  0  0  0  0  0  0  0  0  0  0  0
    5.7695  -13.0614    0.0000 C   0  0  0  0  0  0  0  0  0  0  0  0
    5.0482  -14.3434    0.0000 C   0  0  0  0  0  0  0  0  0  0  0  0
    2.1635  -11.8594    0.0000 C   0  0  0  0  0  0  0  0  0  0  0  0
    2.1635  -10.1767    0.0000 C   0  0  0  0  0  0  0  0  0  0  0  0
    4.3270  -13.9428    0.0000 C   0  0  0  0  0  0  0  0  0  0  0  0
    5.7695  -13.9428    0.0000 C   0  0  0  0  0  0  0  0  0  0  0  0
    5.0482  -15.2249    0.0000 C   0  0  0  0  0  0  0  0  0  0  0  0
    6.4906  -12.6607    0.0000 C   0  0  0  0  0  0  0  0  0  0  0  0
    2.8847  -13.0614    0.0000 C   0  0  0  0  0  0  0  0  0  0  0  0
    1.4423  -11.3786    0.0000 C   0  0  0  0  0  0  0  0  0  0  0  0
    1.4423  -10.5773    0.0000 C   0  0  0  0  0  0  0  0  0  0  0  0
    3.6059  -11.8594    0.0000 C   0  0  0  0  0  0  0  0  0  0  0  0
    3.6059  -10.1767    0.0000 C   0  0  0  0  0  0  0  0  0  0  0  0
    1.4423   -8.8945    0.0000 C   0  0  0  0  0  0  0  0  0  0  0  0
    4.3270  -11.4587    0.0000 C   0  0  0  0  0  0  0  0  0  0  0  0
    4.3270  -10.5773    0.0000 C   0  0  0  0  0  0  0  0  0  0  0  0
    0.7212   -7.6124    0.0000 C   0  0  0  0  0  0  0  0  0  0  0  0
    4.1668  -15.2249    0.0000 C   0  0  0  0  0  0  0  0  0  0  0  0
    5.0482  -16.0262    0.0000 C   0  0  0  0  0  0  0  0  0  0  0  0
    5.9297  -15.2249    0.0000 C   0  0  0  0  0  0  0  0  0  0  0  0
    1.5225   -6.3303    0.0000 C   0  0  0  0  0  0  0  0  0  0  0  0
    0.7212   -9.2952    0.0000 C   0  0  0  0  0  0  0  0  0  0  0  0
    2.2437   -5.1284    0.0000 C   0  0  0  0  0  0  0  0  0  0  0  0
    1.5225   -5.4489    0.0000 C   0  0  0  0  0  0  0  0  0  0  0  0
    2.9649   -6.4105    0.0000 C   0  0  0  0  0  0  0  0  0  0  0  0
    2.2437   -6.8111    0.0000 C   0  0  0  0  0  0  0  0  0  0  0  0
    0.0000   -8.8144    0.0000 C   0  0  0  0  0  0  0  0  0  0  0  0
    2.9649   -5.5290    0.0000 C   0  0  0  0  0  0  0  0  0  0  0  0
    4.4874  -11.5388    0.0000 C   0  0  0  0  0  0  0  0  0  0  0  0
    2.3238   -4.2469    0.0000 C   0  0  0  0  0  0  0  0  0  0  0  0
    7.2118  -13.9428    0.0000 C   0  0  0  0  0  0  0  0  0  0  0  0
    3.6860   -6.8111    0.0000 C   0  0  0  0  0  0  0  0  0  0  0  0
    1.6026   -2.9649    0.0000 C   0  0  3  0  0  0  0  0  0  0  0  0
    0.8814   -2.4840    0.0000 C   0  0  0  0  0  0  0  0  0  0  0  0
    4.4072   -6.4105    0.0000 C   0  0  0  0  0  0  0  0  0  0  0  0
    2.3238   -2.5642    0.0000 C   0  0  0  0  0  0  0  0  0  0  0  0
    0.2404   -1.2019    0.0000 C   0  0  0  0  0  0  0  0  0  0  0  0
    1.6828   -1.2821    0.0000 C   0  0  0  0  0  0  0  0  0  0  0  0
    0.2404   -0.4007    0.0000 C   0  0  0  0  0  0  0  0  0  0  0  0
    1.6828   -0.4808    0.0000 C   0  0  0  0  0  0  0  0  0  0  0  0
  1 22  1  0  0  0  0
  1 32  1  0  0  0  0
  2 16  1  0  0  0  0
  2 47  1  0  0  0  0
  3 26  2  0  0  0  0
  4 27  2  0  0  0  0
  5 48  2  0  0  0  0
  6 57  1  0  0  0  0
  6 58  1  0  0  0  0
  7 17  1  0  0  0  0
  7 27  1  0  0  0  0
  8 21  1  0  0  0  0
  8 27  1  0  0  0  0
  9 32  2  0  0  0  0
  9 35  1  0  0  0  0
 10 26  1  0  0  0  0
 10 49  1  0  0  0  0
 11 35  1  0  0  0  0
 11 39  1  0  0  0  0
 12 35  2  0  0  0  0
 12 45  1  0  0  0  0
 13 48  1  0  0  0  0
 13 51  1  0  0  0  0
 14 52  1  0  0  0  0
 14 55  1  0  0  0  0
 14 56  1  0  0  0  0
 15 18  2  0  0  0  0
 15 21  1  0  0  0  0
 15 30  1  0  0  0  0
 16 17  1  0  0  0  0
 16 19  2  0  0  0  0
 17 23  2  0  0  0  0
 18 22  1  0  0  0  0
 18 31  1  0  0  0  0
 19 24  1  0  0  0  0
 19 26  1  0  0  0  0
 20 23  1  0  0  0  0
 20 24  2  0  0  0  0
 20 25  1  0  0  0  0
 21 28  2  0  0  0  0
 22 29  2  0  0  0  0
 25 36  1  0  0  0  0
 25 37  1  0  0  0  0
 25 38  1  0  0  0  0
 28 29  1  0  0  0  0
 30 33  2  0  0  0  0
 31 34  2  0  0  0  0
 32 40  1  0  0  0  0
 33 34  1  0  0  0  0
 39 42  2  0  0  0  0
 39 44  1  0  0  0  0
 40 45  2  0  0  0  0
 41 42  1  0  0  0  0
 41 46  2  0  0  0  0
 41 48  1  0  0  0  0
 43 44  2  0  0  0  0
 43 46  1  0  0  0  0
 43 50  1  0  0  0  0
 50 53  3  0  0  0  0
 51 52  1  0  0  0  0
 51 54  1  1  0  0  0
 55 57  1  0  0  0  0
 56 58  1  0  0  0  0
M  END
> <PUBCHEM_COMPOUND_ID_TYPE>
0

> <PUBCHEM_TOTAL_CHARGE>
0

> <PUBCHEM_SUBSTANCE_ID>
310929077

> <PUBCHEM_SUBSTANCE_VERSION>
1

> <PUBCHEM_EXT_DATASOURCE_NAME>
4488

> <PUBCHEM_EXT_DATASOURCE_REGID>
SCHEMBL16106239

> <PUBCHEM_SUBSTANCE_COMMENT>
InChI=1S/C44H48N8O6/c1-8-28-21-29(40(53)47-27(2)26-52-17-19-57-20-18-52)23-31(22-28)48-42-46-16-15-38(51-42)58-37-14-13-35(32-11-9-10-12-33(32)37)49-43(55)50-36-25-30(44(3,4)5)24-34(39(36)56-7)41(54)45-6/h1,9-16,21-25,27H,17-20,26H2,2-7H3,(H,45,54)(H,47,53)(H,46,48,51)(H2,49,50,55)/t27-/m1/s1
InChIKey=YKRFIZKEAPDSEK-HHHXNRCGSA-N

> <PUBCHEM_SUBSTANCE_SYNONYM>
SCHEMBL16106239

> <PUBCHEM_XREF_EXT_ID>
SCHEMBL16106239

> <PUBCHEM_EXT_DATASOURCE_URL>
https://www.surechembl.org/

> <PUBCHEM_EXT_SUBSTANCE_URL>
https://www.surechembl.org/chemical/SCHEMBL16106239

> <PUBCHEM_CID_ASSOCIATIONS>
117598575  1

> <PUBCHEM_COORDINATE_TYPE>
1
3

> <PUBCHEM_BONDANNOTATIONS>
51  54  5

$$$$
