310944967
  -OEChem-07211613022D

 29 30  0     1  0  0  0  0  0999 V2000
   -4.3144   -0.0384    0.0000 Cl  0  0  0  0  0  0  0  0  0  0  0  0
   -1.0446    2.0795    0.0000 S   0  0  0  0  0  0  0  0  0  0  0  0
    1.1848    1.9680    0.0000 O   0  0  0  0  0  0  0  0  0  0  0  0
    0.3301    3.1199    0.0000 O   0  0  0  0  0  0  0  0  0  0  0  0
    3.8014   -2.2946    0.0000 O   0  0  0  0  0  0  0  0  0  0  0  0
    3.2996   -3.1199    0.0000 O   0  0  0  0  0  0  0  0  0  0  0  0
    0.4230    0.5189    0.0000 N   0  0  0  0  0  0  0  0  0  0  0  0
   -4.0357    1.4107    0.0000 N   0  0  0  0  0  0  0  0  0  0  0  0
    1.7607   -0.4658    0.0000 N   0  0  0  0  0  0  0  0  0  0  0  0
   -0.2458    1.8194    0.0000 C   0  0  0  0  0  0  0  0  0  0  0  0
   -1.5462    1.4107    0.0000 C   0  0  0  0  0  0  0  0  0  0  0  0
   -0.2643    1.0019    0.0000 C   0  0  0  0  0  0  0  0  0  0  0  0
   -1.0446    0.7232    0.0000 C   0  0  0  0  0  0  0  0  0  0  0  0
   -2.3822    1.4107    0.0000 C   0  0  0  0  0  0  0  0  0  0  0  0
    0.4045    2.3024    0.0000 C   0  0  0  0  0  0  0  0  0  0  0  0
   -2.7910    0.6861    0.0000 C   0  0  0  0  0  0  0  0  0  0  0  0
   -2.7724    2.0980    0.0000 C   0  0  0  0  0  0  0  0  0  0  0  0
   -3.6270    0.7047    0.0000 C   0  0  0  0  0  0  0  0  0  0  0  0
    0.3488   -0.3357    0.0000 C   0  0  0  0  0  0  0  0  0  0  0  0
   -3.6084    2.1166    0.0000 C   0  0  0  0  0  0  0  0  0  0  0  0
    1.0176   -0.8188    0.0000 C   0  0  3  0  0  0  0  0  0  0  0  0
    3.2996   -2.5846    0.0000 C   0  0  0  0  0  0  0  0  0  0  0  0
    1.8350    2.4325    0.0000 C   0  0  0  0  0  0  0  0  0  0  0  0
    3.8126   -1.7371    0.0000 C   0  0  0  0  0  0  0  0  0  0  0  0
    0.9247   -1.6176    0.0000 C   0  0  0  0  0  0  0  0  0  0  0  0
    4.3144   -1.7148    0.0000 C   0  0  0  0  0  0  0  0  0  0  0  0
    3.2996   -1.7371    0.0000 C   0  0  0  0  0  0  0  0  0  0  0  0
    3.8014   -1.1906    0.0000 C   0  0  0  0  0  0  0  0  0  0  0  0
    2.5967    2.0980    0.0000 C   0  0  0  0  0  0  0  0  0  0  0  0
  1 18  1  0  0  0  0
  2 10  1  0  0  0  0
  2 11  1  0  0  0  0
  3 15  1  0  0  0  0
  3 23  1  0  0  0  0
  4 15  2  0  0  0  0
  5 22  1  0  0  0  0
  5 24  1  0  0  0  0
  6 22  2  0  0  0  0
  7 12  1  0  0  0  0
  7 19  1  0  0  0  0
  8 18  1  0  0  0  0
  8 20  2  0  0  0  0
  9 21  1  0  0  0  0
  9 22  1  0  0  0  0
 10 12  2  0  0  0  0
 10 15  1  0  0  0  0
 11 13  2  0  0  0  0
 11 14  1  0  0  0  0
 12 13  1  0  0  0  0
 14 16  1  0  0  0  0
 14 17  2  0  0  0  0
 16 18  2  0  0  0  0
 17 20  1  0  0  0  0
 19 21  1  0  0  0  0
 21 25  1  6  0  0  0
 23 29  1  0  0  0  0
 24 26  1  0  0  0  0
 24 27  1  0  0  0  0
 24 28  1  0  0  0  0
M  END
> <PUBCHEM_COMPOUND_ID_TYPE>
0

> <PUBCHEM_TOTAL_CHARGE>
0

> <PUBCHEM_SUBSTANCE_ID>
310944967

> <PUBCHEM_SUBSTANCE_VERSION>
1

> <PUBCHEM_EXT_DATASOURCE_NAME>
4488

> <PUBCHEM_EXT_DATASOURCE_REGID>
SCHEMBL16123055

> <PUBCHEM_SUBSTANCE_COMMENT>
InChI=1S/C20H26ClN3O4S/c1-6-27-18(25)17-14(10-15(29-17)13-7-8-22-16(21)9-13)23-11-12(2)24-19(26)28-20(3,4)5/h7-10,12,23H,6,11H2,1-5H3,(H,24,26)/t12-/m1/s1
InChIKey=VHGAXDQOAXIJGL-GFCCVEGCSA-N

> <PUBCHEM_SUBSTANCE_SYNONYM>
SCHEMBL16123055

> <PUBCHEM_XREF_EXT_ID>
SCHEMBL16123055

> <PUBCHEM_EXT_DATASOURCE_URL>
https://www.surechembl.org/

> <PUBCHEM_EXT_SUBSTANCE_URL>
https://www.surechembl.org/chemical/SCHEMBL16123055

> <PUBCHEM_CID_ASSOCIATIONS>
117611118  1

> <PUBCHEM_COORDINATE_TYPE>
1
3

> <PUBCHEM_BONDANNOTATIONS>
21  25  6

$$$$
