310937594
  -OEChem-07211613022D

 21 23  0     0  0  0  0  0  0999 V2000
    4.5698   -2.9189    0.0000 O   0  0  0  0  0  0  0  0  0  0  0  0
    4.5698   -1.4834    0.0000 O   0  0  0  0  0  0  0  0  0  0  0  0
    2.8711   -2.8711    0.0000 N   0  0  0  0  0  0  0  0  0  0  0  0
    0.0957   -0.3589    0.0000 N   0  0  0  0  0  0  0  0  0  0  0  0
    3.3496   -2.2012    0.0000 C   0  0  0  0  0  0  0  0  0  0  0  0
    2.0815   -1.7944    0.0000 C   0  0  0  0  0  0  0  0  0  0  0  0
    2.8711   -1.5313    0.0000 C   0  0  0  0  0  0  0  0  0  0  0  0
    2.0815   -2.6079    0.0000 C   0  0  0  0  0  0  0  0  0  0  0  0
    1.4116   -1.3159    0.0000 C   0  0  0  0  0  0  0  0  0  0  0  0
    4.1631   -2.2012    0.0000 C   0  0  0  0  0  0  0  0  0  0  0  0
    3.1343   -3.6606    0.0000 C   0  0  0  0  0  0  0  0  0  0  0  0
    3.9239   -3.8281    0.0000 C   0  0  0  0  0  0  0  0  0  0  0  0
    1.5073   -0.5024    0.0000 C   0  0  0  0  0  0  0  0  0  0  0  0
    0.6699   -1.6748    0.0000 C   0  0  0  0  0  0  0  0  0  0  0  0
    0.8374    0.0000    0.0000 C   0  0  0  0  0  0  0  0  0  0  0  0
    0.0000   -1.1485    0.0000 C   0  0  0  0  0  0  0  0  0  0  0  0
    4.1870   -4.6177    0.0000 C   0  0  0  0  0  0  0  0  0  0  0  0
    4.4980   -3.2061    0.0000 C   0  0  0  0  0  0  0  0  0  0  0  0
    5.0005   -4.7852    0.0000 C   0  0  0  0  0  0  0  0  0  0  0  0
    5.2876   -3.3735    0.0000 C   0  0  0  0  0  0  0  0  0  0  0  0
    5.5508   -4.1631    0.0000 C   0  0  0  0  0  0  0  0  0  0  0  0
  1 10  2  0  0  0  0
  2 10  1  0  0  0  0
  3  5  1  0  0  0  0
  3  8  1  0  0  0  0
  3 11  1  0  0  0  0
  4 15  2  0  0  0  0
  4 16  1  0  0  0  0
  5  7  2  0  0  0  0
  5 10  1  0  0  0  0
  6  7  1  0  0  0  0
  6  8  2  0  0  0  0
  6  9  1  0  0  0  0
  9 13  2  0  0  0  0
  9 14  1  0  0  0  0
 11 12  1  0  0  0  0
 12 17  2  0  0  0  0
 12 18  1  0  0  0  0
 13 15  1  0  0  0  0
 14 16  2  0  0  0  0
 17 19  1  0  0  0  0
 18 20  2  0  0  0  0
 19 21  2  0  0  0  0
 20 21  1  0  0  0  0
M  END
> <PUBCHEM_COMPOUND_ID_TYPE>
0

> <PUBCHEM_TOTAL_CHARGE>
0

> <PUBCHEM_SUBSTANCE_ID>
310937594

> <PUBCHEM_SUBSTANCE_VERSION>
1

> <PUBCHEM_EXT_DATASOURCE_NAME>
4488

> <PUBCHEM_EXT_DATASOURCE_REGID>
SCHEMBL16115375

> <PUBCHEM_SUBSTANCE_COMMENT>
InChI=1S/C17H14N2O2/c20-17(21)16-10-15(14-6-8-18-9-7-14)12-19(16)11-13-4-2-1-3-5-13/h1-10,12H,11H2,(H,20,21)
InChIKey=WSZQIEDYJLTYEO-UHFFFAOYSA-N

> <PUBCHEM_SUBSTANCE_SYNONYM>
SCHEMBL16115375

> <PUBCHEM_XREF_EXT_ID>
SCHEMBL16115375

> <PUBCHEM_EXT_DATASOURCE_URL>
https://www.surechembl.org/

> <PUBCHEM_EXT_SUBSTANCE_URL>
https://www.surechembl.org/chemical/SCHEMBL16115375

> <PUBCHEM_CID_ASSOCIATIONS>
117605299  1

> <PUBCHEM_COORDINATE_TYPE>
1
3

$$$$
