310941957
  -OEChem-07211613022D

 18 19  0     0  0  0  0  0  0999 V2000
   -0.0226   -1.4628    0.0000 O   0  5  0  0  0  0  0  0  0  0  0  0
   -1.2592   -2.1715    0.0000 O   0  0  0  0  0  0  0  0  0  0  0  0
    2.4807    1.4326    0.0000 O   0  0  0  0  0  0  0  0  0  0  0  0
   -0.8369   -1.4628    0.0000 N   0  3  0  0  0  0  0  0  0  0  0  0
    1.2442   -0.7389    0.0000 N   0  0  0  0  0  0  0  0  0  0  0  0
   -0.8369    0.0151    0.0000 C   0  0  0  0  0  0  0  0  0  0  0  0
   -0.0075    0.0000    0.0000 C   0  0  0  0  0  0  0  0  0  0  0  0
   -1.2592   -0.7238    0.0000 C   0  0  0  0  0  0  0  0  0  0  0  0
    0.4147    0.7238    0.0000 C   0  0  0  0  0  0  0  0  0  0  0  0
    1.2290    0.7238    0.0000 C   0  0  0  0  0  0  0  0  0  0  0  0
   -1.2592    0.7238    0.0000 C   0  0  0  0  0  0  0  0  0  0  0  0
    0.3996   -0.7088    0.0000 C   0  0  0  0  0  0  0  0  0  0  0  0
   -2.0886   -0.7088    0.0000 C   0  0  0  0  0  0  0  0  0  0  0  0
    1.6513   -0.0151    0.0000 C   0  0  0  0  0  0  0  0  0  0  0  0
    1.6211    1.4477    0.0000 C   0  0  0  0  0  0  0  0  0  0  0  0
   -2.0736    0.7238    0.0000 C   0  0  0  0  0  0  0  0  0  0  0  0
   -2.4807    0.0151    0.0000 C   0  0  0  0  0  0  0  0  0  0  0  0
    1.2140    2.1715    0.0000 C   0  0  0  0  0  0  0  0  0  0  0  0
  1  4  1  0  0  0  0
  2  4  2  0  0  0  0
  3 15  2  0  0  0  0
  4  8  1  0  0  0  0
  5 12  1  0  0  0  0
  5 14  2  0  0  0  0
  6  7  1  0  0  0  0
  6  8  1  0  0  0  0
  6 11  2  0  0  0  0
  7  9  1  0  0  0  0
  7 12  2  0  0  0  0
  8 13  2  0  0  0  0
  9 10  2  0  0  0  0
 10 14  1  0  0  0  0
 10 15  1  0  0  0  0
 11 16  1  0  0  0  0
 13 17  1  0  0  0  0
 15 18  1  0  0  0  0
 16 17  2  0  0  0  0
M  CHG  2   1  -1   4   1
M  END
> <PUBCHEM_COMPOUND_ID_TYPE>
0

> <PUBCHEM_TOTAL_CHARGE>
0

> <PUBCHEM_SUBSTANCE_ID>
310941957

> <PUBCHEM_SUBSTANCE_VERSION>
1

> <PUBCHEM_EXT_DATASOURCE_NAME>
4488

> <PUBCHEM_EXT_DATASOURCE_REGID>
SCHEMBL16119990

> <PUBCHEM_SUBSTANCE_COMMENT>
InChI=1S/C13H10N2O3/c1-9(16)10-6-11(8-14-7-10)12-4-2-3-5-13(12)15(17)18/h2-8H,1H3
InChIKey=NOXRAUHNJBAODP-UHFFFAOYSA-N

> <PUBCHEM_SUBSTANCE_SYNONYM>
SCHEMBL16119990

> <PUBCHEM_XREF_EXT_ID>
SCHEMBL16119990

> <PUBCHEM_EXT_DATASOURCE_URL>
https://www.surechembl.org/

> <PUBCHEM_EXT_SUBSTANCE_URL>
https://www.surechembl.org/chemical/SCHEMBL16119990

> <PUBCHEM_CID_ASSOCIATIONS>
117608674  1

> <PUBCHEM_COORDINATE_TYPE>
1
3

$$$$
