310940987
  -OEChem-07211613022D

 39 41  0     1  0  0  0  0  0999 V2000
    4.2837   -2.2757    0.0000 O   0  0  0  0  0  0  0  0  0  0  0  0
    2.1419   -1.8592    0.0000 O   0  0  0  0  0  0  0  0  0  0  0  0
    1.4130   -1.4428    0.0000 O   0  0  0  0  0  0  0  0  0  0  0  0
   -0.7288    0.6247    0.0000 O   0  0  0  0  0  0  0  0  0  0  0  0
    3.5697    2.2757    0.0000 O   0  0  0  0  0  0  0  0  0  0  0  0
   -2.8707   -1.4428    0.0000 O   0  0  0  0  0  0  0  0  0  0  0  0
   -5.7414   -1.4428    0.0000 O   0  0  0  0  0  0  0  0  0  0  0  0
    2.1419   -0.2082    0.0000 N   0  0  0  0  0  0  0  0  0  0  0  0
   -0.0148   -0.6247    0.0000 N   0  0  0  0  0  0  0  0  0  0  0  0
   -2.1567   -0.2082    0.0000 N   0  0  0  0  0  0  0  0  0  0  0  0
   -4.2987   -0.6247    0.0000 N   0  0  0  0  0  0  0  0  0  0  0  0
    3.6144   -1.8295    0.0000 C   0  0  3  0  0  0  0  0  0  0  0  0
    2.8112   -1.4279    0.0000 C   0  0  0  0  0  0  0  0  0  0  0  0
    4.2837   -1.4577    0.0000 C   0  0  0  0  0  0  0  0  0  0  0  0
    2.8707   -0.5949    0.0000 C   0  0  3  0  0  0  0  0  0  0  0  0
    2.8707   -2.2459    0.0000 C   0  0  0  0  0  0  0  0  0  0  0  0
    1.4279   -0.5800    0.0000 C   0  0  0  0  0  0  0  0  0  0  0  0
    3.5400   -0.1933    0.0000 C   0  0  0  0  0  0  0  0  0  0  0  0
    0.6990   -0.1785    0.0000 C   0  0  3  0  0  0  0  0  0  0  0  0
    0.7288    0.6395    0.0000 C   0  0  0  0  0  0  0  0  0  0  0  0
    1.4279    1.0561    0.0000 C   0  0  0  0  0  0  0  0  0  0  0  0
   -0.7437   -0.2082    0.0000 C   0  0  0  0  0  0  0  0  0  0  0  0
    4.2689   -0.6098    0.0000 C   0  0  0  0  0  0  0  0  0  0  0  0
   -1.4279   -0.5949    0.0000 C   0  0  3  0  0  0  0  0  0  0  0  0
    2.1419    0.6544    0.0000 C   0  0  0  0  0  0  0  0  0  0  0  0
    1.4428    1.8890    0.0000 C   0  0  0  0  0  0  0  0  0  0  0  0
    2.8559    1.8890    0.0000 C   0  0  0  0  0  0  0  0  0  0  0  0
   -2.8707   -0.5800    0.0000 C   0  0  0  0  0  0  0  0  0  0  0  0
    2.8559    1.0561    0.0000 C   0  0  0  0  0  0  0  0  0  0  0  0
    2.1269    2.2757    0.0000 C   0  0  0  0  0  0  0  0  0  0  0  0
    5.0126   -1.0263    0.0000 C   0  0  0  0  0  0  0  0  0  0  0  0
   -3.5995   -0.1933    0.0000 C   0  0  0  0  0  0  0  0  0  0  0  0
   -1.4428   -1.4130    0.0000 C   0  0  0  0  0  0  0  0  0  0  0  0
   -4.2987   -1.4279    0.0000 C   0  0  0  0  0  0  0  0  0  0  0  0
   -5.0274   -0.1933    0.0000 C   0  0  0  0  0  0  0  0  0  0  0  0
    5.7414   -1.4130    0.0000 C   0  0  0  0  0  0  0  0  0  0  0  0
   -4.9977   -1.8295    0.0000 C   0  0  0  0  0  0  0  0  0  0  0  0
   -5.7266   -0.5949    0.0000 C   0  0  0  0  0  0  0  0  0  0  0  0
    4.2987    1.8741    0.0000 C   0  0  0  0  0  0  0  0  0  0  0  0
  1 12  1  0  0  0  0
  1 14  1  0  0  0  0
  2 13  2  0  0  0  0
  3 17  2  0  0  0  0
  4 22  2  0  0  0  0
  5 27  1  0  0  0  0
  5 39  1  0  0  0  0
  6 28  2  0  0  0  0
  7 37  1  0  0  0  0
  7 38  1  0  0  0  0
 15  8  1  1  0  0  0
  8 17  1  0  0  0  0
 19  9  1  1  0  0  0
  9 22  1  0  0  0  0
 10 24  1  0  0  0  0
 10 28  1  0  0  0  0
 11 32  1  0  0  0  0
 11 34  1  0  0  0  0
 11 35  1  0  0  0  0
 12 13  1  1  0  0  0
 12 14  1  0  0  0  0
 12 16  1  6  0  0  0
 13 15  1  0  0  0  0
 15 18  1  0  0  0  0
 17 19  1  0  0  0  0
 18 23  1  0  0  0  0
 19 20  1  0  0  0  0
 20 21  1  0  0  0  0
 21 25  2  0  0  0  0
 21 26  1  0  0  0  0
 22 24  1  0  0  0  0
 23 31  3  0  0  0  0
 24 33  1  6  0  0  0
 25 29  1  0  0  0  0
 26 30  2  0  0  0  0
 27 29  2  0  0  0  0
 27 30  1  0  0  0  0
 28 32  1  0  0  0  0
 31 36  1  0  0  0  0
 34 37  1  0  0  0  0
 35 38  1  0  0  0  0
M  END
> <PUBCHEM_COMPOUND_ID_TYPE>
0

> <PUBCHEM_TOTAL_CHARGE>
0

> <PUBCHEM_SUBSTANCE_ID>
310940987

> <PUBCHEM_SUBSTANCE_VERSION>
1

> <PUBCHEM_EXT_DATASOURCE_NAME>
4488

> <PUBCHEM_EXT_DATASOURCE_REGID>
SCHEMBL16118946

> <PUBCHEM_SUBSTANCE_COMMENT>
InChI=1S/C28H38N4O7/c1-5-6-7-22(25(34)28(3)18-39-28)30-27(36)23(16-20-8-10-21(37-4)11-9-20)31-26(35)19(2)29-24(33)17-32-12-14-38-15-13-32/h8-11,19,22-23H,7,12-18H2,1-4H3,(H,29,33)(H,30,36)(H,31,35)/t19-,22-,23-,28+/m0/s1
InChIKey=AUWXQPGAOICZRL-CBGTVWSLSA-N

> <PUBCHEM_SUBSTANCE_SYNONYM>
SCHEMBL16118946

> <PUBCHEM_XREF_EXT_ID>
SCHEMBL16118946

> <PUBCHEM_EXT_DATASOURCE_URL>
https://www.surechembl.org/

> <PUBCHEM_EXT_SUBSTANCE_URL>
https://www.surechembl.org/chemical/SCHEMBL16118946

> <PUBCHEM_CID_ASSOCIATIONS>
117607893  1

> <PUBCHEM_COORDINATE_TYPE>
1
3

> <PUBCHEM_BONDANNOTATIONS>
12  13  5
12  16  6
24  33  6
15  8  5
19  9  5

$$$$
