310946002
  -OEChem-07211613022D

 40 43  0     1  0  0  0  0  0999 V2000
   -4.0914    0.0553    0.0000 S   0  0  0  0  0  0  0  0  0  0  0  0
    5.1834    0.9814    0.0000 O   0  0  0  0  0  0  0  0  0  0  0  0
    4.0500   -0.9814    0.0000 O   0  0  0  0  0  0  0  0  0  0  0  0
    1.6863    0.9676    0.0000 O   0  0  0  0  0  0  0  0  0  0  0  0
   -0.4700   -1.1058    0.0000 O   0  0  0  0  0  0  0  0  0  0  0  0
   -2.6263    0.9676    0.0000 O   0  0  0  0  0  0  0  0  0  0  0  0
    3.8288   -2.7507    0.0000 O   0  0  0  0  0  0  0  0  0  0  0  0
    2.4051   -0.2626    0.0000 N   0  0  0  0  0  0  0  0  0  0  0  0
    0.2488    0.1383    0.0000 N   0  0  0  0  0  0  0  0  0  0  0  0
   -1.9075   -0.2626    0.0000 N   0  0  0  0  0  0  0  0  0  0  0  0
   -4.2297   -1.2579    0.0000 N   0  0  0  0  0  0  0  0  0  0  0  0
    4.7550    0.3180    0.0000 C   0  0  3  0  0  0  0  0  0  0  0  0
    4.0500   -0.1106    0.0000 C   0  0  0  0  0  0  0  0  0  0  0  0
    4.3817    0.9952    0.0000 C   0  0  0  0  0  0  0  0  0  0  0  0
    3.3174    0.2903    0.0000 C   0  0  3  0  0  0  0  0  0  0  0  0
    5.4737   -0.1106    0.0000 C   0  0  0  0  0  0  0  0  0  0  0  0
    3.3313    1.3685    0.0000 C   0  0  0  0  0  0  0  0  0  0  0  0
    1.6863    0.1520    0.0000 C   0  0  0  0  0  0  0  0  0  0  0  0
    0.9676   -0.2350    0.0000 C   0  0  3  0  0  0  0  0  0  0  0  0
    2.5986    1.7831    0.0000 C   0  0  0  0  0  0  0  0  0  0  0  0
    0.9537   -1.0920    0.0000 C   0  0  0  0  0  0  0  0  0  0  0  0
   -0.4562   -0.2212    0.0000 C   0  0  0  0  0  0  0  0  0  0  0  0
    1.7002   -1.4791    0.0000 C   0  0  0  0  0  0  0  0  0  0  0  0
   -1.1888    0.1659    0.0000 C   0  0  3  0  0  0  0  0  0  0  0  0
   -3.3313   -0.2488    0.0000 C   0  0  0  0  0  0  0  0  0  0  0  0
   -2.6263    0.1520    0.0000 C   0  0  0  0  0  0  0  0  0  0  0  0
    1.8523    1.4652    0.0000 C   0  0  0  0  0  0  0  0  0  0  0  0
    2.5295    2.5848    0.0000 C   0  0  0  0  0  0  0  0  0  0  0  0
   -4.6445   -0.5253    0.0000 C   0  0  0  0  0  0  0  0  0  0  0  0
   -3.4280   -1.0782    0.0000 C   0  0  0  0  0  0  0  0  0  0  0  0
    1.3269    2.0458    0.0000 C   0  0  0  0  0  0  0  0  0  0  0  0
    1.7278    2.7507    0.0000 C   0  0  0  0  0  0  0  0  0  0  0  0
    1.7002   -2.3083    0.0000 C   0  0  0  0  0  0  0  0  0  0  0  0
    2.3913   -1.0920    0.0000 C   0  0  0  0  0  0  0  0  0  0  0  0
    3.1239   -2.3083    0.0000 C   0  0  0  0  0  0  0  0  0  0  0  0
    2.4051   -2.7231    0.0000 C   0  0  0  0  0  0  0  0  0  0  0  0
    3.1239   -1.4928    0.0000 C   0  0  0  0  0  0  0  0  0  0  0  0
   -1.1888    0.9814    0.0000 C   0  0  0  0  0  0  0  0  0  0  0  0
   -5.4737   -0.4562    0.0000 C   0  0  0  0  0  0  0  0  0  0  0  0
    4.5615   -2.2945    0.0000 C   0  0  0  0  0  0  0  0  0  0  0  0
  1 25  1  0  0  0  0
  1 29  1  0  0  0  0
  2 12  1  0  0  0  0
  2 14  1  0  0  0  0
  3 13  2  0  0  0  0
  4 18  2  0  0  0  0
  5 22  2  0  0  0  0
  6 26  2  0  0  0  0
  7 35  1  0  0  0  0
  7 40  1  0  0  0  0
 15  8  1  1  0  0  0
  8 18  1  0  0  0  0
 19  9  1  6  0  0  0
  9 22  1  0  0  0  0
 10 24  1  0  0  0  0
 10 26  1  0  0  0  0
 11 29  2  0  0  0  0
 11 30  1  0  0  0  0
 12 13  1  1  0  0  0
 12 14  1  0  0  0  0
 12 16  1  6  0  0  0
 13 15  1  0  0  0  0
 15 17  1  0  0  0  0
 17 20  1  0  0  0  0
 18 19  1  0  0  0  0
 19 21  1  0  0  0  0
 20 27  1  0  0  0  0
 20 28  1  0  0  0  0
 21 23  1  0  0  0  0
 22 24  1  0  0  0  0
 23 33  2  0  0  0  0
 23 34  1  0  0  0  0
 24 38  1  6  0  0  0
 25 26  1  0  0  0  0
 25 30  2  0  0  0  0
 27 31  1  0  0  0  0
 28 32  1  0  0  0  0
 29 39  1  0  0  0  0
 31 32  1  0  0  0  0
 33 36  1  0  0  0  0
 34 37  2  0  0  0  0
 35 36  2  0  0  0  0
 35 37  1  0  0  0  0
M  END
> <PUBCHEM_COMPOUND_ID_TYPE>
0

> <PUBCHEM_TOTAL_CHARGE>
0

> <PUBCHEM_SUBSTANCE_ID>
310946002

> <PUBCHEM_SUBSTANCE_VERSION>
1

> <PUBCHEM_EXT_DATASOURCE_NAME>
4488

> <PUBCHEM_EXT_DATASOURCE_REGID>
SCHEMBL16124108

> <PUBCHEM_SUBSTANCE_COMMENT>
InChI=1S/C29H38N4O6S/c1-17(31-28(37)24-15-30-18(2)40-24)26(35)33-23(14-20-9-11-21(38-4)12-10-20)27(36)32-22(13-19-7-5-6-8-19)25(34)29(3)16-39-29/h9-12,15,17,19,22-23H,5-8,13-14,16H2,1-4H3,(H,31,37)(H,32,36)(H,33,35)/t17-,22+,23+,29-/m1/s1
InChIKey=YTQBWBZNTMPRNN-VTTDXQGSSA-N

> <PUBCHEM_SUBSTANCE_SYNONYM>
SCHEMBL16124108

> <PUBCHEM_XREF_EXT_ID>
SCHEMBL16124108

> <PUBCHEM_EXT_DATASOURCE_URL>
https://www.surechembl.org/

> <PUBCHEM_EXT_SUBSTANCE_URL>
https://www.surechembl.org/chemical/SCHEMBL16124108

> <PUBCHEM_CID_ASSOCIATIONS>
117611973  1

> <PUBCHEM_COORDINATE_TYPE>
1
3

> <PUBCHEM_BONDANNOTATIONS>
12  13  5
12  16  6
24  38  6
15  8  5
19  9  6

$$$$
