310938840
  -OEChem-07211613022D

 25 28  0     0  0  0  0  0  0999 V2000
   -0.3379   -1.0257    0.0000 O   0  0  0  0  0  0  0  0  0  0  0  0
    1.5989   -5.5806    0.0000 O   0  0  0  0  0  0  0  0  0  0  0  0
    0.8592   -2.8201    0.0000 N   0  0  0  0  0  0  0  0  0  0  0  0
   -1.7203   -1.7402    0.0000 N   0  0  0  0  0  0  0  0  0  0  0  0
   -1.7203   -3.0751    0.0000 N   0  0  0  0  0  0  0  0  0  0  0  0
   -0.3379   -3.7896    0.0000 N   0  0  0  0  0  0  0  0  0  0  0  0
   -0.4104   -2.4076    0.0000 C   0  0  0  0  0  0  0  0  0  0  0  0
    0.0746   -3.0751    0.0000 C   0  0  0  0  0  0  0  0  0  0  0  0
   -1.2354   -2.4076    0.0000 C   0  0  0  0  0  0  0  0  0  0  0  0
    0.0746   -1.7402    0.0000 C   0  0  0  0  0  0  0  0  0  0  0  0
    1.4426   -3.4035    0.0000 C   0  0  0  0  0  0  0  0  0  0  0  0
    0.8592   -1.9951    0.0000 C   0  0  0  0  0  0  0  0  0  0  0  0
   -2.5049   -1.9951    0.0000 C   0  0  0  0  0  0  0  0  0  0  0  0
   -2.5049   -2.8201    0.0000 C   0  0  0  0  0  0  0  0  0  0  0  0
    1.2290   -4.2004    0.0000 C   0  0  0  0  0  0  0  0  0  0  0  0
    2.2394   -3.1900    0.0000 C   0  0  0  0  0  0  0  0  0  0  0  0
    1.8124   -4.7838    0.0000 C   0  0  0  0  0  0  0  0  0  0  0  0
   -3.2194   -1.5826    0.0000 C   0  0  0  0  0  0  0  0  0  0  0  0
   -3.2194   -3.2326    0.0000 C   0  0  0  0  0  0  0  0  0  0  0  0
    2.8228   -3.7733    0.0000 C   0  0  0  0  0  0  0  0  0  0  0  0
    2.6093   -4.5702    0.0000 C   0  0  0  0  0  0  0  0  0  0  0  0
   -3.9338   -1.9951    0.0000 C   0  0  0  0  0  0  0  0  0  0  0  0
   -3.9338   -2.8201    0.0000 C   0  0  0  0  0  0  0  0  0  0  0  0
    3.6197   -3.5598    0.0000 C   0  0  0  0  0  0  0  0  0  0  0  0
    2.1822   -6.1640    0.0000 C   0  0  0  0  0  0  0  0  0  0  0  0
  1 10  2  0  0  0  0
  2 17  1  0  0  0  0
  2 25  1  0  0  0  0
  3  8  1  0  0  0  0
  3 11  1  0  0  0  0
  3 12  1  0  0  0  0
  4  9  2  0  0  0  0
  4 13  1  0  0  0  0
  5  9  1  0  0  0  0
  5 14  1  0  0  0  0
  6  8  1  0  0  0  0
  7  8  2  0  0  0  0
  7  9  1  0  0  0  0
  7 10  1  0  0  0  0
 10 12  1  0  0  0  0
 11 15  1  0  0  0  0
 11 16  2  0  0  0  0
 13 14  1  0  0  0  0
 13 18  2  0  0  0  0
 14 19  2  0  0  0  0
 15 17  2  0  0  0  0
 16 20  1  0  0  0  0
 17 21  1  0  0  0  0
 18 22  1  0  0  0  0
 19 23  1  0  0  0  0
 20 21  2  0  0  0  0
 20 24  1  0  0  0  0
 22 23  2  0  0  0  0
M  END
> <PUBCHEM_COMPOUND_ID_TYPE>
0

> <PUBCHEM_TOTAL_CHARGE>
0

> <PUBCHEM_SUBSTANCE_ID>
310938840

> <PUBCHEM_SUBSTANCE_VERSION>
1

> <PUBCHEM_EXT_DATASOURCE_NAME>
4488

> <PUBCHEM_EXT_DATASOURCE_REGID>
SCHEMBL16116759

> <PUBCHEM_SUBSTANCE_COMMENT>
InChI=1S/C19H18N4O2/c1-11-7-12(9-13(8-11)25-2)23-10-16(24)17(18(23)20)19-21-14-5-3-4-6-15(14)22-19/h3-9H,10,20H2,1-2H3,(H,21,22)
InChIKey=XSAZCFPNXUVSHY-UHFFFAOYSA-N

> <PUBCHEM_SUBSTANCE_SYNONYM>
SCHEMBL16116759

> <PUBCHEM_XREF_EXT_ID>
SCHEMBL16116759

> <PUBCHEM_EXT_DATASOURCE_URL>
https://www.surechembl.org/

> <PUBCHEM_EXT_SUBSTANCE_URL>
https://www.surechembl.org/chemical/SCHEMBL16116759

> <PUBCHEM_CID_ASSOCIATIONS>
117606240  1

> <PUBCHEM_COORDINATE_TYPE>
1
3

$$$$
