310932579
  -OEChem-07211613022D

 24 26  0     0  0  0  0  0  0999 V2000
    4.0184   -2.1224    0.0000 O   0  0  0  0  0  0  0  0  0  0  0  0
    8.4895   -2.2072    0.0000 O   0  0  0  0  0  0  0  0  0  0  0  0
    7.7820   -3.4524    0.0000 O   0  0  0  0  0  0  0  0  0  0  0  0
    4.9239   -0.9904    0.0000 N   0  0  0  0  0  0  0  0  0  0  0  0
    4.8390   -0.1415    0.0000 N   0  0  0  0  0  0  0  0  0  0  0  0
    6.3671   -0.9904    0.0000 N   0  0  0  0  0  0  0  0  0  0  0  0
    0.0000   -1.8394    0.0000 N   0  0  0  0  0  0  0  0  0  0  0  0
    4.1882   -1.3017    0.0000 C   0  0  0  0  0  0  0  0  0  0  0  0
    3.5939   -0.7075    0.0000 C   0  0  0  0  0  0  0  0  0  0  0  0
    5.6314   -1.3866    0.0000 C   0  0  0  0  0  0  0  0  0  0  0  0
    2.8015   -0.7923    0.0000 C   0  0  0  0  0  0  0  0  0  0  0  0
    4.0184    0.0000    0.0000 C   0  0  0  0  0  0  0  0  0  0  0  0
    5.6314   -2.2072    0.0000 C   0  0  0  0  0  0  0  0  0  0  0  0
    6.3671   -2.6034    0.0000 C   0  0  0  0  0  0  0  0  0  0  0  0
    7.0746   -2.2072    0.0000 C   0  0  0  0  0  0  0  0  0  0  0  0
    7.0746   -1.3866    0.0000 C   0  0  0  0  0  0  0  0  0  0  0  0
    2.4619   -1.5564    0.0000 C   0  0  0  0  0  0  0  0  0  0  0  0
    2.2922   -0.1415    0.0000 C   0  0  0  0  0  0  0  0  0  0  0  0
    7.7820   -2.6034    0.0000 C   0  0  0  0  0  0  0  0  0  0  0  0
    1.1602   -0.9904    0.0000 C   0  0  0  0  0  0  0  0  0  0  0  0
    1.6413   -1.6413    0.0000 C   0  0  0  0  0  0  0  0  0  0  0  0
    1.4715   -0.2547    0.0000 C   0  0  0  0  0  0  0  0  0  0  0  0
    6.3671   -3.4241    0.0000 C   0  0  0  0  0  0  0  0  0  0  0  0
    0.3396   -1.0754    0.0000 C   0  0  0  0  0  0  0  0  0  0  0  0
  1  8  1  0  0  0  0
  2 19  2  0  0  0  0
  3 19  1  0  0  0  0
  4  5  1  0  0  0  0
  4  8  1  0  0  0  0
  4 10  1  0  0  0  0
  5 12  2  0  0  0  0
  6 10  2  0  0  0  0
  6 16  1  0  0  0  0
  7 24  3  0  0  0  0
  8  9  2  0  0  0  0
  9 11  1  0  0  0  0
  9 12  1  0  0  0  0
 10 13  1  0  0  0  0
 11 17  2  0  0  0  0
 11 18  1  0  0  0  0
 13 14  2  0  0  0  0
 14 15  1  0  0  0  0
 14 23  1  0  0  0  0
 15 16  2  0  0  0  0
 15 19  1  0  0  0  0
 17 21  1  0  0  0  0
 18 22  2  0  0  0  0
 20 21  2  0  0  0  0
 20 22  1  0  0  0  0
 20 24  1  0  0  0  0
M  END
> <PUBCHEM_COMPOUND_ID_TYPE>
0

> <PUBCHEM_TOTAL_CHARGE>
0

> <PUBCHEM_SUBSTANCE_ID>
310932579

> <PUBCHEM_SUBSTANCE_VERSION>
1

> <PUBCHEM_EXT_DATASOURCE_NAME>
4488

> <PUBCHEM_EXT_DATASOURCE_REGID>
SCHEMBL16109956

> <PUBCHEM_SUBSTANCE_COMMENT>
InChI=1S/C17H12N4O3/c1-10-6-15(19-8-13(10)17(23)24)21-16(22)14(9-20-21)12-4-2-11(7-18)3-5-12/h2-6,8-9,22H,1H3,(H,23,24)
InChIKey=YMESZVHGHJWCNO-UHFFFAOYSA-N

> <PUBCHEM_SUBSTANCE_SYNONYM>
SCHEMBL16109956

> <PUBCHEM_XREF_EXT_ID>
SCHEMBL16109956

> <PUBCHEM_EXT_DATASOURCE_URL>
https://www.surechembl.org/

> <PUBCHEM_EXT_SUBSTANCE_URL>
https://www.surechembl.org/chemical/SCHEMBL16109956

> <PUBCHEM_CID_ASSOCIATIONS>
117601102  1

> <PUBCHEM_COORDINATE_TYPE>
1
3

$$$$
