310942657
  -OEChem-07211613022D

 79 83  0     1  0  0  0  0  0999 V2000
    9.7073   -1.1546    0.0000 F   0  0  0  0  0  0  0  0  0  0  0  0
   11.0435    1.8639    0.0000 F   0  0  0  0  0  0  0  0  0  0  0  0
    8.1403    1.6825    0.0000 O   0  0  0  0  0  0  0  0  0  0  0  0
    8.1403    3.3320    0.0000 O   0  0  0  0  0  0  0  0  0  0  0  0
    2.4165    1.6825    0.0000 O   0  0  0  0  0  0  0  0  0  0  0  0
    3.1258    2.9196    0.0000 O   0  0  0  0  0  0  0  0  0  0  0  0
   -1.8721    1.6825    0.0000 O   0  0  0  0  0  0  0  0  0  0  0  0
   -4.0166   -0.3794    0.0000 O   0  0  0  0  0  0  0  0  0  0  0  0
  -11.1919   -0.5938    0.0000 O   0  0  0  0  0  0  0  0  0  0  0  0
   -8.2888   -0.5938    0.0000 O   0  0  0  0  0  0  0  0  0  0  0  0
   -6.1609    1.6825    0.0000 O   0  0  0  0  0  0  0  0  0  0  0  0
   -4.7259   -0.7918    0.0000 O   0  0  0  0  0  0  0  0  0  0  0  0
    7.5136   -0.3629    0.0000 N   0  0  0  0  0  0  0  0  0  0  0  0
    6.7053    1.6990    0.0000 N   0  0  0  0  0  0  0  0  0  0  0  0
    8.1733    0.7918    0.0000 N   0  0  0  0  0  0  0  0  0  0  0  0
    3.8516    1.6990    0.0000 N   0  0  0  0  0  0  0  0  0  0  0  0
   -9.7404   -0.3629    0.0000 N   0  0  0  0  0  0  0  0  0  0  0  0
   -3.3072    0.8742    0.0000 N   0  0  0  0  0  0  0  0  0  0  0  0
   -1.1629    0.4619    0.0000 N   0  0  0  0  0  0  0  0  0  0  0  0
   -5.4517    0.4619    0.0000 N   0  0  0  0  0  0  0  0  0  0  0  0
   -4.0166   -2.0289    0.0000 N   0  0  0  0  0  0  0  0  0  0  0  0
   -5.4517   -2.0289    0.0000 N   0  0  0  0  0  0  0  0  0  0  0  0
    7.4311    0.4619    0.0000 C   0  0  0  0  0  0  0  0  0  0  0  0
    6.7053    0.8742    0.0000 C   0  0  3  0  0  0  0  0  0  0  0  0
    8.7342    0.1979    0.0000 C   0  0  0  0  0  0  0  0  0  0  0  0
    5.9794    0.4619    0.0000 C   0  0  0  0  0  0  0  0  0  0  0  0
    8.3217   -0.5444    0.0000 C   0  0  0  0  0  0  0  0  0  0  0  0
    9.5589    0.2640    0.0000 C   0  0  0  0  0  0  0  0  0  0  0  0
    7.3980    2.1279    0.0000 C   0  0  0  0  0  0  0  0  0  0  0  0
    6.9032   -0.9237    0.0000 C   0  0  0  0  0  0  0  0  0  0  0  0
   10.0373   -0.3959    0.0000 C   0  0  0  0  0  0  0  0  0  0  0  0
    5.9794    2.1114    0.0000 C   0  0  0  0  0  0  0  0  0  0  0  0
    9.9053    1.0227    0.0000 C   0  0  0  0  0  0  0  0  0  0  0  0
    7.0681   -1.6990    0.0000 C   0  0  0  0  0  0  0  0  0  0  0  0
    5.2702    0.8577    0.0000 C   0  0  0  0  0  0  0  0  0  0  0  0
    5.2867    0.0330    0.0000 C   0  0  0  0  0  0  0  0  0  0  0  0
    6.0125   -0.3794    0.0000 C   0  0  0  0  0  0  0  0  0  0  0  0
    7.4475    2.9527    0.0000 C   0  0  3  0  0  0  0  0  0  0  0  0
   10.7135    1.1052    0.0000 C   0  0  0  0  0  0  0  0  0  0  0  0
   10.8620   -0.3134    0.0000 C   0  0  0  0  0  0  0  0  0  0  0  0
    5.3032    1.6990    0.0000 C   0  0  0  0  0  0  0  0  0  0  0  0
   11.1919    0.4289    0.0000 C   0  0  0  0  0  0  0  0  0  0  0  0
    6.4578   -2.2928    0.0000 C   0  0  0  0  0  0  0  0  0  0  0  0
    7.8434   -1.9958    0.0000 C   0  0  0  0  0  0  0  0  0  0  0  0
    4.5609    2.1114    0.0000 C   0  0  3  0  0  0  0  0  0  0  0  0
    6.7218    3.3320    0.0000 C   0  0  0  0  0  0  0  0  0  0  0  0
    6.6228   -3.0845    0.0000 C   0  0  0  0  0  0  0  0  0  0  0  0
    8.0083   -2.7877    0.0000 C   0  0  0  0  0  0  0  0  0  0  0  0
    7.4146   -3.3320    0.0000 C   0  0  0  0  0  0  0  0  0  0  0  0
    4.5609    2.9196    0.0000 C   0  0  0  0  0  0  0  0  0  0  0  0
    3.1258    2.0949    0.0000 C   0  0  0  0  0  0  0  0  0  0  0  0
    1.6908    2.0949    0.0000 C   0  0  0  0  0  0  0  0  0  0  0  0
    0.9980    1.6990    0.0000 C   0  0  0  0  0  0  0  0  0  0  0  0
   -2.5650    0.4619    0.0000 C   0  0  3  0  0  0  0  0  0  0  0  0
   -0.4537    0.8742    0.0000 C   0  0  0  0  0  0  0  0  0  0  0  0
   -1.8721    0.8577    0.0000 C   0  0  0  0  0  0  0  0  0  0  0  0
   -4.7423    0.8907    0.0000 C   0  0  3  0  0  0  0  0  0  0  0  0
   -4.0166    0.4784    0.0000 C   0  0  0  0  0  0  0  0  0  0  0  0
  -10.3837   -0.8577    0.0000 C   0  0  0  0  0  0  0  0  0  0  0  0
   -9.0806   -0.8412    0.0000 C   0  0  0  0  0  0  0  0  0  0  0  0
    0.9815    0.8742    0.0000 C   0  0  0  0  0  0  0  0  0  0  0  0
    0.2557    2.0949    0.0000 C   0  0  0  0  0  0  0  0  0  0  0  0
    0.2887    0.4619    0.0000 C   0  0  0  0  0  0  0  0  0  0  0  0
   -0.4207    1.6990    0.0000 C   0  0  0  0  0  0  0  0  0  0  0  0
  -10.1528   -1.6165    0.0000 C   0  0  0  0  0  0  0  0  0  0  0  0
   -9.3279   -1.6331    0.0000 C   0  0  0  0  0  0  0  0  0  0  0  0
   -4.7423    1.7155    0.0000 C   0  0  0  0  0  0  0  0  0  0  0  0
   -9.7404    0.4784    0.0000 C   0  0  0  0  0  0  0  0  0  0  0  0
   -2.5650   -0.3794    0.0000 C   0  0  0  0  0  0  0  0  0  0  0  0
   -6.1609    0.8577    0.0000 C   0  0  0  0  0  0  0  0  0  0  0  0
   -9.0311    0.8742    0.0000 C   0  0  0  0  0  0  0  0  0  0  0  0
   -3.2907   -0.7752    0.0000 C   0  0  0  0  0  0  0  0  0  0  0  0
   -6.8702    0.4619    0.0000 C   0  0  0  0  0  0  0  0  0  0  0  0
   -5.4682    2.0949    0.0000 C   0  0  0  0  0  0  0  0  0  0  0  0
   -4.0166    2.1279    0.0000 C   0  0  0  0  0  0  0  0  0  0  0  0
   -8.3052    0.4619    0.0000 C   0  0  0  0  0  0  0  0  0  0  0  0
   -7.5960    0.8742    0.0000 C   0  0  0  0  0  0  0  0  0  0  0  0
   -3.3072   -1.6165    0.0000 C   0  0  0  0  0  0  0  0  0  0  0  0
   -4.7423   -1.6331    0.0000 C   0  0  0  0  0  0  0  0  0  0  0  0
  1 31  1  0  0  0  0
  2 39  1  0  0  0  0
  3 29  2  0  0  0  0
 38  4  1  6  0  0  0
  5 51  1  0  0  0  0
  5 52  1  0  0  0  0
  6 51  2  0  0  0  0
  7 56  2  0  0  0  0
  8 58  2  0  0  0  0
  9 59  2  0  0  0  0
 10 60  2  0  0  0  0
 11 70  2  0  0  0  0
 12 79  2  0  0  0  0
 13 23  1  0  0  0  0
 13 27  1  0  0  0  0
 13 30  1  0  0  0  0
 24 14  1  1  0  0  0
 14 29  1  0  0  0  0
 14 32  1  0  0  0  0
 15 23  2  0  0  0  0
 15 25  1  0  0  0  0
 16 45  1  0  0  0  0
 16 51  1  0  0  0  0
 17 59  1  0  0  0  0
 17 60  1  0  0  0  0
 17 68  1  0  0  0  0
 54 18  1  6  0  0  0
 18 58  1  0  0  0  0
 19 55  1  0  0  0  0
 19 56  1  0  0  0  0
 57 20  1  1  0  0  0
 20 70  1  0  0  0  0
 21 78  1  0  0  0  0
 21 79  1  0  0  0  0
 22 79  1  0  0  0  0
 23 24  1  0  0  0  0
 24 26  1  0  0  0  0
 25 27  2  0  0  0  0
 25 28  1  0  0  0  0
 26 35  1  0  0  0  0
 26 36  1  0  0  0  0
 26 37  1  0  0  0  0
 28 31  2  0  0  0  0
 28 33  1  0  0  0  0
 29 38  1  0  0  0  0
 30 34  1  0  0  0  0
 31 40  1  0  0  0  0
 32 41  1  0  0  0  0
 33 39  2  0  0  0  0
 34 43  2  0  0  0  0
 34 44  1  0  0  0  0
 38 46  1  0  0  0  0
 39 42  1  0  0  0  0
 40 42  2  0  0  0  0
 41 45  1  0  0  0  0
 43 47  1  0  0  0  0
 44 48  2  0  0  0  0
 45 50  1  6  0  0  0
 47 49  2  0  0  0  0
 48 49  1  0  0  0  0
 52 53  1  0  0  0  0
 53 61  2  0  0  0  0
 53 62  1  0  0  0  0
 54 56  1  0  0  0  0
 54 69  1  0  0  0  0
 55 63  2  0  0  0  0
 55 64  1  0  0  0  0
 57 58  1  0  0  0  0
 57 67  1  0  0  0  0
 59 65  1  0  0  0  0
 60 66  1  0  0  0  0
 61 63  1  0  0  0  0
 62 64  2  0  0  0  0
 65 66  2  0  0  0  0
 67 74  1  0  0  0  0
 67 75  1  0  0  0  0
 68 71  1  0  0  0  0
 69 72  1  0  0  0  0
 70 73  1  0  0  0  0
 71 76  1  0  0  0  0
 72 78  1  0  0  0  0
 73 77  1  0  0  0  0
 76 77  1  0  0  0  0
M  END
> <PUBCHEM_COMPOUND_ID_TYPE>
0

> <PUBCHEM_TOTAL_CHARGE>
0

> <PUBCHEM_SUBSTANCE_ID>
310942657

> <PUBCHEM_SUBSTANCE_VERSION>
1

> <PUBCHEM_EXT_DATASOURCE_NAME>
4488

> <PUBCHEM_EXT_DATASOURCE_REGID>
SCHEMBL16120703

> <PUBCHEM_SUBSTANCE_COMMENT>
InChI=1S/C57H74F2N10O10/c1-35(2)49(66-46(71)18-12-9-13-29-68-47(72)25-26-48(68)73)53(75)65-44(17-14-28-61-55(60)77)52(74)63-41-22-19-39(20-23-41)34-79-56(78)62-36(3)27-30-69(54(76)37(4)70)50(57(5,6)7)51-64-45(42-31-40(58)21-24-43(42)59)33-67(51)32-38-15-10-8-11-16-38/h8,10-11,15-16,19-26,31,33,35-37,44,49-50,70H,9,12-14,17-18,27-30,32,34H2,1-7H3,(H,62,78)(H,63,74)(H,65,75)(H,66,71)(H3,60,61,77)/t36-,37+,44+,49+,50+/m1/s1
InChIKey=ROHKVNWHJHZHHR-UBRDWCQKSA-N

> <PUBCHEM_SUBSTANCE_SYNONYM>
SCHEMBL16120703

> <PUBCHEM_XREF_EXT_ID>
SCHEMBL16120703

> <PUBCHEM_EXT_DATASOURCE_URL>
https://www.surechembl.org/

> <PUBCHEM_EXT_SUBSTANCE_URL>
https://www.surechembl.org/chemical/SCHEMBL16120703

> <PUBCHEM_CID_ASSOCIATIONS>
117609187  1

> <PUBCHEM_COORDINATE_TYPE>
1
3

> <PUBCHEM_BONDANNOTATIONS>
24  14  5
54  18  6
57  20  5
38  4  6
45  50  6

$$$$
