310931047
  -OEChem-07211613022D

 34 37  0     1  0  0  0  0  0999 V2000
    2.9277   -7.2288    0.0000 Cl  0  0  0  0  0  0  0  0  0  0  0  0
    6.2529   -2.8915    0.0000 S   0  0  0  0  0  0  0  0  0  0  0  0
    5.3855   -1.4819    0.0000 F   0  0  0  0  0  0  0  0  0  0  0  0
    3.7590   -4.3373    0.0000 F   0  0  0  0  0  0  0  0  0  0  0  0
    8.7469    0.0000    0.0000 F   0  0  0  0  0  0  0  0  0  0  0  0
    2.8915   -2.8915    0.0000 O   0  0  0  0  0  0  0  0  0  0  0  0
    6.2529   -3.8313    0.0000 O   0  0  0  0  0  0  0  0  0  0  0  0
    6.2529   -2.0964    0.0000 O   0  0  0  0  0  0  0  0  0  0  0  0
    7.0842   -2.8915    0.0000 N   0  0  0  0  0  0  0  0  0  0  0  0
    8.3132   -2.1687    0.0000 N   0  0  0  0  0  0  0  0  0  0  0  0
    7.0842   -1.4458    0.0000 N   0  0  0  0  0  0  0  0  0  0  0  0
    0.3976   -2.9277    0.0000 N   0  0  0  0  0  0  0  0  0  0  0  0
    5.4216   -2.8915    0.0000 C   0  0  0  0  0  0  0  0  0  0  0  0
    4.9879   -2.2048    0.0000 C   0  0  0  0  0  0  0  0  0  0  0  0
    3.7228   -2.8915    0.0000 C   0  0  0  0  0  0  0  0  0  0  0  0
    4.9879   -3.6144    0.0000 C   0  0  0  0  0  0  0  0  0  0  0  0
    4.1927   -3.6144    0.0000 C   0  0  0  0  0  0  0  0  0  0  0  0
    4.1927   -2.2048    0.0000 C   0  0  0  0  0  0  0  0  0  0  0  0
    7.4818   -2.1687    0.0000 C   0  0  0  0  0  0  0  0  0  0  0  0
    1.6626   -3.6144    0.0000 C   0  0  3  0  0  0  0  0  0  0  0  0
    1.2289   -4.3373    0.0000 C   0  0  3  0  0  0  0  0  0  0  0  0
    2.4940   -3.6144    0.0000 C   0  0  0  0  0  0  0  0  0  0  0  0
    1.6626   -5.0602    0.0000 C   0  0  0  0  0  0  0  0  0  0  0  0
    1.2650   -2.9277    0.0000 C   0  0  0  0  0  0  0  0  0  0  0  0
    0.4337   -4.3373    0.0000 C   0  0  0  0  0  0  0  0  0  0  0  0
    8.3132   -0.7229    0.0000 C   0  0  0  0  0  0  0  0  0  0  0  0
    8.7107   -1.4458    0.0000 C   0  0  0  0  0  0  0  0  0  0  0  0
    7.4818   -0.7229    0.0000 C   0  0  0  0  0  0  0  0  0  0  0  0
    2.4940   -5.0602    0.0000 C   0  0  0  0  0  0  0  0  0  0  0  0
    1.2650   -5.7831    0.0000 C   0  0  0  0  0  0  0  0  0  0  0  0
    0.0000   -3.6505    0.0000 C   0  0  0  0  0  0  0  0  0  0  0  0
    2.4940   -6.5060    0.0000 C   0  0  0  0  0  0  0  0  0  0  0  0
    2.8915   -5.7831    0.0000 C   0  0  0  0  0  0  0  0  0  0  0  0
    1.6626   -6.5060    0.0000 C   0  0  0  0  0  0  0  0  0  0  0  0
  1 32  1  0  0  0  0
  2  7  2  0  0  0  0
  2  8  2  0  0  0  0
  2  9  1  0  0  0  0
  2 13  1  0  0  0  0
  3 14  1  0  0  0  0
  4 17  1  0  0  0  0
  5 26  1  0  0  0  0
  6 15  1  0  0  0  0
  6 22  1  0  0  0  0
  9 19  1  0  0  0  0
 10 19  2  0  0  0  0
 10 27  1  0  0  0  0
 11 19  1  0  0  0  0
 11 28  2  0  0  0  0
 12 24  1  0  0  0  0
 12 31  1  0  0  0  0
 13 14  1  0  0  0  0
 13 16  2  0  0  0  0
 14 18  2  0  0  0  0
 15 17  2  0  0  0  0
 15 18  1  0  0  0  0
 16 17  1  0  0  0  0
 20 21  1  0  0  0  0
 20 22  1  6  0  0  0
 20 24  1  0  0  0  0
 21 23  1  0  0  0  0
 21 25  1  1  0  0  0
 23 29  2  0  0  0  0
 23 30  1  0  0  0  0
 25 31  1  0  0  0  0
 26 27  2  0  0  0  0
 26 28  1  0  0  0  0
 29 33  1  0  0  0  0
 30 34  2  0  0  0  0
 32 33  2  0  0  0  0
 32 34  1  0  0  0  0
M  END
> <PUBCHEM_COMPOUND_ID_TYPE>
0

> <PUBCHEM_TOTAL_CHARGE>
0

> <PUBCHEM_SUBSTANCE_ID>
310931047

> <PUBCHEM_SUBSTANCE_VERSION>
1

> <PUBCHEM_EXT_DATASOURCE_NAME>
4488

> <PUBCHEM_EXT_DATASOURCE_REGID>
SCHEMBL16108349

> <PUBCHEM_SUBSTANCE_COMMENT>
InChI=1S/C22H20ClF3N4O3S/c23-15-3-1-13(2-4-15)17-5-6-27-9-14(17)12-33-20-7-19(26)21(8-18(20)25)34(31,32)30-22-28-10-16(24)11-29-22/h1-4,7-8,10-11,14,17,27H,5-6,9,12H2,(H,28,29,30)/t14-,17-/m1/s1
InChIKey=JLXFCNWPMMNUMM-RHSMWYFYSA-N

> <PUBCHEM_SUBSTANCE_SYNONYM>
SCHEMBL16108349

> <PUBCHEM_XREF_EXT_ID>
SCHEMBL16108349

> <PUBCHEM_EXT_DATASOURCE_URL>
https://www.surechembl.org/

> <PUBCHEM_EXT_SUBSTANCE_URL>
https://www.surechembl.org/chemical/SCHEMBL16108349

> <PUBCHEM_CID_ASSOCIATIONS>
71558122  1

> <PUBCHEM_COORDINATE_TYPE>
1
3

> <PUBCHEM_BONDANNOTATIONS>
20  22  6
21  25  5

$$$$
