310941736
  -OEChem-07211613022D

 35 39  0     0  0  0  0  0  0999 V2000
   -2.0576    0.8251    0.0000 S   0  0  0  0  0  0  0  0  0  0  0  0
    1.6351    0.4125    0.0000 O   0  0  0  0  0  0  0  0  0  0  0  0
    4.5328    0.4125    0.0000 O   0  0  0  0  0  0  0  0  0  0  0  0
    0.1962    2.0526    0.0000 O   0  0  0  0  0  0  0  0  0  0  0  0
   -1.2426   -2.0526    0.0000 O   0  0  0  0  0  0  0  0  0  0  0  0
    3.0940   -0.4125    0.0000 N   0  0  0  0  0  0  0  0  0  0  0  0
    0.9207   -0.8150    0.0000 N   0  0  0  0  0  0  0  0  0  0  0  0
   -1.2426    2.0526    0.0000 N   0  0  0  0  0  0  0  0  0  0  0  0
   -2.7418    1.9822    0.0000 N   0  0  0  0  0  0  0  0  0  0  0  0
   -3.2952    1.3684    0.0000 N   0  0  0  0  0  0  0  0  0  0  0  0
    2.3695   -0.8251    0.0000 C   0  0  0  0  0  0  0  0  0  0  0  0
    1.9671   -1.5093    0.0000 C   0  0  0  0  0  0  0  0  0  0  0  0
    2.7519   -1.5093    0.0000 C   0  0  0  0  0  0  0  0  0  0  0  0
    1.6351   -0.4125    0.0000 C   0  0  0  0  0  0  0  0  0  0  0  0
    0.1962   -0.3823    0.0000 C   0  0  0  0  0  0  0  0  0  0  0  0
    3.7983   -0.8050    0.0000 C   0  0  0  0  0  0  0  0  0  0  0  0
    3.0940    0.4226    0.0000 C   0  0  0  0  0  0  0  0  0  0  0  0
   -0.5182   -0.8050    0.0000 C   0  0  0  0  0  0  0  0  0  0  0  0
    0.1962    0.4125    0.0000 C   0  0  0  0  0  0  0  0  0  0  0  0
   -0.5282    0.8351    0.0000 C   0  0  0  0  0  0  0  0  0  0  0  0
    4.5328   -0.3924    0.0000 C   0  0  0  0  0  0  0  0  0  0  0  0
    3.7983    0.8251    0.0000 C   0  0  0  0  0  0  0  0  0  0  0  0
   -0.5383    1.6602    0.0000 C   0  0  0  0  0  0  0  0  0  0  0  0
   -1.2325   -0.3924    0.0000 C   0  0  0  0  0  0  0  0  0  0  0  0
   -1.2325    0.4226    0.0000 C   0  0  0  0  0  0  0  0  0  0  0  0
   -1.9671    1.6602    0.0000 C   0  0  0  0  0  0  0  0  0  0  0  0
   -2.8726    0.6741    0.0000 C   0  0  0  0  0  0  0  0  0  0  0  0
   -0.5282   -1.6200    0.0000 C   0  0  0  0  0  0  0  0  0  0  0  0
   -3.3053   -0.0503    0.0000 C   0  0  0  0  0  0  0  0  0  0  0  0
   -2.8827   -0.7647    0.0000 C   0  0  0  0  0  0  0  0  0  0  0  0
   -4.1304   -0.0503    0.0000 C   0  0  0  0  0  0  0  0  0  0  0  0
   -3.2952   -1.4590    0.0000 C   0  0  0  0  0  0  0  0  0  0  0  0
   -4.5328   -0.7748    0.0000 C   0  0  0  0  0  0  0  0  0  0  0  0
   -4.1203   -1.4590    0.0000 C   0  0  0  0  0  0  0  0  0  0  0  0
   -1.9470   -1.6401    0.0000 C   0  0  0  0  0  0  0  0  0  0  0  0
  1 26  1  0  0  0  0
  1 27  1  0  0  0  0
  2 14  2  0  0  0  0
  3 21  1  0  0  0  0
  3 22  1  0  0  0  0
  4 23  2  0  0  0  0
  5 28  1  0  0  0  0
  5 35  1  0  0  0  0
  6 11  1  0  0  0  0
  6 16  1  0  0  0  0
  6 17  1  0  0  0  0
  7 14  1  0  0  0  0
  7 15  1  0  0  0  0
  8 23  1  0  0  0  0
  8 26  1  0  0  0  0
  9 10  1  0  0  0  0
  9 26  2  0  0  0  0
 10 27  2  0  0  0  0
 11 12  1  0  0  0  0
 11 13  1  0  0  0  0
 11 14  1  0  0  0  0
 12 13  1  0  0  0  0
 15 18  1  0  0  0  0
 15 19  2  0  0  0  0
 16 21  1  0  0  0  0
 17 22  1  0  0  0  0
 18 24  2  0  0  0  0
 18 28  1  0  0  0  0
 19 20  1  0  0  0  0
 20 23  1  0  0  0  0
 20 25  2  0  0  0  0
 24 25  1  0  0  0  0
 27 29  1  0  0  0  0
 29 30  2  0  0  0  0
 29 31  1  0  0  0  0
 30 32  1  0  0  0  0
 31 33  2  0  0  0  0
 32 34  2  0  0  0  0
 33 34  1  0  0  0  0
M  END
> <PUBCHEM_COMPOUND_ID_TYPE>
0

> <PUBCHEM_TOTAL_CHARGE>
0

> <PUBCHEM_SUBSTANCE_ID>
310941736

> <PUBCHEM_SUBSTANCE_VERSION>
1

> <PUBCHEM_EXT_DATASOURCE_NAME>
4488

> <PUBCHEM_EXT_DATASOURCE_REGID>
SCHEMBL16119767

> <PUBCHEM_SUBSTANCE_COMMENT>
InChI=1S/C25H27N5O4S/c1-33-16-19-8-7-18(21(31)27-24-29-28-22(35-24)17-5-3-2-4-6-17)15-20(19)26-23(32)25(9-10-25)30-11-13-34-14-12-30/h2-8,15H,9-14,16H2,1H3,(H,26,32)(H,27,29,31)
InChIKey=BGQBRJJYUADPJT-UHFFFAOYSA-N

> <PUBCHEM_SUBSTANCE_SYNONYM>
SCHEMBL16119767

> <PUBCHEM_XREF_EXT_ID>
SCHEMBL16119767

> <PUBCHEM_EXT_DATASOURCE_URL>
https://www.surechembl.org/

> <PUBCHEM_EXT_SUBSTANCE_URL>
https://www.surechembl.org/chemical/SCHEMBL16119767

> <PUBCHEM_CID_ASSOCIATIONS>
86294339  1

> <PUBCHEM_COORDINATE_TYPE>
1
3

$$$$
