310943338
  -OEChem-07211613022D

 21 23  0     0  0  0  0  0  0999 V2000
    2.0059    1.4034    0.0000 F   0  0  0  0  0  0  0  0  0  0  0  0
   -3.3482   -1.2508    0.0000 F   0  0  0  0  0  0  0  0  0  0  0  0
   -3.3482    0.3508    0.0000 F   0  0  0  0  0  0  0  0  0  0  0  0
   -2.5703    0.3661    0.0000 F   0  0  0  0  0  0  0  0  0  0  0  0
    3.3482   -1.3881    0.0000 F   0  0  0  0  0  0  0  0  0  0  0  0
    0.5873    0.3051    0.0000 N   0  0  0  0  0  0  0  0  0  0  0  0
    0.5873   -1.2051    0.0000 N   0  0  0  0  0  0  0  0  0  0  0  0
   -1.8076   -1.2661    0.0000 N   0  0  0  0  0  0  0  0  0  0  0  0
    1.3347   -0.0152    0.0000 C   0  0  0  0  0  0  0  0  0  0  0  0
    0.1297   -0.4728    0.0000 C   0  0  0  0  0  0  0  0  0  0  0  0
    1.3042   -0.9458    0.0000 C   0  0  0  0  0  0  0  0  0  0  0  0
   -0.6483   -0.4576    0.0000 C   0  0  0  0  0  0  0  0  0  0  0  0
    1.9906    0.4424    0.0000 C   0  0  0  0  0  0  0  0  0  0  0  0
   -2.1889   -0.4728    0.0000 C   0  0  0  0  0  0  0  0  0  0  0  0
    1.9906   -1.4034    0.0000 C   0  0  0  0  0  0  0  0  0  0  0  0
   -2.9669   -0.4576    0.0000 C   0  0  0  0  0  0  0  0  0  0  0  0
    2.6618   -0.9458    0.0000 C   0  0  0  0  0  0  0  0  0  0  0  0
   -1.0296   -1.2813    0.0000 C   0  0  0  0  0  0  0  0  0  0  0  0
   -1.0296    0.3203    0.0000 C   0  0  0  0  0  0  0  0  0  0  0  0
    2.6618   -0.0152    0.0000 C   0  0  0  0  0  0  0  0  0  0  0  0
   -1.7923    0.3356    0.0000 C   0  0  0  0  0  0  0  0  0  0  0  0
  1 13  1  0  0  0  0
  2 16  1  0  0  0  0
  3 16  1  0  0  0  0
  4 16  1  0  0  0  0
  5 17  1  0  0  0  0
  6  9  1  0  0  0  0
  6 10  1  0  0  0  0
  7 10  2  0  0  0  0
  7 11  1  0  0  0  0
  8 14  1  0  0  0  0
  8 18  2  0  0  0  0
  9 11  2  0  0  0  0
  9 13  1  0  0  0  0
 10 12  1  0  0  0  0
 11 15  1  0  0  0  0
 12 18  1  0  0  0  0
 12 19  2  0  0  0  0
 13 20  2  0  0  0  0
 14 16  1  0  0  0  0
 14 21  2  0  0  0  0
 15 17  2  0  0  0  0
 17 20  1  0  0  0  0
 19 21  1  0  0  0  0
M  END
> <PUBCHEM_COMPOUND_ID_TYPE>
0

> <PUBCHEM_TOTAL_CHARGE>
0

> <PUBCHEM_SUBSTANCE_ID>
310943338

> <PUBCHEM_SUBSTANCE_VERSION>
1

> <PUBCHEM_EXT_DATASOURCE_NAME>
4488

> <PUBCHEM_EXT_DATASOURCE_REGID>
SCHEMBL16121401

> <PUBCHEM_SUBSTANCE_COMMENT>
InChI=1S/C13H6F5N3/c14-7-3-8(15)11-9(4-7)20-12(21-11)6-1-2-10(19-5-6)13(16,17)18/h1-5H,(H,20,21)
InChIKey=RIQLCQNIDNTSHJ-UHFFFAOYSA-N

> <PUBCHEM_SUBSTANCE_SYNONYM>
SCHEMBL16121401

> <PUBCHEM_XREF_EXT_ID>
SCHEMBL16121401

> <PUBCHEM_EXT_DATASOURCE_URL>
https://www.surechembl.org/

> <PUBCHEM_EXT_SUBSTANCE_URL>
https://www.surechembl.org/chemical/SCHEMBL16121401

> <PUBCHEM_CID_ASSOCIATIONS>
117609763  1

> <PUBCHEM_COORDINATE_TYPE>
1
3

$$$$
