310931032
  -OEChem-07211613022D

 33 36  0     1  0  0  0  0  0999 V2000
    2.9107   -6.3277    0.0000 Cl  0  0  0  0  0  0  0  0  0  0  0  0
    6.2328   -2.0249    0.0000 S   0  0  0  0  0  0  0  0  0  0  0  0
    5.3785   -0.6011    0.0000 F   0  0  0  0  0  0  0  0  0  0  0  0
    3.7650   -3.4486    0.0000 F   0  0  0  0  0  0  0  0  0  0  0  0
    2.9107   -2.0249    0.0000 O   0  0  0  0  0  0  0  0  0  0  0  0
    6.2328   -2.9424    0.0000 O   0  0  0  0  0  0  0  0  0  0  0  0
    6.2328   -1.2339    0.0000 O   0  0  0  0  0  0  0  0  0  0  0  0
    7.7198    0.0000    0.0000 O   0  0  0  0  0  0  0  0  0  0  0  0
    7.0237   -2.0249    0.0000 N   0  0  0  0  0  0  0  0  0  0  0  0
    7.1187   -0.5378    0.0000 N   0  0  0  0  0  0  0  0  0  0  0  0
    0.4113   -2.0249    0.0000 N   0  0  0  0  0  0  0  0  0  0  0  0
    5.4102   -2.0249    0.0000 C   0  0  0  0  0  0  0  0  0  0  0  0
    4.9672   -1.3288    0.0000 C   0  0  0  0  0  0  0  0  0  0  0  0
    3.7333   -2.0249    0.0000 C   0  0  0  0  0  0  0  0  0  0  0  0
    4.9672   -2.7209    0.0000 C   0  0  0  0  0  0  0  0  0  0  0  0
    4.1763   -2.7209    0.0000 C   0  0  0  0  0  0  0  0  0  0  0  0
    4.1763   -1.3288    0.0000 C   0  0  0  0  0  0  0  0  0  0  0  0
    7.4350   -1.2972    0.0000 C   0  0  0  0  0  0  0  0  0  0  0  0
    1.6769   -2.7525    0.0000 C   0  0  3  0  0  0  0  0  0  0  0  0
    1.2339   -3.4486    0.0000 C   0  0  3  0  0  0  0  0  0  0  0  0
    8.2576   -1.2339    0.0000 C   0  0  0  0  0  0  0  0  0  0  0  0
    2.4994   -2.7525    0.0000 C   0  0  0  0  0  0  0  0  0  0  0  0
    1.6452   -4.1763    0.0000 C   0  0  0  0  0  0  0  0  0  0  0  0
    8.4474   -0.4113    0.0000 C   0  0  0  0  0  0  0  0  0  0  0  0
    1.2655   -2.0249    0.0000 C   0  0  0  0  0  0  0  0  0  0  0  0
    0.4429   -3.4486    0.0000 C   0  0  0  0  0  0  0  0  0  0  0  0
    2.4994   -4.1763    0.0000 C   0  0  0  0  0  0  0  0  0  0  0  0
    1.2655   -4.9040    0.0000 C   0  0  0  0  0  0  0  0  0  0  0  0
    0.0000   -2.7525    0.0000 C   0  0  0  0  0  0  0  0  0  0  0  0
    2.4994   -5.6000    0.0000 C   0  0  0  0  0  0  0  0  0  0  0  0
    2.9107   -4.9040    0.0000 C   0  0  0  0  0  0  0  0  0  0  0  0
    1.6769   -5.6000    0.0000 C   0  0  0  0  0  0  0  0  0  0  0  0
    9.1751   -0.0633    0.0000 C   0  0  0  0  0  0  0  0  0  0  0  0
  1 30  1  0  0  0  0
  2  6  2  0  0  0  0
  2  7  2  0  0  0  0
  2  9  1  0  0  0  0
  2 12  1  0  0  0  0
  3 13  1  0  0  0  0
  4 16  1  0  0  0  0
  5 14  1  0  0  0  0
  5 22  1  0  0  0  0
  8 10  1  0  0  0  0
  8 24  1  0  0  0  0
  9 18  1  0  0  0  0
 10 18  2  0  0  0  0
 11 25  1  0  0  0  0
 11 29  1  0  0  0  0
 12 13  1  0  0  0  0
 12 15  2  0  0  0  0
 13 17  2  0  0  0  0
 14 16  2  0  0  0  0
 14 17  1  0  0  0  0
 15 16  1  0  0  0  0
 18 21  1  0  0  0  0
 19 20  1  0  0  0  0
 19 22  1  6  0  0  0
 19 25  1  0  0  0  0
 20 23  1  0  0  0  0
 20 26  1  1  0  0  0
 21 24  2  0  0  0  0
 23 27  2  0  0  0  0
 23 28  1  0  0  0  0
 24 33  1  0  0  0  0
 26 29  1  0  0  0  0
 27 31  1  0  0  0  0
 28 32  2  0  0  0  0
 30 31  2  0  0  0  0
 30 32  1  0  0  0  0
M  END
> <PUBCHEM_COMPOUND_ID_TYPE>
0

> <PUBCHEM_TOTAL_CHARGE>
0

> <PUBCHEM_SUBSTANCE_ID>
310931032

> <PUBCHEM_SUBSTANCE_VERSION>
1

> <PUBCHEM_EXT_DATASOURCE_NAME>
4488

> <PUBCHEM_EXT_DATASOURCE_REGID>
SCHEMBL16108334

> <PUBCHEM_SUBSTANCE_COMMENT>
InChI=1S/C22H22ClF2N3O4S/c1-13-8-22(27-32-13)28-33(29,30)21-10-18(24)20(9-19(21)25)31-12-15-11-26-7-6-17(15)14-2-4-16(23)5-3-14/h2-5,8-10,15,17,26H,6-7,11-12H2,1H3,(H,27,28)/t15-,17-/m1/s1
InChIKey=HMUCIANDUAOOLC-NVXWUHKLSA-N

> <PUBCHEM_SUBSTANCE_SYNONYM>
SCHEMBL16108334

> <PUBCHEM_XREF_EXT_ID>
SCHEMBL16108334

> <PUBCHEM_EXT_DATASOURCE_URL>
https://www.surechembl.org/

> <PUBCHEM_EXT_SUBSTANCE_URL>
https://www.surechembl.org/chemical/SCHEMBL16108334

> <PUBCHEM_CID_ASSOCIATIONS>
71557948  1

> <PUBCHEM_COORDINATE_TYPE>
1
3

> <PUBCHEM_BONDANNOTATIONS>
19  22  6
20  26  5

$$$$
