310936559
  -OEChem-07211613022D

 27 30  0     0  0  0  0  0  0999 V2000
    6.5365   -6.6699    0.0000 Cl  0  0  0  0  0  0  0  0  0  0  0  0
    6.9033   -2.9348    0.0000 O   0  0  0  0  0  0  0  0  0  0  0  0
    0.0000    0.0000    0.0000 O   0  0  0  0  0  0  0  0  0  0  0  0
    1.3673   -1.4007    0.0000 N   0  0  0  0  0  0  0  0  0  0  0  0
    1.7675   -2.8013    0.0000 N   0  0  0  0  0  0  0  0  0  0  0  0
    2.7680   -1.8008    0.0000 N   0  0  0  0  0  0  0  0  0  0  0  0
    5.5026   -2.5679    0.0000 N   0  0  0  0  0  0  0  0  0  0  0  0
    5.8695   -3.9353    0.0000 C   0  0  0  0  0  0  0  0  0  0  0  0
    1.9343   -2.0010    0.0000 C   0  0  0  0  0  0  0  0  0  0  0  0
    6.1029   -3.1348    0.0000 C   0  0  0  0  0  0  0  0  0  0  0  0
    6.4364   -4.5355    0.0000 C   0  0  0  0  0  0  0  0  0  0  0  0
    4.5022   -3.5684    0.0000 C   0  0  0  0  0  0  0  0  0  0  0  0
    5.1024   -4.1353    0.0000 C   0  0  0  0  0  0  0  0  0  0  0  0
    3.1348   -3.1682    0.0000 C   0  0  0  0  0  0  0  0  0  0  0  0
    0.6003   -0.6003    0.0000 C   0  0  0  0  0  0  0  0  0  0  0  0
    0.6003   -1.4007    0.0000 C   0  0  0  0  0  0  0  0  0  0  0  0
    1.4007   -0.6003    0.0000 C   0  0  0  0  0  0  0  0  0  0  0  0
    3.7018   -3.7685    0.0000 C   0  0  0  0  0  0  0  0  0  0  0  0
    4.7356   -2.7680    0.0000 C   0  0  0  0  0  0  0  0  0  0  0  0
    2.3345   -3.3683    0.0000 C   0  0  0  0  0  0  0  0  0  0  0  0
    3.3016   -2.3678    0.0000 C   0  0  0  0  0  0  0  0  0  0  0  0
    6.2030   -5.3026    0.0000 C   0  0  0  0  0  0  0  0  0  0  0  0
    7.2368   -4.3354    0.0000 C   0  0  0  0  0  0  0  0  0  0  0  0
    6.7699   -5.9029    0.0000 C   0  0  0  0  0  0  0  0  0  0  0  0
    7.8037   -4.9357    0.0000 C   0  0  0  0  0  0  0  0  0  0  0  0
    7.5703   -5.7027    0.0000 C   0  0  0  0  0  0  0  0  0  0  0  0
    7.1367   -2.1343    0.0000 C   0  0  0  0  0  0  0  0  0  0  0  0
  1 24  1  0  0  0  0
  2 10  1  0  0  0  0
  2 27  1  0  0  0  0
  3 15  1  0  0  0  0
  4  9  1  0  0  0  0
  4 16  1  0  0  0  0
  4 17  1  0  0  0  0
  5  9  2  0  0  0  0
  5 20  1  0  0  0  0
  6  9  1  0  0  0  0
  6 21  2  0  0  0  0
  7 10  2  0  0  0  0
  7 19  1  0  0  0  0
  8 10  1  0  0  0  0
  8 11  1  0  0  0  0
  8 13  2  0  0  0  0
 11 22  1  0  0  0  0
 11 23  2  0  0  0  0
 12 13  1  0  0  0  0
 12 18  1  0  0  0  0
 12 19  2  0  0  0  0
 14 18  1  0  0  0  0
 14 20  2  0  0  0  0
 14 21  1  0  0  0  0
 15 16  1  0  0  0  0
 15 17  1  0  0  0  0
 22 24  2  0  0  0  0
 23 25  1  0  0  0  0
 24 26  1  0  0  0  0
 25 26  2  0  0  0  0
M  END
> <PUBCHEM_COMPOUND_ID_TYPE>
0

> <PUBCHEM_TOTAL_CHARGE>
0

> <PUBCHEM_SUBSTANCE_ID>
310936559

> <PUBCHEM_SUBSTANCE_VERSION>
1

> <PUBCHEM_EXT_DATASOURCE_NAME>
4488

> <PUBCHEM_EXT_DATASOURCE_REGID>
SCHEMBL16114213

> <PUBCHEM_SUBSTANCE_COMMENT>
InChI=1S/C20H19ClN4O2/c1-27-19-18(15-3-2-4-16(21)7-15)6-13(8-22-19)5-14-9-23-20(24-10-14)25-11-17(26)12-25/h2-4,6-10,17,26H,5,11-12H2,1H3
InChIKey=FLNYWZLLWZUYIT-UHFFFAOYSA-N

> <PUBCHEM_SUBSTANCE_SYNONYM>
SCHEMBL16114213

> <PUBCHEM_XREF_EXT_ID>
SCHEMBL16114213

> <PUBCHEM_EXT_DATASOURCE_URL>
https://www.surechembl.org/

> <PUBCHEM_EXT_SUBSTANCE_URL>
https://www.surechembl.org/chemical/SCHEMBL16114213

> <PUBCHEM_CID_ASSOCIATIONS>
117604479  1

> <PUBCHEM_COORDINATE_TYPE>
1
3

$$$$
