310949491
  -OEChem-07211613022D

 27 30  0     0  0  0  0  0  0999 V2000
   -1.9382    2.0266    0.0000 O   0  0  0  0  0  0  0  0  0  0  0  0
   -0.3316    1.9382    0.0000 O   0  0  0  0  0  0  0  0  0  0  0  0
    0.3022    0.6117    0.0000 N   0  0  0  0  0  0  0  0  0  0  0  0
    2.4687   -0.6411    0.0000 N   0  0  0  0  0  0  0  0  0  0  0  0
    2.5571    0.7001    0.0000 N   0  0  0  0  0  0  0  0  0  0  0  0
   -1.8202    1.2012    0.0000 C   0  0  0  0  0  0  0  0  0  0  0  0
   -1.1127    0.7296    0.0000 C   0  0  0  0  0  0  0  0  0  0  0  0
   -2.5424    0.8622    0.0000 C   0  0  0  0  0  0  0  0  0  0  0  0
   -2.7340    2.2034    0.0000 C   0  0  0  0  0  0  0  0  0  0  0  0
   -0.3906    1.0980    0.0000 C   0  0  0  0  0  0  0  0  0  0  0  0
   -3.1024    1.4665    0.0000 C   0  0  0  0  0  0  0  0  0  0  0  0
   -1.1717   -0.0958    0.0000 C   0  0  0  0  0  0  0  0  0  0  0  0
   -2.5718    0.0368    0.0000 C   0  0  0  0  0  0  0  0  0  0  0  0
    1.0980    0.9801    0.0000 C   0  0  0  0  0  0  0  0  0  0  0  0
   -1.9234   -0.4348    0.0000 C   0  0  0  0  0  0  0  0  0  0  0  0
    1.7613    0.5675    0.0000 C   0  0  0  0  0  0  0  0  0  0  0  0
    1.6876   -0.2580    0.0000 C   0  0  0  0  0  0  0  0  0  0  0  0
    0.2874   -0.1842    0.0000 C   0  0  0  0  0  0  0  0  0  0  0  0
    0.9801   -0.6559    0.0000 C   0  0  0  0  0  0  0  0  0  0  0  0
   -3.5594    2.4392    0.0000 C   0  0  0  0  0  0  0  0  0  0  0  0
   -2.6750    3.0288    0.0000 C   0  0  0  0  0  0  0  0  0  0  0  0
    2.6455   -1.4223    0.0000 C   0  0  0  0  0  0  0  0  0  0  0  0
    3.4267   -1.7023    0.0000 C   0  0  0  0  0  0  0  0  0  0  0  0
    2.0118   -1.9529    0.0000 C   0  0  0  0  0  0  0  0  0  0  0  0
    3.5594   -2.5129    0.0000 C   0  0  0  0  0  0  0  0  0  0  0  0
    2.1887   -2.7634    0.0000 C   0  0  0  0  0  0  0  0  0  0  0  0
    2.9698   -3.0288    0.0000 C   0  0  0  0  0  0  0  0  0  0  0  0
  1  6  1  0  0  0  0
  1  9  1  0  0  0  0
  2 10  2  0  0  0  0
  3 10  1  0  0  0  0
  3 14  1  0  0  0  0
  3 18  1  0  0  0  0
  4 17  1  0  0  0  0
  4 22  1  0  0  0  0
  5 16  1  0  0  0  0
  6  7  2  0  0  0  0
  6  8  1  0  0  0  0
  7 10  1  0  0  0  0
  7 12  1  0  0  0  0
  8 11  1  0  0  0  0
  8 13  2  0  0  0  0
  9 11  1  0  0  0  0
  9 20  1  0  0  0  0
  9 21  1  0  0  0  0
 12 15  2  0  0  0  0
 13 15  1  0  0  0  0
 14 16  1  0  0  0  0
 16 17  2  0  0  0  0
 17 19  1  0  0  0  0
 18 19  1  0  0  0  0
 22 23  2  0  0  0  0
 22 24  1  0  0  0  0
 23 25  1  0  0  0  0
 24 26  2  0  0  0  0
 25 27  2  0  0  0  0
 26 27  1  0  0  0  0
M  END
> <PUBCHEM_COMPOUND_ID_TYPE>
0

> <PUBCHEM_TOTAL_CHARGE>
0

> <PUBCHEM_SUBSTANCE_ID>
310949491

> <PUBCHEM_SUBSTANCE_VERSION>
1

> <PUBCHEM_EXT_DATASOURCE_NAME>
4488

> <PUBCHEM_EXT_DATASOURCE_REGID>
SCHEMBL16127686

> <PUBCHEM_SUBSTANCE_COMMENT>
InChI=1S/C22H25N3O2/c1-22(2)13-15-7-6-10-17(20(15)27-22)21(26)25-12-11-19(18(23)14-25)24-16-8-4-3-5-9-16/h3-10,24H,11-14,23H2,1-2H3
InChIKey=WCACCGGEKZDBQX-UHFFFAOYSA-N

> <PUBCHEM_SUBSTANCE_SYNONYM>
SCHEMBL16127686

> <PUBCHEM_XREF_EXT_ID>
SCHEMBL16127686

> <PUBCHEM_EXT_DATASOURCE_URL>
https://www.surechembl.org/

> <PUBCHEM_EXT_SUBSTANCE_URL>
https://www.surechembl.org/chemical/SCHEMBL16127686

> <PUBCHEM_CID_ASSOCIATIONS>
117614933  1

> <PUBCHEM_COORDINATE_TYPE>
1
3

$$$$
