310935541
  -OEChem-07211613022D

 33 36  0     0  0  0  0  0  0999 V2000
    8.9426   -0.3228    0.0000 F   0  0  0  0  0  0  0  0  0  0  0  0
    0.0000   -2.4213    0.0000 F   0  0  0  0  0  0  0  0  0  0  0  0
    3.8418   -3.0992    0.0000 O   0  0  0  0  0  0  0  0  0  0  0  0
    4.1323   -0.3551    0.0000 O   0  0  0  0  0  0  0  0  0  0  0  0
    9.6850   -1.5819    0.0000 O   0  0  0  0  0  0  0  0  0  0  0  0
    8.9426   -2.8409    0.0000 O   0  0  0  0  0  0  0  0  0  0  0  0
    2.7764   -0.8071    0.0000 N   0  0  0  0  0  0  0  0  0  0  0  0
    7.4897   -0.3228    0.0000 N   0  0  0  0  0  0  0  0  0  0  0  0
    4.6165   -2.0016    0.0000 C   0  0  0  0  0  0  0  0  0  0  0  0
    3.8418   -1.7756    0.0000 C   0  0  0  0  0  0  0  0  0  0  0  0
    4.6165   -2.8732    0.0000 C   0  0  0  0  0  0  0  0  0  0  0  0
    3.3252   -2.4213    0.0000 C   0  0  0  0  0  0  0  0  0  0  0  0
    6.0693   -2.0016    0.0000 C   0  0  0  0  0  0  0  0  0  0  0  0
    5.3591   -1.5819    0.0000 C   0  0  0  0  0  0  0  0  0  0  0  0
    6.0693   -2.8732    0.0000 C   0  0  0  0  0  0  0  0  0  0  0  0
    5.3591   -3.2606    0.0000 C   0  0  0  0  0  0  0  0  0  0  0  0
    2.4858   -2.4213    0.0000 C   0  0  0  0  0  0  0  0  0  0  0  0
    3.5835   -0.9685    0.0000 C   0  0  0  0  0  0  0  0  0  0  0  0
    6.7795   -1.5819    0.0000 C   0  0  0  0  0  0  0  0  0  0  0  0
    7.4897   -2.0016    0.0000 C   0  0  0  0  0  0  0  0  0  0  0  0
    6.7795   -3.2929    0.0000 C   0  0  0  0  0  0  0  0  0  0  0  0
    8.2323   -1.5819    0.0000 C   0  0  0  0  0  0  0  0  0  0  0  0
    6.7795   -0.7425    0.0000 C   0  0  0  0  0  0  0  0  0  0  0  0
    2.0662   -3.1638    0.0000 C   0  0  0  0  0  0  0  0  0  0  0  0
    2.0662   -1.7110    0.0000 C   0  0  0  0  0  0  0  0  0  0  0  0
    8.2323   -0.7425    0.0000 C   0  0  0  0  0  0  0  0  0  0  0  0
    1.2590   -3.1638    0.0000 C   0  0  0  0  0  0  0  0  0  0  0  0
    1.2590   -1.7110    0.0000 C   0  0  0  0  0  0  0  0  0  0  0  0
    8.9426   -2.0016    0.0000 C   0  0  0  0  0  0  0  0  0  0  0  0
    0.8393   -2.4213    0.0000 C   0  0  0  0  0  0  0  0  0  0  0  0
    7.4897   -2.8732    0.0000 C   0  0  0  0  0  0  0  0  0  0  0  0
    2.5181    0.0000    0.0000 C   0  0  0  0  0  0  0  0  0  0  0  0
    7.6512   -2.1953    0.0000 C   0  0  0  0  0  0  0  0  0  0  0  0
  1 26  1  0  0  0  0
  2 30  1  0  0  0  0
  3 11  1  0  0  0  0
  3 12  1  0  0  0  0
  4 18  2  0  0  0  0
  5 29  2  0  0  0  0
  6 29  1  0  0  0  0
  7 18  1  0  0  0  0
  7 32  1  0  0  0  0
  8 23  2  0  0  0  0
  8 26  1  0  0  0  0
  9 10  1  0  0  0  0
  9 11  2  0  0  0  0
  9 14  1  0  0  0  0
 10 12  2  0  0  0  0
 10 18  1  0  0  0  0
 11 16  1  0  0  0  0
 12 17  1  0  0  0  0
 13 14  2  0  0  0  0
 13 15  1  0  0  0  0
 13 19  1  0  0  0  0
 15 16  2  0  0  0  0
 15 21  1  0  0  0  0
 17 24  2  0  0  0  0
 17 25  1  0  0  0  0
 19 20  2  0  0  0  0
 19 23  1  0  0  0  0
 20 22  1  0  0  0  0
 21 31  1  0  0  0  0
 22 26  2  0  0  0  0
 22 29  1  0  0  0  0
 24 27  1  0  0  0  0
 25 28  2  0  0  0  0
 27 30  2  0  0  0  0
 28 30  1  0  0  0  0
 31 33  1  0  0  0  0
M  END
> <PUBCHEM_COMPOUND_ID_TYPE>
0

> <PUBCHEM_TOTAL_CHARGE>
0

> <PUBCHEM_SUBSTANCE_ID>
310935541

> <PUBCHEM_SUBSTANCE_VERSION>
1

> <PUBCHEM_EXT_DATASOURCE_NAME>
4488

> <PUBCHEM_EXT_DATASOURCE_REGID>
SCHEMBL16113111

> <PUBCHEM_SUBSTANCE_COMMENT>
InChI=1S/C25H20F2N2O4/c1-3-4-14-10-20-18(11-17(14)15-9-19(25(31)32)23(27)29-12-15)21(24(30)28-2)22(33-20)13-5-7-16(26)8-6-13/h5-12H,3-4H2,1-2H3,(H,28,30)(H,31,32)
InChIKey=DGSLWIQQVNQWAV-UHFFFAOYSA-N

> <PUBCHEM_SUBSTANCE_SYNONYM>
SCHEMBL16113111

> <PUBCHEM_XREF_EXT_ID>
SCHEMBL16113111

> <PUBCHEM_EXT_DATASOURCE_URL>
https://www.surechembl.org/

> <PUBCHEM_EXT_SUBSTANCE_URL>
https://www.surechembl.org/chemical/SCHEMBL16113111

> <PUBCHEM_CID_ASSOCIATIONS>
117603565  1

> <PUBCHEM_COORDINATE_TYPE>
1
3

$$$$
