310934544
  -OEChem-07211613022D

 19 21  0     0  0  0  0  0  0999 V2000
    3.5963   -1.2565    0.0000 O   0  0  0  0  0  0  0  0  0  0  0  0
    0.7366   -3.7696    0.0000 O   0  0  0  0  0  0  0  0  0  0  0  0
    0.7366   -1.2565    0.0000 N   0  0  0  0  0  0  0  0  0  0  0  0
    1.4515   -2.5131    0.0000 C   0  0  0  0  0  0  0  0  0  0  0  0
    1.4515   -1.6682    0.0000 C   0  0  0  0  0  0  0  0  0  0  0  0
    0.7366   -2.9247    0.0000 C   0  0  0  0  0  0  0  0  0  0  0  0
    2.8813   -1.6682    0.0000 C   0  0  0  0  0  0  0  0  0  0  0  0
    2.1664   -1.2565    0.0000 C   0  0  0  0  0  0  0  0  0  0  0  0
    2.1664   -2.9247    0.0000 C   0  0  0  0  0  0  0  0  0  0  0  0
    2.8813   -2.5131    0.0000 C   0  0  0  0  0  0  0  0  0  0  0  0
    0.0000   -2.5131    0.0000 C   0  0  0  0  0  0  0  0  0  0  0  0
    0.0000   -1.6682    0.0000 C   0  0  0  0  0  0  0  0  0  0  0  0
    4.3329   -1.6682    0.0000 C   0  0  0  0  0  0  0  0  0  0  0  0
    5.0478   -1.2565    0.0000 C   0  0  0  0  0  0  0  0  0  0  0  0
    5.7627   -1.6682    0.0000 C   0  0  0  0  0  0  0  0  0  0  0  0
    5.0478   -0.4333    0.0000 C   0  0  0  0  0  0  0  0  0  0  0  0
    6.4992   -1.2565    0.0000 C   0  0  0  0  0  0  0  0  0  0  0  0
    5.7627    0.0000    0.0000 C   0  0  0  0  0  0  0  0  0  0  0  0
    6.4992   -0.4333    0.0000 C   0  0  0  0  0  0  0  0  0  0  0  0
  1  7  1  0  0  0  0
  1 13  1  0  0  0  0
  2  6  2  0  0  0  0
  3  5  1  0  0  0  0
  3 12  1  0  0  0  0
  4  5  2  0  0  0  0
  4  6  1  0  0  0  0
  4  9  1  0  0  0  0
  5  8  1  0  0  0  0
  6 11  1  0  0  0  0
  7  8  2  0  0  0  0
  7 10  1  0  0  0  0
  9 10  2  0  0  0  0
 11 12  2  0  0  0  0
 13 14  1  0  0  0  0
 14 15  2  0  0  0  0
 14 16  1  0  0  0  0
 15 17  1  0  0  0  0
 16 18  2  0  0  0  0
 17 19  2  0  0  0  0
 18 19  1  0  0  0  0
M  END
> <PUBCHEM_COMPOUND_ID_TYPE>
0

> <PUBCHEM_TOTAL_CHARGE>
0

> <PUBCHEM_SUBSTANCE_ID>
310934544

> <PUBCHEM_SUBSTANCE_VERSION>
1

> <PUBCHEM_EXT_DATASOURCE_NAME>
4488

> <PUBCHEM_EXT_DATASOURCE_REGID>
SCHEMBL16112035

> <PUBCHEM_SUBSTANCE_COMMENT>
InChI=1S/C16H13NO2/c18-16-8-9-17-15-10-13(6-7-14(15)16)19-11-12-4-2-1-3-5-12/h1-10H,11H2,(H,17,18)
InChIKey=KWQRHYWEGFFXKV-UHFFFAOYSA-N

> <PUBCHEM_SUBSTANCE_SYNONYM>
SCHEMBL16112035

> <PUBCHEM_XREF_EXT_ID>
SCHEMBL16112035

> <PUBCHEM_EXT_DATASOURCE_URL>
https://www.surechembl.org/

> <PUBCHEM_EXT_SUBSTANCE_URL>
https://www.surechembl.org/chemical/SCHEMBL16112035

> <PUBCHEM_CID_ASSOCIATIONS>
21075752  1

> <PUBCHEM_COORDINATE_TYPE>
1
3

$$$$
