310936618
  -OEChem-07211613022D

 27 29  0     0  0  0  0  0  0999 V2000
    8.1290   -2.8722    0.0000 F   0  0  0  0  0  0  0  0  0  0  0  0
    0.7045    0.0000    0.0000 F   0  0  0  0  0  0  0  0  0  0  0  0
    0.0000   -1.2194    0.0000 F   0  0  0  0  0  0  0  0  0  0  0  0
    0.0000   -0.4064    0.0000 F   0  0  0  0  0  0  0  0  0  0  0  0
    4.3084   -2.2219    0.0000 O   0  0  0  0  0  0  0  0  0  0  0  0
    1.4091   -2.0323    0.0000 O   0  0  0  0  0  0  0  0  0  0  0  0
    4.0374   -4.9316    0.0000 O   0  0  0  0  0  0  0  0  0  0  0  0
    1.4091   -3.7122    0.0000 O   0  0  0  0  0  0  0  0  0  0  0  0
    5.3922   -4.4980    0.0000 N   0  0  0  0  0  0  0  0  0  0  0  0
    3.5496   -3.3058    0.0000 C   0  0  0  0  0  0  0  0  0  0  0  0
    4.3084   -3.5496    0.0000 C   0  0  0  0  0  0  0  0  0  0  0  0
    4.8232   -2.8722    0.0000 C   0  0  0  0  0  0  0  0  0  0  0  0
    3.5496   -2.4658    0.0000 C   0  0  0  0  0  0  0  0  0  0  0  0
    5.6361   -2.8722    0.0000 C   0  0  0  0  0  0  0  0  0  0  0  0
    2.8180   -3.7122    0.0000 C   0  0  0  0  0  0  0  0  0  0  0  0
    2.8180   -2.0594    0.0000 C   0  0  0  0  0  0  0  0  0  0  0  0
    4.5793   -4.3355    0.0000 C   0  0  0  0  0  0  0  0  0  0  0  0
    2.1135   -2.4658    0.0000 C   0  0  0  0  0  0  0  0  0  0  0  0
    2.1135   -3.3058    0.0000 C   0  0  0  0  0  0  0  0  0  0  0  0
    6.0696   -2.1677    0.0000 C   0  0  0  0  0  0  0  0  0  0  0  0
    6.0696   -3.6039    0.0000 C   0  0  0  0  0  0  0  0  0  0  0  0
    6.8825   -2.1677    0.0000 C   0  0  0  0  0  0  0  0  0  0  0  0
    6.8825   -3.6039    0.0000 C   0  0  0  0  0  0  0  0  0  0  0  0
    1.4091   -1.2194    0.0000 C   0  0  0  0  0  0  0  0  0  0  0  0
    7.2889   -2.8722    0.0000 C   0  0  0  0  0  0  0  0  0  0  0  0
    0.7045   -0.8129    0.0000 C   0  0  0  0  0  0  0  0  0  0  0  0
    5.6361   -5.2838    0.0000 C   0  0  0  0  0  0  0  0  0  0  0  0
  1 25  1  0  0  0  0
  2 26  1  0  0  0  0
  3 26  1  0  0  0  0
  4 26  1  0  0  0  0
  5 12  1  0  0  0  0
  5 13  1  0  0  0  0
  6 18  1  0  0  0  0
  6 24  1  0  0  0  0
  7 17  2  0  0  0  0
  8 19  1  0  0  0  0
  9 17  1  0  0  0  0
  9 27  1  0  0  0  0
 10 11  1  0  0  0  0
 10 13  2  0  0  0  0
 10 15  1  0  0  0  0
 11 12  2  0  0  0  0
 11 17  1  0  0  0  0
 12 14  1  0  0  0  0
 13 16  1  0  0  0  0
 14 20  2  0  0  0  0
 14 21  1  0  0  0  0
 15 19  2  0  0  0  0
 16 18  2  0  0  0  0
 18 19  1  0  0  0  0
 20 22  1  0  0  0  0
 21 23  2  0  0  0  0
 22 25  2  0  0  0  0
 23 25  1  0  0  0  0
 24 26  1  0  0  0  0
M  END
> <PUBCHEM_COMPOUND_ID_TYPE>
0

> <PUBCHEM_TOTAL_CHARGE>
0

> <PUBCHEM_SUBSTANCE_ID>
310936618

> <PUBCHEM_SUBSTANCE_VERSION>
1

> <PUBCHEM_EXT_DATASOURCE_NAME>
4488

> <PUBCHEM_EXT_DATASOURCE_REGID>
SCHEMBL16114278

> <PUBCHEM_SUBSTANCE_COMMENT>
InChI=1S/C18H13F4NO4/c1-23-17(25)15-11-6-12(24)14(26-8-18(20,21)22)7-13(11)27-16(15)9-2-4-10(19)5-3-9/h2-7,24H,8H2,1H3,(H,23,25)
InChIKey=RNCLCOVRLFLSOU-UHFFFAOYSA-N

> <PUBCHEM_SUBSTANCE_SYNONYM>
SCHEMBL16114278

> <PUBCHEM_XREF_EXT_ID>
SCHEMBL16114278

> <PUBCHEM_EXT_DATASOURCE_URL>
https://www.surechembl.org/

> <PUBCHEM_EXT_SUBSTANCE_URL>
https://www.surechembl.org/chemical/SCHEMBL16114278

> <PUBCHEM_CID_ASSOCIATIONS>
117604535  1

> <PUBCHEM_COORDINATE_TYPE>
1
3

$$$$
