310929764
  -OEChem-07211613022D

 62 69  0     1  0  0  0  0  0999 V2000
   10.5118   -6.7861    0.0000 S   0  0  0  0  0  0  0  0  0  0  0  0
    9.6691   -8.2054    0.0000 O   0  0  0  0  0  0  0  0  0  0  0  0
    6.8305   -7.3183    0.0000 O   0  0  0  0  0  0  0  0  0  0  0  0
    4.7015   -5.7660    0.0000 O   0  0  0  0  0  0  0  0  0  0  0  0
   10.5118   -7.6288    0.0000 O   0  0  0  0  0  0  0  0  0  0  0  0
   10.5118   -5.9434    0.0000 O   0  0  0  0  0  0  0  0  0  0  0  0
    8.9594   -5.1007    0.0000 O   0  0  0  0  0  0  0  0  0  0  0  0
    2.4395   -3.7700    0.0000 O   0  0  0  0  0  0  0  0  0  0  0  0
    7.6288   -1.7742    0.0000 O   0  0  0  0  0  0  0  0  0  0  0  0
    8.8707   -2.0846    0.0000 O   0  0  0  0  0  0  0  0  0  0  0  0
    1.1976   -3.0604    0.0000 O   0  0  0  0  0  0  0  0  0  0  0  0
    8.1167   -6.7418    0.0000 N   0  0  0  0  0  0  0  0  0  0  0  0
    9.6691   -6.7861    0.0000 N   0  0  0  0  0  0  0  0  0  0  0  0
    7.7619   -5.4555    0.0000 N   0  0  0  0  0  0  0  0  0  0  0  0
    3.6814   -5.9434    0.0000 N   0  0  0  0  0  0  0  0  0  0  0  0
    8.4272   -3.1934    0.0000 N   0  0  0  0  0  0  0  0  0  0  0  0
    1.1976   -4.4797    0.0000 N   0  0  0  0  0  0  0  0  0  0  0  0
    8.4272   -7.4957    0.0000 C   0  0  3  0  0  0  0  0  0  0  0  0
    8.6490   -8.2941    0.0000 C   0  0  3  0  0  0  0  0  0  0  0  0
    7.8506   -8.1167    0.0000 C   0  0  0  0  0  0  0  0  0  0  0  0
    9.2699   -7.4957    0.0000 C   0  0  0  0  0  0  0  0  0  0  0  0
    7.3183   -6.6530    0.0000 C   0  0  0  0  0  0  0  0  0  0  0  0
    9.2256   -8.8707    0.0000 C   0  0  0  0  0  0  0  0  0  0  0  0
    7.0079   -5.8991    0.0000 C   0  0  3  0  0  0  0  0  0  0  0  0
   11.3102   -6.7861    0.0000 C   0  0  0  0  0  0  0  0  0  0  0  0
    6.2538   -6.1208    0.0000 C   0  0  0  0  0  0  0  0  0  0  0  0
    5.4555   -6.1208    0.0000 C   0  0  3  0  0  0  0  0  0  0  0  0
    6.7861   -6.4313    0.0000 C   0  0  0  0  0  0  0  0  0  0  0  0
    8.2054   -4.7458    0.0000 C   0  0  0  0  0  0  0  0  0  0  0  0
   12.0198   -6.3869    0.0000 C   0  0  0  0  0  0  0  0  0  0  0  0
   12.0642   -7.2296    0.0000 C   0  0  0  0  0  0  0  0  0  0  0  0
    4.0805   -5.2337    0.0000 C   0  0  0  0  0  0  0  0  0  0  0  0
    8.4272   -3.9475    0.0000 C   0  0  3  0  0  0  0  0  0  0  0  0
   10.0239   -8.6490    0.0000 C   0  0  0  0  0  0  0  0  0  0  0  0
    3.6370   -4.5241    0.0000 C   0  0  0  0  0  0  0  0  0  0  0  0
    2.8386   -4.5241    0.0000 C   0  0  0  0  0  0  0  0  0  0  0  0
    2.4395   -5.1894    0.0000 C   0  0  0  0  0  0  0  0  0  0  0  0
    2.8830   -5.9434    0.0000 C   0  0  0  0  0  0  0  0  0  0  0  0
    9.2699   -4.0805    0.0000 C   0  0  0  0  0  0  0  0  0  0  0  0
    3.5039   -3.6814    0.0000 C   0  0  0  0  0  0  0  0  0  0  0  0
    1.5967   -5.2337    0.0000 C   0  0  0  0  0  0  0  0  0  0  0  0
    2.3951   -6.6530    0.0000 C   0  0  0  0  0  0  0  0  0  0  0  0
    9.8021   -3.4596    0.0000 C   0  0  0  0  0  0  0  0  0  0  0  0
    9.6248   -4.7902    0.0000 C   0  0  0  0  0  0  0  0  0  0  0  0
    8.1167   -2.4838    0.0000 C   0  0  0  0  0  0  0  0  0  0  0  0
    1.6411   -3.7700    0.0000 C   0  0  0  0  0  0  0  0  0  0  0  0
    1.1976   -5.8991    0.0000 C   0  0  0  0  0  0  0  0  0  0  0  0
    1.6411   -6.6530    0.0000 C   0  0  0  0  0  0  0  0  0  0  0  0
    3.6370   -2.9273    0.0000 C   0  0  0  0  0  0  0  0  0  0  0  0
   10.5562   -3.8144    0.0000 C   0  0  0  0  0  0  0  0  0  0  0  0
   10.4231   -4.6572    0.0000 C   0  0  0  0  0  0  0  0  0  0  0  0
    6.9635   -1.3750    0.0000 C   0  0  3  0  0  0  0  0  0  0  0  0
    6.1652   -1.1532    0.0000 C   0  0  3  0  0  0  0  0  0  0  0  0
    4.2136   -2.3507    0.0000 C   0  0  0  0  0  0  0  0  0  0  0  0
    7.3183   -0.7096    0.0000 C   0  0  0  0  0  0  0  0  0  0  0  0
    5.3668   -1.2862    0.0000 C   0  0  0  0  0  0  0  0  0  0  0  0
    4.5241   -1.6411    0.0000 C   0  0  0  0  0  0  0  0  0  0  0  0
    0.3992   -4.4797    0.0000 C   0  0  0  0  0  0  0  0  0  0  0  0
    6.0321   -0.3548    0.0000 C   0  0  0  0  0  0  0  0  0  0  0  0
    6.8305    0.0000    0.0000 C   0  0  0  0  0  0  0  0  0  0  0  0
    0.0000   -5.1894    0.0000 C   0  0  0  0  0  0  0  0  0  0  0  0
    0.0000   -3.7700    0.0000 C   0  0  0  0  0  0  0  0  0  0  0  0
  1  5  2  0  0  0  0
  1  6  2  0  0  0  0
  1 13  1  0  0  0  0
  1 25  1  0  0  0  0
  2 21  2  0  0  0  0
  3 22  2  0  0  0  0
  4 27  1  0  0  0  0
  4 32  1  0  0  0  0
  7 29  2  0  0  0  0
  8 36  1  0  0  0  0
  8 46  1  0  0  0  0
  9 45  1  0  0  0  0
  9 52  1  0  0  0  0
 10 45  2  0  0  0  0
 11 46  2  0  0  0  0
 18 12  1  1  0  0  0
 12 22  1  0  0  0  0
 13 21  1  0  0  0  0
 14 24  1  0  0  0  0
 14 28  1  0  0  0  0
 14 29  1  0  0  0  0
 15 32  1  0  0  0  0
 15 38  2  0  0  0  0
 16 33  1  0  0  0  0
 16 45  1  0  0  0  0
 17 46  1  0  0  0  0
 17 58  1  0  0  0  0
 18 19  1  0  0  0  0
 18 20  1  0  0  0  0
 18 21  1  6  0  0  0
 19 20  1  0  0  0  0
 19 23  1  6  0  0  0
 24 22  1  6  0  0  0
 23 34  2  0  0  0  0
 24 26  1  0  0  0  0
 25 30  1  0  0  0  0
 25 31  1  0  0  0  0
 27 26  1  1  0  0  0
 27 28  1  0  0  0  0
 33 29  1  1  0  0  0
 30 31  1  0  0  0  0
 32 35  2  0  0  0  0
 33 39  1  0  0  0  0
 35 36  1  0  0  0  0
 35 40  1  0  0  0  0
 36 37  2  0  0  0  0
 37 38  1  0  0  0  0
 37 41  1  0  0  0  0
 38 42  1  0  0  0  0
 39 43  1  0  0  0  0
 39 44  1  0  0  0  0
 40 49  1  0  0  0  0
 41 47  2  0  0  0  0
 42 48  2  0  0  0  0
 43 50  1  0  0  0  0
 44 51  1  0  0  0  0
 47 48  1  0  0  0  0
 49 54  2  0  0  0  0
 50 51  1  0  0  0  0
 52 53  1  0  0  0  0
 52 55  1  1  0  0  0
 53 56  1  0  0  0  0
 53 59  1  6  0  0  0
 54 57  1  0  0  0  0
 55 60  1  0  0  0  0
 56 57  1  0  0  0  0
 58 61  1  0  0  0  0
 58 62  1  0  0  0  0
 59 60  1  0  0  0  0
M  END
> <PUBCHEM_COMPOUND_ID_TYPE>
0

> <PUBCHEM_TOTAL_CHARGE>
0

> <PUBCHEM_SUBSTANCE_ID>
310929764

> <PUBCHEM_SUBSTANCE_VERSION>
1

> <PUBCHEM_EXT_DATASOURCE_NAME>
4488

> <PUBCHEM_EXT_DATASOURCE_REGID>
SCHEMBL16106962

> <PUBCHEM_SUBSTANCE_COMMENT>
InChI=1S/C45H58N6O10S/c1-4-29-24-45(29,42(54)50-62(57,58)31-21-22-31)49-39(52)35-23-30-25-51(35)41(53)37(28-14-8-9-15-28)48-44(56)60-36-20-12-16-27(36)13-6-5-7-18-33-38(61-43(55)46-26(2)3)32-17-10-11-19-34(32)47-40(33)59-30/h4-5,7,10-11,17,19,26-31,35-37H,1,6,8-9,12-16,18,20-25H2,2-3H3,(H,46,55)(H,48,56)(H,49,52)(H,50,54)/b7-5+/t27-,29-,30-,35+,36-,37+,45-/m1/s1
InChIKey=WAIPCMYADDONNR-SRKYRMSXSA-N

> <PUBCHEM_SUBSTANCE_SYNONYM>
SCHEMBL16106962

> <PUBCHEM_XREF_EXT_ID>
SCHEMBL16106962

> <PUBCHEM_EXT_DATASOURCE_URL>
https://www.surechembl.org/

> <PUBCHEM_EXT_SUBSTANCE_URL>
https://www.surechembl.org/chemical/SCHEMBL16106962

> <PUBCHEM_CID_ASSOCIATIONS>
117599051  1

> <PUBCHEM_COORDINATE_TYPE>
1
3

> <PUBCHEM_BONDANNOTATIONS>
18  12  5
18  21  6
19  23  6
24  22  6
27  26  5
33  29  5
52  55  5
53  59  6

$$$$
