310944593
  -OEChem-07211613022D

 25 26  0     0  0  0  0  0  0999 V2000
   -1.1683    3.6904    0.0000 Cl  0  0  0  0  0  0  0  0  0  0  0  0
   -3.1465    2.0461    0.0000 S   0  0  0  0  0  0  0  0  0  0  0  0
   -1.1683   -1.2548    0.0000 O   0  0  0  0  0  0  0  0  0  0  0  0
    3.1093   -2.0832    0.0000 O   0  0  0  0  0  0  0  0  0  0  0  0
   -1.1560    0.3894    0.0000 N   0  0  0  0  0  0  0  0  0  0  0  0
    0.2782   -1.2548    0.0000 N   0  0  0  0  0  0  0  0  0  0  0  0
   -2.6519    1.3785    0.0000 N   0  0  0  0  0  0  0  0  0  0  0  0
    1.7000   -2.0832    0.0000 N   0  0  0  0  0  0  0  0  0  0  0  0
   -2.6519    2.7137    0.0000 N   0  0  0  0  0  0  0  0  0  0  0  0
   -1.1560    1.2302    0.0000 C   0  0  0  0  0  0  0  0  0  0  0  0
   -1.8854    1.6381    0.0000 C   0  0  0  0  0  0  0  0  0  0  0  0
   -1.8731    2.4541    0.0000 C   0  0  0  0  0  0  0  0  0  0  0  0
   -0.4636    1.6381    0.0000 C   0  0  0  0  0  0  0  0  0  0  0  0
   -1.1560    2.8621    0.0000 C   0  0  0  0  0  0  0  0  0  0  0  0
   -0.4512    2.4541    0.0000 C   0  0  0  0  0  0  0  0  0  0  0  0
   -0.4389   -0.8345    0.0000 C   0  0  0  0  0  0  0  0  0  0  0  0
   -0.4512   -0.0186    0.0000 C   0  0  0  0  0  0  0  0  0  0  0  0
    0.9705   -0.8468    0.0000 C   0  0  0  0  0  0  0  0  0  0  0  0
    0.2782   -2.0832    0.0000 C   0  0  0  0  0  0  0  0  0  0  0  0
    1.6876   -1.2548    0.0000 C   0  0  0  0  0  0  0  0  0  0  0  0
    0.9953   -2.4912    0.0000 C   0  0  0  0  0  0  0  0  0  0  0  0
    0.2658    1.2178    0.0000 C   0  0  0  0  0  0  0  0  0  0  0  0
    2.3923   -2.4912    0.0000 C   0  0  0  0  0  0  0  0  0  0  0  0
    2.4046   -3.3072    0.0000 C   0  0  0  0  0  0  0  0  0  0  0  0
    3.1465   -3.6904    0.0000 C   0  0  0  0  0  0  0  0  0  0  0  0
  1 14  1  0  0  0  0
  2  7  1  0  0  0  0
  3 16  2  0  0  0  0
  4 23  2  0  0  0  0
  5 10  1  0  0  0  0
  5 17  1  0  0  0  0
  6 16  1  0  0  0  0
  6 18  1  0  0  0  0
  6 19  1  0  0  0  0
  7 11  1  0  0  0  0
  8 20  1  0  0  0  0
  8 21  1  0  0  0  0
  8 23  1  0  0  0  0
  9 12  1  0  0  0  0
 10 11  2  0  0  0  0
 10 13  1  0  0  0  0
 11 12  1  0  0  0  0
 12 14  2  0  0  0  0
 13 15  2  0  0  0  0
 13 22  1  0  0  0  0
 14 15  1  0  0  0  0
 16 17  1  0  0  0  0
 18 20  1  0  0  0  0
 19 21  1  0  0  0  0
 23 24  1  0  0  0  0
 24 25  2  0  0  0  0
M  END
> <PUBCHEM_COMPOUND_ID_TYPE>
0

> <PUBCHEM_TOTAL_CHARGE>
0

> <PUBCHEM_SUBSTANCE_ID>
310944593

> <PUBCHEM_SUBSTANCE_VERSION>
1

> <PUBCHEM_EXT_DATASOURCE_NAME>
4488

> <PUBCHEM_EXT_DATASOURCE_REGID>
SCHEMBL16122671

> <PUBCHEM_SUBSTANCE_COMMENT>
InChI=1S/C16H22ClN5O2S/c1-3-12(23)21-4-6-22(7-5-21)13(24)9-19-15-10(2)8-11(17)14(18)16(15)20-25/h3,8,19-20,25H,1,4-7,9,18H2,2H3
InChIKey=RBILRCFCEDIFFD-UHFFFAOYSA-N

> <PUBCHEM_SUBSTANCE_SYNONYM>
SCHEMBL16122671

> <PUBCHEM_XREF_EXT_ID>
SCHEMBL16122671

> <PUBCHEM_EXT_DATASOURCE_URL>
https://www.surechembl.org/

> <PUBCHEM_EXT_SUBSTANCE_URL>
https://www.surechembl.org/chemical/SCHEMBL16122671

> <PUBCHEM_CID_ASSOCIATIONS>
117610823  1

> <PUBCHEM_COORDINATE_TYPE>
1
3

$$$$
