310943264
  -OEChem-07211613022D

 38 42  0     0  0  0  0  0  0999 V2000
   -1.7826   -1.0608    0.0000 O   0  0  0  0  0  0  0  0  0  0  0  0
    1.0902   -0.2210    0.0000 O   0  0  0  0  0  0  0  0  0  0  0  0
   -4.6702    2.2688    0.0000 O   0  0  0  0  0  0  0  0  0  0  0  0
   -1.0755    0.1915    0.0000 N   0  0  0  0  0  0  0  0  0  0  0  0
   -2.5046    0.1915    0.0000 N   0  0  0  0  0  0  0  0  0  0  0  0
   -3.2264    1.4438    0.0000 N   0  0  0  0  0  0  0  0  0  0  0  0
    1.8121    1.0165    0.0000 N   0  0  0  0  0  0  0  0  0  0  0  0
    3.9631   -1.0608    0.0000 N   0  0  0  0  0  0  0  0  0  0  0  0
   -0.0589   -2.0626    0.0000 N   0  0  0  0  0  0  0  0  0  0  0  0
    4.6702   -1.5027    0.0000 N   0  0  0  0  0  0  0  0  0  0  0  0
   -1.0608    1.0313    0.0000 C   0  0  0  0  0  0  0  0  0  0  0  0
   -0.3536    1.4438    0.0000 C   0  0  0  0  0  0  0  0  0  0  0  0
   -2.5046    1.0313    0.0000 C   0  0  0  0  0  0  0  0  0  0  0  0
   -1.7826   -0.2210    0.0000 C   0  0  0  0  0  0  0  0  0  0  0  0
   -1.7974    1.4438    0.0000 C   0  0  0  0  0  0  0  0  0  0  0  0
   -0.3536    2.2836    0.0000 C   0  0  0  0  0  0  0  0  0  0  0  0
    0.3830    1.0313    0.0000 C   0  0  0  0  0  0  0  0  0  0  0  0
    1.0755    1.4586    0.0000 C   0  0  0  0  0  0  0  0  0  0  0  0
    0.3683    2.6813    0.0000 C   0  0  0  0  0  0  0  0  0  0  0  0
    2.5341   -0.2210    0.0000 C   0  0  0  0  0  0  0  0  0  0  0  0
    3.2559   -1.4733    0.0000 C   0  0  0  0  0  0  0  0  0  0  0  0
    1.8121    0.2063    0.0000 C   0  0  0  0  0  0  0  0  0  0  0  0
    1.0755    2.2688    0.0000 C   0  0  0  0  0  0  0  0  0  0  0  0
    3.2559   -2.2836    0.0000 C   0  0  0  0  0  0  0  0  0  0  0  0
   -1.0755   -1.4733    0.0000 C   0  0  0  0  0  0  0  0  0  0  0  0
    2.5341   -1.0460    0.0000 C   0  0  0  0  0  0  0  0  0  0  0  0
   -3.2412    2.2836    0.0000 C   0  0  0  0  0  0  0  0  0  0  0  0
   -3.9336    1.0313    0.0000 C   0  0  0  0  0  0  0  0  0  0  0  0
    3.2264    0.1915    0.0000 C   0  0  0  0  0  0  0  0  0  0  0  0
   -1.0608    2.7108    0.0000 C   0  0  0  0  0  0  0  0  0  0  0  0
   -0.8397   -2.2688    0.0000 C   0  0  0  0  0  0  0  0  0  0  0  0
   -0.2652   -1.2818    0.0000 C   0  0  0  0  0  0  0  0  0  0  0  0
    3.9631   -0.2210    0.0000 C   0  0  0  0  0  0  0  0  0  0  0  0
   -3.9484    2.6961    0.0000 C   0  0  0  0  0  0  0  0  0  0  0  0
   -4.6556    1.4291    0.0000 C   0  0  0  0  0  0  0  0  0  0  0  0
    3.9631   -1.8858    0.0000 C   0  0  0  0  0  0  0  0  0  0  0  0
    2.5193   -2.7108    0.0000 C   0  0  0  0  0  0  0  0  0  0  0  0
    3.9779   -2.7108    0.0000 C   0  0  0  0  0  0  0  0  0  0  0  0
  1 14  1  0  0  0  0
  1 25  1  0  0  0  0
  2 22  2  0  0  0  0
  3 34  1  0  0  0  0
  3 35  1  0  0  0  0
  4 11  1  0  0  0  0
  4 14  2  0  0  0  0
  5 13  2  0  0  0  0
  5 14  1  0  0  0  0
  6 13  1  0  0  0  0
  6 27  1  0  0  0  0
  6 28  1  0  0  0  0
  7 18  1  0  0  0  0
  7 22  1  0  0  0  0
  8 21  2  0  0  0  0
  8 33  1  0  0  0  0
  9 31  1  0  0  0  0
  9 32  1  0  0  0  0
 10 36  3  0  0  0  0
 11 12  1  0  0  0  0
 11 15  2  0  0  0  0
 12 16  1  0  0  0  0
 12 17  2  0  0  0  0
 13 15  1  0  0  0  0
 16 19  2  0  0  0  0
 16 30  1  0  0  0  0
 17 18  1  0  0  0  0
 18 23  2  0  0  0  0
 19 23  1  0  0  0  0
 20 22  1  0  0  0  0
 20 26  2  0  0  0  0
 20 29  1  0  0  0  0
 21 24  1  0  0  0  0
 21 26  1  0  0  0  0
 24 36  1  0  0  0  0
 24 37  1  0  0  0  0
 24 38  1  0  0  0  0
 25 31  1  0  0  0  0
 25 32  1  0  0  0  0
 27 34  1  0  0  0  0
 28 35  1  0  0  0  0
 29 33  2  0  0  0  0
M  END
> <PUBCHEM_COMPOUND_ID_TYPE>
0

> <PUBCHEM_TOTAL_CHARGE>
0

> <PUBCHEM_SUBSTANCE_ID>
310943264

> <PUBCHEM_SUBSTANCE_VERSION>
1

> <PUBCHEM_EXT_DATASOURCE_NAME>
4488

> <PUBCHEM_EXT_DATASOURCE_REGID>
SCHEMBL16121326

> <PUBCHEM_SUBSTANCE_COMMENT>
InChI=1S/C28H31N7O3/c1-18-4-5-20(32-26(36)19-6-7-31-24(12-19)28(2,3)17-29)13-22(18)23-14-25(35-8-10-37-11-9-35)34-27(33-23)38-21-15-30-16-21/h4-7,12-14,21,30H,8-11,15-16H2,1-3H3,(H,32,36)
InChIKey=ARBMICZOSUERLW-UHFFFAOYSA-N

> <PUBCHEM_SUBSTANCE_SYNONYM>
SCHEMBL16121326

> <PUBCHEM_XREF_EXT_ID>
SCHEMBL16121326

> <PUBCHEM_EXT_DATASOURCE_URL>
https://www.surechembl.org/

> <PUBCHEM_EXT_SUBSTANCE_URL>
https://www.surechembl.org/chemical/SCHEMBL16121326

> <PUBCHEM_CID_ASSOCIATIONS>
117609689  1

> <PUBCHEM_COORDINATE_TYPE>
1
3

$$$$
