310944434
  -OEChem-07211613022D

 34 39  0     0  0  0  0  0  0999 V2000
   -2.9792    1.8193    0.0000 F   0  0  0  0  0  0  0  0  0  0  0  0
   -0.6912   -0.5640    0.0000 N   0  0  0  0  0  0  0  0  0  0  0  0
   -4.2662    0.1192    0.0000 N   0  0  0  0  0  0  0  0  0  0  0  0
   -1.0090    2.9474    0.0000 N   0  0  0  0  0  0  0  0  0  0  0  0
    0.1350   -0.4529    0.0000 C   0  0  0  0  0  0  0  0  0  0  0  0
    1.4857    0.1033    0.0000 C   0  0  0  0  0  0  0  0  0  0  0  0
    0.4846   -1.1838    0.0000 C   0  0  0  0  0  0  0  0  0  0  0  0
    1.8193   -0.6276    0.0000 C   0  0  0  0  0  0  0  0  0  0  0  0
    2.1371    0.6594    0.0000 C   0  0  0  0  0  0  0  0  0  0  0  0
   -0.1510   -1.7240    0.0000 C   0  0  0  0  0  0  0  0  0  0  0  0
   -0.8819   -1.3585    0.0000 C   0  0  0  0  0  0  0  0  0  0  0  0
    2.6773   -0.5164    0.0000 C   0  0  0  0  0  0  0  0  0  0  0  0
    2.8839    0.2621    0.0000 C   0  0  0  0  0  0  0  0  0  0  0  0
    0.6594    0.1827    0.0000 C   0  0  0  0  0  0  0  0  0  0  0  0
    1.3267   -1.2632    0.0000 C   0  0  0  0  0  0  0  0  0  0  0  0
   -1.2632    0.0556    0.0000 C   0  0  0  0  0  0  0  0  0  0  0  0
   -2.0736   -0.0874    0.0000 C   0  0  0  0  0  0  0  0  0  0  0  0
   -0.1669   -2.5661    0.0000 C   0  0  0  0  0  0  0  0  0  0  0  0
   -1.6128   -1.7557    0.0000 C   0  0  0  0  0  0  0  0  0  0  0  0
    3.2811   -1.0567    0.0000 C   0  0  0  0  0  0  0  0  0  0  0  0
    3.6783    0.4846    0.0000 C   0  0  0  0  0  0  0  0  0  0  0  0
   -1.0090    0.8501    0.0000 C   0  0  0  0  0  0  0  0  0  0  0  0
    1.5174    1.2314    0.0000 C   0  0  0  0  0  0  0  0  0  0  0  0
    2.7568    1.2314    0.0000 C   0  0  0  0  0  0  0  0  0  0  0  0
   -2.6773    0.4846    0.0000 C   0  0  0  0  0  0  0  0  0  0  0  0
   -1.5492    1.4380    0.0000 C   0  0  0  0  0  0  0  0  0  0  0  0
   -2.3755    1.2632    0.0000 C   0  0  0  0  0  0  0  0  0  0  0  0
   -0.8659   -2.9474    0.0000 C   0  0  0  0  0  0  0  0  0  0  0  0
   -1.5969   -2.5661    0.0000 C   0  0  0  0  0  0  0  0  0  0  0  0
    4.0597   -0.8501    0.0000 C   0  0  0  0  0  0  0  0  0  0  0  0
    4.2662   -0.0556    0.0000 C   0  0  0  0  0  0  0  0  0  0  0  0
   -2.3595   -0.8977    0.0000 C   0  0  0  0  0  0  0  0  0  0  0  0
   -3.4877    0.2940    0.0000 C   0  0  0  0  0  0  0  0  0  0  0  0
   -1.2791    2.2007    0.0000 C   0  0  0  0  0  0  0  0  0  0  0  0
  1 27  1  0  0  0  0
  2  5  1  0  0  0  0
  2 11  1  0  0  0  0
  2 16  1  0  0  0  0
  3 33  3  0  0  0  0
  4 34  3  0  0  0  0
  5  7  2  0  0  0  0
  5 14  1  0  0  0  0
  6  8  1  0  0  0  0
  6  9  1  0  0  0  0
  6 14  2  0  0  0  0
  7 10  1  0  0  0  0
  7 15  1  0  0  0  0
  8 12  1  0  0  0  0
  8 15  2  0  0  0  0
  9 13  1  0  0  0  0
  9 23  1  0  0  0  0
  9 24  1  0  0  0  0
 10 11  1  0  0  0  0
 10 18  2  0  0  0  0
 11 19  2  0  0  0  0
 12 13  2  0  0  0  0
 12 20  1  0  0  0  0
 13 21  1  0  0  0  0
 16 17  2  0  0  0  0
 16 22  1  0  0  0  0
 17 25  1  0  0  0  0
 17 32  1  0  0  0  0
 18 28  1  0  0  0  0
 19 29  1  0  0  0  0
 20 30  2  0  0  0  0
 21 31  2  0  0  0  0
 22 26  2  0  0  0  0
 25 27  2  0  0  0  0
 25 33  1  0  0  0  0
 26 27  1  0  0  0  0
 26 34  1  0  0  0  0
 28 29  2  0  0  0  0
 30 31  1  0  0  0  0
M  END
> <PUBCHEM_COMPOUND_ID_TYPE>
0

> <PUBCHEM_TOTAL_CHARGE>
0

> <PUBCHEM_SUBSTANCE_ID>
310944434

> <PUBCHEM_SUBSTANCE_VERSION>
1

> <PUBCHEM_EXT_DATASOURCE_NAME>
4488

> <PUBCHEM_EXT_DATASOURCE_REGID>
SCHEMBL16122509

> <PUBCHEM_SUBSTANCE_COMMENT>
InChI=1S/C30H20FN3/c1-17-23(16-33)29(31)18(15-32)12-27(17)34-26-11-7-5-9-20(26)22-13-21-19-8-4-6-10-24(19)30(2,3)25(21)14-28(22)34/h4-14H,1-3H3
InChIKey=CEYBTHLLWQQVLU-UHFFFAOYSA-N

> <PUBCHEM_SUBSTANCE_SYNONYM>
SCHEMBL16122509

> <PUBCHEM_XREF_EXT_ID>
SCHEMBL16122509

> <PUBCHEM_EXT_DATASOURCE_URL>
https://www.surechembl.org/

> <PUBCHEM_EXT_SUBSTANCE_URL>
https://www.surechembl.org/chemical/SCHEMBL16122509

> <PUBCHEM_CID_ASSOCIATIONS>
117610688  1

> <PUBCHEM_COORDINATE_TYPE>
1
3

$$$$
