310930531
  -OEChem-07211613022D

 32 36  0     0  0  0  0  0  0999 V2000
    6.4525   -2.1399    0.0000 S   0  0  0  0  0  0  0  0  0  0  0  0
    5.6624   -1.6790    0.0000 O   0  0  0  0  0  0  0  0  0  0  0  0
    7.1439   -2.5678    0.0000 O   0  0  0  0  0  0  0  0  0  0  0  0
    2.2057   -6.4196    0.0000 O   0  0  0  0  0  0  0  0  0  0  0  0
    3.9505   -6.4855    0.0000 O   0  0  0  0  0  0  0  0  0  0  0  0
    3.9505   -5.0369    0.0000 N   0  0  0  0  0  0  0  0  0  0  0  0
    0.0000   -6.1891    0.0000 N   0  0  0  0  0  0  0  0  0  0  0  0
    6.8805   -1.4485    0.0000 C   0  0  0  0  0  0  0  0  0  0  0  0
    7.7035   -1.4485    0.0000 C   0  0  0  0  0  0  0  0  0  0  0  0
    6.0575   -2.8641    0.0000 C   0  0  0  0  0  0  0  0  0  0  0  0
    8.1315   -0.7572    0.0000 C   0  0  0  0  0  0  0  0  0  0  0  0
    6.4855   -0.7242    0.0000 C   0  0  0  0  0  0  0  0  0  0  0  0
    2.6995   -5.7612    0.0000 C   0  0  0  0  0  0  0  0  0  0  0  0
    1.4156   -6.1891    0.0000 C   0  0  0  0  0  0  0  0  0  0  0  0
    1.4156   -5.3332    0.0000 C   0  0  0  0  0  0  0  0  0  0  0  0
    5.2015   -2.8641    0.0000 C   0  0  0  0  0  0  0  0  0  0  0  0
    6.4525   -3.5884    0.0000 C   0  0  0  0  0  0  0  0  0  0  0  0
    8.0986   -2.1728    0.0000 C   0  0  0  0  0  0  0  0  0  0  0  0
    7.7365   -0.0329    0.0000 C   0  0  0  0  0  0  0  0  0  0  0  0
    2.2057   -5.1028    0.0000 C   0  0  0  0  0  0  0  0  0  0  0  0
    6.9134    0.0000    0.0000 C   0  0  0  0  0  0  0  0  0  0  0  0
    5.2015   -4.3127    0.0000 C   0  0  0  0  0  0  0  0  0  0  0  0
    3.5226   -5.7612    0.0000 C   0  0  0  0  0  0  0  0  0  0  0  0
    8.9875   -0.7572    0.0000 C   0  0  0  0  0  0  0  0  0  0  0  0
    4.8065   -3.5884    0.0000 C   0  0  0  0  0  0  0  0  0  0  0  0
    6.0245   -4.3127    0.0000 C   0  0  0  0  0  0  0  0  0  0  0  0
    8.9545   -2.2057    0.0000 C   0  0  0  0  0  0  0  0  0  0  0  0
    0.6914   -6.5842    0.0000 C   0  0  0  0  0  0  0  0  0  0  0  0
    0.6914   -4.9381    0.0000 C   0  0  0  0  0  0  0  0  0  0  0  0
    4.7735   -5.0369    0.0000 C   0  0  0  0  0  0  0  0  0  0  0  0
    9.3825   -1.4814    0.0000 C   0  0  0  0  0  0  0  0  0  0  0  0
    0.0000   -5.3332    0.0000 C   0  0  0  0  0  0  0  0  0  0  0  0
  1  2  2  0  0  0  0
  1  3  2  0  0  0  0
  1  8  1  0  0  0  0
  1 10  1  0  0  0  0
  4 13  1  0  0  0  0
  4 14  1  0  0  0  0
  5 23  2  0  0  0  0
  6 23  1  0  0  0  0
  6 30  1  0  0  0  0
  7 28  1  0  0  0  0
  7 32  2  0  0  0  0
  8  9  1  0  0  0  0
  8 12  2  0  0  0  0
  9 11  2  0  0  0  0
  9 18  1  0  0  0  0
 10 16  2  0  0  0  0
 10 17  1  0  0  0  0
 11 19  1  0  0  0  0
 11 24  1  0  0  0  0
 12 21  1  0  0  0  0
 13 20  2  0  0  0  0
 13 23  1  0  0  0  0
 14 15  1  0  0  0  0
 14 28  2  0  0  0  0
 15 20  1  0  0  0  0
 15 29  2  0  0  0  0
 16 25  1  0  0  0  0
 17 26  2  0  0  0  0
 18 27  2  0  0  0  0
 19 21  2  0  0  0  0
 22 25  2  0  0  0  0
 22 26  1  0  0  0  0
 22 30  1  0  0  0  0
 24 31  2  0  0  0  0
 27 31  1  0  0  0  0
 29 32  1  0  0  0  0
M  END
> <PUBCHEM_COMPOUND_ID_TYPE>
0

> <PUBCHEM_TOTAL_CHARGE>
0

> <PUBCHEM_SUBSTANCE_ID>
310930531

> <PUBCHEM_SUBSTANCE_VERSION>
1

> <PUBCHEM_EXT_DATASOURCE_NAME>
4488

> <PUBCHEM_EXT_DATASOURCE_REGID>
SCHEMBL16107823

> <PUBCHEM_SUBSTANCE_COMMENT>
InChI=1S/C25H18N2O4S/c28-25(22-14-19-12-13-26-16-23(19)31-22)27-15-17-8-10-20(11-9-17)32(29,30)24-7-3-5-18-4-1-2-6-21(18)24/h1-14,16H,15H2,(H,27,28)
InChIKey=WZYQPFHKSOYKOT-UHFFFAOYSA-N

> <PUBCHEM_SUBSTANCE_SYNONYM>
SCHEMBL16107823

> <PUBCHEM_XREF_EXT_ID>
SCHEMBL16107823

> <PUBCHEM_EXT_DATASOURCE_URL>
https://www.surechembl.org/

> <PUBCHEM_EXT_SUBSTANCE_URL>
https://www.surechembl.org/chemical/SCHEMBL16107823

> <PUBCHEM_CID_ASSOCIATIONS>
56943566  1

> <PUBCHEM_COORDINATE_TYPE>
1
3

$$$$
