310931813
  -OEChem-07211613022D

 28 30  0     1  0  0  0  0  0999 V2000
    2.8873   -0.7906    0.0000 S   0  0  0  0  0  0  0  0  0  0  0  0
    0.6874   -4.5372    0.0000 O   0  0  0  0  0  0  0  0  0  0  0  0
    4.9497   -1.2718    0.0000 O   0  0  0  0  0  0  0  0  0  0  0  0
    5.6715   -2.4748    0.0000 O   0  0  0  0  0  0  0  0  0  0  0  0
    4.1934   -0.7906    0.0000 N   0  0  0  0  0  0  0  0  0  0  0  0
    2.1311   -4.5372    0.0000 C   0  0  0  0  0  0  0  0  0  0  0  0
    2.1311   -3.7123    0.0000 C   0  0  0  0  0  0  0  0  0  0  0  0
    2.8186   -2.4748    0.0000 C   0  0  0  0  0  0  0  0  0  0  0  0
    3.5404   -2.0623    0.0000 C   0  0  3  0  0  0  0  0  0  0  0  0
    1.4093   -4.9497    0.0000 C   0  0  0  0  0  0  0  0  0  0  0  0
    2.8529   -5.7402    0.0000 C   0  0  0  0  0  0  0  0  0  0  0  0
    2.8186   -3.2998    0.0000 C   0  0  0  0  0  0  0  0  0  0  0  0
    2.8186   -4.9497    0.0000 C   0  0  0  0  0  0  0  0  0  0  0  0
    3.5404   -1.2718    0.0000 C   0  0  0  0  0  0  0  0  0  0  0  0
    3.5404   -6.1528    0.0000 C   0  0  0  0  0  0  0  0  0  0  0  0
    1.4093   -3.2998    0.0000 C   0  0  0  0  0  0  0  0  0  0  0  0
    2.1311   -2.0623    0.0000 C   0  0  0  0  0  0  0  0  0  0  0  0
    1.4093   -5.7402    0.0000 C   0  0  0  0  0  0  0  0  0  0  0  0
    2.1311   -6.1871    0.0000 C   0  0  0  0  0  0  0  0  0  0  0  0
    4.2622   -2.4748    0.0000 C   0  0  0  0  0  0  0  0  0  0  0  0
    1.4093   -2.4748    0.0000 C   0  0  0  0  0  0  0  0  0  0  0  0
    4.9497   -2.0623    0.0000 C   0  0  0  0  0  0  0  0  0  0  0  0
    3.1279    0.0000    0.0000 C   0  0  0  0  0  0  0  0  0  0  0  0
    3.9529    0.0000    0.0000 C   0  0  0  0  0  0  0  0  0  0  0  0
    3.1279   -6.8745    0.0000 C   0  0  0  0  0  0  0  0  0  0  0  0
    4.2622   -6.5652    0.0000 C   0  0  0  0  0  0  0  0  0  0  0  0
    3.9529   -5.4309    0.0000 C   0  0  0  0  0  0  0  0  0  0  0  0
    0.0000   -4.9497    0.0000 C   0  0  0  0  0  0  0  0  0  0  0  0
  1 14  1  0  0  0  0
  1 23  1  0  0  0  0
  2 10  1  0  0  0  0
  2 28  1  0  0  0  0
  3 22  2  0  0  0  0
  4 22  1  0  0  0  0
  5 14  2  0  0  0  0
  5 24  1  0  0  0  0
  6  7  1  0  0  0  0
  6 10  2  0  0  0  0
  6 13  1  0  0  0  0
  7 12  2  0  0  0  0
  7 16  1  0  0  0  0
  8  9  1  0  0  0  0
  8 12  1  0  0  0  0
  8 17  2  0  0  0  0
  9 14  1  0  0  0  0
  9 20  1  1  0  0  0
 10 18  1  0  0  0  0
 11 13  2  0  0  0  0
 11 15  1  0  0  0  0
 11 19  1  0  0  0  0
 15 25  1  0  0  0  0
 15 26  1  0  0  0  0
 15 27  1  0  0  0  0
 16 21  2  0  0  0  0
 17 21  1  0  0  0  0
 18 19  2  0  0  0  0
 20 22  1  0  0  0  0
 23 24  2  0  0  0  0
M  END
> <PUBCHEM_COMPOUND_ID_TYPE>
0

> <PUBCHEM_TOTAL_CHARGE>
0

> <PUBCHEM_SUBSTANCE_ID>
310931813

> <PUBCHEM_SUBSTANCE_VERSION>
1

> <PUBCHEM_EXT_DATASOURCE_NAME>
4488

> <PUBCHEM_EXT_DATASOURCE_REGID>
SCHEMBL16109146

> <PUBCHEM_SUBSTANCE_COMMENT>
InChI=1S/C23H25NO3S/c1-23(2,3)17-8-9-20(27-4)18(13-17)15-6-5-7-16(12-15)19(14-21(25)26)22-24-10-11-28-22/h5-13,19H,14H2,1-4H3,(H,25,26)/t19-/m0/s1
InChIKey=MQMSFGOOPJPNIL-IBGZPJMESA-N

> <PUBCHEM_SUBSTANCE_SYNONYM>
SCHEMBL16109146

> <PUBCHEM_XREF_EXT_ID>
SCHEMBL16109146

> <PUBCHEM_EXT_DATASOURCE_URL>
https://www.surechembl.org/

> <PUBCHEM_EXT_SUBSTANCE_URL>
https://www.surechembl.org/chemical/SCHEMBL16109146

> <PUBCHEM_CID_ASSOCIATIONS>
86281674  1

> <PUBCHEM_COORDINATE_TYPE>
1
3

> <PUBCHEM_BONDANNOTATIONS>
9  20  5

$$$$
