310947471
  -OEChem-07211613022D

 16 16  0     0  0  0  0  0  0999 V2000
   -5.9038    6.4973    0.0000 O   0  0  0  0  0  0  0  0  0  0  0  0
   -4.6663    7.2118    0.0000 O   0  0  0  0  0  0  0  0  0  0  0  0
  -10.8538    7.9262    0.0000 O   0  0  0  0  0  0  0  0  0  0  0  0
  -10.4413    5.7828    0.0000 O   0  0  0  0  0  0  0  0  0  0  0  0
   -6.7288    7.9262    0.0000 C   0  0  0  0  0  0  0  0  0  0  0  0
   -8.3788    7.9262    0.0000 C   0  0  0  0  0  0  0  0  0  0  0  0
   -7.1413    7.2118    0.0000 C   0  0  0  0  0  0  0  0  0  0  0  0
   -7.1413    8.6407    0.0000 C   0  0  0  0  0  0  0  0  0  0  0  0
   -7.9663    7.2118    0.0000 C   0  0  0  0  0  0  0  0  0  0  0  0
   -7.9663    8.6407    0.0000 C   0  0  0  0  0  0  0  0  0  0  0  0
   -5.9038    7.9262    0.0000 C   0  0  0  0  0  0  0  0  0  0  0  0
   -9.2038    7.9262    0.0000 C   0  0  0  0  0  0  0  0  0  0  0  0
   -5.4913    7.2118    0.0000 C   0  0  0  0  0  0  0  0  0  0  0  0
   -9.6163    7.2118    0.0000 C   0  0  0  0  0  0  0  0  0  0  0  0
  -10.4413    7.2118    0.0000 C   0  0  0  0  0  0  0  0  0  0  0  0
  -10.8538    6.4973    0.0000 C   0  0  0  0  0  0  0  0  0  0  0  0
  1 13  2  0  0  0  0
  2 13  1  0  0  0  0
  3 15  2  0  0  0  0
  4 16  1  0  0  0  0
  5  7  2  0  0  0  0
  5  8  1  0  0  0  0
  5 11  1  0  0  0  0
  6  9  2  0  0  0  0
  6 10  1  0  0  0  0
  6 12  1  0  0  0  0
  7  9  1  0  0  0  0
  8 10  2  0  0  0  0
 11 13  1  0  0  0  0
 12 14  1  0  0  0  0
 14 15  1  0  0  0  0
 15 16  1  0  0  0  0
M  END
> <PUBCHEM_COMPOUND_ID_TYPE>
0

> <PUBCHEM_TOTAL_CHARGE>
0

> <PUBCHEM_SUBSTANCE_ID>
310947471

> <PUBCHEM_SUBSTANCE_VERSION>
1

> <PUBCHEM_EXT_DATASOURCE_NAME>
4488

> <PUBCHEM_EXT_DATASOURCE_REGID>
SCHEMBL16125632

> <PUBCHEM_SUBSTANCE_COMMENT>
InChI=1S/C12H14O4/c13-8-11(14)6-5-9-1-3-10(4-2-9)7-12(15)16/h1-4,13H,5-8H2,(H,15,16)
InChIKey=OCVLGHRMASPYFC-UHFFFAOYSA-N

> <PUBCHEM_SUBSTANCE_SYNONYM>
SCHEMBL16125632

> <PUBCHEM_XREF_EXT_ID>
SCHEMBL16125632

> <PUBCHEM_EXT_DATASOURCE_URL>
https://www.surechembl.org/

> <PUBCHEM_EXT_SUBSTANCE_URL>
https://www.surechembl.org/chemical/SCHEMBL16125632

> <PUBCHEM_CID_ASSOCIATIONS>
117613202  1

> <PUBCHEM_COORDINATE_TYPE>
1
3

$$$$
