310947110
  -OEChem-07211613022D

 42 46  0     1  0  0  0  0  0999 V2000
    1.0228    4.1711    0.0000 F   0  0  0  0  0  0  0  0  0  0  0  0
    1.4703    5.2258    0.0000 F   0  0  0  0  0  0  0  0  0  0  0  0
    2.5091    4.7784    0.0000 F   0  0  0  0  0  0  0  0  0  0  0  0
   -0.4954   -3.6757    0.0000 F   0  0  0  0  0  0  0  0  0  0  0  0
    0.2717   -3.8674    0.0000 F   0  0  0  0  0  0  0  0  0  0  0  0
   -0.0639   -5.2258    0.0000 F   0  0  0  0  0  0  0  0  0  0  0  0
   -3.1962    0.2877    0.0000 O   0  0  0  0  0  0  0  0  0  0  0  0
   -1.5662   -4.8902    0.0000 O   0  0  0  0  0  0  0  0  0  0  0  0
   -0.4315    0.1438    0.0000 N   0  0  0  0  0  0  0  0  0  0  0  0
   -0.7831   -0.6233    0.0000 N   0  0  0  0  0  0  0  0  0  0  0  0
   -2.1574   -1.1346    0.0000 N   0  0  0  0  0  0  0  0  0  0  0  0
    1.3743    1.6620    0.0000 N   0  0  0  0  0  0  0  0  0  0  0  0
   -2.5410    1.5342    0.0000 N   0  0  0  0  0  0  0  0  0  0  0  0
    2.7008    2.1734    0.0000 N   0  0  0  0  0  0  0  0  0  0  0  0
    1.7899   -1.2625    0.0000 N   0  0  0  0  0  0  0  0  0  0  0  0
    0.3356    0.3356    0.0000 C   0  0  0  0  0  0  0  0  0  0  0  0
   -1.0708    0.7191    0.0000 C   0  0  0  0  0  0  0  0  0  0  0  0
   -1.7739    0.2877    0.0000 C   0  0  0  0  0  0  0  0  0  0  0  0
   -1.5981   -0.5114    0.0000 C   0  0  0  0  0  0  0  0  0  0  0  0
   -2.5250    0.7191    0.0000 C   0  0  0  0  0  0  0  0  0  0  0  0
    0.0319    1.1027    0.0000 C   0  0  0  0  0  0  0  0  0  0  0  0
    1.1826    0.2238    0.0000 C   0  0  0  0  0  0  0  0  0  0  0  0
   -1.0708    1.5502    0.0000 C   0  0  0  0  0  0  0  0  0  0  0  0
    0.3836   -0.4635    0.0000 C   0  0  0  0  0  0  0  0  0  0  0  0
    0.5434    1.7739    0.0000 C   0  0  0  0  0  0  0  0  0  0  0  0
    1.6780    0.8790    0.0000 C   0  0  0  0  0  0  0  0  0  0  0  0
   -1.8059    1.9657    0.0000 C   0  0  0  0  0  0  0  0  0  0  0  0
   -1.8858   -1.8698    0.0000 C   0  0  0  0  0  0  0  0  0  0  0  0
    1.8538    2.3172    0.0000 C   0  0  0  0  0  0  0  0  0  0  0  0
    1.0708   -0.8790    0.0000 C   0  0  0  0  0  0  0  0  0  0  0  0
    1.5662    3.0364    0.0000 C   0  0  0  0  0  0  0  0  0  0  0  0
    2.0456    3.7556    0.0000 C   0  0  0  0  0  0  0  0  0  0  0  0
   -2.4132   -2.5091    0.0000 C   0  0  0  0  0  0  0  0  0  0  0  0
   -1.0547   -2.0456    0.0000 C   0  0  0  0  0  0  0  0  0  0  0  0
   -1.3424   -3.4839    0.0000 C   0  0  0  0  0  0  0  0  0  0  0  0
    1.7579    4.5067    0.0000 C   0  0  0  0  0  0  0  0  0  0  0  0
   -2.1415   -3.3081    0.0000 C   0  0  0  0  0  0  0  0  0  0  0  0
   -0.7831   -2.8446    0.0000 C   0  0  0  0  0  0  0  0  0  0  0  0
   -1.0867   -4.2190    0.0000 C   0  0  3  0  0  0  0  0  0  0  0  0
    2.9086    3.6118    0.0000 C   0  0  0  0  0  0  0  0  0  0  0  0
    3.1962    2.8446    0.0000 C   0  0  0  0  0  0  0  0  0  0  0  0
   -0.3196   -4.4268    0.0000 C   0  0  0  0  0  0  0  0  0  0  0  0
  1 36  1  0  0  0  0
  2 36  1  0  0  0  0
  3 36  1  0  0  0  0
  4 42  1  0  0  0  0
  5 42  1  0  0  0  0
  6 42  1  0  0  0  0
  7 20  2  0  0  0  0
 39  8  1  1  0  0  0
  9 10  1  0  0  0  0
  9 16  1  0  0  0  0
  9 17  1  0  0  0  0
 10 19  2  0  0  0  0
 11 19  1  0  0  0  0
 11 28  1  0  0  0  0
 12 25  1  0  0  0  0
 12 26  1  0  0  0  0
 12 29  1  0  0  0  0
 13 20  1  0  0  0  0
 13 27  1  0  0  0  0
 14 29  2  0  0  0  0
 14 41  1  0  0  0  0
 15 30  3  0  0  0  0
 16 21  1  0  0  0  0
 16 22  1  0  0  0  0
 16 24  1  0  0  0  0
 17 18  2  0  0  0  0
 17 23  1  0  0  0  0
 18 19  1  0  0  0  0
 18 20  1  0  0  0  0
 21 25  1  0  0  0  0
 22 26  1  0  0  0  0
 23 27  2  0  0  0  0
 24 30  1  0  0  0  0
 28 33  2  0  0  0  0
 28 34  1  0  0  0  0
 29 31  1  0  0  0  0
 31 32  2  0  0  0  0
 32 36  1  0  0  0  0
 32 40  1  0  0  0  0
 33 37  1  0  0  0  0
 34 38  2  0  0  0  0
 35 37  2  0  0  0  0
 35 38  1  0  0  0  0
 35 39  1  0  0  0  0
 39 42  1  0  0  0  0
 40 41  2  0  0  0  0
M  END
> <PUBCHEM_COMPOUND_ID_TYPE>
0

> <PUBCHEM_TOTAL_CHARGE>
0

> <PUBCHEM_SUBSTANCE_ID>
310947110

> <PUBCHEM_SUBSTANCE_VERSION>
1

> <PUBCHEM_EXT_DATASOURCE_NAME>
4488

> <PUBCHEM_EXT_DATASOURCE_REGID>
SCHEMBL16125264

> <PUBCHEM_SUBSTANCE_COMMENT>
InChI=1S/C27H23F6N7O2/c28-26(29,30)17-5-11-35-20(15-17)39-13-8-25(7-10-34,9-14-39)40-19-6-12-36-24(42)21(19)23(38-40)37-18-3-1-16(2-4-18)22(41)27(31,32)33/h1-6,11-12,15,22,41H,7-9,13-14H2,(H,36,42)(H,37,38)/t22-/m0/s1
InChIKey=UTVLIIWEALHXFJ-QFIPXVFZSA-N

> <PUBCHEM_SUBSTANCE_SYNONYM>
SCHEMBL16125264

> <PUBCHEM_XREF_EXT_ID>
SCHEMBL16125264

> <PUBCHEM_EXT_DATASOURCE_URL>
https://www.surechembl.org/

> <PUBCHEM_EXT_SUBSTANCE_URL>
https://www.surechembl.org/chemical/SCHEMBL16125264

> <PUBCHEM_CID_ASSOCIATIONS>
117612960  1

> <PUBCHEM_COORDINATE_TYPE>
1
3

> <PUBCHEM_BONDANNOTATIONS>
39  8  5

$$$$
