310944465
  -OEChem-07211613022D

 32 36  0     1  0  0  0  0  0999 V2000
    2.3712   -0.4367    0.0000 O   0  0  0  0  0  0  0  0  0  0  0  0
    5.3559   -0.2929    0.0000 O   0  0  0  0  0  0  0  0  0  0  0  0
    5.1237   -1.7521    0.0000 O   0  0  0  0  0  0  0  0  0  0  0  0
   -0.3482   -0.4145    0.0000 O   0  0  0  0  0  0  0  0  0  0  0  0
    3.4102    0.6025    0.0000 N   0  0  0  0  0  0  0  0  0  0  0  0
    0.4808    1.0226    0.0000 N   0  0  0  0  0  0  0  0  0  0  0  0
   -4.0736    0.3040    0.0000 N   0  0  0  0  0  0  0  0  0  0  0  0
   -2.0063   -0.4145    0.0000 N   0  0  0  0  0  0  0  0  0  0  0  0
   -4.5599    0.9784    0.0000 N   0  0  0  0  0  0  0  0  0  0  0  0
   -5.3559    0.7130    0.0000 N   0  0  0  0  0  0  0  0  0  0  0  0
   -5.3559   -0.1050    0.0000 N   0  0  0  0  0  0  0  0  0  0  0  0
    2.1391    1.0336    0.0000 C   0  0  0  0  0  0  0  0  0  0  0  0
    2.6365    0.3924    0.0000 C   0  0  0  0  0  0  0  0  0  0  0  0
    4.0957    0.1382    0.0000 C   0  0  0  0  0  0  0  0  0  0  0  0
    2.6254    1.6968    0.0000 C   0  0  0  0  0  0  0  0  0  0  0  0
    3.4102    1.4426    0.0000 C   0  0  0  0  0  0  0  0  0  0  0  0
    1.7189    0.3150    0.0000 C   0  0  0  0  0  0  0  0  0  0  0  0
    1.7189    1.7410    0.0000 C   0  0  0  0  0  0  0  0  0  0  0  0
    4.0846   -0.6908    0.0000 C   0  0  0  0  0  0  0  0  0  0  0  0
    4.8695    0.3813    0.0000 C   0  0  0  0  0  0  0  0  0  0  0  0
    4.8695   -0.9341    0.0000 C   0  0  0  0  0  0  0  0  0  0  0  0
    0.8899    0.3150    0.0000 C   0  0  0  0  0  0  0  0  0  0  0  0
    0.9009    1.7521    0.0000 C   0  0  0  0  0  0  0  0  0  0  0  0
   -0.3482    1.0336    0.0000 C   0  0  0  0  0  0  0  0  0  0  0  0
   -0.7684    0.3040    0.0000 C   0  0  3  0  0  0  0  0  0  0  0  0
    3.3992   -1.1994    0.0000 C   0  0  0  0  0  0  0  0  0  0  0  0
   -1.5973    0.3150    0.0000 C   0  0  0  0  0  0  0  0  0  0  0  0
   -3.2555    0.3040    0.0000 C   0  0  0  0  0  0  0  0  0  0  0  0
   -2.0063    1.0226    0.0000 C   0  0  0  0  0  0  0  0  0  0  0  0
   -2.8355   -0.4034    0.0000 C   0  0  0  0  0  0  0  0  0  0  0  0
   -2.8244    1.0336    0.0000 C   0  0  0  0  0  0  0  0  0  0  0  0
   -4.5710   -0.3592    0.0000 C   0  0  0  0  0  0  0  0  0  0  0  0
  1 13  2  0  0  0  0
  2 20  1  0  0  0  0
  2 21  1  0  0  0  0
  3 21  2  0  0  0  0
 25  4  1  1  0  0  0
  5 13  1  0  0  0  0
  5 14  1  0  0  0  0
  5 16  1  0  0  0  0
  6 22  1  0  0  0  0
  6 23  1  0  0  0  0
  6 24  1  0  0  0  0
  7  9  1  0  0  0  0
  7 28  1  0  0  0  0
  7 32  1  0  0  0  0
  8 27  2  0  0  0  0
  8 30  1  0  0  0  0
  9 10  2  0  0  0  0
 10 11  1  0  0  0  0
 11 32  2  0  0  0  0
 12 13  1  0  0  0  0
 12 15  1  0  0  0  0
 12 17  1  0  0  0  0
 12 18  1  0  0  0  0
 14 19  2  0  0  0  0
 14 20  1  0  0  0  0
 15 16  1  0  0  0  0
 17 22  1  0  0  0  0
 18 23  1  0  0  0  0
 19 21  1  0  0  0  0
 19 26  1  0  0  0  0
 24 25  1  0  0  0  0
 25 27  1  0  0  0  0
 27 29  1  0  0  0  0
 28 30  2  0  0  0  0
 28 31  1  0  0  0  0
 29 31  2  0  0  0  0
M  END
> <PUBCHEM_COMPOUND_ID_TYPE>
0

> <PUBCHEM_TOTAL_CHARGE>
0

> <PUBCHEM_SUBSTANCE_ID>
310944465

> <PUBCHEM_SUBSTANCE_VERSION>
1

> <PUBCHEM_EXT_DATASOURCE_NAME>
4488

> <PUBCHEM_EXT_DATASOURCE_REGID>
SCHEMBL16122540

> <PUBCHEM_SUBSTANCE_COMMENT>
InChI=1S/C21H25N7O4/c1-14-17(12-32-19(14)30)27-9-6-21(20(27)31)4-7-26(8-5-21)11-18(29)16-3-2-15(10-22-16)28-13-23-24-25-28/h2-3,10,13,18,29H,4-9,11-12H2,1H3/t18-/m1/s1
InChIKey=BIMHASXSNFWFID-GOSISDBHSA-N

> <PUBCHEM_SUBSTANCE_SYNONYM>
SCHEMBL16122540

> <PUBCHEM_XREF_EXT_ID>
SCHEMBL16122540

> <PUBCHEM_EXT_DATASOURCE_URL>
https://www.surechembl.org/

> <PUBCHEM_EXT_SUBSTANCE_URL>
https://www.surechembl.org/chemical/SCHEMBL16122540

> <PUBCHEM_CID_ASSOCIATIONS>
86271275  1

> <PUBCHEM_COORDINATE_TYPE>
1
3

> <PUBCHEM_BONDANNOTATIONS>
25  4  5

$$$$
