310933838
  -OEChem-07211613022D

 16 17  0     0  0  0  0  0  0999 V2000
    5.0241   -2.8428    0.0000 Br  0  0  0  0  0  0  0  0  0  0  0  0
    4.2017    0.0000    0.0000 F   0  0  0  0  0  0  0  0  0  0  0  0
    2.5210   -2.8607    0.0000 O   0  0  0  0  0  0  0  0  0  0  0  0
    2.9501   -2.1277    0.0000 C   0  0  0  0  0  0  0  0  0  0  0  0
    3.7726   -2.1277    0.0000 C   0  0  0  0  0  0  0  0  0  0  0  0
    4.1838   -1.4304    0.0000 C   0  0  0  0  0  0  0  0  0  0  0  0
    2.5210   -1.4304    0.0000 C   0  0  0  0  0  0  0  0  0  0  0  0
    3.7726   -0.7152    0.0000 C   0  0  0  0  0  0  0  0  0  0  0  0
    1.6807   -2.8607    0.0000 C   0  0  0  0  0  0  0  0  0  0  0  0
    2.9501   -0.7152    0.0000 C   0  0  0  0  0  0  0  0  0  0  0  0
    4.2017   -2.8428    0.0000 C   0  0  0  0  0  0  0  0  0  0  0  0
    1.2516   -3.5759    0.0000 C   0  0  0  0  0  0  0  0  0  0  0  0
    1.2516   -2.1455    0.0000 C   0  0  0  0  0  0  0  0  0  0  0  0
    0.4291   -3.5759    0.0000 C   0  0  0  0  0  0  0  0  0  0  0  0
    0.4291   -2.1455    0.0000 C   0  0  0  0  0  0  0  0  0  0  0  0
    0.0000   -2.8607    0.0000 C   0  0  0  0  0  0  0  0  0  0  0  0
  1 11  1  0  0  0  0
  2  8  1  0  0  0  0
  3  4  1  0  0  0  0
  3  9  1  0  0  0  0
  4  5  2  0  0  0  0
  4  7  1  0  0  0  0
  5  6  1  0  0  0  0
  5 11  1  0  0  0  0
  6  8  2  0  0  0  0
  7 10  2  0  0  0  0
  8 10  1  0  0  0  0
  9 12  2  0  0  0  0
  9 13  1  0  0  0  0
 12 14  1  0  0  0  0
 13 15  2  0  0  0  0
 14 16  2  0  0  0  0
 15 16  1  0  0  0  0
M  END
> <PUBCHEM_COMPOUND_ID_TYPE>
0

> <PUBCHEM_TOTAL_CHARGE>
0

> <PUBCHEM_SUBSTANCE_ID>
310933838

> <PUBCHEM_SUBSTANCE_VERSION>
1

> <PUBCHEM_EXT_DATASOURCE_NAME>
4488

> <PUBCHEM_EXT_DATASOURCE_REGID>
SCHEMBL16111276

> <PUBCHEM_SUBSTANCE_COMMENT>
InChI=1S/C13H10BrFO/c14-9-10-8-11(15)6-7-13(10)16-12-4-2-1-3-5-12/h1-8H,9H2
InChIKey=PXQNMMAWBPOLST-UHFFFAOYSA-N

> <PUBCHEM_SUBSTANCE_SYNONYM>
SCHEMBL16111276

> <PUBCHEM_XREF_EXT_ID>
SCHEMBL16111276

> <PUBCHEM_EXT_DATASOURCE_URL>
https://www.surechembl.org/

> <PUBCHEM_EXT_SUBSTANCE_URL>
https://www.surechembl.org/chemical/SCHEMBL16111276

> <PUBCHEM_CID_ASSOCIATIONS>
107087092  1

> <PUBCHEM_COORDINATE_TYPE>
1
3

$$$$
