310931834
  -OEChem-07211613022D

 17 18  0     0  0  0  0  0  0999 V2000
    2.4917   -1.4263    0.0000 S   0  0  0  0  0  0  0  0  0  0  0  0
    4.5022   -2.2339    0.0000 S   0  0  0  0  0  0  0  0  0  0  0  0
    0.0344    0.0000    0.0000 F   0  0  0  0  0  0  0  0  0  0  0  0
    0.0344   -2.8525    0.0000 F   0  0  0  0  0  0  0  0  0  0  0  0
    2.4917   -2.3198    0.0000 O   0  0  0  0  0  0  0  0  0  0  0  0
    2.4917   -0.6186    0.0000 O   0  0  0  0  0  0  0  0  0  0  0  0
    3.2821   -1.4263    0.0000 N   0  0  0  0  0  0  0  0  0  0  0  0
    3.3681   -2.8869    0.0000 N   0  0  0  0  0  0  0  0  0  0  0  0
    4.6912   -3.0415    0.0000 N   0  0  0  0  0  0  0  0  0  0  0  0
    1.6669   -1.4263    0.0000 C   0  0  0  0  0  0  0  0  0  0  0  0
    3.6946   -2.1308    0.0000 C   0  0  0  0  0  0  0  0  0  0  0  0
    1.2200   -2.1308    0.0000 C   0  0  0  0  0  0  0  0  0  0  0  0
    1.2200   -0.7217    0.0000 C   0  0  0  0  0  0  0  0  0  0  0  0
    0.4296   -0.7217    0.0000 C   0  0  0  0  0  0  0  0  0  0  0  0
    0.4296   -2.1308    0.0000 C   0  0  0  0  0  0  0  0  0  0  0  0
    0.0000   -1.4263    0.0000 C   0  0  0  0  0  0  0  0  0  0  0  0
    3.9695   -3.4368    0.0000 C   0  0  0  0  0  0  0  0  0  0  0  0
  1  5  2  0  0  0  0
  1  6  2  0  0  0  0
  1  7  1  0  0  0  0
  1 10  1  0  0  0  0
  2  9  1  0  0  0  0
  2 11  1  0  0  0  0
  3 14  1  0  0  0  0
  4 15  1  0  0  0  0
  7 11  1  0  0  0  0
  8 11  2  0  0  0  0
  8 17  1  0  0  0  0
  9 17  2  0  0  0  0
 10 12  2  0  0  0  0
 10 13  1  0  0  0  0
 12 15  1  0  0  0  0
 13 14  2  0  0  0  0
 14 16  1  0  0  0  0
 15 16  2  0  0  0  0
M  END
> <PUBCHEM_COMPOUND_ID_TYPE>
0

> <PUBCHEM_TOTAL_CHARGE>
0

> <PUBCHEM_SUBSTANCE_ID>
310931834

> <PUBCHEM_SUBSTANCE_VERSION>
1

> <PUBCHEM_EXT_DATASOURCE_NAME>
4488

> <PUBCHEM_EXT_DATASOURCE_REGID>
SCHEMBL16109167

> <PUBCHEM_SUBSTANCE_COMMENT>
InChI=1S/C8H5F2N3O2S2/c9-5-1-6(10)3-7(2-5)17(14,15)13-8-11-4-12-16-8/h1-4H,(H,11,12,13)
InChIKey=HMQLBDILMJFNDC-UHFFFAOYSA-N

> <PUBCHEM_SUBSTANCE_SYNONYM>
SCHEMBL16109167

> <PUBCHEM_XREF_EXT_ID>
SCHEMBL16109167

> <PUBCHEM_EXT_DATASOURCE_URL>
https://www.surechembl.org/

> <PUBCHEM_EXT_SUBSTANCE_URL>
https://www.surechembl.org/chemical/SCHEMBL16109167

> <PUBCHEM_CID_ASSOCIATIONS>
117600506  1

> <PUBCHEM_COORDINATE_TYPE>
1
3

$$$$
