310947993
  -OEChem-07211613022D

 64 73  0     1  0  0  0  0  0999 V2000
    0.3388    1.6423    0.0000 S   0  0  0  0  0  0  0  0  0  0  0  0
   -0.4861    1.6423    0.0000 S   0  0  0  0  0  0  0  0  0  0  0  0
    7.3792   -0.4934    0.0000 O   0  0  0  0  0  0  0  0  0  0  0  0
   -7.3497   -0.5376    0.0000 O   0  0  0  0  0  0  0  0  0  0  0  0
    7.6738   -2.4376    0.0000 O   0  0  0  0  0  0  0  0  0  0  0  0
   -7.6591   -2.4818    0.0000 O   0  0  0  0  0  0  0  0  0  0  0  0
    7.6738    1.6717    0.0000 O   0  0  0  0  0  0  0  0  0  0  0  0
   -7.6591    1.6423    0.0000 O   0  0  0  0  0  0  0  0  0  0  0  0
    8.3955   -1.2004    0.0000 O   0  0  0  0  0  0  0  0  0  0  0  0
   -8.3661   -1.2446    0.0000 O   0  0  0  0  0  0  0  0  0  0  0  0
    3.3729    2.4965    0.0000 O   0  0  0  0  0  0  0  0  0  0  0  0
   -3.3435    2.4671    0.0000 O   0  0  0  0  0  0  0  0  0  0  0  0
   -4.0799   -1.3035    0.0000 N   0  0  3  0  0  0  0  0  0  0  0  0
    4.0799   -1.2446    0.0000 N   0  0  3  0  0  0  0  0  0  0  0  0
    2.5039    1.2299    0.0000 N   0  0  0  0  0  0  0  0  0  0  0  0
   -2.6365    1.2299    0.0000 N   0  0  0  0  0  0  0  0  0  0  0  0
    6.2156   -0.7585    0.0000 C   0  0  3  0  0  0  0  0  0  0  0  0
   -6.2156   -0.8027    0.0000 C   0  0  3  0  0  0  0  0  0  0  0  0
    6.2303    0.0663    0.0000 C   0  0  0  0  0  0  0  0  0  0  0  0
   -6.2156    0.0074    0.0000 C   0  0  0  0  0  0  0  0  0  0  0  0
    6.9373   -1.1857    0.0000 C   0  0  3  0  0  0  0  0  0  0  0  0
   -6.9520   -1.2446    0.0000 C   0  0  3  0  0  0  0  0  0  0  0  0
    5.5233   -1.1709    0.0000 C   0  0  3  0  0  0  0  0  0  0  0  0
   -5.5086   -1.2299    0.0000 C   0  0  3  0  0  0  0  0  0  0  0  0
    6.9373    0.4639    0.0000 C   0  0  0  0  0  0  0  0  0  0  0  0
   -6.9520    0.4050    0.0000 C   0  0  0  0  0  0  0  0  0  0  0  0
    5.4939    0.4639    0.0000 C   0  0  0  0  0  0  0  0  0  0  0  0
   -5.5233    0.4345    0.0000 C   0  0  0  0  0  0  0  0  0  0  0  0
    4.7869   -0.7733    0.0000 C   0  0  3  0  0  0  0  0  0  0  0  0
   -4.8164   -0.8174    0.0000 C   0  0  3  0  0  0  0  0  0  0  0  0
    5.6559   -0.3314    0.0000 C   0  0  0  0  0  0  0  0  0  0  0  0
   -5.6412   -0.3609    0.0000 C   0  0  0  0  0  0  0  0  0  0  0  0
    6.9373   -2.0105    0.0000 C   0  0  3  0  0  0  0  0  0  0  0  0
   -6.9520   -2.0547    0.0000 C   0  0  3  0  0  0  0  0  0  0  0  0
    4.7869    0.0515    0.0000 C   0  0  0  0  0  0  0  0  0  0  0  0
   -4.8017    0.0074    0.0000 C   0  0  0  0  0  0  0  0  0  0  0  0
    5.5233    1.3035    0.0000 C   0  0  0  0  0  0  0  0  0  0  0  0
   -5.5086    1.2446    0.0000 C   0  0  0  0  0  0  0  0  0  0  0  0
    6.9520    1.3035    0.0000 C   0  0  0  0  0  0  0  0  0  0  0  0
   -6.9520    1.2446    0.0000 C   0  0  0  0  0  0  0  0  0  0  0  0
    5.5086   -1.9958    0.0000 C   0  0  0  0  0  0  0  0  0  0  0  0
   -5.5233   -2.0547    0.0000 C   0  0  0  0  0  0  0  0  0  0  0  0
    4.3450   -0.3167    0.0000 C   0  0  0  0  0  0  0  0  0  0  0  0
   -4.3303   -0.3756    0.0000 C   0  0  0  0  0  0  0  0  0  0  0  0
    6.2303   -2.4082    0.0000 C   0  0  0  0  0  0  0  0  0  0  0  0
   -6.2156   -2.4671    0.0000 C   0  0  0  0  0  0  0  0  0  0  0  0
    6.2303    1.6865    0.0000 C   0  0  0  0  0  0  0  0  0  0  0  0
   -6.2303    1.6423    0.0000 C   0  0  0  0  0  0  0  0  0  0  0  0
    4.7721    1.7012    0.0000 C   0  0  0  0  0  0  0  0  0  0  0  0
   -4.7869    1.6570    0.0000 C   0  0  0  0  0  0  0  0  0  0  0  0
   -3.2551   -1.0384    0.0000 C   0  0  0  0  0  0  0  0  0  0  0  0
    3.2551   -1.0236    0.0000 C   0  0  0  0  0  0  0  0  0  0  0  0
    8.3661   -2.0252    0.0000 C   0  0  0  0  0  0  0  0  0  0  0  0
   -8.3955   -2.0694    0.0000 C   0  0  0  0  0  0  0  0  0  0  0  0
    4.0947    1.3035    0.0000 C   0  0  0  0  0  0  0  0  0  0  0  0
   -4.0799    1.2446    0.0000 C   0  0  0  0  0  0  0  0  0  0  0  0
    3.3435    1.6865    0.0000 C   0  0  0  0  0  0  0  0  0  0  0  0
   -3.3729    1.6423    0.0000 C   0  0  0  0  0  0  0  0  0  0  0  0
    9.1172   -2.4524    0.0000 C   0  0  0  0  0  0  0  0  0  0  0  0
   -9.1172   -2.4965    0.0000 C   0  0  0  0  0  0  0  0  0  0  0  0
    1.7822    1.6570    0.0000 C   0  0  0  0  0  0  0  0  0  0  0  0
   -1.9295    1.6570    0.0000 C   0  0  0  0  0  0  0  0  0  0  0  0
    1.0605    1.2446    0.0000 C   0  0  0  0  0  0  0  0  0  0  0  0
   -1.1930    1.2446    0.0000 C   0  0  0  0  0  0  0  0  0  0  0  0
  1  2  1  0  0  0  0
  1 63  1  0  0  0  0
  2 64  1  0  0  0  0
 21  3  1  6  0  0  0
  3 25  1  0  0  0  0
 22  4  1  6  0  0  0
  4 26  1  0  0  0  0
 33  5  1  6  0  0  0
  5 53  1  0  0  0  0
 34  6  1  6  0  0  0
  6 54  1  0  0  0  0
  7 39  1  0  0  0  0
  8 40  1  0  0  0  0
  9 53  2  0  0  0  0
 10 54  2  0  0  0  0
 11 57  2  0  0  0  0
 12 58  2  0  0  0  0
 30 13  1  1  0  0  0
 13 44  1  0  0  0  0
 13 51  1  0  0  0  0
 29 14  1  1  0  0  0
 14 43  1  0  0  0  0
 14 52  1  0  0  0  0
 15 57  1  0  0  0  0
 15 61  1  0  0  0  0
 16 58  1  0  0  0  0
 16 62  1  0  0  0  0
 17 19  1  6  0  0  0
 17 21  1  0  0  0  0
 17 23  1  0  0  0  0
 17 31  1  0  0  0  0
 18 20  1  6  0  0  0
 18 22  1  0  0  0  0
 18 24  1  0  0  0  0
 18 32  1  0  0  0  0
 19 25  1  0  0  0  0
 19 27  2  0  0  0  0
 20 26  1  0  0  0  0
 20 28  2  0  0  0  0
 21 33  1  0  0  0  0
 22 34  1  0  0  0  0
 23 29  1  0  0  0  0
 23 41  1  0  0  0  0
 24 30  1  0  0  0  0
 24 42  1  0  0  0  0
 25 39  2  0  0  0  0
 26 40  2  0  0  0  0
 27 35  1  0  0  0  0
 27 37  1  0  0  0  0
 28 36  1  0  0  0  0
 28 38  1  0  0  0  0
 29 35  1  0  0  0  0
 30 36  1  0  0  0  0
 31 43  1  0  0  0  0
 32 44  1  0  0  0  0
 33 45  1  0  0  0  0
 34 46  1  0  0  0  0
 37 47  2  0  0  0  0
 37 49  1  0  0  0  0
 38 48  2  0  0  0  0
 38 50  1  0  0  0  0
 39 47  1  0  0  0  0
 40 48  1  0  0  0  0
 41 45  2  0  0  0  0
 42 46  2  0  0  0  0
 49 55  1  0  0  0  0
 50 56  1  0  0  0  0
 53 59  1  0  0  0  0
 54 60  1  0  0  0  0
 55 57  1  0  0  0  0
 56 58  1  0  0  0  0
 61 63  1  0  0  0  0
 62 64  1  0  0  0  0
M  END
> <PUBCHEM_COMPOUND_ID_TYPE>
0

> <PUBCHEM_TOTAL_CHARGE>
0

> <PUBCHEM_SUBSTANCE_ID>
310947993

> <PUBCHEM_SUBSTANCE_VERSION>
1

> <PUBCHEM_EXT_DATASOURCE_NAME>
4488

> <PUBCHEM_EXT_DATASOURCE_REGID>
SCHEMBL16126167

> <PUBCHEM_SUBSTANCE_COMMENT>
InChI=1S/C48H58N4O10S2/c1-25(53)59-37-9-7-31-33-23-29-27(21-35(55)43-41(29)47(31,45(37)61-43)13-17-51(33)3)5-11-39(57)49-15-19-63-64-20-16-50-40(58)12-6-28-22-36(56)44-42-30(28)24-34-32-8-10-38(60-26(2)54)46(62-44)48(32,42)14-18-52(34)4/h7-10,21-22,31-34,37-38,45-46,55-56H,5-6,11-20,23-24H2,1-4H3,(H,49,57)(H,50,58)/t31?,32?,33-,34+,37+,38-,45+,46-,47+,48-
InChIKey=VELYLIBCBLLCRE-STTIMNBGSA-N

> <PUBCHEM_SUBSTANCE_SYNONYM>
SCHEMBL16126167

> <PUBCHEM_XREF_EXT_ID>
SCHEMBL16126167

> <PUBCHEM_EXT_DATASOURCE_URL>
https://www.surechembl.org/

> <PUBCHEM_EXT_SUBSTANCE_URL>
https://www.surechembl.org/chemical/SCHEMBL16126167

> <PUBCHEM_CID_ASSOCIATIONS>
117613639  1

> <PUBCHEM_COORDINATE_TYPE>
1
3

> <PUBCHEM_BONDANNOTATIONS>
30  13  5
29  14  5
17  19  6
18  20  6
21  3  6
22  4  6
33  5  6
34  6  6

$$$$
