310939789
  -OEChem-07211613022D

 28 30  0     0  0  0  0  0  0999 V2000
    1.0717    3.3000    0.0000 Cl  0  0  0  0  0  0  0  0  0  0  0  0
    1.0717   -1.6500    0.0000 O   0  0  0  0  0  0  0  0  0  0  0  0
   -2.5006   -3.7125    0.0000 O   0  0  0  0  0  0  0  0  0  0  0  0
   -0.3572   -1.6500    0.0000 N   0  0  0  0  0  0  0  0  0  0  0  0
    1.0717    0.0000    0.0000 N   0  0  0  0  0  0  0  0  0  0  0  0
   -1.7862   -2.4750    0.0000 N   0  0  0  0  0  0  0  0  0  0  0  0
    1.7862    2.0625    0.0000 C   0  0  0  0  0  0  0  0  0  0  0  0
    1.0717    0.8250    0.0000 C   0  0  0  0  0  0  0  0  0  0  0  0
    1.0717    2.4750    0.0000 C   0  0  0  0  0  0  0  0  0  0  0  0
    0.3572    1.2375    0.0000 C   0  0  0  0  0  0  0  0  0  0  0  0
    1.7862    1.2375    0.0000 C   0  0  0  0  0  0  0  0  0  0  0  0
    2.5006    2.4750    0.0000 C   0  0  0  0  0  0  0  0  0  0  0  0
    0.3572    2.0625    0.0000 C   0  0  0  0  0  0  0  0  0  0  0  0
    0.3572   -1.2375    0.0000 C   0  0  0  0  0  0  0  0  0  0  0  0
    0.3572   -0.4125    0.0000 C   0  0  0  0  0  0  0  0  0  0  0  0
   -1.0717   -1.2375    0.0000 C   0  0  0  0  0  0  0  0  0  0  0  0
   -0.3572   -2.4750    0.0000 C   0  0  0  0  0  0  0  0  0  0  0  0
    3.2151    2.0625    0.0000 C   0  0  0  0  0  0  0  0  0  0  0  0
    2.5006    3.3000    0.0000 C   0  0  0  0  0  0  0  0  0  0  0  0
   -1.7862   -1.6500    0.0000 C   0  0  0  0  0  0  0  0  0  0  0  0
   -1.0717   -2.8875    0.0000 C   0  0  0  0  0  0  0  0  0  0  0  0
   -2.5006   -2.8875    0.0000 C   0  0  0  0  0  0  0  0  0  0  0  0
   -0.3572    0.8250    0.0000 C   0  0  0  0  0  0  0  0  0  0  0  0
    3.9296    2.4750    0.0000 C   0  0  0  0  0  0  0  0  0  0  0  0
    3.2151    3.7125    0.0000 C   0  0  0  0  0  0  0  0  0  0  0  0
    3.9296    3.3000    0.0000 C   0  0  0  0  0  0  0  0  0  0  0  0
   -3.2151   -2.4750    0.0000 C   0  0  0  0  0  0  0  0  0  0  0  0
   -3.9296   -2.8875    0.0000 C   0  0  0  0  0  0  0  0  0  0  0  0
  1  9  1  0  0  0  0
  2 14  2  0  0  0  0
  3 22  2  0  0  0  0
  4 14  1  0  0  0  0
  4 16  1  0  0  0  0
  4 17  1  0  0  0  0
  5  8  1  0  0  0  0
  5 15  1  0  0  0  0
  6 20  1  0  0  0  0
  6 21  1  0  0  0  0
  6 22  1  0  0  0  0
  7  9  2  0  0  0  0
  7 11  1  0  0  0  0
  7 12  1  0  0  0  0
  8 10  1  0  0  0  0
  8 11  2  0  0  0  0
  9 13  1  0  0  0  0
 10 13  2  0  0  0  0
 10 23  1  0  0  0  0
 12 18  2  0  0  0  0
 12 19  1  0  0  0  0
 14 15  1  0  0  0  0
 16 20  1  0  0  0  0
 17 21  1  0  0  0  0
 18 24  1  0  0  0  0
 19 25  2  0  0  0  0
 22 27  1  0  0  0  0
 24 26  2  0  0  0  0
 25 26  1  0  0  0  0
 27 28  2  0  0  0  0
M  END
> <PUBCHEM_COMPOUND_ID_TYPE>
0

> <PUBCHEM_TOTAL_CHARGE>
0

> <PUBCHEM_SUBSTANCE_ID>
310939789

> <PUBCHEM_SUBSTANCE_VERSION>
1

> <PUBCHEM_EXT_DATASOURCE_NAME>
4488

> <PUBCHEM_EXT_DATASOURCE_REGID>
SCHEMBL16117719

> <PUBCHEM_SUBSTANCE_COMMENT>
InChI=1S/C22H24ClN3O2/c1-3-21(27)25-9-11-26(12-10-25)22(28)15-24-20-14-18(19(23)13-16(20)2)17-7-5-4-6-8-17/h3-8,13-14,24H,1,9-12,15H2,2H3
InChIKey=KTFJCCXYDXKZER-UHFFFAOYSA-N

> <PUBCHEM_SUBSTANCE_SYNONYM>
SCHEMBL16117719

> <PUBCHEM_XREF_EXT_ID>
SCHEMBL16117719

> <PUBCHEM_EXT_DATASOURCE_URL>
https://www.surechembl.org/

> <PUBCHEM_EXT_SUBSTANCE_URL>
https://www.surechembl.org/chemical/SCHEMBL16117719

> <PUBCHEM_CID_ASSOCIATIONS>
117607007  1

> <PUBCHEM_COORDINATE_TYPE>
1
3

$$$$
