310940959
  -OEChem-07211613022D

 39 42  0     1  0  0  0  0  0999 V2000
    4.7733    0.9838    0.0000 O   0  0  0  0  0  0  0  0  0  0  0  0
    3.6371   -0.9976    0.0000 O   0  0  0  0  0  0  0  0  0  0  0  0
    1.2678    0.9699    0.0000 O   0  0  0  0  0  0  0  0  0  0  0  0
   -0.8798   -1.1223    0.0000 O   0  0  0  0  0  0  0  0  0  0  0  0
   -5.0780   -0.5680    0.0000 O   0  0  0  0  0  0  0  0  0  0  0  0
   -3.0413    0.9699    0.0000 O   0  0  0  0  0  0  0  0  0  0  0  0
    3.4293   -2.7849    0.0000 O   0  0  0  0  0  0  0  0  0  0  0  0
    1.9883   -0.2771    0.0000 N   0  0  0  0  0  0  0  0  0  0  0  0
   -0.1594    0.1386    0.0000 N   0  0  0  0  0  0  0  0  0  0  0  0
   -2.3208   -0.2771    0.0000 N   0  0  0  0  0  0  0  0  0  0  0  0
    4.3576    0.3048    0.0000 C   0  0  3  0  0  0  0  0  0  0  0  0
    3.6371   -0.1108    0.0000 C   0  0  0  0  0  0  0  0  0  0  0  0
    3.9696    0.9976    0.0000 C   0  0  0  0  0  0  0  0  0  0  0  0
    2.9304    0.2910    0.0000 C   0  0  3  0  0  0  0  0  0  0  0  0
    5.0780   -0.1108    0.0000 C   0  0  0  0  0  0  0  0  0  0  0  0
    2.9304    1.3717    0.0000 C   0  0  0  0  0  0  0  0  0  0  0  0
    1.2678    0.1524    0.0000 C   0  0  0  0  0  0  0  0  0  0  0  0
    0.5750   -0.2355    0.0000 C   0  0  3  0  0  0  0  0  0  0  0  0
    2.1961    1.8012    0.0000 C   0  0  0  0  0  0  0  0  0  0  0  0
    0.5473   -1.1084    0.0000 C   0  0  0  0  0  0  0  0  0  0  0  0
   -0.8660   -0.2217    0.0000 C   0  0  0  0  0  0  0  0  0  0  0  0
    1.2816   -1.4964    0.0000 C   0  0  0  0  0  0  0  0  0  0  0  0
    1.4479    1.4549    0.0000 C   0  0  0  0  0  0  0  0  0  0  0  0
    2.1130    2.6187    0.0000 C   0  0  0  0  0  0  0  0  0  0  0  0
   -1.6141    0.1662    0.0000 C   0  0  3  0  0  0  0  0  0  0  0  0
   -2.9720    0.1524    0.0000 C   0  0  0  0  0  0  0  0  0  0  0  0
   -3.7480   -0.2494    0.0000 C   0  0  3  0  0  0  0  0  0  0  0  0
    0.9075    2.0783    0.0000 C   0  0  0  0  0  0  0  0  0  0  0  0
    1.3232    2.7849    0.0000 C   0  0  0  0  0  0  0  0  0  0  0  0
    1.2955   -2.3416    0.0000 C   0  0  0  0  0  0  0  0  0  0  0  0
    2.0021   -1.0946    0.0000 C   0  0  0  0  0  0  0  0  0  0  0  0
    2.7088   -2.3277    0.0000 C   0  0  0  0  0  0  0  0  0  0  0  0
    2.0021   -2.7434    0.0000 C   0  0  0  0  0  0  0  0  0  0  0  0
    2.7226   -1.5103    0.0000 C   0  0  0  0  0  0  0  0  0  0  0  0
   -4.5100    0.0832    0.0000 C   0  0  0  0  0  0  0  0  0  0  0  0
   -3.8449   -1.0807    0.0000 C   0  0  0  0  0  0  0  0  0  0  0  0
   -1.6003    0.9838    0.0000 C   0  0  0  0  0  0  0  0  0  0  0  0
   -4.6486   -1.2470    0.0000 C   0  0  0  0  0  0  0  0  0  0  0  0
    4.1775   -2.3277    0.0000 C   0  0  0  0  0  0  0  0  0  0  0  0
  1 11  1  0  0  0  0
  1 13  1  0  0  0  0
  2 12  2  0  0  0  0
  3 17  2  0  0  0  0
  4 21  2  0  0  0  0
  5 35  1  0  0  0  0
  5 38  1  0  0  0  0
  6 26  2  0  0  0  0
  7 32  1  0  0  0  0
  7 39  1  0  0  0  0
 14  8  1  1  0  0  0
  8 17  1  0  0  0  0
 18  9  1  6  0  0  0
  9 21  1  0  0  0  0
 10 25  1  0  0  0  0
 10 26  1  0  0  0  0
 11 12  1  1  0  0  0
 11 13  1  0  0  0  0
 11 15  1  6  0  0  0
 12 14  1  0  0  0  0
 14 16  1  0  0  0  0
 16 19  1  0  0  0  0
 17 18  1  0  0  0  0
 18 20  1  0  0  0  0
 19 23  1  0  0  0  0
 19 24  1  0  0  0  0
 20 22  1  0  0  0  0
 21 25  1  0  0  0  0
 22 30  2  0  0  0  0
 22 31  1  0  0  0  0
 23 28  1  0  0  0  0
 24 29  1  0  0  0  0
 25 37  1  6  0  0  0
 27 26  1  6  0  0  0
 27 35  1  0  0  0  0
 27 36  1  0  0  0  0
 28 29  1  0  0  0  0
 30 33  1  0  0  0  0
 31 34  2  0  0  0  0
 32 33  2  0  0  0  0
 32 34  1  0  0  0  0
 36 38  1  0  0  0  0
M  END
> <PUBCHEM_COMPOUND_ID_TYPE>
0

> <PUBCHEM_TOTAL_CHARGE>
0

> <PUBCHEM_SUBSTANCE_ID>
310940959

> <PUBCHEM_SUBSTANCE_VERSION>
1

> <PUBCHEM_EXT_DATASOURCE_NAME>
4488

> <PUBCHEM_EXT_DATASOURCE_REGID>
SCHEMBL16118918

> <PUBCHEM_SUBSTANCE_COMMENT>
InChI=1S/C29H41N3O7/c1-18(30-27(35)21-12-13-38-16-21)26(34)32-24(15-20-8-10-22(37-3)11-9-20)28(36)31-23(14-19-6-4-5-7-19)25(33)29(2)17-39-29/h8-11,18-19,21,23-24H,4-7,12-17H2,1-3H3,(H,30,35)(H,31,36)(H,32,34)/t18-,21-,23+,24+,29-/m1/s1
InChIKey=SYIPULVZSBBBDV-QWOQVESASA-N

> <PUBCHEM_SUBSTANCE_SYNONYM>
SCHEMBL16118918

> <PUBCHEM_XREF_EXT_ID>
SCHEMBL16118918

> <PUBCHEM_EXT_DATASOURCE_URL>
https://www.surechembl.org/

> <PUBCHEM_EXT_SUBSTANCE_URL>
https://www.surechembl.org/chemical/SCHEMBL16118918

> <PUBCHEM_CID_ASSOCIATIONS>
117607867  1

> <PUBCHEM_COORDINATE_TYPE>
1
3

> <PUBCHEM_BONDANNOTATIONS>
11  12  5
11  15  6
25  37  6
27  26  6
14  8  5
18  9  6

$$$$
