310947501
  -OEChem-07211613022D

 26 27  0     0  0  0  0  0  0999 V2000
   -3.2704    1.5917    0.0000 O   0  0  0  0  0  0  0  0  0  0  0  0
    3.2704    4.0667    0.0000 O   0  0  0  0  0  0  0  0  0  0  0  0
   -3.9849    2.8292    0.0000 O   0  0  0  0  0  0  0  0  0  0  0  0
    3.9848    2.8292    0.0000 O   0  0  0  0  0  0  0  0  0  0  0  0
   -0.3020    2.8292    0.0000 C   0  0  0  0  0  0  0  0  0  0  0  0
    0.4125    3.2417    0.0000 C   0  0  0  0  0  0  0  0  0  0  0  0
   -1.7309    2.0042    0.0000 C   0  0  0  0  0  0  0  0  0  0  0  0
    1.8414    4.0667    0.0000 C   0  0  0  0  0  0  0  0  0  0  0  0
   -1.0165    3.2417    0.0000 C   0  0  0  0  0  0  0  0  0  0  0  0
    1.1270    2.8292    0.0000 C   0  0  0  0  0  0  0  0  0  0  0  0
   -0.3020    2.0042    0.0000 C   0  0  0  0  0  0  0  0  0  0  0  0
    0.4125    4.0667    0.0000 C   0  0  0  0  0  0  0  0  0  0  0  0
   -1.7309    2.8292    0.0000 C   0  0  0  0  0  0  0  0  0  0  0  0
    1.8414    3.2417    0.0000 C   0  0  0  0  0  0  0  0  0  0  0  0
   -1.0165    1.5917    0.0000 C   0  0  0  0  0  0  0  0  0  0  0  0
    1.1270    4.4792    0.0000 C   0  0  0  0  0  0  0  0  0  0  0  0
    2.5559    4.4792    0.0000 C   0  0  0  0  0  0  0  0  0  0  0  0
   -2.4454    1.5917    0.0000 C   0  0  0  0  0  0  0  0  0  0  0  0
   -3.9849    2.0042    0.0000 C   0  0  0  0  0  0  0  0  0  0  0  0
    3.9848    3.6542    0.0000 C   0  0  0  0  0  0  0  0  0  0  0  0
   -4.6993    1.5917    0.0000 C   0  0  0  0  0  0  0  0  0  0  0  0
    4.6993    4.0667    0.0000 C   0  0  0  0  0  0  0  0  0  0  0  0
   -5.4138    2.0042    0.0000 C   0  0  0  0  0  0  0  0  0  0  0  0
    5.4138    3.6542    0.0000 C   0  0  0  0  0  0  0  0  0  0  0  0
   -4.6993    0.7667    0.0000 C   0  0  0  0  0  0  0  0  0  0  0  0
    4.6993    4.8917    0.0000 C   0  0  0  0  0  0  0  0  0  0  0  0
  1 18  1  0  0  0  0
  1 19  1  0  0  0  0
  2 17  1  0  0  0  0
  2 20  1  0  0  0  0
  3 19  2  0  0  0  0
  4 20  2  0  0  0  0
  5  6  1  0  0  0  0
  5  9  2  0  0  0  0
  5 11  1  0  0  0  0
  6 10  2  0  0  0  0
  6 12  1  0  0  0  0
  7 13  2  0  0  0  0
  7 15  1  0  0  0  0
  7 18  1  0  0  0  0
  8 14  2  0  0  0  0
  8 16  1  0  0  0  0
  8 17  1  0  0  0  0
  9 13  1  0  0  0  0
 10 14  1  0  0  0  0
 11 15  2  0  0  0  0
 12 16  2  0  0  0  0
 19 21  1  0  0  0  0
 20 22  1  0  0  0  0
 21 23  2  0  0  0  0
 21 25  1  0  0  0  0
 22 24  2  0  0  0  0
 22 26  1  0  0  0  0
M  END
> <PUBCHEM_COMPOUND_ID_TYPE>
0

> <PUBCHEM_TOTAL_CHARGE>
0

> <PUBCHEM_SUBSTANCE_ID>
310947501

> <PUBCHEM_SUBSTANCE_VERSION>
1

> <PUBCHEM_EXT_DATASOURCE_NAME>
4488

> <PUBCHEM_EXT_DATASOURCE_REGID>
SCHEMBL16125663

> <PUBCHEM_SUBSTANCE_COMMENT>
InChI=1S/C22H22O4/c1-15(2)21(23)25-13-17-5-9-19(10-6-17)20-11-7-18(8-12-20)14-26-22(24)16(3)4/h5-12H,1,3,13-14H2,2,4H3
InChIKey=FBWZIDIRYBKUBQ-UHFFFAOYSA-N

> <PUBCHEM_SUBSTANCE_SYNONYM>
SCHEMBL16125663

> <PUBCHEM_XREF_EXT_ID>
SCHEMBL16125663

> <PUBCHEM_EXT_DATASOURCE_URL>
https://www.surechembl.org/

> <PUBCHEM_EXT_SUBSTANCE_URL>
https://www.surechembl.org/chemical/SCHEMBL16125663

> <PUBCHEM_CID_ASSOCIATIONS>
15621056  1

> <PUBCHEM_COORDINATE_TYPE>
1
3

$$$$
