310949038
  -OEChem-07211613022D

 69 81  0     0  0  0  0  0  0999 V2000
    3.2248   -3.4068    0.0000 N   0  0  0  0  0  0  0  0  0  0  0  0
   -2.5576    0.0505    0.0000 N   0  0  0  0  0  0  0  0  0  0  0  0
   -5.0444    0.0303    0.0000 N   0  0  0  0  0  0  0  0  0  0  0  0
   -0.6571    1.1626    0.0000 N   0  0  0  0  0  0  0  0  0  0  0  0
   -3.8313   -1.6882    0.0000 N   0  0  0  0  0  0  0  0  0  0  0  0
    1.7691   -2.5576    0.0000 C   0  0  0  0  0  0  0  0  0  0  0  0
    1.0008   -2.8609    0.0000 C   0  0  0  0  0  0  0  0  0  0  0  0
    1.7084   -1.7084    0.0000 C   0  0  0  0  0  0  0  0  0  0  0  0
    2.5172   -2.1128    0.0000 C   0  0  0  0  0  0  0  0  0  0  0  0
    1.7691   -3.3865    0.0000 C   0  0  0  0  0  0  0  0  0  0  0  0
    0.4752   -2.2543    0.0000 C   0  0  0  0  0  0  0  0  0  0  0  0
    0.8794   -1.5265    0.0000 C   0  0  0  0  0  0  0  0  0  0  0  0
    3.2248   -2.5576    0.0000 C   0  0  0  0  0  0  0  0  0  0  0  0
    2.5172   -3.7909    0.0000 C   0  0  0  0  0  0  0  0  0  0  0  0
   -0.3336   -2.4160    0.0000 C   0  0  0  0  0  0  0  0  0  0  0  0
    0.7582   -3.6695    0.0000 C   0  0  0  0  0  0  0  0  0  0  0  0
    2.2341   -1.0816    0.0000 C   0  0  0  0  0  0  0  0  0  0  0  0
   -0.8794   -1.7893    0.0000 C   0  0  0  0  0  0  0  0  0  0  0  0
    2.5172   -1.3041    0.0000 C   0  0  0  0  0  0  0  0  0  0  0  0
    1.1019   -3.7707    0.0000 C   0  0  0  0  0  0  0  0  0  0  0  0
    0.6571   -0.7582    0.0000 C   0  0  0  0  0  0  0  0  0  0  0  0
   -0.5964   -3.2046    0.0000 C   0  0  0  0  0  0  0  0  0  0  0  0
    3.9324   -3.8111    0.0000 C   0  0  0  0  0  0  0  0  0  0  0  0
    3.9122   -2.1330    0.0000 C   0  0  0  0  0  0  0  0  0  0  0  0
    2.4767   -4.6198    0.0000 C   0  0  0  0  0  0  0  0  0  0  0  0
   -0.0303   -3.8313    0.0000 C   0  0  0  0  0  0  0  0  0  0  0  0
   -1.6882   -1.9308    0.0000 C   0  0  0  0  0  0  0  0  0  0  0  0
   -0.6369   -0.9806    0.0000 C   0  0  0  0  0  0  0  0  0  0  0  0
   -1.9712   -0.5357    0.0000 C   0  0  0  0  0  0  0  0  0  0  0  0
    1.9915   -0.3134    0.0000 C   0  0  0  0  0  0  0  0  0  0  0  0
   -2.2341   -1.3041    0.0000 C   0  0  0  0  0  0  0  0  0  0  0  0
   -1.1423   -0.3740    0.0000 C   0  0  0  0  0  0  0  0  0  0  0  0
    1.1828   -0.1719    0.0000 C   0  0  0  0  0  0  0  0  0  0  0  0
    3.2450   -0.8997    0.0000 C   0  0  0  0  0  0  0  0  0  0  0  0
    1.0816   -4.6198    0.0000 C   0  0  0  0  0  0  0  0  0  0  0  0
    3.9122   -1.3041    0.0000 C   0  0  0  0  0  0  0  0  0  0  0  0
    1.7893   -5.0241    0.0000 C   0  0  0  0  0  0  0  0  0  0  0  0
   -2.4362    0.9401    0.0000 C   0  0  0  0  0  0  0  0  0  0  0  0
   -3.4068   -0.0303    0.0000 C   0  0  0  0  0  0  0  0  0  0  0  0
   -3.1641    1.3041    0.0000 C   0  0  0  0  0  0  0  0  0  0  0  0
   -3.7707    0.6975    0.0000 C   0  0  0  0  0  0  0  0  0  0  0  0
    3.9526   -4.6602    0.0000 C   0  0  0  0  0  0  0  0  0  0  0  0
    4.6602   -3.4270    0.0000 C   0  0  0  0  0  0  0  0  0  0  0  0
   -1.9915   -2.7597    0.0000 C   0  0  0  0  0  0  0  0  0  0  0  0
    0.2123   -0.8391    0.0000 C   0  0  0  0  0  0  0  0  0  0  0  0
   -0.8997    0.4145    0.0000 C   0  0  0  0  0  0  0  0  0  0  0  0
   -3.0631   -1.5063    0.0000 C   0  0  0  0  0  0  0  0  0  0  0  0
   -1.7286    1.3647    0.0000 C   0  0  0  0  0  0  0  0  0  0  0  0
   -3.2046    2.1128    0.0000 C   0  0  0  0  0  0  0  0  0  0  0  0
   -3.8313   -0.6975    0.0000 C   0  0  0  0  0  0  0  0  0  0  0  0
    4.6804   -5.0646    0.0000 C   0  0  0  0  0  0  0  0  0  0  0  0
    5.3881   -3.8515    0.0000 C   0  0  0  0  0  0  0  0  0  0  0  0
   -4.5592    0.7582    0.0000 C   0  0  0  0  0  0  0  0  0  0  0  0
   -2.4969    2.6182    0.0000 C   0  0  0  0  0  0  0  0  0  0  0  0
   -1.7286    2.1734    0.0000 C   0  0  0  0  0  0  0  0  0  0  0  0
    5.3476   -4.6602    0.0000 C   0  0  0  0  0  0  0  0  0  0  0  0
   -4.6602   -0.6773    0.0000 C   0  0  0  0  0  0  0  0  0  0  0  0
   -2.5576    3.4270    0.0000 C   0  0  0  0  0  0  0  0  0  0  0  0
   -3.3056    3.7909    0.0000 C   0  0  0  0  0  0  0  0  0  0  0  0
   -1.8500    3.9122    0.0000 C   0  0  0  0  0  0  0  0  0  0  0  0
   -4.0133    3.3461    0.0000 C   0  0  0  0  0  0  0  0  0  0  0  0
   -3.3258    4.6198    0.0000 C   0  0  0  0  0  0  0  0  0  0  0  0
   -1.9106    4.6804    0.0000 C   0  0  0  0  0  0  0  0  0  0  0  0
   -2.6384    5.0646    0.0000 C   0  0  0  0  0  0  0  0  0  0  0  0
   -4.7007    3.6898    0.0000 C   0  0  0  0  0  0  0  0  0  0  0  0
   -3.9324    2.5374    0.0000 C   0  0  0  0  0  0  0  0  0  0  0  0
   -5.3881    3.2450    0.0000 C   0  0  0  0  0  0  0  0  0  0  0  0
   -4.6602    2.0723    0.0000 C   0  0  0  0  0  0  0  0  0  0  0  0
   -5.3678    2.4362    0.0000 C   0  0  0  0  0  0  0  0  0  0  0  0
  1 13  1  0  0  0  0
  1 14  1  0  0  0  0
  1 23  1  0  0  0  0
  2 29  1  0  0  0  0
  2 38  1  0  0  0  0
  2 39  1  0  0  0  0
  3 53  2  0  0  0  0
  3 57  1  0  0  0  0
  4 46  3  0  0  0  0
  5 47  3  0  0  0  0
  6  7  1  0  0  0  0
  6  8  1  0  0  0  0
  6  9  1  0  0  0  0
  6 10  1  0  0  0  0
  7 11  2  0  0  0  0
  7 16  1  0  0  0  0
  8 12  2  0  0  0  0
  8 17  1  0  0  0  0
  9 13  2  0  0  0  0
  9 19  1  0  0  0  0
 10 14  2  0  0  0  0
 10 20  1  0  0  0  0
 11 12  1  0  0  0  0
 11 15  1  0  0  0  0
 12 21  1  0  0  0  0
 13 24  1  0  0  0  0
 14 25  1  0  0  0  0
 15 18  1  0  0  0  0
 15 22  2  0  0  0  0
 16 26  2  0  0  0  0
 17 30  2  0  0  0  0
 18 27  2  0  0  0  0
 18 28  1  0  0  0  0
 19 34  2  0  0  0  0
 20 35  2  0  0  0  0
 21 33  2  0  0  0  0
 22 26  1  0  0  0  0
 23 42  2  0  0  0  0
 23 43  1  0  0  0  0
 24 36  2  0  0  0  0
 25 37  2  0  0  0  0
 27 31  1  0  0  0  0
 27 44  1  0  0  0  0
 28 32  2  0  0  0  0
 28 45  1  0  0  0  0
 29 31  2  0  0  0  0
 29 32  1  0  0  0  0
 30 33  1  0  0  0  0
 31 47  1  0  0  0  0
 32 46  1  0  0  0  0
 34 36  1  0  0  0  0
 35 37  1  0  0  0  0
 38 40  2  0  0  0  0
 38 48  1  0  0  0  0
 39 41  2  0  0  0  0
 39 50  1  0  0  0  0
 40 41  1  0  0  0  0
 40 49  1  0  0  0  0
 41 53  1  0  0  0  0
 42 51  1  0  0  0  0
 43 52  2  0  0  0  0
 48 55  2  0  0  0  0
 49 54  2  0  0  0  0
 50 57  2  0  0  0  0
 51 56  2  0  0  0  0
 52 56  1  0  0  0  0
 54 55  1  0  0  0  0
 54 58  1  0  0  0  0
 58 59  1  0  0  0  0
 58 60  2  0  0  0  0
 59 61  1  0  0  0  0
 59 62  2  0  0  0  0
 60 63  1  0  0  0  0
 61 65  2  0  0  0  0
 61 66  1  0  0  0  0
 62 64  1  0  0  0  0
 63 64  2  0  0  0  0
 65 67  1  0  0  0  0
 66 68  2  0  0  0  0
 67 69  2  0  0  0  0
 68 69  1  0  0  0  0
M  END
> <PUBCHEM_COMPOUND_ID_TYPE>
0

> <PUBCHEM_TOTAL_CHARGE>
0

> <PUBCHEM_SUBSTANCE_ID>
310949038

> <PUBCHEM_SUBSTANCE_VERSION>
1

> <PUBCHEM_EXT_DATASOURCE_NAME>
4488

> <PUBCHEM_EXT_DATASOURCE_REGID>
SCHEMBL16127228

> <PUBCHEM_SUBSTANCE_COMMENT>
InChI=1S/C64H41N5/c1-40-50(37-65)63(69-57-33-32-43(36-49(57)52-39-67-35-34-58(52)69)46-23-10-9-22-45(46)42-18-5-3-6-19-42)51(38-66)41(2)61(40)48-25-17-29-56-62(48)47-24-11-12-26-53(47)64(56)54-27-13-15-30-59(54)68(44-20-7-4-8-21-44)60-31-16-14-28-55(60)64/h3-36,39H,1-2H3
InChIKey=JCGOPXSLRYWTBP-UHFFFAOYSA-N

> <PUBCHEM_SUBSTANCE_SYNONYM>
SCHEMBL16127228

> <PUBCHEM_XREF_EXT_ID>
SCHEMBL16127228

> <PUBCHEM_EXT_DATASOURCE_URL>
https://www.surechembl.org/

> <PUBCHEM_EXT_SUBSTANCE_URL>
https://www.surechembl.org/chemical/SCHEMBL16127228

> <PUBCHEM_CID_ASSOCIATIONS>
117614543  1

> <PUBCHEM_COORDINATE_TYPE>
1
3

$$$$
