310947982
  -OEChem-07211613022D

 29 30  0     1  0  0  0  0  0999 V2000
   -1.6889   -0.5596    0.0000 I   0  0  0  0  0  0  0  0  0  0  0  0
   -0.2486    1.9455    0.0000 I   0  0  0  0  0  0  0  0  0  0  0  0
   -1.7015    1.1064    0.0000 O   0  0  0  0  0  0  0  0  0  0  0  0
    4.0849   -1.1251    0.0000 O   0  0  0  0  0  0  0  0  0  0  0  0
   -4.5949   -0.5596    0.0000 O   0  0  0  0  0  0  0  0  0  0  0  0
    3.5860   -1.9455    0.0000 O   0  0  0  0  0  0  0  0  0  0  0  0
    3.3587   -0.1462    0.0000 O   0  0  0  0  0  0  0  0  0  0  0  0
    2.0561    0.6930    0.0000 N   0  0  0  0  0  0  0  0  0  0  0  0
   -0.9625    0.7055    0.0000 C   0  0  0  0  0  0  0  0  0  0  0  0
   -0.9625   -0.1337    0.0000 C   0  0  0  0  0  0  0  0  0  0  0  0
   -0.2486    1.1189    0.0000 C   0  0  0  0  0  0  0  0  0  0  0  0
    0.4654   -0.1337    0.0000 C   0  0  0  0  0  0  0  0  0  0  0  0
   -0.2486   -0.5470    0.0000 C   0  0  0  0  0  0  0  0  0  0  0  0
    0.4779    0.6930    0.0000 C   0  0  0  0  0  0  0  0  0  0  0  0
   -2.4154    0.7055    0.0000 C   0  0  0  0  0  0  0  0  0  0  0  0
    1.2169   -0.5470    0.0000 C   0  0  0  0  0  0  0  0  0  0  0  0
    1.9183   -0.1337    0.0000 C   0  0  3  0  0  0  0  0  0  0  0  0
   -3.1294    1.1064    0.0000 C   0  0  0  0  0  0  0  0  0  0  0  0
   -2.4154   -0.1337    0.0000 C   0  0  0  0  0  0  0  0  0  0  0  0
   -3.8559   -0.1337    0.0000 C   0  0  0  0  0  0  0  0  0  0  0  0
    3.5860   -1.4134    0.0000 C   0  0  0  0  0  0  0  0  0  0  0  0
   -3.8434    0.6930    0.0000 C   0  0  0  0  0  0  0  0  0  0  0  0
   -3.1419   -0.5470    0.0000 C   0  0  0  0  0  0  0  0  0  0  0  0
    4.0960   -0.5708    0.0000 C   0  0  0  0  0  0  0  0  0  0  0  0
    2.6698   -0.5470    0.0000 C   0  0  0  0  0  0  0  0  0  0  0  0
    4.5949   -0.5486    0.0000 C   0  0  0  0  0  0  0  0  0  0  0  0
    3.5860   -0.5708    0.0000 C   0  0  0  0  0  0  0  0  0  0  0  0
    4.0849   -0.0276    0.0000 C   0  0  0  0  0  0  0  0  0  0  0  0
   -4.5949   -1.3862    0.0000 C   0  0  0  0  0  0  0  0  0  0  0  0
  1 10  1  0  0  0  0
  2 11  1  0  0  0  0
  3  9  1  0  0  0  0
  3 15  1  0  0  0  0
  4 21  1  0  0  0  0
  4 24  1  0  0  0  0
  5 20  1  0  0  0  0
  5 29  1  0  0  0  0
  6 21  2  0  0  0  0
  7 25  1  0  0  0  0
 17  8  1  1  0  0  0
  8 21  1  0  0  0  0
  9 10  2  0  0  0  0
  9 11  1  0  0  0  0
 10 13  1  0  0  0  0
 11 14  2  0  0  0  0
 12 13  2  0  0  0  0
 12 14  1  0  0  0  0
 12 16  1  0  0  0  0
 15 18  2  0  0  0  0
 15 19  1  0  0  0  0
 16 17  1  0  0  0  0
 17 25  1  0  0  0  0
 18 22  1  0  0  0  0
 19 23  2  0  0  0  0
 20 22  2  0  0  0  0
 20 23  1  0  0  0  0
 24 26  1  0  0  0  0
 24 27  1  0  0  0  0
 24 28  1  0  0  0  0
M  END
> <PUBCHEM_COMPOUND_ID_TYPE>
0

> <PUBCHEM_TOTAL_CHARGE>
0

> <PUBCHEM_SUBSTANCE_ID>
310947982

> <PUBCHEM_SUBSTANCE_VERSION>
1

> <PUBCHEM_EXT_DATASOURCE_NAME>
4488

> <PUBCHEM_EXT_DATASOURCE_REGID>
SCHEMBL16126156

> <PUBCHEM_SUBSTANCE_COMMENT>
InChI=1S/C21H25I2NO5/c1-21(2,3)29-20(26)24-14(12-25)9-13-10-17(22)19(18(23)11-13)28-16-7-5-15(27-4)6-8-16/h5-8,10-11,14,25H,9,12H2,1-4H3,(H,24,26)/t14-/m1/s1
InChIKey=LMGBQVYTXUCVMO-CQSZACIVSA-N

> <PUBCHEM_SUBSTANCE_SYNONYM>
SCHEMBL16126156

> <PUBCHEM_XREF_EXT_ID>
SCHEMBL16126156

> <PUBCHEM_EXT_DATASOURCE_URL>
https://www.surechembl.org/

> <PUBCHEM_EXT_SUBSTANCE_URL>
https://www.surechembl.org/chemical/SCHEMBL16126156

> <PUBCHEM_CID_ASSOCIATIONS>
117613628  1

> <PUBCHEM_COORDINATE_TYPE>
1
3

> <PUBCHEM_BONDANNOTATIONS>
17  8  5

$$$$
