310930217
  -OEChem-07211613022D

 16 18  0     0  0  0  0  0  0999 V2000
    0.0000   -2.1092    0.0000 N   0  0  0  0  0  0  0  0  0  0  0  0
    2.0670    0.0000    0.0000 N   0  0  0  0  0  0  0  0  0  0  0  0
    2.4677   -2.1092    0.0000 C   0  0  0  0  0  0  0  0  0  0  0  0
    2.0248   -2.8263    0.0000 C   0  0  0  0  0  0  0  0  0  0  0  0
    2.0248   -1.4132    0.0000 C   0  0  0  0  0  0  0  0  0  0  0  0
    1.2655   -2.8263    0.0000 C   0  0  0  0  0  0  0  0  0  0  0  0
    0.8226   -2.1092    0.0000 C   0  0  0  0  0  0  0  0  0  0  0  0
    1.2655   -1.4132    0.0000 C   0  0  0  0  0  0  0  0  0  0  0  0
    2.4677   -0.7171    0.0000 C   0  0  0  0  0  0  0  0  0  0  0  0
    3.2904   -2.1092    0.0000 C   0  0  0  0  0  0  0  0  0  0  0  0
    2.4677   -3.5224    0.0000 C   0  0  0  0  0  0  0  0  0  0  0  0
    0.8226   -3.5224    0.0000 C   0  0  0  0  0  0  0  0  0  0  0  0
    3.2904   -0.7171    0.0000 C   0  0  0  0  0  0  0  0  0  0  0  0
    3.6700   -1.4132    0.0000 C   0  0  0  0  0  0  0  0  0  0  0  0
    2.0248   -4.2184    0.0000 C   0  0  0  0  0  0  0  0  0  0  0  0
    1.2655   -4.2184    0.0000 C   0  0  0  0  0  0  0  0  0  0  0  0
  1  7  1  0  0  0  0
  2  9  1  0  0  0  0
  3  4  2  0  0  0  0
  3  5  1  0  0  0  0
  3 10  1  0  0  0  0
  4  6  1  0  0  0  0
  4 11  1  0  0  0  0
  5  8  2  0  0  0  0
  5  9  1  0  0  0  0
  6  7  2  0  0  0  0
  6 12  1  0  0  0  0
  7  8  1  0  0  0  0
  9 13  2  0  0  0  0
 10 14  2  0  0  0  0
 11 15  2  0  0  0  0
 12 16  2  0  0  0  0
 13 14  1  0  0  0  0
 15 16  1  0  0  0  0
M  END
> <PUBCHEM_COMPOUND_ID_TYPE>
0

> <PUBCHEM_TOTAL_CHARGE>
0

> <PUBCHEM_SUBSTANCE_ID>
310930217

> <PUBCHEM_SUBSTANCE_VERSION>
1

> <PUBCHEM_EXT_DATASOURCE_NAME>
4488

> <PUBCHEM_EXT_DATASOURCE_REGID>
SCHEMBL16107484

> <PUBCHEM_SUBSTANCE_COMMENT>
InChI=1S/C14H12N2/c15-13-7-3-6-10-9-4-1-2-5-11(9)14(16)8-12(10)13/h1-8H,15-16H2
InChIKey=QUCVPHFOQKNUEY-UHFFFAOYSA-N

> <PUBCHEM_SUBSTANCE_SYNONYM>
SCHEMBL16107484

> <PUBCHEM_XREF_EXT_ID>
SCHEMBL16107484

> <PUBCHEM_EXT_DATASOURCE_URL>
https://www.surechembl.org/

> <PUBCHEM_EXT_SUBSTANCE_URL>
https://www.surechembl.org/chemical/SCHEMBL16107484

> <PUBCHEM_CID_ASSOCIATIONS>
117599420  1

> <PUBCHEM_COORDINATE_TYPE>
1
3

$$$$
