310938796
  -OEChem-07211613022D

 23 25  0     0  0  0  0  0  0999 V2000
   -0.3406   -1.9662    0.0000 S   0  0  0  0  0  0  0  0  0  0  0  0
    5.5559   -0.8862    0.0000 F   0  0  0  0  0  0  0  0  0  0  0  0
    4.7309   -0.0612    0.0000 F   0  0  0  0  0  0  0  0  0  0  0  0
    3.9059   -0.8862    0.0000 F   0  0  0  0  0  0  0  0  0  0  0  0
    3.3019   -0.8862    0.0000 O   0  0  0  0  0  0  0  0  0  0  0  0
    0.4440   -0.8862    0.0000 N   0  0  0  0  0  0  0  0  0  0  0  0
    2.5874   -2.1237    0.0000 N   0  0  0  0  0  0  0  0  0  0  0  0
    1.1585   -2.1237    0.0000 C   0  0  0  0  0  0  0  0  0  0  0  0
    0.4440   -1.7112    0.0000 C   0  0  0  0  0  0  0  0  0  0  0  0
    0.7460   -2.8382    0.0000 C   0  0  0  0  0  0  0  0  0  0  0  0
    1.5710   -2.8382    0.0000 C   0  0  0  0  0  0  0  0  0  0  0  0
    1.8730   -1.7112    0.0000 C   0  0  0  0  0  0  0  0  0  0  0  0
    4.0164   -2.1237    0.0000 C   0  0  0  0  0  0  0  0  0  0  0  0
    4.7309   -1.7112    0.0000 C   0  0  0  0  0  0  0  0  0  0  0  0
    3.3019   -1.7112    0.0000 C   0  0  0  0  0  0  0  0  0  0  0  0
    4.7309   -0.8862    0.0000 C   0  0  0  0  0  0  0  0  0  0  0  0
   -0.8255   -1.2987    0.0000 C   0  0  0  0  0  0  0  0  0  0  0  0
   -0.3406   -0.6313    0.0000 C   0  0  0  0  0  0  0  0  0  0  0  0
    4.0164   -2.9487    0.0000 C   0  0  0  0  0  0  0  0  0  0  0  0
    5.4453   -2.1237    0.0000 C   0  0  0  0  0  0  0  0  0  0  0  0
    4.7309   -3.3612    0.0000 C   0  0  0  0  0  0  0  0  0  0  0  0
    5.4453   -2.9487    0.0000 C   0  0  0  0  0  0  0  0  0  0  0  0
   -1.6505   -1.2987    0.0000 C   0  0  0  0  0  0  0  0  0  0  0  0
  1  9  1  0  0  0  0
  1 17  1  0  0  0  0
  2 16  1  0  0  0  0
  3 16  1  0  0  0  0
  4 16  1  0  0  0  0
  5 15  2  0  0  0  0
  6  9  2  0  0  0  0
  6 18  1  0  0  0  0
  7 12  1  0  0  0  0
  7 15  1  0  0  0  0
  8  9  1  0  0  0  0
  8 10  1  0  0  0  0
  8 11  1  0  0  0  0
  8 12  1  0  0  0  0
 10 11  1  0  0  0  0
 13 14  2  0  0  0  0
 13 15  1  0  0  0  0
 13 19  1  0  0  0  0
 14 16  1  0  0  0  0
 14 20  1  0  0  0  0
 17 18  2  0  0  0  0
 17 23  1  0  0  0  0
 19 21  2  0  0  0  0
 20 22  2  0  0  0  0
 21 22  1  0  0  0  0
M  END
> <PUBCHEM_COMPOUND_ID_TYPE>
0

> <PUBCHEM_TOTAL_CHARGE>
0

> <PUBCHEM_SUBSTANCE_ID>
310938796

> <PUBCHEM_SUBSTANCE_VERSION>
1

> <PUBCHEM_EXT_DATASOURCE_NAME>
4488

> <PUBCHEM_EXT_DATASOURCE_REGID>
SCHEMBL16116713

> <PUBCHEM_SUBSTANCE_COMMENT>
InChI=1S/C16H15F3N2OS/c1-10-8-20-14(23-10)15(6-7-15)9-21-13(22)11-4-2-3-5-12(11)16(17,18)19/h2-5,8H,6-7,9H2,1H3,(H,21,22)
InChIKey=IOAWYBHFUFKWMM-UHFFFAOYSA-N

> <PUBCHEM_SUBSTANCE_SYNONYM>
SCHEMBL16116713

> <PUBCHEM_XREF_EXT_ID>
SCHEMBL16116713

> <PUBCHEM_EXT_DATASOURCE_URL>
https://www.surechembl.org/

> <PUBCHEM_EXT_SUBSTANCE_URL>
https://www.surechembl.org/chemical/SCHEMBL16116713

> <PUBCHEM_CID_ASSOCIATIONS>
117606204  1

> <PUBCHEM_COORDINATE_TYPE>
1
3

$$$$
