310935554
  -OEChem-07211613022D

 32 35  0     1  0  0  0  0  0999 V2000
   -0.1712    1.5229    0.0000 O   0  0  0  0  0  0  0  0  0  0  0  0
    3.3523    3.5854    0.0000 O   0  0  0  0  0  0  0  0  0  0  0  0
    6.5042    1.9182    0.0000 O   0  0  0  0  0  0  0  0  0  0  0  0
    4.1008    0.1655    0.0000 O   0  0  0  0  0  0  0  0  0  0  0  0
    6.2560    0.5109    0.0000 O   0  0  0  0  0  0  0  0  0  0  0  0
    1.1387    0.8555    0.0000 C   0  0  3  0  0  0  0  0  0  0  0  0
    1.9233    1.1104    0.0000 C   0  0  0  0  0  0  0  0  0  0  0  0
    1.9233    1.9354    0.0000 C   0  0  0  0  0  0  0  0  0  0  0  0
    3.3523    1.9354    0.0000 C   0  0  3  0  0  0  0  0  0  0  0  0
    2.6378    2.3479    0.0000 C   0  0  3  0  0  0  0  0  0  0  0  0
    4.0668    2.3479    0.0000 C   0  0  3  0  0  0  0  0  0  0  0  0
    0.6538    1.5229    0.0000 C   0  0  3  0  0  0  0  0  0  0  0  0
    1.1387    2.1904    0.0000 C   0  0  0  0  0  0  0  0  0  0  0  0
    1.3018    0.0468    0.0000 C   0  0  0  0  0  0  0  0  0  0  0  0
    2.6378    0.6979    0.0000 C   0  0  0  0  0  0  0  0  0  0  0  0
    3.3523    1.1104    0.0000 C   0  0  0  0  0  0  0  0  0  0  0  0
    4.3489    1.5727    0.0000 C   0  0  3  0  0  0  0  0  0  0  0  0
    0.5314    0.2971    0.0000 C   0  0  0  0  0  0  0  0  0  0  0  0
    4.5971    2.9799    0.0000 C   0  0  0  0  0  0  0  0  0  0  0  0
    2.6378    3.1729    0.0000 C   0  0  0  0  0  0  0  0  0  0  0  0
    2.0837   -0.2164    0.0000 C   0  0  0  0  0  0  0  0  0  0  0  0
    0.6829   -0.4988    0.0000 C   0  0  0  0  0  0  0  0  0  0  0  0
    3.5365    2.9799    0.0000 C   0  0  0  0  0  0  0  0  0  0  0  0
    5.1614    1.4294    0.0000 C   0  0  0  0  0  0  0  0  0  0  0  0
    5.6917    2.0614    0.0000 C   0  0  3  0  0  0  0  0  0  0  0  0
    5.4095    2.8367    0.0000 C   0  0  0  0  0  0  0  0  0  0  0  0
    3.8186    0.9407    0.0000 C   0  0  0  0  0  0  0  0  0  0  0  0
    2.2468   -1.0251    0.0000 C   0  0  0  0  0  0  0  0  0  0  0  0
    0.8460   -1.3075    0.0000 C   0  0  0  0  0  0  0  0  0  0  0  0
    1.6279   -1.5707    0.0000 C   0  0  0  0  0  0  0  0  0  0  0  0
    6.7863    1.1429    0.0000 C   0  0  0  0  0  0  0  0  0  0  0  0
    7.5988    0.9997    0.0000 C   0  0  0  0  0  0  0  0  0  0  0  0
 12  1  1  6  0  0  0
  2 20  1  0  0  0  0
 25  3  1  6  0  0  0
  3 31  1  0  0  0  0
  4 27  1  0  0  0  0
  5 31  2  0  0  0  0
  6  7  1  0  0  0  0
  6 12  1  0  0  0  0
  6 14  1  0  0  0  0
  6 18  1  1  0  0  0
  7  8  2  0  0  0  0
  7 15  1  0  0  0  0
  8 10  1  0  0  0  0
  8 13  1  0  0  0  0
  9 10  1  0  0  0  0
  9 11  1  0  0  0  0
  9 16  1  1  0  0  0
 10 20  1  6  0  0  0
 11 17  1  0  0  0  0
 11 19  1  0  0  0  0
 11 23  1  6  0  0  0
 12 13  1  0  0  0  0
 14 21  2  0  0  0  0
 14 22  1  0  0  0  0
 15 16  1  0  0  0  0
 17 24  1  0  0  0  0
 17 27  1  6  0  0  0
 19 26  1  0  0  0  0
 21 28  1  0  0  0  0
 22 29  2  0  0  0  0
 24 25  1  0  0  0  0
 25 26  1  0  0  0  0
 28 30  2  0  0  0  0
 29 30  1  0  0  0  0
 31 32  1  0  0  0  0
M  END
> <PUBCHEM_COMPOUND_ID_TYPE>
0

> <PUBCHEM_TOTAL_CHARGE>
0

> <PUBCHEM_SUBSTANCE_ID>
310935554

> <PUBCHEM_SUBSTANCE_VERSION>
1

> <PUBCHEM_EXT_DATASOURCE_NAME>
4488

> <PUBCHEM_EXT_DATASOURCE_REGID>
SCHEMBL16113125

> <PUBCHEM_SUBSTANCE_COMMENT>
InChI=1S/C27H38O5/c1-17(30)32-20-11-12-26(2,19(13-20)15-28)23-9-10-24-21(22(23)16-29)14-25(31)27(24,3)18-7-5-4-6-8-18/h4-8,19-20,22-23,25,28-29,31H,9-16H2,1-3H3/t19-,20+,22+,23+,25-,26+,27+/m1/s1
InChIKey=QRGGREPJGVTEOI-FHLCOMCJSA-N

> <PUBCHEM_SUBSTANCE_SYNONYM>
SCHEMBL16113125

> <PUBCHEM_XREF_EXT_ID>
SCHEMBL16113125

> <PUBCHEM_EXT_DATASOURCE_URL>
https://www.surechembl.org/

> <PUBCHEM_EXT_SUBSTANCE_URL>
https://www.surechembl.org/chemical/SCHEMBL16113125

> <PUBCHEM_CID_ASSOCIATIONS>
117603579  1

> <PUBCHEM_COORDINATE_TYPE>
1
3

> <PUBCHEM_BONDANNOTATIONS>
12  1  6
10  20  6
11  23  6
17  27  6
25  3  6
6  18  5
9  16  5

$$$$
