310934029
  -OEChem-07211613022D

 17 19  0     0  0  0  0  0  0999 V2000
    2.2098   -0.8250    0.0000 Cl  0  0  0  0  0  0  0  0  0  0  0  0
    0.7661    0.0000    0.0000 O   0  0  0  0  0  0  0  0  0  0  0  0
    1.4732   -4.5668    0.0000 N   0  0  0  0  0  0  0  0  0  0  0  0
    0.0295   -4.5668    0.0000 N   0  0  0  0  0  0  0  0  0  0  0  0
    2.0624   -5.1266    0.0000 N   0  0  0  0  0  0  0  0  0  0  0  0
    0.7661   -3.3293    0.0000 C   0  0  0  0  0  0  0  0  0  0  0  0
    0.7366   -5.0088    0.0000 C   0  0  0  0  0  0  0  0  0  0  0  0
    0.7661   -2.5044    0.0000 C   0  0  0  0  0  0  0  0  0  0  0  0
    1.4437   -3.7124    0.0000 C   0  0  0  0  0  0  0  0  0  0  0  0
    0.0000   -3.7713    0.0000 C   0  0  0  0  0  0  0  0  0  0  0  0
    1.4732   -2.0919    0.0000 C   0  0  0  0  0  0  0  0  0  0  0  0
    1.4732   -1.2669    0.0000 C   0  0  0  0  0  0  0  0  0  0  0  0
    0.9133   -5.8043    0.0000 C   0  0  0  0  0  0  0  0  0  0  0  0
    0.0295   -2.0919    0.0000 C   0  0  0  0  0  0  0  0  0  0  0  0
    0.7661   -0.8250    0.0000 C   0  0  0  0  0  0  0  0  0  0  0  0
    1.7383   -5.8927    0.0000 C   0  0  0  0  0  0  0  0  0  0  0  0
    0.0295   -1.2669    0.0000 C   0  0  0  0  0  0  0  0  0  0  0  0
  1 12  1  0  0  0  0
  2 15  1  0  0  0  0
  3  5  1  0  0  0  0
  3  7  1  0  0  0  0
  3  9  1  0  0  0  0
  4  7  1  0  0  0  0
  4 10  2  0  0  0  0
  5 16  2  0  0  0  0
  6  8  1  0  0  0  0
  6  9  2  0  0  0  0
  6 10  1  0  0  0  0
  7 13  2  0  0  0  0
  8 11  2  0  0  0  0
  8 14  1  0  0  0  0
 11 12  1  0  0  0  0
 12 15  2  0  0  0  0
 13 16  1  0  0  0  0
 14 17  2  0  0  0  0
 15 17  1  0  0  0  0
M  END
> <PUBCHEM_COMPOUND_ID_TYPE>
0

> <PUBCHEM_TOTAL_CHARGE>
0

> <PUBCHEM_SUBSTANCE_ID>
310934029

> <PUBCHEM_SUBSTANCE_VERSION>
1

> <PUBCHEM_EXT_DATASOURCE_NAME>
4488

> <PUBCHEM_EXT_DATASOURCE_REGID>
SCHEMBL16111473

> <PUBCHEM_SUBSTANCE_COMMENT>
InChI=1S/C12H8ClN3O/c13-10-5-8(1-2-11(10)17)9-6-14-12-3-4-15-16(12)7-9/h1-7,17H
InChIKey=WMTKMWRWFZWAIT-UHFFFAOYSA-N

> <PUBCHEM_SUBSTANCE_SYNONYM>
SCHEMBL16111473

> <PUBCHEM_XREF_EXT_ID>
SCHEMBL16111473

> <PUBCHEM_EXT_DATASOURCE_URL>
https://www.surechembl.org/

> <PUBCHEM_EXT_SUBSTANCE_URL>
https://www.surechembl.org/chemical/SCHEMBL16111473

> <PUBCHEM_CID_ASSOCIATIONS>
117602329  1

> <PUBCHEM_COORDINATE_TYPE>
1
3

$$$$
