310938348
  -OEChem-07211613022D

 18 19  0     0  0  0  0  0  0999 V2000
    3.7526   -0.1983    0.0000 F   0  0  0  0  0  0  0  0  0  0  0  0
    2.3492   -0.4882    0.0000 F   0  0  0  0  0  0  0  0  0  0  0  0
    3.9051   -1.0068    0.0000 F   0  0  0  0  0  0  0  0  0  0  0  0
    4.5764   -2.9136    0.0000 O   0  0  0  0  0  0  0  0  0  0  0  0
    4.5764   -1.4950    0.0000 O   0  0  0  0  0  0  0  0  0  0  0  0
    2.8678   -2.8678    0.0000 N   0  0  0  0  0  0  0  0  0  0  0  0
    0.0915   -0.3661    0.0000 N   0  0  0  0  0  0  0  0  0  0  0  0
    2.8678   -1.5255    0.0000 C   0  0  0  0  0  0  0  0  0  0  0  0
    2.0899   -1.8000    0.0000 C   0  0  0  0  0  0  0  0  0  0  0  0
    3.3560   -2.1966    0.0000 C   0  0  0  0  0  0  0  0  0  0  0  0
    3.1272   -0.7474    0.0000 C   0  0  0  0  0  0  0  0  0  0  0  0
    1.4187   -1.3119    0.0000 C   0  0  0  0  0  0  0  0  0  0  0  0
    2.0899   -2.6085    0.0000 C   0  0  0  0  0  0  0  0  0  0  0  0
    4.1797   -2.1966    0.0000 C   0  0  0  0  0  0  0  0  0  0  0  0
    1.5102   -0.5186    0.0000 C   0  0  0  0  0  0  0  0  0  0  0  0
    0.6559   -1.6780    0.0000 C   0  0  0  0  0  0  0  0  0  0  0  0
    0.8390    0.0000    0.0000 C   0  0  0  0  0  0  0  0  0  0  0  0
    0.0000   -1.1593    0.0000 C   0  0  0  0  0  0  0  0  0  0  0  0
  1 11  1  0  0  0  0
  2 11  1  0  0  0  0
  3 11  1  0  0  0  0
  4 14  2  0  0  0  0
  5 14  1  0  0  0  0
  6 10  1  0  0  0  0
  6 13  1  0  0  0  0
  7 17  2  0  0  0  0
  7 18  1  0  0  0  0
  8  9  1  0  0  0  0
  8 10  2  0  0  0  0
  8 11  1  0  0  0  0
  9 12  1  0  0  0  0
  9 13  2  0  0  0  0
 10 14  1  0  0  0  0
 12 15  2  0  0  0  0
 12 16  1  0  0  0  0
 15 17  1  0  0  0  0
 16 18  2  0  0  0  0
M  END
> <PUBCHEM_COMPOUND_ID_TYPE>
0

> <PUBCHEM_TOTAL_CHARGE>
0

> <PUBCHEM_SUBSTANCE_ID>
310938348

> <PUBCHEM_SUBSTANCE_VERSION>
1

> <PUBCHEM_EXT_DATASOURCE_NAME>
4488

> <PUBCHEM_EXT_DATASOURCE_REGID>
SCHEMBL16116231

> <PUBCHEM_SUBSTANCE_COMMENT>
InChI=1S/C11H7F3N2O2/c12-11(13,14)8-7(5-16-9(8)10(17)18)6-1-3-15-4-2-6/h1-5,16H,(H,17,18)
InChIKey=PCXKJAJPIRCSFW-UHFFFAOYSA-N

> <PUBCHEM_SUBSTANCE_SYNONYM>
SCHEMBL16116231

> <PUBCHEM_XREF_EXT_ID>
SCHEMBL16116231

> <PUBCHEM_EXT_DATASOURCE_URL>
https://www.surechembl.org/

> <PUBCHEM_EXT_SUBSTANCE_URL>
https://www.surechembl.org/chemical/SCHEMBL16116231

> <PUBCHEM_CID_ASSOCIATIONS>
117605834  1

> <PUBCHEM_COORDINATE_TYPE>
1
3

$$$$
