310944272
  -OEChem-07211613022D

 24 27  0     0  0  0  0  0  0999 V2000
    0.5139    2.7926    0.0000 F   0  0  0  0  0  0  0  0  0  0  0  0
   -1.0412   -0.6694    0.0000 O   0  0  0  0  0  0  0  0  0  0  0  0
    2.7046    2.3463    0.0000 N   0  0  0  0  0  0  0  0  0  0  0  0
   -1.7039    2.3192    0.0000 N   0  0  0  0  0  0  0  0  0  0  0  0
   -0.2299   -0.9128    0.0000 C   0  0  0  0  0  0  0  0  0  0  0  0
   -0.2434   -1.7242    0.0000 C   0  0  0  0  0  0  0  0  0  0  0  0
    0.5139   -0.4800    0.0000 C   0  0  0  0  0  0  0  0  0  0  0  0
   -1.0277   -1.9676    0.0000 C   0  0  0  0  0  0  0  0  0  0  0  0
   -1.5281   -1.3185    0.0000 C   0  0  0  0  0  0  0  0  0  0  0  0
    0.5274    0.3448    0.0000 C   0  0  0  0  0  0  0  0  0  0  0  0
    0.5004   -2.1299    0.0000 C   0  0  0  0  0  0  0  0  0  0  0  0
    1.2442   -0.8993    0.0000 C   0  0  0  0  0  0  0  0  0  0  0  0
    1.2306    0.7505    0.0000 C   0  0  0  0  0  0  0  0  0  0  0  0
   -0.2299    0.7640    0.0000 C   0  0  0  0  0  0  0  0  0  0  0  0
    1.2442    1.5754    0.0000 C   0  0  0  0  0  0  0  0  0  0  0  0
   -0.2434    1.5889    0.0000 C   0  0  0  0  0  0  0  0  0  0  0  0
    0.5274    1.9947    0.0000 C   0  0  0  0  0  0  0  0  0  0  0  0
   -1.3659   -2.7114    0.0000 C   0  0  0  0  0  0  0  0  0  0  0  0
    1.2442   -1.7242    0.0000 C   0  0  0  0  0  0  0  0  0  0  0  0
   -2.3666   -1.4132    0.0000 C   0  0  0  0  0  0  0  0  0  0  0  0
   -2.2178   -2.7926    0.0000 C   0  0  0  0  0  0  0  0  0  0  0  0
   -2.7046   -2.1434    0.0000 C   0  0  0  0  0  0  0  0  0  0  0  0
    1.9744    1.9811    0.0000 C   0  0  0  0  0  0  0  0  0  0  0  0
   -0.9737    1.9676    0.0000 C   0  0  0  0  0  0  0  0  0  0  0  0
  1 17  1  0  0  0  0
  2  5  1  0  0  0  0
  2  9  1  0  0  0  0
  3 23  3  0  0  0  0
  4 24  3  0  0  0  0
  5  6  1  0  0  0  0
  5  7  2  0  0  0  0
  6  8  1  0  0  0  0
  6 11  2  0  0  0  0
  7 10  1  0  0  0  0
  7 12  1  0  0  0  0
  8  9  2  0  0  0  0
  8 18  1  0  0  0  0
  9 20  1  0  0  0  0
 10 13  2  0  0  0  0
 10 14  1  0  0  0  0
 11 19  1  0  0  0  0
 12 19  2  0  0  0  0
 13 15  1  0  0  0  0
 14 16  2  0  0  0  0
 15 17  2  0  0  0  0
 15 23  1  0  0  0  0
 16 17  1  0  0  0  0
 16 24  1  0  0  0  0
 18 21  2  0  0  0  0
 20 22  2  0  0  0  0
 21 22  1  0  0  0  0
M  END
> <PUBCHEM_COMPOUND_ID_TYPE>
0

> <PUBCHEM_TOTAL_CHARGE>
0

> <PUBCHEM_SUBSTANCE_ID>
310944272

> <PUBCHEM_SUBSTANCE_VERSION>
1

> <PUBCHEM_EXT_DATASOURCE_NAME>
4488

> <PUBCHEM_EXT_DATASOURCE_REGID>
SCHEMBL16122347

> <PUBCHEM_SUBSTANCE_COMMENT>
InChI=1S/C20H9FN2O/c21-19-13(10-22)8-12(9-14(19)11-23)15-5-3-6-17-16-4-1-2-7-18(16)24-20(15)17/h1-9H
InChIKey=KFEUVGSYCRFIJJ-UHFFFAOYSA-N

> <PUBCHEM_SUBSTANCE_SYNONYM>
SCHEMBL16122347

> <PUBCHEM_XREF_EXT_ID>
SCHEMBL16122347

> <PUBCHEM_EXT_DATASOURCE_URL>
https://www.surechembl.org/

> <PUBCHEM_EXT_SUBSTANCE_URL>
https://www.surechembl.org/chemical/SCHEMBL16122347

> <PUBCHEM_CID_ASSOCIATIONS>
117610541  1

> <PUBCHEM_COORDINATE_TYPE>
1
3

$$$$
