310939724
  -OEChem-07211613022D

 54 59  0     0  0  0  0  0  0999 V2000
   -2.2688    2.7865    0.0000 S   0  0  0  0  0  0  0  0  0  0  0  0
   -5.9811    0.6431    0.0000 S   0  0  0  0  0  0  0  0  0  0  0  0
   -2.2688   -0.0714    0.0000 O   0  0  0  0  0  0  0  0  0  0  0  0
   -2.8521    3.3698    0.0000 O   0  0  0  0  0  0  0  0  0  0  0  0
   -1.5543    2.3739    0.0000 O   0  0  0  0  0  0  0  0  0  0  0  0
   -1.6853    3.3698    0.0000 O   0  0  0  0  0  0  0  0  0  0  0  0
   -6.7780    0.4295    0.0000 O   0  0  0  0  0  0  0  0  0  0  0  0
   -6.1946    1.4400    0.0000 O   0  0  0  0  0  0  0  0  0  0  0  0
   -5.7677   -0.1538    0.0000 O   0  0  0  0  0  0  0  0  0  0  0  0
   -7.2186   -4.3581    0.0000 O   0  5  0  0  0  0  0  0  0  0  0  0
   -8.4561   -3.6437    0.0000 O   0  0  0  0  0  0  0  0  0  0  0  0
    8.4561    1.3575    0.0000 O   0  0  0  0  0  0  0  0  0  0  0  0
   -1.4437    1.3575    0.0000 N   0  0  0  0  0  0  0  0  0  0  0  0
   -5.1561   -0.7858    0.0000 N   0  0  0  0  0  0  0  0  0  0  0  0
   -3.5062   -0.7858    0.0000 N   0  0  0  0  0  0  0  0  0  0  0  0
   -1.0312    2.0720    0.0000 N   0  0  0  0  0  0  0  0  0  0  0  0
   -5.9811   -0.7858    0.0000 N   0  0  0  0  0  0  0  0  0  0  0  0
   -7.6311   -3.6437    0.0000 N   0  3  0  0  0  0  0  0  0  0  0  0
    4.7437    2.0720    0.0000 N   0  0  0  0  0  0  0  0  0  0  0  0
    5.1561    1.3575    0.0000 N   0  0  0  0  0  0  0  0  0  0  0  0
   -3.5062    0.6431    0.0000 C   0  0  0  0  0  0  0  0  0  0  0  0
   -3.9187    1.3575    0.0000 C   0  0  0  0  0  0  0  0  0  0  0  0
   -2.6812    0.6431    0.0000 C   0  0  0  0  0  0  0  0  0  0  0  0
   -3.9187   -0.0714    0.0000 C   0  0  0  0  0  0  0  0  0  0  0  0
   -2.6812    2.0720    0.0000 C   0  0  0  0  0  0  0  0  0  0  0  0
   -5.1561    0.6431    0.0000 C   0  0  0  0  0  0  0  0  0  0  0  0
   -2.2688    1.3575    0.0000 C   0  0  0  0  0  0  0  0  0  0  0  0
   -4.7437   -0.0714    0.0000 C   0  0  0  0  0  0  0  0  0  0  0  0
   -3.5062    2.0720    0.0000 C   0  0  0  0  0  0  0  0  0  0  0  0
   -4.7437    1.3575    0.0000 C   0  0  0  0  0  0  0  0  0  0  0  0
   -0.2063    2.0720    0.0000 C   0  0  0  0  0  0  0  0  0  0  0  0
   -6.3936   -1.5003    0.0000 C   0  0  0  0  0  0  0  0  0  0  0  0
    0.2063    2.7865    0.0000 C   0  0  0  0  0  0  0  0  0  0  0  0
    0.2063    1.3575    0.0000 C   0  0  0  0  0  0  0  0  0  0  0  0
   -5.9811   -2.2148    0.0000 C   0  0  0  0  0  0  0  0  0  0  0  0
   -7.2186   -1.5003    0.0000 C   0  0  0  0  0  0  0  0  0  0  0  0
    1.4437    2.0720    0.0000 C   0  0  0  0  0  0  0  0  0  0  0  0
    1.0312    2.7865    0.0000 C   0  0  0  0  0  0  0  0  0  0  0  0
    1.0312    1.3575    0.0000 C   0  0  0  0  0  0  0  0  0  0  0  0
    2.2688    2.0720    0.0000 C   0  0  0  0  0  0  0  0  0  0  0  0
   -7.2186   -2.9292    0.0000 C   0  0  0  0  0  0  0  0  0  0  0  0
   -6.3936   -2.9292    0.0000 C   0  0  0  0  0  0  0  0  0  0  0  0
   -7.6311   -2.2148    0.0000 C   0  0  0  0  0  0  0  0  0  0  0  0
    2.6812    2.7865    0.0000 C   0  0  0  0  0  0  0  0  0  0  0  0
    2.6812    1.3575    0.0000 C   0  0  0  0  0  0  0  0  0  0  0  0
    3.9187    2.0720    0.0000 C   0  0  0  0  0  0  0  0  0  0  0  0
    3.5062    2.7865    0.0000 C   0  0  0  0  0  0  0  0  0  0  0  0
    3.5062    1.3575    0.0000 C   0  0  0  0  0  0  0  0  0  0  0  0
    5.9811    1.3575    0.0000 C   0  0  0  0  0  0  0  0  0  0  0  0
    6.3936    0.6431    0.0000 C   0  0  0  0  0  0  0  0  0  0  0  0
    6.3936    2.0720    0.0000 C   0  0  0  0  0  0  0  0  0  0  0  0
    7.6311    1.3575    0.0000 C   0  0  0  0  0  0  0  0  0  0  0  0
    7.2186    0.6431    0.0000 C   0  0  0  0  0  0  0  0  0  0  0  0
    7.2186    2.0720    0.0000 C   0  0  0  0  0  0  0  0  0  0  0  0
  1  4  2  0  0  0  0
  1  5  2  0  0  0  0
  1  6  1  0  0  0  0
  1 25  1  0  0  0  0
  2  7  2  0  0  0  0
  2  8  2  0  0  0  0
  2  9  1  0  0  0  0
  2 26  1  0  0  0  0
  3 23  1  0  0  0  0
 10 18  1  0  0  0  0
 11 18  2  0  0  0  0
 12 52  1  0  0  0  0
 13 16  2  0  0  0  0
 13 27  1  0  0  0  0
 14 17  2  0  0  0  0
 14 28  1  0  0  0  0
 15 24  1  0  0  0  0
 16 31  1  0  0  0  0
 17 32  1  0  0  0  0
 18 41  1  0  0  0  0
 19 20  2  0  0  0  0
 19 46  1  0  0  0  0
 20 49  1  0  0  0  0
 21 22  1  0  0  0  0
 21 23  1  0  0  0  0
 21 24  2  0  0  0  0
 22 29  1  0  0  0  0
 22 30  2  0  0  0  0
 23 27  2  0  0  0  0
 24 28  1  0  0  0  0
 25 27  1  0  0  0  0
 25 29  2  0  0  0  0
 26 28  2  0  0  0  0
 26 30  1  0  0  0  0
 31 33  2  0  0  0  0
 31 34  1  0  0  0  0
 32 35  2  0  0  0  0
 32 36  1  0  0  0  0
 33 38  1  0  0  0  0
 34 39  2  0  0  0  0
 35 42  1  0  0  0  0
 36 43  2  0  0  0  0
 37 38  2  0  0  0  0
 37 39  1  0  0  0  0
 37 40  1  0  0  0  0
 40 44  2  0  0  0  0
 40 45  1  0  0  0  0
 41 42  2  0  0  0  0
 41 43  1  0  0  0  0
 44 47  1  0  0  0  0
 45 48  2  0  0  0  0
 46 47  2  0  0  0  0
 46 48  1  0  0  0  0
 49 50  2  0  0  0  0
 49 51  1  0  0  0  0
 50 53  1  0  0  0  0
 51 54  2  0  0  0  0
 52 53  2  0  0  0  0
 52 54  1  0  0  0  0
M  CHG  2  10  -1  18   1
M  END
> <PUBCHEM_COMPOUND_ID_TYPE>
0

> <PUBCHEM_TOTAL_CHARGE>
0

> <PUBCHEM_SUBSTANCE_ID>
310939724

> <PUBCHEM_SUBSTANCE_VERSION>
1

> <PUBCHEM_EXT_DATASOURCE_NAME>
4488

> <PUBCHEM_EXT_DATASOURCE_REGID>
SCHEMBL16117654

> <PUBCHEM_SUBSTANCE_COMMENT>
InChI=1S/C34H24N8O10S2/c35-31-30-21(17-28(53(47,48)49)32(31)40-38-24-9-13-26(14-10-24)42(45)46)18-29(54(50,51)52)33(34(30)44)41-39-23-7-3-20(4-8-23)19-1-5-22(6-2-19)36-37-25-11-15-27(43)16-12-25/h1-18,43-44H,35H2,(H,47,48,49)(H,50,51,52)/b37-36+,40-38+,41-39+
InChIKey=STOOUUMSJPLRNI-ITEZJMJWSA-N

> <PUBCHEM_SUBSTANCE_SYNONYM>
SCHEMBL16117654

> <PUBCHEM_XREF_EXT_ID>
SCHEMBL16117654

> <PUBCHEM_EXT_DATASOURCE_URL>
https://www.surechembl.org/

> <PUBCHEM_EXT_SUBSTANCE_URL>
https://www.surechembl.org/chemical/SCHEMBL16117654

> <PUBCHEM_CID_ASSOCIATIONS>
5473476  1

> <PUBCHEM_COORDINATE_TYPE>
1
3

$$$$
