310934414
  -OEChem-07211613022D

 13 14  0     0  0  0  0  0  0999 V2000
    1.6449   -3.5760    0.0000 Cl  0  0  0  0  0  0  0  0  0  0  0  0
    0.4113    0.0000    0.0000 O   0  0  0  0  0  0  0  0  0  0  0  0
    0.4291   -1.4125    0.0000 N   0  0  0  0  0  0  0  0  0  0  0  0
    1.2516   -1.4304    0.0000 C   0  0  0  0  0  0  0  0  0  0  0  0
    1.6628   -2.1456    0.0000 C   0  0  0  0  0  0  0  0  0  0  0  0
    1.6628   -0.7152    0.0000 C   0  0  0  0  0  0  0  0  0  0  0  0
    1.2337   -2.8608    0.0000 C   0  0  0  0  0  0  0  0  0  0  0  0
    2.4674   -2.1635    0.0000 C   0  0  0  0  0  0  0  0  0  0  0  0
    2.4853   -0.7331    0.0000 C   0  0  0  0  0  0  0  0  0  0  0  0
    0.3934   -2.8608    0.0000 C   0  0  0  0  0  0  0  0  0  0  0  0
    0.0000   -2.1277    0.0000 C   0  0  0  0  0  0  0  0  0  0  0  0
    2.8966   -1.4482    0.0000 C   0  0  0  0  0  0  0  0  0  0  0  0
    1.2516    0.0000    0.0000 C   0  0  0  0  0  0  0  0  0  0  0  0
  1  7  1  0  0  0  0
  2 13  1  0  0  0  0
  3  4  2  0  0  0  0
  3 11  1  0  0  0  0
  4  5  1  0  0  0  0
  4  6  1  0  0  0  0
  5  7  2  0  0  0  0
  5  8  1  0  0  0  0
  6  9  2  0  0  0  0
  6 13  1  0  0  0  0
  7 10  1  0  0  0  0
  8 12  2  0  0  0  0
  9 12  1  0  0  0  0
 10 11  2  0  0  0  0
M  END
> <PUBCHEM_COMPOUND_ID_TYPE>
0

> <PUBCHEM_TOTAL_CHARGE>
0

> <PUBCHEM_SUBSTANCE_ID>
310934414

> <PUBCHEM_SUBSTANCE_VERSION>
1

> <PUBCHEM_EXT_DATASOURCE_NAME>
4488

> <PUBCHEM_EXT_DATASOURCE_REGID>
SCHEMBL16111888

> <PUBCHEM_SUBSTANCE_COMMENT>
InChI=1S/C10H8ClNO/c11-9-4-5-12-10-7(6-13)2-1-3-8(9)10/h1-5,13H,6H2
InChIKey=TZPXOCCNJKDHPQ-UHFFFAOYSA-N

> <PUBCHEM_SUBSTANCE_SYNONYM>
SCHEMBL16111888

> <PUBCHEM_XREF_EXT_ID>
SCHEMBL16111888

> <PUBCHEM_EXT_DATASOURCE_URL>
https://www.surechembl.org/

> <PUBCHEM_EXT_SUBSTANCE_URL>
https://www.surechembl.org/chemical/SCHEMBL16111888

> <PUBCHEM_CID_ASSOCIATIONS>
117602631  1

> <PUBCHEM_COORDINATE_TYPE>
1
3

$$$$
