310946097
  -OEChem-07211613022D

 26 27  0     1  0  0  0  0  0999 V2000
    0.5817    7.4314    0.0000 O   0  0  0  0  0  0  0  0  0  0  0  0
   -0.8473    2.4814    0.0000 O   0  0  0  0  0  0  0  0  0  0  0  0
   -0.8473    7.4314    0.0000 O   0  0  0  0  0  0  0  0  0  0  0  0
   -0.1328    3.7189    0.0000 N   0  0  0  0  0  0  0  0  0  0  0  0
   -0.1328    6.1939    0.0000 N   0  0  0  0  0  0  0  0  0  0  0  0
   -0.8473    3.3064    0.0000 C   0  0  0  0  0  0  0  0  0  0  0  0
   -1.5617    3.7189    0.0000 C   0  0  3  0  0  0  0  0  0  0  0  0
    0.5817    4.9564    0.0000 C   0  0  0  0  0  0  0  0  0  0  0  0
    1.2962    8.6689    0.0000 C   0  0  0  0  0  0  0  0  0  0  0  0
   -0.1328    4.5439    0.0000 C   0  0  0  0  0  0  0  0  0  0  0  0
    0.5817    8.2564    0.0000 C   0  0  0  0  0  0  0  0  0  0  0  0
   -0.1328    7.0189    0.0000 C   0  0  0  0  0  0  0  0  0  0  0  0
   -1.5617    4.5439    0.0000 C   0  0  0  0  0  0  0  0  0  0  0  0
    1.2962    4.5439    0.0000 C   0  0  0  0  0  0  0  0  0  0  0  0
    0.5817    5.7814    0.0000 C   0  0  0  0  0  0  0  0  0  0  0  0
    2.0106    8.2564    0.0000 C   0  0  0  0  0  0  0  0  0  0  0  0
    1.2962    9.4939    0.0000 C   0  0  0  0  0  0  0  0  0  0  0  0
   -0.8473    4.9564    0.0000 C   0  0  0  0  0  0  0  0  0  0  0  0
   -0.8473    5.7814    0.0000 C   0  0  0  0  0  0  0  0  0  0  0  0
    2.0106    4.9564    0.0000 C   0  0  0  0  0  0  0  0  0  0  0  0
    1.2962    6.1939    0.0000 C   0  0  0  0  0  0  0  0  0  0  0  0
    2.7251    8.6689    0.0000 C   0  0  0  0  0  0  0  0  0  0  0  0
    2.0106    9.9064    0.0000 C   0  0  0  0  0  0  0  0  0  0  0  0
    2.0106    5.7814    0.0000 C   0  0  0  0  0  0  0  0  0  0  0  0
   -2.2762    3.3064    0.0000 C   0  0  0  0  0  0  0  0  0  0  0  0
    2.7251    9.4939    0.0000 C   0  0  0  0  0  0  0  0  0  0  0  0
  1 11  1  0  0  0  0
  1 12  1  0  0  0  0
  2  6  2  0  0  0  0
  3 12  2  0  0  0  0
  4  6  1  0  0  0  0
  4 10  1  0  0  0  0
  5 12  1  0  0  0  0
  5 19  1  0  0  0  0
  6  7  1  0  0  0  0
  7 13  1  0  0  0  0
  7 25  1  1  0  0  0
  8 10  1  0  0  0  0
  8 14  2  0  0  0  0
  8 15  1  0  0  0  0
  9 11  1  0  0  0  0
  9 16  2  0  0  0  0
  9 17  1  0  0  0  0
 13 18  1  0  0  0  0
 14 20  1  0  0  0  0
 15 21  2  0  0  0  0
 16 22  1  0  0  0  0
 17 23  2  0  0  0  0
 18 19  1  0  0  0  0
 20 24  2  0  0  0  0
 21 24  1  0  0  0  0
 22 26  2  0  0  0  0
 23 26  1  0  0  0  0
M  END
> <PUBCHEM_COMPOUND_ID_TYPE>
0

> <PUBCHEM_TOTAL_CHARGE>
0

> <PUBCHEM_SUBSTANCE_ID>
310946097

> <PUBCHEM_SUBSTANCE_VERSION>
1

> <PUBCHEM_EXT_DATASOURCE_NAME>
4488

> <PUBCHEM_EXT_DATASOURCE_REGID>
SCHEMBL16124205

> <PUBCHEM_SUBSTANCE_COMMENT>
InChI=1S/C21H26N2O3/c1-17(20(24)23-15-18-10-4-2-5-11-18)9-8-14-22-21(25)26-16-19-12-6-3-7-13-19/h2-7,10-13,17H,8-9,14-16H2,1H3,(H,22,25)(H,23,24)/t17-/m0/s1
InChIKey=IQCWKYNCOJHFAN-KRWDZBQOSA-N

> <PUBCHEM_SUBSTANCE_SYNONYM>
SCHEMBL16124205

> <PUBCHEM_XREF_EXT_ID>
SCHEMBL16124205

> <PUBCHEM_EXT_DATASOURCE_URL>
https://www.surechembl.org/

> <PUBCHEM_EXT_SUBSTANCE_URL>
https://www.surechembl.org/chemical/SCHEMBL16124205

> <PUBCHEM_CID_ASSOCIATIONS>
117612061  1

> <PUBCHEM_COORDINATE_TYPE>
1
3

> <PUBCHEM_BONDANNOTATIONS>
7  25  5

$$$$
