310945204
  -OEChem-07211613022D

 12 12  0     0  0  0  0  0  0999 V2000
   -2.6679   -0.5911    0.0000 I   0  0  0  0  0  0  0  0  0  0  0  0
   -1.5843   -0.7224    0.0000 S   0  0  0  0  0  0  0  0  0  0  0  0
    0.5336    0.4925    0.0000 N   0  0  0  0  0  0  0  0  0  0  0  0
    1.9455    0.4925    0.0000 N   0  0  0  0  0  0  0  0  0  0  0  0
    0.5336   -0.2955    0.0000 C   0  0  0  0  0  0  0  0  0  0  0  0
    1.9291   -0.2955    0.0000 C   0  0  0  0  0  0  0  0  0  0  0  0
    1.2559   -0.7060    0.0000 C   0  0  0  0  0  0  0  0  0  0  0  0
   -0.1396   -0.6895    0.0000 C   0  0  0  0  0  0  0  0  0  0  0  0
    1.2395    0.9194    0.0000 C   0  0  0  0  0  0  0  0  0  0  0  0
   -0.8783   -0.2955    0.0000 C   0  0  0  0  0  0  0  0  0  0  0  0
    2.6679   -0.7224    0.0000 C   0  0  0  0  0  0  0  0  0  0  0  0
   -2.2739   -0.2955    0.0000 C   0  0  0  0  0  0  0  0  0  0  0  0
  1 12  1  0  0  0  0
  2 10  1  0  0  0  0
  2 12  1  0  0  0  0
  3  5  2  0  0  0  0
  3  9  1  0  0  0  0
  4  6  1  0  0  0  0
  4  9  2  0  0  0  0
  5  7  1  0  0  0  0
  5  8  1  0  0  0  0
  6  7  2  0  0  0  0
  6 11  1  0  0  0  0
  8 10  2  0  0  0  0
M  END
> <PUBCHEM_COMPOUND_ID_TYPE>
0

> <PUBCHEM_TOTAL_CHARGE>
0

> <PUBCHEM_SUBSTANCE_ID>
310945204

> <PUBCHEM_SUBSTANCE_VERSION>
1

> <PUBCHEM_EXT_DATASOURCE_NAME>
4488

> <PUBCHEM_EXT_DATASOURCE_REGID>
SCHEMBL16123294

> <PUBCHEM_SUBSTANCE_COMMENT>
InChI=1S/C8H9IN2S/c1-7-4-8(11-6-10-7)2-3-12-5-9/h2-4,6H,5H2,1H3/b3-2+
InChIKey=NPWXJVWEIOLJOX-NSCUHMNNSA-N

> <PUBCHEM_SUBSTANCE_SYNONYM>
SCHEMBL16123294

> <PUBCHEM_XREF_EXT_ID>
SCHEMBL16123294

> <PUBCHEM_EXT_DATASOURCE_URL>
https://www.surechembl.org/

> <PUBCHEM_EXT_SUBSTANCE_URL>
https://www.surechembl.org/chemical/SCHEMBL16123294

> <PUBCHEM_CID_ASSOCIATIONS>
117611283  1

> <PUBCHEM_COORDINATE_TYPE>
1
3

$$$$
