310944505
  -OEChem-07211613022D

 17 17  0     0  0  0  0  0  0999 V2000
   -3.3381   -1.2456    0.0000 Br  0  0  0  0  0  0  0  0  0  0  0  0
   -3.3132    0.4110    0.0000 Cl  0  0  0  0  0  0  0  0  0  0  0  0
   -0.2740   -1.2456    0.0000 O   0  0  0  0  0  0  0  0  0  0  0  0
    1.8808    0.0000    0.0000 O   0  0  0  0  0  0  0  0  0  0  0  0
    1.1583    1.2456    0.0000 O   0  0  0  0  0  0  0  0  0  0  0  0
   -0.2616    0.4234    0.0000 N   0  0  0  0  0  0  0  0  0  0  0  0
   -0.9840    0.0125    0.0000 C   0  0  0  0  0  0  0  0  0  0  0  0
   -0.9965   -0.8221    0.0000 C   0  0  0  0  0  0  0  0  0  0  0  0
   -2.4164    0.0000    0.0000 C   0  0  0  0  0  0  0  0  0  0  0  0
   -2.4288   -0.8221    0.0000 C   0  0  0  0  0  0  0  0  0  0  0  0
   -1.6939    0.4110    0.0000 C   0  0  0  0  0  0  0  0  0  0  0  0
   -1.7064   -1.2331    0.0000 C   0  0  0  0  0  0  0  0  0  0  0  0
    0.4608    0.0000    0.0000 C   0  0  0  0  0  0  0  0  0  0  0  0
    1.1708    0.4110    0.0000 C   0  0  0  0  0  0  0  0  0  0  0  0
    0.4608   -0.8345    0.0000 C   0  0  0  0  0  0  0  0  0  0  0  0
    2.6157    0.4110    0.0000 C   0  0  0  0  0  0  0  0  0  0  0  0
    3.3381    0.0125    0.0000 C   0  0  0  0  0  0  0  0  0  0  0  0
  1 10  1  0  0  0  0
  2  9  1  0  0  0  0
  3  8  1  0  0  0  0
  3 15  1  0  0  0  0
  4 14  1  0  0  0  0
  4 16  1  0  0  0  0
  5 14  2  0  0  0  0
  6  7  1  0  0  0  0
  6 13  1  0  0  0  0
  7  8  1  0  0  0  0
  7 11  2  0  0  0  0
  8 12  2  0  0  0  0
  9 10  2  0  0  0  0
  9 11  1  0  0  0  0
 10 12  1  0  0  0  0
 13 14  1  0  0  0  0
 16 17  1  0  0  0  0
M  END
> <PUBCHEM_COMPOUND_ID_TYPE>
0

> <PUBCHEM_TOTAL_CHARGE>
0

> <PUBCHEM_SUBSTANCE_ID>
310944505

> <PUBCHEM_SUBSTANCE_VERSION>
1

> <PUBCHEM_EXT_DATASOURCE_NAME>
4488

> <PUBCHEM_EXT_DATASOURCE_REGID>
SCHEMBL16122580

> <PUBCHEM_SUBSTANCE_COMMENT>
InChI=1S/C11H13BrClNO3/c1-3-17-11(15)6-14-9-5-8(13)7(12)4-10(9)16-2/h4-5,14H,3,6H2,1-2H3
InChIKey=QIQPYRHLHKYTPW-UHFFFAOYSA-N

> <PUBCHEM_SUBSTANCE_SYNONYM>
SCHEMBL16122580

> <PUBCHEM_XREF_EXT_ID>
SCHEMBL16122580

> <PUBCHEM_EXT_DATASOURCE_URL>
https://www.surechembl.org/

> <PUBCHEM_EXT_SUBSTANCE_URL>
https://www.surechembl.org/chemical/SCHEMBL16122580

> <PUBCHEM_CID_ASSOCIATIONS>
117610742  1

> <PUBCHEM_COORDINATE_TYPE>
1
3

$$$$
