310945910
  -OEChem-07211613022D

 46 50  0     1  0  0  0  0  0999 V2000
    5.4325    0.6704    0.0000 O   0  0  0  0  0  0  0  0  0  0  0  0
   -0.0138    1.1957    0.0000 O   0  0  0  0  0  0  0  0  0  0  0  0
    4.2991   -1.2925    0.0000 O   0  0  0  0  0  0  0  0  0  0  0  0
   -0.0138   -1.2925    0.0000 O   0  0  0  0  0  0  0  0  0  0  0  0
   -2.8891   -0.4631    0.0000 O   0  0  0  0  0  0  0  0  0  0  0  0
    2.1426    0.7810    0.0000 O   0  0  0  0  0  0  0  0  0  0  0  0
   -2.1703    0.7810    0.0000 O   0  0  0  0  0  0  0  0  0  0  0  0
    4.2991   -2.9375    0.0000 O   0  0  0  0  0  0  0  0  0  0  0  0
   -1.4376   -0.4493    0.0000 N   0  0  0  0  0  0  0  0  0  0  0  0
    0.7188   -0.0345    0.0000 N   0  0  0  0  0  0  0  0  0  0  0  0
    2.8752   -0.4493    0.0000 N   0  0  0  0  0  0  0  0  0  0  0  0
   -0.7327    0.8225    0.0000 C   0  0  0  0  0  0  0  0  0  0  0  0
    5.0178   -0.0069    0.0000 C   0  0  3  0  0  0  0  0  0  0  0  0
   -0.7327   -0.0207    0.0000 C   0  0  3  0  0  0  0  0  0  0  0  0
   -1.5344    0.8086    0.0000 C   0  0  0  0  0  0  0  0  0  0  0  0
   -1.1473    1.4998    0.0000 C   0  0  0  0  0  0  0  0  0  0  0  0
    4.2991   -0.4216    0.0000 C   0  0  0  0  0  0  0  0  0  0  0  0
    0.0000   -0.4078    0.0000 C   0  0  0  0  0  0  0  0  0  0  0  0
    4.6308    0.6842    0.0000 C   0  0  0  0  0  0  0  0  0  0  0  0
    3.5802   -0.0207    0.0000 C   0  0  3  0  0  0  0  0  0  0  0  0
    1.4514   -0.4216    0.0000 C   0  0  3  0  0  0  0  0  0  0  0  0
    2.1426   -0.0345    0.0000 C   0  0  0  0  0  0  0  0  0  0  0  0
    5.7367   -0.4216    0.0000 C   0  0  0  0  0  0  0  0  0  0  0  0
    3.5940    1.2925    0.0000 C   0  0  0  0  0  0  0  0  0  0  0  0
   -2.1703   -0.0345    0.0000 C   0  0  0  0  0  0  0  0  0  0  0  0
    1.4238   -1.2787    0.0000 C   0  0  0  0  0  0  0  0  0  0  0  0
    2.8752    1.7210    0.0000 C   0  0  0  0  0  0  0  0  0  0  0  0
    2.1564   -1.6657    0.0000 C   0  0  0  0  0  0  0  0  0  0  0  0
    2.8752    2.5228    0.0000 C   0  0  0  0  0  0  0  0  0  0  0  0
    2.1564    1.3063    0.0000 C   0  0  0  0  0  0  0  0  0  0  0  0
    2.1703   -2.5090    0.0000 C   0  0  0  0  0  0  0  0  0  0  0  0
    2.8614   -1.2787    0.0000 C   0  0  0  0  0  0  0  0  0  0  0  0
   -3.6079   -0.0207    0.0000 C   0  0  0  0  0  0  0  0  0  0  0  0
    3.5802   -2.4951    0.0000 C   0  0  0  0  0  0  0  0  0  0  0  0
    2.8752   -2.9098    0.0000 C   0  0  0  0  0  0  0  0  0  0  0  0
    3.5940   -1.6795    0.0000 C   0  0  0  0  0  0  0  0  0  0  0  0
    2.1426    2.9375    0.0000 C   0  0  0  0  0  0  0  0  0  0  0  0
    1.4514    1.7071    0.0000 C   0  0  0  0  0  0  0  0  0  0  0  0
   -4.3129   -0.4354    0.0000 C   0  0  0  0  0  0  0  0  0  0  0  0
    1.4514    2.5366    0.0000 C   0  0  0  0  0  0  0  0  0  0  0  0
   -4.3129   -1.2648    0.0000 C   0  0  0  0  0  0  0  0  0  0  0  0
   -5.0455   -0.0345    0.0000 C   0  0  0  0  0  0  0  0  0  0  0  0
   -5.0316   -1.6657    0.0000 C   0  0  0  0  0  0  0  0  0  0  0  0
   -5.7367   -0.4354    0.0000 C   0  0  0  0  0  0  0  0  0  0  0  0
   -5.7367   -1.2648    0.0000 C   0  0  0  0  0  0  0  0  0  0  0  0
    5.0178   -2.4951    0.0000 C   0  0  0  0  0  0  0  0  0  0  0  0
  1 13  1  0  0  0  0
  1 19  1  0  0  0  0
  2 12  1  0  0  0  0
  3 17  2  0  0  0  0
  4 18  2  0  0  0  0
  5 25  1  0  0  0  0
  5 33  1  0  0  0  0
  6 22  2  0  0  0  0
  7 25  2  0  0  0  0
  8 34  1  0  0  0  0
  8 46  1  0  0  0  0
 14  9  1  1  0  0  0
  9 25  1  0  0  0  0
 10 18  1  0  0  0  0
 21 10  1  6  0  0  0
 20 11  1  1  0  0  0
 11 22  1  0  0  0  0
 12 14  1  0  0  0  0
 12 15  1  0  0  0  0
 12 16  1  0  0  0  0
 13 17  1  1  0  0  0
 13 19  1  0  0  0  0
 13 23  1  6  0  0  0
 14 18  1  0  0  0  0
 15 16  1  0  0  0  0
 17 20  1  0  0  0  0
 20 24  1  0  0  0  0
 21 22  1  0  0  0  0
 21 26  1  0  0  0  0
 24 27  1  0  0  0  0
 26 28  1  0  0  0  0
 27 29  2  0  0  0  0
 27 30  1  0  0  0  0
 28 31  2  0  0  0  0
 28 32  1  0  0  0  0
 29 37  1  0  0  0  0
 30 38  2  0  0  0  0
 31 35  1  0  0  0  0
 32 36  2  0  0  0  0
 33 39  1  0  0  0  0
 34 35  2  0  0  0  0
 34 36  1  0  0  0  0
 37 40  2  0  0  0  0
 38 40  1  0  0  0  0
 39 41  2  0  0  0  0
 39 42  1  0  0  0  0
 41 43  1  0  0  0  0
 42 44  2  0  0  0  0
 43 45  2  0  0  0  0
 44 45  1  0  0  0  0
M  END
> <PUBCHEM_COMPOUND_ID_TYPE>
0

> <PUBCHEM_TOTAL_CHARGE>
0

> <PUBCHEM_SUBSTANCE_ID>
310945910

> <PUBCHEM_SUBSTANCE_VERSION>
1

> <PUBCHEM_EXT_DATASOURCE_NAME>
4488

> <PUBCHEM_EXT_DATASOURCE_REGID>
SCHEMBL16124015

> <PUBCHEM_SUBSTANCE_COMMENT>
InChI=1S/C35H39N3O8/c1-34(22-46-34)30(39)27(19-23-9-5-3-6-10-23)36-31(40)28(20-24-13-15-26(44-2)16-14-24)37-32(41)29(35(43)17-18-35)38-33(42)45-21-25-11-7-4-8-12-25/h3-16,27-29,43H,17-22H2,1-2H3,(H,36,40)(H,37,41)(H,38,42)/t27-,28-,29+,34+/m0/s1
InChIKey=WPTNLGUATCEKLH-HMYMNELBSA-N

> <PUBCHEM_SUBSTANCE_SYNONYM>
SCHEMBL16124015

> <PUBCHEM_XREF_EXT_ID>
SCHEMBL16124015

> <PUBCHEM_EXT_DATASOURCE_URL>
https://www.surechembl.org/

> <PUBCHEM_EXT_SUBSTANCE_URL>
https://www.surechembl.org/chemical/SCHEMBL16124015

> <PUBCHEM_CID_ASSOCIATIONS>
117611894  1

> <PUBCHEM_COORDINATE_TYPE>
1
3

> <PUBCHEM_BONDANNOTATIONS>
21  10  6
20  11  5
13  17  5
13  23  6
14  9  5

$$$$
