310934343
  -OEChem-07211613022D

 29 31  0     0  0  0  0  0  0999 V2000
   -1.4290    0.0000    0.0000 S   0  0  0  0  0  0  0  0  0  0  0  0
    3.7125   -1.3184    0.0000 F   0  0  0  0  0  0  0  0  0  0  0  0
    0.0000    2.2540    0.0000 O   0  0  0  0  0  0  0  0  0  0  0  0
   -2.2540    0.0000    0.0000 O   0  0  0  0  0  0  0  0  0  0  0  0
   -1.8415   -0.7144    0.0000 O   0  0  0  0  0  0  0  0  0  0  0  0
    1.6500    2.2540    0.0000 O   0  0  0  0  0  0  0  0  0  0  0  0
    7.0125    0.1106    0.0000 O   0  0  0  0  0  0  0  0  0  0  0  0
    0.8250    0.8250    0.0000 N   0  0  0  0  0  0  0  0  0  0  0  0
    1.2375    1.5395    0.0000 N   0  0  0  0  0  0  0  0  0  0  0  0
    0.0000    0.8250    0.0000 C   0  0  0  0  0  0  0  0  0  0  0  0
    0.4125    1.5395    0.0000 C   0  0  0  0  0  0  0  0  0  0  0  0
   -0.7144    1.2375    0.0000 C   0  0  0  0  0  0  0  0  0  0  0  0
    0.0000    0.0000    0.0000 C   0  0  0  0  0  0  0  0  0  0  0  0
   -1.4290    0.8250    0.0000 C   0  0  0  0  0  0  0  0  0  0  0  0
   -0.7144   -0.4125    0.0000 C   0  0  0  0  0  0  0  0  0  0  0  0
    2.0625    0.1106    0.0000 C   0  0  0  0  0  0  0  0  0  0  0  0
    3.7125    0.1106    0.0000 C   0  0  0  0  0  0  0  0  0  0  0  0
    1.2375    0.1106    0.0000 C   0  0  0  0  0  0  0  0  0  0  0  0
    3.3000   -0.6040    0.0000 C   0  0  0  0  0  0  0  0  0  0  0  0
    4.5375    0.1106    0.0000 C   0  0  0  0  0  0  0  0  0  0  0  0
    2.4750   -0.6040    0.0000 C   0  0  0  0  0  0  0  0  0  0  0  0
    2.4750    0.8250    0.0000 C   0  0  0  0  0  0  0  0  0  0  0  0
    3.3000    0.8250    0.0000 C   0  0  0  0  0  0  0  0  0  0  0  0
    4.9500   -0.6040    0.0000 C   0  0  0  0  0  0  0  0  0  0  0  0
    4.9500    0.8250    0.0000 C   0  0  0  0  0  0  0  0  0  0  0  0
    6.1875    0.1106    0.0000 C   0  0  0  0  0  0  0  0  0  0  0  0
    5.7750   -0.6040    0.0000 C   0  0  0  0  0  0  0  0  0  0  0  0
    5.7750    0.8250    0.0000 C   0  0  0  0  0  0  0  0  0  0  0  0
    7.4250   -0.6040    0.0000 C   0  0  0  0  0  0  0  0  0  0  0  0
  1  4  2  0  0  0  0
  1  5  2  0  0  0  0
  1 14  1  0  0  0  0
  1 15  1  0  0  0  0
  2 19  1  0  0  0  0
  3 11  2  0  0  0  0
  6  9  1  0  0  0  0
  7 26  1  0  0  0  0
  7 29  1  0  0  0  0
  8 10  1  0  0  0  0
  8 18  1  0  0  0  0
  9 11  1  0  0  0  0
 10 11  1  0  0  0  0
 10 12  1  0  0  0  0
 10 13  1  0  0  0  0
 12 14  1  0  0  0  0
 13 15  1  0  0  0  0
 16 18  1  0  0  0  0
 16 21  1  0  0  0  0
 16 22  2  0  0  0  0
 17 19  1  0  0  0  0
 17 20  1  0  0  0  0
 17 23  2  0  0  0  0
 19 21  2  0  0  0  0
 20 24  2  0  0  0  0
 20 25  1  0  0  0  0
 22 23  1  0  0  0  0
 24 27  1  0  0  0  0
 25 28  2  0  0  0  0
 26 27  2  0  0  0  0
 26 28  1  0  0  0  0
M  END
> <PUBCHEM_COMPOUND_ID_TYPE>
0

> <PUBCHEM_TOTAL_CHARGE>
0

> <PUBCHEM_SUBSTANCE_ID>
310934343

> <PUBCHEM_SUBSTANCE_VERSION>
1

> <PUBCHEM_EXT_DATASOURCE_NAME>
4488

> <PUBCHEM_EXT_DATASOURCE_REGID>
SCHEMBL16111807

> <PUBCHEM_SUBSTANCE_COMMENT>
InChI=1S/C20H23FN2O5S/c1-28-16-5-3-15(4-6-16)17-7-2-14(12-18(17)21)13-22-20(19(24)23-25)8-10-29(26,27)11-9-20/h2-7,12,22,25H,8-11,13H2,1H3,(H,23,24)
InChIKey=QXLFGGHVKIALRG-UHFFFAOYSA-N

> <PUBCHEM_SUBSTANCE_SYNONYM>
SCHEMBL16111807

> <PUBCHEM_XREF_EXT_ID>
SCHEMBL16111807

> <PUBCHEM_EXT_DATASOURCE_URL>
https://www.surechembl.org/

> <PUBCHEM_EXT_SUBSTANCE_URL>
https://www.surechembl.org/chemical/SCHEMBL16111807

> <PUBCHEM_CID_ASSOCIATIONS>
117602576  1

> <PUBCHEM_COORDINATE_TYPE>
1
3

$$$$
