310945589
  -OEChem-07211613022D

  9  8  0     0  0  0  0  0  0999 V2000
   -0.5203   -0.5554    0.0000 O   0  0  0  0  0  0  0  0  0  0  0  0
    1.0266    0.2882    0.0000 N   0  0  0  0  0  0  0  0  0  0  0  0
   -1.3500   -0.7242    0.0000 N   0  0  0  0  0  0  0  0  0  0  0  0
    0.2953    0.7242    0.0000 C   0  0  0  0  0  0  0  0  0  0  0  0
   -0.4218    0.3164    0.0000 C   0  0  0  0  0  0  0  0  0  0  0  0
   -1.7718    0.0351    0.0000 C   0  0  0  0  0  0  0  0  0  0  0  0
    1.0687   -0.5413    0.0000 C   0  0  0  0  0  0  0  0  0  0  0  0
    1.7718    0.7242    0.0000 C   0  0  0  0  0  0  0  0  0  0  0  0
   -1.2235    0.6257    0.0000 C   0  0  0  0  0  0  0  0  0  0  0  0
  1  3  1  0  0  0  0
  1  5  1  0  0  0  0
  2  4  1  0  0  0  0
  2  7  1  0  0  0  0
  2  8  1  0  0  0  0
  3  6  2  0  0  0  0
  4  5  1  0  0  0  0
  6  9  1  0  0  0  0
M  END
> <PUBCHEM_COMPOUND_ID_TYPE>
0

> <PUBCHEM_TOTAL_CHARGE>
0

> <PUBCHEM_SUBSTANCE_ID>
310945589

> <PUBCHEM_SUBSTANCE_VERSION>
1

> <PUBCHEM_EXT_DATASOURCE_NAME>
4488

> <PUBCHEM_EXT_DATASOURCE_REGID>
SCHEMBL16123688

> <PUBCHEM_SUBSTANCE_COMMENT>
InChI=1S/C6H14N2O/c1-4-7-9-6-5-8(2)3/h4H,5-6H2,1-3H3/b7-4-
InChIKey=OSHDWJZFZDQYDH-DAXSKMNVSA-N

> <PUBCHEM_SUBSTANCE_SYNONYM>
SCHEMBL16123688

> <PUBCHEM_XREF_EXT_ID>
SCHEMBL16123688

> <PUBCHEM_EXT_DATASOURCE_URL>
https://www.surechembl.org/

> <PUBCHEM_EXT_SUBSTANCE_URL>
https://www.surechembl.org/chemical/SCHEMBL16123688

> <PUBCHEM_CID_ASSOCIATIONS>
117611616  1

> <PUBCHEM_COORDINATE_TYPE>
1
3

$$$$
