310945969
  -OEChem-07211613022D

 40 43  0     1  0  0  0  0  0999 V2000
    4.0254    0.6790    0.0000 O   0  0  0  0  0  0  0  0  0  0  0  0
    2.8891   -1.2886    0.0000 O   0  0  0  0  0  0  0  0  0  0  0  0
    0.7275    0.7898    0.0000 O   0  0  0  0  0  0  0  0  0  0  0  0
   -1.4203   -1.2886    0.0000 O   0  0  0  0  0  0  0  0  0  0  0  0
    2.8891   -2.9515    0.0000 O   0  0  0  0  0  0  0  0  0  0  0  0
   -2.1409   -2.5357    0.0000 O   0  0  0  0  0  0  0  0  0  0  0  0
    1.4619   -0.4434    0.0000 N   0  0  0  0  0  0  0  0  0  0  0  0
   -0.6997   -0.0277    0.0000 N   0  0  0  0  0  0  0  0  0  0  0  0
   -2.8614   -0.4434    0.0000 N   0  0  3  0  0  0  0  0  0  0  0  0
    3.6097    0.0000    0.0000 C   0  0  3  0  0  0  0  0  0  0  0  0
    2.8753   -0.4434    0.0000 C   0  0  0  0  0  0  0  0  0  0  0  0
    3.2217    0.6790    0.0000 C   0  0  0  0  0  0  0  0  0  0  0  0
    2.1824   -0.0277    0.0000 C   0  0  3  0  0  0  0  0  0  0  0  0
    4.3025   -0.4296    0.0000 C   0  0  0  0  0  0  0  0  0  0  0  0
    2.1824    1.2886    0.0000 C   0  0  0  0  0  0  0  0  0  0  0  0
    0.7275   -0.0555    0.0000 C   0  0  0  0  0  0  0  0  0  0  0  0
    0.0347   -0.4434    0.0000 C   0  0  3  0  0  0  0  0  0  0  0  0
    1.4480    1.7182    0.0000 C   0  0  0  0  0  0  0  0  0  0  0  0
   -1.4203   -0.4157    0.0000 C   0  0  0  0  0  0  0  0  0  0  0  0
   -2.1547   -0.0277    0.0000 C   0  0  3  0  0  0  0  0  0  0  0  0
    0.0070   -1.2748    0.0000 C   0  0  0  0  0  0  0  0  0  0  0  0
   -2.8614   -1.2748    0.0000 C   0  0  3  0  0  0  0  0  0  0  0  0
    0.7413   -1.6905    0.0000 C   0  0  0  0  0  0  0  0  0  0  0  0
    1.4480    2.5497    0.0000 C   0  0  0  0  0  0  0  0  0  0  0  0
    0.7552    1.3026    0.0000 C   0  0  0  0  0  0  0  0  0  0  0  0
   -3.5820   -0.0416    0.0000 C   0  0  0  0  0  0  0  0  0  0  0  0
   -3.5681   -1.6905    0.0000 C   0  0  0  0  0  0  0  0  0  0  0  0
    0.7413   -2.5080    0.0000 C   0  0  0  0  0  0  0  0  0  0  0  0
    1.4619   -1.2886    0.0000 C   0  0  0  0  0  0  0  0  0  0  0  0
   -2.1409    0.7898    0.0000 C   0  0  0  0  0  0  0  0  0  0  0  0
   -2.1409   -1.6767    0.0000 C   0  0  0  0  0  0  0  0  0  0  0  0
   -4.2887   -0.4434    0.0000 C   0  0  0  0  0  0  0  0  0  0  0  0
   -4.3025   -1.2748    0.0000 C   0  0  0  0  0  0  0  0  0  0  0  0
    0.7552    2.9515    0.0000 C   0  0  0  0  0  0  0  0  0  0  0  0
    0.0208    1.7182    0.0000 C   0  0  0  0  0  0  0  0  0  0  0  0
    2.1686   -2.5080    0.0000 C   0  0  0  0  0  0  0  0  0  0  0  0
    1.4757   -2.9238    0.0000 C   0  0  0  0  0  0  0  0  0  0  0  0
    2.1686   -1.6905    0.0000 C   0  0  0  0  0  0  0  0  0  0  0  0
    0.0208    2.5357    0.0000 C   0  0  0  0  0  0  0  0  0  0  0  0
    3.6373   -2.5357    0.0000 C   0  0  0  0  0  0  0  0  0  0  0  0
  1 10  1  0  0  0  0
  1 12  1  0  0  0  0
  2 11  2  0  0  0  0
  3 16  2  0  0  0  0
  4 19  2  0  0  0  0
  5 36  1  0  0  0  0
  5 40  1  0  0  0  0
  6 31  1  0  0  0  0
 13  7  1  1  0  0  0
  7 16  1  0  0  0  0
 17  8  1  6  0  0  0
  8 19  1  0  0  0  0
  9 20  1  0  0  0  0
  9 22  1  0  0  0  0
  9 26  1  0  0  0  0
 10 11  1  1  0  0  0
 10 12  1  0  0  0  0
 10 14  1  6  0  0  0
 11 13  1  0  0  0  0
 13 15  1  0  0  0  0
 15 18  1  0  0  0  0
 16 17  1  0  0  0  0
 17 21  1  0  0  0  0
 18 24  2  0  0  0  0
 18 25  1  0  0  0  0
 19 20  1  0  0  0  0
 20 30  1  1  0  0  0
 21 23  1  0  0  0  0
 22 27  1  0  0  0  0
 22 31  1  6  0  0  0
 23 28  2  0  0  0  0
 23 29  1  0  0  0  0
 24 34  1  0  0  0  0
 25 35  2  0  0  0  0
 26 32  1  0  0  0  0
 27 33  1  0  0  0  0
 28 37  1  0  0  0  0
 29 38  2  0  0  0  0
 32 33  1  0  0  0  0
 34 39  2  0  0  0  0
 35 39  1  0  0  0  0
 36 37  2  0  0  0  0
 36 38  1  0  0  0  0
M  END
> <PUBCHEM_COMPOUND_ID_TYPE>
0

> <PUBCHEM_TOTAL_CHARGE>
0

> <PUBCHEM_SUBSTANCE_ID>
310945969

> <PUBCHEM_SUBSTANCE_VERSION>
1

> <PUBCHEM_EXT_DATASOURCE_NAME>
4488

> <PUBCHEM_EXT_DATASOURCE_REGID>
SCHEMBL16124074

> <PUBCHEM_SUBSTANCE_COMMENT>
InChI=1S/C31H41N3O6/c1-21(34-16-8-7-11-24(34)19-35)29(37)33-27(18-23-12-14-25(39-3)15-13-23)30(38)32-26(28(36)31(2)20-40-31)17-22-9-5-4-6-10-22/h4-6,9-10,12-15,21,24,26-27,35H,7-8,11,16-20H2,1-3H3,(H,32,38)(H,33,37)/t21-,24-,26-,27-,31+/m0/s1
InChIKey=LXXLWOWWQCGGQN-HUEDVWQBSA-N

> <PUBCHEM_SUBSTANCE_SYNONYM>
SCHEMBL16124074

> <PUBCHEM_XREF_EXT_ID>
SCHEMBL16124074

> <PUBCHEM_EXT_DATASOURCE_URL>
https://www.surechembl.org/

> <PUBCHEM_EXT_SUBSTANCE_URL>
https://www.surechembl.org/chemical/SCHEMBL16124074

> <PUBCHEM_CID_ASSOCIATIONS>
117611945  1

> <PUBCHEM_COORDINATE_TYPE>
1
3

> <PUBCHEM_BONDANNOTATIONS>
10  11  5
10  14  6
20  30  5
22  31  6
13  7  5
17  8  6

$$$$
