310941065
  -OEChem-07211613022D

 41 44  0     1  0  0  0  0  0999 V2000
    5.2504    1.1947    0.0000 O   0  0  0  0  0  0  0  0  0  0  0  0
    4.1090   -0.7837    0.0000 O   0  0  0  0  0  0  0  0  0  0  0  0
    1.7046    1.1794    0.0000 O   0  0  0  0  0  0  0  0  0  0  0  0
   -0.4718   -0.9055    0.0000 O   0  0  0  0  0  0  0  0  0  0  0  0
   -2.6480    1.1794    0.0000 O   0  0  0  0  0  0  0  0  0  0  0  0
   -5.5548   -1.3164    0.0000 O   0  0  0  0  0  0  0  0  0  0  0  0
    2.4350   -0.0685    0.0000 N   0  0  0  0  0  0  0  0  0  0  0  0
    0.2587    0.3577    0.0000 N   0  0  0  0  0  0  0  0  0  0  0  0
   -1.9176   -0.0685    0.0000 N   0  0  0  0  0  0  0  0  0  0  0  0
    4.6113   -2.9905    0.0000 N   0  0  0  0  0  0  0  0  0  0  0  0
    4.8244    0.5251    0.0000 C   0  0  3  0  0  0  0  0  0  0  0  0
    4.0939    0.0989    0.0000 C   0  0  0  0  0  0  0  0  0  0  0  0
    4.4439    1.2099    0.0000 C   0  0  0  0  0  0  0  0  0  0  0  0
    3.3786    0.5099    0.0000 C   0  0  3  0  0  0  0  0  0  0  0  0
    5.5548    0.0837    0.0000 C   0  0  0  0  0  0  0  0  0  0  0  0
    3.3786    1.5903    0.0000 C   0  0  0  0  0  0  0  0  0  0  0  0
    1.7046    0.3577    0.0000 C   0  0  0  0  0  0  0  0  0  0  0  0
    1.0044   -0.0380    0.0000 C   0  0  3  0  0  0  0  0  0  0  0  0
    2.6480    2.0166    0.0000 C   0  0  0  0  0  0  0  0  0  0  0  0
    0.9740   -0.8902    0.0000 C   0  0  0  0  0  0  0  0  0  0  0  0
   -0.4566   -0.0228    0.0000 C   0  0  0  0  0  0  0  0  0  0  0  0
    1.7197   -1.2860    0.0000 C   0  0  0  0  0  0  0  0  0  0  0  0
    1.8872    1.6969    0.0000 C   0  0  0  0  0  0  0  0  0  0  0  0
    2.5719    2.8231    0.0000 C   0  0  0  0  0  0  0  0  0  0  0  0
   -1.2022    0.3728    0.0000 C   0  0  3  0  0  0  0  0  0  0  0  0
   -2.6328    0.3577    0.0000 C   0  0  0  0  0  0  0  0  0  0  0  0
    1.3544    2.2752    0.0000 C   0  0  0  0  0  0  0  0  0  0  0  0
    1.7654    2.9905    0.0000 C   0  0  0  0  0  0  0  0  0  0  0  0
   -3.3634   -0.0380    0.0000 C   0  0  0  0  0  0  0  0  0  0  0  0
    2.4350   -0.8902    0.0000 C   0  0  0  0  0  0  0  0  0  0  0  0
    1.7350   -2.1382    0.0000 C   0  0  0  0  0  0  0  0  0  0  0  0
    3.1503   -2.1231    0.0000 C   0  0  0  0  0  0  0  0  0  0  0  0
    3.1655   -1.3012    0.0000 C   0  0  0  0  0  0  0  0  0  0  0  0
    2.4501   -2.5339    0.0000 C   0  0  0  0  0  0  0  0  0  0  0  0
   -4.1090    0.3577    0.0000 C   0  0  0  0  0  0  0  0  0  0  0  0
   -3.3634   -0.8751    0.0000 C   0  0  0  0  0  0  0  0  0  0  0  0
   -1.1871    1.1947    0.0000 C   0  0  0  0  0  0  0  0  0  0  0  0
   -4.7940   -0.8751    0.0000 C   0  0  0  0  0  0  0  0  0  0  0  0
   -4.7940   -0.0533    0.0000 C   0  0  0  0  0  0  0  0  0  0  0  0
   -4.0786   -1.2860    0.0000 C   0  0  0  0  0  0  0  0  0  0  0  0
    3.8807   -2.5644    0.0000 C   0  0  0  0  0  0  0  0  0  0  0  0
  1 11  1  0  0  0  0
  1 13  1  0  0  0  0
  2 12  2  0  0  0  0
  3 17  2  0  0  0  0
  4 21  2  0  0  0  0
  5 26  2  0  0  0  0
 38  6  1  6  0  0  0
 14  7  1  1  0  0  0
  7 17  1  0  0  0  0
 18  8  1  6  0  0  0
  8 21  1  0  0  0  0
  9 25  1  0  0  0  0
  9 26  1  0  0  0  0
 10 41  3  0  0  0  0
 11 12  1  1  0  0  0
 11 13  1  0  0  0  0
 11 15  1  6  0  0  0
 12 14  1  0  0  0  0
 14 16  1  0  0  0  0
 16 19  1  0  0  0  0
 17 18  1  0  0  0  0
 18 20  1  0  0  0  0
 19 23  1  0  0  0  0
 19 24  1  0  0  0  0
 20 22  1  0  0  0  0
 21 25  1  0  0  0  0
 22 30  2  0  0  0  0
 22 31  1  0  0  0  0
 23 27  1  0  0  0  0
 24 28  1  0  0  0  0
 25 37  1  6  0  0  0
 29 26  1  1  0  0  0
 27 28  1  0  0  0  0
 29 35  1  0  0  0  0
 29 36  1  0  0  0  0
 30 33  1  0  0  0  0
 31 34  2  0  0  0  0
 32 33  2  0  0  0  0
 32 34  1  0  0  0  0
 32 41  1  0  0  0  0
 35 39  1  0  0  0  0
 36 40  1  0  0  0  0
 38 39  1  0  0  0  0
 38 40  1  0  0  0  0
M  END
> <PUBCHEM_COMPOUND_ID_TYPE>
0

> <PUBCHEM_TOTAL_CHARGE>
0

> <PUBCHEM_SUBSTANCE_ID>
310941065

> <PUBCHEM_SUBSTANCE_VERSION>
1

> <PUBCHEM_EXT_DATASOURCE_NAME>
4488

> <PUBCHEM_EXT_DATASOURCE_REGID>
SCHEMBL16119025

> <PUBCHEM_SUBSTANCE_COMMENT>
InChI=1S/C31H42N4O6/c1-19(33-29(39)23-11-13-24(36)14-12-23)28(38)35-26(16-21-7-9-22(17-32)10-8-21)30(40)34-25(15-20-5-3-4-6-20)27(37)31(2)18-41-31/h7-10,19-20,23-26,36H,3-6,11-16,18H2,1-2H3,(H,33,39)(H,34,40)(H,35,38)/t19-,23-,24-,25+,26+,31-/m1/s1
InChIKey=JOKICPUZQCKLTH-XLOWQKBUSA-N

> <PUBCHEM_SUBSTANCE_SYNONYM>
SCHEMBL16119025

> <PUBCHEM_XREF_EXT_ID>
SCHEMBL16119025

> <PUBCHEM_EXT_DATASOURCE_URL>
https://www.surechembl.org/

> <PUBCHEM_EXT_SUBSTANCE_URL>
https://www.surechembl.org/chemical/SCHEMBL16119025

> <PUBCHEM_CID_ASSOCIATIONS>
117607956  1

> <PUBCHEM_COORDINATE_TYPE>
1
3

> <PUBCHEM_BONDANNOTATIONS>
11  12  5
11  15  6
25  37  6
29  26  5
38  6  6
14  7  5
18  8  6

$$$$
