310942446
  -OEChem-07211613022D

170186  0     1  0  0  0  0  0999 V2000
   13.2060   -0.2834    0.0000 O   0  0  0  0  0  0  0  0  0  0  0  0
  -13.1448   -5.5689    0.0000 O   0  0  0  0  0  0  0  0  0  0  0  0
   15.2897    0.4366    0.0000 O   0  0  0  0  0  0  0  0  0  0  0  0
  -14.7074   -7.1469    0.0000 O   0  0  0  0  0  0  0  0  0  0  0  0
   14.0487    2.5968    0.0000 O   0  0  0  0  0  0  0  0  0  0  0  0
  -12.6852   -8.6024    0.0000 O   0  0  0  0  0  0  0  0  0  0  0  0
   15.2897   -0.9882    0.0000 O   0  0  0  0  0  0  0  0  0  0  0  0
  -15.2897   -5.8294    0.0000 O   0  0  0  0  0  0  0  0  0  0  0  0
   12.7159   -1.4937    0.0000 O   0  0  0  0  0  0  0  0  0  0  0  0
  -13.1448   -4.1288    0.0000 O   0  0  0  0  0  0  0  0  0  0  0  0
    9.8969   -0.2988    0.0000 O   0  0  0  0  0  0  0  0  0  0  0  0
  -10.1267   -4.5424    0.0000 O   0  0  0  0  0  0  0  0  0  0  0  0
    8.1963   -2.9032    0.0000 O   0  0  0  0  0  0  0  0  0  0  0  0
   -9.1462   -1.5856    0.0000 O   0  0  0  0  0  0  0  0  0  0  0  0
   -2.5432    8.7556    0.0000 O   0  0  0  0  0  0  0  0  0  0  0  0
   -3.7841    2.2904    0.0000 O   0  0  0  0  0  0  0  0  0  0  0  0
   -0.7201   -0.6511    0.0000 O   0  0  0  0  0  0  0  0  0  0  0  0
   -4.1365    1.1414    0.0000 O   0  0  0  0  0  0  0  0  0  0  0  0
   -3.7688   -0.2528    0.0000 O   0  0  0  0  0  0  0  0  0  0  0  0
   12.8230    1.8768    0.0000 N   0  0  0  0  0  0  0  0  0  0  0  0
  -11.8273   -7.4379    0.0000 N   0  0  0  0  0  0  0  0  0  0  0  0
   10.9233    0.8503    0.0000 N   0  0  0  0  0  0  0  0  0  0  0  0
  -10.5097   -5.7221    0.0000 N   0  0  0  0  0  0  0  0  0  0  0  0
   10.9693   -1.0954    0.0000 N   0  0  0  0  0  0  0  0  0  0  0  0
  -11.3216   -4.0369    0.0000 N   0  0  0  0  0  0  0  0  0  0  0  0
    7.2005   -1.8920    0.0000 N   0  0  0  0  0  0  0  0  0  0  0  0
   -7.8899   -2.3057    0.0000 N   0  0  0  0  0  0  0  0  0  0  0  0
    5.0557   -2.3057    0.0000 N   0  0  3  0  0  0  0  0  0  0  0  0
   -5.7298   -1.8920    0.0000 N   0  0  3  0  0  0  0  0  0  0  0  0
   -1.6852    7.3154    0.0000 N   0  0  0  0  0  0  0  0  0  0  0  0
   -0.0153    8.7556    0.0000 N   0  0  0  0  0  0  0  0  0  0  0  0
   -0.0153    7.3154    0.0000 N   0  0  0  0  0  0  0  0  0  0  0  0
   -1.2716    9.4755    0.0000 N   0  0  0  0  0  0  0  0  0  0  0  0
   -3.5696   -2.3057    0.0000 N   0  0  3  0  0  0  0  0  0  0  0  0
    2.8955   -1.8920    0.0000 N   0  0  3  0  0  0  0  0  0  0  0  0
    5.6225   -4.4658    0.0000 N   0  0  0  0  0  0  0  0  0  0  0  0
   -5.1629    0.2681    0.0000 N   0  0  0  0  0  0  0  0  0  0  0  0
    0.1379   10.1956    0.0000 N   0  0  0  0  0  0  0  0  0  0  0  0
   -1.1184    5.1706    0.0000 N   0  0  0  0  0  0  0  0  0  0  0  0
   -1.4248   -1.8920    0.0000 N   0  0  0  0  0  0  0  0  0  0  0  0
    0.7354   -2.3057    0.0000 N   0  0  3  0  0  0  0  0  0  0  0  0
   -2.3593    1.5703    0.0000 N   0  0  0  0  0  0  0  0  0  0  0  0
    3.6156    0.1915    0.0000 N   0  0  0  0  0  0  0  0  0  0  0  0
   -3.0028   -4.4658    0.0000 N   0  0  0  0  0  0  0  0  0  0  0  0
   -5.7298    2.4282    0.0000 N   0  0  0  0  0  0  0  0  0  0  0  0
   -3.5696   -6.6107    0.0000 N   0  0  3  0  0  0  0  0  0  0  0  0
    1.6086   -4.3892    0.0000 N   0  0  0  0  0  0  0  0  0  0  0  0
   -5.1629    4.5731    0.0000 N   0  0  0  0  0  0  0  0  0  0  0  0
   -3.0028   -8.7708    0.0000 N   0  0  0  0  0  0  0  0  0  0  0  0
   13.6351    0.4520    0.0000 C   0  0  0  0  0  0  0  0  0  0  0  0
  -13.1755   -6.4575    0.0000 C   0  0  0  0  0  0  0  0  0  0  0  0
   14.0334   -0.2528    0.0000 C   0  0  3  0  0  0  0  0  0  0  0  0
  -13.8495   -5.9672    0.0000 C   0  0  3  0  0  0  0  0  0  0  0  0
   12.3941    1.1567    0.0000 C   0  0  0  0  0  0  0  0  0  0  0  0
  -11.7353   -6.6107    0.0000 C   0  0  0  0  0  0  0  0  0  0  0  0
   14.0487    1.1873    0.0000 C   0  0  0  0  0  0  0  0  0  0  0  0
  -13.2674   -7.2848    0.0000 C   0  0  0  0  0  0  0  0  0  0  0  0
   11.5821    1.3405    0.0000 C   0  0  0  0  0  0  0  0  0  0  0  0
  -10.9386   -6.4422    0.0000 C   0  0  0  0  0  0  0  0  0  0  0  0
   13.6351    1.8768    0.0000 C   0  0  0  0  0  0  0  0  0  0  0  0
  -12.5779   -7.7597    0.0000 C   0  0  0  0  0  0  0  0  0  0  0  0
   12.8077    0.4520    0.0000 C   0  0  0  0  0  0  0  0  0  0  0  0
  -12.4094   -6.1204    0.0000 C   0  0  0  0  0  0  0  0  0  0  0  0
   11.5055    2.1678    0.0000 C   0  0  0  0  0  0  0  0  0  0  0  0
  -10.5251   -7.1469    0.0000 C   0  0  0  0  0  0  0  0  0  0  0  0
   14.8760   -0.2681    0.0000 C   0  0  0  0  0  0  0  0  0  0  0  0
  -14.6002   -6.3043    0.0000 C   0  0  0  0  0  0  0  0  0  0  0  0
   12.2409    2.4896    0.0000 C   0  0  0  0  0  0  0  0  0  0  0  0
  -11.0766   -7.7750    0.0000 C   0  0  0  0  0  0  0  0  0  0  0  0
   14.8913    1.1567    0.0000 C   0  0  0  0  0  0  0  0  0  0  0  0
  -14.0180   -7.6218    0.0000 C   0  0  0  0  0  0  0  0  0  0  0  0
   13.6504   -1.0188    0.0000 C   0  0  0  0  0  0  0  0  0  0  0  0
  -13.7576   -5.1553    0.0000 C   0  0  0  0  0  0  0  0  0  0  0  0
   10.7549    2.5048    0.0000 C   0  0  0  0  0  0  0  0  0  0  0  0
   -9.6977   -7.1622    0.0000 C   0  0  0  0  0  0  0  0  0  0  0  0
   10.1420    1.2026    0.0000 C   0  0  0  0  0  0  0  0  0  0  0  0
   -9.6824   -5.7221    0.0000 C   0  0  0  0  0  0  0  0  0  0  0  0
   10.0654    2.0146    0.0000 C   0  0  0  0  0  0  0  0  0  0  0  0
   -9.2688   -6.4268    0.0000 C   0  0  0  0  0  0  0  0  0  0  0  0
   12.5166   -0.6971    0.0000 C   0  0  0  0  0  0  0  0  0  0  0  0
  -12.7005   -4.8336    0.0000 C   0  0  0  0  0  0  0  0  0  0  0  0
    9.4833    0.7124    0.0000 C   0  0  0  0  0  0  0  0  0  0  0  0
   -9.2688   -5.0174    0.0000 C   0  0  0  0  0  0  0  0  0  0  0  0
    9.3147    2.3364    0.0000 C   0  0  0  0  0  0  0  0  0  0  0  0
   -8.4415   -6.4422    0.0000 C   0  0  0  0  0  0  0  0  0  0  0  0
   14.0640   -1.7082    0.0000 C   0  0  0  0  0  0  0  0  0  0  0  0
  -14.4164   -4.6804    0.0000 C   0  0  0  0  0  0  0  0  0  0  0  0
   11.6741   -0.6818    0.0000 C   0  0  0  0  0  0  0  0  0  0  0  0
  -11.9192   -4.6344    0.0000 C   0  0  0  0  0  0  0  0  0  0  0  0
    8.7479    1.0494    0.0000 C   0  0  0  0  0  0  0  0  0  0  0  0
   -8.4415   -5.0174    0.0000 C   0  0  0  0  0  0  0  0  0  0  0  0
    8.6559    1.8614    0.0000 C   0  0  0  0  0  0  0  0  0  0  0  0
   -8.0278   -5.7221    0.0000 C   0  0  0  0  0  0  0  0  0  0  0  0
   10.1267   -1.0954    0.0000 C   0  0  0  0  0  0  0  0  0  0  0  0
  -10.5251   -3.8224    0.0000 C   0  0  0  0  0  0  0  0  0  0  0  0
    9.4372   -1.5090    0.0000 C   0  0  0  0  0  0  0  0  0  0  0  0
   -9.9275   -3.2402    0.0000 C   0  0  0  0  0  0  0  0  0  0  0  0
    8.5947   -1.5090    0.0000 C   0  0  0  0  0  0  0  0  0  0  0  0
   -9.1462   -3.0258    0.0000 C   0  0  0  0  0  0  0  0  0  0  0  0
    7.9972   -2.0912    0.0000 C   0  0  0  0  0  0  0  0  0  0  0  0
   -8.7173   -2.3057    0.0000 C   0  0  0  0  0  0  0  0  0  0  0  0
    6.4805   -2.3057    0.0000 C   0  0  0  0  0  0  0  0  0  0  0  0
   -7.1699   -1.8920    0.0000 C   0  0  0  0  0  0  0  0  0  0  0  0
    5.7451   -1.8920    0.0000 C   0  0  0  0  0  0  0  0  0  0  0  0
   -6.4499   -2.3057    0.0000 C   0  0  0  0  0  0  0  0  0  0  0  0
    4.3050   -1.8920    0.0000 C   0  0  0  0  0  0  0  0  0  0  0  0
   -5.0097   -2.3057    0.0000 C   0  0  0  0  0  0  0  0  0  0  0  0
    5.4540   -3.0411    0.0000 C   0  0  0  0  0  0  0  0  0  0  0  0
   -5.3315   -1.1567    0.0000 C   0  0  0  0  0  0  0  0  0  0  0  0
   -1.2869    8.0661    0.0000 C   0  0  0  0  0  0  0  0  0  0  0  0
    3.6156   -2.3057    0.0000 C   0  0  0  0  0  0  0  0  0  0  0  0
   -4.3203   -1.8920    0.0000 C   0  0  0  0  0  0  0  0  0  0  0  0
   -0.4443    8.0508    0.0000 C   0  0  0  0  0  0  0  0  0  0  0  0
    5.0404   -3.7458    0.0000 C   0  0  0  0  0  0  0  0  0  0  0  0
   -5.7298   -0.4673    0.0000 C   0  0  0  0  0  0  0  0  0  0  0  0
   -1.6699    8.7556    0.0000 C   0  0  0  0  0  0  0  0  0  0  0  0
   -1.2869    6.6260    0.0000 C   0  0  0  0  0  0  0  0  0  0  0  0
   -0.4443    9.4755    0.0000 C   0  0  0  0  0  0  0  0  0  0  0  0
   -0.4443    6.6107    0.0000 C   0  0  0  0  0  0  0  0  0  0  0  0
   -1.6852    5.8753    0.0000 C   0  0  0  0  0  0  0  0  0  0  0  0
    5.0251   -5.1859    0.0000 C   0  0  0  0  0  0  0  0  0  0  0  0
   -2.8802   -1.8920    0.0000 C   0  0  0  0  0  0  0  0  0  0  0  0
    2.1755   -2.3057    0.0000 C   0  0  0  0  0  0  0  0  0  0  0  0
    2.8955   -1.0648    0.0000 C   0  0  0  0  0  0  0  0  0  0  0  0
   -3.1713   -3.0104    0.0000 C   0  0  0  0  0  0  0  0  0  0  0  0
   -1.7005    4.4506    0.0000 C   0  0  0  0  0  0  0  0  0  0  0  0
   -5.7298    0.9728    0.0000 C   0  0  0  0  0  0  0  0  0  0  0  0
    4.2131   -5.1859    0.0000 C   0  0  0  0  0  0  0  0  0  0  0  0
    5.2395   -5.9826    0.0000 C   0  0  0  0  0  0  0  0  0  0  0  0
   -2.1295   -2.3057    0.0000 C   0  0  0  0  0  0  0  0  0  0  0  0
    1.4248   -1.8920    0.0000 C   0  0  0  0  0  0  0  0  0  0  0  0
   -2.5125    4.4352    0.0000 C   0  0  0  0  0  0  0  0  0  0  0  0
   -1.2869    3.7152    0.0000 C   0  0  0  0  0  0  0  0  0  0  0  0
   -2.5125    3.0258    0.0000 C   0  0  0  0  0  0  0  0  0  0  0  0
    3.6003   -0.6511    0.0000 C   0  0  0  0  0  0  0  0  0  0  0  0
    3.9986   -5.9826    0.0000 C   0  0  0  0  0  0  0  0  0  0  0  0
   -3.5849   -3.7458    0.0000 C   0  0  0  0  0  0  0  0  0  0  0  0
   -2.9262    3.7305    0.0000 C   0  0  0  0  0  0  0  0  0  0  0  0
   -1.7005    3.0104    0.0000 C   0  0  0  0  0  0  0  0  0  0  0  0
   -2.9262    2.2904    0.0000 C   0  0  0  0  0  0  0  0  0  0  0  0
   -5.3315    1.7235    0.0000 C   0  0  0  0  0  0  0  0  0  0  0  0
   -1.4401   -1.0494    0.0000 C   0  0  0  0  0  0  0  0  0  0  0  0
   -0.7047   -2.3057    0.0000 C   0  0  0  0  0  0  0  0  0  0  0  0
    0.0000   -1.8920    0.0000 C   0  0  0  0  0  0  0  0  0  0  0  0
   -2.7423    0.7737    0.0000 C   0  0  3  0  0  0  0  0  0  0  0  0
   -2.1449   -0.6358    0.0000 C   0  0  0  0  0  0  0  0  0  0  0  0
    0.7354   -3.1330    0.0000 C   0  0  0  0  0  0  0  0  0  0  0  0
   -2.1449    0.1762    0.0000 C   0  0  0  0  0  0  0  0  0  0  0  0
    4.0293    0.9269    0.0000 C   0  0  0  0  0  0  0  0  0  0  0  0
   -3.5237    0.5592    0.0000 C   0  0  0  0  0  0  0  0  0  0  0  0
   -3.5849   -5.1706    0.0000 C   0  0  0  0  0  0  0  0  0  0  0  0
    3.8147    1.6929    0.0000 C   0  0  0  0  0  0  0  0  0  0  0  0
    4.8412    0.9116    0.0000 C   0  0  0  0  0  0  0  0  0  0  0  0
    1.4401   -3.5466    0.0000 C   0  0  0  0  0  0  0  0  0  0  0  0
   -5.3315    3.1483    0.0000 C   0  0  0  0  0  0  0  0  0  0  0  0
    5.0557    1.6929    0.0000 C   0  0  0  0  0  0  0  0  0  0  0  0
   -3.1713   -5.8906    0.0000 C   0  0  0  0  0  0  0  0  0  0  0  0
   -5.7298    3.8530    0.0000 C   0  0  0  0  0  0  0  0  0  0  0  0
   -4.4275   -6.6107    0.0000 C   0  0  0  0  0  0  0  0  0  0  0  0
   -3.1713   -7.3461    0.0000 C   0  0  0  0  0  0  0  0  0  0  0  0
   -4.9331   -5.9979    0.0000 C   0  0  0  0  0  0  0  0  0  0  0  0
   -4.8259   -7.3154    0.0000 C   0  0  0  0  0  0  0  0  0  0  0  0
   -5.5306   -6.9171    0.0000 C   0  0  0  0  0  0  0  0  0  0  0  0
   -6.0515    5.0021    0.0000 C   0  0  0  0  0  0  0  0  0  0  0  0
   -3.5849   -8.0508    0.0000 C   0  0  0  0  0  0  0  0  0  0  0  0
   -6.8635    5.0021    0.0000 C   0  0  0  0  0  0  0  0  0  0  0  0
   -5.8370    5.7834    0.0000 C   0  0  0  0  0  0  0  0  0  0  0  0
   -7.0780    5.7834    0.0000 C   0  0  0  0  0  0  0  0  0  0  0  0
   -3.5849   -9.4909    0.0000 C   0  0  0  0  0  0  0  0  0  0  0  0
   -3.1713  -10.1956    0.0000 C   0  0  0  0  0  0  0  0  0  0  0  0
 52  1  1  1  0  0  0
  1 80  1  0  0  0  0
 53  2  1  1  0  0  0
  2 81  1  0  0  0  0
  3 66  1  0  0  0  0
  3 70  1  0  0  0  0
  4 67  1  0  0  0  0
  4 71  1  0  0  0  0
  5 60  2  0  0  0  0
  6 61  2  0  0  0  0
  7 66  2  0  0  0  0
  8 67  2  0  0  0  0
  9 80  2  0  0  0  0
 10 81  2  0  0  0  0
 11 94  2  0  0  0  0
 12 95  2  0  0  0  0
 13100  2  0  0  0  0
 14101  2  0  0  0  0
 15116  2  0  0  0  0
 16140  2  0  0  0  0
 17142  2  0  0  0  0
 18150  2  0  0  0  0
 19150  1  0  0  0  0
 20 54  1  0  0  0  0
 20 60  1  0  0  0  0
 20 68  1  0  0  0  0
 21 55  1  0  0  0  0
 21 61  1  0  0  0  0
 21 69  1  0  0  0  0
 22 58  2  0  0  0  0
 22 76  1  0  0  0  0
 23 59  2  0  0  0  0
 23 77  1  0  0  0  0
 24 88  1  0  0  0  0
 24 94  1  0  0  0  0
 25 89  1  0  0  0  0
 25 95  1  0  0  0  0
 26100  1  0  0  0  0
 26102  1  0  0  0  0
 27101  1  0  0  0  0
 27103  1  0  0  0  0
 28104  1  0  0  0  0
 28106  1  0  0  0  0
 28108  1  0  0  0  0
 29105  1  0  0  0  0
 29107  1  0  0  0  0
 29109  1  0  0  0  0
 30110  1  0  0  0  0
 30117  2  0  0  0  0
 31113  1  0  0  0  0
 31118  2  0  0  0  0
 32113  1  0  0  0  0
 32119  2  0  0  0  0
 33116  1  0  0  0  0
 33118  1  0  0  0  0
 34112  1  0  0  0  0
 34122  1  0  0  0  0
 34125  1  0  0  0  0
 35111  1  0  0  0  0
 35123  1  0  0  0  0
 35124  1  0  0  0  0
 36114  1  0  0  0  0
 36121  1  0  0  0  0
 37115  1  0  0  0  0
 37127  1  0  0  0  0
 38118  1  0  0  0  0
 39120  1  0  0  0  0
 39126  1  0  0  0  0
 40130  1  0  0  0  0
 40142  1  0  0  0  0
 40143  1  0  0  0  0
 41131  1  0  0  0  0
 41144  1  0  0  0  0
 41147  1  0  0  0  0
 42140  1  0  0  0  0
 42145  1  0  0  0  0
 43135  1  0  0  0  0
 43149  1  0  0  0  0
 44137  1  0  0  0  0
 44151  1  0  0  0  0
 45141  1  0  0  0  0
 45155  1  0  0  0  0
 46157  1  0  0  0  0
 46159  1  0  0  0  0
 46160  1  0  0  0  0
 47154  1  0  0  0  0
 48158  1  0  0  0  0
 48164  1  0  0  0  0
 49165  1  0  0  0  0
 49169  1  0  0  0  0
 50 52  1  0  0  0  0
 50 56  2  0  0  0  0
 50 62  1  0  0  0  0
 51 53  1  0  0  0  0
 51 57  2  0  0  0  0
 51 63  1  0  0  0  0
 52 66  1  0  0  0  0
 52 72  1  6  0  0  0
 53 67  1  0  0  0  0
 53 73  1  6  0  0  0
 54 58  1  0  0  0  0
 54 62  2  0  0  0  0
 55 59  1  0  0  0  0
 55 63  2  0  0  0  0
 56 60  1  0  0  0  0
 56 70  1  0  0  0  0
 57 61  1  0  0  0  0
 57 71  1  0  0  0  0
 58 64  1  0  0  0  0
 59 65  1  0  0  0  0
 64 68  1  0  0  0  0
 64 74  2  0  0  0  0
 65 69  1  0  0  0  0
 65 75  2  0  0  0  0
 72 86  1  0  0  0  0
 73 87  1  0  0  0  0
 74 78  1  0  0  0  0
 75 79  1  0  0  0  0
 76 78  1  0  0  0  0
 76 82  2  0  0  0  0
 77 79  1  0  0  0  0
 77 83  2  0  0  0  0
 78 84  2  0  0  0  0
 79 85  2  0  0  0  0
 80 88  1  0  0  0  0
 81 89  1  0  0  0  0
 82 90  1  0  0  0  0
 83 91  1  0  0  0  0
 84 92  1  0  0  0  0
 85 93  1  0  0  0  0
 90 92  2  0  0  0  0
 91 93  2  0  0  0  0
 94 96  1  0  0  0  0
 95 97  1  0  0  0  0
 96 98  1  0  0  0  0
 97 99  1  0  0  0  0
 98100  1  0  0  0  0
 99101  1  0  0  0  0
102104  1  0  0  0  0
103105  1  0  0  0  0
106111  1  0  0  0  0
107112  1  0  0  0  0
108114  1  0  0  0  0
109115  1  0  0  0  0
110113  2  0  0  0  0
110116  1  0  0  0  0
117119  1  0  0  0  0
117120  1  0  0  0  0
121128  1  0  0  0  0
121129  1  0  0  0  0
122130  1  0  0  0  0
123131  1  0  0  0  0
124135  1  0  0  0  0
125137  1  0  0  0  0
126132  2  0  0  0  0
126133  1  0  0  0  0
127141  1  0  0  0  0
128136  1  0  0  0  0
129136  1  0  0  0  0
132138  1  0  0  0  0
133139  2  0  0  0  0
134138  2  0  0  0  0
134139  1  0  0  0  0
134140  1  0  0  0  0
142146  1  0  0  0  0
143144  1  0  0  0  0
145148  1  0  0  0  0
145150  1  0  0  0  0
146148  1  0  0  0  0
147154  1  0  0  0  0
149152  1  0  0  0  0
149153  1  0  0  0  0
151157  1  0  0  0  0
152156  1  0  0  0  0
153156  1  0  0  0  0
155158  1  0  0  0  0
159161  1  0  0  0  0
159162  1  0  0  0  0
160165  1  0  0  0  0
161163  1  0  0  0  0
162163  1  0  0  0  0
164166  1  0  0  0  0
164167  1  0  0  0  0
166168  1  0  0  0  0
167168  1  0  0  0  0
169170  1  0  0  0  0
M  END
> <PUBCHEM_COMPOUND_ID_TYPE>
0

> <PUBCHEM_TOTAL_CHARGE>
0

> <PUBCHEM_SUBSTANCE_ID>
310942446

> <PUBCHEM_SUBSTANCE_VERSION>
1

> <PUBCHEM_EXT_DATASOURCE_NAME>
4488

> <PUBCHEM_EXT_DATASOURCE_REGID>
SCHEMBL16120482

> <PUBCHEM_SUBSTANCE_COMMENT>
InChI=1S/C121H170N30O19/c1-4-120(94-71-99-108-84(69-82-15-7-9-25-96(82)138-108)77-150(99)114(161)92(94)79-167-117(120)165)169-106(157)75-134-103(154)34-32-101(152)131-48-55-144(51-42-126-39-38-125-40-41-128-86-17-11-18-86)60-63-146(52-43-127-45-58-148(57-44-124-6-3)91-23-14-24-91)66-68-149(105(156)36-31-98(116(163)164)140-112(159)81-27-29-89(30-28-81)133-73-90-74-136-111-110(137-90)113(160)142-119(123)141-111)67-65-143(50-37-122)59-62-147(54-47-130-88-21-13-22-88)64-61-145(53-46-129-87-19-12-20-87)56-49-132-102(153)33-35-104(155)135-76-107(158)170-121(5-2)95-72-100-109-85(70-83-16-8-10-26-97(83)139-109)78-151(100)115(162)93(95)80-168-118(121)166/h7-10,15-16,25-30,69-72,74,86-88,91,98,124-130,133H,4-6,11-14,17-24,31-68,73,75-80,122H2,1-3H3,(H,131,152)(H,132,153)(H,134,154)(H,135,155)(H,140,159)(H,163,164)(H3,123,136,141,142,160)/t98?,120-,121-/m0/s1
InChIKey=ZYMJLZLUJMYLHC-AQRTVCMLSA-N

> <PUBCHEM_SUBSTANCE_SYNONYM>
SCHEMBL16120482

> <PUBCHEM_XREF_EXT_ID>
SCHEMBL16120482

> <PUBCHEM_EXT_DATASOURCE_URL>
https://www.surechembl.org/

> <PUBCHEM_EXT_SUBSTANCE_URL>
https://www.surechembl.org/chemical/SCHEMBL16120482

> <PUBCHEM_CID_ASSOCIATIONS>
117609036  1

> <PUBCHEM_COORDINATE_TYPE>
1
3

> <PUBCHEM_BONDANNOTATIONS>
52  1  5
53  2  5
52  72  6
53  73  6

$$$$
