310935254
  -OEChem-07211613022D

 19 20  0     1  0  0  0  0  0999 V2000
   -0.7144   -1.2375    0.0000 F   0  0  0  0  0  0  0  0  0  0  0  0
   -2.1434   -0.4125    0.0000 F   0  0  0  0  0  0  0  0  0  0  0  0
   -0.6283    1.7263    0.0000 O   0  0  0  0  0  0  0  0  0  0  0  0
    0.4664    2.6447    0.0000 O   0  0  0  0  0  0  0  0  0  0  0  0
    2.4662    0.0174    0.0000 O   0  0  0  0  0  0  0  0  0  0  0  0
    0.7144    1.2375    0.0000 C   0  0  3  0  0  0  0  0  0  0  0  0
    0.0000    0.8250    0.0000 C   0  0  0  0  0  0  0  0  0  0  0  0
    0.0000    0.0000    0.0000 C   0  0  0  0  0  0  0  0  0  0  0  0
    0.1842    1.8695    0.0000 C   0  0  0  0  0  0  0  0  0  0  0  0
    1.0762    0.4960    0.0000 C   0  0  0  0  0  0  0  0  0  0  0  0
    1.3079    1.8106    0.0000 C   0  0  0  0  0  0  0  0  0  0  0  0
   -0.7144   -0.4125    0.0000 C   0  0  0  0  0  0  0  0  0  0  0  0
   -0.7144    1.2375    0.0000 C   0  0  0  0  0  0  0  0  0  0  0  0
    1.8931    0.6108    0.0000 C   0  0  3  0  0  0  0  0  0  0  0  0
    2.0363    1.4233    0.0000 C   0  0  0  0  0  0  0  0  0  0  0  0
   -1.4290    0.0000    0.0000 C   0  0  0  0  0  0  0  0  0  0  0  0
   -1.4290    0.8250    0.0000 C   0  0  0  0  0  0  0  0  0  0  0  0
    0.7144   -0.4125    0.0000 C   0  0  0  0  0  0  0  0  0  0  0  0
   -1.1586    2.3582    0.0000 C   0  0  0  0  0  0  0  0  0  0  0  0
  1 12  1  0  0  0  0
  2 16  1  0  0  0  0
  3  9  1  0  0  0  0
  3 19  1  0  0  0  0
  4  9  2  0  0  0  0
 14  5  1  6  0  0  0
  6  7  1  0  0  0  0
  6  9  1  0  0  0  0
  6 10  1  0  0  0  0
  6 11  1  0  0  0  0
  7  8  1  0  0  0  0
  7 13  2  0  0  0  0
  8 12  2  0  0  0  0
  8 18  1  0  0  0  0
 10 14  1  0  0  0  0
 11 15  1  0  0  0  0
 12 16  1  0  0  0  0
 13 17  1  0  0  0  0
 14 15  1  0  0  0  0
 16 17  2  0  0  0  0
M  END
> <PUBCHEM_COMPOUND_ID_TYPE>
0

> <PUBCHEM_TOTAL_CHARGE>
0

> <PUBCHEM_SUBSTANCE_ID>
310935254

> <PUBCHEM_SUBSTANCE_VERSION>
1

> <PUBCHEM_EXT_DATASOURCE_NAME>
4488

> <PUBCHEM_EXT_DATASOURCE_REGID>
SCHEMBL16112784

> <PUBCHEM_SUBSTANCE_COMMENT>
InChI=1S/C14H16F2O3/c1-8-10(3-4-11(15)12(8)16)14(13(18)19-2)6-5-9(17)7-14/h3-4,9,17H,5-7H2,1-2H3/t9-,14?/m0/s1
InChIKey=IFFGFPCGSDVGPU-CUVJYRNJSA-N

> <PUBCHEM_SUBSTANCE_SYNONYM>
SCHEMBL16112784

> <PUBCHEM_XREF_EXT_ID>
SCHEMBL16112784

> <PUBCHEM_EXT_DATASOURCE_URL>
https://www.surechembl.org/

> <PUBCHEM_EXT_SUBSTANCE_URL>
https://www.surechembl.org/chemical/SCHEMBL16112784

> <PUBCHEM_CID_ASSOCIATIONS>
117603328  1

> <PUBCHEM_COORDINATE_TYPE>
1
3

> <PUBCHEM_BONDANNOTATIONS>
14  5  6

$$$$
