310949959
  -OEChem-07211613022D

 24 27  0     1  0  0  0  0  0999 V2000
   -2.4201    1.5744    0.0000 S   0  0  0  0  0  0  0  0  0  0  0  0
   -2.0350    2.2482    0.0000 O   0  0  0  0  0  0  0  0  0  0  0  0
   -2.8188    0.8732    0.0000 O   0  0  0  0  0  0  0  0  0  0  0  0
    0.5226    0.1031    0.0000 N   0  0  0  0  0  0  0  0  0  0  0  0
    0.5226    1.4369    0.0000 N   0  0  0  0  0  0  0  0  0  0  0  0
    3.1076    0.3506    0.0000 N   0  0  0  0  0  0  0  0  0  0  0  0
    1.2925   -2.2482    0.0000 N   0  0  0  0  0  0  0  0  0  0  0  0
   -0.2750    0.3644    0.0000 C   0  0  0  0  0  0  0  0  0  0  0  0
    1.0038    0.7769    0.0000 C   0  0  0  0  0  0  0  0  0  0  0  0
   -0.2612    1.1894    0.0000 C   0  0  0  0  0  0  0  0  0  0  0  0
    0.7701   -0.6669    0.0000 C   0  0  0  0  0  0  0  0  0  0  0  0
    1.8426    0.7494    0.0000 C   0  0  3  0  0  0  0  0  0  0  0  0
   -1.6913    1.1894    0.0000 C   0  0  0  0  0  0  0  0  0  0  0  0
   -0.9900    1.5744    0.0000 C   0  0  0  0  0  0  0  0  0  0  0  0
   -0.9763   -0.0482    0.0000 C   0  0  0  0  0  0  0  0  0  0  0  0
   -1.6913    0.3644    0.0000 C   0  0  0  0  0  0  0  0  0  0  0  0
    0.2200   -1.2857    0.0000 C   0  0  0  0  0  0  0  0  0  0  0  0
    1.5951   -0.8594    0.0000 C   0  0  0  0  0  0  0  0  0  0  0  0
    2.3376    0.1031    0.0000 C   0  0  0  0  0  0  0  0  0  0  0  0
    2.3101    1.4232    0.0000 C   0  0  0  0  0  0  0  0  0  0  0  0
    3.1076    1.1757    0.0000 C   0  0  0  0  0  0  0  0  0  0  0  0
    0.4813   -2.0694    0.0000 C   0  0  0  0  0  0  0  0  0  0  0  0
    1.8426   -1.6294    0.0000 C   0  0  0  0  0  0  0  0  0  0  0  0
   -3.1076    1.9457    0.0000 C   0  0  0  0  0  0  0  0  0  0  0  0
  1  2  2  0  0  0  0
  1  3  2  0  0  0  0
  1 13  1  0  0  0  0
  1 24  1  0  0  0  0
  4  8  1  0  0  0  0
  4  9  1  0  0  0  0
  4 11  1  0  0  0  0
  5  9  2  0  0  0  0
  5 10  1  0  0  0  0
  6 19  1  0  0  0  0
  6 21  1  0  0  0  0
  7 22  1  0  0  0  0
  7 23  1  0  0  0  0
  8 10  1  0  0  0  0
  8 15  2  0  0  0  0
 12  9  1  6  0  0  0
 10 14  2  0  0  0  0
 11 17  1  0  0  0  0
 11 18  1  0  0  0  0
 12 19  1  0  0  0  0
 12 20  1  0  0  0  0
 13 14  1  0  0  0  0
 13 16  2  0  0  0  0
 15 16  1  0  0  0  0
 17 22  1  0  0  0  0
 18 23  1  0  0  0  0
 20 21  1  0  0  0  0
M  END
> <PUBCHEM_COMPOUND_ID_TYPE>
0

> <PUBCHEM_TOTAL_CHARGE>
0

> <PUBCHEM_SUBSTANCE_ID>
310949959

> <PUBCHEM_SUBSTANCE_VERSION>
1

> <PUBCHEM_EXT_DATASOURCE_NAME>
4488

> <PUBCHEM_EXT_DATASOURCE_REGID>
SCHEMBL16128188

> <PUBCHEM_SUBSTANCE_COMMENT>
InChI=1S/C17H24N4O2S/c1-24(22,23)14-2-3-16-15(10-14)20-17(12-4-7-19-11-12)21(16)13-5-8-18-9-6-13/h2-3,10,12-13,18-19H,4-9,11H2,1H3/t12-/m1/s1
InChIKey=LHOJLQUZSVDROJ-GFCCVEGCSA-N

> <PUBCHEM_SUBSTANCE_SYNONYM>
SCHEMBL16128188

> <PUBCHEM_XREF_EXT_ID>
SCHEMBL16128188

> <PUBCHEM_EXT_DATASOURCE_URL>
https://www.surechembl.org/

> <PUBCHEM_EXT_SUBSTANCE_URL>
https://www.surechembl.org/chemical/SCHEMBL16128188

> <PUBCHEM_CID_ASSOCIATIONS>
117615210  1

> <PUBCHEM_COORDINATE_TYPE>
1
3

> <PUBCHEM_BONDANNOTATIONS>
12  9  6

$$$$
