310941676
  -OEChem-07211613022D

 22 23  0     0  0  0  0  0  0999 V2000
    0.0162   -1.4478    0.0000 S   0  0  0  0  0  0  0  0  0  0  0  0
   -2.1353    0.6552    0.0000 O   0  0  0  0  0  0  0  0  0  0  0  0
    1.4559   -1.4478    0.0000 O   0  0  0  0  0  0  0  0  0  0  0  0
   -0.6795   -0.2184    0.0000 N   0  0  0  0  0  0  0  0  0  0  0  0
    0.7442   -0.2184    0.0000 N   0  0  0  0  0  0  0  0  0  0  0  0
   -1.4074   -0.6552    0.0000 C   0  0  0  0  0  0  0  0  0  0  0  0
   -2.1515   -0.2184    0.0000 C   0  0  0  0  0  0  0  0  0  0  0  0
    0.0323   -0.6228    0.0000 C   0  0  0  0  0  0  0  0  0  0  0  0
    1.4559   -0.6228    0.0000 C   0  0  0  0  0  0  0  0  0  0  0  0
    2.1677   -0.2184    0.0000 C   0  0  0  0  0  0  0  0  0  0  0  0
   -1.4074   -1.4640    0.0000 C   0  0  0  0  0  0  0  0  0  0  0  0
   -2.8310   -0.6552    0.0000 C   0  0  0  0  0  0  0  0  0  0  0  0
   -2.1515   -1.8846    0.0000 C   0  0  0  0  0  0  0  0  0  0  0  0
   -2.8310   -1.4802    0.0000 C   0  0  0  0  0  0  0  0  0  0  0  0
    2.9280   -0.6390    0.0000 C   0  0  0  0  0  0  0  0  0  0  0  0
    2.1839    0.6066    0.0000 C   0  0  0  0  0  0  0  0  0  0  0  0
   -2.8633    1.0434    0.0000 C   0  0  0  0  0  0  0  0  0  0  0  0
    3.5913   -0.2184    0.0000 C   0  0  0  0  0  0  0  0  0  0  0  0
    2.9119    1.0434    0.0000 C   0  0  0  0  0  0  0  0  0  0  0  0
    3.5913    0.6066    0.0000 C   0  0  0  0  0  0  0  0  0  0  0  0
   -2.8472    1.8846    0.0000 C   0  0  0  0  0  0  0  0  0  0  0  0
   -3.5913    0.5905    0.0000 C   0  0  0  0  0  0  0  0  0  0  0  0
  1  8  2  0  0  0  0
  2  7  1  0  0  0  0
  2 17  1  0  0  0  0
  3  9  2  0  0  0  0
  4  6  1  0  0  0  0
  4  8  1  0  0  0  0
  5  8  1  0  0  0  0
  5  9  1  0  0  0  0
  6  7  2  0  0  0  0
  6 11  1  0  0  0  0
  7 12  1  0  0  0  0
  9 10  1  0  0  0  0
 10 15  2  0  0  0  0
 10 16  1  0  0  0  0
 11 13  2  0  0  0  0
 12 14  2  0  0  0  0
 13 14  1  0  0  0  0
 15 18  1  0  0  0  0
 16 19  2  0  0  0  0
 17 21  1  0  0  0  0
 17 22  1  0  0  0  0
 18 20  2  0  0  0  0
 19 20  1  0  0  0  0
M  END
> <PUBCHEM_COMPOUND_ID_TYPE>
0

> <PUBCHEM_TOTAL_CHARGE>
0

> <PUBCHEM_SUBSTANCE_ID>
310941676

> <PUBCHEM_SUBSTANCE_VERSION>
1

> <PUBCHEM_EXT_DATASOURCE_NAME>
4488

> <PUBCHEM_EXT_DATASOURCE_REGID>
SCHEMBL16119707

> <PUBCHEM_SUBSTANCE_COMMENT>
InChI=1S/C17H18N2O2S/c1-12(2)21-15-11-7-6-10-14(15)18-17(22)19-16(20)13-8-4-3-5-9-13/h3-12H,1-2H3,(H2,18,19,20,22)
InChIKey=VNGXZLUTCKDAMG-UHFFFAOYSA-N

> <PUBCHEM_SUBSTANCE_SYNONYM>
SCHEMBL16119707

> <PUBCHEM_XREF_EXT_ID>
SCHEMBL16119707

> <PUBCHEM_EXT_DATASOURCE_URL>
https://www.surechembl.org/

> <PUBCHEM_EXT_SUBSTANCE_URL>
https://www.surechembl.org/chemical/SCHEMBL16119707

> <PUBCHEM_CID_ASSOCIATIONS>
17151050  1

> <PUBCHEM_COORDINATE_TYPE>
1
3

$$$$
