310934629
  -OEChem-07211613022D

 25 28  0     0  0  0  0  0  0999 V2000
    2.8379   -2.8710    0.0000 Cl  0  0  0  0  0  0  0  0  0  0  0  0
    1.4190   -3.6960    0.0000 O   0  0  0  0  0  0  0  0  0  0  0  0
    5.6759   -5.3459    0.0000 N   0  0  0  0  0  0  0  0  0  0  0  0
    4.9499   -6.5999    0.0000 N   0  0  0  0  0  0  0  0  0  0  0  0
    6.4679   -5.1149    0.0000 N   0  0  0  0  0  0  0  0  0  0  0  0
    0.7260   -1.6170    0.0000 N   0  0  0  0  0  0  0  0  0  0  0  0
    4.2569   -5.3459    0.0000 C   0  0  0  0  0  0  0  0  0  0  0  0
    3.5639   -4.9499    0.0000 C   0  0  0  0  0  0  0  0  0  0  0  0
    5.6759   -6.2039    0.0000 C   0  0  0  0  0  0  0  0  0  0  0  0
    4.9499   -4.9499    0.0000 C   0  0  0  0  0  0  0  0  0  0  0  0
    4.2569   -6.2039    0.0000 C   0  0  0  0  0  0  0  0  0  0  0  0
    3.5639   -4.1249    0.0000 C   0  0  0  0  0  0  0  0  0  0  0  0
    2.8379   -3.6960    0.0000 C   0  0  0  0  0  0  0  0  0  0  0  0
    2.1450   -4.1249    0.0000 C   0  0  0  0  0  0  0  0  0  0  0  0
    2.8379   -5.3459    0.0000 C   0  0  0  0  0  0  0  0  0  0  0  0
    6.4679   -6.4349    0.0000 C   0  0  0  0  0  0  0  0  0  0  0  0
    2.1119   -4.9499    0.0000 C   0  0  0  0  0  0  0  0  0  0  0  0
    6.9629   -5.7749    0.0000 C   0  0  0  0  0  0  0  0  0  0  0  0
    1.4190   -2.8710    0.0000 C   0  0  0  0  0  0  0  0  0  0  0  0
    0.7260   -2.4420    0.0000 C   0  0  0  0  0  0  0  0  0  0  0  0
    0.0000   -1.2210    0.0000 C   0  0  0  0  0  0  0  0  0  0  0  0
    1.4190   -1.2210    0.0000 C   0  0  0  0  0  0  0  0  0  0  0  0
    0.0000   -0.3960    0.0000 C   0  0  0  0  0  0  0  0  0  0  0  0
    1.4190   -0.4290    0.0000 C   0  0  0  0  0  0  0  0  0  0  0  0
    0.7260    0.0000    0.0000 C   0  0  0  0  0  0  0  0  0  0  0  0
  1 13  1  0  0  0  0
  2 14  1  0  0  0  0
  2 19  1  0  0  0  0
  3  5  1  0  0  0  0
  3  9  1  0  0  0  0
  3 10  1  0  0  0  0
  4  9  1  0  0  0  0
  4 11  2  0  0  0  0
  5 18  2  0  0  0  0
  6 20  1  0  0  0  0
  6 21  1  0  0  0  0
  6 22  1  0  0  0  0
  7  8  1  0  0  0  0
  7 10  2  0  0  0  0
  7 11  1  0  0  0  0
  8 12  1  0  0  0  0
  8 15  2  0  0  0  0
  9 16  2  0  0  0  0
 12 13  2  0  0  0  0
 13 14  1  0  0  0  0
 14 17  2  0  0  0  0
 15 17  1  0  0  0  0
 16 18  1  0  0  0  0
 19 20  1  0  0  0  0
 21 23  1  0  0  0  0
 22 24  1  0  0  0  0
 23 25  1  0  0  0  0
 24 25  1  0  0  0  0
M  END
> <PUBCHEM_COMPOUND_ID_TYPE>
0

> <PUBCHEM_TOTAL_CHARGE>
0

> <PUBCHEM_SUBSTANCE_ID>
310934629

> <PUBCHEM_SUBSTANCE_VERSION>
1

> <PUBCHEM_EXT_DATASOURCE_NAME>
4488

> <PUBCHEM_EXT_DATASOURCE_REGID>
SCHEMBL16112125

> <PUBCHEM_SUBSTANCE_COMMENT>
InChI=1S/C19H21ClN4O/c20-17-12-15(16-13-21-19-6-7-22-24(19)14-16)4-5-18(17)25-11-10-23-8-2-1-3-9-23/h4-7,12-14H,1-3,8-11H2
InChIKey=ZBQSWMDOMQWYNU-UHFFFAOYSA-N

> <PUBCHEM_SUBSTANCE_SYNONYM>
SCHEMBL16112125

> <PUBCHEM_XREF_EXT_ID>
SCHEMBL16112125

> <PUBCHEM_EXT_DATASOURCE_URL>
https://www.surechembl.org/

> <PUBCHEM_EXT_SUBSTANCE_URL>
https://www.surechembl.org/chemical/SCHEMBL16112125

> <PUBCHEM_CID_ASSOCIATIONS>
117602801  1

> <PUBCHEM_COORDINATE_TYPE>
1
3

$$$$
