310928891
  -OEChem-07211613022D

 13 14  0     0  0  0  0  0  0999 V2000
    1.6476    1.6978    0.0000 I   0  0  0  0  0  0  0  0  0  0  0  0
    0.4189   -0.0478    0.0000 N   0  0  0  0  0  0  0  0  0  0  0  0
    1.1725   -0.3834    0.0000 N   0  0  0  0  0  0  0  0  0  0  0  0
    0.5051    0.7726    0.0000 C   0  0  0  0  0  0  0  0  0  0  0  0
   -0.2956   -0.4603    0.0000 C   0  0  0  0  0  0  0  0  0  0  0  0
    1.3121    0.9442    0.0000 C   0  0  0  0  0  0  0  0  0  0  0  0
    1.7246    0.2297    0.0000 C   0  0  0  0  0  0  0  0  0  0  0  0
   -0.2956   -1.2853    0.0000 C   0  0  0  0  0  0  0  0  0  0  0  0
   -1.0101   -0.0478    0.0000 C   0  0  0  0  0  0  0  0  0  0  0  0
   -0.1080    1.3247    0.0000 C   0  0  0  0  0  0  0  0  0  0  0  0
   -1.0101   -1.6978    0.0000 C   0  0  0  0  0  0  0  0  0  0  0  0
   -1.7246   -0.4603    0.0000 C   0  0  0  0  0  0  0  0  0  0  0  0
   -1.7246   -1.2853    0.0000 C   0  0  0  0  0  0  0  0  0  0  0  0
  1  6  1  0  0  0  0
  2  3  1  0  0  0  0
  2  4  1  0  0  0  0
  2  5  1  0  0  0  0
  3  7  2  0  0  0  0
  4  6  2  0  0  0  0
  4 10  1  0  0  0  0
  5  8  2  0  0  0  0
  5  9  1  0  0  0  0
  6  7  1  0  0  0  0
  8 11  1  0  0  0  0
  9 12  2  0  0  0  0
 11 13  2  0  0  0  0
 12 13  1  0  0  0  0
M  END
> <PUBCHEM_COMPOUND_ID_TYPE>
0

> <PUBCHEM_TOTAL_CHARGE>
0

> <PUBCHEM_SUBSTANCE_ID>
310928891

> <PUBCHEM_SUBSTANCE_VERSION>
1

> <PUBCHEM_EXT_DATASOURCE_NAME>
11752

> <PUBCHEM_EXT_DATASOURCE_REGID>
BD98097

> <PUBCHEM_SUBSTANCE_SYNONYM>
342405-19-0
4-Iodo-5-methyl-1-phenyl-1H-pyrazole

> <PUBCHEM_GENERIC_REGISTRY_NAME>
342405-19-0

> <PUBCHEM_XREF_EXT_ID>
BD98097

> <PUBCHEM_EXT_DATASOURCE_URL>
http://www.bidepharmatech.com/en/index.html

> <PUBCHEM_EXT_SUBSTANCE_URL>
http://www.bidepharmatech.com/en/goodsview_goodscode_BD98097.html

> <PUBCHEM_CID_ASSOCIATIONS>
2776444  1

> <PUBCHEM_COORDINATE_TYPE>
1
3

$$$$
