310941632
  -OEChem-07211613022D

 28 31  0     0  0  0  0  0  0999 V2000
   -3.6081   -1.7315    0.0000 Cl  0  0  0  0  0  0  0  0  0  0  0  0
    0.1304    1.7315    0.0000 S   0  0  0  0  0  0  0  0  0  0  0  0
   -2.1735   -0.9057    0.0000 O   0  0  0  0  0  0  0  0  0  0  0  0
   -0.7535   -0.9057    0.0000 O   0  0  0  0  0  0  0  0  0  0  0  0
    3.0139    0.7608    0.0000 O   0  0  0  0  0  0  0  0  0  0  0  0
    0.0000    0.3984    0.0000 N   0  0  0  0  0  0  0  0  0  0  0  0
    1.3621    0.9201    0.0000 N   0  0  0  0  0  0  0  0  0  0  0  0
   -1.4635    0.3405    0.0000 C   0  0  0  0  0  0  0  0  0  0  0  0
   -0.7825    0.7318    0.0000 C   0  0  0  0  0  0  0  0  0  0  0  0
   -2.8980   -0.4854    0.0000 C   0  0  0  0  0  0  0  0  0  0  0  0
   -2.8980    0.3405    0.0000 C   0  0  0  0  0  0  0  0  0  0  0  0
   -1.4925   -0.4854    0.0000 C   0  0  0  0  0  0  0  0  0  0  0  0
   -2.2170    0.7318    0.0000 C   0  0  0  0  0  0  0  0  0  0  0  0
    0.5361    1.0361    0.0000 C   0  0  0  0  0  0  0  0  0  0  0  0
   -3.6081   -0.9057    0.0000 C   0  0  0  0  0  0  0  0  0  0  0  0
   -0.6520    1.5577    0.0000 C   0  0  0  0  0  0  0  0  0  0  0  0
   -3.5936    0.7173    0.0000 C   0  0  0  0  0  0  0  0  0  0  0  0
    1.6953    0.1811    0.0000 C   0  0  0  0  0  0  0  0  0  0  0  0
   -4.3180   -0.4854    0.0000 C   0  0  0  0  0  0  0  0  0  0  0  0
    2.5213    0.0942    0.0000 C   0  0  0  0  0  0  0  0  0  0  0  0
   -4.3180    0.3115    0.0000 C   0  0  0  0  0  0  0  0  0  0  0  0
    1.2461   -0.4998    0.0000 C   0  0  0  0  0  0  0  0  0  0  0  0
    2.8545   -0.6593    0.0000 C   0  0  0  0  0  0  0  0  0  0  0  0
    1.5649   -1.2244    0.0000 C   0  0  0  0  0  0  0  0  0  0  0  0
    2.3764   -1.3259    0.0000 C   0  0  0  0  0  0  0  0  0  0  0  0
    3.8254    0.6738    0.0000 C   0  0  0  0  0  0  0  0  0  0  0  0
    4.3180    1.3548    0.0000 C   0  0  0  0  0  0  0  0  0  0  0  0
    4.1731   -0.1087    0.0000 C   0  0  0  0  0  0  0  0  0  0  0  0
  1 15  1  0  0  0  0
  2 14  1  0  0  0  0
  2 16  1  0  0  0  0
  3 10  1  0  0  0  0
  3 12  1  0  0  0  0
  4 12  2  0  0  0  0
  5 20  1  0  0  0  0
  5 26  1  0  0  0  0
  6  9  1  0  0  0  0
  6 14  2  0  0  0  0
  7 14  1  0  0  0  0
  7 18  1  0  0  0  0
  8  9  1  0  0  0  0
  8 12  1  0  0  0  0
  8 13  2  0  0  0  0
  9 16  2  0  0  0  0
 10 11  1  0  0  0  0
 10 15  2  0  0  0  0
 11 13  1  0  0  0  0
 11 17  2  0  0  0  0
 15 19  1  0  0  0  0
 17 21  1  0  0  0  0
 18 20  1  0  0  0  0
 18 22  2  0  0  0  0
 19 21  2  0  0  0  0
 20 23  2  0  0  0  0
 22 24  1  0  0  0  0
 23 25  1  0  0  0  0
 24 25  2  0  0  0  0
 26 27  1  0  0  0  0
 26 28  1  0  0  0  0
M  END
> <PUBCHEM_COMPOUND_ID_TYPE>
0

> <PUBCHEM_TOTAL_CHARGE>
0

> <PUBCHEM_SUBSTANCE_ID>
310941632

> <PUBCHEM_SUBSTANCE_VERSION>
1

> <PUBCHEM_EXT_DATASOURCE_NAME>
4488

> <PUBCHEM_EXT_DATASOURCE_REGID>
SCHEMBL16119663

> <PUBCHEM_SUBSTANCE_COMMENT>
InChI=1S/C21H17ClN2O3S/c1-12(2)26-18-9-4-3-8-16(18)23-21-24-17(11-28-21)14-10-13-6-5-7-15(22)19(13)27-20(14)25/h3-12H,1-2H3,(H,23,24)
InChIKey=ZXPORVOQWPNKST-UHFFFAOYSA-N

> <PUBCHEM_SUBSTANCE_SYNONYM>
SCHEMBL16119663

> <PUBCHEM_XREF_EXT_ID>
SCHEMBL16119663

> <PUBCHEM_EXT_DATASOURCE_URL>
https://www.surechembl.org/

> <PUBCHEM_EXT_SUBSTANCE_URL>
https://www.surechembl.org/chemical/SCHEMBL16119663

> <PUBCHEM_CID_ASSOCIATIONS>
117608419  1

> <PUBCHEM_COORDINATE_TYPE>
1
3

$$$$
