310937249
  -OEChem-07211613022D

 16 17  0     0  0  0  0  0  0999 V2000
    0.0000   -2.0813    0.0000 F   0  0  0  0  0  0  0  0  0  0  0  0
    0.7688   -0.7875    0.0000 O   0  0  0  0  0  0  0  0  0  0  0  0
    3.6001   -2.5125    0.0000 O   0  0  0  0  0  0  0  0  0  0  0  0
    2.8876   -1.2563    0.0000 O   0  0  0  0  0  0  0  0  0  0  0  0
    2.1188   -0.7875    0.0000 N   0  0  0  0  0  0  0  0  0  0  0  0
    1.4438   -2.0813    0.0000 C   0  0  0  0  0  0  0  0  0  0  0  0
    2.1563   -2.5125    0.0000 C   0  0  0  0  0  0  0  0  0  0  0  0
    1.4438   -1.2563    0.0000 C   0  0  0  0  0  0  0  0  0  0  0  0
    0.7313   -2.5125    0.0000 C   0  0  0  0  0  0  0  0  0  0  0  0
    2.8876   -2.0813    0.0000 C   0  0  0  0  0  0  0  0  0  0  0  0
    2.1563   -3.3375    0.0000 C   0  0  0  0  0  0  0  0  0  0  0  0
    0.7313   -3.3375    0.0000 C   0  0  0  0  0  0  0  0  0  0  0  0
    1.4438   -3.7501    0.0000 C   0  0  0  0  0  0  0  0  0  0  0  0
    1.0313    0.0000    0.0000 C   0  0  0  0  0  0  0  0  0  0  0  0
    1.8563    0.0000    0.0000 C   0  0  0  0  0  0  0  0  0  0  0  0
    3.6001   -3.3375    0.0000 C   0  0  0  0  0  0  0  0  0  0  0  0
  1  9  1  0  0  0  0
  2  8  1  0  0  0  0
  2 14  1  0  0  0  0
  3 10  1  0  0  0  0
  3 16  1  0  0  0  0
  4 10  2  0  0  0  0
  5  8  2  0  0  0  0
  5 15  1  0  0  0  0
  6  7  2  0  0  0  0
  6  8  1  0  0  0  0
  6  9  1  0  0  0  0
  7 10  1  0  0  0  0
  7 11  1  0  0  0  0
  9 12  2  0  0  0  0
 11 13  2  0  0  0  0
 12 13  1  0  0  0  0
 14 15  2  0  0  0  0
M  END
> <PUBCHEM_COMPOUND_ID_TYPE>
0

> <PUBCHEM_TOTAL_CHARGE>
0

> <PUBCHEM_SUBSTANCE_ID>
310937249

> <PUBCHEM_SUBSTANCE_VERSION>
1

> <PUBCHEM_EXT_DATASOURCE_NAME>
4488

> <PUBCHEM_EXT_DATASOURCE_REGID>
SCHEMBL16114987

> <PUBCHEM_SUBSTANCE_COMMENT>
InChI=1S/C11H8FNO3/c1-15-11(14)7-3-2-4-8(12)9(7)10-13-5-6-16-10/h2-6H,1H3
InChIKey=NBJLFEJRZGCGJH-UHFFFAOYSA-N

> <PUBCHEM_SUBSTANCE_SYNONYM>
SCHEMBL16114987

> <PUBCHEM_XREF_EXT_ID>
SCHEMBL16114987

> <PUBCHEM_EXT_DATASOURCE_URL>
https://www.surechembl.org/

> <PUBCHEM_EXT_SUBSTANCE_URL>
https://www.surechembl.org/chemical/SCHEMBL16114987

> <PUBCHEM_CID_ASSOCIATIONS>
117605046  1

> <PUBCHEM_COORDINATE_TYPE>
1
3

$$$$
