310933567
  -OEChem-07211613022D

 16 17  0     0  0  0  0  0  0999 V2000
    2.1230   -2.4548    0.0000 Br  0  0  0  0  0  0  0  0  0  0  0  0
    4.9759   -1.6255    0.0000 F   0  0  0  0  0  0  0  0  0  0  0  0
    4.2627   -0.3981    0.0000 F   0  0  0  0  0  0  0  0  0  0  0  0
    3.5494   -0.8127    0.0000 F   0  0  0  0  0  0  0  0  0  0  0  0
    3.5494   -1.6420    0.0000 O   0  0  0  0  0  0  0  0  0  0  0  0
    0.7298    0.0000    0.0000 N   0  0  0  0  0  0  0  0  0  0  0  0
    2.8362   -1.2274    0.0000 C   0  0  0  0  0  0  0  0  0  0  0  0
    1.4430   -1.2274    0.0000 C   0  0  0  0  0  0  0  0  0  0  0  0
    2.1230   -1.6420    0.0000 C   0  0  0  0  0  0  0  0  0  0  0  0
    1.4430   -0.3981    0.0000 C   0  0  0  0  0  0  0  0  0  0  0  0
    4.2627   -1.2274    0.0000 C   0  0  0  0  0  0  0  0  0  0  0  0
    2.8362   -0.3981    0.0000 C   0  0  0  0  0  0  0  0  0  0  0  0
    2.1230    0.0000    0.0000 C   0  0  0  0  0  0  0  0  0  0  0  0
    0.7298   -1.6420    0.0000 C   0  0  0  0  0  0  0  0  0  0  0  0
    0.0000   -1.2274    0.0000 C   0  0  0  0  0  0  0  0  0  0  0  0
    0.0000   -0.3981    0.0000 C   0  0  0  0  0  0  0  0  0  0  0  0
  1  9  1  0  0  0  0
  2 11  1  0  0  0  0
  3 11  1  0  0  0  0
  4 11  1  0  0  0  0
  5  7  1  0  0  0  0
  5 11  1  0  0  0  0
  6 10  2  0  0  0  0
  6 16  1  0  0  0  0
  7  9  2  0  0  0  0
  7 12  1  0  0  0  0
  8  9  1  0  0  0  0
  8 10  1  0  0  0  0
  8 14  2  0  0  0  0
 10 13  1  0  0  0  0
 12 13  2  0  0  0  0
 14 15  1  0  0  0  0
 15 16  2  0  0  0  0
M  END
> <PUBCHEM_COMPOUND_ID_TYPE>
0

> <PUBCHEM_TOTAL_CHARGE>
0

> <PUBCHEM_SUBSTANCE_ID>
310933567

> <PUBCHEM_SUBSTANCE_VERSION>
1

> <PUBCHEM_EXT_DATASOURCE_NAME>
4488

> <PUBCHEM_EXT_DATASOURCE_REGID>
SCHEMBL16110993

> <PUBCHEM_SUBSTANCE_COMMENT>
InChI=1S/C10H5BrF3NO/c11-9-6-2-1-5-15-7(6)3-4-8(9)16-10(12,13)14/h1-5H
InChIKey=JKYHIVJMELHHLU-UHFFFAOYSA-N

> <PUBCHEM_SUBSTANCE_SYNONYM>
SCHEMBL16110993

> <PUBCHEM_XREF_EXT_ID>
SCHEMBL16110993

> <PUBCHEM_EXT_DATASOURCE_URL>
https://www.surechembl.org/

> <PUBCHEM_EXT_SUBSTANCE_URL>
https://www.surechembl.org/chemical/SCHEMBL16110993

> <PUBCHEM_CID_ASSOCIATIONS>
117601950  1

> <PUBCHEM_COORDINATE_TYPE>
1
3

$$$$
