310941714
  -OEChem-07211613022D

 36 39  0     0  0  0  0  0  0999 V2000
   -0.0149   -1.4710    0.0000 S   0  0  0  0  0  0  0  0  0  0  0  0
   -2.8576   -0.6361    0.0000 F   0  0  0  0  0  0  0  0  0  0  0  0
   -0.0050   -2.2959    0.0000 O   0  0  0  0  0  0  0  0  0  0  0  0
    0.8199   -1.4710    0.0000 O   0  0  0  0  0  0  0  0  0  0  0  0
    0.7106    2.2761    0.0000 O   0  0  0  0  0  0  0  0  0  0  0  0
    2.1419    0.6162    0.0000 O   0  0  0  0  0  0  0  0  0  0  0  0
    5.0044    0.6162    0.0000 O   0  0  0  0  0  0  0  0  0  0  0  0
    1.4263   -0.6361    0.0000 N   0  0  0  0  0  0  0  0  0  0  0  0
   -0.7206    2.2761    0.0000 N   0  0  0  0  0  0  0  0  0  0  0  0
   -2.1518    0.6162    0.0000 N   0  0  0  0  0  0  0  0  0  0  0  0
    3.5831   -0.2186    0.0000 N   0  0  0  0  0  0  0  0  0  0  0  0
    0.0050   -0.6162    0.0000 C   0  0  0  0  0  0  0  0  0  0  0  0
    0.7106   -0.1888    0.0000 C   0  0  0  0  0  0  0  0  0  0  0  0
   -0.0050    1.0536    0.0000 C   0  0  0  0  0  0  0  0  0  0  0  0
    0.7106    0.6261    0.0000 C   0  0  0  0  0  0  0  0  0  0  0  0
   -0.7206   -0.1987    0.0000 C   0  0  0  0  0  0  0  0  0  0  0  0
   -0.0149    1.8685    0.0000 C   0  0  0  0  0  0  0  0  0  0  0  0
   -0.7206    0.6261    0.0000 C   0  0  0  0  0  0  0  0  0  0  0  0
   -1.4263    1.8786    0.0000 C   0  0  0  0  0  0  0  0  0  0  0  0
   -2.8774    1.0536    0.0000 C   0  0  0  0  0  0  0  0  0  0  0  0
    2.1319   -0.2186    0.0000 C   0  0  0  0  0  0  0  0  0  0  0  0
   -3.5831    0.6361    0.0000 C   0  0  0  0  0  0  0  0  0  0  0  0
   -0.7106   -1.8885    0.0000 C   0  0  0  0  0  0  0  0  0  0  0  0
   -1.4363    1.0536    0.0000 C   0  0  0  0  0  0  0  0  0  0  0  0
   -2.1617    2.2959    0.0000 C   0  0  0  0  0  0  0  0  0  0  0  0
   -2.8576    1.8984    0.0000 C   0  0  0  0  0  0  0  0  0  0  0  0
   -3.5831   -0.1888    0.0000 C   0  0  0  0  0  0  0  0  0  0  0  0
    2.8476   -0.6162    0.0000 C   0  0  0  0  0  0  0  0  0  0  0  0
   -4.3187    1.0437    0.0000 C   0  0  0  0  0  0  0  0  0  0  0  0
   -4.2790   -0.5963    0.0000 C   0  0  0  0  0  0  0  0  0  0  0  0
   -5.0044    0.6361    0.0000 C   0  0  0  0  0  0  0  0  0  0  0  0
   -5.0044   -0.1987    0.0000 C   0  0  0  0  0  0  0  0  0  0  0  0
    4.3187   -0.6162    0.0000 C   0  0  0  0  0  0  0  0  0  0  0  0
    3.5831    0.6361    0.0000 C   0  0  0  0  0  0  0  0  0  0  0  0
    5.0044   -0.1987    0.0000 C   0  0  0  0  0  0  0  0  0  0  0  0
    4.2889    1.0437    0.0000 C   0  0  0  0  0  0  0  0  0  0  0  0
  1  3  2  0  0  0  0
  1  4  2  0  0  0  0
  1 12  1  0  0  0  0
  1 23  1  0  0  0  0
  2 27  1  0  0  0  0
  5 17  2  0  0  0  0
  6 21  2  0  0  0  0
  7 35  1  0  0  0  0
  7 36  1  0  0  0  0
  8 13  1  0  0  0  0
  8 21  1  0  0  0  0
  9 17  1  0  0  0  0
  9 19  1  0  0  0  0
 10 20  1  0  0  0  0
 10 24  2  0  0  0  0
 11 28  1  0  0  0  0
 11 33  1  0  0  0  0
 11 34  1  0  0  0  0
 12 13  2  0  0  0  0
 12 16  1  0  0  0  0
 13 15  1  0  0  0  0
 14 15  2  0  0  0  0
 14 17  1  0  0  0  0
 14 18  1  0  0  0  0
 16 18  2  0  0  0  0
 19 24  1  0  0  0  0
 19 25  2  0  0  0  0
 20 22  1  0  0  0  0
 20 26  2  0  0  0  0
 21 28  1  0  0  0  0
 22 27  2  0  0  0  0
 22 29  1  0  0  0  0
 25 26  1  0  0  0  0
 27 30  1  0  0  0  0
 29 31  2  0  0  0  0
 30 32  2  0  0  0  0
 31 32  1  0  0  0  0
 33 35  1  0  0  0  0
 34 36  1  0  0  0  0
M  END
> <PUBCHEM_COMPOUND_ID_TYPE>
0

> <PUBCHEM_TOTAL_CHARGE>
0

> <PUBCHEM_SUBSTANCE_ID>
310941714

> <PUBCHEM_SUBSTANCE_VERSION>
1

> <PUBCHEM_EXT_DATASOURCE_NAME>
4488

> <PUBCHEM_EXT_DATASOURCE_REGID>
SCHEMBL16119745

> <PUBCHEM_SUBSTANCE_COMMENT>
InChI=1S/C25H25FN4O5S/c1-36(33,34)23-9-6-17(14-22(23)29-24(31)16-30-10-12-35-13-11-30)25(32)28-18-7-8-21(27-15-18)19-4-2-3-5-20(19)26/h2-9,14-15H,10-13,16H2,1H3,(H,28,32)(H,29,31)
InChIKey=OOYNAYAQMMGGNZ-UHFFFAOYSA-N

> <PUBCHEM_SUBSTANCE_SYNONYM>
SCHEMBL16119745

> <PUBCHEM_XREF_EXT_ID>
SCHEMBL16119745

> <PUBCHEM_EXT_DATASOURCE_URL>
https://www.surechembl.org/

> <PUBCHEM_EXT_SUBSTANCE_URL>
https://www.surechembl.org/chemical/SCHEMBL16119745

> <PUBCHEM_CID_ASSOCIATIONS>
117608486  1

> <PUBCHEM_COORDINATE_TYPE>
1
3

$$$$
