310948138
  -OEChem-07211613022D

 39 43  0     0  0  0  0  0  0999 V2000
    3.4327   -2.6587    0.0000 S   0  0  0  0  0  0  0  0  0  0  0  0
   -4.1563   -3.1972    0.0000 F   0  0  0  0  0  0  0  0  0  0  0  0
    3.6179    3.3654    0.0000 F   0  0  0  0  0  0  0  0  0  0  0  0
    2.4231    3.0289    0.0000 F   0  0  0  0  0  0  0  0  0  0  0  0
    3.9038    2.1707    0.0000 F   0  0  0  0  0  0  0  0  0  0  0  0
    2.7428    1.8678    0.0000 O   0  0  0  0  0  0  0  0  0  0  0  0
    4.1563   -2.2380    0.0000 O   0  0  0  0  0  0  0  0  0  0  0  0
    2.7091   -3.0626    0.0000 O   0  0  0  0  0  0  0  0  0  0  0  0
   -0.8582    0.4375    0.0000 N   0  0  0  0  0  0  0  0  0  0  0  0
   -2.4063   -0.8077    0.0000 N   0  0  0  0  0  0  0  0  0  0  0  0
   -1.6827    0.5216    0.0000 N   0  0  0  0  0  0  0  0  0  0  0  0
   -1.8510    1.3293    0.0000 N   0  0  0  0  0  0  0  0  0  0  0  0
   -3.1130   -1.2283    0.0000 N   0  0  0  0  0  0  0  0  0  0  0  0
   -0.3197   -0.4880    0.0000 C   0  0  0  0  0  0  0  0  0  0  0  0
   -0.7236   -1.2116    0.0000 C   0  0  0  0  0  0  0  0  0  0  0  0
   -0.5047    1.1947    0.0000 C   0  0  0  0  0  0  0  0  0  0  0  0
   -1.8005   -1.3798    0.0000 C   0  0  0  0  0  0  0  0  0  0  0  0
    0.9255   -1.1947    0.0000 C   0  0  0  0  0  0  0  0  0  0  0  0
    0.5216   -0.5047    0.0000 C   0  0  0  0  0  0  0  0  0  0  0  0
   -0.3028   -1.9183    0.0000 C   0  0  0  0  0  0  0  0  0  0  0  0
    0.2861    1.3798    0.0000 C   0  0  0  0  0  0  0  0  0  0  0  0
    1.7837   -1.2116    0.0000 C   0  0  0  0  0  0  0  0  0  0  0  0
    0.5216   -1.9183    0.0000 C   0  0  0  0  0  0  0  0  0  0  0  0
   -2.1707   -2.1539    0.0000 C   0  0  0  0  0  0  0  0  0  0  0  0
   -1.1274    1.7499    0.0000 C   0  0  0  0  0  0  0  0  0  0  0  0
   -2.9785   -2.0025    0.0000 C   0  0  0  0  0  0  0  0  0  0  0  0
    2.1875   -1.9183    0.0000 C   0  0  0  0  0  0  0  0  0  0  0  0
    3.0121   -1.9183    0.0000 C   0  0  0  0  0  0  0  0  0  0  0  0
    0.8582    0.7741    0.0000 C   0  0  0  0  0  0  0  0  0  0  0  0
    0.5721    2.1539    0.0000 C   0  0  0  0  0  0  0  0  0  0  0  0
    2.1875   -0.5047    0.0000 C   0  0  0  0  0  0  0  0  0  0  0  0
    1.9352    1.7332    0.0000 C   0  0  0  0  0  0  0  0  0  0  0  0
    1.6658    0.9423    0.0000 C   0  0  0  0  0  0  0  0  0  0  0  0
    1.3798    2.3221    0.0000 C   0  0  0  0  0  0  0  0  0  0  0  0
   -2.2716    0.0000    0.0000 C   0  0  0  0  0  0  0  0  0  0  0  0
    3.4327   -1.2116    0.0000 C   0  0  0  0  0  0  0  0  0  0  0  0
    3.0121   -0.4880    0.0000 C   0  0  0  0  0  0  0  0  0  0  0  0
    3.1804    2.6082    0.0000 C   0  0  0  0  0  0  0  0  0  0  0  0
    3.8534   -3.3654    0.0000 C   0  0  0  0  0  0  0  0  0  0  0  0
  1  7  2  0  0  0  0
  1  8  2  0  0  0  0
  1 28  1  0  0  0  0
  1 39  1  0  0  0  0
  2 26  1  0  0  0  0
  3 38  1  0  0  0  0
  4 38  1  0  0  0  0
  5 38  1  0  0  0  0
  6 32  1  0  0  0  0
  6 38  1  0  0  0  0
  9 11  1  0  0  0  0
  9 14  1  0  0  0  0
  9 16  1  0  0  0  0
 10 13  1  0  0  0  0
 10 17  1  0  0  0  0
 10 35  1  0  0  0  0
 11 12  2  0  0  0  0
 12 25  1  0  0  0  0
 13 26  2  0  0  0  0
 14 15  2  0  0  0  0
 14 19  1  0  0  0  0
 15 17  1  0  0  0  0
 15 20  1  0  0  0  0
 16 21  1  0  0  0  0
 16 25  2  0  0  0  0
 17 24  2  0  0  0  0
 18 19  2  0  0  0  0
 18 22  1  0  0  0  0
 18 23  1  0  0  0  0
 20 23  2  0  0  0  0
 21 29  2  0  0  0  0
 21 30  1  0  0  0  0
 22 27  2  0  0  0  0
 22 31  1  0  0  0  0
 24 26  1  0  0  0  0
 27 28  1  0  0  0  0
 28 36  2  0  0  0  0
 29 33  1  0  0  0  0
 30 34  2  0  0  0  0
 31 37  2  0  0  0  0
 32 33  2  0  0  0  0
 32 34  1  0  0  0  0
 36 37  1  0  0  0  0
M  END
> <PUBCHEM_COMPOUND_ID_TYPE>
0

> <PUBCHEM_TOTAL_CHARGE>
0

> <PUBCHEM_SUBSTANCE_ID>
310948138

> <PUBCHEM_SUBSTANCE_VERSION>
1

> <PUBCHEM_EXT_DATASOURCE_NAME>
4488

> <PUBCHEM_EXT_DATASOURCE_REGID>
SCHEMBL16126314

> <PUBCHEM_SUBSTANCE_COMMENT>
InChI=1S/C26H19F4N5O3S/c1-34-22(14-25(27)32-34)21-11-8-18(17-4-3-5-20(12-17)39(2,36)37)13-23(21)35-24(15-31-33-35)16-6-9-19(10-7-16)38-26(28,29)30/h3-15H,1-2H3
InChIKey=KIISMPOBNZSHCL-UHFFFAOYSA-N

> <PUBCHEM_SUBSTANCE_SYNONYM>
SCHEMBL16126314

> <PUBCHEM_XREF_EXT_ID>
SCHEMBL16126314

> <PUBCHEM_EXT_DATASOURCE_URL>
https://www.surechembl.org/

> <PUBCHEM_EXT_SUBSTANCE_URL>
https://www.surechembl.org/chemical/SCHEMBL16126314

> <PUBCHEM_CID_ASSOCIATIONS>
117613750  1

> <PUBCHEM_COORDINATE_TYPE>
1
3

$$$$
