310931170
  -OEChem-07211613022D

 57 62  0     1  0  0  0  0  0999 V2000
   -6.4303   -0.4125    0.0000 F   0  0  0  0  0  0  0  0  0  0  0  0
   -5.7159   -0.8250    0.0000 F   0  0  0  0  0  0  0  0  0  0  0  0
   -6.4303    0.4125    0.0000 F   0  0  0  0  0  0  0  0  0  0  0  0
    1.3307    1.4802    0.0000 O   0  0  0  0  0  0  0  0  0  0  0  0
    1.6164    3.3096    0.0000 O   0  0  0  0  0  0  0  0  0  0  0  0
    2.7770    1.1270    0.0000 O   0  0  0  0  0  0  0  0  0  0  0  0
    1.4290   -0.8250    0.0000 O   0  0  0  0  0  0  0  0  0  0  0  0
    2.8108    5.1671    0.0000 O   0  0  0  0  0  0  0  0  0  0  0  0
    3.6977    3.7847    0.0000 O   0  0  0  0  0  0  0  0  0  0  0  0
   -0.1787    2.1037    0.0000 O   0  0  0  0  0  0  0  0  0  0  0  0
    2.5057    8.1331    0.0000 O   0  0  0  0  0  0  0  0  0  0  0  0
   -5.0013    1.2375    0.0000 O   0  0  0  0  0  0  0  0  0  0  0  0
    0.7145    0.4125    0.0000 N   0  3  3  0  0  0  0  0  0  0  0  0
    1.5395    0.4125    0.0000 N   0  0  0  0  0  0  0  0  0  0  0  0
    1.5395    1.8415    0.0000 N   0  0  0  0  0  0  0  0  0  0  0  0
   -4.2869    0.0000    0.0000 N   0  0  0  0  0  0  0  0  0  0  0  0
    0.3020    1.1270    0.0000 C   0  0  0  0  0  0  0  0  0  0  0  0
    1.0214    0.9444    0.0000 C   0  0  0  0  0  0  0  0  0  0  0  0
    1.9520    1.1270    0.0000 C   0  0  0  0  0  0  0  0  0  0  0  0
    0.7145   -0.4125    0.0000 C   0  0  0  0  0  0  0  0  0  0  0  0
    0.7145    1.8415    0.0000 C   0  0  0  0  0  0  0  0  0  0  0  0
    0.0000    0.0000    0.0000 C   0  0  0  0  0  0  0  0  0  0  0  0
    1.9520    2.5559    0.0000 C   0  0  3  0  0  0  0  0  0  0  0  0
    1.1635    5.1184    0.0000 C   0  0  0  0  0  0  0  0  0  0  0  0
    2.2295    3.8617    0.0000 C   0  0  3  0  0  0  0  0  0  0  0  0
    2.1433    4.6822    0.0000 C   0  0  3  0  0  0  0  0  0  0  0  0
    0.0000   -0.8250    0.0000 C   0  0  0  0  0  0  0  0  0  0  0  0
    2.7725    2.6422    0.0000 C   0  0  0  0  0  0  0  0  0  0  0  0
    2.9440    3.4492    0.0000 C   0  0  3  0  0  0  0  0  0  0  0  0
   -0.7145    0.4125    0.0000 C   0  0  0  0  0  0  0  0  0  0  0  0
    0.8280    4.3647    0.0000 C   0  0  0  0  0  0  0  0  0  0  0  0
    1.4990    5.8721    0.0000 C   0  0  0  0  0  0  0  0  0  0  0  0
    0.4099    5.4540    0.0000 C   0  0  0  0  0  0  0  0  0  0  0  0
    0.0075    4.2784    0.0000 C   0  0  0  0  0  0  0  0  0  0  0  0
    2.3196    5.9583    0.0000 C   0  0  0  0  0  0  0  0  0  0  0  0
    1.3129    3.6973    0.0000 C   0  0  0  0  0  0  0  0  0  0  0  0
    1.0141    6.5395    0.0000 C   0  0  0  0  0  0  0  0  0  0  0  0
   -1.4290    0.0000    0.0000 C   0  0  0  0  0  0  0  0  0  0  0  0
    0.3236    6.2744    0.0000 C   0  0  0  0  0  0  0  0  0  0  0  0
   -0.2576    4.9690    0.0000 C   0  0  0  0  0  0  0  0  0  0  0  0
    0.0000   -1.6500    0.0000 C   0  0  0  0  0  0  0  0  0  0  0  0
   -0.3281    3.5248    0.0000 C   0  0  0  0  0  0  0  0  0  0  0  0
    2.6551    6.7120    0.0000 C   0  0  0  0  0  0  0  0  0  0  0  0
    0.9773    2.9436    0.0000 C   0  0  0  0  0  0  0  0  0  0  0  0
    1.3497    7.2932    0.0000 C   0  0  0  0  0  0  0  0  0  0  0  0
    0.1568    2.8574    0.0000 C   0  0  0  0  0  0  0  0  0  0  0  0
    2.1702    7.3794    0.0000 C   0  0  0  0  0  0  0  0  0  0  0  0
   -0.4301    6.6100    0.0000 C   0  0  0  0  0  0  0  0  0  0  0  0
   -1.0113    5.3046    0.0000 C   0  0  0  0  0  0  0  0  0  0  0  0
   -2.1434    0.4125    0.0000 C   0  0  0  0  0  0  0  0  0  0  0  0
   -1.0976    6.1251    0.0000 C   0  0  0  0  0  0  0  0  0  0  0  0
   -2.8579    0.0000    0.0000 C   0  0  0  0  0  0  0  0  0  0  0  0
   -0.9992    2.0174    0.0000 C   0  0  0  0  0  0  0  0  0  0  0  0
    2.0208    8.8006    0.0000 C   0  0  0  0  0  0  0  0  0  0  0  0
   -3.5724    0.4125    0.0000 C   0  0  0  0  0  0  0  0  0  0  0  0
   -5.0013    0.4125    0.0000 C   0  0  0  0  0  0  0  0  0  0  0  0
   -5.7159    0.0000    0.0000 C   0  0  0  0  0  0  0  0  0  0  0  0
  1 57  1  0  0  0  0
  2 57  1  0  0  0  0
  3 57  1  0  0  0  0
  4 18  2  0  0  0  0
  5 23  1  0  0  0  0
  5 25  1  0  0  0  0
  6 19  2  0  0  0  0
  7 20  2  0  0  0  0
  8 26  1  0  0  0  0
 29  9  1  1  0  0  0
 10 46  1  0  0  0  0
 10 53  1  0  0  0  0
 11 47  1  0  0  0  0
 11 54  1  0  0  0  0
 12 56  2  0  0  0  0
 13 14  1  0  0  0  0
 13 17  1  0  0  0  0
 13 20  1  0  0  0  0
 13 22  1  0  0  0  0
 14 18  1  0  0  0  0
 14 19  1  0  0  0  0
 15 19  1  0  0  0  0
 15 21  1  0  0  0  0
 15 23  1  0  0  0  0
 16 55  1  0  0  0  0
 16 56  1  0  0  0  0
 17 18  1  0  0  0  0
 17 21  2  0  0  0  0
 20 27  1  0  0  0  0
 22 30  1  0  0  0  0
 23 28  1  6  0  0  0
 24 26  1  0  0  0  0
 24 31  1  0  0  0  0
 24 32  1  0  0  0  0
 24 33  1  0  0  0  0
 25 26  1  6  0  0  0
 25 29  1  0  0  0  0
 27 41  2  0  0  0  0
 28 29  1  0  0  0  0
 30 38  1  0  0  0  0
 31 34  2  0  0  0  0
 31 36  1  0  0  0  0
 32 35  2  0  0  0  0
 32 37  1  0  0  0  0
 33 39  2  0  0  0  0
 33 40  1  0  0  0  0
 34 42  1  0  0  0  0
 35 43  1  0  0  0  0
 36 44  2  0  0  0  0
 37 45  2  0  0  0  0
 38 50  1  0  0  0  0
 39 48  1  0  0  0  0
 40 49  2  0  0  0  0
 42 46  2  0  0  0  0
 43 47  2  0  0  0  0
 44 46  1  0  0  0  0
 45 47  1  0  0  0  0
 48 51  2  0  0  0  0
 49 51  1  0  0  0  0
 50 52  1  0  0  0  0
 52 55  1  0  0  0  0
 56 57  1  0  0  0  0
M  CHG  1  13   1
M  END
> <PUBCHEM_COMPOUND_ID_TYPE>
0

> <PUBCHEM_TOTAL_CHARGE>
1

> <PUBCHEM_SUBSTANCE_ID>
310931170

> <PUBCHEM_SUBSTANCE_VERSION>
1

> <PUBCHEM_EXT_DATASOURCE_NAME>
4488

> <PUBCHEM_EXT_DATASOURCE_REGID>
SCHEMBL16108478

> <PUBCHEM_SUBSTANCE_COMMENT>
InChI=1S/C41H43F3N4O9/c1-4-34(50)48(23-11-6-5-10-22-45-38(53)41(42,43)44)31-25-46(39(54)47(48)37(31)52)33-24-32(49)35(57-33)36(51)40(26-12-8-7-9-13-26,27-14-18-29(55-2)19-15-27)28-16-20-30(56-3)21-17-28/h4,7-9,12-21,25,32-33,35-36,49,51H,1,5-6,10-11,22-24H2,2-3H3/p+1/t32-,33+,35-,36?,48?/m0/s1
InChIKey=CABWTFIPTQJOLS-ALQKIWGJSA-O

> <PUBCHEM_SUBSTANCE_SYNONYM>
SCHEMBL16108478

> <PUBCHEM_XREF_EXT_ID>
SCHEMBL16108478

> <PUBCHEM_EXT_DATASOURCE_URL>
https://www.surechembl.org/

> <PUBCHEM_EXT_SUBSTANCE_URL>
https://www.surechembl.org/chemical/SCHEMBL16108478

> <PUBCHEM_CID_ASSOCIATIONS>
117600034  1

> <PUBCHEM_COORDINATE_TYPE>
1
3

> <PUBCHEM_BONDANNOTATIONS>
23  28  6
25  26  6
29  9  5

$$$$
