310932573
  -OEChem-07211613022D

 22 23  0     0  0  0  0  0  0999 V2000
    0.7105   -2.4751    0.0000 F   0  0  0  0  0  0  0  0  0  0  0  0
    1.7417   -4.5605    0.0000 O   0  0  0  0  0  0  0  0  0  0  0  0
    4.2855   -1.2375    0.0000 O   0  0  0  0  0  0  0  0  0  0  0  0
    0.0000   -1.2375    0.0000 O   0  5  0  0  0  0  0  0  0  0  0  0
    0.7105    0.0000    0.0000 O   0  0  0  0  0  0  0  0  0  0  0  0
    3.5751    0.0000    0.0000 O   0  0  0  0  0  0  0  0  0  0  0  0
    0.7105   -0.8250    0.0000 N   0  3  0  0  0  0  0  0  0  0  0  0
    2.5667   -4.5834    0.0000 N   0  0  0  0  0  0  0  0  0  0  0  0
    2.1542    0.0000    0.0000 N   0  0  0  0  0  0  0  0  0  0  0  0
    2.1542   -2.4751    0.0000 C   0  0  0  0  0  0  0  0  0  0  0  0
    1.4209   -2.0626    0.0000 C   0  0  0  0  0  0  0  0  0  0  0  0
    1.4209   -1.2375    0.0000 C   0  0  0  0  0  0  0  0  0  0  0  0
    2.1542   -3.3001    0.0000 C   0  0  0  0  0  0  0  0  0  0  0  0
    2.8646   -1.2375    0.0000 C   0  0  0  0  0  0  0  0  0  0  0  0
    2.1542   -0.8250    0.0000 C   0  0  0  0  0  0  0  0  0  0  0  0
    2.8646   -2.0626    0.0000 C   0  0  0  0  0  0  0  0  0  0  0  0
    1.4896   -3.8042    0.0000 C   0  0  0  0  0  0  0  0  0  0  0  0
    2.8188   -3.7813    0.0000 C   0  0  0  0  0  0  0  0  0  0  0  0
    3.5751   -0.8250    0.0000 C   0  0  0  0  0  0  0  0  0  0  0  0
    0.7105   -3.5522    0.0000 C   0  0  0  0  0  0  0  0  0  0  0  0
    3.5980   -3.5292    0.0000 C   0  0  0  0  0  0  0  0  0  0  0  0
    5.0188   -0.8250    0.0000 C   0  0  0  0  0  0  0  0  0  0  0  0
  1 11  1  0  0  0  0
  2  8  1  0  0  0  0
  2 17  1  0  0  0  0
  3 19  1  0  0  0  0
  3 22  1  0  0  0  0
  4  7  1  0  0  0  0
  5  7  2  0  0  0  0
  6 19  2  0  0  0  0
  7 12  1  0  0  0  0
  8 18  2  0  0  0  0
  9 15  1  0  0  0  0
 10 11  1  0  0  0  0
 10 13  1  0  0  0  0
 10 16  2  0  0  0  0
 11 12  2  0  0  0  0
 12 15  1  0  0  0  0
 13 17  2  0  0  0  0
 13 18  1  0  0  0  0
 14 15  2  0  0  0  0
 14 16  1  0  0  0  0
 14 19  1  0  0  0  0
 17 20  1  0  0  0  0
 18 21  1  0  0  0  0
M  CHG  2   4  -1   7   1
M  END
> <PUBCHEM_COMPOUND_ID_TYPE>
0

> <PUBCHEM_TOTAL_CHARGE>
0

> <PUBCHEM_SUBSTANCE_ID>
310932573

> <PUBCHEM_SUBSTANCE_VERSION>
1

> <PUBCHEM_EXT_DATASOURCE_NAME>
4488

> <PUBCHEM_EXT_DATASOURCE_REGID>
SCHEMBL16109950

> <PUBCHEM_SUBSTANCE_COMMENT>
InChI=1S/C13H12FN3O5/c1-5-9(6(2)22-16-5)7-4-8(13(18)21-3)11(15)12(10(7)14)17(19)20/h4H,15H2,1-3H3
InChIKey=AVRHUDAVFSMYSM-UHFFFAOYSA-N

> <PUBCHEM_SUBSTANCE_SYNONYM>
SCHEMBL16109950

> <PUBCHEM_XREF_EXT_ID>
SCHEMBL16109950

> <PUBCHEM_EXT_DATASOURCE_URL>
https://www.surechembl.org/

> <PUBCHEM_EXT_SUBSTANCE_URL>
https://www.surechembl.org/chemical/SCHEMBL16109950

> <PUBCHEM_CID_ASSOCIATIONS>
117601096  1

> <PUBCHEM_COORDINATE_TYPE>
1
3

$$$$
