310946313
  -OEChem-07211613022D

 26 27  0     0  0  0  0  0  0999 V2000
   -2.1458   -9.0718    0.0000 I   0  0  0  0  0  0  0  0  0  0  0  0
   -0.7169   -6.5968    0.0000 I   0  0  0  0  0  0  0  0  0  0  0  0
   -2.1458   -7.4218    0.0000 O   0  0  0  0  0  0  0  0  0  0  0  0
   -5.0037   -9.0718    0.0000 O   0  0  0  0  0  0  0  0  0  0  0  0
    2.1410   -9.8968    0.0000 O   0  0  0  0  0  0  0  0  0  0  0  0
    4.2844   -6.1843    0.0000 O   0  0  0  0  0  0  0  0  0  0  0  0
    2.8555   -8.6593    0.0000 N   0  0  0  0  0  0  0  0  0  0  0  0
   -1.4314   -7.8343    0.0000 C   0  0  0  0  0  0  0  0  0  0  0  0
   -1.4314   -8.6593    0.0000 C   0  0  0  0  0  0  0  0  0  0  0  0
   -0.7169   -7.4218    0.0000 C   0  0  0  0  0  0  0  0  0  0  0  0
   -0.0024   -8.6593    0.0000 C   0  0  0  0  0  0  0  0  0  0  0  0
   -0.7169   -9.0718    0.0000 C   0  0  0  0  0  0  0  0  0  0  0  0
   -0.0024   -7.8343    0.0000 C   0  0  0  0  0  0  0  0  0  0  0  0
   -2.8603   -7.8343    0.0000 C   0  0  0  0  0  0  0  0  0  0  0  0
    0.7121   -9.0718    0.0000 C   0  0  0  0  0  0  0  0  0  0  0  0
   -3.5748   -7.4218    0.0000 C   0  0  0  0  0  0  0  0  0  0  0  0
   -2.8603   -8.6593    0.0000 C   0  0  0  0  0  0  0  0  0  0  0  0
   -4.2892   -8.6593    0.0000 C   0  0  0  0  0  0  0  0  0  0  0  0
   -4.2892   -7.8343    0.0000 C   0  0  0  0  0  0  0  0  0  0  0  0
   -3.5748   -9.0718    0.0000 C   0  0  0  0  0  0  0  0  0  0  0  0
    1.4265   -8.6593    0.0000 C   0  0  0  0  0  0  0  0  0  0  0  0
    2.1410   -9.0718    0.0000 C   0  0  0  0  0  0  0  0  0  0  0  0
    2.8555   -7.8343    0.0000 C   0  0  0  0  0  0  0  0  0  0  0  0
    3.5699   -7.4218    0.0000 C   0  0  0  0  0  0  0  0  0  0  0  0
    3.5699   -6.5968    0.0000 C   0  0  0  0  0  0  0  0  0  0  0  0
    4.9989   -6.5968    0.0000 C   0  0  0  0  0  0  0  0  0  0  0  0
  1  9  1  0  0  0  0
  2 10  1  0  0  0  0
  3  8  1  0  0  0  0
  3 14  1  0  0  0  0
  4 18  1  0  0  0  0
  5 22  2  0  0  0  0
  6 25  1  0  0  0  0
  6 26  1  0  0  0  0
  7 22  1  0  0  0  0
  7 23  1  0  0  0  0
  8  9  2  0  0  0  0
  8 10  1  0  0  0  0
  9 12  1  0  0  0  0
 10 13  2  0  0  0  0
 11 12  2  0  0  0  0
 11 13  1  0  0  0  0
 11 15  1  0  0  0  0
 14 16  2  0  0  0  0
 14 17  1  0  0  0  0
 15 21  1  0  0  0  0
 16 19  1  0  0  0  0
 17 20  2  0  0  0  0
 18 19  2  0  0  0  0
 18 20  1  0  0  0  0
 21 22  1  0  0  0  0
 23 24  1  0  0  0  0
 24 25  1  0  0  0  0
M  END
> <PUBCHEM_COMPOUND_ID_TYPE>
0

> <PUBCHEM_TOTAL_CHARGE>
0

> <PUBCHEM_SUBSTANCE_ID>
310946313

> <PUBCHEM_SUBSTANCE_VERSION>
1

> <PUBCHEM_EXT_DATASOURCE_NAME>
4488

> <PUBCHEM_EXT_DATASOURCE_REGID>
SCHEMBL16124432

> <PUBCHEM_SUBSTANCE_COMMENT>
InChI=1S/C19H21I2NO4/c1-25-10-2-9-22-18(24)8-3-13-11-16(20)19(17(21)12-13)26-15-6-4-14(23)5-7-15/h4-7,11-12,23H,2-3,8-10H2,1H3,(H,22,24)
InChIKey=AYLMZRFJDDZBBF-UHFFFAOYSA-N

> <PUBCHEM_SUBSTANCE_SYNONYM>
SCHEMBL16124432

> <PUBCHEM_XREF_EXT_ID>
SCHEMBL16124432

> <PUBCHEM_EXT_DATASOURCE_URL>
https://www.surechembl.org/

> <PUBCHEM_EXT_SUBSTANCE_URL>
https://www.surechembl.org/chemical/SCHEMBL16124432

> <PUBCHEM_CID_ASSOCIATIONS>
71487365  1

> <PUBCHEM_COORDINATE_TYPE>
1
3

$$$$
