310934191
  -OEChem-07211613022D

 25 28  0     0  0  0  0  0  0999 V2000
    5.6236   -1.6479    0.0000 Cl  0  0  0  0  0  0  0  0  0  0  0  0
    0.0000   -1.9363    0.0000 O   0  0  0  0  0  0  0  0  0  0  0  0
    1.3184    0.0000    0.0000 O   0  0  0  0  0  0  0  0  0  0  0  0
    2.7603    0.0000    0.0000 N   0  0  0  0  0  0  0  0  0  0  0  0
    0.4120   -2.6573    0.0000 N   0  0  0  0  0  0  0  0  0  0  0  0
    2.7397   -4.1199    0.0000 N   0  0  0  0  0  0  0  0  0  0  0  0
    2.0187   -1.2360    0.0000 C   0  0  0  0  0  0  0  0  0  0  0  0
    2.7603   -1.6479    0.0000 C   0  0  0  0  0  0  0  0  0  0  0  0
    3.4812   -1.2360    0.0000 C   0  0  0  0  0  0  0  0  0  0  0  0
    1.3184   -1.6479    0.0000 C   0  0  0  0  0  0  0  0  0  0  0  0
    2.0187   -0.4120    0.0000 C   0  0  0  0  0  0  0  0  0  0  0  0
    3.4812   -0.4120    0.0000 C   0  0  0  0  0  0  0  0  0  0  0  0
    2.7603   -2.4719    0.0000 C   0  0  0  0  0  0  0  0  0  0  0  0
    0.5561   -1.3389    0.0000 C   0  0  0  0  0  0  0  0  0  0  0  0
    1.2153   -2.4719    0.0000 C   0  0  0  0  0  0  0  0  0  0  0  0
    4.1816   -1.6479    0.0000 C   0  0  0  0  0  0  0  0  0  0  0  0
    4.1816    0.0000    0.0000 C   0  0  0  0  0  0  0  0  0  0  0  0
    4.9026   -1.2360    0.0000 C   0  0  0  0  0  0  0  0  0  0  0  0
    2.0599   -2.8839    0.0000 C   0  0  0  0  0  0  0  0  0  0  0  0
    3.4812   -2.8839    0.0000 C   0  0  0  0  0  0  0  0  0  0  0  0
    4.9026   -0.4120    0.0000 C   0  0  0  0  0  0  0  0  0  0  0  0
    0.3708   -0.5150    0.0000 C   0  0  0  0  0  0  0  0  0  0  0  0
    1.8333   -3.0281    0.0000 C   0  0  0  0  0  0  0  0  0  0  0  0
    2.0187   -3.7079    0.0000 C   0  0  0  0  0  0  0  0  0  0  0  0
    3.4400   -3.7284    0.0000 C   0  0  0  0  0  0  0  0  0  0  0  0
  1 18  1  0  0  0  0
  2  5  1  0  0  0  0
  2 14  1  0  0  0  0
  3 11  2  0  0  0  0
  4 11  1  0  0  0  0
  4 12  1  0  0  0  0
  5 15  2  0  0  0  0
  6 24  2  0  0  0  0
  6 25  1  0  0  0  0
  7  8  2  0  0  0  0
  7 10  1  0  0  0  0
  7 11  1  0  0  0  0
  8  9  1  0  0  0  0
  8 13  1  0  0  0  0
  9 12  2  0  0  0  0
  9 16  1  0  0  0  0
 10 14  2  0  0  0  0
 10 15  1  0  0  0  0
 12 17  1  0  0  0  0
 13 19  2  0  0  0  0
 13 20  1  0  0  0  0
 14 22  1  0  0  0  0
 15 23  1  0  0  0  0
 16 18  2  0  0  0  0
 17 21  2  0  0  0  0
 18 21  1  0  0  0  0
 19 24  1  0  0  0  0
 20 25  2  0  0  0  0
M  END
> <PUBCHEM_COMPOUND_ID_TYPE>
0

> <PUBCHEM_TOTAL_CHARGE>
0

> <PUBCHEM_SUBSTANCE_ID>
310934191

> <PUBCHEM_SUBSTANCE_VERSION>
1

> <PUBCHEM_EXT_DATASOURCE_NAME>
4488

> <PUBCHEM_EXT_DATASOURCE_REGID>
SCHEMBL16111646

> <PUBCHEM_SUBSTANCE_COMMENT>
InChI=1S/C19H14ClN3O2/c1-10-16(11(2)25-23-10)18-17(12-5-7-21-8-6-12)14-9-13(20)3-4-15(14)22-19(18)24/h3-9H,1-2H3,(H,22,24)
InChIKey=MRLRWKQIVIUFON-UHFFFAOYSA-N

> <PUBCHEM_SUBSTANCE_SYNONYM>
SCHEMBL16111646

> <PUBCHEM_XREF_EXT_ID>
SCHEMBL16111646

> <PUBCHEM_EXT_DATASOURCE_URL>
https://www.surechembl.org/

> <PUBCHEM_EXT_SUBSTANCE_URL>
https://www.surechembl.org/chemical/SCHEMBL16111646

> <PUBCHEM_CID_ASSOCIATIONS>
117602463  1

> <PUBCHEM_COORDINATE_TYPE>
1
3

$$$$
