310944366
  -OEChem-07211613022D

 36 40  0     0  0  0  0  0  0999 V2000
   -1.0999    3.5233    0.0000 F   0  0  0  0  0  0  0  0  0  0  0  0
   -1.1171    0.1547    0.0000 N   0  0  0  0  0  0  0  0  0  0  0  0
    1.0484    3.0764    0.0000 N   0  0  0  0  0  0  0  0  0  0  0  0
   -3.2655    3.0420    0.0000 N   0  0  0  0  0  0  0  0  0  0  0  0
   -1.8218   -0.2234    0.0000 C   0  0  0  0  0  0  0  0  0  0  0  0
   -1.0999    1.0312    0.0000 C   0  0  0  0  0  0  0  0  0  0  0  0
   -0.3609   -0.2234    0.0000 C   0  0  0  0  0  0  0  0  0  0  0  0
   -1.8562   -1.0999    0.0000 C   0  0  0  0  0  0  0  0  0  0  0  0
   -0.3953    1.4609    0.0000 C   0  0  0  0  0  0  0  0  0  0  0  0
   -1.8046    1.4437    0.0000 C   0  0  0  0  0  0  0  0  0  0  0  0
   -0.3609    2.3030    0.0000 C   0  0  0  0  0  0  0  0  0  0  0  0
   -1.8218    2.3030    0.0000 C   0  0  0  0  0  0  0  0  0  0  0  0
   -1.0999    2.6983    0.0000 C   0  0  0  0  0  0  0  0  0  0  0  0
   -1.8390   -1.9077    0.0000 C   0  0  0  0  0  0  0  0  0  0  0  0
   -2.5436    0.1719    0.0000 C   0  0  0  0  0  0  0  0  0  0  0  0
   -0.3609   -1.0655    0.0000 C   0  0  0  0  0  0  0  0  0  0  0  0
    0.3781    0.1719    0.0000 C   0  0  0  0  0  0  0  0  0  0  0  0
   -2.5092   -1.4609    0.0000 C   0  0  0  0  0  0  0  0  0  0  0  0
    1.0827   -1.0655    0.0000 C   0  0  0  0  0  0  0  0  0  0  0  0
    0.3781   -1.4780    0.0000 C   0  0  0  0  0  0  0  0  0  0  0  0
    1.0827   -0.2406    0.0000 C   0  0  0  0  0  0  0  0  0  0  0  0
   -3.2655   -0.2406    0.0000 C   0  0  0  0  0  0  0  0  0  0  0  0
   -3.2483   -1.0655    0.0000 C   0  0  0  0  0  0  0  0  0  0  0  0
    0.3437    2.6983    0.0000 C   0  0  0  0  0  0  0  0  0  0  0  0
   -2.5608    2.6983    0.0000 C   0  0  0  0  0  0  0  0  0  0  0  0
   -2.5436   -2.3030    0.0000 C   0  0  0  0  0  0  0  0  0  0  0  0
   -1.1343   -2.3373    0.0000 C   0  0  0  0  0  0  0  0  0  0  0  0
    1.8218   -1.4952    0.0000 C   0  0  0  0  0  0  0  0  0  0  0  0
   -2.5436   -3.1280    0.0000 C   0  0  0  0  0  0  0  0  0  0  0  0
   -1.1343   -3.1280    0.0000 C   0  0  0  0  0  0  0  0  0  0  0  0
    1.8390   -2.3202    0.0000 C   0  0  0  0  0  0  0  0  0  0  0  0
    2.5608   -1.0999    0.0000 C   0  0  0  0  0  0  0  0  0  0  0  0
   -1.8046   -3.5233    0.0000 C   0  0  0  0  0  0  0  0  0  0  0  0
    2.5436   -2.7155    0.0000 C   0  0  0  0  0  0  0  0  0  0  0  0
    3.2655   -1.4952    0.0000 C   0  0  0  0  0  0  0  0  0  0  0  0
    3.2655   -2.3202    0.0000 C   0  0  0  0  0  0  0  0  0  0  0  0
  1 13  1  0  0  0  0
  2  5  1  0  0  0  0
  2  6  1  0  0  0  0
  2  7  1  0  0  0  0
  3 24  3  0  0  0  0
  4 25  3  0  0  0  0
  5  8  1  0  0  0  0
  5 15  2  0  0  0  0
  6  9  2  0  0  0  0
  6 10  1  0  0  0  0
  7 16  2  0  0  0  0
  7 17  1  0  0  0  0
  8 14  1  0  0  0  0
  8 18  2  0  0  0  0
  9 11  1  0  0  0  0
 10 12  2  0  0  0  0
 11 13  2  0  0  0  0
 11 24  1  0  0  0  0
 12 13  1  0  0  0  0
 12 25  1  0  0  0  0
 14 26  2  0  0  0  0
 14 27  1  0  0  0  0
 15 22  1  0  0  0  0
 16 20  1  0  0  0  0
 17 21  2  0  0  0  0
 18 23  1  0  0  0  0
 19 20  2  0  0  0  0
 19 21  1  0  0  0  0
 19 28  1  0  0  0  0
 22 23  2  0  0  0  0
 26 29  1  0  0  0  0
 27 30  2  0  0  0  0
 28 31  2  0  0  0  0
 28 32  1  0  0  0  0
 29 33  2  0  0  0  0
 30 33  1  0  0  0  0
 31 34  1  0  0  0  0
 32 35  2  0  0  0  0
 34 36  2  0  0  0  0
 35 36  1  0  0  0  0
M  END
> <PUBCHEM_COMPOUND_ID_TYPE>
0

> <PUBCHEM_TOTAL_CHARGE>
0

> <PUBCHEM_SUBSTANCE_ID>
310944366

> <PUBCHEM_SUBSTANCE_VERSION>
1

> <PUBCHEM_EXT_DATASOURCE_NAME>
4488

> <PUBCHEM_EXT_DATASOURCE_REGID>
SCHEMBL16122441

> <PUBCHEM_SUBSTANCE_COMMENT>
InChI=1S/C32H20FN3/c33-32-26(21-34)19-29(20-27(32)22-35)36(28-17-15-24(16-18-28)23-9-3-1-4-10-23)31-14-8-7-13-30(31)25-11-5-2-6-12-25/h1-20H
InChIKey=IUFFWNGXCFICGB-UHFFFAOYSA-N

> <PUBCHEM_SUBSTANCE_SYNONYM>
SCHEMBL16122441

> <PUBCHEM_XREF_EXT_ID>
SCHEMBL16122441

> <PUBCHEM_EXT_DATASOURCE_URL>
https://www.surechembl.org/

> <PUBCHEM_EXT_SUBSTANCE_URL>
https://www.surechembl.org/chemical/SCHEMBL16122441

> <PUBCHEM_CID_ASSOCIATIONS>
117610623  1

> <PUBCHEM_COORDINATE_TYPE>
1
3

$$$$
