310929552
  -OEChem-07211613022D

 62 70  0     1  0  0  0  0  0999 V2000
    5.4325   -0.9469    0.0000 S   0  0  0  0  0  0  0  0  0  0  0  0
    5.0338   -2.5418    0.0000 O   0  0  0  0  0  0  0  0  0  0  0  0
    5.6817   -1.6946    0.0000 O   0  0  0  0  0  0  0  0  0  0  0  0
    5.1833   -0.1495    0.0000 O   0  0  0  0  0  0  0  0  0  0  0  0
    4.9840   -3.1399    0.0000 O   0  0  0  0  0  0  0  0  0  0  0  0
    6.0804   -5.5322    0.0000 O   0  0  0  0  0  0  0  0  0  0  0  0
    2.1929   -3.9872    0.0000 O   0  0  0  0  0  0  0  0  0  0  0  0
    7.1270   -8.3730    0.0000 O   0  0  0  0  0  0  0  0  0  0  0  0
    1.6447   -7.5756    0.0000 O   0  0  0  0  0  0  0  0  0  0  0  0
    0.7476   -6.7283    0.0000 O   0  0  0  0  0  0  0  0  0  0  0  0
    9.3200   -9.5691    0.0000 O   0  0  0  0  0  0  0  0  0  0  0  0
    3.5884   -2.9903    0.0000 N   0  0  0  0  0  0  0  0  0  0  0  0
    4.6350   -1.1463    0.0000 N   0  0  0  0  0  0  0  0  0  0  0  0
    3.3891   -4.2862    0.0000 N   0  0  0  0  0  0  0  0  0  0  0  0
    7.1270   -5.8810    0.0000 N   0  0  0  0  0  0  0  0  0  0  0  0
    1.6447   -5.8810    0.0000 N   0  0  0  0  0  0  0  0  0  0  0  0
    3.6383   -2.1929    0.0000 C   0  0  3  0  0  0  0  0  0  0  0  0
    2.9406   -1.7942    0.0000 C   0  0  3  0  0  0  0  0  0  0  0  0
    3.6383   -1.3457    0.0000 C   0  0  0  0  0  0  0  0  0  0  0  0
    4.4357   -1.9437    0.0000 C   0  0  0  0  0  0  0  0  0  0  0  0
    6.1801   -0.6978    0.0000 C   0  0  0  0  0  0  0  0  0  0  0  0
    4.2363   -3.4888    0.0000 C   0  0  0  0  0  0  0  0  0  0  0  0
    2.1431   -1.8441    0.0000 C   0  0  0  0  0  0  0  0  0  0  0  0
    6.7782   -0.0997    0.0000 C   0  0  0  0  0  0  0  0  0  0  0  0
    7.0274   -0.8971    0.0000 C   0  0  0  0  0  0  0  0  0  0  0  0
    4.1367   -4.2862    0.0000 C   0  0  3  0  0  0  0  0  0  0  0  0
    5.7814    0.0000    0.0000 C   0  0  0  0  0  0  0  0  0  0  0  0
    4.9840   -4.4855    0.0000 C   0  0  0  0  0  0  0  0  0  0  0  0
    5.6319   -4.8344    0.0000 C   0  0  3  0  0  0  0  0  0  0  0  0
    4.6849   -3.9373    0.0000 C   0  0  0  0  0  0  0  0  0  0  0  0
    2.6415   -4.6849    0.0000 C   0  0  0  0  0  0  0  0  0  0  0  0
    1.7444   -2.5418    0.0000 C   0  0  0  0  0  0  0  0  0  0  0  0
    6.3795   -6.3296    0.0000 C   0  0  0  0  0  0  0  0  0  0  0  0
    1.9935   -5.2331    0.0000 C   0  0  3  0  0  0  0  0  0  0  0  0
    6.3795   -7.0772    0.0000 C   0  0  0  0  0  0  0  0  0  0  0  0
    7.1270   -7.5756    0.0000 C   0  0  0  0  0  0  0  0  0  0  0  0
    7.7749   -7.0772    0.0000 C   0  0  0  0  0  0  0  0  0  0  0  0
    7.7749   -6.3296    0.0000 C   0  0  0  0  0  0  0  0  0  0  0  0
    1.3955   -4.7348    0.0000 C   0  0  0  0  0  0  0  0  0  0  0  0
    6.0804   -7.9244    0.0000 C   0  0  0  0  0  0  0  0  0  0  0  0
    8.5225   -7.5756    0.0000 C   0  0  0  0  0  0  0  0  0  0  0  0
    8.5225   -5.8810    0.0000 C   0  0  0  0  0  0  0  0  0  0  0  0
    1.5450   -6.7283    0.0000 C   0  0  0  0  0  0  0  0  0  0  0  0
    1.9935   -8.2235    0.0000 C   0  0  3  0  0  0  0  0  0  0  0  0
    0.5981   -4.9840    0.0000 C   0  0  0  0  0  0  0  0  0  0  0  0
    1.4952   -3.8875    0.0000 C   0  0  0  0  0  0  0  0  0  0  0  0
    7.8746   -8.7717    0.0000 C   0  0  0  0  0  0  0  0  0  0  0  0
    2.6415   -8.7717    0.0000 C   0  0  3  0  0  0  0  0  0  0  0  0
    9.2702   -7.0772    0.0000 C   0  0  0  0  0  0  0  0  0  0  0  0
    9.2702   -6.3296    0.0000 C   0  0  0  0  0  0  0  0  0  0  0  0
    1.8441   -9.0209    0.0000 C   0  0  0  0  0  0  0  0  0  0  0  0
    5.6319   -8.5724    0.0000 C   0  0  0  0  0  0  0  0  0  0  0  0
    0.0000   -4.4855    0.0000 C   0  0  0  0  0  0  0  0  0  0  0  0
    0.8971   -3.3891    0.0000 C   0  0  0  0  0  0  0  0  0  0  0  0
    3.3891   -9.1206    0.0000 C   0  0  0  0  0  0  0  0  0  0  0  0
    7.9244   -9.5691    0.0000 C   0  0  0  0  0  0  0  0  0  0  0  0
    8.5724   -8.3730    0.0000 C   0  0  0  0  0  0  0  0  0  0  0  0
    4.9840   -8.9213    0.0000 C   0  0  0  0  0  0  0  0  0  0  0  0
    0.0997   -3.6383    0.0000 C   0  0  0  0  0  0  0  0  0  0  0  0
    4.1367   -9.1206    0.0000 C   0  0  0  0  0  0  0  0  0  0  0  0
    8.6222   -9.9679    0.0000 C   0  0  0  0  0  0  0  0  0  0  0  0
    9.2702   -8.7219    0.0000 C   0  0  0  0  0  0  0  0  0  0  0  0
  1  3  2  0  0  0  0
  1  4  2  0  0  0  0
  1 13  1  0  0  0  0
  1 21  1  0  0  0  0
  2 20  2  0  0  0  0
  5 22  2  0  0  0  0
  6 29  1  0  0  0  0
  6 33  1  0  0  0  0
  7 31  2  0  0  0  0
  8 36  1  0  0  0  0
  8 47  1  0  0  0  0
  9 43  1  0  0  0  0
  9 44  1  0  0  0  0
 10 43  2  0  0  0  0
 11 61  1  0  0  0  0
 11 62  1  0  0  0  0
 17 12  1  1  0  0  0
 12 22  1  0  0  0  0
 13 20  1  0  0  0  0
 14 26  1  0  0  0  0
 14 30  1  0  0  0  0
 14 31  1  0  0  0  0
 15 33  1  0  0  0  0
 15 38  2  0  0  0  0
 16 34  1  0  0  0  0
 16 43  1  0  0  0  0
 17 18  1  0  0  0  0
 17 19  1  0  0  0  0
 17 20  1  6  0  0  0
 18 19  1  0  0  0  0
 18 23  1  6  0  0  0
 21 24  1  0  0  0  0
 21 25  1  0  0  0  0
 21 27  1  0  0  0  0
 26 22  1  6  0  0  0
 23 32  2  0  0  0  0
 24 25  1  0  0  0  0
 26 28  1  0  0  0  0
 29 28  1  1  0  0  0
 29 30  1  0  0  0  0
 34 31  1  1  0  0  0
 33 35  2  0  0  0  0
 34 39  1  0  0  0  0
 35 36  1  0  0  0  0
 35 40  1  0  0  0  0
 36 37  2  0  0  0  0
 37 38  1  0  0  0  0
 37 41  1  0  0  0  0
 38 42  1  0  0  0  0
 39 45  1  0  0  0  0
 39 46  1  0  0  0  0
 40 52  1  0  0  0  0
 41 49  2  0  0  0  0
 42 50  2  0  0  0  0
 44 48  1  0  0  0  0
 44 51  1  1  0  0  0
 45 53  1  0  0  0  0
 46 54  1  0  0  0  0
 47 56  1  0  0  0  0
 47 57  1  0  0  0  0
 48 51  1  6  0  0  0
 48 55  1  0  0  0  0
 49 50  1  0  0  0  0
 52 58  1  0  0  0  0
 53 59  1  0  0  0  0
 54 59  1  0  0  0  0
 55 60  1  0  0  0  0
 56 61  1  0  0  0  0
 57 62  1  0  0  0  0
 58 60  1  0  0  0  0
M  END
> <PUBCHEM_COMPOUND_ID_TYPE>
0

> <PUBCHEM_TOTAL_CHARGE>
0

> <PUBCHEM_SUBSTANCE_ID>
310929552

> <PUBCHEM_SUBSTANCE_VERSION>
1

> <PUBCHEM_EXT_DATASOURCE_NAME>
4488

> <PUBCHEM_EXT_DATASOURCE_REGID>
SCHEMBL16106733

> <PUBCHEM_SUBSTANCE_COMMENT>
InChI=1S/C46H61N5O10S/c1-3-30-26-46(30,43(54)50-62(56,57)45(2)20-21-45)49-40(52)36-25-32-27-51(36)42(53)38(28-12-6-4-7-13-28)48-44(55)61-37-24-29(37)14-8-5-9-16-34-39(59-31-18-22-58-23-19-31)33-15-10-11-17-35(33)47-41(34)60-32/h3,10-11,15,17,28-32,36-38H,1,4-9,12-14,16,18-27H2,2H3,(H,48,55)(H,49,52)(H,50,54)/t29-,30-,32-,36+,37-,38+,46-/m1/s1
InChIKey=RAXDAUAQGPMNGN-HEHSXRTMSA-N

> <PUBCHEM_SUBSTANCE_SYNONYM>
SCHEMBL16106733

> <PUBCHEM_XREF_EXT_ID>
SCHEMBL16106733

> <PUBCHEM_EXT_DATASOURCE_URL>
https://www.surechembl.org/

> <PUBCHEM_EXT_SUBSTANCE_URL>
https://www.surechembl.org/chemical/SCHEMBL16106733

> <PUBCHEM_CID_ASSOCIATIONS>
76317950  1

> <PUBCHEM_COORDINATE_TYPE>
1
3

> <PUBCHEM_BONDANNOTATIONS>
17  12  5
17  20  6
18  23  6
26  22  6
29  28  5
34  31  5
44  51  5
48  51  6

$$$$
