310931031
  -OEChem-07211613022D

 21 23  0     0  0  0  0  0  0999 V2000
    2.2748   -5.7589    0.0000 O   0  0  0  0  0  0  0  0  0  0  0  0
    1.5549   -3.7145    0.0000 O   0  0  0  0  0  0  0  0  0  0  0  0
    2.9947   -4.5208    0.0000 C   0  0  0  0  0  0  0  0  0  0  0  0
    2.2748   -4.9239    0.0000 C   0  0  0  0  0  0  0  0  0  0  0  0
    1.5549   -4.5208    0.0000 C   0  0  0  0  0  0  0  0  0  0  0  0
    0.8351   -4.9239    0.0000 C   0  0  0  0  0  0  0  0  0  0  0  0
    3.6857   -3.2826    0.0000 C   0  0  0  0  0  0  0  0  0  0  0  0
    2.9947   -3.7145    0.0000 C   0  0  0  0  0  0  0  0  0  0  0  0
    3.6857   -2.4763    0.0000 C   0  0  0  0  0  0  0  0  0  0  0  0
    0.4319   -5.6438    0.0000 C   0  0  0  0  0  0  0  0  0  0  0  0
    0.0000   -4.9527    0.0000 C   0  0  0  0  0  0  0  0  0  0  0  0
    3.6857   -4.9239    0.0000 C   0  0  0  0  0  0  0  0  0  0  0  0
    4.4056   -3.7145    0.0000 C   0  0  0  0  0  0  0  0  0  0  0  0
    4.4056   -2.0444    0.0000 C   0  0  0  0  0  0  0  0  0  0  0  0
    4.4056   -4.5208    0.0000 C   0  0  0  0  0  0  0  0  0  0  0  0
    2.9947   -2.0444    0.0000 C   0  0  0  0  0  0  0  0  0  0  0  0
    4.4056   -1.2382    0.0000 C   0  0  0  0  0  0  0  0  0  0  0  0
    2.9947   -1.2382    0.0000 C   0  0  0  0  0  0  0  0  0  0  0  0
    3.6857   -0.8351    0.0000 C   0  0  0  0  0  0  0  0  0  0  0  0
    5.1255   -0.8351    0.0000 C   0  0  0  0  0  0  0  0  0  0  0  0
    5.1255    0.0000    0.0000 C   0  0  0  0  0  0  0  0  0  0  0  0
  1  4  2  0  0  0  0
  2  5  2  0  0  0  0
  3  4  1  0  0  0  0
  3  8  2  0  0  0  0
  3 12  1  0  0  0  0
  4  5  1  0  0  0  0
  5  6  1  0  0  0  0
  6 10  1  0  0  0  0
  6 11  1  0  0  0  0
  7  8  1  0  0  0  0
  7  9  1  0  0  0  0
  7 13  2  0  0  0  0
  9 14  1  0  0  0  0
  9 16  2  0  0  0  0
 10 11  1  0  0  0  0
 12 15  2  0  0  0  0
 13 15  1  0  0  0  0
 14 17  2  0  0  0  0
 16 18  1  0  0  0  0
 17 19  1  0  0  0  0
 17 20  1  0  0  0  0
 18 19  2  0  0  0  0
 20 21  3  0  0  0  0
M  END
> <PUBCHEM_COMPOUND_ID_TYPE>
0

> <PUBCHEM_TOTAL_CHARGE>
0

> <PUBCHEM_SUBSTANCE_ID>
310931031

> <PUBCHEM_SUBSTANCE_VERSION>
1

> <PUBCHEM_EXT_DATASOURCE_NAME>
4488

> <PUBCHEM_EXT_DATASOURCE_REGID>
SCHEMBL16108333

> <PUBCHEM_SUBSTANCE_COMMENT>
InChI=1S/C19H14O2/c1-2-13-5-3-6-15(11-13)16-7-4-8-17(12-16)19(21)18(20)14-9-10-14/h1,3-8,11-12,14H,9-10H2
InChIKey=BIBUHGODKJPSFL-UHFFFAOYSA-N

> <PUBCHEM_SUBSTANCE_SYNONYM>
SCHEMBL16108333

> <PUBCHEM_XREF_EXT_ID>
SCHEMBL16108333

> <PUBCHEM_EXT_DATASOURCE_URL>
https://www.surechembl.org/

> <PUBCHEM_EXT_SUBSTANCE_URL>
https://www.surechembl.org/chemical/SCHEMBL16108333

> <PUBCHEM_CID_ASSOCIATIONS>
117599949  1

> <PUBCHEM_COORDINATE_TYPE>
1
3

$$$$
