310945938
  -OEChem-07211613022D

 13 14  0     0  0  0  0  0  0999 V2000
   -0.1823    0.4740    0.0000 S   0  0  0  0  0  0  0  0  0  0  0  0
    2.6470    0.8677    0.0000 O   0  0  0  0  0  0  0  0  0  0  0  0
    2.1949   -0.4449    0.0000 O   0  0  0  0  0  0  0  0  0  0  0  0
   -1.4949   -0.1969    0.0000 N   0  0  0  0  0  0  0  0  0  0  0  0
   -0.1823   -0.8677    0.0000 N   0  0  0  0  0  0  0  0  0  0  0  0
   -0.6636   -0.2115    0.0000 C   0  0  0  0  0  0  0  0  0  0  0  0
    0.6053    0.2115    0.0000 C   0  0  0  0  0  0  0  0  0  0  0  0
    0.6053   -0.6199    0.0000 C   0  0  0  0  0  0  0  0  0  0  0  0
   -2.0929    0.3865    0.0000 C   0  0  0  0  0  0  0  0  0  0  0  0
   -2.0637   -0.7803    0.0000 C   0  0  0  0  0  0  0  0  0  0  0  0
    1.2615    0.7073    0.0000 C   0  0  0  0  0  0  0  0  0  0  0  0
   -2.6470   -0.1969    0.0000 C   0  0  0  0  0  0  0  0  0  0  0  0
    2.0346    0.3719    0.0000 C   0  0  0  0  0  0  0  0  0  0  0  0
  1  6  1  0  0  0  0
  1  7  1  0  0  0  0
  2 13  2  0  0  0  0
  3 13  1  0  0  0  0
  4  6  1  0  0  0  0
  4  9  1  0  0  0  0
  4 10  1  0  0  0  0
  5  6  2  0  0  0  0
  5  8  1  0  0  0  0
  7  8  2  0  0  0  0
  7 11  1  0  0  0  0
  9 12  1  0  0  0  0
 10 12  1  0  0  0  0
 11 13  1  0  0  0  0
M  END
> <PUBCHEM_COMPOUND_ID_TYPE>
0

> <PUBCHEM_TOTAL_CHARGE>
0

> <PUBCHEM_SUBSTANCE_ID>
310945938

> <PUBCHEM_SUBSTANCE_VERSION>
1

> <PUBCHEM_EXT_DATASOURCE_NAME>
4488

> <PUBCHEM_EXT_DATASOURCE_REGID>
SCHEMBL16124043

> <PUBCHEM_SUBSTANCE_COMMENT>
InChI=1S/C8H10N2O2S/c11-7(12)4-6-5-9-8(13-6)10-2-1-3-10/h5H,1-4H2,(H,11,12)
InChIKey=XXPRPHZUHIOIDB-UHFFFAOYSA-N

> <PUBCHEM_SUBSTANCE_SYNONYM>
SCHEMBL16124043

> <PUBCHEM_XREF_EXT_ID>
SCHEMBL16124043

> <PUBCHEM_EXT_DATASOURCE_URL>
https://www.surechembl.org/

> <PUBCHEM_EXT_SUBSTANCE_URL>
https://www.surechembl.org/chemical/SCHEMBL16124043

> <PUBCHEM_CID_ASSOCIATIONS>
117611921  1

> <PUBCHEM_COORDINATE_TYPE>
1
3

$$$$
