310935598
  -OEChem-07211613022D

 35 38  0     1  0  0  0  0  0999 V2000
    0.5314    0.2971    0.0000 O   0  0  0  0  0  0  0  0  0  0  0  0
    3.3523    3.5854    0.0000 O   0  0  0  0  0  0  0  0  0  0  0  0
    6.5402    2.4343    0.0000 O   0  0  0  0  0  0  0  0  0  0  0  0
    4.5538    0.2202    0.0000 O   0  0  0  0  0  0  0  0  0  0  0  0
    7.8019    1.7635    0.0000 O   0  0  0  0  0  0  0  0  0  0  0  0
    5.7656    0.9775    0.0000 O   0  0  0  0  0  0  0  0  0  0  0  0
    2.0837   -0.2164    0.0000 N   0  0  0  0  0  0  0  0  0  0  0  0
    1.9233    1.1104    0.0000 C   0  0  3  0  0  0  0  0  0  0  0  0
    1.1387    0.8555    0.0000 C   0  0  3  0  0  0  0  0  0  0  0  0
    1.9233    1.9354    0.0000 C   0  0  3  0  0  0  0  0  0  0  0  0
    2.6378    2.3479    0.0000 C   0  0  3  0  0  0  0  0  0  0  0  0
    3.3523    1.9354    0.0000 C   0  0  3  0  0  0  0  0  0  0  0  0
    4.0668    2.3479    0.0000 C   0  0  3  0  0  0  0  0  0  0  0  0
    2.6378    0.6979    0.0000 C   0  0  0  0  0  0  0  0  0  0  0  0
    0.6538    1.5229    0.0000 C   0  0  0  0  0  0  0  0  0  0  0  0
    1.3018    0.0468    0.0000 C   0  0  0  0  0  0  0  0  0  0  0  0
    1.1387    2.1904    0.0000 C   0  0  0  0  0  0  0  0  0  0  0  0
    3.3523    1.1104    0.0000 C   0  0  0  0  0  0  0  0  0  0  0  0
    1.8371    0.2900    0.0000 C   0  0  0  0  0  0  0  0  0  0  0  0
    4.5039    1.6483    0.0000 C   0  0  3  0  0  0  0  0  0  0  0  0
    2.6378    3.1729    0.0000 C   0  0  0  0  0  0  0  0  0  0  0  0
    4.4541    3.0764    0.0000 C   0  0  0  0  0  0  0  0  0  0  0  0
    0.6829   -0.4988    0.0000 C   0  0  0  0  0  0  0  0  0  0  0  0
    3.3253    2.7096    0.0000 C   0  0  0  0  0  0  0  0  0  0  0  0
    5.3284    1.6771    0.0000 C   0  0  0  0  0  0  0  0  0  0  0  0
    5.7158    2.4055    0.0000 C   0  0  3  0  0  0  0  0  0  0  0  0
    5.2786    3.1052    0.0000 C   0  0  0  0  0  0  0  0  0  0  0  0
    4.1166    0.9199    0.0000 C   0  0  0  0  0  0  0  0  0  0  0  0
    2.2468   -1.0251    0.0000 C   0  0  0  0  0  0  0  0  0  0  0  0
    0.8460   -1.3075    0.0000 C   0  0  0  0  0  0  0  0  0  0  0  0
    1.6279   -1.5707    0.0000 C   0  0  0  0  0  0  0  0  0  0  0  0
    6.9774    1.7347    0.0000 C   0  0  0  0  0  0  0  0  0  0  0  0
    5.3783    0.2490    0.0000 C   0  0  0  0  0  0  0  0  0  0  0  0
    6.5901    1.0062    0.0000 C   0  0  0  0  0  0  0  0  0  0  0  0
    5.8155   -0.4506    0.0000 C   0  0  0  0  0  0  0  0  0  0  0  0
  9  1  1  1  0  0  0
  2 21  1  0  0  0  0
 26  3  1  6  0  0  0
  3 32  1  0  0  0  0
  4 28  1  0  0  0  0
  4 33  1  0  0  0  0
  5 32  2  0  0  0  0
  6 33  2  0  0  0  0
  7 16  2  0  0  0  0
  7 29  1  0  0  0  0
  8  9  1  0  0  0  0
  8 10  1  0  0  0  0
  8 14  1  0  0  0  0
  8 19  1  1  0  0  0
  9 15  1  0  0  0  0
  9 16  1  0  0  0  0
 10 11  1  0  0  0  0
 10 17  1  1  0  0  0
 11 12  1  0  0  0  0
 11 21  1  6  0  0  0
 12 13  1  0  0  0  0
 12 18  1  1  0  0  0
 13 20  1  0  0  0  0
 13 22  1  0  0  0  0
 13 24  1  6  0  0  0
 14 18  1  0  0  0  0
 15 17  1  0  0  0  0
 16 23  1  0  0  0  0
 20 25  1  0  0  0  0
 20 28  1  6  0  0  0
 22 27  1  0  0  0  0
 23 30  2  0  0  0  0
 25 26  1  0  0  0  0
 26 27  1  0  0  0  0
 29 31  2  0  0  0  0
 30 31  1  0  0  0  0
 32 34  1  0  0  0  0
 33 35  1  0  0  0  0
M  END
> <PUBCHEM_COMPOUND_ID_TYPE>
0

> <PUBCHEM_TOTAL_CHARGE>
0

> <PUBCHEM_SUBSTANCE_ID>
310935598

> <PUBCHEM_SUBSTANCE_VERSION>
1

> <PUBCHEM_EXT_DATASOURCE_NAME>
4488

> <PUBCHEM_EXT_DATASOURCE_REGID>
SCHEMBL16113171

> <PUBCHEM_SUBSTANCE_COMMENT>
InChI=1S/C28H41NO6/c1-18(31)34-17-20-15-21(35-19(2)32)8-11-26(20,3)23-9-12-27(4)24(22(23)16-30)10-13-28(27,33)25-7-5-6-14-29-25/h5-7,14,20-24,30,33H,8-13,15-17H2,1-4H3/t20-,21+,22-,23+,24+,26+,27+,28-/m1/s1
InChIKey=MJTOPEGEHKJGPL-FAWKSVGKSA-N

> <PUBCHEM_SUBSTANCE_SYNONYM>
SCHEMBL16113171

> <PUBCHEM_XREF_EXT_ID>
SCHEMBL16113171

> <PUBCHEM_EXT_DATASOURCE_URL>
https://www.surechembl.org/

> <PUBCHEM_EXT_SUBSTANCE_URL>
https://www.surechembl.org/chemical/SCHEMBL16113171

> <PUBCHEM_CID_ASSOCIATIONS>
117603619  1

> <PUBCHEM_COORDINATE_TYPE>
1
3

> <PUBCHEM_BONDANNOTATIONS>
9  1  5
10  17  5
11  21  6
12  18  5
13  24  6
20  28  6
26  3  6
8  19  5

$$$$
