310944942
  -OEChem-07211613022D

 33 37  0     0  0  0  0  0  0999 V2000
    3.7415    2.4290    0.0000 O   0  0  0  0  0  0  0  0  0  0  0  0
   -4.2760   -0.4097    0.0000 O   0  0  0  0  0  0  0  0  0  0  0  0
    1.9955    0.2079    0.0000 N   0  0  0  0  0  0  0  0  0  0  0  0
   -0.8909    1.0987    0.0000 N   0  0  0  0  0  0  0  0  0  0  0  0
    4.2760    1.1344    0.0000 N   0  0  0  0  0  0  0  0  0  0  0  0
   -3.0882   -0.9087    0.0000 N   0  0  0  0  0  0  0  0  0  0  0  0
   -1.0928   -1.7876    0.0000 N   0  0  0  0  0  0  0  0  0  0  0  0
    1.5679    0.8968    0.0000 C   0  0  0  0  0  0  0  0  0  0  0  0
    2.0905    1.5381    0.0000 C   0  0  0  0  0  0  0  0  0  0  0  0
    2.8625    1.2294    0.0000 C   0  0  0  0  0  0  0  0  0  0  0  0
    0.7483    0.9799    0.0000 C   0  0  0  0  0  0  0  0  0  0  0  0
    2.7794    0.3979    0.0000 C   0  0  0  0  0  0  0  0  0  0  0  0
    0.3920    1.7163    0.0000 C   0  0  0  0  0  0  0  0  0  0  0  0
    3.5871    1.5856    0.0000 C   0  0  0  0  0  0  0  0  0  0  0  0
    1.6272    2.4290    0.0000 C   0  0  0  0  0  0  0  0  0  0  0  0
    0.2969    0.2672    0.0000 C   0  0  0  0  0  0  0  0  0  0  0  0
   -0.5226    0.3385    0.0000 C   0  0  0  0  0  0  0  0  0  0  0  0
    0.8077    2.4290    0.0000 C   0  0  0  0  0  0  0  0  0  0  0  0
   -0.9859   -0.3622    0.0000 C   0  0  0  0  0  0  0  0  0  0  0  0
    3.4921   -0.0654    0.0000 C   0  0  0  0  0  0  0  0  0  0  0  0
   -0.4157    1.7638    0.0000 C   0  0  0  0  0  0  0  0  0  0  0  0
   -2.2687   -0.9918    0.0000 C   0  0  0  0  0  0  0  0  0  0  0  0
   -1.7935   -0.3029    0.0000 C   0  0  0  0  0  0  0  0  0  0  0  0
    4.2166    0.2910    0.0000 C   0  0  0  0  0  0  0  0  0  0  0  0
   -1.9123   -1.7282    0.0000 C   0  0  0  0  0  0  0  0  0  0  0  0
   -0.6295   -1.1106    0.0000 C   0  0  0  0  0  0  0  0  0  0  0  0
   -3.4921   -0.2079    0.0000 C   0  0  0  0  0  0  0  0  0  0  0  0
   -3.5396   -1.6213    0.0000 C   0  0  0  0  0  0  0  0  0  0  0  0
   -2.2330   -2.2628    0.0000 C   0  0  0  0  0  0  0  0  0  0  0  0
   -3.2782    0.5998    0.0000 C   0  0  0  0  0  0  0  0  0  0  0  0
   -3.1832   -2.3696    0.0000 C   0  0  0  0  0  0  0  0  0  0  0  0
   -3.9078    1.1344    0.0000 C   0  0  0  0  0  0  0  0  0  0  0  0
   -2.4825   -2.4290    0.0000 C   0  0  0  0  0  0  0  0  0  0  0  0
  1 14  2  0  0  0  0
  2 27  2  0  0  0  0
  3  8  1  0  0  0  0
  3 12  1  0  0  0  0
  4 17  2  0  0  0  0
  4 21  1  0  0  0  0
  5 14  1  0  0  0  0
  5 24  1  0  0  0  0
  6 22  1  0  0  0  0
  6 27  1  0  0  0  0
  6 28  1  0  0  0  0
  7 25  1  0  0  0  0
  7 26  2  0  0  0  0
  8  9  2  0  0  0  0
  8 11  1  0  0  0  0
  9 10  1  0  0  0  0
  9 15  1  0  0  0  0
 10 12  2  0  0  0  0
 10 14  1  0  0  0  0
 11 13  1  0  0  0  0
 11 16  2  0  0  0  0
 12 20  1  0  0  0  0
 13 18  1  0  0  0  0
 13 21  2  0  0  0  0
 15 18  1  0  0  0  0
 16 17  1  0  0  0  0
 17 19  1  0  0  0  0
 19 23  2  0  0  0  0
 19 26  1  0  0  0  0
 20 24  1  0  0  0  0
 22 23  1  0  0  0  0
 22 25  2  0  0  0  0
 25 29  1  0  0  0  0
 27 30  1  0  0  0  0
 28 31  1  0  0  0  0
 30 32  2  0  0  0  0
 31 33  1  0  0  0  0
M  END
> <PUBCHEM_COMPOUND_ID_TYPE>
0

> <PUBCHEM_TOTAL_CHARGE>
0

> <PUBCHEM_SUBSTANCE_ID>
310944942

> <PUBCHEM_SUBSTANCE_VERSION>
1

> <PUBCHEM_EXT_DATASOURCE_NAME>
4488

> <PUBCHEM_EXT_DATASOURCE_REGID>
SCHEMBL16123027

> <PUBCHEM_SUBSTANCE_COMMENT>
InChI=1S/C26H27N5O2/c1-4-10-31(23(32)5-2)22-11-17(14-28-15(22)3)21-12-19-16(13-29-21)6-7-18-24-20(30-25(18)19)8-9-27-26(24)33/h5,11-14,30H,2,4,6-10H2,1,3H3,(H,27,33)
InChIKey=ANJVPWQLNIHWEM-UHFFFAOYSA-N

> <PUBCHEM_SUBSTANCE_SYNONYM>
SCHEMBL16123027

> <PUBCHEM_XREF_EXT_ID>
SCHEMBL16123027

> <PUBCHEM_EXT_DATASOURCE_URL>
https://www.surechembl.org/

> <PUBCHEM_EXT_SUBSTANCE_URL>
https://www.surechembl.org/chemical/SCHEMBL16123027

> <PUBCHEM_CID_ASSOCIATIONS>
117611096  1

> <PUBCHEM_COORDINATE_TYPE>
1
3

$$$$
