310941630
  -OEChem-07211613022D

 20 22  0     0  0  0  0  0  0999 V2000
   -2.4482   -1.7438    0.0000 Cl  0  0  0  0  0  0  0  0  0  0  0  0
    1.3314    1.7438    0.0000 S   0  0  0  0  0  0  0  0  0  0  0  0
   -1.0050   -0.9191    0.0000 O   0  0  0  0  0  0  0  0  0  0  0  0
    0.4381   -0.9191    0.0000 O   0  0  0  0  0  0  0  0  0  0  0  0
    1.1940    0.4038    0.0000 N   0  0  0  0  0  0  0  0  0  0  0  0
    2.5684    0.9363    0.0000 N   0  0  0  0  0  0  0  0  0  0  0  0
   -0.2835    0.3350    0.0000 C   0  0  0  0  0  0  0  0  0  0  0  0
    0.4209    0.7645    0.0000 C   0  0  0  0  0  0  0  0  0  0  0  0
   -1.7266   -0.4724    0.0000 C   0  0  0  0  0  0  0  0  0  0  0  0
   -1.7094    0.3350    0.0000 C   0  0  0  0  0  0  0  0  0  0  0  0
   -0.3178   -0.4724    0.0000 C   0  0  0  0  0  0  0  0  0  0  0  0
   -1.0050    0.7473    0.0000 C   0  0  0  0  0  0  0  0  0  0  0  0
   -2.4310   -0.9019    0.0000 C   0  0  0  0  0  0  0  0  0  0  0  0
    1.7266    1.0565    0.0000 C   0  0  0  0  0  0  0  0  0  0  0  0
    0.5240    1.5720    0.0000 C   0  0  0  0  0  0  0  0  0  0  0  0
   -2.4138    0.7301    0.0000 C   0  0  0  0  0  0  0  0  0  0  0  0
   -3.1354   -0.5068    0.0000 C   0  0  0  0  0  0  0  0  0  0  0  0
   -3.1526    0.3350    0.0000 C   0  0  0  0  0  0  0  0  0  0  0  0
    3.1526    1.5204    0.0000 C   0  0  0  0  0  0  0  0  0  0  0  0
    2.9120    0.1804    0.0000 C   0  0  0  0  0  0  0  0  0  0  0  0
  1 13  1  0  0  0  0
  2 14  1  0  0  0  0
  2 15  1  0  0  0  0
  3  9  1  0  0  0  0
  3 11  1  0  0  0  0
  4 11  2  0  0  0  0
  5  8  1  0  0  0  0
  5 14  2  0  0  0  0
  6 14  1  0  0  0  0
  6 19  1  0  0  0  0
  6 20  1  0  0  0  0
  7  8  1  0  0  0  0
  7 11  1  0  0  0  0
  7 12  2  0  0  0  0
  8 15  2  0  0  0  0
  9 10  1  0  0  0  0
  9 13  2  0  0  0  0
 10 12  1  0  0  0  0
 10 16  2  0  0  0  0
 13 17  1  0  0  0  0
 16 18  1  0  0  0  0
 17 18  2  0  0  0  0
M  END
> <PUBCHEM_COMPOUND_ID_TYPE>
0

> <PUBCHEM_TOTAL_CHARGE>
0

> <PUBCHEM_SUBSTANCE_ID>
310941630

> <PUBCHEM_SUBSTANCE_VERSION>
1

> <PUBCHEM_EXT_DATASOURCE_NAME>
4488

> <PUBCHEM_EXT_DATASOURCE_REGID>
SCHEMBL16119661

> <PUBCHEM_SUBSTANCE_COMMENT>
InChI=1S/C14H11ClN2O2S/c1-17(2)14-16-11(7-20-14)9-6-8-4-3-5-10(15)12(8)19-13(9)18/h3-7H,1-2H3
InChIKey=IFDSUBITBNUZOJ-UHFFFAOYSA-N

> <PUBCHEM_SUBSTANCE_SYNONYM>
SCHEMBL16119661

> <PUBCHEM_XREF_EXT_ID>
SCHEMBL16119661

> <PUBCHEM_EXT_DATASOURCE_URL>
https://www.surechembl.org/

> <PUBCHEM_EXT_SUBSTANCE_URL>
https://www.surechembl.org/chemical/SCHEMBL16119661

> <PUBCHEM_CID_ASSOCIATIONS>
117608418  1

> <PUBCHEM_COORDINATE_TYPE>
1
3

$$$$
