310947645
  -OEChem-07211613022D

 37 37  0     1  0  0  0  0  0999 V2000
    2.1971   -2.0762    0.0000 S   0  0  0  0  0  0  0  0  0  0  0  0
    1.4826   -1.6637    0.0000 S   0  0  0  0  0  0  0  0  0  0  0  0
   -2.8042   -3.3137    0.0000 O   0  0  0  0  0  0  0  0  0  0  0  0
   -3.5187   -5.3762    0.0000 O   0  0  0  0  0  0  0  0  0  0  0  0
   -2.0898   -5.3762    0.0000 O   0  0  0  0  0  0  0  0  0  0  0  0
   -4.2332   -3.3137    0.0000 O   0  0  0  0  0  0  0  0  0  0  0  0
   -1.3753   -3.3137    0.0000 O   0  0  0  0  0  0  0  0  0  0  0  0
   -4.9476   -5.3762    0.0000 O   0  0  0  0  0  0  0  0  0  0  0  0
    2.1971   -2.9012    0.0000 O   0  0  0  0  0  0  0  0  0  0  0  0
    4.3405   -0.8387    0.0000 O   0  0  0  0  0  0  0  0  0  0  0  0
    3.6260   -2.9012    0.0000 N   0  0  0  0  0  0  0  0  0  0  0  0
   -0.6608   -4.5512    0.0000 N   0  0  0  0  0  0  0  0  0  0  0  0
    3.6260   -4.5512    0.0000 N   0  0  0  0  0  0  0  0  0  0  0  0
    0.0537   -1.6637    0.0000 N   0  0  0  0  0  0  0  0  0  0  0  0
    5.0549   -2.0762    0.0000 N   0  0  0  0  0  0  0  0  0  0  0  0
   -2.8042   -4.1387    0.0000 C   0  0  3  0  0  0  0  0  0  0  0  0
   -3.5187   -4.5512    0.0000 C   0  0  3  0  0  0  0  0  0  0  0  0
   -2.0898   -4.5512    0.0000 C   0  0  3  0  0  0  0  0  0  0  0  0
   -4.2332   -4.1387    0.0000 C   0  0  3  0  0  0  0  0  0  0  0  0
   -1.3753   -4.1387    0.0000 C   0  0  0  0  0  0  0  0  0  0  0  0
   -4.9476   -4.5512    0.0000 C   0  0  0  0  0  0  0  0  0  0  0  0
    3.6260   -2.0762    0.0000 C   0  0  3  0  0  0  0  0  0  0  0  0
    2.9115   -3.3137    0.0000 C   0  0  0  0  0  0  0  0  0  0  0  0
    2.9115   -4.1387    0.0000 C   0  0  3  0  0  0  0  0  0  0  0  0
    4.3405   -1.6637    0.0000 C   0  0  0  0  0  0  0  0  0  0  0  0
    2.9115   -1.6637    0.0000 C   0  0  0  0  0  0  0  0  0  0  0  0
    2.1971   -4.5512    0.0000 C   0  0  0  0  0  0  0  0  0  0  0  0
    0.0537   -4.1387    0.0000 C   0  0  0  0  0  0  0  0  0  0  0  0
    0.7681   -1.2512    0.0000 C   0  0  0  0  0  0  0  0  0  0  0  0
    1.4826   -4.1387    0.0000 C   0  0  0  0  0  0  0  0  0  0  0  0
   -5.6621   -4.1387    0.0000 C   0  0  0  0  0  0  0  0  0  0  0  0
    0.7681   -4.5512    0.0000 C   0  0  0  0  0  0  0  0  0  0  0  0
    0.7681   -0.4262    0.0000 C   0  0  0  0  0  0  0  0  0  0  0  0
   -0.6608   -1.2512    0.0000 C   0  0  0  0  0  0  0  0  0  0  0  0
    0.0537   -0.0137    0.0000 C   0  0  0  0  0  0  0  0  0  0  0  0
   -0.6608   -0.4262    0.0000 C   0  0  0  0  0  0  0  0  0  0  0  0
    4.3405   -4.1387    0.0000 C   0  0  0  0  0  0  0  0  0  0  0  0
  1  2  1  0  0  0  0
  1 26  1  0  0  0  0
  2 29  1  0  0  0  0
 16  3  1  1  0  0  0
 17  4  1  6  0  0  0
 18  5  1  1  0  0  0
 19  6  1  6  0  0  0
  7 20  2  0  0  0  0
  8 21  2  0  0  0  0
  9 23  2  0  0  0  0
 10 25  2  0  0  0  0
 22 11  1  1  0  0  0
 11 23  1  0  0  0  0
 12 20  1  0  0  0  0
 12 28  1  0  0  0  0
 24 13  1  1  0  0  0
 13 37  1  0  0  0  0
 14 29  1  0  0  0  0
 14 34  2  0  0  0  0
 15 25  1  0  0  0  0
 16 17  1  0  0  0  0
 16 18  1  0  0  0  0
 17 19  1  0  0  0  0
 18 20  1  0  0  0  0
 19 21  1  0  0  0  0
 21 31  1  0  0  0  0
 22 25  1  0  0  0  0
 22 26  1  0  0  0  0
 23 24  1  0  0  0  0
 24 27  1  0  0  0  0
 27 30  1  0  0  0  0
 28 32  1  0  0  0  0
 29 33  2  0  0  0  0
 30 32  1  0  0  0  0
 33 35  1  0  0  0  0
 34 36  1  0  0  0  0
 35 36  2  0  0  0  0
M  END
> <PUBCHEM_COMPOUND_ID_TYPE>
0

> <PUBCHEM_TOTAL_CHARGE>
0

> <PUBCHEM_SUBSTANCE_ID>
310947645

> <PUBCHEM_SUBSTANCE_VERSION>
1

> <PUBCHEM_EXT_DATASOURCE_NAME>
4488

> <PUBCHEM_EXT_DATASOURCE_REGID>
SCHEMBL16125812

> <PUBCHEM_SUBSTANCE_COMMENT>
InChI=1S/C22H35N5O8S2/c1-12(28)16(29)17(30)18(31)19(32)22(35)26-10-5-3-7-13(24-2)21(34)27-14(20(23)33)11-36-37-15-8-4-6-9-25-15/h4,6,8-9,13-14,16-19,24,29-32H,3,5,7,10-11H2,1-2H3,(H2,23,33)(H,26,35)(H,27,34)/t13-,14-,16-,17+,18+,19-/m0/s1
InChIKey=RVGPKBHRWRPTEY-LYBROENRSA-N

> <PUBCHEM_SUBSTANCE_SYNONYM>
SCHEMBL16125812

> <PUBCHEM_XREF_EXT_ID>
SCHEMBL16125812

> <PUBCHEM_EXT_DATASOURCE_URL>
https://www.surechembl.org/

> <PUBCHEM_EXT_SUBSTANCE_URL>
https://www.surechembl.org/chemical/SCHEMBL16125812

> <PUBCHEM_CID_ASSOCIATIONS>
117613361  1

> <PUBCHEM_COORDINATE_TYPE>
1
3

> <PUBCHEM_BONDANNOTATIONS>
22  11  5
24  13  5
16  3  5
17  4  6
18  5  5
19  6  6

$$$$
