310944312
  -OEChem-07211613022D

 33 37  0     1  0  0  0  0  0999 V2000
    2.4994    0.3104    0.0000 O   0  0  0  0  0  0  0  0  0  0  0  0
    5.0376   -1.2524    0.0000 O   0  0  0  0  0  0  0  0  0  0  0  0
    5.5031    0.1441    0.0000 O   0  0  0  0  0  0  0  0  0  0  0  0
   -1.3134   -0.8313    0.0000 O   0  0  0  0  0  0  0  0  0  0  0  0
    2.8873   -1.1084    0.0000 N   0  0  0  0  0  0  0  0  0  0  0  0
    0.1275    0.0000    0.0000 N   0  0  0  0  0  0  0  0  0  0  0  0
   -4.1841    1.6515    0.0000 N   0  0  0  0  0  0  0  0  0  0  0  0
   -2.7433    1.6515    0.0000 N   0  0  0  0  0  0  0  0  0  0  0  0
   -4.2728    2.4716    0.0000 N   0  0  0  0  0  0  0  0  0  0  0  0
   -5.0819    2.6491    0.0000 N   0  0  0  0  0  0  0  0  0  0  0  0
   -5.5031    1.9286    0.0000 N   0  0  0  0  0  0  0  0  0  0  0  0
    1.5683   -0.8202    0.0000 C   0  0  0  0  0  0  0  0  0  0  0  0
    2.3109   -0.5098    0.0000 C   0  0  0  0  0  0  0  0  0  0  0  0
    2.4661   -1.8177    0.0000 C   0  0  3  0  0  0  0  0  0  0  0  0
    1.6570   -1.6404    0.0000 C   0  0  0  0  0  0  0  0  0  0  0  0
    3.7186   -1.0197    0.0000 C   0  0  0  0  0  0  0  0  0  0  0  0
    0.8590   -1.2303    0.0000 C   0  0  0  0  0  0  0  0  0  0  0  0
    1.5683    0.0000    0.0000 C   0  0  0  0  0  0  0  0  0  0  0  0
    0.1386   -0.8313    0.0000 C   0  0  0  0  0  0  0  0  0  0  0  0
    0.8368    0.4101    0.0000 C   0  0  0  0  0  0  0  0  0  0  0  0
    2.8098   -2.5715    0.0000 C   0  0  0  0  0  0  0  0  0  0  0  0
    4.1065   -0.2882    0.0000 C   0  0  0  0  0  0  0  0  0  0  0  0
    4.3171   -1.6072    0.0000 C   0  0  0  0  0  0  0  0  0  0  0  0
    4.9045   -0.4322    0.0000 C   0  0  0  0  0  0  0  0  0  0  0  0
   -0.5930    0.4101    0.0000 C   0  0  0  0  0  0  0  0  0  0  0  0
   -1.2913    0.0111    0.0000 C   0  0  3  0  0  0  0  0  0  0  0  0
   -2.0339    0.4212    0.0000 C   0  0  0  0  0  0  0  0  0  0  0  0
   -3.4526    1.2414    0.0000 C   0  0  0  0  0  0  0  0  0  0  0  0
    3.6521   -2.6491    0.0000 C   0  0  0  0  0  0  0  0  0  0  0  0
   -2.0228    1.2414    0.0000 C   0  0  0  0  0  0  0  0  0  0  0  0
   -2.7211    0.0111    0.0000 C   0  0  0  0  0  0  0  0  0  0  0  0
   -3.4637    0.4212    0.0000 C   0  0  0  0  0  0  0  0  0  0  0  0
   -4.9378    1.3189    0.0000 C   0  0  0  0  0  0  0  0  0  0  0  0
  1 13  2  0  0  0  0
  2 23  1  0  0  0  0
  2 24  1  0  0  0  0
  3 24  2  0  0  0  0
 26  4  1  6  0  0  0
  5 13  1  0  0  0  0
  5 14  1  0  0  0  0
  5 16  1  0  0  0  0
  6 19  1  0  0  0  0
  6 20  1  0  0  0  0
  6 25  1  0  0  0  0
  7  9  1  0  0  0  0
  7 28  1  0  0  0  0
  7 33  1  0  0  0  0
  8 28  2  0  0  0  0
  8 30  1  0  0  0  0
  9 10  2  0  0  0  0
 10 11  1  0  0  0  0
 11 33  2  0  0  0  0
 12 13  1  0  0  0  0
 12 15  1  0  0  0  0
 12 17  1  0  0  0  0
 12 18  1  0  0  0  0
 14 15  1  0  0  0  0
 14 21  1  0  0  0  0
 16 22  2  0  0  0  0
 16 23  1  0  0  0  0
 17 19  1  0  0  0  0
 18 20  1  0  0  0  0
 21 29  1  0  0  0  0
 22 24  1  0  0  0  0
 25 26  1  0  0  0  0
 26 27  1  0  0  0  0
 27 30  2  0  0  0  0
 27 31  1  0  0  0  0
 28 32  1  0  0  0  0
 31 32  2  0  0  0  0
M  END
> <PUBCHEM_COMPOUND_ID_TYPE>
0

> <PUBCHEM_TOTAL_CHARGE>
0

> <PUBCHEM_SUBSTANCE_ID>
310944312

> <PUBCHEM_SUBSTANCE_VERSION>
1

> <PUBCHEM_EXT_DATASOURCE_NAME>
4488

> <PUBCHEM_EXT_DATASOURCE_REGID>
SCHEMBL16122387

> <PUBCHEM_SUBSTANCE_COMMENT>
InChI=1S/C22H27N7O4/c1-2-16-10-22(21(32)29(16)17-9-20(31)33-13-17)5-7-27(8-6-22)12-18(30)15-3-4-19(23-11-15)28-14-24-25-26-28/h3-4,9,11,14,16,18,30H,2,5-8,10,12-13H2,1H3/t16?,18-/m0/s1
InChIKey=UHYVYFQIRZDFEA-DAFXYXGESA-N

> <PUBCHEM_SUBSTANCE_SYNONYM>
SCHEMBL16122387

> <PUBCHEM_XREF_EXT_ID>
SCHEMBL16122387

> <PUBCHEM_EXT_DATASOURCE_URL>
https://www.surechembl.org/

> <PUBCHEM_EXT_SUBSTANCE_URL>
https://www.surechembl.org/chemical/SCHEMBL16122387

> <PUBCHEM_CID_ASSOCIATIONS>
117610575  1

> <PUBCHEM_COORDINATE_TYPE>
1
3

> <PUBCHEM_BONDANNOTATIONS>
26  4  6

$$$$
