310949797
  -OEChem-07211613022D

 22 23  0     0  0  0  0  0  0999 V2000
   -1.3781    0.8513    0.0000 O   0  0  0  0  0  0  0  0  0  0  0  0
    1.4795    1.6416    0.0000 O   0  0  0  0  0  0  0  0  0  0  0  0
    0.7499    0.4256    0.0000 N   0  0  0  0  0  0  0  0  0  0  0  0
    2.2902   -0.4053    0.0000 N   0  0  0  0  0  0  0  0  0  0  0  0
    3.0806   -0.5675    0.0000 N   0  0  0  0  0  0  0  0  0  0  0  0
    3.5062    0.1419    0.0000 N   0  0  0  0  0  0  0  0  0  0  0  0
   -2.0672   -0.3648    0.0000 C   0  0  0  0  0  0  0  0  0  0  0  0
   -2.0875    0.4458    0.0000 C   0  0  0  0  0  0  0  0  0  0  0  0
   -1.3376   -0.8107    0.0000 C   0  0  0  0  0  0  0  0  0  0  0  0
    2.2294    0.4256    0.0000 C   0  0  0  0  0  0  0  0  0  0  0  0
    1.4592    0.8107    0.0000 C   0  0  0  0  0  0  0  0  0  0  0  0
   -2.7969   -0.7701    0.0000 C   0  0  0  0  0  0  0  0  0  0  0  0
   -2.8171    0.8309    0.0000 C   0  0  0  0  0  0  0  0  0  0  0  0
    2.9590    0.7094    0.0000 C   0  0  0  0  0  0  0  0  0  0  0  0
    0.0810    0.8107    0.0000 C   0  0  0  0  0  0  0  0  0  0  0  0
   -0.6485    0.4053    0.0000 C   0  0  0  0  0  0  0  0  0  0  0  0
   -3.5062   -0.3851    0.0000 C   0  0  0  0  0  0  0  0  0  0  0  0
   -3.5062    0.4458    0.0000 C   0  0  0  0  0  0  0  0  0  0  0  0
   -0.6282   -0.4053    0.0000 C   0  0  0  0  0  0  0  0  0  0  0  0
   -0.6485   -1.2566    0.0000 C   0  0  0  0  0  0  0  0  0  0  0  0
   -1.3579   -1.6416    0.0000 C   0  0  0  0  0  0  0  0  0  0  0  0
    0.7701   -0.4256    0.0000 C   0  0  0  0  0  0  0  0  0  0  0  0
  1  8  1  0  0  0  0
  1 16  1  0  0  0  0
  2 11  2  0  0  0  0
  3 11  1  0  0  0  0
  3 15  1  0  0  0  0
  3 22  1  0  0  0  0
  4  5  1  0  0  0  0
  4 10  1  0  0  0  0
  5  6  1  0  0  0  0
  6 14  1  0  0  0  0
  7  8  1  0  0  0  0
  7  9  1  0  0  0  0
  7 12  2  0  0  0  0
  8 13  2  0  0  0  0
  9 19  1  0  0  0  0
  9 20  1  0  0  0  0
  9 21  1  0  0  0  0
 10 11  1  0  0  0  0
 10 14  2  0  0  0  0
 12 17  1  0  0  0  0
 13 18  1  0  0  0  0
 15 16  1  0  0  0  0
 17 18  2  0  0  0  0
M  END
> <PUBCHEM_COMPOUND_ID_TYPE>
0

> <PUBCHEM_TOTAL_CHARGE>
0

> <PUBCHEM_SUBSTANCE_ID>
310949797

> <PUBCHEM_SUBSTANCE_VERSION>
1

> <PUBCHEM_EXT_DATASOURCE_NAME>
4488

> <PUBCHEM_EXT_DATASOURCE_REGID>
SCHEMBL16127995

> <PUBCHEM_SUBSTANCE_COMMENT>
InChI=1S/C16H24N4O2/c1-16(2,3)12-7-5-6-8-14(12)22-10-9-20(4)15(21)13-11-17-19-18-13/h5-8,11,17-19H,9-10H2,1-4H3
InChIKey=HWQWSLTVARCAPP-UHFFFAOYSA-N

> <PUBCHEM_SUBSTANCE_SYNONYM>
SCHEMBL16127995

> <PUBCHEM_XREF_EXT_ID>
SCHEMBL16127995

> <PUBCHEM_EXT_DATASOURCE_URL>
https://www.surechembl.org/

> <PUBCHEM_EXT_SUBSTANCE_URL>
https://www.surechembl.org/chemical/SCHEMBL16127995

> <PUBCHEM_CID_ASSOCIATIONS>
117615118  1

> <PUBCHEM_COORDINATE_TYPE>
1
3

$$$$
