310943002
  -OEChem-07211613022D

 19 21  0     0  0  0  0  0  0999 V2000
    0.7685   -1.2841    0.0000 Cl  0  0  0  0  0  0  0  0  0  0  0  0
    2.5119   -1.2841    0.0000 Cl  0  0  0  0  0  0  0  0  0  0  0  0
    2.5119    1.2841    0.0000 Cl  0  0  0  0  0  0  0  0  0  0  0  0
    1.0122    1.2841    0.0000 O   0  0  0  0  0  0  0  0  0  0  0  0
   -0.3749    0.6467    0.0000 N   0  0  0  0  0  0  0  0  0  0  0  0
   -0.3749   -0.6654    0.0000 N   0  0  0  0  0  0  0  0  0  0  0  0
    0.9373    0.0094    0.0000 C   0  0  0  0  0  0  0  0  0  0  0  0
    0.1125    0.0281    0.0000 C   0  0  0  0  0  0  0  0  0  0  0  0
    1.3496   -0.6842    0.0000 C   0  0  0  0  0  0  0  0  0  0  0  0
    1.3496    0.7405    0.0000 C   0  0  0  0  0  0  0  0  0  0  0  0
   -1.1622    0.4217    0.0000 C   0  0  0  0  0  0  0  0  0  0  0  0
   -1.1810   -0.3843    0.0000 C   0  0  0  0  0  0  0  0  0  0  0  0
    2.1932   -0.7030    0.0000 C   0  0  0  0  0  0  0  0  0  0  0  0
    2.1744    0.7217    0.0000 C   0  0  0  0  0  0  0  0  0  0  0  0
    2.6056    0.0094    0.0000 C   0  0  0  0  0  0  0  0  0  0  0  0
   -1.9120    0.8154    0.0000 C   0  0  0  0  0  0  0  0  0  0  0  0
   -1.8746   -0.8154    0.0000 C   0  0  0  0  0  0  0  0  0  0  0  0
   -2.6056    0.4217    0.0000 C   0  0  0  0  0  0  0  0  0  0  0  0
   -2.6056   -0.4030    0.0000 C   0  0  0  0  0  0  0  0  0  0  0  0
  1  9  1  0  0  0  0
  2 13  1  0  0  0  0
  3 14  1  0  0  0  0
  4 10  1  0  0  0  0
  5  8  2  0  0  0  0
  5 11  1  0  0  0  0
  6  8  1  0  0  0  0
  6 12  1  0  0  0  0
  7  8  1  0  0  0  0
  7  9  1  0  0  0  0
  7 10  2  0  0  0  0
  9 13  2  0  0  0  0
 10 14  1  0  0  0  0
 11 12  1  0  0  0  0
 11 16  2  0  0  0  0
 12 17  2  0  0  0  0
 13 15  1  0  0  0  0
 14 15  2  0  0  0  0
 16 18  1  0  0  0  0
 17 19  1  0  0  0  0
 18 19  2  0  0  0  0
M  END
> <PUBCHEM_COMPOUND_ID_TYPE>
0

> <PUBCHEM_TOTAL_CHARGE>
0

> <PUBCHEM_SUBSTANCE_ID>
310943002

> <PUBCHEM_SUBSTANCE_VERSION>
1

> <PUBCHEM_EXT_DATASOURCE_NAME>
4488

> <PUBCHEM_EXT_DATASOURCE_REGID>
SCHEMBL16121061

> <PUBCHEM_SUBSTANCE_COMMENT>
InChI=1S/C13H7Cl3N2O/c14-6-5-7(15)12(19)10(11(6)16)13-17-8-3-1-2-4-9(8)18-13/h1-5,19H,(H,17,18)
InChIKey=ZNVNXYUDFRYVSK-UHFFFAOYSA-N

> <PUBCHEM_SUBSTANCE_SYNONYM>
SCHEMBL16121061

> <PUBCHEM_XREF_EXT_ID>
SCHEMBL16121061

> <PUBCHEM_EXT_DATASOURCE_URL>
https://www.surechembl.org/

> <PUBCHEM_EXT_SUBSTANCE_URL>
https://www.surechembl.org/chemical/SCHEMBL16121061

> <PUBCHEM_CID_ASSOCIATIONS>
6100888  1

> <PUBCHEM_COORDINATE_TYPE>
1
3

$$$$
