310935503
  -OEChem-07211613022D

 31 34  0     1  0  0  0  0  0999 V2000
    0.5314    0.2971    0.0000 O   0  0  0  0  0  0  0  0  0  0  0  0
    0.7434   -0.5605    0.0000 O   0  0  0  0  0  0  0  0  0  0  0  0
    3.3523    3.5854    0.0000 O   0  0  0  0  0  0  0  0  0  0  0  0
    6.5042    1.9182    0.0000 O   0  0  0  0  0  0  0  0  0  0  0  0
    4.1008    0.1655    0.0000 O   0  0  0  0  0  0  0  0  0  0  0  0
    6.2560    0.5109    0.0000 O   0  0  0  0  0  0  0  0  0  0  0  0
    1.9233    1.1104    0.0000 C   0  0  3  0  0  0  0  0  0  0  0  0
    1.1387    0.8555    0.0000 C   0  0  3  0  0  0  0  0  0  0  0  0
    1.9233    1.9354    0.0000 C   0  0  3  0  0  0  0  0  0  0  0  0
    2.6378    2.3479    0.0000 C   0  0  3  0  0  0  0  0  0  0  0  0
    3.3523    1.9354    0.0000 C   0  0  3  0  0  0  0  0  0  0  0  0
    4.0668    2.3479    0.0000 C   0  0  3  0  0  0  0  0  0  0  0  0
    1.3018    0.0468    0.0000 C   0  0  0  0  0  0  0  0  0  0  0  0
    2.6378    0.6979    0.0000 C   0  0  0  0  0  0  0  0  0  0  0  0
    0.6538    1.5229    0.0000 C   0  0  0  0  0  0  0  0  0  0  0  0
    1.1387    2.1904    0.0000 C   0  0  0  0  0  0  0  0  0  0  0  0
    3.3523    1.1104    0.0000 C   0  0  0  0  0  0  0  0  0  0  0  0
    1.8371    0.2900    0.0000 C   0  0  0  0  0  0  0  0  0  0  0  0
    4.3489    1.5727    0.0000 C   0  0  3  0  0  0  0  0  0  0  0  0
    2.6378    3.1729    0.0000 C   0  0  0  0  0  0  0  0  0  0  0  0
    4.5971    2.9799    0.0000 C   0  0  0  0  0  0  0  0  0  0  0  0
    2.0519   -0.2967    0.0000 C   0  0  0  0  0  0  0  0  0  0  0  0
    3.5365    2.9799    0.0000 C   0  0  0  0  0  0  0  0  0  0  0  0
    5.1614    1.4294    0.0000 C   0  0  0  0  0  0  0  0  0  0  0  0
    5.6917    2.0614    0.0000 C   0  0  3  0  0  0  0  0  0  0  0  0
    5.4095    2.8367    0.0000 C   0  0  0  0  0  0  0  0  0  0  0  0
    1.1484   -1.2793    0.0000 C   0  0  0  0  0  0  0  0  0  0  0  0
    1.9571   -1.1162    0.0000 C   0  0  0  0  0  0  0  0  0  0  0  0
    3.8186    0.9407    0.0000 C   0  0  0  0  0  0  0  0  0  0  0  0
    6.7863    1.1429    0.0000 C   0  0  0  0  0  0  0  0  0  0  0  0
    7.5988    0.9997    0.0000 C   0  0  0  0  0  0  0  0  0  0  0  0
  8  1  1  1  0  0  0
  2 13  1  0  0  0  0
  2 27  1  0  0  0  0
  3 20  1  0  0  0  0
 25  4  1  6  0  0  0
  4 30  1  0  0  0  0
  5 29  1  0  0  0  0
  6 30  2  0  0  0  0
  7  8  1  0  0  0  0
  7  9  1  0  0  0  0
  7 14  1  0  0  0  0
  7 18  1  1  0  0  0
  8 13  1  0  0  0  0
  8 15  1  0  0  0  0
  9 10  1  0  0  0  0
  9 16  1  1  0  0  0
 10 11  1  0  0  0  0
 10 20  1  6  0  0  0
 11 12  1  0  0  0  0
 11 17  1  1  0  0  0
 12 19  1  0  0  0  0
 12 21  1  0  0  0  0
 12 23  1  6  0  0  0
 13 22  2  0  0  0  0
 14 17  1  0  0  0  0
 15 16  1  0  0  0  0
 19 24  1  0  0  0  0
 19 29  1  6  0  0  0
 21 26  1  0  0  0  0
 22 28  1  0  0  0  0
 24 25  1  0  0  0  0
 25 26  1  0  0  0  0
 27 28  2  0  0  0  0
 30 31  1  0  0  0  0
M  END
> <PUBCHEM_COMPOUND_ID_TYPE>
0

> <PUBCHEM_TOTAL_CHARGE>
0

> <PUBCHEM_SUBSTANCE_ID>
310935503

> <PUBCHEM_SUBSTANCE_VERSION>
1

> <PUBCHEM_EXT_DATASOURCE_NAME>
4488

> <PUBCHEM_EXT_DATASOURCE_REGID>
SCHEMBL16113070

> <PUBCHEM_SUBSTANCE_COMMENT>
InChI=1S/C25H38O6/c1-16(28)31-18-6-9-23(2,17(13-18)14-26)20-7-10-24(3)21(19(20)15-27)8-11-25(24,29)22-5-4-12-30-22/h4-5,12,17-21,26-27,29H,6-11,13-15H2,1-3H3/t17-,18+,19-,20+,21+,23+,24+,25-/m1/s1
InChIKey=WUYYBIMCHLQVJZ-ZEORBRAKSA-N

> <PUBCHEM_SUBSTANCE_SYNONYM>
SCHEMBL16113070

> <PUBCHEM_XREF_EXT_ID>
SCHEMBL16113070

> <PUBCHEM_EXT_DATASOURCE_URL>
https://www.surechembl.org/

> <PUBCHEM_EXT_SUBSTANCE_URL>
https://www.surechembl.org/chemical/SCHEMBL16113070

> <PUBCHEM_CID_ASSOCIATIONS>
117603536  1

> <PUBCHEM_COORDINATE_TYPE>
1
3

> <PUBCHEM_BONDANNOTATIONS>
8  1  5
10  20  6
11  17  5
12  23  6
19  29  6
25  4  6
7  18  5
9  16  5

$$$$
