310929873
  -OEChem-07211613022D

 48 52  0     1  0  0  0  0  0999 V2000
    1.4290    0.0000    0.0000 Cl  0  0  0  0  0  0  0  0  0  0  0  0
   -7.2552   -2.0625    0.0000 O   0  0  0  0  0  0  0  0  0  0  0  0
   -8.6842    0.4125    0.0000 O   0  0  0  0  0  0  0  0  0  0  0  0
   -2.1434    0.4125    0.0000 O   0  0  0  0  0  0  0  0  0  0  0  0
   -4.0790   -2.2124    0.0000 O   0  0  0  0  0  0  0  0  0  0  0  0
   -1.4290   -0.8250    0.0000 O   0  0  0  0  0  0  0  0  0  0  0  0
   -3.9297   -0.7912    0.0000 O   0  0  0  0  0  0  0  0  0  0  0  0
    0.7145    1.2375    0.0000 O   0  0  0  0  0  0  0  0  0  0  0  0
   -8.6842   -2.0625    0.0000 N   0  0  0  0  0  0  0  0  0  0  0  0
   -5.6475   -0.6580    0.0000 N   0  0  0  0  0  0  0  0  0  0  0  0
   -0.7145    0.4125    0.0000 N   0  0  0  0  0  0  0  0  0  0  0  0
   -8.6842   -0.4125    0.0000 C   0  0  0  0  0  0  0  0  0  0  0  0
   -7.9697   -0.8250    0.0000 C   0  0  0  0  0  0  0  0  0  0  0  0
   -9.3986   -0.8250    0.0000 C   0  0  0  0  0  0  0  0  0  0  0  0
   -7.9697   -1.6500    0.0000 C   0  0  0  0  0  0  0  0  0  0  0  0
   -9.3986   -1.6500    0.0000 C   0  0  0  0  0  0  0  0  0  0  0  0
  -10.1131   -0.4125    0.0000 C   0  0  0  0  0  0  0  0  0  0  0  0
   -7.2552   -0.4125    0.0000 C   0  0  0  0  0  0  0  0  0  0  0  0
  -10.1131   -2.0625    0.0000 C   0  0  0  0  0  0  0  0  0  0  0  0
   -6.5408   -1.6500    0.0000 C   0  0  3  0  0  0  0  0  0  0  0  0
   -2.8579    0.0000    0.0000 C   0  0  3  0  0  0  0  0  0  0  0  0
   -3.6829    0.0000    0.0000 C   0  0  3  0  0  0  0  0  0  0  0  0
   -3.2704   -0.7145    0.0000 C   0  0  0  0  0  0  0  0  0  0  0  0
  -10.8276   -0.8250    0.0000 C   0  0  0  0  0  0  0  0  0  0  0  0
  -10.8276   -1.6500    0.0000 C   0  0  0  0  0  0  0  0  0  0  0  0
   -5.7871   -1.9855    0.0000 C   0  0  0  0  0  0  0  0  0  0  0  0
   -5.2350   -1.3724    0.0000 C   0  0  3  0  0  0  0  0  0  0  0  0
   -6.4545   -0.8295    0.0000 C   0  0  0  0  0  0  0  0  0  0  0  0
   -9.3986    0.8250    0.0000 C   0  0  0  0  0  0  0  0  0  0  0  0
   -6.5408    0.0000    0.0000 C   0  0  0  0  0  0  0  0  0  0  0  0
   -4.3974    0.4125    0.0000 C   0  0  0  0  0  0  0  0  0  0  0  0
   -1.4290    0.0000    0.0000 C   0  0  0  0  0  0  0  0  0  0  0  0
    0.0000    0.0000    0.0000 C   0  0  3  0  0  0  0  0  0  0  0  0
   -9.3986    1.6500    0.0000 C   0  0  0  0  0  0  0  0  0  0  0  0
   -4.4146   -1.4587    0.0000 C   0  0  0  0  0  0  0  0  0  0  0  0
    0.0000   -0.8250    0.0000 C   0  0  0  0  0  0  0  0  0  0  0  0
   -5.8263    0.4125    0.0000 C   0  0  0  0  0  0  0  0  0  0  0  0
   -5.1118    0.0000    0.0000 C   0  0  0  0  0  0  0  0  0  0  0  0
    0.7145    0.4125    0.0000 C   0  0  0  0  0  0  0  0  0  0  0  0
   -8.6842    2.0625    0.0000 C   0  0  0  0  0  0  0  0  0  0  0  0
  -10.1131    2.0625    0.0000 C   0  0  0  0  0  0  0  0  0  0  0  0
    0.7145   -1.2375    0.0000 C   0  0  0  0  0  0  0  0  0  0  0  0
    0.0000   -1.6500    0.0000 C   0  0  0  0  0  0  0  0  0  0  0  0
   -0.7145   -1.2375    0.0000 C   0  0  0  0  0  0  0  0  0  0  0  0
   -8.6842    2.8875    0.0000 C   0  0  0  0  0  0  0  0  0  0  0  0
  -10.1131    2.8875    0.0000 C   0  0  0  0  0  0  0  0  0  0  0  0
   -9.3986    3.3000    0.0000 C   0  0  0  0  0  0  0  0  0  0  0  0
   -3.2585   -2.2986    0.0000 C   0  0  0  0  0  0  0  0  0  0  0  0
  1 39  1  0  0  0  0
  2 15  1  0  0  0  0
 20  2  1  1  0  0  0
  3 12  1  0  0  0  0
  3 29  1  0  0  0  0
 21  4  1  6  0  0  0
  4 32  1  0  0  0  0
  5 35  1  0  0  0  0
  5 48  1  0  0  0  0
  6 32  2  0  0  0  0
  7 35  2  0  0  0  0
  8 39  2  0  0  0  0
  9 15  2  0  0  0  0
  9 16  1  0  0  0  0
 10 27  1  0  0  0  0
 10 28  1  0  0  0  0
 11 32  1  0  0  0  0
 33 11  1  6  0  0  0
 12 13  2  0  0  0  0
 12 14  1  0  0  0  0
 13 15  1  0  0  0  0
 13 18  1  0  0  0  0
 14 16  1  0  0  0  0
 14 17  2  0  0  0  0
 16 19  2  0  0  0  0
 17 24  1  0  0  0  0
 18 30  3  0  0  0  0
 19 25  1  0  0  0  0
 20 26  1  0  0  0  0
 20 28  1  0  0  0  0
 21 22  1  0  0  0  0
 21 23  1  0  0  0  0
 22 23  1  0  0  0  0
 22 31  1  1  0  0  0
 24 25  2  0  0  0  0
 26 27  1  0  0  0  0
 27 35  1  6  0  0  0
 29 34  1  0  0  0  0
 30 37  1  0  0  0  0
 31 38  1  0  0  0  0
 33 36  1  0  0  0  0
 33 39  1  0  0  0  0
 34 40  2  0  0  0  0
 34 41  1  0  0  0  0
 36 42  1  0  0  0  0
 36 43  1  0  0  0  0
 36 44  1  0  0  0  0
 37 38  1  0  0  0  0
 40 45  1  0  0  0  0
 41 46  2  0  0  0  0
 45 47  2  0  0  0  0
 46 47  1  0  0  0  0
M  END
> <PUBCHEM_COMPOUND_ID_TYPE>
0

> <PUBCHEM_TOTAL_CHARGE>
0

> <PUBCHEM_SUBSTANCE_ID>
310929873

> <PUBCHEM_SUBSTANCE_VERSION>
1

> <PUBCHEM_EXT_DATASOURCE_NAME>
4488

> <PUBCHEM_EXT_DATASOURCE_REGID>
SCHEMBL16107088

> <PUBCHEM_SUBSTANCE_COMMENT>
InChI=1S/C37H42ClN3O7/c1-37(2,3)32(33(38)42)41-36(44)48-30-19-24(30)15-9-6-10-17-27-31(46-22-23-13-7-5-8-14-23)26-16-11-12-18-28(26)40-34(27)47-25-20-29(39-21-25)35(43)45-4/h5,7-8,11-14,16,18,24-25,29-30,32,39H,6,9,15,19-22H2,1-4H3,(H,41,44)/t24-,25-,29+,30-,32-/m1/s1
InChIKey=NJQCCKYGWGNKHO-DHESOHDNSA-N

> <PUBCHEM_SUBSTANCE_SYNONYM>
SCHEMBL16107088

> <PUBCHEM_XREF_EXT_ID>
SCHEMBL16107088

> <PUBCHEM_EXT_DATASOURCE_URL>
https://www.surechembl.org/

> <PUBCHEM_EXT_SUBSTANCE_URL>
https://www.surechembl.org/chemical/SCHEMBL16107088

> <PUBCHEM_CID_ASSOCIATIONS>
117599142  1

> <PUBCHEM_COORDINATE_TYPE>
1
3

> <PUBCHEM_BONDANNOTATIONS>
33  11  6
20  2  5
22  31  5
27  35  6
21  4  6

$$$$
