310931189
  -OEChem-07211613022D

 33 36  0     0  0  0  0  0  0999 V2000
    4.9821   -3.5724    0.0000 S   0  0  0  0  0  0  0  0  0  0  0  0
    6.2196   -2.8579    0.0000 F   0  0  0  0  0  0  0  0  0  0  0  0
    4.2676   -3.9849    0.0000 O   0  0  0  0  0  0  0  0  0  0  0  0
    5.6966   -3.1599    0.0000 O   0  0  0  0  0  0  0  0  0  0  0  0
    2.5071    0.7145    0.0000 O   0  0  0  0  0  0  0  0  0  0  0  0
    8.6947   -4.2869    0.0000 O   0  0  0  0  0  0  0  0  0  0  0  0
    5.3946   -4.2869    0.0000 N   0  0  0  0  0  0  0  0  0  0  0  0
    0.7846    0.6674    0.0000 N   0  0  0  0  0  0  0  0  0  0  0  0
    2.5071   -0.7145    0.0000 N   0  0  0  0  0  0  0  0  0  0  0  0
   -1.4290   -0.4125    0.0000 N   0  0  0  0  0  0  0  0  0  0  0  0
    4.5696   -2.8579    0.0000 C   0  0  0  0  0  0  0  0  0  0  0  0
    6.2196   -4.2869    0.0000 C   0  0  0  0  0  0  0  0  0  0  0  0
    1.2696    0.0000    0.0000 C   0  0  0  0  0  0  0  0  0  0  0  0
    0.0000   -0.4125    0.0000 C   0  0  0  0  0  0  0  0  0  0  0  0
    0.0000    0.4125    0.0000 C   0  0  0  0  0  0  0  0  0  0  0  0
    0.7846   -0.6674    0.0000 C   0  0  0  0  0  0  0  0  0  0  0  0
    6.6321   -3.5724    0.0000 C   0  0  0  0  0  0  0  0  0  0  0  0
    2.0946    0.0000    0.0000 C   0  0  0  0  0  0  0  0  0  0  0  0
    3.7446   -2.8579    0.0000 C   0  0  0  0  0  0  0  0  0  0  0  0
    4.9821   -2.1434    0.0000 C   0  0  0  0  0  0  0  0  0  0  0  0
    3.7446   -1.4290    0.0000 C   0  0  0  0  0  0  0  0  0  0  0  0
    6.6321   -5.0013    0.0000 C   0  0  0  0  0  0  0  0  0  0  0  0
    3.3321   -2.1434    0.0000 C   0  0  0  0  0  0  0  0  0  0  0  0
    4.5696   -1.4290    0.0000 C   0  0  0  0  0  0  0  0  0  0  0  0
    7.8697   -4.2869    0.0000 C   0  0  0  0  0  0  0  0  0  0  0  0
   -0.7145   -0.8250    0.0000 C   0  0  0  0  0  0  0  0  0  0  0  0
   -0.7145    0.8250    0.0000 C   0  0  0  0  0  0  0  0  0  0  0  0
    7.4572   -3.5724    0.0000 C   0  0  0  0  0  0  0  0  0  0  0  0
    3.3321   -0.7145    0.0000 C   0  0  0  0  0  0  0  0  0  0  0  0
    7.4572   -5.0013    0.0000 C   0  0  0  0  0  0  0  0  0  0  0  0
   -1.4290    0.4125    0.0000 C   0  0  0  0  0  0  0  0  0  0  0  0
    9.1072   -3.5724    0.0000 C   0  0  0  0  0  0  0  0  0  0  0  0
    9.9322   -3.5724    0.0000 C   0  0  0  0  0  0  0  0  0  0  0  0
  1  3  2  0  0  0  0
  1  4  2  0  0  0  0
  1  7  1  0  0  0  0
  1 11  1  0  0  0  0
  2 17  1  0  0  0  0
  5 18  2  0  0  0  0
  6 25  1  0  0  0  0
  6 32  1  0  0  0  0
  7 12  1  0  0  0  0
  8 13  1  0  0  0  0
  8 15  1  0  0  0  0
  9 18  1  0  0  0  0
  9 29  1  0  0  0  0
 10 26  2  0  0  0  0
 10 31  1  0  0  0  0
 11 19  2  0  0  0  0
 11 20  1  0  0  0  0
 12 17  1  0  0  0  0
 12 22  2  0  0  0  0
 13 16  2  0  0  0  0
 13 18  1  0  0  0  0
 14 15  2  0  0  0  0
 14 16  1  0  0  0  0
 14 26  1  0  0  0  0
 15 27  1  0  0  0  0
 17 28  2  0  0  0  0
 19 23  1  0  0  0  0
 20 24  2  0  0  0  0
 21 23  2  0  0  0  0
 21 24  1  0  0  0  0
 21 29  1  0  0  0  0
 22 30  1  0  0  0  0
 25 28  1  0  0  0  0
 25 30  2  0  0  0  0
 27 31  2  0  0  0  0
 32 33  1  0  0  0  0
M  END
> <PUBCHEM_COMPOUND_ID_TYPE>
0

> <PUBCHEM_TOTAL_CHARGE>
0

> <PUBCHEM_SUBSTANCE_ID>
310931189

> <PUBCHEM_SUBSTANCE_VERSION>
1

> <PUBCHEM_EXT_DATASOURCE_NAME>
4488

> <PUBCHEM_EXT_DATASOURCE_REGID>
SCHEMBL16108498

> <PUBCHEM_SUBSTANCE_COMMENT>
InChI=1S/C23H21FN4O4S/c1-2-32-17-5-8-21(19(24)12-17)28-33(30,31)18-6-3-15(4-7-18)13-26-23(29)22-11-16-14-25-10-9-20(16)27-22/h3-12,14,27-28H,2,13H2,1H3,(H,26,29)
InChIKey=XMQXZDHRWHUOQH-UHFFFAOYSA-N

> <PUBCHEM_SUBSTANCE_SYNONYM>
SCHEMBL16108498

> <PUBCHEM_XREF_EXT_ID>
SCHEMBL16108498

> <PUBCHEM_EXT_DATASOURCE_URL>
https://www.surechembl.org/

> <PUBCHEM_EXT_SUBSTANCE_URL>
https://www.surechembl.org/chemical/SCHEMBL16108498

> <PUBCHEM_CID_ASSOCIATIONS>
117600046  1

> <PUBCHEM_COORDINATE_TYPE>
1
3

$$$$
