310931568
  -OEChem-07211613022D

 36 38  0     1  0  0  0  0  0999 V2000
    8.3914   -8.3914    0.0000 O   0  0  0  0  0  0  0  0  0  0  0  0
   10.0069   -7.9427    0.0000 O   0  0  0  0  0  0  0  0  0  0  0  0
    2.1988   -0.4039    0.0000 O   0  0  0  0  0  0  0  0  0  0  0  0
    0.7180   -1.2565    0.0000 O   0  0  0  0  0  0  0  0  0  0  0  0
    4.3528   -1.6603    0.0000 O   0  0  0  0  0  0  0  0  0  0  0  0
    2.9168   -5.0258    0.0000 O   0  0  0  0  0  0  0  0  0  0  0  0
    3.6348   -3.7694    0.0000 O   0  0  0  0  0  0  0  0  0  0  0  0
    7.2695   -4.1284    0.0000 N   0  0  3  0  0  0  0  0  0  0  0  0
    5.0707   -2.9168    0.0000 N   0  0  0  0  0  0  0  0  0  0  0  0
    8.2119   -6.1926    0.0000 C   0  0  0  0  0  0  0  0  0  0  0  0
    9.0196   -5.9682    0.0000 C   0  0  0  0  0  0  0  0  0  0  0  0
    7.9875   -5.3849    0.0000 C   0  0  3  0  0  0  0  0  0  0  0  0
    8.7953   -5.1605    0.0000 C   0  0  0  0  0  0  0  0  0  0  0  0
    8.0324   -7.0003    0.0000 C   0  0  0  0  0  0  0  0  0  0  0  0
    8.6158   -7.5837    0.0000 C   0  0  0  0  0  0  0  0  0  0  0  0
    9.6030   -6.5516    0.0000 C   0  0  0  0  0  0  0  0  0  0  0  0
    9.4235   -7.3593    0.0000 C   0  0  0  0  0  0  0  0  0  0  0  0
    7.2695   -4.9810    0.0000 C   0  0  0  0  0  0  0  0  0  0  0  0
    2.9168   -2.5129    0.0000 C   0  0  0  0  0  0  0  0  0  0  0  0
    2.1988   -2.9168    0.0000 C   0  0  0  0  0  0  0  0  0  0  0  0
    2.1988   -1.2565    0.0000 C   0  0  0  0  0  0  0  0  0  0  0  0
    1.4808   -1.6603    0.0000 C   0  0  0  0  0  0  0  0  0  0  0  0
    2.9168   -1.6603    0.0000 C   0  0  0  0  0  0  0  0  0  0  0  0
    1.4808   -2.5129    0.0000 C   0  0  0  0  0  0  0  0  0  0  0  0
    3.6348   -2.9168    0.0000 C   0  0  0  0  0  0  0  0  0  0  0  0
    2.1988   -3.7694    0.0000 C   0  0  0  0  0  0  0  0  0  0  0  0
    6.5516   -3.7245    0.0000 C   0  0  0  0  0  0  0  0  0  0  0  0
    4.3528   -2.5129    0.0000 C   0  0  0  0  0  0  0  0  0  0  0  0
    2.9168   -4.1732    0.0000 C   0  0  0  0  0  0  0  0  0  0  0  0
    7.9875   -3.7245    0.0000 C   0  0  0  0  0  0  0  0  0  0  0  0
    8.9747   -8.9747    0.0000 C   0  0  0  0  0  0  0  0  0  0  0  0
   10.8146   -7.7183    0.0000 C   0  0  0  0  0  0  0  0  0  0  0  0
    5.8336   -4.1284    0.0000 C   0  0  0  0  0  0  0  0  0  0  0  0
    5.0707   -3.7245    0.0000 C   0  0  0  0  0  0  0  0  0  0  0  0
    1.4808    0.0000    0.0000 C   0  0  0  0  0  0  0  0  0  0  0  0
    0.0000   -1.6603    0.0000 C   0  0  0  0  0  0  0  0  0  0  0  0
  1 15  1  0  0  0  0
  1 31  1  0  0  0  0
  2 17  1  0  0  0  0
  2 32  1  0  0  0  0
  3 21  1  0  0  0  0
  3 35  1  0  0  0  0
  4 22  1  0  0  0  0
  4 36  1  0  0  0  0
  5 28  2  0  0  0  0
  6 29  2  0  0  0  0
  7 29  1  0  0  0  0
  8 18  1  0  0  0  0
  8 27  1  0  0  0  0
  8 30  1  0  0  0  0
  9 28  1  0  0  0  0
  9 34  1  0  0  0  0
 10 11  1  0  0  0  0
 10 12  1  0  0  0  0
 10 14  2  0  0  0  0
 11 13  1  0  0  0  0
 11 16  2  0  0  0  0
 12 13  1  0  0  0  0
 12 18  1  1  0  0  0
 14 15  1  0  0  0  0
 15 17  2  0  0  0  0
 16 17  1  0  0  0  0
 19 20  1  0  0  0  0
 19 23  2  0  0  0  0
 19 25  1  0  0  0  0
 20 24  2  0  0  0  0
 20 26  1  0  0  0  0
 21 22  2  0  0  0  0
 21 23  1  0  0  0  0
 22 24  1  0  0  0  0
 25 28  1  0  0  0  0
 26 29  1  0  0  0  0
 27 33  1  0  0  0  0
 33 34  1  0  0  0  0
M  END
> <PUBCHEM_COMPOUND_ID_TYPE>
0

> <PUBCHEM_TOTAL_CHARGE>
0

> <PUBCHEM_SUBSTANCE_ID>
310931568

> <PUBCHEM_SUBSTANCE_VERSION>
1

> <PUBCHEM_EXT_DATASOURCE_NAME>
4488

> <PUBCHEM_EXT_DATASOURCE_REGID>
SCHEMBL16108894

> <PUBCHEM_SUBSTANCE_COMMENT>
InChI=1S/C27H36N2O7/c1-29(16-20-9-19-12-24(35-4)25(36-5)15-21(19)20)8-6-7-28-26(30)13-17-10-22(33-2)23(34-3)11-18(17)14-27(31)32/h10-12,15,20H,6-9,13-14,16H2,1-5H3,(H,28,30)(H,31,32)/t20-/m1/s1
InChIKey=LBLCAIAPMBXHGS-HXUWFJFHSA-N

> <PUBCHEM_SUBSTANCE_SYNONYM>
SCHEMBL16108894

> <PUBCHEM_XREF_EXT_ID>
SCHEMBL16108894

> <PUBCHEM_EXT_DATASOURCE_URL>
https://www.surechembl.org/

> <PUBCHEM_EXT_SUBSTANCE_URL>
https://www.surechembl.org/chemical/SCHEMBL16108894

> <PUBCHEM_CID_ASSOCIATIONS>
86282692  1

> <PUBCHEM_COORDINATE_TYPE>
1
3

> <PUBCHEM_BONDANNOTATIONS>
12  18  5

$$$$
