310933609
  -OEChem-07211613022D

 49 48  0     0  0  0  0  0  0999 V2000
   20.2342    5.0822    0.0000 Br  0  0  0  0  0  0  0  0  0  0  0  0
   18.8052    5.9072    0.0000 O   0  0  0  0  0  0  0  0  0  0  0  0
    8.0882   13.7447    0.0000 O   0  0  0  0  0  0  0  0  0  0  0  0
   34.5236    7.5572    0.0000 O   0  0  0  0  0  0  0  0  0  0  0  0
    9.5171   13.7447    0.0000 O   0  0  0  0  0  0  0  0  0  0  0  0
   33.8091    6.3197    0.0000 O   0  0  0  0  0  0  0  0  0  0  0  0
   19.5197    7.1447    0.0000 N   0  0  0  0  0  0  0  0  0  0  0  0
   19.5197    6.3197    0.0000 C   0  0  0  0  0  0  0  0  0  0  0  0
   18.8052    7.5572    0.0000 C   0  0  0  0  0  0  0  0  0  0  0  0
   20.2342    7.5572    0.0000 C   0  0  0  0  0  0  0  0  0  0  0  0
   20.2342    5.9072    0.0000 C   0  0  0  0  0  0  0  0  0  0  0  0
   18.0908    7.1447    0.0000 C   0  0  0  0  0  0  0  0  0  0  0  0
   20.9487    7.1447    0.0000 C   0  0  0  0  0  0  0  0  0  0  0  0
   17.3763    7.5572    0.0000 C   0  0  0  0  0  0  0  0  0  0  0  0
   21.6631    7.5572    0.0000 C   0  0  0  0  0  0  0  0  0  0  0  0
   16.6618    7.1447    0.0000 C   0  0  0  0  0  0  0  0  0  0  0  0
   22.3776    7.1447    0.0000 C   0  0  0  0  0  0  0  0  0  0  0  0
   15.9474    7.5572    0.0000 C   0  0  0  0  0  0  0  0  0  0  0  0
   23.0921    7.5572    0.0000 C   0  0  0  0  0  0  0  0  0  0  0  0
   15.2329    7.1447    0.0000 C   0  0  0  0  0  0  0  0  0  0  0  0
   23.8065    7.1447    0.0000 C   0  0  0  0  0  0  0  0  0  0  0  0
   14.5184    7.5572    0.0000 C   0  0  0  0  0  0  0  0  0  0  0  0
   24.5210    7.5572    0.0000 C   0  0  0  0  0  0  0  0  0  0  0  0
   13.8039    7.1447    0.0000 C   0  0  0  0  0  0  0  0  0  0  0  0
   25.2355    7.1447    0.0000 C   0  0  0  0  0  0  0  0  0  0  0  0
   13.0895    7.5572    0.0000 C   0  0  0  0  0  0  0  0  0  0  0  0
   25.9499    7.5572    0.0000 C   0  0  0  0  0  0  0  0  0  0  0  0
   12.3750    7.1447    0.0000 C   0  0  0  0  0  0  0  0  0  0  0  0
   26.6644    7.1447    0.0000 C   0  0  0  0  0  0  0  0  0  0  0  0
   11.6605    7.5572    0.0000 C   0  0  0  0  0  0  0  0  0  0  0  0
   27.3789    7.5572    0.0000 C   0  0  0  0  0  0  0  0  0  0  0  0
    8.8026   13.3322    0.0000 C   0  0  0  0  0  0  0  0  0  0  0  0
   33.8091    7.1447    0.0000 C   0  0  0  0  0  0  0  0  0  0  0  0
    8.8026   12.5072    0.0000 C   0  0  0  0  0  0  0  0  0  0  0  0
   33.0947    7.5572    0.0000 C   0  0  0  0  0  0  0  0  0  0  0  0
    9.5171   12.0947    0.0000 C   0  0  0  0  0  0  0  0  0  0  0  0
   32.3802    7.1447    0.0000 C   0  0  0  0  0  0  0  0  0  0  0  0
    9.5171   11.2697    0.0000 C   0  0  0  0  0  0  0  0  0  0  0  0
   31.6657    7.5572    0.0000 C   0  0  0  0  0  0  0  0  0  0  0  0
   11.6605    8.3822    0.0000 C   0  0  0  0  0  0  0  0  0  0  0  0
   28.0934    7.1447    0.0000 C   0  0  0  0  0  0  0  0  0  0  0  0
   10.2316   10.8572    0.0000 C   0  0  0  0  0  0  0  0  0  0  0  0
   30.9512    7.1447    0.0000 C   0  0  0  0  0  0  0  0  0  0  0  0
   10.2316   10.0322    0.0000 C   0  0  0  0  0  0  0  0  0  0  0  0
   30.2368    7.5572    0.0000 C   0  0  0  0  0  0  0  0  0  0  0  0
   10.9461    8.7947    0.0000 C   0  0  0  0  0  0  0  0  0  0  0  0
   28.8078    7.5572    0.0000 C   0  0  0  0  0  0  0  0  0  0  0  0
   10.9461    9.6197    0.0000 C   0  0  0  0  0  0  0  0  0  0  0  0
   29.5223    7.1447    0.0000 C   0  0  0  0  0  0  0  0  0  0  0  0
  1 11  1  0  0  0  0
  2  8  2  0  0  0  0
  3 32  2  0  0  0  0
  4 33  2  0  0  0  0
  5 32  1  0  0  0  0
  6 33  1  0  0  0  0
  7  8  1  0  0  0  0
  7  9  1  0  0  0  0
  7 10  1  0  0  0  0
  8 11  1  0  0  0  0
  9 12  1  0  0  0  0
 10 13  1  0  0  0  0
 12 14  1  0  0  0  0
 13 15  1  0  0  0  0
 14 16  1  0  0  0  0
 15 17  1  0  0  0  0
 16 18  1  0  0  0  0
 17 19  1  0  0  0  0
 18 20  1  0  0  0  0
 19 21  1  0  0  0  0
 20 22  1  0  0  0  0
 21 23  1  0  0  0  0
 22 24  1  0  0  0  0
 23 25  1  0  0  0  0
 24 26  1  0  0  0  0
 25 27  1  0  0  0  0
 26 28  1  0  0  0  0
 27 29  1  0  0  0  0
 28 30  1  0  0  0  0
 29 31  1  0  0  0  0
 30 40  2  0  0  0  0
 31 41  2  0  0  0  0
 32 34  1  0  0  0  0
 33 35  1  0  0  0  0
 34 36  1  0  0  0  0
 35 37  1  0  0  0  0
 36 38  1  0  0  0  0
 37 39  1  0  0  0  0
 38 42  1  0  0  0  0
 39 43  1  0  0  0  0
 40 46  1  0  0  0  0
 41 47  1  0  0  0  0
 42 44  1  0  0  0  0
 43 45  1  0  0  0  0
 44 48  1  0  0  0  0
 45 49  1  0  0  0  0
 46 48  1  0  0  0  0
 47 49  1  0  0  0  0
M  END
> <PUBCHEM_COMPOUND_ID_TYPE>
0

> <PUBCHEM_TOTAL_CHARGE>
0

> <PUBCHEM_SUBSTANCE_ID>
310933609

> <PUBCHEM_SUBSTANCE_VERSION>
1

> <PUBCHEM_EXT_DATASOURCE_NAME>
4488

> <PUBCHEM_EXT_DATASOURCE_REGID>
SCHEMBL16111038

> <PUBCHEM_SUBSTANCE_COMMENT>
InChI=1S/C42H76BrNO5/c43-39-40(45)44(37-33-29-25-21-17-13-9-5-1-3-7-11-15-19-23-27-31-35-41(46)47)38-34-30-26-22-18-14-10-6-2-4-8-12-16-20-24-28-32-36-42(48)49/h3-4,7-8H,1-2,5-6,9-39H2,(H,46,47)(H,48,49)
InChIKey=RXBGPDRUJMOYNW-UHFFFAOYSA-N

> <PUBCHEM_SUBSTANCE_SYNONYM>
SCHEMBL16111038

> <PUBCHEM_XREF_EXT_ID>
SCHEMBL16111038

> <PUBCHEM_EXT_DATASOURCE_URL>
https://www.surechembl.org/

> <PUBCHEM_EXT_SUBSTANCE_URL>
https://www.surechembl.org/chemical/SCHEMBL16111038

> <PUBCHEM_CID_ASSOCIATIONS>
117601986  1

> <PUBCHEM_COORDINATE_TYPE>
1
3

> <PUBCHEM_BONDANNOTATIONS>
30  28  3
31  29  3

$$$$
