310941302
  -OEChem-07211613022D

 42 45  0     1  0  0  0  0  0999 V2000
    3.9732   -2.8503    0.0000 O   0  0  0  0  0  0  0  0  0  0  0  0
    1.6987   -2.8503    0.0000 O   0  0  0  0  0  0  0  0  0  0  0  0
    2.4184    0.3167    0.0000 O   0  0  0  0  0  0  0  0  0  0  0  0
   -0.4750    1.1516    0.0000 O   0  0  0  0  0  0  0  0  0  0  0  0
    2.4184    3.6421    0.0000 O   0  0  0  0  0  0  0  0  0  0  0  0
    3.8579    1.1516    0.0000 O   0  0  0  0  0  0  0  0  0  0  0  0
   -2.6344   -0.9357    0.0000 O   0  0  0  0  0  0  0  0  0  0  0  0
   -5.5278   -0.9357    0.0000 O   0  0  0  0  0  0  0  0  0  0  0  0
    1.6987   -0.9357    0.0000 N   0  0  0  0  0  0  0  0  0  0  0  0
    0.2591   -0.1007    0.0000 N   0  0  0  0  0  0  0  0  0  0  0  0
   -1.9146    0.3167    0.0000 N   0  0  0  0  0  0  0  0  0  0  0  0
   -4.0739   -0.1007    0.0000 N   0  0  0  0  0  0  0  0  0  0  0  0
    3.1382   -2.8215    0.0000 C   0  0  3  0  0  0  0  0  0  0  0  0
    2.4184   -2.4040    0.0000 C   0  0  0  0  0  0  0  0  0  0  0  0
    3.5557   -2.1449    0.0000 C   0  0  0  0  0  0  0  0  0  0  0  0
    2.4328   -1.3388    0.0000 C   0  0  3  0  0  0  0  0  0  0  0  0
    3.1526   -3.6421    0.0000 C   0  0  0  0  0  0  0  0  0  0  0  0
    3.3541   -0.8061    0.0000 C   0  0  0  0  0  0  0  0  0  0  0  0
    1.6987   -0.1007    0.0000 C   0  0  0  0  0  0  0  0  0  0  0  0
    0.9789    0.3167    0.0000 C   0  0  3  0  0  0  0  0  0  0  0  0
    4.0883   -1.2236    0.0000 C   0  0  0  0  0  0  0  0  0  0  0  0
    0.9933    1.1516    0.0000 C   0  0  0  0  0  0  0  0  0  0  0  0
    1.6987    1.5691    0.0000 C   0  0  0  0  0  0  0  0  0  0  0  0
   -0.4750    0.3023    0.0000 C   0  0  0  0  0  0  0  0  0  0  0  0
    4.0883   -2.0441    0.0000 C   0  0  0  0  0  0  0  0  0  0  0  0
    4.8081   -0.8205    0.0000 C   0  0  0  0  0  0  0  0  0  0  0  0
    2.4184    1.1660    0.0000 C   0  0  0  0  0  0  0  0  0  0  0  0
    1.7130    2.4040    0.0000 C   0  0  0  0  0  0  0  0  0  0  0  0
   -1.1949   -0.1007    0.0000 C   0  0  3  0  0  0  0  0  0  0  0  0
    2.4328    2.8071    0.0000 C   0  0  0  0  0  0  0  0  0  0  0  0
    3.1382    1.5835    0.0000 C   0  0  0  0  0  0  0  0  0  0  0  0
    3.1382    2.4040    0.0000 C   0  0  0  0  0  0  0  0  0  0  0  0
    4.8081   -2.4616    0.0000 C   0  0  0  0  0  0  0  0  0  0  0  0
    5.5278   -1.2236    0.0000 C   0  0  0  0  0  0  0  0  0  0  0  0
   -2.6200   -0.0720    0.0000 C   0  0  0  0  0  0  0  0  0  0  0  0
    5.5278   -2.0441    0.0000 C   0  0  0  0  0  0  0  0  0  0  0  0
   -1.1805   -0.8925    0.0000 C   0  0  0  0  0  0  0  0  0  0  0  0
   -3.3541    0.3167    0.0000 C   0  0  0  0  0  0  0  0  0  0  0  0
   -4.0883   -0.9357    0.0000 C   0  0  0  0  0  0  0  0  0  0  0  0
   -4.8081    0.3167    0.0000 C   0  0  0  0  0  0  0  0  0  0  0  0
   -4.7793   -1.3388    0.0000 C   0  0  0  0  0  0  0  0  0  0  0  0
   -5.5134   -0.1007    0.0000 C   0  0  0  0  0  0  0  0  0  0  0  0
  1 13  1  0  0  0  0
  1 15  1  0  0  0  0
  2 14  2  0  0  0  0
  3 19  2  0  0  0  0
  4 24  2  0  0  0  0
  5 30  1  0  0  0  0
  6 31  1  0  0  0  0
  7 35  2  0  0  0  0
  8 41  1  0  0  0  0
  8 42  1  0  0  0  0
 16  9  1  1  0  0  0
  9 19  1  0  0  0  0
 20 10  1  1  0  0  0
 10 24  1  0  0  0  0
 11 29  1  0  0  0  0
 11 35  1  0  0  0  0
 12 38  1  0  0  0  0
 12 39  1  0  0  0  0
 12 40  1  0  0  0  0
 13 14  1  1  0  0  0
 13 15  1  0  0  0  0
 13 17  1  6  0  0  0
 14 16  1  0  0  0  0
 16 18  1  0  0  0  0
 18 21  1  0  0  0  0
 19 20  1  0  0  0  0
 20 22  1  0  0  0  0
 21 25  2  0  0  0  0
 21 26  1  0  0  0  0
 22 23  1  0  0  0  0
 23 27  2  0  0  0  0
 23 28  1  0  0  0  0
 24 29  1  0  0  0  0
 25 33  1  0  0  0  0
 26 34  2  0  0  0  0
 27 31  1  0  0  0  0
 28 30  2  0  0  0  0
 29 37  1  6  0  0  0
 30 32  1  0  0  0  0
 31 32  2  0  0  0  0
 33 36  2  0  0  0  0
 34 36  1  0  0  0  0
 35 38  1  0  0  0  0
 39 41  1  0  0  0  0
 40 42  1  0  0  0  0
M  END
> <PUBCHEM_COMPOUND_ID_TYPE>
0

> <PUBCHEM_TOTAL_CHARGE>
0

> <PUBCHEM_SUBSTANCE_ID>
310941302

> <PUBCHEM_SUBSTANCE_VERSION>
1

> <PUBCHEM_EXT_DATASOURCE_NAME>
4488

> <PUBCHEM_EXT_DATASOURCE_REGID>
SCHEMBL16119262

> <PUBCHEM_SUBSTANCE_COMMENT>
InChI=1S/C30H38N4O8/c1-19(31-26(37)17-34-8-10-41-11-9-34)28(39)33-25(15-21-12-22(35)16-23(36)13-21)29(40)32-24(27(38)30(2)18-42-30)14-20-6-4-3-5-7-20/h3-7,12-13,16,19,24-25,35-36H,8-11,14-15,17-18H2,1-2H3,(H,31,37)(H,32,40)(H,33,39)/t19-,24-,25-,30+/m0/s1
InChIKey=WHRCKSCJLMEKMS-DYJHIYBCSA-N

> <PUBCHEM_SUBSTANCE_SYNONYM>
SCHEMBL16119262

> <PUBCHEM_XREF_EXT_ID>
SCHEMBL16119262

> <PUBCHEM_EXT_DATASOURCE_URL>
https://www.surechembl.org/

> <PUBCHEM_EXT_SUBSTANCE_URL>
https://www.surechembl.org/chemical/SCHEMBL16119262

> <PUBCHEM_CID_ASSOCIATIONS>
117608151  1

> <PUBCHEM_COORDINATE_TYPE>
1
3

> <PUBCHEM_BONDANNOTATIONS>
20  10  5
13  14  5
13  17  6
29  37  6
16  9  5

$$$$
