310932944
  -OEChem-07211613022D

 33 37  0     0  0  0  0  0  0999 V2000
    6.4864   -2.5263    0.0000 O   0  0  0  0  0  0  0  0  0  0  0  0
    2.3898   -4.2332    0.0000 O   0  0  0  0  0  0  0  0  0  0  0  0
    6.1108   -3.9259    0.0000 N   0  0  0  0  0  0  0  0  0  0  0  0
    6.5205   -4.6429    0.0000 N   0  0  0  0  0  0  0  0  0  0  0  0
    4.8136   -4.5063    0.0000 N   0  0  0  0  0  0  0  0  0  0  0  0
    2.5263   -2.8336    0.0000 N   0  0  0  0  0  0  0  0  0  0  0  0
    1.8777   -1.3314    0.0000 N   0  0  0  0  0  0  0  0  0  0  0  0
   10.2417   -1.1948    0.0000 N   0  0  0  0  0  0  0  0  0  0  0  0
    7.4081   -3.6529    0.0000 C   0  0  0  0  0  0  0  0  0  0  0  0
    6.6571   -3.3115    0.0000 C   0  0  0  0  0  0  0  0  0  0  0  0
    8.1251   -3.2432    0.0000 C   0  0  0  0  0  0  0  0  0  0  0  0
    5.2915   -3.8577    0.0000 C   0  0  0  0  0  0  0  0  0  0  0  0
    7.3058   -4.4722    0.0000 C   0  0  0  0  0  0  0  0  0  0  0  0
    8.1251   -2.4239    0.0000 C   0  0  0  0  0  0  0  0  0  0  0  0
    3.6870   -3.6870    0.0000 C   0  0  0  0  0  0  0  0  0  0  0  0
    4.9843   -3.0725    0.0000 C   0  0  0  0  0  0  0  0  0  0  0  0
    2.8677   -3.5846    0.0000 C   0  0  0  0  0  0  0  0  0  0  0  0
    8.8078   -3.6529    0.0000 C   0  0  0  0  0  0  0  0  0  0  0  0
    3.9942   -4.4380    0.0000 C   0  0  0  0  0  0  0  0  0  0  0  0
    4.1650   -3.0042    0.0000 C   0  0  0  0  0  0  0  0  0  0  0  0
    8.8078   -2.0142    0.0000 C   0  0  0  0  0  0  0  0  0  0  0  0
    9.5248   -2.4239    0.0000 C   0  0  0  0  0  0  0  0  0  0  0  0
    9.5248   -3.2432    0.0000 C   0  0  0  0  0  0  0  0  0  0  0  0
    3.0383   -2.1849    0.0000 C   0  0  0  0  0  0  0  0  0  0  0  0
    1.7411   -2.7311    0.0000 C   0  0  0  0  0  0  0  0  0  0  0  0
    7.4081   -2.0142    0.0000 C   0  0  0  0  0  0  0  0  0  0  0  0
    1.3997   -1.9801    0.0000 C   0  0  0  0  0  0  0  0  0  0  0  0
    2.6970   -1.3997    0.0000 C   0  0  0  0  0  0  0  0  0  0  0  0
    0.7510   -0.4780    0.0000 C   0  0  0  0  0  0  0  0  0  0  0  0
    1.5704   -0.5804    0.0000 C   0  0  0  0  0  0  0  0  0  0  0  0
   10.2417   -2.0142    0.0000 C   0  0  0  0  0  0  0  0  0  0  0  0
    0.0000   -0.7852    0.0000 C   0  0  0  0  0  0  0  0  0  0  0  0
    0.0683    0.0000    0.0000 C   0  0  0  0  0  0  0  0  0  0  0  0
  1 10  1  0  0  0  0
  2 17  2  0  0  0  0
  3  4  1  0  0  0  0
  3 10  1  0  0  0  0
  3 12  1  0  0  0  0
  4 13  2  0  0  0  0
  5 12  1  0  0  0  0
  5 19  2  0  0  0  0
  6 17  1  0  0  0  0
  6 24  1  0  0  0  0
  6 25  1  0  0  0  0
  7 27  1  0  0  0  0
  7 28  1  0  0  0  0
  7 30  1  0  0  0  0
  8 31  3  0  0  0  0
  9 10  2  0  0  0  0
  9 11  1  0  0  0  0
  9 13  1  0  0  0  0
 11 14  2  0  0  0  0
 11 18  1  0  0  0  0
 12 16  2  0  0  0  0
 14 21  1  0  0  0  0
 14 26  1  0  0  0  0
 15 17  1  0  0  0  0
 15 19  1  0  0  0  0
 15 20  2  0  0  0  0
 16 20  1  0  0  0  0
 18 23  2  0  0  0  0
 21 22  2  0  0  0  0
 22 23  1  0  0  0  0
 22 31  1  0  0  0  0
 24 28  1  0  0  0  0
 25 27  1  0  0  0  0
 29 30  1  0  0  0  0
 29 32  1  0  0  0  0
 29 33  1  0  0  0  0
 32 33  1  0  0  0  0
M  END
> <PUBCHEM_COMPOUND_ID_TYPE>
0

> <PUBCHEM_TOTAL_CHARGE>
0

> <PUBCHEM_SUBSTANCE_ID>
310932944

> <PUBCHEM_SUBSTANCE_VERSION>
1

> <PUBCHEM_EXT_DATASOURCE_NAME>
4488

> <PUBCHEM_EXT_DATASOURCE_REGID>
SCHEMBL16110340

> <PUBCHEM_SUBSTANCE_COMMENT>
InChI=1S/C25H26N6O2/c1-17-12-19(13-26)4-6-21(17)22-15-28-31(25(22)33)23-7-5-20(14-27-23)24(32)30-10-8-29(9-11-30)16-18-2-3-18/h4-7,12,14-15,18,33H,2-3,8-11,16H2,1H3
InChIKey=LAINMACDHWTYOM-UHFFFAOYSA-N

> <PUBCHEM_SUBSTANCE_SYNONYM>
SCHEMBL16110340

> <PUBCHEM_XREF_EXT_ID>
SCHEMBL16110340

> <PUBCHEM_EXT_DATASOURCE_URL>
https://www.surechembl.org/

> <PUBCHEM_EXT_SUBSTANCE_URL>
https://www.surechembl.org/chemical/SCHEMBL16110340

> <PUBCHEM_CID_ASSOCIATIONS>
117601424  1

> <PUBCHEM_COORDINATE_TYPE>
1
3

$$$$
