310934685
  -OEChem-07211613022D

 24 27  0     0  0  0  0  0  0999 V2000
    2.9055   -2.8337    0.0000 O   0  0  0  0  0  0  0  0  0  0  0  0
    0.4305    0.0000    0.0000 O   0  0  0  0  0  0  0  0  0  0  0  0
    1.6500   -5.0218    0.0000 O   0  0  0  0  0  0  0  0  0  0  0  0
    2.5109   -2.1163    0.0000 C   0  0  0  0  0  0  0  0  0  0  0  0
    1.6859   -0.7174    0.0000 C   0  0  0  0  0  0  0  0  0  0  0  0
    2.5109   -1.1837    0.0000 C   0  0  0  0  0  0  0  0  0  0  0  0
    2.9055   -1.4348    0.0000 C   0  0  0  0  0  0  0  0  0  0  0  0
    1.6859   -2.1163    0.0000 C   0  0  0  0  0  0  0  0  0  0  0  0
    2.5109   -0.7174    0.0000 C   0  0  0  0  0  0  0  0  0  0  0  0
    1.2913   -1.4348    0.0000 C   0  0  0  0  0  0  0  0  0  0  0  0
    1.2913    0.0000    0.0000 C   0  0  0  0  0  0  0  0  0  0  0  0
    2.4750   -3.5870    0.0000 C   0  0  0  0  0  0  0  0  0  0  0  0
    2.9055   -4.3044    0.0000 C   0  0  0  0  0  0  0  0  0  0  0  0
    2.5109   -5.0218    0.0000 C   0  0  0  0  0  0  0  0  0  0  0  0
    3.7305   -4.3044    0.0000 C   0  0  0  0  0  0  0  0  0  0  0  0
    2.9055   -5.7392    0.0000 C   0  0  0  0  0  0  0  0  0  0  0  0
    1.2195   -5.7392    0.0000 C   0  0  0  0  0  0  0  0  0  0  0  0
    4.1609   -5.0218    0.0000 C   0  0  0  0  0  0  0  0  0  0  0  0
    3.7305   -5.7392    0.0000 C   0  0  0  0  0  0  0  0  0  0  0  0
    0.3945   -5.7392    0.0000 C   0  0  0  0  0  0  0  0  0  0  0  0
    1.6500   -6.4566    0.0000 C   0  0  0  0  0  0  0  0  0  0  0  0
    0.0000   -6.4566    0.0000 C   0  0  0  0  0  0  0  0  0  0  0  0
    1.2555   -7.1740    0.0000 C   0  0  0  0  0  0  0  0  0  0  0  0
    0.3945   -7.1740    0.0000 C   0  0  0  0  0  0  0  0  0  0  0  0
  1  4  1  0  0  0  0
  1 12  1  0  0  0  0
  2 11  1  0  0  0  0
  3 14  1  0  0  0  0
  3 17  1  0  0  0  0
  4  6  1  0  0  0  0
  4  7  1  0  0  0  0
  4  8  1  0  0  0  0
  5  6  1  0  0  0  0
  5  9  1  0  0  0  0
  5 10  1  0  0  0  0
  5 11  1  0  0  0  0
  7  9  1  0  0  0  0
  8 10  1  0  0  0  0
 12 13  1  0  0  0  0
 13 14  2  0  0  0  0
 13 15  1  0  0  0  0
 14 16  1  0  0  0  0
 15 18  2  0  0  0  0
 16 19  2  0  0  0  0
 17 20  2  0  0  0  0
 17 21  1  0  0  0  0
 18 19  1  0  0  0  0
 20 22  1  0  0  0  0
 21 23  2  0  0  0  0
 22 24  2  0  0  0  0
 23 24  1  0  0  0  0
M  END
> <PUBCHEM_COMPOUND_ID_TYPE>
0

> <PUBCHEM_TOTAL_CHARGE>
0

> <PUBCHEM_SUBSTANCE_ID>
310934685

> <PUBCHEM_SUBSTANCE_VERSION>
1

> <PUBCHEM_EXT_DATASOURCE_NAME>
4488

> <PUBCHEM_EXT_DATASOURCE_REGID>
SCHEMBL16112184

> <PUBCHEM_SUBSTANCE_COMMENT>
InChI=1S/C21H24O3/c22-16-20-10-12-21(15-20,13-11-20)23-14-17-6-4-5-9-19(17)24-18-7-2-1-3-8-18/h1-9,22H,10-16H2
InChIKey=HVYVKLZULWREBK-UHFFFAOYSA-N

> <PUBCHEM_SUBSTANCE_SYNONYM>
SCHEMBL16112184

> <PUBCHEM_XREF_EXT_ID>
SCHEMBL16112184

> <PUBCHEM_EXT_DATASOURCE_URL>
https://www.surechembl.org/

> <PUBCHEM_EXT_SUBSTANCE_URL>
https://www.surechembl.org/chemical/SCHEMBL16112184

> <PUBCHEM_CID_ASSOCIATIONS>
117602849  1

> <PUBCHEM_COORDINATE_TYPE>
1
3

$$$$
