310931579
  -OEChem-07211613022D

 26 28  0     0  0  0  0  0  0999 V2000
    0.9904   -0.1981    0.0000 F   0  0  0  0  0  0  0  0  0  0  0  0
    4.0181   -2.7448    0.0000 O   0  0  0  0  0  0  0  0  0  0  0  0
    8.4889   -2.8296    0.0000 O   0  0  0  0  0  0  0  0  0  0  0  0
    7.7816   -4.0747    0.0000 O   0  0  0  0  0  0  0  0  0  0  0  0
    4.9236   -1.5846    0.0000 N   0  0  0  0  0  0  0  0  0  0  0  0
    4.8387   -0.7640    0.0000 N   0  0  0  0  0  0  0  0  0  0  0  0
    6.3667   -1.5846    0.0000 N   0  0  0  0  0  0  0  0  0  0  0  0
    0.0000   -2.4618    0.0000 N   0  0  0  0  0  0  0  0  0  0  0  0
    3.6220   -1.3299    0.0000 C   0  0  0  0  0  0  0  0  0  0  0  0
    4.1879   -1.9242    0.0000 C   0  0  0  0  0  0  0  0  0  0  0  0
    2.8013   -1.4148    0.0000 C   0  0  0  0  0  0  0  0  0  0  0  0
    5.6310   -2.0091    0.0000 C   0  0  0  0  0  0  0  0  0  0  0  0
    2.2920   -0.7640    0.0000 C   0  0  0  0  0  0  0  0  0  0  0  0
    4.0181   -0.6225    0.0000 C   0  0  0  0  0  0  0  0  0  0  0  0
    1.4997   -0.8489    0.0000 C   0  0  0  0  0  0  0  0  0  0  0  0
    2.4618   -2.1788    0.0000 C   0  0  0  0  0  0  0  0  0  0  0  0
    1.1602   -1.6129    0.0000 C   0  0  0  0  0  0  0  0  0  0  0  0
    5.6310   -2.8296    0.0000 C   0  0  0  0  0  0  0  0  0  0  0  0
    1.6412   -2.2637    0.0000 C   0  0  0  0  0  0  0  0  0  0  0  0
    7.0741   -2.8296    0.0000 C   0  0  0  0  0  0  0  0  0  0  0  0
    7.0741   -2.0091    0.0000 C   0  0  0  0  0  0  0  0  0  0  0  0
    6.3667   -3.2258    0.0000 C   0  0  0  0  0  0  0  0  0  0  0  0
    2.6316    0.0000    0.0000 C   0  0  0  0  0  0  0  0  0  0  0  0
    0.3395   -1.6978    0.0000 C   0  0  0  0  0  0  0  0  0  0  0  0
    7.7816   -3.2258    0.0000 C   0  0  0  0  0  0  0  0  0  0  0  0
    4.6406   -3.2824    0.0000 C   0  0  0  0  0  0  0  0  0  0  0  0
  1 15  1  0  0  0  0
  2 10  1  0  0  0  0
  2 26  1  0  0  0  0
  3 25  2  0  0  0  0
  4 25  1  0  0  0  0
  5  6  1  0  0  0  0
  5 10  1  0  0  0  0
  5 12  1  0  0  0  0
  6 14  2  0  0  0  0
  7 12  2  0  0  0  0
  7 21  1  0  0  0  0
  8 24  3  0  0  0  0
  9 10  2  0  0  0  0
  9 11  1  0  0  0  0
  9 14  1  0  0  0  0
 11 13  1  0  0  0  0
 11 16  2  0  0  0  0
 12 18  1  0  0  0  0
 13 15  2  0  0  0  0
 13 23  1  0  0  0  0
 15 17  1  0  0  0  0
 16 19  1  0  0  0  0
 17 19  2  0  0  0  0
 17 24  1  0  0  0  0
 18 22  2  0  0  0  0
 20 21  2  0  0  0  0
 20 22  1  0  0  0  0
 20 25  1  0  0  0  0
M  END
> <PUBCHEM_COMPOUND_ID_TYPE>
0

> <PUBCHEM_TOTAL_CHARGE>
0

> <PUBCHEM_SUBSTANCE_ID>
310931579

> <PUBCHEM_SUBSTANCE_VERSION>
1

> <PUBCHEM_EXT_DATASOURCE_NAME>
4488

> <PUBCHEM_EXT_DATASOURCE_REGID>
SCHEMBL16108905

> <PUBCHEM_SUBSTANCE_COMMENT>
InChI=1S/C18H13FN4O3/c1-10-13(5-3-11(7-20)16(10)19)14-9-22-23(17(14)26-2)15-6-4-12(8-21-15)18(24)25/h3-6,8-9H,1-2H3,(H,24,25)
InChIKey=SMORERFBFWXEGG-UHFFFAOYSA-N

> <PUBCHEM_SUBSTANCE_SYNONYM>
SCHEMBL16108905

> <PUBCHEM_XREF_EXT_ID>
SCHEMBL16108905

> <PUBCHEM_EXT_DATASOURCE_URL>
https://www.surechembl.org/

> <PUBCHEM_EXT_SUBSTANCE_URL>
https://www.surechembl.org/chemical/SCHEMBL16108905

> <PUBCHEM_CID_ASSOCIATIONS>
117600320  1

> <PUBCHEM_COORDINATE_TYPE>
1
3

$$$$
