310931736
  -OEChem-07211613022D

 11 11  0     0  0  0  0  0  0999 V2000
    0.0000    0.0000    0.0000 S   0  0  0  0  0  0  0  0  0  0  0  0
    1.2372   -0.7172    0.0000 N   0  0  0  0  0  0  0  0  0  0  0  0
    0.0000   -1.4166    0.0000 N   0  0  0  0  0  0  0  0  0  0  0  0
    1.6497   -1.4166    0.0000 C   0  0  0  0  0  0  0  0  0  0  0  0
    2.4745   -1.4524    0.0000 C   0  0  0  0  0  0  0  0  0  0  0  0
    1.2552   -2.1517    0.0000 C   0  0  0  0  0  0  0  0  0  0  0  0
    2.4745   -2.8689    0.0000 C   0  0  0  0  0  0  0  0  0  0  0  0
    0.4124   -0.7172    0.0000 C   0  0  0  0  0  0  0  0  0  0  0  0
    2.8689   -2.1517    0.0000 C   0  0  0  0  0  0  0  0  0  0  0  0
    1.6497   -2.8510    0.0000 C   0  0  0  0  0  0  0  0  0  0  0  0
    2.8869   -3.5862    0.0000 C   0  0  0  0  0  0  0  0  0  0  0  0
  1  8  2  0  0  0  0
  2  4  1  0  0  0  0
  2  8  1  0  0  0  0
  3  8  1  0  0  0  0
  4  5  1  0  0  0  0
  4  6  1  0  0  0  0
  5  9  1  0  0  0  0
  6 10  1  0  0  0  0
  7  9  1  0  0  0  0
  7 10  1  0  0  0  0
  7 11  1  0  0  0  0
M  END
> <PUBCHEM_COMPOUND_ID_TYPE>
0

> <PUBCHEM_TOTAL_CHARGE>
0

> <PUBCHEM_SUBSTANCE_ID>
310931736

> <PUBCHEM_SUBSTANCE_VERSION>
1

> <PUBCHEM_EXT_DATASOURCE_NAME>
4488

> <PUBCHEM_EXT_DATASOURCE_REGID>
SCHEMBL16109065

> <PUBCHEM_SUBSTANCE_COMMENT>
InChI=1S/C8H16N2S/c1-6-2-4-7(5-3-6)10-8(9)11/h6-7H,2-5H2,1H3,(H3,9,10,11)
InChIKey=XHUXUQGLXIHCJJ-UHFFFAOYSA-N

> <PUBCHEM_SUBSTANCE_SYNONYM>
SCHEMBL16109065

> <PUBCHEM_XREF_EXT_ID>
SCHEMBL16109065

> <PUBCHEM_EXT_DATASOURCE_URL>
https://www.surechembl.org/

> <PUBCHEM_EXT_SUBSTANCE_URL>
https://www.surechembl.org/chemical/SCHEMBL16109065

> <PUBCHEM_CID_ASSOCIATIONS>
43148921  1

> <PUBCHEM_COORDINATE_TYPE>
1
3

$$$$
