310933056
  -OEChem-07211613022D

 46 51  0     1  0  0  0  0  0999 V2000
    1.4924   -0.0514    0.0000 Cl  0  0  0  0  0  0  0  0  0  0  0  0
    2.4702   -1.3895    0.0000 F   0  0  0  0  0  0  0  0  0  0  0  0
    1.4410   -5.3522    0.0000 O   0  0  0  0  0  0  0  0  0  0  0  0
    4.3229   -3.7054    0.0000 O   0  0  0  0  0  0  0  0  0  0  0  0
    3.6540    0.0000    0.0000 O   0  0  0  0  0  0  0  0  0  0  0  0
    2.8819   -5.3522    0.0000 N   0  0  0  0  0  0  0  0  0  0  0  0
    4.9920   -7.4108    0.0000 N   0  0  0  0  0  0  0  0  0  0  0  0
    1.8013   -2.8819    0.0000 N   0  0  0  0  0  0  0  0  0  0  0  0
    2.9849   -3.8083    0.0000 N   0  0  0  0  0  0  0  0  0  0  0  0
    2.8819   -3.7054    0.0000 N   0  0  0  0  0  0  0  0  0  0  0  0
    2.5732   -2.8819    0.0000 N   0  0  0  0  0  0  0  0  0  0  0  0
    4.9920   -9.8810    0.0000 N   0  0  0  0  0  0  0  0  0  0  0  0
    2.2130    0.0000    0.0000 N   0  0  0  0  0  0  0  0  0  0  0  0
    3.6024   -4.9405    0.0000 C   0  0  3  0  0  0  0  0  0  0  0  0
    4.3229   -5.3522    0.0000 C   0  0  0  0  0  0  0  0  0  0  0  0
    4.3229   -6.1756    0.0000 C   0  0  0  0  0  0  0  0  0  0  0  0
    5.0434   -6.5873    0.0000 C   0  0  0  0  0  0  0  0  0  0  0  0
    2.1615   -4.9405    0.0000 C   0  0  0  0  0  0  0  0  0  0  0  0
    3.6024   -4.1171    0.0000 C   0  0  0  0  0  0  0  0  0  0  0  0
    2.1615   -4.1171    0.0000 C   0  0  0  0  0  0  0  0  0  0  0  0
    2.8819   -6.1756    0.0000 C   0  0  0  0  0  0  0  0  0  0  0  0
    3.6024   -6.5873    0.0000 C   0  0  0  0  0  0  0  0  0  0  0  0
    5.0434   -4.9405    0.0000 C   0  0  0  0  0  0  0  0  0  0  0  0
    5.7639   -6.1756    0.0000 C   0  0  0  0  0  0  0  0  0  0  0  0
    1.4924   -3.6540    0.0000 C   0  0  0  0  0  0  0  0  0  0  0  0
    5.7639   -5.3522    0.0000 C   0  0  0  0  0  0  0  0  0  0  0  0
    1.2866   -2.2130    0.0000 C   0  0  0  0  0  0  0  0  0  0  0  0
    1.6469   -1.4410    0.0000 C   0  0  0  0  0  0  0  0  0  0  0  0
    5.7639   -7.8225    0.0000 C   0  0  0  0  0  0  0  0  0  0  0  0
    4.3229   -7.8225    0.0000 C   0  0  0  0  0  0  0  0  0  0  0  0
    2.8819   -2.8819    0.0000 C   0  0  0  0  0  0  0  0  0  0  0  0
    0.4631   -2.2644    0.0000 C   0  0  0  0  0  0  0  0  0  0  0  0
    1.1322   -0.7719    0.0000 C   0  0  0  0  0  0  0  0  0  0  0  0
    4.9920   -9.0576    0.0000 C   0  0  0  0  0  0  0  0  0  0  0  0
    5.7125   -8.6459    0.0000 C   0  0  0  0  0  0  0  0  0  0  0  0
    4.3229   -8.6459    0.0000 C   0  0  0  0  0  0  0  0  0  0  0  0
    0.0000   -1.5954    0.0000 C   0  0  0  0  0  0  0  0  0  0  0  0
    0.3603   -0.8749    0.0000 C   0  0  0  0  0  0  0  0  0  0  0  0
    2.2130   -2.4702    0.0000 C   0  0  0  0  0  0  0  0  0  0  0  0
    3.6024   -2.4702    0.0000 C   0  0  0  0  0  0  0  0  0  0  0  0
    2.8819   -1.2352    0.0000 C   0  0  0  0  0  0  0  0  0  0  0  0
    2.2130   -1.6469    0.0000 C   0  0  0  0  0  0  0  0  0  0  0  0
    3.6024   -1.6469    0.0000 C   0  0  0  0  0  0  0  0  0  0  0  0
    2.8819   -0.4117    0.0000 C   0  0  0  0  0  0  0  0  0  0  0  0
    4.2715  -10.2927    0.0000 C   0  0  0  0  0  0  0  0  0  0  0  0
    5.7125  -10.2927    0.0000 C   0  0  0  0  0  0  0  0  0  0  0  0
  1 33  1  0  0  0  0
  2 28  1  0  0  0  0
  3 18  2  0  0  0  0
  4 19  2  0  0  0  0
  5 44  2  0  0  0  0
  6 14  1  0  0  0  0
  6 18  1  0  0  0  0
  6 21  1  0  0  0  0
  7 17  1  0  0  0  0
  7 29  1  0  0  0  0
  7 30  1  0  0  0  0
  8 11  1  0  0  0  0
  8 25  1  0  0  0  0
  8 27  1  0  0  0  0
  9 11  2  0  0  0  0
  9 20  1  0  0  0  0
 10 19  1  0  0  0  0
 10 31  1  0  0  0  0
 12 34  1  0  0  0  0
 12 45  1  0  0  0  0
 12 46  1  0  0  0  0
 13 44  1  0  0  0  0
 14 15  1  0  0  0  0
 14 19  1  6  0  0  0
 15 16  2  0  0  0  0
 15 23  1  0  0  0  0
 16 17  1  0  0  0  0
 16 22  1  0  0  0  0
 17 24  2  0  0  0  0
 18 20  1  0  0  0  0
 20 25  2  0  0  0  0
 21 22  1  0  0  0  0
 23 26  2  0  0  0  0
 24 26  1  0  0  0  0
 27 28  1  0  0  0  0
 27 32  2  0  0  0  0
 28 33  2  0  0  0  0
 29 35  1  0  0  0  0
 30 36  1  0  0  0  0
 31 39  2  0  0  0  0
 31 40  1  0  0  0  0
 32 37  1  0  0  0  0
 33 38  1  0  0  0  0
 34 35  1  0  0  0  0
 34 36  1  0  0  0  0
 37 38  2  0  0  0  0
 39 42  1  0  0  0  0
 40 43  2  0  0  0  0
 41 42  2  0  0  0  0
 41 43  1  0  0  0  0
 41 44  1  0  0  0  0
M  END
> <PUBCHEM_COMPOUND_ID_TYPE>
0

> <PUBCHEM_TOTAL_CHARGE>
0

> <PUBCHEM_SUBSTANCE_ID>
310933056

> <PUBCHEM_SUBSTANCE_VERSION>
1

> <PUBCHEM_EXT_DATASOURCE_NAME>
4488

> <PUBCHEM_EXT_DATASOURCE_REGID>
SCHEMBL16110457

> <PUBCHEM_SUBSTANCE_COMMENT>
InChI=1S/C33H34ClFN8O3/c1-40(2)22-13-16-41(17-14-22)27-7-3-5-24-23(27)15-18-42(30(24)32(45)37-21-11-9-20(10-12-21)31(36)44)33(46)26-19-43(39-38-26)28-8-4-6-25(34)29(28)35/h3-12,19,22,30H,13-18H2,1-2H3,(H2,36,44)(H,37,45)/t30-/m0/s1
InChIKey=NMESXYFWTSUGKH-PMERELPUSA-N

> <PUBCHEM_SUBSTANCE_SYNONYM>
SCHEMBL16110457

> <PUBCHEM_XREF_EXT_ID>
SCHEMBL16110457

> <PUBCHEM_EXT_DATASOURCE_URL>
https://www.surechembl.org/

> <PUBCHEM_EXT_SUBSTANCE_URL>
https://www.surechembl.org/chemical/SCHEMBL16110457

> <PUBCHEM_CID_ASSOCIATIONS>
117601517  1

> <PUBCHEM_COORDINATE_TYPE>
1
3

> <PUBCHEM_BONDANNOTATIONS>
14  19  6

$$$$
