310942839
  -OEChem-07211613022D

 35 39  0     0  0  0  0  0  0999 V2000
    5.0499   -0.6228    0.0000 Cl  0  0  0  0  0  0  0  0  0  0  0  0
    6.5064    0.2012    0.0000 Cl  0  0  0  0  0  0  0  0  0  0  0  0
   -4.3599   -1.0445    0.0000 O   0  0  0  0  0  0  0  0  0  0  0  0
   -4.3599    1.4661    0.0000 O   0  0  0  0  0  0  0  0  0  0  0  0
   -1.4661   -1.0445    0.0000 O   0  0  0  0  0  0  0  0  0  0  0  0
    3.5934    0.2204    0.0000 N   0  0  0  0  0  0  0  0  0  0  0  0
    2.1560   -0.6228    0.0000 N   0  0  0  0  0  0  0  0  0  0  0  0
   -5.0882   -0.6228    0.0000 C   0  0  0  0  0  0  0  0  0  0  0  0
   -3.6317   -0.6228    0.0000 C   0  0  0  0  0  0  0  0  0  0  0  0
   -3.6317    0.2012    0.0000 C   0  0  0  0  0  0  0  0  0  0  0  0
   -4.3791    0.6228    0.0000 C   0  0  0  0  0  0  0  0  0  0  0  0
   -5.0690    0.2204    0.0000 C   0  0  0  0  0  0  0  0  0  0  0  0
   -5.8164   -0.2204    0.0000 C   0  0  0  0  0  0  0  0  0  0  0  0
   -5.1073   -1.4661    0.0000 C   0  0  0  0  0  0  0  0  0  0  0  0
   -2.8843   -1.0253    0.0000 C   0  0  0  0  0  0  0  0  0  0  0  0
   -2.9034    0.6228    0.0000 C   0  0  0  0  0  0  0  0  0  0  0  0
   -2.1943   -0.6228    0.0000 C   0  0  0  0  0  0  0  0  0  0  0  0
   -2.1943    0.2012    0.0000 C   0  0  0  0  0  0  0  0  0  0  0  0
    4.3216    0.6420    0.0000 C   0  0  0  0  0  0  0  0  0  0  0  0
   -6.5064   -0.6228    0.0000 C   0  0  0  0  0  0  0  0  0  0  0  0
   -5.7781   -1.8685    0.0000 C   0  0  0  0  0  0  0  0  0  0  0  0
    5.0690    0.2204    0.0000 C   0  0  0  0  0  0  0  0  0  0  0  0
   -6.5064   -1.4661    0.0000 C   0  0  0  0  0  0  0  0  0  0  0  0
    5.7781    0.6420    0.0000 C   0  0  0  0  0  0  0  0  0  0  0  0
    4.3408    1.4661    0.0000 C   0  0  0  0  0  0  0  0  0  0  0  0
    3.5934   -0.6420    0.0000 C   0  0  0  0  0  0  0  0  0  0  0  0
    2.8843    0.6228    0.0000 C   0  0  0  0  0  0  0  0  0  0  0  0
    5.7781    1.4469    0.0000 C   0  0  0  0  0  0  0  0  0  0  0  0
    5.0499    1.8685    0.0000 C   0  0  0  0  0  0  0  0  0  0  0  0
    2.9034   -1.0445    0.0000 C   0  0  0  0  0  0  0  0  0  0  0  0
    2.1752    0.2204    0.0000 C   0  0  0  0  0  0  0  0  0  0  0  0
   -0.7570   -0.6420    0.0000 C   0  0  0  0  0  0  0  0  0  0  0  0
    1.4469   -1.0445    0.0000 C   0  0  0  0  0  0  0  0  0  0  0  0
    0.0096   -1.0445    0.0000 C   0  0  0  0  0  0  0  0  0  0  0  0
    0.6804   -0.6420    0.0000 C   0  0  0  0  0  0  0  0  0  0  0  0
  1 22  1  0  0  0  0
  2 24  1  0  0  0  0
  3  8  1  0  0  0  0
  3  9  1  0  0  0  0
  4 11  2  0  0  0  0
  5 17  1  0  0  0  0
  5 32  1  0  0  0  0
  6 19  1  0  0  0  0
  6 26  1  0  0  0  0
  6 27  1  0  0  0  0
  7 30  1  0  0  0  0
  7 31  1  0  0  0  0
  7 33  1  0  0  0  0
  8 12  1  0  0  0  0
  8 13  1  0  0  0  0
  8 14  1  0  0  0  0
  9 10  2  0  0  0  0
  9 15  1  0  0  0  0
 10 11  1  0  0  0  0
 10 16  1  0  0  0  0
 11 12  1  0  0  0  0
 13 20  1  0  0  0  0
 14 21  1  0  0  0  0
 15 17  2  0  0  0  0
 16 18  2  0  0  0  0
 17 18  1  0  0  0  0
 19 22  2  0  0  0  0
 19 25  1  0  0  0  0
 20 23  1  0  0  0  0
 21 23  1  0  0  0  0
 22 24  1  0  0  0  0
 24 28  2  0  0  0  0
 25 29  2  0  0  0  0
 26 30  1  0  0  0  0
 27 31  1  0  0  0  0
 28 29  1  0  0  0  0
 32 34  1  0  0  0  0
 33 35  1  0  0  0  0
 34 35  1  0  0  0  0
M  END
> <PUBCHEM_COMPOUND_ID_TYPE>
0

> <PUBCHEM_TOTAL_CHARGE>
0

> <PUBCHEM_SUBSTANCE_ID>
310942839

> <PUBCHEM_SUBSTANCE_VERSION>
1

> <PUBCHEM_EXT_DATASOURCE_NAME>
4488

> <PUBCHEM_EXT_DATASOURCE_REGID>
SCHEMBL16120894

> <PUBCHEM_SUBSTANCE_COMMENT>
InChI=1S/C28H34Cl2N2O3/c29-23-7-6-8-24(27(23)30)32-16-14-31(15-17-32)13-4-5-18-34-21-9-10-22-25(33)20-28(35-26(22)19-21)11-2-1-3-12-28/h6-10,19H,1-5,11-18,20H2
InChIKey=MFXRQSJHMAPGHX-UHFFFAOYSA-N

> <PUBCHEM_SUBSTANCE_SYNONYM>
SCHEMBL16120894

> <PUBCHEM_XREF_EXT_ID>
SCHEMBL16120894

> <PUBCHEM_EXT_DATASOURCE_URL>
https://www.surechembl.org/

> <PUBCHEM_EXT_SUBSTANCE_URL>
https://www.surechembl.org/chemical/SCHEMBL16120894

> <PUBCHEM_CID_ASSOCIATIONS>
86275197  1

> <PUBCHEM_COORDINATE_TYPE>
1
3

$$$$
