310942499
  -OEChem-07211613022D

 58 63  0     1  0  0  0  0  0999 V2000
    5.2173    1.4741    0.0000 F   0  0  0  0  0  0  0  0  0  0  0  0
    1.2657   -2.7398    0.0000 F   0  0  0  0  0  0  0  0  0  0  0  0
    6.0970   -2.8941    0.0000 F   0  0  0  0  0  0  0  0  0  0  0  0
    0.0154   -0.1157    0.0000 O   0  0  0  0  0  0  0  0  0  0  0  0
    0.7409    2.8016    0.0000 O   0  0  0  0  0  0  0  0  0  0  0  0
   -1.2966   -0.3936    0.0000 O   0  0  0  0  0  0  0  0  0  0  0  0
   -6.3440   -2.7090    0.0000 O   0  0  0  0  0  0  0  0  0  0  0  0
   -3.4113   -2.7090    0.0000 O   0  0  0  0  0  0  0  0  0  0  0  0
    1.4510   -0.1003    0.0000 N   0  0  0  0  0  0  0  0  0  0  0  0
    3.6274   -0.2547    0.0000 N   0  0  0  0  0  0  0  0  0  0  0  0
    2.8093    0.8104    0.0000 N   0  0  0  0  0  0  0  0  0  0  0  0
    4.1059    0.4244    0.0000 N   0  0  0  0  0  0  0  0  0  0  0  0
    0.7409    1.1346    0.0000 N   0  0  0  0  0  0  0  0  0  0  0  0
   -0.5711   -1.6439    0.0000 N   0  0  0  0  0  0  0  0  0  0  0  0
   -4.8777   -2.4620    0.0000 N   0  0  0  0  0  0  0  0  0  0  0  0
    2.1764   -0.5171    0.0000 C   0  0  3  0  0  0  0  0  0  0  0  0
    2.8247   -0.0077    0.0000 C   0  0  0  0  0  0  0  0  0  0  0  0
    2.3617   -1.3197    0.0000 C   0  0  0  0  0  0  0  0  0  0  0  0
    3.5965    1.1036    0.0000 C   0  0  0  0  0  0  0  0  0  0  0  0
    0.7409    0.3319    0.0000 C   0  0  0  0  0  0  0  0  0  0  0  0
    3.8280    1.8909    0.0000 C   0  0  0  0  0  0  0  0  0  0  0  0
    1.4510   -0.9339    0.0000 C   0  0  0  0  0  0  0  0  0  0  0  0
    0.7409   -1.3506    0.0000 C   0  0  3  0  0  0  0  0  0  0  0  0
    3.9052   -1.0264    0.0000 C   0  0  0  0  0  0  0  0  0  0  0  0
    4.6461    2.0761    0.0000 C   0  0  0  0  0  0  0  0  0  0  0  0
    0.6329   -2.1687    0.0000 C   0  0  3  0  0  0  0  0  0  0  0  0
    1.5436   -1.3197    0.0000 C   0  0  0  0  0  0  0  0  0  0  0  0
    1.7906   -1.8909    0.0000 C   0  0  0  0  0  0  0  0  0  0  0  0
    3.2106   -1.5204    0.0000 C   0  0  0  0  0  0  0  0  0  0  0  0
    3.2723    2.4774    0.0000 C   0  0  0  0  0  0  0  0  0  0  0  0
    4.7233   -1.1808    0.0000 C   0  0  0  0  0  0  0  0  0  0  0  0
   -0.0154   -1.0110    0.0000 C   0  0  0  0  0  0  0  0  0  0  0  0
    1.4510    1.5513    0.0000 C   0  0  0  0  0  0  0  0  0  0  0  0
    0.0309    1.5513    0.0000 C   0  0  0  0  0  0  0  0  0  0  0  0
   -0.1698   -2.3385    0.0000 C   0  0  0  0  0  0  0  0  0  0  0  0
    3.5039    3.2800    0.0000 C   0  0  0  0  0  0  0  0  0  0  0  0
    4.8777    2.8633    0.0000 C   0  0  0  0  0  0  0  0  0  0  0  0
    1.4664    2.3848    0.0000 C   0  0  3  0  0  0  0  0  0  0  0  0
    0.0309    2.3848    0.0000 C   0  0  3  0  0  0  0  0  0  0  0  0
   -1.2966   -1.2271    0.0000 C   0  0  0  0  0  0  0  0  0  0  0  0
    4.3220    3.4499    0.0000 C   0  0  0  0  0  0  0  0  0  0  0  0
    5.0011   -1.9526    0.0000 C   0  0  0  0  0  0  0  0  0  0  0  0
    5.2635   -0.5634    0.0000 C   0  0  0  0  0  0  0  0  0  0  0  0
    5.8038   -2.1224    0.0000 C   0  0  0  0  0  0  0  0  0  0  0  0
    6.0816   -0.7023    0.0000 C   0  0  0  0  0  0  0  0  0  0  0  0
   -2.0066   -1.6284    0.0000 C   0  0  0  0  0  0  0  0  0  0  0  0
    3.0254    3.7431    0.0000 C   0  0  0  0  0  0  0  0  0  0  0  0
    6.3440   -1.4896    0.0000 C   0  0  0  0  0  0  0  0  0  0  0  0
    2.1764    2.8016    0.0000 C   0  0  0  0  0  0  0  0  0  0  0  0
   -0.6946    2.8016    0.0000 C   0  0  0  0  0  0  0  0  0  0  0  0
   -2.7476   -1.2271    0.0000 C   0  0  0  0  0  0  0  0  0  0  0  0
   -5.5260   -2.9713    0.0000 C   0  0  0  0  0  0  0  0  0  0  0  0
   -4.2139   -2.9559    0.0000 C   0  0  0  0  0  0  0  0  0  0  0  0
   -3.4421   -1.6284    0.0000 C   0  0  0  0  0  0  0  0  0  0  0  0
   -4.8622   -1.6284    0.0000 C   0  0  0  0  0  0  0  0  0  0  0  0
   -4.1830   -1.2271    0.0000 C   0  0  0  0  0  0  0  0  0  0  0  0
   -5.2944   -3.7431    0.0000 C   0  0  0  0  0  0  0  0  0  0  0  0
   -4.4609   -3.7431    0.0000 C   0  0  0  0  0  0  0  0  0  0  0  0
  1 25  1  0  0  0  0
 26  2  1  1  0  0  0
  3 44  1  0  0  0  0
  4 20  2  0  0  0  0
  5 38  1  0  0  0  0
  5 39  1  0  0  0  0
  6 40  2  0  0  0  0
  7 52  2  0  0  0  0
  8 53  2  0  0  0  0
 16  9  1  1  0  0  0
  9 20  1  0  0  0  0
  9 22  1  0  0  0  0
 10 12  1  0  0  0  0
 10 17  1  0  0  0  0
 10 24  1  0  0  0  0
 11 17  2  0  0  0  0
 11 19  1  0  0  0  0
 12 19  2  0  0  0  0
 13 20  1  0  0  0  0
 13 33  1  0  0  0  0
 13 34  1  0  0  0  0
 14 32  1  0  0  0  0
 14 35  1  0  0  0  0
 14 40  1  0  0  0  0
 15 52  1  0  0  0  0
 15 53  1  0  0  0  0
 15 55  1  0  0  0  0
 16 17  1  0  0  0  0
 16 18  1  0  0  0  0
 18 27  1  0  0  0  0
 18 28  1  0  0  0  0
 18 29  1  0  0  0  0
 19 21  1  0  0  0  0
 21 25  2  0  0  0  0
 21 30  1  0  0  0  0
 23 22  1  1  0  0  0
 23 26  1  0  0  0  0
 23 32  1  0  0  0  0
 24 31  1  0  0  0  0
 25 37  1  0  0  0  0
 26 35  1  0  0  0  0
 30 36  2  0  0  0  0
 31 42  2  0  0  0  0
 31 43  1  0  0  0  0
 33 38  1  0  0  0  0
 34 39  1  0  0  0  0
 36 41  1  0  0  0  0
 36 47  1  0  0  0  0
 37 41  2  0  0  0  0
 38 49  1  1  0  0  0
 39 50  1  1  0  0  0
 40 46  1  0  0  0  0
 42 44  1  0  0  0  0
 43 45  2  0  0  0  0
 44 48  2  0  0  0  0
 45 48  1  0  0  0  0
 46 51  1  0  0  0  0
 51 54  1  0  0  0  0
 52 57  1  0  0  0  0
 53 58  1  0  0  0  0
 54 56  1  0  0  0  0
 55 56  1  0  0  0  0
 57 58  2  0  0  0  0
M  END
> <PUBCHEM_COMPOUND_ID_TYPE>
0

> <PUBCHEM_TOTAL_CHARGE>
0

> <PUBCHEM_SUBSTANCE_ID>
310942499

> <PUBCHEM_SUBSTANCE_VERSION>
1

> <PUBCHEM_EXT_DATASOURCE_NAME>
4488

> <PUBCHEM_EXT_DATASOURCE_REGID>
SCHEMBL16120535

> <PUBCHEM_SUBSTANCE_COMMENT>
InChI=1S/C43H54F3N7O5/c1-27-14-15-34(45)33(19-27)40-47-41(53(48-40)23-30-11-10-12-32(44)20-30)39(43(4,5)6)52(42(57)50-21-28(2)58-29(3)22-50)25-31-24-49(26-35(31)46)36(54)13-8-7-9-18-51-37(55)16-17-38(51)56/h10-12,14-17,19-20,28-29,31,35,39H,7-9,13,18,21-26H2,1-6H3/t28-,29+,31-,35-,39-/m0/s1
InChIKey=VDZMSOREWPXCCE-CGWDMRBUSA-N

> <PUBCHEM_SUBSTANCE_SYNONYM>
SCHEMBL16120535

> <PUBCHEM_XREF_EXT_ID>
SCHEMBL16120535

> <PUBCHEM_EXT_DATASOURCE_URL>
https://www.surechembl.org/

> <PUBCHEM_EXT_SUBSTANCE_URL>
https://www.surechembl.org/chemical/SCHEMBL16120535

> <PUBCHEM_CID_ASSOCIATIONS>
117609069  1

> <PUBCHEM_COORDINATE_TYPE>
1
3

> <PUBCHEM_BONDANNOTATIONS>
26  2  5
23  22  5
38  49  5
39  50  5
16  9  5

$$$$
