310945996
  -OEChem-07211613022D

 42 45  0     1  0  0  0  0  0999 V2000
   -2.5288    0.7968    0.0000 F   0  0  0  0  0  0  0  0  0  0  0  0
    4.2609    0.6859    0.0000 O   0  0  0  0  0  0  0  0  0  0  0  0
    3.9560   -1.2817    0.0000 O   0  0  0  0  0  0  0  0  0  0  0  0
    1.7944    0.7968    0.0000 O   0  0  0  0  0  0  0  0  0  0  0  0
   -0.3672   -1.2817    0.0000 O   0  0  0  0  0  0  0  0  0  0  0  0
    3.9560   -2.9445    0.0000 O   0  0  0  0  0  0  0  0  0  0  0  0
   -5.3971    0.7968    0.0000 O   0  0  0  0  0  0  0  0  0  0  0  0
    2.5149   -0.4365    0.0000 N   0  0  0  0  0  0  0  0  0  0  0  0
    0.3672   -0.0208    0.0000 N   0  0  0  0  0  0  0  0  0  0  0  0
   -3.9560   -0.0208    0.0000 N   0  0  0  0  0  0  0  0  0  0  0  0
    4.6904   -0.0070    0.0000 C   0  0  3  0  0  0  0  0  0  0  0  0
    3.9006   -0.4226    0.0000 C   0  0  0  0  0  0  0  0  0  0  0  0
    5.0922    0.6859    0.0000 C   0  0  0  0  0  0  0  0  0  0  0  0
    3.2216   -0.0347    0.0000 C   0  0  3  0  0  0  0  0  0  0  0  0
    5.3971   -0.4365    0.0000 C   0  0  0  0  0  0  0  0  0  0  0  0
    3.2355    1.2956    0.0000 C   0  0  0  0  0  0  0  0  0  0  0  0
    1.7944   -0.0485    0.0000 C   0  0  0  0  0  0  0  0  0  0  0  0
    1.1016   -0.4365    0.0000 C   0  0  3  0  0  0  0  0  0  0  0  0
    2.5011    1.7251    0.0000 C   0  0  0  0  0  0  0  0  0  0  0  0
    1.0878   -1.2540    0.0000 C   0  0  0  0  0  0  0  0  0  0  0  0
    1.8083   -1.6836    0.0000 C   0  0  0  0  0  0  0  0  0  0  0  0
   -0.3533   -0.4226    0.0000 C   0  0  0  0  0  0  0  0  0  0  0  0
    1.8221    1.3095    0.0000 C   0  0  0  0  0  0  0  0  0  0  0  0
    2.5149    2.5426    0.0000 C   0  0  0  0  0  0  0  0  0  0  0  0
   -1.0878   -0.0208    0.0000 C   0  0  3  0  0  0  0  0  0  0  0  0
    2.5288   -1.2817    0.0000 C   0  0  0  0  0  0  0  0  0  0  0  0
    1.8083   -2.5149    0.0000 C   0  0  0  0  0  0  0  0  0  0  0  0
    1.0878    1.7251    0.0000 C   0  0  0  0  0  0  0  0  0  0  0  0
    1.7806    2.9445    0.0000 C   0  0  0  0  0  0  0  0  0  0  0  0
   -1.7806   -0.4365    0.0000 C   0  0  0  0  0  0  0  0  0  0  0  0
    3.2216   -2.5149    0.0000 C   0  0  0  0  0  0  0  0  0  0  0  0
    3.2355   -1.6836    0.0000 C   0  0  0  0  0  0  0  0  0  0  0  0
    2.5149   -2.9168    0.0000 C   0  0  0  0  0  0  0  0  0  0  0  0
    1.0878    2.5426    0.0000 C   0  0  0  0  0  0  0  0  0  0  0  0
   -2.5288   -0.0208    0.0000 C   0  0  0  0  0  0  0  0  0  0  0  0
   -3.2216   -0.4365    0.0000 C   0  0  0  0  0  0  0  0  0  0  0  0
   -1.0739    0.7968    0.0000 C   0  0  0  0  0  0  0  0  0  0  0  0
   -3.9560    0.7968    0.0000 C   0  0  0  0  0  0  0  0  0  0  0  0
   -4.6627   -0.4365    0.0000 C   0  0  0  0  0  0  0  0  0  0  0  0
   -4.6904    1.2125    0.0000 C   0  0  0  0  0  0  0  0  0  0  0  0
   -5.3971   -0.0347    0.0000 C   0  0  0  0  0  0  0  0  0  0  0  0
    4.6904   -2.5011    0.0000 C   0  0  0  0  0  0  0  0  0  0  0  0
  1 35  1  0  0  0  0
  2 11  1  0  0  0  0
  2 13  1  0  0  0  0
  3 12  2  0  0  0  0
  4 17  2  0  0  0  0
  5 22  2  0  0  0  0
  6 31  1  0  0  0  0
  6 42  1  0  0  0  0
  7 40  1  0  0  0  0
  7 41  1  0  0  0  0
 14  8  1  1  0  0  0
  8 17  1  0  0  0  0
 18  9  1  6  0  0  0
  9 22  1  0  0  0  0
 10 36  1  0  0  0  0
 10 38  1  0  0  0  0
 10 39  1  0  0  0  0
 11 12  1  6  0  0  0
 11 13  1  0  0  0  0
 11 15  1  1  0  0  0
 12 14  1  0  0  0  0
 14 16  1  0  0  0  0
 16 19  1  0  0  0  0
 17 18  1  0  0  0  0
 18 20  1  0  0  0  0
 19 23  2  0  0  0  0
 19 24  1  0  0  0  0
 20 21  1  0  0  0  0
 21 26  2  0  0  0  0
 21 27  1  0  0  0  0
 22 25  1  0  0  0  0
 23 28  1  0  0  0  0
 24 29  2  0  0  0  0
 25 30  1  0  0  0  0
 25 37  1  1  0  0  0
 26 32  1  0  0  0  0
 27 33  2  0  0  0  0
 28 34  2  0  0  0  0
 29 34  1  0  0  0  0
 30 35  2  0  0  0  0
 31 32  2  0  0  0  0
 31 33  1  0  0  0  0
 35 36  1  0  0  0  0
 38 40  1  0  0  0  0
 39 41  1  0  0  0  0
M  END
> <PUBCHEM_COMPOUND_ID_TYPE>
0

> <PUBCHEM_TOTAL_CHARGE>
0

> <PUBCHEM_SUBSTANCE_ID>
310945996

> <PUBCHEM_SUBSTANCE_VERSION>
1

> <PUBCHEM_EXT_DATASOURCE_NAME>
4488

> <PUBCHEM_EXT_DATASOURCE_REGID>
SCHEMBL16124102

> <PUBCHEM_SUBSTANCE_COMMENT>
InChI=1S/C32H40FN3O6/c1-22(17-25(33)20-36-13-15-41-16-14-36)30(38)35-28(19-24-9-11-26(40-3)12-10-24)31(39)34-27(29(37)32(2)21-42-32)18-23-7-5-4-6-8-23/h4-12,17,22,27-28H,13-16,18-21H2,1-3H3,(H,34,39)(H,35,38)/b25-17-/t22-,27+,28+,32-/m1/s1
InChIKey=UFXOHJFJQVETLE-HUSKJXFDSA-N

> <PUBCHEM_SUBSTANCE_SYNONYM>
SCHEMBL16124102

> <PUBCHEM_XREF_EXT_ID>
SCHEMBL16124102

> <PUBCHEM_EXT_DATASOURCE_URL>
https://www.surechembl.org/

> <PUBCHEM_EXT_SUBSTANCE_URL>
https://www.surechembl.org/chemical/SCHEMBL16124102

> <PUBCHEM_CID_ASSOCIATIONS>
117611967  1

> <PUBCHEM_COORDINATE_TYPE>
1
3

> <PUBCHEM_BONDANNOTATIONS>
11  12  6
11  15  5
25  37  5
14  8  5
18  9  6

$$$$
