310944131
  -OEChem-07211613022D

 34 38  0     1  0  0  0  0  0999 V2000
    2.5527    0.8435    0.0000 O   0  0  0  0  0  0  0  0  0  0  0  0
    5.4747    0.2591    0.0000 O   0  0  0  0  0  0  0  0  0  0  0  0
    5.4637    1.7257    0.0000 O   0  0  0  0  0  0  0  0  0  0  0  0
   -0.6340   -1.5603    0.0000 O   0  0  0  0  0  0  0  0  0  0  0  0
    3.4237   -0.3253    0.0000 N   0  0  0  0  0  0  0  0  0  0  0  0
    0.4687   -0.2922    0.0000 N   0  0  0  0  0  0  0  0  0  0  0  0
   -4.1405   -0.1489    0.0000 N   0  0  0  0  0  0  0  0  0  0  0  0
   -4.4822    0.6010    0.0000 N   0  0  0  0  0  0  0  0  0  0  0  0
   -5.3093    0.5017    0.0000 N   0  0  0  0  0  0  0  0  0  0  0  0
   -5.4747   -0.3033    0.0000 N   0  0  0  0  0  0  0  0  0  0  0  0
    2.1005   -0.5238    0.0000 C   0  0  0  0  0  0  0  0  0  0  0  0
    2.6850    0.0276    0.0000 C   0  0  0  0  0  0  0  0  0  0  0  0
    3.3024   -1.1302    0.0000 C   0  0  3  0  0  0  0  0  0  0  0  0
    4.1516    0.0607    0.0000 C   0  0  0  0  0  0  0  0  0  0  0  0
    2.4865   -1.2626    0.0000 C   0  0  0  0  0  0  0  0  0  0  0  0
    1.5824   -1.1743    0.0000 C   0  0  0  0  0  0  0  0  0  0  0  0
    1.8029    0.2261    0.0000 C   0  0  0  0  0  0  0  0  0  0  0  0
    4.2838    0.8766    0.0000 C   0  0  0  0  0  0  0  0  0  0  0  0
    4.9123   -0.3033    0.0000 C   0  0  0  0  0  0  0  0  0  0  0  0
    5.0888    0.9759    0.0000 C   0  0  0  0  0  0  0  0  0  0  0  0
    0.7663   -1.0420    0.0000 C   0  0  0  0  0  0  0  0  0  0  0  0
    0.9868    0.3474    0.0000 C   0  0  0  0  0  0  0  0  0  0  0  0
    3.8979   -1.7257    0.0000 C   0  0  0  0  0  0  0  0  0  0  0  0
   -0.3474   -0.1709    0.0000 C   0  0  0  0  0  0  0  0  0  0  0  0
   -0.8876   -0.7773    0.0000 C   0  0  3  0  0  0  0  0  0  0  0  0
   -1.7146   -0.6230    0.0000 C   0  0  0  0  0  0  0  0  0  0  0  0
    3.6884    1.4611    0.0000 C   0  0  0  0  0  0  0  0  0  0  0  0
   -1.9792    0.1489    0.0000 C   0  0  0  0  0  0  0  0  0  0  0  0
   -3.3245   -0.3033    0.0000 C   0  0  0  0  0  0  0  0  0  0  0  0
   -2.7842    0.3143    0.0000 C   0  0  0  0  0  0  0  0  0  0  0  0
   -2.2439   -1.2294    0.0000 C   0  0  0  0  0  0  0  0  0  0  0  0
   -3.0599   -1.0640    0.0000 C   0  0  0  0  0  0  0  0  0  0  0  0
   -4.7469   -0.6891    0.0000 C   0  0  0  0  0  0  0  0  0  0  0  0
   -1.4169    0.7773    0.0000 C   0  0  0  0  0  0  0  0  0  0  0  0
  1 12  2  0  0  0  0
  2 19  1  0  0  0  0
  2 20  1  0  0  0  0
  3 20  2  0  0  0  0
 25  4  1  6  0  0  0
  5 12  1  0  0  0  0
  5 13  1  0  0  0  0
  5 14  1  0  0  0  0
  6 21  1  0  0  0  0
  6 22  1  0  0  0  0
  6 24  1  0  0  0  0
  7  8  1  0  0  0  0
  7 29  1  0  0  0  0
  7 33  1  0  0  0  0
  8  9  2  0  0  0  0
  9 10  1  0  0  0  0
 10 33  2  0  0  0  0
 11 12  1  0  0  0  0
 11 15  1  0  0  0  0
 11 16  1  0  0  0  0
 11 17  1  0  0  0  0
 13 15  1  0  0  0  0
 13 23  1  0  0  0  0
 14 18  2  0  0  0  0
 14 19  1  0  0  0  0
 16 21  1  0  0  0  0
 17 22  1  0  0  0  0
 18 20  1  0  0  0  0
 18 27  1  0  0  0  0
 24 25  1  0  0  0  0
 25 26  1  0  0  0  0
 26 28  2  0  0  0  0
 26 31  1  0  0  0  0
 28 30  1  0  0  0  0
 28 34  1  0  0  0  0
 29 30  2  0  0  0  0
 29 32  1  0  0  0  0
 31 32  2  0  0  0  0
M  END
> <PUBCHEM_COMPOUND_ID_TYPE>
0

> <PUBCHEM_TOTAL_CHARGE>
0

> <PUBCHEM_SUBSTANCE_ID>
310944131

> <PUBCHEM_SUBSTANCE_VERSION>
1

> <PUBCHEM_EXT_DATASOURCE_NAME>
4488

> <PUBCHEM_EXT_DATASOURCE_REGID>
SCHEMBL16122206

> <PUBCHEM_SUBSTANCE_COMMENT>
InChI=1S/C24H30N6O4/c1-15-10-18(29-14-25-26-27-29)4-5-19(15)21(31)12-28-8-6-24(7-9-28)11-16(2)30(23(24)33)20-13-34-22(32)17(20)3/h4-5,10,14,16,21,31H,6-9,11-13H2,1-3H3/t16?,21-/m0/s1
InChIKey=HDMILVXFEFRTDA-MRNPHLECSA-N

> <PUBCHEM_SUBSTANCE_SYNONYM>
SCHEMBL16122206

> <PUBCHEM_XREF_EXT_ID>
SCHEMBL16122206

> <PUBCHEM_EXT_DATASOURCE_URL>
https://www.surechembl.org/

> <PUBCHEM_EXT_SUBSTANCE_URL>
https://www.surechembl.org/chemical/SCHEMBL16122206

> <PUBCHEM_CID_ASSOCIATIONS>
117610412  1

> <PUBCHEM_COORDINATE_TYPE>
1
3

> <PUBCHEM_BONDANNOTATIONS>
25  4  6

$$$$
