310941173
  -OEChem-07211613022D

 22 23  0     1  0  0  0  0  0999 V2000
    2.3141   -1.7868    0.0000 O   0  0  0  0  0  0  0  0  0  0  0  0
    0.9835    2.6197    0.0000 O   0  0  0  0  0  0  0  0  0  0  0  0
    2.4589    1.7888    0.0000 O   0  0  0  0  0  0  0  0  0  0  0  0
    1.8076   -2.6197    0.0000 O   0  0  0  0  0  0  0  0  0  0  0  0
    0.2544    0.0591    0.0000 N   0  0  0  0  0  0  0  0  0  0  0  0
    1.7297    1.3478    0.0000 N   0  0  0  0  0  0  0  0  0  0  0  0
   -1.2210    1.3478    0.0000 C   0  0  0  0  0  0  0  0  0  0  0  0
   -1.9162    1.7549    0.0000 C   0  0  3  0  0  0  0  0  0  0  0  0
   -1.9502    0.9578    0.0000 C   0  0  3  0  0  0  0  0  0  0  0  0
   -0.4748    1.7549    0.0000 C   0  0  0  0  0  0  0  0  0  0  0  0
   -2.7472    2.0262    0.0000 C   0  0  0  0  0  0  0  0  0  0  0  0
   -2.7302    0.6865    0.0000 C   0  0  0  0  0  0  0  0  0  0  0  0
    0.2713    1.3648    0.0000 C   0  0  3  0  0  0  0  0  0  0  0  0
   -3.2220    1.3478    0.0000 C   0  0  0  0  0  0  0  0  0  0  0  0
    0.9835    1.7549    0.0000 C   0  0  0  0  0  0  0  0  0  0  0  0
    1.8076   -2.0795    0.0000 C   0  0  0  0  0  0  0  0  0  0  0  0
    2.3254   -1.2240    0.0000 C   0  0  0  0  0  0  0  0  0  0  0  0
    1.7467    0.4830    0.0000 C   0  0  0  0  0  0  0  0  0  0  0  0
    2.8319   -1.2016    0.0000 C   0  0  0  0  0  0  0  0  0  0  0  0
    1.8076   -1.2240    0.0000 C   0  0  0  0  0  0  0  0  0  0  0  0
    2.3141   -0.6725    0.0000 C   0  0  0  0  0  0  0  0  0  0  0  0
    3.2220    1.3309    0.0000 C   0  0  0  0  0  0  0  0  0  0  0  0
  1 16  1  0  0  0  0
  1 17  1  0  0  0  0
  2 15  2  0  0  0  0
  3  6  1  0  0  0  0
  3 22  1  0  0  0  0
  4 16  2  0  0  0  0
 13  5  1  1  0  0  0
  5 16  1  0  0  0  0
  6 15  1  0  0  0  0
  6 18  1  0  0  0  0
  7  8  1  0  0  0  0
  7  9  1  0  0  0  0
  7 10  1  6  0  0  0
  8  9  1  0  0  0  0
  8 11  1  1  0  0  0
  9 12  1  1  0  0  0
 10 13  1  0  0  0  0
 11 14  1  0  0  0  0
 12 14  1  0  0  0  0
 13 15  1  0  0  0  0
 17 19  1  0  0  0  0
 17 20  1  0  0  0  0
 17 21  1  0  0  0  0
M  END
> <PUBCHEM_COMPOUND_ID_TYPE>
0

> <PUBCHEM_TOTAL_CHARGE>
0

> <PUBCHEM_SUBSTANCE_ID>
310941173

> <PUBCHEM_SUBSTANCE_VERSION>
1

> <PUBCHEM_EXT_DATASOURCE_NAME>
4488

> <PUBCHEM_EXT_DATASOURCE_REGID>
SCHEMBL16119133

> <PUBCHEM_SUBSTANCE_COMMENT>
InChI=1S/C16H28N2O4/c1-16(2,3)22-15(20)17-13(14(19)18(4)21-5)9-12-10-7-6-8-11(10)12/h10-13H,6-9H2,1-5H3,(H,17,20)/t10-,11+,12+,13-/m0/s1
InChIKey=YRLGGHILMYCGLI-LOWDOPEQSA-N

> <PUBCHEM_SUBSTANCE_SYNONYM>
SCHEMBL16119133

> <PUBCHEM_XREF_EXT_ID>
SCHEMBL16119133

> <PUBCHEM_EXT_DATASOURCE_URL>
https://www.surechembl.org/

> <PUBCHEM_EXT_SUBSTANCE_URL>
https://www.surechembl.org/chemical/SCHEMBL16119133

> <PUBCHEM_CID_ASSOCIATIONS>
117608047  1

> <PUBCHEM_COORDINATE_TYPE>
1
3

> <PUBCHEM_BONDANNOTATIONS>
13  5  5
7  10  6
8  11  5
9  12  5

$$$$
