310938690
  -OEChem-07211613022D

 35 39  0     0  0  0  0  0  0999 V2000
   -4.2154  -15.1482    0.0000 Cl  0  0  0  0  0  0  0  0  0  0  0  0
   -0.6431  -15.5607    0.0000 O   0  0  0  0  0  0  0  0  0  0  0  0
    0.0714  -16.7982    0.0000 O   0  0  0  0  0  0  0  0  0  0  0  0
   -4.2154  -17.6232    0.0000 O   0  0  0  0  0  0  0  0  0  0  0  0
    0.7846  -13.0857    0.0000 N   0  0  0  0  0  0  0  0  0  0  0  0
    0.0714  -14.3232    0.0000 N   0  0  0  0  0  0  0  0  0  0  0  0
    1.5003  -14.3232    0.0000 N   0  0  0  0  0  0  0  0  0  0  0  0
    1.5003  -16.7982    0.0000 N   0  0  0  0  0  0  0  0  0  0  0  0
    1.1971  -11.8162    0.0000 C   0  0  0  0  0  0  0  0  0  0  0  0
    1.4520  -12.6008    0.0000 C   0  0  0  0  0  0  0  0  0  0  0  0
    1.9508  -11.4806    0.0000 C   0  0  0  0  0  0  0  0  0  0  0  0
    1.2833  -10.9957    0.0000 C   0  0  0  0  0  0  0  0  0  0  0  0
    0.3721  -11.8162    0.0000 C   0  0  0  0  0  0  0  0  0  0  0  0
    0.7859  -13.9107    0.0000 C   0  0  0  0  0  0  0  0  0  0  0  0
    0.1171  -12.6008    0.0000 C   0  0  0  0  0  0  0  0  0  0  0  0
    0.0714  -15.1482    0.0000 C   0  0  0  0  0  0  0  0  0  0  0  0
    0.7859  -15.5607    0.0000 C   0  0  0  0  0  0  0  0  0  0  0  0
    1.5003  -15.1482    0.0000 C   0  0  0  0  0  0  0  0  0  0  0  0
    0.7859  -16.3857    0.0000 C   0  0  0  0  0  0  0  0  0  0  0  0
   -1.3575  -15.1482    0.0000 C   0  0  0  0  0  0  0  0  0  0  0  0
   -2.0720  -15.5607    0.0000 C   0  0  0  0  0  0  0  0  0  0  0  0
   -2.7865  -15.1482    0.0000 C   0  0  0  0  0  0  0  0  0  0  0  0
   -3.5010  -15.5607    0.0000 C   0  0  0  0  0  0  0  0  0  0  0  0
   -3.5010  -16.3857    0.0000 C   0  0  0  0  0  0  0  0  0  0  0  0
   -2.0720  -16.3857    0.0000 C   0  0  0  0  0  0  0  0  0  0  0  0
    2.2148  -16.3857    0.0000 C   0  0  0  0  0  0  0  0  0  0  0  0
   -2.7865  -16.7982    0.0000 C   0  0  0  0  0  0  0  0  0  0  0  0
    2.9293  -16.7982    0.0000 C   0  0  0  0  0  0  0  0  0  0  0  0
   -4.2154  -16.7982    0.0000 C   0  0  0  0  0  0  0  0  0  0  0  0
    2.9293  -17.6232    0.0000 C   0  0  0  0  0  0  0  0  0  0  0  0
    3.6438  -16.3857    0.0000 C   0  0  0  0  0  0  0  0  0  0  0  0
    4.3582  -17.6232    0.0000 C   0  0  0  0  0  0  0  0  0  0  0  0
    3.6438  -18.0357    0.0000 C   0  0  0  0  0  0  0  0  0  0  0  0
    4.3582  -16.7982    0.0000 C   0  0  0  0  0  0  0  0  0  0  0  0
    5.0727  -18.0357    0.0000 C   0  0  0  0  0  0  0  0  0  0  0  0
  1 23  1  0  0  0  0
  2 16  1  0  0  0  0
  2 20  1  0  0  0  0
  3 19  2  0  0  0  0
  4 29  1  0  0  0  0
  5 10  1  0  0  0  0
  5 14  1  0  0  0  0
  5 15  1  0  0  0  0
  6 14  1  0  0  0  0
  6 16  2  0  0  0  0
  7 14  2  0  0  0  0
  7 18  1  0  0  0  0
  8 19  1  0  0  0  0
  8 26  1  0  0  0  0
  9 10  1  0  0  0  0
  9 11  1  0  0  0  0
  9 12  1  0  0  0  0
  9 13  1  0  0  0  0
 11 12  1  0  0  0  0
 13 15  1  0  0  0  0
 16 17  1  0  0  0  0
 17 18  2  0  0  0  0
 17 19  1  0  0  0  0
 20 21  1  0  0  0  0
 21 22  2  0  0  0  0
 21 25  1  0  0  0  0
 22 23  1  0  0  0  0
 23 24  2  0  0  0  0
 24 27  1  0  0  0  0
 24 29  1  0  0  0  0
 25 27  2  0  0  0  0
 26 28  1  0  0  0  0
 28 30  2  0  0  0  0
 28 31  1  0  0  0  0
 30 33  1  0  0  0  0
 31 34  2  0  0  0  0
 32 33  2  0  0  0  0
 32 34  1  0  0  0  0
 32 35  1  0  0  0  0
M  END
> <PUBCHEM_COMPOUND_ID_TYPE>
0

> <PUBCHEM_TOTAL_CHARGE>
0

> <PUBCHEM_SUBSTANCE_ID>
310938690

> <PUBCHEM_SUBSTANCE_VERSION>
1

> <PUBCHEM_EXT_DATASOURCE_NAME>
4488

> <PUBCHEM_EXT_DATASOURCE_REGID>
SCHEMBL16116604

> <PUBCHEM_SUBSTANCE_COMMENT>
InChI=1S/C27H29ClN4O3/c1-18-2-4-19(5-3-18)13-29-24(34)22-14-30-26(32-11-10-27(17-32)8-9-27)31-25(22)35-16-20-6-7-21(15-33)23(28)12-20/h2-7,12,14,33H,8-11,13,15-17H2,1H3,(H,29,34)
InChIKey=GUHYKDNRPFAHAI-UHFFFAOYSA-N

> <PUBCHEM_SUBSTANCE_SYNONYM>
SCHEMBL16116604

> <PUBCHEM_XREF_EXT_ID>
SCHEMBL16116604

> <PUBCHEM_EXT_DATASOURCE_URL>
https://www.surechembl.org/

> <PUBCHEM_EXT_SUBSTANCE_URL>
https://www.surechembl.org/chemical/SCHEMBL16116604

> <PUBCHEM_CID_ASSOCIATIONS>
117606121  1

> <PUBCHEM_COORDINATE_TYPE>
1
3

$$$$
