310929727
  -OEChem-07211613022D

 63 70  0     1  0  0  0  0  0999 V2000
    9.7825    0.6979    0.0000 Br  0  0  0  0  0  0  0  0  0  0  0  0
    9.2539    6.3698    0.0000 S   0  0  0  0  0  0  0  0  0  0  0  0
    8.1077    5.1829    0.0000 O   0  0  0  0  0  0  0  0  0  0  0  0
    5.4388    6.0031    0.0000 O   0  0  0  0  0  0  0  0  0  0  0  0
    5.4957    2.3479    0.0000 O   0  0  0  0  0  0  0  0  0  0  0  0
    4.0668    5.6479    0.0000 O   0  0  0  0  0  0  0  0  0  0  0  0
    9.4535    7.1703    0.0000 O   0  0  0  0  0  0  0  0  0  0  0  0
   10.0544    6.1703    0.0000 O   0  0  0  0  0  0  0  0  0  0  0  0
    2.6680    2.4606    0.0000 O   0  0  0  0  0  0  0  0  0  0  0  0
    1.9233    3.5854    0.0000 O   0  0  0  0  0  0  0  0  0  0  0  0
    6.9246   -0.1271    0.0000 O   0  0  0  0  0  0  0  0  0  0  0  0
    6.7442    5.4219    0.0000 N   0  0  0  0  0  0  0  0  0  0  0  0
    4.7812    4.4104    0.0000 N   0  0  0  0  0  0  0  0  0  0  0  0
    8.4534    6.5694    0.0000 N   0  0  0  0  0  0  0  0  0  0  0  0
    3.3523    3.5854    0.0000 N   0  0  0  0  0  0  0  0  0  0  0  0
    6.9246    2.3479    0.0000 N   0  0  0  0  0  0  0  0  0  0  0  0
    7.0798    6.1756    0.0000 C   0  0  3  0  0  0  0  0  0  0  0  0
    6.3958    6.6369    0.0000 C   0  0  3  0  0  0  0  0  0  0  0  0
    7.1373    6.9985    0.0000 C   0  0  0  0  0  0  0  0  0  0  0  0
    7.8803    5.9760    0.0000 C   0  0  0  0  0  0  0  0  0  0  0  0
    5.5882    4.5820    0.0000 C   0  0  3  0  0  0  0  0  0  0  0  0
    5.9238    5.3356    0.0000 C   0  0  0  0  0  0  0  0  0  0  0  0
    5.5728    6.6944    0.0000 C   0  0  0  0  0  0  0  0  0  0  0  0
    5.4957    3.1729    0.0000 C   0  0  3  0  0  0  0  0  0  0  0  0
    6.0007    3.8675    0.0000 C   0  0  0  0  0  0  0  0  0  0  0  0
    4.0668    4.8229    0.0000 C   0  0  0  0  0  0  0  0  0  0  0  0
    4.7812    3.5854    0.0000 C   0  0  0  0  0  0  0  0  0  0  0  0
    3.3523    4.4104    0.0000 C   0  0  3  0  0  0  0  0  0  0  0  0
    9.0543    5.5693    0.0000 C   0  0  0  0  0  0  0  0  0  0  0  0
    5.2112    7.4359    0.0000 C   0  0  0  0  0  0  0  0  0  0  0  0
    2.6378    4.8229    0.0000 C   0  0  0  0  0  0  0  0  0  0  0  0
    6.2102    1.9354    0.0000 C   0  0  0  0  0  0  0  0  0  0  0  0
    8.4812    4.9759    0.0000 C   0  0  0  0  0  0  0  0  0  0  0  0
    9.2817    4.7763    0.0000 C   0  0  0  0  0  0  0  0  0  0  0  0
    6.2102    1.1104    0.0000 C   0  0  0  0  0  0  0  0  0  0  0  0
    2.6378    3.1729    0.0000 C   0  0  0  0  0  0  0  0  0  0  0  0
    3.3523    1.9354    0.0000 C   0  0  3  0  0  0  0  0  0  0  0  0
    2.5516    5.6434    0.0000 C   0  0  0  0  0  0  0  0  0  0  0  0
    1.8841    4.4874    0.0000 C   0  0  0  0  0  0  0  0  0  0  0  0
    6.9246    0.6979    0.0000 C   0  0  0  0  0  0  0  0  0  0  0  0
    7.6391    1.9354    0.0000 C   0  0  0  0  0  0  0  0  0  0  0  0
    7.6391    1.1104    0.0000 C   0  0  0  0  0  0  0  0  0  0  0  0
    3.3523    1.1104    0.0000 C   0  0  3  0  0  0  0  0  0  0  0  0
    5.4957    0.6979    0.0000 C   0  0  0  0  0  0  0  0  0  0  0  0
    1.7446    5.8150    0.0000 C   0  0  0  0  0  0  0  0  0  0  0  0
    1.3321    5.1005    0.0000 C   0  0  0  0  0  0  0  0  0  0  0  0
    2.5677    2.1904    0.0000 C   0  0  0  0  0  0  0  0  0  0  0  0
    2.5677    0.8555    0.0000 C   0  0  0  0  0  0  0  0  0  0  0  0
    8.3536    0.6979    0.0000 C   0  0  0  0  0  0  0  0  0  0  0  0
    8.3536    2.3479    0.0000 C   0  0  0  0  0  0  0  0  0  0  0  0
    4.0668    0.6979    0.0000 C   0  0  0  0  0  0  0  0  0  0  0  0
    2.0827    1.5229    0.0000 C   0  0  0  0  0  0  0  0  0  0  0  0
    9.0681    1.1104    0.0000 C   0  0  0  0  0  0  0  0  0  0  0  0
    5.4957   -0.1271    0.0000 C   0  0  0  0  0  0  0  0  0  0  0  0
    9.0681    1.9354    0.0000 C   0  0  0  0  0  0  0  0  0  0  0  0
    4.0668   -0.1271    0.0000 C   0  0  0  0  0  0  0  0  0  0  0  0
    4.7812   -0.5396    0.0000 C   0  0  0  0  0  0  0  0  0  0  0  0
    6.1272    5.8568    0.0000 H   0  0  0  0  0  0  0  0  0  0  0  0
    6.4121    4.6251    0.0000 H   0  0  0  0  0  0  0  0  0  0  0  0
    6.2803    2.9179    0.0000 H   0  0  0  0  0  0  0  0  0  0  0  0
    3.3523    5.2354    0.0000 H   0  0  0  0  0  0  0  0  0  0  0  0
    3.0399    2.6990    0.0000 H   0  0  0  0  0  0  0  0  0  0  0  0
    3.2660    0.2900    0.0000 H   0  0  0  0  0  0  0  0  0  0  0  0
  1 53  1  0  0  0  0
  2  7  2  0  0  0  0
  2  8  2  0  0  0  0
  2 14  1  0  0  0  0
  2 29  1  0  0  0  0
  3 20  2  0  0  0  0
  4 22  2  0  0  0  0
  5 24  1  0  0  0  0
  5 32  1  0  0  0  0
  6 26  2  0  0  0  0
  9 36  1  0  0  0  0
  9 37  1  0  0  0  0
 10 36  2  0  0  0  0
 11 40  1  0  0  0  0
 17 12  1  1  0  0  0
 12 22  1  0  0  0  0
 13 21  1  0  0  0  0
 13 26  1  0  0  0  0
 13 27  1  0  0  0  0
 14 20  1  0  0  0  0
 15 28  1  0  0  0  0
 15 36  1  0  0  0  0
 16 32  2  0  0  0  0
 16 41  1  0  0  0  0
 17 18  1  0  0  0  0
 17 19  1  0  0  0  0
 17 20  1  6  0  0  0
 18 19  1  0  0  0  0
 18 23  1  6  0  0  0
 18 58  1  1  0  0  0
 21 22  1  0  0  0  0
 21 25  1  0  0  0  0
 21 59  1  1  0  0  0
 23 30  2  0  0  0  0
 24 25  1  0  0  0  0
 24 27  1  0  0  0  0
 24 60  1  6  0  0  0
 26 28  1  0  0  0  0
 28 31  1  0  0  0  0
 28 61  1  6  0  0  0
 29 33  1  0  0  0  0
 29 34  1  0  0  0  0
 31 38  1  0  0  0  0
 31 39  1  0  0  0  0
 32 35  1  0  0  0  0
 33 34  1  0  0  0  0
 35 40  2  0  0  0  0
 35 44  1  0  0  0  0
 37 43  1  0  0  0  0
 37 47  1  0  0  0  0
 37 62  1  6  0  0  0
 38 45  1  0  0  0  0
 39 46  1  0  0  0  0
 40 42  1  0  0  0  0
 41 42  2  0  0  0  0
 41 50  1  0  0  0  0
 42 49  1  0  0  0  0
 43 48  1  0  0  0  0
 43 51  1  0  0  0  0
 43 63  1  1  0  0  0
 44 54  1  0  0  0  0
 45 46  1  0  0  0  0
 47 52  1  0  0  0  0
 48 52  1  0  0  0  0
 49 53  2  0  0  0  0
 50 55  2  0  0  0  0
 51 56  1  0  0  0  0
 53 55  1  0  0  0  0
 54 57  2  0  0  0  0
 56 57  1  0  0  0  0
M  END
> <PUBCHEM_COMPOUND_ID_TYPE>
0

> <PUBCHEM_TOTAL_CHARGE>
0

> <PUBCHEM_SUBSTANCE_ID>
310929727

> <PUBCHEM_SUBSTANCE_VERSION>
1

> <PUBCHEM_EXT_DATASOURCE_NAME>
4488

> <PUBCHEM_EXT_DATASOURCE_REGID>
SCHEMBL16106925

> <PUBCHEM_SUBSTANCE_COMMENT>
InChI=1S/C41H50BrN5O9S/c1-2-25-21-41(25,39(51)46-57(53,54)28-16-17-28)45-36(49)32-20-27-22-47(32)38(50)34(24-10-6-7-11-24)44-40(52)56-33-14-8-12-23(33)9-4-3-5-13-29-35(48)30-19-26(42)15-18-31(30)43-37(29)55-27/h2-3,5,15,18-19,23-25,27-28,32-34H,1,4,6-14,16-17,20-22H2,(H,43,48)(H,44,52)(H,45,49)(H,46,51)/t23-,25-,27-,32+,33-,34+,41-/m1/s1
InChIKey=OMCUEVMYWMBQOI-CIYSONHASA-N

> <PUBCHEM_SUBSTANCE_SYNONYM>
SCHEMBL16106925

> <PUBCHEM_XREF_EXT_ID>
SCHEMBL16106925

> <PUBCHEM_EXT_DATASOURCE_URL>
https://www.surechembl.org/

> <PUBCHEM_EXT_SUBSTANCE_URL>
https://www.surechembl.org/chemical/SCHEMBL16106925

> <PUBCHEM_CID_ASSOCIATIONS>
117599022  1

> <PUBCHEM_COORDINATE_TYPE>
1
3

> <PUBCHEM_BONDANNOTATIONS>
17  12  5
17  20  6
18  23  6
18  58  5
21  59  5
24  60  6
28  61  6
37  62  6
43  63  5
57  56  3

$$$$
