310931499
  -OEChem-07211613022D

 18 19  0     0  0  0  0  0  0999 V2000
    2.4911   -1.4260    0.0000 S   0  0  0  0  0  0  0  0  0  0  0  0
    4.5012   -2.2334    0.0000 S   0  0  0  0  0  0  0  0  0  0  0  0
    1.6321    0.0000    0.0000 F   0  0  0  0  0  0  0  0  0  0  0  0
    0.0344   -2.8518    0.0000 F   0  0  0  0  0  0  0  0  0  0  0  0
    2.4911   -2.3193    0.0000 O   0  0  0  0  0  0  0  0  0  0  0  0
    2.4911   -0.6185    0.0000 O   0  0  0  0  0  0  0  0  0  0  0  0
    3.2814   -1.4260    0.0000 N   0  0  0  0  0  0  0  0  0  0  0  0
    3.3673   -2.8863    0.0000 N   0  0  0  0  0  0  0  0  0  0  0  0
    4.6901   -3.0409    0.0000 N   0  0  0  0  0  0  0  0  0  0  0  0
    1.6664   -1.4260    0.0000 C   0  0  0  0  0  0  0  0  0  0  0  0
    3.6937   -2.1303    0.0000 C   0  0  0  0  0  0  0  0  0  0  0  0
    1.2198   -0.7216    0.0000 C   0  0  0  0  0  0  0  0  0  0  0  0
    1.2198   -2.1303    0.0000 C   0  0  0  0  0  0  0  0  0  0  0  0
    0.4295   -2.1303    0.0000 C   0  0  0  0  0  0  0  0  0  0  0  0
    0.4295   -0.7216    0.0000 C   0  0  0  0  0  0  0  0  0  0  0  0
    3.9685   -3.4360    0.0000 C   0  0  0  0  0  0  0  0  0  0  0  0
    0.0000   -1.4260    0.0000 C   0  0  0  0  0  0  0  0  0  0  0  0
    2.5598   -3.0580    0.0000 C   0  0  0  0  0  0  0  0  0  0  0  0
  1  5  2  0  0  0  0
  1  6  2  0  0  0  0
  1  7  1  0  0  0  0
  1 10  1  0  0  0  0
  2  9  1  0  0  0  0
  2 11  1  0  0  0  0
  3 12  1  0  0  0  0
  4 14  1  0  0  0  0
  7 11  2  0  0  0  0
  8 11  1  0  0  0  0
  8 16  1  0  0  0  0
  8 18  1  0  0  0  0
  9 16  2  0  0  0  0
 10 12  1  0  0  0  0
 10 13  2  0  0  0  0
 12 15  2  0  0  0  0
 13 14  1  0  0  0  0
 14 17  2  0  0  0  0
 15 17  1  0  0  0  0
M  END
> <PUBCHEM_COMPOUND_ID_TYPE>
0

> <PUBCHEM_TOTAL_CHARGE>
0

> <PUBCHEM_SUBSTANCE_ID>
310931499

> <PUBCHEM_SUBSTANCE_VERSION>
1

> <PUBCHEM_EXT_DATASOURCE_NAME>
4488

> <PUBCHEM_EXT_DATASOURCE_REGID>
SCHEMBL16108824

> <PUBCHEM_SUBSTANCE_COMMENT>
InChI=1S/C9H7F2N3O2S2/c1-14-5-12-17-9(14)13-18(15,16)8-4-6(10)2-3-7(8)11/h2-5H,1H3/b13-9+
InChIKey=COCRIOANJMKSAU-UKTHLTGXSA-N

> <PUBCHEM_SUBSTANCE_SYNONYM>
SCHEMBL16108824

> <PUBCHEM_XREF_EXT_ID>
SCHEMBL16108824

> <PUBCHEM_EXT_DATASOURCE_URL>
https://www.surechembl.org/

> <PUBCHEM_EXT_SUBSTANCE_URL>
https://www.surechembl.org/chemical/SCHEMBL16108824

> <PUBCHEM_CID_ASSOCIATIONS>
117600261  1

> <PUBCHEM_COORDINATE_TYPE>
1
3

$$$$
