310944176
  -OEChem-07211613022D

 32 36  0     1  0  0  0  0  0999 V2000
    2.4163    0.4267    0.0000 O   0  0  0  0  0  0  0  0  0  0  0  0
    5.0209   -1.1139    0.0000 O   0  0  0  0  0  0  0  0  0  0  0  0
    5.5086    0.2827    0.0000 O   0  0  0  0  0  0  0  0  0  0  0  0
   -1.3079   -0.7482    0.0000 O   0  0  0  0  0  0  0  0  0  0  0  0
    2.8818   -0.9920    0.0000 N   0  0  0  0  0  0  0  0  0  0  0  0
    0.1330    0.0942    0.0000 N   0  0  0  0  0  0  0  0  0  0  0  0
   -4.2008    0.0942    0.0000 N   0  0  0  0  0  0  0  0  0  0  0  0
   -2.7488    1.7567    0.0000 N   0  0  0  0  0  0  0  0  0  0  0  0
   -4.9544    0.4267    0.0000 N   0  0  0  0  0  0  0  0  0  0  0  0
   -5.5086   -0.1829    0.0000 N   0  0  0  0  0  0  0  0  0  0  0  0
   -5.0985   -0.9144    0.0000 N   0  0  0  0  0  0  0  0  0  0  0  0
    1.5517   -0.7260    0.0000 C   0  0  0  0  0  0  0  0  0  0  0  0
    2.2611   -0.4156    0.0000 C   0  0  0  0  0  0  0  0  0  0  0  0
    3.6909   -0.8811    0.0000 C   0  0  0  0  0  0  0  0  0  0  0  0
    1.6183   -1.5462    0.0000 C   0  0  0  0  0  0  0  0  0  0  0  0
    2.4273   -1.7567    0.0000 C   0  0  0  0  0  0  0  0  0  0  0  0
    0.8424   -1.1472    0.0000 C   0  0  0  0  0  0  0  0  0  0  0  0
    1.5517    0.0942    0.0000 C   0  0  0  0  0  0  0  0  0  0  0  0
    4.1121   -0.1496    0.0000 C   0  0  0  0  0  0  0  0  0  0  0  0
    4.3005   -1.4686    0.0000 C   0  0  0  0  0  0  0  0  0  0  0  0
    4.9101   -0.3159    0.0000 C   0  0  0  0  0  0  0  0  0  0  0  0
    0.1220   -0.7260    0.0000 C   0  0  0  0  0  0  0  0  0  0  0  0
    0.8313    0.4932    0.0000 C   0  0  0  0  0  0  0  0  0  0  0  0
   -0.5875    0.5154    0.0000 C   0  0  0  0  0  0  0  0  0  0  0  0
   -1.2968    0.1053    0.0000 C   0  0  3  0  0  0  0  0  0  0  0  0
   -2.0394    0.5265    0.0000 C   0  0  0  0  0  0  0  0  0  0  0  0
    3.7463    0.6041    0.0000 C   0  0  0  0  0  0  0  0  0  0  0  0
   -3.4803    0.5154    0.0000 C   0  0  0  0  0  0  0  0  0  0  0  0
   -2.7488    0.1053    0.0000 C   0  0  0  0  0  0  0  0  0  0  0  0
   -2.0283    1.3467    0.0000 C   0  0  0  0  0  0  0  0  0  0  0  0
   -3.4692    1.3577    0.0000 C   0  0  0  0  0  0  0  0  0  0  0  0
   -4.2784   -0.7260    0.0000 C   0  0  0  0  0  0  0  0  0  0  0  0
  1 13  2  0  0  0  0
  2 20  1  0  0  0  0
  2 21  1  0  0  0  0
  3 21  2  0  0  0  0
 25  4  1  6  0  0  0
  5 13  1  0  0  0  0
  5 14  1  0  0  0  0
  5 16  1  0  0  0  0
  6 22  1  0  0  0  0
  6 23  1  0  0  0  0
  6 24  1  0  0  0  0
  7  9  1  0  0  0  0
  7 28  1  0  0  0  0
  7 32  1  0  0  0  0
  8 30  2  0  0  0  0
  8 31  1  0  0  0  0
  9 10  2  0  0  0  0
 10 11  1  0  0  0  0
 11 32  2  0  0  0  0
 12 13  1  0  0  0  0
 12 15  1  0  0  0  0
 12 17  1  0  0  0  0
 12 18  1  0  0  0  0
 14 19  2  0  0  0  0
 14 20  1  0  0  0  0
 15 16  1  0  0  0  0
 17 22  1  0  0  0  0
 18 23  1  0  0  0  0
 19 21  1  0  0  0  0
 19 27  1  0  0  0  0
 24 25  1  0  0  0  0
 25 26  1  0  0  0  0
 26 29  2  0  0  0  0
 26 30  1  0  0  0  0
 28 29  1  0  0  0  0
 28 31  2  0  0  0  0
M  END
> <PUBCHEM_COMPOUND_ID_TYPE>
0

> <PUBCHEM_TOTAL_CHARGE>
0

> <PUBCHEM_SUBSTANCE_ID>
310944176

> <PUBCHEM_SUBSTANCE_VERSION>
1

> <PUBCHEM_EXT_DATASOURCE_NAME>
4488

> <PUBCHEM_EXT_DATASOURCE_REGID>
SCHEMBL16122251

> <PUBCHEM_SUBSTANCE_COMMENT>
InChI=1S/C21H25N7O4/c1-14-17(12-32-19(14)30)27-7-4-21(20(27)31)2-5-26(6-3-21)11-18(29)15-8-16(10-22-9-15)28-13-23-24-25-28/h8-10,13,18,29H,2-7,11-12H2,1H3/t18-/m0/s1
InChIKey=UXDGHDLLGVZWJF-SFHVURJKSA-N

> <PUBCHEM_SUBSTANCE_SYNONYM>
SCHEMBL16122251

> <PUBCHEM_XREF_EXT_ID>
SCHEMBL16122251

> <PUBCHEM_EXT_DATASOURCE_URL>
https://www.surechembl.org/

> <PUBCHEM_EXT_SUBSTANCE_URL>
https://www.surechembl.org/chemical/SCHEMBL16122251

> <PUBCHEM_CID_ASSOCIATIONS>
117610451  1

> <PUBCHEM_COORDINATE_TYPE>
1
3

> <PUBCHEM_BONDANNOTATIONS>
25  4  6

$$$$
