310943479
  -OEChem-07211613022D

 35 38  0     0  0  0  0  0  0999 V2000
    5.3357    1.0379    0.0000 F   0  0  0  0  0  0  0  0  0  0  0  0
    5.3357    0.2046    0.0000 F   0  0  0  0  0  0  0  0  0  0  0  0
   -2.4851   -1.8711    0.0000 O   0  0  0  0  0  0  0  0  0  0  0  0
    1.7689    1.4472    0.0000 O   0  0  0  0  0  0  0  0  0  0  0  0
   -5.3357    1.4472    0.0000 O   0  0  0  0  0  0  0  0  0  0  0  0
   -3.2014   -0.6286    0.0000 N   0  0  0  0  0  0  0  0  0  0  0  0
   -3.9177    0.6286    0.0000 N   0  0  0  0  0  0  0  0  0  0  0  0
    1.0672    0.2046    0.0000 N   0  0  0  0  0  0  0  0  0  0  0  0
    3.9031   -0.6286    0.0000 N   0  0  0  0  0  0  0  0  0  0  0  0
   -1.7689    0.2046    0.0000 C   0  0  0  0  0  0  0  0  0  0  0  0
   -3.2014    0.2193    0.0000 C   0  0  0  0  0  0  0  0  0  0  0  0
   -1.0818    0.6286    0.0000 C   0  0  0  0  0  0  0  0  0  0  0  0
   -2.5144    0.6139    0.0000 C   0  0  0  0  0  0  0  0  0  0  0  0
   -2.4851   -1.0086    0.0000 C   0  0  0  0  0  0  0  0  0  0  0  0
   -1.7835   -0.6286    0.0000 C   0  0  0  0  0  0  0  0  0  0  0  0
   -1.0672    1.4618    0.0000 C   0  0  0  0  0  0  0  0  0  0  0  0
   -0.3801    0.2193    0.0000 C   0  0  0  0  0  0  0  0  0  0  0  0
    0.3508    0.6432    0.0000 C   0  0  0  0  0  0  0  0  0  0  0  0
    3.9177    0.2193    0.0000 C   0  0  0  0  0  0  0  0  0  0  0  0
    2.4851    0.2193    0.0000 C   0  0  0  0  0  0  0  0  0  0  0  0
    4.6194    0.6432    0.0000 C   0  0  0  0  0  0  0  0  0  0  0  0
    1.7689    0.5993    0.0000 C   0  0  0  0  0  0  0  0  0  0  0  0
   -0.3655    1.8565    0.0000 C   0  0  0  0  0  0  0  0  0  0  0  0
    3.2014    0.6286    0.0000 C   0  0  0  0  0  0  0  0  0  0  0  0
    0.3508    1.4472    0.0000 C   0  0  0  0  0  0  0  0  0  0  0  0
   -3.9177    1.4472    0.0000 C   0  0  0  0  0  0  0  0  0  0  0  0
   -4.6340    0.2046    0.0000 C   0  0  0  0  0  0  0  0  0  0  0  0
    2.4851   -0.6139    0.0000 C   0  0  0  0  0  0  0  0  0  0  0  0
   -3.9031   -1.0672    0.0000 C   0  0  0  0  0  0  0  0  0  0  0  0
    3.2014   -1.0379    0.0000 C   0  0  0  0  0  0  0  0  0  0  0  0
   -1.7835    1.8711    0.0000 C   0  0  0  0  0  0  0  0  0  0  0  0
    4.6194    1.4472    0.0000 C   0  0  0  0  0  0  0  0  0  0  0  0
   -4.6194    1.8711    0.0000 C   0  0  0  0  0  0  0  0  0  0  0  0
   -5.3357    0.6286    0.0000 C   0  0  0  0  0  0  0  0  0  0  0  0
    3.8885    1.8565    0.0000 C   0  0  0  0  0  0  0  0  0  0  0  0
  1 21  1  0  0  0  0
  2 21  1  0  0  0  0
  3 14  2  0  0  0  0
  4 22  2  0  0  0  0
  5 33  1  0  0  0  0
  5 34  1  0  0  0  0
  6 11  1  0  0  0  0
  6 14  1  0  0  0  0
  6 29  1  0  0  0  0
  7 11  1  0  0  0  0
  7 26  1  0  0  0  0
  7 27  1  0  0  0  0
  8 18  1  0  0  0  0
  8 22  1  0  0  0  0
  9 19  1  0  0  0  0
  9 30  2  0  0  0  0
 10 12  1  0  0  0  0
 10 13  1  0  0  0  0
 10 15  2  0  0  0  0
 11 13  2  0  0  0  0
 12 16  2  0  0  0  0
 12 17  1  0  0  0  0
 14 15  1  0  0  0  0
 16 23  1  0  0  0  0
 16 31  1  0  0  0  0
 17 18  2  0  0  0  0
 18 25  1  0  0  0  0
 19 21  1  0  0  0  0
 19 24  2  0  0  0  0
 20 22  1  0  0  0  0
 20 24  1  0  0  0  0
 20 28  2  0  0  0  0
 21 32  1  0  0  0  0
 23 25  2  0  0  0  0
 26 33  1  0  0  0  0
 27 34  1  0  0  0  0
 28 30  1  0  0  0  0
 32 35  1  0  0  0  0
M  END
> <PUBCHEM_COMPOUND_ID_TYPE>
0

> <PUBCHEM_TOTAL_CHARGE>
0

> <PUBCHEM_SUBSTANCE_ID>
310943479

> <PUBCHEM_SUBSTANCE_VERSION>
1

> <PUBCHEM_EXT_DATASOURCE_NAME>
4488

> <PUBCHEM_EXT_DATASOURCE_REGID>
SCHEMBL16121544

> <PUBCHEM_SUBSTANCE_COMMENT>
InChI=1S/C26H28F2N4O3/c1-4-26(27,28)22-13-18(7-8-29-22)25(34)30-20-6-5-17(2)21(16-20)19-14-23(31(3)24(33)15-19)32-9-11-35-12-10-32/h5-8,13-16H,4,9-12H2,1-3H3,(H,30,34)
InChIKey=OZOPEVNRONREIV-UHFFFAOYSA-N

> <PUBCHEM_SUBSTANCE_SYNONYM>
SCHEMBL16121544

> <PUBCHEM_XREF_EXT_ID>
SCHEMBL16121544

> <PUBCHEM_EXT_DATASOURCE_URL>
https://www.surechembl.org/

> <PUBCHEM_EXT_SUBSTANCE_URL>
https://www.surechembl.org/chemical/SCHEMBL16121544

> <PUBCHEM_CID_ASSOCIATIONS>
117609901  1

> <PUBCHEM_COORDINATE_TYPE>
1
3

$$$$
