310941974
  -OEChem-07211613022D

 17 19  0     0  0  0  0  0  0999 V2000
   -2.9805   -0.8223    0.0000 F   0  0  0  0  0  0  0  0  0  0  0  0
    2.9805    0.6313    0.0000 O   0  0  0  0  0  0  0  0  0  0  0  0
   -0.1322   -1.6004    0.0000 N   0  0  0  0  0  0  0  0  0  0  0  0
    0.2643   -0.2790    0.0000 C   0  0  0  0  0  0  0  0  0  0  0  0
   -0.5726   -0.2790    0.0000 C   0  0  0  0  0  0  0  0  0  0  0  0
    0.5286   -1.0571    0.0000 C   0  0  0  0  0  0  0  0  0  0  0  0
   -0.8223   -1.0718    0.0000 C   0  0  0  0  0  0  0  0  0  0  0  0
    0.8075    0.3230    0.0000 C   0  0  0  0  0  0  0  0  0  0  0  0
    1.6151    0.1615    0.0000 C   0  0  0  0  0  0  0  0  0  0  0  0
   -1.1159    0.3230    0.0000 C   0  0  0  0  0  0  0  0  0  0  0  0
   -1.6297   -1.2480    0.0000 C   0  0  0  0  0  0  0  0  0  0  0  0
    1.3361   -1.2480    0.0000 C   0  0  0  0  0  0  0  0  0  0  0  0
   -2.1730   -0.6313    0.0000 C   0  0  0  0  0  0  0  0  0  0  0  0
    1.8647   -0.6460    0.0000 C   0  0  0  0  0  0  0  0  0  0  0  0
   -1.9087    0.1615    0.0000 C   0  0  0  0  0  0  0  0  0  0  0  0
    2.1436    0.8223    0.0000 C   0  0  0  0  0  0  0  0  0  0  0  0
    1.8940    1.6004    0.0000 C   0  0  0  0  0  0  0  0  0  0  0  0
  1 13  1  0  0  0  0
  2 16  2  0  0  0  0
  3  6  1  0  0  0  0
  3  7  1  0  0  0  0
  4  5  1  0  0  0  0
  4  6  2  0  0  0  0
  4  8  1  0  0  0  0
  5  7  1  0  0  0  0
  5 10  2  0  0  0  0
  6 12  1  0  0  0  0
  7 11  2  0  0  0  0
  8  9  2  0  0  0  0
  9 14  1  0  0  0  0
  9 16  1  0  0  0  0
 10 15  1  0  0  0  0
 11 13  1  0  0  0  0
 12 14  2  0  0  0  0
 13 15  2  0  0  0  0
 16 17  1  0  0  0  0
M  END
> <PUBCHEM_COMPOUND_ID_TYPE>
0

> <PUBCHEM_TOTAL_CHARGE>
0

> <PUBCHEM_SUBSTANCE_ID>
310941974

> <PUBCHEM_SUBSTANCE_VERSION>
1

> <PUBCHEM_EXT_DATASOURCE_NAME>
4488

> <PUBCHEM_EXT_DATASOURCE_REGID>
SCHEMBL16120008

> <PUBCHEM_SUBSTANCE_COMMENT>
InChI=1S/C14H10FNO/c1-8(17)9-2-5-13-12(6-9)11-4-3-10(15)7-14(11)16-13/h2-7,16H,1H3
InChIKey=UKFIPUWHDKAJDO-UHFFFAOYSA-N

> <PUBCHEM_SUBSTANCE_SYNONYM>
SCHEMBL16120008

> <PUBCHEM_XREF_EXT_ID>
SCHEMBL16120008

> <PUBCHEM_EXT_DATASOURCE_URL>
https://www.surechembl.org/

> <PUBCHEM_EXT_SUBSTANCE_URL>
https://www.surechembl.org/chemical/SCHEMBL16120008

> <PUBCHEM_CID_ASSOCIATIONS>
117608680  1

> <PUBCHEM_COORDINATE_TYPE>
1
3

$$$$
