310938514
  -OEChem-07211613022D

 33 35  0     1  0  0  0  0  0999 V2000
    1.9240   -1.9514    0.0000 O   0  0  0  0  0  0  0  0  0  0  0  0
    3.9578   -4.7274    0.0000 O   0  0  0  0  0  0  0  0  0  0  0  0
    3.9578   -3.2982    0.0000 O   0  0  0  0  0  0  0  0  0  0  0  0
    5.2222   -3.4356    0.0000 O   0  0  0  0  0  0  0  0  0  0  0  0
    7.0912   -2.3637    0.0000 O   0  0  0  0  0  0  0  0  0  0  0  0
    6.0192   -3.2982    0.0000 O   0  0  0  0  0  0  0  0  0  0  0  0
    2.2263   -3.3257    0.0000 N   0  0  0  0  0  0  0  0  0  0  0  0
    3.8479   -2.9959    0.0000 N   0  0  0  0  0  0  0  0  0  0  0  0
    5.7444   -1.8690    0.0000 N   0  0  0  0  0  0  0  0  0  0  0  0
    1.4292   -3.5731    0.0000 C   0  0  0  0  0  0  0  0  0  0  0  0
    2.7210   -4.0128    0.0000 C   0  0  3  0  0  0  0  0  0  0  0  0
    1.4292   -4.4251    0.0000 C   0  0  0  0  0  0  0  0  0  0  0  0
    2.2263   -4.6724    0.0000 C   0  0  0  0  0  0  0  0  0  0  0  0
    2.4736   -2.5561    0.0000 C   0  0  0  0  0  0  0  0  0  0  0  0
    3.5455   -4.0128    0.0000 C   0  0  0  0  0  0  0  0  0  0  0  0
    0.7146   -3.1608    0.0000 C   0  0  0  0  0  0  0  0  0  0  0  0
    0.7146   -4.8373    0.0000 C   0  0  0  0  0  0  0  0  0  0  0  0
    3.2982   -2.3637    0.0000 C   0  0  0  0  0  0  0  0  0  0  0  0
    0.0000   -3.5731    0.0000 C   0  0  0  0  0  0  0  0  0  0  0  0
    4.9198   -2.0339    0.0000 C   0  0  3  0  0  0  0  0  0  0  0  0
    0.0000   -4.4251    0.0000 C   0  0  0  0  0  0  0  0  0  0  0  0
    4.6450   -2.8309    0.0000 C   0  0  0  0  0  0  0  0  0  0  0  0
    4.3701   -1.4017    0.0000 C   0  0  0  0  0  0  0  0  0  0  0  0
    6.2941   -2.5012    0.0000 C   0  0  0  0  0  0  0  0  0  0  0  0
    3.5455   -1.5667    0.0000 C   0  0  0  0  0  0  0  0  0  0  0  0
    4.6450   -0.6322    0.0000 C   0  0  0  0  0  0  0  0  0  0  0  0
    7.6408   -2.9684    0.0000 C   0  0  0  0  0  0  0  0  0  0  0  0
    3.0233   -0.9345    0.0000 C   0  0  0  0  0  0  0  0  0  0  0  0
    4.0953    0.0000    0.0000 C   0  0  0  0  0  0  0  0  0  0  0  0
    3.2982   -0.1649    0.0000 C   0  0  0  0  0  0  0  0  0  0  0  0
    8.1905   -3.6005    0.0000 C   0  0  0  0  0  0  0  0  0  0  0  0
    7.0087   -3.5181    0.0000 C   0  0  0  0  0  0  0  0  0  0  0  0
    8.2455   -2.4187    0.0000 C   0  0  0  0  0  0  0  0  0  0  0  0
  1 14  2  0  0  0  0
  2 15  2  0  0  0  0
  3 15  1  0  0  0  0
  4 22  2  0  0  0  0
  5 24  1  0  0  0  0
  5 27  1  0  0  0  0
  6 24  2  0  0  0  0
  7 10  1  0  0  0  0
  7 11  1  0  0  0  0
  7 14  1  0  0  0  0
  8 18  1  0  0  0  0
  8 22  1  0  0  0  0
 20  9  1  6  0  0  0
  9 24  1  0  0  0  0
 10 12  2  0  0  0  0
 10 16  1  0  0  0  0
 11 13  1  0  0  0  0
 11 15  1  0  0  0  0
 12 13  1  0  0  0  0
 12 17  1  0  0  0  0
 14 18  1  0  0  0  0
 16 19  2  0  0  0  0
 17 21  2  0  0  0  0
 19 21  1  0  0  0  0
 20 22  1  0  0  0  0
 20 23  1  0  0  0  0
 23 25  2  0  0  0  0
 23 26  1  0  0  0  0
 25 28  1  0  0  0  0
 26 29  2  0  0  0  0
 27 31  1  0  0  0  0
 27 32  1  0  0  0  0
 27 33  1  0  0  0  0
 28 30  2  0  0  0  0
 29 30  1  0  0  0  0
M  END
> <PUBCHEM_COMPOUND_ID_TYPE>
0

> <PUBCHEM_TOTAL_CHARGE>
0

> <PUBCHEM_SUBSTANCE_ID>
310938514

> <PUBCHEM_SUBSTANCE_VERSION>
1

> <PUBCHEM_EXT_DATASOURCE_NAME>
4488

> <PUBCHEM_EXT_DATASOURCE_REGID>
SCHEMBL16116421

> <PUBCHEM_SUBSTANCE_COMMENT>
InChI=1S/C24H27N3O6/c1-24(2,3)33-23(32)26-20(15-9-5-4-6-10-15)21(29)25-14-19(28)27-17-12-8-7-11-16(17)13-18(27)22(30)31/h4-12,18,20H,13-14H2,1-3H3,(H,25,29)(H,26,32)(H,30,31)/t18?,20-/m0/s1
InChIKey=XRHQUAHVUPBAQK-IJHRGXPZSA-N

> <PUBCHEM_SUBSTANCE_SYNONYM>
SCHEMBL16116421

> <PUBCHEM_XREF_EXT_ID>
SCHEMBL16116421

> <PUBCHEM_EXT_DATASOURCE_URL>
https://www.surechembl.org/

> <PUBCHEM_EXT_SUBSTANCE_URL>
https://www.surechembl.org/chemical/SCHEMBL16116421

> <PUBCHEM_CID_ASSOCIATIONS>
117605968  1

> <PUBCHEM_COORDINATE_TYPE>
1
3

> <PUBCHEM_BONDANNOTATIONS>
20  9  6

$$$$
