310948402
  -OEChem-07211613022D

 35 38  0     1  0  0  0  0  0999 V2000
   -1.5772   -2.6379    0.0000 S   0  0  3  0  0  0  0  0  0  0  0  0
    0.8024   -1.6049    0.0000 F   0  0  0  0  0  0  0  0  0  0  0  0
    1.4112   -2.5457    0.0000 F   0  0  0  0  0  0  0  0  0  0  0  0
    0.4520   -3.1545    0.0000 F   0  0  0  0  0  0  0  0  0  0  0  0
   -2.2413    2.3981    0.0000 O   0  0  0  0  0  0  0  0  0  0  0  0
   -1.8171   -1.8447    0.0000 O   0  0  0  0  0  0  0  0  0  0  0  0
    0.5073    2.2321    0.0000 N   0  0  0  0  0  0  0  0  0  0  0  0
    0.1568    1.4942    0.0000 N   0  0  0  0  0  0  0  0  0  0  0  0
   -1.2083    0.9593    0.0000 N   0  0  0  0  0  0  0  0  0  0  0  0
   -1.5219    3.6341    0.0000 N   0  0  0  0  0  0  0  0  0  0  0  0
   -0.7471   -2.8040    0.0000 N   0  0  0  0  0  0  0  0  0  0  0  0
   -0.8024    2.3981    0.0000 C   0  0  0  0  0  0  0  0  0  0  0  0
   -0.1384    2.8040    0.0000 C   0  0  0  0  0  0  0  0  0  0  0  0
   -0.6548    1.6049    0.0000 C   0  0  0  0  0  0  0  0  0  0  0  0
   -1.5404    2.8225    0.0000 C   0  0  0  0  0  0  0  0  0  0  0  0
    1.3190    2.4166    0.0000 C   0  0  0  0  0  0  0  0  0  0  0  0
   -0.1014    3.6341    0.0000 C   0  0  0  0  0  0  0  0  0  0  0  0
   -0.9685    0.2029    0.0000 C   0  0  0  0  0  0  0  0  0  0  0  0
   -0.1937   -2.1768    0.0000 C   0  0  3  0  0  0  0  0  0  0  0  0
   -0.4520   -1.3835    0.0000 C   0  0  0  0  0  0  0  0  0  0  0  0
   -0.8394    4.0399    0.0000 C   0  0  0  0  0  0  0  0  0  0  0  0
    0.6180   -2.3797    0.0000 C   0  0  0  0  0  0  0  0  0  0  0  0
    1.8908    1.7894    0.0000 C   0  0  0  0  0  0  0  0  0  0  0  0
    1.5957    3.1913    0.0000 C   0  0  0  0  0  0  0  0  0  0  0  0
   -1.4850   -0.4058    0.0000 C   0  0  0  0  0  0  0  0  0  0  0  0
   -0.1568    0.0000    0.0000 C   0  0  0  0  0  0  0  0  0  0  0  0
   -1.2452   -1.2175    0.0000 C   0  0  0  0  0  0  0  0  0  0  0  0
    0.1014   -0.7933    0.0000 C   0  0  0  0  0  0  0  0  0  0  0  0
   -2.1491   -3.2283    0.0000 C   0  0  0  0  0  0  0  0  0  0  0  0
    2.4074    3.3389    0.0000 C   0  0  0  0  0  0  0  0  0  0  0  0
    2.6656    1.9554    0.0000 C   0  0  0  0  0  0  0  0  0  0  0  0
    2.9423    2.7302    0.0000 C   0  0  0  0  0  0  0  0  0  0  0  0
   -2.9423   -3.0807    0.0000 C   0  0  0  0  0  0  0  0  0  0  0  0
   -1.8539   -4.0399    0.0000 C   0  0  0  0  0  0  0  0  0  0  0  0
   -2.5734   -2.5088    0.0000 C   0  0  0  0  0  0  0  0  0  0  0  0
  1  6  2  0  0  0  0
  1 11  1  6  0  0  0
  1 29  1  0  0  0  0
  2 22  1  0  0  0  0
  3 22  1  0  0  0  0
  4 22  1  0  0  0  0
  5 15  2  0  0  0  0
  7  8  1  0  0  0  0
  7 13  1  0  0  0  0
  7 16  1  0  0  0  0
  8 14  2  0  0  0  0
  9 14  1  0  0  0  0
  9 18  1  0  0  0  0
 10 15  1  0  0  0  0
 10 21  1  0  0  0  0
 19 11  1  6  0  0  0
 12 13  2  0  0  0  0
 12 14  1  0  0  0  0
 12 15  1  0  0  0  0
 13 17  1  0  0  0  0
 16 23  1  0  0  0  0
 16 24  1  0  0  0  0
 17 21  2  0  0  0  0
 18 25  2  0  0  0  0
 18 26  1  0  0  0  0
 19 20  1  0  0  0  0
 19 22  1  0  0  0  0
 20 27  2  0  0  0  0
 20 28  1  0  0  0  0
 23 31  1  0  0  0  0
 24 30  1  0  0  0  0
 25 27  1  0  0  0  0
 26 28  2  0  0  0  0
 29 33  1  0  0  0  0
 29 34  1  0  0  0  0
 29 35  1  0  0  0  0
 30 32  1  0  0  0  0
 31 32  1  0  0  0  0
M  END
> <PUBCHEM_COMPOUND_ID_TYPE>
0

> <PUBCHEM_TOTAL_CHARGE>
0

> <PUBCHEM_SUBSTANCE_ID>
310948402

> <PUBCHEM_SUBSTANCE_VERSION>
1

> <PUBCHEM_EXT_DATASOURCE_NAME>
4488

> <PUBCHEM_EXT_DATASOURCE_REGID>
SCHEMBL16126583

> <PUBCHEM_SUBSTANCE_COMMENT>
InChI=1S/C24H30F3N5O2S/c1-23(2,3)35(34)31-20(24(25,26)27)15-9-11-16(12-10-15)29-21-19-18(13-14-28-22(19)33)32(30-21)17-7-5-4-6-8-17/h9-14,17,20,31H,4-8H2,1-3H3,(H,28,33)(H,29,30)/t20-,35+/m1/s1
InChIKey=JKPOBTULKYXYFQ-GOKJBEJGSA-N

> <PUBCHEM_SUBSTANCE_SYNONYM>
SCHEMBL16126583

> <PUBCHEM_XREF_EXT_ID>
SCHEMBL16126583

> <PUBCHEM_EXT_DATASOURCE_URL>
https://www.surechembl.org/

> <PUBCHEM_EXT_SUBSTANCE_URL>
https://www.surechembl.org/chemical/SCHEMBL16126583

> <PUBCHEM_CID_ASSOCIATIONS>
117613963  1

> <PUBCHEM_COORDINATE_TYPE>
1
3

> <PUBCHEM_BONDANNOTATIONS>
1  11  6
19  11  6

$$$$
