310933727
  -OEChem-07211613022D

 43 48  0     1  0  0  0  0  0999 V2000
    1.8173   -0.6923    0.0000 Cl  0  0  0  0  0  0  0  0  0  0  0  0
    2.4519   -2.1923    0.0000 F   0  0  0  0  0  0  0  0  0  0  0  0
    3.0576   -5.7691    0.0000 O   0  0  0  0  0  0  0  0  0  0  0  0
    2.3654   -3.6923    0.0000 O   0  0  0  0  0  0  0  0  0  0  0  0
    8.0480   -4.5865    0.0000 O   0  0  0  0  0  0  0  0  0  0  0  0
    5.9422    0.0000    0.0000 O   0  0  0  0  0  0  0  0  0  0  0  0
    6.6633   -1.2404    0.0000 O   0  0  0  0  0  0  0  0  0  0  0  0
    3.7788   -4.5288    0.0000 N   0  0  0  0  0  0  0  0  0  0  0  0
    6.6057   -3.7499    0.0000 N   0  0  0  0  0  0  0  0  0  0  0  0
    1.4711   -3.5192    0.0000 N   0  0  0  0  0  0  0  0  0  0  0  0
    1.6154   -4.8749    0.0000 N   0  0  0  0  0  0  0  0  0  0  0  0
    3.0865   -2.4807    0.0000 N   0  0  0  0  0  0  0  0  0  0  0  0
    3.8076   -3.6923    0.0000 C   0  0  3  0  0  0  0  0  0  0  0  0
    4.4999   -3.2884    0.0000 C   0  0  0  0  0  0  0  0  0  0  0  0
    5.2211   -3.7211    0.0000 C   0  0  0  0  0  0  0  0  0  0  0  0
    3.0865   -4.9326    0.0000 C   0  0  0  0  0  0  0  0  0  0  0  0
    5.9134   -3.3172    0.0000 C   0  0  0  0  0  0  0  0  0  0  0  0
    3.0865   -3.2884    0.0000 C   0  0  0  0  0  0  0  0  0  0  0  0
    2.3654   -4.5288    0.0000 C   0  0  0  0  0  0  0  0  0  0  0  0
    4.4999   -4.9326    0.0000 C   0  0  0  0  0  0  0  0  0  0  0  0
    5.2211   -4.5288    0.0000 C   0  0  0  0  0  0  0  0  0  0  0  0
    4.6730   -2.6538    0.0000 C   0  0  0  0  0  0  0  0  0  0  0  0
    5.9134   -2.4807    0.0000 C   0  0  0  0  0  0  0  0  0  0  0  0
    2.4519   -3.8653    0.0000 C   0  0  0  0  0  0  0  0  0  0  0  0
    1.1538   -2.7692    0.0000 C   0  0  0  0  0  0  0  0  0  0  0  0
    5.3941   -2.2211    0.0000 C   0  0  0  0  0  0  0  0  0  0  0  0
    1.0673   -4.2403    0.0000 C   0  0  0  0  0  0  0  0  0  0  0  0
    1.6442   -2.1057    0.0000 C   0  0  0  0  0  0  0  0  0  0  0  0
    3.8076   -2.0481    0.0000 C   0  0  0  0  0  0  0  0  0  0  0  0
    7.3557   -3.3172    0.0000 C   0  0  0  0  0  0  0  0  0  0  0  0
    6.6057   -4.5576    0.0000 C   0  0  0  0  0  0  0  0  0  0  0  0
    0.3173   -2.6827    0.0000 C   0  0  0  0  0  0  0  0  0  0  0  0
    1.3269   -1.3558    0.0000 C   0  0  0  0  0  0  0  0  0  0  0  0
    0.0000   -1.9327    0.0000 C   0  0  0  0  0  0  0  0  0  0  0  0
    0.4904   -1.2692    0.0000 C   0  0  0  0  0  0  0  0  0  0  0  0
    3.8076   -1.2404    0.0000 C   0  0  0  0  0  0  0  0  0  0  0  0
    4.5288   -2.4807    0.0000 C   0  0  0  0  0  0  0  0  0  0  0  0
    8.0480   -3.7499    0.0000 C   0  0  0  0  0  0  0  0  0  0  0  0
    7.2980   -4.9615    0.0000 C   0  0  0  0  0  0  0  0  0  0  0  0
    5.2211   -1.2404    0.0000 C   0  0  0  0  0  0  0  0  0  0  0  0
    4.5288   -0.8365    0.0000 C   0  0  0  0  0  0  0  0  0  0  0  0
    5.2211   -2.0481    0.0000 C   0  0  0  0  0  0  0  0  0  0  0  0
    5.9422   -0.8365    0.0000 C   0  0  0  0  0  0  0  0  0  0  0  0
  1 33  1  0  0  0  0
  2 28  1  0  0  0  0
  3 16  2  0  0  0  0
  4 18  2  0  0  0  0
  5 38  1  0  0  0  0
  5 39  1  0  0  0  0
  6 43  2  0  0  0  0
  7 43  1  0  0  0  0
  8 13  1  0  0  0  0
  8 16  1  0  0  0  0
  8 20  1  0  0  0  0
  9 17  1  0  0  0  0
  9 30  1  0  0  0  0
  9 31  1  0  0  0  0
 10 24  1  0  0  0  0
 10 25  1  0  0  0  0
 10 27  1  0  0  0  0
 11 19  1  0  0  0  0
 11 27  2  0  0  0  0
 12 18  1  0  0  0  0
 12 29  1  0  0  0  0
 13 14  1  0  0  0  0
 13 18  1  6  0  0  0
 14 15  2  0  0  0  0
 14 22  1  0  0  0  0
 15 17  1  0  0  0  0
 15 21  1  0  0  0  0
 16 19  1  0  0  0  0
 17 23  2  0  0  0  0
 19 24  2  0  0  0  0
 20 21  1  0  0  0  0
 22 26  2  0  0  0  0
 23 26  1  0  0  0  0
 25 28  1  0  0  0  0
 25 32  2  0  0  0  0
 28 33  2  0  0  0  0
 29 36  2  0  0  0  0
 29 37  1  0  0  0  0
 30 38  1  0  0  0  0
 31 39  1  0  0  0  0
 32 34  1  0  0  0  0
 33 35  1  0  0  0  0
 34 35  2  0  0  0  0
 36 41  1  0  0  0  0
 37 42  2  0  0  0  0
 40 41  2  0  0  0  0
 40 42  1  0  0  0  0
 40 43  1  0  0  0  0
M  END
> <PUBCHEM_COMPOUND_ID_TYPE>
0

> <PUBCHEM_TOTAL_CHARGE>
0

> <PUBCHEM_SUBSTANCE_ID>
310933727

> <PUBCHEM_SUBSTANCE_VERSION>
1

> <PUBCHEM_EXT_DATASOURCE_NAME>
4488

> <PUBCHEM_EXT_DATASOURCE_REGID>
SCHEMBL16111162

> <PUBCHEM_SUBSTANCE_COMMENT>
InChI=1S/C31H27ClFN5O5/c32-23-4-2-6-26(27(23)33)37-17-24(34-18-37)30(40)38-12-11-21-22(3-1-5-25(21)36-13-15-43-16-14-36)28(38)29(39)35-20-9-7-19(8-10-20)31(41)42/h1-10,17-18,28H,11-16H2,(H,35,39)(H,41,42)/t28-/m0/s1
InChIKey=DVLBZAYUFSXDAP-NDEPHWFRSA-N

> <PUBCHEM_SUBSTANCE_SYNONYM>
SCHEMBL16111162

> <PUBCHEM_XREF_EXT_ID>
SCHEMBL16111162

> <PUBCHEM_EXT_DATASOURCE_URL>
https://www.surechembl.org/

> <PUBCHEM_EXT_SUBSTANCE_URL>
https://www.surechembl.org/chemical/SCHEMBL16111162

> <PUBCHEM_CID_ASSOCIATIONS>
117602090  1

> <PUBCHEM_COORDINATE_TYPE>
1
3

> <PUBCHEM_BONDANNOTATIONS>
13  18  6

$$$$
