310943134
  -OEChem-07211613022D

 33 36  0     0  0  0  0  0  0999 V2000
   -3.1578    0.0000    0.0000 Cl  0  0  0  0  0  0  0  0  0  0  0  0
    4.3194   -2.0471    0.0000 F   0  0  0  0  0  0  0  0  0  0  0  0
    3.5208   -2.8602    0.0000 F   0  0  0  0  0  0  0  0  0  0  0  0
    2.7222   -2.0471    0.0000 F   0  0  0  0  0  0  0  0  0  0  0  0
    1.3720    0.0000    0.0000 O   0  0  0  0  0  0  0  0  0  0  0  0
   -4.3194    2.4536    0.0000 O   0  0  0  0  0  0  0  0  0  0  0  0
   -2.8965    1.6406    0.0000 N   0  0  0  0  0  0  0  0  0  0  0  0
   -1.4736    0.0145    0.0000 N   0  0  0  0  0  0  0  0  0  0  0  0
    2.0834    1.2341    0.0000 N   0  0  0  0  0  0  0  0  0  0  0  0
    0.6606    2.8602    0.0000 N   0  0  0  0  0  0  0  0  0  0  0  0
    4.2177   -0.8130    0.0000 N   0  0  0  0  0  0  0  0  0  0  0  0
   -0.0653    1.6406    0.0000 C   0  0  0  0  0  0  0  0  0  0  0  0
   -0.7477    1.2486    0.0000 C   0  0  0  0  0  0  0  0  0  0  0  0
   -2.1705    1.2486    0.0000 C   0  0  0  0  0  0  0  0  0  0  0  0
   -1.4881    1.6406    0.0000 C   0  0  0  0  0  0  0  0  0  0  0  0
   -0.0508    2.4682    0.0000 C   0  0  0  0  0  0  0  0  0  0  0  0
   -2.1850    0.4210    0.0000 C   0  0  0  0  0  0  0  0  0  0  0  0
    1.3575    1.6406    0.0000 C   0  0  0  0  0  0  0  0  0  0  0  0
    0.6606    1.2486    0.0000 C   0  0  0  0  0  0  0  0  0  0  0  0
   -0.7622    0.4210    0.0000 C   0  0  0  0  0  0  0  0  0  0  0  0
    2.7948    0.0145    0.0000 C   0  0  0  0  0  0  0  0  0  0  0  0
    3.5063   -1.2196    0.0000 C   0  0  0  0  0  0  0  0  0  0  0  0
    2.0834    0.4356    0.0000 C   0  0  0  0  0  0  0  0  0  0  0  0
    3.5063   -2.0471    0.0000 C   0  0  0  0  0  0  0  0  0  0  0  0
    2.7948   -0.7985    0.0000 C   0  0  0  0  0  0  0  0  0  0  0  0
    1.3720    2.4536    0.0000 C   0  0  0  0  0  0  0  0  0  0  0  0
    3.4773    0.4065    0.0000 C   0  0  0  0  0  0  0  0  0  0  0  0
   -2.8965    2.4536    0.0000 C   0  0  0  0  0  0  0  0  0  0  0  0
   -3.5789    1.2486    0.0000 C   0  0  0  0  0  0  0  0  0  0  0  0
    4.2177    0.0000    0.0000 C   0  0  0  0  0  0  0  0  0  0  0  0
   -0.7767    2.8602    0.0000 C   0  0  0  0  0  0  0  0  0  0  0  0
   -3.6079    2.8602    0.0000 C   0  0  0  0  0  0  0  0  0  0  0  0
   -4.3194    1.6406    0.0000 C   0  0  0  0  0  0  0  0  0  0  0  0
  1 17  1  0  0  0  0
  2 24  1  0  0  0  0
  3 24  1  0  0  0  0
  4 24  1  0  0  0  0
  5 23  2  0  0  0  0
  6 32  1  0  0  0  0
  6 33  1  0  0  0  0
  7 14  1  0  0  0  0
  7 28  1  0  0  0  0
  7 29  1  0  0  0  0
  8 17  2  0  0  0  0
  8 20  1  0  0  0  0
  9 18  1  0  0  0  0
  9 23  1  0  0  0  0
 10 16  1  0  0  0  0
 10 26  2  0  0  0  0
 11 22  2  0  0  0  0
 11 30  1  0  0  0  0
 12 13  1  0  0  0  0
 12 16  2  0  0  0  0
 12 19  1  0  0  0  0
 13 15  1  0  0  0  0
 13 20  2  0  0  0  0
 14 15  2  0  0  0  0
 14 17  1  0  0  0  0
 16 31  1  0  0  0  0
 18 19  2  0  0  0  0
 18 26  1  0  0  0  0
 21 23  1  0  0  0  0
 21 25  2  0  0  0  0
 21 27  1  0  0  0  0
 22 24  1  0  0  0  0
 22 25  1  0  0  0  0
 27 30  2  0  0  0  0
 28 32  1  0  0  0  0
 29 33  1  0  0  0  0
M  END
> <PUBCHEM_COMPOUND_ID_TYPE>
0

> <PUBCHEM_TOTAL_CHARGE>
0

> <PUBCHEM_SUBSTANCE_ID>
310943134

> <PUBCHEM_SUBSTANCE_VERSION>
1

> <PUBCHEM_EXT_DATASOURCE_NAME>
4488

> <PUBCHEM_EXT_DATASOURCE_REGID>
SCHEMBL16121194

> <PUBCHEM_SUBSTANCE_COMMENT>
InChI=1S/C22H19ClF3N5O2/c1-13-17(15-8-18(20(23)29-11-15)31-4-6-33-7-5-31)10-16(12-28-13)30-21(32)14-2-3-27-19(9-14)22(24,25)26/h2-3,8-12H,4-7H2,1H3,(H,30,32)
InChIKey=LMDLKOPJSLEMAM-UHFFFAOYSA-N

> <PUBCHEM_SUBSTANCE_SYNONYM>
SCHEMBL16121194

> <PUBCHEM_XREF_EXT_ID>
SCHEMBL16121194

> <PUBCHEM_EXT_DATASOURCE_URL>
https://www.surechembl.org/

> <PUBCHEM_EXT_SUBSTANCE_URL>
https://www.surechembl.org/chemical/SCHEMBL16121194

> <PUBCHEM_CID_ASSOCIATIONS>
117609564  1

> <PUBCHEM_COORDINATE_TYPE>
1
3

$$$$
