310945136
  -OEChem-07211613022D

 27 32  0     0  0  0  0  0  0999 V2000
    4.0752    1.4521    0.0000 O   0  0  0  0  0  0  0  0  0  0  0  0
    2.2796    0.1873    0.0000 N   0  0  0  0  0  0  0  0  0  0  0  0
    3.9347    0.0000    0.0000 N   0  0  0  0  0  0  0  0  0  0  0  0
   -1.4365    0.3592    0.0000 N   0  0  0  0  0  0  0  0  0  0  0  0
   -0.7651   -0.8119    0.0000 N   0  0  0  0  0  0  0  0  0  0  0  0
   -4.0752   -0.9836    0.0000 N   0  0  0  0  0  0  0  0  0  0  0  0
    2.6075   -0.5777    0.0000 C   0  0  0  0  0  0  0  0  0  0  0  0
    1.4677    0.4528    0.0000 C   0  0  0  0  0  0  0  0  0  0  0  0
    2.7637    0.8744    0.0000 C   0  0  0  0  0  0  0  0  0  0  0  0
    1.4833    1.2804    0.0000 C   0  0  0  0  0  0  0  0  0  0  0  0
    2.2796    1.5301    0.0000 C   0  0  0  0  0  0  0  0  0  0  0  0
    3.5756    0.7651    0.0000 C   0  0  0  0  0  0  0  0  0  0  0  0
    3.4507   -0.6714    0.0000 C   0  0  0  0  0  0  0  0  0  0  0  0
    1.7956   -0.7182    0.0000 C   0  0  0  0  0  0  0  0  0  0  0  0
    2.7324   -1.3896    0.0000 C   0  0  0  0  0  0  0  0  0  0  0  0
    0.7807    0.0312    0.0000 C   0  0  0  0  0  0  0  0  0  0  0  0
    0.0468    0.4528    0.0000 C   0  0  0  0  0  0  0  0  0  0  0  0
    1.9205   -1.5146    0.0000 C   0  0  0  0  0  0  0  0  0  0  0  0
    0.7651    1.6863    0.0000 C   0  0  0  0  0  0  0  0  0  0  0  0
   -0.6870    0.0312    0.0000 C   0  0  0  0  0  0  0  0  0  0  0  0
    0.0468    1.2804    0.0000 C   0  0  0  0  0  0  0  0  0  0  0  0
   -2.0142   -0.2654    0.0000 C   0  0  0  0  0  0  0  0  0  0  0  0
   -1.5926   -0.9681    0.0000 C   0  0  0  0  0  0  0  0  0  0  0  0
   -2.8418   -0.2654    0.0000 C   0  0  0  0  0  0  0  0  0  0  0  0
   -1.9986   -1.6863    0.0000 C   0  0  0  0  0  0  0  0  0  0  0  0
   -3.2477   -0.9681    0.0000 C   0  0  0  0  0  0  0  0  0  0  0  0
   -2.8418   -1.6863    0.0000 C   0  0  0  0  0  0  0  0  0  0  0  0
  1 12  2  0  0  0  0
  2  7  1  0  0  0  0
  2  8  1  0  0  0  0
  2  9  1  0  0  0  0
  3 12  1  0  0  0  0
  3 13  1  0  0  0  0
  4 20  2  0  0  0  0
  4 22  1  0  0  0  0
  5 20  1  0  0  0  0
  5 23  1  0  0  0  0
  6 26  1  0  0  0  0
  7 13  1  0  0  0  0
  7 14  1  0  0  0  0
  7 15  1  0  0  0  0
  8 10  1  0  0  0  0
  8 16  2  0  0  0  0
  9 11  2  0  0  0  0
  9 12  1  0  0  0  0
 10 11  1  0  0  0  0
 10 19  2  0  0  0  0
 14 18  1  0  0  0  0
 15 18  1  0  0  0  0
 16 17  1  0  0  0  0
 17 20  1  0  0  0  0
 17 21  2  0  0  0  0
 19 21  1  0  0  0  0
 22 23  2  0  0  0  0
 22 24  1  0  0  0  0
 23 25  1  0  0  0  0
 24 26  2  0  0  0  0
 25 27  2  0  0  0  0
 26 27  1  0  0  0  0
M  END
> <PUBCHEM_COMPOUND_ID_TYPE>
0

> <PUBCHEM_TOTAL_CHARGE>
0

> <PUBCHEM_SUBSTANCE_ID>
310945136

> <PUBCHEM_SUBSTANCE_VERSION>
1

> <PUBCHEM_EXT_DATASOURCE_NAME>
4488

> <PUBCHEM_EXT_DATASOURCE_REGID>
SCHEMBL16123226

> <PUBCHEM_SUBSTANCE_COMMENT>
InChI=1S/C21H19N5O/c22-14-4-5-15-16(10-14)25-19(24-15)13-3-2-12-8-18-20(27)23-11-21(6-1-7-21)26(18)17(12)9-13/h2-5,8-10H,1,6-7,11,22H2,(H,23,27)(H,24,25)
InChIKey=NSPVRTPASYRWLF-UHFFFAOYSA-N

> <PUBCHEM_SUBSTANCE_SYNONYM>
SCHEMBL16123226

> <PUBCHEM_XREF_EXT_ID>
SCHEMBL16123226

> <PUBCHEM_EXT_DATASOURCE_URL>
https://www.surechembl.org/

> <PUBCHEM_EXT_SUBSTANCE_URL>
https://www.surechembl.org/chemical/SCHEMBL16123226

> <PUBCHEM_CID_ASSOCIATIONS>
117611230  1

> <PUBCHEM_COORDINATE_TYPE>
1
3

$$$$
