310937614
  -OEChem-07211613022D

 90101  0     0  0  0  0  0  0999 V2000
    3.3521    4.0307    0.0000 F   0  0  0  0  0  0  0  0  0  0  0  0
    2.5452    3.8592    0.0000 F   0  0  0  0  0  0  0  0  0  0  0  0
    3.9041    3.4177    0.0000 F   0  0  0  0  0  0  0  0  0  0  0  0
   -2.9069   -2.0303    0.0000 F   0  0  0  0  0  0  0  0  0  0  0  0
   -2.1100   -2.2439    0.0000 F   0  0  0  0  0  0  0  0  0  0  0  0
   -3.1305   -1.2754    0.0000 F   0  0  0  0  0  0  0  0  0  0  0  0
    2.8334    0.1223    0.0000 O   0  0  0  0  0  0  0  0  0  0  0  0
    2.6206   -2.8447    0.0000 O   0  0  0  0  0  0  0  0  0  0  0  0
    5.1200    3.5073    0.0000 O   0  0  0  0  0  0  0  0  0  0  0  0
    5.9462   -0.7431    0.0000 O   0  0  0  0  0  0  0  0  0  0  0  0
   -0.5229   -7.8954    0.0000 O   0  0  0  0  0  0  0  0  0  0  0  0
   -1.5849   -8.8515    0.0000 O   0  0  0  0  0  0  0  0  0  0  0  0
   -4.3450   -5.7861    0.0000 O   0  0  0  0  0  0  0  0  0  0  0  0
   -3.2831   -4.8300    0.0000 O   0  0  0  0  0  0  0  0  0  0  0  0
    1.0067   -3.1877    0.0000 N   0  0  0  0  0  0  0  0  0  0  0  0
    0.4968   -4.7570    0.0000 N   0  0  0  0  0  0  0  0  0  0  0  0
    0.6674    0.3923    0.0000 C   0  0  0  0  0  0  0  0  0  0  0  0
    0.4125   -0.3923    0.0000 C   0  0  0  0  0  0  0  0  0  0  0  0
    0.0000    0.8772    0.0000 C   0  0  0  0  0  0  0  0  0  0  0  0
    1.4744    0.5638    0.0000 C   0  0  0  0  0  0  0  0  0  0  0  0
    2.0264   -0.0493    0.0000 C   0  0  0  0  0  0  0  0  0  0  0  0
    3.0883    0.9069    0.0000 C   0  0  0  0  0  0  0  0  0  0  0  0
   -0.4125   -0.3923    0.0000 C   0  0  0  0  0  0  0  0  0  0  0  0
    0.9645   -1.0054    0.0000 C   0  0  0  0  0  0  0  0  0  0  0  0
   -0.6674    0.3923    0.0000 C   0  0  0  0  0  0  0  0  0  0  0  0
    1.7715   -0.8339    0.0000 C   0  0  0  0  0  0  0  0  0  0  0  0
    2.5363    1.5200    0.0000 C   0  0  0  0  0  0  0  0  0  0  0  0
    1.7294    1.3485    0.0000 C   0  0  0  0  0  0  0  0  0  0  0  0
    3.5963    1.5570    0.0000 C   0  0  0  0  0  0  0  0  0  0  0  0
    3.8028    0.4944    0.0000 C   0  0  0  0  0  0  0  0  0  0  0  0
    0.7096   -1.7900    0.0000 C   0  0  0  0  0  0  0  0  0  0  0  0
    3.0971    3.2461    0.0000 C   0  0  0  0  0  0  0  0  0  0  0  0
   -0.9645   -1.0054    0.0000 C   0  0  0  0  0  0  0  0  0  0  0  0
    2.3235   -1.4470    0.0000 C   0  0  0  0  0  0  0  0  0  0  0  0
   -1.4744    0.5638    0.0000 C   0  0  0  0  0  0  0  0  0  0  0  0
    1.2616   -2.4031    0.0000 C   0  0  0  0  0  0  0  0  0  0  0  0
   -0.4125    1.5917    0.0000 C   0  0  0  0  0  0  0  0  0  0  0  0
    0.4125    1.5917    0.0000 C   0  0  0  0  0  0  0  0  0  0  0  0
    2.0686   -2.2316    0.0000 C   0  0  0  0  0  0  0  0  0  0  0  0
   -1.7715   -0.8339    0.0000 C   0  0  0  0  0  0  0  0  0  0  0  0
   -2.0264   -0.0493    0.0000 C   0  0  0  0  0  0  0  0  0  0  0  0
    4.4132    1.4421    0.0000 C   0  0  0  0  0  0  0  0  0  0  0  0
    3.8028   -0.3306    0.0000 C   0  0  0  0  0  0  0  0  0  0  0  0
    3.2872    2.3219    0.0000 C   0  0  0  0  0  0  0  0  0  0  0  0
    4.5173    0.9069    0.0000 C   0  0  0  0  0  0  0  0  0  0  0  0
   -2.3235   -1.4470    0.0000 C   0  0  0  0  0  0  0  0  0  0  0  0
    4.9212    2.0923    0.0000 C   0  0  0  0  0  0  0  0  0  0  0  0
    4.5173   -0.7431    0.0000 C   0  0  0  0  0  0  0  0  0  0  0  0
    3.7951    2.9720    0.0000 C   0  0  0  0  0  0  0  0  0  0  0  0
    5.2317    0.4944    0.0000 C   0  0  0  0  0  0  0  0  0  0  0  0
    4.6121    2.8572    0.0000 C   0  0  0  0  0  0  0  0  0  0  0  0
    5.2317   -0.3306    0.0000 C   0  0  0  0  0  0  0  0  0  0  0  0
    1.5587   -3.8008    0.0000 C   0  0  0  0  0  0  0  0  0  0  0  0
    0.1997   -3.3593    0.0000 C   0  0  0  0  0  0  0  0  0  0  0  0
    1.3038   -4.5854    0.0000 C   0  0  0  0  0  0  0  0  0  0  0  0
   -0.0552   -4.1439    0.0000 C   0  0  0  0  0  0  0  0  0  0  0  0
    3.4276   -2.6732    0.0000 C   0  0  0  0  0  0  0  0  0  0  0  0
    0.2418   -5.5415    0.0000 C   0  0  0  0  0  0  0  0  0  0  0  0
    5.9370    3.3925    0.0000 C   0  0  0  0  0  0  0  0  0  0  0  0
    6.6607   -0.3306    0.0000 C   0  0  0  0  0  0  0  0  0  0  0  0
   -0.5651   -5.7131    0.0000 C   0  0  0  0  0  0  0  0  0  0  0  0
    0.7939   -6.1546    0.0000 C   0  0  0  0  0  0  0  0  0  0  0  0
   -0.8200   -6.4977    0.0000 C   0  0  0  0  0  0  0  0  0  0  0  0
    0.5390   -6.9393    0.0000 C   0  0  0  0  0  0  0  0  0  0  0  0
   -0.2680   -7.1108    0.0000 C   0  0  0  0  0  0  0  0  0  0  0  0
   -1.3299   -8.0670    0.0000 C   0  0  0  0  0  0  0  0  0  0  0  0
   -1.8819   -7.4539    0.0000 C   0  0  0  0  0  0  0  0  0  0  0  0
   -1.6270   -6.6693    0.0000 C   0  0  0  0  0  0  0  0  0  0  0  0
   -2.6889   -7.6254    0.0000 C   0  0  0  0  0  0  0  0  0  0  0  0
   -2.9860   -6.2276    0.0000 C   0  0  0  0  0  0  0  0  0  0  0  0
   -2.1790   -6.0562    0.0000 C   0  0  0  0  0  0  0  0  0  0  0  0
   -3.2409   -7.0123    0.0000 C   0  0  0  0  0  0  0  0  0  0  0  0
   -3.5380   -5.6146    0.0000 C   0  0  0  0  0  0  0  0  0  0  0  0
   -4.8970   -5.1730    0.0000 C   0  0  0  0  0  0  0  0  0  0  0  0
   -6.0011   -3.9468    0.0000 C   0  0  0  0  0  0  0  0  0  0  0  0
   -6.5531   -3.3337    0.0000 C   0  0  0  0  0  0  0  0  0  0  0  0
   -5.7040   -5.3445    0.0000 C   0  0  0  0  0  0  0  0  0  0  0  0
   -4.6421   -4.3884    0.0000 C   0  0  0  0  0  0  0  0  0  0  0  0
   -6.2560   -4.7315    0.0000 C   0  0  0  0  0  0  0  0  0  0  0  0
   -5.1941   -3.7753    0.0000 C   0  0  0  0  0  0  0  0  0  0  0  0
   -6.2982   -2.5491    0.0000 C   0  0  0  0  0  0  0  0  0  0  0  0
   -7.3601   -3.5053    0.0000 C   0  0  0  0  0  0  0  0  0  0  0  0
   -7.6572   -2.1076    0.0000 C   0  0  0  0  0  0  0  0  0  0  0  0
   -6.8502   -1.9360    0.0000 C   0  0  0  0  0  0  0  0  0  0  0  0
   -7.9121   -2.8922    0.0000 C   0  0  0  0  0  0  0  0  0  0  0  0
   -8.2092   -1.4945    0.0000 C   0  0  0  0  0  0  0  0  0  0  0  0
   -9.0162   -1.6660    0.0000 C   0  0  0  0  0  0  0  0  0  0  0  0
   -9.5682   -1.0529    0.0000 C   0  0  0  0  0  0  0  0  0  0  0  0
  -10.3751   -1.2245    0.0000 C   0  0  0  0  0  0  0  0  0  0  0  0
  -10.9272   -0.6113    0.0000 C   0  0  0  0  0  0  0  0  0  0  0  0
  1 32  1  0  0  0  0
  2 32  1  0  0  0  0
  3 32  1  0  0  0  0
  4 46  1  0  0  0  0
  5 46  1  0  0  0  0
  6 46  1  0  0  0  0
  7 21  1  0  0  0  0
  7 22  1  0  0  0  0
  8 39  1  0  0  0  0
  8 57  1  0  0  0  0
  9 51  1  0  0  0  0
  9 59  1  0  0  0  0
 10 52  1  0  0  0  0
 10 60  1  0  0  0  0
 11 65  1  0  0  0  0
 11 66  1  0  0  0  0
 12 66  2  0  0  0  0
 13 73  1  0  0  0  0
 13 74  1  0  0  0  0
 14 73  2  0  0  0  0
 15 36  1  0  0  0  0
 15 53  1  0  0  0  0
 15 54  1  0  0  0  0
 16 55  1  0  0  0  0
 16 56  1  0  0  0  0
 16 58  1  0  0  0  0
 17 18  1  0  0  0  0
 17 19  1  0  0  0  0
 17 20  2  0  0  0  0
 18 23  1  0  0  0  0
 18 24  2  0  0  0  0
 19 25  1  0  0  0  0
 19 37  1  0  0  0  0
 19 38  1  0  0  0  0
 20 21  1  0  0  0  0
 20 28  1  0  0  0  0
 21 26  2  0  0  0  0
 22 27  1  0  0  0  0
 22 29  1  0  0  0  0
 22 30  1  0  0  0  0
 23 25  2  0  0  0  0
 23 33  1  0  0  0  0
 24 26  1  0  0  0  0
 24 31  1  0  0  0  0
 25 35  1  0  0  0  0
 26 34  1  0  0  0  0
 27 28  2  0  0  0  0
 27 32  1  0  0  0  0
 29 42  2  0  0  0  0
 29 44  1  0  0  0  0
 30 43  2  0  0  0  0
 30 45  1  0  0  0  0
 31 36  2  0  0  0  0
 33 40  2  0  0  0  0
 34 39  2  0  0  0  0
 35 41  2  0  0  0  0
 36 39  1  0  0  0  0
 40 41  1  0  0  0  0
 40 46  1  0  0  0  0
 42 47  1  0  0  0  0
 43 48  1  0  0  0  0
 44 49  2  0  0  0  0
 45 50  2  0  0  0  0
 47 51  2  0  0  0  0
 48 52  2  0  0  0  0
 49 51  1  0  0  0  0
 50 52  1  0  0  0  0
 53 55  1  0  0  0  0
 54 56  1  0  0  0  0
 58 61  2  0  0  0  0
 58 62  1  0  0  0  0
 61 63  1  0  0  0  0
 62 64  2  0  0  0  0
 63 65  2  0  0  0  0
 64 65  1  0  0  0  0
 67 66  1  6  0  0  0
 67 68  1  0  0  0  0
 67 69  1  0  0  0  0
 68 71  1  0  0  0  0
 69 72  1  0  0  0  0
 70 71  1  0  0  0  0
 70 72  1  0  0  0  0
 70 73  1  1  0  0  0
 74 77  2  0  0  0  0
 74 78  1  0  0  0  0
 75 76  1  0  0  0  0
 75 79  2  0  0  0  0
 75 80  1  0  0  0  0
 76 81  1  6  0  0  0
 76 82  1  0  0  0  0
 77 79  1  0  0  0  0
 78 80  2  0  0  0  0
 81 84  1  0  0  0  0
 82 85  1  0  0  0  0
 83 84  1  0  0  0  0
 83 85  1  0  0  0  0
 83 86  1  1  0  0  0
 86 87  1  0  0  0  0
 87 88  1  0  0  0  0
 88 89  1  0  0  0  0
 89 90  1  0  0  0  0
M  END
> <PUBCHEM_COMPOUND_ID_TYPE>
0

> <PUBCHEM_TOTAL_CHARGE>
0

> <PUBCHEM_SUBSTANCE_ID>
310937614

> <PUBCHEM_SUBSTANCE_VERSION>
1

> <PUBCHEM_EXT_DATASOURCE_NAME>
4488

> <PUBCHEM_EXT_DATASOURCE_REGID>
SCHEMBL16115396

> <PUBCHEM_SUBSTANCE_COMMENT>
InChI=1S/C74H76F6N2O8/c1-7-8-9-10-45-11-13-46(14-12-45)47-19-28-56(29-20-47)88-69(83)48-15-17-49(18-16-48)70(84)89-57-34-26-53(27-35-57)81-37-39-82(40-38-81)63-42-58-59(43-64(63)87-6)68-61(67-66(58)60-41-52(73(75,76)77)25-36-62(60)71(67,2)3)44-65(74(78,79)80)72(90-68,50-21-30-54(85-4)31-22-50)51-23-32-55(86-5)33-24-51/h19-36,41-46,48-49H,7-18,37-40H2,1-6H3/t45-,46-,48-,49-
InChIKey=PQKIGQYBRRZHEA-DPTMORFNSA-N

> <PUBCHEM_SUBSTANCE_SYNONYM>
SCHEMBL16115396

> <PUBCHEM_XREF_EXT_ID>
SCHEMBL16115396

> <PUBCHEM_EXT_DATASOURCE_URL>
https://www.surechembl.org/

> <PUBCHEM_EXT_SUBSTANCE_URL>
https://www.surechembl.org/chemical/SCHEMBL16115396

> <PUBCHEM_CID_ASSOCIATIONS>
117605315  1

> <PUBCHEM_COORDINATE_TYPE>
1
3

> <PUBCHEM_BONDANNOTATIONS>
67  66  6
70  73  5
76  81  6
83  86  5

$$$$
