310941140
  -OEChem-07211613022D

 41 44  0     1  0  0  0  0  0999 V2000
    5.2168    0.9849    0.0000 O   0  0  0  0  0  0  0  0  0  0  0  0
    4.0750   -0.9849    0.0000 O   0  0  0  0  0  0  0  0  0  0  0  0
    1.7057    0.9706    0.0000 O   0  0  0  0  0  0  0  0  0  0  0  0
   -0.4496   -1.1133    0.0000 O   0  0  0  0  0  0  0  0  0  0  0  0
   -2.6049    0.9706    0.0000 O   0  0  0  0  0  0  0  0  0  0  0  0
    3.8609   -2.7690    0.0000 O   0  0  0  0  0  0  0  0  0  0  0  0
    2.4336   -0.2855    0.0000 N   0  0  0  0  0  0  0  0  0  0  0  0
    0.2783    0.1285    0.0000 N   0  0  0  0  0  0  0  0  0  0  0  0
   -1.8912   -0.2855    0.0000 N   0  0  0  0  0  0  0  0  0  0  0  0
   -4.7602   -0.2855    0.0000 N   0  0  3  0  0  0  0  0  0  0  0  0
    4.7887    0.2997    0.0000 C   0  0  3  0  0  0  0  0  0  0  0  0
    4.0750   -0.1142    0.0000 C   0  0  0  0  0  0  0  0  0  0  0  0
    4.4033    0.9991    0.0000 C   0  0  0  0  0  0  0  0  0  0  0  0
    3.3613    0.2855    0.0000 C   0  0  3  0  0  0  0  0  0  0  0  0
    5.5023   -0.1142    0.0000 C   0  0  0  0  0  0  0  0  0  0  0  0
    3.3613    1.3702    0.0000 C   0  0  0  0  0  0  0  0  0  0  0  0
    1.6914    0.1428    0.0000 C   0  0  0  0  0  0  0  0  0  0  0  0
    1.0063   -0.2427    0.0000 C   0  0  3  0  0  0  0  0  0  0  0  0
    2.6334    1.7984    0.0000 C   0  0  0  0  0  0  0  0  0  0  0  0
    0.9777   -1.0990    0.0000 C   0  0  0  0  0  0  0  0  0  0  0  0
   -0.4354   -0.2284    0.0000 C   0  0  0  0  0  0  0  0  0  0  0  0
    1.7200   -1.4844    0.0000 C   0  0  0  0  0  0  0  0  0  0  0  0
    2.5478    2.5977    0.0000 C   0  0  0  0  0  0  0  0  0  0  0  0
    1.8769    1.4559    0.0000 C   0  0  0  0  0  0  0  0  0  0  0  0
   -1.1776    0.1570    0.0000 C   0  0  3  0  0  0  0  0  0  0  0  0
   -2.5621    0.1428    0.0000 C   0  0  0  0  0  0  0  0  0  0  0  0
   -3.3185   -0.2712    0.0000 C   0  0  3  0  0  0  0  0  0  0  0  0
    1.7485    2.7690    0.0000 C   0  0  0  0  0  0  0  0  0  0  0  0
    1.3488    2.0553    0.0000 C   0  0  0  0  0  0  0  0  0  0  0  0
    1.7200   -2.3265    0.0000 C   0  0  0  0  0  0  0  0  0  0  0  0
    2.4193   -1.0990    0.0000 C   0  0  0  0  0  0  0  0  0  0  0  0
    3.1472   -2.3265    0.0000 C   0  0  0  0  0  0  0  0  0  0  0  0
   -4.0750    0.1570    0.0000 C   0  0  0  0  0  0  0  0  0  0  0  0
    2.4336   -2.7405    0.0000 C   0  0  0  0  0  0  0  0  0  0  0  0
    3.1472   -1.5130    0.0000 C   0  0  0  0  0  0  0  0  0  0  0  0
   -3.3185   -1.0847    0.0000 C   0  0  0  0  0  0  0  0  0  0  0  0
   -1.1633    0.9706    0.0000 C   0  0  0  0  0  0  0  0  0  0  0  0
   -4.0180   -1.4844    0.0000 C   0  0  0  0  0  0  0  0  0  0  0  0
   -4.7459   -1.0847    0.0000 C   0  0  0  0  0  0  0  0  0  0  0  0
   -5.5023    0.1570    0.0000 C   0  0  0  0  0  0  0  0  0  0  0  0
    4.5746   -2.3265    0.0000 C   0  0  0  0  0  0  0  0  0  0  0  0
  1 11  1  0  0  0  0
  1 13  1  0  0  0  0
  2 12  2  0  0  0  0
  3 17  2  0  0  0  0
  4 21  2  0  0  0  0
  5 26  2  0  0  0  0
  6 32  1  0  0  0  0
  6 41  1  0  0  0  0
 14  7  1  1  0  0  0
  7 17  1  0  0  0  0
 18  8  1  6  0  0  0
  8 21  1  0  0  0  0
  9 25  1  0  0  0  0
  9 26  1  0  0  0  0
 10 33  1  0  0  0  0
 10 39  1  0  0  0  0
 10 40  1  0  0  0  0
 11 12  1  1  0  0  0
 11 13  1  0  0  0  0
 11 15  1  6  0  0  0
 12 14  1  0  0  0  0
 14 16  1  0  0  0  0
 16 19  1  0  0  0  0
 17 18  1  0  0  0  0
 18 20  1  0  0  0  0
 19 23  2  0  0  0  0
 19 24  1  0  0  0  0
 20 22  1  0  0  0  0
 21 25  1  0  0  0  0
 22 30  2  0  0  0  0
 22 31  1  0  0  0  0
 23 28  1  0  0  0  0
 24 29  1  0  0  0  0
 25 37  1  6  0  0  0
 27 26  1  6  0  0  0
 27 33  1  0  0  0  0
 27 36  1  0  0  0  0
 28 29  1  0  0  0  0
 30 34  1  0  0  0  0
 31 35  2  0  0  0  0
 32 34  2  0  0  0  0
 32 35  1  0  0  0  0
 36 38  1  0  0  0  0
 38 39  1  0  0  0  0
M  END
> <PUBCHEM_COMPOUND_ID_TYPE>
0

> <PUBCHEM_TOTAL_CHARGE>
0

> <PUBCHEM_SUBSTANCE_ID>
310941140

> <PUBCHEM_SUBSTANCE_VERSION>
1

> <PUBCHEM_EXT_DATASOURCE_NAME>
4488

> <PUBCHEM_EXT_DATASOURCE_REGID>
SCHEMBL16119100

> <PUBCHEM_SUBSTANCE_COMMENT>
InChI=1S/C31H44N4O6/c1-20(32-29(38)23-10-7-15-35(3)18-23)28(37)34-26(17-22-11-13-24(40-4)14-12-22)30(39)33-25(16-21-8-5-6-9-21)27(36)31(2)19-41-31/h8,11-14,20,23,25-26H,5-7,9-10,15-19H2,1-4H3,(H,32,38)(H,33,39)(H,34,37)/t20-,23-,25+,26+,31-/m1/s1
InChIKey=UMEXQHUFNCTKSA-OCVUVYLCSA-N

> <PUBCHEM_SUBSTANCE_SYNONYM>
SCHEMBL16119100

> <PUBCHEM_XREF_EXT_ID>
SCHEMBL16119100

> <PUBCHEM_EXT_DATASOURCE_URL>
https://www.surechembl.org/

> <PUBCHEM_EXT_SUBSTANCE_URL>
https://www.surechembl.org/chemical/SCHEMBL16119100

> <PUBCHEM_CID_ASSOCIATIONS>
117608022  1

> <PUBCHEM_COORDINATE_TYPE>
1
3

> <PUBCHEM_BONDANNOTATIONS>
11  12  5
11  15  6
25  37  6
27  26  6
14  7  5
18  8  6

$$$$
