310942438
  -OEChem-07211613022D

 35 38  0     0  0  0  0  0  0999 V2000
    3.2328    0.6625    0.0000 S   0  0  0  0  0  0  0  0  0  0  0  0
    4.6814    1.4839    0.0000 F   0  0  0  0  0  0  0  0  0  0  0  0
    6.1212   -0.9805    0.0000 F   0  0  0  0  0  0  0  0  0  0  0  0
    2.8177    1.3779    0.0000 O   0  0  0  0  0  0  0  0  0  0  0  0
    3.6480    1.3779    0.0000 O   0  0  0  0  0  0  0  0  0  0  0  0
    0.3621   -0.9805    0.0000 N   0  0  0  0  0  0  0  0  0  0  0  0
   -0.3621    0.2561    0.0000 N   0  0  0  0  0  0  0  0  0  0  0  0
   -1.0776   -0.9805    0.0000 N   0  0  0  0  0  0  0  0  0  0  0  0
   -3.9571    0.6625    0.0000 N   0  0  0  0  0  0  0  0  0  0  0  0
   -1.8019    0.2561    0.0000 N   0  0  0  0  0  0  0  0  0  0  0  0
    1.8019   -0.9805    0.0000 N   0  0  0  0  0  0  0  0  0  0  0  0
   -5.3968    1.4839    0.0000 N   0  0  0  0  0  0  0  0  0  0  0  0
    3.9659    0.2473    0.0000 C   0  0  0  0  0  0  0  0  0  0  0  0
    4.6814    0.6713    0.0000 C   0  0  0  0  0  0  0  0  0  0  0  0
    1.0865    0.2473    0.0000 C   0  0  0  0  0  0  0  0  0  0  0  0
    2.5173    0.2561    0.0000 C   0  0  0  0  0  0  0  0  0  0  0  0
    1.0776   -0.5653    0.0000 C   0  0  0  0  0  0  0  0  0  0  0  0
    3.9659   -0.5653    0.0000 C   0  0  0  0  0  0  0  0  0  0  0  0
    1.7931    0.6625    0.0000 C   0  0  0  0  0  0  0  0  0  0  0  0
   -0.3621   -0.5653    0.0000 C   0  0  0  0  0  0  0  0  0  0  0  0
    5.3968    0.2473    0.0000 C   0  0  0  0  0  0  0  0  0  0  0  0
    5.3968   -0.5565    0.0000 C   0  0  0  0  0  0  0  0  0  0  0  0
    0.3533    0.6625    0.0000 C   0  0  0  0  0  0  0  0  0  0  0  0
   -1.8019   -0.5653    0.0000 C   0  0  0  0  0  0  0  0  0  0  0  0
   -3.2328    0.2473    0.0000 C   0  0  0  0  0  0  0  0  0  0  0  0
    4.6726   -0.9716    0.0000 C   0  0  0  0  0  0  0  0  0  0  0  0
   -2.5262   -0.9716    0.0000 C   0  0  0  0  0  0  0  0  0  0  0  0
   -2.5262    0.6625    0.0000 C   0  0  0  0  0  0  0  0  0  0  0  0
   -3.2328   -0.5653    0.0000 C   0  0  0  0  0  0  0  0  0  0  0  0
   -4.6814    0.2561    0.0000 C   0  0  0  0  0  0  0  0  0  0  0  0
   -3.9571    1.4839    0.0000 C   0  0  0  0  0  0  0  0  0  0  0  0
   -5.3968    0.6713    0.0000 C   0  0  0  0  0  0  0  0  0  0  0  0
   -4.6726    1.8902    0.0000 C   0  0  0  0  0  0  0  0  0  0  0  0
    1.8019   -1.8991    0.0000 C   0  0  0  0  0  0  0  0  0  0  0  0
   -6.1212    1.8991    0.0000 C   0  0  0  0  0  0  0  0  0  0  0  0
  1  4  2  0  0  0  0
  1  5  2  0  0  0  0
  1 13  1  0  0  0  0
  1 16  1  0  0  0  0
  2 14  1  0  0  0  0
  3 22  1  0  0  0  0
  6 17  2  0  0  0  0
  6 20  1  0  0  0  0
  7 20  2  0  0  0  0
  7 23  1  0  0  0  0
  8 20  1  0  0  0  0
  8 24  1  0  0  0  0
  9 25  1  0  0  0  0
  9 30  1  0  0  0  0
  9 31  1  0  0  0  0
 10 24  1  0  0  0  0
 10 28  2  0  0  0  0
 11 17  1  0  0  0  0
 11 34  1  0  0  0  0
 12 32  1  0  0  0  0
 12 33  1  0  0  0  0
 12 35  1  0  0  0  0
 13 14  1  0  0  0  0
 13 18  2  0  0  0  0
 14 21  2  0  0  0  0
 15 17  1  0  0  0  0
 15 19  1  0  0  0  0
 15 23  2  0  0  0  0
 16 19  2  0  0  0  0
 18 26  1  0  0  0  0
 21 22  1  0  0  0  0
 22 26  2  0  0  0  0
 24 27  2  0  0  0  0
 25 28  1  0  0  0  0
 25 29  2  0  0  0  0
 27 29  1  0  0  0  0
 30 32  1  0  0  0  0
 31 33  1  0  0  0  0
M  END
> <PUBCHEM_COMPOUND_ID_TYPE>
0

> <PUBCHEM_TOTAL_CHARGE>
0

> <PUBCHEM_SUBSTANCE_ID>
310942438

> <PUBCHEM_SUBSTANCE_VERSION>
1

> <PUBCHEM_EXT_DATASOURCE_NAME>
4488

> <PUBCHEM_EXT_DATASOURCE_REGID>
SCHEMBL16120474

> <PUBCHEM_SUBSTANCE_COMMENT>
InChI=1S/C23H25F2N7O2S/c1-26-22-16(7-12-35(33,34)20-5-3-17(24)13-19(20)25)14-28-23(30-22)29-21-6-4-18(15-27-21)32-10-8-31(2)9-11-32/h3-7,12-15H,8-11H2,1-2H3,(H2,26,27,28,29,30)/b12-7+
InChIKey=MCTJSGBNZLTIES-KPKJPENVSA-N

> <PUBCHEM_SUBSTANCE_SYNONYM>
SCHEMBL16120474

> <PUBCHEM_XREF_EXT_ID>
SCHEMBL16120474

> <PUBCHEM_EXT_DATASOURCE_URL>
https://www.surechembl.org/

> <PUBCHEM_EXT_SUBSTANCE_URL>
https://www.surechembl.org/chemical/SCHEMBL16120474

> <PUBCHEM_CID_ASSOCIATIONS>
117609033  1

> <PUBCHEM_COORDINATE_TYPE>
1
3

$$$$
