310930806
  -OEChem-07211613022D

 42 45  0     1  0  0  0  0  0999 V2000
    1.5322   -7.8572    0.0000 Cl  0  0  0  0  0  0  0  0  0  0  0  0
    6.5608   -5.8143    0.0000 S   0  0  0  0  0  0  0  0  0  0  0  0
    6.5608   -4.1251    0.0000 F   0  0  0  0  0  0  0  0  0  0  0  0
    3.6929   -5.7751    0.0000 F   0  0  0  0  0  0  0  0  0  0  0  0
    3.6929   -4.1251    0.0000 O   0  0  0  0  0  0  0  0  0  0  0  0
    6.1287   -6.5215    0.0000 O   0  0  0  0  0  0  0  0  0  0  0  0
    7.2679   -6.2465    0.0000 O   0  0  0  0  0  0  0  0  0  0  0  0
    0.8250   -1.6500    0.0000 O   0  0  0  0  0  0  0  0  0  0  0  0
    8.2108   -5.8536    0.0000 O   0  0  0  0  0  0  0  0  0  0  0  0
    2.2786   -1.6500    0.0000 O   0  0  0  0  0  0  0  0  0  0  0  0
    6.9929   -5.1072    0.0000 N   0  0  0  0  0  0  0  0  0  0  0  0
    1.5322   -2.8679    0.0000 N   0  0  0  0  0  0  0  0  0  0  0  0
    7.8572   -3.6929    0.0000 N   0  0  0  0  0  0  0  0  0  0  0  0
    5.8536   -5.3822    0.0000 C   0  0  0  0  0  0  0  0  0  0  0  0
    5.8536   -4.5572    0.0000 C   0  0  0  0  0  0  0  0  0  0  0  0
    4.4393   -4.5572    0.0000 C   0  0  0  0  0  0  0  0  0  0  0  0
    4.4000   -5.3822    0.0000 C   0  0  0  0  0  0  0  0  0  0  0  0
    5.1465   -5.7751    0.0000 C   0  0  0  0  0  0  0  0  0  0  0  0
    5.1465   -4.1251    0.0000 C   0  0  0  0  0  0  0  0  0  0  0  0
    2.2786   -4.1251    0.0000 C   0  0  3  0  0  0  0  0  0  0  0  0
    1.5322   -4.5179    0.0000 C   0  0  3  0  0  0  0  0  0  0  0  0
    7.8179   -5.1072    0.0000 C   0  0  0  0  0  0  0  0  0  0  0  0
    1.5322   -5.3429    0.0000 C   0  0  0  0  0  0  0  0  0  0  0  0
    2.9857   -4.5179    0.0000 C   0  0  0  0  0  0  0  0  0  0  0  0
    2.2786   -3.3001    0.0000 C   0  0  0  0  0  0  0  0  0  0  0  0
    0.8250   -4.1251    0.0000 C   0  0  0  0  0  0  0  0  0  0  0  0
    8.2501   -4.4000    0.0000 C   0  0  0  0  0  0  0  0  0  0  0  0
    0.8250   -3.3001    0.0000 C   0  0  0  0  0  0  0  0  0  0  0  0
    1.5322   -2.0429    0.0000 C   0  0  0  0  0  0  0  0  0  0  0  0
    2.2786   -5.7751    0.0000 C   0  0  0  0  0  0  0  0  0  0  0  0
    0.8250   -5.7751    0.0000 C   0  0  0  0  0  0  0  0  0  0  0  0
    9.0751   -4.4000    0.0000 C   0  0  0  0  0  0  0  0  0  0  0  0
    2.2786   -6.6001    0.0000 C   0  0  0  0  0  0  0  0  0  0  0  0
    0.8250   -6.6001    0.0000 C   0  0  0  0  0  0  0  0  0  0  0  0
    0.8250   -0.8250    0.0000 C   0  0  0  0  0  0  0  0  0  0  0  0
    1.5322   -7.0322    0.0000 C   0  0  0  0  0  0  0  0  0  0  0  0
    8.2501   -2.9857    0.0000 C   0  0  0  0  0  0  0  0  0  0  0  0
    9.5073   -3.7322    0.0000 C   0  0  0  0  0  0  0  0  0  0  0  0
    9.0751   -2.9857    0.0000 C   0  0  0  0  0  0  0  0  0  0  0  0
    1.6893   -0.8250    0.0000 C   0  0  0  0  0  0  0  0  0  0  0  0
    0.8250    0.0000    0.0000 C   0  0  0  0  0  0  0  0  0  0  0  0
    0.0000   -0.8250    0.0000 C   0  0  0  0  0  0  0  0  0  0  0  0
  1 36  1  0  0  0  0
  2  6  2  0  0  0  0
  2  7  2  0  0  0  0
  2 11  1  0  0  0  0
  2 14  1  0  0  0  0
  3 15  1  0  0  0  0
  4 17  1  0  0  0  0
  5 16  1  0  0  0  0
  5 24  1  0  0  0  0
  8 29  1  0  0  0  0
  8 35  1  0  0  0  0
  9 22  2  0  0  0  0
 10 29  2  0  0  0  0
 11 22  1  0  0  0  0
 12 25  1  0  0  0  0
 12 28  1  0  0  0  0
 12 29  1  0  0  0  0
 13 27  1  0  0  0  0
 13 37  2  0  0  0  0
 14 15  1  0  0  0  0
 14 18  2  0  0  0  0
 15 19  2  0  0  0  0
 16 17  2  0  0  0  0
 16 19  1  0  0  0  0
 17 18  1  0  0  0  0
 20 21  1  0  0  0  0
 20 24  1  6  0  0  0
 20 25  1  0  0  0  0
 21 23  1  0  0  0  0
 21 26  1  1  0  0  0
 22 27  1  0  0  0  0
 23 30  2  0  0  0  0
 23 31  1  0  0  0  0
 26 28  1  0  0  0  0
 27 32  2  0  0  0  0
 30 33  1  0  0  0  0
 31 34  2  0  0  0  0
 32 38  1  0  0  0  0
 33 36  2  0  0  0  0
 34 36  1  0  0  0  0
 35 40  1  0  0  0  0
 35 41  1  0  0  0  0
 35 42  1  0  0  0  0
 37 39  1  0  0  0  0
 38 39  2  0  0  0  0
M  END
> <PUBCHEM_COMPOUND_ID_TYPE>
0

> <PUBCHEM_TOTAL_CHARGE>
0

> <PUBCHEM_SUBSTANCE_ID>
310930806

> <PUBCHEM_SUBSTANCE_VERSION>
1

> <PUBCHEM_EXT_DATASOURCE_NAME>
4488

> <PUBCHEM_EXT_DATASOURCE_REGID>
SCHEMBL16108103

> <PUBCHEM_SUBSTANCE_COMMENT>
InChI=1S/C29H30ClF2N3O6S/c1-29(2,3)41-28(37)35-13-11-21(18-7-9-20(30)10-8-18)19(16-35)17-40-25-14-23(32)26(15-22(25)31)42(38,39)34-27(36)24-6-4-5-12-33-24/h4-10,12,14-15,19,21H,11,13,16-17H2,1-3H3,(H,34,36)/t19-,21-/m1/s1
InChIKey=LDRJINTXNUUJDP-TZIWHRDSSA-N

> <PUBCHEM_SUBSTANCE_SYNONYM>
SCHEMBL16108103

> <PUBCHEM_XREF_EXT_ID>
SCHEMBL16108103

> <PUBCHEM_EXT_DATASOURCE_URL>
https://www.surechembl.org/

> <PUBCHEM_EXT_SUBSTANCE_URL>
https://www.surechembl.org/chemical/SCHEMBL16108103

> <PUBCHEM_CID_ASSOCIATIONS>
117599813  1

> <PUBCHEM_COORDINATE_TYPE>
1
3

> <PUBCHEM_BONDANNOTATIONS>
20  24  6
21  26  5

$$$$
