310948637
  -OEChem-07211613022D

 33 36  0     1  0  0  0  0  0999 V2000
   -1.4796   -2.5600    0.0000 S   0  0  0  0  0  0  0  0  0  0  0  0
   -2.7044    2.1333    0.0000 O   0  0  0  0  0  0  0  0  0  0  0  0
   -1.6861   -3.3582    0.0000 O   0  0  0  0  0  0  0  0  0  0  0  0
   -2.2915   -2.5600    0.0000 O   0  0  0  0  0  0  0  0  0  0  0  0
    0.0482    2.0369    0.0000 N   0  0  0  0  0  0  0  0  0  0  0  0
   -0.2684    1.2800    0.0000 N   0  0  0  0  0  0  0  0  0  0  0  0
   -1.6447    0.7294    0.0000 N   0  0  0  0  0  0  0  0  0  0  0  0
   -2.0025    3.3857    0.0000 N   0  0  0  0  0  0  0  0  0  0  0  0
    0.5712    0.0550    0.0000 N   0  0  0  0  0  0  0  0  0  0  0  0
   -1.2731    2.1608    0.0000 C   0  0  0  0  0  0  0  0  0  0  0  0
   -0.5712    2.5737    0.0000 C   0  0  0  0  0  0  0  0  0  0  0  0
   -1.0942    1.3626    0.0000 C   0  0  0  0  0  0  0  0  0  0  0  0
    0.8601    2.2159    0.0000 C   0  0  3  0  0  0  0  0  0  0  0  0
   -2.0025    2.5737    0.0000 C   0  0  0  0  0  0  0  0  0  0  0  0
   -0.5712    3.3995    0.0000 C   0  0  0  0  0  0  0  0  0  0  0  0
   -1.6309   -1.7479    0.0000 C   0  0  0  0  0  0  0  0  0  0  0  0
   -1.6447   -0.0964    0.0000 C   0  0  0  0  0  0  0  0  0  0  0  0
   -0.7363   -2.9729    0.0000 C   0  0  0  0  0  0  0  0  0  0  0  0
    1.3694    1.5690    0.0000 C   0  0  3  0  0  0  0  0  0  0  0  0
   -1.3006    3.8124    0.0000 C   0  0  0  0  0  0  0  0  0  0  0  0
    1.0529    3.0141    0.0000 C   0  0  0  0  0  0  0  0  0  0  0  0
   -2.3466   -1.3350    0.0000 C   0  0  0  0  0  0  0  0  0  0  0  0
   -0.9289   -1.3350    0.0000 C   0  0  0  0  0  0  0  0  0  0  0  0
   -2.3466   -0.5093    0.0000 C   0  0  0  0  0  0  0  0  0  0  0  0
   -0.9289   -0.5093    0.0000 C   0  0  0  0  0  0  0  0  0  0  0  0
    2.1815    1.5690    0.0000 C   0  0  0  0  0  0  0  0  0  0  0  0
    0.9978    0.8395    0.0000 C   0  0  0  0  0  0  0  0  0  0  0  0
    1.7823    3.3719    0.0000 C   0  0  0  0  0  0  0  0  0  0  0  0
   -0.0206   -2.5462    0.0000 C   0  0  0  0  0  0  0  0  0  0  0  0
   -0.0206   -3.3719    0.0000 C   0  0  0  0  0  0  0  0  0  0  0  0
   -0.7363   -3.8124    0.0000 C   0  0  0  0  0  0  0  0  0  0  0  0
    2.7044    2.2159    0.0000 C   0  0  0  0  0  0  0  0  0  0  0  0
    2.5256    3.0141    0.0000 C   0  0  0  0  0  0  0  0  0  0  0  0
  1  3  2  0  0  0  0
  1  4  2  0  0  0  0
  1 16  1  0  0  0  0
  1 18  1  0  0  0  0
  2 14  2  0  0  0  0
  5  6  1  0  0  0  0
  5 11  1  0  0  0  0
 13  5  1  1  0  0  0
  6 12  2  0  0  0  0
  7 12  1  0  0  0  0
  7 17  1  0  0  0  0
  8 14  1  0  0  0  0
  8 20  1  0  0  0  0
  9 27  3  0  0  0  0
 10 11  2  0  0  0  0
 10 12  1  0  0  0  0
 10 14  1  0  0  0  0
 11 15  1  0  0  0  0
 13 19  1  0  0  0  0
 13 21  1  0  0  0  0
 15 20  2  0  0  0  0
 16 22  2  0  0  0  0
 16 23  1  0  0  0  0
 17 24  2  0  0  0  0
 17 25  1  0  0  0  0
 18 29  1  0  0  0  0
 18 30  1  0  0  0  0
 18 31  1  0  0  0  0
 19 26  1  0  0  0  0
 19 27  1  6  0  0  0
 21 28  1  0  0  0  0
 22 24  1  0  0  0  0
 23 25  2  0  0  0  0
 26 32  1  0  0  0  0
 28 33  1  0  0  0  0
 32 33  1  0  0  0  0
M  END
> <PUBCHEM_COMPOUND_ID_TYPE>
0

> <PUBCHEM_TOTAL_CHARGE>
0

> <PUBCHEM_SUBSTANCE_ID>
310948637

> <PUBCHEM_SUBSTANCE_VERSION>
1

> <PUBCHEM_EXT_DATASOURCE_NAME>
4488

> <PUBCHEM_EXT_DATASOURCE_REGID>
SCHEMBL16126821

> <PUBCHEM_SUBSTANCE_COMMENT>
InChI=1S/C24H29N5O3S/c1-24(2,3)33(31,32)18-11-9-17(10-12-18)27-22-21-20(13-14-26-23(21)30)29(28-22)19-8-6-4-5-7-16(19)15-25/h9-14,16,19H,4-8H2,1-3H3,(H,26,30)(H,27,28)/t16-,19+/m1/s1
InChIKey=GZAHUQDDMULFOK-APWZRJJASA-N

> <PUBCHEM_SUBSTANCE_SYNONYM>
SCHEMBL16126821

> <PUBCHEM_XREF_EXT_ID>
SCHEMBL16126821

> <PUBCHEM_EXT_DATASOURCE_URL>
https://www.surechembl.org/

> <PUBCHEM_EXT_SUBSTANCE_URL>
https://www.surechembl.org/chemical/SCHEMBL16126821

> <PUBCHEM_CID_ASSOCIATIONS>
117614181  1

> <PUBCHEM_COORDINATE_TYPE>
1
3

> <PUBCHEM_BONDANNOTATIONS>
19  27  6
13  5  5

$$$$
