310942467
  -OEChem-07211613022D

 52 57  0     1  0  0  0  0  0999 V2000
   -4.6923    1.1249    0.0000 Cl  0  0  0  0  0  0  0  0  0  0  0  0
   -4.6923    2.7781    0.0000 Cl  0  0  0  0  0  0  0  0  0  0  0  0
   -0.2175    3.6109    0.0000 S   0  0  0  0  0  0  0  0  0  0  0  0
    3.4742   -1.6967    0.0000 O   0  0  0  0  0  0  0  0  0  0  0  0
    2.7532   -0.4537    0.0000 O   0  0  0  0  0  0  0  0  0  0  0  0
   -0.2175    1.1249    0.0000 O   0  0  0  0  0  0  0  0  0  0  0  0
    0.6029   -2.5295    0.0000 O   0  0  0  0  0  0  0  0  0  0  0  0
   -2.0696   -0.9757    0.0000 O   0  0  0  0  0  0  0  0  0  0  0  0
   -3.5115   -2.6414    0.0000 O   0  0  0  0  0  0  0  0  0  0  0  0
   -2.7905   -1.3984    0.0000 O   0  0  0  0  0  0  0  0  0  0  0  0
    1.3362   -1.2741    0.0000 N   0  0  0  0  0  0  0  0  0  0  0  0
   -0.6153   -0.9757    0.0000 N   0  0  0  0  0  0  0  0  0  0  0  0
   -1.6345    1.1249    0.0000 N   0  0  0  0  0  0  0  0  0  0  0  0
   -1.6345    2.7905    0.0000 N   0  0  0  0  0  0  0  0  0  0  0  0
   -2.0572   -2.6289    0.0000 N   0  0  0  0  0  0  0  0  0  0  0  0
    2.0572   -1.6842    0.0000 C   0  0  3  0  0  0  0  0  0  0  0  0
    2.0572   -2.5046    0.0000 C   0  0  3  0  0  0  0  0  0  0  0  0
    2.7657   -2.1069    0.0000 C   0  0  0  0  0  0  0  0  0  0  0  0
    2.7657   -1.2865    0.0000 C   0  0  0  0  0  0  0  0  0  0  0  0
    0.6277   -1.6719    0.0000 C   0  0  0  0  0  0  0  0  0  0  0  0
    0.2051   -0.9757    0.0000 C   0  0  3  0  0  0  0  0  0  0  0  0
    2.9396   -3.2877    0.0000 C   0  0  0  0  0  0  0  0  0  0  0  0
   -0.2175    0.2921    0.0000 C   0  0  3  0  0  0  0  0  0  0  0  0
    0.4662   -0.1926    0.0000 C   0  0  0  0  0  0  0  0  0  0  0  0
   -0.8763   -0.1926    0.0000 C   0  0  0  0  0  0  0  0  0  0  0  0
   -1.3238   -1.3984    0.0000 C   0  0  0  0  0  0  0  0  0  0  0  0
   -0.9385    1.5475    0.0000 C   0  0  0  0  0  0  0  0  0  0  0  0
   -0.9260    2.3804    0.0000 C   0  0  0  0  0  0  0  0  0  0  0  0
    2.3555   -3.8719    0.0000 C   0  0  0  0  0  0  0  0  0  0  0  0
   -2.3804    1.5475    0.0000 C   0  0  0  0  0  0  0  0  0  0  0  0
   -2.3679    2.3804    0.0000 C   0  0  0  0  0  0  0  0  0  0  0  0
   -1.3486   -2.2188    0.0000 C   0  0  3  0  0  0  0  0  0  0  0  0
   -0.2175    2.7905    0.0000 C   0  0  0  0  0  0  0  0  0  0  0  0
    4.1827   -1.2989    0.0000 C   0  0  0  0  0  0  0  0  0  0  0  0
   -3.0889    1.1373    0.0000 C   0  0  0  0  0  0  0  0  0  0  0  0
   -3.0764    2.7781    0.0000 C   0  0  0  0  0  0  0  0  0  0  0  0
   -3.8098    1.5475    0.0000 C   0  0  0  0  0  0  0  0  0  0  0  0
   -3.7974    2.3679    0.0000 C   0  0  0  0  0  0  0  0  0  0  0  0
    1.6345   -3.4617    0.0000 C   0  0  0  0  0  0  0  0  0  0  0  0
    0.5780    2.5295    0.0000 C   0  0  0  0  0  0  0  0  0  0  0  0
   -0.6277   -2.6414    0.0000 C   0  0  0  0  0  0  0  0  0  0  0  0
    0.5780    3.8719    0.0000 C   0  0  0  0  0  0  0  0  0  0  0  0
    1.0628    3.2007    0.0000 C   0  0  0  0  0  0  0  0  0  0  0  0
   -2.7905   -2.2311    0.0000 C   0  0  0  0  0  0  0  0  0  0  0  0
    4.9160   -1.7091    0.0000 C   0  0  0  0  0  0  0  0  0  0  0  0
    0.9260   -3.8719    0.0000 C   0  0  0  0  0  0  0  0  0  0  0  0
   -0.6277   -3.4617    0.0000 C   0  0  0  0  0  0  0  0  0  0  0  0
    0.2300   -3.4742    0.0000 C   0  0  0  0  0  0  0  0  0  0  0  0
   -4.2324   -2.2063    0.0000 C   0  0  0  0  0  0  0  0  0  0  0  0
   -4.2200   -1.3984    0.0000 C   0  0  0  0  0  0  0  0  0  0  0  0
   -4.9160   -1.8210    0.0000 C   0  0  0  0  0  0  0  0  0  0  0  0
   -4.9160   -2.6414    0.0000 C   0  0  0  0  0  0  0  0  0  0  0  0
  1 37  1  0  0  0  0
  2 38  1  0  0  0  0
  3 33  1  0  0  0  0
  3 42  1  0  0  0  0
  4 19  1  0  0  0  0
  4 34  1  0  0  0  0
  5 19  2  0  0  0  0
 23  6  1  6  0  0  0
  6 27  1  0  0  0  0
  7 20  2  0  0  0  0
  8 26  2  0  0  0  0
  9 44  1  0  0  0  0
  9 49  1  0  0  0  0
 10 44  2  0  0  0  0
 11 16  1  0  0  0  0
 11 20  1  0  0  0  0
 12 21  1  0  0  0  0
 12 25  1  0  0  0  0
 12 26  1  0  0  0  0
 13 27  1  0  0  0  0
 13 30  2  0  0  0  0
 14 28  1  0  0  0  0
 14 31  2  0  0  0  0
 32 15  1  6  0  0  0
 15 44  1  0  0  0  0
 16 17  1  0  0  0  0
 16 18  1  0  0  0  0
 16 19  1  1  0  0  0
 17 18  1  6  0  0  0
 17 22  1  0  0  0  0
 20 21  1  0  0  0  0
 21 24  1  1  0  0  0
 22 29  2  0  0  0  0
 23 24  1  0  0  0  0
 23 25  1  0  0  0  0
 26 32  1  0  0  0  0
 27 28  2  0  0  0  0
 28 33  1  0  0  0  0
 29 39  1  0  0  0  0
 30 31  1  0  0  0  0
 30 35  1  0  0  0  0
 31 36  1  0  0  0  0
 32 41  1  0  0  0  0
 33 40  2  0  0  0  0
 34 45  1  0  0  0  0
 35 37  2  0  0  0  0
 36 38  2  0  0  0  0
 37 38  1  0  0  0  0
 39 46  1  0  0  0  0
 40 43  1  0  0  0  0
 41 47  1  0  0  0  0
 42 43  2  0  0  0  0
 46 48  1  0  0  0  0
 47 48  1  0  0  0  0
 49 50  1  0  0  0  0
 49 51  1  0  0  0  0
 49 52  1  0  0  0  0
M  END
> <PUBCHEM_COMPOUND_ID_TYPE>
0

> <PUBCHEM_TOTAL_CHARGE>
0

> <PUBCHEM_SUBSTANCE_ID>
310942467

> <PUBCHEM_SUBSTANCE_VERSION>
1

> <PUBCHEM_EXT_DATASOURCE_NAME>
4488

> <PUBCHEM_EXT_DATASOURCE_REGID>
SCHEMBL16120503

> <PUBCHEM_SUBSTANCE_COMMENT>
InChI=1S/C37H43Cl2N5O7S/c1-5-49-34(47)37-19-21(37)12-9-7-6-8-10-13-25(42-35(48)51-36(2,3)4)33(46)44-20-22(16-28(44)31(45)43-37)50-32-30(29-14-11-15-52-29)40-26-17-23(38)24(39)18-27(26)41-32/h9,11-12,14-15,17-18,21-22,25,28H,5-8,10,13,16,19-20H2,1-4H3,(H,42,48)(H,43,45)/b12-9-/t21-,22-,25+,28+,37-/m1/s1
InChIKey=DVMRQLMGNRSSSW-AIUNIDPBSA-N

> <PUBCHEM_SUBSTANCE_SYNONYM>
SCHEMBL16120503

> <PUBCHEM_XREF_EXT_ID>
SCHEMBL16120503

> <PUBCHEM_EXT_DATASOURCE_URL>
https://www.surechembl.org/

> <PUBCHEM_EXT_SUBSTANCE_URL>
https://www.surechembl.org/chemical/SCHEMBL16120503

> <PUBCHEM_CID_ASSOCIATIONS>
117609045  1

> <PUBCHEM_COORDINATE_TYPE>
1
3

> <PUBCHEM_BONDANNOTATIONS>
32  15  6
16  19  5
17  18  6
21  24  5
23  6  6

$$$$
