310949033
  -OEChem-07211613022D

 42 48  0     0  0  0  0  0  0999 V2000
   -0.8745   -0.5033    0.0000 F   0  0  0  0  0  0  0  0  0  0  0  0
   -3.7622   -0.5033    0.0000 F   0  0  0  0  0  0  0  0  0  0  0  0
   -3.7787   -2.1534    0.0000 F   0  0  0  0  0  0  0  0  0  0  0  0
   -0.8581   -2.1699    0.0000 F   0  0  0  0  0  0  0  0  0  0  0  0
   -2.3266   -2.9949    0.0000 F   0  0  0  0  0  0  0  0  0  0  0  0
   -4.1252    1.2129    0.0000 F   0  0  0  0  0  0  0  0  0  0  0  0
   -4.5212    2.3184    0.0000 F   0  0  0  0  0  0  0  0  0  0  0  0
   -3.4157    2.6979    0.0000 F   0  0  0  0  0  0  0  0  0  0  0  0
    2.1121    2.5329    0.0000 O   0  0  0  0  0  0  0  0  0  0  0  0
    0.0330    0.3218    0.0000 N   0  0  0  0  0  0  0  0  0  0  0  0
    0.7425    0.7673    0.0000 C   0  0  0  0  0  0  0  0  0  0  0  0
   -1.6171    0.7838    0.0000 C   0  0  0  0  0  0  0  0  0  0  0  0
    1.4025    0.2062    0.0000 C   0  0  0  0  0  0  0  0  0  0  0  0
    0.2145   -0.4373    0.0000 C   0  0  0  0  0  0  0  0  0  0  0  0
    1.0231   -0.5693    0.0000 C   0  0  0  0  0  0  0  0  0  0  0  0
   -2.3102    0.3548    0.0000 C   0  0  0  0  0  0  0  0  0  0  0  0
    2.3762    1.2623    0.0000 C   0  0  0  0  0  0  0  0  0  0  0  0
   -2.3266   -0.4868    0.0000 C   0  0  0  0  0  0  0  0  0  0  0  0
    1.7491    1.8069    0.0000 C   0  0  0  0  0  0  0  0  0  0  0  0
    0.9735    1.5593    0.0000 C   0  0  0  0  0  0  0  0  0  0  0  0
    2.1781    0.4538    0.0000 C   0  0  0  0  0  0  0  0  0  0  0  0
   -1.6006    1.5923    0.0000 C   0  0  0  0  0  0  0  0  0  0  0  0
    3.1022    1.6749    0.0000 C   0  0  0  0  0  0  0  0  0  0  0  0
   -3.0526    0.7673    0.0000 C   0  0  0  0  0  0  0  0  0  0  0  0
   -3.0526    1.5923    0.0000 C   0  0  0  0  0  0  0  0  0  0  0  0
   -1.6171   -0.8828    0.0000 C   0  0  0  0  0  0  0  0  0  0  0  0
   -3.0362   -0.8828    0.0000 C   0  0  0  0  0  0  0  0  0  0  0  0
   -0.2805   -1.1468    0.0000 C   0  0  0  0  0  0  0  0  0  0  0  0
    2.9702    2.4669    0.0000 C   0  0  0  0  0  0  0  0  0  0  0  0
    1.3695   -1.3449    0.0000 C   0  0  0  0  0  0  0  0  0  0  0  0
   -2.3432    1.9719    0.0000 C   0  0  0  0  0  0  0  0  0  0  0  0
   -3.0526   -1.7079    0.0000 C   0  0  0  0  0  0  0  0  0  0  0  0
   -1.6171   -1.7079    0.0000 C   0  0  0  0  0  0  0  0  0  0  0  0
   -2.3266   -2.1204    0.0000 C   0  0  0  0  0  0  0  0  0  0  0  0
   -3.7787    1.9719    0.0000 C   0  0  0  0  0  0  0  0  0  0  0  0
    0.0495   -1.9059    0.0000 C   0  0  0  0  0  0  0  0  0  0  0  0
    0.8581   -1.9719    0.0000 C   0  0  0  0  0  0  0  0  0  0  0  0
    3.9272    1.4273    0.0000 C   0  0  0  0  0  0  0  0  0  0  0  0
   -0.8745    1.9884    0.0000 C   0  0  0  0  0  0  0  0  0  0  0  0
    3.5477    2.9949    0.0000 C   0  0  0  0  0  0  0  0  0  0  0  0
    4.5212    1.9224    0.0000 C   0  0  0  0  0  0  0  0  0  0  0  0
    4.3727    2.7309    0.0000 C   0  0  0  0  0  0  0  0  0  0  0  0
  1 26  1  0  0  0  0
  2 27  1  0  0  0  0
  3 32  1  0  0  0  0
  4 33  1  0  0  0  0
  5 34  1  0  0  0  0
  6 35  1  0  0  0  0
  7 35  1  0  0  0  0
  8 35  1  0  0  0  0
  9 19  1  0  0  0  0
  9 29  1  0  0  0  0
 10 11  1  0  0  0  0
 10 12  1  0  0  0  0
 10 14  1  0  0  0  0
 11 13  2  0  0  0  0
 11 20  1  0  0  0  0
 12 16  2  0  0  0  0
 12 22  1  0  0  0  0
 13 15  1  0  0  0  0
 13 21  1  0  0  0  0
 14 15  2  0  0  0  0
 14 28  1  0  0  0  0
 15 30  1  0  0  0  0
 16 18  1  0  0  0  0
 16 24  1  0  0  0  0
 17 19  1  0  0  0  0
 17 21  2  0  0  0  0
 17 23  1  0  0  0  0
 18 26  2  0  0  0  0
 18 27  1  0  0  0  0
 19 20  2  0  0  0  0
 22 31  2  0  0  0  0
 22 39  1  0  0  0  0
 23 29  2  0  0  0  0
 23 38  1  0  0  0  0
 24 25  2  0  0  0  0
 25 31  1  0  0  0  0
 25 35  1  0  0  0  0
 26 33  1  0  0  0  0
 27 32  2  0  0  0  0
 28 36  2  0  0  0  0
 29 40  1  0  0  0  0
 30 37  2  0  0  0  0
 32 34  1  0  0  0  0
 33 34  2  0  0  0  0
 36 37  1  0  0  0  0
 38 41  2  0  0  0  0
 40 42  2  0  0  0  0
 41 42  1  0  0  0  0
M  END
> <PUBCHEM_COMPOUND_ID_TYPE>
0

> <PUBCHEM_TOTAL_CHARGE>
0

> <PUBCHEM_SUBSTANCE_ID>
310949033

> <PUBCHEM_SUBSTANCE_VERSION>
1

> <PUBCHEM_EXT_DATASOURCE_NAME>
4488

> <PUBCHEM_EXT_DATASOURCE_REGID>
SCHEMBL16127223

> <PUBCHEM_SUBSTANCE_COMMENT>
InChI=1S/C32H15F8NO/c1-14-10-15(32(38,39)40)11-20(25-26(33)28(35)30(37)29(36)27(25)34)31(14)41-21-8-4-2-6-16(21)18-12-19-17-7-3-5-9-23(17)42-24(19)13-22(18)41/h2-13H,1H3
InChIKey=YDXRKROGJFLTLT-UHFFFAOYSA-N

> <PUBCHEM_SUBSTANCE_SYNONYM>
SCHEMBL16127223

> <PUBCHEM_XREF_EXT_ID>
SCHEMBL16127223

> <PUBCHEM_EXT_DATASOURCE_URL>
https://www.surechembl.org/

> <PUBCHEM_EXT_SUBSTANCE_URL>
https://www.surechembl.org/chemical/SCHEMBL16127223

> <PUBCHEM_CID_ASSOCIATIONS>
117614538  1

> <PUBCHEM_COORDINATE_TYPE>
1
3

$$$$
