310943236
  -OEChem-07211613022D

 34 37  0     0  0  0  0  0  0999 V2000
    3.8962    0.3020    0.0000 F   0  0  0  0  0  0  0  0  0  0  0  0
    4.7211    0.3020    0.0000 F   0  0  0  0  0  0  0  0  0  0  0  0
    0.7144   -0.8470    0.0000 O   0  0  0  0  0  0  0  0  0  0  0  0
   -5.0451    1.6424    0.0000 O   0  0  0  0  0  0  0  0  0  0  0  0
   -3.6163    0.8323    0.0000 N   0  0  0  0  0  0  0  0  0  0  0  0
   -2.1727   -0.8323    0.0000 N   0  0  0  0  0  0  0  0  0  0  0  0
    1.4214    0.4051    0.0000 N   0  0  0  0  0  0  0  0  0  0  0  0
   -0.0221    2.0696    0.0000 N   0  0  0  0  0  0  0  0  0  0  0  0
    3.5869   -1.6719    0.0000 N   0  0  0  0  0  0  0  0  0  0  0  0
   -4.3381   -1.2447    0.0000 N   0  0  0  0  0  0  0  0  0  0  0  0
   -1.4509    0.4198    0.0000 C   0  0  0  0  0  0  0  0  0  0  0  0
   -0.7439    0.8323    0.0000 C   0  0  0  0  0  0  0  0  0  0  0  0
   -2.8798    0.4198    0.0000 C   0  0  0  0  0  0  0  0  0  0  0  0
   -2.1875    0.8175    0.0000 C   0  0  0  0  0  0  0  0  0  0  0  0
   -2.8945   -0.4198    0.0000 C   0  0  0  0  0  0  0  0  0  0  0  0
   -0.7291    1.6572    0.0000 C   0  0  0  0  0  0  0  0  0  0  0  0
    0.6997    0.8323    0.0000 C   0  0  0  0  0  0  0  0  0  0  0  0
    0.0073    0.4198    0.0000 C   0  0  0  0  0  0  0  0  0  0  0  0
   -1.4509   -0.4198    0.0000 C   0  0  0  0  0  0  0  0  0  0  0  0
    2.1580   -0.8323    0.0000 C   0  0  0  0  0  0  0  0  0  0  0  0
    3.5721   -0.8323    0.0000 C   0  0  0  0  0  0  0  0  0  0  0  0
    1.4362   -0.4051    0.0000 C   0  0  0  0  0  0  0  0  0  0  0  0
    4.3086   -0.4051    0.0000 C   0  0  0  0  0  0  0  0  0  0  0  0
    0.7144    1.6424    0.0000 C   0  0  0  0  0  0  0  0  0  0  0  0
    2.8651   -0.4198    0.0000 C   0  0  0  0  0  0  0  0  0  0  0  0
   -3.6163    1.6572    0.0000 C   0  0  0  0  0  0  0  0  0  0  0  0
   -4.3233    0.4198    0.0000 C   0  0  0  0  0  0  0  0  0  0  0  0
   -3.6015   -0.8323    0.0000 C   0  0  0  0  0  0  0  0  0  0  0  0
    2.1433   -1.6572    0.0000 C   0  0  0  0  0  0  0  0  0  0  0  0
    2.8945   -2.0696    0.0000 C   0  0  0  0  0  0  0  0  0  0  0  0
   -1.4657    2.0549    0.0000 C   0  0  0  0  0  0  0  0  0  0  0  0
   -4.3528    2.0696    0.0000 C   0  0  0  0  0  0  0  0  0  0  0  0
   -5.0451    0.8175    0.0000 C   0  0  0  0  0  0  0  0  0  0  0  0
    5.0451   -0.8323    0.0000 C   0  0  0  0  0  0  0  0  0  0  0  0
  1 23  1  0  0  0  0
  2 23  1  0  0  0  0
  3 22  2  0  0  0  0
  4 32  1  0  0  0  0
  4 33  1  0  0  0  0
  5 13  1  0  0  0  0
  5 26  1  0  0  0  0
  5 27  1  0  0  0  0
  6 15  2  0  0  0  0
  6 19  1  0  0  0  0
  7 17  1  0  0  0  0
  7 22  1  0  0  0  0
  8 16  1  0  0  0  0
  8 24  2  0  0  0  0
  9 21  1  0  0  0  0
  9 30  2  0  0  0  0
 10 28  3  0  0  0  0
 11 12  1  0  0  0  0
 11 14  1  0  0  0  0
 11 19  2  0  0  0  0
 12 16  2  0  0  0  0
 12 18  1  0  0  0  0
 13 14  2  0  0  0  0
 13 15  1  0  0  0  0
 15 28  1  0  0  0  0
 16 31  1  0  0  0  0
 17 18  2  0  0  0  0
 17 24  1  0  0  0  0
 20 22  1  0  0  0  0
 20 25  1  0  0  0  0
 20 29  2  0  0  0  0
 21 23  1  0  0  0  0
 21 25  2  0  0  0  0
 23 34  1  0  0  0  0
 26 32  1  0  0  0  0
 27 33  1  0  0  0  0
 29 30  1  0  0  0  0
M  END
> <PUBCHEM_COMPOUND_ID_TYPE>
0

> <PUBCHEM_TOTAL_CHARGE>
0

> <PUBCHEM_SUBSTANCE_ID>
310943236

> <PUBCHEM_SUBSTANCE_VERSION>
1

> <PUBCHEM_EXT_DATASOURCE_NAME>
4488

> <PUBCHEM_EXT_DATASOURCE_REGID>
SCHEMBL16121298

> <PUBCHEM_SUBSTANCE_COMMENT>
InChI=1S/C24H22F2N6O2/c1-15-19(17-9-21(20(12-27)30-13-17)32-5-7-34-8-6-32)11-18(14-29-15)31-23(33)16-3-4-28-22(10-16)24(2,25)26/h3-4,9-11,13-14H,5-8H2,1-2H3,(H,31,33)
InChIKey=XKSJFRKBNYMKAP-UHFFFAOYSA-N

> <PUBCHEM_SUBSTANCE_SYNONYM>
SCHEMBL16121298

> <PUBCHEM_XREF_EXT_ID>
SCHEMBL16121298

> <PUBCHEM_EXT_DATASOURCE_URL>
https://www.surechembl.org/

> <PUBCHEM_EXT_SUBSTANCE_URL>
https://www.surechembl.org/chemical/SCHEMBL16121298

> <PUBCHEM_CID_ASSOCIATIONS>
117609661  1

> <PUBCHEM_COORDINATE_TYPE>
1
3

$$$$
