310948100
  -OEChem-07211613022D

 47 52  0     0  0  0  0  0  0999 V2000
   -2.1874   -3.1650    0.0000 S   0  0  0  0  0  0  0  0  0  0  0  0
    0.5849   -3.3252    0.0000 F   0  0  0  0  0  0  0  0  0  0  0  0
   -0.4727    4.2386    0.0000 F   0  0  0  0  0  0  0  0  0  0  0  0
    0.6491    4.3989    0.0000 F   0  0  0  0  0  0  0  0  0  0  0  0
    0.8093    3.2772    0.0000 F   0  0  0  0  0  0  0  0  0  0  0  0
    2.8605   -3.6137    0.0000 F   0  0  0  0  0  0  0  0  0  0  0  0
    2.5720   -2.4758    0.0000 F   0  0  0  0  0  0  0  0  0  0  0  0
    1.7227   -3.8540    0.0000 F   0  0  0  0  0  0  0  0  0  0  0  0
    0.8734    1.7868    0.0000 O   0  0  0  0  0  0  0  0  0  0  0  0
   -2.5880   -2.4919    0.0000 O   0  0  0  0  0  0  0  0  0  0  0  0
   -1.7708   -3.8700    0.0000 O   0  0  0  0  0  0  0  0  0  0  0  0
    1.4343   -2.7483    0.0000 O   0  0  0  0  0  0  0  0  0  0  0  0
   -0.0240   -4.3989    0.0000 O   0  0  0  0  0  0  0  0  0  0  0  0
   -0.7451    1.8189    0.0000 N   0  0  0  0  0  0  0  0  0  0  0  0
    2.0592    1.1297    0.0000 N   0  0  0  0  0  0  0  0  0  0  0  0
   -0.0561    2.3156    0.0000 N   0  0  0  0  0  0  0  0  0  0  0  0
    0.7131    1.0016    0.0000 C   0  0  0  0  0  0  0  0  0  0  0  0
   -0.0080    0.5849    0.0000 C   0  0  0  0  0  0  0  0  0  0  0  0
    1.4503    0.5849    0.0000 C   0  0  0  0  0  0  0  0  0  0  0  0
   -0.7291    0.9856    0.0000 C   0  0  0  0  0  0  0  0  0  0  0  0
    1.7227    1.8990    0.0000 C   0  0  0  0  0  0  0  0  0  0  0  0
   -0.7291   -0.6491    0.0000 C   0  0  0  0  0  0  0  0  0  0  0  0
   -0.0080   -0.2484    0.0000 C   0  0  0  0  0  0  0  0  0  0  0  0
    2.1393    2.6361    0.0000 C   0  0  0  0  0  0  0  0  0  0  0  0
    1.4343   -0.2484    0.0000 C   0  0  0  0  0  0  0  0  0  0  0  0
   -0.7291   -1.4984    0.0000 C   0  0  0  0  0  0  0  0  0  0  0  0
   -1.4503    0.5849    0.0000 C   0  0  0  0  0  0  0  0  0  0  0  0
   -1.4663   -2.7323    0.0000 C   0  0  0  0  0  0  0  0  0  0  0  0
   -1.4503   -0.2484    0.0000 C   0  0  0  0  0  0  0  0  0  0  0  0
   -1.4503   -1.8990    0.0000 C   0  0  0  0  0  0  0  0  0  0  0  0
   -0.7291   -3.1329    0.0000 C   0  0  0  0  0  0  0  0  0  0  0  0
   -0.3125    3.1009    0.0000 C   0  0  0  0  0  0  0  0  0  0  0  0
    2.1393    3.4213    0.0000 C   0  0  0  0  0  0  0  0  0  0  0  0
    2.8445    3.0367    0.0000 C   0  0  0  0  0  0  0  0  0  0  0  0
   -1.4022    2.3156    0.0000 C   0  0  0  0  0  0  0  0  0  0  0  0
   -0.0080   -1.8990    0.0000 C   0  0  0  0  0  0  0  0  0  0  0  0
   -0.0240   -2.7163    0.0000 C   0  0  0  0  0  0  0  0  0  0  0  0
    0.7291   -0.6651    0.0000 C   0  0  0  0  0  0  0  0  0  0  0  0
    2.1554   -0.6651    0.0000 C   0  0  0  0  0  0  0  0  0  0  0  0
   -1.1458    3.1009    0.0000 C   0  0  0  0  0  0  0  0  0  0  0  0
    0.1683    3.7579    0.0000 C   0  0  0  0  0  0  0  0  0  0  0  0
    1.4503   -1.8990    0.0000 C   0  0  0  0  0  0  0  0  0  0  0  0
    0.7291   -1.4984    0.0000 C   0  0  0  0  0  0  0  0  0  0  0  0
    2.1554   -1.4823    0.0000 C   0  0  0  0  0  0  0  0  0  0  0  0
   -0.7291   -3.9662    0.0000 C   0  0  0  0  0  0  0  0  0  0  0  0
   -2.8605   -3.5816    0.0000 C   0  0  0  0  0  0  0  0  0  0  0  0
    2.1554   -3.1810    0.0000 C   0  0  0  0  0  0  0  0  0  0  0  0
  1 10  2  0  0  0  0
  1 11  2  0  0  0  0
  1 28  1  0  0  0  0
  1 46  1  0  0  0  0
  2 37  1  0  0  0  0
  3 41  1  0  0  0  0
  4 41  1  0  0  0  0
  5 41  1  0  0  0  0
  6 47  1  0  0  0  0
  7 47  1  0  0  0  0
  8 47  1  0  0  0  0
  9 17  1  0  0  0  0
  9 21  1  0  0  0  0
 12 42  1  0  0  0  0
 12 47  1  0  0  0  0
 13 45  1  0  0  0  0
 14 16  1  0  0  0  0
 14 20  1  0  0  0  0
 14 35  1  0  0  0  0
 15 19  1  0  0  0  0
 15 21  2  0  0  0  0
 16 32  2  0  0  0  0
 17 18  1  0  0  0  0
 17 19  2  0  0  0  0
 18 20  1  0  0  0  0
 18 23  2  0  0  0  0
 19 25  1  0  0  0  0
 20 27  2  0  0  0  0
 21 24  1  0  0  0  0
 22 23  1  0  0  0  0
 22 26  1  0  0  0  0
 22 29  2  0  0  0  0
 24 33  1  0  0  0  0
 24 34  1  0  0  0  0
 25 38  2  0  0  0  0
 25 39  1  0  0  0  0
 26 30  2  0  0  0  0
 26 36  1  0  0  0  0
 27 29  1  0  0  0  0
 28 30  1  0  0  0  0
 28 31  2  0  0  0  0
 31 37  1  0  0  0  0
 31 45  1  0  0  0  0
 32 40  1  0  0  0  0
 32 41  1  0  0  0  0
 33 34  1  0  0  0  0
 35 40  2  0  0  0  0
 36 37  2  0  0  0  0
 38 43  1  0  0  0  0
 39 44  2  0  0  0  0
 42 43  2  0  0  0  0
 42 44  1  0  0  0  0
M  END
> <PUBCHEM_COMPOUND_ID_TYPE>
0

> <PUBCHEM_TOTAL_CHARGE>
0

> <PUBCHEM_SUBSTANCE_ID>
310948100

> <PUBCHEM_SUBSTANCE_VERSION>
1

> <PUBCHEM_EXT_DATASOURCE_NAME>
4488

> <PUBCHEM_EXT_DATASOURCE_REGID>
SCHEMBL16126276

> <PUBCHEM_SUBSTANCE_COMMENT>
InChI=1S/C31H22F7N3O5S/c1-47(43,44)25-14-19(13-23(32)22(25)15-42)18-6-9-24(41-11-10-26(40-41)30(33,34)35)21(12-18)28-27(39-29(45-28)17-2-3-17)16-4-7-20(8-5-16)46-31(36,37)38/h4-14,17,42H,2-3,15H2,1H3
InChIKey=NFBWFNZOAZWMNZ-UHFFFAOYSA-N

> <PUBCHEM_SUBSTANCE_SYNONYM>
SCHEMBL16126276

> <PUBCHEM_XREF_EXT_ID>
SCHEMBL16126276

> <PUBCHEM_EXT_DATASOURCE_URL>
https://www.surechembl.org/

> <PUBCHEM_EXT_SUBSTANCE_URL>
https://www.surechembl.org/chemical/SCHEMBL16126276

> <PUBCHEM_CID_ASSOCIATIONS>
117613718  1

> <PUBCHEM_COORDINATE_TYPE>
1
3

$$$$
