310947707
  -OEChem-07211613022D

 29 32  0     0  0  0  0  0  0999 V2000
   -1.5702   -0.0082    0.0000 S   0  0  0  0  0  0  0  0  0  0  0  0
   -0.2603   -0.7697    0.0000 O   0  0  0  0  0  0  0  0  0  0  0  0
    5.1022   -1.4842    0.0000 O   0  0  0  0  0  0  0  0  0  0  0  0
    5.1022   -0.0553    0.0000 O   0  0  0  0  0  0  0  0  0  0  0  0
   -1.5702    1.3266    0.0000 N   0  0  0  0  0  0  0  0  0  0  0  0
    0.9772   -0.0553    0.0000 N   0  0  0  0  0  0  0  0  0  0  0  0
   -2.3548    0.2467    0.0000 C   0  0  0  0  0  0  0  0  0  0  0  0
   -2.3548    1.0717    0.0000 C   0  0  0  0  0  0  0  0  0  0  0  0
   -1.0853    0.6592    0.0000 C   0  0  0  0  0  0  0  0  0  0  0  0
   -3.7838    0.2467    0.0000 C   0  0  0  0  0  0  0  0  0  0  0  0
   -3.0693   -0.1658    0.0000 C   0  0  0  0  0  0  0  0  0  0  0  0
   -3.0693    1.4842    0.0000 C   0  0  0  0  0  0  0  0  0  0  0  0
   -3.7838    1.0717    0.0000 C   0  0  0  0  0  0  0  0  0  0  0  0
   -4.4983   -0.1658    0.0000 C   0  0  0  0  0  0  0  0  0  0  0  0
   -0.2603    0.6592    0.0000 C   0  0  0  0  0  0  0  0  0  0  0  0
    0.1522   -0.0553    0.0000 C   0  0  0  0  0  0  0  0  0  0  0  0
   -5.2127    0.2467    0.0000 C   0  0  0  0  0  0  0  0  0  0  0  0
   -4.4983   -0.9908    0.0000 C   0  0  0  0  0  0  0  0  0  0  0  0
    2.2147   -0.7697    0.0000 C   0  0  0  0  0  0  0  0  0  0  0  0
    3.8647   -0.7697    0.0000 C   0  0  0  0  0  0  0  0  0  0  0  0
    1.3897   -0.7697    0.0000 C   0  0  0  0  0  0  0  0  0  0  0  0
   -5.9272   -0.1658    0.0000 C   0  0  0  0  0  0  0  0  0  0  0  0
   -5.2127   -1.4033    0.0000 C   0  0  0  0  0  0  0  0  0  0  0  0
    2.6272   -1.4842    0.0000 C   0  0  0  0  0  0  0  0  0  0  0  0
    2.6272   -0.0553    0.0000 C   0  0  0  0  0  0  0  0  0  0  0  0
    3.4522   -1.4842    0.0000 C   0  0  0  0  0  0  0  0  0  0  0  0
    3.4522   -0.0553    0.0000 C   0  0  0  0  0  0  0  0  0  0  0  0
   -5.9272   -0.9908    0.0000 C   0  0  0  0  0  0  0  0  0  0  0  0
    4.6897   -0.7697    0.0000 C   0  0  0  0  0  0  0  0  0  0  0  0
  1  7  1  0  0  0  0
  1  9  1  0  0  0  0
  2 16  2  0  0  0  0
  3 29  2  0  0  0  0
  4 29  1  0  0  0  0
  5  8  1  0  0  0  0
  5  9  2  0  0  0  0
  6 16  1  0  0  0  0
  6 21  1  0  0  0  0
  7  8  2  0  0  0  0
  7 11  1  0  0  0  0
  8 12  1  0  0  0  0
  9 15  1  0  0  0  0
 10 11  2  0  0  0  0
 10 13  1  0  0  0  0
 10 14  1  0  0  0  0
 12 13  2  0  0  0  0
 14 17  2  0  0  0  0
 14 18  1  0  0  0  0
 15 16  1  0  0  0  0
 17 22  1  0  0  0  0
 18 23  2  0  0  0  0
 19 21  1  6  0  0  0
 19 24  1  0  0  0  0
 19 25  1  0  0  0  0
 20 26  1  0  0  0  0
 20 27  1  0  0  0  0
 20 29  1  1  0  0  0
 22 28  2  0  0  0  0
 23 28  1  0  0  0  0
 24 26  1  0  0  0  0
 25 27  1  0  0  0  0
M  END
> <PUBCHEM_COMPOUND_ID_TYPE>
0

> <PUBCHEM_TOTAL_CHARGE>
0

> <PUBCHEM_SUBSTANCE_ID>
310947707

> <PUBCHEM_SUBSTANCE_VERSION>
1

> <PUBCHEM_EXT_DATASOURCE_NAME>
4488

> <PUBCHEM_EXT_DATASOURCE_REGID>
SCHEMBL16125878

> <PUBCHEM_SUBSTANCE_COMMENT>
InChI=1S/C23H24N2O3S/c26-21(24-14-15-6-8-17(9-7-15)23(27)28)13-22-25-19-11-10-18(12-20(19)29-22)16-4-2-1-3-5-16/h1-5,10-12,15,17H,6-9,13-14H2,(H,24,26)(H,27,28)/t15-,17-
InChIKey=YJBDFPPMRFLUDL-JCNLHEQBSA-N

> <PUBCHEM_SUBSTANCE_SYNONYM>
SCHEMBL16125878

> <PUBCHEM_XREF_EXT_ID>
SCHEMBL16125878

> <PUBCHEM_EXT_DATASOURCE_URL>
https://www.surechembl.org/

> <PUBCHEM_EXT_SUBSTANCE_URL>
https://www.surechembl.org/chemical/SCHEMBL16125878

> <PUBCHEM_CID_ASSOCIATIONS>
68221663  1

> <PUBCHEM_COORDINATE_TYPE>
1
3

> <PUBCHEM_BONDANNOTATIONS>
19  21  6
20  29  5

$$$$
