310941832
  -OEChem-07211613022D

 24 26  0     0  0  0  0  0  0999 V2000
   -0.3024   -1.3885    0.0000 Br  0  0  0  0  0  0  0  0  0  0  0  0
    3.8768   -0.0963    0.0000 S   0  0  0  0  0  0  0  0  0  0  0  0
   -0.8111    0.0687    0.0000 O   0  0  0  0  0  0  0  0  0  0  0  0
    4.4680    0.4949    0.0000 O   0  0  0  0  0  0  0  0  0  0  0  0
    3.6569    0.7149    0.0000 O   0  0  0  0  0  0  0  0  0  0  0  0
    1.6772    0.0413    0.0000 N   0  0  0  0  0  0  0  0  0  0  0  0
    1.8147    1.3885    0.0000 N   0  0  0  0  0  0  0  0  0  0  0  0
    2.5708    1.0449    0.0000 N   0  0  0  0  0  0  0  0  0  0  0  0
    3.0932   -0.3437    0.0000 N   0  0  0  0  0  0  0  0  0  0  0  0
    1.2648    0.7699    0.0000 C   0  0  0  0  0  0  0  0  0  0  0  0
    2.4883    0.2337    0.0000 C   0  0  0  0  0  0  0  0  0  0  0  0
    0.0137    0.0550    0.0000 C   0  0  0  0  0  0  0  0  0  0  0  0
    1.2510   -0.6599    0.0000 C   0  0  0  0  0  0  0  0  0  0  0  0
    0.4399   -0.6599    0.0000 C   0  0  0  0  0  0  0  0  0  0  0  0
    0.4399    0.7836    0.0000 C   0  0  0  0  0  0  0  0  0  0  0  0
   -1.2236   -0.6324    0.0000 C   0  0  0  0  0  0  0  0  0  0  0  0
   -2.0622   -0.6462    0.0000 C   0  0  0  0  0  0  0  0  0  0  0  0
    4.4955   -0.6599    0.0000 C   0  0  0  0  0  0  0  0  0  0  0  0
   -2.4746    0.0687    0.0000 C   0  0  0  0  0  0  0  0  0  0  0  0
   -2.4608   -1.3473    0.0000 C   0  0  0  0  0  0  0  0  0  0  0  0
   -3.6844   -0.6462    0.0000 C   0  0  0  0  0  0  0  0  0  0  0  0
   -3.2719    0.0550    0.0000 C   0  0  0  0  0  0  0  0  0  0  0  0
   -3.2857   -1.3610    0.0000 C   0  0  0  0  0  0  0  0  0  0  0  0
   -4.4955   -0.6324    0.0000 C   0  0  0  0  0  0  0  0  0  0  0  0
  1 14  1  0  0  0  0
  2  4  2  0  0  0  0
  2  5  2  0  0  0  0
  2  9  1  0  0  0  0
  2 18  1  0  0  0  0
  3 12  1  0  0  0  0
  3 16  1  0  0  0  0
  6 10  1  0  0  0  0
  6 11  1  0  0  0  0
  6 13  1  0  0  0  0
  7  8  1  0  0  0  0
  7 10  2  0  0  0  0
  8 11  2  0  0  0  0
  9 11  1  0  0  0  0
 10 15  1  0  0  0  0
 12 14  1  0  0  0  0
 12 15  2  0  0  0  0
 13 14  2  0  0  0  0
 17 16  1  1  0  0  0
 17 19  1  0  0  0  0
 17 20  1  0  0  0  0
 19 22  1  0  0  0  0
 20 23  1  0  0  0  0
 21 22  1  0  0  0  0
 21 23  1  0  0  0  0
 21 24  1  6  0  0  0
M  END
> <PUBCHEM_COMPOUND_ID_TYPE>
0

> <PUBCHEM_TOTAL_CHARGE>
0

> <PUBCHEM_SUBSTANCE_ID>
310941832

> <PUBCHEM_SUBSTANCE_VERSION>
1

> <PUBCHEM_EXT_DATASOURCE_NAME>
4488

> <PUBCHEM_EXT_DATASOURCE_REGID>
SCHEMBL16119864

> <PUBCHEM_SUBSTANCE_COMMENT>
InChI=1S/C15H21BrN4O3S/c1-10-3-5-11(6-4-10)9-23-13-7-14-17-18-15(19-24(2,21)22)20(14)8-12(13)16/h7-8,10-11H,3-6,9H2,1-2H3,(H,18,19)/t10-,11-
InChIKey=GKYVLIALHDZEIF-XYPYZODXSA-N

> <PUBCHEM_SUBSTANCE_SYNONYM>
SCHEMBL16119864

> <PUBCHEM_XREF_EXT_ID>
SCHEMBL16119864

> <PUBCHEM_EXT_DATASOURCE_URL>
https://www.surechembl.org/

> <PUBCHEM_EXT_SUBSTANCE_URL>
https://www.surechembl.org/chemical/SCHEMBL16119864

> <PUBCHEM_CID_ASSOCIATIONS>
117608575  1

> <PUBCHEM_COORDINATE_TYPE>
1
3

> <PUBCHEM_BONDANNOTATIONS>
17  16  5
21  24  6

$$$$
