310945113
  -OEChem-07211613022D

 22 22  0     0  0  0  0  0  0999 V2000
    2.9410    1.7711    0.0000 Br  0  0  0  0  0  0  0  0  0  0  0  0
    0.0101    0.0731    0.0000 O   0  0  0  0  0  0  0  0  0  0  0  0
   -0.8857   -1.7687    0.0000 O   0  0  0  0  0  0  0  0  0  0  0  0
    0.0101    2.5998    0.0000 O   0  5  0  0  0  0  0  0  0  0  0  0
   -0.6772    1.3668    0.0000 O   0  0  0  0  0  0  0  0  0  0  0  0
   -1.3911   -2.5998    0.0000 O   0  0  0  0  0  0  0  0  0  0  0  0
    0.0101    1.7711    0.0000 N   0  3  0  0  0  0  0  0  0  0  0  0
   -2.9410    0.0731    0.0000 N   0  0  0  0  0  0  0  0  0  0  0  0
    0.7378    1.3466    0.0000 C   0  0  0  0  0  0  0  0  0  0  0  0
    0.7176    0.4976    0.0000 C   0  0  0  0  0  0  0  0  0  0  0  0
    1.4857    1.7508    0.0000 C   0  0  0  0  0  0  0  0  0  0  0  0
    2.2133    1.3668    0.0000 C   0  0  0  0  0  0  0  0  0  0  0  0
    1.4857    0.0731    0.0000 C   0  0  0  0  0  0  0  0  0  0  0  0
    2.1931    0.4976    0.0000 C   0  0  0  0  0  0  0  0  0  0  0  0
   -0.8745   -1.2072    0.0000 C   0  0  0  0  0  0  0  0  0  0  0  0
   -0.7782    0.4774    0.0000 C   0  0  0  0  0  0  0  0  0  0  0  0
   -1.3911   -2.0607    0.0000 C   0  0  0  0  0  0  0  0  0  0  0  0
   -1.4654    0.0731    0.0000 C   0  0  0  0  0  0  0  0  0  0  0  0
   -2.2537    0.4774    0.0000 C   0  0  0  0  0  0  0  0  0  0  0  0
   -0.3691   -1.1847    0.0000 C   0  0  0  0  0  0  0  0  0  0  0  0
   -1.3911   -1.2072    0.0000 C   0  0  0  0  0  0  0  0  0  0  0  0
   -0.8857   -0.6568    0.0000 C   0  0  0  0  0  0  0  0  0  0  0  0
  1 12  1  0  0  0  0
  2 10  1  0  0  0  0
  2 16  1  0  0  0  0
  3 15  1  0  0  0  0
  3 17  1  0  0  0  0
  4  7  1  0  0  0  0
  5  7  2  0  0  0  0
  6 17  2  0  0  0  0
  7  9  1  0  0  0  0
  8 17  1  0  0  0  0
  8 19  1  0  0  0  0
  9 10  2  0  0  0  0
  9 11  1  0  0  0  0
 10 13  1  0  0  0  0
 11 12  2  0  0  0  0
 12 14  1  0  0  0  0
 13 14  2  0  0  0  0
 15 20  1  0  0  0  0
 15 21  1  0  0  0  0
 15 22  1  0  0  0  0
 16 18  1  0  0  0  0
 18 19  1  0  0  0  0
M  CHG  2   4  -1   7   1
M  END
> <PUBCHEM_COMPOUND_ID_TYPE>
0

> <PUBCHEM_TOTAL_CHARGE>
0

> <PUBCHEM_SUBSTANCE_ID>
310945113

> <PUBCHEM_SUBSTANCE_VERSION>
1

> <PUBCHEM_EXT_DATASOURCE_NAME>
4488

> <PUBCHEM_EXT_DATASOURCE_REGID>
SCHEMBL16123203

> <PUBCHEM_SUBSTANCE_COMMENT>
InChI=1S/C14H19BrN2O5/c1-14(2,3)22-13(18)16-7-4-8-21-12-6-5-10(15)9-11(12)17(19)20/h5-6,9H,4,7-8H2,1-3H3,(H,16,18)
InChIKey=HCZIWWGZBDPNQK-UHFFFAOYSA-N

> <PUBCHEM_SUBSTANCE_SYNONYM>
SCHEMBL16123203

> <PUBCHEM_XREF_EXT_ID>
SCHEMBL16123203

> <PUBCHEM_EXT_DATASOURCE_URL>
https://www.surechembl.org/

> <PUBCHEM_EXT_SUBSTANCE_URL>
https://www.surechembl.org/chemical/SCHEMBL16123203

> <PUBCHEM_CID_ASSOCIATIONS>
117611208  1

> <PUBCHEM_COORDINATE_TYPE>
1
3

$$$$
