310939231
  -OEChem-07211613022D

 22 24  0     1  0  0  0  0  0999 V2000
    0.4079    0.9971    0.0000 Cl  0  0  0  0  0  0  0  0  0  0  0  0
   -1.0210   -1.4779    0.0000 F   0  0  0  0  0  0  0  0  0  0  0  0
    0.4079   -0.6529    0.0000 O   0  0  0  0  0  0  0  0  0  0  0  0
    3.1644    1.1367    0.0000 O   0  0  0  0  0  0  0  0  0  0  0  0
   -3.1644   -0.2404    0.0000 N   0  0  0  0  0  0  0  0  0  0  0  0
   -0.3065   -0.2404    0.0000 C   0  0  0  0  0  0  0  0  0  0  0  0
   -1.0210   -0.6529    0.0000 C   0  0  0  0  0  0  0  0  0  0  0  0
   -1.7355   -0.2404    0.0000 C   0  0  0  0  0  0  0  0  0  0  0  0
   -0.3065    0.5846    0.0000 C   0  0  0  0  0  0  0  0  0  0  0  0
    1.1224   -0.2404    0.0000 C   0  0  0  0  0  0  0  0  0  0  0  0
    1.8369    0.9971    0.0000 C   0  0  0  0  0  0  0  0  0  0  0  0
    2.5513    0.5846    0.0000 C   0  0  0  0  0  0  0  0  0  0  0  0
    1.1224    0.5846    0.0000 C   0  0  0  0  0  0  0  0  0  0  0  0
   -1.7355    0.5846    0.0000 C   0  0  0  0  0  0  0  0  0  0  0  0
   -2.4500   -0.6529    0.0000 C   0  0  3  0  0  0  0  0  0  0  0  0
   -1.0210    0.9971    0.0000 C   0  0  0  0  0  0  0  0  0  0  0  0
    1.8369   -0.6529    0.0000 C   0  0  0  0  0  0  0  0  0  0  0  0
    2.5513   -0.2404    0.0000 C   0  0  0  0  0  0  0  0  0  0  0  0
    2.0084    1.8041    0.0000 C   0  0  0  0  0  0  0  0  0  0  0  0
    2.8289    1.8904    0.0000 C   0  0  0  0  0  0  0  0  0  0  0  0
   -2.4500   -1.4779    0.0000 C   0  0  0  0  0  0  0  0  0  0  0  0
   -3.1644   -1.8904    0.0000 C   0  0  0  0  0  0  0  0  0  0  0  0
  1  9  1  0  0  0  0
  2  7  1  0  0  0  0
  3  6  1  0  0  0  0
  3 10  1  0  0  0  0
  4 12  1  0  0  0  0
  4 20  1  0  0  0  0
 15  5  1  1  0  0  0
  6  7  1  0  0  0  0
  6  9  2  0  0  0  0
  7  8  2  0  0  0  0
  8 14  1  0  0  0  0
  8 15  1  0  0  0  0
  9 16  1  0  0  0  0
 10 13  2  0  0  0  0
 10 17  1  0  0  0  0
 11 12  2  0  0  0  0
 11 13  1  0  0  0  0
 11 19  1  0  0  0  0
 12 18  1  0  0  0  0
 14 16  2  0  0  0  0
 15 21  1  0  0  0  0
 17 18  2  0  0  0  0
 19 20  1  0  0  0  0
 21 22  1  0  0  0  0
M  END
> <PUBCHEM_COMPOUND_ID_TYPE>
0

> <PUBCHEM_TOTAL_CHARGE>
0

> <PUBCHEM_SUBSTANCE_ID>
310939231

> <PUBCHEM_SUBSTANCE_VERSION>
1

> <PUBCHEM_EXT_DATASOURCE_NAME>
4488

> <PUBCHEM_EXT_DATASOURCE_REGID>
SCHEMBL16117152

> <PUBCHEM_SUBSTANCE_COMMENT>
InChI=1S/C17H17ClFNO2/c1-2-14(20)12-4-5-13(18)17(16(12)19)22-11-3-6-15-10(9-11)7-8-21-15/h3-6,9,14H,2,7-8,20H2,1H3/t14-/m1/s1
InChIKey=MSNVVVBQDDBHMU-CQSZACIVSA-N

> <PUBCHEM_SUBSTANCE_SYNONYM>
SCHEMBL16117152

> <PUBCHEM_XREF_EXT_ID>
SCHEMBL16117152

> <PUBCHEM_EXT_DATASOURCE_URL>
https://www.surechembl.org/

> <PUBCHEM_EXT_SUBSTANCE_URL>
https://www.surechembl.org/chemical/SCHEMBL16117152

> <PUBCHEM_CID_ASSOCIATIONS>
117606579  1

> <PUBCHEM_COORDINATE_TYPE>
1
3

> <PUBCHEM_BONDANNOTATIONS>
15  5  5

$$$$
