310934270
  -OEChem-07211613022D

 31 34  0     0  0  0  0  0  0999 V2000
    0.0000   -5.7967    0.0000 O   0  0  0  0  0  0  0  0  0  0  0  0
    3.1956   -7.1344    0.0000 O   0  0  0  0  0  0  0  0  0  0  0  0
    3.4929   -4.1246    0.0000 N   0  0  0  0  0  0  0  0  0  0  0  0
    3.4929   -2.7869    0.0000 N   0  0  0  0  0  0  0  0  0  0  0  0
    4.7934   -3.4557    0.0000 N   0  0  0  0  0  0  0  0  0  0  0  0
    2.7125   -3.8645    0.0000 C   0  0  0  0  0  0  0  0  0  0  0  0
    2.0437   -4.3475    0.0000 C   0  0  0  0  0  0  0  0  0  0  0  0
    2.8240   -4.6819    0.0000 C   0  0  0  0  0  0  0  0  0  0  0  0
    2.7125   -3.0470    0.0000 C   0  0  0  0  0  0  0  0  0  0  0  0
    3.9388   -3.4557    0.0000 C   0  0  0  0  0  0  0  0  0  0  0  0
    2.1180   -5.1650    0.0000 C   0  0  0  0  0  0  0  0  0  0  0  0
    3.6043   -4.9792    0.0000 C   0  0  0  0  0  0  0  0  0  0  0  0
    1.2634   -4.0131    0.0000 C   0  0  0  0  0  0  0  0  0  0  0  0
    2.3410   -5.3879    0.0000 C   0  0  0  0  0  0  0  0  0  0  0  0
    3.7158   -2.0065    0.0000 C   0  0  0  0  0  0  0  0  0  0  0  0
    3.1956   -1.4120    0.0000 C   0  0  0  0  0  0  0  0  0  0  0  0
    1.4492   -5.6480    0.0000 C   0  0  0  0  0  0  0  0  0  0  0  0
    3.7158   -5.7967    0.0000 C   0  0  0  0  0  0  0  0  0  0  0  0
    0.5945   -4.4961    0.0000 C   0  0  0  0  0  0  0  0  0  0  0  0
    2.3038   -6.0196    0.0000 C   0  0  0  0  0  0  0  0  0  0  0  0
    0.6688   -5.3136    0.0000 C   0  0  0  0  0  0  0  0  0  0  0  0
    3.0470   -6.3169    0.0000 C   0  0  0  0  0  0  0  0  0  0  0  0
    3.4186   -0.6317    0.0000 C   0  0  0  0  0  0  0  0  0  0  0  0
    2.3781   -1.5606    0.0000 C   0  0  0  0  0  0  0  0  0  0  0  0
    1.8208   -0.9661    0.0000 C   0  0  0  0  0  0  0  0  0  0  0  0
    2.8983    0.0000    0.0000 C   0  0  0  0  0  0  0  0  0  0  0  0
    2.0809   -0.1486    0.0000 C   0  0  0  0  0  0  0  0  0  0  0  0
    4.2360   -0.4459    0.0000 C   0  0  0  0  0  0  0  0  0  0  0  0
    1.0033   -1.1147    0.0000 C   0  0  0  0  0  0  0  0  0  0  0  0
    0.1115   -6.6142    0.0000 C   0  0  0  0  0  0  0  0  0  0  0  0
    3.9388   -7.4316    0.0000 C   0  0  0  0  0  0  0  0  0  0  0  0
  1 21  1  0  0  0  0
  1 30  1  0  0  0  0
  2 22  1  0  0  0  0
  2 31  1  0  0  0  0
  3  6  1  0  0  0  0
  3 10  1  0  0  0  0
  4  9  1  0  0  0  0
  4 10  1  0  0  0  0
  4 15  1  0  0  0  0
  5 10  2  3  0  0  0
  6  7  1  0  0  0  0
  6  8  1  0  0  0  0
  6  9  1  0  0  0  0
  7 11  2  0  0  0  0
  7 13  1  0  0  0  0
  8 12  2  0  0  0  0
  8 14  1  0  0  0  0
 11 17  1  0  0  0  0
 12 18  1  0  0  0  0
 13 19  2  0  0  0  0
 14 20  2  0  0  0  0
 15 16  1  0  0  0  0
 16 23  1  0  0  0  0
 16 24  2  0  0  0  0
 17 21  2  0  0  0  0
 18 22  2  0  0  0  0
 19 21  1  0  0  0  0
 20 22  1  0  0  0  0
 23 26  2  0  0  0  0
 23 28  1  0  0  0  0
 24 25  1  0  0  0  0
 25 27  2  0  0  0  0
 25 29  1  0  0  0  0
 26 27  1  0  0  0  0
M  END
> <PUBCHEM_COMPOUND_ID_TYPE>
0

> <PUBCHEM_TOTAL_CHARGE>
0

> <PUBCHEM_SUBSTANCE_ID>
310934270

> <PUBCHEM_SUBSTANCE_VERSION>
1

> <PUBCHEM_EXT_DATASOURCE_NAME>
4488

> <PUBCHEM_EXT_DATASOURCE_REGID>
SCHEMBL16111728

> <PUBCHEM_SUBSTANCE_COMMENT>
InChI=1S/C26H29N3O2/c1-18-5-6-19(2)20(15-18)16-29-17-26(28-25(29)27,21-7-11-23(30-3)12-8-21)22-9-13-24(31-4)14-10-22/h5-15H,16-17H2,1-4H3,(H2,27,28)
InChIKey=SNOICDYWOHJSAD-UHFFFAOYSA-N

> <PUBCHEM_SUBSTANCE_SYNONYM>
SCHEMBL16111728

> <PUBCHEM_XREF_EXT_ID>
SCHEMBL16111728

> <PUBCHEM_EXT_DATASOURCE_URL>
https://www.surechembl.org/

> <PUBCHEM_EXT_SUBSTANCE_URL>
https://www.surechembl.org/chemical/SCHEMBL16111728

> <PUBCHEM_CID_ASSOCIATIONS>
117602524  1

> <PUBCHEM_COORDINATE_TYPE>
1
3

$$$$
