310937025
  -OEChem-07211613022D

 24 27  0     0  0  0  0  0  0999 V2000
    1.5572   -2.9297    0.0000 S   0  0  0  0  0  0  0  0  0  0  0  0
    1.9003   -2.1907    0.0000 O   0  0  0  0  0  0  0  0  0  0  0  0
    1.2405   -3.6951    0.0000 O   0  0  0  0  0  0  0  0  0  0  0  0
    5.6482   -2.2171    0.0000 O   0  0  0  0  0  0  0  0  0  0  0  0
    3.8270   -3.9062    0.0000 N   0  0  0  0  0  0  0  0  0  0  0  0
    4.4077   -1.8212    0.0000 N   0  0  0  0  0  0  0  0  0  0  0  0
    5.1731   -2.9033    0.0000 N   0  0  0  0  0  0  0  0  0  0  0  0
    2.3226   -3.2728    0.0000 C   0  0  0  0  0  0  0  0  0  0  0  0
    2.4282   -4.0646    0.0000 C   0  0  0  0  0  0  0  0  0  0  0  0
    0.8182   -2.6130    0.0000 C   0  0  0  0  0  0  0  0  0  0  0  0
    3.7215   -3.1144    0.0000 C   0  0  0  0  0  0  0  0  0  0  0  0
    1.7420   -4.5397    0.0000 C   0  0  0  0  0  0  0  0  0  0  0  0
    2.9825   -2.7450    0.0000 C   0  0  0  0  0  0  0  0  0  0  0  0
    4.4077   -2.6393    0.0000 C   0  0  0  0  0  0  0  0  0  0  0  0
    0.0000   -2.7185    0.0000 C   0  0  0  0  0  0  0  0  0  0  0  0
    0.3167   -1.9531    0.0000 C   0  0  0  0  0  0  0  0  0  0  0  0
    3.1672   -4.4077    0.0000 C   0  0  0  0  0  0  0  0  0  0  0  0
    5.1731   -1.5572    0.0000 C   0  0  0  0  0  0  0  0  0  0  0  0
    1.3989   -5.2787    0.0000 C   0  0  0  0  0  0  0  0  0  0  0  0
    0.9238   -4.6189    0.0000 C   0  0  0  0  0  0  0  0  0  0  0  0
    5.4371   -0.7654    0.0000 C   0  0  0  0  0  0  0  0  0  0  0  0
    6.2289   -1.0294    0.0000 C   0  0  0  0  0  0  0  0  0  0  0  0
    5.7010    0.0000    0.0000 C   0  0  0  0  0  0  0  0  0  0  0  0
    4.6717   -0.5279    0.0000 C   0  0  0  0  0  0  0  0  0  0  0  0
  1  2  2  0  0  0  0
  1  3  2  0  0  0  0
  1  8  1  0  0  0  0
  1 10  1  0  0  0  0
  4  7  1  0  0  0  0
  4 18  1  0  0  0  0
  5 11  1  0  0  0  0
  5 17  2  0  0  0  0
  6 14  1  0  0  0  0
  6 18  2  0  0  0  0
  7 14  2  0  0  0  0
  8  9  2  0  0  0  0
  8 13  1  0  0  0  0
  9 12  1  0  0  0  0
  9 17  1  0  0  0  0
 10 15  1  0  0  0  0
 10 16  1  0  0  0  0
 11 13  2  0  0  0  0
 11 14  1  0  0  0  0
 12 19  1  0  0  0  0
 12 20  1  0  0  0  0
 15 16  1  0  0  0  0
 18 21  1  0  0  0  0
 19 20  1  0  0  0  0
 21 22  1  0  0  0  0
 21 23  1  0  0  0  0
 21 24  1  0  0  0  0
M  END
> <PUBCHEM_COMPOUND_ID_TYPE>
0

> <PUBCHEM_TOTAL_CHARGE>
0

> <PUBCHEM_SUBSTANCE_ID>
310937025

> <PUBCHEM_SUBSTANCE_VERSION>
1

> <PUBCHEM_EXT_DATASOURCE_NAME>
4488

> <PUBCHEM_EXT_DATASOURCE_REGID>
SCHEMBL16114734

> <PUBCHEM_SUBSTANCE_COMMENT>
InChI=1S/C17H21N3O3S/c1-17(2,3)16-19-15(20-23-16)13-8-14(24(21,22)11-6-7-11)12(9-18-13)10-4-5-10/h8-11H,4-7H2,1-3H3
InChIKey=MEVFOUJZZVFDRI-UHFFFAOYSA-N

> <PUBCHEM_SUBSTANCE_SYNONYM>
SCHEMBL16114734

> <PUBCHEM_XREF_EXT_ID>
SCHEMBL16114734

> <PUBCHEM_EXT_DATASOURCE_URL>
https://www.surechembl.org/

> <PUBCHEM_EXT_SUBSTANCE_URL>
https://www.surechembl.org/chemical/SCHEMBL16114734

> <PUBCHEM_CID_ASSOCIATIONS>
86276054  1

> <PUBCHEM_COORDINATE_TYPE>
1
3

$$$$
