310940417
  -OEChem-07211613022D

 15 16  0     0  0  0  0  0  0999 V2000
    1.3408    0.0415    0.0000 O   0  0  0  0  0  0  0  0  0  0  0  0
   -0.3732    0.2765    0.0000 N   0  0  0  0  0  0  0  0  0  0  0  0
    2.8199    0.9538    0.0000 N   0  0  0  0  0  0  0  0  0  0  0  0
    0.7879   -0.5668    0.0000 C   0  0  0  0  0  0  0  0  0  0  0  0
    2.1150   -0.2765    0.0000 C   0  0  0  0  0  0  0  0  0  0  0  0
    1.2165   -1.2717    0.0000 C   0  0  0  0  0  0  0  0  0  0  0  0
    2.0044   -1.1059    0.0000 C   0  0  0  0  0  0  0  0  0  0  0  0
   -0.0276   -0.4562    0.0000 C   0  0  0  0  0  0  0  0  0  0  0  0
   -1.1750    0.3871    0.0000 C   0  0  0  0  0  0  0  0  0  0  0  0
    2.8199    0.1382    0.0000 C   0  0  0  0  0  0  0  0  0  0  0  0
   -1.4791    1.1335    0.0000 C   0  0  0  0  0  0  0  0  0  0  0  0
   -1.7003   -0.2626    0.0000 C   0  0  0  0  0  0  0  0  0  0  0  0
   -2.2946    1.2717    0.0000 C   0  0  0  0  0  0  0  0  0  0  0  0
   -2.5297   -0.1244    0.0000 C   0  0  0  0  0  0  0  0  0  0  0  0
   -2.8199    0.6220    0.0000 C   0  0  0  0  0  0  0  0  0  0  0  0
  1  4  1  0  0  0  0
  1  5  1  0  0  0  0
  2  8  2  0  0  0  0
  2  9  1  0  0  0  0
  3 10  2  3  0  0  0
  4  6  2  0  0  0  0
  4  8  1  0  0  0  0
  5  7  2  0  0  0  0
  5 10  1  0  0  0  0
  6  7  1  0  0  0  0
  9 11  2  0  0  0  0
  9 12  1  0  0  0  0
 11 13  1  0  0  0  0
 12 14  2  0  0  0  0
 13 15  2  0  0  0  0
 14 15  1  0  0  0  0
M  END
> <PUBCHEM_COMPOUND_ID_TYPE>
0

> <PUBCHEM_TOTAL_CHARGE>
0

> <PUBCHEM_SUBSTANCE_ID>
310940417

> <PUBCHEM_SUBSTANCE_VERSION>
1

> <PUBCHEM_EXT_DATASOURCE_NAME>
4488

> <PUBCHEM_EXT_DATASOURCE_REGID>
SCHEMBL16118365

> <PUBCHEM_SUBSTANCE_COMMENT>
InChI=1S/C12H10N2O/c13-8-11-6-7-12(15-11)9-14-10-4-2-1-3-5-10/h1-9,13H/b13-8?,14-9+
InChIKey=UURWNBYBMYMVFS-MYHHFUCRSA-N

> <PUBCHEM_SUBSTANCE_SYNONYM>
SCHEMBL16118365

> <PUBCHEM_XREF_EXT_ID>
SCHEMBL16118365

> <PUBCHEM_EXT_DATASOURCE_URL>
https://www.surechembl.org/

> <PUBCHEM_EXT_SUBSTANCE_URL>
https://www.surechembl.org/chemical/SCHEMBL16118365

> <PUBCHEM_CID_ASSOCIATIONS>
117607442  1

> <PUBCHEM_COORDINATE_TYPE>
1
3

> <PUBCHEM_BONDANNOTATIONS>
2  9  3

$$$$
