310947715
  -OEChem-07211613022D

 28 31  0     1  0  0  0  0  0999 V2000
   -2.3953    1.0461    0.0000 Cl  0  0  0  0  0  0  0  0  0  0  0  0
   -0.8962   -1.2714    0.0000 S   0  0  0  0  0  0  0  0  0  0  0  0
    5.2532    2.6664    0.0000 F   0  0  0  0  0  0  0  0  0  0  0  0
    0.4137    0.8250    0.0000 O   0  0  0  0  0  0  0  0  0  0  0  0
    3.3012    0.1105    0.0000 O   0  0  0  0  0  0  0  0  0  0  0  0
   -0.8962    0.0635    0.0000 N   0  0  0  0  0  0  0  0  0  0  0  0
    3.3012    1.5395    0.0000 N   0  0  0  0  0  0  0  0  0  0  0  0
    1.6512    0.1105    0.0000 N   0  0  0  0  0  0  0  0  0  0  0  0
   -1.6808   -0.1914    0.0000 C   0  0  0  0  0  0  0  0  0  0  0  0
   -1.6808   -1.0164    0.0000 C   0  0  0  0  0  0  0  0  0  0  0  0
   -2.3953    0.2211    0.0000 C   0  0  0  0  0  0  0  0  0  0  0  0
   -0.4113   -0.6039    0.0000 C   0  0  0  0  0  0  0  0  0  0  0  0
   -3.1098   -1.0164    0.0000 C   0  0  0  0  0  0  0  0  0  0  0  0
   -2.3953   -1.4289    0.0000 C   0  0  0  0  0  0  0  0  0  0  0  0
   -3.1098   -0.1914    0.0000 C   0  0  0  0  0  0  0  0  0  0  0  0
   -3.8242   -1.4289    0.0000 C   0  0  0  0  0  0  0  0  0  0  0  0
    4.1262    1.5395    0.0000 C   0  0  3  0  0  0  0  0  0  0  0  0
    0.4137   -0.6039    0.0000 C   0  0  0  0  0  0  0  0  0  0  0  0
    4.8407    1.9520    0.0000 C   0  0  3  0  0  0  0  0  0  0  0  0
    4.8407    1.1270    0.0000 C   0  0  0  0  0  0  0  0  0  0  0  0
    0.8262    0.1105    0.0000 C   0  0  0  0  0  0  0  0  0  0  0  0
   -4.5387   -1.0164    0.0000 C   0  0  0  0  0  0  0  0  0  0  0  0
   -3.8242   -2.2539    0.0000 C   0  0  0  0  0  0  0  0  0  0  0  0
    2.8887    0.8250    0.0000 C   0  0  0  0  0  0  0  0  0  0  0  0
    2.0637    0.8250    0.0000 C   0  0  0  0  0  0  0  0  0  0  0  0
   -5.2532   -1.4289    0.0000 C   0  0  0  0  0  0  0  0  0  0  0  0
   -4.5387   -2.6664    0.0000 C   0  0  0  0  0  0  0  0  0  0  0  0
   -5.2532   -2.2539    0.0000 C   0  0  0  0  0  0  0  0  0  0  0  0
  1 11  1  0  0  0  0
  2 10  1  0  0  0  0
  2 12  1  0  0  0  0
 19  3  1  6  0  0  0
  4 21  2  0  0  0  0
  5 24  2  0  0  0  0
  6  9  1  0  0  0  0
  6 12  2  0  0  0  0
 17  7  1  6  0  0  0
  7 24  1  0  0  0  0
  8 21  1  0  0  0  0
  8 25  1  0  0  0  0
  9 10  2  0  0  0  0
  9 11  1  0  0  0  0
 10 14  1  0  0  0  0
 11 15  2  0  0  0  0
 12 18  1  0  0  0  0
 13 14  2  0  0  0  0
 13 15  1  0  0  0  0
 13 16  1  0  0  0  0
 16 22  2  0  0  0  0
 16 23  1  0  0  0  0
 17 19  1  0  0  0  0
 17 20  1  0  0  0  0
 18 21  1  0  0  0  0
 19 20  1  0  0  0  0
 22 26  1  0  0  0  0
 23 27  2  0  0  0  0
 24 25  1  0  0  0  0
 26 28  2  0  0  0  0
 27 28  1  0  0  0  0
M  END
> <PUBCHEM_COMPOUND_ID_TYPE>
0

> <PUBCHEM_TOTAL_CHARGE>
0

> <PUBCHEM_SUBSTANCE_ID>
310947715

> <PUBCHEM_SUBSTANCE_VERSION>
1

> <PUBCHEM_EXT_DATASOURCE_NAME>
4488

> <PUBCHEM_EXT_DATASOURCE_REGID>
SCHEMBL16125886

> <PUBCHEM_SUBSTANCE_COMMENT>
InChI=1S/C20H17ClFN3O2S/c21-13-6-12(11-4-2-1-3-5-11)7-16-20(13)25-19(28-16)9-17(26)23-10-18(27)24-15-8-14(15)22/h1-7,14-15H,8-10H2,(H,23,26)(H,24,27)/t14-,15+/m1/s1
InChIKey=FLBGPFWRGQSLRV-CABCVRRESA-N

> <PUBCHEM_SUBSTANCE_SYNONYM>
SCHEMBL16125886

> <PUBCHEM_XREF_EXT_ID>
SCHEMBL16125886

> <PUBCHEM_EXT_DATASOURCE_URL>
https://www.surechembl.org/

> <PUBCHEM_EXT_SUBSTANCE_URL>
https://www.surechembl.org/chemical/SCHEMBL16125886

> <PUBCHEM_CID_ASSOCIATIONS>
117613421  1

> <PUBCHEM_COORDINATE_TYPE>
1
3

> <PUBCHEM_BONDANNOTATIONS>
19  3  6
17  7  6

$$$$
