310931018
  -OEChem-07211613022D

 35 38  0     0  0  0  0  0  0999 V2000
   -2.8579    0.8250    0.0000 F   0  0  0  0  0  0  0  0  0  0  0  0
   -3.5724    0.4125    0.0000 F   0  0  0  0  0  0  0  0  0  0  0  0
   -3.5724   -0.4125    0.0000 F   0  0  0  0  0  0  0  0  0  0  0  0
   -3.0316    3.4789    0.0000 F   0  0  0  0  0  0  0  0  0  0  0  0
   -2.5013    2.8470    0.0000 F   0  0  0  0  0  0  0  0  0  0  0  0
   -2.7495    4.2542    0.0000 F   0  0  0  0  0  0  0  0  0  0  0  0
    0.6637   -0.2184    0.0000 O   0  0  0  0  0  0  0  0  0  0  0  0
   -2.1434   -0.4125    0.0000 O   0  0  0  0  0  0  0  0  0  0  0  0
   -1.4067    3.7654    0.0000 O   0  0  0  0  0  0  0  0  0  0  0  0
    1.8931    0.6108    0.0000 N   0  0  0  0  0  0  0  0  0  0  0  0
    1.3079    1.8106    0.0000 N   0  0  0  0  0  0  0  0  0  0  0  0
    2.7508    1.8358    0.0000 N   0  0  0  0  0  0  0  0  0  0  0  0
    0.7144    1.2375    0.0000 C   0  0  0  0  0  0  0  0  0  0  0  0
    1.0762    0.4960    0.0000 C   0  0  0  0  0  0  0  0  0  0  0  0
    0.0000    0.8250    0.0000 C   0  0  0  0  0  0  0  0  0  0  0  0
    0.1842    1.8695    0.0000 C   0  0  0  0  0  0  0  0  0  0  0  0
    2.0363    1.4233    0.0000 C   0  0  0  0  0  0  0  0  0  0  0  0
    2.4662    0.0174    0.0000 C   0  0  0  0  0  0  0  0  0  0  0  0
   -0.7144    1.2375    0.0000 C   0  0  0  0  0  0  0  0  0  0  0  0
    0.4664    2.6447    0.0000 C   0  0  0  0  0  0  0  0  0  0  0  0
    0.0000    0.0000    0.0000 C   0  0  0  0  0  0  0  0  0  0  0  0
   -0.6283    1.7263    0.0000 C   0  0  0  0  0  0  0  0  0  0  0  0
   -1.4290    0.8250    0.0000 C   0  0  0  0  0  0  0  0  0  0  0  0
   -0.0639    3.2767    0.0000 C   0  0  0  0  0  0  0  0  0  0  0  0
   -0.7144   -0.4125    0.0000 C   0  0  0  0  0  0  0  0  0  0  0  0
   -1.1586    2.3582    0.0000 C   0  0  0  0  0  0  0  0  0  0  0  0
   -1.4290    0.0000    0.0000 C   0  0  0  0  0  0  0  0  0  0  0  0
   -0.8764    3.1335    0.0000 C   0  0  0  0  0  0  0  0  0  0  0  0
    3.2667    0.2169    0.0000 C   0  0  0  0  0  0  0  0  0  0  0  0
    2.2388   -0.7757    0.0000 C   0  0  0  0  0  0  0  0  0  0  0  0
    3.8398   -0.3765    0.0000 C   0  0  0  0  0  0  0  0  0  0  0  0
    2.8119   -1.3691    0.0000 C   0  0  0  0  0  0  0  0  0  0  0  0
    3.6124   -1.1696    0.0000 C   0  0  0  0  0  0  0  0  0  0  0  0
   -2.8579    0.0000    0.0000 C   0  0  0  0  0  0  0  0  0  0  0  0
   -2.2192    3.6222    0.0000 C   0  0  0  0  0  0  0  0  0  0  0  0
  1 34  1  0  0  0  0
  2 34  1  0  0  0  0
  3 34  1  0  0  0  0
  4 35  1  0  0  0  0
  5 35  1  0  0  0  0
  6 35  1  0  0  0  0
  7 14  2  0  0  0  0
  8 27  1  0  0  0  0
  8 34  1  0  0  0  0
  9 28  1  0  0  0  0
  9 35  1  0  0  0  0
 10 14  1  0  0  0  0
 10 17  1  0  0  0  0
 10 18  1  0  0  0  0
 11 13  1  0  0  0  0
 11 17  1  0  0  0  0
 12 17  2  3  0  0  0
 13 14  1  0  0  0  0
 13 15  1  0  0  0  0
 13 16  1  0  0  0  0
 15 19  2  0  0  0  0
 15 21  1  0  0  0  0
 16 20  2  0  0  0  0
 16 22  1  0  0  0  0
 18 29  1  0  0  0  0
 18 30  1  0  0  0  0
 19 23  1  0  0  0  0
 20 24  1  0  0  0  0
 21 25  2  0  0  0  0
 22 26  2  0  0  0  0
 23 27  2  0  0  0  0
 24 28  2  0  0  0  0
 25 27  1  0  0  0  0
 26 28  1  0  0  0  0
 29 31  1  0  0  0  0
 30 32  1  0  0  0  0
 31 33  1  0  0  0  0
 32 33  1  0  0  0  0
M  END
> <PUBCHEM_COMPOUND_ID_TYPE>
0

> <PUBCHEM_TOTAL_CHARGE>
0

> <PUBCHEM_SUBSTANCE_ID>
310931018

> <PUBCHEM_SUBSTANCE_VERSION>
1

> <PUBCHEM_EXT_DATASOURCE_NAME>
4488

> <PUBCHEM_EXT_DATASOURCE_REGID>
SCHEMBL16108318

> <PUBCHEM_SUBSTANCE_COMMENT>
InChI=1S/C23H21F6N3O3/c24-22(25,26)34-17-10-6-14(7-11-17)21(15-8-12-18(13-9-15)35-23(27,28)29)19(33)32(20(30)31-21)16-4-2-1-3-5-16/h6-13,16H,1-5H2,(H2,30,31)
InChIKey=MHRLFXGXDYDFIW-UHFFFAOYSA-N

> <PUBCHEM_SUBSTANCE_SYNONYM>
SCHEMBL16108318

> <PUBCHEM_XREF_EXT_ID>
SCHEMBL16108318

> <PUBCHEM_EXT_DATASOURCE_URL>
https://www.surechembl.org/

> <PUBCHEM_EXT_SUBSTANCE_URL>
https://www.surechembl.org/chemical/SCHEMBL16108318

> <PUBCHEM_CID_ASSOCIATIONS>
76332090  1

> <PUBCHEM_COORDINATE_TYPE>
1
3

$$$$
