310948625
  -OEChem-07211613022D

 33 37  0     1  0  0  0  0  0999 V2000
   -1.2798   -2.4779    0.0000 S   0  0  0  0  0  0  0  0  0  0  0  0
   -1.2072   -3.2949    0.0000 O   0  0  0  0  0  0  0  0  0  0  0  0
   -2.0604   -2.6232    0.0000 O   0  0  0  0  0  0  0  0  0  0  0  0
   -2.5506    2.4416    0.0000 O   0  0  0  0  0  0  0  0  0  0  0  0
    1.2616   -3.7849    0.0000 O   0  0  0  0  0  0  0  0  0  0  0  0
    0.1180    1.7337    0.0000 N   0  0  0  0  0  0  0  0  0  0  0  0
   -0.4630   -2.5143    0.0000 N   0  0  3  0  0  0  0  0  0  0  0  0
   -0.3721    1.0619    0.0000 N   0  0  0  0  0  0  0  0  0  0  0  0
   -1.7881    0.8260    0.0000 N   0  0  0  0  0  0  0  0  0  0  0  0
   -1.6248    3.5127    0.0000 N   0  0  0  0  0  0  0  0  0  0  0  0
    0.5175   -0.3903    0.0000 N   0  0  0  0  0  0  0  0  0  0  0  0
   -1.4977   -1.6611    0.0000 C   0  0  0  0  0  0  0  0  0  0  0  0
   -1.1527    2.1693    0.0000 C   0  0  0  0  0  0  0  0  0  0  0  0
   -0.4266    2.4235    0.0000 C   0  0  0  0  0  0  0  0  0  0  0  0
   -0.8260   -1.1890    0.0000 C   0  0  0  0  0  0  0  0  0  0  0  0
   -1.1709    1.3343    0.0000 C   0  0  0  0  0  0  0  0  0  0  0  0
   -0.1725   -1.7337    0.0000 C   0  0  0  0  0  0  0  0  0  0  0  0
   -1.7155    0.0091    0.0000 C   0  0  0  0  0  0  0  0  0  0  0  0
    0.9167    1.7518    0.0000 C   0  0  3  0  0  0  0  0  0  0  0  0
   -0.9167   -0.3540    0.0000 C   0  0  0  0  0  0  0  0  0  0  0  0
   -1.7881    2.7321    0.0000 C   0  0  0  0  0  0  0  0  0  0  0  0
   -2.2601   -1.2979    0.0000 C   0  0  0  0  0  0  0  0  0  0  0  0
   -2.3327   -0.4630    0.0000 C   0  0  0  0  0  0  0  0  0  0  0  0
   -0.2451    3.2586    0.0000 C   0  0  0  0  0  0  0  0  0  0  0  0
    1.3161    1.0438    0.0000 C   0  0  3  0  0  0  0  0  0  0  0  0
   -0.0272   -3.1860    0.0000 C   0  0  0  0  0  0  0  0  0  0  0  0
   -0.8804    3.7849    0.0000 C   0  0  0  0  0  0  0  0  0  0  0  0
    1.3706    2.4598    0.0000 C   0  0  0  0  0  0  0  0  0  0  0  0
    2.1511    1.0438    0.0000 C   0  0  0  0  0  0  0  0  0  0  0  0
    0.9167    0.3358    0.0000 C   0  0  0  0  0  0  0  0  0  0  0  0
    2.1874    2.4598    0.0000 C   0  0  0  0  0  0  0  0  0  0  0  0
    0.7715   -3.1134    0.0000 C   0  0  0  0  0  0  0  0  0  0  0  0
    2.5506    1.7337    0.0000 C   0  0  0  0  0  0  0  0  0  0  0  0
  1  2  2  0  0  0  0
  1  3  2  0  0  0  0
  1  7  1  0  0  0  0
  1 12  1  0  0  0  0
  4 21  2  0  0  0  0
  5 32  1  0  0  0  0
  6  8  1  0  0  0  0
  6 14  1  0  0  0  0
 19  6  1  1  0  0  0
  7 17  1  0  0  0  0
  7 26  1  0  0  0  0
  8 16  2  0  0  0  0
  9 16  1  0  0  0  0
  9 18  1  0  0  0  0
 10 21  1  0  0  0  0
 10 27  1  0  0  0  0
 11 30  3  0  0  0  0
 12 15  1  0  0  0  0
 12 22  2  0  0  0  0
 13 14  2  0  0  0  0
 13 16  1  0  0  0  0
 13 21  1  0  0  0  0
 14 24  1  0  0  0  0
 15 17  1  0  0  0  0
 15 20  2  0  0  0  0
 18 20  1  0  0  0  0
 18 23  2  0  0  0  0
 19 25  1  0  0  0  0
 19 28  1  0  0  0  0
 22 23  1  0  0  0  0
 24 27  2  0  0  0  0
 25 29  1  0  0  0  0
 25 30  1  6  0  0  0
 26 32  1  0  0  0  0
 28 31  1  0  0  0  0
 29 33  1  0  0  0  0
 31 33  1  0  0  0  0
M  END
> <PUBCHEM_COMPOUND_ID_TYPE>
0

> <PUBCHEM_TOTAL_CHARGE>
0

> <PUBCHEM_SUBSTANCE_ID>
310948625

> <PUBCHEM_SUBSTANCE_VERSION>
1

> <PUBCHEM_EXT_DATASOURCE_NAME>
4488

> <PUBCHEM_EXT_DATASOURCE_REGID>
SCHEMBL16126808

> <PUBCHEM_SUBSTANCE_COMMENT>
InChI=1S/C22H24N6O4S/c23-12-14-3-1-2-4-17(14)28-18-7-8-24-22(30)20(18)21(26-28)25-16-5-6-19-15(11-16)13-27(9-10-29)33(19,31)32/h5-8,11,14,17,29H,1-4,9-10,13H2,(H,24,30)(H,25,26)/t14-,17+/m1/s1
InChIKey=IQHOHUNVNFQWEI-PBHICJAKSA-N

> <PUBCHEM_SUBSTANCE_SYNONYM>
SCHEMBL16126808

> <PUBCHEM_XREF_EXT_ID>
SCHEMBL16126808

> <PUBCHEM_EXT_DATASOURCE_URL>
https://www.surechembl.org/

> <PUBCHEM_EXT_SUBSTANCE_URL>
https://www.surechembl.org/chemical/SCHEMBL16126808

> <PUBCHEM_CID_ASSOCIATIONS>
117614169  1

> <PUBCHEM_COORDINATE_TYPE>
1
3

> <PUBCHEM_BONDANNOTATIONS>
25  30  6
19  6  5

$$$$
