310949163
  -OEChem-07211613022D

 22 23  0     0  0  0  0  0  0999 V2000
    1.0865    0.4470    0.0000 Br  0  0  0  0  0  0  0  0  0  0  0  0
    1.0865   -0.3565    0.0000 F   0  0  0  0  0  0  0  0  0  0  0  0
   -1.7995   -0.3565    0.0000 F   0  0  0  0  0  0  0  0  0  0  0  0
   -1.8108   -1.9975    0.0000 F   0  0  0  0  0  0  0  0  0  0  0  0
    1.0978   -2.0088    0.0000 F   0  0  0  0  0  0  0  0  0  0  0  0
   -0.3735   -2.8124    0.0000 F   0  0  0  0  0  0  0  0  0  0  0  0
    0.7469    2.8124    0.0000 F   0  0  0  0  0  0  0  0  0  0  0  0
    1.8108    2.4502    0.0000 F   0  0  0  0  0  0  0  0  0  0  0  0
    1.4373    1.3637    0.0000 F   0  0  0  0  0  0  0  0  0  0  0  0
   -0.3735   -0.3339    0.0000 C   0  0  0  0  0  0  0  0  0  0  0  0
   -0.3622    0.4923    0.0000 C   0  0  0  0  0  0  0  0  0  0  0  0
    0.3508   -0.7526    0.0000 C   0  0  0  0  0  0  0  0  0  0  0  0
   -1.0751   -0.7526    0.0000 C   0  0  0  0  0  0  0  0  0  0  0  0
    0.3395    0.8884    0.0000 C   0  0  0  0  0  0  0  0  0  0  0  0
   -1.0978   -1.5674    0.0000 C   0  0  0  0  0  0  0  0  0  0  0  0
    0.3395   -1.5674    0.0000 C   0  0  0  0  0  0  0  0  0  0  0  0
    0.3508    1.7146    0.0000 C   0  0  0  0  0  0  0  0  0  0  0  0
   -0.3735   -1.9749    0.0000 C   0  0  0  0  0  0  0  0  0  0  0  0
    1.0865    2.0880    0.0000 C   0  0  0  0  0  0  0  0  0  0  0  0
   -1.0865    0.8884    0.0000 C   0  0  0  0  0  0  0  0  0  0  0  0
   -0.3395    2.0994    0.0000 C   0  0  0  0  0  0  0  0  0  0  0  0
   -1.0865    1.6919    0.0000 C   0  0  0  0  0  0  0  0  0  0  0  0
  1 14  1  0  0  0  0
  2 12  1  0  0  0  0
  3 13  1  0  0  0  0
  4 15  1  0  0  0  0
  5 16  1  0  0  0  0
  6 18  1  0  0  0  0
  7 19  1  0  0  0  0
  8 19  1  0  0  0  0
  9 19  1  0  0  0  0
 10 11  1  0  0  0  0
 10 12  2  0  0  0  0
 10 13  1  0  0  0  0
 11 14  2  0  0  0  0
 11 20  1  0  0  0  0
 12 16  1  0  0  0  0
 13 15  2  0  0  0  0
 14 17  1  0  0  0  0
 15 18  1  0  0  0  0
 16 18  2  0  0  0  0
 17 19  1  0  0  0  0
 17 21  2  0  0  0  0
 20 22  2  0  0  0  0
 21 22  1  0  0  0  0
M  END
> <PUBCHEM_COMPOUND_ID_TYPE>
0

> <PUBCHEM_TOTAL_CHARGE>
0

> <PUBCHEM_SUBSTANCE_ID>
310949163

> <PUBCHEM_SUBSTANCE_VERSION>
1

> <PUBCHEM_EXT_DATASOURCE_NAME>
4488

> <PUBCHEM_EXT_DATASOURCE_REGID>
SCHEMBL16127353

> <PUBCHEM_SUBSTANCE_COMMENT>
InChI=1S/C13H3BrF8/c14-7-4(2-1-3-5(7)13(20,21)22)6-8(15)10(17)12(19)11(18)9(6)16/h1-3H
InChIKey=WJLRWYBEDFPOHZ-UHFFFAOYSA-N

> <PUBCHEM_SUBSTANCE_SYNONYM>
SCHEMBL16127353

> <PUBCHEM_XREF_EXT_ID>
SCHEMBL16127353

> <PUBCHEM_EXT_DATASOURCE_URL>
https://www.surechembl.org/

> <PUBCHEM_EXT_SUBSTANCE_URL>
https://www.surechembl.org/chemical/SCHEMBL16127353

> <PUBCHEM_CID_ASSOCIATIONS>
117614656  1

> <PUBCHEM_COORDINATE_TYPE>
1
3

$$$$
