310934594
  -OEChem-07211613022D

 22 24  0     1  0  0  0  0  0999 V2000
    0.7144    1.2375    0.0000 F   0  0  0  0  0  0  0  0  0  0  0  0
   -4.8780    1.5151    0.0000 O   0  0  0  0  0  0  0  0  0  0  0  0
   -4.1636    2.7526    0.0000 O   0  0  0  0  0  0  0  0  0  0  0  0
   -0.7144   -0.4125    0.0000 N   0  0  0  0  0  0  0  0  0  0  0  0
   -3.4491    1.5151    0.0000 C   0  0  3  0  0  0  0  0  0  0  0  0
   -4.1941    0.7436    0.0000 C   0  0  0  0  0  0  0  0  0  0  0  0
   -2.8971    0.9020    0.0000 C   0  0  0  0  0  0  0  0  0  0  0  0
   -2.1434    1.2375    0.0000 C   0  0  0  0  0  0  0  0  0  0  0  0
   -4.1636    1.9276    0.0000 C   0  0  0  0  0  0  0  0  0  0  0  0
   -3.0366    2.2295    0.0000 C   0  0  0  0  0  0  0  0  0  0  0  0
   -2.2296    2.0580    0.0000 C   0  0  0  0  0  0  0  0  0  0  0  0
   -1.4290    0.8250    0.0000 C   0  0  0  0  0  0  0  0  0  0  0  0
   -4.9946    0.9432    0.0000 C   0  0  0  0  0  0  0  0  0  0  0  0
   -3.9667   -0.0495    0.0000 C   0  0  0  0  0  0  0  0  0  0  0  0
   -0.7144    1.2375    0.0000 C   0  0  0  0  0  0  0  0  0  0  0  0
   -1.4290    0.0000    0.0000 C   0  0  0  0  0  0  0  0  0  0  0  0
    0.0000    0.8250    0.0000 C   0  0  0  0  0  0  0  0  0  0  0  0
   -5.5677    0.3497    0.0000 C   0  0  0  0  0  0  0  0  0  0  0  0
   -4.5399   -0.6430    0.0000 C   0  0  0  0  0  0  0  0  0  0  0  0
    0.0000    0.0000    0.0000 C   0  0  0  0  0  0  0  0  0  0  0  0
   -5.3403   -0.4434    0.0000 C   0  0  0  0  0  0  0  0  0  0  0  0
   -5.5926    1.9276    0.0000 C   0  0  0  0  0  0  0  0  0  0  0  0
  1 17  1  0  0  0  0
  2  9  1  0  0  0  0
  2 22  1  0  0  0  0
  3  9  2  0  0  0  0
  4 16  2  0  0  0  0
  4 20  1  0  0  0  0
  5  6  1  0  0  0  0
  5  7  1  0  0  0  0
  5  9  1  1  0  0  0
  5 10  1  0  0  0  0
  6 13  2  0  0  0  0
  6 14  1  0  0  0  0
  7  8  2  0  0  0  0
  8 11  1  0  0  0  0
  8 12  1  0  0  0  0
 10 11  1  0  0  0  0
 12 15  2  0  0  0  0
 12 16  1  0  0  0  0
 13 18  1  0  0  0  0
 14 19  2  0  0  0  0
 15 17  1  0  0  0  0
 17 20  2  0  0  0  0
 18 21  2  0  0  0  0
 19 21  1  0  0  0  0
M  END
> <PUBCHEM_COMPOUND_ID_TYPE>
0

> <PUBCHEM_TOTAL_CHARGE>
0

> <PUBCHEM_SUBSTANCE_ID>
310934594

> <PUBCHEM_SUBSTANCE_VERSION>
1

> <PUBCHEM_EXT_DATASOURCE_NAME>
4488

> <PUBCHEM_EXT_DATASOURCE_REGID>
SCHEMBL16112086

> <PUBCHEM_SUBSTANCE_COMMENT>
InChI=1S/C18H16FNO2/c1-22-17(21)18(15-5-3-2-4-6-15)8-7-13(10-18)14-9-16(19)12-20-11-14/h2-6,9-12H,7-8H2,1H3/t18-/m0/s1
InChIKey=VBAUYJLLRMYZQU-SFHVURJKSA-N

> <PUBCHEM_SUBSTANCE_SYNONYM>
SCHEMBL16112086

> <PUBCHEM_XREF_EXT_ID>
SCHEMBL16112086

> <PUBCHEM_EXT_DATASOURCE_URL>
https://www.surechembl.org/

> <PUBCHEM_EXT_SUBSTANCE_URL>
https://www.surechembl.org/chemical/SCHEMBL16112086

> <PUBCHEM_CID_ASSOCIATIONS>
117602777  1

> <PUBCHEM_COORDINATE_TYPE>
1
3

> <PUBCHEM_BONDANNOTATIONS>
5  9  5

$$$$
