310940594
  -OEChem-07211613022D

 32 36  0     0  0  0  0  0  0999 V2000
    2.3154   -0.3092    0.0000 O   0  0  0  0  0  0  0  0  0  0  0  0
   -1.8757   -0.4328    0.0000 O   0  0  0  0  0  0  0  0  0  0  0  0
    2.4116    1.1886    0.0000 O   0  0  0  0  0  0  0  0  0  0  0  0
   -3.1674   -2.3704    0.0000 O   0  0  0  0  0  0  0  0  0  0  0  0
    2.4528   -2.9338    0.0000 O   0  0  0  0  0  0  0  0  0  0  0  0
    1.1886    0.3779    0.0000 N   0  0  0  0  0  0  0  0  0  0  0  0
    1.0237   -2.1093    0.0000 N   0  0  0  0  0  0  0  0  0  0  0  0
   -2.7414   -3.0987    0.0000 N   0  0  0  0  0  0  0  0  0  0  0  0
    0.9825   -0.3642    0.0000 C   0  0  0  0  0  0  0  0  0  0  0  0
    0.2817   -0.7902    0.0000 C   0  0  0  0  0  0  0  0  0  0  0  0
    1.7108   -0.7902    0.0000 C   0  0  0  0  0  0  0  0  0  0  0  0
    0.2680   -1.6008    0.0000 C   0  0  0  0  0  0  0  0  0  0  0  0
    1.6971   -1.6146    0.0000 C   0  0  0  0  0  0  0  0  0  0  0  0
   -1.1749   -1.6146    0.0000 C   0  0  0  0  0  0  0  0  0  0  0  0
    1.9444    0.5153    0.0000 C   0  0  0  0  0  0  0  0  0  0  0  0
   -0.4466   -0.3779    0.0000 C   0  0  0  0  0  0  0  0  0  0  0  0
   -1.1611   -0.7902    0.0000 C   0  0  0  0  0  0  0  0  0  0  0  0
   -0.4466   -2.0131    0.0000 C   0  0  0  0  0  0  0  0  0  0  0  0
   -1.8894   -2.0406    0.0000 C   0  0  0  0  0  0  0  0  0  0  0  0
    0.5977    1.0374    0.0000 C   0  0  0  0  0  0  0  0  0  0  0  0
   -2.6452   -1.6696    0.0000 C   0  0  0  0  0  0  0  0  0  0  0  0
   -1.9719   -2.8650    0.0000 C   0  0  0  0  0  0  0  0  0  0  0  0
    2.4253   -1.9993    0.0000 C   0  0  0  0  0  0  0  0  0  0  0  0
    0.7902    1.8619    0.0000 C   0  0  0  0  0  0  0  0  0  0  0  0
   -2.7964   -0.8726    0.0000 C   0  0  0  0  0  0  0  0  0  0  0  0
   -1.3673   -3.4422    0.0000 C   0  0  0  0  0  0  0  0  0  0  0  0
    0.2268    2.4253    0.0000 C   0  0  0  0  0  0  0  0  0  0  0  0
    1.6008    2.0818    0.0000 C   0  0  0  0  0  0  0  0  0  0  0  0
   -1.8894    0.4740    0.0000 C   0  0  0  0  0  0  0  0  0  0  0  0
    0.4328    3.2361    0.0000 C   0  0  0  0  0  0  0  0  0  0  0  0
    1.7933    2.8650    0.0000 C   0  0  0  0  0  0  0  0  0  0  0  0
    1.2161    3.4422    0.0000 C   0  0  0  0  0  0  0  0  0  0  0  0
  1 11  1  0  0  0  0
  1 15  1  0  0  0  0
  2 17  1  0  0  0  0
  2 29  1  0  0  0  0
  3 15  2  0  0  0  0
  4  8  1  0  0  0  0
  4 21  1  0  0  0  0
  5 23  2  0  0  0  0
  6  9  1  0  0  0  0
  6 15  1  0  0  0  0
  6 20  1  0  0  0  0
  7 12  1  0  0  0  0
  7 13  2  0  0  0  0
  8 22  2  0  0  0  0
  9 10  1  0  0  0  0
  9 11  2  0  0  0  0
 10 12  2  0  0  0  0
 10 16  1  0  0  0  0
 11 13  1  0  0  0  0
 12 18  1  0  0  0  0
 13 23  1  0  0  0  0
 14 17  1  0  0  0  0
 14 18  2  0  0  0  0
 14 19  1  0  0  0  0
 16 17  2  0  0  0  0
 19 21  2  0  0  0  0
 19 22  1  0  0  0  0
 20 24  1  0  0  0  0
 21 25  1  0  0  0  0
 22 26  1  0  0  0  0
 24 27  2  0  0  0  0
 24 28  1  0  0  0  0
 27 30  1  0  0  0  0
 28 31  2  0  0  0  0
 30 32  2  0  0  0  0
 31 32  1  0  0  0  0
M  END
> <PUBCHEM_COMPOUND_ID_TYPE>
0

> <PUBCHEM_TOTAL_CHARGE>
0

> <PUBCHEM_SUBSTANCE_ID>
310940594

> <PUBCHEM_SUBSTANCE_VERSION>
1

> <PUBCHEM_EXT_DATASOURCE_NAME>
4488

> <PUBCHEM_EXT_DATASOURCE_REGID>
SCHEMBL16118548

> <PUBCHEM_SUBSTANCE_COMMENT>
InChI=1S/C24H19N3O5/c1-13-21(14(2)32-26-13)17-9-18-16(10-20(17)30-3)22-23(19(12-28)25-18)31-24(29)27(22)11-15-7-5-4-6-8-15/h4-10,12H,11H2,1-3H3
InChIKey=BVUHVIWIJZNKBA-UHFFFAOYSA-N

> <PUBCHEM_SUBSTANCE_SYNONYM>
SCHEMBL16118548

> <PUBCHEM_XREF_EXT_ID>
SCHEMBL16118548

> <PUBCHEM_EXT_DATASOURCE_URL>
https://www.surechembl.org/

> <PUBCHEM_EXT_SUBSTANCE_URL>
https://www.surechembl.org/chemical/SCHEMBL16118548

> <PUBCHEM_CID_ASSOCIATIONS>
117607582  1

> <PUBCHEM_COORDINATE_TYPE>
1
3

$$$$
