310946664
  -OEChem-07211613022D

 35 41  0     1  0  0  0  0  0999 V2000
    3.6173    0.0301    0.0000 O   0  0  0  0  0  0  0  0  0  0  0  0
    3.5471    0.6975    0.0000 O   0  0  0  0  0  0  0  0  0  0  0  0
    4.8868    1.7775    0.0000 O   0  0  0  0  0  0  0  0  0  0  0  0
   -1.4541   -1.3649    0.0000 O   0  0  0  0  0  0  0  0  0  0  0  0
   -2.2790   -1.3649    0.0000 O   0  0  0  0  0  0  0  0  0  0  0  0
   -3.8703   -0.5400    0.0000 O   0  0  0  0  0  0  0  0  0  0  0  0
   -4.8868   -2.0794    0.0000 O   0  0  0  0  0  0  0  0  0  0  0  0
    2.8326    0.2850    0.0000 C   0  0  3  0  0  0  0  0  0  0  0  0
    2.8326    1.1100    0.0000 C   0  0  3  0  0  0  0  0  0  0  0  0
    3.6173    1.3649    0.0000 C   0  0  3  0  0  0  0  0  0  0  0  0
    2.1182   -0.1274    0.0000 C   0  0  3  0  0  0  0  0  0  0  0  0
    4.1022    0.6975    0.0000 C   0  0  3  0  0  0  0  0  0  0  0  0
    1.4037    0.2850    0.0000 C   0  0  3  0  0  0  0  0  0  0  0  0
    4.1022    2.0324    0.0000 C   0  0  3  0  0  0  0  0  0  0  0  0
    2.1182    1.5225    0.0000 C   0  0  0  0  0  0  0  0  0  0  0  0
    0.6892   -0.1274    0.0000 C   0  0  3  0  0  0  0  0  0  0  0  0
    1.4037    1.1100    0.0000 C   0  0  0  0  0  0  0  0  0  0  0  0
    4.3157    1.2355    0.0000 C   0  0  0  0  0  0  0  0  0  0  0  0
    2.8326    1.9350    0.0000 C   0  0  0  0  0  0  0  0  0  0  0  0
    2.1182   -0.9524    0.0000 C   0  0  0  0  0  0  0  0  0  0  0  0
    4.8868    0.9524    0.0000 C   0  0  0  0  0  0  0  0  0  0  0  0
    0.6892   -0.9524    0.0000 C   0  0  0  0  0  0  0  0  0  0  0  0
    1.4037   -1.3649    0.0000 C   0  0  0  0  0  0  0  0  0  0  0  0
   -0.0251    0.2850    0.0000 C   0  0  0  0  0  0  0  0  0  0  0  0
    0.6892    0.6975    0.0000 C   0  0  0  0  0  0  0  0  0  0  0  0
   -0.0251   -1.3649    0.0000 C   0  0  0  0  0  0  0  0  0  0  0  0
   -0.7396   -0.9524    0.0000 C   0  0  3  0  0  0  0  0  0  0  0  0
   -0.7396   -0.1274    0.0000 C   0  0  0  0  0  0  0  0  0  0  0  0
   -1.8666   -2.0794    0.0000 C   0  0  3  0  0  0  0  0  0  0  0  0
   -2.6598   -1.8704    0.0000 C   0  0  0  0  0  0  0  0  0  0  0  0
   -3.4579   -2.0794    0.0000 C   0  0  3  0  0  0  0  0  0  0  0  0
   -3.0772   -1.5739    0.0000 C   0  0  3  0  0  0  0  0  0  0  0  0
   -3.8703   -1.3649    0.0000 C   0  0  3  0  0  0  0  0  0  0  0  0
   -4.1724   -1.6669    0.0000 C   0  0  0  0  0  0  0  0  0  0  0  0
   -3.4896   -0.8595    0.0000 C   0  0  0  0  0  0  0  0  0  0  0  0
  8  1  1  6  0  0  0
 12  1  1  1  0  0  0
  2  8  1  0  0  0  0
  2 18  1  0  0  0  0
 14  3  1  6  0  0  0
  3 21  1  0  0  0  0
 27  4  1  1  0  0  0
  4 29  1  0  0  0  0
  5 29  1  0  0  0  0
  5 32  1  0  0  0  0
  6 33  1  0  0  0  0
  7 34  1  0  0  0  0
  8  9  1  0  0  0  0
  8 11  1  0  0  0  0
 10  9  1  1  0  0  0
  9 15  1  0  0  0  0
  9 19  1  1  0  0  0
 10 12  1  0  0  0  0
 10 14  1  0  0  0  0
 11 13  1  0  0  0  0
 11 20  1  6  0  0  0
 12 21  1  0  0  0  0
 13 16  1  0  0  0  0
 13 17  1  1  0  0  0
 14 18  1  0  0  0  0
 15 17  1  0  0  0  0
 16 22  1  0  0  0  0
 16 24  1  0  0  0  0
 16 25  1  1  0  0  0
 20 23  1  0  0  0  0
 22 23  2  0  0  0  0
 22 26  1  0  0  0  0
 24 28  1  0  0  0  0
 26 27  1  0  0  0  0
 27 28  1  0  0  0  0
 29 30  1  0  0  0  0
 30 31  1  0  0  0  0
 31 33  1  0  0  0  0
 31 34  1  0  0  0  0
 32 33  1  0  0  0  0
 32 35  1  0  0  0  0
M  END
> <PUBCHEM_COMPOUND_ID_TYPE>
0

> <PUBCHEM_TOTAL_CHARGE>
0

> <PUBCHEM_SUBSTANCE_ID>
310946664

> <PUBCHEM_SUBSTANCE_VERSION>
1

> <PUBCHEM_EXT_DATASOURCE_NAME>
4488

> <PUBCHEM_EXT_DATASOURCE_REGID>
SCHEMBL16124785

> <PUBCHEM_SUBSTANCE_COMMENT>
InChI=1S/C28H42O7/c1-15-25(30)16(12-29)10-23(33-15)34-18-6-8-26(2)17(11-18)4-5-20-19(26)7-9-27(3)24-21-14-32-28(20,27)35-22(24)13-31-21/h4,15-16,18-25,29-30H,5-14H2,1-3H3/t15?,16?,18-,19-,20+,21+,22+,23?,24-,25?,26-,27+,28+/m0/s1
InChIKey=WVOZOIXKLRMWHW-BVGWOWJSSA-N

> <PUBCHEM_SUBSTANCE_SYNONYM>
SCHEMBL16124785

> <PUBCHEM_XREF_EXT_ID>
SCHEMBL16124785

> <PUBCHEM_EXT_DATASOURCE_URL>
https://www.surechembl.org/

> <PUBCHEM_EXT_SUBSTANCE_URL>
https://www.surechembl.org/chemical/SCHEMBL16124785

> <PUBCHEM_CID_ASSOCIATIONS>
117612564  1

> <PUBCHEM_COORDINATE_TYPE>
1
3

> <PUBCHEM_BONDANNOTATIONS>
12  1  5
8  1  6
11  20  6
13  17  5
16  25  5
14  3  6
27  4  5
10  9  5
9  19  5

$$$$
