310948126
  -OEChem-07211613022D

 34 38  0     1  0  0  0  0  0999 V2000
    1.9736    3.4504    0.0000 F   0  0  0  0  0  0  0  0  0  0  0  0
    2.7879    2.7051    0.0000 F   0  0  0  0  0  0  0  0  0  0  0  0
   -2.7879    1.9461    0.0000 O   0  0  0  0  0  0  0  0  0  0  0  0
   -1.1455   -3.3400    0.0000 O   0  0  0  0  0  0  0  0  0  0  0  0
   -0.0138    1.7942    0.0000 N   0  0  0  0  0  0  0  0  0  0  0  0
   -0.3588    1.0351    0.0000 N   0  0  0  0  0  0  0  0  0  0  0  0
   -1.7390    0.5244    0.0000 N   0  0  0  0  0  0  0  0  0  0  0  0
   -2.0565    3.1881    0.0000 N   0  0  0  0  0  0  0  0  0  0  0  0
    0.0552   -2.8293    0.0000 N   0  0  0  0  0  0  0  0  0  0  0  0
    1.2283   -0.2346    0.0000 N   0  0  0  0  0  0  0  0  0  0  0  0
   -0.6349    2.3601    0.0000 C   0  0  0  0  0  0  0  0  0  0  0  0
   -1.3526    1.9461    0.0000 C   0  0  0  0  0  0  0  0  0  0  0  0
    0.8143    1.9598    0.0000 C   0  0  3  0  0  0  0  0  0  0  0  0
   -1.1869    1.1594    0.0000 C   0  0  0  0  0  0  0  0  0  0  0  0
    1.4215    1.4078    0.0000 C   0  0  3  0  0  0  0  0  0  0  0  0
    1.9736    2.6223    0.0000 C   0  0  0  0  0  0  0  0  0  0  0  0
   -2.0703    2.3739    0.0000 C   0  0  0  0  0  0  0  0  0  0  0  0
    1.1594    2.7051    0.0000 C   0  0  0  0  0  0  0  0  0  0  0  0
   -0.6211    3.1606    0.0000 C   0  0  0  0  0  0  0  0  0  0  0  0
    2.1254    1.8080    0.0000 C   0  0  0  0  0  0  0  0  0  0  0  0
   -1.4906   -0.2623    0.0000 C   0  0  0  0  0  0  0  0  0  0  0  0
   -1.3664    3.5885    0.0000 C   0  0  0  0  0  0  0  0  0  0  0  0
    1.3111    0.5935    0.0000 C   0  0  0  0  0  0  0  0  0  0  0  0
   -0.9799   -1.8494    0.0000 C   0  0  0  0  0  0  0  0  0  0  0  0
   -0.6763   -0.4416    0.0000 C   0  0  0  0  0  0  0  0  0  0  0  0
   -0.4279   -1.2283    0.0000 C   0  0  0  0  0  0  0  0  0  0  0  0
   -2.0289   -0.8557    0.0000 C   0  0  0  0  0  0  0  0  0  0  0  0
   -0.7315   -2.5947    0.0000 C   0  0  0  0  0  0  0  0  0  0  0  0
   -1.7942   -1.6562    0.0000 C   0  0  0  0  0  0  0  0  0  0  0  0
    0.4002   -1.3940    0.0000 C   0  0  0  0  0  0  0  0  0  0  0  0
    0.3451   -3.5885    0.0000 C   0  0  0  0  0  0  0  0  0  0  0  0
    0.6901   -2.3187    0.0000 C   0  0  0  0  0  0  0  0  0  0  0  0
    1.1594   -3.5608    0.0000 C   0  0  0  0  0  0  0  0  0  0  0  0
    1.3801   -2.7742    0.0000 C   0  0  0  0  0  0  0  0  0  0  0  0
  1 16  1  0  0  0  0
  2 16  1  0  0  0  0
  3 17  2  0  0  0  0
  4 28  2  0  0  0  0
  5  6  1  0  0  0  0
  5 11  1  0  0  0  0
 13  5  1  6  0  0  0
  6 14  2  0  0  0  0
  7 14  1  0  0  0  0
  7 21  1  0  0  0  0
  8 17  1  0  0  0  0
  8 22  1  0  0  0  0
  9 28  1  0  0  0  0
  9 31  1  0  0  0  0
  9 32  1  0  0  0  0
 10 23  3  0  0  0  0
 11 12  2  0  0  0  0
 11 19  1  0  0  0  0
 12 14  1  0  0  0  0
 12 17  1  0  0  0  0
 13 15  1  0  0  0  0
 13 18  1  0  0  0  0
 15 20  1  0  0  0  0
 15 23  1  6  0  0  0
 16 18  1  0  0  0  0
 16 20  1  0  0  0  0
 19 22  2  0  0  0  0
 21 25  1  0  0  0  0
 21 27  2  0  0  0  0
 24 26  1  0  0  0  0
 24 28  1  0  0  0  0
 24 29  2  0  0  0  0
 25 26  2  0  0  0  0
 26 30  1  0  0  0  0
 27 29  1  0  0  0  0
 31 33  1  0  0  0  0
 32 34  1  0  0  0  0
 33 34  1  0  0  0  0
M  END
> <PUBCHEM_COMPOUND_ID_TYPE>
0

> <PUBCHEM_TOTAL_CHARGE>
0

> <PUBCHEM_SUBSTANCE_ID>
310948126

> <PUBCHEM_SUBSTANCE_VERSION>
1

> <PUBCHEM_EXT_DATASOURCE_NAME>
4488

> <PUBCHEM_EXT_DATASOURCE_REGID>
SCHEMBL16126302

> <PUBCHEM_SUBSTANCE_COMMENT>
InChI=1S/C24H24F2N6O2/c1-14-10-16(4-5-17(14)23(34)31-8-2-3-9-31)29-21-20-18(6-7-28-22(20)33)32(30-21)19-12-24(25,26)11-15(19)13-27/h4-7,10,15,19H,2-3,8-9,11-12H2,1H3,(H,28,33)(H,29,30)/t15-,19-/m1/s1
InChIKey=IIBGSSDECOOUPY-DNVCBOLYSA-N

> <PUBCHEM_SUBSTANCE_SYNONYM>
SCHEMBL16126302

> <PUBCHEM_XREF_EXT_ID>
SCHEMBL16126302

> <PUBCHEM_EXT_DATASOURCE_URL>
https://www.surechembl.org/

> <PUBCHEM_EXT_SUBSTANCE_URL>
https://www.surechembl.org/chemical/SCHEMBL16126302

> <PUBCHEM_CID_ASSOCIATIONS>
117613743  1

> <PUBCHEM_COORDINATE_TYPE>
1
3

> <PUBCHEM_BONDANNOTATIONS>
15  23  6
13  5  6

$$$$
