310937573
  -OEChem-07211613022D

 35 38  0     1  0  0  0  0  0999 V2000
    3.5233   -6.7757    0.0000 F   0  0  0  0  0  0  0  0  0  0  0  0
    4.9462   -6.6402    0.0000 F   0  0  0  0  0  0  0  0  0  0  0  0
    3.4217   -5.9626    0.0000 F   0  0  0  0  0  0  0  0  0  0  0  0
    7.2500   -4.9801    0.0000 F   0  0  0  0  0  0  0  0  0  0  0  0
    6.4030   -3.7944    0.0000 F   0  0  0  0  0  0  0  0  0  0  0  0
    6.5724   -5.4544    0.0000 F   0  0  0  0  0  0  0  0  0  0  0  0
    4.1332   -2.6764    0.0000 O   0  0  0  0  0  0  0  0  0  0  0  0
    3.4895   -1.3890    0.0000 O   0  0  0  0  0  0  0  0  0  0  0  0
    2.8119   -2.6764    0.0000 N   0  0  0  0  0  0  0  0  0  0  0  0
    2.4731   -1.0502    0.0000 N   0  0  0  0  0  0  0  0  0  0  0  0
    0.4743   -1.8972    0.0000 N   0  0  0  0  0  0  0  0  0  0  0  0
    0.9147   -0.5759    0.0000 N   0  0  0  0  0  0  0  0  0  0  0  0
    3.8960   -3.4556    0.0000 C   0  0  3  0  0  0  0  0  0  0  0  0
    4.3703   -4.1332    0.0000 C   0  0  0  0  0  0  0  0  0  0  0  0
    3.0490   -3.4556    0.0000 C   0  0  3  0  0  0  0  0  0  0  0  0
    3.4895   -2.2021    0.0000 C   0  0  0  0  0  0  0  0  0  0  0  0
    4.5397   -5.5560    0.0000 C   0  0  0  0  0  0  0  0  0  0  0  0
    5.6915   -4.7091    0.0000 C   0  0  0  0  0  0  0  0  0  0  0  0
    5.1834   -4.0654    0.0000 C   0  0  0  0  0  0  0  0  0  0  0  0
    4.0315   -4.8785    0.0000 C   0  0  0  0  0  0  0  0  0  0  0  0
    5.3528   -5.4544    0.0000 C   0  0  0  0  0  0  0  0  0  0  0  0
    4.2009   -6.3014    0.0000 C   0  0  0  0  0  0  0  0  0  0  0  0
    6.5047   -4.6413    0.0000 C   0  0  0  0  0  0  0  0  0  0  0  0
    2.0327   -2.4392    0.0000 C   0  0  0  0  0  0  0  0  0  0  0  0
    1.8633   -1.6262    0.0000 C   0  0  0  0  0  0  0  0  0  0  0  0
    2.5748   -4.1332    0.0000 C   0  0  0  0  0  0  0  0  0  0  0  0
    1.0841   -1.3552    0.0000 C   0  0  0  0  0  0  0  0  0  0  0  0
    2.3037   -0.2710    0.0000 C   0  0  0  0  0  0  0  0  0  0  0  0
    0.6098   -2.6764    0.0000 C   0  0  0  0  0  0  0  0  0  0  0  0
    1.5245    0.0000    0.0000 C   0  0  0  0  0  0  0  0  0  0  0  0
    1.4229   -2.9813    0.0000 C   0  0  0  0  0  0  0  0  0  0  0  0
    0.0000   -3.2523    0.0000 C   0  0  0  0  0  0  0  0  0  0  0  0
    1.5584   -3.7605    0.0000 C   0  0  0  0  0  0  0  0  0  0  0  0
    0.1694   -4.0315    0.0000 C   0  0  0  0  0  0  0  0  0  0  0  0
    0.9486   -4.3364    0.0000 C   0  0  0  0  0  0  0  0  0  0  0  0
  1 22  1  0  0  0  0
  2 22  1  0  0  0  0
  3 22  1  0  0  0  0
  4 23  1  0  0  0  0
  5 23  1  0  0  0  0
  6 23  1  0  0  0  0
 13  7  1  1  0  0  0
  7 16  1  0  0  0  0
  8 16  2  0  0  0  0
  9 15  1  0  0  0  0
  9 16  1  0  0  0  0
  9 24  1  0  0  0  0
 10 25  2  0  0  0  0
 10 28  1  0  0  0  0
 11 27  1  0  0  0  0
 11 29  1  0  0  0  0
 12 27  2  0  0  0  0
 12 30  1  0  0  0  0
 13 14  1  0  0  0  0
 13 15  1  0  0  0  0
 14 19  2  0  0  0  0
 14 20  1  0  0  0  0
 15 26  1  6  0  0  0
 17 20  2  0  0  0  0
 17 21  1  0  0  0  0
 17 22  1  0  0  0  0
 18 19  1  0  0  0  0
 18 21  2  0  0  0  0
 18 23  1  0  0  0  0
 24 25  1  0  0  0  0
 25 27  1  0  0  0  0
 28 30  2  0  0  0  0
 29 31  1  0  0  0  0
 29 32  1  0  0  0  0
 31 33  1  0  0  0  0
 32 34  1  0  0  0  0
 33 35  1  0  0  0  0
 34 35  1  0  0  0  0
M  END
> <PUBCHEM_COMPOUND_ID_TYPE>
0

> <PUBCHEM_TOTAL_CHARGE>
0

> <PUBCHEM_SUBSTANCE_ID>
310937573

> <PUBCHEM_SUBSTANCE_VERSION>
1

> <PUBCHEM_EXT_DATASOURCE_NAME>
4488

> <PUBCHEM_EXT_DATASOURCE_REGID>
SCHEMBL16115352

> <PUBCHEM_SUBSTANCE_COMMENT>
InChI=1S/C23H24F6N4O2/c1-13-19(14-9-15(22(24,25)26)11-16(10-14)23(27,28)29)35-21(34)33(13)12-18-20(31-8-7-30-18)32-17-5-3-2-4-6-17/h7-11,13,17,19H,2-6,12H2,1H3,(H,31,32)/t13-,19+/m0/s1
InChIKey=OMDNHKSLNUKASK-ORAYPTAESA-N

> <PUBCHEM_SUBSTANCE_SYNONYM>
SCHEMBL16115352

> <PUBCHEM_XREF_EXT_ID>
SCHEMBL16115352

> <PUBCHEM_EXT_DATASOURCE_URL>
https://www.surechembl.org/

> <PUBCHEM_EXT_SUBSTANCE_URL>
https://www.surechembl.org/chemical/SCHEMBL16115352

> <PUBCHEM_CID_ASSOCIATIONS>
117605283  1

> <PUBCHEM_COORDINATE_TYPE>
1
3

> <PUBCHEM_BONDANNOTATIONS>
15  26  6
13  7  5

$$$$
