310942188
  -OEChem-07211613022D

 27 28  0     1  0  0  0  0  0999 V2000
    1.7249    1.4384    0.0000 Cl  0  0  0  0  0  0  0  0  0  0  0  0
    4.6017   -0.2179    0.0000 Cl  0  0  0  0  0  0  0  0  0  0  0  0
    0.2927   -1.0399    0.0000 F   0  0  0  0  0  0  0  0  0  0  0  0
    1.7124   -0.2179    0.0000 O   0  0  0  0  0  0  0  0  0  0  0  0
   -4.0288   -1.0399    0.0000 O   0  0  0  0  0  0  0  0  0  0  0  0
   -1.8619    0.2055    0.0000 N   0  0  0  0  0  0  0  0  0  0  0  0
    4.7387    1.4509    0.0000 N   0  0  0  0  0  0  0  0  0  0  0  0
   -4.7387    0.2055    0.0000 N   0  0  0  0  0  0  0  0  0  0  0  0
    1.0025    0.2055    0.0000 C   0  0  0  0  0  0  0  0  0  0  0  0
    0.2927   -0.2055    0.0000 C   0  0  0  0  0  0  0  0  0  0  0  0
   -0.4296    0.2055    0.0000 C   0  0  0  0  0  0  0  0  0  0  0  0
    1.0150    1.0399    0.0000 C   0  0  0  0  0  0  0  0  0  0  0  0
   -1.1396   -0.2055    0.0000 C   0  0  3  0  0  0  0  0  0  0  0  0
   -0.4172    1.0275    0.0000 C   0  0  0  0  0  0  0  0  0  0  0  0
    2.4472    0.2055    0.0000 C   0  0  0  0  0  0  0  0  0  0  0  0
    0.3051    1.4384    0.0000 C   0  0  0  0  0  0  0  0  0  0  0  0
    3.1820   -0.2055    0.0000 C   0  0  0  0  0  0  0  0  0  0  0  0
    3.8794    0.2055    0.0000 C   0  0  0  0  0  0  0  0  0  0  0  0
    2.4597    1.0275    0.0000 C   0  0  0  0  0  0  0  0  0  0  0  0
    3.8918    1.0399    0.0000 C   0  0  0  0  0  0  0  0  0  0  0  0
   -1.1520   -1.0523    0.0000 C   0  0  0  0  0  0  0  0  0  0  0  0
    3.1820    1.4384    0.0000 C   0  0  0  0  0  0  0  0  0  0  0  0
   -2.5841   -0.2055    0.0000 C   0  0  3  0  0  0  0  0  0  0  0  0
   -3.2941    0.2055    0.0000 C   0  0  0  0  0  0  0  0  0  0  0  0
   -1.8494   -1.4509    0.0000 C   0  0  0  0  0  0  0  0  0  0  0  0
   -2.5841   -1.0399    0.0000 C   0  0  0  0  0  0  0  0  0  0  0  0
   -4.0164   -0.1931    0.0000 C   0  0  0  0  0  0  0  0  0  0  0  0
  1 12  1  0  0  0  0
  2 18  1  0  0  0  0
  3 10  1  0  0  0  0
  4  9  1  0  0  0  0
  4 15  1  0  0  0  0
  5 27  2  0  0  0  0
 13  6  1  1  0  0  0
  6 23  1  0  0  0  0
  7 20  1  0  0  0  0
  8 27  1  0  0  0  0
  9 10  1  0  0  0  0
  9 12  2  0  0  0  0
 10 11  2  0  0  0  0
 11 13  1  0  0  0  0
 11 14  1  0  0  0  0
 12 16  1  0  0  0  0
 13 21  1  0  0  0  0
 14 16  2  0  0  0  0
 15 17  1  0  0  0  0
 15 19  2  0  0  0  0
 17 18  2  0  0  0  0
 18 20  1  0  0  0  0
 19 22  1  0  0  0  0
 20 22  2  0  0  0  0
 21 25  1  0  0  0  0
 23 24  1  0  0  0  0
 23 26  1  1  0  0  0
 24 27  1  0  0  0  0
M  END
> <PUBCHEM_COMPOUND_ID_TYPE>
0

> <PUBCHEM_TOTAL_CHARGE>
0

> <PUBCHEM_SUBSTANCE_ID>
310942188

> <PUBCHEM_SUBSTANCE_VERSION>
1

> <PUBCHEM_EXT_DATASOURCE_NAME>
4488

> <PUBCHEM_EXT_DATASOURCE_REGID>
SCHEMBL16120223

> <PUBCHEM_SUBSTANCE_COMMENT>
InChI=1S/C19H22Cl2FN3O2/c1-3-16(25-10(2)8-17(24)26)12-5-6-13(20)19(18(12)22)27-11-4-7-15(23)14(21)9-11/h4-7,9-10,16,25H,3,8,23H2,1-2H3,(H2,24,26)/t10-,16+/m0/s1
InChIKey=ASCRMGNEFGNIJT-MGPLVRAMSA-N

> <PUBCHEM_SUBSTANCE_SYNONYM>
SCHEMBL16120223

> <PUBCHEM_XREF_EXT_ID>
SCHEMBL16120223

> <PUBCHEM_EXT_DATASOURCE_URL>
https://www.surechembl.org/

> <PUBCHEM_EXT_SUBSTANCE_URL>
https://www.surechembl.org/chemical/SCHEMBL16120223

> <PUBCHEM_CID_ASSOCIATIONS>
117608839  1

> <PUBCHEM_COORDINATE_TYPE>
1
3

> <PUBCHEM_BONDANNOTATIONS>
23  26  5
13  6  5

$$$$
