310935766
  -OEChem-07211613022D

 33 36  0     0  0  0  0  0  0999 V2000
    4.0652   -3.7986    0.0000 F   0  0  0  0  0  0  0  0  0  0  0  0
    0.0000    0.0000    0.0000 F   0  0  0  0  0  0  0  0  0  0  0  0
    1.2995   -3.6320    0.0000 O   0  0  0  0  0  0  0  0  0  0  0  0
    3.8319   -2.5324    0.0000 O   0  0  0  0  0  0  0  0  0  0  0  0
    3.3321   -6.6642    0.0000 O   0  0  0  0  0  0  0  0  0  0  0  0
    6.2311   -4.1651    0.0000 O   0  0  0  0  0  0  0  0  0  0  0  0
    6.9308   -5.3980    0.0000 O   0  0  0  0  0  0  0  0  0  0  0  0
    2.7656   -1.5661    0.0000 N   0  0  0  0  0  0  0  0  0  0  0  0
    2.6324   -3.7653    0.0000 C   0  0  0  0  0  0  0  0  0  0  0  0
    2.4658   -2.9656    0.0000 C   0  0  0  0  0  0  0  0  0  0  0  0
    1.8993   -4.1985    0.0000 C   0  0  0  0  0  0  0  0  0  0  0  0
    1.6327   -2.8656    0.0000 C   0  0  0  0  0  0  0  0  0  0  0  0
    3.3654   -4.1985    0.0000 C   0  0  0  0  0  0  0  0  0  0  0  0
    3.3654   -4.9981    0.0000 C   0  0  0  0  0  0  0  0  0  0  0  0
    2.5990   -5.4313    0.0000 C   0  0  0  0  0  0  0  0  0  0  0  0
    1.9326   -5.0315    0.0000 C   0  0  0  0  0  0  0  0  0  0  0  0
    2.9989   -2.3658    0.0000 C   0  0  0  0  0  0  0  0  0  0  0  0
    1.2329   -2.1659    0.0000 C   0  0  0  0  0  0  0  0  0  0  0  0
    4.0652   -5.3980    0.0000 C   0  0  0  0  0  0  0  0  0  0  0  0
    2.5990   -6.2311    0.0000 C   0  0  0  0  0  0  0  0  0  0  0  0
    4.7982   -4.9981    0.0000 C   0  0  0  0  0  0  0  0  0  0  0  0
    0.3999   -2.1325    0.0000 C   0  0  0  0  0  0  0  0  0  0  0  0
    1.6327   -1.4328    0.0000 C   0  0  0  0  0  0  0  0  0  0  0  0
    4.0652   -6.2311    0.0000 C   0  0  0  0  0  0  0  0  0  0  0  0
    5.4980   -5.3980    0.0000 C   0  0  0  0  0  0  0  0  0  0  0  0
    0.0000   -1.4328    0.0000 C   0  0  0  0  0  0  0  0  0  0  0  0
    1.1996   -0.7331    0.0000 C   0  0  0  0  0  0  0  0  0  0  0  0
    4.7982   -6.6309    0.0000 C   0  0  0  0  0  0  0  0  0  0  0  0
    0.3999   -0.7331    0.0000 C   0  0  0  0  0  0  0  0  0  0  0  0
    5.4980   -6.2311    0.0000 C   0  0  0  0  0  0  0  0  0  0  0  0
    6.2311   -4.9981    0.0000 C   0  0  0  0  0  0  0  0  0  0  0  0
    3.2988   -0.9663    0.0000 C   0  0  0  0  0  0  0  0  0  0  0  0
    4.1985   -6.4310    0.0000 C   0  0  0  0  0  0  0  0  0  0  0  0
  1 13  1  0  0  0  0
  2 29  1  0  0  0  0
  3 11  1  0  0  0  0
  3 12  1  0  0  0  0
  4 17  2  0  0  0  0
  5 20  1  0  0  0  0
  5 33  1  0  0  0  0
  6 31  2  0  0  0  0
  7 31  1  0  0  0  0
  8 17  1  0  0  0  0
  8 32  1  0  0  0  0
  9 10  1  0  0  0  0
  9 11  2  0  0  0  0
  9 13  1  0  0  0  0
 10 12  2  0  0  0  0
 10 17  1  0  0  0  0
 11 16  1  0  0  0  0
 12 18  1  0  0  0  0
 13 14  2  0  0  0  0
 14 15  1  0  0  0  0
 14 19  1  0  0  0  0
 15 16  2  0  0  0  0
 15 20  1  0  0  0  0
 18 22  2  0  0  0  0
 18 23  1  0  0  0  0
 19 21  1  0  0  0  0
 19 24  2  0  0  0  0
 21 25  2  0  0  0  0
 22 26  1  0  0  0  0
 23 27  2  0  0  0  0
 24 28  1  0  0  0  0
 25 30  1  0  0  0  0
 25 31  1  0  0  0  0
 26 29  2  0  0  0  0
 27 29  1  0  0  0  0
 28 30  2  0  0  0  0
M  END
> <PUBCHEM_COMPOUND_ID_TYPE>
0

> <PUBCHEM_TOTAL_CHARGE>
0

> <PUBCHEM_SUBSTANCE_ID>
310935766

> <PUBCHEM_SUBSTANCE_VERSION>
1

> <PUBCHEM_EXT_DATASOURCE_NAME>
4488

> <PUBCHEM_EXT_DATASOURCE_REGID>
SCHEMBL16113350

> <PUBCHEM_SUBSTANCE_COMMENT>
InChI=1S/C25H19F2NO5/c1-28-24(29)21-20-18(33-23(21)13-6-8-17(26)9-7-13)11-16(12-32-2)19(22(20)27)14-4-3-5-15(10-14)25(30)31/h3-11H,12H2,1-2H3,(H,28,29)(H,30,31)
InChIKey=XRWCBHJQWSPVLS-UHFFFAOYSA-N

> <PUBCHEM_SUBSTANCE_SYNONYM>
SCHEMBL16113350

> <PUBCHEM_XREF_EXT_ID>
SCHEMBL16113350

> <PUBCHEM_EXT_DATASOURCE_URL>
https://www.surechembl.org/

> <PUBCHEM_EXT_SUBSTANCE_URL>
https://www.surechembl.org/chemical/SCHEMBL16113350

> <PUBCHEM_CID_ASSOCIATIONS>
117603765  1

> <PUBCHEM_COORDINATE_TYPE>
1
3

$$$$
