310942143
  -OEChem-07211613022D

 25 26  0     1  0  0  0  0  0999 V2000
    1.7934    1.4559    0.0000 Cl  0  0  0  0  0  0  0  0  0  0  0  0
    0.3562   -1.0436    0.0000 F   0  0  0  0  0  0  0  0  0  0  0  0
    1.7934   -0.2187    0.0000 O   0  0  0  0  0  0  0  0  0  0  0  0
   -3.1931    0.2187    0.0000 O   0  0  0  0  0  0  0  0  0  0  0  0
   -1.8059    0.2062    0.0000 N   0  0  0  0  0  0  0  0  0  0  0  0
    3.2556   -0.2062    0.0000 N   0  0  0  0  0  0  0  0  0  0  0  0
    3.2556    1.4559    0.0000 N   0  0  0  0  0  0  0  0  0  0  0  0
   -3.9679    1.4434    0.0000 N   0  0  0  0  0  0  0  0  0  0  0  0
    1.0686    0.2187    0.0000 C   0  0  0  0  0  0  0  0  0  0  0  0
    0.3562   -0.2062    0.0000 C   0  0  0  0  0  0  0  0  0  0  0  0
   -0.3687    0.2062    0.0000 C   0  0  0  0  0  0  0  0  0  0  0  0
    1.0811    1.0436    0.0000 C   0  0  0  0  0  0  0  0  0  0  0  0
   -1.0811   -0.2062    0.0000 C   0  0  3  0  0  0  0  0  0  0  0  0
   -0.3562    1.0311    0.0000 C   0  0  0  0  0  0  0  0  0  0  0  0
    0.3562    1.4434    0.0000 C   0  0  0  0  0  0  0  0  0  0  0  0
    2.5057    0.2062    0.0000 C   0  0  0  0  0  0  0  0  0  0  0  0
   -1.0811   -1.0436    0.0000 C   0  0  0  0  0  0  0  0  0  0  0  0
   -1.8059    1.0436    0.0000 C   0  0  3  0  0  0  0  0  0  0  0  0
    2.5307    1.0436    0.0000 C   0  0  0  0  0  0  0  0  0  0  0  0
    3.9679    0.2062    0.0000 C   0  0  0  0  0  0  0  0  0  0  0  0
   -2.5182    1.4559    0.0000 C   0  0  0  0  0  0  0  0  0  0  0  0
    3.9679    1.0311    0.0000 C   0  0  0  0  0  0  0  0  0  0  0  0
   -0.3687   -1.4559    0.0000 C   0  0  0  0  0  0  0  0  0  0  0  0
   -1.0936    1.4559    0.0000 C   0  0  0  0  0  0  0  0  0  0  0  0
   -3.2431    1.0311    0.0000 C   0  0  0  0  0  0  0  0  0  0  0  0
  1 12  1  0  0  0  0
  2 10  1  0  0  0  0
  3  9  1  0  0  0  0
  3 16  1  0  0  0  0
  4 25  2  0  0  0  0
 13  5  1  1  0  0  0
  5 18  1  0  0  0  0
  6 16  2  0  0  0  0
  6 20  1  0  0  0  0
  7 19  2  0  0  0  0
  7 22  1  0  0  0  0
  8 25  1  0  0  0  0
  9 10  2  0  0  0  0
  9 12  1  0  0  0  0
 10 11  1  0  0  0  0
 11 13  1  0  0  0  0
 11 14  2  0  0  0  0
 12 15  2  0  0  0  0
 13 17  1  0  0  0  0
 14 15  1  0  0  0  0
 16 19  1  0  0  0  0
 17 23  1  0  0  0  0
 18 21  1  0  0  0  0
 18 24  1  6  0  0  0
 20 22  2  0  0  0  0
 21 25  1  0  0  0  0
M  END
> <PUBCHEM_COMPOUND_ID_TYPE>
0

> <PUBCHEM_TOTAL_CHARGE>
0

> <PUBCHEM_SUBSTANCE_ID>
310942143

> <PUBCHEM_SUBSTANCE_VERSION>
1

> <PUBCHEM_EXT_DATASOURCE_NAME>
4488

> <PUBCHEM_EXT_DATASOURCE_REGID>
SCHEMBL16120178

> <PUBCHEM_SUBSTANCE_COMMENT>
InChI=1S/C17H20ClFN4O2/c1-3-13(23-10(2)8-14(20)24)11-4-5-12(18)17(16(11)19)25-15-9-21-6-7-22-15/h4-7,9-10,13,23H,3,8H2,1-2H3,(H2,20,24)/t10-,13+/m0/s1
InChIKey=BCMITUPSLDTNOF-GXFFZTMASA-N

> <PUBCHEM_SUBSTANCE_SYNONYM>
SCHEMBL16120178

> <PUBCHEM_XREF_EXT_ID>
SCHEMBL16120178

> <PUBCHEM_EXT_DATASOURCE_URL>
https://www.surechembl.org/

> <PUBCHEM_EXT_SUBSTANCE_URL>
https://www.surechembl.org/chemical/SCHEMBL16120178

> <PUBCHEM_CID_ASSOCIATIONS>
117608802  1

> <PUBCHEM_COORDINATE_TYPE>
1
3

> <PUBCHEM_BONDANNOTATIONS>
18  24  6
13  5  5

$$$$
