310943218
  -OEChem-07211613022D

 35 39  0     0  0  0  0  0  0999 V2000
   -4.2723    2.4083    0.0000 O   0  0  0  0  0  0  0  0  0  0  0  0
    1.3196   -0.0825    0.0000 O   0  0  0  0  0  0  0  0  0  0  0  0
    4.2723   -2.6393    0.0000 O   0  0  0  0  0  0  0  0  0  0  0  0
   -1.4516    1.6166    0.0000 N   0  0  0  0  0  0  0  0  0  0  0  0
   -2.8702    1.6001    0.0000 N   0  0  0  0  0  0  0  0  0  0  0  0
   -2.7712   -0.1650    0.0000 N   0  0  0  0  0  0  0  0  0  0  0  0
   -1.6331   -0.8082    0.0000 N   0  0  0  0  0  0  0  0  0  0  0  0
    0.6598    2.8207    0.0000 N   0  0  0  0  0  0  0  0  0  0  0  0
    2.0619    1.2042    0.0000 N   0  0  0  0  0  0  0  0  0  0  0  0
    4.2723   -0.9237    0.0000 N   0  0  0  0  0  0  0  0  0  0  0  0
   -2.1773    0.3794    0.0000 C   0  0  0  0  0  0  0  0  0  0  0  0
   -2.1608    1.2042    0.0000 C   0  0  0  0  0  0  0  0  0  0  0  0
   -0.7423    1.2042    0.0000 C   0  0  0  0  0  0  0  0  0  0  0  0
   -1.4516   -0.0165    0.0000 C   0  0  0  0  0  0  0  0  0  0  0  0
   -0.0660    1.6001    0.0000 C   0  0  0  0  0  0  0  0  0  0  0  0
   -0.7588    0.3794    0.0000 C   0  0  0  0  0  0  0  0  0  0  0  0
   -0.0495    2.4248    0.0000 C   0  0  0  0  0  0  0  0  0  0  0  0
    0.6598    1.2042    0.0000 C   0  0  0  0  0  0  0  0  0  0  0  0
    1.3361    1.6166    0.0000 C   0  0  0  0  0  0  0  0  0  0  0  0
   -2.4248   -0.9072    0.0000 C   0  0  0  0  0  0  0  0  0  0  0  0
   -2.8702    2.4248    0.0000 C   0  0  0  0  0  0  0  0  0  0  0  0
   -3.5465    1.2042    0.0000 C   0  0  0  0  0  0  0  0  0  0  0  0
    1.3692    2.4083    0.0000 C   0  0  0  0  0  0  0  0  0  0  0  0
    2.8042   -0.0660    0.0000 C   0  0  0  0  0  0  0  0  0  0  0  0
    2.0619    0.3629    0.0000 C   0  0  0  0  0  0  0  0  0  0  0  0
    3.5300   -1.3526    0.0000 C   0  0  0  0  0  0  0  0  0  0  0  0
    3.5135   -2.1938    0.0000 C   0  0  0  0  0  0  0  0  0  0  0  0
    2.8042   -0.9237    0.0000 C   0  0  0  0  0  0  0  0  0  0  0  0
   -0.7588    2.8042    0.0000 C   0  0  0  0  0  0  0  0  0  0  0  0
   -3.5795    2.8207    0.0000 C   0  0  0  0  0  0  0  0  0  0  0  0
   -4.2558    1.6001    0.0000 C   0  0  0  0  0  0  0  0  0  0  0  0
    3.5300    0.3465    0.0000 C   0  0  0  0  0  0  0  0  0  0  0  0
    4.2558   -0.0660    0.0000 C   0  0  0  0  0  0  0  0  0  0  0  0
    2.7052   -2.0124    0.0000 C   0  0  0  0  0  0  0  0  0  0  0  0
    2.9362   -2.8207    0.0000 C   0  0  0  0  0  0  0  0  0  0  0  0
  1 30  1  0  0  0  0
  1 31  1  0  0  0  0
  2 25  2  0  0  0  0
  3 27  1  0  0  0  0
  4 12  2  0  0  0  0
  4 13  1  0  0  0  0
  5 12  1  0  0  0  0
  5 21  1  0  0  0  0
  5 22  1  0  0  0  0
  6 11  1  0  0  0  0
  6 20  2  0  0  0  0
  7 14  1  0  0  0  0
  7 20  1  0  0  0  0
  8 17  1  0  0  0  0
  8 23  2  0  0  0  0
  9 19  1  0  0  0  0
  9 25  1  0  0  0  0
 10 26  2  0  0  0  0
 10 33  1  0  0  0  0
 11 12  1  0  0  0  0
 11 14  2  0  0  0  0
 13 15  1  0  0  0  0
 13 16  2  0  0  0  0
 14 16  1  0  0  0  0
 15 17  2  0  0  0  0
 15 18  1  0  0  0  0
 17 29  1  0  0  0  0
 18 19  2  0  0  0  0
 19 23  1  0  0  0  0
 21 30  1  0  0  0  0
 22 31  1  0  0  0  0
 24 25  1  0  0  0  0
 24 28  2  0  0  0  0
 24 32  1  0  0  0  0
 26 27  1  0  0  0  0
 26 28  1  0  0  0  0
 27 34  1  0  0  0  0
 27 35  1  0  0  0  0
 32 33  2  0  0  0  0
M  END
> <PUBCHEM_COMPOUND_ID_TYPE>
0

> <PUBCHEM_TOTAL_CHARGE>
0

> <PUBCHEM_SUBSTANCE_ID>
310943218

> <PUBCHEM_SUBSTANCE_VERSION>
1

> <PUBCHEM_EXT_DATASOURCE_NAME>
4488

> <PUBCHEM_EXT_DATASOURCE_REGID>
SCHEMBL16121279

> <PUBCHEM_SUBSTANCE_COMMENT>
InChI=1S/C25H27N7O3/c1-15-18(19-12-20-22(29-14-28-20)23(31-19)32-6-8-35-9-7-32)11-17(13-27-15)30-24(33)16-4-5-26-21(10-16)25(2,3)34/h4-5,10-14,34H,6-9H2,1-3H3,(H,28,29)(H,30,33)
InChIKey=ADHNAKNBOQNQJE-UHFFFAOYSA-N

> <PUBCHEM_SUBSTANCE_SYNONYM>
SCHEMBL16121279

> <PUBCHEM_XREF_EXT_ID>
SCHEMBL16121279

> <PUBCHEM_EXT_DATASOURCE_URL>
https://www.surechembl.org/

> <PUBCHEM_EXT_SUBSTANCE_URL>
https://www.surechembl.org/chemical/SCHEMBL16121279

> <PUBCHEM_CID_ASSOCIATIONS>
117609644  1

> <PUBCHEM_COORDINATE_TYPE>
1
3

$$$$
