310940712
  -OEChem-07211613022D

 36 40  0     0  0  0  0  0  0999 V2000
    1.0465    3.1322    0.0000 Br  0  0  0  0  0  0  0  0  0  0  0  0
   -0.0884   -2.7932    0.0000 F   0  0  0  0  0  0  0  0  0  0  0  0
   -1.5330   -0.3169    0.0000 O   0  0  0  0  0  0  0  0  0  0  0  0
    3.1543   -0.4349    0.0000 O   0  0  0  0  0  0  0  0  0  0  0  0
    4.4072   -1.1571    0.0000 O   0  0  0  0  0  0  0  0  0  0  0  0
    1.4150   -0.4643    0.0000 N   0  0  0  0  0  0  0  0  0  0  0  0
    1.4150   -1.8056    0.0000 N   0  0  0  0  0  0  0  0  0  0  0  0
   -2.2552    1.7467    0.0000 N   0  0  0  0  0  0  0  0  0  0  0  0
    0.6339   -0.7296    0.0000 C   0  0  0  0  0  0  0  0  0  0  0  0
    0.6191   -1.5403    0.0000 C   0  0  0  0  0  0  0  0  0  0  0  0
    1.9162   -1.1276    0.0000 C   0  0  0  0  0  0  0  0  0  0  0  0
    3.1543   -1.8351    0.0000 C   0  0  0  0  0  0  0  0  0  0  0  0
    2.7563   -1.1571    0.0000 C   0  0  0  0  0  0  0  0  0  0  0  0
   -0.0884   -1.9531    0.0000 C   0  0  0  0  0  0  0  0  0  0  0  0
   -0.1032   -0.3316    0.0000 C   0  0  0  0  0  0  0  0  0  0  0  0
   -0.7960   -0.7296    0.0000 C   0  0  0  0  0  0  0  0  0  0  0  0
    1.6803    0.3169    0.0000 C   0  0  0  0  0  0  0  0  0  0  0  0
   -0.7960   -1.5551    0.0000 C   0  0  0  0  0  0  0  0  0  0  0  0
    3.5818   -1.1423    0.0000 C   0  0  0  0  0  0  0  0  0  0  0  0
    2.4911   -2.3510    0.0000 C   0  0  0  0  0  0  0  0  0  0  0  0
    3.8177   -2.3510    0.0000 C   0  0  0  0  0  0  0  0  0  0  0  0
    1.1350    0.9360    0.0000 C   0  0  0  0  0  0  0  0  0  0  0  0
    2.7563   -3.1322    0.0000 C   0  0  0  0  0  0  0  0  0  0  0  0
    3.5670   -3.1322    0.0000 C   0  0  0  0  0  0  0  0  0  0  0  0
    1.3708    1.7172    0.0000 C   0  0  0  0  0  0  0  0  0  0  0  0
    0.3095    0.7739    0.0000 C   0  0  0  0  0  0  0  0  0  0  0  0
   -1.5330    0.5085    0.0000 C   0  0  0  0  0  0  0  0  0  0  0  0
    0.8107    2.3363    0.0000 C   0  0  0  0  0  0  0  0  0  0  0  0
   -0.2359    1.3782    0.0000 C   0  0  0  0  0  0  0  0  0  0  0  0
   -2.2552    0.9360    0.0000 C   0  0  0  0  0  0  0  0  0  0  0  0
    0.0147    2.1594    0.0000 C   0  0  0  0  0  0  0  0  0  0  0  0
   -2.9479    0.5232    0.0000 C   0  0  0  0  0  0  0  0  0  0  0  0
   -2.9774    2.1741    0.0000 C   0  0  0  0  0  0  0  0  0  0  0  0
   -3.6849    0.9360    0.0000 C   0  0  0  0  0  0  0  0  0  0  0  0
   -3.6849    1.7467    0.0000 C   0  0  0  0  0  0  0  0  0  0  0  0
   -4.4072    2.1741    0.0000 C   0  0  0  0  0  0  0  0  0  0  0  0
  1 28  1  0  0  0  0
  2 14  1  0  0  0  0
  3 16  1  0  0  0  0
  3 27  1  0  0  0  0
  4 19  2  0  0  0  0
  5 19  1  0  0  0  0
  6  9  1  0  0  0  0
  6 11  1  0  0  0  0
  6 17  1  0  0  0  0
  7 10  1  0  0  0  0
  7 11  2  0  0  0  0
  8 30  1  0  0  0  0
  8 33  2  0  0  0  0
  9 10  2  0  0  0  0
  9 15  1  0  0  0  0
 10 14  1  0  0  0  0
 11 13  1  0  0  0  0
 12 13  1  0  0  0  0
 12 19  1  0  0  0  0
 12 20  1  0  0  0  0
 12 21  1  0  0  0  0
 14 18  2  0  0  0  0
 15 16  2  0  0  0  0
 16 18  1  0  0  0  0
 17 22  1  0  0  0  0
 20 23  1  0  0  0  0
 21 24  1  0  0  0  0
 22 25  1  0  0  0  0
 22 26  2  0  0  0  0
 23 24  1  0  0  0  0
 25 28  2  0  0  0  0
 26 29  1  0  0  0  0
 27 30  1  0  0  0  0
 28 31  1  0  0  0  0
 29 31  2  0  0  0  0
 30 32  2  0  0  0  0
 32 34  1  0  0  0  0
 33 35  1  0  0  0  0
 34 35  2  0  0  0  0
 35 36  1  0  0  0  0
M  END
> <PUBCHEM_COMPOUND_ID_TYPE>
0

> <PUBCHEM_TOTAL_CHARGE>
0

> <PUBCHEM_SUBSTANCE_ID>
310940712

> <PUBCHEM_SUBSTANCE_VERSION>
1

> <PUBCHEM_EXT_DATASOURCE_NAME>
4488

> <PUBCHEM_EXT_DATASOURCE_REGID>
SCHEMBL16118668

> <PUBCHEM_SUBSTANCE_COMMENT>
InChI=1S/C28H27BrFN3O3/c1-18-7-8-21(31-15-18)17-36-22-12-23(30)26-24(13-22)33(16-19-5-4-6-20(29)11-19)25(32-26)14-28(27(34)35)9-2-3-10-28/h4-8,11-13,15H,2-3,9-10,14,16-17H2,1H3,(H,34,35)
InChIKey=UARBXEVHIPSKAO-UHFFFAOYSA-N

> <PUBCHEM_SUBSTANCE_SYNONYM>
SCHEMBL16118668

> <PUBCHEM_XREF_EXT_ID>
SCHEMBL16118668

> <PUBCHEM_EXT_DATASOURCE_URL>
https://www.surechembl.org/

> <PUBCHEM_EXT_SUBSTANCE_URL>
https://www.surechembl.org/chemical/SCHEMBL16118668

> <PUBCHEM_CID_ASSOCIATIONS>
117607669  1

> <PUBCHEM_COORDINATE_TYPE>
1
3

$$$$
