310946948
  -OEChem-07211613022D

 20 22  0     0  0  0  0  0  0999 V2000
    1.5811   -1.4815    0.0000 N   0  0  0  0  0  0  0  0  0  0  0  0
    3.0101   -1.4815    0.0000 N   0  0  0  0  0  0  0  0  0  0  0  0
    4.4390   -1.4815    0.0000 N   0  0  0  0  0  0  0  0  0  0  0  0
    4.4390   -3.1315    0.0000 N   0  0  0  0  0  0  0  0  0  0  0  0
    1.9936    0.0580    0.0000 N   0  0  0  0  0  0  0  0  0  0  0  0
    2.2956   -1.8940    0.0000 C   0  0  0  0  0  0  0  0  0  0  0  0
    3.7245   -1.8940    0.0000 C   0  0  0  0  0  0  0  0  0  0  0  0
    3.7245   -2.7190    0.0000 C   0  0  0  0  0  0  0  0  0  0  0  0
    0.7842   -1.6950    0.0000 C   0  0  0  0  0  0  0  0  0  0  0  0
    2.2956   -2.7190    0.0000 C   0  0  0  0  0  0  0  0  0  0  0  0
    3.0101   -3.1315    0.0000 C   0  0  0  0  0  0  0  0  0  0  0  0
    5.1535   -1.8940    0.0000 C   0  0  0  0  0  0  0  0  0  0  0  0
    5.1535   -2.7190    0.0000 C   0  0  0  0  0  0  0  0  0  0  0  0
    1.5811   -0.6565    0.0000 C   0  0  0  0  0  0  0  0  0  0  0  0
    0.2009   -1.1116    0.0000 C   0  0  0  0  0  0  0  0  0  0  0  0
    0.5707   -2.4919    0.0000 C   0  0  0  0  0  0  0  0  0  0  0  0
   -0.5960   -1.3251    0.0000 C   0  0  0  0  0  0  0  0  0  0  0  0
   -0.2262   -2.7054    0.0000 C   0  0  0  0  0  0  0  0  0  0  0  0
   -0.8095   -2.1220    0.0000 C   0  0  0  0  0  0  0  0  0  0  0  0
    5.8679   -1.4815    0.0000 H   1  0  0  0  0  0  0  0  0  0  0  0
  1  6  1  0  0  0  0
  1  9  1  0  0  0  0
  1 14  1  0  0  0  0
  2  6  1  0  0  0  0
  2  7  2  0  0  0  0
  3  7  1  0  0  0  0
  3 12  2  0  0  0  0
  4  8  1  0  0  0  0
  4 13  2  0  0  0  0
  5 14  1  0  0  0  0
  6 10  2  0  0  0  0
  7  8  1  0  0  0  0
  8 11  2  0  0  0  0
  9 15  2  0  0  0  0
  9 16  1  0  0  0  0
 10 11  1  0  0  0  0
 12 13  1  0  0  0  0
 12 20  1  0  0  0  0
 15 17  1  0  0  0  0
 16 18  2  0  0  0  0
 17 19  2  0  0  0  0
 18 19  1  0  0  0  0
M  ISO  1  20   2
M  END
> <PUBCHEM_COMPOUND_ID_TYPE>
0

> <PUBCHEM_TOTAL_CHARGE>
0

> <PUBCHEM_SUBSTANCE_ID>
310946948

> <PUBCHEM_SUBSTANCE_VERSION>
1

> <PUBCHEM_EXT_DATASOURCE_NAME>
4488

> <PUBCHEM_EXT_DATASOURCE_REGID>
SCHEMBL16125073

> <PUBCHEM_SUBSTANCE_COMMENT>
InChI=1S/C14H13N5/c15-10-19(11-4-2-1-3-5-11)13-7-6-12-14(18-13)17-9-8-16-12/h1-9H,10,15H2/i9D
InChIKey=CDENFRADLLYFPQ-QOWOAITPSA-N

> <PUBCHEM_SUBSTANCE_SYNONYM>
SCHEMBL16125073

> <PUBCHEM_XREF_EXT_ID>
SCHEMBL16125073

> <PUBCHEM_EXT_DATASOURCE_URL>
https://www.surechembl.org/

> <PUBCHEM_EXT_SUBSTANCE_URL>
https://www.surechembl.org/chemical/SCHEMBL16125073

> <PUBCHEM_CID_ASSOCIATIONS>
117612804  1

> <PUBCHEM_COORDINATE_TYPE>
1
3

$$$$
