310948005
  -OEChem-07211613022D

 35 41  0     1  0  0  0  0  0999 V2000
    3.6829    0.1813    0.0000 O   0  0  0  0  0  0  0  0  0  0  0  0
    3.5203    0.9942    0.0000 O   0  0  0  0  0  0  0  0  0  0  0  0
    4.7458    1.9196    0.0000 O   0  0  0  0  0  0  0  0  0  0  0  0
   -1.4319   -1.2193    0.0000 O   0  0  0  0  0  0  0  0  0  0  0  0
   -2.2697   -1.2193    0.0000 O   0  0  0  0  0  0  0  0  0  0  0  0
   -4.2707   -1.7320    0.0000 O   0  0  0  0  0  0  0  0  0  0  0  0
   -3.8830   -0.3939    0.0000 O   0  0  0  0  0  0  0  0  0  0  0  0
    2.8950    0.4565    0.0000 C   0  0  3  0  0  0  0  0  0  0  0  0
    2.9075    1.2943    0.0000 C   0  0  3  0  0  0  0  0  0  0  0  0
    3.6954    1.5444    0.0000 C   0  0  3  0  0  0  0  0  0  0  0  0
    2.1822    0.0563    0.0000 C   0  0  3  0  0  0  0  0  0  0  0  0
    4.1831    0.8691    0.0000 C   0  0  3  0  0  0  0  0  0  0  0  0
    1.4694    0.4440    0.0000 C   0  0  3  0  0  0  0  0  0  0  0  0
    3.9205    2.1822    0.0000 C   0  0  3  0  0  0  0  0  0  0  0  0
    2.1822    1.6945    0.0000 C   0  0  0  0  0  0  0  0  0  0  0  0
    0.7441    0.0438    0.0000 C   0  0  3  0  0  0  0  0  0  0  0  0
    1.4819    1.2818    0.0000 C   0  0  0  0  0  0  0  0  0  0  0  0
    4.3832    1.5695    0.0000 C   0  0  0  0  0  0  0  0  0  0  0  0
    2.9075    2.1072    0.0000 C   0  0  0  0  0  0  0  0  0  0  0  0
    2.1822   -0.8066    0.0000 C   0  0  0  0  0  0  0  0  0  0  0  0
    4.7084    1.1067    0.0000 C   0  0  0  0  0  0  0  0  0  0  0  0
    0.7441   -0.7941    0.0000 C   0  0  0  0  0  0  0  0  0  0  0  0
    1.4694   -1.2193    0.0000 C   0  0  0  0  0  0  0  0  0  0  0  0
    0.0063    0.4315    0.0000 C   0  0  0  0  0  0  0  0  0  0  0  0
    0.7441    0.8567    0.0000 C   0  0  0  0  0  0  0  0  0  0  0  0
    0.0313   -1.2068    0.0000 C   0  0  0  0  0  0  0  0  0  0  0  0
   -0.7065   -0.7941    0.0000 C   0  0  3  0  0  0  0  0  0  0  0  0
   -0.6940    0.0313    0.0000 C   0  0  0  0  0  0  0  0  0  0  0  0
   -1.8570   -1.9321    0.0000 C   0  0  3  0  0  0  0  0  0  0  0  0
   -2.6699   -1.7320    0.0000 C   0  0  0  0  0  0  0  0  0  0  0  0
   -3.4703   -1.9321    0.0000 C   0  0  3  0  0  0  0  0  0  0  0  0
   -3.0951   -1.4069    0.0000 C   0  0  3  0  0  0  0  0  0  0  0  0
   -3.8580   -1.2193    0.0000 C   0  0  3  0  0  0  0  0  0  0  0  0
   -3.6454   -0.8442    0.0000 C   0  0  0  0  0  0  0  0  0  0  0  0
   -4.7709   -2.3448    0.0000 C   0  0  0  0  0  0  0  0  0  0  0  0
  8  1  1  6  0  0  0
 12  1  1  1  0  0  0
  2  8  1  0  0  0  0
  2 18  1  0  0  0  0
 14  3  1  6  0  0  0
  3 21  1  0  0  0  0
 27  4  1  1  0  0  0
  4 29  1  0  0  0  0
  5 29  1  0  0  0  0
  5 32  1  0  0  0  0
  6 31  1  0  0  0  0
  6 35  1  0  0  0  0
  7 33  1  0  0  0  0
  8  9  1  0  0  0  0
  8 11  1  0  0  0  0
  9 10  1  0  0  0  0
  9 15  1  0  0  0  0
  9 19  1  1  0  0  0
 10 12  1  1  0  0  0
 10 14  1  0  0  0  0
 11 13  1  0  0  0  0
 11 20  1  6  0  0  0
 12 21  1  0  0  0  0
 13 16  1  0  0  0  0
 13 17  1  1  0  0  0
 14 18  1  0  0  0  0
 15 17  1  0  0  0  0
 16 22  1  0  0  0  0
 16 24  1  0  0  0  0
 16 25  1  1  0  0  0
 20 23  1  0  0  0  0
 22 23  2  0  0  0  0
 22 26  1  0  0  0  0
 24 28  1  0  0  0  0
 26 27  1  0  0  0  0
 27 28  1  0  0  0  0
 29 30  1  0  0  0  0
 30 31  1  0  0  0  0
 31 33  1  0  0  0  0
 32 33  1  0  0  0  0
 32 34  1  0  0  0  0
M  END
> <PUBCHEM_COMPOUND_ID_TYPE>
0

> <PUBCHEM_TOTAL_CHARGE>
0

> <PUBCHEM_SUBSTANCE_ID>
310948005

> <PUBCHEM_SUBSTANCE_VERSION>
1

> <PUBCHEM_EXT_DATASOURCE_NAME>
4488

> <PUBCHEM_EXT_DATASOURCE_REGID>
SCHEMBL16126179

> <PUBCHEM_SUBSTANCE_COMMENT>
InChI=1S/C28H42O7/c1-15-25(29)20(30-4)12-23(33-15)34-17-7-9-26(2)16(11-17)5-6-19-18(26)8-10-27(3)24-21-14-32-28(19,27)35-22(24)13-31-21/h5,15,17-25,29H,6-14H2,1-4H3/t15?,17-,18-,19+,20?,21+,22+,23?,24-,25?,26-,27+,28+/m0/s1
InChIKey=GIBDEJWEHLGSCL-ODEZMYESSA-N

> <PUBCHEM_SUBSTANCE_SYNONYM>
SCHEMBL16126179

> <PUBCHEM_XREF_EXT_ID>
SCHEMBL16126179

> <PUBCHEM_EXT_DATASOURCE_URL>
https://www.surechembl.org/

> <PUBCHEM_EXT_SUBSTANCE_URL>
https://www.surechembl.org/chemical/SCHEMBL16126179

> <PUBCHEM_CID_ASSOCIATIONS>
117613650  1

> <PUBCHEM_COORDINATE_TYPE>
1
3

> <PUBCHEM_BONDANNOTATIONS>
12  1  5
8  1  6
10  12  5
11  20  6
13  17  5
16  25  5
14  3  6
27  4  5
9  19  5

$$$$
