310946315
  -OEChem-07211613022D

 29 31  0     0  0  0  0  0  0999 V2000
   -2.1434    7.7376    0.0000 I   0  0  0  0  0  0  0  0  0  0  0  0
   -0.7145   10.2126    0.0000 I   0  0  0  0  0  0  0  0  0  0  0  0
   -5.0013    9.3876    0.0000 I   0  0  0  0  0  0  0  0  0  0  0  0
   -2.1434    9.3876    0.0000 O   0  0  0  0  0  0  0  0  0  0  0  0
   -5.0013    7.7376    0.0000 O   0  0  0  0  0  0  0  0  0  0  0  0
    1.4289    8.9751    0.0000 O   0  0  0  0  0  0  0  0  0  0  0  0
    5.0013    9.3876    0.0000 O   0  0  0  0  0  0  0  0  0  0  0  0
    2.1434    7.7376    0.0000 N   0  0  0  0  0  0  0  0  0  0  0  0
   -1.4289    8.9751    0.0000 C   0  0  0  0  0  0  0  0  0  0  0  0
   -1.4289    8.1501    0.0000 C   0  0  0  0  0  0  0  0  0  0  0  0
   -0.7145    9.3876    0.0000 C   0  0  0  0  0  0  0  0  0  0  0  0
    0.0000    8.1501    0.0000 C   0  0  0  0  0  0  0  0  0  0  0  0
   -2.8579    8.9751    0.0000 C   0  0  0  0  0  0  0  0  0  0  0  0
   -0.7145    7.7376    0.0000 C   0  0  0  0  0  0  0  0  0  0  0  0
    0.0000    8.9751    0.0000 C   0  0  0  0  0  0  0  0  0  0  0  0
    0.7145    7.7376    0.0000 C   0  0  0  0  0  0  0  0  0  0  0  0
   -3.5724    9.3876    0.0000 C   0  0  0  0  0  0  0  0  0  0  0  0
   -4.2868    8.9751    0.0000 C   0  0  0  0  0  0  0  0  0  0  0  0
   -2.8579    8.1501    0.0000 C   0  0  0  0  0  0  0  0  0  0  0  0
   -4.2868    8.1501    0.0000 C   0  0  0  0  0  0  0  0  0  0  0  0
    1.4289    8.1501    0.0000 C   0  0  0  0  0  0  0  0  0  0  0  0
   -3.5724    7.7376    0.0000 C   0  0  0  0  0  0  0  0  0  0  0  0
    2.8579    8.1501    0.0000 C   0  0  0  0  0  0  0  0  0  0  0  0
    3.5724    7.7376    0.0000 C   0  0  0  0  0  0  0  0  0  0  0  0
    2.8579    8.9751    0.0000 C   0  0  0  0  0  0  0  0  0  0  0  0
    4.2868    8.9751    0.0000 C   0  0  0  0  0  0  0  0  0  0  0  0
    4.2868    8.1501    0.0000 C   0  0  0  0  0  0  0  0  0  0  0  0
    3.5724    9.3876    0.0000 C   0  0  0  0  0  0  0  0  0  0  0  0
    5.0013   10.2126    0.0000 C   0  0  0  0  0  0  0  0  0  0  0  0
  1 10  1  0  0  0  0
  2 11  1  0  0  0  0
  3 18  1  0  0  0  0
  4  9  1  0  0  0  0
  4 13  1  0  0  0  0
  5 20  1  0  0  0  0
  6 21  2  0  0  0  0
  7 26  1  0  0  0  0
  7 29  1  0  0  0  0
  8 21  1  0  0  0  0
  8 23  1  0  0  0  0
  9 10  2  0  0  0  0
  9 11  1  0  0  0  0
 10 14  1  0  0  0  0
 11 15  2  0  0  0  0
 12 14  2  0  0  0  0
 12 15  1  0  0  0  0
 12 16  1  0  0  0  0
 13 17  2  0  0  0  0
 13 19  1  0  0  0  0
 16 21  1  0  0  0  0
 17 18  1  0  0  0  0
 18 20  2  0  0  0  0
 19 22  2  0  0  0  0
 20 22  1  0  0  0  0
 23 24  2  0  0  0  0
 23 25  1  0  0  0  0
 24 27  1  0  0  0  0
 25 28  2  0  0  0  0
 26 27  2  0  0  0  0
 26 28  1  0  0  0  0
M  END
> <PUBCHEM_COMPOUND_ID_TYPE>
0

> <PUBCHEM_TOTAL_CHARGE>
0

> <PUBCHEM_SUBSTANCE_ID>
310946315

> <PUBCHEM_SUBSTANCE_VERSION>
1

> <PUBCHEM_EXT_DATASOURCE_NAME>
4488

> <PUBCHEM_EXT_DATASOURCE_REGID>
SCHEMBL16124434

> <PUBCHEM_SUBSTANCE_COMMENT>
InChI=1S/C21H16I3NO4/c1-28-14-4-2-13(3-5-14)25-20(27)10-12-8-17(23)21(18(24)9-12)29-15-6-7-19(26)16(22)11-15/h2-9,11,26H,10H2,1H3,(H,25,27)
InChIKey=SRVYLFZOEYLSKT-UHFFFAOYSA-N

> <PUBCHEM_SUBSTANCE_SYNONYM>
SCHEMBL16124434

> <PUBCHEM_XREF_EXT_ID>
SCHEMBL16124434

> <PUBCHEM_EXT_DATASOURCE_URL>
https://www.surechembl.org/

> <PUBCHEM_EXT_SUBSTANCE_URL>
https://www.surechembl.org/chemical/SCHEMBL16124434

> <PUBCHEM_CID_ASSOCIATIONS>
117612250  1

> <PUBCHEM_COORDINATE_TYPE>
1
3

$$$$
