310943165
  -OEChem-07211613022D

 34 37  0     0  0  0  0  0  0999 V2000
   -2.1197    1.8712    0.0000 Cl  0  0  0  0  0  0  0  0  0  0  0  0
    4.8388    1.5057    0.0000 F   0  0  0  0  0  0  0  0  0  0  0  0
    5.4235    1.2718    0.0000 F   0  0  0  0  0  0  0  0  0  0  0  0
   -2.6898   -1.8858    0.0000 O   0  0  0  0  0  0  0  0  0  0  0  0
    1.9589    1.5057    0.0000 O   0  0  0  0  0  0  0  0  0  0  0  0
   -5.5698    1.4765    0.0000 O   0  0  0  0  0  0  0  0  0  0  0  0
   -3.4061   -0.6433    0.0000 N   0  0  0  0  0  0  0  0  0  0  0  0
   -4.1371    0.6578    0.0000 N   0  0  0  0  0  0  0  0  0  0  0  0
   -0.4239    1.8858    0.0000 N   0  0  0  0  0  0  0  0  0  0  0  0
    1.0087    0.2339    0.0000 N   0  0  0  0  0  0  0  0  0  0  0  0
    4.1078   -0.5409    0.0000 N   0  0  0  0  0  0  0  0  0  0  0  0
   -1.9735    0.1754    0.0000 C   0  0  0  0  0  0  0  0  0  0  0  0
   -1.1403    0.6578    0.0000 C   0  0  0  0  0  0  0  0  0  0  0  0
   -3.4061    0.1754    0.0000 C   0  0  0  0  0  0  0  0  0  0  0  0
   -2.6898    0.5847    0.0000 C   0  0  0  0  0  0  0  0  0  0  0  0
   -2.6898   -1.0379    0.0000 C   0  0  0  0  0  0  0  0  0  0  0  0
   -1.9735   -0.6433    0.0000 C   0  0  0  0  0  0  0  0  0  0  0  0
   -1.1256    1.4765    0.0000 C   0  0  0  0  0  0  0  0  0  0  0  0
   -0.3947    0.2485    0.0000 C   0  0  0  0  0  0  0  0  0  0  0  0
    0.2924    0.6578    0.0000 C   0  0  0  0  0  0  0  0  0  0  0  0
    2.6898    0.2778    0.0000 C   0  0  0  0  0  0  0  0  0  0  0  0
    1.9589    0.6724    0.0000 C   0  0  0  0  0  0  0  0  0  0  0  0
    4.1225    0.2924    0.0000 C   0  0  0  0  0  0  0  0  0  0  0  0
    0.3070    1.4618    0.0000 C   0  0  0  0  0  0  0  0  0  0  0  0
    4.8388    0.7017    0.0000 C   0  0  0  0  0  0  0  0  0  0  0  0
    3.3769    0.6871    0.0000 C   0  0  0  0  0  0  0  0  0  0  0  0
   -4.1371    1.4765    0.0000 C   0  0  0  0  0  0  0  0  0  0  0  0
   -4.8534    0.2485    0.0000 C   0  0  0  0  0  0  0  0  0  0  0  0
   -4.1225   -1.0818    0.0000 C   0  0  0  0  0  0  0  0  0  0  0  0
    2.6752   -0.5409    0.0000 C   0  0  0  0  0  0  0  0  0  0  0  0
    3.4208   -0.9356    0.0000 C   0  0  0  0  0  0  0  0  0  0  0  0
   -4.8681    1.8858    0.0000 C   0  0  0  0  0  0  0  0  0  0  0  0
   -5.5698    0.6578    0.0000 C   0  0  0  0  0  0  0  0  0  0  0  0
    5.5698    0.2924    0.0000 C   0  0  0  0  0  0  0  0  0  0  0  0
  1 18  1  0  0  0  0
  2 25  1  0  0  0  0
  3 25  1  0  0  0  0
  4 16  2  0  0  0  0
  5 22  2  0  0  0  0
  6 32  1  0  0  0  0
  6 33  1  0  0  0  0
  7 14  1  0  0  0  0
  7 16  1  0  0  0  0
  7 29  1  0  0  0  0
  8 14  1  0  0  0  0
  8 27  1  0  0  0  0
  8 28  1  0  0  0  0
  9 18  2  0  0  0  0
  9 24  1  0  0  0  0
 10 20  1  0  0  0  0
 10 22  1  0  0  0  0
 11 23  1  0  0  0  0
 11 31  2  0  0  0  0
 12 13  1  0  0  0  0
 12 15  1  0  0  0  0
 12 17  2  0  0  0  0
 13 18  1  0  0  0  0
 13 19  2  0  0  0  0
 14 15  2  0  0  0  0
 16 17  1  0  0  0  0
 19 20  1  0  0  0  0
 20 24  2  0  0  0  0
 21 22  1  0  0  0  0
 21 26  1  0  0  0  0
 21 30  2  0  0  0  0
 23 25  1  0  0  0  0
 23 26  2  0  0  0  0
 25 34  1  0  0  0  0
 27 32  1  0  0  0  0
 28 33  1  0  0  0  0
 30 31  1  0  0  0  0
M  END
> <PUBCHEM_COMPOUND_ID_TYPE>
0

> <PUBCHEM_TOTAL_CHARGE>
0

> <PUBCHEM_SUBSTANCE_ID>
310943165

> <PUBCHEM_SUBSTANCE_VERSION>
1

> <PUBCHEM_EXT_DATASOURCE_NAME>
4488

> <PUBCHEM_EXT_DATASOURCE_REGID>
SCHEMBL16121225

> <PUBCHEM_SUBSTANCE_COMMENT>
InChI=1S/C23H22ClF2N5O3/c1-23(25,26)18-9-14(3-4-27-18)22(33)29-16-12-17(21(24)28-13-16)15-10-19(30(2)20(32)11-15)31-5-7-34-8-6-31/h3-4,9-13H,5-8H2,1-2H3,(H,29,33)
InChIKey=AOORIVYIOYRSJJ-UHFFFAOYSA-N

> <PUBCHEM_SUBSTANCE_SYNONYM>
SCHEMBL16121225

> <PUBCHEM_XREF_EXT_ID>
SCHEMBL16121225

> <PUBCHEM_EXT_DATASOURCE_URL>
https://www.surechembl.org/

> <PUBCHEM_EXT_SUBSTANCE_URL>
https://www.surechembl.org/chemical/SCHEMBL16121225

> <PUBCHEM_CID_ASSOCIATIONS>
117609593  1

> <PUBCHEM_COORDINATE_TYPE>
1
3

$$$$
