310935918
  -OEChem-07211613022D

 14 15  0     0  0  0  0  0  0999 V2000
    0.3806   -2.1227    0.0000 F   0  0  0  0  0  0  0  0  0  0  0  0
    2.5033    0.0000    0.0000 N   0  0  0  0  0  0  0  0  0  0  0  0
    1.2590   -0.7173    0.0000 C   0  0  0  0  0  0  0  0  0  0  0  0
    1.6396   -1.4493    0.0000 C   0  0  0  0  0  0  0  0  0  0  0  0
    1.2004   -2.1519    0.0000 C   0  0  0  0  0  0  0  0  0  0  0  0
    0.7905   -1.3907    0.0000 C   0  0  0  0  0  0  0  0  0  0  0  0
    0.7905   -0.0439    0.0000 C   0  0  0  0  0  0  0  0  0  0  0  0
    2.0934   -0.7173    0.0000 C   0  0  0  0  0  0  0  0  0  0  0  0
    2.4740   -1.4932    0.0000 C   0  0  0  0  0  0  0  0  0  0  0  0
    0.0000   -1.1272    0.0000 C   0  0  0  0  0  0  0  0  0  0  0  0
    0.0000   -0.3074    0.0000 C   0  0  0  0  0  0  0  0  0  0  0  0
    1.5810   -2.8839    0.0000 C   0  0  0  0  0  0  0  0  0  0  0  0
    2.8546   -2.2252    0.0000 C   0  0  0  0  0  0  0  0  0  0  0  0
    2.4008   -2.9279    0.0000 C   0  0  0  0  0  0  0  0  0  0  0  0
  1  5  1  0  0  0  0
  2  8  3  0  0  0  0
  3  4  1  0  0  0  0
  3  6  1  0  0  0  0
  3  7  1  0  0  0  0
  3  8  1  0  0  0  0
  4  5  1  0  0  0  0
  4  9  2  0  0  0  0
  5 12  2  0  0  0  0
  6 10  1  0  0  0  0
  7 11  1  0  0  0  0
  9 13  1  0  0  0  0
 10 11  2  0  0  0  0
 12 14  1  0  0  0  0
 13 14  2  0  0  0  0
M  END
> <PUBCHEM_COMPOUND_ID_TYPE>
0

> <PUBCHEM_TOTAL_CHARGE>
0

> <PUBCHEM_SUBSTANCE_ID>
310935918

> <PUBCHEM_SUBSTANCE_VERSION>
1

> <PUBCHEM_EXT_DATASOURCE_NAME>
4488

> <PUBCHEM_EXT_DATASOURCE_REGID>
SCHEMBL16113514

> <PUBCHEM_SUBSTANCE_COMMENT>
InChI=1S/C12H10FN/c13-11-6-2-1-5-10(11)12(9-14)7-3-4-8-12/h1-6H,7-8H2
InChIKey=YKRYOQCPNZKJIJ-UHFFFAOYSA-N

> <PUBCHEM_SUBSTANCE_SYNONYM>
SCHEMBL16113514

> <PUBCHEM_XREF_EXT_ID>
SCHEMBL16113514

> <PUBCHEM_EXT_DATASOURCE_URL>
https://www.surechembl.org/

> <PUBCHEM_EXT_SUBSTANCE_URL>
https://www.surechembl.org/chemical/SCHEMBL16113514

> <PUBCHEM_CID_ASSOCIATIONS>
65353028  1

> <PUBCHEM_COORDINATE_TYPE>
1
3

$$$$
