310945546
  -OEChem-07211613022D

 27 29  0     0  0  0  0  0  0999 V2000
   -0.7634    0.9675    0.0000 Cl  0  0  0  0  0  0  0  0  0  0  0  0
   -0.7811   -2.1037    0.0000 Cl  0  0  0  0  0  0  0  0  0  0  0  0
    1.1006    1.2160    0.0000 F   0  0  0  0  0  0  0  0  0  0  0  0
    1.8640    2.1037    0.0000 F   0  0  0  0  0  0  0  0  0  0  0  0
    2.6450    1.2160    0.0000 F   0  0  0  0  0  0  0  0  0  0  0  0
   -3.0712   -1.4645    0.0000 F   0  0  0  0  0  0  0  0  0  0  0  0
   -3.8523   -0.5769    0.0000 F   0  0  0  0  0  0  0  0  0  0  0  0
   -3.0712    0.3107    0.0000 F   0  0  0  0  0  0  0  0  0  0  0  0
    3.1777   -1.4645    0.0000 O   0  0  0  0  0  0  0  0  0  0  0  0
    0.4616    0.1509    0.0000 N   0  0  0  0  0  0  0  0  0  0  0  0
    0.4616   -1.2871    0.0000 N   0  0  0  0  0  0  0  0  0  0  0  0
    1.8640   -1.4645    0.0000 N   0  0  0  0  0  0  0  0  0  0  0  0
    2.5385   -0.1154    0.0000 N   0  0  0  0  0  0  0  0  0  0  0  0
    1.2072   -0.1509    0.0000 C   0  0  0  0  0  0  0  0  0  0  0  0
    0.0000   -0.5947    0.0000 C   0  0  0  0  0  0  0  0  0  0  0  0
    1.1894   -1.0385    0.0000 C   0  0  0  0  0  0  0  0  0  0  0  0
    1.8462    0.2930    0.0000 C   0  0  0  0  0  0  0  0  0  0  0  0
   -0.7811   -0.5947    0.0000 C   0  0  0  0  0  0  0  0  0  0  0  0
    1.8640    1.1983    0.0000 C   0  0  0  0  0  0  0  0  0  0  0  0
   -1.1716    0.1687    0.0000 C   0  0  0  0  0  0  0  0  0  0  0  0
   -1.1539   -1.3758    0.0000 C   0  0  0  0  0  0  0  0  0  0  0  0
    2.5207   -1.0385    0.0000 C   0  0  0  0  0  0  0  0  0  0  0  0
   -2.3078   -0.5947    0.0000 C   0  0  0  0  0  0  0  0  0  0  0  0
   -1.9173    0.1509    0.0000 C   0  0  0  0  0  0  0  0  0  0  0  0
   -1.8995   -1.3758    0.0000 C   0  0  0  0  0  0  0  0  0  0  0  0
   -3.0889   -0.5947    0.0000 C   0  0  0  0  0  0  0  0  0  0  0  0
    3.8523   -1.0030    0.0000 C   0  0  0  0  0  0  0  0  0  0  0  0
  1 20  1  0  0  0  0
  2 21  1  0  0  0  0
  3 19  1  0  0  0  0
  4 19  1  0  0  0  0
  5 19  1  0  0  0  0
  6 26  1  0  0  0  0
  7 26  1  0  0  0  0
  8 26  1  0  0  0  0
  9 22  1  0  0  0  0
  9 27  1  0  0  0  0
 10 14  1  0  0  0  0
 10 15  2  0  0  0  0
 11 15  1  0  0  0  0
 11 16  1  0  0  0  0
 12 16  1  0  0  0  0
 12 22  2  0  0  0  0
 13 17  2  0  0  0  0
 13 22  1  0  0  0  0
 14 16  2  0  0  0  0
 14 17  1  0  0  0  0
 15 18  1  0  0  0  0
 17 19  1  0  0  0  0
 18 20  2  0  0  0  0
 18 21  1  0  0  0  0
 20 24  1  0  0  0  0
 21 25  2  0  0  0  0
 23 24  2  0  0  0  0
 23 25  1  0  0  0  0
 23 26  1  0  0  0  0
M  END
> <PUBCHEM_COMPOUND_ID_TYPE>
0

> <PUBCHEM_TOTAL_CHARGE>
0

> <PUBCHEM_SUBSTANCE_ID>
310945546

> <PUBCHEM_SUBSTANCE_VERSION>
1

> <PUBCHEM_EXT_DATASOURCE_NAME>
4488

> <PUBCHEM_EXT_DATASOURCE_REGID>
SCHEMBL16123644

> <PUBCHEM_SUBSTANCE_COMMENT>
InChI=1S/C14H6Cl2F6N4O/c1-27-12-24-9(14(20,21)22)8-11(26-12)25-10(23-8)7-5(15)2-4(3-6(7)16)13(17,18)19/h2-3H,1H3,(H,23,24,25,26)
InChIKey=NVTDXWHCZUWRNJ-UHFFFAOYSA-N

> <PUBCHEM_SUBSTANCE_SYNONYM>
SCHEMBL16123644

> <PUBCHEM_XREF_EXT_ID>
SCHEMBL16123644

> <PUBCHEM_EXT_DATASOURCE_URL>
https://www.surechembl.org/

> <PUBCHEM_EXT_SUBSTANCE_URL>
https://www.surechembl.org/chemical/SCHEMBL16123644

> <PUBCHEM_CID_ASSOCIATIONS>
117611587  1

> <PUBCHEM_COORDINATE_TYPE>
1
3

$$$$
