310935441
  -OEChem-07211613022D

 35 40  0     1  0  0  0  0  0999 V2000
    4.8812   -4.0677    0.0000 F   0  0  0  0  0  0  0  0  0  0  0  0
    2.9005   -7.0742    0.0000 O   0  0  0  0  0  0  0  0  0  0  0  0
    0.7428   -3.3249    0.0000 N   0  0  3  0  0  0  0  0  0  0  0  0
    0.0000   -2.0869    0.0000 N   0  0  0  0  0  0  0  0  0  0  0  0
    0.7428   -0.8489    0.0000 N   0  0  0  0  0  0  0  0  0  0  0  0
    3.6078   -5.8009    0.0000 N   0  0  0  0  0  0  0  0  0  0  0  0
    5.0581   -2.5114    0.0000 N   0  0  0  0  0  0  0  0  0  0  0  0
    1.4502   -2.0869    0.0000 C   0  0  0  0  0  0  0  0  0  0  0  0
    0.7428   -2.5114    0.0000 C   0  0  0  0  0  0  0  0  0  0  0  0
    1.4502   -1.2380    0.0000 C   0  0  0  0  0  0  0  0  0  0  0  0
    1.4502   -4.5983    0.0000 C   0  0  0  0  0  0  0  0  0  0  0  0
    2.1577   -0.8489    0.0000 C   0  0  0  0  0  0  0  0  0  0  0  0
    2.1577   -2.5114    0.0000 C   0  0  0  0  0  0  0  0  0  0  0  0
    2.8651   -2.0869    0.0000 C   0  0  0  0  0  0  0  0  0  0  0  0
    0.7428   -5.0227    0.0000 C   0  0  0  0  0  0  0  0  0  0  0  0
    1.4502   -3.7493    0.0000 C   0  0  0  0  0  0  0  0  0  0  0  0
    2.8651   -1.2380    0.0000 C   0  0  0  0  0  0  0  0  0  0  0  0
    2.1930   -5.8009    0.0000 C   0  0  0  0  0  0  0  0  0  0  0  0
    0.0354   -3.7493    0.0000 C   0  0  0  0  0  0  0  0  0  0  0  0
    2.1577   -4.9873    0.0000 C   0  0  0  0  0  0  0  0  0  0  0  0
    0.0354   -4.5983    0.0000 C   0  0  0  0  0  0  0  0  0  0  0  0
    3.6078   -2.5114    0.0000 C   0  0  0  0  0  0  0  0  0  0  0  0
    2.9005   -6.2253    0.0000 C   0  0  0  0  0  0  0  0  0  0  0  0
    0.0000   -1.2380    0.0000 C   0  0  0  0  0  0  0  0  0  0  0  0
    0.7428   -5.8009    0.0000 C   0  0  0  0  0  0  0  0  0  0  0  0
    1.4502   -6.2253    0.0000 C   0  0  0  0  0  0  0  0  0  0  0  0
    2.1577    0.0000    0.0000 C   0  0  0  0  0  0  0  0  0  0  0  0
    4.3506   -2.0869    0.0000 C   0  0  0  0  0  0  0  0  0  0  0  0
    3.6432   -3.3249    0.0000 C   0  0  0  0  0  0  0  0  0  0  0  0
    3.7140   -4.9873    0.0000 C   0  0  0  0  0  0  0  0  0  0  0  0
    4.3860   -6.1546    0.0000 C   0  0  0  0  0  0  0  0  0  0  0  0
    4.5275   -4.8105    0.0000 C   0  0  3  0  0  0  0  0  0  0  0  0
    4.9519   -5.5533    0.0000 C   0  0  0  0  0  0  0  0  0  0  0  0
    4.3506   -3.7493    0.0000 C   0  0  0  0  0  0  0  0  0  0  0  0
    5.0934   -3.3602    0.0000 C   0  0  0  0  0  0  0  0  0  0  0  0
 32  1  1  1  0  0  0
  2 23  2  0  0  0  0
  3  9  1  0  0  0  0
  3 16  1  0  0  0  0
  3 19  1  0  0  0  0
  4  9  1  0  0  0  0
  4 24  2  0  0  0  0
  5 10  2  0  0  0  0
  5 24  1  0  0  0  0
  6 23  1  0  0  0  0
  6 30  1  0  0  0  0
  6 31  1  0  0  0  0
  7 28  1  0  0  0  0
  7 35  2  0  0  0  0
  8  9  2  0  0  0  0
  8 10  1  0  0  0  0
  8 13  1  0  0  0  0
 10 12  1  0  0  0  0
 11 15  2  0  0  0  0
 11 16  1  0  0  0  0
 11 20  1  0  0  0  0
 12 17  2  0  0  0  0
 12 27  1  0  0  0  0
 13 14  2  0  0  0  0
 14 17  1  0  0  0  0
 14 22  1  0  0  0  0
 15 21  1  0  0  0  0
 15 25  1  0  0  0  0
 18 20  2  0  0  0  0
 18 23  1  0  0  0  0
 18 26  1  0  0  0  0
 19 21  1  0  0  0  0
 22 28  2  0  0  0  0
 22 29  1  0  0  0  0
 25 26  2  0  0  0  0
 29 34  2  0  0  0  0
 30 32  1  0  0  0  0
 31 33  1  0  0  0  0
 32 33  1  0  0  0  0
 34 35  1  0  0  0  0
M  END
> <PUBCHEM_COMPOUND_ID_TYPE>
0

> <PUBCHEM_TOTAL_CHARGE>
0

> <PUBCHEM_SUBSTANCE_ID>
310935441

> <PUBCHEM_SUBSTANCE_VERSION>
1

> <PUBCHEM_EXT_DATASOURCE_NAME>
4488

> <PUBCHEM_EXT_DATASOURCE_REGID>
SCHEMBL16112985

> <PUBCHEM_SUBSTANCE_COMMENT>
InChI=1S/C28H26FN5O/c1-18-11-22(21-3-2-8-30-14-21)13-25-26(18)31-17-32-27(25)33-9-6-19-4-5-20(12-23(19)15-33)28(35)34-10-7-24(29)16-34/h2-5,8,11-14,17,24H,6-7,9-10,15-16H2,1H3/t24-/m0/s1
InChIKey=XZTZCGKXFAKGTN-DEOSSOPVSA-N

> <PUBCHEM_SUBSTANCE_SYNONYM>
SCHEMBL16112985

> <PUBCHEM_XREF_EXT_ID>
SCHEMBL16112985

> <PUBCHEM_EXT_DATASOURCE_URL>
https://www.surechembl.org/

> <PUBCHEM_EXT_SUBSTANCE_URL>
https://www.surechembl.org/chemical/SCHEMBL16112985

> <PUBCHEM_CID_ASSOCIATIONS>
117603482  1

> <PUBCHEM_COORDINATE_TYPE>
1
3

> <PUBCHEM_BONDANNOTATIONS>
32  1  5

$$$$
