310942016
  -OEChem-07211613022D

 10 10  0     0  0  0  0  0  0999 V2000
   -1.9266   -0.4711    0.0000 I   0  0  0  0  0  0  0  0  0  0  0  0
    1.9266    0.6258    0.0000 I   0  0  0  0  0  0  0  0  0  0  0  0
   -0.9282    0.0070    0.0000 C   0  0  0  0  0  0  0  0  0  0  0  0
    0.7312    0.0070    0.0000 C   0  0  0  0  0  0  0  0  0  0  0  0
   -0.5063   -0.7101    0.0000 C   0  0  0  0  0  0  0  0  0  0  0  0
   -0.5063    0.7101    0.0000 C   0  0  0  0  0  0  0  0  0  0  0  0
    0.3234    0.7101    0.0000 C   0  0  0  0  0  0  0  0  0  0  0  0
    0.3234   -0.7101    0.0000 C   0  0  0  0  0  0  0  0  0  0  0  0
   -1.7438   -0.0070    0.0000 C   0  0  0  0  0  0  0  0  0  0  0  0
    1.5610   -0.0070    0.0000 C   0  0  0  0  0  0  0  0  0  0  0  0
  1  9  1  0  0  0  0
  2 10  1  0  0  0  0
  3  5  1  0  0  0  0
  3  6  1  0  0  0  0
  3  9  1  0  0  0  0
  4  7  1  0  0  0  0
  4  8  1  0  0  0  0
  4 10  1  0  0  0  0
  5  8  1  0  0  0  0
  6  7  1  0  0  0  0
M  END
> <PUBCHEM_COMPOUND_ID_TYPE>
0

> <PUBCHEM_TOTAL_CHARGE>
0

> <PUBCHEM_SUBSTANCE_ID>
310942016

> <PUBCHEM_SUBSTANCE_VERSION>
1

> <PUBCHEM_EXT_DATASOURCE_NAME>
4488

> <PUBCHEM_EXT_DATASOURCE_REGID>
SCHEMBL16120050

> <PUBCHEM_SUBSTANCE_COMMENT>
InChI=1S/C8H14I2/c9-5-7-1-2-8(6-10)4-3-7/h7-8H,1-6H2
InChIKey=CADHELUGADNHSF-UHFFFAOYSA-N

> <PUBCHEM_SUBSTANCE_SYNONYM>
SCHEMBL16120050

> <PUBCHEM_XREF_EXT_ID>
SCHEMBL16120050

> <PUBCHEM_EXT_DATASOURCE_URL>
https://www.surechembl.org/

> <PUBCHEM_EXT_SUBSTANCE_URL>
https://www.surechembl.org/chemical/SCHEMBL16120050

> <PUBCHEM_CID_ASSOCIATIONS>
271102  1

> <PUBCHEM_COORDINATE_TYPE>
1
3

$$$$
