310938540
  -OEChem-07211613022D

 39 42  0     1  0  0  0  0  0999 V2000
   -5.2788   -0.1214    0.0000 Cl  0  0  0  0  0  0  0  0  0  0  0  0
    1.8659   -0.1214    0.0000 O   0  0  0  0  0  0  0  0  0  0  0  0
    3.2948   -1.7714    0.0000 O   0  0  0  0  0  0  0  0  0  0  0  0
    5.0074    0.5179    0.0000 O   0  0  0  0  0  0  0  0  0  0  0  0
    2.5803   -1.3589    0.0000 O   0  0  0  0  0  0  0  0  0  0  0  0
    1.4239    1.5860    0.0000 O   0  0  0  0  0  0  0  0  0  0  0  0
    0.4134    2.5964    0.0000 O   0  0  0  0  0  0  0  0  0  0  0  0
   -1.7065   -1.3589    0.0000 N   0  0  3  0  0  0  0  0  0  0  0  0
    4.0093   -0.5339    0.0000 N   0  0  0  0  0  0  0  0  0  0  0  0
   -0.2775   -1.3589    0.0000 C   0  0  0  0  0  0  0  0  0  0  0  0
   -2.4209   -1.7714    0.0000 C   0  0  3  0  0  0  0  0  0  0  0  0
    1.1514   -1.3589    0.0000 C   0  0  0  0  0  0  0  0  0  0  0  0
    1.1514   -0.5339    0.0000 C   0  0  0  0  0  0  0  0  0  0  0  0
   -0.9920   -1.7714    0.0000 C   0  0  0  0  0  0  0  0  0  0  0  0
   -3.1354   -1.3589    0.0000 C   0  0  0  0  0  0  0  0  0  0  0  0
    0.4369   -1.7714    0.0000 C   0  0  0  0  0  0  0  0  0  0  0  0
   -1.7065   -0.5339    0.0000 C   0  0  0  0  0  0  0  0  0  0  0  0
   -0.2775   -0.5339    0.0000 C   0  0  0  0  0  0  0  0  0  0  0  0
   -1.1231    0.0494    0.0000 C   0  0  0  0  0  0  0  0  0  0  0  0
    0.4369   -0.1214    0.0000 C   0  0  0  0  0  0  0  0  0  0  0  0
    4.0093   -1.3589    0.0000 C   0  0  0  0  0  0  0  0  0  0  0  0
    4.7939   -0.2790    0.0000 C   0  0  0  0  0  0  0  0  0  0  0  0
    3.2948   -0.1214    0.0000 C   0  0  0  0  0  0  0  0  0  0  0  0
   -3.1354   -0.5339    0.0000 C   0  0  0  0  0  0  0  0  0  0  0  0
   -3.8499   -1.7714    0.0000 C   0  0  0  0  0  0  0  0  0  0  0  0
    4.7939   -1.6139    0.0000 C   0  0  0  0  0  0  0  0  0  0  0  0
    5.2788   -0.9464    0.0000 C   0  0  0  0  0  0  0  0  0  0  0  0
    2.5803   -0.5339    0.0000 C   0  0  0  0  0  0  0  0  0  0  0  0
    1.8659   -1.7714    0.0000 C   0  0  0  0  0  0  0  0  0  0  0  0
   -0.3262   -0.1641    0.0000 C   0  0  0  0  0  0  0  0  0  0  0  0
   -1.3366    0.8463    0.0000 C   0  0  0  0  0  0  0  0  0  0  0  0
    0.0436    1.2162    0.0000 C   0  0  0  0  0  0  0  0  0  0  0  0
   -2.4209   -2.5964    0.0000 C   0  0  0  0  0  0  0  0  0  0  0  0
   -4.5644   -0.5339    0.0000 C   0  0  0  0  0  0  0  0  0  0  0  0
   -3.8499   -0.1214    0.0000 C   0  0  0  0  0  0  0  0  0  0  0  0
   -4.5644   -1.3589    0.0000 C   0  0  0  0  0  0  0  0  0  0  0  0
    0.2571    0.4193    0.0000 C   0  0  0  0  0  0  0  0  0  0  0  0
   -0.7533    1.4297    0.0000 C   0  0  0  0  0  0  0  0  0  0  0  0
    0.6270    1.7995    0.0000 C   0  0  0  0  0  0  0  0  0  0  0  0
  1 34  1  0  0  0  0
  2 13  1  0  0  0  0
  2 28  1  0  0  0  0
  3 21  2  0  0  0  0
  4 22  2  0  0  0  0
  5 29  1  0  0  0  0
  6 39  2  0  0  0  0
  7 39  1  0  0  0  0
  8 11  1  0  0  0  0
  8 14  1  0  0  0  0
  8 17  1  0  0  0  0
  9 21  1  0  0  0  0
  9 22  1  0  0  0  0
  9 23  1  0  0  0  0
 10 14  1  0  0  0  0
 10 16  2  0  0  0  0
 10 18  1  0  0  0  0
 11 15  1  0  0  0  0
 11 33  1  0  0  0  0
 12 13  2  0  0  0  0
 12 16  1  0  0  0  0
 12 29  1  0  0  0  0
 13 20  1  0  0  0  0
 15 24  2  0  0  0  0
 15 25  1  0  0  0  0
 19 17  1  1  0  0  0
 18 20  2  0  0  0  0
 19 30  1  0  0  0  0
 19 31  1  0  0  0  0
 21 26  1  0  0  0  0
 22 27  1  0  0  0  0
 23 28  1  0  0  0  0
 24 35  1  0  0  0  0
 25 36  2  0  0  0  0
 26 27  1  0  0  0  0
 30 37  1  0  0  0  0
 31 38  1  0  0  0  0
 32 37  1  0  0  0  0
 32 38  1  0  0  0  0
 32 39  1  6  0  0  0
 34 35  2  0  0  0  0
 34 36  1  0  0  0  0
M  END
> <PUBCHEM_COMPOUND_ID_TYPE>
0

> <PUBCHEM_TOTAL_CHARGE>
0

> <PUBCHEM_SUBSTANCE_ID>
310938540

> <PUBCHEM_SUBSTANCE_VERSION>
1

> <PUBCHEM_EXT_DATASOURCE_NAME>
4488

> <PUBCHEM_EXT_DATASOURCE_REGID>
SCHEMBL16116454

> <PUBCHEM_SUBSTANCE_COMMENT>
InChI=1S/C30H37ClN2O6/c1-20(23-7-9-26(31)10-8-23)32(17-21-2-5-24(6-3-21)30(37)38)18-22-4-11-27(25(16-22)19-34)39-15-14-33-28(35)12-13-29(33)36/h4,7-11,16,20-21,24,34H,2-3,5-6,12-15,17-19H2,1H3,(H,37,38)/t20?,21-,24-
InChIKey=OYRUOFKRFPQFDF-DVXFSSKHSA-N

> <PUBCHEM_SUBSTANCE_SYNONYM>
SCHEMBL16116454

> <PUBCHEM_XREF_EXT_ID>
SCHEMBL16116454

> <PUBCHEM_EXT_DATASOURCE_URL>
https://www.surechembl.org/

> <PUBCHEM_EXT_SUBSTANCE_URL>
https://www.surechembl.org/chemical/SCHEMBL16116454

> <PUBCHEM_CID_ASSOCIATIONS>
78122262  1

> <PUBCHEM_COORDINATE_TYPE>
1
3

> <PUBCHEM_BONDANNOTATIONS>
19  17  5
32  39  6

$$$$
