310944087
  -OEChem-07211613022D

 27 31  0     1  0  0  0  0  0999 V2000
    2.3516    1.1795    0.0000 O   0  0  0  0  0  0  0  0  0  0  0  0
    0.3273   -0.2359    0.0000 N   0  0  0  0  0  0  0  0  0  0  0  0
   -2.6407   -0.2816    0.0000 N   0  0  0  0  0  0  0  0  0  0  0  0
   -2.9756    0.4795    0.0000 N   0  0  0  0  0  0  0  0  0  0  0  0
    1.0883   -0.5860    0.0000 C   0  0  3  0  0  0  0  0  0  0  0  0
    0.4034    0.6469    0.0000 C   0  0  3  0  0  0  0  0  0  0  0  0
   -3.2496   -0.8295    0.0000 C   0  0  0  0  0  0  0  0  0  0  0  0
   -3.9801   -0.4186    0.0000 C   0  0  0  0  0  0  0  0  0  0  0  0
   -3.8127    0.4034    0.0000 C   0  0  0  0  0  0  0  0  0  0  0  0
    1.7732    0.6013    0.0000 C   0  0  0  0  0  0  0  0  0  0  0  0
    1.0425    0.9969    0.0000 C   0  0  0  0  0  0  0  0  0  0  0  0
    1.7580   -0.2207    0.0000 C   0  0  0  0  0  0  0  0  0  0  0  0
   -0.6013   -0.8599    0.0000 C   0  0  0  0  0  0  0  0  0  0  0  0
    1.5449   -0.0380    0.0000 C   0  0  0  0  0  0  0  0  0  0  0  0
    1.0883    0.7686    0.0000 C   0  0  0  0  0  0  0  0  0  0  0  0
   -1.3318   -0.4490    0.0000 C   0  0  3  0  0  0  0  0  0  0  0  0
   -2.0472   -0.8599    0.0000 C   0  0  0  0  0  0  0  0  0  0  0  0
   -3.2648   -1.6667    0.0000 C   0  0  0  0  0  0  0  0  0  0  0  0
   -4.6956   -0.8447    0.0000 C   0  0  0  0  0  0  0  0  0  0  0  0
   -3.9649   -2.0777    0.0000 C   0  0  0  0  0  0  0  0  0  0  0  0
   -4.6956   -1.6667    0.0000 C   0  0  0  0  0  0  0  0  0  0  0  0
   -4.3455    1.0274    0.0000 C   0  0  0  0  0  0  0  0  0  0  0  0
    3.8888    1.3927    0.0000 C   0  0  0  0  0  0  0  0  0  0  0  0
    3.1735    0.9817    0.0000 C   0  0  0  0  0  0  0  0  0  0  0  0
   -1.3623    0.4643    0.0000 C   0  0  0  0  0  0  0  0  0  0  0  0
    4.2998    2.0777    0.0000 C   0  0  0  0  0  0  0  0  0  0  0  0
    4.6956    1.3927    0.0000 C   0  0  0  0  0  0  0  0  0  0  0  0
 10  1  1  1  0  0  0
  1 24  1  0  0  0  0
  5  2  1  6  0  0  0
  6  2  1  6  0  0  0
  2 13  1  0  0  0  0
  3  4  1  0  0  0  0
  3  7  1  0  0  0  0
  3 17  1  0  0  0  0
  4  9  2  0  0  0  0
  5 12  1  0  0  0  0
  5 14  1  0  0  0  0
  6 11  1  0  0  0  0
  6 15  1  0  0  0  0
  7  8  2  0  0  0  0
  7 18  1  0  0  0  0
  8  9  1  0  0  0  0
  8 19  1  0  0  0  0
  9 22  1  0  0  0  0
 10 11  1  0  0  0  0
 10 12  1  0  0  0  0
 13 16  1  0  0  0  0
 14 15  1  0  0  0  0
 16 17  1  0  0  0  0
 16 25  1  6  0  0  0
 18 20  2  0  0  0  0
 19 21  2  0  0  0  0
 20 21  1  0  0  0  0
 23 24  1  0  0  0  0
 23 26  1  0  0  0  0
 23 27  1  0  0  0  0
 26 27  1  0  0  0  0
M  END
> <PUBCHEM_COMPOUND_ID_TYPE>
0

> <PUBCHEM_TOTAL_CHARGE>
0

> <PUBCHEM_SUBSTANCE_ID>
310944087

> <PUBCHEM_SUBSTANCE_VERSION>
1

> <PUBCHEM_EXT_DATASOURCE_NAME>
4488

> <PUBCHEM_EXT_DATASOURCE_REGID>
SCHEMBL16122162

> <PUBCHEM_SUBSTANCE_COMMENT>
InChI=1S/C23H33N3O/c1-16(14-26-23-6-4-3-5-22(23)17(2)24-26)13-25-19-9-10-20(25)12-21(11-19)27-15-18-7-8-18/h3-6,16,18-21H,7-15H2,1-2H3/t16-,19-,20+,21+/m1/s1
InChIKey=ITRXTZZBZSFHJX-DBOLQNLKSA-N

> <PUBCHEM_SUBSTANCE_SYNONYM>
SCHEMBL16122162

> <PUBCHEM_XREF_EXT_ID>
SCHEMBL16122162

> <PUBCHEM_EXT_DATASOURCE_URL>
https://www.surechembl.org/

> <PUBCHEM_EXT_SUBSTANCE_URL>
https://www.surechembl.org/chemical/SCHEMBL16122162

> <PUBCHEM_CID_ASSOCIATIONS>
117610379  1

> <PUBCHEM_COORDINATE_TYPE>
1
3

> <PUBCHEM_BONDANNOTATIONS>
10  1  5
16  25  6
5  2  6
6  2  6

$$$$
