310944262
  -OEChem-07211613022D

 58 67  0     0  0  0  0  0  0999 V2000
    1.1106   -3.5213    0.0000 N   0  0  0  0  0  0  0  0  0  0  0  0
   -1.1106    3.4708    0.0000 N   0  0  0  0  0  0  0  0  0  0  0  0
   -1.0475   -3.1048    0.0000 N   0  0  0  0  0  0  0  0  0  0  0  0
    3.2688   -3.0922    0.0000 N   0  0  0  0  0  0  0  0  0  0  0  0
    1.0854    3.0291    0.0000 N   0  0  0  0  0  0  0  0  0  0  0  0
   -3.2688    3.0038    0.0000 N   0  0  0  0  0  0  0  0  0  0  0  0
    0.4417   -4.0009    0.0000 C   0  0  0  0  0  0  0  0  0  0  0  0
    1.8174   -3.9883    0.0000 C   0  0  0  0  0  0  0  0  0  0  0  0
   -1.8048    4.0009    0.0000 C   0  0  0  0  0  0  0  0  0  0  0  0
   -0.4291    4.0009    0.0000 C   0  0  0  0  0  0  0  0  0  0  0  0
    1.1106   -2.6630    0.0000 C   0  0  0  0  0  0  0  0  0  0  0  0
   -1.0981    2.6883    0.0000 C   0  0  0  0  0  0  0  0  0  0  0  0
    0.6941   -4.7707    0.0000 C   0  0  0  0  0  0  0  0  0  0  0  0
    1.5524   -4.7707    0.0000 C   0  0  0  0  0  0  0  0  0  0  0  0
   -1.5398    4.7582    0.0000 C   0  0  0  0  0  0  0  0  0  0  0  0
   -0.6941    4.7455    0.0000 C   0  0  0  0  0  0  0  0  0  0  0  0
    0.3786   -2.2466    0.0000 C   0  0  0  0  0  0  0  0  0  0  0  0
    1.8301   -2.2466    0.0000 C   0  0  0  0  0  0  0  0  0  0  0  0
   -0.3660    2.2844    0.0000 C   0  0  0  0  0  0  0  0  0  0  0  0
   -1.8174    2.2718    0.0000 C   0  0  0  0  0  0  0  0  0  0  0  0
    1.0981   -1.0349    0.0000 C   0  0  0  0  0  0  0  0  0  0  0  0
   -1.0854    1.0475    0.0000 C   0  0  0  0  0  0  0  0  0  0  0  0
    1.0981   -0.1893    0.0000 C   0  0  0  0  0  0  0  0  0  0  0  0
   -1.0981    0.2020    0.0000 C   0  0  0  0  0  0  0  0  0  0  0  0
   -0.3786   -3.8494    0.0000 C   0  0  0  0  0  0  0  0  0  0  0  0
    2.6252   -3.8115    0.0000 C   0  0  0  0  0  0  0  0  0  0  0  0
   -2.6126    3.8115    0.0000 C   0  0  0  0  0  0  0  0  0  0  0  0
    0.3913    3.8242    0.0000 C   0  0  0  0  0  0  0  0  0  0  0  0
    0.3913   -1.4388    0.0000 C   0  0  0  0  0  0  0  0  0  0  0  0
    1.8427   -1.4388    0.0000 C   0  0  0  0  0  0  0  0  0  0  0  0
   -0.3786    1.4388    0.0000 C   0  0  0  0  0  0  0  0  0  0  0  0
   -1.8174    1.4514    0.0000 C   0  0  0  0  0  0  0  0  0  0  0  0
    0.3786    0.2145    0.0000 C   0  0  0  0  0  0  0  0  0  0  0  0
   -0.3534   -0.1893    0.0000 C   0  0  0  0  0  0  0  0  0  0  0  0
    0.1514   -5.3640    0.0000 C   0  0  0  0  0  0  0  0  0  0  0  0
    2.1077   -5.3513    0.0000 C   0  0  0  0  0  0  0  0  0  0  0  0
   -2.0951    5.3387    0.0000 C   0  0  0  0  0  0  0  0  0  0  0  0
   -0.1389    5.3640    0.0000 C   0  0  0  0  0  0  0  0  0  0  0  0
   -0.9087   -4.4174    0.0000 C   0  0  0  0  0  0  0  0  0  0  0  0
    3.1805   -4.3921    0.0000 C   0  0  0  0  0  0  0  0  0  0  0  0
   -3.1679    4.4048    0.0000 C   0  0  0  0  0  0  0  0  0  0  0  0
    0.9340    4.4174    0.0000 C   0  0  0  0  0  0  0  0  0  0  0  0
   -0.3534   -2.6883    0.0000 C   0  0  0  0  0  0  0  0  0  0  0  0
    2.5621   -2.6757    0.0000 C   0  0  0  0  0  0  0  0  0  0  0  0
    0.3534    2.6630    0.0000 C   0  0  0  0  0  0  0  0  0  0  0  0
   -2.5495    2.6504    0.0000 C   0  0  0  0  0  0  0  0  0  0  0  0
   -0.6563   -5.1999    0.0000 C   0  0  0  0  0  0  0  0  0  0  0  0
    2.9281   -5.1872    0.0000 C   0  0  0  0  0  0  0  0  0  0  0  0
   -2.9029    5.1747    0.0000 C   0  0  0  0  0  0  0  0  0  0  0  0
    0.6689    5.1999    0.0000 C   0  0  0  0  0  0  0  0  0  0  0  0
    1.8174    0.2145    0.0000 C   0  0  0  0  0  0  0  0  0  0  0  0
   -1.8048   -0.2145    0.0000 C   0  0  0  0  0  0  0  0  0  0  0  0
    0.3913    1.0349    0.0000 C   0  0  0  0  0  0  0  0  0  0  0  0
   -0.3534   -1.0223    0.0000 C   0  0  0  0  0  0  0  0  0  0  0  0
    1.8174    1.0349    0.0000 C   0  0  0  0  0  0  0  0  0  0  0  0
   -1.7922   -1.0223    0.0000 C   0  0  0  0  0  0  0  0  0  0  0  0
    1.0854    1.4388    0.0000 C   0  0  0  0  0  0  0  0  0  0  0  0
   -1.0728   -1.4262    0.0000 C   0  0  0  0  0  0  0  0  0  0  0  0
  1  7  1  0  0  0  0
  1  8  1  0  0  0  0
  1 11  1  0  0  0  0
  2  9  1  0  0  0  0
  2 10  1  0  0  0  0
  2 12  1  0  0  0  0
  3 43  3  0  0  0  0
  4 44  3  0  0  0  0
  5 45  3  0  0  0  0
  6 46  3  0  0  0  0
  7 13  2  0  0  0  0
  7 25  1  0  0  0  0
  8 14  2  0  0  0  0
  8 26  1  0  0  0  0
  9 15  2  0  0  0  0
  9 27  1  0  0  0  0
 10 16  2  0  0  0  0
 10 28  1  0  0  0  0
 11 17  2  0  0  0  0
 11 18  1  0  0  0  0
 12 19  2  0  0  0  0
 12 20  1  0  0  0  0
 13 14  1  0  0  0  0
 13 35  1  0  0  0  0
 14 36  1  0  0  0  0
 15 16  1  0  0  0  0
 15 37  1  0  0  0  0
 16 38  1  0  0  0  0
 17 29  1  0  0  0  0
 17 43  1  0  0  0  0
 18 30  2  0  0  0  0
 18 44  1  0  0  0  0
 19 31  1  0  0  0  0
 19 45  1  0  0  0  0
 20 32  2  0  0  0  0
 20 46  1  0  0  0  0
 21 23  1  0  0  0  0
 21 29  2  0  0  0  0
 21 30  1  0  0  0  0
 22 24  1  0  0  0  0
 22 31  2  0  0  0  0
 22 32  1  0  0  0  0
 23 33  2  0  0  0  0
 23 51  1  0  0  0  0
 24 34  1  0  0  0  0
 24 52  2  0  0  0  0
 25 39  2  0  0  0  0
 26 40  2  0  0  0  0
 27 41  2  0  0  0  0
 28 42  2  0  0  0  0
 33 34  1  0  0  0  0
 33 53  1  0  0  0  0
 34 54  2  0  0  0  0
 35 47  2  0  0  0  0
 36 48  2  0  0  0  0
 37 49  2  0  0  0  0
 38 50  2  0  0  0  0
 39 47  1  0  0  0  0
 40 48  1  0  0  0  0
 41 49  1  0  0  0  0
 42 50  1  0  0  0  0
 51 55  2  0  0  0  0
 52 56  1  0  0  0  0
 53 57  2  0  0  0  0
 54 58  1  0  0  0  0
 55 57  1  0  0  0  0
 56 58  2  0  0  0  0
M  END
> <PUBCHEM_COMPOUND_ID_TYPE>
0

> <PUBCHEM_TOTAL_CHARGE>
0

> <PUBCHEM_SUBSTANCE_ID>
310944262

> <PUBCHEM_SUBSTANCE_VERSION>
1

> <PUBCHEM_EXT_DATASOURCE_NAME>
4488

> <PUBCHEM_EXT_DATASOURCE_REGID>
SCHEMBL16122337

> <PUBCHEM_SUBSTANCE_COMMENT>
InChI=1S/C52H28N6/c53-29-35-25-33(26-36(30-54)51(35)57-47-21-9-5-17-43(47)44-18-6-10-22-48(44)57)39-13-1-3-15-41(39)42-16-4-2-14-40(42)34-27-37(31-55)52(38(28-34)32-56)58-49-23-11-7-19-45(49)46-20-8-12-24-50(46)58/h1-28H
InChIKey=XQFBASVULDRHJD-UHFFFAOYSA-N

> <PUBCHEM_SUBSTANCE_SYNONYM>
SCHEMBL16122337

> <PUBCHEM_XREF_EXT_ID>
SCHEMBL16122337

> <PUBCHEM_EXT_DATASOURCE_URL>
https://www.surechembl.org/

> <PUBCHEM_EXT_SUBSTANCE_URL>
https://www.surechembl.org/chemical/SCHEMBL16122337

> <PUBCHEM_CID_ASSOCIATIONS>
117610531  1

> <PUBCHEM_COORDINATE_TYPE>
1
3

$$$$
