310943059
  -OEChem-07211613022D

  9  9  0     1  0  0  0  0  0999 V2000
   -1.0700    1.1276    0.0000 O   0  0  0  0  0  0  0  0  0  0  0  0
    1.1687   -1.5720    0.0000 N   0  0  0  0  0  0  0  0  0  0  0  0
    0.2798   -0.2057    0.0000 C   0  0  3  0  0  0  0  0  0  0  0  0
   -0.5432   -0.2716    0.0000 C   0  0  0  0  0  0  0  0  0  0  0  0
    0.6749    0.5185    0.0000 C   0  0  0  0  0  0  0  0  0  0  0  0
   -1.1687    0.3210    0.0000 C   0  0  0  0  0  0  0  0  0  0  0  0
    0.3951    1.2922    0.0000 C   0  0  0  0  0  0  0  0  0  0  0  0
    0.7078   -0.8642    0.0000 C   0  0  0  0  0  0  0  0  0  0  0  0
   -0.3951    1.5720    0.0000 C   0  0  0  0  0  0  0  0  0  0  0  0
  1  6  1  0  0  0  0
  1  9  1  0  0  0  0
  2  8  3  0  0  0  0
  3  4  1  0  0  0  0
  3  5  1  0  0  0  0
  3  8  1  1  0  0  0
  4  6  1  0  0  0  0
  5  7  1  0  0  0  0
  7  9  1  0  0  0  0
M  END
> <PUBCHEM_COMPOUND_ID_TYPE>
0

> <PUBCHEM_TOTAL_CHARGE>
0

> <PUBCHEM_SUBSTANCE_ID>
310943059

> <PUBCHEM_SUBSTANCE_VERSION>
1

> <PUBCHEM_EXT_DATASOURCE_NAME>
4488

> <PUBCHEM_EXT_DATASOURCE_REGID>
SCHEMBL16121118

> <PUBCHEM_SUBSTANCE_COMMENT>
InChI=1S/C7H11NO/c8-6-7-2-1-4-9-5-3-7/h7H,1-5H2/t7-/m1/s1
InChIKey=QRXWOMVEGCQUBU-SSDOTTSWSA-N

> <PUBCHEM_SUBSTANCE_SYNONYM>
SCHEMBL16121118

> <PUBCHEM_XREF_EXT_ID>
SCHEMBL16121118

> <PUBCHEM_EXT_DATASOURCE_URL>
https://www.surechembl.org/

> <PUBCHEM_EXT_SUBSTANCE_URL>
https://www.surechembl.org/chemical/SCHEMBL16121118

> <PUBCHEM_CID_ASSOCIATIONS>
117609497  1

> <PUBCHEM_COORDINATE_TYPE>
1
3

> <PUBCHEM_BONDANNOTATIONS>
3  8  5

$$$$
