310944730
  -OEChem-07211613022D

 36 40  0     0  0  0  0  0  0999 V2000
    2.4750   -2.1628    0.0000 Cl  0  0  0  0  0  0  0  0  0  0  0  0
    1.7615    1.8061    0.0000 Cl  0  0  0  0  0  0  0  0  0  0  0  0
   -0.3790   -0.4905    0.0000 O   0  0  0  0  0  0  0  0  0  0  0  0
   -3.2331    1.1372    0.0000 O   0  0  0  0  0  0  0  0  0  0  0  0
    4.6824   -1.7391    0.0000 O   0  0  0  0  0  0  0  0  0  0  0  0
   -1.7391    0.1561    0.0000 N   0  0  0  0  0  0  0  0  0  0  0  0
   -3.2553   -1.3155    0.0000 N   0  0  0  0  0  0  0  0  0  0  0  0
   -1.7391   -1.1595    0.0000 N   0  0  0  0  0  0  0  0  0  0  0  0
   -3.9689   -0.0892    0.0000 N   0  0  0  0  0  0  0  0  0  0  0  0
    3.2108   -0.9141    0.0000 N   0  0  0  0  0  0  0  0  0  0  0  0
   -2.5196   -0.0892    0.0000 C   0  0  0  0  0  0  0  0  0  0  0  0
   -2.5419   -0.8919    0.0000 C   0  0  0  0  0  0  0  0  0  0  0  0
   -1.2486   -0.4683    0.0000 C   0  0  0  0  0  0  0  0  0  0  0  0
   -3.2777    0.3122    0.0000 C   0  0  0  0  0  0  0  0  0  0  0  0
   -3.9689   -0.8919    0.0000 C   0  0  0  0  0  0  0  0  0  0  0  0
   -1.4493    0.9588    0.0000 C   0  0  0  0  0  0  0  0  0  0  0  0
    0.3122   -0.9141    0.0000 C   0  0  0  0  0  0  0  0  0  0  0  0
   -0.6466    1.1595    0.0000 C   0  0  0  0  0  0  0  0  0  0  0  0
   -3.2553   -2.1628    0.0000 C   0  0  0  0  0  0  0  0  0  0  0  0
   -4.6824    0.3122    0.0000 C   0  0  0  0  0  0  0  0  0  0  0  0
   -4.3925   -1.1595    0.0000 C   0  0  0  0  0  0  0  0  0  0  0  0
    1.0479   -0.5128    0.0000 C   0  0  0  0  0  0  0  0  0  0  0  0
    1.7615   -0.9141    0.0000 C   0  0  0  0  0  0  0  0  0  0  0  0
    0.3345   -1.7391    0.0000 C   0  0  0  0  0  0  0  0  0  0  0  0
   -0.0446    0.6021    0.0000 C   0  0  0  0  0  0  0  0  0  0  0  0
   -0.4460    1.9622    0.0000 C   0  0  0  0  0  0  0  0  0  0  0  0
    1.7391   -1.7169    0.0000 C   0  0  0  0  0  0  0  0  0  0  0  0
    1.0479   -2.1183    0.0000 C   0  0  0  0  0  0  0  0  0  0  0  0
    2.4527   -0.5128    0.0000 C   0  0  0  0  0  0  0  0  0  0  0  0
    0.7135    0.8027    0.0000 C   0  0  0  0  0  0  0  0  0  0  0  0
    0.3790    2.1628    0.0000 C   0  0  0  0  0  0  0  0  0  0  0  0
    0.9365    1.6277    0.0000 C   0  0  0  0  0  0  0  0  0  0  0  0
    3.2108   -1.7391    0.0000 C   0  0  0  0  0  0  0  0  0  0  0  0
    3.9020   -0.5128    0.0000 C   0  0  0  0  0  0  0  0  0  0  0  0
    3.9689   -2.1405    0.0000 C   0  0  0  0  0  0  0  0  0  0  0  0
    4.6601   -0.9141    0.0000 C   0  0  0  0  0  0  0  0  0  0  0  0
  1 27  1  0  0  0  0
  2 32  1  0  0  0  0
  3 13  1  0  0  0  0
  3 17  1  0  0  0  0
  4 14  2  0  0  0  0
  5 35  1  0  0  0  0
  5 36  1  0  0  0  0
  6 11  1  0  0  0  0
  6 13  1  0  0  0  0
  6 16  1  0  0  0  0
  7 12  1  0  0  0  0
  7 15  1  0  0  0  0
  7 19  1  0  0  0  0
  8 12  1  0  0  0  0
  8 13  2  0  0  0  0
  9 14  1  0  0  0  0
  9 15  1  0  0  0  0
  9 20  1  0  0  0  0
 10 29  1  0  0  0  0
 10 33  1  0  0  0  0
 10 34  1  0  0  0  0
 11 12  2  0  0  0  0
 11 14  1  0  0  0  0
 15 21  2  0  0  0  0
 16 18  1  0  0  0  0
 17 22  1  0  0  0  0
 17 24  2  0  0  0  0
 18 25  2  0  0  0  0
 18 26  1  0  0  0  0
 22 23  2  0  0  0  0
 23 27  1  0  0  0  0
 23 29  1  0  0  0  0
 24 28  1  0  0  0  0
 25 30  1  0  0  0  0
 26 31  2  0  0  0  0
 27 28  2  0  0  0  0
 30 32  2  0  0  0  0
 31 32  1  0  0  0  0
 33 35  1  0  0  0  0
 34 36  1  0  0  0  0
M  END
> <PUBCHEM_COMPOUND_ID_TYPE>
0

> <PUBCHEM_TOTAL_CHARGE>
0

> <PUBCHEM_SUBSTANCE_ID>
310944730

> <PUBCHEM_SUBSTANCE_VERSION>
1

> <PUBCHEM_EXT_DATASOURCE_NAME>
4488

> <PUBCHEM_EXT_DATASOURCE_REGID>
SCHEMBL16122809

> <PUBCHEM_SUBSTANCE_COMMENT>
InChI=1S/C26H27Cl2N5O3/c1-17-30(2)24-23(25(34)31(17)3)33(15-18-4-6-20(27)7-5-18)26(29-24)36-21-8-9-22(28)19(14-21)16-32-10-12-35-13-11-32/h4-9,14H,1,10-13,15-16H2,2-3H3
InChIKey=OIDDBKFGWKYZKY-UHFFFAOYSA-N

> <PUBCHEM_SUBSTANCE_SYNONYM>
SCHEMBL16122809

> <PUBCHEM_XREF_EXT_ID>
SCHEMBL16122809

> <PUBCHEM_EXT_DATASOURCE_URL>
https://www.surechembl.org/

> <PUBCHEM_EXT_SUBSTANCE_URL>
https://www.surechembl.org/chemical/SCHEMBL16122809

> <PUBCHEM_CID_ASSOCIATIONS>
117610948  1

> <PUBCHEM_COORDINATE_TYPE>
1
3

$$$$
