310945102
  -OEChem-07211613022D

 32 36  0     1  0  0  0  0  0999 V2000
    1.6355    1.8278    0.0000 S   0  0  0  0  0  0  0  0  0  0  0  0
    3.2297    2.0890    0.0000 O   0  0  0  0  0  0  0  0  0  0  0  0
   -4.1230    0.3848    0.0000 O   0  0  0  0  0  0  0  0  0  0  0  0
   -1.2781    0.3711    0.0000 N   0  0  0  0  0  0  0  0  0  0  0  0
    2.0202   -0.2611    0.0000 N   0  0  0  0  0  0  0  0  0  0  0  0
    3.6007    0.7147    0.0000 N   0  0  0  0  0  0  0  0  0  0  0  0
   -2.7074    0.3848    0.0000 N   0  0  0  0  0  0  0  0  0  0  0  0
    0.9071    0.7284    0.0000 C   0  0  0  0  0  0  0  0  0  0  0  0
    1.7042    0.5085    0.0000 C   0  0  0  0  0  0  0  0  0  0  0  0
    0.1512    0.3711    0.0000 C   0  0  0  0  0  0  0  0  0  0  0  0
    0.8796    1.5392    0.0000 C   0  0  0  0  0  0  0  0  0  0  0  0
    2.1577    1.2094    0.0000 C   0  0  0  0  0  0  0  0  0  0  0  0
   -0.5634    0.7833    0.0000 C   0  0  0  0  0  0  0  0  0  0  0  0
    0.1650    1.9653    0.0000 C   0  0  0  0  0  0  0  0  0  0  0  0
    3.0097    1.2918    0.0000 C   0  0  0  0  0  0  0  0  0  0  0  0
    0.1375   -0.4673    0.0000 C   0  0  0  0  0  0  0  0  0  0  0  0
   -1.2918   -0.4398    0.0000 C   0  0  0  0  0  0  0  0  0  0  0  0
   -0.5497    1.6080    0.0000 C   0  0  0  0  0  0  0  0  0  0  0  0
   -2.0065   -0.8521    0.0000 C   0  0  0  0  0  0  0  0  0  0  0  0
   -0.5634   -0.8658    0.0000 C   0  0  0  0  0  0  0  0  0  0  0  0
    2.8036   -0.5360    0.0000 C   0  0  0  0  0  0  0  0  0  0  0  0
   -2.7074   -0.4398    0.0000 C   0  0  0  0  0  0  0  0  0  0  0  0
    3.4908   -0.1099    0.0000 C   0  0  3  0  0  0  0  0  0  0  0  0
   -2.0202   -1.6767    0.0000 C   0  0  0  0  0  0  0  0  0  0  0  0
   -3.4083   -0.8521    0.0000 C   0  0  0  0  0  0  0  0  0  0  0  0
   -3.4358   -1.6630    0.0000 C   0  0  0  0  0  0  0  0  0  0  0  0
   -2.7074   -2.0752    0.0000 C   0  0  0  0  0  0  0  0  0  0  0  0
    4.1642   -0.5497    0.0000 C   0  0  0  0  0  0  0  0  0  0  0  0
   -3.4083    0.8108    0.0000 C   0  0  0  0  0  0  0  0  0  0  0  0
   -4.1642   -2.0890    0.0000 C   0  0  0  0  0  0  0  0  0  0  0  0
   -3.4083    1.6080    0.0000 C   0  0  0  0  0  0  0  0  0  0  0  0
   -4.1642    1.9653    0.0000 C   0  0  0  0  0  0  0  0  0  0  0  0
  1 11  1  0  0  0  0
  1 12  1  0  0  0  0
  2 15  2  0  0  0  0
  3 29  2  0  0  0  0
  4 13  1  0  0  0  0
  4 17  2  0  0  0  0
  5  9  1  0  0  0  0
  5 21  1  0  0  0  0
  6 15  1  0  0  0  0
  6 23  1  0  0  0  0
  7 22  1  0  0  0  0
  7 29  1  0  0  0  0
  8  9  1  0  0  0  0
  8 10  1  0  0  0  0
  8 11  2  0  0  0  0
  9 12  2  0  0  0  0
 10 13  2  0  0  0  0
 10 16  1  0  0  0  0
 11 14  1  0  0  0  0
 12 15  1  0  0  0  0
 13 18  1  0  0  0  0
 14 18  2  0  0  0  0
 16 20  2  0  0  0  0
 17 19  1  0  0  0  0
 17 20  1  0  0  0  0
 19 22  2  0  0  0  0
 19 24  1  0  0  0  0
 21 23  1  0  0  0  0
 22 25  1  0  0  0  0
 23 28  1  6  0  0  0
 24 27  2  0  0  0  0
 25 26  2  0  0  0  0
 26 27  1  0  0  0  0
 26 30  1  0  0  0  0
 29 31  1  0  0  0  0
 31 32  2  0  0  0  0
M  END
> <PUBCHEM_COMPOUND_ID_TYPE>
0

> <PUBCHEM_TOTAL_CHARGE>
0

> <PUBCHEM_SUBSTANCE_ID>
310945102

> <PUBCHEM_SUBSTANCE_VERSION>
1

> <PUBCHEM_EXT_DATASOURCE_NAME>
4488

> <PUBCHEM_EXT_DATASOURCE_REGID>
SCHEMBL16123192

> <PUBCHEM_SUBSTANCE_COMMENT>
InChI=1S/C25H22N4O2S/c1-4-21(30)29-19-11-13(2)5-6-15(19)17-8-7-16-18(28-17)9-10-20-22(16)23-24(32-20)25(31)27-14(3)12-26-23/h4-11,14,26H,1,12H2,2-3H3,(H,27,31)(H,29,30)/t14-/m1/s1
InChIKey=YTJGQRZOHUSRAN-CQSZACIVSA-N

> <PUBCHEM_SUBSTANCE_SYNONYM>
SCHEMBL16123192

> <PUBCHEM_XREF_EXT_ID>
SCHEMBL16123192

> <PUBCHEM_EXT_DATASOURCE_URL>
https://www.surechembl.org/

> <PUBCHEM_EXT_SUBSTANCE_URL>
https://www.surechembl.org/chemical/SCHEMBL16123192

> <PUBCHEM_CID_ASSOCIATIONS>
117611198  1

> <PUBCHEM_COORDINATE_TYPE>
1
3

> <PUBCHEM_BONDANNOTATIONS>
23  28  6

$$$$
