310941801
  -OEChem-07211613022D

 31 34  0     0  0  0  0  0  0999 V2000
    3.9213    0.6443    0.0000 S   0  0  0  0  0  0  0  0  0  0  0  0
   -0.8037    0.7829    0.0000 O   0  0  0  0  0  0  0  0  0  0  0  0
    1.2748   -1.3649    0.0000 O   0  0  0  0  0  0  0  0  0  0  0  0
    3.5888    1.3510    0.0000 O   0  0  0  0  0  0  0  0  0  0  0  0
    4.4202    1.2263    0.0000 O   0  0  0  0  0  0  0  0  0  0  0  0
    1.7043    0.7829    0.0000 N   0  0  0  0  0  0  0  0  0  0  0  0
    1.8567    2.0992    0.0000 N   0  0  0  0  0  0  0  0  0  0  0  0
    2.6188    1.7667    0.0000 N   0  0  0  0  0  0  0  0  0  0  0  0
    3.1315    0.3949    0.0000 N   0  0  0  0  0  0  0  0  0  0  0  0
    0.0138   -2.0853    0.0000 N   0  0  0  0  0  0  0  0  0  0  0  0
    0.4434    0.0762    0.0000 C   0  0  0  0  0  0  0  0  0  0  0  0
    1.2748    1.4895    0.0000 C   0  0  0  0  0  0  0  0  0  0  0  0
    2.5218    0.9353    0.0000 C   0  0  0  0  0  0  0  0  0  0  0  0
    0.0277    0.7829    0.0000 C   0  0  0  0  0  0  0  0  0  0  0  0
    1.2886    0.0624    0.0000 C   0  0  0  0  0  0  0  0  0  0  0  0
    0.0277   -0.6582    0.0000 C   0  0  0  0  0  0  0  0  0  0  0  0
    0.4434    1.4895    0.0000 C   0  0  0  0  0  0  0  0  0  0  0  0
    0.4296   -1.3510    0.0000 C   0  0  0  0  0  0  0  0  0  0  0  0
   -0.8037   -0.6443    0.0000 C   0  0  0  0  0  0  0  0  0  0  0  0
   -1.2194    0.0762    0.0000 C   0  0  0  0  0  0  0  0  0  0  0  0
   -1.2332   -1.3787    0.0000 C   0  0  0  0  0  0  0  0  0  0  0  0
   -0.8175   -2.0715    0.0000 C   0  0  0  0  0  0  0  0  0  0  0  0
   -2.0646    0.0762    0.0000 C   0  0  0  0  0  0  0  0  0  0  0  0
    4.5310    0.0762    0.0000 C   0  0  0  0  0  0  0  0  0  0  0  0
   -2.4802    0.7829    0.0000 C   0  0  0  0  0  0  0  0  0  0  0  0
   -2.4802   -0.6304    0.0000 C   0  0  0  0  0  0  0  0  0  0  0  0
    1.6905   -2.0992    0.0000 C   0  0  0  0  0  0  0  0  0  0  0  0
   -3.2978    0.7829    0.0000 C   0  0  0  0  0  0  0  0  0  0  0  0
   -3.3116   -0.6304    0.0000 C   0  0  0  0  0  0  0  0  0  0  0  0
   -3.7135    0.0901    0.0000 C   0  0  0  0  0  0  0  0  0  0  0  0
   -4.5310    0.0762    0.0000 C   0  0  0  0  0  0  0  0  0  0  0  0
  1  4  2  0  0  0  0
  1  5  2  0  0  0  0
  1  9  1  0  0  0  0
  1 24  1  0  0  0  0
  2 14  1  0  0  0  0
  2 20  1  0  0  0  0
  3 18  1  0  0  0  0
  3 27  1  0  0  0  0
  6 12  1  0  0  0  0
  6 13  1  0  0  0  0
  6 15  1  0  0  0  0
  7  8  1  0  0  0  0
  7 12  2  0  0  0  0
  8 13  2  0  0  0  0
  9 13  1  0  0  0  0
 10 18  2  0  0  0  0
 10 22  1  0  0  0  0
 11 14  1  0  0  0  0
 11 15  2  0  0  0  0
 11 16  1  0  0  0  0
 12 17  1  0  0  0  0
 14 17  2  0  0  0  0
 16 18  1  0  0  0  0
 16 19  2  0  0  0  0
 19 21  1  0  0  0  0
 23 20  1  1  0  0  0
 21 22  2  0  0  0  0
 23 25  1  0  0  0  0
 23 26  1  0  0  0  0
 25 28  1  0  0  0  0
 26 29  1  0  0  0  0
 28 30  1  0  0  0  0
 29 30  1  0  0  0  0
 30 31  1  6  0  0  0
M  END
> <PUBCHEM_COMPOUND_ID_TYPE>
0

> <PUBCHEM_TOTAL_CHARGE>
0

> <PUBCHEM_SUBSTANCE_ID>
310941801

> <PUBCHEM_SUBSTANCE_VERSION>
1

> <PUBCHEM_EXT_DATASOURCE_NAME>
4488

> <PUBCHEM_EXT_DATASOURCE_REGID>
SCHEMBL16119832

> <PUBCHEM_SUBSTANCE_COMMENT>
InChI=1S/C21H27N5O4S/c1-14-6-8-15(9-7-14)13-30-18-11-19-23-24-21(25-31(3,27)28)26(19)12-17(18)16-5-4-10-22-20(16)29-2/h4-5,10-12,14-15H,6-9,13H2,1-3H3,(H,24,25)/t14-,15-
InChIKey=JZHLAQULNVSPIH-SHTZXODSSA-N

> <PUBCHEM_SUBSTANCE_SYNONYM>
SCHEMBL16119832

> <PUBCHEM_XREF_EXT_ID>
SCHEMBL16119832

> <PUBCHEM_EXT_DATASOURCE_URL>
https://www.surechembl.org/

> <PUBCHEM_EXT_SUBSTANCE_URL>
https://www.surechembl.org/chemical/SCHEMBL16119832

> <PUBCHEM_CID_ASSOCIATIONS>
117608550  1

> <PUBCHEM_COORDINATE_TYPE>
1
3

> <PUBCHEM_BONDANNOTATIONS>
23  20  5
30  31  6

$$$$
