310948927
  -OEChem-07211613022D

 54 56  0     1  0  0  0  0  0999 V2000
    4.2839    0.5872    0.0000 P   0  0  3  0  0  0  0  0  0  0  0  0
    7.9186   -1.3167    0.0000 F   0  0  0  0  0  0  0  0  0  0  0  0
    7.0903    0.6614    0.0000 O   0  0  0  0  0  0  0  0  0  0  0  0
    6.2620   -1.3290    0.0000 O   0  0  0  0  0  0  0  0  0  0  0  0
    4.9886    0.1792    0.0000 O   0  0  0  0  0  0  0  0  0  0  0  0
    9.3404   -0.2534    0.0000 O   0  0  0  0  0  0  0  0  0  0  0  0
    3.8635   -0.1298    0.0000 O   0  0  0  0  0  0  0  0  0  0  0  0
    4.2715    1.4156    0.0000 O   0  0  0  0  0  0  0  0  0  0  0  0
   10.0822    2.5035    0.0000 O   0  0  0  0  0  0  0  0  0  0  0  0
    0.5997    1.4156    0.0000 O   0  0  0  0  0  0  0  0  0  0  0  0
    8.3514    0.7604    0.0000 N   0  0  0  0  0  0  0  0  0  0  0  0
    9.8597    1.1313    0.0000 N   0  0  0  0  0  0  0  0  0  0  0  0
    3.4679    0.5872    0.0000 N   0  0  0  0  0  0  0  0  0  0  0  0
    1.3290    0.1792    0.0000 N   0  0  0  0  0  0  0  0  0  0  0  0
    7.5106   -0.5997    0.0000 C   0  0  3  0  0  0  0  0  0  0  0  0
    7.7579    0.1792    0.0000 C   0  0  3  0  0  0  0  0  0  0  0  0
    6.6823   -0.5997    0.0000 C   0  0  3  0  0  0  0  0  0  0  0  0
    6.4350    0.1792    0.0000 C   0  0  3  0  0  0  0  0  0  0  0  0
    9.1426    0.5501    0.0000 C   0  0  0  0  0  0  0  0  0  0  0  0
    8.3390   -0.6120    0.0000 C   0  0  0  0  0  0  0  0  0  0  0  0
    5.7180    0.5872    0.0000 C   0  0  0  0  0  0  0  0  0  0  0  0
    8.1412    1.5392    0.0000 C   0  0  0  0  0  0  0  0  0  0  0  0
    9.5011    1.9225    0.0000 C   0  0  0  0  0  0  0  0  0  0  0  0
    8.7223    2.1326    0.0000 C   0  0  0  0  0  0  0  0  0  0  0  0
    4.0861   -0.9087    0.0000 C   0  0  0  0  0  0  0  0  0  0  0  0
    2.7632    0.1792    0.0000 C   0  0  0  0  0  0  0  0  0  0  0  0
    3.5173   -1.5022    0.0000 C   0  0  0  0  0  0  0  0  0  0  0  0
    4.8896   -1.1436    0.0000 C   0  0  0  0  0  0  0  0  0  0  0  0
    2.0214    0.5872    0.0000 C   0  0  0  0  0  0  0  0  0  0  0  0
    3.7275   -2.2934    0.0000 C   0  0  0  0  0  0  0  0  0  0  0  0
    5.0998   -1.9225    0.0000 C   0  0  0  0  0  0  0  0  0  0  0  0
    4.5187   -2.5035    0.0000 C   0  0  0  0  0  0  0  0  0  0  0  0
    0.5997    0.5749    0.0000 C   0  0  0  0  0  0  0  0  0  0  0  0
   -0.0927    0.1792    0.0000 C   0  0  0  0  0  0  0  0  0  0  0  0
   -0.8221    0.5872    0.0000 C   0  0  0  0  0  0  0  0  0  0  0  0
   -1.5268    0.1792    0.0000 C   0  0  0  0  0  0  0  0  0  0  0  0
   -2.2439    0.5872    0.0000 C   0  0  0  0  0  0  0  0  0  0  0  0
   -2.2439    1.4156    0.0000 C   0  0  0  0  0  0  0  0  0  0  0  0
   -2.9734    1.8236    0.0000 C   0  0  0  0  0  0  0  0  0  0  0  0
   -3.6657    1.4156    0.0000 C   0  0  0  0  0  0  0  0  0  0  0  0
   -3.6781    0.5749    0.0000 C   0  0  0  0  0  0  0  0  0  0  0  0
   -4.3828    0.1792    0.0000 C   0  0  0  0  0  0  0  0  0  0  0  0
   -5.0998    0.5872    0.0000 C   0  0  0  0  0  0  0  0  0  0  0  0
   -5.0998    1.4156    0.0000 C   0  0  0  0  0  0  0  0  0  0  0  0
   -5.8292    1.8236    0.0000 C   0  0  0  0  0  0  0  0  0  0  0  0
   -6.5216    1.4156    0.0000 C   0  0  0  0  0  0  0  0  0  0  0  0
   -6.5340    0.5872    0.0000 C   0  0  0  0  0  0  0  0  0  0  0  0
   -7.2387    0.1792    0.0000 C   0  0  0  0  0  0  0  0  0  0  0  0
   -7.9557    0.5872    0.0000 C   0  0  0  0  0  0  0  0  0  0  0  0
   -7.9557    1.4156    0.0000 C   0  0  0  0  0  0  0  0  0  0  0  0
   -8.6852    1.8236    0.0000 C   0  0  0  0  0  0  0  0  0  0  0  0
   -9.3775    1.4156    0.0000 C   0  0  0  0  0  0  0  0  0  0  0  0
   -9.3898    0.5872    0.0000 C   0  0  0  0  0  0  0  0  0  0  0  0
  -10.0822    0.1669    0.0000 C   0  0  0  0  0  0  0  0  0  0  0  0
  1  5  1  0  0  0  0
  1  7  1  0  0  0  0
  1  8  2  0  0  0  0
  1 13  1  0  0  0  0
 15  2  1  6  0  0  0
  3 16  1  0  0  0  0
  3 18  1  0  0  0  0
 17  4  1  6  0  0  0
  5 21  1  0  0  0  0
  6 19  2  0  0  0  0
  7 25  1  0  0  0  0
  9 23  2  0  0  0  0
 10 33  2  0  0  0  0
 11 16  1  0  0  0  0
 11 19  1  0  0  0  0
 11 22  1  0  0  0  0
 12 19  1  0  0  0  0
 12 23  1  0  0  0  0
 13 26  1  0  0  0  0
 14 29  1  0  0  0  0
 14 33  1  0  0  0  0
 15 16  1  0  0  0  0
 15 17  1  0  0  0  0
 15 20  1  1  0  0  0
 17 18  1  0  0  0  0
 18 21  1  1  0  0  0
 22 24  2  0  0  0  0
 23 24  1  0  0  0  0
 25 27  2  0  0  0  0
 25 28  1  0  0  0  0
 26 29  1  0  0  0  0
 27 30  1  0  0  0  0
 28 31  2  0  0  0  0
 30 32  2  0  0  0  0
 31 32  1  0  0  0  0
 33 34  1  0  0  0  0
 34 35  1  0  0  0  0
 35 36  1  0  0  0  0
 36 37  2  0  0  0  0
 37 38  1  0  0  0  0
 38 39  1  0  0  0  0
 39 40  2  0  0  0  0
 40 41  1  0  0  0  0
 41 42  1  0  0  0  0
 42 43  2  0  0  0  0
 43 44  1  0  0  0  0
 44 45  1  0  0  0  0
 45 46  2  0  0  0  0
 46 47  1  0  0  0  0
 47 48  1  0  0  0  0
 48 49  2  0  0  0  0
 49 50  1  0  0  0  0
 50 51  1  0  0  0  0
 51 52  2  0  0  0  0
 52 53  1  0  0  0  0
 53 54  1  0  0  0  0
M  END
> <PUBCHEM_COMPOUND_ID_TYPE>
0

> <PUBCHEM_TOTAL_CHARGE>
0

> <PUBCHEM_SUBSTANCE_ID>
310948927

> <PUBCHEM_SUBSTANCE_VERSION>
1

> <PUBCHEM_EXT_DATASOURCE_NAME>
4488

> <PUBCHEM_EXT_DATASOURCE_REGID>
SCHEMBL16127113

> <PUBCHEM_SUBSTANCE_COMMENT>
InChI=1S/C40H54FN4O8P/c1-3-4-5-6-7-8-9-10-11-12-13-14-15-16-17-18-19-20-24-27-35(46)42-29-30-43-54(50,53-33-25-22-21-23-26-33)51-32-34-37(48)40(2,41)38(52-34)45-31-28-36(47)44-39(45)49/h4-5,7-8,10-11,13-14,16-17,19-23,25-26,28,31,34,37-38,48H,3,6,9,12,15,18,24,27,29-30,32H2,1-2H3,(H,42,46)(H,43,50)(H,44,47,49)/b5-4-,8-7-,11-10-,14-13-,17-16-,20-19-/t34-,37-,38?,40-,54?/m1/s1
InChIKey=GVIKOZARHHLGTP-DRUSISHMSA-N

> <PUBCHEM_SUBSTANCE_SYNONYM>
SCHEMBL16127113

> <PUBCHEM_XREF_EXT_ID>
SCHEMBL16127113

> <PUBCHEM_EXT_DATASOURCE_URL>
https://www.surechembl.org/

> <PUBCHEM_EXT_SUBSTANCE_URL>
https://www.surechembl.org/chemical/SCHEMBL16127113

> <PUBCHEM_CID_ASSOCIATIONS>
117614441  1

> <PUBCHEM_COORDINATE_TYPE>
1
3

> <PUBCHEM_BONDANNOTATIONS>
15  20  5
18  21  5
15  2  6
17  4  6

$$$$
