310944293
  -OEChem-07211613022D

 13 15  0     1  0  0  0  0  0999 V2000
   -0.0249    0.4902    0.0000 O   0  0  0  0  0  0  0  0  0  0  0  0
   -2.3513   -0.7395    0.0000 N   0  0  0  0  0  0  0  0  0  0  0  0
   -1.5703   -1.1383    0.0000 C   0  0  3  0  0  0  0  0  0  0  0  0
   -2.2516    0.1745    0.0000 C   0  0  3  0  0  0  0  0  0  0  0  0
   -0.8059    0.1080    0.0000 C   0  0  0  0  0  0  0  0  0  0  0  0
   -1.5371    0.5400    0.0000 C   0  0  0  0  0  0  0  0  0  0  0  0
   -0.8392   -0.7727    0.0000 C   0  0  0  0  0  0  0  0  0  0  0  0
   -1.1715   -0.5400    0.0000 C   0  0  0  0  0  0  0  0  0  0  0  0
   -1.5371    0.1247    0.0000 C   0  0  0  0  0  0  0  0  0  0  0  0
    1.5039    0.4570    0.0000 C   0  0  0  0  0  0  0  0  0  0  0  0
    0.7395    0.0416    0.0000 C   0  0  0  0  0  0  0  0  0  0  0  0
    1.9691    1.1383    0.0000 C   0  0  0  0  0  0  0  0  0  0  0  0
    2.3513    0.4071    0.0000 C   0  0  0  0  0  0  0  0  0  0  0  0
  5  1  1  1  0  0  0
  1 11  1  0  0  0  0
  3  2  1  6  0  0  0
  4  2  1  6  0  0  0
  3  7  1  0  0  0  0
  3  8  1  0  0  0  0
  4  6  1  0  0  0  0
  4  9  1  0  0  0  0
  5  6  1  0  0  0  0
  5  7  1  0  0  0  0
  8  9  1  0  0  0  0
 10 11  1  0  0  0  0
 10 12  1  0  0  0  0
 10 13  1  0  0  0  0
 12 13  1  0  0  0  0
M  END
> <PUBCHEM_COMPOUND_ID_TYPE>
0

> <PUBCHEM_TOTAL_CHARGE>
0

> <PUBCHEM_SUBSTANCE_ID>
310944293

> <PUBCHEM_SUBSTANCE_VERSION>
1

> <PUBCHEM_EXT_DATASOURCE_NAME>
4488

> <PUBCHEM_EXT_DATASOURCE_REGID>
SCHEMBL16122368

> <PUBCHEM_SUBSTANCE_COMMENT>
InChI=1S/C11H19NO/c1-2-8(1)7-13-11-5-9-3-4-10(6-11)12-9/h8-12H,1-7H2/t9-,10+,11+
InChIKey=ILXGEBHNXHTRAA-URLYPYJESA-N

> <PUBCHEM_SUBSTANCE_SYNONYM>
SCHEMBL16122368

> <PUBCHEM_XREF_EXT_ID>
SCHEMBL16122368

> <PUBCHEM_EXT_DATASOURCE_URL>
https://www.surechembl.org/

> <PUBCHEM_EXT_SUBSTANCE_URL>
https://www.surechembl.org/chemical/SCHEMBL16122368

> <PUBCHEM_CID_ASSOCIATIONS>
68675660  1

> <PUBCHEM_COORDINATE_TYPE>
1
3

> <PUBCHEM_BONDANNOTATIONS>
5  1  5
3  2  6
4  2  6

$$$$
