310932936
  -OEChem-07211613022D

 27 29  0     0  0  0  0  0  0999 V2000
    3.2128   -2.5894    0.0000 O   0  0  0  0  0  0  0  0  0  0  0  0
    4.3636   -1.3906    0.0000 O   0  0  0  0  0  0  0  0  0  0  0  0
    5.7063   -1.8222    0.0000 O   0  0  0  0  0  0  0  0  0  0  0  0
    0.4316   -5.4186    0.0000 O   0  0  0  0  0  0  0  0  0  0  0  0
    0.8632   -9.5904    0.0000 O   0  0  0  0  0  0  0  0  0  0  0  0
    3.8841   -3.8841    0.0000 N   0  0  0  0  0  0  0  0  0  0  0  0
    4.6514   -4.1239    0.0000 N   0  0  0  0  0  0  0  0  0  0  0  0
    3.3087   -5.1309    0.0000 N   0  0  0  0  0  0  0  0  0  0  0  0
    1.2947   -6.6174    0.0000 N   0  0  0  0  0  0  0  0  0  0  0  0
    3.8841   -3.0689    0.0000 C   0  0  0  0  0  0  0  0  0  0  0  0
    4.6514   -2.7812    0.0000 C   0  0  0  0  0  0  0  0  0  0  0  0
    3.2128   -4.3636    0.0000 C   0  0  0  0  0  0  0  0  0  0  0  0
    5.1309   -3.4525    0.0000 C   0  0  0  0  0  0  0  0  0  0  0  0
    4.8911   -2.0140    0.0000 C   0  0  0  0  0  0  0  0  0  0  0  0
    2.4456   -3.9800    0.0000 C   0  0  0  0  0  0  0  0  0  0  0  0
    1.8701   -5.2747    0.0000 C   0  0  0  0  0  0  0  0  0  0  0  0
    2.6373   -5.6583    0.0000 C   0  0  0  0  0  0  0  0  0  0  0  0
    1.7742   -4.5075    0.0000 C   0  0  0  0  0  0  0  0  0  0  0  0
    1.1988   -5.7542    0.0000 C   0  0  0  0  0  0  0  0  0  0  0  0
    0.6234   -7.0969    0.0000 C   0  0  0  0  0  0  0  0  0  0  0  0
    4.6034   -0.6234    0.0000 C   0  0  0  0  0  0  0  0  0  0  0  0
    0.6713   -7.9121    0.0000 C   0  0  0  0  0  0  0  0  0  0  0  0
    0.0000   -8.4395    0.0000 C   0  0  0  0  0  0  0  0  0  0  0  0
    1.4386   -8.2957    0.0000 C   0  0  0  0  0  0  0  0  0  0  0  0
    0.0959   -9.2068    0.0000 C   0  0  0  0  0  0  0  0  0  0  0  0
    1.5344   -9.0629    0.0000 C   0  0  0  0  0  0  0  0  0  0  0  0
    4.0280    0.0000    0.0000 C   0  0  0  0  0  0  0  0  0  0  0  0
  1 10  1  0  0  0  0
  2 14  1  0  0  0  0
  2 21  1  0  0  0  0
  3 14  2  0  0  0  0
  4 19  2  0  0  0  0
  5 25  1  0  0  0  0
  5 26  1  0  0  0  0
  6  7  1  0  0  0  0
  6 10  1  0  0  0  0
  6 12  1  0  0  0  0
  7 13  2  0  0  0  0
  8 12  1  0  0  0  0
  8 17  2  0  0  0  0
  9 19  1  0  0  0  0
  9 20  1  0  0  0  0
 10 11  2  0  0  0  0
 11 13  1  0  0  0  0
 11 14  1  0  0  0  0
 12 15  2  0  0  0  0
 15 18  1  0  0  0  0
 16 17  1  0  0  0  0
 16 18  2  0  0  0  0
 16 19  1  0  0  0  0
 20 22  1  0  0  0  0
 21 27  1  0  0  0  0
 22 23  1  0  0  0  0
 22 24  1  0  0  0  0
 23 25  1  0  0  0  0
 24 26  1  0  0  0  0
M  END
> <PUBCHEM_COMPOUND_ID_TYPE>
0

> <PUBCHEM_TOTAL_CHARGE>
0

> <PUBCHEM_SUBSTANCE_ID>
310932936

> <PUBCHEM_SUBSTANCE_VERSION>
1

> <PUBCHEM_EXT_DATASOURCE_NAME>
4488

> <PUBCHEM_EXT_DATASOURCE_REGID>
SCHEMBL16110331

> <PUBCHEM_SUBSTANCE_COMMENT>
InChI=1S/C18H22N4O5/c1-2-27-18(25)14-11-21-22(17(14)24)15-4-3-13(10-19-15)16(23)20-9-12-5-7-26-8-6-12/h3-4,10-12,24H,2,5-9H2,1H3,(H,20,23)
InChIKey=RDQDHQTVUWDZCT-UHFFFAOYSA-N

> <PUBCHEM_SUBSTANCE_SYNONYM>
SCHEMBL16110331

> <PUBCHEM_XREF_EXT_ID>
SCHEMBL16110331

> <PUBCHEM_EXT_DATASOURCE_URL>
https://www.surechembl.org/

> <PUBCHEM_EXT_SUBSTANCE_URL>
https://www.surechembl.org/chemical/SCHEMBL16110331

> <PUBCHEM_CID_ASSOCIATIONS>
117601417  1

> <PUBCHEM_COORDINATE_TYPE>
1
3

$$$$
