310935777
  -OEChem-07211613022D

 32 37  0     0  0  0  0  0  0999 V2000
    5.7395   -3.6198    0.0000 S   0  0  0  0  0  0  0  0  0  0  0  0
    3.4893   -5.7068    0.0000 O   0  0  0  0  0  0  0  0  0  0  0  0
    2.1849   -5.0546    0.0000 N   0  0  0  0  0  0  0  0  0  0  0  0
    2.9349   -2.7067    0.0000 N   0  0  0  0  0  0  0  0  0  0  0  0
    2.1849   -6.3591    0.0000 N   0  0  0  0  0  0  0  0  0  0  0  0
    2.6415   -1.3044    0.0000 N   0  0  0  0  0  0  0  0  0  0  0  0
    3.7176   -0.3587    0.0000 N   0  0  0  0  0  0  0  0  0  0  0  0
    0.6848   -6.5221    0.0000 N   0  0  0  0  0  0  0  0  0  0  0  0
    6.7178   -2.7067    0.0000 N   0  0  0  0  0  0  0  0  0  0  0  0
    4.0111   -1.7610    0.0000 C   0  0  0  0  0  0  0  0  0  0  0  0
    1.4023   -5.2829    0.0000 C   0  0  0  0  0  0  0  0  0  0  0  0
    3.1958   -1.9240    0.0000 C   0  0  0  0  0  0  0  0  0  0  0  0
    2.4458   -4.2720    0.0000 C   0  0  0  0  0  0  0  0  0  0  0  0
    4.2720   -0.9783    0.0000 C   0  0  0  0  0  0  0  0  0  0  0  0
    1.4023   -6.1308    0.0000 C   0  0  0  0  0  0  0  0  0  0  0  0
    2.6741   -5.7068    0.0000 C   0  0  0  0  0  0  0  0  0  0  0  0
    5.3481   -2.1849    0.0000 C   0  0  0  0  0  0  0  0  0  0  0  0
    5.0546   -0.7827    0.0000 C   0  0  0  0  0  0  0  0  0  0  0  0
    4.5329   -2.3479    0.0000 C   0  0  0  0  0  0  0  0  0  0  0  0
    3.2611   -4.1089    0.0000 C   0  0  0  0  0  0  0  0  0  0  0  0
    1.8914   -3.6524    0.0000 C   0  0  0  0  0  0  0  0  0  0  0  0
    3.5220   -3.3263    0.0000 C   0  0  0  0  0  0  0  0  0  0  0  0
    2.1523   -2.8697    0.0000 C   0  0  0  0  0  0  0  0  0  0  0  0
    5.6090   -1.4023    0.0000 C   0  0  0  0  0  0  0  0  0  0  0  0
    0.6848   -4.8590    0.0000 C   0  0  0  0  0  0  0  0  0  0  0  0
    5.9025   -2.8045    0.0000 C   0  0  0  0  0  0  0  0  0  0  0  0
    2.9024   -0.5218    0.0000 C   0  0  0  0  0  0  0  0  0  0  0  0
    0.0000   -5.2829    0.0000 C   0  0  0  0  0  0  0  0  0  0  0  0
    0.0000   -6.1308    0.0000 C   0  0  0  0  0  0  0  0  0  0  0  0
    5.2829    0.0000    0.0000 C   0  0  0  0  0  0  0  0  0  0  0  0
    6.4569   -4.0111    0.0000 C   0  0  0  0  0  0  0  0  0  0  0  0
    7.0438   -3.4567    0.0000 C   0  0  0  0  0  0  0  0  0  0  0  0
  1 26  1  0  0  0  0
  1 31  1  0  0  0  0
  2 16  2  0  0  0  0
  3 11  1  0  0  0  0
  3 13  1  0  0  0  0
  3 16  1  0  0  0  0
  4 12  1  0  0  0  0
  4 22  1  0  0  0  0
  4 23  1  0  0  0  0
  5 15  1  0  0  0  0
  5 16  1  0  0  0  0
  6 12  1  0  0  0  0
  6 27  2  0  0  0  0
  7 14  2  0  0  0  0
  7 27  1  0  0  0  0
  8 15  1  0  0  0  0
  8 29  2  0  0  0  0
  9 26  2  0  0  0  0
  9 32  1  0  0  0  0
 10 12  2  0  0  0  0
 10 14  1  0  0  0  0
 10 19  1  0  0  0  0
 11 15  2  0  0  0  0
 11 25  1  0  0  0  0
 13 20  1  0  0  0  0
 13 21  1  0  0  0  0
 14 18  1  0  0  0  0
 17 19  2  0  0  0  0
 17 24  1  0  0  0  0
 17 26  1  0  0  0  0
 18 24  2  0  0  0  0
 18 30  1  0  0  0  0
 20 22  1  0  0  0  0
 21 23  1  0  0  0  0
 25 28  2  0  0  0  0
 28 29  1  0  0  0  0
 31 32  2  0  0  0  0
M  END
> <PUBCHEM_COMPOUND_ID_TYPE>
0

> <PUBCHEM_TOTAL_CHARGE>
0

> <PUBCHEM_SUBSTANCE_ID>
310935777

> <PUBCHEM_SUBSTANCE_VERSION>
1

> <PUBCHEM_EXT_DATASOURCE_NAME>
4488

> <PUBCHEM_EXT_DATASOURCE_REGID>
SCHEMBL16113361

> <PUBCHEM_SUBSTANCE_COMMENT>
InChI=1S/C23H21N7OS/c1-14-11-15(22-25-7-10-32-22)12-17-19(14)26-13-27-21(17)29-8-4-16(5-9-29)30-18-3-2-6-24-20(18)28-23(30)31/h2-3,6-7,10-13,16H,4-5,8-9H2,1H3,(H,24,28,31)
InChIKey=GQPSWMYLQFRYGK-UHFFFAOYSA-N

> <PUBCHEM_SUBSTANCE_SYNONYM>
SCHEMBL16113361

> <PUBCHEM_XREF_EXT_ID>
SCHEMBL16113361

> <PUBCHEM_EXT_DATASOURCE_URL>
https://www.surechembl.org/

> <PUBCHEM_EXT_SUBSTANCE_URL>
https://www.surechembl.org/chemical/SCHEMBL16113361

> <PUBCHEM_CID_ASSOCIATIONS>
117603771  1

> <PUBCHEM_COORDINATE_TYPE>
1
3

$$$$
