310936364
  -OEChem-07211613022D

 38 41  0     0  0  0  0  0  0999 V2000
    3.5724    5.3625    0.0000 F   0  0  0  0  0  0  0  0  0  0  0  0
    4.7854   -0.0386    0.0000 F   0  0  0  0  0  0  0  0  0  0  0  0
    2.3149    2.9055    0.0000 O   0  0  0  0  0  0  0  0  0  0  0  0
    0.7145    2.8875    0.0000 O   0  0  0  0  0  0  0  0  0  0  0  0
    4.5329    4.5291    0.0000 O   0  0  0  0  0  0  0  0  0  0  0  0
    0.7145    6.1875    0.0000 O   0  5  0  0  0  0  0  0  0  0  0  0
   -0.0000    4.9500    0.0000 O   0  0  0  0  0  0  0  0  0  0  0  0
    0.7145    5.3625    0.0000 N   0  3  0  0  0  0  0  0  0  0  0  0
   -0.0000    4.1250    0.0000 N   0  0  0  0  0  0  0  0  0  0  0  0
    4.8300    3.1314    0.0000 N   0  0  0  0  0  0  0  0  0  0  0  0
    2.8579    4.1250    0.0000 C   0  0  0  0  0  0  0  0  0  0  0  0
    2.1434    3.7125    0.0000 C   0  0  0  0  0  0  0  0  0  0  0  0
    1.4289    4.1250    0.0000 C   0  0  0  0  0  0  0  0  0  0  0  0
    3.4710    3.5730    0.0000 C   0  0  0  0  0  0  0  0  0  0  0  0
    2.8579    4.9500    0.0000 C   0  0  0  0  0  0  0  0  0  0  0  0
    1.4289    4.9500    0.0000 C   0  0  0  0  0  0  0  0  0  0  0  0
    2.1434    5.3625    0.0000 C   0  0  0  0  0  0  0  0  0  0  0  0
    3.1354    2.8193    0.0000 C   0  0  0  0  0  0  0  0  0  0  0  0
    0.7145    3.7125    0.0000 C   0  0  0  0  0  0  0  0  0  0  0  0
    2.1434    6.1875    0.0000 C   0  0  0  0  0  0  0  0  0  0  0  0
    4.2780    3.7445    0.0000 C   0  0  0  0  0  0  0  0  0  0  0  0
    3.5479    2.1048    0.0000 C   0  0  0  0  0  0  0  0  0  0  0  0
    1.4289    6.6000    0.0000 C   0  0  0  0  0  0  0  0  0  0  0  0
    2.8579    6.6000    0.0000 C   0  0  0  0  0  0  0  0  0  0  0  0
    4.3729    2.1048    0.0000 C   0  0  0  0  0  0  0  0  0  0  0  0
    3.1354    1.3904    0.0000 C   0  0  0  0  0  0  0  0  0  0  0  0
    4.7854    1.3904    0.0000 C   0  0  0  0  0  0  0  0  0  0  0  0
    3.5479    0.6759    0.0000 C   0  0  0  0  0  0  0  0  0  0  0  0
    1.4289    7.4250    0.0000 C   0  0  0  0  0  0  0  0  0  0  0  0
    2.8579    7.4250    0.0000 C   0  0  0  0  0  0  0  0  0  0  0  0
    4.3729    0.6759    0.0000 C   0  0  0  0  0  0  0  0  0  0  0  0
   -0.7145    3.7125    0.0000 C   0  0  0  0  0  0  0  0  0  0  0  0
    2.1434    7.8375    0.0000 C   0  0  0  0  0  0  0  0  0  0  0  0
    5.6370    3.3029    0.0000 C   0  0  0  0  0  0  0  0  0  0  0  0
   -1.4289    4.1250    0.0000 C   0  0  0  0  0  0  0  0  0  0  0  0
   -2.1434    3.7125    0.0000 C   0  0  0  0  0  0  0  0  0  0  0  0
   -2.8579    4.1250    0.0000 C   0  0  0  0  0  0  0  0  0  0  0  0
   -3.5724    3.7125    0.0000 C   0  0  0  0  0  0  0  0  0  0  0  0
  1 15  1  0  0  0  0
  2 31  1  0  0  0  0
  3 12  1  0  0  0  0
  3 18  1  0  0  0  0
  4 19  2  0  0  0  0
  5 21  2  0  0  0  0
  6  8  1  0  0  0  0
  7  8  2  0  0  0  0
  8 16  1  0  0  0  0
  9 19  1  0  0  0  0
  9 32  1  0  0  0  0
 10 21  1  0  0  0  0
 10 34  1  0  0  0  0
 11 12  2  0  0  0  0
 11 14  1  0  0  0  0
 11 15  1  0  0  0  0
 12 13  1  0  0  0  0
 13 16  2  0  0  0  0
 13 19  1  0  0  0  0
 14 18  2  0  0  0  0
 14 21  1  0  0  0  0
 15 17  2  0  0  0  0
 16 17  1  0  0  0  0
 17 20  1  0  0  0  0
 18 22  1  0  0  0  0
 20 23  2  0  0  0  0
 20 24  1  0  0  0  0
 22 25  2  0  0  0  0
 22 26  1  0  0  0  0
 23 29  1  0  0  0  0
 24 30  2  0  0  0  0
 25 27  1  0  0  0  0
 26 28  2  0  0  0  0
 27 31  2  0  0  0  0
 28 31  1  0  0  0  0
 29 33  2  0  0  0  0
 30 33  1  0  0  0  0
 32 35  1  0  0  0  0
 35 36  1  0  0  0  0
 36 37  1  0  0  0  0
 37 38  1  0  0  0  0
M  CHG  2   6  -1   8   1
M  END
> <PUBCHEM_COMPOUND_ID_TYPE>
0

> <PUBCHEM_TOTAL_CHARGE>
0

> <PUBCHEM_SUBSTANCE_ID>
310936364

> <PUBCHEM_SUBSTANCE_VERSION>
1

> <PUBCHEM_EXT_DATASOURCE_NAME>
4488

> <PUBCHEM_EXT_DATASOURCE_REGID>
SCHEMBL16113998

> <PUBCHEM_SUBSTANCE_COMMENT>
InChI=1S/C28H25F2N3O5/c1-3-4-8-15-32-28(35)22-24(33(36)37)19(16-9-6-5-7-10-16)23(30)20-21(27(34)31-2)25(38-26(20)22)17-11-13-18(29)14-12-17/h5-7,9-14H,3-4,8,15H2,1-2H3,(H,31,34)(H,32,35)
InChIKey=LFXJPLQEJKWXKH-UHFFFAOYSA-N

> <PUBCHEM_SUBSTANCE_SYNONYM>
SCHEMBL16113998

> <PUBCHEM_XREF_EXT_ID>
SCHEMBL16113998

> <PUBCHEM_EXT_DATASOURCE_URL>
https://www.surechembl.org/

> <PUBCHEM_EXT_SUBSTANCE_URL>
https://www.surechembl.org/chemical/SCHEMBL16113998

> <PUBCHEM_CID_ASSOCIATIONS>
117604306  1

> <PUBCHEM_COORDINATE_TYPE>
1
3

$$$$
