310947804
  -OEChem-07211613022D

 27 28  0     1  0  0  0  0  0999 V2000
    3.7030   -1.9411    0.0000 S   0  0  0  0  0  0  0  0  0  0  0  0
    2.8746   -1.9411    0.0000 O   0  0  0  0  0  0  0  0  0  0  0  0
   -1.4156    0.5316    0.0000 O   0  0  0  0  0  0  0  0  0  0  0  0
    0.0185   -1.9411    0.0000 O   0  0  0  0  0  0  0  0  0  0  0  0
    0.0185    1.3477    0.0000 O   0  0  0  0  0  0  0  0  0  0  0  0
    4.1110   -1.2241    0.0000 O   0  0  0  0  0  0  0  0  0  0  0  0
    4.1110   -2.6582    0.0000 O   0  0  0  0  0  0  0  0  0  0  0  0
    4.5190   -1.9411    0.0000 O   0  0  0  0  0  0  0  0  0  0  0  0
    0.7480   -0.7047    0.0000 N   0  0  0  0  0  0  0  0  0  0  0  0
    2.1822   -1.5331    0.0000 N   0  0  0  0  0  0  0  0  0  0  0  0
   -3.8142    1.5826    0.0000 N   0  0  0  0  0  0  0  0  0  0  0  0
   -0.6738    0.1237    0.0000 N   0  0  0  0  0  0  0  0  0  0  0  0
   -3.0354    2.6582    0.0000 N   0  0  0  0  0  0  0  0  0  0  0  0
   -3.4063   -0.0494    0.0000 N   0  0  0  0  0  0  0  0  0  0  0  0
    0.7480    0.1237    0.0000 C   0  0  3  0  0  0  0  0  0  0  0  0
    0.7603   -1.5084    0.0000 C   0  0  0  0  0  0  0  0  0  0  0  0
   -0.0062    0.5069    0.0000 C   0  0  0  0  0  0  0  0  0  0  0  0
    1.4651   -1.1127    0.0000 C   0  0  0  0  0  0  0  0  0  0  0  0
    1.4528    0.5316    0.0000 C   0  0  0  0  0  0  0  0  0  0  0  0
   -3.0354    1.3106    0.0000 C   0  0  0  0  0  0  0  0  0  0  0  0
   -2.8252    0.5316    0.0000 C   0  0  3  0  0  0  0  0  0  0  0  0
    2.1575   -0.7171    0.0000 C   0  0  0  0  0  0  0  0  0  0  0  0
    2.1699    0.1237    0.0000 C   0  0  0  0  0  0  0  0  0  0  0  0
   -2.5655    2.0153    0.0000 C   0  0  0  0  0  0  0  0  0  0  0  0
   -2.1081    0.1237    0.0000 C   0  0  0  0  0  0  0  0  0  0  0  0
   -3.8142    2.4110    0.0000 C   0  0  0  0  0  0  0  0  0  0  0  0
   -4.5190    1.1622    0.0000 C   0  0  0  0  0  0  0  0  0  0  0  0
  1  2  1  0  0  0  0
  1  6  2  0  0  0  0
  1  7  2  0  0  0  0
  1  8  1  0  0  0  0
  2 10  1  0  0  0  0
  3 12  1  0  0  0  0
  3 25  1  0  0  0  0
  4 16  2  0  0  0  0
  5 17  2  0  0  0  0
  9 15  1  0  0  0  0
  9 16  1  0  0  0  0
  9 18  1  0  0  0  0
 10 16  1  0  0  0  0
 11 20  1  0  0  0  0
 11 26  1  0  0  0  0
 11 27  1  0  0  0  0
 12 17  1  0  0  0  0
 13 24  1  0  0  0  0
 13 26  2  0  0  0  0
 14 21  1  0  0  0  0
 15 17  1  6  0  0  0
 15 19  1  0  0  0  0
 18 22  1  0  0  0  0
 19 23  1  0  0  0  0
 20 21  1  0  0  0  0
 20 24  2  0  0  0  0
 21 25  1  0  0  0  0
 22 23  1  0  0  0  0
M  END
> <PUBCHEM_COMPOUND_ID_TYPE>
0

> <PUBCHEM_TOTAL_CHARGE>
0

> <PUBCHEM_SUBSTANCE_ID>
310947804

> <PUBCHEM_SUBSTANCE_VERSION>
1

> <PUBCHEM_EXT_DATASOURCE_NAME>
4488

> <PUBCHEM_EXT_DATASOURCE_REGID>
SCHEMBL16125976

> <PUBCHEM_SUBSTANCE_COMMENT>
InChI=1S/C13H22N6O7S/c1-18-8-15-6-11(18)9(14)7-25-16-12(20)10-4-2-3-5-19(10)13(21)17-26-27(22,23)24/h6,8-10H,2-5,7,14H2,1H3,(H,16,20)(H,17,21)(H,22,23,24)/t9?,10-/m0/s1
InChIKey=LBCBAOVJRXXGFF-AXDSSHIGSA-N

> <PUBCHEM_SUBSTANCE_SYNONYM>
SCHEMBL16125976

> <PUBCHEM_XREF_EXT_ID>
SCHEMBL16125976

> <PUBCHEM_EXT_DATASOURCE_URL>
https://www.surechembl.org/

> <PUBCHEM_EXT_SUBSTANCE_URL>
https://www.surechembl.org/chemical/SCHEMBL16125976

> <PUBCHEM_CID_ASSOCIATIONS>
117613473  1

> <PUBCHEM_COORDINATE_TYPE>
1
3

> <PUBCHEM_BONDANNOTATIONS>
15  17  6

$$$$
