310944021
  -OEChem-07211613022D

 20 21  0     0  0  0  0  0  0999 V2000
   -0.0156    3.4895    0.0000 F   0  0  0  0  0  0  0  0  0  0  0  0
    2.1546    3.0367    0.0000 N   0  0  0  0  0  0  0  0  0  0  0  0
   -2.1546    3.0210    0.0000 N   0  0  0  0  0  0  0  0  0  0  0  0
    0.0156    1.0382    0.0000 C   0  0  0  0  0  0  0  0  0  0  0  0
   -0.0156    2.6775    0.0000 C   0  0  0  0  0  0  0  0  0  0  0  0
    0.7182    2.2873    0.0000 C   0  0  0  0  0  0  0  0  0  0  0  0
   -0.7339    2.2717    0.0000 C   0  0  0  0  0  0  0  0  0  0  0  0
    0.0000    0.2108    0.0000 C   0  0  0  0  0  0  0  0  0  0  0  0
    0.7182    1.4598    0.0000 C   0  0  0  0  0  0  0  0  0  0  0  0
   -0.7182    1.4598    0.0000 C   0  0  0  0  0  0  0  0  0  0  0  0
   -0.7339   -0.1952    0.0000 C   0  0  0  0  0  0  0  0  0  0  0  0
    0.7026   -0.1795    0.0000 C   0  0  0  0  0  0  0  0  0  0  0  0
    1.4364    2.6775    0.0000 C   0  0  0  0  0  0  0  0  0  0  0  0
   -1.4519    2.6620    0.0000 C   0  0  0  0  0  0  0  0  0  0  0  0
    0.0000   -1.3973    0.0000 C   0  0  0  0  0  0  0  0  0  0  0  0
   -0.7182   -0.9914    0.0000 C   0  0  0  0  0  0  0  0  0  0  0  0
    0.7026   -1.0226    0.0000 C   0  0  0  0  0  0  0  0  0  0  0  0
    0.0000   -2.2404    0.0000 C   0  0  0  0  0  0  0  0  0  0  0  0
   -0.7182   -2.6620    0.0000 C   0  0  0  0  0  0  0  0  0  0  0  0
   -0.7026   -3.4895    0.0000 C   0  0  0  0  0  0  0  0  0  0  0  0
  1  5  1  0  0  0  0
  2 13  3  0  0  0  0
  3 14  3  0  0  0  0
  4  8  1  0  0  0  0
  4  9  2  0  0  0  0
  4 10  1  0  0  0  0
  5  6  2  0  0  0  0
  5  7  1  0  0  0  0
  6  9  1  0  0  0  0
  6 13  1  0  0  0  0
  7 10  2  0  0  0  0
  7 14  1  0  0  0  0
  8 11  1  0  0  0  0
  8 12  1  0  0  0  0
 11 16  1  0  0  0  0
 12 17  1  0  0  0  0
 15 16  1  0  0  0  0
 15 17  1  0  0  0  0
 15 18  1  0  0  0  0
 18 19  1  0  0  0  0
 19 20  1  0  0  0  0
M  END
> <PUBCHEM_COMPOUND_ID_TYPE>
0

> <PUBCHEM_TOTAL_CHARGE>
0

> <PUBCHEM_SUBSTANCE_ID>
310944021

> <PUBCHEM_SUBSTANCE_VERSION>
1

> <PUBCHEM_EXT_DATASOURCE_NAME>
4488

> <PUBCHEM_EXT_DATASOURCE_REGID>
SCHEMBL16122094

> <PUBCHEM_SUBSTANCE_COMMENT>
InChI=1S/C17H19FN2/c1-2-3-12-4-6-13(7-5-12)14-8-15(10-19)17(18)16(9-14)11-20/h8-9,12-13H,2-7H2,1H3
InChIKey=DNCQNHSYOKURJV-UHFFFAOYSA-N

> <PUBCHEM_SUBSTANCE_SYNONYM>
SCHEMBL16122094

> <PUBCHEM_XREF_EXT_ID>
SCHEMBL16122094

> <PUBCHEM_EXT_DATASOURCE_URL>
https://www.surechembl.org/

> <PUBCHEM_EXT_SUBSTANCE_URL>
https://www.surechembl.org/chemical/SCHEMBL16122094

> <PUBCHEM_CID_ASSOCIATIONS>
117610324  1

> <PUBCHEM_COORDINATE_TYPE>
1
3

$$$$
