310946038
  -OEChem-07211613022D

 36 39  0     1  0  0  0  0  0999 V2000
    3.6741    1.1991    0.0000 O   0  0  0  0  0  0  0  0  0  0  0  0
    1.3874    1.1991    0.0000 O   0  0  0  0  0  0  0  0  0  0  0  0
    0.6763    0.7808    0.0000 O   0  0  0  0  0  0  0  0  0  0  0  0
   -0.0488    1.1991    0.0000 O   0  0  0  0  0  0  0  0  0  0  0  0
   -2.7538    2.9699    0.0000 O   0  0  0  0  0  0  0  0  0  0  0  0
   -2.9490   -2.9699    0.0000 O   0  0  0  0  0  0  0  0  0  0  0  0
    1.4013   -0.4601    0.0000 N   0  0  0  0  0  0  0  0  0  0  0  0
   -0.7738   -0.0419    0.0000 N   0  0  0  0  0  0  0  0  0  0  0  0
   -2.8235    1.5059    0.0000 N   0  0  0  0  0  0  0  0  0  0  0  0
    2.8374    1.1991    0.0000 C   0  0  3  0  0  0  0  0  0  0  0  0
    2.1263    0.7808    0.0000 C   0  0  0  0  0  0  0  0  0  0  0  0
    3.2697    0.5020    0.0000 C   0  0  0  0  0  0  0  0  0  0  0  0
    2.1124   -0.0278    0.0000 C   0  0  3  0  0  0  0  0  0  0  0  0
    2.8514    2.0218    0.0000 C   0  0  0  0  0  0  0  0  0  0  0  0
    2.8514   -0.4601    0.0000 C   0  0  0  0  0  0  0  0  0  0  0  0
    0.6763   -0.0558    0.0000 C   0  0  0  0  0  0  0  0  0  0  0  0
   -0.0488   -0.4462    0.0000 C   0  0  3  0  0  0  0  0  0  0  0  0
    2.8374   -1.2828    0.0000 C   0  0  0  0  0  0  0  0  0  0  0  0
   -0.7599    0.7390    0.0000 C   0  0  0  0  0  0  0  0  0  0  0  0
   -1.4989    1.2131    0.0000 C   0  0  3  0  0  0  0  0  0  0  0  0
   -0.0488   -1.2967    0.0000 C   0  0  0  0  0  0  0  0  0  0  0  0
   -0.7738   -1.7011    0.0000 C   0  0  0  0  0  0  0  0  0  0  0  0
   -1.5826    2.0357    0.0000 C   0  0  0  0  0  0  0  0  0  0  0  0
   -2.2518    0.8924    0.0000 C   0  0  0  0  0  0  0  0  0  0  0  0
    3.5625   -1.7150    0.0000 C   0  0  0  0  0  0  0  0  0  0  0  0
    2.1263   -1.7150    0.0000 C   0  0  0  0  0  0  0  0  0  0  0  0
   -2.3913    2.2031    0.0000 C   0  0  0  0  0  0  0  0  0  0  0  0
   -1.4989   -1.3106    0.0000 C   0  0  0  0  0  0  0  0  0  0  0  0
   -0.7738   -2.5377    0.0000 C   0  0  0  0  0  0  0  0  0  0  0  0
   -2.2240   -2.5377    0.0000 C   0  0  0  0  0  0  0  0  0  0  0  0
   -2.2100   -1.7150    0.0000 C   0  0  0  0  0  0  0  0  0  0  0  0
   -1.4849   -2.9559    0.0000 C   0  0  0  0  0  0  0  0  0  0  0  0
    3.5625   -2.5377    0.0000 C   0  0  0  0  0  0  0  0  0  0  0  0
    2.1263   -2.5377    0.0000 C   0  0  0  0  0  0  0  0  0  0  0  0
    2.8654   -2.9559    0.0000 C   0  0  0  0  0  0  0  0  0  0  0  0
   -3.6741   -2.5656    0.0000 C   0  0  0  0  0  0  0  0  0  0  0  0
  1 10  1  0  0  0  0
  1 12  1  0  0  0  0
  2 11  2  0  0  0  0
  3 16  2  0  0  0  0
  4 19  2  0  0  0  0
  5 27  2  0  0  0  0
  6 30  1  0  0  0  0
  6 36  1  0  0  0  0
 13  7  1  1  0  0  0
  7 16  1  0  0  0  0
  8 17  1  0  0  0  0
  8 19  1  0  0  0  0
  9 24  1  0  0  0  0
  9 27  1  0  0  0  0
 10 11  1  1  0  0  0
 10 12  1  0  0  0  0
 10 14  1  6  0  0  0
 11 13  1  0  0  0  0
 13 15  1  0  0  0  0
 15 18  1  0  0  0  0
 16 17  1  0  0  0  0
 17 21  1  0  0  0  0
 18 25  2  0  0  0  0
 18 26  1  0  0  0  0
 20 19  1  6  0  0  0
 20 23  1  0  0  0  0
 20 24  1  0  0  0  0
 21 22  1  0  0  0  0
 22 28  2  0  0  0  0
 22 29  1  0  0  0  0
 23 27  1  0  0  0  0
 25 33  1  0  0  0  0
 26 34  2  0  0  0  0
 28 31  1  0  0  0  0
 29 32  2  0  0  0  0
 30 31  2  0  0  0  0
 30 32  1  0  0  0  0
 33 35  2  0  0  0  0
 34 35  1  0  0  0  0
M  END
> <PUBCHEM_COMPOUND_ID_TYPE>
0

> <PUBCHEM_TOTAL_CHARGE>
0

> <PUBCHEM_SUBSTANCE_ID>
310946038

> <PUBCHEM_SUBSTANCE_VERSION>
1

> <PUBCHEM_EXT_DATASOURCE_NAME>
4488

> <PUBCHEM_EXT_DATASOURCE_REGID>
SCHEMBL16124144

> <PUBCHEM_SUBSTANCE_COMMENT>
InChI=1S/C27H31N3O6/c1-27(16-36-27)24(32)21(12-17-6-4-3-5-7-17)29-26(34)22(13-18-8-10-20(35-2)11-9-18)30-25(33)19-14-23(31)28-15-19/h3-11,19,21-22H,12-16H2,1-2H3,(H,28,31)(H,29,34)(H,30,33)/t19-,21+,22?,27-/m0/s1
InChIKey=RKJRRYVAFBATBQ-SWHOCHBPSA-N

> <PUBCHEM_SUBSTANCE_SYNONYM>
SCHEMBL16124144

> <PUBCHEM_XREF_EXT_ID>
SCHEMBL16124144

> <PUBCHEM_EXT_DATASOURCE_URL>
https://www.surechembl.org/

> <PUBCHEM_EXT_SUBSTANCE_URL>
https://www.surechembl.org/chemical/SCHEMBL16124144

> <PUBCHEM_CID_ASSOCIATIONS>
117612009  1

> <PUBCHEM_COORDINATE_TYPE>
1
3

> <PUBCHEM_BONDANNOTATIONS>
10  11  5
10  14  6
20  19  6
13  7  5

$$$$
