310943684
  -OEChem-07211613022D

 38 42  0     0  0  0  0  0  0999 V2000
    4.6693    2.2879    0.0000 F   0  0  0  0  0  0  0  0  0  0  0  0
    5.3853    1.8677    0.0000 F   0  0  0  0  0  0  0  0  0  0  0  0
    5.3853    1.0428    0.0000 F   0  0  0  0  0  0  0  0  0  0  0  0
    1.8054    2.2879    0.0000 O   0  0  0  0  0  0  0  0  0  0  0  0
   -2.5058   -2.6926    0.0000 O   0  0  0  0  0  0  0  0  0  0  0  0
   -5.3853    2.2879    0.0000 O   0  0  0  0  0  0  0  0  0  0  0  0
   -3.2218    0.2179    0.0000 N   0  0  0  0  0  0  0  0  0  0  0  0
   -2.5058   -1.0272    0.0000 N   0  0  0  0  0  0  0  0  0  0  0  0
   -3.9378    1.4475    0.0000 N   0  0  0  0  0  0  0  0  0  0  0  0
    1.0895    1.0428    0.0000 N   0  0  0  0  0  0  0  0  0  0  0  0
    3.9689    0.2179    0.0000 N   0  0  0  0  0  0  0  0  0  0  0  0
   -1.7743    1.0428    0.0000 C   0  0  0  0  0  0  0  0  0  0  0  0
   -1.0584    1.4631    0.0000 C   0  0  0  0  0  0  0  0  0  0  0  0
   -2.5058   -0.1868    0.0000 C   0  0  0  0  0  0  0  0  0  0  0  0
   -3.2218    1.0428    0.0000 C   0  0  0  0  0  0  0  0  0  0  0  0
   -1.7899    0.2179    0.0000 C   0  0  0  0  0  0  0  0  0  0  0  0
   -2.5058    1.4631    0.0000 C   0  0  0  0  0  0  0  0  0  0  0  0
   -1.0584    2.2879    0.0000 C   0  0  0  0  0  0  0  0  0  0  0  0
   -0.3268    1.0584    0.0000 C   0  0  0  0  0  0  0  0  0  0  0  0
    0.3580    1.4786    0.0000 C   0  0  0  0  0  0  0  0  0  0  0  0
    2.5215    1.0428    0.0000 C   0  0  0  0  0  0  0  0  0  0  0  0
    3.9689    1.0428    0.0000 C   0  0  0  0  0  0  0  0  0  0  0  0
    1.7899    1.4475    0.0000 C   0  0  0  0  0  0  0  0  0  0  0  0
   -0.3580    2.6926    0.0000 C   0  0  0  0  0  0  0  0  0  0  0  0
    0.3580    2.2879    0.0000 C   0  0  0  0  0  0  0  0  0  0  0  0
    4.7004    1.4631    0.0000 C   0  0  0  0  0  0  0  0  0  0  0  0
    3.2374    1.4631    0.0000 C   0  0  0  0  0  0  0  0  0  0  0  0
   -3.2218   -1.4475    0.0000 C   0  0  0  0  0  0  0  0  0  0  0  0
   -1.7743   -1.4631    0.0000 C   0  0  0  0  0  0  0  0  0  0  0  0
   -3.9533    2.2879    0.0000 C   0  0  0  0  0  0  0  0  0  0  0  0
   -4.6381    1.0428    0.0000 C   0  0  0  0  0  0  0  0  0  0  0  0
    2.5215    0.2179    0.0000 C   0  0  0  0  0  0  0  0  0  0  0  0
   -1.8054    2.6926    0.0000 C   0  0  0  0  0  0  0  0  0  0  0  0
    3.2685   -0.1868    0.0000 C   0  0  0  0  0  0  0  0  0  0  0  0
   -3.2218   -2.2724    0.0000 C   0  0  0  0  0  0  0  0  0  0  0  0
   -1.7899   -2.2724    0.0000 C   0  0  0  0  0  0  0  0  0  0  0  0
   -4.6693    2.6926    0.0000 C   0  0  0  0  0  0  0  0  0  0  0  0
   -5.3853    1.4631    0.0000 C   0  0  0  0  0  0  0  0  0  0  0  0
  1 26  1  0  0  0  0
  2 26  1  0  0  0  0
  3 26  1  0  0  0  0
  4 23  2  0  0  0  0
  5 35  1  0  0  0  0
  5 36  1  0  0  0  0
  6 37  1  0  0  0  0
  6 38  1  0  0  0  0
  7 14  2  0  0  0  0
  7 15  1  0  0  0  0
  8 14  1  0  0  0  0
  8 28  1  0  0  0  0
  8 29  1  0  0  0  0
  9 15  1  0  0  0  0
  9 30  1  0  0  0  0
  9 31  1  0  0  0  0
 10 20  1  0  0  0  0
 10 23  1  0  0  0  0
 11 22  1  0  0  0  0
 11 34  2  0  0  0  0
 12 13  1  0  0  0  0
 12 16  2  0  0  0  0
 12 17  1  0  0  0  0
 13 18  2  0  0  0  0
 13 19  1  0  0  0  0
 14 16  1  0  0  0  0
 15 17  2  0  0  0  0
 18 24  1  0  0  0  0
 18 33  1  0  0  0  0
 19 20  2  0  0  0  0
 20 25  1  0  0  0  0
 21 23  1  0  0  0  0
 21 27  1  0  0  0  0
 21 32  2  0  0  0  0
 22 26  1  0  0  0  0
 22 27  2  0  0  0  0
 24 25  2  0  0  0  0
 28 35  1  0  0  0  0
 29 36  1  0  0  0  0
 30 37  1  0  0  0  0
 31 38  1  0  0  0  0
 32 34  1  0  0  0  0
M  END
> <PUBCHEM_COMPOUND_ID_TYPE>
0

> <PUBCHEM_TOTAL_CHARGE>
0

> <PUBCHEM_SUBSTANCE_ID>
310943684

> <PUBCHEM_SUBSTANCE_VERSION>
1

> <PUBCHEM_EXT_DATASOURCE_NAME>
4488

> <PUBCHEM_EXT_DATASOURCE_REGID>
SCHEMBL16121752

> <PUBCHEM_SUBSTANCE_COMMENT>
InChI=1S/C27H28F3N5O3/c1-18-2-3-21(32-26(36)19-4-5-31-23(14-19)27(28,29)30)17-22(18)20-15-24(34-6-10-37-11-7-34)33-25(16-20)35-8-12-38-13-9-35/h2-5,14-17H,6-13H2,1H3,(H,32,36)
InChIKey=QDHRVJSENVYTRB-UHFFFAOYSA-N

> <PUBCHEM_SUBSTANCE_SYNONYM>
SCHEMBL16121752

> <PUBCHEM_XREF_EXT_ID>
SCHEMBL16121752

> <PUBCHEM_EXT_DATASOURCE_URL>
https://www.surechembl.org/

> <PUBCHEM_EXT_SUBSTANCE_URL>
https://www.surechembl.org/chemical/SCHEMBL16121752

> <PUBCHEM_CID_ASSOCIATIONS>
117610072  1

> <PUBCHEM_COORDINATE_TYPE>
1
3

$$$$
