310935719
  -OEChem-07211613022D

 36 41  0     0  0  0  0  0  0999 V2000
    2.1434   -7.8375    0.0000 S   0  0  0  0  0  0  0  0  0  0  0  0
    2.5559   -7.1230    0.0000 O   0  0  0  0  0  0  0  0  0  0  0  0
    1.7309   -8.5520    0.0000 O   0  0  0  0  0  0  0  0  0  0  0  0
    0.0000   -4.9500    0.0000 N   0  0  0  0  0  0  0  0  0  0  0  0
    2.8579   -8.2500    0.0000 N   0  0  0  0  0  0  0  0  0  0  0  0
    0.7145   -3.7125    0.0000 N   0  0  0  0  0  0  0  0  0  0  0  0
    0.0000   -2.4750    0.0000 N   0  0  0  0  0  0  0  0  0  0  0  0
   -3.6116   -3.7894    0.0000 N   0  0  0  0  0  0  0  0  0  0  0  0
   -4.1636   -4.4025    0.0000 N   0  0  0  0  0  0  0  0  0  0  0  0
    5.0013   -9.4875    0.0000 N   0  0  0  0  0  0  0  0  0  0  0  0
   -0.7145   -3.7125    0.0000 C   0  0  0  0  0  0  0  0  0  0  0  0
    0.0000   -4.1250    0.0000 C   0  0  0  0  0  0  0  0  0  0  0  0
   -0.7145   -2.8875    0.0000 C   0  0  0  0  0  0  0  0  0  0  0  0
    0.7145   -6.1875    0.0000 C   0  0  0  0  0  0  0  0  0  0  0  0
    1.4289   -7.4250    0.0000 C   0  0  0  0  0  0  0  0  0  0  0  0
    0.0000   -6.6000    0.0000 C   0  0  0  0  0  0  0  0  0  0  0  0
    0.7145   -5.3625    0.0000 C   0  0  0  0  0  0  0  0  0  0  0  0
    1.4289   -6.6000    0.0000 C   0  0  0  0  0  0  0  0  0  0  0  0
   -2.1434   -3.7125    0.0000 C   0  0  0  0  0  0  0  0  0  0  0  0
   -1.4289   -4.1250    0.0000 C   0  0  0  0  0  0  0  0  0  0  0  0
   -1.4289   -2.4750    0.0000 C   0  0  0  0  0  0  0  0  0  0  0  0
   -0.7145   -5.3625    0.0000 C   0  0  0  0  0  0  0  0  0  0  0  0
    0.7145   -7.8375    0.0000 C   0  0  0  0  0  0  0  0  0  0  0  0
   -2.1434   -2.8875    0.0000 C   0  0  0  0  0  0  0  0  0  0  0  0
   -0.7145   -6.1875    0.0000 C   0  0  0  0  0  0  0  0  0  0  0  0
    0.0000   -7.4250    0.0000 C   0  0  0  0  0  0  0  0  0  0  0  0
   -2.8579   -4.1250    0.0000 C   0  0  0  0  0  0  0  0  0  0  0  0
    0.7145   -2.8875    0.0000 C   0  0  0  0  0  0  0  0  0  0  0  0
    3.5724   -7.8375    0.0000 C   0  0  0  0  0  0  0  0  0  0  0  0
    2.8579   -9.0750    0.0000 C   0  0  0  0  0  0  0  0  0  0  0  0
   -1.4289   -1.6500    0.0000 C   0  0  0  0  0  0  0  0  0  0  0  0
   -2.9441   -4.9455    0.0000 C   0  0  0  0  0  0  0  0  0  0  0  0
    4.2868   -8.2500    0.0000 C   0  0  0  0  0  0  0  0  0  0  0  0
    3.5724   -9.4875    0.0000 C   0  0  0  0  0  0  0  0  0  0  0  0
    4.2868   -9.0750    0.0000 C   0  0  0  0  0  0  0  0  0  0  0  0
   -3.7511   -5.1170    0.0000 C   0  0  0  0  0  0  0  0  0  0  0  0
  1  2  2  0  0  0  0
  1  3  2  0  0  0  0
  1  5  1  0  0  0  0
  1 15  1  0  0  0  0
  4 12  1  0  0  0  0
  4 17  1  0  0  0  0
  4 22  1  0  0  0  0
  5 29  1  0  0  0  0
  5 30  1  0  0  0  0
  6 12  2  0  0  0  0
  6 28  1  0  0  0  0
  7 13  1  0  0  0  0
  7 28  2  0  0  0  0
  8  9  1  0  0  0  0
  8 27  1  0  0  0  0
  9 36  2  0  0  0  0
 10 35  1  0  0  0  0
 11 12  1  0  0  0  0
 11 13  1  0  0  0  0
 11 20  2  0  0  0  0
 13 21  2  0  0  0  0
 14 16  2  0  0  0  0
 14 17  1  0  0  0  0
 14 18  1  0  0  0  0
 15 18  2  0  0  0  0
 15 23  1  0  0  0  0
 16 25  1  0  0  0  0
 16 26  1  0  0  0  0
 19 20  1  0  0  0  0
 19 24  2  0  0  0  0
 19 27  1  0  0  0  0
 21 24  1  0  0  0  0
 21 31  1  0  0  0  0
 22 25  1  0  0  0  0
 23 26  2  0  0  0  0
 27 32  2  0  0  0  0
 29 33  1  0  0  0  0
 30 34  1  0  0  0  0
 32 36  1  0  0  0  0
 33 35  1  0  0  0  0
 34 35  1  0  0  0  0
M  END
> <PUBCHEM_COMPOUND_ID_TYPE>
0

> <PUBCHEM_TOTAL_CHARGE>
0

> <PUBCHEM_SUBSTANCE_ID>
310935719

> <PUBCHEM_SUBSTANCE_VERSION>
1

> <PUBCHEM_EXT_DATASOURCE_NAME>
4488

> <PUBCHEM_EXT_DATASOURCE_REGID>
SCHEMBL16113303

> <PUBCHEM_SUBSTANCE_COMMENT>
InChI=1S/C26H29N7O2S/c1-17-12-19(24-4-8-30-31-24)14-23-25(17)28-16-29-26(23)32-9-5-18-2-3-22(13-20(18)15-32)36(34,35)33-10-6-21(27)7-11-33/h2-4,8,12-14,16,21H,5-7,9-11,15,27H2,1H3,(H,30,31)
InChIKey=RNADMFDQAJGOIQ-UHFFFAOYSA-N

> <PUBCHEM_SUBSTANCE_SYNONYM>
SCHEMBL16113303

> <PUBCHEM_XREF_EXT_ID>
SCHEMBL16113303

> <PUBCHEM_EXT_DATASOURCE_URL>
https://www.surechembl.org/

> <PUBCHEM_EXT_SUBSTANCE_URL>
https://www.surechembl.org/chemical/SCHEMBL16113303

> <PUBCHEM_CID_ASSOCIATIONS>
86302004  1

> <PUBCHEM_COORDINATE_TYPE>
1
3

$$$$
