310939000
  -OEChem-07211613022D

 28 32  0     0  0  0  0  0  0999 V2000
    0.0314    8.9762    0.0000 O   0  0  0  0  0  0  0  0  0  0  0  0
    0.1038    7.5943    0.0000 N   0  0  0  0  0  0  0  0  0  0  0  0
   -1.2019    5.0139    0.0000 N   0  0  0  0  0  0  0  0  0  0  0  0
   -1.1157    4.1934    0.0000 N   0  0  0  0  0  0  0  0  0  0  0  0
   -1.8802    6.7693    0.0000 N   0  0  0  0  0  0  0  0  0  0  0  0
    0.1038    4.7364    0.0000 C   0  0  0  0  0  0  0  0  0  0  0  0
    0.9288    4.7364    0.0000 C   0  0  0  0  0  0  0  0  0  0  0  0
   -1.1658    8.0068    0.0000 C   0  0  0  0  0  0  0  0  0  0  0  0
   -0.3811    8.2617    0.0000 C   0  0  0  0  0  0  0  0  0  0  0  0
   -1.1658    7.1818    0.0000 C   0  0  0  0  0  0  0  0  0  0  0  0
    1.3413    5.4508    0.0000 C   0  0  0  0  0  0  0  0  0  0  0  0
   -0.3087    4.0219    0.0000 C   0  0  0  0  0  0  0  0  0  0  0  0
    1.3413    6.8798    0.0000 C   0  0  0  0  0  0  0  0  0  0  0  0
   -0.3811    6.9268    0.0000 C   0  0  0  0  0  0  0  0  0  0  0  0
    0.9288    7.5943    0.0000 C   0  0  0  0  0  0  0  0  0  0  0  0
    0.9288    6.1653    0.0000 C   0  0  0  0  0  0  0  0  0  0  0  0
   -0.4483    5.3495    0.0000 C   0  0  0  0  0  0  0  0  0  0  0  0
    2.1663    6.8798    0.0000 C   0  0  0  0  0  0  0  0  0  0  0  0
    1.3413    4.0219    0.0000 C   0  0  0  0  0  0  0  0  0  0  0  0
    2.1663    5.4508    0.0000 C   0  0  0  0  0  0  0  0  0  0  0  0
   -1.8802    8.4193    0.0000 C   0  0  0  0  0  0  0  0  0  0  0  0
    0.1038    3.3074    0.0000 C   0  0  0  0  0  0  0  0  0  0  0  0
    2.5788    6.1653    0.0000 C   0  0  0  0  0  0  0  0  0  0  0  0
    0.9288    3.3074    0.0000 C   0  0  0  0  0  0  0  0  0  0  0  0
   -2.5947    8.0068    0.0000 C   0  0  0  0  0  0  0  0  0  0  0  0
   -2.5947    7.1818    0.0000 C   0  0  0  0  0  0  0  0  0  0  0  0
    2.5788    7.5943    0.0000 C   0  0  0  0  0  0  0  0  0  0  0  0
   -1.9164    5.4264    0.0000 C   0  0  0  0  0  0  0  0  0  0  0  0
  1  9  2  0  0  0  0
  2  9  1  0  0  0  0
  2 14  1  0  0  0  0
  2 15  1  0  0  0  0
  3  4  1  0  0  0  0
  3 17  1  0  0  0  0
  3 28  1  0  0  0  0
  4 12  2  0  0  0  0
  5 10  2  0  0  0  0
  5 26  1  0  0  0  0
  6  7  1  0  0  0  0
  6 12  1  0  0  0  0
  6 17  2  0  0  0  0
  7 11  1  0  0  0  0
  7 19  2  0  0  0  0
  8  9  1  0  0  0  0
  8 10  1  0  0  0  0
  8 21  2  0  0  0  0
 10 14  1  0  0  0  0
 11 16  1  0  0  0  0
 11 20  2  0  0  0  0
 12 22  1  0  0  0  0
 13 15  1  0  0  0  0
 13 16  2  0  0  0  0
 13 18  1  0  0  0  0
 18 23  2  0  0  0  0
 18 27  1  0  0  0  0
 19 24  1  0  0  0  0
 20 23  1  0  0  0  0
 21 25  1  0  0  0  0
 22 24  2  0  0  0  0
 25 26  2  0  0  0  0
M  END
> <PUBCHEM_COMPOUND_ID_TYPE>
0

> <PUBCHEM_TOTAL_CHARGE>
0

> <PUBCHEM_SUBSTANCE_ID>
310939000

> <PUBCHEM_SUBSTANCE_VERSION>
1

> <PUBCHEM_EXT_DATASOURCE_NAME>
4488

> <PUBCHEM_EXT_DATASOURCE_REGID>
SCHEMBL16116919

> <PUBCHEM_SUBSTANCE_COMMENT>
InChI=1S/C23H20N4O/c1-15-8-9-16(18-5-3-7-21-20(18)13-26(2)25-21)11-17(15)12-27-14-22-19(23(27)28)6-4-10-24-22/h3-11,13H,12,14H2,1-2H3
InChIKey=KAWTZVWCAUZIAI-UHFFFAOYSA-N

> <PUBCHEM_SUBSTANCE_SYNONYM>
SCHEMBL16116919

> <PUBCHEM_XREF_EXT_ID>
SCHEMBL16116919

> <PUBCHEM_EXT_DATASOURCE_URL>
https://www.surechembl.org/

> <PUBCHEM_EXT_SUBSTANCE_URL>
https://www.surechembl.org/chemical/SCHEMBL16116919

> <PUBCHEM_CID_ASSOCIATIONS>
117606384  1

> <PUBCHEM_COORDINATE_TYPE>
1
3

$$$$
