310933199
  -OEChem-07211613022D

 29 32  0     0  0  0  0  0  0999 V2000
    8.5617   -0.3411    0.0000 F   0  0  0  0  0  0  0  0  0  0  0  0
    8.5617   -3.2064    0.0000 F   0  0  0  0  0  0  0  0  0  0  0  0
    6.0716   -0.3411    0.0000 O   0  0  0  0  0  0  0  0  0  0  0  0
    2.6947   -2.7630    0.0000 N   0  0  0  0  0  0  0  0  0  0  0  0
    3.4452   -3.0699    0.0000 N   0  0  0  0  0  0  0  0  0  0  0  0
    4.8096   -1.0233    0.0000 N   0  0  0  0  0  0  0  0  0  0  0  0
    6.0716   -1.7737    0.0000 N   0  0  0  0  0  0  0  0  0  0  0  0
    0.9551   -0.2729    0.0000 N   0  0  0  0  0  0  0  0  0  0  0  0
    7.3337   -1.0574    0.0000 N   0  0  0  0  0  0  0  0  0  0  0  0
    3.5816   -1.7396    0.0000 C   0  0  0  0  0  0  0  0  0  0  0  0
    2.7970   -1.9101    0.0000 C   0  0  0  0  0  0  0  0  0  0  0  0
    4.0250   -2.4900    0.0000 C   0  0  0  0  0  0  0  0  0  0  0  0
    2.1489   -1.3644    0.0000 C   0  0  0  0  0  0  0  0  0  0  0  0
    4.8437   -2.4559    0.0000 C   0  0  0  0  0  0  0  0  0  0  0  0
    4.0250   -1.0233    0.0000 C   0  0  0  0  0  0  0  0  0  0  0  0
    5.2530   -1.7737    0.0000 C   0  0  0  0  0  0  0  0  0  0  0  0
    1.3644   -1.6373    0.0000 C   0  0  0  0  0  0  0  0  0  0  0  0
    2.3536   -0.5799    0.0000 C   0  0  0  0  0  0  0  0  0  0  0  0
    0.7845   -1.0574    0.0000 C   0  0  0  0  0  0  0  0  0  0  0  0
    8.5617   -1.7737    0.0000 C   0  0  0  0  0  0  0  0  0  0  0  0
    6.4809   -1.0574    0.0000 C   0  0  0  0  0  0  0  0  0  0  0  0
    1.7396    0.0000    0.0000 C   0  0  0  0  0  0  0  0  0  0  0  0
    8.9710   -1.0574    0.0000 C   0  0  0  0  0  0  0  0  0  0  0  0
    8.9710   -2.4900    0.0000 C   0  0  0  0  0  0  0  0  0  0  0  0
    7.7430   -1.7737    0.0000 C   0  0  0  0  0  0  0  0  0  0  0  0
    9.7896   -1.0574    0.0000 C   0  0  0  0  0  0  0  0  0  0  0  0
    9.7896   -2.4900    0.0000 C   0  0  0  0  0  0  0  0  0  0  0  0
   10.2331   -1.7737    0.0000 C   0  0  0  0  0  0  0  0  0  0  0  0
    0.0000   -1.2962    0.0000 C   0  0  0  0  0  0  0  0  0  0  0  0
  1 23  1  0  0  0  0
  2 24  1  0  0  0  0
  3 21  2  0  0  0  0
  4  5  1  0  0  0  0
  4 11  2  0  0  0  0
  5 12  1  0  0  0  0
  6 15  1  0  0  0  0
  6 16  2  0  0  0  0
  7 16  1  0  0  0  0
  7 21  1  0  0  0  0
  8 19  1  0  0  0  0
  8 22  2  0  0  0  0
  9 21  1  0  0  0  0
  9 25  1  0  0  0  0
 10 11  1  0  0  0  0
 10 12  1  0  0  0  0
 10 15  2  0  0  0  0
 11 13  1  0  0  0  0
 12 14  2  0  0  0  0
 13 17  1  0  0  0  0
 13 18  2  0  0  0  0
 14 16  1  0  0  0  0
 17 19  2  0  0  0  0
 18 22  1  0  0  0  0
 19 29  1  0  0  0  0
 20 23  1  0  0  0  0
 20 24  2  0  0  0  0
 20 25  1  0  0  0  0
 23 26  2  0  0  0  0
 24 27  1  0  0  0  0
 26 28  1  0  0  0  0
 27 28  2  0  0  0  0
M  END
> <PUBCHEM_COMPOUND_ID_TYPE>
0

> <PUBCHEM_TOTAL_CHARGE>
0

> <PUBCHEM_SUBSTANCE_ID>
310933199

> <PUBCHEM_SUBSTANCE_VERSION>
1

> <PUBCHEM_EXT_DATASOURCE_NAME>
4488

> <PUBCHEM_EXT_DATASOURCE_REGID>
SCHEMBL16110608

> <PUBCHEM_SUBSTANCE_COMMENT>
InChI=1S/C20H16F2N6O/c1-11-7-12(5-6-23-11)19-14-10-24-18(8-17(14)27-28-19)26-20(29)25-9-13-15(21)3-2-4-16(13)22/h2-8,10H,9H2,1H3,(H,27,28)(H2,24,25,26,29)
InChIKey=WSBMLABDHWWVNN-UHFFFAOYSA-N

> <PUBCHEM_SUBSTANCE_SYNONYM>
SCHEMBL16110608

> <PUBCHEM_XREF_EXT_ID>
SCHEMBL16110608

> <PUBCHEM_EXT_DATASOURCE_URL>
https://www.surechembl.org/

> <PUBCHEM_EXT_SUBSTANCE_URL>
https://www.surechembl.org/chemical/SCHEMBL16110608

> <PUBCHEM_CID_ASSOCIATIONS>
71555762  1

> <PUBCHEM_COORDINATE_TYPE>
1
3

$$$$
