310947303
  -OEChem-07211613022D

 34 37  0     0  0  0  0  0  0999 V2000
   -1.8180    2.4894    0.0000 O   0  0  0  0  0  0  0  0  0  0  0  0
    4.3800    0.3419    0.0000 O   0  0  0  0  0  0  0  0  0  0  0  0
    5.8089    0.3419    0.0000 O   0  0  0  0  0  0  0  0  0  0  0  0
   -5.3904    1.2519    0.0000 O   0  0  0  0  0  0  0  0  0  0  0  0
    1.1100    0.1720    0.0000 N   0  0  0  0  0  0  0  0  0  0  0  0
    1.5949    0.8394    0.0000 N   0  0  0  0  0  0  0  0  0  0  0  0
   -2.5325    1.2519    0.0000 N   0  0  0  0  0  0  0  0  0  0  0  0
    0.3254    0.4269    0.0000 C   0  0  0  0  0  0  0  0  0  0  0  0
    0.3254    1.2519    0.0000 C   0  0  0  0  0  0  0  0  0  0  0  0
    1.1100    1.5069    0.0000 C   0  0  0  0  0  0  0  0  0  0  0  0
   -0.3891    1.6644    0.0000 C   0  0  0  0  0  0  0  0  0  0  0  0
   -1.1036    1.2519    0.0000 C   0  0  0  0  0  0  0  0  0  0  0  0
   -0.3891    0.0144    0.0000 C   0  0  0  0  0  0  0  0  0  0  0  0
    1.3235   -0.6249    0.0000 C   0  0  0  0  0  0  0  0  0  0  0  0
   -1.1036    0.4269    0.0000 C   0  0  0  0  0  0  0  0  0  0  0  0
    2.1204   -0.8384    0.0000 C   0  0  0  0  0  0  0  0  0  0  0  0
    3.7142   -1.2655    0.0000 C   0  0  0  0  0  0  0  0  0  0  0  0
    4.5111   -1.4790    0.0000 C   0  0  0  0  0  0  0  0  0  0  0  0
   -1.8180    1.6644    0.0000 C   0  0  0  0  0  0  0  0  0  0  0  0
    5.0944   -0.8956    0.0000 C   0  0  0  0  0  0  0  0  0  0  0  0
    1.5225    2.2213    0.0000 C   0  0  0  0  0  0  0  0  0  0  0  0
    2.3339   -1.6353    0.0000 C   0  0  0  0  0  0  0  0  0  0  0  0
    2.7038   -0.2551    0.0000 C   0  0  0  0  0  0  0  0  0  0  0  0
    3.1308   -1.8488    0.0000 C   0  0  0  0  0  0  0  0  0  0  0  0
    3.5007   -0.4686    0.0000 C   0  0  0  0  0  0  0  0  0  0  0  0
    4.7246   -2.2759    0.0000 C   0  0  0  0  0  0  0  0  0  0  0  0
    5.0944   -0.0706    0.0000 C   0  0  0  0  0  0  0  0  0  0  0  0
    5.8913   -1.1092    0.0000 C   0  0  0  0  0  0  0  0  0  0  0  0
    5.5215   -2.4894    0.0000 C   0  0  0  0  0  0  0  0  0  0  0  0
    6.1049   -1.9061    0.0000 C   0  0  0  0  0  0  0  0  0  0  0  0
   -3.2470    1.6644    0.0000 C   0  0  0  0  0  0  0  0  0  0  0  0
   -3.9614    1.2519    0.0000 C   0  0  0  0  0  0  0  0  0  0  0  0
   -4.6759    1.6644    0.0000 C   0  0  0  0  0  0  0  0  0  0  0  0
   -6.1049    1.6644    0.0000 C   0  0  0  0  0  0  0  0  0  0  0  0
  1 19  2  0  0  0  0
  2 27  2  0  0  0  0
  3 27  1  0  0  0  0
  4 33  1  0  0  0  0
  4 34  1  0  0  0  0
  5  6  1  0  0  0  0
  5  8  1  0  0  0  0
  5 14  1  0  0  0  0
  6 10  2  0  0  0  0
  7 19  1  0  0  0  0
  7 31  1  0  0  0  0
  8  9  1  0  0  0  0
  8 13  2  0  0  0  0
  9 10  1  0  0  0  0
  9 11  2  0  0  0  0
 10 21  1  0  0  0  0
 11 12  1  0  0  0  0
 12 15  2  0  0  0  0
 12 19  1  0  0  0  0
 13 15  1  0  0  0  0
 14 16  1  0  0  0  0
 16 22  2  0  0  0  0
 16 23  1  0  0  0  0
 17 18  1  0  0  0  0
 17 24  2  0  0  0  0
 17 25  1  0  0  0  0
 18 20  1  0  0  0  0
 18 26  2  0  0  0  0
 20 27  1  0  0  0  0
 20 28  2  0  0  0  0
 22 24  1  0  0  0  0
 23 25  2  0  0  0  0
 26 29  1  0  0  0  0
 28 30  1  0  0  0  0
 29 30  2  0  0  0  0
 31 32  1  0  0  0  0
 32 33  1  0  0  0  0
M  END
> <PUBCHEM_COMPOUND_ID_TYPE>
0

> <PUBCHEM_TOTAL_CHARGE>
0

> <PUBCHEM_SUBSTANCE_ID>
310947303

> <PUBCHEM_SUBSTANCE_VERSION>
1

> <PUBCHEM_EXT_DATASOURCE_NAME>
4488

> <PUBCHEM_EXT_DATASOURCE_REGID>
SCHEMBL16125458

> <PUBCHEM_SUBSTANCE_COMMENT>
InChI=1S/C27H27N3O4/c1-18-24-16-21(26(31)28-14-5-15-34-2)12-13-25(24)30(29-18)17-19-8-10-20(11-9-19)22-6-3-4-7-23(22)27(32)33/h3-4,6-13,16H,5,14-15,17H2,1-2H3,(H,28,31)(H,32,33)
InChIKey=ULWAOBGOQCFSRJ-UHFFFAOYSA-N

> <PUBCHEM_SUBSTANCE_SYNONYM>
SCHEMBL16125458

> <PUBCHEM_XREF_EXT_ID>
SCHEMBL16125458

> <PUBCHEM_EXT_DATASOURCE_URL>
https://www.surechembl.org/

> <PUBCHEM_EXT_SUBSTANCE_URL>
https://www.surechembl.org/chemical/SCHEMBL16125458

> <PUBCHEM_CID_ASSOCIATIONS>
117613080  1

> <PUBCHEM_COORDINATE_TYPE>
1
3

$$$$
