310935842
  -OEChem-07211613022D

 28 29  0     0  0  0  0  0  0999 V2000
    1.4122   -1.4122    0.0000 S   0  0  0  0  0  0  0  0  0  0  0  0
    0.0000   -0.5321    0.0000 F   0  0  0  0  0  0  0  0  0  0  0  0
    0.1842   -2.1286    0.0000 F   0  0  0  0  0  0  0  0  0  0  0  0
    0.9824   -0.6958    0.0000 F   0  0  0  0  0  0  0  0  0  0  0  0
    2.0672   -1.2280    0.0000 O   0  0  0  0  0  0  0  0  0  0  0  0
    1.2280   -0.4093    0.0000 O   0  0  0  0  0  0  0  0  0  0  0  0
    1.2485   -2.0672    0.0000 O   0  0  0  0  0  0  0  0  0  0  0  0
    0.8187   -3.3770    0.0000 O   0  0  0  0  0  0  0  0  0  0  0  0
    5.3009   -0.4298    0.0000 O   0  0  0  0  0  0  0  0  0  0  0  0
    1.2280   -1.2280    0.0000 O   0  0  0  0  0  0  0  0  0  0  0  0
    6.0172   -1.6578    0.0000 O   0  0  0  0  0  0  0  0  0  0  0  0
    0.0000   -1.9443    0.0000 O   0  0  0  0  0  0  0  0  0  0  0  0
    3.7045   -2.6607    0.0000 N   0  0  0  0  0  0  0  0  0  0  0  0
    4.5231   -2.4765    0.0000 N   0  0  0  0  0  0  0  0  0  0  0  0
    2.4765   -1.9648    0.0000 C   0  0  0  0  0  0  0  0  0  0  0  0
    3.2951   -1.9648    0.0000 C   0  0  0  0  0  0  0  0  0  0  0  0
    2.0672   -2.6607    0.0000 C   0  0  0  0  0  0  0  0  0  0  0  0
    2.4765   -3.3770    0.0000 C   0  0  0  0  0  0  0  0  0  0  0  0
    0.4298   -1.2485    0.0000 C   0  0  0  0  0  0  0  0  0  0  0  0
    3.8477   -1.3303    0.0000 C   0  0  0  0  0  0  0  0  0  0  0  0
    3.2951   -3.3770    0.0000 C   0  0  0  0  0  0  0  0  0  0  0  0
    4.6050   -1.6578    0.0000 C   0  0  0  0  0  0  0  0  0  0  0  0
    1.2485   -2.6607    0.0000 C   0  0  0  0  0  0  0  0  0  0  0  0
    5.3213   -1.2485    0.0000 C   0  0  0  0  0  0  0  0  0  0  0  0
    0.8187   -1.9443    0.0000 C   0  0  0  0  0  0  0  0  0  0  0  0
    2.0672   -4.0933    0.0000 C   0  0  0  0  0  0  0  0  0  0  0  0
    6.0172    0.0000    0.0000 C   0  0  0  0  0  0  0  0  0  0  0  0
    0.8187   -0.5117    0.0000 C   0  0  0  0  0  0  0  0  0  0  0  0
  1  5  1  0  0  0  0
  1  6  2  0  0  0  0
  1  7  2  0  0  0  0
  1 19  1  0  0  0  0
  2 19  1  0  0  0  0
  3 19  1  0  0  0  0
  4 19  1  0  0  0  0
  5 15  1  0  0  0  0
  8 23  2  0  0  0  0
  9 24  1  0  0  0  0
  9 27  1  0  0  0  0
 10 25  1  0  0  0  0
 10 28  1  0  0  0  0
 11 24  2  0  0  0  0
 12 25  2  0  0  0  0
 13 14  1  0  0  0  0
 13 16  1  0  0  0  0
 13 21  1  0  0  0  0
 14 22  2  0  0  0  0
 15 16  1  0  0  0  0
 15 17  2  0  0  0  0
 16 20  2  0  0  0  0
 17 18  1  0  0  0  0
 17 23  1  0  0  0  0
 18 21  2  0  0  0  0
 18 26  1  0  0  0  0
 20 22  1  0  0  0  0
 22 24  1  0  0  0  0
 23 25  1  0  0  0  0
M  END
> <PUBCHEM_COMPOUND_ID_TYPE>
0

> <PUBCHEM_TOTAL_CHARGE>
0

> <PUBCHEM_SUBSTANCE_ID>
310935842

> <PUBCHEM_SUBSTANCE_VERSION>
1

> <PUBCHEM_EXT_DATASOURCE_NAME>
4488

> <PUBCHEM_EXT_DATASOURCE_REGID>
SCHEMBL16113434

> <PUBCHEM_SUBSTANCE_COMMENT>
InChI=1S/C14H11F3N2O8S/c1-6-5-19-8(4-7(18-19)12(21)25-2)11(9(6)10(20)13(22)26-3)27-28(23,24)14(15,16)17/h4-5H,1-3H3
InChIKey=YRWYTYVWVPILAD-UHFFFAOYSA-N

> <PUBCHEM_SUBSTANCE_SYNONYM>
SCHEMBL16113434

> <PUBCHEM_XREF_EXT_ID>
SCHEMBL16113434

> <PUBCHEM_EXT_DATASOURCE_URL>
https://www.surechembl.org/

> <PUBCHEM_EXT_SUBSTANCE_URL>
https://www.surechembl.org/chemical/SCHEMBL16113434

> <PUBCHEM_CID_ASSOCIATIONS>
117603831  1

> <PUBCHEM_COORDINATE_TYPE>
1
3

$$$$
