310943302
  -OEChem-07211613022D

 35 38  0     0  0  0  0  0  0999 V2000
    4.2500   -1.5468    0.0000 F   0  0  0  0  0  0  0  0  0  0  0  0
    5.0749   -1.5468    0.0000 F   0  0  0  0  0  0  0  0  0  0  0  0
    5.3696   -0.4125    0.0000 F   0  0  0  0  0  0  0  0  0  0  0  0
   -3.9406   -0.8397    0.0000 O   0  0  0  0  0  0  0  0  0  0  0  0
    3.9406   -0.4125    0.0000 O   0  0  0  0  0  0  0  0  0  0  0  0
   -5.3696    1.6351    0.0000 O   0  0  0  0  0  0  0  0  0  0  0  0
    0.3609   -0.8250    0.0000 O   0  0  0  0  0  0  0  0  0  0  0  0
   -2.5116   -0.8250    0.0000 N   0  0  0  0  0  0  0  0  0  0  0  0
   -3.9406    0.8250    0.0000 N   0  0  0  0  0  0  0  0  0  0  0  0
    1.0680    0.4125    0.0000 N   0  0  0  0  0  0  0  0  0  0  0  0
   -1.7898    0.4125    0.0000 C   0  0  0  0  0  0  0  0  0  0  0  0
   -3.2189    0.4125    0.0000 C   0  0  0  0  0  0  0  0  0  0  0  0
   -1.0680    0.8250    0.0000 C   0  0  0  0  0  0  0  0  0  0  0  0
   -3.2189   -0.3977    0.0000 C   0  0  0  0  0  0  0  0  0  0  0  0
   -2.4970    0.8250    0.0000 C   0  0  0  0  0  0  0  0  0  0  0  0
   -1.8046   -0.4272    0.0000 C   0  0  0  0  0  0  0  0  0  0  0  0
   -1.0680    1.6498    0.0000 C   0  0  0  0  0  0  0  0  0  0  0  0
   -0.3609    0.4125    0.0000 C   0  0  0  0  0  0  0  0  0  0  0  0
    0.3462    0.8397    0.0000 C   0  0  0  0  0  0  0  0  0  0  0  0
   -0.3609    2.0477    0.0000 C   0  0  0  0  0  0  0  0  0  0  0  0
    0.3462    1.6498    0.0000 C   0  0  0  0  0  0  0  0  0  0  0  0
    1.0828   -0.3977    0.0000 C   0  0  0  0  0  0  0  0  0  0  0  0
    1.7898   -0.8250    0.0000 C   0  0  0  0  0  0  0  0  0  0  0  0
   -3.9406    1.6351    0.0000 C   0  0  0  0  0  0  0  0  0  0  0  0
   -4.6477    0.4125    0.0000 C   0  0  0  0  0  0  0  0  0  0  0  0
    3.2336   -0.8250    0.0000 C   0  0  0  0  0  0  0  0  0  0  0  0
    2.4970   -0.4272    0.0000 C   0  0  0  0  0  0  0  0  0  0  0  0
   -2.4970   -1.6646    0.0000 C   0  0  0  0  0  0  0  0  0  0  0  0
   -1.8046    2.0477    0.0000 C   0  0  0  0  0  0  0  0  0  0  0  0
    1.7898   -1.6498    0.0000 C   0  0  0  0  0  0  0  0  0  0  0  0
   -4.6477    2.0624    0.0000 C   0  0  0  0  0  0  0  0  0  0  0  0
   -5.3696    0.8250    0.0000 C   0  0  0  0  0  0  0  0  0  0  0  0
    3.2189   -1.6498    0.0000 C   0  0  0  0  0  0  0  0  0  0  0  0
    4.6625   -0.8397    0.0000 C   0  0  0  0  0  0  0  0  0  0  0  0
    2.5116   -2.0624    0.0000 C   0  0  0  0  0  0  0  0  0  0  0  0
  1 34  1  0  0  0  0
  2 34  1  0  0  0  0
  3 34  1  0  0  0  0
  4 14  2  0  0  0  0
  5 26  1  0  0  0  0
  5 34  1  0  0  0  0
  6 31  1  0  0  0  0
  6 32  1  0  0  0  0
  7 22  2  0  0  0  0
  8 14  1  0  0  0  0
  8 16  1  0  0  0  0
  8 28  1  0  0  0  0
  9 12  1  0  0  0  0
  9 24  1  0  0  0  0
  9 25  1  0  0  0  0
 10 19  1  0  0  0  0
 10 22  1  0  0  0  0
 11 13  1  0  0  0  0
 11 15  1  0  0  0  0
 11 16  2  0  0  0  0
 12 14  1  0  0  0  0
 12 15  2  0  0  0  0
 13 17  2  0  0  0  0
 13 18  1  0  0  0  0
 17 20  1  0  0  0  0
 17 29  1  0  0  0  0
 18 19  2  0  0  0  0
 19 21  1  0  0  0  0
 20 21  2  0  0  0  0
 22 23  1  0  0  0  0
 23 27  1  0  0  0  0
 23 30  2  0  0  0  0
 24 31  1  0  0  0  0
 25 32  1  0  0  0  0
 26 27  2  0  0  0  0
 26 33  1  0  0  0  0
 30 35  1  0  0  0  0
 33 35  2  0  0  0  0
M  END
> <PUBCHEM_COMPOUND_ID_TYPE>
0

> <PUBCHEM_TOTAL_CHARGE>
0

> <PUBCHEM_SUBSTANCE_ID>
310943302

> <PUBCHEM_SUBSTANCE_VERSION>
1

> <PUBCHEM_EXT_DATASOURCE_NAME>
4488

> <PUBCHEM_EXT_DATASOURCE_REGID>
SCHEMBL16121364

> <PUBCHEM_SUBSTANCE_COMMENT>
InChI=1S/C25H24F3N3O4/c1-16-6-7-19(29-23(32)17-4-3-5-20(12-17)35-25(26,27)28)14-21(16)18-13-22(24(33)30(2)15-18)31-8-10-34-11-9-31/h3-7,12-15H,8-11H2,1-2H3,(H,29,32)
InChIKey=DYYPIZADEMWONV-UHFFFAOYSA-N

> <PUBCHEM_SUBSTANCE_SYNONYM>
SCHEMBL16121364

> <PUBCHEM_XREF_EXT_ID>
SCHEMBL16121364

> <PUBCHEM_EXT_DATASOURCE_URL>
https://www.surechembl.org/

> <PUBCHEM_EXT_SUBSTANCE_URL>
https://www.surechembl.org/chemical/SCHEMBL16121364

> <PUBCHEM_CID_ASSOCIATIONS>
117609727  1

> <PUBCHEM_COORDINATE_TYPE>
1
3

$$$$
