310935807
  -OEChem-07211613022D

 14 15  0     0  0  0  0  0  0999 V2000
    2.4840   -2.9052    0.0000 O   0  0  0  0  0  0  0  0  0  0  0  0
    2.4840   -1.4817    0.0000 O   0  0  0  0  0  0  0  0  0  0  0  0
    1.2492   -2.1934    0.0000 C   0  0  0  0  0  0  0  0  0  0  0  0
    1.6269   -1.4671    0.0000 C   0  0  0  0  0  0  0  0  0  0  0  0
    2.0772   -2.1934    0.0000 C   0  0  0  0  0  0  0  0  0  0  0  0
    0.7844   -2.8616    0.0000 C   0  0  0  0  0  0  0  0  0  0  0  0
    0.7844   -1.5253    0.0000 C   0  0  0  0  0  0  0  0  0  0  0  0
    1.1911   -0.7698    0.0000 C   0  0  0  0  0  0  0  0  0  0  0  0
    2.6147   -1.5834    0.0000 C   0  0  0  0  0  0  0  0  0  0  0  0
    0.0000   -2.6002    0.0000 C   0  0  0  0  0  0  0  0  0  0  0  0
    0.0000   -1.7867    0.0000 C   0  0  0  0  0  0  0  0  0  0  0  0
    1.5543   -0.0291    0.0000 C   0  0  0  0  0  0  0  0  0  0  0  0
    2.8181   -0.6827    0.0000 C   0  0  0  0  0  0  0  0  0  0  0  0
    2.3823    0.0000    0.0000 C   0  0  0  0  0  0  0  0  0  0  0  0
  1  5  2  0  0  0  0
  2  5  1  0  0  0  0
  3  4  1  0  0  0  0
  3  5  1  0  0  0  0
  3  6  1  0  0  0  0
  3  7  1  0  0  0  0
  4  8  2  0  0  0  0
  4  9  1  0  0  0  0
  6 10  1  0  0  0  0
  7 11  1  0  0  0  0
  8 12  1  0  0  0  0
  9 13  2  0  0  0  0
 10 11  2  0  0  0  0
 12 14  2  0  0  0  0
 13 14  1  0  0  0  0
M  END
> <PUBCHEM_COMPOUND_ID_TYPE>
0

> <PUBCHEM_TOTAL_CHARGE>
0

> <PUBCHEM_SUBSTANCE_ID>
310935807

> <PUBCHEM_SUBSTANCE_VERSION>
1

> <PUBCHEM_EXT_DATASOURCE_NAME>
4488

> <PUBCHEM_EXT_DATASOURCE_REGID>
SCHEMBL16113395

> <PUBCHEM_SUBSTANCE_COMMENT>
InChI=1S/C12H12O2/c13-11(14)12(8-4-5-9-12)10-6-2-1-3-7-10/h1-7H,8-9H2,(H,13,14)
InChIKey=IDXUGMAYUHNDQD-UHFFFAOYSA-N

> <PUBCHEM_SUBSTANCE_SYNONYM>
SCHEMBL16113395

> <PUBCHEM_XREF_EXT_ID>
SCHEMBL16113395

> <PUBCHEM_EXT_DATASOURCE_URL>
https://www.surechembl.org/

> <PUBCHEM_EXT_SUBSTANCE_URL>
https://www.surechembl.org/chemical/SCHEMBL16113395

> <PUBCHEM_CID_ASSOCIATIONS>
65353290  1

> <PUBCHEM_COORDINATE_TYPE>
1
3

$$$$
