310937255
  -OEChem-07211613022D

 19 20  0     0  0  0  0  0  0999 V2000
    3.7430   -2.8792    0.0000 Cl  0  0  0  0  0  0  0  0  0  0  0  0
    3.7142    0.0000    0.0000 Cl  0  0  0  0  0  0  0  0  0  0  0  0
    0.8638   -2.1882    0.0000 O   0  0  0  0  0  0  0  0  0  0  0  0
    0.0000   -3.5991    0.0000 O   0  0  0  0  0  0  0  0  0  0  0  0
    0.8062   -3.5991    0.0000 N   0  0  0  0  0  0  0  0  0  0  0  0
    2.5050   -3.5991    0.0000 N   0  0  0  0  0  0  0  0  0  0  0  0
    2.0731   -4.3189    0.0000 N   0  0  0  0  0  0  0  0  0  0  0  0
    2.0731   -2.9080    0.0000 C   0  0  0  0  0  0  0  0  0  0  0  0
    1.2668   -2.9080    0.0000 C   0  0  0  0  0  0  0  0  0  0  0  0
    2.4762   -2.1882    0.0000 C   0  0  0  0  0  0  0  0  0  0  0  0
    1.2668   -4.3189    0.0000 C   0  0  0  0  0  0  0  0  0  0  0  0
    3.3111   -2.1594    0.0000 C   0  0  0  0  0  0  0  0  0  0  0  0
    2.0443   -1.4397    0.0000 C   0  0  0  0  0  0  0  0  0  0  0  0
    0.8638   -5.0387    0.0000 C   0  0  0  0  0  0  0  0  0  0  0  0
    3.7142   -1.4397    0.0000 C   0  0  0  0  0  0  0  0  0  0  0  0
    3.2823   -0.7198    0.0000 C   0  0  0  0  0  0  0  0  0  0  0  0
    2.4762   -0.7198    0.0000 C   0  0  0  0  0  0  0  0  0  0  0  0
    1.2668   -5.7585    0.0000 C   0  0  0  0  0  0  0  0  0  0  0  0
    0.0288   -5.0675    0.0000 C   0  0  0  0  0  0  0  0  0  0  0  0
  1 12  1  0  0  0  0
  2 16  1  0  0  0  0
  3  9  2  0  0  0  0
  4  5  1  0  0  0  0
  5  9  1  0  0  0  0
  5 11  1  0  0  0  0
  6  7  1  0  0  0  0
  6  8  2  0  0  0  0
  7 11  2  0  0  0  0
  8  9  1  0  0  0  0
  8 10  1  0  0  0  0
 10 12  1  0  0  0  0
 10 13  2  0  0  0  0
 11 14  1  0  0  0  0
 12 15  2  0  0  0  0
 13 17  1  0  0  0  0
 14 18  1  0  0  0  0
 14 19  1  0  0  0  0
 15 16  1  0  0  0  0
 16 17  2  0  0  0  0
M  END
> <PUBCHEM_COMPOUND_ID_TYPE>
0

> <PUBCHEM_TOTAL_CHARGE>
0

> <PUBCHEM_SUBSTANCE_ID>
310937255

> <PUBCHEM_SUBSTANCE_VERSION>
1

> <PUBCHEM_EXT_DATASOURCE_NAME>
4488

> <PUBCHEM_EXT_DATASOURCE_REGID>
SCHEMBL16114994

> <PUBCHEM_SUBSTANCE_COMMENT>
InChI=1S/C12H11Cl2N3O2/c1-6(2)11-16-15-10(12(18)17(11)19)8-4-3-7(13)5-9(8)14/h3-6,19H,1-2H3
InChIKey=UPVNRUMZNRPTOK-UHFFFAOYSA-N

> <PUBCHEM_SUBSTANCE_SYNONYM>
SCHEMBL16114994

> <PUBCHEM_XREF_EXT_ID>
SCHEMBL16114994

> <PUBCHEM_EXT_DATASOURCE_URL>
https://www.surechembl.org/

> <PUBCHEM_EXT_SUBSTANCE_URL>
https://www.surechembl.org/chemical/SCHEMBL16114994

> <PUBCHEM_CID_ASSOCIATIONS>
117605052  1

> <PUBCHEM_COORDINATE_TYPE>
1
3

$$$$
