310944107
  -OEChem-07211613022D

 32 36  0     1  0  0  0  0  0999 V2000
    2.4844   -0.0996    0.0000 O   0  0  0  0  0  0  0  0  0  0  0  0
    5.0075   -1.6600    0.0000 O   0  0  0  0  0  0  0  0  0  0  0  0
    5.4834   -0.2656    0.0000 O   0  0  0  0  0  0  0  0  0  0  0  0
   -1.3003   -1.2394    0.0000 O   0  0  0  0  0  0  0  0  0  0  0  0
    2.8718   -1.5161    0.0000 N   0  0  0  0  0  0  0  0  0  0  0  0
    0.1272   -0.4094    0.0000 N   0  0  0  0  0  0  0  0  0  0  0  0
   -4.1665    1.2283    0.0000 N   0  0  0  0  0  0  0  0  0  0  0  0
   -2.7389    1.2283    0.0000 N   0  0  0  0  0  0  0  0  0  0  0  0
   -4.2550    2.0473    0.0000 N   0  0  0  0  0  0  0  0  0  0  0  0
   -5.0629    2.2243    0.0000 N   0  0  0  0  0  0  0  0  0  0  0  0
   -5.4834    1.5050    0.0000 N   0  0  0  0  0  0  0  0  0  0  0  0
    1.5548   -1.2283    0.0000 C   0  0  0  0  0  0  0  0  0  0  0  0
    2.2963   -0.9185    0.0000 C   0  0  0  0  0  0  0  0  0  0  0  0
    3.7017   -1.4276    0.0000 C   0  0  0  0  0  0  0  0  0  0  0  0
    1.6544   -2.0473    0.0000 C   0  0  0  0  0  0  0  0  0  0  0  0
    2.4622   -2.2243    0.0000 C   0  0  0  0  0  0  0  0  0  0  0  0
    0.8577   -1.6378    0.0000 C   0  0  0  0  0  0  0  0  0  0  0  0
    1.5659   -0.4094    0.0000 C   0  0  0  0  0  0  0  0  0  0  0  0
    4.0779   -0.6861    0.0000 C   0  0  0  0  0  0  0  0  0  0  0  0
    4.2882   -2.0141    0.0000 C   0  0  0  0  0  0  0  0  0  0  0  0
    4.8748   -0.8521    0.0000 C   0  0  0  0  0  0  0  0  0  0  0  0
    0.1272   -1.2283    0.0000 C   0  0  0  0  0  0  0  0  0  0  0  0
    0.8355    0.0000    0.0000 C   0  0  0  0  0  0  0  0  0  0  0  0
   -0.5920    0.0000    0.0000 C   0  0  0  0  0  0  0  0  0  0  0  0
   -1.2782   -0.3984    0.0000 C   0  0  3  0  0  0  0  0  0  0  0  0
    3.7017    0.0553    0.0000 C   0  0  0  0  0  0  0  0  0  0  0  0
   -2.0196    0.0111    0.0000 C   0  0  0  0  0  0  0  0  0  0  0  0
   -3.4471    0.8300    0.0000 C   0  0  0  0  0  0  0  0  0  0  0  0
   -2.0196    0.8300    0.0000 C   0  0  0  0  0  0  0  0  0  0  0  0
   -2.7279   -0.4094    0.0000 C   0  0  0  0  0  0  0  0  0  0  0  0
   -3.4471    0.0111    0.0000 C   0  0  0  0  0  0  0  0  0  0  0  0
   -4.9080    0.9074    0.0000 C   0  0  0  0  0  0  0  0  0  0  0  0
  1 13  2  0  0  0  0
  2 20  1  0  0  0  0
  2 21  1  0  0  0  0
  3 21  2  0  0  0  0
 25  4  1  6  0  0  0
  5 13  1  0  0  0  0
  5 14  1  0  0  0  0
  5 16  1  0  0  0  0
  6 22  1  0  0  0  0
  6 23  1  0  0  0  0
  6 24  1  0  0  0  0
  7  9  1  0  0  0  0
  7 28  1  0  0  0  0
  7 32  1  0  0  0  0
  8 28  2  0  0  0  0
  8 29  1  0  0  0  0
  9 10  2  0  0  0  0
 10 11  1  0  0  0  0
 11 32  2  0  0  0  0
 12 13  1  0  0  0  0
 12 15  1  0  0  0  0
 12 17  1  0  0  0  0
 12 18  1  0  0  0  0
 14 19  2  0  0  0  0
 14 20  1  0  0  0  0
 15 16  2  0  0  0  0
 17 22  1  0  0  0  0
 18 23  1  0  0  0  0
 19 21  1  0  0  0  0
 19 26  1  0  0  0  0
 24 25  1  0  0  0  0
 25 27  1  0  0  0  0
 27 29  2  0  0  0  0
 27 30  1  0  0  0  0
 28 31  1  0  0  0  0
 30 31  2  0  0  0  0
M  END
> <PUBCHEM_COMPOUND_ID_TYPE>
0

> <PUBCHEM_TOTAL_CHARGE>
0

> <PUBCHEM_SUBSTANCE_ID>
310944107

> <PUBCHEM_SUBSTANCE_VERSION>
1

> <PUBCHEM_EXT_DATASOURCE_NAME>
4488

> <PUBCHEM_EXT_DATASOURCE_REGID>
SCHEMBL16122182

> <PUBCHEM_SUBSTANCE_COMMENT>
InChI=1S/C21H23N7O4/c1-14-16(12-32-19(14)30)27-9-6-21(20(27)31)4-7-26(8-5-21)11-17(29)15-2-3-18(22-10-15)28-13-23-24-25-28/h2-3,6,9-10,13,17,29H,4-5,7-8,11-12H2,1H3/t17-/m0/s1
InChIKey=MISZDVGWYBWDBE-KRWDZBQOSA-N

> <PUBCHEM_SUBSTANCE_SYNONYM>
SCHEMBL16122182

> <PUBCHEM_XREF_EXT_ID>
SCHEMBL16122182

> <PUBCHEM_EXT_DATASOURCE_URL>
https://www.surechembl.org/

> <PUBCHEM_EXT_SUBSTANCE_URL>
https://www.surechembl.org/chemical/SCHEMBL16122182

> <PUBCHEM_CID_ASSOCIATIONS>
117610392  1

> <PUBCHEM_COORDINATE_TYPE>
1
3

> <PUBCHEM_BONDANNOTATIONS>
25  4  6

$$$$
