310940715
  -OEChem-07211613022D

 35 39  0     1  0  0  0  0  0999 V2000
   -1.0459    1.5763    0.0000 Br  0  0  0  0  0  0  0  0  0  0  0  0
    2.4602    2.4307    0.0000 F   0  0  0  0  0  0  0  0  0  0  0  0
   -1.1638    0.1915    0.0000 O   0  0  0  0  0  0  0  0  0  0  0  0
    2.2687   -2.0772    0.0000 O   0  0  0  0  0  0  0  0  0  0  0  0
    3.5062   -2.7843    0.0000 O   0  0  0  0  0  0  0  0  0  0  0  0
    1.7678    0.0442    0.0000 N   0  0  0  0  0  0  0  0  0  0  0  0
    1.7678   -1.2964    0.0000 N   0  0  0  0  0  0  0  0  0  0  0  0
   -3.3588   -0.1326    0.0000 N   0  0  0  0  0  0  0  0  0  0  0  0
   -3.9187    0.4862    0.0000 N   0  0  0  0  0  0  0  0  0  0  0  0
    2.2392   -0.6188    0.0000 C   0  0  0  0  0  0  0  0  0  0  0  0
    0.9870   -0.2063    0.0000 C   0  0  0  0  0  0  0  0  0  0  0  0
    0.9870   -1.0313    0.0000 C   0  0  0  0  0  0  0  0  0  0  0  0
    3.1084   -0.6334    0.0000 C   0  0  3  0  0  0  0  0  0  0  0  0
    2.0330    0.8250    0.0000 C   0  0  0  0  0  0  0  0  0  0  0  0
    0.2799    0.1915    0.0000 C   0  0  0  0  0  0  0  0  0  0  0  0
    3.5209   -1.3111    0.0000 C   0  0  3  0  0  0  0  0  0  0  0  0
    0.2799   -1.4437    0.0000 C   0  0  0  0  0  0  0  0  0  0  0  0
   -0.4420   -0.2063    0.0000 C   0  0  0  0  0  0  0  0  0  0  0  0
    1.4437    1.4290    0.0000 C   0  0  0  0  0  0  0  0  0  0  0  0
    3.5062    0.0884    0.0000 C   0  0  0  0  0  0  0  0  0  0  0  0
   -0.4420   -1.0313    0.0000 C   0  0  0  0  0  0  0  0  0  0  0  0
    3.0937   -2.0624    0.0000 C   0  0  0  0  0  0  0  0  0  0  0  0
    1.6647    2.2245    0.0000 C   0  0  0  0  0  0  0  0  0  0  0  0
    4.3311   -1.3406    0.0000 C   0  0  0  0  0  0  0  0  0  0  0  0
    0.6482    1.2227    0.0000 C   0  0  0  0  0  0  0  0  0  0  0  0
    4.3311    0.0884    0.0000 C   0  0  0  0  0  0  0  0  0  0  0  0
    4.7436   -0.6188    0.0000 C   0  0  0  0  0  0  0  0  0  0  0  0
    0.0589    1.7973    0.0000 C   0  0  0  0  0  0  0  0  0  0  0  0
    1.0902    2.7843    0.0000 C   0  0  0  0  0  0  0  0  0  0  0  0
   -1.8709   -0.2063    0.0000 C   0  0  0  0  0  0  0  0  0  0  0  0
    0.2799    2.5928    0.0000 C   0  0  0  0  0  0  0  0  0  0  0  0
   -2.6075    0.2209    0.0000 C   0  0  0  0  0  0  0  0  0  0  0  0
   -2.6812    1.0313    0.0000 C   0  0  0  0  0  0  0  0  0  0  0  0
   -3.4914    1.1933    0.0000 C   0  0  0  0  0  0  0  0  0  0  0  0
   -4.7436    0.3830    0.0000 C   0  0  0  0  0  0  0  0  0  0  0  0
  1 28  1  0  0  0  0
  2 23  1  0  0  0  0
  3 18  1  0  0  0  0
  3 30  1  0  0  0  0
  4 22  2  0  0  0  0
  5 22  1  0  0  0  0
  6 10  1  0  0  0  0
  6 11  1  0  0  0  0
  6 14  1  0  0  0  0
  7 10  2  0  0  0  0
  7 12  1  0  0  0  0
  8  9  1  0  0  0  0
  8 32  2  0  0  0  0
  9 34  1  0  0  0  0
  9 35  1  0  0  0  0
 13 10  1  1  0  0  0
 11 12  1  0  0  0  0
 11 15  2  0  0  0  0
 12 17  2  0  0  0  0
 13 16  1  0  0  0  0
 13 20  1  0  0  0  0
 14 19  1  0  0  0  0
 15 18  1  0  0  0  0
 16 22  1  1  0  0  0
 16 24  1  0  0  0  0
 17 21  1  0  0  0  0
 18 21  2  0  0  0  0
 19 23  1  0  0  0  0
 19 25  2  0  0  0  0
 20 26  1  0  0  0  0
 23 29  2  0  0  0  0
 24 27  1  0  0  0  0
 25 28  1  0  0  0  0
 26 27  1  0  0  0  0
 28 31  2  0  0  0  0
 29 31  1  0  0  0  0
 30 32  1  0  0  0  0
 32 33  1  0  0  0  0
 33 34  2  0  0  0  0
M  END
> <PUBCHEM_COMPOUND_ID_TYPE>
0

> <PUBCHEM_TOTAL_CHARGE>
0

> <PUBCHEM_SUBSTANCE_ID>
310940715

> <PUBCHEM_SUBSTANCE_VERSION>
1

> <PUBCHEM_EXT_DATASOURCE_NAME>
4488

> <PUBCHEM_EXT_DATASOURCE_REGID>
SCHEMBL16118671

> <PUBCHEM_SUBSTANCE_COMMENT>
InChI=1S/C26H26BrFN4O3/c1-31-11-10-18(30-31)15-35-19-7-9-23-24(13-19)32(14-16-12-17(27)6-8-22(16)28)25(29-23)20-4-2-3-5-21(20)26(33)34/h6-13,20-21H,2-5,14-15H2,1H3,(H,33,34)/t20-,21+/m0/s1
InChIKey=FHHQNFHIHXWJSK-LEWJYISDSA-N

> <PUBCHEM_SUBSTANCE_SYNONYM>
SCHEMBL16118671

> <PUBCHEM_XREF_EXT_ID>
SCHEMBL16118671

> <PUBCHEM_EXT_DATASOURCE_URL>
https://www.surechembl.org/

> <PUBCHEM_EXT_SUBSTANCE_URL>
https://www.surechembl.org/chemical/SCHEMBL16118671

> <PUBCHEM_CID_ASSOCIATIONS>
117607672  1

> <PUBCHEM_COORDINATE_TYPE>
1
3

> <PUBCHEM_BONDANNOTATIONS>
13  10  5
16  22  5

$$$$
