310937089
  -OEChem-07211613022D

 25 27  0     0  0  0  0  0  0999 V2000
    6.2182   -4.3332    0.0000 F   0  0  0  0  0  0  0  0  0  0  0  0
    3.7266   -4.3332    0.0000 O   0  0  0  0  0  0  0  0  0  0  0  0
    6.2398   -1.4733    0.0000 O   0  0  0  0  0  0  0  0  0  0  0  0
    1.2783   -1.4733    0.0000 N   0  0  0  0  0  0  0  0  0  0  0  0
    2.5133   -3.6182    0.0000 N   0  0  0  0  0  0  0  0  0  0  0  0
    0.7800   -2.1233    0.0000 N   0  0  0  0  0  0  0  0  0  0  0  0
    0.0217   -1.0400    0.0000 N   0  0  0  0  0  0  0  0  0  0  0  0
    0.0000   -1.8633    0.0000 N   0  0  0  0  0  0  0  0  0  0  0  0
    3.7482   -2.9033    0.0000 C   0  0  0  0  0  0  0  0  0  0  0  0
    4.5715   -2.9033    0.0000 C   0  0  0  0  0  0  0  0  0  0  0  0
    3.3149   -3.6182    0.0000 C   0  0  0  0  0  0  0  0  0  0  0  0
    2.5133   -2.1883    0.0000 C   0  0  0  0  0  0  0  0  0  0  0  0
    3.3149   -2.1883    0.0000 C   0  0  0  0  0  0  0  0  0  0  0  0
    5.0049   -2.1883    0.0000 C   0  0  0  0  0  0  0  0  0  0  0  0
    5.1565   -3.7699    0.0000 C   0  0  0  0  0  0  0  0  0  0  0  0
    2.1016   -1.4733    0.0000 C   0  0  0  0  0  0  0  0  0  0  0  0
    2.0583   -2.9033    0.0000 C   0  0  0  0  0  0  0  0  0  0  0  0
    5.8065   -2.1883    0.0000 C   0  0  0  0  0  0  0  0  0  0  0  0
    5.8065   -3.6182    0.0000 C   0  0  0  0  0  0  0  0  0  0  0  0
    0.8017   -0.7800    0.0000 C   0  0  0  0  0  0  0  0  0  0  0  0
    6.2182   -2.9033    0.0000 C   0  0  0  0  0  0  0  0  0  0  0  0
    4.5282   -4.3332    0.0000 C   0  0  0  0  0  0  0  0  0  0  0  0
    1.0616    0.0000    0.0000 C   0  0  0  0  0  0  0  0  0  0  0  0
    5.8065   -0.7366    0.0000 C   0  0  0  0  0  0  0  0  0  0  0  0
    4.9615   -3.6182    0.0000 C   0  0  0  0  0  0  0  0  0  0  0  0
  1 19  1  0  0  0  0
  2 11  1  0  0  0  0
  2 22  1  0  0  0  0
  3 18  1  0  0  0  0
  3 24  1  0  0  0  0
  4  6  1  0  0  0  0
  4 16  1  0  0  0  0
  4 20  1  0  0  0  0
  5 11  1  0  0  0  0
  5 17  2  0  0  0  0
  6  8  2  0  0  0  0
  7  8  1  0  0  0  0
  7 20  2  0  0  0  0
  9 10  1  0  0  0  0
  9 11  2  0  0  0  0
  9 13  1  0  0  0  0
 10 14  2  0  0  0  0
 10 15  1  0  0  0  0
 12 13  2  0  0  0  0
 12 16  1  0  0  0  0
 12 17  1  0  0  0  0
 14 18  1  0  0  0  0
 15 19  2  0  0  0  0
 18 21  2  0  0  0  0
 19 21  1  0  0  0  0
 20 23  1  0  0  0  0
 22 25  1  0  0  0  0
M  END
> <PUBCHEM_COMPOUND_ID_TYPE>
0

> <PUBCHEM_TOTAL_CHARGE>
0

> <PUBCHEM_SUBSTANCE_ID>
310937089

> <PUBCHEM_SUBSTANCE_VERSION>
1

> <PUBCHEM_EXT_DATASOURCE_NAME>
4488

> <PUBCHEM_EXT_DATASOURCE_REGID>
SCHEMBL16114803

> <PUBCHEM_SUBSTANCE_COMMENT>
InChI=1S/C17H18FN5O2/c1-4-25-17-16(13-6-14(18)8-15(7-13)24-3)5-12(9-19-17)10-23-11(2)20-21-22-23/h5-9H,4,10H2,1-3H3
InChIKey=LKCNYNPGFSXCPZ-UHFFFAOYSA-N

> <PUBCHEM_SUBSTANCE_SYNONYM>
SCHEMBL16114803

> <PUBCHEM_XREF_EXT_ID>
SCHEMBL16114803

> <PUBCHEM_EXT_DATASOURCE_URL>
https://www.surechembl.org/

> <PUBCHEM_EXT_SUBSTANCE_URL>
https://www.surechembl.org/chemical/SCHEMBL16114803

> <PUBCHEM_CID_ASSOCIATIONS>
117604926  1

> <PUBCHEM_COORDINATE_TYPE>
1
3

$$$$
