310942775
  -OEChem-07211613022D

 42 46  0     1  0  0  0  0  0999 V2000
   -3.2801    0.7535    0.0000 F   0  0  0  0  0  0  0  0  0  0  0  0
   -3.2801   -2.5495    0.0000 F   0  0  0  0  0  0  0  0  0  0  0  0
   -0.7839   -1.0122    0.0000 O   0  0  0  0  0  0  0  0  0  0  0  0
    1.6972    2.1234    0.0000 O   0  0  0  0  0  0  0  0  0  0  0  0
   -0.9970   -2.2299    0.0000 O   0  0  0  0  0  0  0  0  0  0  0  0
    3.2649   -3.7368    0.0000 O   0  0  0  0  0  0  0  0  0  0  0  0
   -0.9665    0.9056    0.0000 N   0  0  0  0  0  0  0  0  0  0  0  0
    0.5860   -0.6316    0.0000 N   0  0  0  0  0  0  0  0  0  0  0  0
   -1.1036   -0.4186    0.0000 N   0  0  0  0  0  0  0  0  0  0  0  0
    1.8189   -2.8083    0.0000 N   0  0  0  0  0  0  0  0  0  0  0  0
    3.9955   -2.5343    0.0000 N   0  0  0  0  0  0  0  0  0  0  0  0
   -0.5556    0.2207    0.0000 C   0  0  0  0  0  0  0  0  0  0  0  0
    0.2663    0.1142    0.0000 C   0  0  3  0  0  0  0  0  0  0  0  0
   -1.8646   -0.0685    0.0000 C   0  0  0  0  0  0  0  0  0  0  0  0
    0.7383    0.7991    0.0000 C   0  0  0  0  0  0  0  0  0  0  0  0
   -1.7581    0.7535    0.0000 C   0  0  0  0  0  0  0  0  0  0  0  0
   -2.5648   -0.4795    0.0000 C   0  0  0  0  0  0  0  0  0  0  0  0
    0.0076   -1.2101    0.0000 C   0  0  0  0  0  0  0  0  0  0  0  0
   -0.6316    1.6515    0.0000 C   0  0  0  0  0  0  0  0  0  0  0  0
    1.4080   -0.7383    0.0000 C   0  0  0  0  0  0  0  0  0  0  0  0
   -3.2801   -0.0685    0.0000 C   0  0  0  0  0  0  0  0  0  0  0  0
    1.7124   -1.4689    0.0000 C   0  0  3  0  0  0  0  0  0  0  0  0
   -2.5800   -1.3014    0.0000 C   0  0  0  0  0  0  0  0  0  0  0  0
    0.4034    1.5297    0.0000 C   0  0  0  0  0  0  0  0  0  0  0  0
    1.5602    0.7078    0.0000 C   0  0  0  0  0  0  0  0  0  0  0  0
   -1.1188    2.3212    0.0000 C   0  0  0  0  0  0  0  0  0  0  0  0
   -0.2055   -2.0168    0.0000 C   0  0  3  0  0  0  0  0  0  0  0  0
   -3.2801   -1.7124    0.0000 C   0  0  0  0  0  0  0  0  0  0  0  0
   -3.9955   -0.4947    0.0000 C   0  0  0  0  0  0  0  0  0  0  0  0
    2.5191   -1.6819    0.0000 C   0  0  0  0  0  0  0  0  0  0  0  0
    2.5800   -2.4735    0.0000 C   0  0  3  0  0  0  0  0  0  0  0  0
    1.3014   -2.1842    0.0000 C   0  0  0  0  0  0  0  0  0  0  0  0
   -3.9955   -1.3014    0.0000 C   0  0  0  0  0  0  0  0  0  0  0  0
    0.8904    2.1995    0.0000 C   0  0  0  0  0  0  0  0  0  0  0  0
    2.0320    1.3928    0.0000 C   0  0  0  0  0  0  0  0  0  0  0  0
   -1.9255    2.2603    0.0000 C   0  0  0  0  0  0  0  0  0  0  0  0
   -0.7839    3.0823    0.0000 C   0  0  0  0  0  0  0  0  0  0  0  0
    3.2954   -2.8996    0.0000 C   0  0  0  0  0  0  0  0  0  0  0  0
    0.3730   -2.5800    0.0000 C   0  0  0  0  0  0  0  0  0  0  0  0
   -2.3974    2.8996    0.0000 C   0  0  0  0  0  0  0  0  0  0  0  0
   -1.2557    3.7368    0.0000 C   0  0  0  0  0  0  0  0  0  0  0  0
   -2.0777    3.6302    0.0000 C   0  0  0  0  0  0  0  0  0  0  0  0
  1 21  1  0  0  0  0
  2 28  1  0  0  0  0
  3 18  2  0  0  0  0
  4 34  1  0  0  0  0
  4 35  1  0  0  0  0
 27  5  1  6  0  0  0
  6 38  2  0  0  0  0
  7 12  1  0  0  0  0
  7 16  1  0  0  0  0
  7 19  1  0  0  0  0
 13  8  1  1  0  0  0
  8 18  1  0  0  0  0
  8 20  1  0  0  0  0
  9 12  2  0  0  0  0
  9 14  1  0  0  0  0
 10 31  1  0  0  0  0
 10 32  1  0  0  0  0
 11 38  1  0  0  0  0
 12 13  1  0  0  0  0
 13 15  1  0  0  0  0
 14 16  2  0  0  0  0
 14 17  1  0  0  0  0
 15 24  1  0  0  0  0
 15 25  1  0  0  0  0
 17 21  2  0  0  0  0
 17 23  1  0  0  0  0
 18 27  1  0  0  0  0
 19 26  1  0  0  0  0
 20 22  1  0  0  0  0
 21 29  1  0  0  0  0
 22 30  1  0  0  0  0
 22 32  1  0  0  0  0
 23 28  2  0  0  0  0
 24 34  1  0  0  0  0
 25 35  1  0  0  0  0
 26 36  2  0  0  0  0
 26 37  1  0  0  0  0
 27 39  1  0  0  0  0
 28 33  1  0  0  0  0
 29 33  2  0  0  0  0
 30 31  1  0  0  0  0
 31 38  1  0  0  0  0
 36 40  1  0  0  0  0
 37 41  2  0  0  0  0
 40 42  2  0  0  0  0
 41 42  1  0  0  0  0
M  END
> <PUBCHEM_COMPOUND_ID_TYPE>
0

> <PUBCHEM_TOTAL_CHARGE>
0

> <PUBCHEM_SUBSTANCE_ID>
310942775

> <PUBCHEM_SUBSTANCE_VERSION>
1

> <PUBCHEM_EXT_DATASOURCE_NAME>
4488

> <PUBCHEM_EXT_DATASOURCE_REGID>
SCHEMBL16120828

> <PUBCHEM_SUBSTANCE_COMMENT>
InChI=1S/C31H37F2N5O4/c1-19(39)31(41)38(17-21-13-26(29(34)40)35-15-21)28(22-9-11-42-12-10-22)30-36-27(24-14-23(32)7-8-25(24)33)18-37(30)16-20-5-3-2-4-6-20/h2-8,14,18-19,21-22,26,28,35,39H,9-13,15-17H2,1H3,(H2,34,40)/t19-,21?,26?,28+/m0/s1
InChIKey=QARFEHNCADUXAE-IHVYOAGDSA-N

> <PUBCHEM_SUBSTANCE_SYNONYM>
SCHEMBL16120828

> <PUBCHEM_XREF_EXT_ID>
SCHEMBL16120828

> <PUBCHEM_EXT_DATASOURCE_URL>
https://www.surechembl.org/

> <PUBCHEM_EXT_SUBSTANCE_URL>
https://www.surechembl.org/chemical/SCHEMBL16120828

> <PUBCHEM_CID_ASSOCIATIONS>
117609281  1

> <PUBCHEM_COORDINATE_TYPE>
1
3

> <PUBCHEM_BONDANNOTATIONS>
27  5  6
13  8  5

$$$$
