310932943
  -OEChem-07211613022D

 17 18  0     1  0  0  0  0  0999 V2000
    2.7637    3.0694    0.0000 F   0  0  0  0  0  0  0  0  0  0  0  0
   -0.5970    2.3551    0.0000 O   0  5  0  0  0  0  0  0  0  0  0  0
    0.3591    3.4170    0.0000 O   0  0  0  0  0  0  0  0  0  0  0  0
    2.0202    1.5151    0.0000 N   0  0  3  0  0  0  0  0  0  0  0  0
    0.1876    2.6100    0.0000 N   0  3  0  0  0  0  0  0  0  0  0  0
    0.8007    2.0580    0.0000 C   0  0  3  0  0  0  0  0  0  0  0  0
    0.7144    1.2375    0.0000 C   0  0  3  0  0  0  0  0  0  0  0  0
    1.6077    2.2295    0.0000 C   0  0  3  0  0  0  0  0  0  0  0  0
    1.4681    0.9020    0.0000 C   0  0  0  0  0  0  0  0  0  0  0  0
    0.0000    0.8250    0.0000 C   0  0  0  0  0  0  0  0  0  0  0  0
    1.9432    2.9832    0.0000 C   0  0  0  0  0  0  0  0  0  0  0  0
   -0.7144    1.2375    0.0000 C   0  0  0  0  0  0  0  0  0  0  0  0
    0.0000    0.0000    0.0000 C   0  0  0  0  0  0  0  0  0  0  0  0
    2.8407    1.4288    0.0000 C   0  0  0  0  0  0  0  0  0  0  0  0
   -1.4290    0.8250    0.0000 C   0  0  0  0  0  0  0  0  0  0  0  0
   -0.7144   -0.4125    0.0000 C   0  0  0  0  0  0  0  0  0  0  0  0
   -1.4290    0.0000    0.0000 C   0  0  0  0  0  0  0  0  0  0  0  0
  1 11  1  0  0  0  0
  2  5  1  0  0  0  0
  3  5  2  0  0  0  0
  4  8  1  0  0  0  0
  4  9  1  0  0  0  0
  4 14  1  0  0  0  0
  6  5  1  6  0  0  0
  6  7  1  0  0  0  0
  6  8  1  0  0  0  0
  7  9  1  1  0  0  0
  7 10  1  0  0  0  0
  8 11  1  1  0  0  0
 10 12  2  0  0  0  0
 10 13  1  0  0  0  0
 12 15  1  0  0  0  0
 13 16  2  0  0  0  0
 15 17  2  0  0  0  0
 16 17  1  0  0  0  0
M  CHG  2   2  -1   5   1
M  END
> <PUBCHEM_COMPOUND_ID_TYPE>
0

> <PUBCHEM_TOTAL_CHARGE>
0

> <PUBCHEM_SUBSTANCE_ID>
310932943

> <PUBCHEM_SUBSTANCE_VERSION>
1

> <PUBCHEM_EXT_DATASOURCE_NAME>
4488

> <PUBCHEM_EXT_DATASOURCE_REGID>
SCHEMBL16110339

> <PUBCHEM_SUBSTANCE_COMMENT>
InChI=1S/C12H15FN2O2/c1-14-8-10(9-5-3-2-4-6-9)12(15(16)17)11(14)7-13/h2-6,10-12H,7-8H2,1H3/t10-,11+,12-/m0/s1
InChIKey=UIGRIUDWINASNA-TUAOUCFPSA-N

> <PUBCHEM_SUBSTANCE_SYNONYM>
SCHEMBL16110339

> <PUBCHEM_XREF_EXT_ID>
SCHEMBL16110339

> <PUBCHEM_EXT_DATASOURCE_URL>
https://www.surechembl.org/

> <PUBCHEM_EXT_SUBSTANCE_URL>
https://www.surechembl.org/chemical/SCHEMBL16110339

> <PUBCHEM_CID_ASSOCIATIONS>
117601423  1

> <PUBCHEM_COORDINATE_TYPE>
1
3

> <PUBCHEM_BONDANNOTATIONS>
6  5  6
7  9  5
8  11  5

$$$$
