310929800
  -OEChem-07211613022D

 73 81  0     1  0  0  0  0  0999 V2000
    2.3848   -5.1547    0.0000 S   0  0  0  0  0  0  0  0  0  0  0  0
    0.0000    3.3000    0.0000 F   0  0  0  0  0  0  0  0  0  0  0  0
   -4.2868   -0.8250    0.0000 O   0  0  0  0  0  0  0  0  0  0  0  0
    1.5598   -3.7257    0.0000 O   0  0  0  0  0  0  0  0  0  0  0  0
   -1.4290   -0.8250    0.0000 O   0  0  0  0  0  0  0  0  0  0  0  0
    2.3848   -5.9797    0.0000 O   0  0  0  0  0  0  0  0  0  0  0  0
    2.3848   -4.3297    0.0000 O   0  0  0  0  0  0  0  0  0  0  0  0
   -1.3277   -4.4402    0.0000 O   0  0  0  0  0  0  0  0  0  0  0  0
   -2.8579   -4.1250    0.0000 O   0  0  0  0  0  0  0  0  0  0  0  0
   -5.0013   -2.0625    0.0000 O   0  0  0  0  0  0  0  0  0  0  0  0
    0.0000    1.6500    0.0000 O   0  0  0  0  0  0  0  0  0  0  0  0
    3.5724    2.8875    0.0000 O   0  0  0  0  0  0  0  0  0  0  0  0
    2.8579    4.1250    0.0000 O   0  0  0  0  0  0  0  0  0  0  0  0
   -0.0902   -3.7257    0.0000 N   0  0  0  0  0  0  0  0  0  0  0  0
    1.5598   -5.1547    0.0000 N   0  0  0  0  0  0  0  0  0  0  0  0
   -2.1434   -2.8875    0.0000 N   0  0  0  0  0  0  0  0  0  0  0  0
   -3.5724   -2.0625    0.0000 N   0  0  0  0  0  0  0  0  0  0  0  0
    0.0000   -0.8250    0.0000 N   0  0  0  0  0  0  0  0  0  0  0  0
    2.1434    2.8875    0.0000 N   0  0  0  0  0  0  0  0  0  0  0  0
    0.3223   -4.4402    0.0000 C   0  0  3  0  0  0  0  0  0  0  0  0
    0.3223   -5.2651    0.0000 C   0  0  3  0  0  0  0  0  0  0  0  0
   -5.0013   -0.4125    0.0000 C   0  0  3  0  0  0  0  0  0  0  0  0
   -5.0013    0.4125    0.0000 C   0  0  3  0  0  0  0  0  0  0  0  0
   -0.3922   -4.8526    0.0000 C   0  0  0  0  0  0  0  0  0  0  0  0
    1.1473   -4.4402    0.0000 C   0  0  0  0  0  0  0  0  0  0  0  0
   -5.7158    0.0000    0.0000 C   0  0  0  0  0  0  0  0  0  0  0  0
    3.2098   -5.1547    0.0000 C   0  0  0  0  0  0  0  0  0  0  0  0
   -0.9152   -3.7257    0.0000 C   0  0  0  0  0  0  0  0  0  0  0  0
   -1.3277   -3.0112    0.0000 C   0  0  3  0  0  0  0  0  0  0  0  0
   -4.2868    0.8250    0.0000 C   0  0  0  0  0  0  0  0  0  0  0  0
   -1.4290   -1.6500    0.0000 C   0  0  3  0  0  0  0  0  0  0  0  0
    0.7348   -5.9797    0.0000 C   0  0  0  0  0  0  0  0  0  0  0  0
    3.6223   -4.4402    0.0000 C   0  0  0  0  0  0  0  0  0  0  0  0
    4.0348   -5.1547    0.0000 C   0  0  0  0  0  0  0  0  0  0  0  0
   -0.9152   -2.2967    0.0000 C   0  0  0  0  0  0  0  0  0  0  0  0
   -2.1434   -2.0625    0.0000 C   0  0  0  0  0  0  0  0  0  0  0  0
   -2.8579   -3.3000    0.0000 C   0  0  0  0  0  0  0  0  0  0  0  0
   -4.2868   -1.6500    0.0000 C   0  0  0  0  0  0  0  0  0  0  0  0
   -3.5724   -2.8875    0.0000 C   0  0  3  0  0  0  0  0  0  0  0  0
    2.7973   -5.8691    0.0000 C   0  0  0  0  0  0  0  0  0  0  0  0
   -0.7144   -0.4125    0.0000 C   0  0  0  0  0  0  0  0  0  0  0  0
   -3.5724    0.4125    0.0000 C   0  0  0  0  0  0  0  0  0  0  0  0
   -0.7144    0.4125    0.0000 C   0  0  0  0  0  0  0  0  0  0  0  0
    0.0000    0.8250    0.0000 C   0  0  0  0  0  0  0  0  0  0  0  0
   -4.2868   -3.3000    0.0000 C   0  0  0  0  0  0  0  0  0  0  0  0
    1.5598   -5.9797    0.0000 C   0  0  0  0  0  0  0  0  0  0  0  0
    0.7144    0.4125    0.0000 C   0  0  0  0  0  0  0  0  0  0  0  0
    0.7144   -0.4125    0.0000 C   0  0  0  0  0  0  0  0  0  0  0  0
   -2.8579    0.8250    0.0000 C   0  0  0  0  0  0  0  0  0  0  0  0
   -1.4290    0.8250    0.0000 C   0  0  0  0  0  0  0  0  0  0  0  0
   -2.1434    0.4125    0.0000 C   0  0  0  0  0  0  0  0  0  0  0  0
   -4.2868   -4.1250    0.0000 C   0  0  0  0  0  0  0  0  0  0  0  0
   -5.0013   -2.8875    0.0000 C   0  0  0  0  0  0  0  0  0  0  0  0
    1.4290    0.8250    0.0000 C   0  0  0  0  0  0  0  0  0  0  0  0
    1.4290   -0.8250    0.0000 C   0  0  0  0  0  0  0  0  0  0  0  0
    0.7144    2.0625    0.0000 C   0  0  3  0  0  0  0  0  0  0  0  0
    2.1434    0.4125    0.0000 C   0  0  0  0  0  0  0  0  0  0  0  0
    2.1434   -0.4125    0.0000 C   0  0  0  0  0  0  0  0  0  0  0  0
    0.7144    2.8875    0.0000 C   0  0  3  0  0  0  0  0  0  0  0  0
   -5.0013   -4.5375    0.0000 C   0  0  0  0  0  0  0  0  0  0  0  0
   -5.7158   -3.3000    0.0000 C   0  0  0  0  0  0  0  0  0  0  0  0
    1.4290    1.6500    0.0000 C   0  0  0  0  0  0  0  0  0  0  0  0
   -5.7158   -4.1250    0.0000 C   0  0  0  0  0  0  0  0  0  0  0  0
    1.4290    3.3000    0.0000 C   0  0  0  0  0  0  0  0  0  0  0  0
    2.1434    2.0625    0.0000 C   0  0  0  0  0  0  0  0  0  0  0  0
    2.8579    3.3000    0.0000 C   0  0  0  0  0  0  0  0  0  0  0  0
    4.2868    3.3000    0.0000 C   0  0  0  0  0  0  0  0  0  0  0  0
    4.2868    4.1250    0.0000 C   0  0  0  0  0  0  0  0  0  0  0  0
    5.0013    3.7125    0.0000 C   0  0  0  0  0  0  0  0  0  0  0  0
    5.0013    2.8875    0.0000 C   0  0  0  0  0  0  0  0  0  0  0  0
   -5.4138   -1.1270    0.0000 H   0  0  0  0  0  0  0  0  0  0  0  0
   -5.4138    1.1270    0.0000 H   0  0  0  0  0  0  0  0  0  0  0  0
   -0.6500   -1.3783    0.0000 H   0  0  0  0  0  0  0  0  0  0  0  0
  1  6  2  0  0  0  0
  1  7  2  0  0  0  0
  1 15  1  0  0  0  0
  1 27  1  0  0  0  0
 59  2  1  1  0  0  0
  3 22  1  0  0  0  0
  3 38  1  0  0  0  0
  4 25  2  0  0  0  0
  5 31  1  0  0  0  0
  5 41  1  0  0  0  0
  8 28  2  0  0  0  0
  9 37  2  0  0  0  0
 10 38  2  0  0  0  0
 11 44  1  0  0  0  0
 56 11  1  1  0  0  0
 12 66  1  0  0  0  0
 12 67  1  0  0  0  0
 13 66  2  0  0  0  0
 20 14  1  1  0  0  0
 14 28  1  0  0  0  0
 15 25  1  0  0  0  0
 16 29  1  0  0  0  0
 16 36  1  0  0  0  0
 16 37  1  0  0  0  0
 17 38  1  0  0  0  0
 17 39  1  0  0  0  0
 18 41  2  0  0  0  0
 18 48  1  0  0  0  0
 19 64  1  0  0  0  0
 19 65  1  0  0  0  0
 19 66  1  0  0  0  0
 20 21  1  0  0  0  0
 20 24  1  0  0  0  0
 20 25  1  6  0  0  0
 21 24  1  0  0  0  0
 21 32  1  6  0  0  0
 22 23  1  0  0  0  0
 22 26  1  0  0  0  0
 22 71  1  1  0  0  0
 23 26  1  0  0  0  0
 23 30  1  0  0  0  0
 23 72  1  6  0  0  0
 27 33  1  0  0  0  0
 27 34  1  0  0  0  0
 27 40  1  0  0  0  0
 29 28  1  1  0  0  0
 29 35  1  0  0  0  0
 30 42  1  0  0  0  0
 31 35  1  0  0  0  0
 31 36  1  0  0  0  0
 31 73  1  1  0  0  0
 32 46  2  0  0  0  0
 33 34  1  0  0  0  0
 39 37  1  6  0  0  0
 39 45  1  0  0  0  0
 41 43  1  0  0  0  0
 42 49  1  0  0  0  0
 43 44  2  0  0  0  0
 43 50  1  0  0  0  0
 44 47  1  0  0  0  0
 45 52  1  0  0  0  0
 45 53  1  0  0  0  0
 47 48  1  0  0  0  0
 47 54  2  0  0  0  0
 48 55  2  0  0  0  0
 49 51  1  0  0  0  0
 50 51  1  0  0  0  0
 52 60  1  0  0  0  0
 53 61  1  0  0  0  0
 54 57  1  0  0  0  0
 55 58  1  0  0  0  0
 56 59  1  0  0  0  0
 56 62  1  0  0  0  0
 57 58  2  0  0  0  0
 59 64  1  0  0  0  0
 60 63  1  0  0  0  0
 61 63  1  0  0  0  0
 62 65  1  0  0  0  0
 67 68  1  0  0  0  0
 67 69  1  0  0  0  0
 67 70  1  0  0  0  0
M  END
> <PUBCHEM_COMPOUND_ID_TYPE>
0

> <PUBCHEM_TOTAL_CHARGE>
0

> <PUBCHEM_SUBSTANCE_ID>
310929800

> <PUBCHEM_SUBSTANCE_VERSION>
1

> <PUBCHEM_EXT_DATASOURCE_NAME>
4488

> <PUBCHEM_EXT_DATASOURCE_REGID>
SCHEMBL16107003

> <PUBCHEM_SUBSTANCE_COMMENT>
InChI=1S/C51H69FN6O11S/c1-6-32-27-51(32,46(61)56-70(64,65)50(5)22-23-50)55-43(59)38-26-33-28-58(38)45(60)41(30-15-9-7-10-16-30)54-47(62)68-40-25-31(40)17-11-8-12-19-35-42(34-18-13-14-20-37(34)53-44(35)66-33)67-39-21-24-57(29-36(39)52)48(63)69-49(2,3)4/h6,13-14,18,20,30-33,36,38-41H,1,7-12,15-17,19,21-29H2,2-5H3,(H,54,62)(H,55,59)(H,56,61)/t31-,32-,33-,36+,38+,39-,40-,41+,51-/m1/s1
InChIKey=FDSJMGOFHJRXEQ-RSJNTHGGSA-N

> <PUBCHEM_SUBSTANCE_SYNONYM>
SCHEMBL16107003

> <PUBCHEM_XREF_EXT_ID>
SCHEMBL16107003

> <PUBCHEM_EXT_DATASOURCE_URL>
https://www.surechembl.org/

> <PUBCHEM_EXT_SUBSTANCE_URL>
https://www.surechembl.org/chemical/SCHEMBL16107003

> <PUBCHEM_CID_ASSOCIATIONS>
117599081  1

> <PUBCHEM_COORDINATE_TYPE>
1
3

> <PUBCHEM_BONDANNOTATIONS>
56  11  5
20  14  5
59  2  5
20  25  6
21  32  6
22  71  5
23  72  6
29  28  5
31  73  5
39  37  6

$$$$
