310942949
  -OEChem-07211613022D

 27 30  0     1  0  0  0  0  0999 V2000
   -1.2788    0.2200    0.0000 O   0  0  0  0  0  0  0  0  0  0  0  0
    3.2451    1.4438    0.0000 O   0  0  0  0  0  0  0  0  0  0  0  0
    1.4713    0.0825    0.0000 N   0  0  0  0  0  0  0  0  0  0  0  0
    1.1413   -0.6600    0.0000 N   0  0  0  0  0  0  0  0  0  0  0  0
   -0.5637    1.4575    0.0000 N   0  0  0  0  0  0  0  0  0  0  0  0
   -0.2338   -1.1962    0.0000 N   0  0  0  0  0  0  0  0  0  0  0  0
    2.0351   -1.8700    0.0000 N   0  0  0  0  0  0  0  0  0  0  0  0
    0.1375    0.2338    0.0000 C   0  0  0  0  0  0  0  0  0  0  0  0
    0.8526    0.6462    0.0000 C   0  0  0  0  0  0  0  0  0  0  0  0
    0.3163   -0.5637    0.0000 C   0  0  0  0  0  0  0  0  0  0  0  0
   -0.5776    0.6462    0.0000 C   0  0  0  0  0  0  0  0  0  0  0  0
    2.2826    0.2475    0.0000 C   0  0  3  0  0  0  0  0  0  0  0  0
    0.8663    1.4575    0.0000 C   0  0  0  0  0  0  0  0  0  0  0  0
    2.7638   -0.3987    0.0000 C   0  0  3  0  0  0  0  0  0  0  0  0
    0.1237    1.8700    0.0000 C   0  0  0  0  0  0  0  0  0  0  0  0
    2.5026    1.1276    0.0000 C   0  0  0  0  0  0  0  0  0  0  0  0
    3.5888   -0.3987    0.0000 C   0  0  0  0  0  0  0  0  0  0  0  0
    2.3926   -1.1413    0.0000 C   0  0  0  0  0  0  0  0  0  0  0  0
   -2.0213    0.6325    0.0000 C   0  0  0  0  0  0  0  0  0  0  0  0
    4.1252    0.2887    0.0000 C   0  0  0  0  0  0  0  0  0  0  0  0
   -2.7089    0.2338    0.0000 C   0  0  0  0  0  0  0  0  0  0  0  0
    3.9739    1.0588    0.0000 C   0  0  0  0  0  0  0  0  0  0  0  0
   -3.4101    0.6325    0.0000 C   0  0  0  0  0  0  0  0  0  0  0  0
   -2.7089   -0.5913    0.0000 C   0  0  0  0  0  0  0  0  0  0  0  0
   -4.1251    0.2200    0.0000 C   0  0  0  0  0  0  0  0  0  0  0  0
   -3.4101   -1.0038    0.0000 C   0  0  0  0  0  0  0  0  0  0  0  0
   -4.1251   -0.5913    0.0000 C   0  0  0  0  0  0  0  0  0  0  0  0
  1 11  1  0  0  0  0
  1 19  1  0  0  0  0
  2 16  1  0  0  0  0
  2 22  1  0  0  0  0
  3  4  1  0  0  0  0
  3  9  1  0  0  0  0
 12  3  1  6  0  0  0
  4 10  2  0  0  0  0
  5 11  2  0  0  0  0
  5 15  1  0  0  0  0
  6 10  1  0  0  0  0
  7 18  3  0  0  0  0
  8  9  2  0  0  0  0
  8 10  1  0  0  0  0
  8 11  1  0  0  0  0
  9 13  1  0  0  0  0
 12 14  1  0  0  0  0
 12 16  1  0  0  0  0
 13 15  2  0  0  0  0
 14 17  1  0  0  0  0
 14 18  1  6  0  0  0
 17 20  1  0  0  0  0
 19 21  1  0  0  0  0
 20 22  1  0  0  0  0
 21 23  2  0  0  0  0
 21 24  1  0  0  0  0
 23 25  1  0  0  0  0
 24 26  2  0  0  0  0
 25 27  2  0  0  0  0
 26 27  1  0  0  0  0
M  END
> <PUBCHEM_COMPOUND_ID_TYPE>
0

> <PUBCHEM_TOTAL_CHARGE>
0

> <PUBCHEM_SUBSTANCE_ID>
310942949

> <PUBCHEM_SUBSTANCE_VERSION>
1

> <PUBCHEM_EXT_DATASOURCE_NAME>
4488

> <PUBCHEM_EXT_DATASOURCE_REGID>
SCHEMBL16121008

> <PUBCHEM_SUBSTANCE_COMMENT>
InChI=1S/C20H21N5O2/c21-11-15-7-4-10-26-13-17(15)25-16-8-9-23-20(18(16)19(22)24-25)27-12-14-5-2-1-3-6-14/h1-3,5-6,8-9,15,17H,4,7,10,12-13H2,(H2,22,24)/t15-,17-/m1/s1
InChIKey=ILOROJRXKYEZFQ-NVXWUHKLSA-N

> <PUBCHEM_SUBSTANCE_SYNONYM>
SCHEMBL16121008

> <PUBCHEM_XREF_EXT_ID>
SCHEMBL16121008

> <PUBCHEM_EXT_DATASOURCE_URL>
https://www.surechembl.org/

> <PUBCHEM_EXT_SUBSTANCE_URL>
https://www.surechembl.org/chemical/SCHEMBL16121008

> <PUBCHEM_CID_ASSOCIATIONS>
117609411  1

> <PUBCHEM_COORDINATE_TYPE>
1
3

> <PUBCHEM_BONDANNOTATIONS>
14  18  6
12  3  6

$$$$
