310933020
  -OEChem-07211613022D

 14 15  0     0  0  0  0  0  0999 V2000
    2.6811   -3.0641    0.0000 Br  0  0  0  0  0  0  0  0  0  0  0  0
    0.0000    0.0000    0.0000 O   0  0  0  0  0  0  0  0  0  0  0  0
    1.3329   -0.5056    0.0000 N   0  0  0  0  0  0  0  0  0  0  0  0
    1.9611   -1.8078    0.0000 C   0  0  0  0  0  0  0  0  0  0  0  0
    1.9611   -1.0112    0.0000 C   0  0  0  0  0  0  0  0  0  0  0  0
    2.6811   -2.2368    0.0000 C   0  0  0  0  0  0  0  0  0  0  0  0
    3.3858   -1.8078    0.0000 C   0  0  0  0  0  0  0  0  0  0  0  0
    2.6811   -0.5822    0.0000 C   0  0  0  0  0  0  0  0  0  0  0  0
    1.3329   -2.3287    0.0000 C   0  0  0  0  0  0  0  0  0  0  0  0
    3.3858   -1.0112    0.0000 C   0  0  0  0  0  0  0  0  0  0  0  0
    0.5056   -0.6588    0.0000 C   0  0  0  0  0  0  0  0  0  0  0  0
    0.5056   -2.1602    0.0000 C   0  0  0  0  0  0  0  0  0  0  0  0
    0.1532   -1.4095    0.0000 C   0  0  0  0  0  0  0  0  0  0  0  0
    4.1059   -2.2062    0.0000 C   0  0  0  0  0  0  0  0  0  0  0  0
  1  6  1  0  0  0  0
  2 11  2  0  0  0  0
  3  5  1  0  0  0  0
  3 11  1  0  0  0  0
  4  5  2  0  0  0  0
  4  6  1  0  0  0  0
  4  9  1  0  0  0  0
  5  8  1  0  0  0  0
  6  7  2  0  0  0  0
  7 10  1  0  0  0  0
  7 14  1  0  0  0  0
  8 10  2  0  0  0  0
  9 12  1  0  0  0  0
 11 13  1  0  0  0  0
 12 13  1  0  0  0  0
M  END
> <PUBCHEM_COMPOUND_ID_TYPE>
0

> <PUBCHEM_TOTAL_CHARGE>
0

> <PUBCHEM_SUBSTANCE_ID>
310933020

> <PUBCHEM_SUBSTANCE_VERSION>
1

> <PUBCHEM_EXT_DATASOURCE_NAME>
4488

> <PUBCHEM_EXT_DATASOURCE_REGID>
SCHEMBL16110420

> <PUBCHEM_SUBSTANCE_COMMENT>
InChI=1S/C11H12BrNO/c1-7-5-6-9-8(11(7)12)3-2-4-10(14)13-9/h5-6H,2-4H2,1H3,(H,13,14)
InChIKey=OFRUBKQMWVUMQE-UHFFFAOYSA-N

> <PUBCHEM_SUBSTANCE_SYNONYM>
SCHEMBL16110420

> <PUBCHEM_XREF_EXT_ID>
SCHEMBL16110420

> <PUBCHEM_EXT_DATASOURCE_URL>
https://www.surechembl.org/

> <PUBCHEM_EXT_SUBSTANCE_URL>
https://www.surechembl.org/chemical/SCHEMBL16110420

> <PUBCHEM_CID_ASSOCIATIONS>
117601487  1

> <PUBCHEM_COORDINATE_TYPE>
1
3

$$$$
