310941749
  -OEChem-07211613022D

 37 40  0     0  0  0  0  0  0999 V2000
   -1.6985    1.4971    0.0000 S   0  0  0  0  0  0  0  0  0  0  0  0
   -1.1804   -2.4040    0.0000 F   0  0  0  0  0  0  0  0  0  0  0  0
   -0.4463   -2.8214    0.0000 F   0  0  0  0  0  0  0  0  0  0  0  0
   -1.1804   -1.5547    0.0000 F   0  0  0  0  0  0  0  0  0  0  0  0
   -5.2828    0.8780    0.0000 F   0  0  0  0  0  0  0  0  0  0  0  0
   -3.2532   -1.1516    0.0000 F   0  0  0  0  0  0  0  0  0  0  0  0
    0.2591   -1.5403    0.0000 O   0  0  0  0  0  0  0  0  0  0  0  0
    0.9788    2.2168    0.0000 O   0  0  0  0  0  0  0  0  0  0  0  0
    2.4183    0.5326    0.0000 O   0  0  0  0  0  0  0  0  0  0  0  0
    5.2828    0.5326    0.0000 O   0  0  0  0  0  0  0  0  0  0  0  0
   -0.4606    2.2024    0.0000 N   0  0  0  0  0  0  0  0  0  0  0  0
   -2.6055    2.4615    0.0000 N   0  0  0  0  0  0  0  0  0  0  0  0
   -1.8569    2.8214    0.0000 N   0  0  0  0  0  0  0  0  0  0  0  0
    1.6985   -0.7341    0.0000 N   0  0  0  0  0  0  0  0  0  0  0  0
    3.8578   -0.3167    0.0000 N   0  0  0  0  0  0  0  0  0  0  0  0
   -2.5191    1.6699    0.0000 C   0  0  0  0  0  0  0  0  0  0  0  0
    0.9644   -0.2879    0.0000 C   0  0  0  0  0  0  0  0  0  0  0  0
    0.2591    0.9788    0.0000 C   0  0  0  0  0  0  0  0  0  0  0  0
    0.2736   -0.6909    0.0000 C   0  0  0  0  0  0  0  0  0  0  0  0
   -1.3099    2.2312    0.0000 C   0  0  0  0  0  0  0  0  0  0  0  0
   -3.1092    1.0508    0.0000 C   0  0  0  0  0  0  0  0  0  0  0  0
    0.2447    1.7993    0.0000 C   0  0  0  0  0  0  0  0  0  0  0  0
    0.9788    0.5470    0.0000 C   0  0  0  0  0  0  0  0  0  0  0  0
   -0.4463    0.5470    0.0000 C   0  0  0  0  0  0  0  0  0  0  0  0
   -0.4463   -0.2879    0.0000 C   0  0  0  0  0  0  0  0  0  0  0  0
   -2.8933    0.2591    0.0000 C   0  0  0  0  0  0  0  0  0  0  0  0
   -3.9010    1.2811    0.0000 C   0  0  0  0  0  0  0  0  0  0  0  0
   -0.4750   -1.9576    0.0000 C   0  0  0  0  0  0  0  0  0  0  0  0
   -4.4911    0.7053    0.0000 C   0  0  0  0  0  0  0  0  0  0  0  0
   -3.4691   -0.3023    0.0000 C   0  0  0  0  0  0  0  0  0  0  0  0
    2.4040   -0.3023    0.0000 C   0  0  0  0  0  0  0  0  0  0  0  0
   -4.2464   -0.1008    0.0000 C   0  0  0  0  0  0  0  0  0  0  0  0
    3.1668   -0.7053    0.0000 C   0  0  0  0  0  0  0  0  0  0  0  0
    4.6063   -0.7053    0.0000 C   0  0  0  0  0  0  0  0  0  0  0  0
    3.8722    0.5470    0.0000 C   0  0  0  0  0  0  0  0  0  0  0  0
    5.2828   -0.3023    0.0000 C   0  0  0  0  0  0  0  0  0  0  0  0
    4.5631    0.9500    0.0000 C   0  0  0  0  0  0  0  0  0  0  0  0
  1 16  1  0  0  0  0
  1 20  1  0  0  0  0
  2 28  1  0  0  0  0
  3 28  1  0  0  0  0
  4 28  1  0  0  0  0
  5 29  1  0  0  0  0
  6 30  1  0  0  0  0
  7 19  1  0  0  0  0
  7 28  1  0  0  0  0
  8 22  2  0  0  0  0
  9 31  2  0  0  0  0
 10 36  1  0  0  0  0
 10 37  1  0  0  0  0
 11 20  1  0  0  0  0
 11 22  1  0  0  0  0
 12 13  1  0  0  0  0
 12 16  2  0  0  0  0
 13 20  2  0  0  0  0
 14 17  1  0  0  0  0
 14 31  1  0  0  0  0
 15 33  1  0  0  0  0
 15 34  1  0  0  0  0
 15 35  1  0  0  0  0
 16 21  1  0  0  0  0
 17 19  2  0  0  0  0
 17 23  1  0  0  0  0
 18 22  1  0  0  0  0
 18 23  2  0  0  0  0
 18 24  1  0  0  0  0
 19 25  1  0  0  0  0
 21 26  2  0  0  0  0
 21 27  1  0  0  0  0
 24 25  2  0  0  0  0
 26 30  1  0  0  0  0
 27 29  2  0  0  0  0
 29 32  1  0  0  0  0
 30 32  2  0  0  0  0
 31 33  1  0  0  0  0
 34 36  1  0  0  0  0
 35 37  1  0  0  0  0
M  END
> <PUBCHEM_COMPOUND_ID_TYPE>
0

> <PUBCHEM_TOTAL_CHARGE>
0

> <PUBCHEM_SUBSTANCE_ID>
310941749

> <PUBCHEM_SUBSTANCE_VERSION>
1

> <PUBCHEM_EXT_DATASOURCE_NAME>
4488

> <PUBCHEM_EXT_DATASOURCE_REGID>
SCHEMBL16119780

> <PUBCHEM_SUBSTANCE_COMMENT>
InChI=1S/C22H18F5N5O4S/c23-14-7-13(8-15(24)10-14)20-30-31-21(37-20)29-19(34)12-1-2-17(36-22(25,26)27)16(9-12)28-18(33)11-32-3-5-35-6-4-32/h1-2,7-10H,3-6,11H2,(H,28,33)(H,29,31,34)
InChIKey=GECTYSROPOTQAK-UHFFFAOYSA-N

> <PUBCHEM_SUBSTANCE_SYNONYM>
SCHEMBL16119780

> <PUBCHEM_XREF_EXT_ID>
SCHEMBL16119780

> <PUBCHEM_EXT_DATASOURCE_URL>
https://www.surechembl.org/

> <PUBCHEM_EXT_SUBSTANCE_URL>
https://www.surechembl.org/chemical/SCHEMBL16119780

> <PUBCHEM_CID_ASSOCIATIONS>
90462271  1

> <PUBCHEM_COORDINATE_TYPE>
1
3

$$$$
