310931933
  -OEChem-07211613022D

 31 34  0     0  0  0  0  0  0999 V2000
    1.0006    0.0000    0.0000 F   0  0  0  0  0  0  0  0  0  0  0  0
    4.0739   -2.5730    0.0000 O   0  0  0  0  0  0  0  0  0  0  0  0
    8.5767   -2.6802    0.0000 O   0  0  0  0  0  0  0  0  0  0  0  0
    4.9673   -1.4294    0.0000 N   0  0  0  0  0  0  0  0  0  0  0  0
    4.8959   -0.6075    0.0000 N   0  0  0  0  0  0  0  0  0  0  0  0
    6.3968   -1.4294    0.0000 N   0  0  0  0  0  0  0  0  0  0  0  0
    7.8619   -3.9310    0.0000 N   0  0  0  0  0  0  0  0  0  0  0  0
    0.0000   -2.2871    0.0000 N   0  0  0  0  0  0  0  0  0  0  0  0
    3.6451   -1.1793    0.0000 C   0  0  0  0  0  0  0  0  0  0  0  0
    4.2169   -1.7868    0.0000 C   0  0  0  0  0  0  0  0  0  0  0  0
    2.8231   -1.2508    0.0000 C   0  0  0  0  0  0  0  0  0  0  0  0
    5.6821   -1.8583    0.0000 C   0  0  0  0  0  0  0  0  0  0  0  0
    4.0739   -0.4646    0.0000 C   0  0  0  0  0  0  0  0  0  0  0  0
    2.3229   -0.6075    0.0000 C   0  0  0  0  0  0  0  0  0  0  0  0
    2.5015   -2.0370    0.0000 C   0  0  0  0  0  0  0  0  0  0  0  0
    5.6821   -2.6802    0.0000 C   0  0  0  0  0  0  0  0  0  0  0  0
    1.5009   -0.6790    0.0000 C   0  0  0  0  0  0  0  0  0  0  0  0
    7.1115   -2.6802    0.0000 C   0  0  0  0  0  0  0  0  0  0  0  0
    1.1793   -1.4652    0.0000 C   0  0  0  0  0  0  0  0  0  0  0  0
    7.1115   -1.8583    0.0000 C   0  0  0  0  0  0  0  0  0  0  0  0
    6.3968   -3.0733    0.0000 C   0  0  0  0  0  0  0  0  0  0  0  0
    1.6796   -2.1084    0.0000 C   0  0  0  0  0  0  0  0  0  0  0  0
    7.8619   -3.0733    0.0000 C   0  0  0  0  0  0  0  0  0  0  0  0
    0.3574   -1.5367    0.0000 C   0  0  0  0  0  0  0  0  0  0  0  0
    8.5767   -4.3240    0.0000 C   0  0  0  0  0  0  0  0  0  0  0  0
    9.2914   -3.9310    0.0000 C   0  0  0  0  0  0  0  0  0  0  0  0
   10.0061   -4.3240    0.0000 C   0  0  0  0  0  0  0  0  0  0  0  0
    9.2914   -3.1091    0.0000 C   0  0  0  0  0  0  0  0  0  0  0  0
   10.7208   -3.9310    0.0000 C   0  0  0  0  0  0  0  0  0  0  0  0
   10.0061   -2.6802    0.0000 C   0  0  0  0  0  0  0  0  0  0  0  0
   10.7208   -3.1091    0.0000 C   0  0  0  0  0  0  0  0  0  0  0  0
  1 17  1  0  0  0  0
  2 10  1  0  0  0  0
  3 23  2  0  0  0  0
  4  5  1  0  0  0  0
  4 10  1  0  0  0  0
  4 12  1  0  0  0  0
  5 13  2  0  0  0  0
  6 12  2  0  0  0  0
  6 20  1  0  0  0  0
  7 23  1  0  0  0  0
  7 25  1  0  0  0  0
  8 24  3  0  0  0  0
  9 10  2  0  0  0  0
  9 11  1  0  0  0  0
  9 13  1  0  0  0  0
 11 14  1  0  0  0  0
 11 15  2  0  0  0  0
 12 16  1  0  0  0  0
 14 17  2  0  0  0  0
 15 22  1  0  0  0  0
 16 21  2  0  0  0  0
 17 19  1  0  0  0  0
 18 20  2  0  0  0  0
 18 21  1  0  0  0  0
 18 23  1  0  0  0  0
 19 22  2  0  0  0  0
 19 24  1  0  0  0  0
 25 26  1  0  0  0  0
 26 27  2  0  0  0  0
 26 28  1  0  0  0  0
 27 29  1  0  0  0  0
 28 30  2  0  0  0  0
 29 31  2  0  0  0  0
 30 31  1  0  0  0  0
M  END
> <PUBCHEM_COMPOUND_ID_TYPE>
0

> <PUBCHEM_TOTAL_CHARGE>
0

> <PUBCHEM_SUBSTANCE_ID>
310931933

> <PUBCHEM_SUBSTANCE_VERSION>
1

> <PUBCHEM_EXT_DATASOURCE_NAME>
4488

> <PUBCHEM_EXT_DATASOURCE_REGID>
SCHEMBL16109269

> <PUBCHEM_SUBSTANCE_COMMENT>
InChI=1S/C23H16FN5O2/c24-20-10-16(6-7-17(20)11-25)19-14-28-29(23(19)31)21-9-8-18(13-26-21)22(30)27-12-15-4-2-1-3-5-15/h1-10,13-14,31H,12H2,(H,27,30)
InChIKey=HWQOGUJONOPMHC-UHFFFAOYSA-N

> <PUBCHEM_SUBSTANCE_SYNONYM>
SCHEMBL16109269

> <PUBCHEM_XREF_EXT_ID>
SCHEMBL16109269

> <PUBCHEM_EXT_DATASOURCE_URL>
https://www.surechembl.org/

> <PUBCHEM_EXT_SUBSTANCE_URL>
https://www.surechembl.org/chemical/SCHEMBL16109269

> <PUBCHEM_CID_ASSOCIATIONS>
117600584  1

> <PUBCHEM_COORDINATE_TYPE>
1
3

$$$$
