310948142
  -OEChem-07211613022D

 42 46  0     0  0  0  0  0  0999 V2000
    3.4193   -2.0014    0.0000 S   0  0  0  0  0  0  0  0  0  0  0  0
   -3.9541   -0.3322    0.0000 F   0  0  0  0  0  0  0  0  0  0  0  0
   -4.1323    0.8183    0.0000 F   0  0  0  0  0  0  0  0  0  0  0  0
   -2.9817    0.9966    0.0000 F   0  0  0  0  0  0  0  0  0  0  0  0
    4.0188    2.2768    0.0000 F   0  0  0  0  0  0  0  0  0  0  0  0
    4.0513    1.1587    0.0000 F   0  0  0  0  0  0  0  0  0  0  0  0
    2.9169    1.1424    0.0000 F   0  0  0  0  0  0  0  0  0  0  0  0
    2.8683    2.2930    0.0000 O   0  0  0  0  0  0  0  0  0  0  0  0
    2.7063   -2.4227    0.0000 O   0  0  0  0  0  0  0  0  0  0  0  0
    4.1323   -1.5962    0.0000 O   0  0  0  0  0  0  0  0  0  0  0  0
   -0.6969    0.8670    0.0000 N   0  0  0  0  0  0  0  0  0  0  0  0
   -2.0094   -1.2397    0.0000 N   0  0  0  0  0  0  0  0  0  0  0  0
   -2.8035   -0.9804    0.0000 N   0  0  0  0  0  0  0  0  0  0  0  0
   -1.5233    0.9480    0.0000 N   0  0  0  0  0  0  0  0  0  0  0  0
   -1.7015    1.7582    0.0000 N   0  0  0  0  0  0  0  0  0  0  0  0
   -0.2917    0.1701    0.0000 C   0  0  0  0  0  0  0  0  0  0  0  0
   -0.6969   -0.5591    0.0000 C   0  0  0  0  0  0  0  0  0  0  0  0
   -1.5395   -0.5591    0.0000 C   0  0  0  0  0  0  0  0  0  0  0  0
   -0.3727    1.6286    0.0000 C   0  0  0  0  0  0  0  0  0  0  0  0
    0.5348    0.1378    0.0000 C   0  0  0  0  0  0  0  0  0  0  0  0
    0.9399   -0.5591    0.0000 C   0  0  0  0  0  0  0  0  0  0  0  0
   -2.7873   -0.1378    0.0000 C   0  0  0  0  0  0  0  0  0  0  0  0
   -1.9932    0.0891    0.0000 C   0  0  0  0  0  0  0  0  0  0  0  0
   -0.2755   -1.2721    0.0000 C   0  0  0  0  0  0  0  0  0  0  0  0
    0.4537    1.8069    0.0000 C   0  0  0  0  0  0  0  0  0  0  0  0
    0.5348   -1.2721    0.0000 C   0  0  0  0  0  0  0  0  0  0  0  0
    1.7826   -0.5591    0.0000 C   0  0  0  0  0  0  0  0  0  0  0  0
   -3.4517    0.3322    0.0000 C   0  0  0  0  0  0  0  0  0  0  0  0
   -0.9885    2.1796    0.0000 C   0  0  0  0  0  0  0  0  0  0  0  0
    2.2039   -1.2721    0.0000 C   0  0  0  0  0  0  0  0  0  0  0  0
    3.0142   -1.2883    0.0000 C   0  0  0  0  0  0  0  0  0  0  0  0
    0.7130    2.5685    0.0000 C   0  0  0  0  0  0  0  0  0  0  0  0
    1.0048    1.1911    0.0000 C   0  0  0  0  0  0  0  0  0  0  0  0
    2.1877    0.1378    0.0000 C   0  0  0  0  0  0  0  0  0  0  0  0
   -1.7340   -2.0338    0.0000 C   0  0  0  0  0  0  0  0  0  0  0  0
    2.0581    2.1472    0.0000 C   0  0  0  0  0  0  0  0  0  0  0  0
    1.5070    2.7306    0.0000 C   0  0  0  0  0  0  0  0  0  0  0  0
    1.7988    1.3694    0.0000 C   0  0  0  0  0  0  0  0  0  0  0  0
    3.4193   -0.5591    0.0000 C   0  0  0  0  0  0  0  0  0  0  0  0
    3.0142    0.1540    0.0000 C   0  0  0  0  0  0  0  0  0  0  0  0
    3.4517    1.7097    0.0000 C   0  0  0  0  0  0  0  0  0  0  0  0
    3.8568   -2.7306    0.0000 C   0  0  0  0  0  0  0  0  0  0  0  0
  1  9  2  0  0  0  0
  1 10  2  0  0  0  0
  1 31  1  0  0  0  0
  1 42  1  0  0  0  0
  2 28  1  0  0  0  0
  3 28  1  0  0  0  0
  4 28  1  0  0  0  0
  5 41  1  0  0  0  0
  6 41  1  0  0  0  0
  7 41  1  0  0  0  0
  8 36  1  0  0  0  0
  8 41  1  0  0  0  0
 11 14  1  0  0  0  0
 11 16  1  0  0  0  0
 11 19  1  0  0  0  0
 12 13  1  0  0  0  0
 12 18  1  0  0  0  0
 12 35  1  0  0  0  0
 13 22  2  0  0  0  0
 14 15  2  0  0  0  0
 15 29  1  0  0  0  0
 16 17  1  0  0  0  0
 16 20  2  0  0  0  0
 17 18  1  0  0  0  0
 17 24  2  0  0  0  0
 18 23  2  0  0  0  0
 19 25  1  0  0  0  0
 19 29  2  0  0  0  0
 20 21  1  0  0  0  0
 21 26  2  0  0  0  0
 21 27  1  0  0  0  0
 22 23  1  0  0  0  0
 22 28  1  0  0  0  0
 24 26  1  0  0  0  0
 25 32  2  0  0  0  0
 25 33  1  0  0  0  0
 27 30  1  0  0  0  0
 27 34  2  0  0  0  0
 30 31  2  0  0  0  0
 31 39  1  0  0  0  0
 32 37  1  0  0  0  0
 33 38  2  0  0  0  0
 34 40  1  0  0  0  0
 36 37  2  0  0  0  0
 36 38  1  0  0  0  0
 39 40  2  0  0  0  0
M  END
> <PUBCHEM_COMPOUND_ID_TYPE>
0

> <PUBCHEM_TOTAL_CHARGE>
0

> <PUBCHEM_SUBSTANCE_ID>
310948142

> <PUBCHEM_SUBSTANCE_VERSION>
1

> <PUBCHEM_EXT_DATASOURCE_NAME>
4488

> <PUBCHEM_EXT_DATASOURCE_REGID>
SCHEMBL16126318

> <PUBCHEM_SUBSTANCE_COMMENT>
InChI=1S/C27H19F6N5O3S/c1-37-22(14-25(35-37)26(28,29)30)21-11-8-18(17-4-3-5-20(12-17)42(2,39)40)13-23(21)38-24(15-34-36-38)16-6-9-19(10-7-16)41-27(31,32)33/h3-15H,1-2H3
InChIKey=WWGSCGDENMRCIL-UHFFFAOYSA-N

> <PUBCHEM_SUBSTANCE_SYNONYM>
SCHEMBL16126318

> <PUBCHEM_XREF_EXT_ID>
SCHEMBL16126318

> <PUBCHEM_EXT_DATASOURCE_URL>
https://www.surechembl.org/

> <PUBCHEM_EXT_SUBSTANCE_URL>
https://www.surechembl.org/chemical/SCHEMBL16126318

> <PUBCHEM_CID_ASSOCIATIONS>
86276006  1

> <PUBCHEM_COORDINATE_TYPE>
1
3

$$$$
