310944929
  -OEChem-07211613022D

 39 43  0     0  0  0  0  0  0999 V2000
   -0.7106    3.6717    0.0000 Cl  0  0  0  0  0  0  0  0  0  0  0  0
    2.4599    3.6717    0.0000 F   0  0  0  0  0  0  0  0  0  0  0  0
   -4.3732   -3.6717    0.0000 O   0  0  0  0  0  0  0  0  0  0  0  0
    3.8994   -1.3211    0.0000 O   0  0  0  0  0  0  0  0  0  0  0  0
    4.6101   -0.0638    0.0000 O   0  0  0  0  0  0  0  0  0  0  0  0
   -4.1910   -1.4851    0.0000 N   0  0  0  0  0  0  0  0  0  0  0  0
   -4.6101   -0.7562    0.0000 N   0  0  0  0  0  0  0  0  0  0  0  0
   -0.4191    1.9953    0.0000 C   0  0  0  0  0  0  0  0  0  0  0  0
   -0.4373    1.1753    0.0000 C   0  0  0  0  0  0  0  0  0  0  0  0
    0.2915    2.4143    0.0000 C   0  0  0  0  0  0  0  0  0  0  0  0
   -1.1662    2.4143    0.0000 C   0  0  0  0  0  0  0  0  0  0  0  0
   -1.1298    0.7562    0.0000 C   0  0  0  0  0  0  0  0  0  0  0  0
    0.3098    0.7562    0.0000 C   0  0  0  0  0  0  0  0  0  0  0  0
    0.3098    3.2526    0.0000 C   0  0  0  0  0  0  0  0  0  0  0  0
   -1.9315    2.2140    0.0000 C   0  0  0  0  0  0  0  0  0  0  0  0
   -1.3667    3.1979    0.0000 C   0  0  0  0  0  0  0  0  0  0  0  0
    1.0387    2.0135    0.0000 C   0  0  0  0  0  0  0  0  0  0  0  0
   -1.8768    1.1571    0.0000 C   0  0  0  0  0  0  0  0  0  0  0  0
   -1.1480   -0.0820    0.0000 C   0  0  0  0  0  0  0  0  0  0  0  0
   -2.5875   -0.0820    0.0000 C   0  0  0  0  0  0  0  0  0  0  0  0
    0.3098   -0.1002    0.0000 C   0  0  0  0  0  0  0  0  0  0  0  0
    1.0022    1.1571    0.0000 C   0  0  0  0  0  0  0  0  0  0  0  0
   -2.1501    2.9974    0.0000 C   0  0  0  0  0  0  0  0  0  0  0  0
   -3.2981   -0.5011    0.0000 C   0  0  0  0  0  0  0  0  0  0  0  0
   -2.5511    0.7562    0.0000 C   0  0  0  0  0  0  0  0  0  0  0  0
   -1.8768   -0.4829    0.0000 C   0  0  0  0  0  0  0  0  0  0  0  0
    1.0204    3.6352    0.0000 C   0  0  0  0  0  0  0  0  0  0  0  0
    1.7311    3.2526    0.0000 C   0  0  0  0  0  0  0  0  0  0  0  0
    1.7311    2.4143    0.0000 C   0  0  0  0  0  0  0  0  0  0  0  0
    1.7311   -0.0820    0.0000 C   0  0  0  0  0  0  0  0  0  0  0  0
    1.0022   -0.4829    0.0000 C   0  0  0  0  0  0  0  0  0  0  0  0
    1.7311    0.7380    0.0000 C   0  0  0  0  0  0  0  0  0  0  0  0
   -3.3893   -1.3393    0.0000 C   0  0  0  0  0  0  0  0  0  0  0  0
   -4.0634   -0.1731    0.0000 C   0  0  0  0  0  0  0  0  0  0  0  0
    2.4417   -0.5011    0.0000 C   0  0  0  0  0  0  0  0  0  0  0  0
   -4.5372   -2.2868    0.0000 C   0  0  0  0  0  0  0  0  0  0  0  0
    3.1524   -0.1002    0.0000 C   0  0  0  0  0  0  0  0  0  0  0  0
   -4.0634   -2.9246    0.0000 C   0  0  0  0  0  0  0  0  0  0  0  0
    3.8994   -0.4829    0.0000 C   0  0  0  0  0  0  0  0  0  0  0  0
  1 14  1  0  0  0  0
  2 28  1  0  0  0  0
  3 38  1  0  0  0  0
  4 39  2  0  0  0  0
  5 39  1  0  0  0  0
  6  7  1  0  0  0  0
  6 33  1  0  0  0  0
  6 36  1  0  0  0  0
  7 34  2  0  0  0  0
  8  9  2  0  0  0  0
  8 10  1  0  0  0  0
  8 11  1  0  0  0  0
  9 12  1  0  0  0  0
  9 13  1  0  0  0  0
 10 14  1  0  0  0  0
 10 17  2  0  0  0  0
 11 15  1  0  0  0  0
 11 16  1  0  0  0  0
 12 18  2  0  0  0  0
 12 19  1  0  0  0  0
 13 21  2  0  0  0  0
 13 22  1  0  0  0  0
 14 27  2  0  0  0  0
 15 23  1  0  0  0  0
 16 23  1  0  0  0  0
 17 29  1  0  0  0  0
 18 25  1  0  0  0  0
 19 26  2  0  0  0  0
 20 24  1  0  0  0  0
 20 25  2  0  0  0  0
 20 26  1  0  0  0  0
 21 31  1  0  0  0  0
 22 32  2  0  0  0  0
 24 33  2  0  0  0  0
 24 34  1  0  0  0  0
 27 28  1  0  0  0  0
 28 29  2  0  0  0  0
 30 31  2  0  0  0  0
 30 32  1  0  0  0  0
 30 35  1  0  0  0  0
 35 37  2  0  0  0  0
 36 38  1  0  0  0  0
 37 39  1  0  0  0  0
M  END
> <PUBCHEM_COMPOUND_ID_TYPE>
0

> <PUBCHEM_TOTAL_CHARGE>
0

> <PUBCHEM_SUBSTANCE_ID>
310944929

> <PUBCHEM_SUBSTANCE_VERSION>
1

> <PUBCHEM_EXT_DATASOURCE_NAME>
4488

> <PUBCHEM_EXT_DATASOURCE_REGID>
SCHEMBL16123014

> <PUBCHEM_SUBSTANCE_COMMENT>
InChI=1S/C32H28ClFN2O3/c33-29-18-27(34)13-14-28(29)32(23-2-1-3-23)31(24-7-4-21(5-8-24)6-15-30(38)39)25-11-9-22(10-12-25)26-19-35-36(20-26)16-17-37/h4-15,18-20,23,37H,1-3,16-17H2,(H,38,39)/b15-6+,32-31+
InChIKey=CHSNWKZZFGMCFH-MEOMNHLGSA-N

> <PUBCHEM_SUBSTANCE_SYNONYM>
SCHEMBL16123014

> <PUBCHEM_XREF_EXT_ID>
SCHEMBL16123014

> <PUBCHEM_EXT_DATASOURCE_URL>
https://www.surechembl.org/

> <PUBCHEM_EXT_SUBSTANCE_URL>
https://www.surechembl.org/chemical/SCHEMBL16123014

> <PUBCHEM_CID_ASSOCIATIONS>
86270613  1

> <PUBCHEM_COORDINATE_TYPE>
1
3

$$$$
