310931648
  -OEChem-07211613022D

 31 33  0     0  0  0  0  0  0999 V2000
    3.9928   -2.7389    0.0000 O   0  0  0  0  0  0  0  0  0  0  0  0
    8.4806   -2.8049    0.0000 O   0  0  0  0  0  0  0  0  0  0  0  0
    6.8637   -5.8737    0.0000 O   0  0  0  0  0  0  0  0  0  0  0  0
    4.9167   -1.5839    0.0000 N   0  0  0  0  0  0  0  0  0  0  0  0
    4.8178   -0.7590    0.0000 N   0  0  0  0  0  0  0  0  0  0  0  0
    6.3357   -1.5839    0.0000 N   0  0  0  0  0  0  0  0  0  0  0  0
    7.7546   -4.0588    0.0000 N   0  0  0  0  0  0  0  0  0  0  0  0
    0.0000   -2.4419    0.0000 N   0  0  0  0  0  0  0  0  0  0  0  0
    3.5968   -1.3200    0.0000 C   0  0  0  0  0  0  0  0  0  0  0  0
    4.1578   -1.9139    0.0000 C   0  0  0  0  0  0  0  0  0  0  0  0
    2.7719   -1.4189    0.0000 C   0  0  0  0  0  0  0  0  0  0  0  0
    5.6097   -1.9799    0.0000 C   0  0  0  0  0  0  0  0  0  0  0  0
    3.9928   -0.6270    0.0000 C   0  0  0  0  0  0  0  0  0  0  0  0
    2.2769   -0.7590    0.0000 C   0  0  0  0  0  0  0  0  0  0  0  0
    5.6097   -2.8049    0.0000 C   0  0  0  0  0  0  0  0  0  0  0  0
    7.0616   -2.8049    0.0000 C   0  0  0  0  0  0  0  0  0  0  0  0
    2.4419   -2.1779    0.0000 C   0  0  0  0  0  0  0  0  0  0  0  0
    7.0616   -1.9799    0.0000 C   0  0  0  0  0  0  0  0  0  0  0  0
    6.3357   -3.2338    0.0000 C   0  0  0  0  0  0  0  0  0  0  0  0
    1.4850   -0.8580    0.0000 C   0  0  0  0  0  0  0  0  0  0  0  0
    7.7546   -3.2338    0.0000 C   0  0  0  0  0  0  0  0  0  0  0  0
    1.1549   -1.5839    0.0000 C   0  0  0  0  0  0  0  0  0  0  0  0
    1.6169   -2.2439    0.0000 C   0  0  0  0  0  0  0  0  0  0  0  0
    8.4806   -4.4548    0.0000 C   0  0  0  0  0  0  0  0  0  0  0  0
    2.6069    0.0000    0.0000 C   0  0  0  0  0  0  0  0  0  0  0  0
    0.3300   -1.6829    0.0000 C   0  0  0  0  0  0  0  0  0  0  0  0
    8.0846   -5.1807    0.0000 C   0  0  0  0  0  0  0  0  0  0  0  0
    9.3055   -4.4548    0.0000 C   0  0  0  0  0  0  0  0  0  0  0  0
    8.9096   -3.7288    0.0000 C   0  0  0  0  0  0  0  0  0  0  0  0
    7.2596   -5.1807    0.0000 C   0  0  0  0  0  0  0  0  0  0  0  0
    7.2596   -6.5997    0.0000 C   0  0  0  0  0  0  0  0  0  0  0  0
  1 10  1  0  0  0  0
  2 21  2  0  0  0  0
  3 30  1  0  0  0  0
  3 31  1  0  0  0  0
  4  5  1  0  0  0  0
  4 10  1  0  0  0  0
  4 12  1  0  0  0  0
  5 13  2  0  0  0  0
  6 12  2  0  0  0  0
  6 18  1  0  0  0  0
  7 21  1  0  0  0  0
  7 24  1  0  0  0  0
  8 26  3  0  0  0  0
  9 10  2  0  0  0  0
  9 11  1  0  0  0  0
  9 13  1  0  0  0  0
 11 14  1  0  0  0  0
 11 17  2  0  0  0  0
 12 15  1  0  0  0  0
 14 20  2  0  0  0  0
 14 25  1  0  0  0  0
 15 19  2  0  0  0  0
 16 18  2  0  0  0  0
 16 19  1  0  0  0  0
 16 21  1  0  0  0  0
 17 23  1  0  0  0  0
 20 22  1  0  0  0  0
 22 23  2  0  0  0  0
 22 26  1  0  0  0  0
 24 27  1  0  0  0  0
 24 28  1  0  0  0  0
 24 29  1  0  0  0  0
 27 30  1  0  0  0  0
M  END
> <PUBCHEM_COMPOUND_ID_TYPE>
0

> <PUBCHEM_TOTAL_CHARGE>
0

> <PUBCHEM_SUBSTANCE_ID>
310931648

> <PUBCHEM_SUBSTANCE_VERSION>
1

> <PUBCHEM_EXT_DATASOURCE_NAME>
4488

> <PUBCHEM_EXT_DATASOURCE_REGID>
SCHEMBL16108974

> <PUBCHEM_SUBSTANCE_COMMENT>
InChI=1S/C23H25N5O3/c1-15-11-16(12-24)5-7-18(15)19-14-26-28(22(19)30)20-8-6-17(13-25-20)21(29)27-23(2,3)9-10-31-4/h5-8,11,13-14,30H,9-10H2,1-4H3,(H,27,29)
InChIKey=FUSOSYIDPBNSIY-UHFFFAOYSA-N

> <PUBCHEM_SUBSTANCE_SYNONYM>
SCHEMBL16108974

> <PUBCHEM_XREF_EXT_ID>
SCHEMBL16108974

> <PUBCHEM_EXT_DATASOURCE_URL>
https://www.surechembl.org/

> <PUBCHEM_EXT_SUBSTANCE_URL>
https://www.surechembl.org/chemical/SCHEMBL16108974

> <PUBCHEM_CID_ASSOCIATIONS>
117600359  1

> <PUBCHEM_COORDINATE_TYPE>
1
3

$$$$
