310934606
  -OEChem-07211613022D

 20 22  0     0  0  0  0  0  0999 V2000
    0.6647   -1.1534    0.0000 O   0  0  0  0  0  0  0  0  0  0  0  0
    1.5052    0.0000    0.0000 O   0  0  0  0  0  0  0  0  0  0  0  0
    2.0917   -2.1112    0.0000 N   0  0  0  0  0  0  0  0  0  0  0  0
    2.8736   -2.3849    0.0000 N   0  0  0  0  0  0  0  0  0  0  0  0
    4.1834   -1.7007    0.0000 N   0  0  0  0  0  0  0  0  0  0  0  0
    2.0917   -1.3098    0.0000 C   0  0  0  0  0  0  0  0  0  0  0  0
    3.3623   -1.7007    0.0000 C   0  0  0  0  0  0  0  0  0  0  0  0
    2.8736   -1.0361    0.0000 C   0  0  0  0  0  0  0  0  0  0  0  0
    1.4270   -2.5999    0.0000 C   0  0  0  0  0  0  0  0  0  0  0  0
    1.4270   -0.8210    0.0000 C   0  0  0  0  0  0  0  0  0  0  0  0
    1.5052   -3.4406    0.0000 C   0  0  0  0  0  0  0  0  0  0  0  0
    0.6647   -2.2677    0.0000 C   0  0  0  0  0  0  0  0  0  0  0  0
    4.6721   -1.0361    0.0000 C   0  0  0  0  0  0  0  0  0  0  0  0
    4.6721   -2.3849    0.0000 C   0  0  0  0  0  0  0  0  0  0  0  0
    5.4540   -1.2902    0.0000 C   0  0  0  0  0  0  0  0  0  0  0  0
    5.4540   -2.1112    0.0000 C   0  0  0  0  0  0  0  0  0  0  0  0
    0.8406   -3.9097    0.0000 C   0  0  0  0  0  0  0  0  0  0  0  0
    0.0000   -2.7368    0.0000 C   0  0  0  0  0  0  0  0  0  0  0  0
    0.0782   -3.5773    0.0000 C   0  0  0  0  0  0  0  0  0  0  0  0
    0.0000   -0.6647    0.0000 C   0  0  0  0  0  0  0  0  0  0  0  0
  1 10  1  0  0  0  0
  1 20  1  0  0  0  0
  2 10  2  0  0  0  0
  3  4  1  0  0  0  0
  3  6  1  0  0  0  0
  3  9  1  0  0  0  0
  4  7  2  0  0  0  0
  5  7  1  0  0  0  0
  5 13  1  0  0  0  0
  5 14  1  0  0  0  0
  6  8  2  0  0  0  0
  6 10  1  0  0  0  0
  7  8  1  0  0  0  0
  9 11  2  0  0  0  0
  9 12  1  0  0  0  0
 11 17  1  0  0  0  0
 12 18  2  0  0  0  0
 13 15  1  0  0  0  0
 14 16  1  0  0  0  0
 15 16  1  0  0  0  0
 17 19  2  0  0  0  0
 18 19  1  0  0  0  0
M  END
> <PUBCHEM_COMPOUND_ID_TYPE>
0

> <PUBCHEM_TOTAL_CHARGE>
0

> <PUBCHEM_SUBSTANCE_ID>
310934606

> <PUBCHEM_SUBSTANCE_VERSION>
1

> <PUBCHEM_EXT_DATASOURCE_NAME>
4488

> <PUBCHEM_EXT_DATASOURCE_REGID>
SCHEMBL16112101

> <PUBCHEM_SUBSTANCE_COMMENT>
InChI=1S/C15H17N3O2/c1-20-15(19)13-11-14(17-9-5-6-10-17)16-18(13)12-7-3-2-4-8-12/h2-4,7-8,11H,5-6,9-10H2,1H3
InChIKey=HGRYCRQNADMEQI-UHFFFAOYSA-N

> <PUBCHEM_SUBSTANCE_SYNONYM>
SCHEMBL16112101

> <PUBCHEM_XREF_EXT_ID>
SCHEMBL16112101

> <PUBCHEM_EXT_DATASOURCE_URL>
https://www.surechembl.org/

> <PUBCHEM_EXT_SUBSTANCE_URL>
https://www.surechembl.org/chemical/SCHEMBL16112101

> <PUBCHEM_CID_ASSOCIATIONS>
117602784  1

> <PUBCHEM_COORDINATE_TYPE>
1
3

$$$$
