310938856
  -OEChem-07211613022D

 17 18  0     0  0  0  0  0  0999 V2000
   -1.0587    1.6706    0.0000 O   0  0  0  0  0  0  0  0  0  0  0  0
    1.0587   -1.2168    0.0000 N   0  0  0  0  0  0  0  0  0  0  0  0
    0.3575   -2.4681    0.0000 N   0  0  0  0  0  0  0  0  0  0  0  0
    0.3575    1.6844    0.0000 N   0  0  0  0  0  0  0  0  0  0  0  0
    1.7737   -2.4681    0.0000 N   0  0  0  0  0  0  0  0  0  0  0  0
   -1.7737   -0.4468    0.0000 N   0  0  0  0  0  0  0  0  0  0  0  0
    0.3437   -0.8043    0.0000 C   0  0  0  0  0  0  0  0  0  0  0  0
    0.3575    0.0206    0.0000 C   0  0  0  0  0  0  0  0  0  0  0  0
   -0.3575   -1.2168    0.0000 C   0  0  0  0  0  0  0  0  0  0  0  0
   -0.3575    0.4468    0.0000 C   0  0  0  0  0  0  0  0  0  0  0  0
    1.0725   -2.0555    0.0000 C   0  0  0  0  0  0  0  0  0  0  0  0
   -0.3575   -2.0555    0.0000 C   0  0  0  0  0  0  0  0  0  0  0  0
    1.0587    0.4331    0.0000 C   0  0  0  0  0  0  0  0  0  0  0  0
   -0.3575    1.2718    0.0000 C   0  0  0  0  0  0  0  0  0  0  0  0
   -1.0725   -0.8181    0.0000 C   0  0  0  0  0  0  0  0  0  0  0  0
    1.0725    1.2581    0.0000 C   0  0  0  0  0  0  0  0  0  0  0  0
   -1.0725    2.4681    0.0000 C   0  0  0  0  0  0  0  0  0  0  0  0
  1 14  1  0  0  0  0
  1 17  1  0  0  0  0
  2  7  1  0  0  0  0
  2 11  2  0  0  0  0
  3 11  1  0  0  0  0
  3 12  2  0  0  0  0
  4 14  1  0  0  0  0
  4 16  2  0  0  0  0
  5 11  1  0  0  0  0
  6 15  3  0  0  0  0
  7  8  1  0  0  0  0
  7  9  2  0  0  0  0
  8 10  1  0  0  0  0
  8 13  2  0  0  0  0
  9 12  1  0  0  0  0
  9 15  1  0  0  0  0
 10 14  2  0  0  0  0
 13 16  1  0  0  0  0
M  END
> <PUBCHEM_COMPOUND_ID_TYPE>
0

> <PUBCHEM_TOTAL_CHARGE>
0

> <PUBCHEM_SUBSTANCE_ID>
310938856

> <PUBCHEM_SUBSTANCE_VERSION>
1

> <PUBCHEM_EXT_DATASOURCE_NAME>
4488

> <PUBCHEM_EXT_DATASOURCE_REGID>
SCHEMBL16116775

> <PUBCHEM_SUBSTANCE_COMMENT>
InChI=1S/C11H9N5O/c1-17-9-4-7(2-3-14-9)10-8(5-12)6-15-11(13)16-10/h2-4,6H,1H3,(H2,13,15,16)
InChIKey=CKASGDIZYYOPAP-UHFFFAOYSA-N

> <PUBCHEM_SUBSTANCE_SYNONYM>
SCHEMBL16116775

> <PUBCHEM_XREF_EXT_ID>
SCHEMBL16116775

> <PUBCHEM_EXT_DATASOURCE_URL>
https://www.surechembl.org/

> <PUBCHEM_EXT_SUBSTANCE_URL>
https://www.surechembl.org/chemical/SCHEMBL16116775

> <PUBCHEM_CID_ASSOCIATIONS>
117606255  1

> <PUBCHEM_COORDINATE_TYPE>
1
3

$$$$
