310948090
  -OEChem-07211613022D

 39 43  0     0  0  0  0  0  0999 V2000
    2.8239   -0.5336    0.0000 Cl  0  0  0  0  0  0  0  0  0  0  0  0
    1.3955   -3.0128    0.0000 Cl  0  0  0  0  0  0  0  0  0  0  0  0
   -2.1672   -3.4396    0.0000 S   0  0  0  0  0  0  0  0  0  0  0  0
   -0.4597    3.9650    0.0000 F   0  0  0  0  0  0  0  0  0  0  0  0
    0.6403    4.1292    0.0000 F   0  0  0  0  0  0  0  0  0  0  0  0
    0.7881    3.0291    0.0000 F   0  0  0  0  0  0  0  0  0  0  0  0
    0.8537    1.5351    0.0000 O   0  0  0  0  0  0  0  0  0  0  0  0
   -2.5448   -2.7829    0.0000 O   0  0  0  0  0  0  0  0  0  0  0  0
   -1.7567   -4.1292    0.0000 O   0  0  0  0  0  0  0  0  0  0  0  0
   -0.7388    1.5515    0.0000 N   0  0  0  0  0  0  0  0  0  0  0  0
    2.0195    0.8620    0.0000 N   0  0  0  0  0  0  0  0  0  0  0  0
   -0.0656    2.0440    0.0000 N   0  0  0  0  0  0  0  0  0  0  0  0
   -0.0165    0.3201    0.0000 C   0  0  0  0  0  0  0  0  0  0  0  0
    0.6732    0.7306    0.0000 C   0  0  0  0  0  0  0  0  0  0  0  0
   -0.7388    0.7142    0.0000 C   0  0  0  0  0  0  0  0  0  0  0  0
    1.4120    0.3201    0.0000 C   0  0  0  0  0  0  0  0  0  0  0  0
    1.3955   -0.5171    0.0000 C   0  0  0  0  0  0  0  0  0  0  0  0
   -0.0328   -0.5171    0.0000 C   0  0  0  0  0  0  0  0  0  0  0  0
   -0.7388   -0.9276    0.0000 C   0  0  0  0  0  0  0  0  0  0  0  0
    1.6746    1.6172    0.0000 C   0  0  0  0  0  0  0  0  0  0  0  0
   -1.4448    0.3038    0.0000 C   0  0  0  0  0  0  0  0  0  0  0  0
   -0.3284    2.8321    0.0000 C   0  0  0  0  0  0  0  0  0  0  0  0
   -0.7553   -1.7650    0.0000 C   0  0  0  0  0  0  0  0  0  0  0  0
   -1.4284   -0.5171    0.0000 C   0  0  0  0  0  0  0  0  0  0  0  0
    2.1179   -0.9276    0.0000 C   0  0  0  0  0  0  0  0  0  0  0  0
   -1.3955    2.0440    0.0000 C   0  0  0  0  0  0  0  0  0  0  0  0
    0.1642    3.5053    0.0000 C   0  0  0  0  0  0  0  0  0  0  0  0
   -1.1328    2.8321    0.0000 C   0  0  0  0  0  0  0  0  0  0  0  0
    0.6895   -0.9440    0.0000 C   0  0  0  0  0  0  0  0  0  0  0  0
   -1.4284   -2.1754    0.0000 C   0  0  0  0  0  0  0  0  0  0  0  0
   -1.4448   -3.0128    0.0000 C   0  0  0  0  0  0  0  0  0  0  0  0
    2.1015   -1.7650    0.0000 C   0  0  0  0  0  0  0  0  0  0  0  0
   -0.0328   -2.1919    0.0000 C   0  0  0  0  0  0  0  0  0  0  0  0
    1.4120   -2.1754    0.0000 C   0  0  0  0  0  0  0  0  0  0  0  0
    0.6895   -1.7650    0.0000 C   0  0  0  0  0  0  0  0  0  0  0  0
    2.1015    2.3560    0.0000 C   0  0  0  0  0  0  0  0  0  0  0  0
   -0.7224   -3.4232    0.0000 C   0  0  0  0  0  0  0  0  0  0  0  0
   -0.0328   -3.0128    0.0000 C   0  0  0  0  0  0  0  0  0  0  0  0
   -2.8239   -3.8337    0.0000 C   0  0  0  0  0  0  0  0  0  0  0  0
  1 25  1  0  0  0  0
  2 34  1  0  0  0  0
  3  8  2  0  0  0  0
  3  9  2  0  0  0  0
  3 31  1  0  0  0  0
  3 39  1  0  0  0  0
  4 27  1  0  0  0  0
  5 27  1  0  0  0  0
  6 27  1  0  0  0  0
  7 14  1  0  0  0  0
  7 20  1  0  0  0  0
 10 12  1  0  0  0  0
 10 15  1  0  0  0  0
 10 26  1  0  0  0  0
 11 16  1  0  0  0  0
 11 20  2  0  0  0  0
 12 22  2  0  0  0  0
 13 14  1  0  0  0  0
 13 15  1  0  0  0  0
 13 18  2  0  0  0  0
 14 16  2  0  0  0  0
 15 21  2  0  0  0  0
 16 17  1  0  0  0  0
 17 25  1  0  0  0  0
 17 29  2  0  0  0  0
 18 19  1  0  0  0  0
 19 23  1  0  0  0  0
 19 24  2  0  0  0  0
 20 36  1  0  0  0  0
 21 24  1  0  0  0  0
 22 27  1  0  0  0  0
 22 28  1  0  0  0  0
 23 30  2  0  0  0  0
 23 33  1  0  0  0  0
 25 32  2  0  0  0  0
 26 28  2  0  0  0  0
 29 35  1  0  0  0  0
 30 31  1  0  0  0  0
 31 37  2  0  0  0  0
 32 34  1  0  0  0  0
 33 38  2  0  0  0  0
 34 35  2  0  0  0  0
 37 38  1  0  0  0  0
M  END
> <PUBCHEM_COMPOUND_ID_TYPE>
0

> <PUBCHEM_TOTAL_CHARGE>
0

> <PUBCHEM_SUBSTANCE_ID>
310948090

> <PUBCHEM_SUBSTANCE_VERSION>
1

> <PUBCHEM_EXT_DATASOURCE_NAME>
4488

> <PUBCHEM_EXT_DATASOURCE_REGID>
SCHEMBL16126266

> <PUBCHEM_SUBSTANCE_COMMENT>
InChI=1S/C27H18Cl2F3N3O3S/c1-15-33-25(20-8-7-18(28)14-22(20)29)26(38-15)21-13-17(16-4-3-5-19(12-16)39(2,36)37)6-9-23(21)35-11-10-24(34-35)27(30,31)32/h3-14H,1-2H3
InChIKey=MGBGWVPWNRCFKT-UHFFFAOYSA-N

> <PUBCHEM_SUBSTANCE_SYNONYM>
SCHEMBL16126266

> <PUBCHEM_XREF_EXT_ID>
SCHEMBL16126266

> <PUBCHEM_EXT_DATASOURCE_URL>
https://www.surechembl.org/

> <PUBCHEM_EXT_SUBSTANCE_URL>
https://www.surechembl.org/chemical/SCHEMBL16126266

> <PUBCHEM_CID_ASSOCIATIONS>
117613709  1

> <PUBCHEM_COORDINATE_TYPE>
1
3

$$$$
