310945163
  -OEChem-07211613022D

 31 36  0     0  0  0  0  0  0999 V2000
    0.0280   -0.8036    0.0000 O   0  0  0  0  0  0  0  0  0  0  0  0
    4.9056    1.4465    0.0000 O   0  0  0  0  0  0  0  0  0  0  0  0
   -3.2983    0.4682    0.0000 O   0  0  0  0  0  0  0  0  0  0  0  0
    3.0887    0.1887    0.0000 N   0  0  0  0  0  0  0  0  0  0  0  0
    4.7518    0.0210    0.0000 N   0  0  0  0  0  0  0  0  0  0  0  0
   -0.6568    0.3704    0.0000 N   0  0  0  0  0  0  0  0  0  0  0  0
   -3.2983   -0.9574    0.0000 N   0  0  0  0  0  0  0  0  0  0  0  0
    3.4241   -0.5660    0.0000 C   0  0  0  0  0  0  0  0  0  0  0  0
    2.2781    0.4682    0.0000 C   0  0  0  0  0  0  0  0  0  0  0  0
    3.5779    0.8735    0.0000 C   0  0  0  0  0  0  0  0  0  0  0  0
    2.2920    1.2928    0.0000 C   0  0  0  0  0  0  0  0  0  0  0  0
    3.0887    1.5443    0.0000 C   0  0  0  0  0  0  0  0  0  0  0  0
    4.3884    0.7617    0.0000 C   0  0  0  0  0  0  0  0  0  0  0  0
    4.2627   -0.6499    0.0000 C   0  0  0  0  0  0  0  0  0  0  0  0
    2.6135   -0.7058    0.0000 C   0  0  0  0  0  0  0  0  0  0  0  0
    3.5499   -1.3767    0.0000 C   0  0  0  0  0  0  0  0  0  0  0  0
    1.5653    0.0349    0.0000 C   0  0  0  0  0  0  0  0  0  0  0  0
    0.8246    0.4542    0.0000 C   0  0  0  0  0  0  0  0  0  0  0  0
    2.7393   -1.5024    0.0000 C   0  0  0  0  0  0  0  0  0  0  0  0
    1.5513    1.6841    0.0000 C   0  0  0  0  0  0  0  0  0  0  0  0
    0.1258    0.0349    0.0000 C   0  0  0  0  0  0  0  0  0  0  0  0
    0.8385    1.2788    0.0000 C   0  0  0  0  0  0  0  0  0  0  0  0
   -1.2159   -0.2446    0.0000 C   0  0  0  0  0  0  0  0  0  0  0  0
   -0.7966   -0.9574    0.0000 C   0  0  0  0  0  0  0  0  0  0  0  0
   -2.0405   -0.2446    0.0000 C   0  0  0  0  0  0  0  0  0  0  0  0
   -1.2159   -1.6841    0.0000 C   0  0  0  0  0  0  0  0  0  0  0  0
   -2.4598   -0.9574    0.0000 C   0  0  0  0  0  0  0  0  0  0  0  0
   -2.0405   -1.6841    0.0000 C   0  0  0  0  0  0  0  0  0  0  0  0
   -3.7316   -0.2585    0.0000 C   0  0  0  0  0  0  0  0  0  0  0  0
   -4.5561   -0.2306    0.0000 C   0  0  0  0  0  0  0  0  0  0  0  0
   -4.9056    0.5102    0.0000 C   0  0  0  0  0  0  0  0  0  0  0  0
  1 21  1  0  0  0  0
  1 24  1  0  0  0  0
  2 13  2  0  0  0  0
  3 29  2  0  0  0  0
  4  8  1  0  0  0  0
  4  9  1  0  0  0  0
  4 10  1  0  0  0  0
  5 13  1  0  0  0  0
  5 14  1  0  0  0  0
  6 21  2  0  0  0  0
  6 23  1  0  0  0  0
  7 27  1  0  0  0  0
  7 29  1  0  0  0  0
  8 14  1  0  0  0  0
  8 15  1  0  0  0  0
  8 16  1  0  0  0  0
  9 11  1  0  0  0  0
  9 17  2  0  0  0  0
 10 12  2  0  0  0  0
 10 13  1  0  0  0  0
 11 12  1  0  0  0  0
 11 20  2  0  0  0  0
 15 19  1  0  0  0  0
 16 19  1  0  0  0  0
 17 18  1  0  0  0  0
 18 21  1  0  0  0  0
 18 22  2  0  0  0  0
 20 22  1  0  0  0  0
 23 24  2  0  0  0  0
 23 25  1  0  0  0  0
 24 26  1  0  0  0  0
 25 27  2  0  0  0  0
 26 28  2  0  0  0  0
 27 28  1  0  0  0  0
 29 30  1  0  0  0  0
 30 31  2  0  0  0  0
M  END
> <PUBCHEM_COMPOUND_ID_TYPE>
0

> <PUBCHEM_TOTAL_CHARGE>
0

> <PUBCHEM_SUBSTANCE_ID>
310945163

> <PUBCHEM_SUBSTANCE_VERSION>
1

> <PUBCHEM_EXT_DATASOURCE_NAME>
4488

> <PUBCHEM_EXT_DATASOURCE_REGID>
SCHEMBL16123253

> <PUBCHEM_SUBSTANCE_COMMENT>
InChI=1S/C24H20N4O3/c1-2-21(29)26-16-6-7-20-17(12-16)27-23(31-20)15-5-4-14-10-19-22(30)25-13-24(8-3-9-24)28(19)18(14)11-15/h2,4-7,10-12H,1,3,8-9,13H2,(H,25,30)(H,26,29)
InChIKey=HPGPISZQLWBXIQ-UHFFFAOYSA-N

> <PUBCHEM_SUBSTANCE_SYNONYM>
SCHEMBL16123253

> <PUBCHEM_XREF_EXT_ID>
SCHEMBL16123253

> <PUBCHEM_EXT_DATASOURCE_URL>
https://www.surechembl.org/

> <PUBCHEM_EXT_SUBSTANCE_URL>
https://www.surechembl.org/chemical/SCHEMBL16123253

> <PUBCHEM_CID_ASSOCIATIONS>
117611249  1

> <PUBCHEM_COORDINATE_TYPE>
1
3

$$$$
