310948272
  -OEChem-07211613022D

 39 44  0     1  0  0  0  0  0999 V2000
   -0.3602   -1.7317    0.0000 S   0  0  0  0  0  0  0  0  0  0  0  0
    1.9256   -4.2945    0.0000 F   0  0  0  0  0  0  0  0  0  0  0  0
    0.8866   -4.4608    0.0000 F   0  0  0  0  0  0  0  0  0  0  0  0
   -0.0970   -2.5213    0.0000 O   0  0  0  0  0  0  0  0  0  0  0  0
   -1.1083   -2.0641    0.0000 O   0  0  0  0  0  0  0  0  0  0  0  0
   -2.6044    2.7984    0.0000 O   0  0  0  0  0  0  0  0  0  0  0  0
    0.4572   -1.5515    0.0000 N   0  0  3  0  0  0  0  0  0  0  0  0
    0.1801    2.6598    0.0000 N   0  0  0  0  0  0  0  0  0  0  0  0
   -0.1524    1.8979    0.0000 N   0  0  0  0  0  0  0  0  0  0  0  0
   -1.5377    1.3715    0.0000 N   0  0  0  0  0  0  0  0  0  0  0  0
   -1.8841    4.0590    0.0000 N   0  0  0  0  0  0  0  0  0  0  0  0
    1.0390    0.6373    0.0000 N   0  0  0  0  0  0  0  0  0  0  0  0
   -0.7758   -0.9974    0.0000 C   0  0  0  0  0  0  0  0  0  0  0  0
    1.0806   -2.1057    0.0000 C   0  0  0  0  0  0  0  0  0  0  0  0
   -0.2216   -0.3879    0.0000 C   0  0  0  0  0  0  0  0  0  0  0  0
    0.5403   -0.7204    0.0000 C   0  0  0  0  0  0  0  0  0  0  0  0
   -1.1499    2.8122    0.0000 C   0  0  0  0  0  0  0  0  0  0  0  0
   -0.9836    1.9949    0.0000 C   0  0  0  0  0  0  0  0  0  0  0  0
   -0.4433    3.2278    0.0000 C   0  0  0  0  0  0  0  0  0  0  0  0
   -0.4710    0.4018    0.0000 C   0  0  0  0  0  0  0  0  0  0  0  0
   -1.5792   -0.8173    0.0000 C   0  0  0  0  0  0  0  0  0  0  0  0
   -1.2884    0.5819    0.0000 C   0  0  0  0  0  0  0  0  0  0  0  0
    0.4433   -2.6183    0.0000 C   0  0  0  0  0  0  0  0  0  0  0  0
    1.8425   -2.4244    0.0000 C   0  0  0  0  0  0  0  0  0  0  0  0
   -1.8287   -0.0416    0.0000 C   0  0  0  0  0  0  0  0  0  0  0  0
    0.9974    2.8399    0.0000 C   0  0  3  0  0  0  0  0  0  0  0  0
   -1.8841    3.2278    0.0000 C   0  0  0  0  0  0  0  0  0  0  0  0
    1.4961   -1.3853    0.0000 C   0  0  0  0  0  0  0  0  0  0  0  0
    1.3022   -3.7404    0.0000 C   0  0  0  0  0  0  0  0  0  0  0  0
    0.5542   -3.4356    0.0000 C   0  0  0  0  0  0  0  0  0  0  0  0
    1.9533   -3.2278    0.0000 C   0  0  0  0  0  0  0  0  0  0  0  0
   -0.4295    4.0452    0.0000 C   0  0  0  0  0  0  0  0  0  0  0  0
    1.5654    2.2165    0.0000 C   0  0  3  0  0  0  0  0  0  0  0  0
   -1.1776    4.4608    0.0000 C   0  0  0  0  0  0  0  0  0  0  0  0
    1.2607    3.6157    0.0000 C   0  0  0  0  0  0  0  0  0  0  0  0
    2.3690    2.3967    0.0000 C   0  0  0  0  0  0  0  0  0  0  0  0
    1.2884    1.4407    0.0000 C   0  0  0  0  0  0  0  0  0  0  0  0
    2.0780    3.7820    0.0000 C   0  0  0  0  0  0  0  0  0  0  0  0
    2.6044    3.1863    0.0000 C   0  0  0  0  0  0  0  0  0  0  0  0
  1  4  2  0  0  0  0
  1  5  2  0  0  0  0
  1  7  1  0  0  0  0
  1 13  1  0  0  0  0
  2 29  1  0  0  0  0
  3 29  1  0  0  0  0
  6 27  2  0  0  0  0
  7 14  1  0  0  0  0
  7 16  1  0  0  0  0
  8  9  1  0  0  0  0
  8 19  1  0  0  0  0
 26  8  1  1  0  0  0
  9 18  2  0  0  0  0
 10 18  1  0  0  0  0
 10 22  1  0  0  0  0
 11 27  1  0  0  0  0
 11 34  1  0  0  0  0
 12 37  3  0  0  0  0
 13 15  1  0  0  0  0
 13 21  2  0  0  0  0
 14 23  1  0  0  0  0
 14 24  1  0  0  0  0
 14 28  1  0  0  0  0
 15 16  1  0  0  0  0
 15 20  2  0  0  0  0
 17 18  1  0  0  0  0
 17 19  2  0  0  0  0
 17 27  1  0  0  0  0
 19 32  1  0  0  0  0
 20 22  1  0  0  0  0
 21 25  1  0  0  0  0
 22 25  2  0  0  0  0
 23 30  1  0  0  0  0
 24 31  1  0  0  0  0
 26 33  1  0  0  0  0
 26 35  1  0  0  0  0
 29 30  1  0  0  0  0
 29 31  1  0  0  0  0
 32 34  2  0  0  0  0
 33 36  1  0  0  0  0
 33 37  1  6  0  0  0
 35 38  1  0  0  0  0
 36 39  1  0  0  0  0
 38 39  1  0  0  0  0
M  END
> <PUBCHEM_COMPOUND_ID_TYPE>
0

> <PUBCHEM_TOTAL_CHARGE>
0

> <PUBCHEM_SUBSTANCE_ID>
310948272

> <PUBCHEM_SUBSTANCE_VERSION>
1

> <PUBCHEM_EXT_DATASOURCE_NAME>
4488

> <PUBCHEM_EXT_DATASOURCE_REGID>
SCHEMBL16126449

> <PUBCHEM_SUBSTANCE_COMMENT>
InChI=1S/C27H30F2N6O3S/c1-26(9-11-27(28,29)12-10-26)34-16-18-14-19(6-7-22(18)39(34,37)38)32-24-23-21(8-13-31-25(23)36)35(33-24)20-5-3-2-4-17(20)15-30/h6-8,13-14,17,20H,2-5,9-12,16H2,1H3,(H,31,36)(H,32,33)/t17-,20+/m1/s1
InChIKey=LTAMQRMCZLUHAR-XLIONFOSSA-N

> <PUBCHEM_SUBSTANCE_SYNONYM>
SCHEMBL16126449

> <PUBCHEM_XREF_EXT_ID>
SCHEMBL16126449

> <PUBCHEM_EXT_DATASOURCE_URL>
https://www.surechembl.org/

> <PUBCHEM_EXT_SUBSTANCE_URL>
https://www.surechembl.org/chemical/SCHEMBL16126449

> <PUBCHEM_CID_ASSOCIATIONS>
117613852  1

> <PUBCHEM_COORDINATE_TYPE>
1
3

> <PUBCHEM_BONDANNOTATIONS>
33  37  6
26  8  5

$$$$
