310947065
  -OEChem-07211613022D

 39 43  0     0  0  0  0  0  0999 V2000
   -0.3836   -2.8679    0.0000 O   0  0  0  0  0  0  0  0  0  0  0  0
    0.1726    0.1055    0.0000 O   0  0  0  0  0  0  0  0  0  0  0  0
   -2.7815   -2.9254    0.0000 O   0  0  0  0  0  0  0  0  0  0  0  0
   -1.3811   -3.1939    0.0000 O   0  0  0  0  0  0  0  0  0  0  0  0
    1.6881    2.4266    0.0000 N   0  0  0  0  0  0  0  0  0  0  0  0
    2.1676    1.7552    0.0000 N   0  0  0  0  0  0  0  0  0  0  0  0
   -1.0742   -1.5633    0.0000 N   0  0  0  0  0  0  0  0  0  0  0  0
    1.9374    0.2973    0.0000 N   0  0  0  0  0  0  0  0  0  0  0  0
   -0.5372    1.3524    0.0000 N   0  0  0  0  0  0  0  0  0  0  0  0
    4.1051    2.7719    0.0000 N   0  0  0  0  0  0  0  0  0  0  0  0
    0.9016    2.1772    0.0000 C   0  0  0  0  0  0  0  0  0  0  0  0
    1.9374    3.2131    0.0000 C   0  0  0  0  0  0  0  0  0  0  0  0
    0.8825    1.3524    0.0000 C   0  0  0  0  0  0  0  0  0  0  0  0
    1.6690    1.0838    0.0000 C   0  0  0  0  0  0  0  0  0  0  0  0
    0.2685   -1.5250    0.0000 C   0  0  0  0  0  0  0  0  0  0  0  0
    0.0191   -0.7578    0.0000 C   0  0  0  0  0  0  0  0  0  0  0  0
   -0.3836   -2.0046    0.0000 C   0  0  0  0  0  0  0  0  0  0  0  0
   -1.8607   -1.8320    0.0000 C   0  0  0  0  0  0  0  0  0  0  0  0
    0.1918    0.9687    0.0000 C   0  0  0  0  0  0  0  0  0  0  0  0
    1.3811   -0.3165    0.0000 C   0  0  0  0  0  0  0  0  0  0  0  0
   -0.8057   -0.7961    0.0000 C   0  0  0  0  0  0  0  0  0  0  0  0
    0.1726    2.5800    0.0000 C   0  0  0  0  0  0  0  0  0  0  0  0
    1.1893    3.5583    0.0000 C   0  0  0  0  0  0  0  0  0  0  0  0
    2.4745    3.8462    0.0000 C   0  0  0  0  0  0  0  0  0  0  0  0
    0.5756   -0.1438    0.0000 C   0  0  0  0  0  0  0  0  0  0  0  0
    2.4938    2.6185    0.0000 C   0  0  0  0  0  0  0  0  0  0  0  0
    1.0934   -1.6977    0.0000 C   0  0  0  0  0  0  0  0  0  0  0  0
   -2.0334   -2.6377    0.0000 C   0  0  0  0  0  0  0  0  0  0  0  0
    1.6306   -1.1030    0.0000 C   0  0  0  0  0  0  0  0  0  0  0  0
   -0.5179    2.1772    0.0000 C   0  0  0  0  0  0  0  0  0  0  0  0
    1.2852    4.3832    0.0000 C   0  0  0  0  0  0  0  0  0  0  0  0
    2.0718    4.5367    0.0000 C   0  0  0  0  0  0  0  0  0  0  0  0
   -3.0501   -1.6785    0.0000 C   0  0  0  0  0  0  0  0  0  0  0  0
   -2.5129   -1.0647    0.0000 C   0  0  0  0  0  0  0  0  0  0  0  0
    3.2803    2.7719    0.0000 C   0  0  0  0  0  0  0  0  0  0  0  0
   -2.9350   -3.7503    0.0000 C   0  0  0  0  0  0  0  0  0  0  0  0
   -4.1051   -3.9997    0.0000 C   0  0  0  0  0  0  0  0  0  0  0  0
   -2.3211   -4.2681    0.0000 C   0  0  0  0  0  0  0  0  0  0  0  0
   -3.4912   -4.5367    0.0000 C   0  0  0  0  0  0  0  0  0  0  0  0
  1 17  2  0  0  0  0
  2 19  2  0  0  0  0
  3 28  1  0  0  0  0
  3 36  1  0  0  0  0
  4 28  2  0  0  0  0
  5  6  1  0  0  0  0
  5 11  1  0  0  0  0
  5 12  1  0  0  0  0
  6 14  2  0  0  0  0
  7 17  1  0  0  0  0
  7 18  1  0  0  0  0
  7 21  1  0  0  0  0
  8 14  1  0  0  0  0
  8 20  1  0  0  0  0
  9 19  1  0  0  0  0
  9 30  1  0  0  0  0
 10 35  3  0  0  0  0
 11 13  2  0  0  0  0
 11 22  1  0  0  0  0
 12 23  1  0  0  0  0
 12 24  1  0  0  0  0
 12 26  1  0  0  0  0
 13 14  1  0  0  0  0
 13 19  1  0  0  0  0
 15 16  1  0  0  0  0
 15 17  1  0  0  0  0
 15 27  2  0  0  0  0
 16 21  1  0  0  0  0
 16 25  2  0  0  0  0
 18 28  1  0  0  0  0
 18 33  1  0  0  0  0
 18 34  1  0  0  0  0
 20 25  1  0  0  0  0
 20 29  2  0  0  0  0
 22 30  2  0  0  0  0
 23 31  1  0  0  0  0
 24 32  1  0  0  0  0
 26 35  1  0  0  0  0
 27 29  1  0  0  0  0
 31 32  1  0  0  0  0
 36 37  1  0  0  0  0
 36 38  1  0  0  0  0
 36 39  1  0  0  0  0
M  END
> <PUBCHEM_COMPOUND_ID_TYPE>
0

> <PUBCHEM_TOTAL_CHARGE>
0

> <PUBCHEM_SUBSTANCE_ID>
310947065

> <PUBCHEM_SUBSTANCE_VERSION>
1

> <PUBCHEM_EXT_DATASOURCE_NAME>
4488

> <PUBCHEM_EXT_DATASOURCE_REGID>
SCHEMBL16125219

> <PUBCHEM_SUBSTANCE_COMMENT>
InChI=1S/C29H34N6O4/c1-27(2,3)39-26(38)28(4,5)34-17-18-16-19(8-9-20(18)25(34)37)32-23-22-21(10-15-31-24(22)36)35(33-23)29(13-14-30)11-6-7-12-29/h8-10,15-16H,6-7,11-13,17H2,1-5H3,(H,31,36)(H,32,33)
InChIKey=YOFVFRHRYLERED-UHFFFAOYSA-N

> <PUBCHEM_SUBSTANCE_SYNONYM>
SCHEMBL16125219

> <PUBCHEM_XREF_EXT_ID>
SCHEMBL16125219

> <PUBCHEM_EXT_DATASOURCE_URL>
https://www.surechembl.org/

> <PUBCHEM_EXT_SUBSTANCE_URL>
https://www.surechembl.org/chemical/SCHEMBL16125219

> <PUBCHEM_CID_ASSOCIATIONS>
86270253  1

> <PUBCHEM_COORDINATE_TYPE>
1
3

$$$$
