310948476
  -OEChem-07211613022D

 31 35  0     1  0  0  0  0  0999 V2000
   -2.5991    1.9332    0.0000 O   0  0  0  0  0  0  0  0  0  0  0  0
    0.1757    1.7852    0.0000 N   0  0  0  0  0  0  0  0  0  0  0  0
   -0.1757    1.0267    0.0000 N   0  0  0  0  0  0  0  0  0  0  0  0
   -1.5632    0.5087    0.0000 N   0  0  0  0  0  0  0  0  0  0  0  0
   -1.8592    3.1911    0.0000 N   0  0  0  0  0  0  0  0  0  0  0  0
    0.2498   -2.8397    0.0000 N   0  0  0  0  0  0  0  0  0  0  0  0
    1.1192   -0.2312    0.0000 N   0  0  0  0  0  0  0  0  0  0  0  0
    0.5827   -3.5981    0.0000 N   0  0  0  0  0  0  0  0  0  0  0  0
    1.3967   -3.5241    0.0000 N   0  0  0  0  0  0  0  0  0  0  0  0
   -1.1377    1.9332    0.0000 C   0  0  0  0  0  0  0  0  0  0  0  0
   -0.4532    2.3402    0.0000 C   0  0  0  0  0  0  0  0  0  0  0  0
   -1.0082    1.1192    0.0000 C   0  0  0  0  0  0  0  0  0  0  0  0
    0.9712    1.9332    0.0000 C   0  0  3  0  0  0  0  0  0  0  0  0
   -1.8777    2.3586    0.0000 C   0  0  0  0  0  0  0  0  0  0  0  0
   -0.4348    3.1726    0.0000 C   0  0  0  0  0  0  0  0  0  0  0  0
    1.5447    1.3227    0.0000 C   0  0  3  0  0  0  0  0  0  0  0  0
   -1.1377    3.5981    0.0000 C   0  0  0  0  0  0  0  0  0  0  0  0
    1.2487    2.7287    0.0000 C   0  0  0  0  0  0  0  0  0  0  0  0
   -1.3042   -0.2682    0.0000 C   0  0  0  0  0  0  0  0  0  0  0  0
    2.3402    1.4892    0.0000 C   0  0  0  0  0  0  0  0  0  0  0  0
    1.3227    0.5457    0.0000 C   0  0  0  0  0  0  0  0  0  0  0  0
    2.0627    2.8766    0.0000 C   0  0  0  0  0  0  0  0  0  0  0  0
   -1.8407   -0.8787    0.0000 C   0  0  0  0  0  0  0  0  0  0  0  0
   -0.5087   -0.4717    0.0000 C   0  0  0  0  0  0  0  0  0  0  0  0
    2.5991    2.2846    0.0000 C   0  0  0  0  0  0  0  0  0  0  0  0
   -0.8047   -1.8777    0.0000 C   0  0  0  0  0  0  0  0  0  0  0  0
   -1.6002   -1.6926    0.0000 C   0  0  0  0  0  0  0  0  0  0  0  0
   -0.2498   -1.2672    0.0000 C   0  0  0  0  0  0  0  0  0  0  0  0
   -0.5642   -2.6547    0.0000 C   0  0  0  0  0  0  0  0  0  0  0  0
    0.8417   -2.3032    0.0000 C   0  0  0  0  0  0  0  0  0  0  0  0
    1.5632   -2.7101    0.0000 C   0  0  0  0  0  0  0  0  0  0  0  0
  1 14  2  0  0  0  0
  2  3  1  0  0  0  0
  2 11  1  0  0  0  0
 13  2  1  1  0  0  0
  3 12  2  0  0  0  0
  4 12  1  0  0  0  0
  4 19  1  0  0  0  0
  5 14  1  0  0  0  0
  5 17  1  0  0  0  0
  6  8  1  0  0  0  0
  6 29  1  0  0  0  0
  6 30  1  0  0  0  0
  7 21  3  0  0  0  0
  8  9  2  0  0  0  0
  9 31  1  0  0  0  0
 10 11  2  0  0  0  0
 10 12  1  0  0  0  0
 10 14  1  0  0  0  0
 11 15  1  0  0  0  0
 13 16  1  0  0  0  0
 13 18  1  0  0  0  0
 15 17  2  0  0  0  0
 16 20  1  0  0  0  0
 16 21  1  6  0  0  0
 18 22  1  0  0  0  0
 19 23  2  0  0  0  0
 19 24  1  0  0  0  0
 20 25  1  0  0  0  0
 22 25  1  0  0  0  0
 23 27  1  0  0  0  0
 24 28  2  0  0  0  0
 26 27  2  0  0  0  0
 26 28  1  0  0  0  0
 26 29  1  0  0  0  0
 30 31  2  0  0  0  0
M  END
> <PUBCHEM_COMPOUND_ID_TYPE>
0

> <PUBCHEM_TOTAL_CHARGE>
0

> <PUBCHEM_SUBSTANCE_ID>
310948476

> <PUBCHEM_SUBSTANCE_VERSION>
1

> <PUBCHEM_EXT_DATASOURCE_NAME>
4488

> <PUBCHEM_EXT_DATASOURCE_REGID>
SCHEMBL16126658

> <PUBCHEM_SUBSTANCE_COMMENT>
InChI=1S/C22H22N8O/c23-13-16-3-1-2-4-18(16)30-19-9-10-24-22(31)20(19)21(27-30)26-17-7-5-15(6-8-17)14-29-12-11-25-28-29/h5-12,16,18H,1-4,14H2,(H,24,31)(H,26,27)/t16-,18+/m1/s1
InChIKey=GONZLJVLCOTHTL-AEFFLSMTSA-N

> <PUBCHEM_SUBSTANCE_SYNONYM>
SCHEMBL16126658

> <PUBCHEM_XREF_EXT_ID>
SCHEMBL16126658

> <PUBCHEM_EXT_DATASOURCE_URL>
https://www.surechembl.org/

> <PUBCHEM_EXT_SUBSTANCE_URL>
https://www.surechembl.org/chemical/SCHEMBL16126658

> <PUBCHEM_CID_ASSOCIATIONS>
117614034  1

> <PUBCHEM_COORDINATE_TYPE>
1
3

> <PUBCHEM_BONDANNOTATIONS>
16  21  6
13  2  5

$$$$
