310945380
  -OEChem-07211613022D

 31 34  0     0  0  0  0  0  0999 V2000
   -4.0698   -1.6568    0.0000 Cl  0  0  0  0  0  0  0  0  0  0  0  0
   -0.2062    0.4193    0.0000 O   0  0  0  0  0  0  0  0  0  0  0  0
   -3.0249    1.2306    0.0000 O   0  0  0  0  0  0  0  0  0  0  0  0
    4.0698    1.1893    0.0000 O   0  0  0  0  0  0  0  0  0  0  0  0
   -0.9075    0.0069    0.0000 N   0  0  0  0  0  0  0  0  0  0  0  0
   -1.6362    1.2306    0.0000 N   0  0  0  0  0  0  0  0  0  0  0  0
    1.2237    2.0556    0.0000 N   0  0  0  0  0  0  0  0  0  0  0  0
   -2.3374   -2.4818    0.0000 N   0  0  0  0  0  0  0  0  0  0  0  0
   -1.6225   -0.3644    0.0000 C   0  0  0  0  0  0  0  0  0  0  0  0
   -2.3512    0.0344    0.0000 C   0  0  0  0  0  0  0  0  0  0  0  0
   -1.6499   -1.2031    0.0000 C   0  0  0  0  0  0  0  0  0  0  0  0
   -2.3374   -1.6019    0.0000 C   0  0  0  0  0  0  0  0  0  0  0  0
   -3.0524   -1.1893    0.0000 C   0  0  0  0  0  0  0  0  0  0  0  0
   -2.2962    0.8593    0.0000 C   0  0  0  0  0  0  0  0  0  0  0  0
   -3.0387   -0.3781    0.0000 C   0  0  0  0  0  0  0  0  0  0  0  0
   -0.2062    1.2443    0.0000 C   0  0  0  0  0  0  0  0  0  0  0  0
   -0.9075   -1.6156    0.0000 C   0  0  0  0  0  0  0  0  0  0  0  0
   -0.8799    0.8731    0.0000 C   0  0  0  0  0  0  0  0  0  0  0  0
   -0.1788    2.0831    0.0000 C   0  0  0  0  0  0  0  0  0  0  0  0
    0.5362    0.8456    0.0000 C   0  0  0  0  0  0  0  0  0  0  0  0
   -0.2200   -0.3919    0.0000 C   0  0  0  0  0  0  0  0  0  0  0  0
   -0.2200   -1.2169    0.0000 C   0  0  0  0  0  0  0  0  0  0  0  0
    0.5225    2.4818    0.0000 C   0  0  0  0  0  0  0  0  0  0  0  0
    1.2100    1.2443    0.0000 C   0  0  0  0  0  0  0  0  0  0  0  0
    1.9387    2.4818    0.0000 C   0  0  0  0  0  0  0  0  0  0  0  0
    2.6400    2.0693    0.0000 C   0  0  0  0  0  0  0  0  0  0  0  0
   -0.6050    0.8043    0.0000 C   0  0  0  0  0  0  0  0  0  0  0  0
    2.6537    1.2443    0.0000 C   0  0  0  0  0  0  0  0  0  0  0  0
    3.3549    2.4681    0.0000 C   0  0  0  0  0  0  0  0  0  0  0  0
    4.0698    2.0556    0.0000 C   0  0  0  0  0  0  0  0  0  0  0  0
    3.3687    0.8319    0.0000 C   0  0  0  0  0  0  0  0  0  0  0  0
  1 13  1  0  0  0  0
  2 16  1  0  0  0  0
  2 27  1  0  0  0  0
  3 14  2  0  0  0  0
  4 30  1  0  0  0  0
  4 31  1  0  0  0  0
  5  9  1  0  0  0  0
  5 21  2  0  0  0  0
  6 14  1  0  0  0  0
  6 18  1  0  0  0  0
  7 23  1  0  0  0  0
  7 24  1  0  0  0  0
  7 25  1  0  0  0  0
  8 12  1  0  0  0  0
  9 10  2  0  0  0  0
  9 11  1  0  0  0  0
 10 14  1  0  0  0  0
 10 15  1  0  0  0  0
 11 12  2  0  0  0  0
 11 17  1  0  0  0  0
 12 13  1  0  0  0  0
 13 15  2  0  0  0  0
 16 18  1  0  0  0  0
 16 19  1  0  0  0  0
 16 20  1  0  0  0  0
 17 22  2  0  0  0  0
 19 23  1  0  0  0  0
 20 24  1  0  0  0  0
 21 22  1  0  0  0  0
 25 26  1  0  0  0  0
 26 28  1  0  0  0  0
 26 29  1  0  0  0  0
 28 31  1  0  0  0  0
 29 30  1  0  0  0  0
M  END
> <PUBCHEM_COMPOUND_ID_TYPE>
0

> <PUBCHEM_TOTAL_CHARGE>
0

> <PUBCHEM_SUBSTANCE_ID>
310945380

> <PUBCHEM_SUBSTANCE_VERSION>
1

> <PUBCHEM_EXT_DATASOURCE_NAME>
4488

> <PUBCHEM_EXT_DATASOURCE_REGID>
SCHEMBL16123478

> <PUBCHEM_SUBSTANCE_COMMENT>
InChI=1S/C23H31ClN4O3/c1-30-23(6-9-28(10-7-23)14-16-4-11-31-12-5-16)15-27-22(29)18-13-19(24)20(25)17-3-2-8-26-21(17)18/h2-3,8,13,16H,4-7,9-12,14-15,25H2,1H3,(H,27,29)
InChIKey=VTTAQOQUONAOIB-UHFFFAOYSA-N

> <PUBCHEM_SUBSTANCE_SYNONYM>
SCHEMBL16123478

> <PUBCHEM_XREF_EXT_ID>
SCHEMBL16123478

> <PUBCHEM_EXT_DATASOURCE_URL>
https://www.surechembl.org/

> <PUBCHEM_EXT_SUBSTANCE_URL>
https://www.surechembl.org/chemical/SCHEMBL16123478

> <PUBCHEM_CID_ASSOCIATIONS>
117611433  1

> <PUBCHEM_COORDINATE_TYPE>
1
3

$$$$
