310944171
  -OEChem-07211613022D

 32 36  0     1  0  0  0  0  0999 V2000
    2.5702    0.7423    0.0000 O   0  0  0  0  0  0  0  0  0  0  0  0
    5.4396   -0.1219    0.0000 O   0  0  0  0  0  0  0  0  0  0  0  0
   -0.7755   -1.4180    0.0000 O   0  0  0  0  0  0  0  0  0  0  0  0
    5.5615    1.3516    0.0000 O   0  0  0  0  0  0  0  0  0  0  0  0
    3.3346   -0.5207    0.0000 N   0  0  0  0  0  0  0  0  0  0  0  0
    0.3878   -0.2216    0.0000 N   0  0  0  0  0  0  0  0  0  0  0  0
   -4.2210    0.1994    0.0000 N   0  0  0  0  0  0  0  0  0  0  0  0
   -2.3819   -1.0082    0.0000 N   0  0  0  0  0  0  0  0  0  0  0  0
   -4.5312    0.9749    0.0000 N   0  0  0  0  0  0  0  0  0  0  0  0
   -5.3621    0.9195    0.0000 N   0  0  0  0  0  0  0  0  0  0  0  0
   -5.5615    0.1108    0.0000 N   0  0  0  0  0  0  0  0  0  0  0  0
    1.9831   -0.6093    0.0000 C   0  0  0  0  0  0  0  0  0  0  0  0
    2.6256   -0.0997    0.0000 C   0  0  0  0  0  0  0  0  0  0  0  0
    2.2933   -1.3737    0.0000 C   0  0  0  0  0  0  0  0  0  0  0  0
    4.0880   -0.1994    0.0000 C   0  0  0  0  0  0  0  0  0  0  0  0
    1.4180   -1.2075    0.0000 C   0  0  0  0  0  0  0  0  0  0  0  0
    1.7615    0.1884    0.0000 C   0  0  0  0  0  0  0  0  0  0  0  0
    3.1241   -1.3183    0.0000 C   0  0  0  0  0  0  0  0  0  0  0  0
    0.6093   -1.0082    0.0000 C   0  0  0  0  0  0  0  0  0  0  0  0
    0.9528    0.3878    0.0000 C   0  0  0  0  0  0  0  0  0  0  0  0
    4.2985    0.5983    0.0000 C   0  0  0  0  0  0  0  0  0  0  0  0
    4.8081   -0.6426    0.0000 C   0  0  0  0  0  0  0  0  0  0  0  0
   -3.4233    0.0000    0.0000 C   0  0  0  0  0  0  0  0  0  0  0  0
   -1.8169   -0.3988    0.0000 C   0  0  0  0  0  0  0  0  0  0  0  0
   -0.4321   -0.0111    0.0000 C   0  0  0  0  0  0  0  0  0  0  0  0
    5.1072    0.6315    0.0000 C   0  0  0  0  0  0  0  0  0  0  0  0
   -0.9970   -0.5983    0.0000 C   0  0  3  0  0  0  0  0  0  0  0  0
   -2.8472    0.6204    0.0000 C   0  0  0  0  0  0  0  0  0  0  0  0
   -2.0274    0.3988    0.0000 C   0  0  0  0  0  0  0  0  0  0  0  0
   -3.1906   -0.7865    0.0000 C   0  0  0  0  0  0  0  0  0  0  0  0
   -4.8524   -0.3213    0.0000 C   0  0  0  0  0  0  0  0  0  0  0  0
   -3.0577    1.4180    0.0000 C   0  0  0  0  0  0  0  0  0  0  0  0
  1 13  2  0  0  0  0
  2 22  1  0  0  0  0
  2 26  1  0  0  0  0
 27  3  1  6  0  0  0
  4 26  2  0  0  0  0
  5 13  1  0  0  0  0
  5 15  1  0  0  0  0
  5 18  1  0  0  0  0
  6 19  1  0  0  0  0
  6 20  1  0  0  0  0
  6 25  1  0  0  0  0
  7  9  1  0  0  0  0
  7 23  1  0  0  0  0
  7 31  1  0  0  0  0
  8 24  2  0  0  0  0
  8 30  1  0  0  0  0
  9 10  2  0  0  0  0
 10 11  1  0  0  0  0
 11 31  2  0  0  0  0
 12 13  1  0  0  0  0
 12 14  1  0  0  0  0
 12 16  1  0  0  0  0
 12 17  1  0  0  0  0
 14 18  1  0  0  0  0
 15 21  2  0  0  0  0
 15 22  1  0  0  0  0
 16 19  1  0  0  0  0
 17 20  1  0  0  0  0
 21 26  1  0  0  0  0
 23 28  1  0  0  0  0
 23 30  2  0  0  0  0
 24 27  1  0  0  0  0
 24 29  1  0  0  0  0
 25 27  1  0  0  0  0
 28 29  2  0  0  0  0
 28 32  1  0  0  0  0
M  END
> <PUBCHEM_COMPOUND_ID_TYPE>
0

> <PUBCHEM_TOTAL_CHARGE>
0

> <PUBCHEM_SUBSTANCE_ID>
310944171

> <PUBCHEM_SUBSTANCE_VERSION>
1

> <PUBCHEM_EXT_DATASOURCE_NAME>
4488

> <PUBCHEM_EXT_DATASOURCE_REGID>
SCHEMBL16122246

> <PUBCHEM_SUBSTANCE_COMMENT>
InChI=1S/C21H25N7O4/c1-14-8-16(22-10-17(14)28-13-23-24-25-28)18(29)11-26-5-2-21(3-6-26)4-7-27(20(21)31)15-9-19(30)32-12-15/h8-10,13,18,29H,2-7,11-12H2,1H3/t18-/m0/s1
InChIKey=FRVFPAYGRQGNQX-SFHVURJKSA-N

> <PUBCHEM_SUBSTANCE_SYNONYM>
SCHEMBL16122246

> <PUBCHEM_XREF_EXT_ID>
SCHEMBL16122246

> <PUBCHEM_EXT_DATASOURCE_URL>
https://www.surechembl.org/

> <PUBCHEM_EXT_SUBSTANCE_URL>
https://www.surechembl.org/chemical/SCHEMBL16122246

> <PUBCHEM_CID_ASSOCIATIONS>
117610448  1

> <PUBCHEM_COORDINATE_TYPE>
1
3

> <PUBCHEM_BONDANNOTATIONS>
27  3  6

$$$$
