310949285
  -OEChem-07211613022D

 20 21  0     0  0  0  0  0  0999 V2000
   -2.0573   -1.8382    0.0000 F   0  0  0  0  0  0  0  0  0  0  0  0
   -2.4259   -0.7721    0.0000 F   0  0  0  0  0  0  0  0  0  0  0  0
   -1.3500   -0.4135    0.0000 F   0  0  0  0  0  0  0  0  0  0  0  0
    0.3736    0.1146    0.0000 O   0  0  0  0  0  0  0  0  0  0  0  0
   -0.9215   -0.0249    0.0000 O   0  0  0  0  0  0  0  0  0  0  0  0
   -0.9813   -1.4994    0.0000 C   0  0  0  0  0  0  0  0  0  0  0  0
   -0.2740   -1.1009    0.0000 C   0  0  0  0  0  0  0  0  0  0  0  0
   -1.7086   -1.1108    0.0000 C   0  0  0  0  0  0  0  0  0  0  0  0
   -0.2740   -0.3038    0.0000 C   0  0  0  0  0  0  0  0  0  0  0  0
   -0.9713   -2.3363    0.0000 C   0  0  0  0  0  0  0  0  0  0  0  0
    0.4433   -1.5193    0.0000 C   0  0  0  0  0  0  0  0  0  0  0  0
   -0.2740   -2.7447    0.0000 C   0  0  0  0  0  0  0  0  0  0  0  0
    0.4433   -2.3363    0.0000 C   0  0  0  0  0  0  0  0  0  0  0  0
    0.3138    0.9813    0.0000 C   0  0  0  0  0  0  0  0  0  0  0  0
    1.0013    1.4396    0.0000 C   0  0  0  0  0  0  0  0  0  0  0  0
    1.7684    1.0909    0.0000 C   0  0  0  0  0  0  0  0  0  0  0  0
    0.9215    2.2565    0.0000 C   0  0  0  0  0  0  0  0  0  0  0  0
    2.4259    1.5592    0.0000 C   0  0  0  0  0  0  0  0  0  0  0  0
    1.5890    2.7447    0.0000 C   0  0  0  0  0  0  0  0  0  0  0  0
    2.3562    2.3960    0.0000 C   0  0  0  0  0  0  0  0  0  0  0  0
  1  8  1  0  0  0  0
  2  8  1  0  0  0  0
  3  8  1  0  0  0  0
  4  9  1  0  0  0  0
  4 14  1  0  0  0  0
  5  9  2  0  0  0  0
  6  7  1  0  0  0  0
  6  8  1  0  0  0  0
  6 10  2  0  0  0  0
  7  9  1  0  0  0  0
  7 11  2  0  0  0  0
 10 12  1  0  0  0  0
 11 13  1  0  0  0  0
 12 13  2  0  0  0  0
 14 15  1  0  0  0  0
 15 16  2  0  0  0  0
 15 17  1  0  0  0  0
 16 18  1  0  0  0  0
 17 19  2  0  0  0  0
 18 20  2  0  0  0  0
 19 20  1  0  0  0  0
M  END
> <PUBCHEM_COMPOUND_ID_TYPE>
0

> <PUBCHEM_TOTAL_CHARGE>
0

> <PUBCHEM_SUBSTANCE_ID>
310949285

> <PUBCHEM_SUBSTANCE_VERSION>
1

> <PUBCHEM_EXT_DATASOURCE_NAME>
4488

> <PUBCHEM_EXT_DATASOURCE_REGID>
SCHEMBL16127475

> <PUBCHEM_SUBSTANCE_COMMENT>
InChI=1S/C15H11F3O2/c16-15(17,18)13-9-5-4-8-12(13)14(19)20-10-11-6-2-1-3-7-11/h1-9H,10H2
InChIKey=OQIXLLZRPVIPMY-UHFFFAOYSA-N

> <PUBCHEM_SUBSTANCE_SYNONYM>
SCHEMBL16127475

> <PUBCHEM_XREF_EXT_ID>
SCHEMBL16127475

> <PUBCHEM_EXT_DATASOURCE_URL>
https://www.surechembl.org/

> <PUBCHEM_EXT_SUBSTANCE_URL>
https://www.surechembl.org/chemical/SCHEMBL16127475

> <PUBCHEM_CID_ASSOCIATIONS>
599301  1

> <PUBCHEM_COORDINATE_TYPE>
1
3

$$$$
