310935833
  -OEChem-07211613022D

 27 30  0     0  0  0  0  0  0999 V2000
    7.7496   -3.7115    0.0000 O   0  0  0  0  0  0  0  0  0  0  0  0
    2.7317   -0.8314    0.0000 N   0  0  0  0  0  0  0  0  0  0  0  0
    2.0191   -2.0487    0.0000 N   0  0  0  0  0  0  0  0  0  0  0  0
    2.7317   -3.2958    0.0000 N   0  0  0  0  0  0  0  0  0  0  0  0
    7.0073   -2.4645    0.0000 N   0  0  0  0  0  0  0  0  0  0  0  0
    0.4157   -5.9384    0.0000 N   0  0  0  0  0  0  0  0  0  0  0  0
    0.0000   -5.2258    0.0000 N   0  0  0  0  0  0  0  0  0  0  0  0
    3.4443   -2.0487    0.0000 C   0  0  0  0  0  0  0  0  0  0  0  0
    3.4443   -1.2471    0.0000 C   0  0  0  0  0  0  0  0  0  0  0  0
    4.8695   -2.0487    0.0000 C   0  0  0  0  0  0  0  0  0  0  0  0
    4.1569   -0.8314    0.0000 C   0  0  0  0  0  0  0  0  0  0  0  0
    2.7317   -2.4645    0.0000 C   0  0  0  0  0  0  0  0  0  0  0  0
    4.1569   -2.4645    0.0000 C   0  0  0  0  0  0  0  0  0  0  0  0
    4.8695   -1.2471    0.0000 C   0  0  0  0  0  0  0  0  0  0  0  0
    5.5821   -2.4645    0.0000 C   0  0  0  0  0  0  0  0  0  0  0  0
    2.0191   -1.2471    0.0000 C   0  0  0  0  0  0  0  0  0  0  0  0
    6.3244   -2.0784    0.0000 C   0  0  0  0  0  0  0  0  0  0  0  0
    5.6118   -3.2958    0.0000 C   0  0  0  0  0  0  0  0  0  0  0  0
    4.1272    0.0000    0.0000 C   0  0  0  0  0  0  0  0  0  0  0  0
    7.0370   -3.2958    0.0000 C   0  0  0  0  0  0  0  0  0  0  0  0
    6.2947   -3.7115    0.0000 C   0  0  0  0  0  0  0  0  0  0  0  0
    2.0191   -3.7115    0.0000 C   0  0  0  0  0  0  0  0  0  0  0  0
    2.0191   -4.5132    0.0000 C   0  0  0  0  0  0  0  0  0  0  0  0
    1.3065   -4.9289    0.0000 C   0  0  0  0  0  0  0  0  0  0  0  0
    1.2174   -5.7603    0.0000 C   0  0  0  0  0  0  0  0  0  0  0  0
    0.5641   -4.6023    0.0000 C   0  0  0  0  0  0  0  0  0  0  0  0
    8.4623   -3.2958    0.0000 C   0  0  0  0  0  0  0  0  0  0  0  0
  1 20  1  0  0  0  0
  1 27  1  0  0  0  0
  2  9  2  0  0  0  0
  2 16  1  0  0  0  0
  3 12  1  0  0  0  0
  3 16  2  0  0  0  0
  4 12  1  0  0  0  0
  4 22  1  0  0  0  0
  5 17  1  0  0  0  0
  5 20  2  0  0  0  0
  6  7  1  0  0  0  0
  6 25  2  0  0  0  0
  7 26  1  0  0  0  0
  8  9  1  0  0  0  0
  8 12  2  0  0  0  0
  8 13  1  0  0  0  0
  9 11  1  0  0  0  0
 10 13  2  0  0  0  0
 10 14  1  0  0  0  0
 10 15  1  0  0  0  0
 11 14  2  0  0  0  0
 11 19  1  0  0  0  0
 15 17  2  0  0  0  0
 15 18  1  0  0  0  0
 18 21  2  0  0  0  0
 20 21  1  0  0  0  0
 22 23  1  0  0  0  0
 23 24  1  0  0  0  0
 24 25  1  0  0  0  0
 24 26  2  0  0  0  0
M  END
> <PUBCHEM_COMPOUND_ID_TYPE>
0

> <PUBCHEM_TOTAL_CHARGE>
0

> <PUBCHEM_SUBSTANCE_ID>
310935833

> <PUBCHEM_SUBSTANCE_VERSION>
1

> <PUBCHEM_EXT_DATASOURCE_NAME>
4488

> <PUBCHEM_EXT_DATASOURCE_REGID>
SCHEMBL16113424

> <PUBCHEM_SUBSTANCE_COMMENT>
InChI=1S/C20H20N6O/c1-13-7-16(15-3-4-18(27-2)22-11-15)8-17-19(13)23-12-24-20(17)21-6-5-14-9-25-26-10-14/h3-4,7-12H,5-6H2,1-2H3,(H,25,26)(H,21,23,24)
InChIKey=GURYZEFMVCBNMK-UHFFFAOYSA-N

> <PUBCHEM_SUBSTANCE_SYNONYM>
SCHEMBL16113424

> <PUBCHEM_XREF_EXT_ID>
SCHEMBL16113424

> <PUBCHEM_EXT_DATASOURCE_URL>
https://www.surechembl.org/

> <PUBCHEM_EXT_SUBSTANCE_URL>
https://www.surechembl.org/chemical/SCHEMBL16113424

> <PUBCHEM_CID_ASSOCIATIONS>
117603822  1

> <PUBCHEM_COORDINATE_TYPE>
1
3

$$$$
