310947643
  -OEChem-07211613022D

 30 31  0     1  0  0  0  0  0999 V2000
   -5.8879   11.4883    0.0000 O   0  0  0  0  0  0  0  0  0  0  0  0
   -6.6024    9.4258    0.0000 O   0  0  0  0  0  0  0  0  0  0  0  0
   -5.1735    9.4258    0.0000 O   0  0  0  0  0  0  0  0  0  0  0  0
   -7.3169   11.4883    0.0000 O   0  0  0  0  0  0  0  0  0  0  0  0
   -4.4590   11.4883    0.0000 O   0  0  0  0  0  0  0  0  0  0  0  0
   -8.0314    9.4258    0.0000 O   0  0  0  0  0  0  0  0  0  0  0  0
   -0.8867   11.9008    0.0000 O   0  0  0  0  0  0  0  0  0  0  0  0
    0.5423   11.9008    0.0000 O   0  0  0  0  0  0  0  0  0  0  0  0
   -3.7445   10.2508    0.0000 N   0  0  0  0  0  0  0  0  0  0  0  0
    0.5423   10.2508    0.0000 N   0  0  0  0  0  0  0  0  0  0  0  0
   -5.8879   10.6633    0.0000 C   0  0  3  0  0  0  0  0  0  0  0  0
   -6.6024   10.2508    0.0000 C   0  0  3  0  0  0  0  0  0  0  0  0
   -5.1735   10.2508    0.0000 C   0  0  3  0  0  0  0  0  0  0  0  0
   -7.3169   10.6633    0.0000 C   0  0  3  0  0  0  0  0  0  0  0  0
   -5.6744   12.2852    0.0000 C   0  0  0  0  0  0  0  0  0  0  0  0
   -7.1034   12.2852    0.0000 C   0  0  0  0  0  0  0  0  0  0  0  0
   -4.4590   10.6633    0.0000 C   0  0  0  0  0  0  0  0  0  0  0  0
   -8.0314   10.2508    0.0000 C   0  0  0  0  0  0  0  0  0  0  0  0
   -4.9600   12.6977    0.0000 C   0  0  0  0  0  0  0  0  0  0  0  0
   -6.2472   12.6159    0.0000 C   0  0  0  0  0  0  0  0  0  0  0  0
   -6.5950   12.5787    0.0000 C   0  0  0  0  0  0  0  0  0  0  0  0
   -7.8178   12.6977    0.0000 C   0  0  0  0  0  0  0  0  0  0  0  0
   -8.7458   10.6633    0.0000 C   0  0  0  0  0  0  0  0  0  0  0  0
   -3.0301   10.6633    0.0000 C   0  0  0  0  0  0  0  0  0  0  0  0
   -2.3156   10.2508    0.0000 C   0  0  0  0  0  0  0  0  0  0  0  0
   -1.6011   10.6633    0.0000 C   0  0  0  0  0  0  0  0  0  0  0  0
   -0.1722   10.6633    0.0000 C   0  0  3  0  0  0  0  0  0  0  0  0
   -0.8867   10.2508    0.0000 C   0  0  0  0  0  0  0  0  0  0  0  0
   -0.1722   11.4883    0.0000 C   0  0  0  0  0  0  0  0  0  0  0  0
    1.2568   10.6633    0.0000 C   0  0  0  0  0  0  0  0  0  0  0  0
 11  1  1  1  0  0  0
  1 15  1  0  0  0  0
 12  2  1  6  0  0  0
  2 16  1  0  0  0  0
  3 13  1  0  0  0  0
  3 15  1  0  0  0  0
  4 14  1  0  0  0  0
  4 16  1  0  0  0  0
  5 17  2  0  0  0  0
  6 18  2  0  0  0  0
  7 29  2  0  0  0  0
  8 29  1  0  0  0  0
  9 17  1  0  0  0  0
  9 24  1  0  0  0  0
 10 27  1  0  0  0  0
 10 30  1  0  0  0  0
 11 12  1  0  0  0  0
 11 13  1  0  0  0  0
 12 14  1  0  0  0  0
 13 17  1  1  0  0  0
 14 18  1  6  0  0  0
 15 19  1  0  0  0  0
 15 20  1  0  0  0  0
 16 21  1  0  0  0  0
 16 22  1  0  0  0  0
 18 23  1  0  0  0  0
 24 25  1  0  0  0  0
 25 26  1  0  0  0  0
 26 28  1  0  0  0  0
 27 28  1  0  0  0  0
 27 29  1  0  0  0  0
M  END
> <PUBCHEM_COMPOUND_ID_TYPE>
0

> <PUBCHEM_TOTAL_CHARGE>
0

> <PUBCHEM_SUBSTANCE_ID>
310947643

> <PUBCHEM_SUBSTANCE_VERSION>
1

> <PUBCHEM_EXT_DATASOURCE_NAME>
4488

> <PUBCHEM_EXT_DATASOURCE_REGID>
SCHEMBL16125810

> <PUBCHEM_SUBSTANCE_COMMENT>
InChI=1S/C20H34N2O8/c1-11(23)13-14(28-19(2,3)27-13)15-16(30-20(4,5)29-15)17(24)22-10-8-7-9-12(21-6)18(25)26/h12-16,21H,7-10H2,1-6H3,(H,22,24)(H,25,26)/t12?,13-,14+,15+,16-/m0/s1
InChIKey=KYICOGMDAAKKPK-GZPFGDLZSA-N

> <PUBCHEM_SUBSTANCE_SYNONYM>
SCHEMBL16125810

> <PUBCHEM_XREF_EXT_ID>
SCHEMBL16125810

> <PUBCHEM_EXT_DATASOURCE_URL>
https://www.surechembl.org/

> <PUBCHEM_EXT_SUBSTANCE_URL>
https://www.surechembl.org/chemical/SCHEMBL16125810

> <PUBCHEM_CID_ASSOCIATIONS>
117613359  1

> <PUBCHEM_COORDINATE_TYPE>
1
3

> <PUBCHEM_BONDANNOTATIONS>
11  1  5
13  17  5
14  18  6
12  2  6

$$$$
