310938989
  -OEChem-07211613022D

 27 31  0     0  0  0  0  0  0999 V2000
   -1.0449  -14.5103    0.0000 F   0  0  0  0  0  0  0  0  0  0  0  0
   -1.1173  -11.6994    0.0000 O   0  0  0  0  0  0  0  0  0  0  0  0
   -1.0449  -13.0813    0.0000 N   0  0  0  0  0  0  0  0  0  0  0  0
   -3.0289  -13.9063    0.0000 N   0  0  0  0  0  0  0  0  0  0  0  0
   -2.3145  -12.6688    0.0000 C   0  0  0  0  0  0  0  0  0  0  0  0
   -1.5298  -12.4139    0.0000 C   0  0  0  0  0  0  0  0  0  0  0  0
   -2.3145  -13.4938    0.0000 C   0  0  0  0  0  0  0  0  0  0  0  0
   -1.5298  -13.7488    0.0000 C   0  0  0  0  0  0  0  0  0  0  0  0
    0.1926  -13.7958    0.0000 C   0  0  0  0  0  0  0  0  0  0  0  0
   -0.2199  -13.0813    0.0000 C   0  0  0  0  0  0  0  0  0  0  0  0
    1.0176  -15.2247    0.0000 C   0  0  0  0  0  0  0  0  0  0  0  0
   -0.2199  -14.5103    0.0000 C   0  0  0  0  0  0  0  0  0  0  0  0
    1.4301  -15.9392    0.0000 C   0  0  0  0  0  0  0  0  0  0  0  0
   -3.0289  -12.2563    0.0000 C   0  0  0  0  0  0  0  0  0  0  0  0
    0.1926  -15.2247    0.0000 C   0  0  0  0  0  0  0  0  0  0  0  0
    2.6676  -16.6537    0.0000 C   0  0  0  0  0  0  0  0  0  0  0  0
    1.0176  -13.7958    0.0000 C   0  0  0  0  0  0  0  0  0  0  0  0
    2.2551  -17.3682    0.0000 C   0  0  0  0  0  0  0  0  0  0  0  0
    1.4301  -14.5103    0.0000 C   0  0  0  0  0  0  0  0  0  0  0  0
    2.2551  -15.9392    0.0000 C   0  0  0  0  0  0  0  0  0  0  0  0
    1.0176  -16.6537    0.0000 C   0  0  0  0  0  0  0  0  0  0  0  0
   -3.7434  -12.6688    0.0000 C   0  0  0  0  0  0  0  0  0  0  0  0
   -3.7434  -13.4938    0.0000 C   0  0  0  0  0  0  0  0  0  0  0  0
    1.4301  -17.3682    0.0000 C   0  0  0  0  0  0  0  0  0  0  0  0
    3.4746  -16.8252    0.0000 C   0  0  0  0  0  0  0  0  0  0  0  0
    2.8071  -17.9812    0.0000 C   0  0  0  0  0  0  0  0  0  0  0  0
    3.5608  -17.6457    0.0000 C   0  0  0  0  0  0  0  0  0  0  0  0
  1 12  1  0  0  0  0
  2  6  2  0  0  0  0
  3  6  1  0  0  0  0
  3  8  1  0  0  0  0
  3 10  1  0  0  0  0
  4  7  2  0  0  0  0
  4 23  1  0  0  0  0
  5  6  1  0  0  0  0
  5  7  1  0  0  0  0
  5 14  2  0  0  0  0
  7  8  1  0  0  0  0
  9 10  1  0  0  0  0
  9 12  1  0  0  0  0
  9 17  2  0  0  0  0
 11 13  1  0  0  0  0
 11 15  1  0  0  0  0
 11 19  2  0  0  0  0
 12 15  2  0  0  0  0
 13 20  2  0  0  0  0
 13 21  1  0  0  0  0
 14 22  1  0  0  0  0
 16 18  2  0  0  0  0
 16 20  1  0  0  0  0
 16 25  1  0  0  0  0
 17 19  1  0  0  0  0
 18 24  1  0  0  0  0
 18 26  1  0  0  0  0
 21 24  2  0  0  0  0
 22 23  2  0  0  0  0
 25 27  1  0  0  0  0
 26 27  2  0  0  0  0
M  END
> <PUBCHEM_COMPOUND_ID_TYPE>
0

> <PUBCHEM_TOTAL_CHARGE>
0

> <PUBCHEM_SUBSTANCE_ID>
310938989

> <PUBCHEM_SUBSTANCE_VERSION>
1

> <PUBCHEM_EXT_DATASOURCE_NAME>
4488

> <PUBCHEM_EXT_DATASOURCE_REGID>
SCHEMBL16116908

> <PUBCHEM_SUBSTANCE_COMMENT>
InChI=1S/C23H17FN2O/c24-21-12-18(17-7-6-15-3-1-4-16(15)11-17)8-9-19(21)13-26-14-22-20(23(26)27)5-2-10-25-22/h1-3,5-12H,4,13-14H2
InChIKey=REYGHCZXARMGNM-UHFFFAOYSA-N

> <PUBCHEM_SUBSTANCE_SYNONYM>
SCHEMBL16116908

> <PUBCHEM_XREF_EXT_ID>
SCHEMBL16116908

> <PUBCHEM_EXT_DATASOURCE_URL>
https://www.surechembl.org/

> <PUBCHEM_EXT_SUBSTANCE_URL>
https://www.surechembl.org/chemical/SCHEMBL16116908

> <PUBCHEM_CID_ASSOCIATIONS>
117606373  1

> <PUBCHEM_COORDINATE_TYPE>
1
3

$$$$
