310940664
  -OEChem-07211613022D

 32 36  0     1  0  0  0  0  0999 V2000
    0.0228    3.5084    0.0000 Cl  0  0  0  0  0  0  0  0  0  0  0  0
    2.7017   -0.5099    0.0000 O   0  0  0  0  0  0  0  0  0  0  0  0
   -1.4992   -0.6469    0.0000 O   0  0  0  0  0  0  0  0  0  0  0  0
    2.7778    0.9817    0.0000 O   0  0  0  0  0  0  0  0  0  0  0  0
   -2.7778   -2.7321    0.0000 O   0  0  0  0  0  0  0  0  0  0  0  0
    1.5601    0.1751    0.0000 N   0  0  0  0  0  0  0  0  0  0  0  0
    1.3775   -2.3059    0.0000 N   0  0  0  0  0  0  0  0  0  0  0  0
   -2.2906   -3.4170    0.0000 N   0  0  0  0  0  0  0  0  0  0  0  0
    1.3622   -0.6013    0.0000 C   0  0  3  0  0  0  0  0  0  0  0  0
    0.6621   -1.0121    0.0000 C   0  0  0  0  0  0  0  0  0  0  0  0
    2.0928   -1.0121    0.0000 C   0  0  3  0  0  0  0  0  0  0  0  0
    0.6469   -1.8189    0.0000 C   0  0  0  0  0  0  0  0  0  0  0  0
    2.3363    0.2968    0.0000 C   0  0  0  0  0  0  0  0  0  0  0  0
   -0.7838   -1.8341    0.0000 C   0  0  0  0  0  0  0  0  0  0  0  0
   -0.0685   -0.6165    0.0000 C   0  0  0  0  0  0  0  0  0  0  0  0
   -0.7686   -1.0121    0.0000 C   0  0  0  0  0  0  0  0  0  0  0  0
    0.9817    0.7990    0.0000 C   0  0  3  0  0  0  0  0  0  0  0  0
   -0.0533   -2.2298    0.0000 C   0  0  0  0  0  0  0  0  0  0  0  0
   -1.4992   -2.2450    0.0000 C   0  0  0  0  0  0  0  0  0  0  0  0
    2.0777   -1.8341    0.0000 C   0  0  0  0  0  0  0  0  0  0  0  0
    1.1796    1.6210    0.0000 C   0  0  0  0  0  0  0  0  0  0  0  0
   -2.3059   -1.9863    0.0000 C   0  0  0  0  0  0  0  0  0  0  0  0
   -1.5144   -3.0822    0.0000 C   0  0  0  0  0  0  0  0  0  0  0  0
    0.1903    0.6165    0.0000 C   0  0  0  0  0  0  0  0  0  0  0  0
    0.6013    2.1842    0.0000 C   0  0  0  0  0  0  0  0  0  0  0  0
    1.9863    1.8341    0.0000 C   0  0  0  0  0  0  0  0  0  0  0  0
    0.8142    2.9908    0.0000 C   0  0  0  0  0  0  0  0  0  0  0  0
   -2.5495   -1.1796    0.0000 C   0  0  0  0  0  0  0  0  0  0  0  0
   -0.7686   -3.5084    0.0000 C   0  0  0  0  0  0  0  0  0  0  0  0
    2.1690    2.6256    0.0000 C   0  0  0  0  0  0  0  0  0  0  0  0
   -1.4992    0.2512    0.0000 C   0  0  0  0  0  0  0  0  0  0  0  0
    1.6058    3.1887    0.0000 C   0  0  0  0  0  0  0  0  0  0  0  0
  1 27  1  0  0  0  0
  2 11  1  0  0  0  0
  2 13  1  0  0  0  0
  3 16  1  0  0  0  0
  3 31  1  0  0  0  0
  4 13  2  0  0  0  0
  5  8  1  0  0  0  0
  5 22  1  0  0  0  0
  6  9  1  0  0  0  0
  6 13  1  0  0  0  0
  6 17  1  0  0  0  0
  7 12  1  0  0  0  0
  7 20  1  0  0  0  0
  8 23  2  0  0  0  0
  9 10  1  0  0  0  0
  9 11  1  0  0  0  0
 10 12  2  0  0  0  0
 10 15  1  0  0  0  0
 11 20  1  0  0  0  0
 12 18  1  0  0  0  0
 14 16  1  0  0  0  0
 14 18  2  0  0  0  0
 14 19  1  0  0  0  0
 15 16  2  0  0  0  0
 17 21  1  0  0  0  0
 17 24  1  6  0  0  0
 19 22  2  0  0  0  0
 19 23  1  0  0  0  0
 21 25  2  0  0  0  0
 21 26  1  0  0  0  0
 22 28  1  0  0  0  0
 23 29  1  0  0  0  0
 25 27  1  0  0  0  0
 26 30  2  0  0  0  0
 27 32  2  0  0  0  0
 30 32  1  0  0  0  0
M  END
> <PUBCHEM_COMPOUND_ID_TYPE>
0

> <PUBCHEM_TOTAL_CHARGE>
0

> <PUBCHEM_SUBSTANCE_ID>
310940664

> <PUBCHEM_SUBSTANCE_VERSION>
1

> <PUBCHEM_EXT_DATASOURCE_NAME>
4488

> <PUBCHEM_EXT_DATASOURCE_REGID>
SCHEMBL16118619

> <PUBCHEM_SUBSTANCE_COMMENT>
InChI=1S/C24H24ClN3O4/c1-12-22(14(3)32-27-12)18-9-19-17(10-20(18)30-4)23-21(11-26-19)31-24(29)28(23)13(2)15-6-5-7-16(25)8-15/h5-10,13,21,23,26H,11H2,1-4H3/t13-,21?,23?/m1/s1
InChIKey=SMUOJVUCNZYIFI-VYTXHYLQSA-N

> <PUBCHEM_SUBSTANCE_SYNONYM>
SCHEMBL16118619

> <PUBCHEM_XREF_EXT_ID>
SCHEMBL16118619

> <PUBCHEM_EXT_DATASOURCE_URL>
https://www.surechembl.org/

> <PUBCHEM_EXT_SUBSTANCE_URL>
https://www.surechembl.org/chemical/SCHEMBL16118619

> <PUBCHEM_CID_ASSOCIATIONS>
117607641  1

> <PUBCHEM_COORDINATE_TYPE>
1
3

> <PUBCHEM_BONDANNOTATIONS>
17  24  6

$$$$
