310938543
  -OEChem-07211613022D

 41 46  0     1  0  0  0  0  0999 V2000
   -5.6121   -1.0030    0.0000 Cl  0  0  0  0  0  0  0  0  0  0  0  0
    3.3239   -1.6401    0.0000 O   0  0  0  0  0  0  0  0  0  0  0  0
    5.0360    0.6369    0.0000 O   0  0  0  0  0  0  0  0  0  0  0  0
    1.8972    0.0060    0.0000 O   0  0  0  0  0  0  0  0  0  0  0  0
    1.8972   -1.6440    0.0000 O   0  0  0  0  0  0  0  0  0  0  0  0
    1.4552    1.7135    0.0000 O   0  0  0  0  0  0  0  0  0  0  0  0
    0.4448    2.7239    0.0000 O   0  0  0  0  0  0  0  0  0  0  0  0
    4.0406   -0.4065    0.0000 N   0  0  0  0  0  0  0  0  0  0  0  0
   -1.6752   -1.2315    0.0000 N   0  0  3  0  0  0  0  0  0  0  0  0
    4.8225   -1.4949    0.0000 C   0  0  3  0  0  0  0  0  0  0  0  0
    5.3146   -0.8327    0.0000 C   0  0  3  0  0  0  0  0  0  0  0  0
    4.0406   -1.2315    0.0000 C   0  0  0  0  0  0  0  0  0  0  0  0
    4.8225   -0.1600    0.0000 C   0  0  0  0  0  0  0  0  0  0  0  0
    5.6121   -1.4964    0.0000 C   0  0  0  0  0  0  0  0  0  0  0  0
    3.3261    0.0060    0.0000 C   0  0  0  0  0  0  0  0  0  0  0  0
   -2.3896   -1.6440    0.0000 C   0  0  3  0  0  0  0  0  0  0  0  0
   -3.1742   -1.3890    0.0000 C   0  0  0  0  0  0  0  0  0  0  0  0
   -3.6592   -2.0565    0.0000 C   0  0  0  0  0  0  0  0  0  0  0  0
    2.6117   -0.4065    0.0000 C   0  0  0  0  0  0  0  0  0  0  0  0
   -2.3896   -2.4690    0.0000 C   0  0  0  0  0  0  0  0  0  0  0  0
   -3.1742   -2.7239    0.0000 C   0  0  0  0  0  0  0  0  0  0  0  0
   -0.9607   -1.6440    0.0000 C   0  0  0  0  0  0  0  0  0  0  0  0
   -3.5098   -0.6353    0.0000 C   0  0  0  0  0  0  0  0  0  0  0  0
    1.1827   -0.4065    0.0000 C   0  0  0  0  0  0  0  0  0  0  0  0
   -0.2462   -1.2315    0.0000 C   0  0  0  0  0  0  0  0  0  0  0  0
   -4.4797   -1.9702    0.0000 C   0  0  0  0  0  0  0  0  0  0  0  0
   -1.6752   -0.4065    0.0000 C   0  0  0  0  0  0  0  0  0  0  0  0
    1.1827   -1.2315    0.0000 C   0  0  0  0  0  0  0  0  0  0  0  0
   -4.8152   -1.2165    0.0000 C   0  0  0  0  0  0  0  0  0  0  0  0
    0.4683   -1.6440    0.0000 C   0  0  0  0  0  0  0  0  0  0  0  0
   -4.3303   -0.5491    0.0000 C   0  0  0  0  0  0  0  0  0  0  0  0
   -1.0918    0.1769    0.0000 C   0  0  0  0  0  0  0  0  0  0  0  0
   -0.2462   -0.4065    0.0000 C   0  0  0  0  0  0  0  0  0  0  0  0
    0.4683    0.0060    0.0000 C   0  0  0  0  0  0  0  0  0  0  0  0
   -0.2949   -0.0366    0.0000 C   0  0  0  0  0  0  0  0  0  0  0  0
   -1.3053    0.9738    0.0000 C   0  0  0  0  0  0  0  0  0  0  0  0
    0.0749    1.3436    0.0000 C   0  0  0  0  0  0  0  0  0  0  0  0
    0.2885    0.5467    0.0000 C   0  0  0  0  0  0  0  0  0  0  0  0
   -0.7220    1.5572    0.0000 C   0  0  0  0  0  0  0  0  0  0  0  0
    0.6583    1.9270    0.0000 C   0  0  0  0  0  0  0  0  0  0  0  0
    2.6117   -1.2315    0.0000 C   0  0  0  0  0  0  0  0  0  0  0  0
  1 29  1  0  0  0  0
  2 12  2  0  0  0  0
  3 13  2  0  0  0  0
  4 19  1  0  0  0  0
  4 24  1  0  0  0  0
  5 28  1  0  0  0  0
  5 41  1  0  0  0  0
  6 40  2  0  0  0  0
  7 40  1  0  0  0  0
  8 12  1  0  0  0  0
  8 13  1  0  0  0  0
  8 15  1  0  0  0  0
 16  9  1  1  0  0  0
  9 22  1  0  0  0  0
  9 27  1  0  0  0  0
 10 11  1  0  0  0  0
 10 12  1  0  0  0  0
 10 14  1  0  0  0  0
 11 13  1  0  0  0  0
 11 14  1  0  0  0  0
 15 19  1  0  0  0  0
 16 17  1  0  0  0  0
 16 20  1  0  0  0  0
 17 18  2  0  0  0  0
 17 23  1  0  0  0  0
 18 21  1  0  0  0  0
 18 26  1  0  0  0  0
 20 21  1  0  0  0  0
 22 25  1  0  0  0  0
 23 31  2  0  0  0  0
 24 28  2  0  0  0  0
 24 34  1  0  0  0  0
 25 30  2  0  0  0  0
 25 33  1  0  0  0  0
 26 29  2  0  0  0  0
 32 27  1  1  0  0  0
 28 30  1  0  0  0  0
 29 31  1  0  0  0  0
 32 35  1  0  0  0  0
 32 36  1  0  0  0  0
 33 34  2  0  0  0  0
 35 38  1  0  0  0  0
 36 39  1  0  0  0  0
 37 38  1  0  0  0  0
 37 39  1  0  0  0  0
 37 40  1  6  0  0  0
M  END
> <PUBCHEM_COMPOUND_ID_TYPE>
0

> <PUBCHEM_TOTAL_CHARGE>
0

> <PUBCHEM_SUBSTANCE_ID>
310938543

> <PUBCHEM_SUBSTANCE_VERSION>
1

> <PUBCHEM_EXT_DATASOURCE_NAME>
4488

> <PUBCHEM_EXT_DATASOURCE_REGID>
SCHEMBL16116457

> <PUBCHEM_SUBSTANCE_COMMENT>
InChI=1S/C32H37ClN2O6/c1-40-29-14-20(4-11-28(29)41-13-12-35-30(36)25-16-26(25)31(35)37)18-34(17-19-2-5-21(6-3-19)32(38)39)27-10-7-22-15-23(33)8-9-24(22)27/h4,8-9,11,14-15,19,21,25-27H,2-3,5-7,10,12-13,16-18H2,1H3,(H,38,39)/t19-,21-,25?,26?,27-/m0/s1
InChIKey=VUZWJRBUPRNXPV-XOMZIVLYSA-N

> <PUBCHEM_SUBSTANCE_SYNONYM>
SCHEMBL16116457

> <PUBCHEM_XREF_EXT_ID>
SCHEMBL16116457

> <PUBCHEM_EXT_DATASOURCE_URL>
https://www.surechembl.org/

> <PUBCHEM_EXT_SUBSTANCE_URL>
https://www.surechembl.org/chemical/SCHEMBL16116457

> <PUBCHEM_CID_ASSOCIATIONS>
89611424  1

> <PUBCHEM_COORDINATE_TYPE>
1
3

> <PUBCHEM_BONDANNOTATIONS>
32  27  5
37  40  6
16  9  5

$$$$
