310935236
  -OEChem-07211613022D

 32 34  0     1  0  0  0  0  0999 V2000
   -2.2540   -3.5596    0.0000 O   0  0  0  0  0  0  0  0  0  0  0  0
   -4.3974   -3.1471    0.0000 O   0  0  0  0  0  0  0  0  0  0  0  0
   -0.7389    0.9356    0.0000 O   0  0  0  0  0  0  0  0  0  0  0  0
   -3.6829   -4.3846    0.0000 O   0  0  0  0  0  0  0  0  0  0  0  0
   -1.9764    1.6500    0.0000 O   0  0  0  0  0  0  0  0  0  0  0  0
   -2.9684   -0.6721    0.0000 N   0  0  0  0  0  0  0  0  0  0  0  0
   -1.5395   -2.3221    0.0000 N   0  0  0  0  0  0  0  0  0  0  0  0
   -2.7969    0.1348    0.0000 N   0  0  0  0  0  0  0  0  0  0  0  0
   -2.2540   -1.9096    0.0000 C   0  0  0  0  0  0  0  0  0  0  0  0
   -2.2540   -1.0846    0.0000 C   0  0  0  0  0  0  0  0  0  0  0  0
   -2.9684   -2.3221    0.0000 C   0  0  0  0  0  0  0  0  0  0  0  0
   -3.6829   -1.9096    0.0000 C   0  0  0  0  0  0  0  0  0  0  0  0
   -2.9684   -3.1471    0.0000 C   0  0  3  0  0  0  0  0  0  0  0  0
   -1.6409   -0.5326    0.0000 C   0  0  0  0  0  0  0  0  0  0  0  0
   -3.6829   -1.0846    0.0000 C   0  0  0  0  0  0  0  0  0  0  0  0
   -1.9764    0.2210    0.0000 C   0  0  0  0  0  0  0  0  0  0  0  0
   -3.6829   -3.5596    0.0000 C   0  0  0  0  0  0  0  0  0  0  0  0
   -1.5395   -3.1471    0.0000 C   0  0  0  0  0  0  0  0  0  0  0  0
   -0.8250   -1.9096    0.0000 C   0  0  0  0  0  0  0  0  0  0  0  0
   -1.5639    0.9356    0.0000 C   0  0  0  0  0  0  0  0  0  0  0  0
   -0.1106   -3.1471    0.0000 C   0  0  0  0  0  0  0  0  0  0  0  0
   -4.3974   -2.3221    0.0000 C   0  0  0  0  0  0  0  0  0  0  0  0
   -2.2540   -4.3846    0.0000 C   0  0  0  0  0  0  0  0  0  0  0  0
   -0.8250   -3.5596    0.0000 C   0  0  0  0  0  0  0  0  0  0  0  0
   -0.1106   -2.3221    0.0000 C   0  0  0  0  0  0  0  0  0  0  0  0
    0.3020   -3.8616    0.0000 C   0  0  0  0  0  0  0  0  0  0  0  0
    0.7144   -3.1471    0.0000 C   0  0  0  0  0  0  0  0  0  0  0  0
   -2.9684   -4.7971    0.0000 C   0  0  0  0  0  0  0  0  0  0  0  0
   -2.2540   -5.2096    0.0000 C   0  0  0  0  0  0  0  0  0  0  0  0
   -1.5395   -4.7971    0.0000 C   0  0  0  0  0  0  0  0  0  0  0  0
   -5.1118   -3.5596    0.0000 C   0  0  0  0  0  0  0  0  0  0  0  0
   -0.3264    1.6500    0.0000 C   0  0  0  0  0  0  0  0  0  0  0  0
 13  1  1  6  0  0  0
  1 23  1  0  0  0  0
  2 17  1  0  0  0  0
  2 31  1  0  0  0  0
  3 20  1  0  0  0  0
  3 32  1  0  0  0  0
  4 17  2  0  0  0  0
  5 20  2  0  0  0  0
  6  8  1  0  0  0  0
  6 10  1  0  0  0  0
  6 15  1  0  0  0  0
  7  9  1  0  0  0  0
  7 18  1  0  0  0  0
  7 19  1  0  0  0  0
  8 16  2  0  0  0  0
  9 10  1  0  0  0  0
  9 11  2  0  0  0  0
 10 14  2  0  0  0  0
 11 12  1  0  0  0  0
 11 13  1  0  0  0  0
 12 15  2  0  0  0  0
 12 22  1  0  0  0  0
 13 17  1  0  0  0  0
 14 16  1  0  0  0  0
 16 20  1  0  0  0  0
 18 24  1  0  0  0  0
 19 25  1  0  0  0  0
 21 24  1  0  0  0  0
 21 25  1  0  0  0  0
 21 26  1  0  0  0  0
 21 27  1  0  0  0  0
 23 28  1  0  0  0  0
 23 29  1  0  0  0  0
 23 30  1  0  0  0  0
M  END
> <PUBCHEM_COMPOUND_ID_TYPE>
0

> <PUBCHEM_TOTAL_CHARGE>
0

> <PUBCHEM_SUBSTANCE_ID>
310935236

> <PUBCHEM_SUBSTANCE_VERSION>
1

> <PUBCHEM_EXT_DATASOURCE_NAME>
4488

> <PUBCHEM_EXT_DATASOURCE_REGID>
SCHEMBL16112764

> <PUBCHEM_SUBSTANCE_COMMENT>
InChI=1S/C24H35N3O5/c1-15-14-27-17(13-16(25-27)21(28)30-7)19(26-11-9-24(5,6)10-12-26)18(15)20(22(29)31-8)32-23(2,3)4/h13-14,20H,9-12H2,1-8H3/t20-/m0/s1
InChIKey=XVZXBKQWRJHYPK-FQEVSTJZSA-N

> <PUBCHEM_SUBSTANCE_SYNONYM>
SCHEMBL16112764

> <PUBCHEM_XREF_EXT_ID>
SCHEMBL16112764

> <PUBCHEM_EXT_DATASOURCE_URL>
https://www.surechembl.org/

> <PUBCHEM_EXT_SUBSTANCE_URL>
https://www.surechembl.org/chemical/SCHEMBL16112764

> <PUBCHEM_CID_ASSOCIATIONS>
117603313  1

> <PUBCHEM_COORDINATE_TYPE>
1
3

> <PUBCHEM_BONDANNOTATIONS>
13  1  6

$$$$
