310939284
  -OEChem-07211613022D

 26 28  0     0  0  0  0  0  0999 V2000
    0.8250    0.7145    0.0000 F   0  0  0  0  0  0  0  0  0  0  0  0
    0.8250   -2.1434    0.0000 F   0  0  0  0  0  0  0  0  0  0  0  0
    1.6500   -0.7145    0.0000 O   0  0  0  0  0  0  0  0  0  0  0  0
   -1.6500    0.7145    0.0000 N   0  0  0  0  0  0  0  0  0  0  0  0
    3.3000   -3.5724    0.0000 N   0  0  0  0  0  0  0  0  0  0  0  0
   -3.3000    3.5724    0.0000 N   0  0  0  0  0  0  0  0  0  0  0  0
    0.8250   -0.7145    0.0000 C   0  0  0  0  0  0  0  0  0  0  0  0
    0.4125    0.0000    0.0000 C   0  0  0  0  0  0  0  0  0  0  0  0
   -0.4125    0.0000    0.0000 C   0  0  0  0  0  0  0  0  0  0  0  0
    0.4125   -1.4289    0.0000 C   0  0  0  0  0  0  0  0  0  0  0  0
    2.0625   -1.4289    0.0000 C   0  0  0  0  0  0  0  0  0  0  0  0
   -0.8250   -0.7145    0.0000 C   0  0  0  0  0  0  0  0  0  0  0  0
   -0.4125   -1.4289    0.0000 C   0  0  0  0  0  0  0  0  0  0  0  0
   -0.8250    0.7145    0.0000 C   0  0  0  0  0  0  0  0  0  0  0  0
    1.6500   -2.1434    0.0000 C   0  0  0  0  0  0  0  0  0  0  0  0
    2.0625   -2.8579    0.0000 C   0  0  0  0  0  0  0  0  0  0  0  0
    2.8875   -1.4289    0.0000 C   0  0  0  0  0  0  0  0  0  0  0  0
    2.8875   -2.8579    0.0000 C   0  0  0  0  0  0  0  0  0  0  0  0
    3.3000   -2.1434    0.0000 C   0  0  0  0  0  0  0  0  0  0  0  0
   -2.0625    1.4289    0.0000 C   0  0  0  0  0  0  0  0  0  0  0  0
   -2.8875    1.4289    0.0000 C   0  0  0  0  0  0  0  0  0  0  0  0
   -1.6500    2.1434    0.0000 C   0  0  0  0  0  0  0  0  0  0  0  0
    1.6500   -3.5724    0.0000 C   0  0  0  0  0  0  0  0  0  0  0  0
   -2.8875    2.8579    0.0000 C   0  0  0  0  0  0  0  0  0  0  0  0
   -2.0625    2.8579    0.0000 C   0  0  0  0  0  0  0  0  0  0  0  0
   -3.3000    2.1434    0.0000 C   0  0  0  0  0  0  0  0  0  0  0  0
  1  8  1  0  0  0  0
  2 10  1  0  0  0  0
  3  7  1  0  0  0  0
  3 11  1  0  0  0  0
  4 14  1  0  0  0  0
 20  4  1  1  0  0  0
  5 18  1  0  0  0  0
 24  6  1  1  0  0  0
  7  8  2  0  0  0  0
  7 10  1  0  0  0  0
  8  9  1  0  0  0  0
  9 12  2  0  0  0  0
  9 14  1  0  0  0  0
 10 13  2  0  0  0  0
 11 15  2  0  0  0  0
 11 17  1  0  0  0  0
 12 13  1  0  0  0  0
 15 16  1  0  0  0  0
 16 18  2  0  0  0  0
 16 23  1  0  0  0  0
 17 19  2  0  0  0  0
 18 19  1  0  0  0  0
 20 21  1  0  0  0  0
 20 22  1  0  0  0  0
 21 26  1  0  0  0  0
 22 25  1  0  0  0  0
 24 25  1  0  0  0  0
 24 26  1  0  0  0  0
M  END
> <PUBCHEM_COMPOUND_ID_TYPE>
0

> <PUBCHEM_TOTAL_CHARGE>
0

> <PUBCHEM_SUBSTANCE_ID>
310939284

> <PUBCHEM_SUBSTANCE_VERSION>
1

> <PUBCHEM_EXT_DATASOURCE_NAME>
4488

> <PUBCHEM_EXT_DATASOURCE_REGID>
SCHEMBL16117205

> <PUBCHEM_SUBSTANCE_COMMENT>
InChI=1S/C20H25F2N3O/c1-12-10-16(7-9-18(12)24)26-20-17(21)8-2-13(19(20)22)11-25-15-5-3-14(23)4-6-15/h2,7-10,14-15,25H,3-6,11,23-24H2,1H3/t14-,15+
InChIKey=MQYHVDAXBNNEEA-GASCZTMLSA-N

> <PUBCHEM_SUBSTANCE_SYNONYM>
SCHEMBL16117205

> <PUBCHEM_XREF_EXT_ID>
SCHEMBL16117205

> <PUBCHEM_EXT_DATASOURCE_URL>
https://www.surechembl.org/

> <PUBCHEM_EXT_SUBSTANCE_URL>
https://www.surechembl.org/chemical/SCHEMBL16117205

> <PUBCHEM_CID_ASSOCIATIONS>
117606625  1

> <PUBCHEM_COORDINATE_TYPE>
1
3

> <PUBCHEM_BONDANNOTATIONS>
20  4  5
24  6  5

$$$$
