310942625
  -OEChem-07211613022D

 34 37  0     0  0  0  0  0  0999 V2000
    2.8871    0.6686    0.0000 S   0  0  0  0  0  0  0  0  0  0  0  0
    4.3306    1.4923    0.0000 F   0  0  0  0  0  0  0  0  0  0  0  0
    5.7743   -0.9786    0.0000 F   0  0  0  0  0  0  0  0  0  0  0  0
    3.3033    1.3860    0.0000 O   0  0  0  0  0  0  0  0  0  0  0  0
    2.4709    1.3860    0.0000 O   0  0  0  0  0  0  0  0  0  0  0  0
   -5.7743    1.4923    0.0000 O   0  0  0  0  0  0  0  0  0  0  0  0
    0.0000   -0.9786    0.0000 N   0  0  0  0  0  0  0  0  0  0  0  0
   -0.7174    0.2524    0.0000 N   0  0  0  0  0  0  0  0  0  0  0  0
   -1.4435   -0.9786    0.0000 N   0  0  0  0  0  0  0  0  0  0  0  0
   -4.3306    0.6686    0.0000 N   0  0  0  0  0  0  0  0  0  0  0  0
    1.4435   -0.9786    0.0000 N   0  0  0  0  0  0  0  0  0  0  0  0
    3.6222    0.2524    0.0000 C   0  0  0  0  0  0  0  0  0  0  0  0
    4.3396    0.6686    0.0000 C   0  0  0  0  0  0  0  0  0  0  0  0
    2.1609    0.2612    0.0000 C   0  0  0  0  0  0  0  0  0  0  0  0
    0.7351    0.2524    0.0000 C   0  0  0  0  0  0  0  0  0  0  0  0
    3.6222   -0.5624    0.0000 C   0  0  0  0  0  0  0  0  0  0  0  0
    0.7262   -0.5624    0.0000 C   0  0  0  0  0  0  0  0  0  0  0  0
    1.4435    0.6686    0.0000 C   0  0  0  0  0  0  0  0  0  0  0  0
   -0.7174   -0.5624    0.0000 C   0  0  0  0  0  0  0  0  0  0  0  0
    5.0569    0.2524    0.0000 C   0  0  0  0  0  0  0  0  0  0  0  0
    5.0569   -0.5624    0.0000 C   0  0  0  0  0  0  0  0  0  0  0  0
    4.3396   -0.9698    0.0000 C   0  0  0  0  0  0  0  0  0  0  0  0
    0.0000    0.6686    0.0000 C   0  0  0  0  0  0  0  0  0  0  0  0
   -2.1609   -0.5624    0.0000 C   0  0  0  0  0  0  0  0  0  0  0  0
   -3.5956    0.2524    0.0000 C   0  0  0  0  0  0  0  0  0  0  0  0
   -2.8782   -0.9698    0.0000 C   0  0  0  0  0  0  0  0  0  0  0  0
   -2.1609    0.2524    0.0000 C   0  0  0  0  0  0  0  0  0  0  0  0
   -3.5956   -0.5624    0.0000 C   0  0  0  0  0  0  0  0  0  0  0  0
   -2.8871    0.6598    0.0000 C   0  0  0  0  0  0  0  0  0  0  0  0
   -4.3218    1.4923    0.0000 C   0  0  0  0  0  0  0  0  0  0  0  0
   -5.0569    0.2612    0.0000 C   0  0  0  0  0  0  0  0  0  0  0  0
   -5.0569    1.8996    0.0000 C   0  0  0  0  0  0  0  0  0  0  0  0
   -5.7654    0.6686    0.0000 C   0  0  0  0  0  0  0  0  0  0  0  0
    1.4347   -1.8996    0.0000 C   0  0  0  0  0  0  0  0  0  0  0  0
  1  4  2  0  0  0  0
  1  5  2  0  0  0  0
  1 12  1  0  0  0  0
  1 14  1  0  0  0  0
  2 13  1  0  0  0  0
  3 21  1  0  0  0  0
  6 32  1  0  0  0  0
  6 33  1  0  0  0  0
  7 17  2  0  0  0  0
  7 19  1  0  0  0  0
  8 19  2  0  0  0  0
  8 23  1  0  0  0  0
  9 19  1  0  0  0  0
  9 24  1  0  0  0  0
 10 25  1  0  0  0  0
 10 30  1  0  0  0  0
 10 31  1  0  0  0  0
 11 17  1  0  0  0  0
 11 34  1  0  0  0  0
 12 13  1  0  0  0  0
 12 16  2  0  0  0  0
 13 20  2  0  0  0  0
 14 18  2  0  0  0  0
 15 17  1  0  0  0  0
 15 18  1  0  0  0  0
 15 23  2  0  0  0  0
 16 22  1  0  0  0  0
 20 21  1  0  0  0  0
 21 22  2  0  0  0  0
 24 26  2  0  0  0  0
 24 27  1  0  0  0  0
 25 28  2  0  0  0  0
 25 29  1  0  0  0  0
 26 28  1  0  0  0  0
 27 29  2  0  0  0  0
 30 32  1  0  0  0  0
 31 33  1  0  0  0  0
M  END
> <PUBCHEM_COMPOUND_ID_TYPE>
0

> <PUBCHEM_TOTAL_CHARGE>
0

> <PUBCHEM_SUBSTANCE_ID>
310942625

> <PUBCHEM_SUBSTANCE_VERSION>
1

> <PUBCHEM_EXT_DATASOURCE_NAME>
4488

> <PUBCHEM_EXT_DATASOURCE_REGID>
SCHEMBL16120671

> <PUBCHEM_SUBSTANCE_COMMENT>
InChI=1S/C23H23F2N5O3S/c1-26-22-16(8-13-34(31,32)21-7-2-17(24)14-20(21)25)15-27-23(29-22)28-18-3-5-19(6-4-18)30-9-11-33-12-10-30/h2-8,13-15H,9-12H2,1H3,(H2,26,27,28,29)/b13-8+
InChIKey=QFRGXQBNWHZBQL-MDWZMJQESA-N

> <PUBCHEM_SUBSTANCE_SYNONYM>
SCHEMBL16120671

> <PUBCHEM_XREF_EXT_ID>
SCHEMBL16120671

> <PUBCHEM_EXT_DATASOURCE_URL>
https://www.surechembl.org/

> <PUBCHEM_EXT_SUBSTANCE_URL>
https://www.surechembl.org/chemical/SCHEMBL16120671

> <PUBCHEM_CID_ASSOCIATIONS>
117609157  1

> <PUBCHEM_COORDINATE_TYPE>
1
3

$$$$
