310936742
  -OEChem-07211613022D

 44 51  0     0  0  0  0  0  0999 V2000
    1.6623   -2.1459    0.0000 N   0  0  0  0  0  0  0  0  0  0  0  0
    7.4350   -2.1459    0.0000 N   0  0  0  0  0  0  0  0  0  0  0  0
    4.1709   -2.1459    0.0000 C   0  0  0  0  0  0  0  0  0  0  0  0
    3.7176   -2.8410    0.0000 C   0  0  0  0  0  0  0  0  0  0  0  0
    2.8712   -2.8410    0.0000 C   0  0  0  0  0  0  0  0  0  0  0  0
    3.7176   -1.4508    0.0000 C   0  0  0  0  0  0  0  0  0  0  0  0
    4.9265   -2.1459    0.0000 C   0  0  0  0  0  0  0  0  0  0  0  0
    2.4784   -2.1459    0.0000 C   0  0  0  0  0  0  0  0  0  0  0  0
    5.3798   -1.4508    0.0000 C   0  0  0  0  0  0  0  0  0  0  0  0
    2.8712   -1.4508    0.0000 C   0  0  0  0  0  0  0  0  0  0  0  0
    4.1709   -0.7253    0.0000 C   0  0  0  0  0  0  0  0  0  0  0  0
    5.3798   -2.8410    0.0000 C   0  0  0  0  0  0  0  0  0  0  0  0
    6.6190   -2.1459    0.0000 C   0  0  0  0  0  0  0  0  0  0  0  0
    4.9265   -0.7253    0.0000 C   0  0  0  0  0  0  0  0  0  0  0  0
    4.1709   -3.5664    0.0000 C   0  0  0  0  0  0  0  0  0  0  0  0
    6.2261   -1.4508    0.0000 C   0  0  0  0  0  0  0  0  0  0  0  0
    2.4784   -3.5664    0.0000 C   0  0  0  0  0  0  0  0  0  0  0  0
    1.2392   -1.4508    0.0000 C   0  0  0  0  0  0  0  0  0  0  0  0
    1.2694   -2.8712    0.0000 C   0  0  0  0  0  0  0  0  0  0  0  0
    6.2261   -2.8410    0.0000 C   0  0  0  0  0  0  0  0  0  0  0  0
    3.7176   -4.2615    0.0000 C   0  0  0  0  0  0  0  0  0  0  0  0
    2.8712   -4.2615    0.0000 C   0  0  0  0  0  0  0  0  0  0  0  0
    7.8582   -2.8410    0.0000 C   0  0  0  0  0  0  0  0  0  0  0  0
    7.8280   -1.4205    0.0000 C   0  0  0  0  0  0  0  0  0  0  0  0
    0.4232   -1.4508    0.0000 C   0  0  0  0  0  0  0  0  0  0  0  0
    1.6623   -3.5664    0.0000 C   0  0  0  0  0  0  0  0  0  0  0  0
    1.6623   -0.7253    0.0000 C   0  0  0  0  0  0  0  0  0  0  0  0
    0.4232   -2.8712    0.0000 C   0  0  0  0  0  0  0  0  0  0  0  0
    8.6742   -2.8410    0.0000 C   0  0  0  0  0  0  0  0  0  0  0  0
    7.4350   -0.7253    0.0000 C   0  0  0  0  0  0  0  0  0  0  0  0
    7.4350   -3.5664    0.0000 C   0  0  0  0  0  0  0  0  0  0  0  0
    8.6742   -1.4205    0.0000 C   0  0  0  0  0  0  0  0  0  0  0  0
    0.0000   -0.7253    0.0000 C   0  0  0  0  0  0  0  0  0  0  0  0
    1.2694   -4.2918    0.0000 C   0  0  0  0  0  0  0  0  0  0  0  0
    1.2392    0.0000    0.0000 C   0  0  0  0  0  0  0  0  0  0  0  0
    0.0302   -3.5967    0.0000 C   0  0  0  0  0  0  0  0  0  0  0  0
    0.4232    0.0000    0.0000 C   0  0  0  0  0  0  0  0  0  0  0  0
    0.4534   -4.2918    0.0000 C   0  0  0  0  0  0  0  0  0  0  0  0
    9.0672   -3.5664    0.0000 C   0  0  0  0  0  0  0  0  0  0  0  0
    7.8280    0.0000    0.0000 C   0  0  0  0  0  0  0  0  0  0  0  0
    7.8582   -4.2918    0.0000 C   0  0  0  0  0  0  0  0  0  0  0  0
    9.0672   -0.6951    0.0000 C   0  0  0  0  0  0  0  0  0  0  0  0
    8.6742   -4.2918    0.0000 C   0  0  0  0  0  0  0  0  0  0  0  0
    8.6440    0.0000    0.0000 C   0  0  0  0  0  0  0  0  0  0  0  0
  1  8  1  0  0  0  0
  1 18  1  0  0  0  0
  1 19  1  0  0  0  0
  2 13  1  0  0  0  0
  2 23  1  0  0  0  0
  2 24  1  0  0  0  0
  3  4  2  0  0  0  0
  3  6  1  0  0  0  0
  3  7  1  0  0  0  0
  4  5  1  0  0  0  0
  4 15  1  0  0  0  0
  5  8  2  0  0  0  0
  5 17  1  0  0  0  0
  6 10  2  0  0  0  0
  6 11  1  0  0  0  0
  7  9  2  0  0  0  0
  7 12  1  0  0  0  0
  8 10  1  0  0  0  0
  9 14  1  0  0  0  0
  9 16  1  0  0  0  0
 11 14  1  0  0  0  0
 12 20  2  0  0  0  0
 13 16  2  0  0  0  0
 13 20  1  0  0  0  0
 15 21  2  0  0  0  0
 17 22  2  0  0  0  0
 18 25  2  0  0  0  0
 18 27  1  0  0  0  0
 19 26  2  0  0  0  0
 19 28  1  0  0  0  0
 21 22  1  0  0  0  0
 23 29  2  0  0  0  0
 23 31  1  0  0  0  0
 24 30  2  0  0  0  0
 24 32  1  0  0  0  0
 25 33  1  0  0  0  0
 26 34  1  0  0  0  0
 27 35  2  0  0  0  0
 28 36  2  0  0  0  0
 29 39  1  0  0  0  0
 30 40  1  0  0  0  0
 31 41  2  0  0  0  0
 32 42  2  0  0  0  0
 33 37  2  0  0  0  0
 34 38  2  0  0  0  0
 35 37  1  0  0  0  0
 36 38  1  0  0  0  0
 39 43  2  0  0  0  0
 40 44  2  0  0  0  0
 41 43  1  0  0  0  0
 42 44  1  0  0  0  0
M  END
> <PUBCHEM_COMPOUND_ID_TYPE>
0

> <PUBCHEM_TOTAL_CHARGE>
0

> <PUBCHEM_SUBSTANCE_ID>
310936742

> <PUBCHEM_SUBSTANCE_VERSION>
1

> <PUBCHEM_EXT_DATASOURCE_NAME>
4488

> <PUBCHEM_EXT_DATASOURCE_REGID>
SCHEMBL16114425

> <PUBCHEM_SUBSTANCE_COMMENT>
InChI=1S/C42H32N2/c1-5-15-33(16-6-1)43(34-17-7-2-8-18-34)37-27-28-38-31(29-37)25-26-32-30-41(39-23-13-14-24-40(39)42(32)38)44(35-19-9-3-10-20-35)36-21-11-4-12-22-36/h1-24,27-30H,25-26H2
InChIKey=LYZVMURHACMDES-UHFFFAOYSA-N

> <PUBCHEM_SUBSTANCE_SYNONYM>
SCHEMBL16114425

> <PUBCHEM_XREF_EXT_ID>
SCHEMBL16114425

> <PUBCHEM_EXT_DATASOURCE_URL>
https://www.surechembl.org/

> <PUBCHEM_EXT_SUBSTANCE_URL>
https://www.surechembl.org/chemical/SCHEMBL16114425

> <PUBCHEM_CID_ASSOCIATIONS>
117604640  1

> <PUBCHEM_COORDINATE_TYPE>
1
3

$$$$
