310929358
  -OEChem-07211613022D

 28 29  0     0  0  0  0  0  0999 V2000
    5.0144  -10.2334    0.0000 Cl  0  0  0  0  0  0  0  0  0  0  0  0
    7.8285   -8.5960    0.0000 O   0  0  0  0  0  0  0  0  0  0  0  0
    1.4327    0.0000    0.0000 O   0  0  0  0  0  0  0  0  0  0  0  0
    0.7164   -1.2280    0.0000 O   0  0  0  0  0  0  0  0  0  0  0  0
    6.4470   -7.7773    0.0000 N   0  0  0  0  0  0  0  0  0  0  0  0
    6.4470   -8.5960    0.0000 C   0  0  0  0  0  0  0  0  0  0  0  0
    5.7307   -9.0054    0.0000 C   0  0  0  0  0  0  0  0  0  0  0  0
    7.1634   -9.0054    0.0000 C   0  0  0  0  0  0  0  0  0  0  0  0
    5.7307   -9.8240    0.0000 C   0  0  0  0  0  0  0  0  0  0  0  0
    5.7307   -7.3680    0.0000 C   0  0  0  0  0  0  0  0  0  0  0  0
    5.0144   -8.6472    0.0000 C   0  0  0  0  0  0  0  0  0  0  0  0
    7.1634   -9.8240    0.0000 C   0  0  0  0  0  0  0  0  0  0  0  0
    6.4470  -10.2334    0.0000 C   0  0  0  0  0  0  0  0  0  0  0  0
    5.0144   -7.7773    0.0000 C   0  0  0  0  0  0  0  0  0  0  0  0
    5.6795   -6.5493    0.0000 C   0  0  0  0  0  0  0  0  0  0  0  0
    5.0144   -6.1400    0.0000 C   0  0  0  0  0  0  0  0  0  0  0  0
    7.8285   -7.7773    0.0000 C   0  0  0  0  0  0  0  0  0  0  0  0
    5.0144   -5.3213    0.0000 C   0  0  0  0  0  0  0  0  0  0  0  0
    4.2980   -4.9120    0.0000 C   0  0  0  0  0  0  0  0  0  0  0  0
    4.2980   -4.0933    0.0000 C   0  0  0  0  0  0  0  0  0  0  0  0
    3.5817   -3.6840    0.0000 C   0  0  0  0  0  0  0  0  0  0  0  0
    3.5817   -2.8653    0.0000 C   0  0  0  0  0  0  0  0  0  0  0  0
    0.7164   -0.4093    0.0000 C   0  0  0  0  0  0  0  0  0  0  0  0
    2.1490   -0.4093    0.0000 C   0  0  0  0  0  0  0  0  0  0  0  0
    2.8653   -2.4560    0.0000 C   0  0  0  0  0  0  0  0  0  0  0  0
    2.1490   -1.2280    0.0000 C   0  0  0  0  0  0  0  0  0  0  0  0
    2.8653   -1.6373    0.0000 C   0  0  0  0  0  0  0  0  0  0  0  0
    0.0000    0.0000    0.0000 C   0  0  0  0  0  0  0  0  0  0  0  0
  1  9  1  0  0  0  0
  2  8  1  0  0  0  0
  2 17  1  0  0  0  0
  3 23  1  0  0  0  0
  3 24  1  0  0  0  0
  4 23  2  0  0  0  0
  5  6  2  0  0  0  0
  5 10  1  0  0  0  0
  6  7  1  0  0  0  0
  6  8  1  0  0  0  0
  7  9  1  0  0  0  0
  7 11  2  0  0  0  0
  8 12  2  0  0  0  0
  9 13  2  0  0  0  0
 10 14  2  0  0  0  0
 10 15  1  0  0  0  0
 11 14  1  0  0  0  0
 12 13  1  0  0  0  0
 15 16  1  0  0  0  0
 16 18  1  0  0  0  0
 18 19  1  0  0  0  0
 19 20  1  0  0  0  0
 20 21  1  0  0  0  0
 21 22  1  0  0  0  0
 22 25  1  0  0  0  0
 23 28  1  0  0  0  0
 24 26  1  0  0  0  0
 25 27  1  0  0  0  0
 26 27  1  0  0  0  0
M  END
> <PUBCHEM_COMPOUND_ID_TYPE>
0

> <PUBCHEM_TOTAL_CHARGE>
0

> <PUBCHEM_SUBSTANCE_ID>
310929358

> <PUBCHEM_SUBSTANCE_VERSION>
1

> <PUBCHEM_EXT_DATASOURCE_NAME>
4488

> <PUBCHEM_EXT_DATASOURCE_REGID>
SCHEMBL16106526

> <PUBCHEM_SUBSTANCE_COMMENT>
InChI=1S/C23H32ClNO3/c1-18(26)28-17-11-9-7-5-3-4-6-8-10-12-19-13-14-20-21(24)15-16-22(27-2)23(20)25-19/h13-16H,3-12,17H2,1-2H3
InChIKey=QRHNNSCBBNYRDP-UHFFFAOYSA-N

> <PUBCHEM_SUBSTANCE_SYNONYM>
SCHEMBL16106526

> <PUBCHEM_XREF_EXT_ID>
SCHEMBL16106526

> <PUBCHEM_EXT_DATASOURCE_URL>
https://www.surechembl.org/

> <PUBCHEM_EXT_SUBSTANCE_URL>
https://www.surechembl.org/chemical/SCHEMBL16106526

> <PUBCHEM_CID_ASSOCIATIONS>
86300012  1

> <PUBCHEM_COORDINATE_TYPE>
1
3

$$$$
