310942562
  -OEChem-07211613022D

 82 87  0     1  0  0  0  0  0999 V2000
    9.7146   -1.6100    0.0000 F   0  0  0  0  0  0  0  0  0  0  0  0
   11.0533    1.4110    0.0000 F   0  0  0  0  0  0  0  0  0  0  0  0
    8.1588    1.2483    0.0000 O   0  0  0  0  0  0  0  0  0  0  0  0
    5.3729    3.2563    0.0000 O   0  0  0  0  0  0  0  0  0  0  0  0
    2.4241    1.2301    0.0000 O   0  0  0  0  0  0  0  0  0  0  0  0
    3.1477    2.4784    0.0000 O   0  0  0  0  0  0  0  0  0  0  0  0
   -1.8634    1.2483    0.0000 O   0  0  0  0  0  0  0  0  0  0  0  0
   -4.0161   -0.8321    0.0000 O   0  0  0  0  0  0  0  0  0  0  0  0
  -11.1980   -1.0311    0.0000 O   0  0  0  0  0  0  0  0  0  0  0  0
   -8.2854   -1.0493    0.0000 O   0  0  0  0  0  0  0  0  0  0  0  0
   -6.1689    1.2483    0.0000 O   0  0  0  0  0  0  0  0  0  0  0  0
   -4.7397   -1.2301    0.0000 O   0  0  0  0  0  0  0  0  0  0  0  0
    7.5257   -0.8141    0.0000 N   0  0  0  0  0  0  0  0  0  0  0  0
    6.7116    1.2483    0.0000 N   0  0  0  0  0  0  0  0  0  0  0  0
    8.1950    0.3437    0.0000 N   0  0  0  0  0  0  0  0  0  0  0  0
    8.3216   -0.9769    0.0000 N   0  0  0  0  0  0  0  0  0  0  0  0
    7.4352    2.4965    0.0000 N   0  0  0  0  0  0  0  0  0  0  0  0
    3.8533    1.2483    0.0000 N   0  0  0  0  0  0  0  0  0  0  0  0
   -9.7508   -0.7959    0.0000 N   0  0  0  0  0  0  0  0  0  0  0  0
   -3.3106    0.4161    0.0000 N   0  0  0  0  0  0  0  0  0  0  0  0
   -1.1578    0.0181    0.0000 N   0  0  0  0  0  0  0  0  0  0  0  0
   -5.4633    0.0181    0.0000 N   0  0  0  0  0  0  0  0  0  0  0  0
   -4.0161   -2.4784    0.0000 N   0  0  0  0  0  0  0  0  0  0  0  0
   -5.4633   -2.4784    0.0000 N   0  0  0  0  0  0  0  0  0  0  0  0
    6.7116    0.4342    0.0000 C   0  0  3  0  0  0  0  0  0  0  0  0
    7.4533    0.0181    0.0000 C   0  0  0  0  0  0  0  0  0  0  0  0
    6.0060    0.0181    0.0000 C   0  0  0  0  0  0  0  0  0  0  0  0
    8.7377   -0.2532    0.0000 C   0  0  0  0  0  0  0  0  0  0  0  0
    7.4171    1.6824    0.0000 C   0  0  0  0  0  0  0  0  0  0  0  0
    9.5518   -0.1809    0.0000 C   0  0  0  0  0  0  0  0  0  0  0  0
    6.9286   -1.3568    0.0000 C   0  0  0  0  0  0  0  0  0  0  0  0
    6.0060    1.6643    0.0000 C   0  0  0  0  0  0  0  0  0  0  0  0
   10.0583   -0.8321    0.0000 C   0  0  0  0  0  0  0  0  0  0  0  0
    6.7839    2.9668    0.0000 C   0  0  3  0  0  0  0  0  0  0  0  0
    9.9136    0.5608    0.0000 C   0  0  0  0  0  0  0  0  0  0  0  0
    5.2824    0.4161    0.0000 C   0  0  0  0  0  0  0  0  0  0  0  0
    5.2824   -0.4161    0.0000 C   0  0  0  0  0  0  0  0  0  0  0  0
    6.0242   -0.8321    0.0000 C   0  0  0  0  0  0  0  0  0  0  0  0
    7.0733   -2.1528    0.0000 C   0  0  0  0  0  0  0  0  0  0  0  0
    8.1046    2.9849    0.0000 C   0  0  0  0  0  0  0  0  0  0  0  0
   10.7096    0.6512    0.0000 C   0  0  0  0  0  0  0  0  0  0  0  0
   10.8724   -0.7598    0.0000 C   0  0  0  0  0  0  0  0  0  0  0  0
    7.0372    3.7628    0.0000 C   0  0  0  0  0  0  0  0  0  0  0  0
    5.3005    1.2483    0.0000 C   0  0  0  0  0  0  0  0  0  0  0  0
    7.8694    3.7447    0.0000 C   0  0  0  0  0  0  0  0  0  0  0  0
   11.1980    0.0000    0.0000 C   0  0  0  0  0  0  0  0  0  0  0  0
    6.0060    2.7136    0.0000 C   0  0  0  0  0  0  0  0  0  0  0  0
    6.4764   -2.7317    0.0000 C   0  0  0  0  0  0  0  0  0  0  0  0
    7.8512   -2.4241    0.0000 C   0  0  0  0  0  0  0  0  0  0  0  0
    4.5769    1.6643    0.0000 C   0  0  0  0  0  0  0  0  0  0  0  0
    6.6573   -3.5096    0.0000 C   0  0  0  0  0  0  0  0  0  0  0  0
    8.0322   -3.2201    0.0000 C   0  0  0  0  0  0  0  0  0  0  0  0
    7.4352   -3.7628    0.0000 C   0  0  0  0  0  0  0  0  0  0  0  0
    3.1297    1.6462    0.0000 C   0  0  0  0  0  0  0  0  0  0  0  0
    1.6824    1.6462    0.0000 C   0  0  0  0  0  0  0  0  0  0  0  0
    0.9950    1.2483    0.0000 C   0  0  0  0  0  0  0  0  0  0  0  0
   -2.5508    0.0181    0.0000 C   0  0  3  0  0  0  0  0  0  0  0  0
   -0.4342    0.4342    0.0000 C   0  0  0  0  0  0  0  0  0  0  0  0
   -1.8814    0.4161    0.0000 C   0  0  0  0  0  0  0  0  0  0  0  0
   -4.7397    0.4342    0.0000 C   0  0  3  0  0  0  0  0  0  0  0  0
   -4.0161    0.0362    0.0000 C   0  0  0  0  0  0  0  0  0  0  0  0
  -10.3839   -1.3025    0.0000 C   0  0  0  0  0  0  0  0  0  0  0  0
   -9.0995   -1.2845    0.0000 C   0  0  0  0  0  0  0  0  0  0  0  0
    0.9769    0.4161    0.0000 C   0  0  0  0  0  0  0  0  0  0  0  0
    0.2532    1.6462    0.0000 C   0  0  0  0  0  0  0  0  0  0  0  0
    0.2894    0.0181    0.0000 C   0  0  0  0  0  0  0  0  0  0  0  0
   -0.4161    1.2483    0.0000 C   0  0  0  0  0  0  0  0  0  0  0  0
  -10.1668   -2.0623    0.0000 C   0  0  0  0  0  0  0  0  0  0  0  0
   -9.3347   -2.0804    0.0000 C   0  0  0  0  0  0  0  0  0  0  0  0
   -4.7397    1.2845    0.0000 C   0  0  0  0  0  0  0  0  0  0  0  0
   -9.7326    0.0362    0.0000 C   0  0  0  0  0  0  0  0  0  0  0  0
   -2.5688   -0.8321    0.0000 C   0  0  0  0  0  0  0  0  0  0  0  0
   -6.1689    0.4161    0.0000 C   0  0  0  0  0  0  0  0  0  0  0  0
   -9.0272    0.4342    0.0000 C   0  0  0  0  0  0  0  0  0  0  0  0
   -3.2744   -1.2121    0.0000 C   0  0  0  0  0  0  0  0  0  0  0  0
   -6.8563    0.0181    0.0000 C   0  0  0  0  0  0  0  0  0  0  0  0
   -8.3035    0.0181    0.0000 C   0  0  0  0  0  0  0  0  0  0  0  0
   -5.4453    1.6824    0.0000 C   0  0  0  0  0  0  0  0  0  0  0  0
   -3.9980    1.6824    0.0000 C   0  0  0  0  0  0  0  0  0  0  0  0
   -7.6161    0.4161    0.0000 C   0  0  0  0  0  0  0  0  0  0  0  0
   -3.3106   -2.0623    0.0000 C   0  0  0  0  0  0  0  0  0  0  0  0
   -4.7397   -2.0623    0.0000 C   0  0  0  0  0  0  0  0  0  0  0  0
  1 33  1  0  0  0  0
  2 41  1  0  0  0  0
  3 29  2  0  0  0  0
  4 47  1  0  0  0  0
  5 54  1  0  0  0  0
  5 55  1  0  0  0  0
  6 54  2  0  0  0  0
  7 59  2  0  0  0  0
  8 61  2  0  0  0  0
  9 62  2  0  0  0  0
 10 63  2  0  0  0  0
 11 73  2  0  0  0  0
 12 82  2  0  0  0  0
 13 16  1  0  0  0  0
 13 26  1  0  0  0  0
 13 31  1  0  0  0  0
 25 14  1  1  0  0  0
 14 29  1  0  0  0  0
 14 32  1  0  0  0  0
 15 26  2  0  0  0  0
 15 28  1  0  0  0  0
 16 28  2  0  0  0  0
 17 29  1  0  0  0  0
 17 34  1  0  0  0  0
 17 40  1  0  0  0  0
 18 50  1  0  0  0  0
 18 54  1  0  0  0  0
 19 62  1  0  0  0  0
 19 63  1  0  0  0  0
 19 71  1  0  0  0  0
 57 20  1  6  0  0  0
 20 61  1  0  0  0  0
 21 58  1  0  0  0  0
 21 59  1  0  0  0  0
 60 22  1  1  0  0  0
 22 73  1  0  0  0  0
 23 81  1  0  0  0  0
 23 82  1  0  0  0  0
 24 82  1  0  0  0  0
 25 26  1  0  0  0  0
 25 27  1  0  0  0  0
 27 36  1  0  0  0  0
 27 37  1  0  0  0  0
 27 38  1  0  0  0  0
 28 30  1  0  0  0  0
 30 33  2  0  0  0  0
 30 35  1  0  0  0  0
 31 39  1  0  0  0  0
 32 44  1  0  0  0  0
 33 42  1  0  0  0  0
 34 43  1  0  0  0  0
 34 47  1  6  0  0  0
 35 41  2  0  0  0  0
 39 48  2  0  0  0  0
 39 49  1  0  0  0  0
 40 45  1  0  0  0  0
 41 46  1  0  0  0  0
 42 46  2  0  0  0  0
 43 45  1  0  0  0  0
 44 50  1  0  0  0  0
 48 51  1  0  0  0  0
 49 52  2  0  0  0  0
 51 53  2  0  0  0  0
 52 53  1  0  0  0  0
 55 56  1  0  0  0  0
 56 64  2  0  0  0  0
 56 65  1  0  0  0  0
 57 59  1  0  0  0  0
 57 72  1  0  0  0  0
 58 66  2  0  0  0  0
 58 67  1  0  0  0  0
 60 61  1  0  0  0  0
 60 70  1  0  0  0  0
 62 68  1  0  0  0  0
 63 69  1  0  0  0  0
 64 66  1  0  0  0  0
 65 67  2  0  0  0  0
 68 69  2  0  0  0  0
 70 78  1  0  0  0  0
 70 79  1  0  0  0  0
 71 74  1  0  0  0  0
 72 75  1  0  0  0  0
 73 76  1  0  0  0  0
 74 77  1  0  0  0  0
 75 81  1  0  0  0  0
 76 80  1  0  0  0  0
 77 80  1  0  0  0  0
M  END
> <PUBCHEM_COMPOUND_ID_TYPE>
0

> <PUBCHEM_TOTAL_CHARGE>
0

> <PUBCHEM_SUBSTANCE_ID>
310942562

> <PUBCHEM_SUBSTANCE_VERSION>
1

> <PUBCHEM_EXT_DATASOURCE_NAME>
4488

> <PUBCHEM_EXT_DATASOURCE_REGID>
SCHEMBL16120605

> <PUBCHEM_SUBSTANCE_COMMENT>
InChI=1S/C58H76F2N12O10/c1-37(2)49(66-46(74)19-10-7-11-30-70-47(75)26-27-48(70)76)54(78)65-45(18-12-28-62-55(61)79)53(77)64-41-23-20-39(21-24-41)36-82-56(80)63-29-14-32-71(57(81)69-31-13-17-42(69)35-73)50(58(3,4)5)52-67-51(43-33-40(59)22-25-44(43)60)68-72(52)34-38-15-8-6-9-16-38/h6,8-9,15-16,20-27,33,37,42,45,49-50,73H,7,10-14,17-19,28-32,34-36H2,1-5H3,(H,63,80)(H,64,77)(H,65,78)(H,66,74)(H3,61,62,79)/t42-,45-,49-,50-/m0/s1
InChIKey=YWLVRUPOUNZVOE-FVWYNKEASA-N

> <PUBCHEM_SUBSTANCE_SYNONYM>
SCHEMBL16120605

> <PUBCHEM_XREF_EXT_ID>
SCHEMBL16120605

> <PUBCHEM_EXT_DATASOURCE_URL>
https://www.surechembl.org/

> <PUBCHEM_EXT_SUBSTANCE_URL>
https://www.surechembl.org/chemical/SCHEMBL16120605

> <PUBCHEM_CID_ASSOCIATIONS>
117609118  1

> <PUBCHEM_COORDINATE_TYPE>
1
3

> <PUBCHEM_BONDANNOTATIONS>
25  14  5
57  20  6
60  22  5
34  47  6

$$$$
