310929158
  -OEChem-07211613022D

 47 52  0     0  0  0  0  0  0999 V2000
    6.3235   -6.7018    0.0000 O   0  0  0  0  0  0  0  0  0  0  0  0
    3.5130   -4.2157    0.0000 O   0  0  0  0  0  0  0  0  0  0  0  0
    7.7287   -6.7018    0.0000 O   0  0  0  0  0  0  0  0  0  0  0  0
    4.1616   -8.7556    0.0000 O   0  0  0  0  0  0  0  0  0  0  0  0
   10.2148   -6.9180    0.0000 O   0  0  0  0  0  0  0  0  0  0  0  0
    4.8642   -7.5125    0.0000 N   0  0  0  0  0  0  0  0  0  0  0  0
    3.4590   -7.5125    0.0000 N   0  0  0  0  0  0  0  0  0  0  0  0
    8.4853   -7.9449    0.0000 N   0  0  0  0  0  0  0  0  0  0  0  0
    2.8104   -2.9726    0.0000 N   0  0  0  0  0  0  0  0  0  0  0  0
    1.4052   -2.9185    0.0000 N   0  0  0  0  0  0  0  0  0  0  0  0
    2.1078   -1.6754    0.0000 N   0  0  0  0  0  0  0  0  0  0  0  0
    7.0261   -7.9449    0.0000 C   0  0  0  0  0  0  0  0  0  0  0  0
    6.3235   -7.5125    0.0000 C   0  0  0  0  0  0  0  0  0  0  0  0
    5.6208   -7.9449    0.0000 C   0  0  0  0  0  0  0  0  0  0  0  0
    6.3235   -9.1880    0.0000 C   0  0  0  0  0  0  0  0  0  0  0  0
    4.1616   -6.2694    0.0000 C   0  0  0  0  0  0  0  0  0  0  0  0
    4.1616   -5.4587    0.0000 C   0  0  0  0  0  0  0  0  0  0  0  0
    3.4590   -6.7018    0.0000 C   0  0  0  0  0  0  0  0  0  0  0  0
    7.0261   -8.7556    0.0000 C   0  0  0  0  0  0  0  0  0  0  0  0
    5.6208   -8.7556    0.0000 C   0  0  0  0  0  0  0  0  0  0  0  0
    3.4590   -5.0263    0.0000 C   0  0  0  0  0  0  0  0  0  0  0  0
    6.3235   -9.9986    0.0000 C   0  0  0  0  0  0  0  0  0  0  0  0
    7.7287   -7.5125    0.0000 C   0  0  0  0  0  0  0  0  0  0  0  0
    4.1616   -7.9449    0.0000 C   0  0  0  0  0  0  0  0  0  0  0  0
    2.7564   -6.2694    0.0000 C   0  0  0  0  0  0  0  0  0  0  0  0
    2.7564   -5.4047    0.0000 C   0  0  0  0  0  0  0  0  0  0  0  0
    4.8642   -6.7018    0.0000 C   0  0  0  0  0  0  0  0  0  0  0  0
    4.8642   -5.0263    0.0000 C   0  0  0  0  0  0  0  0  0  0  0  0
    2.7564   -3.7833    0.0000 C   0  0  0  0  0  0  0  0  0  0  0  0
    9.1880   -7.5125    0.0000 C   0  0  0  0  0  0  0  0  0  0  0  0
    5.7830   -6.4316    0.0000 C   0  0  0  0  0  0  0  0  0  0  0  0
    5.6208   -5.4587    0.0000 C   0  0  0  0  0  0  0  0  0  0  0  0
    5.4587   -9.9986    0.0000 C   0  0  0  0  0  0  0  0  0  0  0  0
    6.3235  -10.8094    0.0000 C   0  0  0  0  0  0  0  0  0  0  0  0
    7.1342   -9.9986    0.0000 C   0  0  0  0  0  0  0  0  0  0  0  0
    2.1078   -2.4862    0.0000 C   0  0  0  0  0  0  0  0  0  0  0  0
    2.0538   -4.1616    0.0000 C   0  0  0  0  0  0  0  0  0  0  0  0
    9.9986   -7.7287    0.0000 C   0  0  0  0  0  0  0  0  0  0  0  0
    9.4041   -6.7018    0.0000 C   0  0  0  0  0  0  0  0  0  0  0  0
    5.6208   -6.2694    0.0000 C   0  0  0  0  0  0  0  0  0  0  0  0
    1.3512   -3.7292    0.0000 C   0  0  0  0  0  0  0  0  0  0  0  0
    1.4052   -1.2430    0.0000 C   0  0  0  0  0  0  0  0  0  0  0  0
    0.7026   -1.6754    0.0000 C   0  0  0  0  0  0  0  0  0  0  0  0
    1.4593   -0.4324    0.0000 C   0  0  0  0  0  0  0  0  0  0  0  0
    0.0000   -1.2430    0.0000 C   0  0  0  0  0  0  0  0  0  0  0  0
    0.7566    0.0000    0.0000 C   0  0  0  0  0  0  0  0  0  0  0  0
    0.0000   -0.3784    0.0000 C   0  0  0  0  0  0  0  0  0  0  0  0
  1 13  1  0  0  0  0
  1 40  1  0  0  0  0
  2 21  1  0  0  0  0
  2 29  1  0  0  0  0
  3 23  2  0  0  0  0
  4 24  2  0  0  0  0
  5 38  1  0  0  0  0
  5 39  1  0  0  0  0
  6 14  1  0  0  0  0
  6 24  1  0  0  0  0
  7 18  1  0  0  0  0
  7 24  1  0  0  0  0
  8 23  1  0  0  0  0
  8 30  1  0  0  0  0
  9 29  2  0  0  0  0
  9 36  1  0  0  0  0
 10 36  2  0  0  0  0
 10 41  1  0  0  0  0
 11 36  1  0  0  0  0
 11 42  1  0  0  0  0
 12 13  2  0  0  0  0
 12 19  1  0  0  0  0
 12 23  1  0  0  0  0
 13 14  1  0  0  0  0
 14 20  2  0  0  0  0
 15 19  2  0  0  0  0
 15 20  1  0  0  0  0
 15 22  1  0  0  0  0
 16 17  2  0  0  0  0
 16 18  1  0  0  0  0
 16 27  1  0  0  0  0
 17 21  1  0  0  0  0
 17 28  1  0  0  0  0
 18 25  2  0  0  0  0
 21 26  2  0  0  0  0
 22 33  1  0  0  0  0
 22 34  1  0  0  0  0
 22 35  1  0  0  0  0
 25 26  1  0  0  0  0
 27 31  2  0  0  0  0
 28 32  2  0  0  0  0
 29 37  1  0  0  0  0
 30 38  1  0  0  0  0
 30 39  1  0  0  0  0
 31 32  1  0  0  0  0
 37 41  2  0  0  0  0
 42 43  2  0  0  0  0
 42 44  1  0  0  0  0
 43 45  1  0  0  0  0
 44 46  2  0  0  0  0
 45 47  2  0  0  0  0
 46 47  1  0  0  0  0
M  END
> <PUBCHEM_COMPOUND_ID_TYPE>
0

> <PUBCHEM_TOTAL_CHARGE>
0

> <PUBCHEM_SUBSTANCE_ID>
310929158

> <PUBCHEM_SUBSTANCE_VERSION>
1

> <PUBCHEM_EXT_DATASOURCE_NAME>
4488

> <PUBCHEM_EXT_DATASOURCE_REGID>
SCHEMBL16106321

> <PUBCHEM_SUBSTANCE_COMMENT>
InChI=1S/C36H36N6O5/c1-36(2,3)22-18-27(33(43)38-24-20-46-21-24)32(45-4)29(19-22)41-35(44)40-28-14-15-30(26-13-9-8-12-25(26)28)47-31-16-17-37-34(42-31)39-23-10-6-5-7-11-23/h5-19,24H,20-21H2,1-4H3,(H,38,43)(H,37,39,42)(H2,40,41,44)
InChIKey=MSEHITONHFFTKB-UHFFFAOYSA-N

> <PUBCHEM_SUBSTANCE_SYNONYM>
SCHEMBL16106321

> <PUBCHEM_XREF_EXT_ID>
SCHEMBL16106321

> <PUBCHEM_EXT_DATASOURCE_URL>
https://www.surechembl.org/

> <PUBCHEM_EXT_SUBSTANCE_URL>
https://www.surechembl.org/chemical/SCHEMBL16106321

> <PUBCHEM_CID_ASSOCIATIONS>
86273063  1

> <PUBCHEM_COORDINATE_TYPE>
1
3

$$$$
