310944502
  -OEChem-07211613022D

 24 25  0     0  0  0  0  0  0999 V2000
   -2.7893    2.4546    0.0000 Cl  0  0  0  0  0  0  0  0  0  0  0  0
   -4.3885    1.6364    0.0000 Cl  0  0  0  0  0  0  0  0  0  0  0  0
   -2.8017   -0.8430    0.0000 O   0  0  0  0  0  0  0  0  0  0  0  0
    0.0620   -0.8430    0.0000 O   0  0  0  0  0  0  0  0  0  0  0  0
    4.3637   -0.8430    0.0000 O   0  0  0  0  0  0  0  0  0  0  0  0
   -1.3512   -0.0124    0.0000 N   0  0  0  0  0  0  0  0  0  0  0  0
    2.9505   -0.8430    0.0000 N   0  0  0  0  0  0  0  0  0  0  0  0
    0.7934    0.3967    0.0000 N   0  0  0  0  0  0  0  0  0  0  0  0
   -2.0827    0.4091    0.0000 C   0  0  0  0  0  0  0  0  0  0  0  0
   -2.7893   -0.0124    0.0000 C   0  0  0  0  0  0  0  0  0  0  0  0
   -2.7893    1.6364    0.0000 C   0  0  0  0  0  0  0  0  0  0  0  0
   -3.5083    1.2273    0.0000 C   0  0  0  0  0  0  0  0  0  0  0  0
   -2.0703    1.2149    0.0000 C   0  0  0  0  0  0  0  0  0  0  0  0
   -3.4959    0.4091    0.0000 C   0  0  0  0  0  0  0  0  0  0  0  0
    1.5124   -0.0124    0.0000 C   0  0  0  0  0  0  0  0  0  0  0  0
    0.0744    0.0000    0.0000 C   0  0  0  0  0  0  0  0  0  0  0  0
   -0.6323    0.3967    0.0000 C   0  0  0  0  0  0  0  0  0  0  0  0
    1.5124   -0.8430    0.0000 C   0  0  0  0  0  0  0  0  0  0  0  0
    2.2190    0.3967    0.0000 C   0  0  0  0  0  0  0  0  0  0  0  0
    2.9381   -0.0124    0.0000 C   0  0  0  0  0  0  0  0  0  0  0  0
    2.2314   -1.2521    0.0000 C   0  0  0  0  0  0  0  0  0  0  0  0
    3.6571   -1.2521    0.0000 C   0  0  0  0  0  0  0  0  0  0  0  0
    3.6571   -2.0827    0.0000 C   0  0  0  0  0  0  0  0  0  0  0  0
    4.3885   -2.4546    0.0000 C   0  0  0  0  0  0  0  0  0  0  0  0
  1 11  1  0  0  0  0
  2 12  1  0  0  0  0
  3 10  1  0  0  0  0
  4 16  2  0  0  0  0
  5 22  2  0  0  0  0
  6  9  1  0  0  0  0
  6 17  1  0  0  0  0
  7 20  1  0  0  0  0
  7 21  1  0  0  0  0
  7 22  1  0  0  0  0
  8 15  1  0  0  0  0
  8 16  1  0  0  0  0
  9 10  2  0  0  0  0
  9 13  1  0  0  0  0
 10 14  1  0  0  0  0
 11 12  1  0  0  0  0
 11 13  2  0  0  0  0
 12 14  2  0  0  0  0
 15 18  1  0  0  0  0
 15 19  1  0  0  0  0
 16 17  1  0  0  0  0
 18 21  1  0  0  0  0
 19 20  1  0  0  0  0
 22 23  1  0  0  0  0
 23 24  2  0  0  0  0
M  END
> <PUBCHEM_COMPOUND_ID_TYPE>
0

> <PUBCHEM_TOTAL_CHARGE>
0

> <PUBCHEM_SUBSTANCE_ID>
310944502

> <PUBCHEM_SUBSTANCE_VERSION>
1

> <PUBCHEM_EXT_DATASOURCE_NAME>
4488

> <PUBCHEM_EXT_DATASOURCE_REGID>
SCHEMBL16122577

> <PUBCHEM_SUBSTANCE_COMMENT>
InChI=1S/C16H19Cl2N3O3/c1-2-16(24)21-5-3-10(4-6-21)20-15(23)9-19-13-7-11(17)12(18)8-14(13)22/h2,7-8,10,19,22H,1,3-6,9H2,(H,20,23)
InChIKey=ZQZWRBJMCIRMRX-UHFFFAOYSA-N

> <PUBCHEM_SUBSTANCE_SYNONYM>
SCHEMBL16122577

> <PUBCHEM_XREF_EXT_ID>
SCHEMBL16122577

> <PUBCHEM_EXT_DATASOURCE_URL>
https://www.surechembl.org/

> <PUBCHEM_EXT_SUBSTANCE_URL>
https://www.surechembl.org/chemical/SCHEMBL16122577

> <PUBCHEM_CID_ASSOCIATIONS>
117610739  1

> <PUBCHEM_COORDINATE_TYPE>
1
3

$$$$
