310947060
  -OEChem-07211613022D

 41 44  0     1  0  0  0  0  0999 V2000
    2.1027   -2.9156    0.0000 S   0  0  0  0  0  0  0  0  0  0  0  0
   -0.5831    2.0850    0.0000 O   0  0  0  0  0  0  0  0  0  0  0  0
   -2.8626   -2.3501    0.0000 O   0  0  0  0  0  0  0  0  0  0  0  0
   -2.2971    3.4457    0.0000 O   0  0  0  0  0  0  0  0  0  0  0  0
    1.9260   -3.7107    0.0000 O   0  0  0  0  0  0  0  0  0  0  0  0
    2.9156   -3.0923    0.0000 O   0  0  0  0  0  0  0  0  0  0  0  0
   -0.9012    3.7107    0.0000 O   0  0  0  0  0  0  0  0  0  0  0  0
   -1.3252   -0.0530    0.0000 N   0  0  0  0  0  0  0  0  0  0  0  0
   -0.8482   -0.7245    0.0000 N   0  0  0  0  0  0  0  0  0  0  0  0
   -1.0955   -2.1734    0.0000 N   0  0  0  0  0  0  0  0  0  0  0  0
   -3.5516   -1.0955    0.0000 N   0  0  0  0  0  0  0  0  0  0  0  0
    2.2971   -2.1204    0.0000 N   0  0  3  0  0  0  0  0  0  0  0  0
    1.1132    0.4241    0.0000 N   0  0  0  0  0  0  0  0  0  0  0  0
   -1.0426    0.7421    0.0000 C   0  0  3  0  0  0  0  0  0  0  0  0
   -2.0850   -0.2828    0.0000 C   0  0  0  0  0  0  0  0  0  0  0  0
   -2.1381   -1.1132    0.0000 C   0  0  0  0  0  0  0  0  0  0  0  0
   -1.3429   -1.3960    0.0000 C   0  0  0  0  0  0  0  0  0  0  0  0
   -2.8626   -1.5019    0.0000 C   0  0  0  0  0  0  0  0  0  0  0  0
   -0.4241    1.2899    0.0000 C   0  0  0  0  0  0  0  0  0  0  0  0
   -1.8377    1.0072    0.0000 C   0  0  0  0  0  0  0  0  0  0  0  0
   -2.8448    0.1237    0.0000 C   0  0  0  0  0  0  0  0  0  0  0  0
   -0.4594    0.1061    0.0000 C   0  0  0  0  0  0  0  0  0  0  0  0
   -1.3606    2.3678    0.0000 C   0  0  3  0  0  0  0  0  0  0  0  0
   -1.9791    1.8024    0.0000 C   0  0  0  0  0  0  0  0  0  0  0  0
   -0.3004   -2.3678    0.0000 C   0  0  0  0  0  0  0  0  0  0  0  0
   -3.5163   -0.2650    0.0000 C   0  0  0  0  0  0  0  0  0  0  0  0
    1.2899   -2.7212    0.0000 C   0  0  0  0  0  0  0  0  0  0  0  0
   -1.5549    3.1982    0.0000 C   0  0  0  0  0  0  0  0  0  0  0  0
    0.2828    0.2650    0.0000 C   0  0  0  0  0  0  0  0  0  0  0  0
    0.2650   -1.7670    0.0000 C   0  0  0  0  0  0  0  0  0  0  0  0
   -0.0530   -3.1452    0.0000 C   0  0  0  0  0  0  0  0  0  0  0  0
    1.0602   -1.9437    0.0000 C   0  0  0  0  0  0  0  0  0  0  0  0
    0.7598   -3.3219    0.0000 C   0  0  0  0  0  0  0  0  0  0  0  0
    3.0569   -1.8553    0.0000 C   0  0  0  0  0  0  0  0  0  0  0  0
   -2.9509    2.8802    0.0000 C   0  0  0  0  0  0  0  0  0  0  0  0
    1.6786   -1.5549    0.0000 C   0  0  0  0  0  0  0  0  0  0  0  0
    3.7107   -2.4384    0.0000 C   0  0  0  0  0  0  0  0  0  0  0  0
    3.2690   -1.0602    0.0000 C   0  0  0  0  0  0  0  0  0  0  0  0
   -3.7107    3.1452    0.0000 C   0  0  0  0  0  0  0  0  0  0  0  0
   -3.5516    2.3678    0.0000 C   0  0  0  0  0  0  0  0  0  0  0  0
   -2.7389    2.0674    0.0000 C   0  0  0  0  0  0  0  0  0  0  0  0
  1  5  2  0  0  0  0
  1  6  2  0  0  0  0
  1 12  1  0  0  0  0
  1 27  1  0  0  0  0
  2 19  1  0  0  0  0
  2 23  1  0  0  0  0
  3 18  2  0  0  0  0
  4 28  1  0  0  0  0
  4 35  1  0  0  0  0
  7 28  2  0  0  0  0
  8  9  1  0  0  0  0
  8 14  1  0  0  0  0
  8 15  1  0  0  0  0
  9 17  2  0  0  0  0
 10 17  1  0  0  0  0
 10 25  1  0  0  0  0
 11 18  1  0  0  0  0
 11 26  1  0  0  0  0
 12 34  1  0  0  0  0
 12 36  1  0  0  0  0
 13 29  3  0  0  0  0
 14 19  1  0  0  0  0
 14 20  1  0  0  0  0
 14 22  1  1  0  0  0
 15 16  2  0  0  0  0
 15 21  1  0  0  0  0
 16 17  1  0  0  0  0
 16 18  1  0  0  0  0
 20 24  1  0  0  0  0
 21 26  2  0  0  0  0
 22 29  1  0  0  0  0
 23 24  1  0  0  0  0
 23 28  1  1  0  0  0
 25 30  2  0  0  0  0
 25 31  1  0  0  0  0
 27 32  2  0  0  0  0
 27 33  1  0  0  0  0
 30 32  1  0  0  0  0
 31 33  2  0  0  0  0
 34 37  1  0  0  0  0
 34 38  1  0  0  0  0
 35 39  1  0  0  0  0
 35 40  1  0  0  0  0
 35 41  1  0  0  0  0
M  END
> <PUBCHEM_COMPOUND_ID_TYPE>
0

> <PUBCHEM_TOTAL_CHARGE>
0

> <PUBCHEM_SUBSTANCE_ID>
310947060

> <PUBCHEM_SUBSTANCE_VERSION>
1

> <PUBCHEM_EXT_DATASOURCE_NAME>
4488

> <PUBCHEM_EXT_DATASOURCE_REGID>
SCHEMBL16125214

> <PUBCHEM_SUBSTANCE_COMMENT>
InChI=1S/C28H36N6O6S/c1-18(2)33(6)41(37,38)20-9-7-19(8-10-20)31-24-23-21(12-16-30-25(23)35)34(32-24)28(14-15-29)13-11-22(39-17-28)26(36)40-27(3,4)5/h7-10,12,16,18,22H,11,13-14,17H2,1-6H3,(H,30,35)(H,31,32)/t22-,28-/m0/s1
InChIKey=DCRXQCFTJIDKAK-DWACAAAGSA-N

> <PUBCHEM_SUBSTANCE_SYNONYM>
SCHEMBL16125214

> <PUBCHEM_XREF_EXT_ID>
SCHEMBL16125214

> <PUBCHEM_EXT_DATASOURCE_URL>
https://www.surechembl.org/

> <PUBCHEM_EXT_SUBSTANCE_URL>
https://www.surechembl.org/chemical/SCHEMBL16125214

> <PUBCHEM_CID_ASSOCIATIONS>
117612913  1

> <PUBCHEM_COORDINATE_TYPE>
1
3

> <PUBCHEM_BONDANNOTATIONS>
14  22  5
23  28  5

$$$$
