310941127
  -OEChem-07211613022D

 45 49  0     1  0  0  0  0  0999 V2000
    5.0838    0.6750    0.0000 O   0  0  0  0  0  0  0  0  0  0  0  0
   -1.7931    1.1954    0.0000 O   0  0  0  0  0  0  0  0  0  0  0  0
    3.9588   -1.2797    0.0000 O   0  0  0  0  0  0  0  0  0  0  0  0
   -0.3586   -1.2797    0.0000 O   0  0  0  0  0  0  0  0  0  0  0  0
    1.8071    0.7876    0.0000 O   0  0  0  0  0  0  0  0  0  0  0  0
   -2.5103    0.7876    0.0000 O   0  0  0  0  0  0  0  0  0  0  0  0
    3.9588   -2.9392    0.0000 O   0  0  0  0  0  0  0  0  0  0  0  0
   -5.3793    0.7876    0.0000 O   0  0  0  0  0  0  0  0  0  0  0  0
   -1.7789   -0.4640    0.0000 N   0  0  0  0  0  0  0  0  0  0  0  0
    0.3727   -0.0422    0.0000 N   0  0  0  0  0  0  0  0  0  0  0  0
    2.5244   -0.4640    0.0000 N   0  0  0  0  0  0  0  0  0  0  0  0
   -3.9448   -0.0422    0.0000 N   0  0  0  0  0  0  0  0  0  0  0  0
   -1.0478    0.8297    0.0000 C   0  0  0  0  0  0  0  0  0  0  0  0
    4.6760    0.0141    0.0000 C   0  0  3  0  0  0  0  0  0  0  0  0
   -1.0759   -0.0141    0.0000 C   0  0  3  0  0  0  0  0  0  0  0  0
   -0.6539    1.5047    0.0000 C   0  0  0  0  0  0  0  0  0  0  0  0
   -0.2461    0.8297    0.0000 C   0  0  0  0  0  0  0  0  0  0  0  0
    3.9588   -0.4219    0.0000 C   0  0  0  0  0  0  0  0  0  0  0  0
   -0.3304   -0.4078    0.0000 C   0  0  0  0  0  0  0  0  0  0  0  0
    4.2823    0.6890    0.0000 C   0  0  0  0  0  0  0  0  0  0  0  0
    3.2275   -0.0141    0.0000 C   0  0  3  0  0  0  0  0  0  0  0  0
    1.0899   -0.4219    0.0000 C   0  0  3  0  0  0  0  0  0  0  0  0
    1.8071   -0.0422    0.0000 C   0  0  0  0  0  0  0  0  0  0  0  0
    5.3793   -0.4219    0.0000 C   0  0  0  0  0  0  0  0  0  0  0  0
   -2.5103   -0.0422    0.0000 C   0  0  0  0  0  0  0  0  0  0  0  0
    3.2415    1.3079    0.0000 C   0  0  0  0  0  0  0  0  0  0  0  0
    1.0759   -1.2797    0.0000 C   0  0  0  0  0  0  0  0  0  0  0  0
    2.5103    1.7297    0.0000 C   0  0  0  0  0  0  0  0  0  0  0  0
    1.8212   -1.6735    0.0000 C   0  0  0  0  0  0  0  0  0  0  0  0
   -3.1994   -0.4219    0.0000 C   0  0  0  0  0  0  0  0  0  0  0  0
    1.8071    1.3220    0.0000 C   0  0  0  0  0  0  0  0  0  0  0  0
    2.5244    2.5455    0.0000 C   0  0  0  0  0  0  0  0  0  0  0  0
    2.5103   -1.2797    0.0000 C   0  0  0  0  0  0  0  0  0  0  0  0
    1.8212   -2.5033    0.0000 C   0  0  0  0  0  0  0  0  0  0  0  0
    3.2415   -2.4892    0.0000 C   0  0  0  0  0  0  0  0  0  0  0  0
    3.2415   -1.6876    0.0000 C   0  0  0  0  0  0  0  0  0  0  0  0
    2.5384   -2.9111    0.0000 C   0  0  0  0  0  0  0  0  0  0  0  0
    1.1040    1.7297    0.0000 C   0  0  0  0  0  0  0  0  0  0  0  0
    1.8071    2.9392    0.0000 C   0  0  0  0  0  0  0  0  0  0  0  0
   -3.9307    0.8016    0.0000 C   0  0  0  0  0  0  0  0  0  0  0  0
   -4.6338   -0.4219    0.0000 C   0  0  0  0  0  0  0  0  0  0  0  0
    1.1040    2.5455    0.0000 C   0  0  0  0  0  0  0  0  0  0  0  0
   -4.6619    1.2235    0.0000 C   0  0  0  0  0  0  0  0  0  0  0  0
   -5.3651   -0.0281    0.0000 C   0  0  0  0  0  0  0  0  0  0  0  0
    4.6900   -2.4892    0.0000 C   0  0  0  0  0  0  0  0  0  0  0  0
  1 14  1  0  0  0  0
  1 20  1  0  0  0  0
  2 13  1  0  0  0  0
  3 18  2  0  0  0  0
  4 19  2  0  0  0  0
  5 23  2  0  0  0  0
  6 25  2  0  0  0  0
  7 35  1  0  0  0  0
  7 45  1  0  0  0  0
  8 43  1  0  0  0  0
  8 44  1  0  0  0  0
 15  9  1  1  0  0  0
  9 25  1  0  0  0  0
 10 19  1  0  0  0  0
 22 10  1  6  0  0  0
 21 11  1  1  0  0  0
 11 23  1  0  0  0  0
 12 30  1  0  0  0  0
 12 40  1  0  0  0  0
 12 41  1  0  0  0  0
 13 15  1  0  0  0  0
 13 16  1  0  0  0  0
 13 17  1  0  0  0  0
 14 18  1  1  0  0  0
 14 20  1  0  0  0  0
 14 24  1  6  0  0  0
 15 19  1  0  0  0  0
 16 17  1  0  0  0  0
 18 21  1  0  0  0  0
 21 26  1  0  0  0  0
 22 23  1  0  0  0  0
 22 27  1  0  0  0  0
 25 30  1  0  0  0  0
 26 28  1  0  0  0  0
 27 29  1  0  0  0  0
 28 31  2  0  0  0  0
 28 32  1  0  0  0  0
 29 33  2  0  0  0  0
 29 34  1  0  0  0  0
 31 38  1  0  0  0  0
 32 39  2  0  0  0  0
 33 36  1  0  0  0  0
 34 37  2  0  0  0  0
 35 36  2  0  0  0  0
 35 37  1  0  0  0  0
 38 42  2  0  0  0  0
 39 42  1  0  0  0  0
 40 43  1  0  0  0  0
 41 44  1  0  0  0  0
M  END
> <PUBCHEM_COMPOUND_ID_TYPE>
0

> <PUBCHEM_TOTAL_CHARGE>
0

> <PUBCHEM_SUBSTANCE_ID>
310941127

> <PUBCHEM_SUBSTANCE_VERSION>
1

> <PUBCHEM_EXT_DATASOURCE_NAME>
4488

> <PUBCHEM_EXT_DATASOURCE_REGID>
SCHEMBL16119087

> <PUBCHEM_SUBSTANCE_COMMENT>
InChI=1S/C33H42N4O8/c1-32(21-45-32)29(39)25(18-22-6-4-3-5-7-22)34-30(40)26(19-23-8-10-24(43-2)11-9-23)35-31(41)28(33(42)12-13-33)36-27(38)20-37-14-16-44-17-15-37/h3-11,25-26,28,42H,12-21H2,1-2H3,(H,34,40)(H,35,41)(H,36,38)/t25-,26-,28+,32+/m0/s1
InChIKey=JXOLYMTWSNKMPW-CKHSQSCFSA-N

> <PUBCHEM_SUBSTANCE_SYNONYM>
SCHEMBL16119087

> <PUBCHEM_XREF_EXT_ID>
SCHEMBL16119087

> <PUBCHEM_EXT_DATASOURCE_URL>
https://www.surechembl.org/

> <PUBCHEM_EXT_SUBSTANCE_URL>
https://www.surechembl.org/chemical/SCHEMBL16119087

> <PUBCHEM_CID_ASSOCIATIONS>
117608010  1

> <PUBCHEM_COORDINATE_TYPE>
1
3

> <PUBCHEM_BONDANNOTATIONS>
22  10  6
21  11  5
14  18  5
14  24  6
15  9  5

$$$$
