310946972
  -OEChem-07211613022D

 33 36  0     1  0  0  0  0  0999 V2000
   -2.5198   -3.6297    0.0000 Cl  0  0  0  0  0  0  0  0  0  0  0  0
    0.8850    0.5400    0.0000 O   0  0  0  0  0  0  0  0  0  0  0  0
   -3.7497    0.9300    0.0000 O   0  0  0  0  0  0  0  0  0  0  0  0
    2.7598    1.6649    0.0000 O   0  0  0  0  0  0  0  0  0  0  0  0
    3.3148    0.1050    0.0000 O   0  0  0  0  0  0  0  0  0  0  0  0
   -1.0049    1.1849    0.0000 N   0  0  0  0  0  0  0  0  0  0  0  0
   -1.2299    0.3900    0.0000 N   0  0  0  0  0  0  0  0  0  0  0  0
   -2.5198   -0.3300    0.0000 N   0  0  0  0  0  0  0  0  0  0  0  0
   -3.2248    2.2498    0.0000 N   0  0  0  0  0  0  0  0  0  0  0  0
    2.4898    0.2550    0.0000 N   0  0  0  0  0  0  0  0  0  0  0  0
   -0.6599    3.6297    0.0000 N   0  0  0  0  0  0  0  0  0  0  0  0
   -0.2250    1.4549    0.0000 C   0  0  3  0  0  0  0  0  0  0  0  0
   -1.6948    1.6349    0.0000 C   0  0  0  0  0  0  0  0  0  0  0  0
   -2.3248    1.1249    0.0000 C   0  0  0  0  0  0  0  0  0  0  0  0
   -2.0698    0.3750    0.0000 C   0  0  0  0  0  0  0  0  0  0  0  0
   -3.1048    1.4549    0.0000 C   0  0  0  0  0  0  0  0  0  0  0  0
    0.0600    0.6899    0.0000 C   0  0  0  0  0  0  0  0  0  0  0  0
    0.3000    2.0999    0.0000 C   0  0  0  0  0  0  0  0  0  0  0  0
   -1.7999    2.4448    0.0000 C   0  0  0  0  0  0  0  0  0  0  0  0
   -0.8550    1.9948    0.0000 C   0  0  0  0  0  0  0  0  0  0  0  0
    1.3949    1.1849    0.0000 C   0  0  3  0  0  0  0  0  0  0  0  0
    1.1249    1.9498    0.0000 C   0  0  0  0  0  0  0  0  0  0  0  0
   -2.5798    2.7598    0.0000 C   0  0  0  0  0  0  0  0  0  0  0  0
   -2.5348   -1.1549    0.0000 C   0  0  0  0  0  0  0  0  0  0  0  0
    2.2048    1.0049    0.0000 C   0  0  0  0  0  0  0  0  0  0  0  0
   -0.7499    2.7898    0.0000 C   0  0  0  0  0  0  0  0  0  0  0  0
   -3.2248   -1.5749    0.0000 C   0  0  0  0  0  0  0  0  0  0  0  0
   -1.8149   -1.5749    0.0000 C   0  0  0  0  0  0  0  0  0  0  0  0
   -3.2248   -2.3999    0.0000 C   0  0  0  0  0  0  0  0  0  0  0  0
   -1.8149   -2.3999    0.0000 C   0  0  0  0  0  0  0  0  0  0  0  0
   -2.5198   -2.8048    0.0000 C   0  0  0  0  0  0  0  0  0  0  0  0
    1.9799   -0.4049    0.0000 C   0  0  0  0  0  0  0  0  0  0  0  0
    3.7497   -0.6149    0.0000 C   0  0  0  0  0  0  0  0  0  0  0  0
  1 31  1  0  0  0  0
  2 17  1  0  0  0  0
  2 21  1  0  0  0  0
  3 16  2  0  0  0  0
  4 25  2  0  0  0  0
  5 10  1  0  0  0  0
  5 33  1  0  0  0  0
  6  7  1  0  0  0  0
  6 12  1  0  0  0  0
  6 13  1  0  0  0  0
  7 15  2  0  0  0  0
  8 15  1  0  0  0  0
  8 24  1  0  0  0  0
  9 16  1  0  0  0  0
  9 23  1  0  0  0  0
 10 25  1  0  0  0  0
 10 32  1  0  0  0  0
 11 26  3  0  0  0  0
 12 17  1  0  0  0  0
 12 18  1  0  0  0  0
 12 20  1  1  0  0  0
 13 14  2  0  0  0  0
 13 19  1  0  0  0  0
 14 15  1  0  0  0  0
 14 16  1  0  0  0  0
 18 22  1  0  0  0  0
 19 23  2  0  0  0  0
 20 26  1  0  0  0  0
 21 22  1  0  0  0  0
 21 25  1  1  0  0  0
 24 27  2  0  0  0  0
 24 28  1  0  0  0  0
 27 29  1  0  0  0  0
 28 30  2  0  0  0  0
 29 31  2  0  0  0  0
 30 31  1  0  0  0  0
M  END
> <PUBCHEM_COMPOUND_ID_TYPE>
0

> <PUBCHEM_TOTAL_CHARGE>
0

> <PUBCHEM_SUBSTANCE_ID>
310946972

> <PUBCHEM_SUBSTANCE_VERSION>
1

> <PUBCHEM_EXT_DATASOURCE_NAME>
4488

> <PUBCHEM_EXT_DATASOURCE_REGID>
SCHEMBL16125109

> <PUBCHEM_SUBSTANCE_COMMENT>
InChI=1S/C22H23ClN6O4/c1-28(32-2)21(31)17-7-9-22(10-11-24,13-33-17)29-16-8-12-25-20(30)18(16)19(27-29)26-15-5-3-14(23)4-6-15/h3-6,8,12,17H,7,9-10,13H2,1-2H3,(H,25,30)(H,26,27)/t17-,22-/m0/s1
InChIKey=LTNHFSFNGKITSK-JTSKRJEESA-N

> <PUBCHEM_SUBSTANCE_SYNONYM>
SCHEMBL16125109

> <PUBCHEM_XREF_EXT_ID>
SCHEMBL16125109

> <PUBCHEM_EXT_DATASOURCE_URL>
https://www.surechembl.org/

> <PUBCHEM_EXT_SUBSTANCE_URL>
https://www.surechembl.org/chemical/SCHEMBL16125109

> <PUBCHEM_CID_ASSOCIATIONS>
117612825  1

> <PUBCHEM_COORDINATE_TYPE>
1
3

> <PUBCHEM_BONDANNOTATIONS>
12  20  5
21  25  5

$$$$
