310929317
  -OEChem-07211613022D

 27 29  0     0  0  0  0  0  0999 V2000
   10.5595   -1.9165    0.0000 O   0  0  0  0  0  0  0  0  0  0  0  0
    0.0000   -3.1566    0.0000 O   0  0  0  0  0  0  0  0  0  0  0  0
    9.2067   -2.7432    0.0000 N   0  0  0  0  0  0  0  0  0  0  0  0
    9.8831   -3.1566    0.0000 C   0  0  0  0  0  0  0  0  0  0  0  0
    9.8831   -3.9458    0.0000 C   0  0  0  0  0  0  0  0  0  0  0  0
   10.5971   -2.7432    0.0000 C   0  0  0  0  0  0  0  0  0  0  0  0
    8.4927   -3.1566    0.0000 C   0  0  0  0  0  0  0  0  0  0  0  0
    9.2067   -4.3591    0.0000 C   0  0  0  0  0  0  0  0  0  0  0  0
   10.5971   -4.3591    0.0000 C   0  0  0  0  0  0  0  0  0  0  0  0
   11.2735   -3.1566    0.0000 C   0  0  0  0  0  0  0  0  0  0  0  0
    8.4927   -3.9833    0.0000 C   0  0  0  0  0  0  0  0  0  0  0  0
   11.2735   -3.9458    0.0000 C   0  0  0  0  0  0  0  0  0  0  0  0
    9.8456   -0.7140    0.0000 C   0  0  0  0  0  0  0  0  0  0  0  0
    9.8456   -1.5407    0.0000 C   0  0  0  0  0  0  0  0  0  0  0  0
    7.7787   -2.7432    0.0000 C   0  0  0  0  0  0  0  0  0  0  0  0
    9.4322    0.0000    0.0000 C   0  0  0  0  0  0  0  0  0  0  0  0
   10.2589    0.0000    0.0000 C   0  0  0  0  0  0  0  0  0  0  0  0
    7.0648   -3.1566    0.0000 C   0  0  0  0  0  0  0  0  0  0  0  0
    6.3507   -2.7432    0.0000 C   0  0  0  0  0  0  0  0  0  0  0  0
    5.6743   -3.1566    0.0000 C   0  0  0  0  0  0  0  0  0  0  0  0
    4.9604   -2.7432    0.0000 C   0  0  0  0  0  0  0  0  0  0  0  0
    4.2463   -3.1566    0.0000 C   0  0  0  0  0  0  0  0  0  0  0  0
    3.5324   -2.7432    0.0000 C   0  0  0  0  0  0  0  0  0  0  0  0
    2.8184   -3.1566    0.0000 C   0  0  0  0  0  0  0  0  0  0  0  0
    2.1419   -2.7432    0.0000 C   0  0  0  0  0  0  0  0  0  0  0  0
    1.4280   -3.1566    0.0000 C   0  0  0  0  0  0  0  0  0  0  0  0
    0.7140   -2.7432    0.0000 C   0  0  0  0  0  0  0  0  0  0  0  0
  1  6  1  0  0  0  0
  1 14  1  0  0  0  0
  2 27  1  0  0  0  0
  3  4  2  0  0  0  0
  3  7  1  0  0  0  0
  4  5  1  0  0  0  0
  4  6  1  0  0  0  0
  5  8  2  0  0  0  0
  5  9  1  0  0  0  0
  6 10  2  0  0  0  0
  7 11  2  0  0  0  0
  7 15  1  0  0  0  0
  8 11  1  0  0  0  0
  9 12  2  0  0  0  0
 10 12  1  0  0  0  0
 13 14  1  0  0  0  0
 13 16  1  0  0  0  0
 13 17  1  0  0  0  0
 15 18  1  0  0  0  0
 16 17  1  0  0  0  0
 18 19  1  0  0  0  0
 19 20  1  0  0  0  0
 20 21  1  0  0  0  0
 21 22  1  0  0  0  0
 22 23  1  0  0  0  0
 23 24  1  0  0  0  0
 24 25  1  0  0  0  0
 25 26  1  0  0  0  0
 26 27  1  0  0  0  0
M  END
> <PUBCHEM_COMPOUND_ID_TYPE>
0

> <PUBCHEM_TOTAL_CHARGE>
0

> <PUBCHEM_SUBSTANCE_ID>
310929317

> <PUBCHEM_SUBSTANCE_VERSION>
1

> <PUBCHEM_EXT_DATASOURCE_NAME>
4488

> <PUBCHEM_EXT_DATASOURCE_REGID>
SCHEMBL16106483

> <PUBCHEM_SUBSTANCE_COMMENT>
InChI=1S/C24H35NO2/c26-18-9-7-5-3-1-2-4-6-8-12-22-17-16-21-11-10-13-23(24(21)25-22)27-19-20-14-15-20/h10-11,13,16-17,20,26H,1-9,12,14-15,18-19H2
InChIKey=AOINQWHDIWBEEN-UHFFFAOYSA-N

> <PUBCHEM_SUBSTANCE_SYNONYM>
SCHEMBL16106483

> <PUBCHEM_XREF_EXT_ID>
SCHEMBL16106483

> <PUBCHEM_EXT_DATASOURCE_URL>
https://www.surechembl.org/

> <PUBCHEM_EXT_SUBSTANCE_URL>
https://www.surechembl.org/chemical/SCHEMBL16106483

> <PUBCHEM_CID_ASSOCIATIONS>
86300009  1

> <PUBCHEM_COORDINATE_TYPE>
1
3

$$$$
