310946165
  -OEChem-07211613022D

 35 41  0     0  0  0  0  0  0999 V2000
    2.9051    4.8123    0.0000 S   0  0  0  0  0  0  0  0  0  0  0  0
   -0.3768    4.9838    0.0000 N   0  0  0  0  0  0  0  0  0  0  0  0
   -2.8338    3.3834    0.0000 C   0  0  0  0  0  0  0  0  0  0  0  0
   -2.0268    3.5549    0.0000 C   0  0  0  0  0  0  0  0  0  0  0  0
   -1.6143    2.8404    0.0000 C   0  0  0  0  0  0  0  0  0  0  0  0
   -2.9200    2.5629    0.0000 C   0  0  0  0  0  0  0  0  0  0  0  0
   -2.1664    2.2273    0.0000 C   0  0  0  0  0  0  0  0  0  0  0  0
   -0.7893    4.2694    0.0000 C   0  0  0  0  0  0  0  0  0  0  0  0
   -1.6143    4.2694    0.0000 C   0  0  0  0  0  0  0  0  0  0  0  0
    0.4482    4.9838    0.0000 C   0  0  0  0  0  0  0  0  0  0  0  0
    1.6857    4.2694    0.0000 C   0  0  0  0  0  0  0  0  0  0  0  0
   -0.7893    2.8404    0.0000 C   0  0  0  0  0  0  0  0  0  0  0  0
    2.0982    4.9838    0.0000 C   0  0  0  0  0  0  0  0  0  0  0  0
    2.2377    3.6563    0.0000 C   0  0  0  0  0  0  0  0  0  0  0  0
   -0.3768    3.5549    0.0000 C   0  0  0  0  0  0  0  0  0  0  0  0
   -3.5875    2.0780    0.0000 C   0  0  0  0  0  0  0  0  0  0  0  0
   -2.0801    1.4069    0.0000 C   0  0  0  0  0  0  0  0  0  0  0  0
    0.8607    4.2694    0.0000 C   0  0  0  0  0  0  0  0  0  0  0  0
    2.9914    3.9918    0.0000 C   0  0  0  0  0  0  0  0  0  0  0  0
   -0.7893    5.6983    0.0000 C   0  0  0  0  0  0  0  0  0  0  0  0
   -2.8338    4.2084    0.0000 C   0  0  0  0  0  0  0  0  0  0  0  0
   -3.6588    3.3834    0.0000 C   0  0  0  0  0  0  0  0  0  0  0  0
    0.8607    5.6983    0.0000 C   0  0  0  0  0  0  0  0  0  0  0  0
    1.6857    5.6983    0.0000 C   0  0  0  0  0  0  0  0  0  0  0  0
   -3.5012    1.2575    0.0000 C   0  0  0  0  0  0  0  0  0  0  0  0
   -2.7476    0.9219    0.0000 C   0  0  0  0  0  0  0  0  0  0  0  0
    2.1515    2.8358    0.0000 C   0  0  0  0  0  0  0  0  0  0  0  0
    3.6588    3.5069    0.0000 C   0  0  0  0  0  0  0  0  0  0  0  0
   -0.3768    6.4128    0.0000 C   0  0  0  0  0  0  0  0  0  0  0  0
   -1.6143    5.6983    0.0000 C   0  0  0  0  0  0  0  0  0  0  0  0
    2.8189    2.3509    0.0000 C   0  0  0  0  0  0  0  0  0  0  0  0
    3.5726    2.6864    0.0000 C   0  0  0  0  0  0  0  0  0  0  0  0
   -0.7893    7.1273    0.0000 C   0  0  0  0  0  0  0  0  0  0  0  0
   -2.0268    6.4128    0.0000 C   0  0  0  0  0  0  0  0  0  0  0  0
   -1.6143    7.1273    0.0000 C   0  0  0  0  0  0  0  0  0  0  0  0
  1 13  1  0  0  0  0
  1 19  1  0  0  0  0
  2  8  1  0  0  0  0
  2 10  1  0  0  0  0
  2 20  1  0  0  0  0
  3  4  1  0  0  0  0
  3  6  1  0  0  0  0
  3 21  1  0  0  0  0
  3 22  1  0  0  0  0
  4  5  2  0  0  0  0
  4  9  1  0  0  0  0
  5  7  1  0  0  0  0
  5 12  1  0  0  0  0
  6  7  2  0  0  0  0
  6 16  1  0  0  0  0
  7 17  1  0  0  0  0
  8  9  2  0  0  0  0
  8 15  1  0  0  0  0
 10 18  2  0  0  0  0
 10 23  1  0  0  0  0
 11 13  2  0  0  0  0
 11 14  1  0  0  0  0
 11 18  1  0  0  0  0
 12 15  2  0  0  0  0
 13 24  1  0  0  0  0
 14 19  2  0  0  0  0
 14 27  1  0  0  0  0
 16 25  2  0  0  0  0
 17 26  2  0  0  0  0
 19 28  1  0  0  0  0
 20 29  2  0  0  0  0
 20 30  1  0  0  0  0
 23 24  2  0  0  0  0
 25 26  1  0  0  0  0
 27 31  2  0  0  0  0
 28 32  2  0  0  0  0
 29 33  1  0  0  0  0
 30 34  2  0  0  0  0
 31 32  1  0  0  0  0
 33 35  2  0  0  0  0
 34 35  1  0  0  0  0
M  END
> <PUBCHEM_COMPOUND_ID_TYPE>
0

> <PUBCHEM_TOTAL_CHARGE>
0

> <PUBCHEM_SUBSTANCE_ID>
310946165

> <PUBCHEM_SUBSTANCE_VERSION>
1

> <PUBCHEM_EXT_DATASOURCE_NAME>
4488

> <PUBCHEM_EXT_DATASOURCE_REGID>
SCHEMBL16124274

> <PUBCHEM_SUBSTANCE_COMMENT>
InChI=1S/C33H25NS/c1-33(2)29-14-8-6-12-25(29)26-18-16-24(21-30(26)33)34(22-10-4-3-5-11-22)23-17-19-32-28(20-23)27-13-7-9-15-31(27)35-32/h3-21H,1-2H3
InChIKey=COPHTJWARASAOS-UHFFFAOYSA-N

> <PUBCHEM_SUBSTANCE_SYNONYM>
SCHEMBL16124274

> <PUBCHEM_XREF_EXT_ID>
SCHEMBL16124274

> <PUBCHEM_EXT_DATASOURCE_URL>
https://www.surechembl.org/

> <PUBCHEM_EXT_SUBSTANCE_URL>
https://www.surechembl.org/chemical/SCHEMBL16124274

> <PUBCHEM_CID_ASSOCIATIONS>
117612122  1

> <PUBCHEM_COORDINATE_TYPE>
1
3

$$$$
