310943382
  -OEChem-07211613022D

 36 39  0     0  0  0  0  0  0999 V2000
    4.3120   -1.8377    0.0000 F   0  0  0  0  0  0  0  0  0  0  0  0
    2.8776   -2.6625    0.0000 F   0  0  0  0  0  0  0  0  0  0  0  0
    4.3120   -2.6625    0.0000 F   0  0  0  0  0  0  0  0  0  0  0  0
   -2.1963   -1.3536    0.0000 F   0  0  0  0  0  0  0  0  0  0  0  0
   -3.5589   -1.5508    0.0000 F   0  0  0  0  0  0  0  0  0  0  0  0
   -2.8956   -0.2062    0.0000 O   0  0  0  0  0  0  0  0  0  0  0  0
    1.4254   -0.2062    0.0000 O   0  0  0  0  0  0  0  0  0  0  0  0
   -4.3299    2.2322    0.0000 O   0  0  0  0  0  0  0  0  0  0  0  0
   -2.8956    1.4254    0.0000 N   0  0  0  0  0  0  0  0  0  0  0  0
   -1.4433   -0.2062    0.0000 N   0  0  0  0  0  0  0  0  0  0  0  0
    2.1426    1.0130    0.0000 N   0  0  0  0  0  0  0  0  0  0  0  0
    0.7082    2.6625    0.0000 N   0  0  0  0  0  0  0  0  0  0  0  0
    4.3120   -1.0310    0.0000 N   0  0  0  0  0  0  0  0  0  0  0  0
   -0.7261    1.0310    0.0000 C   0  0  0  0  0  0  0  0  0  0  0  0
   -2.1605    1.0310    0.0000 C   0  0  0  0  0  0  0  0  0  0  0  0
   -0.0269    1.4433    0.0000 C   0  0  0  0  0  0  0  0  0  0  0  0
   -2.1784    0.2062    0.0000 C   0  0  0  0  0  0  0  0  0  0  0  0
   -1.4613    1.4254    0.0000 C   0  0  0  0  0  0  0  0  0  0  0  0
    0.0089    2.2501    0.0000 C   0  0  0  0  0  0  0  0  0  0  0  0
    0.7261    1.0310    0.0000 C   0  0  0  0  0  0  0  0  0  0  0  0
    1.4254    1.4433    0.0000 C   0  0  0  0  0  0  0  0  0  0  0  0
   -0.7261    0.1883    0.0000 C   0  0  0  0  0  0  0  0  0  0  0  0
    2.8776   -0.1883    0.0000 C   0  0  0  0  0  0  0  0  0  0  0  0
    3.5948   -1.4254    0.0000 C   0  0  0  0  0  0  0  0  0  0  0  0
    2.1605    0.2241    0.0000 C   0  0  0  0  0  0  0  0  0  0  0  0
    3.5948   -2.2322    0.0000 C   0  0  0  0  0  0  0  0  0  0  0  0
    1.4433    2.2501    0.0000 C   0  0  0  0  0  0  0  0  0  0  0  0
    2.8776   -1.0130    0.0000 C   0  0  0  0  0  0  0  0  0  0  0  0
   -2.8956    2.2501    0.0000 C   0  0  0  0  0  0  0  0  0  0  0  0
   -3.5948    1.0310    0.0000 C   0  0  0  0  0  0  0  0  0  0  0  0
    3.5948    0.2062    0.0000 C   0  0  0  0  0  0  0  0  0  0  0  0
   -0.7441    2.6445    0.0000 C   0  0  0  0  0  0  0  0  0  0  0  0
    4.3299   -0.2062    0.0000 C   0  0  0  0  0  0  0  0  0  0  0  0
   -2.8956   -1.0310    0.0000 C   0  0  0  0  0  0  0  0  0  0  0  0
   -3.6128    2.6625    0.0000 C   0  0  0  0  0  0  0  0  0  0  0  0
   -4.3299    1.4433    0.0000 C   0  0  0  0  0  0  0  0  0  0  0  0
  1 26  1  0  0  0  0
  2 26  1  0  0  0  0
  3 26  1  0  0  0  0
  4 34  1  0  0  0  0
  5 34  1  0  0  0  0
  6 17  1  0  0  0  0
  6 34  1  0  0  0  0
  7 25  2  0  0  0  0
  8 35  1  0  0  0  0
  8 36  1  0  0  0  0
  9 15  1  0  0  0  0
  9 29  1  0  0  0  0
  9 30  1  0  0  0  0
 10 17  1  0  0  0  0
 10 22  2  0  0  0  0
 11 21  1  0  0  0  0
 11 25  1  0  0  0  0
 12 19  2  0  0  0  0
 12 27  1  0  0  0  0
 13 24  2  0  0  0  0
 13 33  1  0  0  0  0
 14 16  1  0  0  0  0
 14 18  2  0  0  0  0
 14 22  1  0  0  0  0
 15 17  2  0  0  0  0
 15 18  1  0  0  0  0
 16 19  1  0  0  0  0
 16 20  2  0  0  0  0
 19 32  1  0  0  0  0
 20 21  1  0  0  0  0
 21 27  2  0  0  0  0
 23 25  1  0  0  0  0
 23 28  2  0  0  0  0
 23 31  1  0  0  0  0
 24 26  1  0  0  0  0
 24 28  1  0  0  0  0
 29 35  1  0  0  0  0
 30 36  1  0  0  0  0
 31 33  2  0  0  0  0
M  END
> <PUBCHEM_COMPOUND_ID_TYPE>
0

> <PUBCHEM_TOTAL_CHARGE>
0

> <PUBCHEM_SUBSTANCE_ID>
310943382

> <PUBCHEM_SUBSTANCE_VERSION>
1

> <PUBCHEM_EXT_DATASOURCE_NAME>
4488

> <PUBCHEM_EXT_DATASOURCE_REGID>
SCHEMBL16121445

> <PUBCHEM_SUBSTANCE_COMMENT>
InChI=1S/C23H20F5N5O3/c1-13-17(15-8-18(33-4-6-35-7-5-33)21(31-11-15)36-22(24)25)10-16(12-30-13)32-20(34)14-2-3-29-19(9-14)23(26,27)28/h2-3,8-12,22H,4-7H2,1H3,(H,32,34)
InChIKey=AUMCDHXOXBVWPP-UHFFFAOYSA-N

> <PUBCHEM_SUBSTANCE_SYNONYM>
SCHEMBL16121445

> <PUBCHEM_XREF_EXT_ID>
SCHEMBL16121445

> <PUBCHEM_EXT_DATASOURCE_URL>
https://www.surechembl.org/

> <PUBCHEM_EXT_SUBSTANCE_URL>
https://www.surechembl.org/chemical/SCHEMBL16121445

> <PUBCHEM_CID_ASSOCIATIONS>
117609806  1

> <PUBCHEM_COORDINATE_TYPE>
1
3

$$$$
