310940760
  -OEChem-07211613022D

 22 24  0     1  0  0  0  0  0999 V2000
    1.2709    0.6336    0.0000 O   0  0  0  0  0  0  0  0  0  0  0  0
   -0.1600   -1.0159    0.0000 O   0  0  0  0  0  0  0  0  0  0  0  0
    0.4153   -2.0039    0.0000 O   0  0  0  0  0  0  0  0  0  0  0  0
   -0.0822   -2.8219    0.0000 O   0  0  0  0  0  0  0  0  0  0  0  0
   -1.6076   -0.1912    0.0000 N   0  0  0  0  0  0  0  0  0  0  0  0
    0.5806    0.2465    0.0000 C   0  0  3  0  0  0  0  0  0  0  0  0
   -0.1431    1.5090    0.0000 C   0  0  0  0  0  0  0  0  0  0  0  0
    0.2609    2.1991    0.0000 C   0  0  3  0  0  0  0  0  0  0  0  0
    0.6817    1.5258    0.0000 C   0  0  3  0  0  0  0  0  0  0  0  0
   -0.1431   -0.1575    0.0000 C   0  0  0  0  0  0  0  0  0  0  0  0
   -0.9006    0.2296    0.0000 C   0  0  3  0  0  0  0  0  0  0  0  0
   -0.8837    1.0713    0.0000 C   0  0  0  0  0  0  0  0  0  0  0  0
    1.2709   -0.1575    0.0000 C   0  0  0  0  0  0  0  0  0  0  0  0
    0.8332    2.8219    0.0000 C   0  0  0  0  0  0  0  0  0  0  0  0
    1.5403    1.6604    0.0000 C   0  0  0  0  0  0  0  0  0  0  0  0
    1.6076    2.5021    0.0000 C   0  0  0  0  0  0  0  0  0  0  0  0
    0.1600    0.9534    0.0000 C   0  0  0  0  0  0  0  0  0  0  0  0
   -0.0822   -2.2914    0.0000 C   0  0  0  0  0  0  0  0  0  0  0  0
    0.4264   -1.4513    0.0000 C   0  0  0  0  0  0  0  0  0  0  0  0
    0.9237   -1.4291    0.0000 C   0  0  0  0  0  0  0  0  0  0  0  0
   -0.0822   -1.4513    0.0000 C   0  0  0  0  0  0  0  0  0  0  0  0
    0.4153   -0.9096    0.0000 C   0  0  0  0  0  0  0  0  0  0  0  0
  1  6  1  0  0  0  0
  1 13  1  0  0  0  0
  2 10  2  0  0  0  0
  3 18  1  0  0  0  0
  3 19  1  0  0  0  0
  4 18  2  0  0  0  0
 11  5  1  1  0  0  0
  5 18  1  0  0  0  0
  6 10  1  6  0  0  0
  6 13  1  0  0  0  0
  6 17  1  1  0  0  0
  7  8  1  0  0  0  0
  7  9  1  0  0  0  0
  7 12  1  1  0  0  0
  8  9  1  0  0  0  0
  8 14  1  6  0  0  0
  9 15  1  6  0  0  0
 10 11  1  0  0  0  0
 11 12  1  0  0  0  0
 14 16  1  0  0  0  0
 15 16  1  0  0  0  0
 19 20  1  0  0  0  0
 19 21  1  0  0  0  0
 19 22  1  0  0  0  0
M  END
> <PUBCHEM_COMPOUND_ID_TYPE>
0

> <PUBCHEM_TOTAL_CHARGE>
0

> <PUBCHEM_SUBSTANCE_ID>
310940760

> <PUBCHEM_SUBSTANCE_VERSION>
1

> <PUBCHEM_EXT_DATASOURCE_NAME>
4488

> <PUBCHEM_EXT_DATASOURCE_REGID>
SCHEMBL16118719

> <PUBCHEM_SUBSTANCE_COMMENT>
InChI=1S/C17H27NO4/c1-16(2,3)22-15(20)18-13(14(19)17(4)9-21-17)8-12-10-6-5-7-11(10)12/h10-13H,5-9H2,1-4H3,(H,18,20)/t10-,11+,12+,13-,17+/m0/s1
InChIKey=ZTFIVBKKAIHOIQ-KOPCRSHDSA-N

> <PUBCHEM_SUBSTANCE_SYNONYM>
SCHEMBL16118719

> <PUBCHEM_XREF_EXT_ID>
SCHEMBL16118719

> <PUBCHEM_EXT_DATASOURCE_URL>
https://www.surechembl.org/

> <PUBCHEM_EXT_SUBSTANCE_URL>
https://www.surechembl.org/chemical/SCHEMBL16118719

> <PUBCHEM_CID_ASSOCIATIONS>
117607714  1

> <PUBCHEM_COORDINATE_TYPE>
1
3

> <PUBCHEM_BONDANNOTATIONS>
11  5  5
6  10  6
6  17  5
7  12  5
8  14  6
9  15  6

$$$$
