310929827
  -OEChem-07211613022D

 26 28  0     1  0  0  0  0  0999 V2000
    2.8645    0.0000    0.0000 Cl  0  0  0  0  0  0  0  0  0  0  0  0
    5.8286   -3.0139    0.0000 F   0  0  0  0  0  0  0  0  0  0  0  0
    5.3304   -1.6689    0.0000 F   0  0  0  0  0  0  0  0  0  0  0  0
    5.0315   -3.3128    0.0000 F   0  0  0  0  0  0  0  0  0  0  0  0
    4.6330   -3.1136    0.0000 O   0  0  0  0  0  0  0  0  0  0  0  0
    1.4447   -2.5158    0.0000 O   0  0  0  0  0  0  0  0  0  0  0  0
    0.0249   -4.1598    0.0000 O   0  0  0  0  0  0  0  0  0  0  0  0
    4.3839   -2.3414    0.0000 C   0  0  3  0  0  0  0  0  0  0  0  0
    3.6367   -2.0923    0.0000 C   0  0  0  0  0  0  0  0  0  0  0  0
    4.9070   -1.6689    0.0000 C   0  0  0  0  0  0  0  0  0  0  0  0
    3.6367   -1.2454    0.0000 C   0  0  0  0  0  0  0  0  0  0  0  0
    4.3839   -1.0212    0.0000 C   0  0  0  0  0  0  0  0  0  0  0  0
    5.1810   -2.4909    0.0000 C   0  0  0  0  0  0  0  0  0  0  0  0
    2.8645   -0.8220    0.0000 C   0  0  0  0  0  0  0  0  0  0  0  0
    2.8645   -2.5158    0.0000 C   0  0  0  0  0  0  0  0  0  0  0  0
    5.7041   -1.5942    0.0000 C   0  0  0  0  0  0  0  0  0  0  0  0
    4.7576   -0.2740    0.0000 C   0  0  0  0  0  0  0  0  0  0  0  0
    2.1671   -2.0923    0.0000 C   0  0  0  0  0  0  0  0  0  0  0  0
    2.1671   -1.2454    0.0000 C   0  0  0  0  0  0  0  0  0  0  0  0
    6.0279   -0.8220    0.0000 C   0  0  0  0  0  0  0  0  0  0  0  0
    5.5547   -0.1744    0.0000 C   0  0  0  0  0  0  0  0  0  0  0  0
    1.4447   -3.3378    0.0000 C   0  0  0  0  0  0  0  0  0  0  0  0
    0.7473   -3.7363    0.0000 C   0  0  0  0  0  0  0  0  0  0  0  0
    0.7223   -4.5832    0.0000 C   0  0  0  0  0  0  0  0  0  0  0  0
    0.0000   -4.9817    0.0000 C   0  0  0  0  0  0  0  0  0  0  0  0
    1.4447   -4.9817    0.0000 C   0  0  0  0  0  0  0  0  0  0  0  0
  1 14  1  0  0  0  0
  2 13  1  0  0  0  0
  3 13  1  0  0  0  0
  4 13  1  0  0  0  0
  8  5  1  1  0  0  0
  6 18  1  0  0  0  0
  6 22  1  0  0  0  0
  7 24  1  0  0  0  0
  8  9  1  0  0  0  0
  8 10  1  0  0  0  0
  8 13  1  6  0  0  0
  9 11  2  0  0  0  0
  9 15  1  0  0  0  0
 10 12  2  0  0  0  0
 10 16  1  0  0  0  0
 11 12  1  0  0  0  0
 11 14  1  0  0  0  0
 12 17  1  0  0  0  0
 14 19  2  0  0  0  0
 15 18  2  0  0  0  0
 16 20  2  0  0  0  0
 17 21  2  0  0  0  0
 18 19  1  0  0  0  0
 20 21  1  0  0  0  0
 22 23  1  0  0  0  0
 23 24  1  0  0  0  0
 24 25  1  0  0  0  0
 24 26  1  0  0  0  0
M  END
> <PUBCHEM_COMPOUND_ID_TYPE>
0

> <PUBCHEM_TOTAL_CHARGE>
0

> <PUBCHEM_SUBSTANCE_ID>
310929827

> <PUBCHEM_SUBSTANCE_VERSION>
1

> <PUBCHEM_EXT_DATASOURCE_NAME>
4488

> <PUBCHEM_EXT_DATASOURCE_REGID>
SCHEMBL16107036

> <PUBCHEM_SUBSTANCE_COMMENT>
InChI=1S/C19H18ClF3O3/c1-17(2,24)7-8-26-11-9-14-16(15(20)10-11)12-5-3-4-6-13(12)18(14,25)19(21,22)23/h3-6,9-10,24-25H,7-8H2,1-2H3/t18-/m1/s1
InChIKey=GWDKLNGROWEMHT-GOSISDBHSA-N

> <PUBCHEM_SUBSTANCE_SYNONYM>
SCHEMBL16107036

> <PUBCHEM_XREF_EXT_ID>
SCHEMBL16107036

> <PUBCHEM_EXT_DATASOURCE_URL>
https://www.surechembl.org/

> <PUBCHEM_EXT_SUBSTANCE_URL>
https://www.surechembl.org/chemical/SCHEMBL16107036

> <PUBCHEM_CID_ASSOCIATIONS>
117599101  1

> <PUBCHEM_COORDINATE_TYPE>
1
3

> <PUBCHEM_BONDANNOTATIONS>
8  5  5
8  13  6

$$$$
