310937746
  -OEChem-07211613022D

 18 19  0     0  0  0  0  0  0999 V2000
    6.1874   -0.7012    0.0000 Cl  0  0  0  0  0  0  0  0  0  0  0  0
    5.3830   -3.5474    0.0000 F   0  0  0  0  0  0  0  0  0  0  0  0
    2.9081   -2.1450    0.0000 O   0  0  0  0  0  0  0  0  0  0  0  0
    4.9499    0.0000    0.0000 O   0  0  0  0  0  0  0  0  0  0  0  0
    4.9499   -1.4231    0.0000 C   0  0  0  0  0  0  0  0  0  0  0  0
    3.7124   -2.1450    0.0000 C   0  0  0  0  0  0  0  0  0  0  0  0
    4.1249   -1.4231    0.0000 C   0  0  0  0  0  0  0  0  0  0  0  0
    4.9705   -2.8462    0.0000 C   0  0  0  0  0  0  0  0  0  0  0  0
    5.3624   -2.1243    0.0000 C   0  0  0  0  0  0  0  0  0  0  0  0
    4.1455   -2.8462    0.0000 C   0  0  0  0  0  0  0  0  0  0  0  0
    5.3624   -0.7012    0.0000 C   0  0  0  0  0  0  0  0  0  0  0  0
    2.4749   -1.4437    0.0000 C   0  0  0  0  0  0  0  0  0  0  0  0
    1.6500   -1.4437    0.0000 C   0  0  0  0  0  0  0  0  0  0  0  0
    1.2169   -0.7425    0.0000 C   0  0  0  0  0  0  0  0  0  0  0  0
    1.2375   -2.1656    0.0000 C   0  0  0  0  0  0  0  0  0  0  0  0
    0.3919   -0.7425    0.0000 C   0  0  0  0  0  0  0  0  0  0  0  0
    0.4125   -2.1862    0.0000 C   0  0  0  0  0  0  0  0  0  0  0  0
    0.0000   -1.4644    0.0000 C   0  0  0  0  0  0  0  0  0  0  0  0
  1 11  1  0  0  0  0
  2  8  1  0  0  0  0
  3  6  1  0  0  0  0
  3 12  1  0  0  0  0
  4 11  2  0  0  0  0
  5  7  2  0  0  0  0
  5  9  1  0  0  0  0
  5 11  1  0  0  0  0
  6  7  1  0  0  0  0
  6 10  2  0  0  0  0
  8  9  2  0  0  0  0
  8 10  1  0  0  0  0
 12 13  1  0  0  0  0
 13 14  2  0  0  0  0
 13 15  1  0  0  0  0
 14 16  1  0  0  0  0
 15 17  2  0  0  0  0
 16 18  2  0  0  0  0
 17 18  1  0  0  0  0
M  END
> <PUBCHEM_COMPOUND_ID_TYPE>
0

> <PUBCHEM_TOTAL_CHARGE>
0

> <PUBCHEM_SUBSTANCE_ID>
310937746

> <PUBCHEM_SUBSTANCE_VERSION>
1

> <PUBCHEM_EXT_DATASOURCE_NAME>
4488

> <PUBCHEM_EXT_DATASOURCE_REGID>
SCHEMBL16115550

> <PUBCHEM_SUBSTANCE_COMMENT>
InChI=1S/C14H10ClFO2/c15-14(17)11-6-12(16)8-13(7-11)18-9-10-4-2-1-3-5-10/h1-8H,9H2
InChIKey=HWCRKBFUDAMHKO-UHFFFAOYSA-N

> <PUBCHEM_SUBSTANCE_SYNONYM>
SCHEMBL16115550

> <PUBCHEM_XREF_EXT_ID>
SCHEMBL16115550

> <PUBCHEM_EXT_DATASOURCE_URL>
https://www.surechembl.org/

> <PUBCHEM_EXT_SUBSTANCE_URL>
https://www.surechembl.org/chemical/SCHEMBL16115550

> <PUBCHEM_CID_ASSOCIATIONS>
117605410  1

> <PUBCHEM_COORDINATE_TYPE>
1
3

$$$$
