310933561
  -OEChem-07211613022D

 30 34  0     0  0  0  0  0  0999 V2000
    0.1100   -4.3700    0.0000 O   0  0  0  0  0  0  0  0  0  0  0  0
    5.6893   -3.3531    0.0000 O   0  0  0  0  0  0  0  0  0  0  0  0
    0.7146   -1.2368    0.0000 O   0  0  0  0  0  0  0  0  0  0  0  0
    4.3700   -2.6660    0.0000 N   0  0  0  0  0  0  0  0  0  0  0  0
    4.3426   -3.9853    0.0000 N   0  0  0  0  0  0  0  0  0  0  0  0
    3.5730   -0.4123    0.0000 N   0  0  0  0  0  0  0  0  0  0  0  0
    0.5222   -5.1121    0.0000 N   0  0  0  0  0  0  0  0  0  0  0  0
    1.4292    0.0000    0.0000 N   0  0  0  0  0  0  0  0  0  0  0  0
    2.8584   -2.4736    0.0000 C   0  0  0  0  0  0  0  0  0  0  0  0
    3.5730   -2.8859    0.0000 C   0  0  0  0  0  0  0  0  0  0  0  0
    2.8859   -1.6491    0.0000 C   0  0  0  0  0  0  0  0  0  0  0  0
    3.5730   -3.7379    0.0000 C   0  0  0  0  0  0  0  0  0  0  0  0
    2.1438   -3.7104    0.0000 C   0  0  0  0  0  0  0  0  0  0  0  0
    3.6005   -1.2643    0.0000 C   0  0  0  0  0  0  0  0  0  0  0  0
    2.1713   -2.8584    0.0000 C   0  0  0  0  0  0  0  0  0  0  0  0
    1.4292   -4.1227    0.0000 C   0  0  0  0  0  0  0  0  0  0  0  0
    2.8309   -4.1227    0.0000 C   0  0  0  0  0  0  0  0  0  0  0  0
    4.3151   -1.6491    0.0000 C   0  0  0  0  0  0  0  0  0  0  0  0
    4.8647   -3.3256    0.0000 C   0  0  0  0  0  0  0  0  0  0  0  0
    2.1713   -1.2368    0.0000 C   0  0  0  0  0  0  0  0  0  0  0  0
    0.6871   -3.7929    0.0000 C   0  0  0  0  0  0  0  0  0  0  0  0
    1.3193   -4.9198    0.0000 C   0  0  0  0  0  0  0  0  0  0  0  0
    2.1438   -0.4123    0.0000 C   0  0  0  0  0  0  0  0  0  0  0  0
    5.1396   -1.6765    0.0000 C   0  0  0  0  0  0  0  0  0  0  0  0
    4.7548   -2.3912    0.0000 C   0  0  0  0  0  0  0  0  0  0  0  0
    2.8859   -0.0275    0.0000 C   0  0  0  0  0  0  0  0  0  0  0  0
    0.5222   -2.9684    0.0000 C   0  0  0  0  0  0  0  0  0  0  0  0
    1.9514   -5.4969    0.0000 C   0  0  0  0  0  0  0  0  0  0  0  0
    0.7146   -0.4123    0.0000 C   0  0  0  0  0  0  0  0  0  0  0  0
    0.0000    0.0000    0.0000 C   0  0  0  0  0  0  0  0  0  0  0  0
  1  7  1  0  0  0  0
  1 21  1  0  0  0  0
  2 19  2  0  0  0  0
  3 29  2  0  0  0  0
  4 10  1  0  0  0  0
  4 19  1  0  0  0  0
  5 12  1  0  0  0  0
  5 19  1  0  0  0  0
  6 14  2  0  0  0  0
  6 26  1  0  0  0  0
  7 22  2  0  0  0  0
  8 23  1  0  0  0  0
  8 29  1  0  0  0  0
  9 10  1  0  0  0  0
  9 11  1  0  0  0  0
  9 15  2  0  0  0  0
 10 12  2  0  0  0  0
 11 14  1  0  0  0  0
 11 20  2  0  0  0  0
 12 17  1  0  0  0  0
 13 15  1  0  0  0  0
 13 16  1  0  0  0  0
 13 17  2  0  0  0  0
 14 18  1  0  0  0  0
 16 21  2  0  0  0  0
 16 22  1  0  0  0  0
 18 24  1  0  0  0  0
 18 25  1  0  0  0  0
 20 23  1  0  0  0  0
 21 27  1  0  0  0  0
 22 28  1  0  0  0  0
 23 26  2  0  0  0  0
 24 25  1  0  0  0  0
 29 30  1  0  0  0  0
M  END
> <PUBCHEM_COMPOUND_ID_TYPE>
0

> <PUBCHEM_TOTAL_CHARGE>
0

> <PUBCHEM_SUBSTANCE_ID>
310933561

> <PUBCHEM_SUBSTANCE_VERSION>
1

> <PUBCHEM_EXT_DATASOURCE_NAME>
4488

> <PUBCHEM_EXT_DATASOURCE_REGID>
SCHEMBL16110984

> <PUBCHEM_SUBSTANCE_COMMENT>
InChI=1S/C22H21N5O3/c1-10-19(11(2)30-27-10)14-6-16(21-18(7-14)25-22(29)26-21)17-8-15(24-12(3)28)9-23-20(17)13-4-5-13/h6-9,13H,4-5H2,1-3H3,(H,24,28)(H2,25,26,29)
InChIKey=HYJGWQDYGITPOR-UHFFFAOYSA-N

> <PUBCHEM_SUBSTANCE_SYNONYM>
SCHEMBL16110984

> <PUBCHEM_XREF_EXT_ID>
SCHEMBL16110984

> <PUBCHEM_EXT_DATASOURCE_URL>
https://www.surechembl.org/

> <PUBCHEM_EXT_SUBSTANCE_URL>
https://www.surechembl.org/chemical/SCHEMBL16110984

> <PUBCHEM_CID_ASSOCIATIONS>
117601945  1

> <PUBCHEM_COORDINATE_TYPE>
1
3

$$$$
