310948487
  -OEChem-07211613022D

 31 35  0     1  0  0  0  0  0999 V2000
   -1.3292   -2.6860    0.0000 S   0  0  0  0  0  0  0  0  0  0  0  0
   -2.0810   -3.0160    0.0000 O   0  0  0  0  0  0  0  0  0  0  0  0
   -1.4209   -3.5110    0.0000 O   0  0  0  0  0  0  0  0  0  0  0  0
   -2.5760    2.1726    0.0000 O   0  0  0  0  0  0  0  0  0  0  0  0
    0.1008    1.4759    0.0000 N   0  0  0  0  0  0  0  0  0  0  0  0
   -0.5042   -2.6860    0.0000 N   0  0  3  0  0  0  0  0  0  0  0  0
   -0.3942    0.8159    0.0000 N   0  0  0  0  0  0  0  0  0  0  0  0
   -1.8426    0.5775    0.0000 N   0  0  0  0  0  0  0  0  0  0  0  0
   -1.6043    3.2543    0.0000 N   0  0  0  0  0  0  0  0  0  0  0  0
    0.5408   -0.6692    0.0000 N   0  0  0  0  0  0  0  0  0  0  0  0
   -1.1459    1.9159    0.0000 C   0  0  0  0  0  0  0  0  0  0  0  0
   -0.4125    2.1726    0.0000 C   0  0  0  0  0  0  0  0  0  0  0  0
   -1.5675   -1.8976    0.0000 C   0  0  0  0  0  0  0  0  0  0  0  0
   -1.1825    1.0726    0.0000 C   0  0  0  0  0  0  0  0  0  0  0  0
   -0.9076   -1.3843    0.0000 C   0  0  0  0  0  0  0  0  0  0  0  0
   -1.7509   -0.2292    0.0000 C   0  0  0  0  0  0  0  0  0  0  0  0
    0.9442    1.4942    0.0000 C   0  0  3  0  0  0  0  0  0  0  0  0
   -1.7876    2.4660    0.0000 C   0  0  0  0  0  0  0  0  0  0  0  0
   -0.2475   -1.8792    0.0000 C   0  0  0  0  0  0  0  0  0  0  0  0
   -1.0176   -0.5775    0.0000 C   0  0  0  0  0  0  0  0  0  0  0  0
   -2.3376   -1.5309    0.0000 C   0  0  0  0  0  0  0  0  0  0  0  0
   -0.2109    2.9610    0.0000 C   0  0  0  0  0  0  0  0  0  0  0  0
   -2.4110   -0.7242    0.0000 C   0  0  0  0  0  0  0  0  0  0  0  0
    1.3475    0.7792    0.0000 C   0  0  3  0  0  0  0  0  0  0  0  0
   -0.8343    3.5110    0.0000 C   0  0  0  0  0  0  0  0  0  0  0  0
    1.3475    2.1910    0.0000 C   0  0  0  0  0  0  0  0  0  0  0  0
    0.0092   -3.3643    0.0000 C   0  0  0  0  0  0  0  0  0  0  0  0
    2.1727    0.7792    0.0000 C   0  0  0  0  0  0  0  0  0  0  0  0
    0.9259    0.0275    0.0000 C   0  0  0  0  0  0  0  0  0  0  0  0
    2.1727    2.1910    0.0000 C   0  0  0  0  0  0  0  0  0  0  0  0
    2.5760    1.5126    0.0000 C   0  0  0  0  0  0  0  0  0  0  0  0
  1  2  2  0  0  0  0
  1  3  2  0  0  0  0
  1  6  1  0  0  0  0
  1 13  1  0  0  0  0
  4 18  2  0  0  0  0
  5  7  1  0  0  0  0
  5 12  1  0  0  0  0
 17  5  1  1  0  0  0
  6 19  1  0  0  0  0
  6 27  1  0  0  0  0
  7 14  2  0  0  0  0
  8 14  1  0  0  0  0
  8 16  1  0  0  0  0
  9 18  1  0  0  0  0
  9 25  1  0  0  0  0
 10 29  3  0  0  0  0
 11 12  2  0  0  0  0
 11 14  1  0  0  0  0
 11 18  1  0  0  0  0
 12 22  1  0  0  0  0
 13 15  1  0  0  0  0
 13 21  2  0  0  0  0
 15 19  1  0  0  0  0
 15 20  2  0  0  0  0
 16 20  1  0  0  0  0
 16 23  2  0  0  0  0
 17 24  1  0  0  0  0
 17 26  1  0  0  0  0
 21 23  1  0  0  0  0
 22 25  2  0  0  0  0
 24 28  1  0  0  0  0
 24 29  1  6  0  0  0
 26 30  1  0  0  0  0
 28 31  1  0  0  0  0
 30 31  1  0  0  0  0
M  END
> <PUBCHEM_COMPOUND_ID_TYPE>
0

> <PUBCHEM_TOTAL_CHARGE>
0

> <PUBCHEM_SUBSTANCE_ID>
310948487

> <PUBCHEM_SUBSTANCE_VERSION>
1

> <PUBCHEM_EXT_DATASOURCE_NAME>
4488

> <PUBCHEM_EXT_DATASOURCE_REGID>
SCHEMBL16126669

> <PUBCHEM_SUBSTANCE_COMMENT>
InChI=1S/C21H22N6O3S/c1-26-12-14-10-15(6-7-18(14)31(26,29)30)24-20-19-17(8-9-23-21(19)28)27(25-20)16-5-3-2-4-13(16)11-22/h6-10,13,16H,2-5,12H2,1H3,(H,23,28)(H,24,25)/t13-,16+/m1/s1
InChIKey=BCYAAUIZGNKJEN-CJNGLKHVSA-N

> <PUBCHEM_SUBSTANCE_SYNONYM>
SCHEMBL16126669

> <PUBCHEM_XREF_EXT_ID>
SCHEMBL16126669

> <PUBCHEM_EXT_DATASOURCE_URL>
https://www.surechembl.org/

> <PUBCHEM_EXT_SUBSTANCE_URL>
https://www.surechembl.org/chemical/SCHEMBL16126669

> <PUBCHEM_CID_ASSOCIATIONS>
78425859  1

> <PUBCHEM_COORDINATE_TYPE>
1
3

> <PUBCHEM_BONDANNOTATIONS>
24  29  6
17  5  5

$$$$
