310945853
  -OEChem-07211613022D

 41 43  0     1  0  0  0  0  0999 V2000
    5.8285    0.6875    0.0000 O   0  0  0  0  0  0  0  0  0  0  0  0
    4.6826   -1.2833    0.0000 O   0  0  0  0  0  0  0  0  0  0  0  0
    2.5285    0.7945    0.0000 O   0  0  0  0  0  0  0  0  0  0  0  0
    0.3743   -1.2833    0.0000 O   0  0  0  0  0  0  0  0  0  0  0  0
    4.6826   -2.9486    0.0000 O   0  0  0  0  0  0  0  0  0  0  0  0
   -1.7799    0.7945    0.0000 O   0  0  0  0  0  0  0  0  0  0  0  0
   -3.2313   -0.0458    0.0000 O   0  0  0  0  0  0  0  0  0  0  0  0
   -5.3701   -0.4583    0.0000 O   0  0  0  0  0  0  0  0  0  0  0  0
    3.2465   -0.4431    0.0000 N   0  0  0  0  0  0  0  0  0  0  0  0
    1.0923   -0.0305    0.0000 N   0  0  0  0  0  0  0  0  0  0  0  0
   -1.0618   -0.4431    0.0000 N   0  0  0  0  0  0  0  0  0  0  0  0
    5.4007   -0.0153    0.0000 C   0  0  3  0  0  0  0  0  0  0  0  0
    4.6826   -0.4278    0.0000 C   0  0  0  0  0  0  0  0  0  0  0  0
    5.0187    0.6875    0.0000 C   0  0  0  0  0  0  0  0  0  0  0  0
    3.9646   -0.0305    0.0000 C   0  0  3  0  0  0  0  0  0  0  0  0
    6.1035   -0.4278    0.0000 C   0  0  0  0  0  0  0  0  0  0  0  0
    3.9799    1.2986    0.0000 C   0  0  0  0  0  0  0  0  0  0  0  0
    2.5285   -0.0458    0.0000 C   0  0  0  0  0  0  0  0  0  0  0  0
    1.8257   -0.4431    0.0000 C   0  0  3  0  0  0  0  0  0  0  0  0
    3.2465    1.7264    0.0000 C   0  0  0  0  0  0  0  0  0  0  0  0
    1.8104   -1.2986    0.0000 C   0  0  0  0  0  0  0  0  0  0  0  0
    2.5437   -1.6958    0.0000 C   0  0  0  0  0  0  0  0  0  0  0  0
    0.3743   -0.4278    0.0000 C   0  0  0  0  0  0  0  0  0  0  0  0
    2.5285    1.3139    0.0000 C   0  0  0  0  0  0  0  0  0  0  0  0
    3.2465    2.5361    0.0000 C   0  0  0  0  0  0  0  0  0  0  0  0
   -0.3437   -0.0305    0.0000 C   0  0  3  0  0  0  0  0  0  0  0  0
    3.2465   -1.2833    0.0000 C   0  0  0  0  0  0  0  0  0  0  0  0
    2.5437   -2.5208    0.0000 C   0  0  0  0  0  0  0  0  0  0  0  0
    1.8257    1.7111    0.0000 C   0  0  0  0  0  0  0  0  0  0  0  0
    2.5285    2.9486    0.0000 C   0  0  0  0  0  0  0  0  0  0  0  0
    3.9646   -2.5055    0.0000 C   0  0  0  0  0  0  0  0  0  0  0  0
    3.9646   -1.6958    0.0000 C   0  0  0  0  0  0  0  0  0  0  0  0
    3.2771   -2.9333    0.0000 C   0  0  0  0  0  0  0  0  0  0  0  0
    1.8257    2.5514    0.0000 C   0  0  0  0  0  0  0  0  0  0  0  0
   -1.7799   -0.0458    0.0000 C   0  0  0  0  0  0  0  0  0  0  0  0
   -0.3437    0.7945    0.0000 C   0  0  0  0  0  0  0  0  0  0  0  0
   -2.4826   -0.4431    0.0000 C   0  0  0  0  0  0  0  0  0  0  0  0
    5.4313   -2.5361    0.0000 C   0  0  0  0  0  0  0  0  0  0  0  0
   -3.9340   -0.4431    0.0000 C   0  0  0  0  0  0  0  0  0  0  0  0
   -4.6673   -0.0305    0.0000 C   0  0  0  0  0  0  0  0  0  0  0  0
   -6.1035   -0.0458    0.0000 C   0  0  0  0  0  0  0  0  0  0  0  0
  1 12  1  0  0  0  0
  1 14  1  0  0  0  0
  2 13  2  0  0  0  0
  3 18  2  0  0  0  0
  4 23  2  0  0  0  0
  5 31  1  0  0  0  0
  5 38  1  0  0  0  0
  6 35  2  0  0  0  0
  7 37  1  0  0  0  0
  7 39  1  0  0  0  0
  8 40  1  0  0  0  0
  8 41  1  0  0  0  0
 15  9  1  1  0  0  0
  9 18  1  0  0  0  0
 19 10  1  6  0  0  0
 10 23  1  0  0  0  0
 11 26  1  0  0  0  0
 11 35  1  0  0  0  0
 12 13  1  1  0  0  0
 12 14  1  0  0  0  0
 12 16  1  6  0  0  0
 13 15  1  0  0  0  0
 15 17  1  0  0  0  0
 17 20  1  0  0  0  0
 18 19  1  0  0  0  0
 19 21  1  0  0  0  0
 20 24  2  0  0  0  0
 20 25  1  0  0  0  0
 21 22  1  0  0  0  0
 22 27  2  0  0  0  0
 22 28  1  0  0  0  0
 23 26  1  0  0  0  0
 24 29  1  0  0  0  0
 25 30  2  0  0  0  0
 26 36  1  1  0  0  0
 27 32  1  0  0  0  0
 28 33  2  0  0  0  0
 29 34  2  0  0  0  0
 30 34  1  0  0  0  0
 31 32  2  0  0  0  0
 31 33  1  0  0  0  0
 35 37  1  0  0  0  0
 39 40  1  0  0  0  0
M  END
> <PUBCHEM_COMPOUND_ID_TYPE>
0

> <PUBCHEM_TOTAL_CHARGE>
0

> <PUBCHEM_SUBSTANCE_ID>
310945853

> <PUBCHEM_SUBSTANCE_VERSION>
1

> <PUBCHEM_EXT_DATASOURCE_NAME>
4488

> <PUBCHEM_EXT_DATASOURCE_REGID>
SCHEMBL16123958

> <PUBCHEM_SUBSTANCE_COMMENT>
InChI=1S/C30H39N3O8/c1-20(31-26(34)18-40-15-14-38-3)28(36)33-25(17-22-10-12-23(39-4)13-11-22)29(37)32-24(27(35)30(2)19-41-30)16-21-8-6-5-7-9-21/h5-13,20,24-25H,14-19H2,1-4H3,(H,31,34)(H,32,37)(H,33,36)/t20-,24-,25-,30+/m0/s1
InChIKey=QFVJUDNCMDETGE-NHPFZIKMSA-N

> <PUBCHEM_SUBSTANCE_SYNONYM>
SCHEMBL16123958

> <PUBCHEM_XREF_EXT_ID>
SCHEMBL16123958

> <PUBCHEM_EXT_DATASOURCE_URL>
https://www.surechembl.org/

> <PUBCHEM_EXT_SUBSTANCE_URL>
https://www.surechembl.org/chemical/SCHEMBL16123958

> <PUBCHEM_CID_ASSOCIATIONS>
117611838  1

> <PUBCHEM_COORDINATE_TYPE>
1
3

> <PUBCHEM_BONDANNOTATIONS>
19  10  6
12  13  5
12  16  6
26  36  5
15  9  5

$$$$
