310940429
  -OEChem-07211613022D

 15 16  0     0  0  0  0  0  0999 V2000
   -1.4911   -0.0346    0.0000 O   0  0  0  0  0  0  0  0  0  0  0  0
    0.5895   -0.8114    0.0000 N   0  0  0  0  0  0  0  0  0  0  0  0
   -0.8114   -0.5063    0.0000 C   0  0  0  0  0  0  0  0  0  0  0  0
    1.3662   -0.5617    0.0000 C   0  0  0  0  0  0  0  0  0  0  0  0
   -2.1569   -0.5063    0.0000 C   0  0  0  0  0  0  0  0  0  0  0  0
   -0.0208   -0.2566    0.0000 C   0  0  0  0  0  0  0  0  0  0  0  0
   -1.0750   -1.2969    0.0000 C   0  0  0  0  0  0  0  0  0  0  0  0
   -1.8933   -1.2969    0.0000 C   0  0  0  0  0  0  0  0  0  0  0  0
    1.5604    0.2428    0.0000 C   0  0  0  0  0  0  0  0  0  0  0  0
    2.3372    0.4924    0.0000 C   0  0  0  0  0  0  0  0  0  0  0  0
    2.0043   -1.1166    0.0000 C   0  0  0  0  0  0  0  0  0  0  0  0
    2.9475   -0.0624    0.0000 C   0  0  0  0  0  0  0  0  0  0  0  0
    2.7672   -0.8670    0.0000 C   0  0  0  0  0  0  0  0  0  0  0  0
   -2.9475   -0.2705    0.0000 C   0  0  0  0  0  0  0  0  0  0  0  0
    2.5592    1.2969    0.0000 C   0  0  0  0  0  0  0  0  0  0  0  0
  1  3  1  0  0  0  0
  1  5  1  0  0  0  0
  2  4  1  0  0  0  0
  2  6  2  0  0  0  0
  3  6  1  0  0  0  0
  3  7  2  0  0  0  0
  4  9  2  0  0  0  0
  4 11  1  0  0  0  0
  5  8  2  0  0  0  0
  5 14  1  0  0  0  0
  7  8  1  0  0  0  0
  9 10  1  0  0  0  0
 10 12  2  0  0  0  0
 10 15  1  0  0  0  0
 11 13  2  0  0  0  0
 12 13  1  0  0  0  0
M  END
> <PUBCHEM_COMPOUND_ID_TYPE>
0

> <PUBCHEM_TOTAL_CHARGE>
0

> <PUBCHEM_SUBSTANCE_ID>
310940429

> <PUBCHEM_SUBSTANCE_VERSION>
1

> <PUBCHEM_EXT_DATASOURCE_NAME>
4488

> <PUBCHEM_EXT_DATASOURCE_REGID>
SCHEMBL16118381

> <PUBCHEM_SUBSTANCE_COMMENT>
InChI=1S/C13H13NO/c1-10-4-3-5-12(8-10)14-9-13-7-6-11(2)15-13/h3-9H,1-2H3/b14-9+
InChIKey=KCYMYAMPCAXIBO-NTEUORMPSA-N

> <PUBCHEM_SUBSTANCE_SYNONYM>
SCHEMBL16118381

> <PUBCHEM_XREF_EXT_ID>
SCHEMBL16118381

> <PUBCHEM_EXT_DATASOURCE_URL>
https://www.surechembl.org/

> <PUBCHEM_EXT_SUBSTANCE_URL>
https://www.surechembl.org/chemical/SCHEMBL16118381

> <PUBCHEM_CID_ASSOCIATIONS>
117607454  1

> <PUBCHEM_COORDINATE_TYPE>
1
3

$$$$
