310939471
  -OEChem-07211613022D

 19 20  0     1  0  0  0  0  0999 V2000
   -0.5536   -0.2870    0.0000 O   0  0  0  0  0  0  0  0  0  0  0  0
    0.7813   -0.2870    0.0000 O   0  0  0  0  0  0  0  0  0  0  0  0
   -1.3382    1.5372    0.0000 O   0  0  0  0  0  0  0  0  0  0  0  0
   -2.5621    3.3445    0.0000 O   0  0  0  0  0  0  0  0  0  0  0  0
    1.3647    1.8656    0.0000 N   0  0  0  0  0  0  0  0  0  0  0  0
   -0.2986    0.4977    0.0000 C   0  0  3  0  0  0  0  0  0  0  0  0
    0.5264    0.4977    0.0000 C   0  0  3  0  0  0  0  0  0  0  0  0
   -0.5536    1.2823    0.0000 C   0  0  3  0  0  0  0  0  0  0  0  0
    0.1139   -0.7719    0.0000 C   0  0  0  0  0  0  0  0  0  0  0  0
    0.7813    1.2823    0.0000 C   0  0  3  0  0  0  0  0  0  0  0  0
   -1.5517    2.3341    0.0000 C   0  0  0  0  0  0  0  0  0  0  0  0
    0.1139    1.7672    0.0000 C   0  0  0  0  0  0  0  0  0  0  0  0
   -2.3486    2.5476    0.0000 C   0  0  0  0  0  0  0  0  0  0  0  0
   -0.2986   -1.4864    0.0000 C   0  0  0  0  0  0  0  0  0  0  0  0
    0.5264   -1.4864    0.0000 C   0  0  0  0  0  0  0  0  0  0  0  0
   -0.7548    2.5476    0.0000 H   1  0  0  0  0  0  0  0  0  0  0  0
   -1.3382    3.1310    0.0000 H   1  0  0  0  0  0  0  0  0  0  0  0
   -3.1455    2.3341    0.0000 H   1  0  0  0  0  0  0  0  0  0  0  0
   -2.5621    1.7507    0.0000 H   1  0  0  0  0  0  0  0  0  0  0  0
  6  1  1  6  0  0  0
  1  9  1  0  0  0  0
  7  2  1  6  0  0  0
  2  9  1  0  0  0  0
  8  3  1  1  0  0  0
  3 11  1  0  0  0  0
  4 13  1  0  0  0  0
  5 10  1  0  0  0  0
  6  7  1  0  0  0  0
  6  8  1  0  0  0  0
  7 10  1  0  0  0  0
  8 12  1  0  0  0  0
  9 14  1  0  0  0  0
  9 15  1  0  0  0  0
 10 12  1  0  0  0  0
 11 13  1  0  0  0  0
 11 16  1  0  0  0  0
 11 17  1  0  0  0  0
 13 18  1  0  0  0  0
 13 19  1  0  0  0  0
M  ISO  4  16   2  17   2  18   2  19   2
M  END
> <PUBCHEM_COMPOUND_ID_TYPE>
0

> <PUBCHEM_TOTAL_CHARGE>
0

> <PUBCHEM_SUBSTANCE_ID>
310939471

> <PUBCHEM_SUBSTANCE_VERSION>
1

> <PUBCHEM_EXT_DATASOURCE_NAME>
4488

> <PUBCHEM_EXT_DATASOURCE_REGID>
SCHEMBL16117398

> <PUBCHEM_SUBSTANCE_COMMENT>
InChI=1S/C10H19NO4/c1-10(2)14-8-6(11)5-7(9(8)15-10)13-4-3-12/h6-9,12H,3-5,11H2,1-2H3/t6?,7-,8-,9+/m0/s1/i3D2,4D2
InChIKey=WNYYMPICYAOQAE-XXFDDTOHSA-N

> <PUBCHEM_SUBSTANCE_SYNONYM>
SCHEMBL16117398

> <PUBCHEM_XREF_EXT_ID>
SCHEMBL16117398

> <PUBCHEM_EXT_DATASOURCE_URL>
https://www.surechembl.org/

> <PUBCHEM_EXT_SUBSTANCE_URL>
https://www.surechembl.org/chemical/SCHEMBL16117398

> <PUBCHEM_CID_ASSOCIATIONS>
117606785  1

> <PUBCHEM_COORDINATE_TYPE>
1
3

> <PUBCHEM_BONDANNOTATIONS>
6  1  6
7  2  6
8  3  5

$$$$
