310941044
  -OEChem-07211613022D

 43 46  0     1  0  0  0  0  0999 V2000
    5.0810   -1.1062    0.0000 O   0  0  0  0  0  0  0  0  0  0  0  0
    3.9535    0.8635    0.0000 O   0  0  0  0  0  0  0  0  0  0  0  0
    1.7983   -1.2203    0.0000 O   0  0  0  0  0  0  0  0  0  0  0  0
    3.9535    2.5191    0.0000 O   0  0  0  0  0  0  0  0  0  0  0  0
   -0.3569    0.8635    0.0000 O   0  0  0  0  0  0  0  0  0  0  0  0
    2.5119    3.3469    0.0000 O   0  0  0  0  0  0  0  0  0  0  0  0
   -2.5119   -1.2203    0.0000 O   0  0  0  0  0  0  0  0  0  0  0  0
   -5.3950   -1.2203    0.0000 O   0  0  0  0  0  0  0  0  0  0  0  0
    2.5119    0.0214    0.0000 N   0  0  0  0  0  0  0  0  0  0  0  0
    0.3569   -0.3925    0.0000 N   0  0  0  0  0  0  0  0  0  0  0  0
   -1.7983    0.0214    0.0000 N   0  0  0  0  0  0  0  0  0  0  0  0
   -3.9535   -0.3925    0.0000 N   0  0  0  0  0  0  0  0  0  0  0  0
    4.6813   -0.3782    0.0000 C   0  0  3  0  0  0  0  0  0  0  0  0
    3.8963    0.0357    0.0000 C   0  0  0  0  0  0  0  0  0  0  0  0
    4.2818   -1.0776    0.0000 C   0  0  0  0  0  0  0  0  0  0  0  0
    3.2684   -0.3497    0.0000 C   0  0  3  0  0  0  0  0  0  0  0  0
    5.3950    0.0499    0.0000 C   0  0  0  0  0  0  0  0  0  0  0  0
    3.2684   -1.6913    0.0000 C   0  0  0  0  0  0  0  0  0  0  0  0
    1.8126   -0.3354    0.0000 C   0  0  0  0  0  0  0  0  0  0  0  0
    1.0847    0.0499    0.0000 C   0  0  3  0  0  0  0  0  0  0  0  0
    2.5262   -2.1052    0.0000 C   0  0  0  0  0  0  0  0  0  0  0  0
    1.0990    0.8777    0.0000 C   0  0  0  0  0  0  0  0  0  0  0  0
    1.7841    1.3059    0.0000 C   0  0  0  0  0  0  0  0  0  0  0  0
   -0.3711    0.0357    0.0000 C   0  0  0  0  0  0  0  0  0  0  0  0
    1.7983   -1.7198    0.0000 C   0  0  0  0  0  0  0  0  0  0  0  0
    2.5262   -2.9330    0.0000 C   0  0  0  0  0  0  0  0  0  0  0  0
    1.8126    2.1337    0.0000 C   0  0  0  0  0  0  0  0  0  0  0  0
    2.5262    2.5476    0.0000 C   0  0  0  0  0  0  0  0  0  0  0  0
    3.2398    2.1337    0.0000 C   0  0  0  0  0  0  0  0  0  0  0  0
    2.5262    0.8920    0.0000 C   0  0  0  0  0  0  0  0  0  0  0  0
   -1.0561   -0.3497    0.0000 C   0  0  3  0  0  0  0  0  0  0  0  0
    3.2398    1.3059    0.0000 C   0  0  0  0  0  0  0  0  0  0  0  0
    1.0990   -2.1195    0.0000 C   0  0  0  0  0  0  0  0  0  0  0  0
    1.7983   -3.3469    0.0000 C   0  0  0  0  0  0  0  0  0  0  0  0
    1.0990   -2.9473    0.0000 C   0  0  0  0  0  0  0  0  0  0  0  0
   -2.4976   -0.3354    0.0000 C   0  0  0  0  0  0  0  0  0  0  0  0
   -1.0704   -1.1775    0.0000 C   0  0  0  0  0  0  0  0  0  0  0  0
   -3.2256    0.0499    0.0000 C   0  0  0  0  0  0  0  0  0  0  0  0
   -3.9535   -1.1918    0.0000 C   0  0  0  0  0  0  0  0  0  0  0  0
   -4.6813    0.0499    0.0000 C   0  0  0  0  0  0  0  0  0  0  0  0
    4.6956    2.1052    0.0000 C   0  0  0  0  0  0  0  0  0  0  0  0
   -4.6670   -1.6056    0.0000 C   0  0  0  0  0  0  0  0  0  0  0  0
   -5.3665   -0.3497    0.0000 C   0  0  0  0  0  0  0  0  0  0  0  0
  1 13  1  0  0  0  0
  1 15  1  0  0  0  0
  2 14  2  0  0  0  0
  3 19  2  0  0  0  0
  4 29  1  0  0  0  0
  4 41  1  0  0  0  0
  5 24  2  0  0  0  0
  6 28  1  0  0  0  0
  7 36  2  0  0  0  0
  8 42  1  0  0  0  0
  8 43  1  0  0  0  0
 16  9  1  6  0  0  0
  9 19  1  0  0  0  0
 20 10  1  1  0  0  0
 10 24  1  0  0  0  0
 11 31  1  0  0  0  0
 11 36  1  0  0  0  0
 12 38  1  0  0  0  0
 12 39  1  0  0  0  0
 12 40  1  0  0  0  0
 13 14  1  6  0  0  0
 13 15  1  0  0  0  0
 13 17  1  1  0  0  0
 14 16  1  0  0  0  0
 16 18  1  0  0  0  0
 18 21  1  0  0  0  0
 19 20  1  0  0  0  0
 20 22  1  0  0  0  0
 21 25  2  0  0  0  0
 21 26  1  0  0  0  0
 22 23  1  0  0  0  0
 23 27  1  0  0  0  0
 23 30  2  0  0  0  0
 24 31  1  0  0  0  0
 25 33  1  0  0  0  0
 26 34  1  0  0  0  0
 27 28  2  0  0  0  0
 28 29  1  0  0  0  0
 29 32  2  0  0  0  0
 30 32  1  0  0  0  0
 31 37  1  6  0  0  0
 33 35  1  0  0  0  0
 34 35  1  0  0  0  0
 36 38  1  0  0  0  0
 39 42  1  0  0  0  0
 40 43  1  0  0  0  0
M  END
> <PUBCHEM_COMPOUND_ID_TYPE>
0

> <PUBCHEM_TOTAL_CHARGE>
0

> <PUBCHEM_SUBSTANCE_ID>
310941044

> <PUBCHEM_SUBSTANCE_VERSION>
1

> <PUBCHEM_EXT_DATASOURCE_NAME>
4488

> <PUBCHEM_EXT_DATASOURCE_REGID>
SCHEMBL16119003

> <PUBCHEM_SUBSTANCE_COMMENT>
InChI=1S/C31H44N4O8/c1-20(32-27(37)18-35-11-13-42-14-12-35)29(39)34-24(16-22-9-10-26(41-3)25(36)17-22)30(40)33-23(28(38)31(2)19-43-31)15-21-7-5-4-6-8-21/h7,9-10,17,20,23-24,36H,4-6,8,11-16,18-19H2,1-3H3,(H,32,37)(H,33,40)(H,34,39)/t20-,23-,24-,31+/m0/s1
InChIKey=BZDWXAUZXLWXIL-VOYYKXOFSA-N

> <PUBCHEM_SUBSTANCE_SYNONYM>
SCHEMBL16119003

> <PUBCHEM_XREF_EXT_ID>
SCHEMBL16119003

> <PUBCHEM_EXT_DATASOURCE_URL>
https://www.surechembl.org/

> <PUBCHEM_EXT_SUBSTANCE_URL>
https://www.surechembl.org/chemical/SCHEMBL16119003

> <PUBCHEM_CID_ASSOCIATIONS>
117607936  1

> <PUBCHEM_COORDINATE_TYPE>
1
3

> <PUBCHEM_BONDANNOTATIONS>
20  10  5
13  14  6
13  17  5
31  37  6
16  9  6

$$$$
