310931105
  -OEChem-07211613022D

 30 32  0     1  0  0  0  0  0999 V2000
    6.4597   -4.1390    0.0000 F   0  0  0  0  0  0  0  0  0  0  0  0
    0.0239   -2.0815    0.0000 F   0  0  0  0  0  0  0  0  0  0  0  0
    0.0239   -1.2441    0.0000 F   0  0  0  0  0  0  0  0  0  0  0  0
    1.4355   -0.4067    0.0000 F   0  0  0  0  0  0  0  0  0  0  0  0
    0.0000   -0.4067    0.0000 F   0  0  0  0  0  0  0  0  0  0  0  0
    0.7178    0.0000    0.0000 F   0  0  0  0  0  0  0  0  0  0  0  0
    5.0481   -4.1390    0.0000 O   0  0  0  0  0  0  0  0  0  0  0  0
    1.4594   -2.8949    0.0000 O   0  0  0  0  0  0  0  0  0  0  0  0
    4.3064   -2.8949    0.0000 N   0  0  0  0  0  0  0  0  0  0  0  0
    5.0481   -1.6508    0.0000 N   0  0  0  0  0  0  0  0  0  0  0  0
    3.6126   -0.8135    0.0000 N   0  0  0  0  0  0  0  0  0  0  0  0
    5.7659   -2.8949    0.0000 C   0  0  0  0  0  0  0  0  0  0  0  0
    5.0481   -3.3017    0.0000 C   0  0  0  0  0  0  0  0  0  0  0  0
    4.3064   -2.0575    0.0000 C   0  0  0  0  0  0  0  0  0  0  0  0
    5.7659   -2.0575    0.0000 C   0  0  0  0  0  0  0  0  0  0  0  0
    3.6126   -3.3017    0.0000 C   0  0  0  0  0  0  0  0  0  0  0  0
    6.4597   -3.3017    0.0000 C   0  0  0  0  0  0  0  0  0  0  0  0
    0.7417   -1.6508    0.0000 C   0  0  0  0  0  0  0  0  0  0  0  0
    3.6126   -1.6508    0.0000 C   0  0  3  0  0  0  0  0  0  0  0  0
    2.8949   -2.8949    0.0000 C   0  0  0  0  0  0  0  0  0  0  0  0
    6.4597   -1.6508    0.0000 C   0  0  0  0  0  0  0  0  0  0  0  0
    0.7178   -0.8135    0.0000 C   0  0  0  0  0  0  0  0  0  0  0  0
    2.1771   -3.3017    0.0000 C   0  0  0  0  0  0  0  0  0  0  0  0
    3.6126   -4.1390    0.0000 C   0  0  0  0  0  0  0  0  0  0  0  0
    7.1774   -2.8949    0.0000 C   0  0  0  0  0  0  0  0  0  0  0  0
    1.4594   -2.0815    0.0000 C   0  0  0  0  0  0  0  0  0  0  0  0
    7.1774   -2.0575    0.0000 C   0  0  0  0  0  0  0  0  0  0  0  0
    2.1771   -4.1390    0.0000 C   0  0  0  0  0  0  0  0  0  0  0  0
    2.8949   -4.5457    0.0000 C   0  0  0  0  0  0  0  0  0  0  0  0
    2.8949   -2.0575    0.0000 C   0  0  0  0  0  0  0  0  0  0  0  0
  1 17  1  0  0  0  0
  2 18  1  0  0  0  0
  3 18  1  0  0  0  0
  4 22  1  0  0  0  0
  5 22  1  0  0  0  0
  6 22  1  0  0  0  0
  7 13  2  0  0  0  0
  8 23  1  0  0  0  0
  8 26  1  0  0  0  0
  9 13  1  0  0  0  0
  9 14  1  0  0  0  0
  9 16  1  0  0  0  0
 10 14  2  0  0  0  0
 10 15  1  0  0  0  0
 19 11  1  6  0  0  0
 12 13  1  0  0  0  0
 12 15  2  0  0  0  0
 12 17  1  0  0  0  0
 14 19  1  0  0  0  0
 15 21  1  0  0  0  0
 16 20  1  0  0  0  0
 16 24  2  0  0  0  0
 17 25  2  0  0  0  0
 18 22  1  0  0  0  0
 18 26  1  0  0  0  0
 19 30  1  0  0  0  0
 20 23  2  0  0  0  0
 21 27  2  0  0  0  0
 23 28  1  0  0  0  0
 24 29  1  0  0  0  0
 25 27  1  0  0  0  0
 28 29  2  0  0  0  0
M  END
> <PUBCHEM_COMPOUND_ID_TYPE>
0

> <PUBCHEM_TOTAL_CHARGE>
0

> <PUBCHEM_SUBSTANCE_ID>
310931105

> <PUBCHEM_SUBSTANCE_VERSION>
1

> <PUBCHEM_EXT_DATASOURCE_NAME>
4488

> <PUBCHEM_EXT_DATASOURCE_REGID>
SCHEMBL16108409

> <PUBCHEM_SUBSTANCE_COMMENT>
InChI=1S/C19H15F6N3O2/c1-10(26)16-27-14-7-3-6-13(20)15(14)17(29)28(16)11-4-2-5-12(8-11)30-9-18(21,22)19(23,24)25/h2-8,10H,9,26H2,1H3/t10-/m0/s1
InChIKey=BYXJFPNQPCLZMH-JTQLQIEISA-N

> <PUBCHEM_SUBSTANCE_SYNONYM>
SCHEMBL16108409

> <PUBCHEM_XREF_EXT_ID>
SCHEMBL16108409

> <PUBCHEM_EXT_DATASOURCE_URL>
https://www.surechembl.org/

> <PUBCHEM_EXT_SUBSTANCE_URL>
https://www.surechembl.org/chemical/SCHEMBL16108409

> <PUBCHEM_CID_ASSOCIATIONS>
117599999  1

> <PUBCHEM_COORDINATE_TYPE>
1
3

> <PUBCHEM_BONDANNOTATIONS>
19  11  6

$$$$
