310936496
  -OEChem-07211613022D

 31 33  0     1  0  0  0  0  0999 V2000
    6.5402    2.4343    0.0000 O   0  0  0  0  0  0  0  0  0  0  0  0
    3.1924    3.7472    0.0000 O   0  0  0  0  0  0  0  0  0  0  0  0
    1.2089    4.8229    0.0000 O   0  0  0  0  0  0  0  0  0  0  0  0
    2.6378    4.8229    0.0000 O   0  0  0  0  0  0  0  0  0  0  0  0
    1.9233    3.5854    0.0000 N   0  0  0  0  0  0  0  0  0  0  0  0
    3.3523    1.9354    0.0000 C   0  0  3  0  0  0  0  0  0  0  0  0
    2.6378    2.3479    0.0000 C   0  0  3  0  0  0  0  0  0  0  0  0
    1.9233    1.9354    0.0000 C   0  0  3  0  0  0  0  0  0  0  0  0
    4.0668    2.3479    0.0000 C   0  0  3  0  0  0  0  0  0  0  0  0
    1.9233    1.1104    0.0000 C   0  0  3  0  0  0  0  0  0  0  0  0
    4.4541    3.0764    0.0000 C   0  0  3  0  0  0  0  0  0  0  0  0
    3.3523    1.1104    0.0000 C   0  0  0  0  0  0  0  0  0  0  0  0
    2.6378    0.6979    0.0000 C   0  0  0  0  0  0  0  0  0  0  0  0
    1.1387    0.8555    0.0000 C   0  0  0  0  0  0  0  0  0  0  0  0
    1.1387    2.1904    0.0000 C   0  0  0  0  0  0  0  0  0  0  0  0
    2.6378    3.1729    0.0000 C   0  0  0  0  0  0  0  0  0  0  0  0
    4.5039    1.6483    0.0000 C   0  0  0  0  0  0  0  0  0  0  0  0
    0.6538    1.5229    0.0000 C   0  0  0  0  0  0  0  0  0  0  0  0
    5.2786    3.1052    0.0000 C   0  0  0  0  0  0  0  0  0  0  0  0
    3.3253    2.7096    0.0000 C   0  0  0  0  0  0  0  0  0  0  0  0
    1.8371    0.2900    0.0000 C   0  0  0  0  0  0  0  0  0  0  0  0
    5.7158    2.4055    0.0000 C   0  0  3  0  0  0  0  0  0  0  0  0
    4.0169    3.7760    0.0000 C   0  0  0  0  0  0  0  0  0  0  0  0
    5.3284    1.6771    0.0000 C   0  0  0  0  0  0  0  0  0  0  0  0
    0.8838    0.0709    0.0000 C   0  0  0  0  0  0  0  0  0  0  0  0
    1.9233    4.4104    0.0000 C   0  0  0  0  0  0  0  0  0  0  0  0
    4.0668    1.5229    0.0000 H   0  0  0  0  0  0  0  0  0  0  0  0
    3.1681    2.9799    0.0000 H   0  0  0  0  0  0  0  0  0  0  0  0
    1.8371    2.7559    0.0000 H   0  0  0  0  0  0  0  0  0  0  0  0
    4.8414    3.8048    0.0000 H   0  0  0  0  0  0  0  0  0  0  0  0
    6.1529    1.7059    0.0000 H   0  0  0  0  0  0  0  0  0  0  0  0
 22  1  1  1  0  0  0
  2 23  1  0  0  0  0
  3 26  2  0  0  0  0
  4 26  1  0  0  0  0
  5 16  1  0  0  0  0
  5 26  1  0  0  0  0
  6  7  1  0  0  0  0
  6  9  1  0  0  0  0
  6 12  1  0  0  0  0
  6 27  1  6  0  0  0
  7  8  1  0  0  0  0
  7 16  1  0  0  0  0
  7 28  1  1  0  0  0
  8 10  1  0  0  0  0
  8 15  1  0  0  0  0
  8 29  1  6  0  0  0
  9 11  1  0  0  0  0
  9 17  1  0  0  0  0
  9 20  1  1  0  0  0
 10 13  1  0  0  0  0
 10 14  1  0  0  0  0
 10 21  1  1  0  0  0
 11 19  1  0  0  0  0
 11 23  1  0  0  0  0
 11 30  1  6  0  0  0
 12 13  1  0  0  0  0
 14 18  1  0  0  0  0
 14 25  2  0  0  0  0
 15 18  1  0  0  0  0
 17 24  1  0  0  0  0
 19 22  1  0  0  0  0
 22 24  1  0  0  0  0
 22 31  1  6  0  0  0
M  END
> <PUBCHEM_COMPOUND_ID_TYPE>
0

> <PUBCHEM_TOTAL_CHARGE>
0

> <PUBCHEM_SUBSTANCE_ID>
310936496

> <PUBCHEM_SUBSTANCE_VERSION>
1

> <PUBCHEM_EXT_DATASOURCE_NAME>
4488

> <PUBCHEM_EXT_DATASOURCE_REGID>
SCHEMBL16114146

> <PUBCHEM_SUBSTANCE_COMMENT>
InChI=1S/C21H35NO4/c1-13-4-5-17-16(11-22-19(25)26)18(7-9-20(13,17)2)21(3)8-6-15(24)10-14(21)12-23/h14-18,22-24H,1,4-12H2,2-3H3,(H,25,26)/t14-,15+,16+,17+,18+,20-,21+/m1/s1
InChIKey=ORHJEPAPJBJUFD-NRTRYIRGSA-N

> <PUBCHEM_SUBSTANCE_SYNONYM>
SCHEMBL16114146

> <PUBCHEM_XREF_EXT_ID>
SCHEMBL16114146

> <PUBCHEM_EXT_DATASOURCE_URL>
https://www.surechembl.org/

> <PUBCHEM_EXT_SUBSTANCE_URL>
https://www.surechembl.org/chemical/SCHEMBL16114146

> <PUBCHEM_CID_ASSOCIATIONS>
117604423  1

> <PUBCHEM_COORDINATE_TYPE>
1
3

> <PUBCHEM_BONDANNOTATIONS>
22  1  5
10  21  5
11  30  6
22  31  6
6  27  6
7  28  5
8  29  6
9  20  5

$$$$
