310934933
  -OEChem-07211613022D

 23 25  0     0  0  0  0  0  0999 V2000
    1.4322   -1.1678    0.0000 O   0  0  0  0  0  0  0  0  0  0  0  0
    2.2695    0.0000    0.0000 O   0  0  0  0  0  0  0  0  0  0  0  0
    2.8644   -2.1373    0.0000 N   0  0  0  0  0  0  0  0  0  0  0  0
    3.6577   -2.4017    0.0000 N   0  0  0  0  0  0  0  0  0  0  0  0
    2.8644   -1.3000    0.0000 C   0  0  0  0  0  0  0  0  0  0  0  0
    4.1204   -1.7187    0.0000 C   0  0  0  0  0  0  0  0  0  0  0  0
    3.6577   -1.0356    0.0000 C   0  0  0  0  0  0  0  0  0  0  0  0
    4.9576   -1.7187    0.0000 C   0  0  0  0  0  0  0  0  0  0  0  0
    2.1813   -2.6000    0.0000 C   0  0  0  0  0  0  0  0  0  0  0  0
    2.1813   -0.8153    0.0000 C   0  0  0  0  0  0  0  0  0  0  0  0
    5.3763   -2.4238    0.0000 C   0  0  0  0  0  0  0  0  0  0  0  0
    5.3763   -0.9915    0.0000 C   0  0  0  0  0  0  0  0  0  0  0  0
    2.2695   -3.4373    0.0000 C   0  0  0  0  0  0  0  0  0  0  0  0
    1.4322   -2.2695    0.0000 C   0  0  0  0  0  0  0  0  0  0  0  0
    6.1915   -2.4238    0.0000 C   0  0  0  0  0  0  0  0  0  0  0  0
    6.1915   -0.9915    0.0000 C   0  0  0  0  0  0  0  0  0  0  0  0
    1.6085   -3.9221    0.0000 C   0  0  0  0  0  0  0  0  0  0  0  0
    0.7712   -2.7543    0.0000 C   0  0  0  0  0  0  0  0  0  0  0  0
    6.6102   -1.7187    0.0000 C   0  0  0  0  0  0  0  0  0  0  0  0
    4.9576   -3.1509    0.0000 C   0  0  0  0  0  0  0  0  0  0  0  0
    0.8373   -3.5695    0.0000 C   0  0  0  0  0  0  0  0  0  0  0  0
    0.7712   -0.6830    0.0000 C   0  0  0  0  0  0  0  0  0  0  0  0
    0.0000   -1.0136    0.0000 C   0  0  0  0  0  0  0  0  0  0  0  0
  1 10  1  0  0  0  0
  1 22  1  0  0  0  0
  2 10  2  0  0  0  0
  3  4  1  0  0  0  0
  3  5  1  0  0  0  0
  3  9  1  0  0  0  0
  4  6  2  0  0  0  0
  5  7  2  0  0  0  0
  5 10  1  0  0  0  0
  6  7  1  0  0  0  0
  6  8  1  0  0  0  0
  8 11  1  0  0  0  0
  8 12  2  0  0  0  0
  9 13  2  0  0  0  0
  9 14  1  0  0  0  0
 11 15  2  0  0  0  0
 11 20  1  0  0  0  0
 12 16  1  0  0  0  0
 13 17  1  0  0  0  0
 14 18  2  0  0  0  0
 15 19  1  0  0  0  0
 16 19  2  0  0  0  0
 17 21  2  0  0  0  0
 18 21  1  0  0  0  0
 22 23  1  0  0  0  0
M  END
> <PUBCHEM_COMPOUND_ID_TYPE>
0

> <PUBCHEM_TOTAL_CHARGE>
0

> <PUBCHEM_SUBSTANCE_ID>
310934933

> <PUBCHEM_SUBSTANCE_VERSION>
1

> <PUBCHEM_EXT_DATASOURCE_NAME>
4488

> <PUBCHEM_EXT_DATASOURCE_REGID>
SCHEMBL16112447

> <PUBCHEM_SUBSTANCE_COMMENT>
InChI=1S/C19H18N2O2/c1-3-23-19(22)18-13-17(16-12-8-7-9-14(16)2)20-21(18)15-10-5-4-6-11-15/h4-13H,3H2,1-2H3
InChIKey=BQFHEDODIXBWCU-UHFFFAOYSA-N

> <PUBCHEM_SUBSTANCE_SYNONYM>
SCHEMBL16112447

> <PUBCHEM_XREF_EXT_ID>
SCHEMBL16112447

> <PUBCHEM_EXT_DATASOURCE_URL>
https://www.surechembl.org/

> <PUBCHEM_EXT_SUBSTANCE_URL>
https://www.surechembl.org/chemical/SCHEMBL16112447

> <PUBCHEM_CID_ASSOCIATIONS>
117603055  1

> <PUBCHEM_COORDINATE_TYPE>
1
3

$$$$
