310937070
  -OEChem-07211613022D

 23 25  0     0  0  0  0  0  0999 V2000
    0.6702   -0.8505    0.0000 F   0  0  0  0  0  0  0  0  0  0  0  0
    0.1031   -2.1651    0.0000 F   0  0  0  0  0  0  0  0  0  0  0  0
    0.0000   -1.3403    0.0000 F   0  0  0  0  0  0  0  0  0  0  0  0
    1.6238   -2.8095    0.0000 O   0  0  0  0  0  0  0  0  0  0  0  0
    5.7478   -2.0878    0.0000 O   0  0  0  0  0  0  0  0  0  0  0  0
    3.8920   -3.7889    0.0000 N   0  0  0  0  0  0  0  0  0  0  0  0
    4.4848   -1.6754    0.0000 N   0  0  0  0  0  0  0  0  0  0  0  0
    5.2581   -2.7579    0.0000 N   0  0  0  0  0  0  0  0  0  0  0  0
    2.4744   -3.9435    0.0000 C   0  0  0  0  0  0  0  0  0  0  0  0
    2.3971   -3.1445    0.0000 C   0  0  0  0  0  0  0  0  0  0  0  0
    3.8147   -2.9641    0.0000 C   0  0  0  0  0  0  0  0  0  0  0  0
    1.8042   -4.4075    0.0000 C   0  0  0  0  0  0  0  0  0  0  0  0
    4.4848   -2.5002    0.0000 C   0  0  0  0  0  0  0  0  0  0  0  0
    3.0414   -2.6290    0.0000 C   0  0  0  0  0  0  0  0  0  0  0  0
    3.2219   -4.2787    0.0000 C   0  0  0  0  0  0  0  0  0  0  0  0
    5.2581   -1.4176    0.0000 C   0  0  0  0  0  0  0  0  0  0  0  0
    1.4692   -5.1550    0.0000 C   0  0  0  0  0  0  0  0  0  0  0  0
    0.9537   -4.5106    0.0000 C   0  0  0  0  0  0  0  0  0  0  0  0
    5.5158   -0.6186    0.0000 C   0  0  0  0  0  0  0  0  0  0  0  0
    1.5465   -1.9847    0.0000 C   0  0  0  0  0  0  0  0  0  0  0  0
    0.7733   -1.6496    0.0000 C   0  0  0  0  0  0  0  0  0  0  0  0
    4.9746    0.0000    0.0000 C   0  0  0  0  0  0  0  0  0  0  0  0
    6.3149   -0.4381    0.0000 C   0  0  0  0  0  0  0  0  0  0  0  0
  1 21  1  0  0  0  0
  2 21  1  0  0  0  0
  3 21  1  0  0  0  0
  4 10  1  0  0  0  0
  4 20  1  0  0  0  0
  5  8  1  0  0  0  0
  5 16  1  0  0  0  0
  6 11  1  0  0  0  0
  6 15  2  0  0  0  0
  7 13  1  0  0  0  0
  7 16  2  0  0  0  0
  8 13  2  0  0  0  0
  9 10  2  0  0  0  0
  9 12  1  0  0  0  0
  9 15  1  0  0  0  0
 10 14  1  0  0  0  0
 11 13  1  0  0  0  0
 11 14  2  0  0  0  0
 12 17  1  0  0  0  0
 12 18  1  0  0  0  0
 16 19  1  0  0  0  0
 17 18  1  0  0  0  0
 19 22  1  0  0  0  0
 19 23  1  0  0  0  0
 20 21  1  0  0  0  0
M  END
> <PUBCHEM_COMPOUND_ID_TYPE>
0

> <PUBCHEM_TOTAL_CHARGE>
0

> <PUBCHEM_SUBSTANCE_ID>
310937070

> <PUBCHEM_SUBSTANCE_VERSION>
1

> <PUBCHEM_EXT_DATASOURCE_NAME>
4488

> <PUBCHEM_EXT_DATASOURCE_REGID>
SCHEMBL16114782

> <PUBCHEM_SUBSTANCE_COMMENT>
InChI=1S/C15H16F3N3O2/c1-8(2)14-20-13(21-23-14)11-5-12(22-7-15(16,17)18)10(6-19-11)9-3-4-9/h5-6,8-9H,3-4,7H2,1-2H3
InChIKey=BRRAYCPXSNTFOH-UHFFFAOYSA-N

> <PUBCHEM_SUBSTANCE_SYNONYM>
SCHEMBL16114782

> <PUBCHEM_XREF_EXT_ID>
SCHEMBL16114782

> <PUBCHEM_EXT_DATASOURCE_URL>
https://www.surechembl.org/

> <PUBCHEM_EXT_SUBSTANCE_URL>
https://www.surechembl.org/chemical/SCHEMBL16114782

> <PUBCHEM_CID_ASSOCIATIONS>
86275931  1

> <PUBCHEM_COORDINATE_TYPE>
1
3

$$$$
