310939989
  -OEChem-07211613022D

 15 15  0     0  0  0  0  0  0999 V2000
   -3.9021    0.8311    0.0000 Br  0  0  0  0  0  0  0  0  0  0  0  0
   -1.0442    2.4811    0.0000 O   0  0  0  0  0  0  0  0  0  0  0  0
    1.0992    1.2436    0.0000 O   0  0  0  0  0  0  0  0  0  0  0  0
    0.3847    0.0061    0.0000 O   0  0  0  0  0  0  0  0  0  0  0  0
   -1.7587    1.2436    0.0000 N   0  0  0  0  0  0  0  0  0  0  0  0
   -1.7587    2.0686    0.0000 C   0  0  0  0  0  0  0  0  0  0  0  0
   -3.1876    1.2436    0.0000 C   0  0  0  0  0  0  0  0  0  0  0  0
   -3.1876    2.0686    0.0000 C   0  0  0  0  0  0  0  0  0  0  0  0
   -2.4732    0.8311    0.0000 C   0  0  0  0  0  0  0  0  0  0  0  0
   -2.4732    2.4811    0.0000 C   0  0  0  0  0  0  0  0  0  0  0  0
   -1.0442    0.8311    0.0000 C   0  0  0  0  0  0  0  0  0  0  0  0
   -0.3298    1.2436    0.0000 C   0  0  0  0  0  0  0  0  0  0  0  0
    0.3847    0.8311    0.0000 C   0  0  0  0  0  0  0  0  0  0  0  0
   -3.9021    2.4811    0.0000 C   0  0  0  0  0  0  0  0  0  0  0  0
    1.8137    0.8311    0.0000 C   0  0  0  0  0  0  0  0  0  0  0  0
  1  7  1  0  0  0  0
  2  6  2  0  0  0  0
  3 13  1  0  0  0  0
  3 15  1  0  0  0  0
  4 13  2  0  0  0  0
  5  6  1  0  0  0  0
  5  9  1  0  0  0  0
  5 11  1  0  0  0  0
  6 10  1  0  0  0  0
  7  8  1  0  0  0  0
  7  9  2  0  0  0  0
  8 10  2  0  0  0  0
  8 14  1  0  0  0  0
 11 12  1  0  0  0  0
 12 13  1  0  0  0  0
M  END
> <PUBCHEM_COMPOUND_ID_TYPE>
0

> <PUBCHEM_TOTAL_CHARGE>
0

> <PUBCHEM_SUBSTANCE_ID>
310939989

> <PUBCHEM_SUBSTANCE_VERSION>
1

> <PUBCHEM_EXT_DATASOURCE_NAME>
4488

> <PUBCHEM_EXT_DATASOURCE_REGID>
SCHEMBL16117919

> <PUBCHEM_SUBSTANCE_COMMENT>
InChI=1S/C10H12BrNO3/c1-7-5-9(13)12(6-8(7)11)4-3-10(14)15-2/h5-6H,3-4H2,1-2H3
InChIKey=VAIGHGVYJIQRMT-UHFFFAOYSA-N

> <PUBCHEM_SUBSTANCE_SYNONYM>
SCHEMBL16117919

> <PUBCHEM_XREF_EXT_ID>
SCHEMBL16117919

> <PUBCHEM_EXT_DATASOURCE_URL>
https://www.surechembl.org/

> <PUBCHEM_EXT_SUBSTANCE_URL>
https://www.surechembl.org/chemical/SCHEMBL16117919

> <PUBCHEM_CID_ASSOCIATIONS>
117607153  1

> <PUBCHEM_COORDINATE_TYPE>
1
3

$$$$
