310949619
  -OEChem-07211613022D

 23 24  0     0  0  0  0  0  0999 V2000
    0.3090   -2.5297    0.0000 Cl  0  0  0  0  0  0  0  0  0  0  0  0
    0.4635    2.5297    0.0000 O   0  0  0  0  0  0  0  0  0  0  0  0
    0.3283    0.7531    0.0000 N   0  0  0  0  0  0  0  0  0  0  0  0
   -0.3862   -1.2938    0.0000 N   0  0  0  0  0  0  0  0  0  0  0  0
   -1.1007    0.7531    0.0000 N   0  0  0  0  0  0  0  0  0  0  0  0
    1.0428   -1.3131    0.0000 N   0  0  0  0  0  0  0  0  0  0  0  0
   -0.3862    1.9890    0.0000 N   0  0  0  0  0  0  0  0  0  0  0  0
   -1.8152   -0.4635    0.0000 N   0  0  0  0  0  0  0  0  0  0  0  0
    1.7572   -0.0772    0.0000 N   0  0  0  0  0  0  0  0  0  0  0  0
    0.3090   -0.0580    0.0000 C   0  0  0  0  0  0  0  0  0  0  0  0
   -0.3862   -0.4635    0.0000 C   0  0  0  0  0  0  0  0  0  0  0  0
   -1.1007   -0.0386    0.0000 C   0  0  0  0  0  0  0  0  0  0  0  0
    1.0621   -0.4635    0.0000 C   0  0  0  0  0  0  0  0  0  0  0  0
   -0.4055    1.1973    0.0000 C   0  0  0  0  0  0  0  0  0  0  0  0
    0.3283   -1.6800    0.0000 C   0  0  0  0  0  0  0  0  0  0  0  0
   -2.7614    0.1545    0.0000 C   0  0  0  0  0  0  0  0  0  0  0  0
    2.7420   -0.6373    0.0000 C   0  0  0  0  0  0  0  0  0  0  0  0
   -1.2359    2.5297    0.0000 C   0  0  0  0  0  0  0  0  0  0  0  0
   -3.4373   -0.2317    0.0000 C   0  0  0  0  0  0  0  0  0  0  0  0
    3.3986   -0.2510    0.0000 C   0  0  0  0  0  0  0  0  0  0  0  0
    1.2166    1.9890    0.0000 C   0  0  0  0  0  0  0  0  0  0  0  0
   -4.1711    0.1352    0.0000 C   0  0  0  0  0  0  0  0  0  0  0  0
    4.1711   -0.6758    0.0000 C   0  0  0  0  0  0  0  0  0  0  0  0
  1 15  1  0  0  0  0
  2  7  1  0  0  0  0
  2 21  1  0  0  0  0
  3 10  1  0  0  0  0
  3 14  2  0  0  0  0
  4 11  1  0  0  0  0
  4 15  2  0  0  0  0
  5 12  2  0  0  0  0
  5 14  1  0  0  0  0
  6 13  2  0  0  0  0
  6 15  1  0  0  0  0
  7 14  1  0  0  0  0
  7 18  1  0  0  0  0
  8 12  1  0  0  0  0
  8 16  1  0  0  0  0
  9 13  1  0  0  0  0
  9 17  1  0  0  0  0
 10 11  2  0  0  0  0
 10 13  1  0  0  0  0
 11 12  1  0  0  0  0
 16 19  1  0  0  0  0
 17 20  1  0  0  0  0
 19 22  1  0  0  0  0
 20 23  1  0  0  0  0
M  END
> <PUBCHEM_COMPOUND_ID_TYPE>
0

> <PUBCHEM_TOTAL_CHARGE>
0

> <PUBCHEM_SUBSTANCE_ID>
310949619

> <PUBCHEM_SUBSTANCE_VERSION>
1

> <PUBCHEM_EXT_DATASOURCE_NAME>
4488

> <PUBCHEM_EXT_DATASOURCE_REGID>
SCHEMBL16127817

> <PUBCHEM_SUBSTANCE_COMMENT>
InChI=1S/C14H22ClN7O/c1-5-7-16-11-10-9(18-13(15)20-11)12(17-8-6-2)21-14(19-10)22(3)23-4/h5-8H2,1-4H3,(H,16,18,20)(H,17,19,21)
InChIKey=LPRHOVKYPHWYNK-UHFFFAOYSA-N

> <PUBCHEM_SUBSTANCE_SYNONYM>
SCHEMBL16127817

> <PUBCHEM_XREF_EXT_ID>
SCHEMBL16127817

> <PUBCHEM_EXT_DATASOURCE_URL>
https://www.surechembl.org/

> <PUBCHEM_EXT_SUBSTANCE_URL>
https://www.surechembl.org/chemical/SCHEMBL16127817

> <PUBCHEM_CID_ASSOCIATIONS>
86297790  1

> <PUBCHEM_COORDINATE_TYPE>
1
3

$$$$
