310929083
  -OEChem-07211613022D

 44 48  0     0  0  0  0  0  0999 V2000
    0.7071   -5.2446    0.0000 O   0  0  0  0  0  0  0  0  0  0  0  0
    3.5357   -7.7196    0.0000 O   0  0  0  0  0  0  0  0  0  0  0  0
    1.4143   -9.7232    0.0000 O   0  0  0  0  0  0  0  0  0  0  0  0
    4.9500   -7.7196    0.0000 O   0  0  0  0  0  0  0  0  0  0  0  0
    5.6571   -8.8982    0.0000 O   0  0  0  0  0  0  0  0  0  0  0  0
    2.1214   -8.5446    0.0000 N   0  0  0  0  0  0  0  0  0  0  0  0
    0.7071   -8.5446    0.0000 N   0  0  0  0  0  0  0  0  0  0  0  0
    2.8875   -4.0661    0.0000 N   0  0  0  0  0  0  0  0  0  0  0  0
    2.2393   -2.8286    0.0000 N   0  0  0  0  0  0  0  0  0  0  0  0
    2.2982   -1.1786    0.0000 N   0  0  0  0  0  0  0  0  0  0  0  0
    1.3554   -7.3071    0.0000 C   0  0  0  0  0  0  0  0  0  0  0  0
    1.4143   -6.4821    0.0000 C   0  0  0  0  0  0  0  0  0  0  0  0
    2.8286   -8.8982    0.0000 C   0  0  0  0  0  0  0  0  0  0  0  0
    3.5357   -8.5446    0.0000 C   0  0  0  0  0  0  0  0  0  0  0  0
    4.2429   -8.8982    0.0000 C   0  0  0  0  0  0  0  0  0  0  0  0
    3.5357  -10.1357    0.0000 C   0  0  0  0  0  0  0  0  0  0  0  0
    0.7071   -7.7196    0.0000 C   0  0  0  0  0  0  0  0  0  0  0  0
    0.7071   -6.0696    0.0000 C   0  0  0  0  0  0  0  0  0  0  0  0
    2.8286   -9.7232    0.0000 C   0  0  0  0  0  0  0  0  0  0  0  0
    4.2429   -9.7232    0.0000 C   0  0  0  0  0  0  0  0  0  0  0  0
    3.5357  -10.9608    0.0000 C   0  0  0  0  0  0  0  0  0  0  0  0
    1.4143   -8.8982    0.0000 C   0  0  0  0  0  0  0  0  0  0  0  0
    0.0000   -7.3071    0.0000 C   0  0  0  0  0  0  0  0  0  0  0  0
    0.0000   -6.4821    0.0000 C   0  0  0  0  0  0  0  0  0  0  0  0
    4.9500   -8.5446    0.0000 C   0  0  0  0  0  0  0  0  0  0  0  0
    2.1214   -7.7196    0.0000 C   0  0  0  0  0  0  0  0  0  0  0  0
    2.1214   -6.0696    0.0000 C   0  0  0  0  0  0  0  0  0  0  0  0
    1.4143   -4.8321    0.0000 C   0  0  0  0  0  0  0  0  0  0  0  0
    3.0054   -7.4839    0.0000 C   0  0  0  0  0  0  0  0  0  0  0  0
    2.8286   -6.4821    0.0000 C   0  0  0  0  0  0  0  0  0  0  0  0
    2.7107  -10.9608    0.0000 C   0  0  0  0  0  0  0  0  0  0  0  0
    3.5357  -11.7858    0.0000 C   0  0  0  0  0  0  0  0  0  0  0  0
    4.3607  -10.9608    0.0000 C   0  0  0  0  0  0  0  0  0  0  0  0
    1.4143   -4.0071    0.0000 C   0  0  0  0  0  0  0  0  0  0  0  0
    2.1214   -5.2446    0.0000 C   0  0  0  0  0  0  0  0  0  0  0  0
    2.1804   -3.6536    0.0000 C   0  0  0  0  0  0  0  0  0  0  0  0
    2.8286   -7.3071    0.0000 C   0  0  0  0  0  0  0  0  0  0  0  0
    2.8875   -4.8911    0.0000 C   0  0  0  0  0  0  0  0  0  0  0  0
    2.9464   -2.4161    0.0000 C   0  0  0  0  0  0  0  0  0  0  0  0
    2.9464   -1.5911    0.0000 C   0  0  0  0  0  0  0  0  0  0  0  0
    3.7125   -1.2375    0.0000 C   0  0  0  0  0  0  0  0  0  0  0  0
    2.2982   -0.3536    0.0000 C   0  0  0  0  0  0  0  0  0  0  0  0
    3.7125   -0.4125    0.0000 C   0  0  0  0  0  0  0  0  0  0  0  0
    3.0054    0.0000    0.0000 C   0  0  0  0  0  0  0  0  0  0  0  0
  1 18  1  0  0  0  0
  1 28  1  0  0  0  0
  2 14  1  0  0  0  0
  2 37  1  0  0  0  0
  3 22  2  0  0  0  0
  4 25  2  0  0  0  0
  5 25  1  0  0  0  0
  6 13  1  0  0  0  0
  6 22  1  0  0  0  0
  7 17  1  0  0  0  0
  7 22  1  0  0  0  0
  8 36  1  0  0  0  0
  8 38  2  0  0  0  0
  9 36  1  0  0  0  0
  9 39  1  0  0  0  0
 10 40  1  0  0  0  0
 10 42  2  0  0  0  0
 11 12  2  0  0  0  0
 11 17  1  0  0  0  0
 11 26  1  0  0  0  0
 12 18  1  0  0  0  0
 12 27  1  0  0  0  0
 13 14  1  0  0  0  0
 13 19  2  0  0  0  0
 14 15  2  0  0  0  0
 15 20  1  0  0  0  0
 15 25  1  0  0  0  0
 16 19  1  0  0  0  0
 16 20  2  0  0  0  0
 16 21  1  0  0  0  0
 17 23  2  0  0  0  0
 18 24  2  0  0  0  0
 21 31  1  0  0  0  0
 21 32  1  0  0  0  0
 21 33  1  0  0  0  0
 23 24  1  0  0  0  0
 26 29  2  0  0  0  0
 27 30  2  0  0  0  0
 28 34  1  0  0  0  0
 28 35  2  0  0  0  0
 29 30  1  0  0  0  0
 34 36  2  0  0  0  0
 35 38  1  0  0  0  0
 39 40  1  0  0  0  0
 40 41  2  0  0  0  0
 41 43  1  0  0  0  0
 42 44  1  0  0  0  0
 43 44  2  0  0  0  0
M  END
> <PUBCHEM_COMPOUND_ID_TYPE>
0

> <PUBCHEM_TOTAL_CHARGE>
0

> <PUBCHEM_SUBSTANCE_ID>
310929083

> <PUBCHEM_SUBSTANCE_VERSION>
1

> <PUBCHEM_EXT_DATASOURCE_NAME>
4488

> <PUBCHEM_EXT_DATASOURCE_REGID>
SCHEMBL16106245

> <PUBCHEM_SUBSTANCE_COMMENT>
InChI=1S/C34H33N5O5/c1-34(2,3)21-17-26(32(40)41)31(43-4)28(18-21)39-33(42)38-27-12-13-29(25-11-6-5-10-24(25)27)44-23-14-16-36-30(19-23)37-20-22-9-7-8-15-35-22/h5-19H,20H2,1-4H3,(H,36,37)(H,40,41)(H2,38,39,42)
InChIKey=VLFKKESHZUMXNX-UHFFFAOYSA-N

> <PUBCHEM_SUBSTANCE_SYNONYM>
SCHEMBL16106245

> <PUBCHEM_XREF_EXT_ID>
SCHEMBL16106245

> <PUBCHEM_EXT_DATASOURCE_URL>
https://www.surechembl.org/

> <PUBCHEM_EXT_SUBSTANCE_URL>
https://www.surechembl.org/chemical/SCHEMBL16106245

> <PUBCHEM_CID_ASSOCIATIONS>
117598579  1

> <PUBCHEM_COORDINATE_TYPE>
1
3

$$$$
