310948281
  -OEChem-07211613022D

 35 40  0     1  0  0  0  0  0999 V2000
   -0.3871   -2.5021    0.0000 S   0  0  0  0  0  0  0  0  0  0  0  0
   -1.1612   -2.7647    0.0000 O   0  0  0  0  0  0  0  0  0  0  0  0
   -0.2626   -3.3176    0.0000 O   0  0  0  0  0  0  0  0  0  0  0  0
    1.6588   -3.4421    0.0000 O   0  0  0  0  0  0  0  0  0  0  0  0
   -2.5851    2.0182    0.0000 O   0  0  0  0  0  0  0  0  0  0  0  0
    0.1797    1.8662    0.0000 N   0  0  0  0  0  0  0  0  0  0  0  0
   -1.5483    0.5944    0.0000 N   0  0  0  0  0  0  0  0  0  0  0  0
   -0.1659    1.1197    0.0000 N   0  0  0  0  0  0  0  0  0  0  0  0
   -1.8524    3.2624    0.0000 N   0  0  0  0  0  0  0  0  0  0  0  0
    0.9815   -0.1521    0.0000 N   0  0  0  0  0  0  0  0  0  0  0  0
    0.4286   -2.3223    0.0000 C   0  0  0  0  0  0  0  0  0  0  0  0
   -0.8018   -1.7694    0.0000 C   0  0  0  0  0  0  0  0  0  0  0  0
   -0.2488   -1.1612    0.0000 C   0  0  0  0  0  0  0  0  0  0  0  0
    0.5253   -1.4930    0.0000 C   0  0  0  0  0  0  0  0  0  0  0  0
    1.2164   -2.0874    0.0000 C   0  0  0  0  0  0  0  0  0  0  0  0
    0.2488   -3.1241    0.0000 C   0  0  0  0  0  0  0  0  0  0  0  0
   -1.1474    2.0321    0.0000 C   0  0  0  0  0  0  0  0  0  0  0  0
   -0.4977   -0.3732    0.0000 C   0  0  0  0  0  0  0  0  0  0  0  0
   -1.5897   -1.5897    0.0000 C   0  0  0  0  0  0  0  0  0  0  0  0
   -0.9953    1.2303    0.0000 C   0  0  0  0  0  0  0  0  0  0  0  0
   -0.4562    2.4330    0.0000 C   0  0  0  0  0  0  0  0  0  0  0  0
   -1.2994   -0.1797    0.0000 C   0  0  0  0  0  0  0  0  0  0  0  0
   -1.8386   -0.8294    0.0000 C   0  0  0  0  0  0  0  0  0  0  0  0
    0.9815    2.0321    0.0000 C   0  0  3  0  0  0  0  0  0  0  0  0
   -1.8662    2.4468    0.0000 C   0  0  0  0  0  0  0  0  0  0  0  0
    1.8247   -2.6265    0.0000 C   0  0  0  0  0  0  0  0  0  0  0  0
    0.8985   -3.6771    0.0000 C   0  0  0  0  0  0  0  0  0  0  0  0
   -0.4286    3.2486    0.0000 C   0  0  0  0  0  0  0  0  0  0  0  0
    1.5068    1.4377    0.0000 C   0  0  3  0  0  0  0  0  0  0  0  0
   -1.1336    3.6771    0.0000 C   0  0  0  0  0  0  0  0  0  0  0  0
    1.2441    2.8200    0.0000 C   0  0  0  0  0  0  0  0  0  0  0  0
    2.3223    1.5897    0.0000 C   0  0  0  0  0  0  0  0  0  0  0  0
    1.2441    0.6497    0.0000 C   0  0  0  0  0  0  0  0  0  0  0  0
    2.0597    2.9720    0.0000 C   0  0  0  0  0  0  0  0  0  0  0  0
    2.5851    2.3777    0.0000 C   0  0  0  0  0  0  0  0  0  0  0  0
  1  2  2  0  0  0  0
  1  3  2  0  0  0  0
  1 11  1  0  0  0  0
  1 12  1  0  0  0  0
  4 26  1  0  0  0  0
  4 27  1  0  0  0  0
  5 25  2  0  0  0  0
  6  8  1  0  0  0  0
  6 21  1  0  0  0  0
 24  6  1  1  0  0  0
  7 20  1  0  0  0  0
  7 22  1  0  0  0  0
  8 20  2  0  0  0  0
  9 25  1  0  0  0  0
  9 30  1  0  0  0  0
 10 33  3  0  0  0  0
 11 14  1  0  0  0  0
 11 15  1  0  0  0  0
 11 16  1  0  0  0  0
 12 13  1  0  0  0  0
 12 19  2  0  0  0  0
 13 14  1  0  0  0  0
 13 18  2  0  0  0  0
 15 26  1  0  0  0  0
 16 27  1  0  0  0  0
 17 20  1  0  0  0  0
 17 21  2  0  0  0  0
 17 25  1  0  0  0  0
 18 22  1  0  0  0  0
 19 23  1  0  0  0  0
 21 28  1  0  0  0  0
 22 23  2  0  0  0  0
 24 29  1  0  0  0  0
 24 31  1  0  0  0  0
 28 30  2  0  0  0  0
 29 32  1  0  0  0  0
 29 33  1  6  0  0  0
 31 34  1  0  0  0  0
 32 35  1  0  0  0  0
 34 35  1  0  0  0  0
M  END
> <PUBCHEM_COMPOUND_ID_TYPE>
0

> <PUBCHEM_TOTAL_CHARGE>
0

> <PUBCHEM_SUBSTANCE_ID>
310948281

> <PUBCHEM_SUBSTANCE_VERSION>
1

> <PUBCHEM_EXT_DATASOURCE_NAME>
4488

> <PUBCHEM_EXT_DATASOURCE_REGID>
SCHEMBL16126458

> <PUBCHEM_SUBSTANCE_COMMENT>
InChI=1S/C25H27N5O4S/c26-15-16-3-1-2-4-19(16)30-20-7-10-27-24(31)22(20)23(29-30)28-18-5-6-21-17(13-18)14-25(35(21,32)33)8-11-34-12-9-25/h5-7,10,13,16,19H,1-4,8-9,11-12,14H2,(H,27,31)(H,28,29)/t16-,19+/m1/s1
InChIKey=BHWOOOHBXLNHBX-APWZRJJASA-N

> <PUBCHEM_SUBSTANCE_SYNONYM>
SCHEMBL16126458

> <PUBCHEM_XREF_EXT_ID>
SCHEMBL16126458

> <PUBCHEM_EXT_DATASOURCE_URL>
https://www.surechembl.org/

> <PUBCHEM_EXT_SUBSTANCE_URL>
https://www.surechembl.org/chemical/SCHEMBL16126458

> <PUBCHEM_CID_ASSOCIATIONS>
117613860  1

> <PUBCHEM_COORDINATE_TYPE>
1
3

> <PUBCHEM_BONDANNOTATIONS>
29  33  6
24  6  5

$$$$
