310932060
  -OEChem-07211613022D

 13 13  0     0  0  0  0  0  0999 V2000
    0.7954   -2.7377    0.0000 N   0  3  0  0  0  0  0  0  0  0  0  0
    0.7954   -1.3874    0.0000 N   0  0  0  0  0  0  0  0  0  0  0  0
    1.2764   -2.0718    0.0000 C   0  0  0  0  0  0  0  0  0  0  0  0
    0.0000   -2.4788    0.0000 C   0  0  0  0  0  0  0  0  0  0  0  0
    0.0000   -1.6649    0.0000 C   0  0  0  0  0  0  0  0  0  0  0  0
    2.0903   -2.0718    0.0000 C   0  0  0  0  0  0  0  0  0  0  0  0
    1.0544   -3.5332    0.0000 C   0  0  0  0  0  0  0  0  0  0  0  0
    1.0544   -0.6105    0.0000 C   0  0  0  0  0  0  0  0  0  0  0  0
    2.5158   -1.3504    0.0000 C   0  0  0  0  0  0  0  0  0  0  0  0
    1.8498   -3.6997    0.0000 C   0  0  0  0  0  0  0  0  0  0  0  0
    0.4995    0.0000    0.0000 C   0  0  0  0  0  0  0  0  0  0  0  0
    2.0903   -0.6289    0.0000 C   0  0  0  0  0  0  0  0  0  0  0  0
    2.4048   -3.0892    0.0000 C   0  0  0  0  0  0  0  0  0  0  0  0
  1  3  2  0  0  0  0
  1  4  1  0  0  0  0
  1  7  1  0  0  0  0
  2  3  1  0  0  0  0
  2  5  1  0  0  0  0
  2  8  1  0  0  0  0
  3  6  1  0  0  0  0
  4  5  2  0  0  0  0
  6  9  1  0  0  0  0
  7 10  1  0  0  0  0
  8 11  2  0  0  0  0
  9 12  2  0  0  0  0
 10 13  2  0  0  0  0
M  CHG  1   1   1
M  END
> <PUBCHEM_COMPOUND_ID_TYPE>
0

> <PUBCHEM_TOTAL_CHARGE>
1

> <PUBCHEM_SUBSTANCE_ID>
310932060

> <PUBCHEM_SUBSTANCE_VERSION>
1

> <PUBCHEM_EXT_DATASOURCE_NAME>
4488

> <PUBCHEM_EXT_DATASOURCE_REGID>
SCHEMBL16109406

> <PUBCHEM_SUBSTANCE_COMMENT>
InChI=1S/C11H15N2/c1-4-7-11-12(6-3)9-10-13(11)8-5-2/h4-6,9-10H,1-3,7-8H2/q+1
InChIKey=LYKJTKUBEAEWFE-UHFFFAOYSA-N

> <PUBCHEM_SUBSTANCE_SYNONYM>
SCHEMBL16109406

> <PUBCHEM_XREF_EXT_ID>
SCHEMBL16109406

> <PUBCHEM_EXT_DATASOURCE_URL>
https://www.surechembl.org/

> <PUBCHEM_EXT_SUBSTANCE_URL>
https://www.surechembl.org/chemical/SCHEMBL16109406

> <PUBCHEM_CID_ASSOCIATIONS>
117600456  1

> <PUBCHEM_COORDINATE_TYPE>
1
3

$$$$
