310947809
  -OEChem-07211613022D

 27 28  0     1  0  0  0  0  0999 V2000
    3.6260   -2.0439    0.0000 S   0  0  0  0  0  0  0  0  0  0  0  0
   -2.9611    2.7087    0.0000 S   0  0  0  0  0  0  0  0  0  0  0  0
    2.8011   -2.0439    0.0000 O   0  0  0  0  0  0  0  0  0  0  0  0
   -1.3359    0.5910    0.0000 O   0  0  0  0  0  0  0  0  0  0  0  0
    0.2155   -2.0439    0.0000 O   0  0  0  0  0  0  0  0  0  0  0  0
    0.0800    1.4036    0.0000 O   0  0  0  0  0  0  0  0  0  0  0  0
    3.6137   -1.2189    0.0000 O   0  0  0  0  0  0  0  0  0  0  0  0
    3.6137   -2.8688    0.0000 O   0  0  0  0  0  0  0  0  0  0  0  0
    4.4386   -2.0439    0.0000 O   0  0  0  0  0  0  0  0  0  0  0  0
    0.8188   -0.6403    0.0000 N   0  0  0  0  0  0  0  0  0  0  0  0
    2.2347   -1.4652    0.0000 N   0  0  0  0  0  0  0  0  0  0  0  0
   -0.6095    0.1847    0.0000 N   0  0  0  0  0  0  0  0  0  0  0  0
   -3.7245    1.6375    0.0000 N   0  0  0  0  0  0  0  0  0  0  0  0
   -3.3182    0.0123    0.0000 N   0  0  0  0  0  0  0  0  0  0  0  0
   -4.4386    2.8688    0.0000 N   0  0  0  0  0  0  0  0  0  0  0  0
    0.8188    0.1723    0.0000 C   0  0  3  0  0  0  0  0  0  0  0  0
    0.8188   -1.4406    0.0000 C   0  0  0  0  0  0  0  0  0  0  0  0
    0.0554    0.5787    0.0000 C   0  0  0  0  0  0  0  0  0  0  0  0
    1.5329   -1.0466    0.0000 C   0  0  0  0  0  0  0  0  0  0  0  0
    1.5206    0.5910    0.0000 C   0  0  0  0  0  0  0  0  0  0  0  0
   -2.9611    1.3913    0.0000 C   0  0  0  0  0  0  0  0  0  0  0  0
   -2.7518    0.5910    0.0000 C   0  0  3  0  0  0  0  0  0  0  0  0
    2.2224   -0.6526    0.0000 C   0  0  0  0  0  0  0  0  0  0  0  0
    2.2347    0.1723    0.0000 C   0  0  0  0  0  0  0  0  0  0  0  0
   -3.7368    2.4625    0.0000 C   0  0  0  0  0  0  0  0  0  0  0  0
   -2.4686    2.0439    0.0000 C   0  0  0  0  0  0  0  0  0  0  0  0
   -2.0253    0.1847    0.0000 C   0  0  0  0  0  0  0  0  0  0  0  0
  1  3  1  0  0  0  0
  1  7  2  0  0  0  0
  1  8  2  0  0  0  0
  1  9  1  0  0  0  0
  2 25  1  0  0  0  0
  2 26  1  0  0  0  0
  3 11  1  0  0  0  0
  4 12  1  0  0  0  0
  4 27  1  0  0  0  0
  5 17  2  0  0  0  0
  6 18  2  0  0  0  0
 10 16  1  0  0  0  0
 10 17  1  0  0  0  0
 10 19  1  0  0  0  0
 11 17  1  0  0  0  0
 12 18  1  0  0  0  0
 13 21  1  0  0  0  0
 13 25  2  0  0  0  0
 14 22  1  0  0  0  0
 15 25  1  0  0  0  0
 16 18  1  6  0  0  0
 16 20  1  0  0  0  0
 19 23  1  0  0  0  0
 20 24  1  0  0  0  0
 21 22  1  0  0  0  0
 21 26  2  0  0  0  0
 22 27  1  0  0  0  0
 23 24  1  0  0  0  0
M  END
> <PUBCHEM_COMPOUND_ID_TYPE>
0

> <PUBCHEM_TOTAL_CHARGE>
0

> <PUBCHEM_SUBSTANCE_ID>
310947809

> <PUBCHEM_SUBSTANCE_VERSION>
1

> <PUBCHEM_EXT_DATASOURCE_NAME>
4488

> <PUBCHEM_EXT_DATASOURCE_REGID>
SCHEMBL16125981

> <PUBCHEM_SUBSTANCE_COMMENT>
InChI=1S/C12H20N6O7S2/c13-7(8-6-26-11(14)15-8)5-24-16-10(19)9-3-1-2-4-18(9)12(20)17-25-27(21,22)23/h6-7,9H,1-5,13H2,(H2,14,15)(H,16,19)(H,17,20)(H,21,22,23)/t7?,9-/m0/s1
InChIKey=CADMBAWGVCOYJK-NETXQHHPSA-N

> <PUBCHEM_SUBSTANCE_SYNONYM>
SCHEMBL16125981

> <PUBCHEM_XREF_EXT_ID>
SCHEMBL16125981

> <PUBCHEM_EXT_DATASOURCE_URL>
https://www.surechembl.org/

> <PUBCHEM_EXT_SUBSTANCE_URL>
https://www.surechembl.org/chemical/SCHEMBL16125981

> <PUBCHEM_CID_ASSOCIATIONS>
117613477  1

> <PUBCHEM_COORDINATE_TYPE>
1
3

> <PUBCHEM_BONDANNOTATIONS>
16  18  6

$$$$
