310948403
  -OEChem-07211613022D

 35 39  0     1  0  0  0  0  0999 V2000
   -2.6991   -0.6909    0.0000 S   0  0  0  0  0  0  0  0  0  0  0  0
   -3.7676   -3.3807    0.0000 F   0  0  0  0  0  0  0  0  0  0  0  0
   -2.3490   -3.1228    0.0000 F   0  0  0  0  0  0  0  0  0  0  0  0
   -2.9754   -3.6571    0.0000 F   0  0  0  0  0  0  0  0  0  0  0  0
   -3.0675    0.0460    0.0000 O   0  0  0  0  0  0  0  0  0  0  0  0
   -3.5097   -0.6540    0.0000 O   0  0  0  0  0  0  0  0  0  0  0  0
   -0.9673    1.0041    0.0000 O   0  0  0  0  0  0  0  0  0  0  0  0
   -2.6438   -1.5015    0.0000 N   0  0  3  0  0  0  0  0  0  0  0  0
    1.6489    1.9068    0.0000 N   0  0  0  0  0  0  0  0  0  0  0  0
    1.6305    1.0778    0.0000 N   0  0  0  0  0  0  0  0  0  0  0  0
    0.5435    0.0829    0.0000 N   0  0  0  0  0  0  0  0  0  0  0  0
   -0.7830    2.4227    0.0000 N   0  0  0  0  0  0  0  0  0  0  0  0
    3.1965    0.3777    0.0000 N   0  0  0  0  0  0  0  0  0  0  0  0
   -1.9253   -0.3593    0.0000 C   0  0  0  0  0  0  0  0  0  0  0  0
   -1.3910   -1.0041    0.0000 C   0  0  0  0  0  0  0  0  0  0  0  0
    0.3593    1.5383    0.0000 C   0  0  0  0  0  0  0  0  0  0  0  0
    0.8567    2.2200    0.0000 C   0  0  0  0  0  0  0  0  0  0  0  0
    0.8199    0.8751    0.0000 C   0  0  0  0  0  0  0  0  0  0  0  0
   -1.8147   -1.6858    0.0000 C   0  0  0  0  0  0  0  0  0  0  0  0
   -0.2855   -0.0829    0.0000 C   0  0  0  0  0  0  0  0  0  0  0  0
   -0.5620   -0.8383    0.0000 C   0  0  0  0  0  0  0  0  0  0  0  0
   -1.6305    0.4145    0.0000 C   0  0  0  0  0  0  0  0  0  0  0  0
    2.3306    2.3858    0.0000 C   0  0  3  0  0  0  0  0  0  0  0  0
   -0.4514    1.6673    0.0000 C   0  0  0  0  0  0  0  0  0  0  0  0
   -3.2702   -2.0543    0.0000 C   0  0  0  0  0  0  0  0  0  0  0  0
   -0.7830    0.5435    0.0000 C   0  0  0  0  0  0  0  0  0  0  0  0
    0.5620    2.9570    0.0000 C   0  0  0  0  0  0  0  0  0  0  0  0
    3.1044    2.0358    0.0000 C   0  0  3  0  0  0  0  0  0  0  0  0
   -3.1044   -2.8649    0.0000 C   0  0  0  0  0  0  0  0  0  0  0  0
   -0.2671    3.0675    0.0000 C   0  0  0  0  0  0  0  0  0  0  0  0
    2.2938    3.1965    0.0000 C   0  0  0  0  0  0  0  0  0  0  0  0
    3.7676    2.4780    0.0000 C   0  0  0  0  0  0  0  0  0  0  0  0
    3.1228    1.2252    0.0000 C   0  0  0  0  0  0  0  0  0  0  0  0
    2.9570    3.6571    0.0000 C   0  0  0  0  0  0  0  0  0  0  0  0
    3.6939    3.3071    0.0000 C   0  0  0  0  0  0  0  0  0  0  0  0
  1  5  2  0  0  0  0
  1  6  2  0  0  0  0
  1  8  1  0  0  0  0
  1 14  1  0  0  0  0
  2 29  1  0  0  0  0
  3 29  1  0  0  0  0
  4 29  1  0  0  0  0
  7 24  2  0  0  0  0
  8 19  1  0  0  0  0
  8 25  1  0  0  0  0
  9 10  1  0  0  0  0
  9 17  1  0  0  0  0
 23  9  1  1  0  0  0
 10 18  2  0  0  0  0
 11 18  1  0  0  0  0
 11 20  1  0  0  0  0
 12 24  1  0  0  0  0
 12 30  1  0  0  0  0
 13 33  3  0  0  0  0
 14 15  2  0  0  0  0
 14 22  1  0  0  0  0
 15 19  1  0  0  0  0
 15 21  1  0  0  0  0
 16 17  2  0  0  0  0
 16 18  1  0  0  0  0
 16 24  1  0  0  0  0
 17 27  1  0  0  0  0
 20 21  2  0  0  0  0
 20 26  1  0  0  0  0
 22 26  2  0  0  0  0
 23 28  1  0  0  0  0
 23 31  1  0  0  0  0
 25 29  1  0  0  0  0
 27 30  2  0  0  0  0
 28 32  1  0  0  0  0
 28 33  1  6  0  0  0
 31 34  1  0  0  0  0
 32 35  1  0  0  0  0
 34 35  1  0  0  0  0
M  END
> <PUBCHEM_COMPOUND_ID_TYPE>
0

> <PUBCHEM_TOTAL_CHARGE>
0

> <PUBCHEM_SUBSTANCE_ID>
310948403

> <PUBCHEM_SUBSTANCE_VERSION>
1

> <PUBCHEM_EXT_DATASOURCE_NAME>
4488

> <PUBCHEM_EXT_DATASOURCE_REGID>
SCHEMBL16126584

> <PUBCHEM_SUBSTANCE_COMMENT>
InChI=1S/C22H21F3N6O3S/c23-22(24,25)12-30-11-14-9-15(5-6-18(14)35(30,33)34)28-20-19-17(7-8-27-21(19)32)31(29-20)16-4-2-1-3-13(16)10-26/h5-9,13,16H,1-4,11-12H2,(H,27,32)(H,28,29)/t13-,16+/m1/s1
InChIKey=UOYNJVAWVADIDF-CJNGLKHVSA-N

> <PUBCHEM_SUBSTANCE_SYNONYM>
SCHEMBL16126584

> <PUBCHEM_XREF_EXT_ID>
SCHEMBL16126584

> <PUBCHEM_EXT_DATASOURCE_URL>
https://www.surechembl.org/

> <PUBCHEM_EXT_SUBSTANCE_URL>
https://www.surechembl.org/chemical/SCHEMBL16126584

> <PUBCHEM_CID_ASSOCIATIONS>
117613964  1

> <PUBCHEM_COORDINATE_TYPE>
1
3

> <PUBCHEM_BONDANNOTATIONS>
28  33  6
23  9  5

$$$$
