310932692
  -OEChem-07211613022D

 21 22  0     0  0  0  0  0  0999 V2000
    3.9143   -0.7074    0.0000 O   0  0  0  0  0  0  0  0  0  0  0  0
    3.2540   -3.0419    0.0000 O   0  0  0  0  0  0  0  0  0  0  0  0
    3.9143   -2.1458    0.0000 O   0  0  0  0  0  0  0  0  0  0  0  0
    1.0847   -3.3248    0.0000 O   0  0  0  0  0  0  0  0  0  0  0  0
    2.1694   -4.2680    0.0000 O   0  0  0  0  0  0  0  0  0  0  0  0
    2.1929   -0.7782    0.0000 N   0  0  0  0  0  0  0  0  0  0  0  0
    2.1929   -2.0751    0.0000 C   0  0  0  0  0  0  0  0  0  0  0  0
    1.4148   -1.8628    0.0000 C   0  0  0  0  0  0  0  0  0  0  0  0
    2.6881   -1.4148    0.0000 C   0  0  0  0  0  0  0  0  0  0  0  0
    1.4148   -0.9904    0.0000 C   0  0  0  0  0  0  0  0  0  0  0  0
    2.4523   -2.8768    0.0000 C   0  0  0  0  0  0  0  0  0  0  0  0
    3.5134   -1.4148    0.0000 C   0  0  0  0  0  0  0  0  0  0  0  0
    0.6839   -2.2402    0.0000 C   0  0  0  0  0  0  0  0  0  0  0  0
    1.9100   -3.4899    0.0000 C   0  0  0  0  0  0  0  0  0  0  0  0
    0.6839   -0.6131    0.0000 C   0  0  0  0  0  0  0  0  0  0  0  0
    0.0000   -1.8628    0.0000 C   0  0  0  0  0  0  0  0  0  0  0  0
    0.0000   -0.9904    0.0000 C   0  0  0  0  0  0  0  0  0  0  0  0
    4.7396   -0.7074    0.0000 C   0  0  0  0  0  0  0  0  0  0  0  0
    0.5423   -3.9143    0.0000 C   0  0  0  0  0  0  0  0  0  0  0  0
    5.1641    0.0000    0.0000 C   0  0  0  0  0  0  0  0  0  0  0  0
    0.8017   -4.7161    0.0000 C   0  0  0  0  0  0  0  0  0  0  0  0
  1 12  1  0  0  0  0
  1 18  1  0  0  0  0
  2 11  2  0  0  0  0
  3 12  2  0  0  0  0
  4 14  1  0  0  0  0
  4 19  1  0  0  0  0
  5 14  2  0  0  0  0
  6  9  1  0  0  0  0
  6 10  1  0  0  0  0
  7  8  1  0  0  0  0
  7  9  2  0  0  0  0
  7 11  1  0  0  0  0
  8 10  2  0  0  0  0
  8 13  1  0  0  0  0
  9 12  1  0  0  0  0
 10 15  1  0  0  0  0
 11 14  1  0  0  0  0
 13 16  2  0  0  0  0
 15 17  2  0  0  0  0
 16 17  1  0  0  0  0
 18 20  1  0  0  0  0
 19 21  1  0  0  0  0
M  END
> <PUBCHEM_COMPOUND_ID_TYPE>
0

> <PUBCHEM_TOTAL_CHARGE>
0

> <PUBCHEM_SUBSTANCE_ID>
310932692

> <PUBCHEM_SUBSTANCE_VERSION>
1

> <PUBCHEM_EXT_DATASOURCE_NAME>
4488

> <PUBCHEM_EXT_DATASOURCE_REGID>
SCHEMBL16110074

> <PUBCHEM_SUBSTANCE_COMMENT>
InChI=1S/C15H15NO5/c1-3-20-14(18)12-11(13(17)15(19)21-4-2)9-7-5-6-8-10(9)16-12/h5-8,16H,3-4H2,1-2H3
InChIKey=ZSSKJLVXMZQPNK-UHFFFAOYSA-N

> <PUBCHEM_SUBSTANCE_SYNONYM>
SCHEMBL16110074

> <PUBCHEM_XREF_EXT_ID>
SCHEMBL16110074

> <PUBCHEM_EXT_DATASOURCE_URL>
https://www.surechembl.org/

> <PUBCHEM_EXT_SUBSTANCE_URL>
https://www.surechembl.org/chemical/SCHEMBL16110074

> <PUBCHEM_CID_ASSOCIATIONS>
11000745  1

> <PUBCHEM_COORDINATE_TYPE>
1
3

$$$$
