310945236
  -OEChem-07211613022D

 16 16  0     0  0  0  0  0  0999 V2000
   -0.2062   -1.8004    0.0000 O   0  0  0  0  0  0  0  0  0  0  0  0
    2.2539    1.0720    0.0000 O   0  0  0  0  0  0  0  0  0  0  0  0
   -2.2539    0.3573    0.0000 O   0  0  0  0  0  0  0  0  0  0  0  0
   -1.0308   -0.3573    0.0000 N   0  0  0  0  0  0  0  0  0  0  0  0
    1.0170    1.8004    0.0000 N   0  0  0  0  0  0  0  0  0  0  0  0
   -0.2062   -0.3711    0.0000 C   0  0  0  0  0  0  0  0  0  0  0  0
    0.2062   -1.0720    0.0000 C   0  0  0  0  0  0  0  0  0  0  0  0
    1.0170    0.3573    0.0000 C   0  0  0  0  0  0  0  0  0  0  0  0
    0.2062    0.3573    0.0000 C   0  0  0  0  0  0  0  0  0  0  0  0
    1.0170   -1.0720    0.0000 C   0  0  0  0  0  0  0  0  0  0  0  0
    1.4293   -0.3573    0.0000 C   0  0  0  0  0  0  0  0  0  0  0  0
    1.4018    1.0995    0.0000 C   0  0  0  0  0  0  0  0  0  0  0  0
   -1.4293    0.3573    0.0000 C   0  0  0  0  0  0  0  0  0  0  0  0
   -1.0308    1.0720    0.0000 C   0  0  0  0  0  0  0  0  0  0  0  0
   -1.0445   -1.8004    0.0000 C   0  0  0  0  0  0  0  0  0  0  0  0
   -1.5118    1.7592    0.0000 C   0  0  0  0  0  0  0  0  0  0  0  0
  1  7  1  0  0  0  0
  1 15  1  0  0  0  0
  2 12  2  0  0  0  0
  3 13  2  0  0  0  0
  4  6  1  0  0  0  0
  4 13  1  0  0  0  0
  5 12  1  0  0  0  0
  6  7  2  0  0  0  0
  6  9  1  0  0  0  0
  7 10  1  0  0  0  0
  8  9  2  0  0  0  0
  8 11  1  0  0  0  0
  8 12  1  0  0  0  0
 10 11  2  0  0  0  0
 13 14  1  0  0  0  0
 14 16  2  0  0  0  0
M  END
> <PUBCHEM_COMPOUND_ID_TYPE>
0

> <PUBCHEM_TOTAL_CHARGE>
0

> <PUBCHEM_SUBSTANCE_ID>
310945236

> <PUBCHEM_SUBSTANCE_VERSION>
1

> <PUBCHEM_EXT_DATASOURCE_NAME>
4488

> <PUBCHEM_EXT_DATASOURCE_REGID>
SCHEMBL16123327

> <PUBCHEM_SUBSTANCE_COMMENT>
InChI=1S/C11H12N2O3/c1-3-10(14)13-8-6-7(11(12)15)4-5-9(8)16-2/h3-6H,1H2,2H3,(H2,12,15)(H,13,14)
InChIKey=URHRDHGZRADSPK-UHFFFAOYSA-N

> <PUBCHEM_SUBSTANCE_SYNONYM>
SCHEMBL16123327

> <PUBCHEM_XREF_EXT_ID>
SCHEMBL16123327

> <PUBCHEM_EXT_DATASOURCE_URL>
https://www.surechembl.org/

> <PUBCHEM_EXT_SUBSTANCE_URL>
https://www.surechembl.org/chemical/SCHEMBL16123327

> <PUBCHEM_CID_ASSOCIATIONS>
43701765  1

> <PUBCHEM_COORDINATE_TYPE>
1
3

$$$$
