310949657
  -OEChem-07211613022D

 24 25  0     0  0  0  0  0  0999 V2000
    2.3548    1.0328    0.0000 O   0  0  0  0  0  0  0  0  0  0  0  0
    3.1948    1.0328    0.0000 O   0  0  0  0  0  0  0  0  0  0  0  0
    4.4479    0.3305    0.0000 O   0  0  0  0  0  0  0  0  0  0  0  0
   -4.4341    1.0603    0.0000 O   0  0  0  0  0  0  0  0  0  0  0  0
    1.0603    0.3580    0.0000 N   0  0  0  0  0  0  0  0  0  0  0  0
   -4.4479   -0.3305    0.0000 N   0  0  0  0  0  0  0  0  0  0  0  0
    2.3272   -0.3442    0.0000 C   0  0  0  0  0  0  0  0  0  0  0  0
    3.1810   -0.3580    0.0000 C   0  0  0  0  0  0  0  0  0  0  0  0
    1.9003    0.3442    0.0000 C   0  0  0  0  0  0  0  0  0  0  0  0
    3.6079    0.3442    0.0000 C   0  0  0  0  0  0  0  0  0  0  0  0
    1.9279   -1.0466    0.0000 C   0  0  0  0  0  0  0  0  0  0  0  0
    3.5941   -1.0879    0.0000 C   0  0  0  0  0  0  0  0  0  0  0  0
   -0.2066    1.0603    0.0000 C   0  0  0  0  0  0  0  0  0  0  0  0
    2.3272   -1.7489    0.0000 C   0  0  0  0  0  0  0  0  0  0  0  0
    0.6609    1.0328    0.0000 C   0  0  0  0  0  0  0  0  0  0  0  0
    3.1810   -1.7489    0.0000 C   0  0  0  0  0  0  0  0  0  0  0  0
   -1.8865    1.0741    0.0000 C   0  0  0  0  0  0  0  0  0  0  0  0
   -0.6197    1.7351    0.0000 C   0  0  0  0  0  0  0  0  0  0  0  0
   -0.6334    0.3580    0.0000 C   0  0  0  0  0  0  0  0  0  0  0  0
   -1.4734    1.7489    0.0000 C   0  0  0  0  0  0  0  0  0  0  0  0
   -1.4734    0.3580    0.0000 C   0  0  0  0  0  0  0  0  0  0  0  0
   -2.7265    1.0603    0.0000 C   0  0  0  0  0  0  0  0  0  0  0  0
   -3.1810    0.3718    0.0000 C   0  0  0  0  0  0  0  0  0  0  0  0
   -4.0210    0.3718    0.0000 C   0  0  0  0  0  0  0  0  0  0  0  0
  1  9  2  0  0  0  0
  2 10  2  0  0  0  0
  3 10  1  0  0  0  0
  4 24  2  0  0  0  0
  5  9  1  0  0  0  0
  5 15  1  0  0  0  0
  6 24  1  0  0  0  0
  7  8  2  0  0  0  0
  7  9  1  0  0  0  0
  7 11  1  0  0  0  0
  8 10  1  0  0  0  0
  8 12  1  0  0  0  0
 11 14  2  0  0  0  0
 12 16  2  0  0  0  0
 13 15  1  0  0  0  0
 13 18  2  0  0  0  0
 13 19  1  0  0  0  0
 14 16  1  0  0  0  0
 17 20  2  0  0  0  0
 17 21  1  0  0  0  0
 17 22  1  0  0  0  0
 18 20  1  0  0  0  0
 19 21  2  0  0  0  0
 22 23  1  0  0  0  0
 23 24  1  0  0  0  0
M  END
> <PUBCHEM_COMPOUND_ID_TYPE>
0

> <PUBCHEM_TOTAL_CHARGE>
0

> <PUBCHEM_SUBSTANCE_ID>
310949657

> <PUBCHEM_SUBSTANCE_VERSION>
1

> <PUBCHEM_EXT_DATASOURCE_NAME>
4488

> <PUBCHEM_EXT_DATASOURCE_REGID>
SCHEMBL16127855

> <PUBCHEM_SUBSTANCE_COMMENT>
InChI=1S/C18H18N2O4/c19-16(21)10-9-12-5-7-13(8-6-12)11-20-17(22)14-3-1-2-4-15(14)18(23)24/h1-8H,9-11H2,(H2,19,21)(H,20,22)(H,23,24)
InChIKey=BHYXQMZHJXONRC-UHFFFAOYSA-N

> <PUBCHEM_SUBSTANCE_SYNONYM>
SCHEMBL16127855

> <PUBCHEM_XREF_EXT_ID>
SCHEMBL16127855

> <PUBCHEM_EXT_DATASOURCE_URL>
https://www.surechembl.org/

> <PUBCHEM_EXT_SUBSTANCE_URL>
https://www.surechembl.org/chemical/SCHEMBL16127855

> <PUBCHEM_CID_ASSOCIATIONS>
117615033  1

> <PUBCHEM_COORDINATE_TYPE>
1
3

$$$$
