310945256
  -OEChem-07211613022D

 35 38  0     1  0  0  0  0  0999 V2000
    2.7819   -2.5516    0.0000 S   0  0  0  0  0  0  0  0  0  0  0  0
    4.4215   -2.6438    0.0000 O   0  0  0  0  0  0  0  0  0  0  0  0
   -0.1474   -0.2119    0.0000 O   0  0  0  0  0  0  0  0  0  0  0  0
   -3.7030    0.1934    0.0000 O   0  0  0  0  0  0  0  0  0  0  0  0
   -0.8659    1.0225    0.0000 O   0  0  0  0  0  0  0  0  0  0  0  0
   -4.4215    2.2753    0.0000 O   0  0  0  0  0  0  0  0  0  0  0  0
    3.0030   -0.3593    0.0000 N   0  0  0  0  0  0  0  0  0  0  0  0
    4.6242   -1.2620    0.0000 N   0  0  0  0  0  0  0  0  0  0  0  0
   -0.8659   -1.4647    0.0000 N   0  0  0  0  0  0  0  0  0  0  0  0
   -2.2845    1.0225    0.0000 N   0  0  0  0  0  0  0  0  0  0  0  0
    2.0081   -1.4463    0.0000 C   0  0  0  0  0  0  0  0  0  0  0  0
    2.7635   -1.1883    0.0000 C   0  0  0  0  0  0  0  0  0  0  0  0
    3.2609   -1.8516    0.0000 C   0  0  0  0  0  0  0  0  0  0  0  0
    1.9896   -2.2753    0.0000 C   0  0  0  0  0  0  0  0  0  0  0  0
    1.2896   -1.0593    0.0000 C   0  0  0  0  0  0  0  0  0  0  0  0
    4.0900   -1.8699    0.0000 C   0  0  0  0  0  0  0  0  0  0  0  0
    0.5712   -1.4463    0.0000 C   0  0  0  0  0  0  0  0  0  0  0  0
    1.3080   -2.6806    0.0000 C   0  0  0  0  0  0  0  0  0  0  0  0
    0.5712   -2.2937    0.0000 C   0  0  0  0  0  0  0  0  0  0  0  0
   -0.1658   -1.0593    0.0000 C   0  0  0  0  0  0  0  0  0  0  0  0
    3.7584   -0.0276    0.0000 C   0  0  0  0  0  0  0  0  0  0  0  0
    4.4952   -0.4146    0.0000 C   0  0  3  0  0  0  0  0  0  0  0  0
   -1.5844   -1.0409    0.0000 C   0  0  0  0  0  0  0  0  0  0  0  0
   -2.2845    0.2119    0.0000 C   0  0  0  0  0  0  0  0  0  0  0  0
   -2.9846   -0.1934    0.0000 C   0  0  0  0  0  0  0  0  0  0  0  0
   -1.5844   -0.2119    0.0000 C   0  0  0  0  0  0  0  0  0  0  0  0
   -2.2660   -1.4463    0.0000 C   0  0  0  0  0  0  0  0  0  0  0  0
   -2.9846   -1.0409    0.0000 C   0  0  0  0  0  0  0  0  0  0  0  0
    5.1401    0.0645    0.0000 C   0  0  0  0  0  0  0  0  0  0  0  0
   -1.6029    1.4647    0.0000 C   0  0  0  0  0  0  0  0  0  0  0  0
   -3.7215    1.0409    0.0000 C   0  0  0  0  0  0  0  0  0  0  0  0
   -1.5476    2.2937    0.0000 C   0  0  0  0  0  0  0  0  0  0  0  0
   -4.4215    1.4647    0.0000 C   0  0  0  0  0  0  0  0  0  0  0  0
   -0.8106    2.6622    0.0000 C   0  0  0  0  0  0  0  0  0  0  0  0
   -5.1401    2.6806    0.0000 C   0  0  0  0  0  0  0  0  0  0  0  0
  1 13  1  0  0  0  0
  1 14  1  0  0  0  0
  2 16  2  0  0  0  0
  3 20  2  0  0  0  0
  4 25  1  0  0  0  0
  4 31  1  0  0  0  0
  5 30  2  0  0  0  0
  6 33  1  0  0  0  0
  6 35  1  0  0  0  0
  7 12  1  0  0  0  0
  7 21  1  0  0  0  0
  8 16  1  0  0  0  0
  8 22  1  0  0  0  0
  9 20  1  0  0  0  0
  9 23  1  0  0  0  0
 10 24  1  0  0  0  0
 10 30  1  0  0  0  0
 11 12  1  0  0  0  0
 11 14  1  0  0  0  0
 11 15  2  0  0  0  0
 12 13  2  0  0  0  0
 13 16  1  0  0  0  0
 14 18  2  0  0  0  0
 15 17  1  0  0  0  0
 17 19  2  0  0  0  0
 17 20  1  0  0  0  0
 18 19  1  0  0  0  0
 21 22  1  0  0  0  0
 22 29  1  1  0  0  0
 23 26  2  0  0  0  0
 23 27  1  0  0  0  0
 24 25  2  0  0  0  0
 24 26  1  0  0  0  0
 25 28  1  0  0  0  0
 27 28  2  0  0  0  0
 30 32  1  0  0  0  0
 31 33  1  0  0  0  0
 32 34  2  0  0  0  0
M  END
> <PUBCHEM_COMPOUND_ID_TYPE>
0

> <PUBCHEM_TOTAL_CHARGE>
0

> <PUBCHEM_SUBSTANCE_ID>
310945256

> <PUBCHEM_SUBSTANCE_VERSION>
1

> <PUBCHEM_EXT_DATASOURCE_NAME>
4488

> <PUBCHEM_EXT_DATASOURCE_REGID>
SCHEMBL16123350

> <PUBCHEM_SUBSTANCE_COMMENT>
InChI=1S/C25H26N4O5S/c1-4-21(30)29-18-12-16(6-7-19(18)34-10-9-33-3)28-24(31)15-5-8-20-17(11-15)22-23(35-20)25(32)27-14(2)13-26-22/h4-8,11-12,14,26H,1,9-10,13H2,2-3H3,(H,27,32)(H,28,31)(H,29,30)/t14-/m1/s1
InChIKey=KJUJUFPQDLAJQR-CQSZACIVSA-N

> <PUBCHEM_SUBSTANCE_SYNONYM>
SCHEMBL16123350

> <PUBCHEM_XREF_EXT_ID>
SCHEMBL16123350

> <PUBCHEM_EXT_DATASOURCE_URL>
https://www.surechembl.org/

> <PUBCHEM_EXT_SUBSTANCE_URL>
https://www.surechembl.org/chemical/SCHEMBL16123350

> <PUBCHEM_CID_ASSOCIATIONS>
117611323  1

> <PUBCHEM_COORDINATE_TYPE>
1
3

> <PUBCHEM_BONDANNOTATIONS>
22  29  5

$$$$
