310945328
  -OEChem-07211613022D

 31 34  0     0  0  0  0  0  0999 V2000
    1.8107    3.0420    0.0000 Cl  0  0  0  0  0  0  0  0  0  0  0  0
   -3.9177    1.3827    0.0000 O   0  0  0  0  0  0  0  0  0  0  0  0
   -1.0601    3.0420    0.0000 N   0  0  0  0  0  0  0  0  0  0  0  0
   -1.0601    0.5662    0.0000 N   0  0  0  0  0  0  0  0  0  0  0  0
    2.4955   -0.6584    0.0000 N   0  0  0  0  0  0  0  0  0  0  0  0
    3.2197    0.5794    0.0000 N   0  0  0  0  0  0  0  0  0  0  0  0
    3.9309   -0.6584    0.0000 N   0  0  0  0  0  0  0  0  0  0  0  0
    1.7975    0.5662    0.0000 N   0  0  0  0  0  0  0  0  0  0  0  0
    3.9309   -2.3046    0.0000 N   0  0  0  0  0  0  0  0  0  0  0  0
    4.6419    0.5794    0.0000 N   0  0  0  0  0  0  0  0  0  0  0  0
   -1.7843    1.8173    0.0000 C   0  0  0  0  0  0  0  0  0  0  0  0
   -1.0469    1.3959    0.0000 C   0  0  0  0  0  0  0  0  0  0  0  0
   -0.3489    1.8041    0.0000 C   0  0  0  0  0  0  0  0  0  0  0  0
   -1.7712    2.6338    0.0000 C   0  0  0  0  0  0  0  0  0  0  0  0
   -0.3358    2.6338    0.0000 C   0  0  0  0  0  0  0  0  0  0  0  0
   -2.4955    1.4090    0.0000 C   0  0  0  0  0  0  0  0  0  0  0  0
    0.3753    1.4090    0.0000 C   0  0  0  0  0  0  0  0  0  0  0  0
    0.3753    3.0420    0.0000 C   0  0  0  0  0  0  0  0  0  0  0  0
   -2.4955    3.0420    0.0000 C   0  0  0  0  0  0  0  0  0  0  0  0
   -3.2197    1.8041    0.0000 C   0  0  0  0  0  0  0  0  0  0  0  0
    1.0864    2.6338    0.0000 C   0  0  0  0  0  0  0  0  0  0  0  0
   -3.1934    2.6338    0.0000 C   0  0  0  0  0  0  0  0  0  0  0  0
    1.0864    1.8041    0.0000 C   0  0  0  0  0  0  0  0  0  0  0  0
   -0.3358    0.1580    0.0000 C   0  0  0  0  0  0  0  0  0  0  0  0
    2.5086    0.1712    0.0000 C   0  0  0  0  0  0  0  0  0  0  0  0
    3.2197   -1.0666    0.0000 C   0  0  0  0  0  0  0  0  0  0  0  0
    3.9440    0.1712    0.0000 C   0  0  0  0  0  0  0  0  0  0  0  0
    0.3753    0.5662    0.0000 C   0  0  0  0  0  0  0  0  0  0  0  0
    1.0996    0.1580    0.0000 C   0  0  0  0  0  0  0  0  0  0  0  0
   -4.6419    1.8041    0.0000 C   0  0  0  0  0  0  0  0  0  0  0  0
    3.5226   -3.0420    0.0000 C   0  0  0  0  0  0  0  0  0  0  0  0
  1 21  1  0  0  0  0
  2 20  1  0  0  0  0
  2 30  1  0  0  0  0
  3 14  1  0  0  0  0
  3 15  2  0  0  0  0
  4 12  1  0  0  0  0
  4 24  1  0  0  0  0
  5 25  2  0  0  0  0
  5 26  1  0  0  0  0
  6 25  1  0  0  0  0
  6 27  2  0  0  0  0
  7 26  2  0  0  0  0
  7 27  1  0  0  0  0
  8 25  1  0  0  0  0
  8 29  1  0  0  0  0
  9 26  1  0  0  0  0
  9 31  1  0  0  0  0
 10 27  1  0  0  0  0
 11 12  1  0  0  0  0
 11 14  1  0  0  0  0
 11 16  2  0  0  0  0
 12 13  2  0  0  0  0
 13 15  1  0  0  0  0
 13 17  1  0  0  0  0
 14 19  2  0  0  0  0
 15 18  1  0  0  0  0
 16 20  1  0  0  0  0
 17 23  2  0  0  0  0
 18 21  2  0  0  0  0
 19 22  1  0  0  0  0
 20 22  2  0  0  0  0
 21 23  1  0  0  0  0
 24 28  1  0  0  0  0
 28 29  1  0  0  0  0
M  END
> <PUBCHEM_COMPOUND_ID_TYPE>
0

> <PUBCHEM_TOTAL_CHARGE>
0

> <PUBCHEM_SUBSTANCE_ID>
310945328

> <PUBCHEM_SUBSTANCE_VERSION>
1

> <PUBCHEM_EXT_DATASOURCE_NAME>
4488

> <PUBCHEM_EXT_DATASOURCE_REGID>
SCHEMBL16123426

> <PUBCHEM_SUBSTANCE_COMMENT>
InChI=1S/C21H23ClN8O/c1-24-20-28-19(23)29-21(30-20)26-9-3-8-25-18-14-6-4-12(22)10-17(14)27-16-7-5-13(31-2)11-15(16)18/h4-7,10-11H,3,8-9H2,1-2H3,(H,25,27)(H4,23,24,26,28,29,30)
InChIKey=BXYYTKNMCHRHDY-UHFFFAOYSA-N

> <PUBCHEM_SUBSTANCE_SYNONYM>
SCHEMBL16123426

> <PUBCHEM_XREF_EXT_ID>
SCHEMBL16123426

> <PUBCHEM_EXT_DATASOURCE_URL>
https://www.surechembl.org/

> <PUBCHEM_EXT_SUBSTANCE_URL>
https://www.surechembl.org/chemical/SCHEMBL16123426

> <PUBCHEM_CID_ASSOCIATIONS>
117611386  1

> <PUBCHEM_COORDINATE_TYPE>
1
3

$$$$
