310943358
  -OEChem-07211613022D

 36 39  0     0  0  0  0  0  0999 V2000
    4.2670   -2.5164    0.0000 F   0  0  0  0  0  0  0  0  0  0  0  0
   -2.8531   -0.0589    0.0000 O   0  0  0  0  0  0  0  0  0  0  0  0
   -4.2838    2.4155    0.0000 O   0  0  0  0  0  0  0  0  0  0  0  0
    1.4223   -0.0589    0.0000 O   0  0  0  0  0  0  0  0  0  0  0  0
   -2.8531    1.6075    0.0000 N   0  0  0  0  0  0  0  0  0  0  0  0
   -1.4223   -0.0421    0.0000 N   0  0  0  0  0  0  0  0  0  0  0  0
    0.7154    2.8362    0.0000 N   0  0  0  0  0  0  0  0  0  0  0  0
    2.1293    1.1867    0.0000 N   0  0  0  0  0  0  0  0  0  0  0  0
    3.5601    0.3619    0.0000 N   0  0  0  0  0  0  0  0  0  0  0  0
   -0.7154    1.2035    0.0000 C   0  0  0  0  0  0  0  0  0  0  0  0
   -0.0252    1.6075    0.0000 C   0  0  0  0  0  0  0  0  0  0  0  0
   -2.1462    1.2035    0.0000 C   0  0  0  0  0  0  0  0  0  0  0  0
   -2.1629    0.3787    0.0000 C   0  0  0  0  0  0  0  0  0  0  0  0
   -1.4392    1.6075    0.0000 C   0  0  0  0  0  0  0  0  0  0  0  0
    0.0084    2.4323    0.0000 C   0  0  0  0  0  0  0  0  0  0  0  0
    0.7154    1.2035    0.0000 C   0  0  0  0  0  0  0  0  0  0  0  0
   -0.7322    0.3619    0.0000 C   0  0  0  0  0  0  0  0  0  0  0  0
    1.4055    1.6075    0.0000 C   0  0  0  0  0  0  0  0  0  0  0  0
    2.8531   -0.0252    0.0000 C   0  0  0  0  0  0  0  0  0  0  0  0
    2.1462    0.3956    0.0000 C   0  0  0  0  0  0  0  0  0  0  0  0
    1.4223    2.4323    0.0000 C   0  0  0  0  0  0  0  0  0  0  0  0
    3.5601   -1.2708    0.0000 C   0  0  0  0  0  0  0  0  0  0  0  0
    3.5432   -2.1124    0.0000 C   0  0  0  0  0  0  0  0  0  0  0  0
   -2.8531    2.4323    0.0000 C   0  0  0  0  0  0  0  0  0  0  0  0
   -3.5601    1.2035    0.0000 C   0  0  0  0  0  0  0  0  0  0  0  0
    2.8531   -0.8669    0.0000 C   0  0  0  0  0  0  0  0  0  0  0  0
    4.2670   -0.8669    0.0000 C   0  0  0  0  0  0  0  0  0  0  0  0
   -0.7322    2.8362    0.0000 C   0  0  0  0  0  0  0  0  0  0  0  0
   -2.8531   -0.8669    0.0000 C   0  0  0  0  0  0  0  0  0  0  0  0
    4.2838   -0.0589    0.0000 C   0  0  0  0  0  0  0  0  0  0  0  0
   -3.5768    2.8362    0.0000 C   0  0  0  0  0  0  0  0  0  0  0  0
   -4.2838    1.6243    0.0000 C   0  0  0  0  0  0  0  0  0  0  0  0
    2.7184   -2.1124    0.0000 C   0  0  0  0  0  0  0  0  0  0  0  0
    3.1729   -2.8362    0.0000 C   0  0  0  0  0  0  0  0  0  0  0  0
   -3.5768   -1.3045    0.0000 C   0  0  0  0  0  0  0  0  0  0  0  0
   -2.1293   -1.2877    0.0000 C   0  0  0  0  0  0  0  0  0  0  0  0
  1 23  1  0  0  0  0
  2 13  1  0  0  0  0
  2 29  1  0  0  0  0
  3 31  1  0  0  0  0
  3 32  1  0  0  0  0
  4 20  2  0  0  0  0
  5 12  1  0  0  0  0
  5 24  1  0  0  0  0
  5 25  1  0  0  0  0
  6 13  2  0  0  0  0
  6 17  1  0  0  0  0
  7 15  1  0  0  0  0
  7 21  2  0  0  0  0
  8 18  1  0  0  0  0
  8 20  1  0  0  0  0
  9 19  1  0  0  0  0
  9 30  2  0  0  0  0
 10 11  1  0  0  0  0
 10 14  1  0  0  0  0
 10 17  2  0  0  0  0
 11 15  2  0  0  0  0
 11 16  1  0  0  0  0
 12 13  1  0  0  0  0
 12 14  2  0  0  0  0
 15 28  1  0  0  0  0
 16 18  2  0  0  0  0
 18 21  1  0  0  0  0
 19 20  1  0  0  0  0
 19 26  2  0  0  0  0
 22 23  1  0  0  0  0
 22 26  1  0  0  0  0
 22 27  2  0  0  0  0
 23 33  1  0  0  0  0
 23 34  1  0  0  0  0
 24 31  1  0  0  0  0
 25 32  1  0  0  0  0
 27 30  1  0  0  0  0
 29 35  1  0  0  0  0
 29 36  1  0  0  0  0
M  END
> <PUBCHEM_COMPOUND_ID_TYPE>
0

> <PUBCHEM_TOTAL_CHARGE>
0

> <PUBCHEM_SUBSTANCE_ID>
310943358

> <PUBCHEM_SUBSTANCE_VERSION>
1

> <PUBCHEM_EXT_DATASOURCE_NAME>
4488

> <PUBCHEM_EXT_DATASOURCE_REGID>
SCHEMBL16121421

> <PUBCHEM_SUBSTANCE_COMMENT>
InChI=1S/C27H32FN5O3/c1-17(2)36-26-24(33-8-10-35-11-9-33)12-19(15-31-26)22-14-21(16-30-18(22)3)32-25(34)23-13-20(6-7-29-23)27(4,5)28/h6-7,12-17H,8-11H2,1-5H3,(H,32,34)
InChIKey=NFDIQKBIDWDWPV-UHFFFAOYSA-N

> <PUBCHEM_SUBSTANCE_SYNONYM>
SCHEMBL16121421

> <PUBCHEM_XREF_EXT_ID>
SCHEMBL16121421

> <PUBCHEM_EXT_DATASOURCE_URL>
https://www.surechembl.org/

> <PUBCHEM_EXT_SUBSTANCE_URL>
https://www.surechembl.org/chemical/SCHEMBL16121421

> <PUBCHEM_CID_ASSOCIATIONS>
117609782  1

> <PUBCHEM_COORDINATE_TYPE>
1
3

$$$$
