310929631
  -OEChem-07211613022D

 70 78  0     1  0  0  0  0  0999 V2000
    1.0945   -5.3171    0.0000 S   0  0  0  0  0  0  0  0  0  0  0  0
    1.1870   -3.6697    0.0000 O   0  0  0  0  0  0  0  0  0  0  0  0
   -1.2278   -2.2682    0.0000 O   0  0  0  0  0  0  0  0  0  0  0  0
   -0.0216    0.8226    0.0000 O   0  0  0  0  0  0  0  0  0  0  0  0
    1.4525   -2.4575    0.0000 O   0  0  0  0  0  0  0  0  0  0  0  0
    0.6426   -6.0074    0.0000 O   0  0  0  0  0  0  0  0  0  0  0  0
    1.5464   -4.6269    0.0000 O   0  0  0  0  0  0  0  0  0  0  0  0
    4.2988   -1.5933    0.0000 O   0  0  0  0  0  0  0  0  0  0  0  0
    2.8360    0.8619    0.0000 O   0  0  0  0  0  0  0  0  0  0  0  0
    3.5674   -0.3657    0.0000 O   0  0  0  0  0  0  0  0  0  0  0  0
    0.1091    0.2768    0.0000 O   0  0  0  0  0  0  0  0  0  0  0  0
    0.4255   -1.0565    0.0000 O   0  0  0  0  0  0  0  0  0  0  0  0
    0.0855   -2.8314    0.0000 N   0  0  0  0  0  0  0  0  0  0  0  0
    0.7211   -1.2299    0.0000 N   0  0  0  0  0  0  0  0  0  0  0  0
    0.4043   -4.8653    0.0000 N   0  0  0  0  0  0  0  0  0  0  0  0
    2.8700   -1.6129    0.0000 N   0  0  0  0  0  0  0  0  0  0  0  0
    0.6757    2.0698    0.0000 N   0  0  0  0  0  0  0  0  0  0  0  0
    1.4185    0.0173    0.0000 N   0  0  0  0  0  0  0  0  0  0  0  0
   -0.2397   -3.5897    0.0000 C   0  0  3  0  0  0  0  0  0  0  0  0
   -1.0429   -3.4011    0.0000 C   0  0  3  0  0  0  0  0  0  0  0  0
   -0.8046   -4.1909    0.0000 C   0  0  0  0  0  0  0  0  0  0  0  0
    0.4505   -4.0416    0.0000 C   0  0  0  0  0  0  0  0  0  0  0  0
   -0.0834   -1.4125    0.0000 C   0  0  3  0  0  0  0  0  0  0  0  0
   -0.4086   -2.1707    0.0000 C   0  0  0  0  0  0  0  0  0  0  0  0
   -1.6441   -2.8362    0.0000 C   0  0  0  0  0  0  0  0  0  0  0  0
   -0.0103   -0.0024    0.0000 C   0  0  3  0  0  0  0  0  0  0  0  0
   -0.5057   -0.7038    0.0000 C   0  0  0  0  0  0  0  0  0  0  0  0
    0.7098   -0.4050    0.0000 C   0  0  0  0  0  0  0  0  0  0  0  0
    1.4412   -1.6326    0.0000 C   0  0  0  0  0  0  0  0  0  0  0  0
    2.1499   -1.2103    0.0000 C   0  0  3  0  0  0  0  0  0  0  0  0
    1.7848   -5.7690    0.0000 C   0  0  0  0  0  0  0  0  0  0  0  0
   -2.4340   -3.0745    0.0000 C   0  0  0  0  0  0  0  0  0  0  0  0
    2.1613   -2.0352    0.0000 C   0  0  0  0  0  0  0  0  0  0  0  0
    0.6871    1.2448    0.0000 C   0  0  0  0  0  0  0  0  0  0  0  0
    2.1566   -6.5055    0.0000 C   0  0  0  0  0  0  0  0  0  0  0  0
    2.6085   -5.8153    0.0000 C   0  0  0  0  0  0  0  0  0  0  0  0
    1.5699    1.0095    0.0000 C   0  0  0  0  0  0  0  0  0  0  0  0
    3.5787   -1.1906    0.0000 C   0  0  0  0  0  0  0  0  0  0  0  0
    2.1159    1.2645    0.0000 C   0  0  0  0  0  0  0  0  0  0  0  0
    1.6678   -2.6920    0.0000 C   0  0  0  0  0  0  0  0  0  0  0  0
    2.8353   -2.5109    0.0000 C   0  0  0  0  0  0  0  0  0  0  0  0
    5.0075   -1.1710    0.0000 C   0  0  3  0  0  0  0  0  0  0  0  0
    1.3845    2.4921    0.0000 C   0  0  0  0  0  0  0  0  0  0  0  0
    2.1046    2.0894    0.0000 C   0  0  0  0  0  0  0  0  0  0  0  0
    4.9962   -0.3461    0.0000 C   0  0  3  0  0  0  0  0  0  0  0  0
    1.8650    1.5086    0.0000 C   0  0  0  0  0  0  0  0  0  0  0  0
    1.7663   -3.3103    0.0000 C   0  0  0  0  0  0  0  0  0  0  0  0
    2.5912   -3.2989    0.0000 C   0  0  0  0  0  0  0  0  0  0  0  0
    5.7956   -1.4151    0.0000 C   0  0  0  0  0  0  0  0  0  0  0  0
    1.3731    3.3170    0.0000 C   0  0  0  0  0  0  0  0  0  0  0  0
    2.8133    2.5117    0.0000 C   0  0  0  0  0  0  0  0  0  0  0  0
    5.7772   -0.0804    0.0000 C   0  0  0  0  0  0  0  0  0  0  0  0
    4.2761    0.0566    0.0000 C   0  0  0  0  0  0  0  0  0  0  0  0
    6.2713   -0.7411    0.0000 C   0  0  0  0  0  0  0  0  0  0  0  0
    2.5851    1.1059    0.0000 C   0  0  0  0  0  0  0  0  0  0  0  0
    2.0819    3.7393    0.0000 C   0  0  0  0  0  0  0  0  0  0  0  0
    2.8019    3.3366    0.0000 C   0  0  0  0  0  0  0  0  0  0  0  0
    4.2648    0.8815    0.0000 C   0  0  0  0  0  0  0  0  0  0  0  0
    2.8473    0.0369    0.0000 C   0  0  0  0  0  0  0  0  0  0  0  0
    3.5447    1.2841    0.0000 C   0  0  0  0  0  0  0  0  0  0  0  0
    2.1386   -0.3854    0.0000 C   0  0  0  0  0  0  0  0  0  0  0  0
    0.5023   -0.1659    0.0000 C   0  0  0  0  0  0  0  0  0  0  0  0
    1.3210    0.8365    0.0000 C   0  0  0  0  0  0  0  0  0  0  0  0
    0.5117    0.9969    0.0000 C   0  0  0  0  0  0  0  0  0  0  0  0
   -0.6529   -2.6741    0.0000 H   0  0  0  0  0  0  0  0  0  0  0  0
   -0.9066   -1.4670    0.0000 H   0  0  0  0  0  0  0  0  0  0  0  0
   -0.7983    0.2419    0.0000 H   0  0  0  0  0  0  0  0  0  0  0  0
    1.7473   -1.9303    0.0000 H   0  0  0  0  0  0  0  0  0  0  0  0
    5.1050   -1.9902    0.0000 H   0  0  0  0  0  0  0  0  0  0  0  0
    5.0711    0.4755    0.0000 H   0  0  0  0  0  0  0  0  0  0  0  0
  1  6  2  0  0  0  0
  1  7  2  0  0  0  0
  1 15  1  0  0  0  0
  1 31  1  0  0  0  0
  2 22  2  0  0  0  0
  3 24  2  0  0  0  0
  4 26  1  0  0  0  0
  4 34  1  0  0  0  0
  5 29  2  0  0  0  0
  8 38  1  0  0  0  0
  8 42  1  0  0  0  0
  9 39  1  0  0  0  0
  9 59  1  0  0  0  0
 10 38  2  0  0  0  0
 11 62  1  0  0  0  0
 11 64  1  0  0  0  0
 12 62  2  0  0  0  0
 19 13  1  6  0  0  0
 13 24  1  0  0  0  0
 14 23  1  0  0  0  0
 14 28  1  0  0  0  0
 14 29  1  0  0  0  0
 15 22  1  0  0  0  0
 16 30  1  0  0  0  0
 16 38  1  0  0  0  0
 17 34  2  0  0  0  0
 17 43  1  0  0  0  0
 18 61  1  0  0  0  0
 18 62  1  0  0  0  0
 18 63  1  0  0  0  0
 19 20  1  0  0  0  0
 19 21  1  0  0  0  0
 19 22  1  1  0  0  0
 20 21  1  0  0  0  0
 20 25  1  0  0  0  0
 20 65  1  6  0  0  0
 23 24  1  0  0  0  0
 23 27  1  0  0  0  0
 23 66  1  1  0  0  0
 25 32  2  0  0  0  0
 26 27  1  0  0  0  0
 26 28  1  0  0  0  0
 26 67  1  6  0  0  0
 29 30  1  0  0  0  0
 30 33  1  0  0  0  0
 30 68  1  6  0  0  0
 31 35  1  0  0  0  0
 31 36  1  0  0  0  0
 33 40  1  0  0  0  0
 33 41  1  0  0  0  0
 34 37  1  0  0  0  0
 35 36  1  0  0  0  0
 37 39  2  0  0  0  0
 37 46  1  0  0  0  0
 39 44  1  0  0  0  0
 40 47  1  0  0  0  0
 41 48  1  0  0  0  0
 42 45  1  0  0  0  0
 42 49  1  0  0  0  0
 42 69  1  6  0  0  0
 43 44  2  0  0  0  0
 43 50  1  0  0  0  0
 44 51  1  0  0  0  0
 45 52  1  0  0  0  0
 45 53  1  0  0  0  0
 45 70  1  1  0  0  0
 46 55  1  0  0  0  0
 47 48  1  0  0  0  0
 49 54  1  0  0  0  0
 50 56  2  0  0  0  0
 51 57  2  0  0  0  0
 52 54  1  0  0  0  0
 53 58  1  0  0  0  0
 55 60  2  0  0  0  0
 56 57  1  0  0  0  0
 58 60  1  0  0  0  0
 59 61  1  0  0  0  0
 63 64  1  0  0  0  0
M  END
> <PUBCHEM_COMPOUND_ID_TYPE>
0

> <PUBCHEM_TOTAL_CHARGE>
0

> <PUBCHEM_SUBSTANCE_ID>
310929631

> <PUBCHEM_SUBSTANCE_VERSION>
1

> <PUBCHEM_EXT_DATASOURCE_NAME>
4488

> <PUBCHEM_EXT_DATASOURCE_REGID>
SCHEMBL16106819

> <PUBCHEM_SUBSTANCE_COMMENT>
InChI=1S/C46H58N6O11S/c1-2-30-26-46(30,43(55)50-64(58,59)32-19-20-32)49-40(53)36-25-31-27-52(36)42(54)38(29-12-6-7-13-29)48-44(56)63-37-18-10-14-28(37)11-4-3-5-16-34-39(60-23-21-51-22-24-61-45(51)57)33-15-8-9-17-35(33)47-41(34)62-31/h2-3,5,8-9,15,17,28-32,36-38H,1,4,6-7,10-14,16,18-27H2,(H,48,56)(H,49,53)(H,50,55)/t28-,30-,31-,36+,37-,38+,46-/m1/s1
InChIKey=CPILBSVAMOGLEJ-JEDJFYLUSA-N

> <PUBCHEM_SUBSTANCE_SYNONYM>
SCHEMBL16106819

> <PUBCHEM_XREF_EXT_ID>
SCHEMBL16106819

> <PUBCHEM_EXT_DATASOURCE_URL>
https://www.surechembl.org/

> <PUBCHEM_EXT_SUBSTANCE_URL>
https://www.surechembl.org/chemical/SCHEMBL16106819

> <PUBCHEM_CID_ASSOCIATIONS>
117598933  1

> <PUBCHEM_COORDINATE_TYPE>
1
3

> <PUBCHEM_BONDANNOTATIONS>
19  13  6
19  22  5
20  65  6
23  66  5
26  67  6
30  68  6
42  69  6
45  70  5
60  58  3

$$$$
