310937158
  -OEChem-07211613022D

 26 29  0     1  0  0  0  0  0999 V2000
    6.8661   -2.2269    0.0000 O   0  0  0  0  0  0  0  0  0  0  0  0
    2.7570   -2.9426    0.0000 O   0  0  0  0  0  0  0  0  0  0  0  0
    5.5936   -1.8292    0.0000 N   0  0  0  0  0  0  0  0  0  0  0  0
    5.0104   -3.9235    0.0000 N   0  0  0  0  0  0  0  0  0  0  0  0
    6.3889   -2.9161    0.0000 N   0  0  0  0  0  0  0  0  0  0  0  0
    1.1664   -2.3329    0.0000 N   0  0  3  0  0  0  0  0  0  0  0  0
    3.6054   -4.0826    0.0000 C   0  0  0  0  0  0  0  0  0  0  0  0
    4.9309   -3.1282    0.0000 C   0  0  0  0  0  0  0  0  0  0  0  0
    3.5258   -3.2872    0.0000 C   0  0  0  0  0  0  0  0  0  0  0  0
    5.5936   -2.6510    0.0000 C   0  0  0  0  0  0  0  0  0  0  0  0
    2.9426   -4.5598    0.0000 C   0  0  0  0  0  0  0  0  0  0  0  0
    6.3889   -1.5641    0.0000 C   0  0  0  0  0  0  0  0  0  0  0  0
    4.1886   -2.7570    0.0000 C   0  0  0  0  0  0  0  0  0  0  0  0
    4.3477   -4.4272    0.0000 C   0  0  0  0  0  0  0  0  0  0  0  0
    6.6275   -0.7688    0.0000 C   0  0  0  0  0  0  0  0  0  0  0  0
    2.5980   -5.3020    0.0000 C   0  0  0  0  0  0  0  0  0  0  0  0
    2.0943   -4.6392    0.0000 C   0  0  0  0  0  0  0  0  0  0  0  0
    1.3255   -3.1282    0.0000 C   0  0  3  0  0  0  0  0  0  0  0  0
    2.0943   -3.4463    0.0000 C   0  0  0  0  0  0  0  0  0  0  0  0
    7.4493   -1.0339    0.0000 C   0  0  0  0  0  0  0  0  0  0  0  0
    6.8926    0.0000    0.0000 C   0  0  0  0  0  0  0  0  0  0  0  0
    5.8587   -0.5302    0.0000 C   0  0  0  0  0  0  0  0  0  0  0  0
    0.6362   -3.5524    0.0000 C   0  0  0  0  0  0  0  0  0  0  0  0
    0.3181   -2.2533    0.0000 C   0  0  0  0  0  0  0  0  0  0  0  0
    0.0000   -2.9956    0.0000 C   0  0  0  0  0  0  0  0  0  0  0  0
    1.6967   -1.6967    0.0000 C   0  0  0  0  0  0  0  0  0  0  0  0
  1  5  1  0  0  0  0
  1 12  1  0  0  0  0
  2  9  1  0  0  0  0
  2 19  1  0  0  0  0
  3 10  1  0  0  0  0
  3 12  2  0  0  0  0
  4  8  1  0  0  0  0
  4 14  2  0  0  0  0
  5 10  2  0  0  0  0
  6 18  1  0  0  0  0
  6 24  1  0  0  0  0
  6 26  1  0  0  0  0
  7  9  2  0  0  0  0
  7 11  1  0  0  0  0
  7 14  1  0  0  0  0
  8 10  1  0  0  0  0
  8 13  2  0  0  0  0
  9 13  1  0  0  0  0
 11 16  1  0  0  0  0
 11 17  1  0  0  0  0
 12 15  1  0  0  0  0
 15 20  1  0  0  0  0
 15 21  1  0  0  0  0
 15 22  1  0  0  0  0
 16 17  1  0  0  0  0
 18 19  1  6  0  0  0
 18 23  1  0  0  0  0
 23 25  1  0  0  0  0
 24 25  1  0  0  0  0
M  END
> <PUBCHEM_COMPOUND_ID_TYPE>
0

> <PUBCHEM_TOTAL_CHARGE>
0

> <PUBCHEM_SUBSTANCE_ID>
310937158

> <PUBCHEM_SUBSTANCE_VERSION>
1

> <PUBCHEM_EXT_DATASOURCE_NAME>
4488

> <PUBCHEM_EXT_DATASOURCE_REGID>
SCHEMBL16114882

> <PUBCHEM_SUBSTANCE_COMMENT>
InChI=1S/C20H28N4O2/c1-20(2,3)19-22-18(23-26-19)16-10-17(15(11-21-16)13-7-8-13)25-12-14-6-5-9-24(14)4/h10-11,13-14H,5-9,12H2,1-4H3/t14-/m0/s1
InChIKey=ZTSROPGCZDOMCQ-AWEZNQCLSA-N

> <PUBCHEM_SUBSTANCE_SYNONYM>
SCHEMBL16114882

> <PUBCHEM_XREF_EXT_ID>
SCHEMBL16114882

> <PUBCHEM_EXT_DATASOURCE_URL>
https://www.surechembl.org/

> <PUBCHEM_EXT_SUBSTANCE_URL>
https://www.surechembl.org/chemical/SCHEMBL16114882

> <PUBCHEM_CID_ASSOCIATIONS>
86275981  1

> <PUBCHEM_COORDINATE_TYPE>
1
3

> <PUBCHEM_BONDANNOTATIONS>
18  19  6

$$$$
