310933160
  -OEChem-07211613022D

 31 35  0     0  0  0  0  0  0999 V2000
    0.4434   -2.9333    0.0000 F   0  0  0  0  0  0  0  0  0  0  0  0
    1.7054   -3.6496    0.0000 F   0  0  0  0  0  0  0  0  0  0  0  0
    0.8527   -2.2171    0.0000 F   0  0  0  0  0  0  0  0  0  0  0  0
    0.0000   -5.7302    0.0000 O   0  0  0  0  0  0  0  0  0  0  0  0
    5.5938   -4.5705    0.0000 O   0  0  0  0  0  0  0  0  0  0  0  0
    4.2635   -3.9224    0.0000 N   0  0  0  0  0  0  0  0  0  0  0  0
    4.2635   -5.2527    0.0000 N   0  0  0  0  0  0  0  0  0  0  0  0
    4.1271   -1.2620    0.0000 N   0  0  0  0  0  0  0  0  0  0  0  0
    0.4093   -6.4465    0.0000 N   0  0  0  0  0  0  0  0  0  0  0  0
    2.7287   -3.7520    0.0000 C   0  0  0  0  0  0  0  0  0  0  0  0
    2.7287   -2.9333    0.0000 C   0  0  0  0  0  0  0  0  0  0  0  0
    3.4450   -4.1612    0.0000 C   0  0  0  0  0  0  0  0  0  0  0  0
    1.9783   -2.5241    0.0000 C   0  0  0  0  0  0  0  0  0  0  0  0
    3.4450   -5.0139    0.0000 C   0  0  0  0  0  0  0  0  0  0  0  0
    2.0124   -5.0139    0.0000 C   0  0  0  0  0  0  0  0  0  0  0  0
    2.0124   -4.1612    0.0000 C   0  0  0  0  0  0  0  0  0  0  0  0
    1.2962   -5.4233    0.0000 C   0  0  0  0  0  0  0  0  0  0  0  0
    2.7287   -5.4233    0.0000 C   0  0  0  0  0  0  0  0  0  0  0  0
    1.2620   -2.9333    0.0000 C   0  0  0  0  0  0  0  0  0  0  0  0
    3.4450   -2.4899    0.0000 C   0  0  0  0  0  0  0  0  0  0  0  0
    3.4109   -1.6713    0.0000 C   0  0  0  0  0  0  0  0  0  0  0  0
    2.6945   -1.2620    0.0000 C   0  0  0  0  0  0  0  0  0  0  0  0
    1.9783   -1.6713    0.0000 C   0  0  0  0  0  0  0  0  0  0  0  0
    4.7411   -4.5705    0.0000 C   0  0  0  0  0  0  0  0  0  0  0  0
    0.5457   -5.1163    0.0000 C   0  0  0  0  0  0  0  0  0  0  0  0
    1.2279   -6.2760    0.0000 C   0  0  0  0  0  0  0  0  0  0  0  0
    2.6945   -0.4434    0.0000 C   0  0  0  0  0  0  0  0  0  0  0  0
    4.1271   -0.4093    0.0000 C   0  0  0  0  0  0  0  0  0  0  0  0
    3.4109    0.0000    0.0000 C   0  0  0  0  0  0  0  0  0  0  0  0
    0.3752   -4.2977    0.0000 C   0  0  0  0  0  0  0  0  0  0  0  0
    1.8419   -6.8217    0.0000 C   0  0  0  0  0  0  0  0  0  0  0  0
  1 19  1  0  0  0  0
  2 19  1  0  0  0  0
  3 19  1  0  0  0  0
  4  9  1  0  0  0  0
  4 25  1  0  0  0  0
  5 24  2  0  0  0  0
  6 12  1  0  0  0  0
  6 24  1  0  0  0  0
  7 14  1  0  0  0  0
  7 24  1  0  0  0  0
  8 21  2  0  0  0  0
  8 28  1  0  0  0  0
  9 26  2  0  0  0  0
 10 11  1  0  0  0  0
 10 12  1  0  0  0  0
 10 16  2  0  0  0  0
 11 13  1  0  0  0  0
 11 20  2  0  0  0  0
 12 14  2  0  0  0  0
 13 19  1  0  0  0  0
 13 23  2  0  0  0  0
 14 18  1  0  0  0  0
 15 16  1  0  0  0  0
 15 17  1  0  0  0  0
 15 18  2  0  0  0  0
 17 25  2  0  0  0  0
 17 26  1  0  0  0  0
 20 21  1  0  0  0  0
 21 22  1  0  0  0  0
 22 23  1  0  0  0  0
 22 27  2  0  0  0  0
 25 30  1  0  0  0  0
 26 31  1  0  0  0  0
 27 29  1  0  0  0  0
 28 29  2  0  0  0  0
M  END
> <PUBCHEM_COMPOUND_ID_TYPE>
0

> <PUBCHEM_TOTAL_CHARGE>
0

> <PUBCHEM_SUBSTANCE_ID>
310933160

> <PUBCHEM_SUBSTANCE_VERSION>
1

> <PUBCHEM_EXT_DATASOURCE_NAME>
4488

> <PUBCHEM_EXT_DATASOURCE_REGID>
SCHEMBL16110569

> <PUBCHEM_SUBSTANCE_COMMENT>
InChI=1S/C22H15F3N4O2/c1-10-19(11(2)31-29-10)13-6-15(20-18(8-13)27-21(30)28-20)14-9-17-12(4-3-5-26-17)7-16(14)22(23,24)25/h3-9H,1-2H3,(H2,27,28,30)
InChIKey=FZHAAXPSZBBVLM-UHFFFAOYSA-N

> <PUBCHEM_SUBSTANCE_SYNONYM>
SCHEMBL16110569

> <PUBCHEM_XREF_EXT_ID>
SCHEMBL16110569

> <PUBCHEM_EXT_DATASOURCE_URL>
https://www.surechembl.org/

> <PUBCHEM_EXT_SUBSTANCE_URL>
https://www.surechembl.org/chemical/SCHEMBL16110569

> <PUBCHEM_CID_ASSOCIATIONS>
117601610  1

> <PUBCHEM_COORDINATE_TYPE>
1
3

$$$$
