310930789
  -OEChem-07211613022D

 29 32  0     0  0  0  0  0  0999 V2000
    7.1893   -3.0053    0.0000 S   0  0  0  0  0  0  0  0  0  0  0  0
    7.9554   -2.5339    0.0000 O   0  0  0  0  0  0  0  0  0  0  0  0
    6.4822   -3.3884    0.0000 O   0  0  0  0  0  0  0  0  0  0  0  0
    4.6554   -1.5616    0.0000 O   0  0  0  0  0  0  0  0  0  0  0  0
    7.6018   -3.7125    0.0000 N   0  0  0  0  0  0  0  0  0  0  0  0
    2.9170   -0.1768    0.0000 N   0  0  0  0  0  0  0  0  0  0  0  0
    0.7072   -1.2670    0.0000 N   0  0  0  0  0  0  0  0  0  0  0  0
    4.6554   -0.1473    0.0000 N   0  0  0  0  0  0  0  0  0  0  0  0
    0.0000    0.0000    0.0000 N   0  0  0  0  0  0  0  0  0  0  0  0
    6.7473   -2.2688    0.0000 C   0  0  0  0  0  0  0  0  0  0  0  0
    2.1509   -0.4125    0.0000 C   0  0  0  0  0  0  0  0  0  0  0  0
    2.1509   -1.2670    0.0000 C   0  0  0  0  0  0  0  0  0  0  0  0
    3.4178   -0.8545    0.0000 C   0  0  0  0  0  0  0  0  0  0  0  0
    2.9170   -1.5027    0.0000 C   0  0  0  0  0  0  0  0  0  0  0  0
    4.2429   -0.8545    0.0000 C   0  0  0  0  0  0  0  0  0  0  0  0
    5.9223   -2.2688    0.0000 C   0  0  0  0  0  0  0  0  0  0  0  0
    7.1598   -1.5322    0.0000 C   0  0  0  0  0  0  0  0  0  0  0  0
    1.4143   -0.0295    0.0000 C   0  0  0  0  0  0  0  0  0  0  0  0
    5.9223   -0.8250    0.0000 C   0  0  0  0  0  0  0  0  0  0  0  0
    1.4143   -1.6795    0.0000 C   0  0  0  0  0  0  0  0  0  0  0  0
    0.7072   -0.4125    0.0000 C   0  0  0  0  0  0  0  0  0  0  0  0
    8.4268   -3.6830    0.0000 C   0  0  0  0  0  0  0  0  0  0  0  0
    7.1893   -4.4197    0.0000 C   0  0  0  0  0  0  0  0  0  0  0  0
    5.5098   -1.5616    0.0000 C   0  0  0  0  0  0  0  0  0  0  0  0
    6.7473   -0.8250    0.0000 C   0  0  0  0  0  0  0  0  0  0  0  0
    5.4804   -0.1178    0.0000 C   0  0  0  0  0  0  0  0  0  0  0  0
    8.8393   -4.3902    0.0000 C   0  0  0  0  0  0  0  0  0  0  0  0
    7.6018   -5.1268    0.0000 C   0  0  0  0  0  0  0  0  0  0  0  0
    8.4268   -5.1268    0.0000 C   0  0  0  0  0  0  0  0  0  0  0  0
  1  2  2  0  0  0  0
  1  3  2  0  0  0  0
  1  5  1  0  0  0  0
  1 10  1  0  0  0  0
  4 15  2  0  0  0  0
  5 22  1  0  0  0  0
  5 23  1  0  0  0  0
  6 11  1  0  0  0  0
  6 13  1  0  0  0  0
  7 20  1  0  0  0  0
  7 21  2  0  0  0  0
  8 15  1  0  0  0  0
  8 26  1  0  0  0  0
  9 21  1  0  0  0  0
 10 16  2  0  0  0  0
 10 17  1  0  0  0  0
 11 12  1  0  0  0  0
 11 18  2  0  0  0  0
 12 14  1  0  0  0  0
 12 20  2  0  0  0  0
 13 14  2  0  0  0  0
 13 15  1  0  0  0  0
 16 24  1  0  0  0  0
 17 25  2  0  0  0  0
 18 21  1  0  0  0  0
 19 24  2  0  0  0  0
 19 25  1  0  0  0  0
 19 26  1  0  0  0  0
 22 27  1  0  0  0  0
 23 28  1  0  0  0  0
 27 29  1  0  0  0  0
 28 29  1  0  0  0  0
M  END
> <PUBCHEM_COMPOUND_ID_TYPE>
0

> <PUBCHEM_TOTAL_CHARGE>
0

> <PUBCHEM_SUBSTANCE_ID>
310930789

> <PUBCHEM_SUBSTANCE_VERSION>
1

> <PUBCHEM_EXT_DATASOURCE_NAME>
4488

> <PUBCHEM_EXT_DATASOURCE_REGID>
SCHEMBL16108086

> <PUBCHEM_SUBSTANCE_COMMENT>
InChI=1S/C20H23N5O3S/c21-19-11-17-15(13-22-19)10-18(24-17)20(26)23-12-14-4-6-16(7-5-14)29(27,28)25-8-2-1-3-9-25/h4-7,10-11,13,24H,1-3,8-9,12H2,(H2,21,22)(H,23,26)
InChIKey=RORMRTVUXVJKCN-UHFFFAOYSA-N

> <PUBCHEM_SUBSTANCE_SYNONYM>
SCHEMBL16108086

> <PUBCHEM_XREF_EXT_ID>
SCHEMBL16108086

> <PUBCHEM_EXT_DATASOURCE_URL>
https://www.surechembl.org/

> <PUBCHEM_EXT_SUBSTANCE_URL>
https://www.surechembl.org/chemical/SCHEMBL16108086

> <PUBCHEM_CID_ASSOCIATIONS>
117599802  1

> <PUBCHEM_COORDINATE_TYPE>
1
3

$$$$
