310948781
  -OEChem-07211613022D

 35 39  0     1  0  0  0  0  0999 V2000
   -1.9728    2.7496    0.0000 O   0  0  0  0  0  0  0  0  0  0  0  0
    0.5568    1.5673    0.0000 N   0  0  0  0  0  0  0  0  0  0  0  0
   -0.0481    1.0036    0.0000 N   0  0  0  0  0  0  0  0  0  0  0  0
   -1.5054    1.0036    0.0000 N   0  0  0  0  0  0  0  0  0  0  0  0
   -0.8730    3.6432    0.0000 N   0  0  0  0  0  0  0  0  0  0  0  0
   -0.8593   -2.6946    0.0000 N   0  0  0  0  0  0  0  0  0  0  0  0
   -0.0894   -2.4197    0.0000 N   0  0  0  0  0  0  0  0  0  0  0  0
    0.4880   -3.0245    0.0000 N   0  0  0  0  0  0  0  0  0  0  0  0
    0.6118   -0.5361    0.0000 N   0  0  0  0  0  0  0  0  0  0  0  0
   -0.6255    2.2272    0.0000 C   0  0  0  0  0  0  0  0  0  0  0  0
    0.1718    2.3372    0.0000 C   0  0  0  0  0  0  0  0  0  0  0  0
   -0.7630    1.3886    0.0000 C   0  0  0  0  0  0  0  0  0  0  0  0
    1.3679    1.4298    0.0000 C   0  0  3  0  0  0  0  0  0  0  0  0
   -1.1755    2.8871    0.0000 C   0  0  0  0  0  0  0  0  0  0  0  0
    0.4606    3.1483    0.0000 C   0  0  0  0  0  0  0  0  0  0  0  0
    1.6429    0.6737    0.0000 C   0  0  3  0  0  0  0  0  0  0  0  0
   -1.5054    0.1925    0.0000 C   0  0  0  0  0  0  0  0  0  0  0  0
   -1.5604   -1.4573    0.0000 C   0  0  0  0  0  0  0  0  0  0  0  0
   -0.0894    3.7670    0.0000 C   0  0  0  0  0  0  0  0  0  0  0  0
    1.9454    2.0897    0.0000 C   0  0  0  0  0  0  0  0  0  0  0  0
   -1.5741   -2.2822    0.0000 C   0  0  3  0  0  0  0  0  0  0  0  0
   -0.8593   -1.0586    0.0000 C   0  0  0  0  0  0  0  0  0  0  0  0
   -0.8455   -0.2475    0.0000 C   0  0  0  0  0  0  0  0  0  0  0  0
   -2.2616   -0.2338    0.0000 C   0  0  0  0  0  0  0  0  0  0  0  0
   -2.2753   -1.0448    0.0000 C   0  0  0  0  0  0  0  0  0  0  0  0
    2.4678    0.5224    0.0000 C   0  0  0  0  0  0  0  0  0  0  0  0
    1.1205    0.0550    0.0000 C   0  0  0  0  0  0  0  0  0  0  0  0
    2.7427    1.9247    0.0000 C   0  0  0  0  0  0  0  0  0  0  0  0
   -2.2753   -2.6946    0.0000 C   0  0  0  0  0  0  0  0  0  0  0  0
    3.0039    1.1274    0.0000 C   0  0  0  0  0  0  0  0  0  0  0  0
   -0.8043   -3.5745    0.0000 C   0  0  0  0  0  0  0  0  0  0  0  0
   -0.1168   -1.4710    0.0000 C   0  0  0  0  0  0  0  0  0  0  0  0
    0.0069   -3.7670    0.0000 C   0  0  0  0  0  0  0  0  0  0  0  0
   -3.0039   -2.2547    0.0000 C   0  0  0  0  0  0  0  0  0  0  0  0
   -2.3166   -3.5058    0.0000 C   0  0  0  0  0  0  0  0  0  0  0  0
  1 14  2  0  0  0  0
  2  3  1  0  0  0  0
  2 11  1  0  0  0  0
 13  2  1  1  0  0  0
  3 12  2  0  0  0  0
  4 12  1  0  0  0  0
  4 17  1  0  0  0  0
  5 14  1  0  0  0  0
  5 19  1  0  0  0  0
  6  7  1  0  0  0  0
  6 21  1  0  0  0  0
  6 31  1  0  0  0  0
  7  8  2  0  0  0  0
  8 33  1  0  0  0  0
  9 27  3  0  0  0  0
 10 11  2  0  0  0  0
 10 12  1  0  0  0  0
 10 14  1  0  0  0  0
 11 15  1  0  0  0  0
 13 16  1  0  0  0  0
 13 20  1  0  0  0  0
 15 19  2  0  0  0  0
 16 26  1  0  0  0  0
 16 27  1  6  0  0  0
 17 23  1  0  0  0  0
 17 24  2  0  0  0  0
 18 21  1  0  0  0  0
 18 22  1  0  0  0  0
 18 25  2  0  0  0  0
 20 28  1  0  0  0  0
 21 29  1  0  0  0  0
 22 23  2  0  0  0  0
 22 32  1  0  0  0  0
 24 25  1  0  0  0  0
 26 30  1  0  0  0  0
 28 30  1  0  0  0  0
 29 34  1  0  0  0  0
 29 35  1  0  0  0  0
 31 33  2  0  0  0  0
M  END
> <PUBCHEM_COMPOUND_ID_TYPE>
0

> <PUBCHEM_TOTAL_CHARGE>
0

> <PUBCHEM_SUBSTANCE_ID>
310948781

> <PUBCHEM_SUBSTANCE_VERSION>
1

> <PUBCHEM_EXT_DATASOURCE_NAME>
4488

> <PUBCHEM_EXT_DATASOURCE_REGID>
SCHEMBL16126965

> <PUBCHEM_SUBSTANCE_COMMENT>
InChI=1S/C26H30N8O/c1-16(2)24(33-13-12-29-32-33)20-9-8-19(14-17(20)3)30-25-23-22(10-11-28-26(23)35)34(31-25)21-7-5-4-6-18(21)15-27/h8-14,16,18,21,24H,4-7H2,1-3H3,(H,28,35)(H,30,31)/t18-,21+,24?/m1/s1
InChIKey=DOGQIXWODOXNFJ-BGNYOVEWSA-N

> <PUBCHEM_SUBSTANCE_SYNONYM>
SCHEMBL16126965

> <PUBCHEM_XREF_EXT_ID>
SCHEMBL16126965

> <PUBCHEM_EXT_DATASOURCE_URL>
https://www.surechembl.org/

> <PUBCHEM_EXT_SUBSTANCE_URL>
https://www.surechembl.org/chemical/SCHEMBL16126965

> <PUBCHEM_CID_ASSOCIATIONS>
117614323  1

> <PUBCHEM_COORDINATE_TYPE>
1
3

> <PUBCHEM_BONDANNOTATIONS>
16  27  6
13  2  5

$$$$
