310931877
  -OEChem-07211613022D

 26 28  0     0  0  0  0  0  0999 V2000
   -3.6116   -2.3850    0.0000 S   0  0  0  0  0  0  0  0  0  0  0  0
   -3.5724   -1.4830    0.0000 O   0  0  0  0  0  0  0  0  0  0  0  0
   -0.7145    0.1670    0.0000 O   0  0  0  0  0  0  0  0  0  0  0  0
   -0.7145   -1.4830    0.0000 O   0  0  0  0  0  0  0  0  0  0  0  0
    0.0000   -2.7206    0.0000 O   0  0  0  0  0  0  0  0  0  0  0  0
   -2.9442   -3.5410    0.0000 N   0  0  0  0  0  0  0  0  0  0  0  0
   -2.1435   -1.4830    0.0000 C   0  0  0  0  0  0  0  0  0  0  0  0
   -2.1435   -2.3080    0.0000 C   0  0  0  0  0  0  0  0  0  0  0  0
   -2.8579   -1.0705    0.0000 C   0  0  0  0  0  0  0  0  0  0  0  0
   -2.8579   -2.7206    0.0000 C   0  0  0  0  0  0  0  0  0  0  0  0
   -1.4290   -1.0705    0.0000 C   0  0  0  0  0  0  0  0  0  0  0  0
   -1.4290   -0.2455    0.0000 C   0  0  0  0  0  0  0  0  0  0  0  0
   -1.4290   -2.7206    0.0000 C   0  0  0  0  0  0  0  0  0  0  0  0
   -2.8579   -0.2455    0.0000 C   0  0  0  0  0  0  0  0  0  0  0  0
   -2.1435    0.1670    0.0000 C   0  0  0  0  0  0  0  0  0  0  0  0
   -0.7145   -2.3080    0.0000 C   0  0  0  0  0  0  0  0  0  0  0  0
   -4.1637   -2.9981    0.0000 C   0  0  0  0  0  0  0  0  0  0  0  0
   -3.7512   -3.7126    0.0000 C   0  0  0  0  0  0  0  0  0  0  0  0
    0.0000   -0.2455    0.0000 C   0  0  0  0  0  0  0  0  0  0  0  0
    0.7145    0.1670    0.0000 C   0  0  0  0  0  0  0  0  0  0  0  0
   -4.2869   -1.0705    0.0000 C   0  0  0  0  0  0  0  0  0  0  0  0
    1.4290   -0.2455    0.0000 C   0  0  0  0  0  0  0  0  0  0  0  0
    0.7145    0.9920    0.0000 C   0  0  0  0  0  0  0  0  0  0  0  0
    2.1435    0.1670    0.0000 C   0  0  0  0  0  0  0  0  0  0  0  0
    1.4290    1.4045    0.0000 C   0  0  0  0  0  0  0  0  0  0  0  0
    2.1435    0.9920    0.0000 C   0  0  0  0  0  0  0  0  0  0  0  0
  1 10  1  0  0  0  0
  1 17  1  0  0  0  0
  2  9  1  0  0  0  0
  2 21  1  0  0  0  0
  3 12  1  0  0  0  0
  3 19  1  0  0  0  0
  4 16  2  0  0  0  0
  5 16  1  0  0  0  0
  6 10  2  0  0  0  0
  6 18  1  0  0  0  0
  7  8  1  0  0  0  0
  7  9  1  0  0  0  0
  7 11  2  0  0  0  0
  8 10  1  0  0  0  0
  8 13  2  3  0  0  0
  9 14  2  0  0  0  0
 11 12  1  0  0  0  0
 12 15  2  0  0  0  0
 13 16  1  0  0  0  0
 14 15  1  0  0  0  0
 17 18  2  0  0  0  0
 19 20  1  0  0  0  0
 20 22  2  0  0  0  0
 20 23  1  0  0  0  0
 22 24  1  0  0  0  0
 23 25  2  0  0  0  0
 24 26  2  0  0  0  0
 25 26  1  0  0  0  0
M  END
> <PUBCHEM_COMPOUND_ID_TYPE>
0

> <PUBCHEM_TOTAL_CHARGE>
0

> <PUBCHEM_SUBSTANCE_ID>
310931877

> <PUBCHEM_SUBSTANCE_VERSION>
1

> <PUBCHEM_EXT_DATASOURCE_NAME>
4488

> <PUBCHEM_EXT_DATASOURCE_REGID>
SCHEMBL16109212

> <PUBCHEM_SUBSTANCE_COMMENT>
InChI=1S/C20H17NO4S/c1-24-18-8-7-15(25-13-14-5-3-2-4-6-14)11-16(18)17(12-19(22)23)20-21-9-10-26-20/h2-12H,13H2,1H3,(H,22,23)/b17-12+
InChIKey=AXBIIMLHADCPEI-SFQUDFHCSA-N

> <PUBCHEM_SUBSTANCE_SYNONYM>
SCHEMBL16109212

> <PUBCHEM_XREF_EXT_ID>
SCHEMBL16109212

> <PUBCHEM_EXT_DATASOURCE_URL>
https://www.surechembl.org/

> <PUBCHEM_EXT_SUBSTANCE_URL>
https://www.surechembl.org/chemical/SCHEMBL16109212

> <PUBCHEM_CID_ASSOCIATIONS>
117600540  1

> <PUBCHEM_COORDINATE_TYPE>
1
3

> <PUBCHEM_BONDANNOTATIONS>
8  13  1

$$$$
