310937362
  -OEChem-07211613022D

 25 28  0     1  0  0  0  0  0999 V2000
   -0.0322    2.4833    0.0000 O   0  0  0  0  0  0  0  0  0  0  0  0
    1.0228    1.0313    0.0000 O   0  0  0  0  0  0  0  0  0  0  0  0
   -5.3586   -1.0313    0.0000 O   0  0  0  0  0  0  0  0  0  0  0  0
   -6.0730   -0.6188    0.0000 O   0  0  0  0  0  0  0  0  0  0  0  0
   -1.0717    0.6188    0.0000 C   0  0  3  0  0  0  0  0  0  0  0  0
   -1.7862    0.2063    0.0000 C   0  0  3  0  0  0  0  0  0  0  0  0
   -1.0717    1.4438    0.0000 C   0  0  3  0  0  0  0  0  0  0  0  0
   -2.5006    0.6188    0.0000 C   0  0  3  0  0  0  0  0  0  0  0  0
   -0.2871    1.6987    0.0000 C   0  0  3  0  0  0  0  0  0  0  0  0
   -3.2151    0.2063    0.0000 C   0  0  0  0  0  0  0  0  0  0  0  0
   -0.2871    0.3638    0.0000 C   0  0  0  0  0  0  0  0  0  0  0  0
   -1.7862    1.8563    0.0000 C   0  0  0  0  0  0  0  0  0  0  0  0
   -2.5006    1.4438    0.0000 C   0  0  0  0  0  0  0  0  0  0  0  0
   -1.7862   -0.6188    0.0000 C   0  0  0  0  0  0  0  0  0  0  0  0
    0.1978    1.0313    0.0000 C   0  0  3  0  0  0  0  0  0  0  0  0
   -3.2151   -0.6188    0.0000 C   0  0  0  0  0  0  0  0  0  0  0  0
   -1.0717    2.2688    0.0000 C   0  0  0  0  0  0  0  0  0  0  0  0
   -2.5006   -1.0313    0.0000 C   0  0  0  0  0  0  0  0  0  0  0  0
   -3.9296    0.6188    0.0000 C   0  0  0  0  0  0  0  0  0  0  0  0
   -3.9296   -1.0313    0.0000 C   0  0  0  0  0  0  0  0  0  0  0  0
   -4.6440   -0.6188    0.0000 C   0  0  0  0  0  0  0  0  0  0  0  0
   -4.6440    0.2063    0.0000 C   0  0  0  0  0  0  0  0  0  0  0  0
   -1.0717   -0.2063    0.0000 H   0  0  0  0  0  0  0  0  0  0  0  0
   -1.7862    1.0313    0.0000 H   0  0  0  0  0  0  0  0  0  0  0  0
   -2.5006   -0.2063    0.0000 H   0  0  0  0  0  0  0  0  0  0  0  0
  9  1  1  1  0  0  0
 15  2  1  6  0  0  0
  3  4  1  0  0  0  0
  3 21  1  0  0  0  0
  5  6  1  0  0  0  0
  5  7  1  0  0  0  0
  5 11  1  0  0  0  0
  5 23  1  6  0  0  0
  6  8  1  0  0  0  0
  6 14  1  0  0  0  0
  6 24  1  1  0  0  0
  7  9  1  0  0  0  0
  7 12  1  0  0  0  0
  7 17  1  1  0  0  0
  8 10  1  0  0  0  0
  8 13  1  0  0  0  0
  8 25  1  6  0  0  0
  9 15  1  0  0  0  0
 10 16  2  0  0  0  0
 10 19  1  0  0  0  0
 11 15  1  0  0  0  0
 12 13  1  0  0  0  0
 14 18  1  0  0  0  0
 16 18  1  0  0  0  0
 16 20  1  0  0  0  0
 19 22  2  0  0  0  0
 20 21  2  0  0  0  0
 21 22  1  0  0  0  0
M  END
> <PUBCHEM_COMPOUND_ID_TYPE>
0

> <PUBCHEM_TOTAL_CHARGE>
0

> <PUBCHEM_SUBSTANCE_ID>
310937362

> <PUBCHEM_SUBSTANCE_VERSION>
1

> <PUBCHEM_EXT_DATASOURCE_NAME>
4488

> <PUBCHEM_EXT_DATASOURCE_REGID>
SCHEMBL16115118

> <PUBCHEM_SUBSTANCE_COMMENT>
InChI=1S/C18H24O4/c1-18-7-6-13-12-5-3-11(22-21)8-10(12)2-4-14(13)15(18)9-16(19)17(18)20/h3,5,8,13-17,19-21H,2,4,6-7,9H2,1H3/t13-,14-,15+,16-,17+,18+/m1/s1
InChIKey=BDPBRSLIQYPXCM-ZXXIGWHRSA-N

> <PUBCHEM_SUBSTANCE_SYNONYM>
SCHEMBL16115118

> <PUBCHEM_XREF_EXT_ID>
SCHEMBL16115118

> <PUBCHEM_EXT_DATASOURCE_URL>
https://www.surechembl.org/

> <PUBCHEM_EXT_SUBSTANCE_URL>
https://www.surechembl.org/chemical/SCHEMBL16115118

> <PUBCHEM_CID_ASSOCIATIONS>
53676600  1

> <PUBCHEM_COORDINATE_TYPE>
1
3

> <PUBCHEM_BONDANNOTATIONS>
9  1  5
15  2  6
5  23  6
6  24  5
7  17  5
8  25  6

$$$$
