310944876
  -OEChem-07211613022D

 37 41  0     0  0  0  0  0  0999 V2000
   -0.6456    2.6992    0.0000 Cl  0  0  0  0  0  0  0  0  0  0  0  0
    2.4930    2.6992    0.0000 F   0  0  0  0  0  0  0  0  0  0  0  0
    3.9278   -2.2688    0.0000 O   0  0  0  0  0  0  0  0  0  0  0  0
    4.6451   -1.0313    0.0000 O   0  0  0  0  0  0  0  0  0  0  0  0
   -4.6451   -2.2688    0.0000 N   0  0  0  0  0  0  0  0  0  0  0  0
   -0.3587    1.0313    0.0000 C   0  0  0  0  0  0  0  0  0  0  0  0
   -0.3766    0.2063    0.0000 C   0  0  0  0  0  0  0  0  0  0  0  0
    0.3587    1.4438    0.0000 C   0  0  0  0  0  0  0  0  0  0  0  0
   -1.0940    1.4438    0.0000 C   0  0  0  0  0  0  0  0  0  0  0  0
   -1.0761   -0.2242    0.0000 C   0  0  0  0  0  0  0  0  0  0  0  0
    0.3587   -0.2242    0.0000 C   0  0  0  0  0  0  0  0  0  0  0  0
    0.3587    2.2688    0.0000 C   0  0  0  0  0  0  0  0  0  0  0  0
   -1.8653    1.2465    0.0000 C   0  0  0  0  0  0  0  0  0  0  0  0
   -1.2913    2.2329    0.0000 C   0  0  0  0  0  0  0  0  0  0  0  0
    1.0581    1.0313    0.0000 C   0  0  0  0  0  0  0  0  0  0  0  0
   -1.7935    0.1883    0.0000 C   0  0  0  0  0  0  0  0  0  0  0  0
   -1.0940   -1.0492    0.0000 C   0  0  0  0  0  0  0  0  0  0  0  0
    0.3766   -1.0492    0.0000 C   0  0  0  0  0  0  0  0  0  0  0  0
    1.0581    0.1883    0.0000 C   0  0  0  0  0  0  0  0  0  0  0  0
   -2.0625    2.0177    0.0000 C   0  0  0  0  0  0  0  0  0  0  0  0
   -2.5109   -1.0492    0.0000 C   0  0  0  0  0  0  0  0  0  0  0  0
    1.0581    2.6813    0.0000 C   0  0  0  0  0  0  0  0  0  0  0  0
   -2.4750   -0.2242    0.0000 C   0  0  0  0  0  0  0  0  0  0  0  0
   -1.7576   -1.4438    0.0000 C   0  0  0  0  0  0  0  0  0  0  0  0
    1.7935    2.2688    0.0000 C   0  0  0  0  0  0  0  0  0  0  0  0
    1.7756    1.4438    0.0000 C   0  0  0  0  0  0  0  0  0  0  0  0
    1.7756   -1.0492    0.0000 C   0  0  0  0  0  0  0  0  0  0  0  0
    1.0940   -1.4438    0.0000 C   0  0  0  0  0  0  0  0  0  0  0  0
    1.7756   -0.2242    0.0000 C   0  0  0  0  0  0  0  0  0  0  0  0
   -3.2103   -1.4617    0.0000 C   0  0  0  0  0  0  0  0  0  0  0  0
   -3.2283   -2.3046    0.0000 C   0  0  0  0  0  0  0  0  0  0  0  0
   -3.9278   -1.0492    0.0000 C   0  0  0  0  0  0  0  0  0  0  0  0
    2.5109   -1.4617    0.0000 C   0  0  0  0  0  0  0  0  0  0  0  0
   -3.9098   -2.6992    0.0000 C   0  0  0  0  0  0  0  0  0  0  0  0
   -4.6272   -1.4617    0.0000 C   0  0  0  0  0  0  0  0  0  0  0  0
    3.2104   -1.0492    0.0000 C   0  0  0  0  0  0  0  0  0  0  0  0
    3.9278   -1.4438    0.0000 C   0  0  0  0  0  0  0  0  0  0  0  0
  1 12  1  0  0  0  0
  2 25  1  0  0  0  0
  3 37  2  0  0  0  0
  4 37  1  0  0  0  0
  5 34  2  0  0  0  0
  5 35  1  0  0  0  0
  6  7  2  0  0  0  0
  6  8  1  0  0  0  0
  6  9  1  0  0  0  0
  7 10  1  0  0  0  0
  7 11  1  0  0  0  0
  8 12  1  0  0  0  0
  8 15  2  0  0  0  0
  9 13  1  0  0  0  0
  9 14  1  0  0  0  0
 10 16  2  0  0  0  0
 10 17  1  0  0  0  0
 11 18  2  0  0  0  0
 11 19  1  0  0  0  0
 12 22  2  0  0  0  0
 13 20  1  0  0  0  0
 14 20  1  0  0  0  0
 15 26  1  0  0  0  0
 16 23  1  0  0  0  0
 17 24  2  0  0  0  0
 18 28  1  0  0  0  0
 19 29  2  0  0  0  0
 21 23  2  0  0  0  0
 21 24  1  0  0  0  0
 21 30  1  0  0  0  0
 22 25  1  0  0  0  0
 25 26  2  0  0  0  0
 27 28  2  0  0  0  0
 27 29  1  0  0  0  0
 27 33  1  0  0  0  0
 30 31  2  0  0  0  0
 30 32  1  0  0  0  0
 31 34  1  0  0  0  0
 32 35  2  0  0  0  0
 33 36  2  0  0  0  0
 36 37  1  0  0  0  0
M  END
> <PUBCHEM_COMPOUND_ID_TYPE>
0

> <PUBCHEM_TOTAL_CHARGE>
0

> <PUBCHEM_SUBSTANCE_ID>
310944876

> <PUBCHEM_SUBSTANCE_VERSION>
1

> <PUBCHEM_EXT_DATASOURCE_NAME>
4488

> <PUBCHEM_EXT_DATASOURCE_REGID>
SCHEMBL16122960

> <PUBCHEM_SUBSTANCE_COMMENT>
InChI=1S/C32H25ClFNO2/c33-29-20-27(34)13-14-28(29)32(24-2-1-3-24)31(25-7-4-21(5-8-25)6-15-30(36)37)26-11-9-22(10-12-26)23-16-18-35-19-17-23/h4-20,24H,1-3H2,(H,36,37)/b15-6+,32-31+
InChIKey=WKIGXIBUGVFYRA-MEOMNHLGSA-N

> <PUBCHEM_SUBSTANCE_SYNONYM>
SCHEMBL16122960

> <PUBCHEM_XREF_EXT_ID>
SCHEMBL16122960

> <PUBCHEM_EXT_DATASOURCE_URL>
https://www.surechembl.org/

> <PUBCHEM_EXT_SUBSTANCE_URL>
https://www.surechembl.org/chemical/SCHEMBL16122960

> <PUBCHEM_CID_ASSOCIATIONS>
86271923  1

> <PUBCHEM_COORDINATE_TYPE>
1
3

$$$$
