310932874
  -OEChem-07211613022D

 30 32  0     0  0  0  0  0  0999 V2000
    7.2748   -1.2375    0.0000 O   0  0  0  0  0  0  0  0  0  0  0  0
    6.5623    0.0000    0.0000 O   0  0  0  0  0  0  0  0  0  0  0  0
    0.7874   -3.3374    0.0000 O   0  0  0  0  0  0  0  0  0  0  0  0
    6.5623   -2.4749    0.0000 N   0  0  0  0  0  0  0  0  0  0  0  0
    4.3874   -2.1000    0.0000 N   0  0  0  0  0  0  0  0  0  0  0  0
    4.3874   -1.2375    0.0000 N   0  0  0  0  0  0  0  0  0  0  0  0
    1.5000   -4.5748    0.0000 N   0  0  0  0  0  0  0  0  0  0  0  0
    5.8498   -1.2375    0.0000 C   0  0  0  0  0  0  0  0  0  0  0  0
    5.8498   -2.1000    0.0000 C   0  0  0  0  0  0  0  0  0  0  0  0
    2.2124   -3.3374    0.0000 C   0  0  0  0  0  0  0  0  0  0  0  0
    6.5623   -0.8250    0.0000 C   0  0  0  0  0  0  0  0  0  0  0  0
    3.6749   -2.5124    0.0000 C   0  0  0  0  0  0  0  0  0  0  0  0
    5.1373   -0.8250    0.0000 C   0  0  0  0  0  0  0  0  0  0  0  0
    1.5000   -3.7499    0.0000 C   0  0  0  0  0  0  0  0  0  0  0  0
    2.9624   -3.7499    0.0000 C   0  0  0  0  0  0  0  0  0  0  0  0
    2.2124   -2.5124    0.0000 C   0  0  0  0  0  0  0  0  0  0  0  0
    5.0998   -2.5124    0.0000 C   0  0  0  0  0  0  0  0  0  0  0  0
    3.6374   -3.3374    0.0000 C   0  0  0  0  0  0  0  0  0  0  0  0
    2.9249   -2.1000    0.0000 C   0  0  0  0  0  0  0  0  0  0  0  0
    6.5997   -3.3374    0.0000 C   0  0  0  0  0  0  0  0  0  0  0  0
    5.1373   -3.3374    0.0000 C   0  0  0  0  0  0  0  0  0  0  0  0
    5.8498   -3.7499    0.0000 C   0  0  0  0  0  0  0  0  0  0  0  0
    0.7500   -5.8498    0.0000 C   0  0  0  0  0  0  0  0  0  0  0  0
    0.7500   -4.9873    0.0000 C   0  0  0  0  0  0  0  0  0  0  0  0
    0.0375   -6.2623    0.0000 C   0  0  0  0  0  0  0  0  0  0  0  0
    1.4625   -6.2623    0.0000 C   0  0  0  0  0  0  0  0  0  0  0  0
    8.0247   -0.8250    0.0000 C   0  0  0  0  0  0  0  0  0  0  0  0
    0.0000   -7.0873    0.0000 C   0  0  0  0  0  0  0  0  0  0  0  0
    1.4625   -7.0873    0.0000 C   0  0  0  0  0  0  0  0  0  0  0  0
    0.7500   -7.4997    0.0000 C   0  0  0  0  0  0  0  0  0  0  0  0
  1 11  1  0  0  0  0
  1 27  1  0  0  0  0
  2 11  2  0  0  0  0
  3 14  2  0  0  0  0
  4  9  1  0  0  0  0
  4 20  2  0  0  0  0
  5  6  1  0  0  0  0
  5 12  1  0  0  0  0
  6 13  1  0  0  0  0
  7 14  1  0  0  0  0
  7 24  1  0  0  0  0
  8  9  1  0  0  0  0
  8 11  1  0  0  0  0
  8 13  2  0  0  0  0
  9 17  2  0  0  0  0
 10 14  1  0  0  0  0
 10 15  2  0  0  0  0
 10 16  1  0  0  0  0
 12 18  2  0  0  0  0
 12 19  1  0  0  0  0
 15 18  1  0  0  0  0
 16 19  2  0  0  0  0
 17 21  1  0  0  0  0
 20 22  1  0  0  0  0
 21 22  2  0  0  0  0
 23 24  1  0  0  0  0
 23 25  2  0  0  0  0
 23 26  1  0  0  0  0
 25 28  1  0  0  0  0
 26 29  2  0  0  0  0
 28 30  2  0  0  0  0
 29 30  1  0  0  0  0
M  END
> <PUBCHEM_COMPOUND_ID_TYPE>
0

> <PUBCHEM_TOTAL_CHARGE>
0

> <PUBCHEM_SUBSTANCE_ID>
310932874

> <PUBCHEM_SUBSTANCE_VERSION>
1

> <PUBCHEM_EXT_DATASOURCE_NAME>
4488

> <PUBCHEM_EXT_DATASOURCE_REGID>
SCHEMBL16110266

> <PUBCHEM_SUBSTANCE_COMMENT>
InChI=1S/C23H22N4O3/c1-30-23(29)20(21-9-5-6-14-24-21)16-26-27-19-12-10-18(11-13-19)22(28)25-15-17-7-3-2-4-8-17/h2-14,16,26-27H,15H2,1H3,(H,25,28)/b20-16+
InChIKey=OEPMQGHPOFHAKQ-CAPFRKAQSA-N

> <PUBCHEM_SUBSTANCE_SYNONYM>
SCHEMBL16110266

> <PUBCHEM_XREF_EXT_ID>
SCHEMBL16110266

> <PUBCHEM_EXT_DATASOURCE_URL>
https://www.surechembl.org/

> <PUBCHEM_EXT_SUBSTANCE_URL>
https://www.surechembl.org/chemical/SCHEMBL16110266

> <PUBCHEM_CID_ASSOCIATIONS>
117601358  1

> <PUBCHEM_COORDINATE_TYPE>
1
3

$$$$
