310931722
  -OEChem-07211613022D

 31 34  0     0  0  0  0  0  0999 V2000
    4.0535   -2.7621    0.0000 O   0  0  0  0  0  0  0  0  0  0  0  0
    8.5732   -2.8338    0.0000 O   0  0  0  0  0  0  0  0  0  0  0  0
   10.7613   -5.7394    0.0000 O   0  0  0  0  0  0  0  0  0  0  0  0
    4.9502   -1.5783    0.0000 N   0  0  0  0  0  0  0  0  0  0  0  0
    4.8785   -0.7533    0.0000 N   0  0  0  0  0  0  0  0  0  0  0  0
    6.4209   -1.5783    0.0000 N   0  0  0  0  0  0  0  0  0  0  0  0
    7.8558   -4.0893    0.0000 N   0  0  0  0  0  0  0  0  0  0  0  0
    0.0000   -2.4393    0.0000 N   0  0  0  0  0  0  0  0  0  0  0  0
    3.6589   -1.3273    0.0000 C   0  0  0  0  0  0  0  0  0  0  0  0
    4.2328   -1.9371    0.0000 C   0  0  0  0  0  0  0  0  0  0  0  0
    2.8338   -1.3990    0.0000 C   0  0  0  0  0  0  0  0  0  0  0  0
    5.7035   -2.0088    0.0000 C   0  0  0  0  0  0  0  0  0  0  0  0
    4.0535   -0.6098    0.0000 C   0  0  0  0  0  0  0  0  0  0  0  0
    2.3316   -0.7533    0.0000 C   0  0  0  0  0  0  0  0  0  0  0  0
    5.7035   -2.8338    0.0000 C   0  0  0  0  0  0  0  0  0  0  0  0
    2.5110   -2.1881    0.0000 C   0  0  0  0  0  0  0  0  0  0  0  0
    7.1383   -2.8338    0.0000 C   0  0  0  0  0  0  0  0  0  0  0  0
    1.5066   -0.8609    0.0000 C   0  0  0  0  0  0  0  0  0  0  0  0
    7.1383   -2.0088    0.0000 C   0  0  0  0  0  0  0  0  0  0  0  0
    6.4209   -3.2284    0.0000 C   0  0  0  0  0  0  0  0  0  0  0  0
    1.1837   -1.6142    0.0000 C   0  0  0  0  0  0  0  0  0  0  0  0
    1.6501   -2.2599    0.0000 C   0  0  0  0  0  0  0  0  0  0  0  0
    7.8558   -3.2284    0.0000 C   0  0  0  0  0  0  0  0  0  0  0  0
    2.6545    0.0000    0.0000 C   0  0  0  0  0  0  0  0  0  0  0  0
    8.5732   -4.4839    0.0000 C   0  0  0  0  0  0  0  0  0  0  0  0
    0.3587   -1.6859    0.0000 C   0  0  0  0  0  0  0  0  0  0  0  0
    9.3265   -4.0893    0.0000 C   0  0  0  0  0  0  0  0  0  0  0  0
    8.6090   -5.3448    0.0000 C   0  0  0  0  0  0  0  0  0  0  0  0
   10.0439   -5.3448    0.0000 C   0  0  0  0  0  0  0  0  0  0  0  0
   10.0080   -4.5198    0.0000 C   0  0  0  0  0  0  0  0  0  0  0  0
    9.3265   -5.7394    0.0000 C   0  0  0  0  0  0  0  0  0  0  0  0
  1 10  1  0  0  0  0
  2 23  2  0  0  0  0
  3 29  1  0  0  0  0
  4  5  1  0  0  0  0
  4 10  1  0  0  0  0
  4 12  1  0  0  0  0
  5 13  2  0  0  0  0
  6 12  2  0  0  0  0
  6 19  1  0  0  0  0
  7 23  1  0  0  0  0
  7 25  1  0  0  0  0
  8 26  3  0  0  0  0
  9 10  2  0  0  0  0
  9 11  1  0  0  0  0
  9 13  1  0  0  0  0
 11 14  1  0  0  0  0
 11 16  2  0  0  0  0
 12 15  1  0  0  0  0
 14 18  2  0  0  0  0
 14 24  1  0  0  0  0
 15 20  2  0  0  0  0
 16 22  1  0  0  0  0
 17 19  2  0  0  0  0
 17 20  1  0  0  0  0
 17 23  1  0  0  0  0
 18 21  1  0  0  0  0
 21 22  2  0  0  0  0
 21 26  1  0  0  0  0
 25 27  1  0  0  0  0
 25 28  1  0  0  0  0
 27 30  1  0  0  0  0
 28 31  1  0  0  0  0
 29 30  1  0  0  0  0
 29 31  1  0  0  0  0
M  END
> <PUBCHEM_COMPOUND_ID_TYPE>
0

> <PUBCHEM_TOTAL_CHARGE>
0

> <PUBCHEM_SUBSTANCE_ID>
310931722

> <PUBCHEM_SUBSTANCE_VERSION>
1

> <PUBCHEM_EXT_DATASOURCE_NAME>
4488

> <PUBCHEM_EXT_DATASOURCE_REGID>
SCHEMBL16109051

> <PUBCHEM_SUBSTANCE_COMMENT>
InChI=1S/C23H23N5O3/c1-14-10-15(11-24)2-8-19(14)20-13-26-28(23(20)31)21-9-3-16(12-25-21)22(30)27-17-4-6-18(29)7-5-17/h2-3,8-10,12-13,17-18,29,31H,4-7H2,1H3,(H,27,30)
InChIKey=NGRFQQYAGNYINT-UHFFFAOYSA-N

> <PUBCHEM_SUBSTANCE_SYNONYM>
SCHEMBL16109051

> <PUBCHEM_XREF_EXT_ID>
SCHEMBL16109051

> <PUBCHEM_EXT_DATASOURCE_URL>
https://www.surechembl.org/

> <PUBCHEM_EXT_SUBSTANCE_URL>
https://www.surechembl.org/chemical/SCHEMBL16109051

> <PUBCHEM_CID_ASSOCIATIONS>
117600418  1

> <PUBCHEM_COORDINATE_TYPE>
1
3

$$$$
