310930737
  -OEChem-07211613022D

 30 33  0     0  0  0  0  0  0999 V2000
   -1.1468   -1.5311    0.0000 O   0  0  0  0  0  0  0  0  0  0  0  0
   -1.9029    1.1513    0.0000 O   0  0  0  0  0  0  0  0  0  0  0  0
    2.5134    1.1513    0.0000 O   0  0  0  0  0  0  0  0  0  0  0  0
    0.9727   -1.7860    0.0000 N   0  0  0  0  0  0  0  0  0  0  0  0
   -0.1072   -2.5706    0.0000 N   0  0  0  0  0  0  0  0  0  0  0  0
    1.2027   -3.2381    0.0000 N   0  0  0  0  0  0  0  0  0  0  0  0
    0.3053   -1.3011    0.0000 C   0  0  0  0  0  0  0  0  0  0  0  0
   -0.3622   -1.7860    0.0000 C   0  0  0  0  0  0  0  0  0  0  0  0
   -0.2468   -0.6880    0.0000 C   0  0  0  0  0  0  0  0  0  0  0  0
    0.8573   -0.6880    0.0000 C   0  0  0  0  0  0  0  0  0  0  0  0
    0.7178   -2.5706    0.0000 C   0  0  0  0  0  0  0  0  0  0  0  0
    1.7977   -1.7860    0.0000 C   0  0  0  0  0  0  0  0  0  0  0  0
    0.0082    0.0966    0.0000 C   0  0  0  0  0  0  0  0  0  0  0  0
    0.6024    0.0966    0.0000 C   0  0  0  0  0  0  0  0  0  0  0  0
   -1.0537   -0.8595    0.0000 C   0  0  0  0  0  0  0  0  0  0  0  0
    1.6643   -0.8595    0.0000 C   0  0  0  0  0  0  0  0  0  0  0  0
    2.1557   -1.0427    0.0000 C   0  0  0  0  0  0  0  0  0  0  0  0
    2.1557   -2.5293    0.0000 C   0  0  0  0  0  0  0  0  0  0  0  0
   -0.5439    0.7097    0.0000 C   0  0  0  0  0  0  0  0  0  0  0  0
    1.1544    0.7097    0.0000 C   0  0  0  0  0  0  0  0  0  0  0  0
   -1.6058   -0.2464    0.0000 C   0  0  0  0  0  0  0  0  0  0  0  0
    2.2163   -0.2464    0.0000 C   0  0  0  0  0  0  0  0  0  0  0  0
   -1.3508    0.5382    0.0000 C   0  0  0  0  0  0  0  0  0  0  0  0
    1.9614    0.5382    0.0000 C   0  0  0  0  0  0  0  0  0  0  0  0
    2.9600   -0.8591    0.0000 C   0  0  0  0  0  0  0  0  0  0  0  0
    2.9600   -2.7129    0.0000 C   0  0  0  0  0  0  0  0  0  0  0  0
    3.6050   -1.3735    0.0000 C   0  0  0  0  0  0  0  0  0  0  0  0
    3.6050   -2.1985    0.0000 C   0  0  0  0  0  0  0  0  0  0  0  0
   -2.7098    0.9798    0.0000 C   0  0  0  0  0  0  0  0  0  0  0  0
    2.2585    1.9359    0.0000 C   0  0  0  0  0  0  0  0  0  0  0  0
  1  8  2  0  0  0  0
  2 23  1  0  0  0  0
  2 29  1  0  0  0  0
  3 24  1  0  0  0  0
  3 30  1  0  0  0  0
  4  7  1  0  0  0  0
  4 11  1  0  0  0  0
  4 12  1  0  0  0  0
  5  8  1  0  0  0  0
  5 11  1  0  0  0  0
  6 11  2  3  0  0  0
  7  8  1  0  0  0  0
  7  9  1  0  0  0  0
  7 10  1  0  0  0  0
  9 13  2  0  0  0  0
  9 15  1  0  0  0  0
 10 14  2  0  0  0  0
 10 16  1  0  0  0  0
 12 17  1  0  0  0  0
 12 18  1  0  0  0  0
 13 19  1  0  0  0  0
 14 20  1  0  0  0  0
 15 21  2  0  0  0  0
 16 22  2  0  0  0  0
 17 25  1  0  0  0  0
 18 26  1  0  0  0  0
 19 23  2  0  0  0  0
 20 24  2  0  0  0  0
 21 23  1  0  0  0  0
 22 24  1  0  0  0  0
 25 27  1  0  0  0  0
 26 28  1  0  0  0  0
 27 28  1  0  0  0  0
M  END
> <PUBCHEM_COMPOUND_ID_TYPE>
0

> <PUBCHEM_TOTAL_CHARGE>
0

> <PUBCHEM_SUBSTANCE_ID>
310930737

> <PUBCHEM_SUBSTANCE_VERSION>
1

> <PUBCHEM_EXT_DATASOURCE_NAME>
4488

> <PUBCHEM_EXT_DATASOURCE_REGID>
SCHEMBL16108034

> <PUBCHEM_SUBSTANCE_COMMENT>
InChI=1S/C24H29N3O3/c1-29-20-13-9-17(10-14-20)24(18-11-15-21(30-2)16-12-18)22(28)26-23(25)27(24)19-7-5-3-4-6-8-19/h9-16,19H,3-8H2,1-2H3,(H2,25,26,28)
InChIKey=JOSXOUJHTDSFIH-UHFFFAOYSA-N

> <PUBCHEM_SUBSTANCE_SYNONYM>
SCHEMBL16108034

> <PUBCHEM_XREF_EXT_ID>
SCHEMBL16108034

> <PUBCHEM_EXT_DATASOURCE_URL>
https://www.surechembl.org/

> <PUBCHEM_EXT_SUBSTANCE_URL>
https://www.surechembl.org/chemical/SCHEMBL16108034

> <PUBCHEM_CID_ASSOCIATIONS>
117599763  1

> <PUBCHEM_COORDINATE_TYPE>
1
3

$$$$
