310946235
  -OEChem-07211613022D

 23 25  0     1  0  0  0  0  0999 V2000
   -1.8063  -15.1371    0.0000 O   0  0  0  0  0  0  0  0  0  0  0  0
   -0.3774  -12.6621    0.0000 O   0  0  0  0  0  0  0  0  0  0  0  0
   -2.1083  -11.5351    0.0000 O   0  0  0  0  0  0  0  0  0  0  0  0
   -1.8063  -13.4871    0.0000 C   0  0  3  0  0  0  0  0  0  0  0  0
   -1.0919  -13.8996    0.0000 C   0  0  0  0  0  0  0  0  0  0  0  0
   -2.5208  -13.8996    0.0000 C   0  0  3  0  0  0  0  0  0  0  0  0
   -2.5208  -14.7246    0.0000 C   0  0  0  0  0  0  0  0  0  0  0  0
   -1.0919  -14.7246    0.0000 C   0  0  0  0  0  0  0  0  0  0  0  0
   -0.3774  -13.4871    0.0000 C   0  0  0  0  0  0  0  0  0  0  0  0
   -1.8063  -12.6621    0.0000 C   0  0  0  0  0  0  0  0  0  0  0  0
   -2.5208  -12.2496    0.0000 C   0  0  3  0  0  0  0  0  0  0  0  0
   -3.2353  -13.4871    0.0000 C   0  0  0  0  0  0  0  0  0  0  0  0
   -0.3774  -15.1371    0.0000 C   0  0  0  0  0  0  0  0  0  0  0  0
   -3.2353  -12.6621    0.0000 C   0  0  0  0  0  0  0  0  0  0  0  0
    0.3371  -14.7246    0.0000 C   0  0  0  0  0  0  0  0  0  0  0  0
    0.3371  -13.8996    0.0000 C   0  0  0  0  0  0  0  0  0  0  0  0
   -3.3458  -14.7246    0.0000 C   0  0  0  0  0  0  0  0  0  0  0  0
   -2.9333  -15.4391    0.0000 C   0  0  0  0  0  0  0  0  0  0  0  0
   -2.9333  -11.5351    0.0000 C   0  0  0  0  0  0  0  0  0  0  0  0
    1.0516  -15.1371    0.0000 C   0  0  0  0  0  0  0  0  0  0  0  0
    1.7660  -14.7246    0.0000 C   0  0  0  0  0  0  0  0  0  0  0  0
    2.4805  -15.1371    0.0000 C   0  0  0  0  0  0  0  0  0  0  0  0
    3.1950  -14.7246    0.0000 C   0  0  0  0  0  0  0  0  0  0  0  0
  1  7  1  0  0  0  0
  1  8  1  0  0  0  0
  2  9  1  0  0  0  0
 11  3  1  6  0  0  0
  4  5  1  0  0  0  0
  4  6  1  0  0  0  0
  4 10  1  1  0  0  0
  5  8  2  0  0  0  0
  5  9  1  0  0  0  0
  6  7  1  0  0  0  0
  6 12  1  6  0  0  0
  7 17  1  0  0  0  0
  7 18  1  0  0  0  0
  8 13  1  0  0  0  0
  9 16  2  0  0  0  0
 10 11  1  0  0  0  0
 11 14  1  0  0  0  0
 11 19  1  1  0  0  0
 12 14  1  0  0  0  0
 13 15  2  0  0  0  0
 15 16  1  0  0  0  0
 15 20  1  0  0  0  0
 20 21  1  0  0  0  0
 21 22  1  0  0  0  0
 22 23  1  0  0  0  0
M  END
> <PUBCHEM_COMPOUND_ID_TYPE>
0

> <PUBCHEM_TOTAL_CHARGE>
0

> <PUBCHEM_SUBSTANCE_ID>
310946235

> <PUBCHEM_SUBSTANCE_VERSION>
1

> <PUBCHEM_EXT_DATASOURCE_NAME>
4488

> <PUBCHEM_EXT_DATASOURCE_REGID>
SCHEMBL16124351

> <PUBCHEM_SUBSTANCE_COMMENT>
InChI=1S/C20H30O3/c1-5-6-7-13-10-16(21)18-14-12-20(4,22)9-8-15(14)19(2,3)23-17(18)11-13/h10-11,14-15,21-22H,5-9,12H2,1-4H3/t14-,15-,20+/m1/s1
InChIKey=SHKSNSDRGOBIPR-SXGZJXTBSA-N

> <PUBCHEM_SUBSTANCE_SYNONYM>
SCHEMBL16124351

> <PUBCHEM_XREF_EXT_ID>
SCHEMBL16124351

> <PUBCHEM_EXT_DATASOURCE_URL>
https://www.surechembl.org/

> <PUBCHEM_EXT_SUBSTANCE_URL>
https://www.surechembl.org/chemical/SCHEMBL16124351

> <PUBCHEM_CID_ASSOCIATIONS>
117612183  1

> <PUBCHEM_COORDINATE_TYPE>
1
3

> <PUBCHEM_BONDANNOTATIONS>
11  19  5
11  3  6
4  10  5
6  12  6

$$$$
