310938426
  -OEChem-07211613022D

 16 17  0     0  0  0  0  0  0999 V2000
    0.7013    0.0000    0.0000 S   0  0  0  0  0  0  0  0  0  0  0  0
    2.8051   -2.8876    0.0000 O   0  0  0  0  0  0  0  0  0  0  0  0
    1.3819   -2.8670    0.0000 O   0  0  0  0  0  0  0  0  0  0  0  0
    1.4232   -1.2582    0.0000 N   0  0  0  0  0  0  0  0  0  0  0  0
    2.1039   -0.0206    0.0000 N   0  0  0  0  0  0  0  0  0  0  0  0
    2.8257   -1.2582    0.0000 C   0  0  0  0  0  0  0  0  0  0  0  0
    2.1039   -1.6500    0.0000 C   0  0  0  0  0  0  0  0  0  0  0  0
    2.8257   -0.4125    0.0000 C   0  0  0  0  0  0  0  0  0  0  0  0
    1.4232   -0.4125    0.0000 C   0  0  0  0  0  0  0  0  0  0  0  0
    2.1039   -2.4751    0.0000 C   0  0  0  0  0  0  0  0  0  0  0  0
    3.6095   -1.5057    0.0000 C   0  0  0  0  0  0  0  0  0  0  0  0
    3.6095   -0.1856    0.0000 C   0  0  0  0  0  0  0  0  0  0  0  0
    4.1045   -0.8457    0.0000 C   0  0  0  0  0  0  0  0  0  0  0  0
    2.8051   -3.7127    0.0000 C   0  0  0  0  0  0  0  0  0  0  0  0
    0.0000   -0.4125    0.0000 C   0  0  0  0  0  0  0  0  0  0  0  0
    3.5270   -4.1251    0.0000 C   0  0  0  0  0  0  0  0  0  0  0  0
  1  9  1  0  0  0  0
  1 15  1  0  0  0  0
  2 10  1  0  0  0  0
  2 14  1  0  0  0  0
  3 10  2  0  0  0  0
  4  7  1  0  0  0  0
  4  9  2  0  0  0  0
  5  8  2  0  0  0  0
  5  9  1  0  0  0  0
  6  7  2  0  0  0  0
  6  8  1  0  0  0  0
  6 11  1  0  0  0  0
  7 10  1  0  0  0  0
  8 12  1  0  0  0  0
 11 13  1  0  0  0  0
 12 13  1  0  0  0  0
 14 16  1  0  0  0  0
M  END
> <PUBCHEM_COMPOUND_ID_TYPE>
0

> <PUBCHEM_TOTAL_CHARGE>
0

> <PUBCHEM_SUBSTANCE_ID>
310938426

> <PUBCHEM_SUBSTANCE_VERSION>
1

> <PUBCHEM_EXT_DATASOURCE_NAME>
4488

> <PUBCHEM_EXT_DATASOURCE_REGID>
SCHEMBL16116320

> <PUBCHEM_SUBSTANCE_COMMENT>
InChI=1S/C11H14N2O2S/c1-3-15-10(14)9-7-5-4-6-8(7)12-11(13-9)16-2/h3-6H2,1-2H3
InChIKey=DBXDLKZDOHCOJJ-UHFFFAOYSA-N

> <PUBCHEM_SUBSTANCE_SYNONYM>
SCHEMBL16116320

> <PUBCHEM_XREF_EXT_ID>
SCHEMBL16116320

> <PUBCHEM_EXT_DATASOURCE_URL>
https://www.surechembl.org/

> <PUBCHEM_EXT_SUBSTANCE_URL>
https://www.surechembl.org/chemical/SCHEMBL16116320

> <PUBCHEM_CID_ASSOCIATIONS>
117605892  1

> <PUBCHEM_COORDINATE_TYPE>
1
3

$$$$
