310947615
  -OEChem-07211613022D

 31 30  0     0  0  0  0  0  0999 V2000
    8.2230   -0.4970    0.0000 P   0  0  0  0  0  0  0  0  0  0  0  0
    3.0187    0.8771    0.0000 O   0  0  0  0  0  0  0  0  0  0  0  0
    3.7204   -0.4240    0.0000 O   0  0  0  0  0  0  0  0  0  0  0  0
    4.9484    0.9502    0.0000 N   0  0  0  0  0  0  0  0  0  0  0  0
    7.4336   -0.4970    0.0000 C   0  0  0  0  0  0  0  0  0  0  0  0
    7.0242    0.2485    0.0000 C   0  0  0  0  0  0  0  0  0  0  0  0
    3.7204    0.4824    0.0000 C   0  0  0  0  0  0  0  0  0  0  0  0
    0.9283    0.4824    0.0000 C   0  0  0  0  0  0  0  0  0  0  0  0
    6.2056    0.2485    0.0000 C   0  0  0  0  0  0  0  0  0  0  0  0
   -1.8931    0.4824    0.0000 C   0  0  0  0  0  0  0  0  0  0  0  0
    5.7963    0.9940    0.0000 C   0  0  0  0  0  0  0  0  0  0  0  0
    1.6446    0.8918    0.0000 C   0  0  0  0  0  0  0  0  0  0  0  0
    2.3316    0.4678    0.0000 C   0  0  0  0  0  0  0  0  0  0  0  0
    0.1973    0.8918    0.0000 C   0  0  0  0  0  0  0  0  0  0  0  0
   -1.1914    0.9063    0.0000 C   0  0  0  0  0  0  0  0  0  0  0  0
   -0.4897    0.4824    0.0000 C   0  0  0  0  0  0  0  0  0  0  0  0
   -4.6999    0.4678    0.0000 C   0  0  0  0  0  0  0  0  0  0  0  0
   -2.6094    0.9063    0.0000 C   0  0  0  0  0  0  0  0  0  0  0  0
    7.6967   -0.9940    0.0000 C   0  0  0  0  0  0  0  0  0  0  0  0
    7.1558   -0.9940    0.0000 C   0  0  0  0  0  0  0  0  0  0  0  0
   -3.9982    0.9063    0.0000 C   0  0  0  0  0  0  0  0  0  0  0  0
   -3.3111    0.4824    0.0000 C   0  0  0  0  0  0  0  0  0  0  0  0
   -5.4162    0.9063    0.0000 C   0  0  0  0  0  0  0  0  0  0  0  0
    0.9429   -0.4093    0.0000 C   0  0  0  0  0  0  0  0  0  0  0  0
   -6.1325    0.4970    0.0000 C   0  0  0  0  0  0  0  0  0  0  0  0
   -1.9077   -0.4093    0.0000 C   0  0  0  0  0  0  0  0  0  0  0  0
   -6.8050    0.9063    0.0000 C   0  0  0  0  0  0  0  0  0  0  0  0
   -4.7145   -0.4093    0.0000 C   0  0  0  0  0  0  0  0  0  0  0  0
   -7.5213    0.4970    0.0000 C   0  0  0  0  0  0  0  0  0  0  0  0
   -7.5067   -0.3947    0.0000 C   0  0  0  0  0  0  0  0  0  0  0  0
   -8.2230    0.9063    0.0000 C   0  0  0  0  0  0  0  0  0  0  0  0
  1  5  1  0  0  0  0
  2  7  1  0  0  0  0
  2 13  1  0  0  0  0
  3  7  2  0  0  0  0
  4  7  1  0  0  0  0
  4 11  1  0  0  0  0
  5  6  1  0  0  0  0
  5 19  1  0  0  0  0
  5 20  1  0  0  0  0
  6  9  1  0  0  0  0
  8 12  2  0  0  0  0
  8 14  1  0  0  0  0
  8 24  1  0  0  0  0
  9 11  1  0  0  0  0
 10 15  2  0  0  0  0
 10 18  1  0  0  0  0
 10 26  1  0  0  0  0
 12 13  1  0  0  0  0
 14 16  1  0  0  0  0
 15 16  1  0  0  0  0
 17 21  2  0  0  0  0
 17 23  1  0  0  0  0
 17 28  1  0  0  0  0
 18 22  1  0  0  0  0
 21 22  1  0  0  0  0
 23 25  1  0  0  0  0
 25 27  1  0  0  0  0
 27 29  2  0  0  0  0
 29 30  1  0  0  0  0
 29 31  1  0  0  0  0
M  END
> <PUBCHEM_COMPOUND_ID_TYPE>
0

> <PUBCHEM_TOTAL_CHARGE>
0

> <PUBCHEM_SUBSTANCE_ID>
310947615

> <PUBCHEM_SUBSTANCE_VERSION>
1

> <PUBCHEM_EXT_DATASOURCE_NAME>
4488

> <PUBCHEM_EXT_DATASOURCE_REGID>
SCHEMBL16125780

> <PUBCHEM_SUBSTANCE_COMMENT>
InChI=1S/C27H48NO2P/c1-22(2)12-8-13-23(3)14-9-15-24(4)16-10-17-25(5)18-21-30-26(29)28-20-11-19-27(6,7)31/h12,14,16,18H,8-11,13,15,17,19-21,31H2,1-7H3,(H,28,29)/b23-14+,24-16+,25-18+
InChIKey=XCSTZWCVGZZKEV-WCGUESEVSA-N

> <PUBCHEM_SUBSTANCE_SYNONYM>
SCHEMBL16125780

> <PUBCHEM_XREF_EXT_ID>
SCHEMBL16125780

> <PUBCHEM_EXT_DATASOURCE_URL>
https://www.surechembl.org/

> <PUBCHEM_EXT_SUBSTANCE_URL>
https://www.surechembl.org/chemical/SCHEMBL16125780

> <PUBCHEM_CID_ASSOCIATIONS>
117613335  1

> <PUBCHEM_COORDINATE_TYPE>
1
3

$$$$
