310949170
  -OEChem-07211613022D

 31 35  0     0  0  0  0  0  0999 V2000
    0.3956    2.2725    0.0000 F   0  0  0  0  0  0  0  0  0  0  0  0
   -2.4829   -0.1852    0.0000 F   0  0  0  0  0  0  0  0  0  0  0  0
   -2.5166   -1.8517    0.0000 F   0  0  0  0  0  0  0  0  0  0  0  0
    0.3956   -1.8517    0.0000 F   0  0  0  0  0  0  0  0  0  0  0  0
   -1.0689   -2.6765    0.0000 F   0  0  0  0  0  0  0  0  0  0  0  0
    0.4629    0.8248    0.0000 N   0  0  0  0  0  0  0  0  0  0  0  0
   -0.3451    1.0605    0.0000 C   0  0  0  0  0  0  0  0  0  0  0  0
    0.8501    0.1010    0.0000 C   0  0  0  0  0  0  0  0  0  0  0  0
    1.0689    1.4476    0.0000 C   0  0  0  0  0  0  0  0  0  0  0  0
   -1.0689    0.6734    0.0000 C   0  0  0  0  0  0  0  0  0  0  0  0
    1.6580    0.2020    0.0000 C   0  0  0  0  0  0  0  0  0  0  0  0
    1.8096    1.0436    0.0000 C   0  0  0  0  0  0  0  0  0  0  0  0
   -1.0689   -0.1683    0.0000 C   0  0  0  0  0  0  0  0  0  0  0  0
   -0.3451    1.9022    0.0000 C   0  0  0  0  0  0  0  0  0  0  0  0
   -1.7927   -0.6060    0.0000 C   0  0  0  0  0  0  0  0  0  0  0  0
   -0.3619   -0.5892    0.0000 C   0  0  0  0  0  0  0  0  0  0  0  0
   -1.8096   -1.4308    0.0000 C   0  0  0  0  0  0  0  0  0  0  0  0
   -0.3451   -1.4140    0.0000 C   0  0  0  0  0  0  0  0  0  0  0  0
   -1.7759    1.0605    0.0000 C   0  0  0  0  0  0  0  0  0  0  0  0
   -1.0521   -1.8180    0.0000 C   0  0  0  0  0  0  0  0  0  0  0  0
    0.5302   -0.6397    0.0000 C   0  0  0  0  0  0  0  0  0  0  0  0
    1.0521    2.2220    0.0000 C   0  0  0  0  0  0  0  0  0  0  0  0
    2.1799   -0.4713    0.0000 C   0  0  0  0  0  0  0  0  0  0  0  0
    2.4997    1.4476    0.0000 C   0  0  0  0  0  0  0  0  0  0  0  0
   -1.0689    2.2893    0.0000 C   0  0  0  0  0  0  0  0  0  0  0  0
   -1.7927    1.8517    0.0000 C   0  0  0  0  0  0  0  0  0  0  0  0
    1.0352   -1.3130    0.0000 C   0  0  0  0  0  0  0  0  0  0  0  0
    1.7591    2.6765    0.0000 C   0  0  0  0  0  0  0  0  0  0  0  0
    1.8601   -1.1783    0.0000 C   0  0  0  0  0  0  0  0  0  0  0  0
    2.5166    2.2893    0.0000 C   0  0  0  0  0  0  0  0  0  0  0  0
    0.1936   -0.3199    0.0000 C   0  0  0  0  0  0  0  0  0  0  0  0
  1 14  1  0  0  0  0
  2 15  1  0  0  0  0
  3 17  1  0  0  0  0
  4 18  1  0  0  0  0
  5 20  1  0  0  0  0
  6  7  1  0  0  0  0
  6  8  1  0  0  0  0
  6  9  1  0  0  0  0
  7 10  2  0  0  0  0
  7 14  1  0  0  0  0
  8 11  2  0  0  0  0
  8 21  1  0  0  0  0
  9 12  2  0  0  0  0
  9 22  1  0  0  0  0
 10 13  1  0  0  0  0
 10 19  1  0  0  0  0
 11 12  1  0  0  0  0
 11 23  1  0  0  0  0
 12 24  1  0  0  0  0
 13 15  1  0  0  0  0
 13 16  2  0  0  0  0
 14 25  2  0  0  0  0
 15 17  2  0  0  0  0
 16 18  1  0  0  0  0
 16 31  1  0  0  0  0
 17 20  1  0  0  0  0
 18 20  2  0  0  0  0
 19 26  2  0  0  0  0
 21 27  2  0  0  0  0
 22 28  2  0  0  0  0
 23 29  2  0  0  0  0
 24 30  1  0  0  0  0
 25 26  1  0  0  0  0
 27 29  1  0  0  0  0
 28 30  1  0  0  0  0
M  END
> <PUBCHEM_COMPOUND_ID_TYPE>
0

> <PUBCHEM_TOTAL_CHARGE>
0

> <PUBCHEM_SUBSTANCE_ID>
310949170

> <PUBCHEM_SUBSTANCE_VERSION>
1

> <PUBCHEM_EXT_DATASOURCE_NAME>
4488

> <PUBCHEM_EXT_DATASOURCE_REGID>
SCHEMBL16127360

> <PUBCHEM_SUBSTANCE_COMMENT>
InChI=1S/C25H16F5N/c1-13-20(22(28)24(30)23(29)21(13)27)16-9-6-10-17(26)25(16)31-18-11-4-2-7-14(18)15-8-3-5-12-19(15)31/h2,4-7,9-12H,3,8H2,1H3
InChIKey=RFZLNJZZPSVHGP-UHFFFAOYSA-N

> <PUBCHEM_SUBSTANCE_SYNONYM>
SCHEMBL16127360

> <PUBCHEM_XREF_EXT_ID>
SCHEMBL16127360

> <PUBCHEM_EXT_DATASOURCE_URL>
https://www.surechembl.org/

> <PUBCHEM_EXT_SUBSTANCE_URL>
https://www.surechembl.org/chemical/SCHEMBL16127360

> <PUBCHEM_CID_ASSOCIATIONS>
117614663  1

> <PUBCHEM_COORDINATE_TYPE>
1
3

$$$$
