310944706
  -OEChem-07211613022D

 14 14  0     0  0  0  0  0  0999 V2000
    1.8114    1.5889    0.0000 F   0  0  0  0  0  0  0  0  0  0  0  0
    2.1823    0.4142    0.0000 F   0  0  0  0  0  0  0  0  0  0  0  0
    0.9830    0.0556    0.0000 F   0  0  0  0  0  0  0  0  0  0  0  0
   -2.1823   -0.4142    0.0000 O   0  0  0  0  0  0  0  0  0  0  0  0
   -0.0309    0.8346    0.0000 C   0  0  0  0  0  0  0  0  0  0  0  0
   -0.7481    1.2302    0.0000 C   0  0  0  0  0  0  0  0  0  0  0  0
    1.3910    0.8223    0.0000 C   0  0  0  0  0  0  0  0  0  0  0  0
    0.6739    1.2302    0.0000 C   0  0  0  0  0  0  0  0  0  0  0  0
   -0.0309    0.0062    0.0000 C   0  0  0  0  0  0  0  0  0  0  0  0
   -0.7357   -0.4018    0.0000 C   0  0  0  0  0  0  0  0  0  0  0  0
   -1.4653    0.0062    0.0000 C   0  0  0  0  0  0  0  0  0  0  0  0
   -1.4405    0.8223    0.0000 C   0  0  0  0  0  0  0  0  0  0  0  0
   -0.7481    2.0587    0.0000 C   0  0  0  0  0  0  0  0  0  0  0  0
   -0.7357   -2.0587    0.0000 C   0  0  0  0  0  0  0  0  0  0  0  0
  1  7  1  0  0  0  0
  2  7  1  0  0  0  0
  3  7  1  0  0  0  0
  4 11  1  0  0  0  0
  5  6  2  0  0  0  0
  5  8  1  0  0  0  0
  5  9  1  0  0  0  0
  6 12  1  0  0  0  0
  6 13  1  0  0  0  0
  7  8  1  0  0  0  0
  9 10  2  0  0  0  0
 10 11  1  0  0  0  0
 10 14  1  0  0  0  0
 11 12  2  0  0  0  0
M  END
> <PUBCHEM_COMPOUND_ID_TYPE>
0

> <PUBCHEM_TOTAL_CHARGE>
0

> <PUBCHEM_SUBSTANCE_ID>
310944706

> <PUBCHEM_SUBSTANCE_VERSION>
1

> <PUBCHEM_EXT_DATASOURCE_NAME>
4488

> <PUBCHEM_EXT_DATASOURCE_REGID>
SCHEMBL16122785

> <PUBCHEM_SUBSTANCE_COMMENT>
InChI=1S/C10H11F3O/c1-6-4-9(14)7(2)3-8(6)5-10(11,12)13/h3-4,14H,5H2,1-2H3
InChIKey=LBUSZQCOXIIDDS-UHFFFAOYSA-N

> <PUBCHEM_SUBSTANCE_SYNONYM>
SCHEMBL16122785

> <PUBCHEM_XREF_EXT_ID>
SCHEMBL16122785

> <PUBCHEM_EXT_DATASOURCE_URL>
https://www.surechembl.org/

> <PUBCHEM_EXT_SUBSTANCE_URL>
https://www.surechembl.org/chemical/SCHEMBL16122785

> <PUBCHEM_CID_ASSOCIATIONS>
117610928  1

> <PUBCHEM_COORDINATE_TYPE>
1
3

$$$$
