310949281
  -OEChem-07211613022D

 39 44  0     0  0  0  0  0  0999 V2000
   -0.0090    0.2060    0.0000 N   0  0  0  0  0  0  0  0  0  0  0  0
    2.1761   -0.2597    0.0000 N   0  0  0  0  0  0  0  0  0  0  0  0
   -0.0448   -3.9134    0.0000 N   0  0  0  0  0  0  0  0  0  0  0  0
   -0.7254    0.7254    0.0000 C   0  0  0  0  0  0  0  0  0  0  0  0
    0.6716    0.7254    0.0000 C   0  0  0  0  0  0  0  0  0  0  0  0
   -0.4388    1.4955    0.0000 C   0  0  0  0  0  0  0  0  0  0  0  0
    0.4030    1.4776    0.0000 C   0  0  0  0  0  0  0  0  0  0  0  0
   -0.0090   -0.5821    0.0000 C   0  0  0  0  0  0  0  0  0  0  0  0
   -0.7433   -1.0299    0.0000 C   0  0  0  0  0  0  0  0  0  0  0  0
    0.7433   -1.0120    0.0000 C   0  0  0  0  0  0  0  0  0  0  0  0
   -1.0120    2.0686    0.0000 C   0  0  0  0  0  0  0  0  0  0  0  0
    0.9940    2.0866    0.0000 C   0  0  0  0  0  0  0  0  0  0  0  0
   -1.5493    0.5642    0.0000 C   0  0  0  0  0  0  0  0  0  0  0  0
    1.5134    0.5642    0.0000 C   0  0  0  0  0  0  0  0  0  0  0  0
   -1.4955   -0.5642    0.0000 C   0  0  0  0  0  0  0  0  0  0  0  0
   -1.8358    1.9432    0.0000 C   0  0  0  0  0  0  0  0  0  0  0  0
    1.8179    1.9075    0.0000 C   0  0  0  0  0  0  0  0  0  0  0  0
   -0.7254   -1.8537    0.0000 C   0  0  0  0  0  0  0  0  0  0  0  0
   -2.1223    1.1552    0.0000 C   0  0  0  0  0  0  0  0  0  0  0  0
    2.0686    1.1373    0.0000 C   0  0  0  0  0  0  0  0  0  0  0  0
    0.7074   -1.8716    0.0000 C   0  0  0  0  0  0  0  0  0  0  0  0
   -0.0269   -2.2477    0.0000 C   0  0  0  0  0  0  0  0  0  0  0  0
   -2.4448    2.5343    0.0000 C   0  0  0  0  0  0  0  0  0  0  0  0
    2.3910    2.5522    0.0000 C   0  0  0  0  0  0  0  0  0  0  0  0
    1.4597   -0.6179    0.0000 C   0  0  0  0  0  0  0  0  0  0  0  0
   -2.2298   -1.0120    0.0000 C   0  0  0  0  0  0  0  0  0  0  0  0
   -1.4776    0.2418    0.0000 C   0  0  0  0  0  0  0  0  0  0  0  0
   -0.8865   -0.0090    0.0000 C   0  0  0  0  0  0  0  0  0  0  0  0
   -0.0448   -3.1074    0.0000 C   0  0  0  0  0  0  0  0  0  0  0  0
   -2.1761    3.3224    0.0000 C   0  0  0  0  0  0  0  0  0  0  0  0
    3.2149    2.3731    0.0000 C   0  0  0  0  0  0  0  0  0  0  0  0
   -3.1970    2.3910    0.0000 C   0  0  0  0  0  0  0  0  0  0  0  0
    2.1223    3.3224    0.0000 C   0  0  0  0  0  0  0  0  0  0  0  0
   -2.7134    3.9134    0.0000 C   0  0  0  0  0  0  0  0  0  0  0  0
    3.7522    2.9642    0.0000 C   0  0  0  0  0  0  0  0  0  0  0  0
   -3.7522    2.9642    0.0000 C   0  0  0  0  0  0  0  0  0  0  0  0
    2.6955    3.8955    0.0000 C   0  0  0  0  0  0  0  0  0  0  0  0
   -3.4835    3.7522    0.0000 C   0  0  0  0  0  0  0  0  0  0  0  0
    3.5015    3.7164    0.0000 C   0  0  0  0  0  0  0  0  0  0  0  0
  1  4  1  0  0  0  0
  1  5  1  0  0  0  0
  1  8  1  0  0  0  0
  2 25  3  0  0  0  0
  3 29  3  0  0  0  0
  4  6  2  0  0  0  0
  4 13  1  0  0  0  0
  5  7  2  0  0  0  0
  5 14  1  0  0  0  0
  6  7  1  0  0  0  0
  6 11  1  0  0  0  0
  7 12  1  0  0  0  0
  8  9  1  0  0  0  0
  8 10  2  0  0  0  0
  9 15  1  0  0  0  0
  9 18  2  0  0  0  0
 10 21  1  0  0  0  0
 10 25  1  0  0  0  0
 11 16  2  0  0  0  0
 12 17  2  0  0  0  0
 13 19  2  0  0  0  0
 14 20  2  0  0  0  0
 15 26  1  0  0  0  0
 15 27  1  0  0  0  0
 15 28  1  0  0  0  0
 16 19  1  0  0  0  0
 16 23  1  0  0  0  0
 17 20  1  0  0  0  0
 17 24  1  0  0  0  0
 18 22  1  0  0  0  0
 21 22  2  0  0  0  0
 22 29  1  0  0  0  0
 23 30  2  0  0  0  0
 23 32  1  0  0  0  0
 24 31  2  0  0  0  0
 24 33  1  0  0  0  0
 30 34  1  0  0  0  0
 31 35  1  0  0  0  0
 32 36  2  0  0  0  0
 33 37  2  0  0  0  0
 34 38  2  0  0  0  0
 35 39  2  0  0  0  0
 36 38  1  0  0  0  0
 37 39  1  0  0  0  0
M  END
> <PUBCHEM_COMPOUND_ID_TYPE>
0

> <PUBCHEM_TOTAL_CHARGE>
0

> <PUBCHEM_SUBSTANCE_ID>
310949281

> <PUBCHEM_SUBSTANCE_VERSION>
1

> <PUBCHEM_EXT_DATASOURCE_NAME>
4488

> <PUBCHEM_EXT_DATASOURCE_REGID>
SCHEMBL16127471

> <PUBCHEM_SUBSTANCE_COMMENT>
InChI=1S/C36H27N3/c1-36(2,3)32-19-24(22-37)18-29(23-38)35(32)39-33-16-14-27(25-10-6-4-7-11-25)20-30(33)31-21-28(15-17-34(31)39)26-12-8-5-9-13-26/h4-21H,1-3H3
InChIKey=QMYUKOFTSAIYLE-UHFFFAOYSA-N

> <PUBCHEM_SUBSTANCE_SYNONYM>
SCHEMBL16127471

> <PUBCHEM_XREF_EXT_ID>
SCHEMBL16127471

> <PUBCHEM_EXT_DATASOURCE_URL>
https://www.surechembl.org/

> <PUBCHEM_EXT_SUBSTANCE_URL>
https://www.surechembl.org/chemical/SCHEMBL16127471

> <PUBCHEM_CID_ASSOCIATIONS>
117614767  1

> <PUBCHEM_COORDINATE_TYPE>
1
3

$$$$
