310943681
  -OEChem-07211613022D

 37 40  0     0  0  0  0  0  0999 V2000
    4.6494   -0.8217    0.0000 F   0  0  0  0  0  0  0  0  0  0  0  0
    4.6494   -1.6589    0.0000 F   0  0  0  0  0  0  0  0  0  0  0  0
   -4.6646   -1.2479    0.0000 F   0  0  0  0  0  0  0  0  0  0  0  0
   -3.9493   -2.4959    0.0000 F   0  0  0  0  0  0  0  0  0  0  0  0
   -3.2340   -0.4110    0.0000 O   0  0  0  0  0  0  0  0  0  0  0  0
   -4.6646    2.0850    0.0000 O   0  0  0  0  0  0  0  0  0  0  0  0
    2.5035    2.0698    0.0000 O   0  0  0  0  0  0  0  0  0  0  0  0
   -3.2340    1.2479    0.0000 N   0  0  0  0  0  0  0  0  0  0  0  0
   -1.0729    0.0000    0.0000 N   0  0  0  0  0  0  0  0  0  0  0  0
   -1.7883   -0.4110    0.0000 N   0  0  0  0  0  0  0  0  0  0  0  0
    0.3576    2.4959    0.0000 N   0  0  0  0  0  0  0  0  0  0  0  0
    1.7883    0.8370    0.0000 N   0  0  0  0  0  0  0  0  0  0  0  0
    4.6646    0.0000    0.0000 N   0  0  0  0  0  0  0  0  0  0  0  0
   -1.0729    0.8370    0.0000 C   0  0  0  0  0  0  0  0  0  0  0  0
   -2.5035    0.8370    0.0000 C   0  0  0  0  0  0  0  0  0  0  0  0
   -0.3729    1.2479    0.0000 C   0  0  0  0  0  0  0  0  0  0  0  0
   -2.5187    0.0152    0.0000 C   0  0  0  0  0  0  0  0  0  0  0  0
   -1.8035    1.2479    0.0000 C   0  0  0  0  0  0  0  0  0  0  0  0
   -0.3576    2.0850    0.0000 C   0  0  0  0  0  0  0  0  0  0  0  0
    0.3424    0.8370    0.0000 C   0  0  0  0  0  0  0  0  0  0  0  0
    1.0577    1.2479    0.0000 C   0  0  0  0  0  0  0  0  0  0  0  0
    3.2340    0.8370    0.0000 C   0  0  0  0  0  0  0  0  0  0  0  0
    2.4883    1.2327    0.0000 C   0  0  0  0  0  0  0  0  0  0  0  0
    3.9493   -0.4110    0.0000 C   0  0  0  0  0  0  0  0  0  0  0  0
    1.0729    2.0850    0.0000 C   0  0  0  0  0  0  0  0  0  0  0  0
    3.9493   -1.2175    0.0000 C   0  0  0  0  0  0  0  0  0  0  0  0
   -3.2340    2.0850    0.0000 C   0  0  0  0  0  0  0  0  0  0  0  0
   -3.9188    0.8522    0.0000 C   0  0  0  0  0  0  0  0  0  0  0  0
    3.2340    0.0000    0.0000 C   0  0  0  0  0  0  0  0  0  0  0  0
    3.9340    1.2479    0.0000 C   0  0  0  0  0  0  0  0  0  0  0  0
   -1.0881    2.4806    0.0000 C   0  0  0  0  0  0  0  0  0  0  0  0
    4.6646    0.8370    0.0000 C   0  0  0  0  0  0  0  0  0  0  0  0
   -3.9493    2.4959    0.0000 C   0  0  0  0  0  0  0  0  0  0  0  0
   -4.6646    1.2479    0.0000 C   0  0  0  0  0  0  0  0  0  0  0  0
   -3.2340   -1.2327    0.0000 C   0  0  0  0  0  0  0  0  0  0  0  0
    3.2340   -1.6741    0.0000 C   0  0  0  0  0  0  0  0  0  0  0  0
   -3.9340   -1.6437    0.0000 C   0  0  0  0  0  0  0  0  0  0  0  0
  1 26  1  0  0  0  0
  2 26  1  0  0  0  0
  3 37  1  0  0  0  0
  4 37  1  0  0  0  0
  5 17  1  0  0  0  0
  5 35  1  0  0  0  0
  6 33  1  0  0  0  0
  6 34  1  0  0  0  0
  7 23  2  0  0  0  0
  8 15  1  0  0  0  0
  8 27  1  0  0  0  0
  8 28  1  0  0  0  0
  9 10  1  0  0  0  0
  9 14  2  0  0  0  0
 10 17  2  0  0  0  0
 11 19  2  0  0  0  0
 11 25  1  0  0  0  0
 12 21  1  0  0  0  0
 12 23  1  0  0  0  0
 13 24  2  0  0  0  0
 13 32  1  0  0  0  0
 14 16  1  0  0  0  0
 14 18  1  0  0  0  0
 15 17  1  0  0  0  0
 15 18  2  0  0  0  0
 16 19  1  0  0  0  0
 16 20  2  0  0  0  0
 19 31  1  0  0  0  0
 20 21  1  0  0  0  0
 21 25  2  0  0  0  0
 22 23  1  0  0  0  0
 22 29  2  0  0  0  0
 22 30  1  0  0  0  0
 24 26  1  0  0  0  0
 24 29  1  0  0  0  0
 26 36  1  0  0  0  0
 27 33  1  0  0  0  0
 28 34  1  0  0  0  0
 30 32  2  0  0  0  0
 35 37  1  0  0  0  0
M  END
> <PUBCHEM_COMPOUND_ID_TYPE>
0

> <PUBCHEM_TOTAL_CHARGE>
0

> <PUBCHEM_SUBSTANCE_ID>
310943681

> <PUBCHEM_SUBSTANCE_VERSION>
1

> <PUBCHEM_EXT_DATASOURCE_NAME>
4488

> <PUBCHEM_EXT_DATASOURCE_REGID>
SCHEMBL16121749

> <PUBCHEM_SUBSTANCE_COMMENT>
InChI=1S/C24H24F4N6O3/c1-14-17(10-16(12-30-14)31-22(35)15-3-4-29-20(9-15)24(2,27)28)18-11-19(34-5-7-36-8-6-34)23(33-32-18)37-13-21(25)26/h3-4,9-12,21H,5-8,13H2,1-2H3,(H,31,35)
InChIKey=BASYRTWYANPNGP-UHFFFAOYSA-N

> <PUBCHEM_SUBSTANCE_SYNONYM>
SCHEMBL16121749

> <PUBCHEM_XREF_EXT_ID>
SCHEMBL16121749

> <PUBCHEM_EXT_DATASOURCE_URL>
https://www.surechembl.org/

> <PUBCHEM_EXT_SUBSTANCE_URL>
https://www.surechembl.org/chemical/SCHEMBL16121749

> <PUBCHEM_CID_ASSOCIATIONS>
117610070  1

> <PUBCHEM_COORDINATE_TYPE>
1
3

$$$$
