310929171
  -OEChem-07211613022D

 57 61  0     0  0  0  0  0  0999 V2000
    1.4437   -0.6703    0.0000 S   0  0  0  0  0  0  0  0  0  0  0  0
    3.6609   -2.0624    0.0000 O   0  0  0  0  0  0  0  0  0  0  0  0
    6.3421   -1.8562    0.0000 O   0  0  0  0  0  0  0  0  0  0  0  0
    2.8359   -4.7437    0.0000 O   0  0  0  0  0  0  0  0  0  0  0  0
    0.9796   -1.4437    0.0000 O   0  0  0  0  0  0  0  0  0  0  0  0
    1.8562    0.0000    0.0000 O   0  0  0  0  0  0  0  0  0  0  0  0
    9.1780   -6.7030    0.0000 O   0  0  0  0  0  0  0  0  0  0  0  0
   10.5701   -3.4546    0.0000 O   0  0  0  0  0  0  0  0  0  0  0  0
   12.6842   -3.0421    0.0000 O   0  0  0  0  0  0  0  0  0  0  0  0
   14.7981   -3.4546    0.0000 O   0  0  0  0  0  0  0  0  0  0  0  0
    3.5062   -3.5062    0.0000 N   0  0  0  0  0  0  0  0  0  0  0  0
    2.1656   -1.0828    0.0000 N   0  0  0  0  0  0  0  0  0  0  0  0
    4.2280   -4.7437    0.0000 N   0  0  0  0  0  0  0  0  0  0  0  0
    7.7342   -4.2796    0.0000 N   0  0  0  0  0  0  0  0  0  0  0  0
    8.4561   -3.0421    0.0000 N   0  0  0  0  0  0  0  0  0  0  0  0
   11.2920   -4.6921    0.0000 N   0  0  0  0  0  0  0  0  0  0  0  0
    2.8359   -3.0937    0.0000 C   0  0  0  0  0  0  0  0  0  0  0  0
    4.2280   -3.0937    0.0000 C   0  0  0  0  0  0  0  0  0  0  0  0
    4.2280   -2.3203    0.0000 C   0  0  0  0  0  0  0  0  0  0  0  0
    2.8359   -2.3203    0.0000 C   0  0  0  0  0  0  0  0  0  0  0  0
    4.9499   -1.9078    0.0000 C   0  0  0  0  0  0  0  0  0  0  0  0
    2.1140   -1.9078    0.0000 C   0  0  0  0  0  0  0  0  0  0  0  0
    1.4437   -3.1452    0.0000 C   0  0  0  0  0  0  0  0  0  0  0  0
    2.1140   -3.5062    0.0000 C   0  0  0  0  0  0  0  0  0  0  0  0
    5.6202   -2.2687    0.0000 C   0  0  0  0  0  0  0  0  0  0  0  0
    3.5062   -4.3312    0.0000 C   0  0  0  0  0  0  0  0  0  0  0  0
    4.9499   -3.5062    0.0000 C   0  0  0  0  0  0  0  0  0  0  0  0
    1.4437   -2.3203    0.0000 C   0  0  0  0  0  0  0  0  0  0  0  0
    0.7218   -3.5062    0.0000 C   0  0  0  0  0  0  0  0  0  0  0  0
    5.6202   -3.0937    0.0000 C   0  0  0  0  0  0  0  0  0  0  0  0
    3.5062   -1.9078    0.0000 C   0  0  0  0  0  0  0  0  0  0  0  0
    4.9499   -1.0828    0.0000 C   0  0  0  0  0  0  0  0  0  0  0  0
    3.5062   -1.0828    0.0000 C   0  0  0  0  0  0  0  0  0  0  0  0
    4.2280   -0.6703    0.0000 C   0  0  0  0  0  0  0  0  0  0  0  0
    7.0124   -2.2687    0.0000 C   0  0  0  0  0  0  0  0  0  0  0  0
    0.3093   -2.7843    0.0000 C   0  0  0  0  0  0  0  0  0  0  0  0
    0.0000   -3.9187    0.0000 C   0  0  0  0  0  0  0  0  0  0  0  0
    1.1343   -4.2280    0.0000 C   0  0  0  0  0  0  0  0  0  0  0  0
    7.0639   -3.0937    0.0000 C   0  0  0  0  0  0  0  0  0  0  0  0
    3.6609   -1.2375    0.0000 C   0  0  0  0  0  0  0  0  0  0  0  0
    7.7342   -3.4546    0.0000 C   0  0  0  0  0  0  0  0  0  0  0  0
    7.7342   -1.8562    0.0000 C   0  0  0  0  0  0  0  0  0  0  0  0
    0.7218   -0.2578    0.0000 C   0  0  0  0  0  0  0  0  0  0  0  0
    8.4561   -4.6921    0.0000 C   0  0  0  0  0  0  0  0  0  0  0  0
    8.4561   -2.2687    0.0000 C   0  0  0  0  0  0  0  0  0  0  0  0
    9.8483   -4.6921    0.0000 C   0  0  0  0  0  0  0  0  0  0  0  0
    9.1780   -4.2796    0.0000 C   0  0  0  0  0  0  0  0  0  0  0  0
    8.4561   -5.5171    0.0000 C   0  0  0  0  0  0  0  0  0  0  0  0
    9.1780   -5.8780    0.0000 C   0  0  0  0  0  0  0  0  0  0  0  0
    9.8483   -5.5171    0.0000 C   0  0  0  0  0  0  0  0  0  0  0  0
   10.5701   -4.2796    0.0000 C   0  0  0  0  0  0  0  0  0  0  0  0
   11.9623   -4.2796    0.0000 C   0  0  0  0  0  0  0  0  0  0  0  0
    9.8998   -7.1155    0.0000 C   0  0  0  0  0  0  0  0  0  0  0  0
   11.9623   -3.4546    0.0000 C   0  0  0  0  0  0  0  0  0  0  0  0
   13.4060   -3.4546    0.0000 C   0  0  0  0  0  0  0  0  0  0  0  0
   14.0763   -3.0421    0.0000 C   0  0  0  0  0  0  0  0  0  0  0  0
   15.4684   -3.0421    0.0000 C   0  0  0  0  0  0  0  0  0  0  0  0
  1  5  2  0  0  0  0
  1  6  2  0  0  0  0
  1 12  1  0  0  0  0
  1 43  1  0  0  0  0
  2 20  1  0  0  0  0
  2 40  1  0  0  0  0
  3 25  1  0  0  0  0
  3 35  1  0  0  0  0
  4 26  2  0  0  0  0
  7 49  1  0  0  0  0
  7 53  1  0  0  0  0
  8 51  2  0  0  0  0
  9 54  1  0  0  0  0
  9 55  1  0  0  0  0
 10 56  1  0  0  0  0
 10 57  1  0  0  0  0
 11 17  1  0  0  0  0
 11 18  1  0  0  0  0
 11 26  1  0  0  0  0
 12 22  1  0  0  0  0
 13 26  1  0  0  0  0
 14 41  1  0  0  0  0
 14 44  1  0  0  0  0
 15 41  2  0  0  0  0
 15 45  1  0  0  0  0
 16 51  1  0  0  0  0
 16 52  1  0  0  0  0
 17 20  1  0  0  0  0
 17 24  2  0  0  0  0
 18 19  1  0  0  0  0
 18 27  2  0  0  0  0
 19 21  2  0  0  0  0
 19 31  1  0  0  0  0
 20 22  2  0  0  0  0
 21 25  1  0  0  0  0
 21 32  1  0  0  0  0
 22 28  1  0  0  0  0
 23 24  1  0  0  0  0
 23 28  2  0  0  0  0
 23 29  1  0  0  0  0
 25 30  2  0  0  0  0
 27 30  1  0  0  0  0
 29 36  1  0  0  0  0
 29 37  1  0  0  0  0
 29 38  1  0  0  0  0
 31 33  2  0  0  0  0
 32 34  2  0  0  0  0
 33 34  1  0  0  0  0
 35 39  2  0  0  0  0
 35 42  1  0  0  0  0
 39 41  1  0  0  0  0
 42 45  2  0  0  0  0
 44 47  1  0  0  0  0
 44 48  2  0  0  0  0
 46 47  2  0  0  0  0
 46 50  1  0  0  0  0
 46 51  1  0  0  0  0
 48 49  1  0  0  0  0
 49 50  2  0  0  0  0
 52 54  1  0  0  0  0
 55 56  1  0  0  0  0
M  END
> <PUBCHEM_COMPOUND_ID_TYPE>
0

> <PUBCHEM_TOTAL_CHARGE>
0

> <PUBCHEM_SUBSTANCE_ID>
310929171

> <PUBCHEM_SUBSTANCE_VERSION>
1

> <PUBCHEM_EXT_DATASOURCE_NAME>
4488

> <PUBCHEM_EXT_DATASOURCE_REGID>
SCHEMBL16106334

> <PUBCHEM_SUBSTANCE_COMMENT>
InChI=1S/C41H48N6O9S/c1-41(2,3)27-22-33(46-57(7,50)51)38(54-6)35(23-27)47(40(42)49)34-12-13-36(32-11-9-8-10-31(32)34)56-29-14-15-43-37(25-29)45-28-20-26(21-30(24-28)53-5)39(48)44-16-17-55-19-18-52-4/h8-15,20-25,46H,16-19H2,1-7H3,(H2,42,49)(H,43,45)(H,44,48)
InChIKey=HXWIIJKCOVHUDJ-UHFFFAOYSA-N

> <PUBCHEM_SUBSTANCE_SYNONYM>
SCHEMBL16106334

> <PUBCHEM_XREF_EXT_ID>
SCHEMBL16106334

> <PUBCHEM_EXT_DATASOURCE_URL>
https://www.surechembl.org/

> <PUBCHEM_EXT_SUBSTANCE_URL>
https://www.surechembl.org/chemical/SCHEMBL16106334

> <PUBCHEM_CID_ASSOCIATIONS>
117598630  1

> <PUBCHEM_COORDINATE_TYPE>
1
3

$$$$
