310948248
  -OEChem-07211613022D

 36 41  0     1  0  0  0  0  0999 V2000
   -1.3743   -2.4443    0.0000 S   0  0  0  0  0  0  0  0  0  0  0  0
   -1.9462   -3.0346    0.0000 O   0  0  0  0  0  0  0  0  0  0  0  0
   -2.1676   -2.2413    0.0000 O   0  0  0  0  0  0  0  0  0  0  0  0
   -2.5919    2.2967    0.0000 O   0  0  0  0  0  0  0  0  0  0  0  0
   -0.5442   -2.5365    0.0000 N   0  0  3  0  0  0  0  0  0  0  0  0
    0.1753    2.1492    0.0000 N   0  0  0  0  0  0  0  0  0  0  0  0
   -0.1568    1.3928    0.0000 N   0  0  0  0  0  0  0  0  0  0  0  0
   -1.5404    0.8578    0.0000 N   0  0  0  0  0  0  0  0  0  0  0  0
   -1.8724    3.5511    0.0000 N   0  0  0  0  0  0  0  0  0  0  0  0
    1.0238    0.1383    0.0000 N   0  0  0  0  0  0  0  0  0  0  0  0
   -1.5404   -1.6142    0.0000 C   0  0  0  0  0  0  0  0  0  0  0  0
   -1.1345    2.2967    0.0000 C   0  0  0  0  0  0  0  0  0  0  0  0
   -0.8394   -1.1899    0.0000 C   0  0  0  0  0  0  0  0  0  0  0  0
   -0.4520    2.7210    0.0000 C   0  0  0  0  0  0  0  0  0  0  0  0
   -0.9869    1.5035    0.0000 C   0  0  0  0  0  0  0  0  0  0  0  0
   -0.2121   -1.7618    0.0000 C   0  0  0  0  0  0  0  0  0  0  0  0
   -1.5404    0.0277    0.0000 C   0  0  0  0  0  0  0  0  0  0  0  0
    0.9685    2.3336    0.0000 C   0  0  3  0  0  0  0  0  0  0  0  0
   -0.8209   -0.3966    0.0000 C   0  0  0  0  0  0  0  0  0  0  0  0
   -1.8724    2.7210    0.0000 C   0  0  0  0  0  0  0  0  0  0  0  0
   -2.2413   -1.2083    0.0000 C   0  0  0  0  0  0  0  0  0  0  0  0
   -2.2413   -0.3782    0.0000 C   0  0  0  0  0  0  0  0  0  0  0  0
   -0.4335    3.5511    0.0000 C   0  0  0  0  0  0  0  0  0  0  0  0
   -0.1383   -3.2191    0.0000 C   0  0  0  0  0  0  0  0  0  0  0  0
    1.5219    1.7433    0.0000 C   0  0  3  0  0  0  0  0  0  0  0  0
   -1.1899    3.9570    0.0000 C   0  0  0  0  0  0  0  0  0  0  0  0
    1.2452    3.1084    0.0000 C   0  0  0  0  0  0  0  0  0  0  0  0
    0.7102   -3.2376    0.0000 C   0  0  0  0  0  0  0  0  0  0  0  0
    2.3336    1.8909    0.0000 C   0  0  0  0  0  0  0  0  0  0  0  0
    1.2821    0.9501    0.0000 C   0  0  0  0  0  0  0  0  0  0  0  0
    2.0569    3.2744    0.0000 C   0  0  0  0  0  0  0  0  0  0  0  0
    2.5919    2.6841    0.0000 C   0  0  0  0  0  0  0  0  0  0  0  0
    1.1345   -3.9570    0.0000 C   0  0  0  0  0  0  0  0  0  0  0  0
    1.2452   -2.6473    0.0000 C   0  0  0  0  0  0  0  0  0  0  0  0
    2.0016   -2.9608    0.0000 C   0  0  0  0  0  0  0  0  0  0  0  0
    1.9093   -3.7725    0.0000 C   0  0  0  0  0  0  0  0  0  0  0  0
  1  2  2  0  0  0  0
  1  3  2  0  0  0  0
  1  5  1  0  0  0  0
  1 11  1  0  0  0  0
  4 20  2  0  0  0  0
  5 16  1  0  0  0  0
  5 24  1  0  0  0  0
  6  7  1  0  0  0  0
  6 14  1  0  0  0  0
 18  6  1  1  0  0  0
  7 15  2  0  0  0  0
  8 15  1  0  0  0  0
  8 17  1  0  0  0  0
  9 20  1  0  0  0  0
  9 26  1  0  0  0  0
 10 30  3  0  0  0  0
 11 13  1  0  0  0  0
 11 21  2  0  0  0  0
 12 14  2  0  0  0  0
 12 15  1  0  0  0  0
 12 20  1  0  0  0  0
 13 16  1  0  0  0  0
 13 19  2  0  0  0  0
 14 23  1  0  0  0  0
 17 19  1  0  0  0  0
 17 22  2  0  0  0  0
 18 25  1  0  0  0  0
 18 27  1  0  0  0  0
 21 22  1  0  0  0  0
 23 26  2  0  0  0  0
 24 28  1  0  0  0  0
 25 29  1  0  0  0  0
 25 30  1  6  0  0  0
 27 31  1  0  0  0  0
 28 33  1  0  0  0  0
 28 34  1  0  0  0  0
 29 32  1  0  0  0  0
 31 32  1  0  0  0  0
 33 36  1  0  0  0  0
 34 35  1  0  0  0  0
 35 36  1  0  0  0  0
M  END
> <PUBCHEM_COMPOUND_ID_TYPE>
0

> <PUBCHEM_TOTAL_CHARGE>
0

> <PUBCHEM_SUBSTANCE_ID>
310948248

> <PUBCHEM_SUBSTANCE_VERSION>
1

> <PUBCHEM_EXT_DATASOURCE_NAME>
4488

> <PUBCHEM_EXT_DATASOURCE_REGID>
SCHEMBL16126425

> <PUBCHEM_SUBSTANCE_COMMENT>
InChI=1S/C26H30N6O3S/c27-14-18-7-3-4-8-21(18)32-22-11-12-28-26(33)24(22)25(30-32)29-20-9-10-23-19(13-20)16-31(36(23,34)35)15-17-5-1-2-6-17/h9-13,17-18,21H,1-8,15-16H2,(H,28,33)(H,29,30)/t18-,21+/m1/s1
InChIKey=HCCXMIRNDZFAAS-NQIIRXRSSA-N

> <PUBCHEM_SUBSTANCE_SYNONYM>
SCHEMBL16126425

> <PUBCHEM_XREF_EXT_ID>
SCHEMBL16126425

> <PUBCHEM_EXT_DATASOURCE_URL>
https://www.surechembl.org/

> <PUBCHEM_EXT_SUBSTANCE_URL>
https://www.surechembl.org/chemical/SCHEMBL16126425

> <PUBCHEM_CID_ASSOCIATIONS>
117613828  1

> <PUBCHEM_COORDINATE_TYPE>
1
3

> <PUBCHEM_BONDANNOTATIONS>
25  30  6
18  6  5

$$$$
