310944411
  -OEChem-07211613022D

 16 17  0     1  0  0  0  0  0999 V2000
    1.4046   -1.5160    0.0000 O   0  0  0  0  0  0  0  0  0  0  0  0
    2.8202   -0.7468    0.0000 O   0  0  0  0  0  0  0  0  0  0  0  0
   -1.4937    0.9586    0.0000 N   0  0  0  0  0  0  0  0  0  0  0  0
   -0.0446    0.9586    0.0000 N   0  0  0  0  0  0  0  0  0  0  0  0
   -0.0446   -0.6911    0.0000 N   0  0  0  0  0  0  0  0  0  0  0  0
   -2.2628    0.6131    0.0000 N   0  0  0  0  0  0  0  0  0  0  0  0
   -2.8202    1.2262    0.0000 N   0  0  0  0  0  0  0  0  0  0  0  0
   -2.3966    1.9507    0.0000 N   0  0  0  0  0  0  0  0  0  0  0  0
   -0.7580    0.5462    0.0000 C   0  0  0  0  0  0  0  0  0  0  0  0
    0.6688   -0.2787    0.0000 C   0  0  0  0  0  0  0  0  0  0  0  0
   -0.7691   -0.2787    0.0000 C   0  0  0  0  0  0  0  0  0  0  0  0
    1.4157   -0.6911    0.0000 C   0  0  3  0  0  0  0  0  0  0  0  0
    0.6911    0.5350    0.0000 C   0  0  0  0  0  0  0  0  0  0  0  0
   -1.5718    1.7724    0.0000 C   0  0  0  0  0  0  0  0  0  0  0  0
    2.1291   -0.2898    0.0000 C   0  0  0  0  0  0  0  0  0  0  0  0
    2.1402   -1.9507    0.0000 C   0  0  0  0  0  0  0  0  0  0  0  0
 12  1  1  6  0  0  0
  1 16  1  0  0  0  0
  2 15  2  0  0  0  0
  3  6  1  0  0  0  0
  3  9  1  0  0  0  0
  3 14  1  0  0  0  0
  4  9  1  0  0  0  0
  4 13  2  0  0  0  0
  5 10  2  0  0  0  0
  5 11  1  0  0  0  0
  6  7  2  0  0  0  0
  7  8  1  0  0  0  0
  8 14  2  0  0  0  0
  9 11  2  0  0  0  0
 10 12  1  0  0  0  0
 10 13  1  0  0  0  0
 12 15  1  0  0  0  0
M  END
> <PUBCHEM_COMPOUND_ID_TYPE>
0

> <PUBCHEM_TOTAL_CHARGE>
0

> <PUBCHEM_SUBSTANCE_ID>
310944411

> <PUBCHEM_SUBSTANCE_VERSION>
1

> <PUBCHEM_EXT_DATASOURCE_NAME>
4488

> <PUBCHEM_EXT_DATASOURCE_REGID>
SCHEMBL16122486

> <PUBCHEM_SUBSTANCE_COMMENT>
InChI=1S/C8H8N6O2/c1-16-7(4-15)6-2-10-8(3-9-6)14-5-11-12-13-14/h2-5,7H,1H3/t7-/m0/s1
InChIKey=QYDRQUORZIZBIY-ZETCQYMHSA-N

> <PUBCHEM_SUBSTANCE_SYNONYM>
SCHEMBL16122486

> <PUBCHEM_XREF_EXT_ID>
SCHEMBL16122486

> <PUBCHEM_EXT_DATASOURCE_URL>
https://www.surechembl.org/

> <PUBCHEM_EXT_SUBSTANCE_URL>
https://www.surechembl.org/chemical/SCHEMBL16122486

> <PUBCHEM_CID_ASSOCIATIONS>
117610667  1

> <PUBCHEM_COORDINATE_TYPE>
1
3

> <PUBCHEM_BONDANNOTATIONS>
12  1  6

$$$$
