310931888
  -OEChem-07211613022D

 32 36  0     0  0  0  0  0  0999 V2000
    2.8433   -2.1239    0.0000 O   0  0  0  0  0  0  0  0  0  0  0  0
    0.1370   -2.3637    0.0000 O   0  0  0  0  0  0  0  0  0  0  0  0
    7.3308   -2.2267    0.0000 O   0  0  0  0  0  0  0  0  0  0  0  0
    3.7339   -0.9934    0.0000 N   0  0  0  0  0  0  0  0  0  0  0  0
    3.6654   -0.1370    0.0000 N   0  0  0  0  0  0  0  0  0  0  0  0
    5.1727   -0.9934    0.0000 N   0  0  0  0  0  0  0  0  0  0  0  0
    8.7696   -4.6588    0.0000 N   0  0  0  0  0  0  0  0  0  0  0  0
    6.6114   -3.4599    0.0000 N   0  0  0  0  0  0  0  0  0  0  0  0
    0.0000   -0.9934    0.0000 N   0  0  0  0  0  0  0  0  0  0  0  0
    2.4322   -0.7194    0.0000 C   0  0  0  0  0  0  0  0  0  0  0  0
    3.0145   -1.3017    0.0000 C   0  0  0  0  0  0  0  0  0  0  0  0
    4.4533   -1.4045    0.0000 C   0  0  0  0  0  0  0  0  0  0  0  0
    1.6100   -0.7879    0.0000 C   0  0  0  0  0  0  0  0  0  0  0  0
    2.8433    0.0000    0.0000 C   0  0  0  0  0  0  0  0  0  0  0  0
    4.4533   -2.2267    0.0000 C   0  0  0  0  0  0  0  0  0  0  0  0
    5.8921   -2.2267    0.0000 C   0  0  0  0  0  0  0  0  0  0  0  0
    1.3017   -1.5758    0.0000 C   0  0  0  0  0  0  0  0  0  0  0  0
    1.1647   -0.1370    0.0000 C   0  0  0  0  0  0  0  0  0  0  0  0
    5.8921   -1.4045    0.0000 C   0  0  0  0  0  0  0  0  0  0  0  0
    5.1727   -2.6035    0.0000 C   0  0  0  0  0  0  0  0  0  0  0  0
    6.6114   -2.6035    0.0000 C   0  0  0  0  0  0  0  0  0  0  0  0
    9.4547   -5.0699    0.0000 C   0  0  0  0  0  0  0  0  0  0  0  0
    0.4796   -1.6443    0.0000 C   0  0  0  0  0  0  0  0  0  0  0  0
    7.3308   -3.8710    0.0000 C   0  0  0  0  0  0  0  0  0  0  0  0
    0.3083   -0.2056    0.0000 C   0  0  0  0  0  0  0  0  0  0  0  0
   10.2768   -5.0699    0.0000 C   0  0  0  0  0  0  0  0  0  0  0  0
    9.9000   -5.8236    0.0000 C   0  0  0  0  0  0  0  0  0  0  0  0
    8.0502   -5.1042    0.0000 C   0  0  0  0  0  0  0  0  0  0  0  0
    8.7696   -3.8710    0.0000 C   0  0  0  0  0  0  0  0  0  0  0  0
    7.3308   -4.6931    0.0000 C   0  0  0  0  0  0  0  0  0  0  0  0
    8.0502   -3.4599    0.0000 C   0  0  0  0  0  0  0  0  0  0  0  0
    0.6166   -3.0488    0.0000 C   0  0  0  0  0  0  0  0  0  0  0  0
  1 11  1  0  0  0  0
  2 23  1  0  0  0  0
  2 32  1  0  0  0  0
  3 21  2  0  0  0  0
  4  5  1  0  0  0  0
  4 11  1  0  0  0  0
  4 12  1  0  0  0  0
  5 14  2  0  0  0  0
  6 12  2  0  0  0  0
  6 19  1  0  0  0  0
  7 22  1  0  0  0  0
  7 28  1  0  0  0  0
  7 29  1  0  0  0  0
  8 21  1  0  0  0  0
  8 24  1  0  0  0  0
  9 23  1  0  0  0  0
  9 25  2  0  0  0  0
 10 11  2  0  0  0  0
 10 13  1  0  0  0  0
 10 14  1  0  0  0  0
 12 15  1  0  0  0  0
 13 17  1  0  0  0  0
 13 18  2  0  0  0  0
 15 20  2  0  0  0  0
 16 19  2  0  0  0  0
 16 20  1  0  0  0  0
 16 21  1  0  0  0  0
 17 23  2  0  0  0  0
 18 25  1  0  0  0  0
 22 26  1  0  0  0  0
 22 27  1  0  0  0  0
 24 30  1  0  0  0  0
 24 31  1  0  0  0  0
 26 27  1  0  0  0  0
 28 30  1  0  0  0  0
 29 31  1  0  0  0  0
M  END
> <PUBCHEM_COMPOUND_ID_TYPE>
0

> <PUBCHEM_TOTAL_CHARGE>
0

> <PUBCHEM_SUBSTANCE_ID>
310931888

> <PUBCHEM_SUBSTANCE_VERSION>
1

> <PUBCHEM_EXT_DATASOURCE_NAME>
4488

> <PUBCHEM_EXT_DATASOURCE_REGID>
SCHEMBL16109223

> <PUBCHEM_SUBSTANCE_COMMENT>
InChI=1S/C23H26N6O3/c1-32-21-12-15(6-9-24-21)19-14-26-29(23(19)31)20-5-2-16(13-25-20)22(30)27-17-7-10-28(11-8-17)18-3-4-18/h2,5-6,9,12-14,17-18,31H,3-4,7-8,10-11H2,1H3,(H,27,30)
InChIKey=OKDABYRPWBVETG-UHFFFAOYSA-N

> <PUBCHEM_SUBSTANCE_SYNONYM>
SCHEMBL16109223

> <PUBCHEM_XREF_EXT_ID>
SCHEMBL16109223

> <PUBCHEM_EXT_DATASOURCE_URL>
https://www.surechembl.org/

> <PUBCHEM_EXT_SUBSTANCE_URL>
https://www.surechembl.org/chemical/SCHEMBL16109223

> <PUBCHEM_CID_ASSOCIATIONS>
117600547  1

> <PUBCHEM_COORDINATE_TYPE>
1
3

$$$$
