310945018
  -OEChem-07211613022D

 18 20  0     0  0  0  0  0  0999 V2000
   -3.9293    0.0264    0.0000 N   0  0  0  0  0  0  0  0  0  0  0  0
   -1.4096   -0.0088    0.0000 C   0  0  0  0  0  0  0  0  0  0  0  0
   -2.2553    0.0088    0.0000 C   0  0  0  0  0  0  0  0  0  0  0  0
    0.2467    0.0088    0.0000 C   0  0  0  0  0  0  0  0  0  0  0  0
   -0.9867    0.6960    0.0000 C   0  0  0  0  0  0  0  0  0  0  0  0
   -0.9867   -0.6960    0.0000 C   0  0  0  0  0  0  0  0  0  0  0  0
   -0.1586    0.6960    0.0000 C   0  0  0  0  0  0  0  0  0  0  0  0
   -0.1586   -0.6960    0.0000 C   0  0  0  0  0  0  0  0  0  0  0  0
   -2.6606    0.6960    0.0000 C   0  0  0  0  0  0  0  0  0  0  0  0
   -2.6606   -0.7136    0.0000 C   0  0  0  0  0  0  0  0  0  0  0  0
    1.0924   -0.0088    0.0000 C   0  0  0  0  0  0  0  0  0  0  0  0
   -3.4888    0.7136    0.0000 C   0  0  0  0  0  0  0  0  0  0  0  0
   -3.5240   -0.6960    0.0000 C   0  0  0  0  0  0  0  0  0  0  0  0
    2.7839   -0.0088    0.0000 C   0  0  0  0  0  0  0  0  0  0  0  0
    1.9382    0.0088    0.0000 C   0  0  0  0  0  0  0  0  0  0  0  0
    3.3478    0.5550    0.0000 C   0  0  0  0  0  0  0  0  0  0  0  0
    3.3654   -0.5726    0.0000 C   0  0  0  0  0  0  0  0  0  0  0  0
    3.9293    0.0088    0.0000 C   0  0  0  0  0  0  0  0  0  0  0  0
  1 12  2  0  0  0  0
  1 13  1  0  0  0  0
  2  3  1  0  0  0  0
  2  5  2  0  0  0  0
  2  6  1  0  0  0  0
  3  9  2  0  0  0  0
  3 10  1  0  0  0  0
  4  7  2  0  0  0  0
  4  8  1  0  0  0  0
  4 11  1  0  0  0  0
  5  7  1  0  0  0  0
  6  8  2  0  0  0  0
  9 12  1  0  0  0  0
 10 13  2  0  0  0  0
 11 15  3  0  0  0  0
 14 15  1  0  0  0  0
 14 16  1  0  0  0  0
 14 17  1  0  0  0  0
 16 18  1  0  0  0  0
 17 18  1  0  0  0  0
M  END
> <PUBCHEM_COMPOUND_ID_TYPE>
0

> <PUBCHEM_TOTAL_CHARGE>
0

> <PUBCHEM_SUBSTANCE_ID>
310945018

> <PUBCHEM_SUBSTANCE_VERSION>
1

> <PUBCHEM_EXT_DATASOURCE_NAME>
4488

> <PUBCHEM_EXT_DATASOURCE_REGID>
SCHEMBL16123106

> <PUBCHEM_SUBSTANCE_COMMENT>
InChI=1S/C17H15N/c1-2-14(3-1)4-5-15-6-8-16(9-7-15)17-10-12-18-13-11-17/h6-14H,1-3H2
InChIKey=IPRBPGOECLRIDR-UHFFFAOYSA-N

> <PUBCHEM_SUBSTANCE_SYNONYM>
SCHEMBL16123106

> <PUBCHEM_XREF_EXT_ID>
SCHEMBL16123106

> <PUBCHEM_EXT_DATASOURCE_URL>
https://www.surechembl.org/

> <PUBCHEM_EXT_SUBSTANCE_URL>
https://www.surechembl.org/chemical/SCHEMBL16123106

> <PUBCHEM_CID_ASSOCIATIONS>
117611156  1

> <PUBCHEM_COORDINATE_TYPE>
1
3

$$$$
