310930421
  -OEChem-07211613022D

 29 32  0     0  0  0  0  0  0999 V2000
    6.4525   -2.1728    0.0000 S   0  0  0  0  0  0  0  0  0  0  0  0
    2.2057   -6.4195    0.0000 S   0  0  0  0  0  0  0  0  0  0  0  0
    5.6623   -1.7119    0.0000 O   0  0  0  0  0  0  0  0  0  0  0  0
    7.1109   -2.5678    0.0000 O   0  0  0  0  0  0  0  0  0  0  0  0
    3.9176   -6.4853    0.0000 O   0  0  0  0  0  0  0  0  0  0  0  0
    3.9176   -5.0369    0.0000 N   0  0  0  0  0  0  0  0  0  0  0  0
    6.8804    0.0000    0.0000 N   0  0  0  0  0  0  0  0  0  0  0  0
    0.0000   -6.1891    0.0000 N   0  0  0  0  0  0  0  0  0  0  0  0
    6.0245   -2.8970    0.0000 C   0  0  0  0  0  0  0  0  0  0  0  0
    6.8804   -1.4485    0.0000 C   0  0  0  0  0  0  0  0  0  0  0  0
    2.6995   -5.7611    0.0000 C   0  0  0  0  0  0  0  0  0  0  0  0
    1.4156   -6.1891    0.0000 C   0  0  0  0  0  0  0  0  0  0  0  0
    1.4156   -5.3332    0.0000 C   0  0  0  0  0  0  0  0  0  0  0  0
    2.2057   -5.1027    0.0000 C   0  0  0  0  0  0  0  0  0  0  0  0
    5.2015   -2.8641    0.0000 C   0  0  0  0  0  0  0  0  0  0  0  0
    6.4195   -3.6213    0.0000 C   0  0  0  0  0  0  0  0  0  0  0  0
    7.7035   -1.4485    0.0000 C   0  0  0  0  0  0  0  0  0  0  0  0
    3.5225   -5.7611    0.0000 C   0  0  0  0  0  0  0  0  0  0  0  0
    6.4853   -0.7242    0.0000 C   0  0  0  0  0  0  0  0  0  0  0  0
    5.2015   -4.3126    0.0000 C   0  0  0  0  0  0  0  0  0  0  0  0
    4.7735   -3.5883    0.0000 C   0  0  0  0  0  0  0  0  0  0  0  0
    6.0245   -4.3126    0.0000 C   0  0  0  0  0  0  0  0  0  0  0  0
    8.0985   -0.7242    0.0000 C   0  0  0  0  0  0  0  0  0  0  0  0
    0.6584   -6.5841    0.0000 C   0  0  0  0  0  0  0  0  0  0  0  0
    0.6584   -4.9381    0.0000 C   0  0  0  0  0  0  0  0  0  0  0  0
    4.7735   -5.0369    0.0000 C   0  0  0  0  0  0  0  0  0  0  0  0
    7.7363    0.0000    0.0000 C   0  0  0  0  0  0  0  0  0  0  0  0
    0.0000   -5.3332    0.0000 C   0  0  0  0  0  0  0  0  0  0  0  0
    8.9544   -0.7572    0.0000 C   0  0  0  0  0  0  0  0  0  0  0  0
  1  3  2  0  0  0  0
  1  4  2  0  0  0  0
  1  9  1  0  0  0  0
  1 10  1  0  0  0  0
  2 11  1  0  0  0  0
  2 12  1  0  0  0  0
  5 18  2  0  0  0  0
  6 18  1  0  0  0  0
  6 26  1  0  0  0  0
  7 19  1  0  0  0  0
  7 27  2  0  0  0  0
  8 24  1  0  0  0  0
  8 28  2  0  0  0  0
  9 15  2  0  0  0  0
  9 16  1  0  0  0  0
 10 17  1  0  0  0  0
 10 19  2  0  0  0  0
 11 14  2  0  0  0  0
 11 18  1  0  0  0  0
 12 13  1  0  0  0  0
 12 24  2  0  0  0  0
 13 14  1  0  0  0  0
 13 25  2  0  0  0  0
 15 21  1  0  0  0  0
 16 22  2  0  0  0  0
 17 23  2  0  0  0  0
 20 21  2  0  0  0  0
 20 22  1  0  0  0  0
 20 26  1  0  0  0  0
 23 27  1  0  0  0  0
 23 29  1  0  0  0  0
 25 28  1  0  0  0  0
M  END
> <PUBCHEM_COMPOUND_ID_TYPE>
0

> <PUBCHEM_TOTAL_CHARGE>
0

> <PUBCHEM_SUBSTANCE_ID>
310930421

> <PUBCHEM_SUBSTANCE_VERSION>
1

> <PUBCHEM_EXT_DATASOURCE_NAME>
4488

> <PUBCHEM_EXT_DATASOURCE_REGID>
SCHEMBL16107711

> <PUBCHEM_SUBSTANCE_COMMENT>
InChI=1S/C21H17N3O3S2/c1-14-8-18(12-23-10-14)29(26,27)17-4-2-15(3-5-17)11-24-21(25)19-9-16-6-7-22-13-20(16)28-19/h2-10,12-13H,11H2,1H3,(H,24,25)
InChIKey=FLSJDRKHSYBLGF-UHFFFAOYSA-N

> <PUBCHEM_SUBSTANCE_SYNONYM>
SCHEMBL16107711

> <PUBCHEM_XREF_EXT_ID>
SCHEMBL16107711

> <PUBCHEM_EXT_DATASOURCE_URL>
https://www.surechembl.org/

> <PUBCHEM_EXT_SUBSTANCE_URL>
https://www.surechembl.org/chemical/SCHEMBL16107711

> <PUBCHEM_CID_ASSOCIATIONS>
90012501  1

> <PUBCHEM_COORDINATE_TYPE>
1
3

$$$$
