310949220
  -OEChem-07211613022D

 60 70  0     0  0  0  0  0  0999 V2000
    2.3744    0.7373    0.0000 N   0  0  0  0  0  0  0  0  0  0  0  0
   -1.2685   -1.1927    0.0000 N   0  0  0  0  0  0  0  0  0  0  0  0
    2.3311   -0.8023    0.0000 N   0  0  0  0  0  0  0  0  0  0  0  0
    0.1627   -4.5755    0.0000 N   0  0  0  0  0  0  0  0  0  0  0  0
    0.2060   -1.1709    0.0000 C   0  0  0  0  0  0  0  0  0  0  0  0
   -0.5312   -1.6263    0.0000 C   0  0  0  0  0  0  0  0  0  0  0  0
    3.0467    1.2577    0.0000 C   0  0  0  0  0  0  0  0  0  0  0  0
    1.6805    1.2577    0.0000 C   0  0  0  0  0  0  0  0  0  0  0  0
   -1.3553   -0.3470    0.0000 C   0  0  0  0  0  0  0  0  0  0  0  0
   -2.0275   -1.5179    0.0000 C   0  0  0  0  0  0  0  0  0  0  0  0
    1.9625    2.0601    0.0000 C   0  0  0  0  0  0  0  0  0  0  0  0
    2.7865    2.0384    0.0000 C   0  0  0  0  0  0  0  0  0  0  0  0
   -2.1577   -0.1734    0.0000 C   0  0  0  0  0  0  0  0  0  0  0  0
   -2.5913   -0.9324    0.0000 C   0  0  0  0  0  0  0  0  0  0  0  0
    0.8782   -1.6047    0.0000 C   0  0  0  0  0  0  0  0  0  0  0  0
   -0.5312   -2.4504    0.0000 C   0  0  0  0  0  0  0  0  0  0  0  0
    3.8924    1.1276    0.0000 C   0  0  0  0  0  0  0  0  0  0  0  0
    0.8782    1.0626    0.0000 C   0  0  0  0  0  0  0  0  0  0  0  0
    1.3770    2.6455    0.0000 C   0  0  0  0  0  0  0  0  0  0  0  0
    3.3069    2.6455    0.0000 C   0  0  0  0  0  0  0  0  0  0  0  0
   -0.8132    0.2385    0.0000 C   0  0  0  0  0  0  0  0  0  0  0  0
   -2.2660   -2.3202    0.0000 C   0  0  0  0  0  0  0  0  0  0  0  0
   -2.4178    0.6072    0.0000 C   0  0  0  0  0  0  0  0  0  0  0  0
   -3.3937   -1.1493    0.0000 C   0  0  0  0  0  0  0  0  0  0  0  0
    0.1627   -2.8623    0.0000 C   0  0  0  0  0  0  0  0  0  0  0  0
    0.8782   -2.4287    0.0000 C   0  0  0  0  0  0  0  0  0  0  0  0
    4.1526    2.5371    0.0000 C   0  0  0  0  0  0  0  0  0  0  0  0
    0.5530    2.4937    0.0000 C   0  0  0  0  0  0  0  0  0  0  0  0
   -1.8757    1.2360    0.0000 C   0  0  0  0  0  0  0  0  0  0  0  0
   -3.6539   -1.9083    0.0000 C   0  0  0  0  0  0  0  0  0  0  0  0
    0.3145    1.6914    0.0000 C   0  0  0  0  0  0  0  0  0  0  0  0
    4.4128    1.7348    0.0000 C   0  0  0  0  0  0  0  0  0  0  0  0
   -1.0734    1.0191    0.0000 C   0  0  0  0  0  0  0  0  0  0  0  0
   -3.0901   -2.4937    0.0000 C   0  0  0  0  0  0  0  0  0  0  0  0
    1.5938   -1.1927    0.0000 C   0  0  0  0  0  0  0  0  0  0  0  0
    4.7164    3.1877    0.0000 C   0  0  0  0  0  0  0  0  0  0  0  0
   -0.0109    3.1226    0.0000 C   0  0  0  0  0  0  0  0  0  0  0  0
   -2.1359    1.9950    0.0000 C   0  0  0  0  0  0  0  0  0  0  0  0
   -4.4779   -2.1034    0.0000 C   0  0  0  0  0  0  0  0  0  0  0  0
    0.1627   -3.7298    0.0000 C   0  0  0  0  0  0  0  0  0  0  0  0
    5.5187    3.0141    0.0000 C   0  0  0  0  0  0  0  0  0  0  0  0
    0.2277    3.9249    0.0000 C   0  0  0  0  0  0  0  0  0  0  0  0
    4.4779    3.9683    0.0000 C   0  0  0  0  0  0  0  0  0  0  0  0
   -0.7698    2.9274    0.0000 C   0  0  0  0  0  0  0  0  0  0  0  0
   -1.5938    2.6455    0.0000 C   0  0  0  0  0  0  0  0  0  0  0  0
   -4.9983   -1.5179    0.0000 C   0  0  0  0  0  0  0  0  0  0  0  0
   -2.8949    2.1684    0.0000 C   0  0  0  0  0  0  0  0  0  0  0  0
   -4.7381   -2.8841    0.0000 C   0  0  0  0  0  0  0  0  0  0  0  0
    6.0826    3.5997    0.0000 C   0  0  0  0  0  0  0  0  0  0  0  0
   -0.2927    4.5104    0.0000 C   0  0  0  0  0  0  0  0  0  0  0  0
    5.0200    4.5755    0.0000 C   0  0  0  0  0  0  0  0  0  0  0  0
   -1.3336    3.5346    0.0000 C   0  0  0  0  0  0  0  0  0  0  0  0
   -1.8323    3.4262    0.0000 C   0  0  0  0  0  0  0  0  0  0  0  0
   -5.8006   -1.6914    0.0000 C   0  0  0  0  0  0  0  0  0  0  0  0
   -3.1985    2.9491    0.0000 C   0  0  0  0  0  0  0  0  0  0  0  0
   -5.5405   -3.0575    0.0000 C   0  0  0  0  0  0  0  0  0  0  0  0
   -1.1168    4.3152    0.0000 C   0  0  0  0  0  0  0  0  0  0  0  0
    5.8223    4.4019    0.0000 C   0  0  0  0  0  0  0  0  0  0  0  0
   -2.6780    3.5562    0.0000 C   0  0  0  0  0  0  0  0  0  0  0  0
   -6.0826   -2.4937    0.0000 C   0  0  0  0  0  0  0  0  0  0  0  0
  1  5  1  0  0  0  0
  1  7  1  0  0  0  0
  1  8  1  0  0  0  0
  2  6  1  0  0  0  0
  2  9  1  0  0  0  0
  2 10  1  0  0  0  0
  3 35  3  0  0  0  0
  4 40  3  0  0  0  0
  5  6  1  0  0  0  0
  5 15  2  0  0  0  0
  6 16  2  0  0  0  0
  7 12  2  0  0  0  0
  7 17  1  0  0  0  0
  8 11  2  0  0  0  0
  8 18  1  0  0  0  0
  9 13  2  0  0  0  0
  9 21  1  0  0  0  0
 10 14  2  0  0  0  0
 10 22  1  0  0  0  0
 11 12  1  0  0  0  0
 11 19  1  0  0  0  0
 12 20  1  0  0  0  0
 13 14  1  0  0  0  0
 13 23  1  0  0  0  0
 14 24  1  0  0  0  0
 15 26  1  0  0  0  0
 15 35  1  0  0  0  0
 16 25  1  0  0  0  0
 17 32  2  0  0  0  0
 18 31  2  0  0  0  0
 19 28  2  0  0  0  0
 20 27  2  0  0  0  0
 21 33  2  0  0  0  0
 22 34  2  0  0  0  0
 23 29  2  0  0  0  0
 24 30  2  0  0  0  0
 25 26  2  0  0  0  0
 25 40  1  0  0  0  0
 27 32  1  0  0  0  0
 27 36  1  0  0  0  0
 28 31  1  0  0  0  0
 28 37  1  0  0  0  0
 29 33  1  0  0  0  0
 29 38  1  0  0  0  0
 30 34  1  0  0  0  0
 30 39  1  0  0  0  0
 36 41  2  0  0  0  0
 36 43  1  0  0  0  0
 37 42  2  0  0  0  0
 37 44  1  0  0  0  0
 38 45  2  0  0  0  0
 38 47  1  0  0  0  0
 39 46  2  0  0  0  0
 39 48  1  0  0  0  0
 41 49  1  0  0  0  0
 42 50  1  0  0  0  0
 43 51  2  0  0  0  0
 44 52  2  0  0  0  0
 45 53  1  0  0  0  0
 46 54  1  0  0  0  0
 47 55  2  0  0  0  0
 48 56  2  0  0  0  0
 49 58  2  0  0  0  0
 50 57  2  0  0  0  0
 51 58  1  0  0  0  0
 52 57  1  0  0  0  0
 53 59  2  0  0  0  0
 54 60  2  0  0  0  0
 55 59  1  0  0  0  0
 56 60  1  0  0  0  0
M  END
> <PUBCHEM_COMPOUND_ID_TYPE>
0

> <PUBCHEM_TOTAL_CHARGE>
0

> <PUBCHEM_SUBSTANCE_ID>
310949220

> <PUBCHEM_SUBSTANCE_VERSION>
1

> <PUBCHEM_EXT_DATASOURCE_NAME>
4488

> <PUBCHEM_EXT_DATASOURCE_REGID>
SCHEMBL16127410

> <PUBCHEM_SUBSTANCE_COMMENT>
InChI=1S/C56H34N4/c57-35-37-29-46(36-58)56(60-53-27-23-44(40-17-9-3-10-18-40)33-49(53)50-34-45(24-28-54(50)60)41-19-11-4-12-20-41)55(30-37)59-51-25-21-42(38-13-5-1-6-14-38)31-47(51)48-32-43(22-26-52(48)59)39-15-7-2-8-16-39/h1-34H
InChIKey=XTLDIBHVBQNZCG-UHFFFAOYSA-N

> <PUBCHEM_SUBSTANCE_SYNONYM>
SCHEMBL16127410

> <PUBCHEM_XREF_EXT_ID>
SCHEMBL16127410

> <PUBCHEM_EXT_DATASOURCE_URL>
https://www.surechembl.org/

> <PUBCHEM_EXT_SUBSTANCE_URL>
https://www.surechembl.org/chemical/SCHEMBL16127410

> <PUBCHEM_CID_ASSOCIATIONS>
117614708  1

> <PUBCHEM_COORDINATE_TYPE>
1
3

$$$$
