310930833
  -OEChem-07211613022D

 36 40  0     0  0  0  0  0  0999 V2000
    4.9821   -3.5724    0.0000 S   0  0  0  0  0  0  0  0  0  0  0  0
    4.2675   -3.9849    0.0000 O   0  0  0  0  0  0  0  0  0  0  0  0
    5.6965   -3.1599    0.0000 O   0  0  0  0  0  0  0  0  0  0  0  0
    6.6321   -6.4302    0.0000 O   0  0  0  0  0  0  0  0  0  0  0  0
    2.5071    0.7144    0.0000 O   0  0  0  0  0  0  0  0  0  0  0  0
    0.7846    0.6674    0.0000 N   0  0  0  0  0  0  0  0  0  0  0  0
    2.5071   -0.7144    0.0000 N   0  0  0  0  0  0  0  0  0  0  0  0
   -1.4290   -0.4125    0.0000 N   0  0  0  0  0  0  0  0  0  0  0  0
    8.6946   -7.1447    0.0000 N   0  0  0  0  0  0  0  0  0  0  0  0
    4.5696   -2.8579    0.0000 C   0  0  0  0  0  0  0  0  0  0  0  0
    5.3946   -4.2868    0.0000 C   0  0  0  0  0  0  0  0  0  0  0  0
    1.2696    0.0000    0.0000 C   0  0  0  0  0  0  0  0  0  0  0  0
    0.0000   -0.4125    0.0000 C   0  0  0  0  0  0  0  0  0  0  0  0
    0.0000    0.4125    0.0000 C   0  0  0  0  0  0  0  0  0  0  0  0
    3.7446   -2.8579    0.0000 C   0  0  0  0  0  0  0  0  0  0  0  0
    4.9821   -2.1434    0.0000 C   0  0  0  0  0  0  0  0  0  0  0  0
    0.7846   -0.6674    0.0000 C   0  0  0  0  0  0  0  0  0  0  0  0
    4.9821   -5.0013    0.0000 C   0  0  0  0  0  0  0  0  0  0  0  0
    6.2196   -4.2868    0.0000 C   0  0  0  0  0  0  0  0  0  0  0  0
    2.0946    0.0000    0.0000 C   0  0  0  0  0  0  0  0  0  0  0  0
    3.7446   -1.4290    0.0000 C   0  0  0  0  0  0  0  0  0  0  0  0
    3.3321   -2.1434    0.0000 C   0  0  0  0  0  0  0  0  0  0  0  0
    4.5696   -1.4290    0.0000 C   0  0  0  0  0  0  0  0  0  0  0  0
    6.2196   -5.7158    0.0000 C   0  0  0  0  0  0  0  0  0  0  0  0
    5.3946   -5.7158    0.0000 C   0  0  0  0  0  0  0  0  0  0  0  0
    6.6321   -5.0013    0.0000 C   0  0  0  0  0  0  0  0  0  0  0  0
   -0.7144   -0.8250    0.0000 C   0  0  0  0  0  0  0  0  0  0  0  0
   -0.7144    0.8250    0.0000 C   0  0  0  0  0  0  0  0  0  0  0  0
    3.3321   -0.7144    0.0000 C   0  0  0  0  0  0  0  0  0  0  0  0
   -1.4290    0.4125    0.0000 C   0  0  0  0  0  0  0  0  0  0  0  0
    7.4571   -6.4302    0.0000 C   0  0  0  0  0  0  0  0  0  0  0  0
    7.8696   -7.1447    0.0000 C   0  0  0  0  0  0  0  0  0  0  0  0
    9.1795   -6.4773    0.0000 C   0  0  0  0  0  0  0  0  0  0  0  0
    9.1795   -7.8122    0.0000 C   0  0  0  0  0  0  0  0  0  0  0  0
    9.9641   -6.7322    0.0000 C   0  0  0  0  0  0  0  0  0  0  0  0
    9.9641   -7.5572    0.0000 C   0  0  0  0  0  0  0  0  0  0  0  0
  1  2  2  0  0  0  0
  1  3  2  0  0  0  0
  1 10  1  0  0  0  0
  1 11  1  0  0  0  0
  4 24  1  0  0  0  0
  4 31  1  0  0  0  0
  5 20  2  0  0  0  0
  6 12  1  0  0  0  0
  6 14  1  0  0  0  0
  7 20  1  0  0  0  0
  7 29  1  0  0  0  0
  8 27  2  0  0  0  0
  8 30  1  0  0  0  0
  9 32  1  0  0  0  0
  9 33  1  0  0  0  0
  9 34  1  0  0  0  0
 10 15  2  0  0  0  0
 10 16  1  0  0  0  0
 11 18  2  0  0  0  0
 11 19  1  0  0  0  0
 12 17  2  0  0  0  0
 12 20  1  0  0  0  0
 13 14  2  0  0  0  0
 13 17  1  0  0  0  0
 13 27  1  0  0  0  0
 14 28  1  0  0  0  0
 15 22  1  0  0  0  0
 16 23  2  0  0  0  0
 18 25  1  0  0  0  0
 19 26  2  0  0  0  0
 21 22  2  0  0  0  0
 21 23  1  0  0  0  0
 21 29  1  0  0  0  0
 24 25  2  0  0  0  0
 24 26  1  0  0  0  0
 28 30  2  0  0  0  0
 31 32  1  0  0  0  0
 33 35  1  0  0  0  0
 34 36  1  0  0  0  0
 35 36  1  0  0  0  0
M  END
> <PUBCHEM_COMPOUND_ID_TYPE>
0

> <PUBCHEM_TOTAL_CHARGE>
0

> <PUBCHEM_SUBSTANCE_ID>
310930833

> <PUBCHEM_SUBSTANCE_VERSION>
1

> <PUBCHEM_EXT_DATASOURCE_NAME>
4488

> <PUBCHEM_EXT_DATASOURCE_REGID>
SCHEMBL16108130

> <PUBCHEM_SUBSTANCE_COMMENT>
InChI=1S/C27H28N4O4S/c32-27(26-17-21-19-28-12-11-25(21)30-26)29-18-20-3-7-23(8-4-20)36(33,34)24-9-5-22(6-10-24)35-16-15-31-13-1-2-14-31/h3-12,17,19,30H,1-2,13-16,18H2,(H,29,32)
InChIKey=VOOSPWSCXPJRRI-UHFFFAOYSA-N

> <PUBCHEM_SUBSTANCE_SYNONYM>
SCHEMBL16108130

> <PUBCHEM_XREF_EXT_ID>
SCHEMBL16108130

> <PUBCHEM_EXT_DATASOURCE_URL>
https://www.surechembl.org/

> <PUBCHEM_EXT_SUBSTANCE_URL>
https://www.surechembl.org/chemical/SCHEMBL16108130

> <PUBCHEM_CID_ASSOCIATIONS>
117599830  1

> <PUBCHEM_COORDINATE_TYPE>
1
3

$$$$
