310942563
  -OEChem-07211613022D

 80 84  0     1  0  0  0  0  0999 V2000
    9.7693   -1.1687    0.0000 F   0  0  0  0  0  0  0  0  0  0  0  0
   11.1190    1.8601    0.0000 F   0  0  0  0  0  0  0  0  0  0  0  0
    3.8764    3.3579    0.0000 F   0  0  0  0  0  0  0  0  0  0  0  0
    8.1891    1.6955    0.0000 O   0  0  0  0  0  0  0  0  0  0  0  0
    8.1891    3.3579    0.0000 O   0  0  0  0  0  0  0  0  0  0  0  0
    2.4443    1.6790    0.0000 O   0  0  0  0  0  0  0  0  0  0  0  0
    3.1522    2.9299    0.0000 O   0  0  0  0  0  0  0  0  0  0  0  0
   -1.8847    1.6955    0.0000 O   0  0  0  0  0  0  0  0  0  0  0  0
   -4.0410   -0.3951    0.0000 O   0  0  0  0  0  0  0  0  0  0  0  0
  -11.2672   -0.6091    0.0000 O   0  0  0  0  0  0  0  0  0  0  0  0
   -8.3372   -0.6091    0.0000 O   0  0  0  0  0  0  0  0  0  0  0  0
   -6.1973    1.6955    0.0000 O   0  0  0  0  0  0  0  0  0  0  0  0
   -4.7653   -0.8065    0.0000 O   0  0  0  0  0  0  0  0  0  0  0  0
    7.5635   -0.3786    0.0000 N   0  0  0  0  0  0  0  0  0  0  0  0
    6.7570    1.6955    0.0000 N   0  0  0  0  0  0  0  0  0  0  0  0
    8.2385    0.7900    0.0000 N   0  0  0  0  0  0  0  0  0  0  0  0
    3.8764    1.6955    0.0000 N   0  0  0  0  0  0  0  0  0  0  0  0
   -9.8022   -0.3621    0.0000 N   0  0  0  0  0  0  0  0  0  0  0  0
   -3.3168    0.8723    0.0000 N   0  0  0  0  0  0  0  0  0  0  0  0
   -1.1605    0.4444    0.0000 N   0  0  0  0  0  0  0  0  0  0  0  0
   -5.4895    0.4444    0.0000 N   0  0  0  0  0  0  0  0  0  0  0  0
   -4.0410   -2.0411    0.0000 N   0  0  0  0  0  0  0  0  0  0  0  0
   -5.4895   -2.0411    0.0000 N   0  0  0  0  0  0  0  0  0  0  0  0
    7.4812    0.4444    0.0000 C   0  0  0  0  0  0  0  0  0  0  0  0
    6.7406    0.8723    0.0000 C   0  0  3  0  0  0  0  0  0  0  0  0
    8.7981    0.1811    0.0000 C   0  0  0  0  0  0  0  0  0  0  0  0
    6.0162    0.4609    0.0000 C   0  0  0  0  0  0  0  0  0  0  0  0
    8.3865   -0.5432    0.0000 C   0  0  0  0  0  0  0  0  0  0  0  0
    9.6211    0.2634    0.0000 C   0  0  0  0  0  0  0  0  0  0  0  0
    7.4483    2.1399    0.0000 C   0  0  0  0  0  0  0  0  0  0  0  0
    6.9545   -0.9382    0.0000 C   0  0  0  0  0  0  0  0  0  0  0  0
   10.0984   -0.3951    0.0000 C   0  0  0  0  0  0  0  0  0  0  0  0
    6.0162    2.1070    0.0000 C   0  0  0  0  0  0  0  0  0  0  0  0
    9.9667    1.0205    0.0000 C   0  0  0  0  0  0  0  0  0  0  0  0
    7.1191   -1.7283    0.0000 C   0  0  0  0  0  0  0  0  0  0  0  0
    5.3249    0.8888    0.0000 C   0  0  0  0  0  0  0  0  0  0  0  0
    5.3085    0.0164    0.0000 C   0  0  0  0  0  0  0  0  0  0  0  0
    6.0492   -0.3951    0.0000 C   0  0  0  0  0  0  0  0  0  0  0  0
    7.4812    2.9629    0.0000 C   0  0  3  0  0  0  0  0  0  0  0  0
   10.7734    1.1028    0.0000 C   0  0  0  0  0  0  0  0  0  0  0  0
   10.9380   -0.3128    0.0000 C   0  0  0  0  0  0  0  0  0  0  0  0
    5.3413    1.7119    0.0000 C   0  0  0  0  0  0  0  0  0  0  0  0
   11.2672    0.4116    0.0000 C   0  0  0  0  0  0  0  0  0  0  0  0
    6.5101   -2.2880    0.0000 C   0  0  0  0  0  0  0  0  0  0  0  0
    7.8928   -2.0082    0.0000 C   0  0  0  0  0  0  0  0  0  0  0  0
    4.5842    2.1235    0.0000 C   0  0  3  0  0  0  0  0  0  0  0  0
    6.7735    3.3579    0.0000 C   0  0  0  0  0  0  0  0  0  0  0  0
    6.6747   -3.1110    0.0000 C   0  0  0  0  0  0  0  0  0  0  0  0
    8.0738   -2.7983    0.0000 C   0  0  0  0  0  0  0  0  0  0  0  0
    7.4648   -3.3579    0.0000 C   0  0  0  0  0  0  0  0  0  0  0  0
    4.5842    2.9464    0.0000 C   0  0  0  0  0  0  0  0  0  0  0  0
    3.1522    2.1070    0.0000 C   0  0  0  0  0  0  0  0  0  0  0  0
    1.7037    2.1070    0.0000 C   0  0  0  0  0  0  0  0  0  0  0  0
    0.9959    1.6955    0.0000 C   0  0  0  0  0  0  0  0  0  0  0  0
   -2.5925    0.4609    0.0000 C   0  0  3  0  0  0  0  0  0  0  0  0
   -0.4527    0.8723    0.0000 C   0  0  0  0  0  0  0  0  0  0  0  0
   -1.9012    0.8559    0.0000 C   0  0  0  0  0  0  0  0  0  0  0  0
   -4.7653    0.8723    0.0000 C   0  0  3  0  0  0  0  0  0  0  0  0
   -4.0574    0.4774    0.0000 C   0  0  0  0  0  0  0  0  0  0  0  0
  -10.4606   -0.8723    0.0000 C   0  0  0  0  0  0  0  0  0  0  0  0
   -9.1602   -0.8559    0.0000 C   0  0  0  0  0  0  0  0  0  0  0  0
    0.9959    0.8723    0.0000 C   0  0  0  0  0  0  0  0  0  0  0  0
    0.2552    2.1070    0.0000 C   0  0  0  0  0  0  0  0  0  0  0  0
    0.2880    0.4609    0.0000 C   0  0  0  0  0  0  0  0  0  0  0  0
   -0.4362    1.6955    0.0000 C   0  0  0  0  0  0  0  0  0  0  0  0
  -10.2301   -1.6296    0.0000 C   0  0  0  0  0  0  0  0  0  0  0  0
   -9.3907   -1.6460    0.0000 C   0  0  0  0  0  0  0  0  0  0  0  0
   -4.7488    1.7283    0.0000 C   0  0  0  0  0  0  0  0  0  0  0  0
   -9.8022    0.4774    0.0000 C   0  0  0  0  0  0  0  0  0  0  0  0
   -2.5925   -0.3621    0.0000 C   0  0  0  0  0  0  0  0  0  0  0  0
   -6.2138    0.8559    0.0000 C   0  0  0  0  0  0  0  0  0  0  0  0
   -9.0943    0.8723    0.0000 C   0  0  0  0  0  0  0  0  0  0  0  0
   -3.3003   -0.7900    0.0000 C   0  0  0  0  0  0  0  0  0  0  0  0
   -6.9380    0.4609    0.0000 C   0  0  0  0  0  0  0  0  0  0  0  0
   -5.4895    2.0905    0.0000 C   0  0  0  0  0  0  0  0  0  0  0  0
   -4.0245    2.1070    0.0000 C   0  0  0  0  0  0  0  0  0  0  0  0
   -8.3537    0.4609    0.0000 C   0  0  0  0  0  0  0  0  0  0  0  0
   -7.6458    0.8723    0.0000 C   0  0  0  0  0  0  0  0  0  0  0  0
   -3.3333   -1.6296    0.0000 C   0  0  0  0  0  0  0  0  0  0  0  0
   -4.7818   -1.6460    0.0000 C   0  0  0  0  0  0  0  0  0  0  0  0
  1 32  1  0  0  0  0
  2 40  1  0  0  0  0
  3 51  1  0  0  0  0
  4 30  2  0  0  0  0
 39  5  1  6  0  0  0
  6 52  1  0  0  0  0
  6 53  1  0  0  0  0
  7 52  2  0  0  0  0
  8 57  2  0  0  0  0
  9 59  2  0  0  0  0
 10 60  2  0  0  0  0
 11 61  2  0  0  0  0
 12 71  2  0  0  0  0
 13 80  2  0  0  0  0
 14 24  1  0  0  0  0
 14 28  1  0  0  0  0
 14 31  1  0  0  0  0
 25 15  1  1  0  0  0
 15 30  1  0  0  0  0
 15 33  1  0  0  0  0
 16 24  2  0  0  0  0
 16 26  1  0  0  0  0
 46 17  1  1  0  0  0
 17 52  1  0  0  0  0
 18 60  1  0  0  0  0
 18 61  1  0  0  0  0
 18 69  1  0  0  0  0
 55 19  1  6  0  0  0
 19 59  1  0  0  0  0
 20 56  1  0  0  0  0
 20 57  1  0  0  0  0
 58 21  1  1  0  0  0
 21 71  1  0  0  0  0
 22 79  1  0  0  0  0
 22 80  1  0  0  0  0
 23 80  1  0  0  0  0
 24 25  1  0  0  0  0
 25 27  1  0  0  0  0
 26 28  2  0  0  0  0
 26 29  1  0  0  0  0
 27 36  1  0  0  0  0
 27 37  1  0  0  0  0
 27 38  1  0  0  0  0
 29 32  2  0  0  0  0
 29 34  1  0  0  0  0
 30 39  1  0  0  0  0
 31 35  1  0  0  0  0
 32 41  1  0  0  0  0
 33 42  1  0  0  0  0
 34 40  2  0  0  0  0
 35 44  2  0  0  0  0
 35 45  1  0  0  0  0
 39 47  1  0  0  0  0
 40 43  1  0  0  0  0
 41 43  2  0  0  0  0
 42 46  1  0  0  0  0
 44 48  1  0  0  0  0
 45 49  2  0  0  0  0
 46 51  1  0  0  0  0
 48 50  2  0  0  0  0
 49 50  1  0  0  0  0
 53 54  1  0  0  0  0
 54 62  2  0  0  0  0
 54 63  1  0  0  0  0
 55 57  1  0  0  0  0
 55 70  1  0  0  0  0
 56 64  2  0  0  0  0
 56 65  1  0  0  0  0
 58 59  1  0  0  0  0
 58 68  1  0  0  0  0
 60 66  1  0  0  0  0
 61 67  1  0  0  0  0
 62 64  1  0  0  0  0
 63 65  2  0  0  0  0
 66 67  2  0  0  0  0
 68 75  1  0  0  0  0
 68 76  1  0  0  0  0
 69 72  1  0  0  0  0
 70 73  1  0  0  0  0
 71 74  1  0  0  0  0
 72 77  1  0  0  0  0
 73 79  1  0  0  0  0
 74 78  1  0  0  0  0
 77 78  1  0  0  0  0
M  END
> <PUBCHEM_COMPOUND_ID_TYPE>
0

> <PUBCHEM_TOTAL_CHARGE>
0

> <PUBCHEM_SUBSTANCE_ID>
310942563

> <PUBCHEM_SUBSTANCE_VERSION>
1

> <PUBCHEM_EXT_DATASOURCE_NAME>
4488

> <PUBCHEM_EXT_DATASOURCE_REGID>
SCHEMBL16120606

> <PUBCHEM_SUBSTANCE_COMMENT>
InChI=1S/C57H73F3N10O10/c1-35(2)49(67-46(72)17-11-8-12-28-69-47(73)24-25-48(69)74)53(76)66-44(16-13-27-62-55(61)78)52(75)63-40-21-18-38(19-22-40)34-80-56(79)64-41(31-58)26-29-70(54(77)36(3)71)50(57(4,5)6)51-65-45(42-30-39(59)20-23-43(42)60)33-68(51)32-37-14-9-7-10-15-37/h7,9-10,14-15,18-25,30,33,35-36,41,44,49-50,71H,8,11-13,16-17,26-29,31-32,34H2,1-6H3,(H,63,75)(H,64,79)(H,66,76)(H,67,72)(H3,61,62,78)/t36-,41+,44-,49-,50-/m0/s1
InChIKey=XTERHQOVZQFLJB-HHOCQACOSA-N

> <PUBCHEM_SUBSTANCE_SYNONYM>
SCHEMBL16120606

> <PUBCHEM_XREF_EXT_ID>
SCHEMBL16120606

> <PUBCHEM_EXT_DATASOURCE_URL>
https://www.surechembl.org/

> <PUBCHEM_EXT_SUBSTANCE_URL>
https://www.surechembl.org/chemical/SCHEMBL16120606

> <PUBCHEM_CID_ASSOCIATIONS>
117609119  1

> <PUBCHEM_COORDINATE_TYPE>
1
3

> <PUBCHEM_BONDANNOTATIONS>
25  15  5
46  17  5
55  19  6
58  21  5
39  5  6

$$$$
