310930701
  -OEChem-07211613022D

 31 35  0     0  0  0  0  0  0999 V2000
    2.1753   -2.4720    0.0000 S   0  0  0  0  0  0  0  0  0  0  0  0
    2.0435   -4.2848    0.0000 O   0  0  0  0  0  0  0  0  0  0  0  0
    2.6368   -3.2631    0.0000 O   0  0  0  0  0  0  0  0  0  0  0  0
    1.7798   -1.7469    0.0000 O   0  0  0  0  0  0  0  0  0  0  0  0
    6.4932    0.0000    0.0000 O   0  0  0  0  0  0  0  0  0  0  0  0
    7.8775   -2.4720    0.0000 N   0  0  0  0  0  0  0  0  0  0  0  0
    9.3937   -2.3072    0.0000 N   0  0  0  0  0  0  0  0  0  0  0  0
    5.7680   -1.2195    0.0000 N   0  0  0  0  0  0  0  0  0  0  0  0
    9.8881   -1.6480    0.0000 N   0  0  0  0  0  0  0  0  0  0  0  0
    1.4502   -2.8676    0.0000 C   0  0  0  0  0  0  0  0  0  0  0  0
    1.4502   -3.6915    0.0000 C   0  0  0  0  0  0  0  0  0  0  0  0
    2.9005   -2.0435    0.0000 C   0  0  0  0  0  0  0  0  0  0  0  0
    0.6921   -4.1200    0.0000 C   0  0  0  0  0  0  0  0  0  0  0  0
    0.7581   -2.4391    0.0000 C   0  0  0  0  0  0  0  0  0  0  0  0
    0.0000   -3.6586    0.0000 C   0  0  0  0  0  0  0  0  0  0  0  0
    3.5927   -2.4720    0.0000 C   0  0  0  0  0  0  0  0  0  0  0  0
    2.9005   -1.2195    0.0000 C   0  0  0  0  0  0  0  0  0  0  0  0
    0.8899   -4.9111    0.0000 C   0  0  0  0  0  0  0  0  0  0  0  0
    0.0330   -2.8676    0.0000 C   0  0  0  0  0  0  0  0  0  0  0  0
    1.7140   -5.0429    0.0000 C   0  0  0  0  0  0  0  0  0  0  0  0
    8.6026   -1.2195    0.0000 C   0  0  0  0  0  0  0  0  0  0  0  0
    8.6026   -2.0765    0.0000 C   0  0  0  0  0  0  0  0  0  0  0  0
    4.3178   -1.2195    0.0000 C   0  0  0  0  0  0  0  0  0  0  0  0
    7.1853   -1.2195    0.0000 C   0  0  0  0  0  0  0  0  0  0  0  0
    4.3178   -2.0435    0.0000 C   0  0  0  0  0  0  0  0  0  0  0  0
    3.5927   -0.8240    0.0000 C   0  0  0  0  0  0  0  0  0  0  0  0
    7.8775   -0.8240    0.0000 C   0  0  0  0  0  0  0  0  0  0  0  0
    6.4932   -0.8240    0.0000 C   0  0  0  0  0  0  0  0  0  0  0  0
    7.1853   -2.0765    0.0000 C   0  0  0  0  0  0  0  0  0  0  0  0
    9.3937   -0.9888    0.0000 C   0  0  0  0  0  0  0  0  0  0  0  0
    5.0429   -0.7911    0.0000 C   0  0  0  0  0  0  0  0  0  0  0  0
  1  3  2  0  0  0  0
  1  4  2  0  0  0  0
  1 10  1  0  0  0  0
  1 12  1  0  0  0  0
  2 11  1  0  0  0  0
  2 20  1  0  0  0  0
  5 28  2  0  0  0  0
  6 22  1  0  0  0  0
  6 29  2  0  0  0  0
  7  9  1  0  0  0  0
  7 22  1  0  0  0  0
  8 28  1  0  0  0  0
  8 31  1  0  0  0  0
  9 30  2  0  0  0  0
 10 11  1  0  0  0  0
 10 14  2  0  0  0  0
 11 13  2  0  0  0  0
 12 16  2  0  0  0  0
 12 17  1  0  0  0  0
 13 15  1  0  0  0  0
 13 18  1  0  0  0  0
 14 19  1  0  0  0  0
 15 19  2  0  0  0  0
 16 25  1  0  0  0  0
 17 26  2  0  0  0  0
 18 20  1  0  0  0  0
 21 22  2  0  0  0  0
 21 27  1  0  0  0  0
 21 30  1  0  0  0  0
 23 25  2  0  0  0  0
 23 26  1  0  0  0  0
 23 31  1  0  0  0  0
 24 27  2  0  0  0  0
 24 28  1  0  0  0  0
 24 29  1  0  0  0  0
M  END
> <PUBCHEM_COMPOUND_ID_TYPE>
0

> <PUBCHEM_TOTAL_CHARGE>
0

> <PUBCHEM_SUBSTANCE_ID>
310930701

> <PUBCHEM_SUBSTANCE_VERSION>
1

> <PUBCHEM_EXT_DATASOURCE_NAME>
4488

> <PUBCHEM_EXT_DATASOURCE_REGID>
SCHEMBL16107998

> <PUBCHEM_SUBSTANCE_COMMENT>
InChI=1S/C22H18N4O4S/c27-22(17-10-16-13-25-26-21(16)23-12-17)24-11-14-4-6-18(7-5-14)31(28,29)19-3-1-2-15-8-9-30-20(15)19/h1-7,10,12-13H,8-9,11H2,(H,24,27)(H,23,25,26)
InChIKey=OYBYXJASBBBYRH-UHFFFAOYSA-N

> <PUBCHEM_SUBSTANCE_SYNONYM>
SCHEMBL16107998

> <PUBCHEM_XREF_EXT_ID>
SCHEMBL16107998

> <PUBCHEM_EXT_DATASOURCE_URL>
https://www.surechembl.org/

> <PUBCHEM_EXT_SUBSTANCE_URL>
https://www.surechembl.org/chemical/SCHEMBL16107998

> <PUBCHEM_CID_ASSOCIATIONS>
117599741  1

> <PUBCHEM_COORDINATE_TYPE>
1
3

$$$$
