310943289
  -OEChem-07211613022D

 34 37  0     0  0  0  0  0  0999 V2000
   -4.6218    1.6951    0.0000 O   0  0  0  0  0  0  0  0  0  0  0  0
    2.4920    1.5937    0.0000 O   0  0  0  0  0  0  0  0  0  0  0  0
   -3.2164    0.8548    0.0000 N   0  0  0  0  0  0  0  0  0  0  0  0
   -1.8400   -0.8113    0.0000 N   0  0  0  0  0  0  0  0  0  0  0  0
   -3.2599   -0.7823    0.0000 N   0  0  0  0  0  0  0  0  0  0  0  0
    0.3623    1.9994    0.0000 N   0  0  0  0  0  0  0  0  0  0  0  0
    1.7820    0.3767    0.0000 N   0  0  0  0  0  0  0  0  0  0  0  0
    4.6218   -0.4492    0.0000 N   0  0  0  0  0  0  0  0  0  0  0  0
   -2.5065    0.4347    0.0000 C   0  0  0  0  0  0  0  0  0  0  0  0
   -1.0866    0.4057    0.0000 C   0  0  0  0  0  0  0  0  0  0  0  0
   -0.3478    0.7823    0.0000 C   0  0  0  0  0  0  0  0  0  0  0  0
   -2.5499   -0.3912    0.0000 C   0  0  0  0  0  0  0  0  0  0  0  0
   -1.8110    0.8258    0.0000 C   0  0  0  0  0  0  0  0  0  0  0  0
   -0.3332    1.5937    0.0000 C   0  0  0  0  0  0  0  0  0  0  0  0
   -1.1301   -0.4202    0.0000 C   0  0  0  0  0  0  0  0  0  0  0  0
    0.3767    0.3767    0.0000 C   0  0  0  0  0  0  0  0  0  0  0  0
    1.0721    0.7823    0.0000 C   0  0  0  0  0  0  0  0  0  0  0  0
    1.0866    1.5937    0.0000 C   0  0  0  0  0  0  0  0  0  0  0  0
   -3.2019    1.6661    0.0000 C   0  0  0  0  0  0  0  0  0  0  0  0
   -3.9263    0.4636    0.0000 C   0  0  0  0  0  0  0  0  0  0  0  0
    2.4920    0.7678    0.0000 C   0  0  0  0  0  0  0  0  0  0  0  0
    3.2164    0.3767    0.0000 C   0  0  0  0  0  0  0  0  0  0  0  0
   -1.0577    1.9849    0.0000 C   0  0  0  0  0  0  0  0  0  0  0  0
    3.2019   -0.4492    0.0000 C   0  0  0  0  0  0  0  0  0  0  0  0
    3.9263   -0.8548    0.0000 C   0  0  0  0  0  0  0  0  0  0  0  0
   -3.9263    2.0863    0.0000 C   0  0  0  0  0  0  0  0  0  0  0  0
   -4.6363    0.8838    0.0000 C   0  0  0  0  0  0  0  0  0  0  0  0
    3.9118    0.7823    0.0000 C   0  0  0  0  0  0  0  0  0  0  0  0
   -3.2453   -1.6081    0.0000 C   0  0  0  0  0  0  0  0  0  0  0  0
   -3.9698   -0.3912    0.0000 C   0  0  0  0  0  0  0  0  0  0  0  0
    4.6363    0.3623    0.0000 C   0  0  0  0  0  0  0  0  0  0  0  0
    3.9118   -1.6661    0.0000 C   0  0  0  0  0  0  0  0  0  0  0  0
    3.1874   -2.0863    0.0000 C   0  0  0  0  0  0  0  0  0  0  0  0
    4.6363   -2.0863    0.0000 C   0  0  0  0  0  0  0  0  0  0  0  0
  1 26  1  0  0  0  0
  1 27  1  0  0  0  0
  2 21  2  0  0  0  0
  3  9  1  0  0  0  0
  3 19  1  0  0  0  0
  3 20  1  0  0  0  0
  4 12  1  0  0  0  0
  4 15  2  0  0  0  0
  5 12  1  0  0  0  0
  5 29  1  0  0  0  0
  5 30  1  0  0  0  0
  6 14  1  0  0  0  0
  6 18  2  0  0  0  0
  7 17  1  0  0  0  0
  7 21  1  0  0  0  0
  8 25  2  0  0  0  0
  8 31  1  0  0  0  0
  9 12  2  0  0  0  0
  9 13  1  0  0  0  0
 10 11  1  0  0  0  0
 10 13  2  0  0  0  0
 10 15  1  0  0  0  0
 11 14  2  0  0  0  0
 11 16  1  0  0  0  0
 14 23  1  0  0  0  0
 16 17  2  0  0  0  0
 17 18  1  0  0  0  0
 19 26  1  0  0  0  0
 20 27  1  0  0  0  0
 21 22  1  0  0  0  0
 22 24  2  0  0  0  0
 22 28  1  0  0  0  0
 24 25  1  0  0  0  0
 25 32  1  0  0  0  0
 28 31  2  0  0  0  0
 32 33  1  0  0  0  0
 32 34  1  0  0  0  0
M  END
> <PUBCHEM_COMPOUND_ID_TYPE>
0

> <PUBCHEM_TOTAL_CHARGE>
0

> <PUBCHEM_SUBSTANCE_ID>
310943289

> <PUBCHEM_SUBSTANCE_VERSION>
1

> <PUBCHEM_EXT_DATASOURCE_NAME>
4488

> <PUBCHEM_EXT_DATASOURCE_REGID>
SCHEMBL16121351

> <PUBCHEM_SUBSTANCE_COMMENT>
InChI=1S/C26H32N6O2/c1-17(2)23-12-19(6-7-27-23)26(33)30-21-14-22(18(3)28-16-21)20-13-24(25(29-15-20)31(4)5)32-8-10-34-11-9-32/h6-7,12-17H,8-11H2,1-5H3,(H,30,33)
InChIKey=BSPOTOGQWINOGT-UHFFFAOYSA-N

> <PUBCHEM_SUBSTANCE_SYNONYM>
SCHEMBL16121351

> <PUBCHEM_XREF_EXT_ID>
SCHEMBL16121351

> <PUBCHEM_EXT_DATASOURCE_URL>
https://www.surechembl.org/

> <PUBCHEM_EXT_SUBSTANCE_URL>
https://www.surechembl.org/chemical/SCHEMBL16121351

> <PUBCHEM_CID_ASSOCIATIONS>
117609714  1

> <PUBCHEM_COORDINATE_TYPE>
1
3

$$$$
