310940300
  -OEChem-07211613022D

 37 41  0     0  0  0  0  0  0999 V2000
   -0.7874   -3.7360    0.0000 S   0  0  0  0  0  0  0  0  0  0  0  0
    1.8931    5.1935    0.0000 F   0  0  0  0  0  0  0  0  0  0  0  0
   -2.8648    0.8377    0.0000 O   0  0  0  0  0  0  0  0  0  0  0  0
   -1.5078   -4.1549    0.0000 O   0  0  0  0  0  0  0  0  0  0  0  0
   -0.0670   -3.3339    0.0000 O   0  0  0  0  0  0  0  0  0  0  0  0
   -0.0837    0.6869    0.0000 N   0  0  0  0  0  0  0  0  0  0  0  0
   -0.4189   -0.0670    0.0000 N   0  0  0  0  0  0  0  0  0  0  0  0
   -1.8094   -0.6031    0.0000 N   0  0  0  0  0  0  0  0  0  0  0  0
   -2.1444    2.0774    0.0000 N   0  0  0  0  0  0  0  0  0  0  0  0
    1.3738    3.2669    0.0000 N   0  0  0  0  0  0  0  0  0  0  0  0
   -0.3686   -4.4731    0.0000 N   0  0  0  0  0  0  0  0  0  0  0  0
    2.8648    0.5696    0.0000 N   0  0  0  0  0  0  0  0  0  0  0  0
    0.6869    0.8712    0.0000 C   0  0  0  0  0  0  0  0  0  0  0  0
   -0.7036    1.2565    0.0000 C   0  0  0  0  0  0  0  0  0  0  0  0
   -1.4072    0.8544    0.0000 C   0  0  0  0  0  0  0  0  0  0  0  0
   -1.2565    0.0335    0.0000 C   0  0  0  0  0  0  0  0  0  0  0  0
   -2.1277    1.2733    0.0000 C   0  0  0  0  0  0  0  0  0  0  0  0
    0.1508    1.4408    0.0000 C   0  0  0  0  0  0  0  0  0  0  0  0
    1.5245    1.0890    0.0000 C   0  0  0  0  0  0  0  0  0  0  0  0
   -0.7036    2.0774    0.0000 C   0  0  0  0  0  0  0  0  0  0  0  0
    1.2733    0.2345    0.0000 C   0  0  0  0  0  0  0  0  0  0  0  0
    1.1560    2.4628    0.0000 C   0  0  0  0  0  0  0  0  0  0  0  0
    0.3518    2.2450    0.0000 C   0  0  0  0  0  0  0  0  0  0  0  0
    1.7256    1.8764    0.0000 C   0  0  0  0  0  0  0  0  0  0  0  0
   -1.5413   -1.3738    0.0000 C   0  0  0  0  0  0  0  0  0  0  0  0
   -1.4240    2.4962    0.0000 C   0  0  0  0  0  0  0  0  0  0  0  0
   -1.0387   -2.9486    0.0000 C   0  0  0  0  0  0  0  0  0  0  0  0
    2.0774    0.4189    0.0000 C   0  0  0  0  0  0  0  0  0  0  0  0
    2.0774    3.6858    0.0000 C   0  0  0  0  0  0  0  0  0  0  0  0
    0.9549    3.9873    0.0000 C   0  0  0  0  0  0  0  0  0  0  0  0
   -2.0774   -1.9769    0.0000 C   0  0  0  0  0  0  0  0  0  0  0  0
   -0.7372   -1.5580    0.0000 C   0  0  0  0  0  0  0  0  0  0  0  0
    1.6586    4.3894    0.0000 C   0  0  0  0  0  0  0  0  0  0  0  0
   -1.8429   -2.7811    0.0000 C   0  0  0  0  0  0  0  0  0  0  0  0
   -0.4858   -2.3455    0.0000 C   0  0  0  0  0  0  0  0  0  0  0  0
   -0.7539   -5.1935    0.0000 C   0  0  0  0  0  0  0  0  0  0  0  0
    0.4858   -4.4564    0.0000 C   0  0  0  0  0  0  0  0  0  0  0  0
  1  4  2  0  0  0  0
  1  5  2  0  0  0  0
  1 11  1  0  0  0  0
  1 27  1  0  0  0  0
  2 33  1  0  0  0  0
  3 17  2  0  0  0  0
  6  7  1  0  0  0  0
  6 13  1  0  0  0  0
  6 14  1  0  0  0  0
  7 16  2  0  0  0  0
  8 16  1  0  0  0  0
  8 25  1  0  0  0  0
  9 17  1  0  0  0  0
  9 26  1  0  0  0  0
 22 10  1  6  0  0  0
 10 29  1  0  0  0  0
 10 30  1  0  0  0  0
 11 36  1  0  0  0  0
 11 37  1  0  0  0  0
 12 28  3  0  0  0  0
 13 18  1  0  0  0  0
 13 19  1  0  0  0  0
 13 21  1  6  0  0  0
 14 15  2  0  0  0  0
 14 20  1  0  0  0  0
 15 16  1  0  0  0  0
 15 17  1  0  0  0  0
 18 23  1  0  0  0  0
 19 24  1  0  0  0  0
 20 26  2  0  0  0  0
 21 28  1  0  0  0  0
 22 23  1  0  0  0  0
 22 24  1  0  0  0  0
 25 31  2  0  0  0  0
 25 32  1  0  0  0  0
 27 34  2  0  0  0  0
 27 35  1  0  0  0  0
 29 33  1  0  0  0  0
 30 33  1  0  0  0  0
 31 34  1  0  0  0  0
 32 35  2  0  0  0  0
M  END
> <PUBCHEM_COMPOUND_ID_TYPE>
0

> <PUBCHEM_TOTAL_CHARGE>
0

> <PUBCHEM_SUBSTANCE_ID>
310940300

> <PUBCHEM_SUBSTANCE_VERSION>
1

> <PUBCHEM_EXT_DATASOURCE_NAME>
4488

> <PUBCHEM_EXT_DATASOURCE_REGID>
SCHEMBL16118243

> <PUBCHEM_SUBSTANCE_COMMENT>
InChI=1S/C25H30FN7O3S/c1-31(2)37(35,36)20-5-3-18(4-6-20)29-23-22-21(9-14-28-24(22)34)33(30-23)25(12-13-27)10-7-19(8-11-25)32-15-17(26)16-32/h3-6,9,14,17,19H,7-8,10-12,15-16H2,1-2H3,(H,28,34)(H,29,30)/t19-,25-
InChIKey=TWNHDYRZRRWJBV-FEHRVWHQSA-N

> <PUBCHEM_SUBSTANCE_SYNONYM>
SCHEMBL16118243

> <PUBCHEM_XREF_EXT_ID>
SCHEMBL16118243

> <PUBCHEM_EXT_DATASOURCE_URL>
https://www.surechembl.org/

> <PUBCHEM_EXT_SUBSTANCE_URL>
https://www.surechembl.org/chemical/SCHEMBL16118243

> <PUBCHEM_CID_ASSOCIATIONS>
117607374  1

> <PUBCHEM_COORDINATE_TYPE>
1
3

> <PUBCHEM_BONDANNOTATIONS>
22  10  6
13  21  6

$$$$
