310941808
  -OEChem-07211613022D

 24 25  0     0  0  0  0  0  0999 V2000
    3.2832    1.3640    0.0000 I   0  0  0  0  0  0  0  0  0  0  0  0
   -0.6679    2.6014    0.0000 Br  0  0  0  0  0  0  0  0  0  0  0  0
   -0.3726    0.9422    0.0000 O   0  0  0  0  0  0  0  0  0  0  0  0
   -1.1964   -1.7575    0.0000 O   0  0  0  0  0  0  0  0  0  0  0  0
   -1.7095   -2.6014    0.0000 O   0  0  0  0  0  0  0  0  0  0  0  0
   -3.2832    0.1126    0.0000 N   0  0  0  0  0  0  0  0  0  0  0  0
    1.8490    2.1936    0.0000 N   0  0  0  0  0  0  0  0  0  0  0  0
    0.3726    1.3640    0.0000 C   0  0  0  0  0  0  0  0  0  0  0  0
    0.3867    2.2077    0.0000 C   0  0  0  0  0  0  0  0  0  0  0  0
   -1.8208    0.9563    0.0000 C   0  0  0  0  0  0  0  0  0  0  0  0
   -1.7095   -2.0540    0.0000 C   0  0  0  0  0  0  0  0  0  0  0  0
    1.1178    0.9422    0.0000 C   0  0  0  0  0  0  0  0  0  0  0  0
    1.8208    1.3500    0.0000 C   0  0  0  0  0  0  0  0  0  0  0  0
   -2.5520   -0.2952    0.0000 C   0  0  0  0  0  0  0  0  0  0  0  0
   -3.2832    0.9422    0.0000 C   0  0  0  0  0  0  0  0  0  0  0  0
   -1.1037    1.3500    0.0000 C   0  0  0  0  0  0  0  0  0  0  0  0
   -1.8349    0.1126    0.0000 C   0  0  0  0  0  0  0  0  0  0  0  0
   -2.5660    1.3500    0.0000 C   0  0  0  0  0  0  0  0  0  0  0  0
   -1.1850   -1.1874    0.0000 C   0  0  0  0  0  0  0  0  0  0  0  0
    1.0897    2.5873    0.0000 C   0  0  0  0  0  0  0  0  0  0  0  0
    2.5660    0.9281    0.0000 C   0  0  0  0  0  0  0  0  0  0  0  0
   -0.6718   -1.1645    0.0000 C   0  0  0  0  0  0  0  0  0  0  0  0
   -1.7095   -1.1874    0.0000 C   0  0  0  0  0  0  0  0  0  0  0  0
   -1.1964   -0.6286    0.0000 C   0  0  0  0  0  0  0  0  0  0  0  0
  1 21  1  0  0  0  0
  2  9  1  0  0  0  0
  3  8  1  0  0  0  0
  3 16  1  0  0  0  0
  4 11  1  0  0  0  0
  4 19  1  0  0  0  0
  5 11  2  0  0  0  0
  6 11  1  0  0  0  0
  6 14  1  0  0  0  0
  6 15  1  0  0  0  0
  7 13  2  0  0  0  0
  7 20  1  0  0  0  0
  8  9  1  0  0  0  0
  8 12  2  0  0  0  0
  9 20  2  0  0  0  0
 10 16  1  0  0  0  0
 10 17  1  0  0  0  0
 10 18  1  0  0  0  0
 12 13  1  0  0  0  0
 13 21  1  0  0  0  0
 14 17  1  0  0  0  0
 15 18  1  0  0  0  0
 19 22  1  0  0  0  0
 19 23  1  0  0  0  0
 19 24  1  0  0  0  0
M  END
> <PUBCHEM_COMPOUND_ID_TYPE>
0

> <PUBCHEM_TOTAL_CHARGE>
0

> <PUBCHEM_SUBSTANCE_ID>
310941808

> <PUBCHEM_SUBSTANCE_VERSION>
1

> <PUBCHEM_EXT_DATASOURCE_NAME>
4488

> <PUBCHEM_EXT_DATASOURCE_REGID>
SCHEMBL16119840

> <PUBCHEM_SUBSTANCE_COMMENT>
InChI=1S/C17H24BrIN2O3/c1-17(2,3)24-16(22)21-6-4-12(5-7-21)11-23-15-8-13(9-19)20-10-14(15)18/h8,10,12H,4-7,9,11H2,1-3H3
InChIKey=XHHSHZFHYZXEQU-UHFFFAOYSA-N

> <PUBCHEM_SUBSTANCE_SYNONYM>
SCHEMBL16119840

> <PUBCHEM_XREF_EXT_ID>
SCHEMBL16119840

> <PUBCHEM_EXT_DATASOURCE_URL>
https://www.surechembl.org/

> <PUBCHEM_EXT_SUBSTANCE_URL>
https://www.surechembl.org/chemical/SCHEMBL16119840

> <PUBCHEM_CID_ASSOCIATIONS>
117608555  1

> <PUBCHEM_COORDINATE_TYPE>
1
3

$$$$
