310939352
  -OEChem-07211613022D

 25 26  0     1  0  0  0  0  0999 V2000
    1.7862    1.4437    0.0000 Cl  0  0  0  0  0  0  0  0  0  0  0  0
    0.3572   -1.0313    0.0000 F   0  0  0  0  0  0  0  0  0  0  0  0
    1.7862   -0.2063    0.0000 O   0  0  0  0  0  0  0  0  0  0  0  0
   -3.9296   -0.2063    0.0000 O   0  0  0  0  0  0  0  0  0  0  0  0
   -1.7862    0.2062    0.0000 N   0  0  0  0  0  0  0  0  0  0  0  0
    3.2151   -0.2062    0.0000 N   0  0  0  0  0  0  0  0  0  0  0  0
   -3.2151    1.0312    0.0000 N   0  0  0  0  0  0  0  0  0  0  0  0
    1.0717    0.2062    0.0000 C   0  0  0  0  0  0  0  0  0  0  0  0
    0.3572   -0.2063    0.0000 C   0  0  0  0  0  0  0  0  0  0  0  0
   -0.3572    0.2062    0.0000 C   0  0  0  0  0  0  0  0  0  0  0  0
    1.0717    1.0312    0.0000 C   0  0  0  0  0  0  0  0  0  0  0  0
   -1.0717   -0.2063    0.0000 C   0  0  3  0  0  0  0  0  0  0  0  0
   -0.3572    1.0312    0.0000 C   0  0  0  0  0  0  0  0  0  0  0  0
    0.3572    1.4438    0.0000 C   0  0  0  0  0  0  0  0  0  0  0  0
    2.5006    0.2062    0.0000 C   0  0  0  0  0  0  0  0  0  0  0  0
   -1.0717   -1.0313    0.0000 C   0  0  0  0  0  0  0  0  0  0  0  0
   -1.7862    1.0312    0.0000 C   0  0  3  0  0  0  0  0  0  0  0  0
    2.5006    1.0312    0.0000 C   0  0  0  0  0  0  0  0  0  0  0  0
    3.9296    0.2062    0.0000 C   0  0  0  0  0  0  0  0  0  0  0  0
    3.2151    1.4437    0.0000 C   0  0  0  0  0  0  0  0  0  0  0  0
   -2.5006    1.4437    0.0000 C   0  0  0  0  0  0  0  0  0  0  0  0
    3.9296    1.0312    0.0000 C   0  0  0  0  0  0  0  0  0  0  0  0
   -0.3572   -1.4438    0.0000 C   0  0  0  0  0  0  0  0  0  0  0  0
   -1.0717    1.4437    0.0000 C   0  0  0  0  0  0  0  0  0  0  0  0
   -3.2151    0.2062    0.0000 C   0  0  0  0  0  0  0  0  0  0  0  0
  1 11  1  0  0  0  0
  2  9  1  0  0  0  0
  3  8  1  0  0  0  0
  3 15  1  0  0  0  0
  4 25  2  0  0  0  0
 12  5  1  1  0  0  0
  5 17  1  0  0  0  0
  6 15  2  0  0  0  0
  6 19  1  0  0  0  0
  7 21  1  0  0  0  0
  7 25  1  0  0  0  0
  8  9  2  0  0  0  0
  8 11  1  0  0  0  0
  9 10  1  0  0  0  0
 10 12  1  0  0  0  0
 10 13  2  0  0  0  0
 11 14  2  0  0  0  0
 12 16  1  0  0  0  0
 13 14  1  0  0  0  0
 15 18  1  0  0  0  0
 16 23  1  0  0  0  0
 17 21  1  0  0  0  0
 17 24  1  1  0  0  0
 18 20  2  0  0  0  0
 19 22  2  0  0  0  0
 20 22  1  0  0  0  0
M  END
> <PUBCHEM_COMPOUND_ID_TYPE>
0

> <PUBCHEM_TOTAL_CHARGE>
0

> <PUBCHEM_SUBSTANCE_ID>
310939352

> <PUBCHEM_SUBSTANCE_VERSION>
1

> <PUBCHEM_EXT_DATASOURCE_NAME>
4488

> <PUBCHEM_EXT_DATASOURCE_REGID>
SCHEMBL16117273

> <PUBCHEM_SUBSTANCE_COMMENT>
InChI=1S/C18H21ClFN3O2/c1-3-15(23-12(2)10-21-11-24)13-7-8-14(19)18(17(13)20)25-16-6-4-5-9-22-16/h4-9,11-12,15,23H,3,10H2,1-2H3,(H,21,24)/t12-,15-/m1/s1
InChIKey=WDIQPSDWJAUZMZ-IUODEOHRSA-N

> <PUBCHEM_SUBSTANCE_SYNONYM>
SCHEMBL16117273

> <PUBCHEM_XREF_EXT_ID>
SCHEMBL16117273

> <PUBCHEM_EXT_DATASOURCE_URL>
https://www.surechembl.org/

> <PUBCHEM_EXT_SUBSTANCE_URL>
https://www.surechembl.org/chemical/SCHEMBL16117273

> <PUBCHEM_CID_ASSOCIATIONS>
117606679  1

> <PUBCHEM_COORDINATE_TYPE>
1
3

> <PUBCHEM_BONDANNOTATIONS>
17  24  5
12  5  5

$$$$
