310945067
  -OEChem-07211613022D

 34 37  0     0  0  0  0  0  0999 V2000
    4.2914   -2.2303    0.0000 O   0  0  0  0  0  0  0  0  0  0  0  0
    5.0066   -1.0069    0.0000 O   0  0  0  0  0  0  0  0  0  0  0  0
   -2.8797   -1.4022    0.0000 N   0  0  0  0  0  0  0  0  0  0  0  0
   -4.3290   -2.2303    0.0000 N   0  0  0  0  0  0  0  0  0  0  0  0
   -0.0376    0.2165    0.0000 C   0  0  0  0  0  0  0  0  0  0  0  0
   -0.7340   -0.1788    0.0000 C   0  0  0  0  0  0  0  0  0  0  0  0
   -0.0188    1.0446    0.0000 C   0  0  0  0  0  0  0  0  0  0  0  0
    0.7152   -0.1788    0.0000 C   0  0  0  0  0  0  0  0  0  0  0  0
    0.6964    1.4587    0.0000 C   0  0  0  0  0  0  0  0  0  0  0  0
   -2.1645   -1.0069    0.0000 C   0  0  0  0  0  0  0  0  0  0  0  0
   -1.4681    0.2165    0.0000 C   0  0  0  0  0  0  0  0  0  0  0  0
   -0.7528   -1.0258    0.0000 C   0  0  0  0  0  0  0  0  0  0  0  0
    0.7152   -1.0258    0.0000 C   0  0  0  0  0  0  0  0  0  0  0  0
    1.4117    0.2165    0.0000 C   0  0  0  0  0  0  0  0  0  0  0  0
   -2.1457   -0.1976    0.0000 C   0  0  0  0  0  0  0  0  0  0  0  0
   -1.4304   -1.4022    0.0000 C   0  0  0  0  0  0  0  0  0  0  0  0
   -0.7340    1.4587    0.0000 C   0  0  0  0  0  0  0  0  0  0  0  0
    2.1269   -1.0069    0.0000 C   0  0  0  0  0  0  0  0  0  0  0  0
    1.4305    1.0634    0.0000 C   0  0  0  0  0  0  0  0  0  0  0  0
    0.7152    2.2868    0.0000 C   0  0  0  0  0  0  0  0  0  0  0  0
    1.4493   -1.4022    0.0000 C   0  0  0  0  0  0  0  0  0  0  0  0
    2.1269   -0.1976    0.0000 C   0  0  0  0  0  0  0  0  0  0  0  0
   -2.8985   -2.2492    0.0000 C   0  0  0  0  0  0  0  0  0  0  0  0
   -3.6326   -1.0258    0.0000 C   0  0  0  0  0  0  0  0  0  0  0  0
    2.1269    1.4587    0.0000 C   0  0  0  0  0  0  0  0  0  0  0  0
    1.3928    2.6821    0.0000 C   0  0  0  0  0  0  0  0  0  0  0  0
   -3.5949   -2.6633    0.0000 C   0  0  0  0  0  0  0  0  0  0  0  0
   -4.3102   -1.4210    0.0000 C   0  0  0  0  0  0  0  0  0  0  0  0
    2.8797   -1.4210    0.0000 C   0  0  0  0  0  0  0  0  0  0  0  0
   -0.7528    2.2868    0.0000 C   0  0  0  0  0  0  0  0  0  0  0  0
    2.1269    2.2680    0.0000 C   0  0  0  0  0  0  0  0  0  0  0  0
    3.5573   -1.0258    0.0000 C   0  0  0  0  0  0  0  0  0  0  0  0
   -5.0066   -2.6821    0.0000 C   0  0  0  0  0  0  0  0  0  0  0  0
    4.2914   -1.4022    0.0000 C   0  0  0  0  0  0  0  0  0  0  0  0
  1 34  2  0  0  0  0
  2 34  1  0  0  0  0
  3 10  1  0  0  0  0
  3 23  1  0  0  0  0
  3 24  1  0  0  0  0
  4 27  1  0  0  0  0
  4 28  1  0  0  0  0
  4 33  1  0  0  0  0
  5  6  1  0  0  0  0
  5  7  2  0  0  0  0
  5  8  1  0  0  0  0
  6 11  2  0  0  0  0
  6 12  1  0  0  0  0
  7  9  1  0  0  0  0
  7 17  1  0  0  0  0
  8 13  2  0  0  0  0
  8 14  1  0  0  0  0
  9 19  2  0  0  0  0
  9 20  1  0  0  0  0
 10 15  2  0  0  0  0
 10 16  1  0  0  0  0
 11 15  1  0  0  0  0
 12 16  2  0  0  0  0
 13 21  1  0  0  0  0
 14 22  2  0  0  0  0
 17 30  1  0  0  0  0
 18 21  2  0  0  0  0
 18 22  1  0  0  0  0
 18 29  1  0  0  0  0
 19 25  1  0  0  0  0
 20 26  2  0  0  0  0
 23 27  1  0  0  0  0
 24 28  1  0  0  0  0
 25 31  2  0  0  0  0
 26 31  1  0  0  0  0
 29 32  2  0  0  0  0
 32 34  1  0  0  0  0
M  END
> <PUBCHEM_COMPOUND_ID_TYPE>
0

> <PUBCHEM_TOTAL_CHARGE>
0

> <PUBCHEM_SUBSTANCE_ID>
310945067

> <PUBCHEM_SUBSTANCE_VERSION>
1

> <PUBCHEM_EXT_DATASOURCE_NAME>
4488

> <PUBCHEM_EXT_DATASOURCE_REGID>
SCHEMBL16123156

> <PUBCHEM_SUBSTANCE_COMMENT>
InChI=1S/C30H32N2O2/c1-3-28(24-7-5-4-6-8-24)30(25-12-9-23(10-13-25)11-18-29(33)34)26-14-16-27(17-15-26)32-21-19-31(2)20-22-32/h4-18H,3,19-22H2,1-2H3,(H,33,34)/b18-11+,30-28+
InChIKey=BYIANWPUWHSHKX-FUACZAOHSA-N

> <PUBCHEM_SUBSTANCE_SYNONYM>
SCHEMBL16123156

> <PUBCHEM_XREF_EXT_ID>
SCHEMBL16123156

> <PUBCHEM_EXT_DATASOURCE_URL>
https://www.surechembl.org/

> <PUBCHEM_EXT_SUBSTANCE_URL>
https://www.surechembl.org/chemical/SCHEMBL16123156

> <PUBCHEM_CID_ASSOCIATIONS>
86271283  1

> <PUBCHEM_COORDINATE_TYPE>
1
3

$$$$
