310949754
  -OEChem-07211613022D

 24 25  0     0  0  0  0  0  0999 V2000
   -3.2337    1.5037    0.0000 S   0  0  0  0  0  0  0  0  0  0  0  0
   -1.0646    1.0912    0.0000 O   0  0  0  0  0  0  0  0  0  0  0  0
   -2.8079    2.2090    0.0000 O   0  0  0  0  0  0  0  0  0  0  0  0
   -3.6330    0.7851    0.0000 O   0  0  0  0  0  0  0  0  0  0  0  0
    3.2337   -2.2090    0.0000 O   0  0  0  0  0  0  0  0  0  0  0  0
    3.9524   -0.9714    0.0000 O   0  0  0  0  0  0  0  0  0  0  0  0
   -2.5151    1.0912    0.0000 N   0  0  0  0  0  0  0  0  0  0  0  0
   -0.3593   -0.1464    0.0000 N   0  0  0  0  0  0  0  0  0  0  0  0
   -1.7965   -0.1597    0.0000 C   0  0  0  0  0  0  0  0  0  0  0  0
   -2.5151    0.2528    0.0000 C   0  0  0  0  0  0  0  0  0  0  0  0
   -1.0779    0.2396    0.0000 C   0  0  0  0  0  0  0  0  0  0  0  0
   -1.7965   -0.9847    0.0000 C   0  0  0  0  0  0  0  0  0  0  0  0
   -3.2204   -0.1597    0.0000 C   0  0  0  0  0  0  0  0  0  0  0  0
    1.0912   -0.1730    0.0000 C   0  0  0  0  0  0  0  0  0  0  0  0
    2.5018   -0.9714    0.0000 C   0  0  0  0  0  0  0  0  0  0  0  0
   -2.5284   -1.3840    0.0000 C   0  0  0  0  0  0  0  0  0  0  0  0
    0.3593    0.2528    0.0000 C   0  0  0  0  0  0  0  0  0  0  0  0
   -3.2204   -0.9847    0.0000 C   0  0  0  0  0  0  0  0  0  0  0  0
    1.7965    0.2528    0.0000 C   0  0  0  0  0  0  0  0  0  0  0  0
    1.0779   -0.9714    0.0000 C   0  0  0  0  0  0  0  0  0  0  0  0
    2.5151   -0.1597    0.0000 C   0  0  0  0  0  0  0  0  0  0  0  0
    1.7832   -1.3840    0.0000 C   0  0  0  0  0  0  0  0  0  0  0  0
    3.2337   -1.3706    0.0000 C   0  0  0  0  0  0  0  0  0  0  0  0
   -3.9524    1.9429    0.0000 C   0  0  0  0  0  0  0  0  0  0  0  0
  1  3  2  0  0  0  0
  1  4  2  0  0  0  0
  1  7  1  0  0  0  0
  1 24  1  0  0  0  0
  2 11  2  0  0  0  0
  5 23  2  0  0  0  0
  6 23  1  0  0  0  0
  7 10  1  0  0  0  0
  8 11  1  0  0  0  0
  8 17  1  0  0  0  0
  9 10  2  0  0  0  0
  9 11  1  0  0  0  0
  9 12  1  0  0  0  0
 10 13  1  0  0  0  0
 12 16  2  0  0  0  0
 13 18  2  0  0  0  0
 14 17  1  0  0  0  0
 14 19  2  0  0  0  0
 14 20  1  0  0  0  0
 15 21  2  0  0  0  0
 15 22  1  0  0  0  0
 15 23  1  0  0  0  0
 16 18  1  0  0  0  0
 19 21  1  0  0  0  0
 20 22  2  0  0  0  0
M  END
> <PUBCHEM_COMPOUND_ID_TYPE>
0

> <PUBCHEM_TOTAL_CHARGE>
0

> <PUBCHEM_SUBSTANCE_ID>
310949754

> <PUBCHEM_SUBSTANCE_VERSION>
1

> <PUBCHEM_EXT_DATASOURCE_NAME>
4488

> <PUBCHEM_EXT_DATASOURCE_REGID>
SCHEMBL16127952

> <PUBCHEM_SUBSTANCE_COMMENT>
InChI=1S/C16H16N2O5S/c1-24(22,23)18-14-5-3-2-4-13(14)15(19)17-10-11-6-8-12(9-7-11)16(20)21/h2-9,18H,10H2,1H3,(H,17,19)(H,20,21)
InChIKey=WNRRZXZUECQDLT-UHFFFAOYSA-N

> <PUBCHEM_SUBSTANCE_SYNONYM>
SCHEMBL16127952

> <PUBCHEM_XREF_EXT_ID>
SCHEMBL16127952

> <PUBCHEM_EXT_DATASOURCE_URL>
https://www.surechembl.org/

> <PUBCHEM_EXT_SUBSTANCE_URL>
https://www.surechembl.org/chemical/SCHEMBL16127952

> <PUBCHEM_CID_ASSOCIATIONS>
117615082  1

> <PUBCHEM_COORDINATE_TYPE>
1
3

$$$$
