310943394
  -OEChem-07211613022D

 34 37  0     0  0  0  0  0  0999 V2000
    4.6259    1.6688    0.0000 F   0  0  0  0  0  0  0  0  0  0  0  0
    5.3432    0.4245    0.0000 F   0  0  0  0  0  0  0  0  0  0  0  0
   -3.9232   -0.8198    0.0000 O   0  0  0  0  0  0  0  0  0  0  0  0
   -5.3432    1.6688    0.0000 O   0  0  0  0  0  0  0  0  0  0  0  0
    1.7713    1.6542    0.0000 O   0  0  0  0  0  0  0  0  0  0  0  0
   -3.9232    0.8344    0.0000 N   0  0  0  0  0  0  0  0  0  0  0  0
   -1.7860   -0.3953    0.0000 N   0  0  0  0  0  0  0  0  0  0  0  0
   -2.5033   -0.8198    0.0000 N   0  0  0  0  0  0  0  0  0  0  0  0
    1.0540    0.4245    0.0000 N   0  0  0  0  0  0  0  0  0  0  0  0
    3.9086   -0.3953    0.0000 N   0  0  0  0  0  0  0  0  0  0  0  0
   -1.7713    0.4392    0.0000 C   0  0  0  0  0  0  0  0  0  0  0  0
   -3.2059    0.4392    0.0000 C   0  0  0  0  0  0  0  0  0  0  0  0
   -1.0832    0.8491    0.0000 C   0  0  0  0  0  0  0  0  0  0  0  0
   -3.2206   -0.3953    0.0000 C   0  0  0  0  0  0  0  0  0  0  0  0
   -2.5033    0.8344    0.0000 C   0  0  0  0  0  0  0  0  0  0  0  0
   -1.0687    1.6688    0.0000 C   0  0  0  0  0  0  0  0  0  0  0  0
   -0.3367    0.4392    0.0000 C   0  0  0  0  0  0  0  0  0  0  0  0
    0.3367    0.8491    0.0000 C   0  0  0  0  0  0  0  0  0  0  0  0
   -0.3659    2.0641    0.0000 C   0  0  0  0  0  0  0  0  0  0  0  0
    0.3514    1.6688    0.0000 C   0  0  0  0  0  0  0  0  0  0  0  0
    1.7566    0.8198    0.0000 C   0  0  0  0  0  0  0  0  0  0  0  0
    2.4886    0.4392    0.0000 C   0  0  0  0  0  0  0  0  0  0  0  0
   -3.9232    1.6688    0.0000 C   0  0  0  0  0  0  0  0  0  0  0  0
   -4.6113    0.4245    0.0000 C   0  0  0  0  0  0  0  0  0  0  0  0
    3.9232    0.4392    0.0000 C   0  0  0  0  0  0  0  0  0  0  0  0
    3.1912    0.8344    0.0000 C   0  0  0  0  0  0  0  0  0  0  0  0
   -1.8006    2.0788    0.0000 C   0  0  0  0  0  0  0  0  0  0  0  0
    2.4886   -0.3953    0.0000 C   0  0  0  0  0  0  0  0  0  0  0  0
   -4.6405    2.0788    0.0000 C   0  0  0  0  0  0  0  0  0  0  0  0
   -5.3432    0.8344    0.0000 C   0  0  0  0  0  0  0  0  0  0  0  0
   -3.9232   -1.6395    0.0000 C   0  0  0  0  0  0  0  0  0  0  0  0
    4.6259    0.8491    0.0000 C   0  0  0  0  0  0  0  0  0  0  0  0
    3.2059   -0.8051    0.0000 C   0  0  0  0  0  0  0  0  0  0  0  0
   -4.6113   -2.0788    0.0000 C   0  0  0  0  0  0  0  0  0  0  0  0
  1 32  1  0  0  0  0
  2 32  1  0  0  0  0
  3 14  1  0  0  0  0
  3 31  1  0  0  0  0
  4 29  1  0  0  0  0
  4 30  1  0  0  0  0
  5 21  2  0  0  0  0
  6 12  1  0  0  0  0
  6 23  1  0  0  0  0
  6 24  1  0  0  0  0
  7  8  2  0  0  0  0
  7 11  1  0  0  0  0
  8 14  1  0  0  0  0
  9 18  1  0  0  0  0
  9 21  1  0  0  0  0
 10 25  1  0  0  0  0
 10 33  2  0  0  0  0
 11 13  1  0  0  0  0
 11 15  2  0  0  0  0
 12 14  2  0  0  0  0
 12 15  1  0  0  0  0
 13 16  2  0  0  0  0
 13 17  1  0  0  0  0
 16 19  1  0  0  0  0
 16 27  1  0  0  0  0
 17 18  2  0  0  0  0
 18 20  1  0  0  0  0
 19 20  2  0  0  0  0
 21 22  1  0  0  0  0
 22 26  1  0  0  0  0
 22 28  2  0  0  0  0
 23 29  1  0  0  0  0
 24 30  1  0  0  0  0
 25 26  2  0  0  0  0
 25 32  1  0  0  0  0
 28 33  1  0  0  0  0
 31 34  1  0  0  0  0
M  END
> <PUBCHEM_COMPOUND_ID_TYPE>
0

> <PUBCHEM_TOTAL_CHARGE>
0

> <PUBCHEM_SUBSTANCE_ID>
310943394

> <PUBCHEM_SUBSTANCE_VERSION>
1

> <PUBCHEM_EXT_DATASOURCE_NAME>
4488

> <PUBCHEM_EXT_DATASOURCE_REGID>
SCHEMBL16121457

> <PUBCHEM_SUBSTANCE_COMMENT>
InChI=1S/C24H25F2N5O3/c1-3-34-24-21(31-8-10-33-11-9-31)14-19(29-30-24)18-13-17(5-4-15(18)2)28-23(32)16-6-7-27-20(12-16)22(25)26/h4-7,12-14,22H,3,8-11H2,1-2H3,(H,28,32)
InChIKey=ONAMZFMHCGHNSP-UHFFFAOYSA-N

> <PUBCHEM_SUBSTANCE_SYNONYM>
SCHEMBL16121457

> <PUBCHEM_XREF_EXT_ID>
SCHEMBL16121457

> <PUBCHEM_EXT_DATASOURCE_URL>
https://www.surechembl.org/

> <PUBCHEM_EXT_SUBSTANCE_URL>
https://www.surechembl.org/chemical/SCHEMBL16121457

> <PUBCHEM_CID_ASSOCIATIONS>
117609818  1

> <PUBCHEM_COORDINATE_TYPE>
1
3

$$$$
