310949454
  -OEChem-07211613022D

 17 18  0     0  0  0  0  0  0999 V2000
   -1.0631   -1.2511    0.0000 O   0  0  0  0  0  0  0  0  0  0  0  0
    3.2153   -0.4084    0.0000 O   0  0  0  0  0  0  0  0  0  0  0  0
   -1.7891   -0.0194    0.0000 N   0  0  0  0  0  0  0  0  0  0  0  0
    1.7762    0.4084    0.0000 N   0  0  0  0  0  0  0  0  0  0  0  0
   -3.2153    0.8103    0.0000 N   0  0  0  0  0  0  0  0  0  0  0  0
   -1.0631   -0.3824    0.0000 C   0  0  0  0  0  0  0  0  0  0  0  0
   -2.4892   -0.3954    0.0000 C   0  0  0  0  0  0  0  0  0  0  0  0
   -1.7891    0.8362    0.0000 C   0  0  0  0  0  0  0  0  0  0  0  0
   -0.3630   -0.0065    0.0000 C   0  0  0  0  0  0  0  0  0  0  0  0
    1.0631    0.8362    0.0000 C   0  0  0  0  0  0  0  0  0  0  0  0
    0.3760    0.4344    0.0000 C   0  0  0  0  0  0  0  0  0  0  0  0
    1.7891   -0.3824    0.0000 C   0  0  0  0  0  0  0  0  0  0  0  0
    2.4633    0.8362    0.0000 C   0  0  0  0  0  0  0  0  0  0  0  0
   -3.2153    0.0065    0.0000 C   0  0  0  0  0  0  0  0  0  0  0  0
   -2.5022    1.2511    0.0000 C   0  0  0  0  0  0  0  0  0  0  0  0
    2.4763   -0.7844    0.0000 C   0  0  0  0  0  0  0  0  0  0  0  0
    3.1893    0.4214    0.0000 C   0  0  0  0  0  0  0  0  0  0  0  0
  1  6  2  0  0  0  0
  2 16  1  0  0  0  0
  2 17  1  0  0  0  0
  3  6  1  0  0  0  0
  3  7  1  0  0  0  0
  3  8  1  0  0  0  0
  4 10  1  0  0  0  0
  4 12  1  0  0  0  0
  4 13  1  0  0  0  0
  5 14  1  0  0  0  0
  5 15  1  0  0  0  0
  6  9  1  0  0  0  0
  7 14  1  0  0  0  0
  8 15  1  0  0  0  0
  9 11  3  0  0  0  0
 10 11  1  0  0  0  0
 12 16  1  0  0  0  0
 13 17  1  0  0  0  0
M  END
> <PUBCHEM_COMPOUND_ID_TYPE>
0

> <PUBCHEM_TOTAL_CHARGE>
0

> <PUBCHEM_SUBSTANCE_ID>
310949454

> <PUBCHEM_SUBSTANCE_VERSION>
1

> <PUBCHEM_EXT_DATASOURCE_NAME>
4488

> <PUBCHEM_EXT_DATASOURCE_REGID>
SCHEMBL16127648

> <PUBCHEM_SUBSTANCE_COMMENT>
InChI=1S/C12H19N3O2/c16-12(15-6-3-13-4-7-15)2-1-5-14-8-10-17-11-9-14/h13H,3-11H2
InChIKey=JDSAIXOVMZDMGH-UHFFFAOYSA-N

> <PUBCHEM_SUBSTANCE_SYNONYM>
SCHEMBL16127648

> <PUBCHEM_XREF_EXT_ID>
SCHEMBL16127648

> <PUBCHEM_EXT_DATASOURCE_URL>
https://www.surechembl.org/

> <PUBCHEM_EXT_SUBSTANCE_URL>
https://www.surechembl.org/chemical/SCHEMBL16127648

> <PUBCHEM_CID_ASSOCIATIONS>
117614900  1

> <PUBCHEM_COORDINATE_TYPE>
1
3

$$$$
