310941572
  -OEChem-07211613022D

 27 30  0     0  0  0  0  0  0999 V2000
   -3.4868   -2.7311    0.0000 Cl  0  0  0  0  0  0  0  0  0  0  0  0
    0.2458    0.7283    0.0000 S   0  0  0  0  0  0  0  0  0  0  0  0
   -0.6100   -1.9118    0.0000 O   0  0  0  0  0  0  0  0  0  0  0  0
   -2.0483   -1.9300    0.0000 N   0  0  0  0  0  0  0  0  0  0  0  0
    0.1548   -0.6190    0.0000 N   0  0  0  0  0  0  0  0  0  0  0  0
    1.4840   -0.0546    0.0000 N   0  0  0  0  0  0  0  0  0  0  0  0
   -1.3565   -0.6919    0.0000 C   0  0  0  0  0  0  0  0  0  0  0  0
   -2.7949   -1.4930    0.0000 C   0  0  0  0  0  0  0  0  0  0  0  0
   -1.3929   -1.4930    0.0000 C   0  0  0  0  0  0  0  0  0  0  0  0
   -2.7766   -0.6919    0.0000 C   0  0  0  0  0  0  0  0  0  0  0  0
   -0.6282   -0.2367    0.0000 C   0  0  0  0  0  0  0  0  0  0  0  0
   -2.0483   -0.2549    0.0000 C   0  0  0  0  0  0  0  0  0  0  0  0
   -3.5231   -1.9300    0.0000 C   0  0  0  0  0  0  0  0  0  0  0  0
    0.6646    0.0182    0.0000 C   0  0  0  0  0  0  0  0  0  0  0  0
   -0.5189    0.5645    0.0000 C   0  0  0  0  0  0  0  0  0  0  0  0
   -3.5050   -0.2731    0.0000 C   0  0  0  0  0  0  0  0  0  0  0  0
   -4.1969   -1.5113    0.0000 C   0  0  0  0  0  0  0  0  0  0  0  0
   -4.1969   -0.6919    0.0000 C   0  0  0  0  0  0  0  0  0  0  0  0
   -2.0301   -2.7858    0.0000 C   0  0  0  0  0  0  0  0  0  0  0  0
    1.9938    0.5827    0.0000 C   0  0  0  0  0  0  0  0  0  0  0  0
    2.8313    0.4370    0.0000 C   0  0  0  0  0  0  0  0  0  0  0  0
    1.7206    1.3292    0.0000 C   0  0  0  0  0  0  0  0  0  0  0  0
    3.3411    1.0925    0.0000 C   0  0  0  0  0  0  0  0  0  0  0  0
    2.2305    2.0028    0.0000 C   0  0  0  0  0  0  0  0  0  0  0  0
    3.0316    1.8572    0.0000 C   0  0  0  0  0  0  0  0  0  0  0  0
    4.1969    0.9650    0.0000 C   0  0  0  0  0  0  0  0  0  0  0  0
    1.9209    2.7858    0.0000 C   0  0  0  0  0  0  0  0  0  0  0  0
  1 13  1  0  0  0  0
  2 14  1  0  0  0  0
  2 15  1  0  0  0  0
  3  9  2  0  0  0  0
  4  8  1  0  0  0  0
  4  9  1  0  0  0  0
  4 19  1  0  0  0  0
  5 11  1  0  0  0  0
  5 14  2  0  0  0  0
  6 14  1  0  0  0  0
  6 20  1  0  0  0  0
  7  9  1  0  0  0  0
  7 11  1  0  0  0  0
  7 12  2  0  0  0  0
  8 10  1  0  0  0  0
  8 13  2  0  0  0  0
 10 12  1  0  0  0  0
 10 16  2  0  0  0  0
 11 15  2  0  0  0  0
 13 17  1  0  0  0  0
 16 18  1  0  0  0  0
 17 18  2  0  0  0  0
 20 21  2  0  0  0  0
 20 22  1  0  0  0  0
 21 23  1  0  0  0  0
 22 24  2  0  0  0  0
 23 25  2  0  0  0  0
 23 26  1  0  0  0  0
 24 25  1  0  0  0  0
 24 27  1  0  0  0  0
M  END
> <PUBCHEM_COMPOUND_ID_TYPE>
0

> <PUBCHEM_TOTAL_CHARGE>
0

> <PUBCHEM_SUBSTANCE_ID>
310941572

> <PUBCHEM_SUBSTANCE_VERSION>
1

> <PUBCHEM_EXT_DATASOURCE_NAME>
4488

> <PUBCHEM_EXT_DATASOURCE_REGID>
SCHEMBL16119603

> <PUBCHEM_SUBSTANCE_COMMENT>
InChI=1S/C21H18ClN3OS/c1-12-7-13(2)9-15(8-12)23-21-24-18(11-27-21)16-10-14-5-4-6-17(22)19(14)25(3)20(16)26/h4-11H,1-3H3,(H,23,24)
InChIKey=GBIFEVWWBBXNSX-UHFFFAOYSA-N

> <PUBCHEM_SUBSTANCE_SYNONYM>
SCHEMBL16119603

> <PUBCHEM_XREF_EXT_ID>
SCHEMBL16119603

> <PUBCHEM_EXT_DATASOURCE_URL>
https://www.surechembl.org/

> <PUBCHEM_EXT_SUBSTANCE_URL>
https://www.surechembl.org/chemical/SCHEMBL16119603

> <PUBCHEM_CID_ASSOCIATIONS>
117608374  1

> <PUBCHEM_COORDINATE_TYPE>
1
3

$$$$
