310944810
  -OEChem-07211613022D

 28 30  0     0  0  0  0  0  0999 V2000
   -4.4519   -1.0467    0.0000 Cl  0  0  0  0  0  0  0  0  0  0  0  0
    3.6701   -0.6094    0.0000 O   0  0  0  0  0  0  0  0  0  0  0  0
    0.0132    1.4442    0.0000 O   0  0  0  0  0  0  0  0  0  0  0  0
    2.9017   -1.8549    0.0000 O   0  0  0  0  0  0  0  0  0  0  0  0
    0.7552    0.1988    0.0000 N   0  0  0  0  0  0  0  0  0  0  0  0
    2.1994   -0.6227    0.0000 N   0  0  0  0  0  0  0  0  0  0  0  0
   -1.4044    0.6227    0.0000 N   0  0  0  0  0  0  0  0  0  0  0  0
   -2.8487    0.6227    0.0000 C   0  0  0  0  0  0  0  0  0  0  0  0
   -3.5508    0.2120    0.0000 C   0  0  0  0  0  0  0  0  0  0  0  0
   -2.1199    0.2120    0.0000 C   0  0  0  0  0  0  0  0  0  0  0  0
   -3.5508   -0.6227    0.0000 C   0  0  0  0  0  0  0  0  0  0  0  0
   -2.1199   -0.6227    0.0000 C   0  0  0  0  0  0  0  0  0  0  0  0
    0.0132    0.5962    0.0000 C   0  0  0  0  0  0  0  0  0  0  0  0
   -2.8354    1.4442    0.0000 C   0  0  0  0  0  0  0  0  0  0  0  0
   -2.8221   -1.0335    0.0000 C   0  0  0  0  0  0  0  0  0  0  0  0
   -4.2663    0.6227    0.0000 C   0  0  0  0  0  0  0  0  0  0  0  0
    2.9017   -1.0335    0.0000 C   0  0  0  0  0  0  0  0  0  0  0  0
   -0.6757    0.2120    0.0000 C   0  0  0  0  0  0  0  0  0  0  0  0
    1.4707    0.6094    0.0000 C   0  0  0  0  0  0  0  0  0  0  0  0
    0.7552   -0.6227    0.0000 C   0  0  0  0  0  0  0  0  0  0  0  0
    2.1862    0.2120    0.0000 C   0  0  0  0  0  0  0  0  0  0  0  0
    1.4839   -1.0335    0.0000 C   0  0  0  0  0  0  0  0  0  0  0  0
   -3.5508    1.8549    0.0000 C   0  0  0  0  0  0  0  0  0  0  0  0
   -4.2663    1.4442    0.0000 C   0  0  0  0  0  0  0  0  0  0  0  0
    3.6833    0.2385    0.0000 C   0  0  0  0  0  0  0  0  0  0  0  0
    4.4519    0.2783    0.0000 C   0  0  0  0  0  0  0  0  0  0  0  0
    2.9017    0.2385    0.0000 C   0  0  0  0  0  0  0  0  0  0  0  0
    3.6701    1.0865    0.0000 C   0  0  0  0  0  0  0  0  0  0  0  0
  1 11  1  0  0  0  0
  2 17  1  0  0  0  0
  2 25  1  0  0  0  0
  3 13  2  0  0  0  0
  4 17  2  0  0  0  0
  5 13  1  0  0  0  0
  5 19  1  0  0  0  0
  5 20  1  0  0  0  0
  6 17  1  0  0  0  0
  6 21  1  0  0  0  0
  6 22  1  0  0  0  0
  7 10  1  0  0  0  0
  7 18  1  0  0  0  0
  8  9  2  0  0  0  0
  8 10  1  0  0  0  0
  8 14  1  0  0  0  0
  9 11  1  0  0  0  0
  9 16  1  0  0  0  0
 10 12  2  0  0  0  0
 11 15  2  0  0  0  0
 12 15  1  0  0  0  0
 13 18  1  0  0  0  0
 14 23  2  0  0  0  0
 16 24  2  0  0  0  0
 19 21  1  0  0  0  0
 20 22  1  0  0  0  0
 23 24  1  0  0  0  0
 25 26  1  0  0  0  0
 25 27  1  0  0  0  0
 25 28  1  0  0  0  0
M  END
> <PUBCHEM_COMPOUND_ID_TYPE>
0

> <PUBCHEM_TOTAL_CHARGE>
0

> <PUBCHEM_SUBSTANCE_ID>
310944810

> <PUBCHEM_SUBSTANCE_VERSION>
1

> <PUBCHEM_EXT_DATASOURCE_NAME>
4488

> <PUBCHEM_EXT_DATASOURCE_REGID>
SCHEMBL16122889

> <PUBCHEM_SUBSTANCE_COMMENT>
InChI=1S/C21H26ClN3O3/c1-21(2,3)28-20(27)25-12-10-24(11-13-25)19(26)14-23-18-9-8-17(22)15-6-4-5-7-16(15)18/h4-9,23H,10-14H2,1-3H3
InChIKey=ZDFFLWGPSBBCEP-UHFFFAOYSA-N

> <PUBCHEM_SUBSTANCE_SYNONYM>
SCHEMBL16122889

> <PUBCHEM_XREF_EXT_ID>
SCHEMBL16122889

> <PUBCHEM_EXT_DATASOURCE_URL>
https://www.surechembl.org/

> <PUBCHEM_EXT_SUBSTANCE_URL>
https://www.surechembl.org/chemical/SCHEMBL16122889

> <PUBCHEM_CID_ASSOCIATIONS>
117611021  1

> <PUBCHEM_COORDINATE_TYPE>
1
3

$$$$
