310948793
  -OEChem-07211613022D

 40 45  0     1  0  0  0  0  0999 V2000
    1.2247   -2.6916    0.0000 S   0  0  0  0  0  0  0  0  0  0  0  0
    1.5015   -3.4804    0.0000 O   0  0  0  0  0  0  0  0  0  0  0  0
    0.4774   -3.0376    0.0000 O   0  0  0  0  0  0  0  0  0  0  0  0
    2.8439   -1.2801    0.0000 O   0  0  0  0  0  0  0  0  0  0  0  0
   -1.0171    1.8059    0.0000 O   0  0  0  0  0  0  0  0  0  0  0  0
    1.7367    1.6814    0.0000 N   0  0  0  0  0  0  0  0  0  0  0  0
    0.0070    0.3806    0.0000 N   0  0  0  0  0  0  0  0  0  0  0  0
    1.4046    0.9203    0.0000 N   0  0  0  0  0  0  0  0  0  0  0  0
   -0.3252    3.0514    0.0000 N   0  0  0  0  0  0  0  0  0  0  0  0
    2.5947   -0.3390    0.0000 N   0  0  0  0  0  0  0  0  0  0  0  0
    2.0274   -2.5117    0.0000 C   0  0  0  0  0  0  0  0  0  0  0  0
    0.7958   -1.9582    0.0000 C   0  0  0  0  0  0  0  0  0  0  0  0
    1.3493   -1.3493    0.0000 C   0  0  0  0  0  0  0  0  0  0  0  0
    2.1243   -1.6814    0.0000 C   0  0  3  0  0  0  0  0  0  0  0  0
    1.0863   -0.5605    0.0000 C   0  0  0  0  0  0  0  0  0  0  0  0
    0.3944    1.8336    0.0000 C   0  0  0  0  0  0  0  0  0  0  0  0
   -0.0070   -1.7783    0.0000 C   0  0  0  0  0  0  0  0  0  0  0  0
    0.2837   -0.3806    0.0000 C   0  0  0  0  0  0  0  0  0  0  0  0
    0.5743    1.0448    0.0000 C   0  0  0  0  0  0  0  0  0  0  0  0
    1.1140    2.2488    0.0000 C   0  0  0  0  0  0  0  0  0  0  0  0
    2.8853   -2.5255    0.0000 C   0  0  0  0  0  0  0  0  0  0  0  0
    2.1381   -3.3559    0.0000 C   0  0  0  0  0  0  0  0  0  0  0  0
   -0.2560   -1.0033    0.0000 C   0  0  0  0  0  0  0  0  0  0  0  0
   -0.3252    2.2488    0.0000 C   0  0  0  0  0  0  0  0  0  0  0  0
    2.5533    1.8613    0.0000 C   0  0  3  0  0  0  0  0  0  0  0  0
    1.1278    3.0653    0.0000 C   0  0  0  0  0  0  0  0  0  0  0  0
    3.1068    1.2524    0.0000 C   0  0  3  0  0  0  0  0  0  0  0  0
    0.3806    3.4804    0.0000 C   0  0  0  0  0  0  0  0  0  0  0  0
    2.8023    2.6501    0.0000 C   0  0  0  0  0  0  0  0  0  0  0  0
    3.9094    1.4323    0.0000 C   0  0  0  0  0  0  0  0  0  0  0  0
    2.8439    0.4498    0.0000 C   0  0  0  0  0  0  0  0  0  0  0  0
    3.6050    2.8162    0.0000 C   0  0  0  0  0  0  0  0  0  0  0  0
   -2.1104    2.1796    0.0000 C   0  0  0  0  0  0  0  0  0  0  0  0
    4.1723    2.2073    0.0000 C   0  0  0  0  0  0  0  0  0  0  0  0
   -2.7885    1.5568    0.0000 C   0  0  0  0  0  0  0  0  0  0  0  0
   -2.6086    0.7542    0.0000 C   0  0  0  0  0  0  0  0  0  0  0  0
   -3.5634    1.7921    0.0000 C   0  0  0  0  0  0  0  0  0  0  0  0
   -3.1898    0.1730    0.0000 C   0  0  0  0  0  0  0  0  0  0  0  0
   -4.1723    1.2247    0.0000 C   0  0  0  0  0  0  0  0  0  0  0  0
   -3.9925    0.4220    0.0000 C   0  0  0  0  0  0  0  0  0  0  0  0
  1  2  2  0  0  0  0
  1  3  2  0  0  0  0
  1 11  1  0  0  0  0
  1 12  1  0  0  0  0
  4 14  1  0  0  0  0
  5 24  1  0  0  0  0
  5 33  1  0  0  0  0
  6  8  1  0  0  0  0
  6 20  1  0  0  0  0
 25  6  1  1  0  0  0
  7 18  1  0  0  0  0
  7 19  1  0  0  0  0
  8 19  2  0  0  0  0
  9 24  2  0  0  0  0
  9 28  1  0  0  0  0
 10 31  3  0  0  0  0
 11 14  1  0  0  0  0
 11 21  1  0  0  0  0
 11 22  1  0  0  0  0
 12 13  2  0  0  0  0
 12 17  1  0  0  0  0
 13 14  1  0  0  0  0
 13 15  1  0  0  0  0
 15 18  2  0  0  0  0
 16 19  1  0  0  0  0
 16 20  2  0  0  0  0
 16 24  1  0  0  0  0
 17 23  2  0  0  0  0
 18 23  1  0  0  0  0
 20 26  1  0  0  0  0
 25 27  1  0  0  0  0
 25 29  1  0  0  0  0
 26 28  2  0  0  0  0
 27 30  1  0  0  0  0
 27 31  1  6  0  0  0
 29 32  1  0  0  0  0
 30 34  1  0  0  0  0
 32 34  1  0  0  0  0
 33 35  1  0  0  0  0
 35 36  2  0  0  0  0
 35 37  1  0  0  0  0
 36 38  1  0  0  0  0
 37 39  2  0  0  0  0
 38 40  2  0  0  0  0
 39 40  1  0  0  0  0
M  END
> <PUBCHEM_COMPOUND_ID_TYPE>
0

> <PUBCHEM_TOTAL_CHARGE>
0

> <PUBCHEM_SUBSTANCE_ID>
310948793

> <PUBCHEM_SUBSTANCE_VERSION>
1

> <PUBCHEM_EXT_DATASOURCE_NAME>
4488

> <PUBCHEM_EXT_DATASOURCE_REGID>
SCHEMBL16126977

> <PUBCHEM_SUBSTANCE_COMMENT>
InChI=1S/C30H31N5O4S/c1-30(2)27(36)22-16-21(12-13-25(22)40(30,37)38)33-28-26-24(35(34-28)23-11-7-6-10-20(23)17-31)14-15-32-29(26)39-18-19-8-4-3-5-9-19/h3-5,8-9,12-16,20,23,27,36H,6-7,10-11,18H2,1-2H3,(H,33,34)/t20-,23+,27?/m1/s1
InChIKey=HIKHXKNHBQWWAW-CZKNKUHGSA-N

> <PUBCHEM_SUBSTANCE_SYNONYM>
SCHEMBL16126977

> <PUBCHEM_XREF_EXT_ID>
SCHEMBL16126977

> <PUBCHEM_EXT_DATASOURCE_URL>
https://www.surechembl.org/

> <PUBCHEM_EXT_SUBSTANCE_URL>
https://www.surechembl.org/chemical/SCHEMBL16126977

> <PUBCHEM_CID_ASSOCIATIONS>
117614332  1

> <PUBCHEM_COORDINATE_TYPE>
1
3

> <PUBCHEM_BONDANNOTATIONS>
27  31  6
25  6  5

$$$$
