310944269
  -OEChem-07211613022D

 14 14  0     0  0  0  0  0  0999 V2000
   -1.9326    1.0158    0.0000 Br  0  0  0  0  0  0  0  0  0  0  0  0
   -0.2280    1.8484    0.0000 F   0  0  0  0  0  0  0  0  0  0  0  0
    1.1794    1.8484    0.0000 O   0  0  0  0  0  0  0  0  0  0  0  0
    0.4955   -1.7988    0.0000 O   0  0  0  0  0  0  0  0  0  0  0  0
    1.9326    0.5798    0.0000 N   0  0  0  0  0  0  0  0  0  0  0  0
   -0.9614   -1.8484    0.0000 N   0  0  0  0  0  0  0  0  0  0  0  0
    0.4857    0.6492    0.0000 C   0  0  0  0  0  0  0  0  0  0  0  0
   -0.2379    1.0456    0.0000 C   0  0  0  0  0  0  0  0  0  0  0  0
   -0.2379   -0.5798    0.0000 C   0  0  0  0  0  0  0  0  0  0  0  0
   -0.9614    0.6293    0.0000 C   0  0  0  0  0  0  0  0  0  0  0  0
    0.4857   -0.1734    0.0000 C   0  0  0  0  0  0  0  0  0  0  0  0
   -0.9614   -0.1834    0.0000 C   0  0  0  0  0  0  0  0  0  0  0  0
    1.1992    1.0357    0.0000 C   0  0  0  0  0  0  0  0  0  0  0  0
   -0.2379   -1.4222    0.0000 C   0  0  0  0  0  0  0  0  0  0  0  0
  1 10  1  0  0  0  0
  2  8  1  0  0  0  0
  3 13  2  0  0  0  0
  4 14  2  0  0  0  0
  5 13  1  0  0  0  0
  6 14  1  0  0  0  0
  7  8  2  0  0  0  0
  7 11  1  0  0  0  0
  7 13  1  0  0  0  0
  8 10  1  0  0  0  0
  9 11  2  0  0  0  0
  9 12  1  0  0  0  0
  9 14  1  0  0  0  0
 10 12  2  0  0  0  0
M  END
> <PUBCHEM_COMPOUND_ID_TYPE>
0

> <PUBCHEM_TOTAL_CHARGE>
0

> <PUBCHEM_SUBSTANCE_ID>
310944269

> <PUBCHEM_SUBSTANCE_VERSION>
1

> <PUBCHEM_EXT_DATASOURCE_NAME>
4488

> <PUBCHEM_EXT_DATASOURCE_REGID>
SCHEMBL16122344

> <PUBCHEM_SUBSTANCE_COMMENT>
InChI=1S/C8H6BrFN2O2/c9-5-2-3(7(11)13)1-4(6(5)10)8(12)14/h1-2H,(H2,11,13)(H2,12,14)
InChIKey=NFGGOIFGZOCLEZ-UHFFFAOYSA-N

> <PUBCHEM_SUBSTANCE_SYNONYM>
SCHEMBL16122344

> <PUBCHEM_XREF_EXT_ID>
SCHEMBL16122344

> <PUBCHEM_EXT_DATASOURCE_URL>
https://www.surechembl.org/

> <PUBCHEM_EXT_SUBSTANCE_URL>
https://www.surechembl.org/chemical/SCHEMBL16122344

> <PUBCHEM_CID_ASSOCIATIONS>
117610538  1

> <PUBCHEM_COORDINATE_TYPE>
1
3

$$$$
