310929448
  -OEChem-07211613022D

 66 74  0     1  0  0  0  0  0999 V2000
   -2.3860   -3.7235    0.0000 S   0  0  0  0  0  0  0  0  0  0  0  0
   -1.5610   -5.1524    0.0000 O   0  0  0  0  0  0  0  0  0  0  0  0
    1.4290   -0.8250    0.0000 O   0  0  0  0  0  0  0  0  0  0  0  0
    1.3265   -4.4380    0.0000 O   0  0  0  0  0  0  0  0  0  0  0  0
   -2.3860   -2.8985    0.0000 O   0  0  0  0  0  0  0  0  0  0  0  0
   -2.3860   -4.5485    0.0000 O   0  0  0  0  0  0  0  0  0  0  0  0
    2.8579   -4.1250    0.0000 O   0  0  0  0  0  0  0  0  0  0  0  0
    4.2868   -0.8250    0.0000 O   0  0  0  0  0  0  0  0  0  0  0  0
    0.0000    1.6500    0.0000 O   0  0  0  0  0  0  0  0  0  0  0  0
    5.0013   -2.0625    0.0000 O   0  0  0  0  0  0  0  0  0  0  0  0
    0.0890   -3.7235    0.0000 N   0  0  0  0  0  0  0  0  0  0  0  0
    2.1434   -2.8875    0.0000 N   0  0  0  0  0  0  0  0  0  0  0  0
   -1.5610   -3.7235    0.0000 N   0  0  0  0  0  0  0  0  0  0  0  0
    0.0000   -0.8250    0.0000 N   0  0  0  0  0  0  0  0  0  0  0  0
    3.5724   -2.0625    0.0000 N   0  0  0  0  0  0  0  0  0  0  0  0
   -0.3235   -4.4380    0.0000 C   0  0  3  0  0  0  0  0  0  0  0  0
    0.3909   -4.8505    0.0000 C   0  0  3  0  0  0  0  0  0  0  0  0
   -0.3235   -5.2630    0.0000 C   0  0  0  0  0  0  0  0  0  0  0  0
   -1.1485   -4.4380    0.0000 C   0  0  0  0  0  0  0  0  0  0  0  0
    0.9140   -3.7235    0.0000 C   0  0  0  0  0  0  0  0  0  0  0  0
    1.3265   -3.0090    0.0000 C   0  0  3  0  0  0  0  0  0  0  0  0
    1.4290   -1.6500    0.0000 C   0  0  3  0  0  0  0  0  0  0  0  0
    1.2159   -4.8505    0.0000 C   0  0  0  0  0  0  0  0  0  0  0  0
    0.9140   -2.2945    0.0000 C   0  0  0  0  0  0  0  0  0  0  0  0
    2.1434   -2.0625    0.0000 C   0  0  0  0  0  0  0  0  0  0  0  0
    2.8579   -3.3000    0.0000 C   0  0  0  0  0  0  0  0  0  0  0  0
   -3.2110   -3.7235    0.0000 C   0  0  0  0  0  0  0  0  0  0  0  0
    0.7144   -0.4125    0.0000 C   0  0  0  0  0  0  0  0  0  0  0  0
    3.5724   -2.8875    0.0000 C   0  0  3  0  0  0  0  0  0  0  0  0
    0.7144    0.4125    0.0000 C   0  0  0  0  0  0  0  0  0  0  0  0
    5.0013   -0.4125    0.0000 C   0  0  3  0  0  0  0  0  0  0  0  0
    0.0000    0.8250    0.0000 C   0  0  0  0  0  0  0  0  0  0  0  0
   -3.9255   -4.1360    0.0000 C   0  0  0  0  0  0  0  0  0  0  0  0
   -3.9255   -3.3110    0.0000 C   0  0  0  0  0  0  0  0  0  0  0  0
    5.0013    0.4125    0.0000 C   0  0  3  0  0  0  0  0  0  0  0  0
   -0.7144    0.4125    0.0000 C   0  0  0  0  0  0  0  0  0  0  0  0
    1.6284   -5.5649    0.0000 C   0  0  0  0  0  0  0  0  0  0  0  0
   -0.7144   -0.4125    0.0000 C   0  0  0  0  0  0  0  0  0  0  0  0
    4.2868   -3.3000    0.0000 C   0  0  0  0  0  0  0  0  0  0  0  0
    4.2868   -1.6500    0.0000 C   0  0  0  0  0  0  0  0  0  0  0  0
    1.4290    0.8250    0.0000 C   0  0  0  0  0  0  0  0  0  0  0  0
    5.7859   -0.6674    0.0000 C   0  0  0  0  0  0  0  0  0  0  0  0
    5.7859    0.6674    0.0000 C   0  0  0  0  0  0  0  0  0  0  0  0
    4.2868    0.8250    0.0000 C   0  0  0  0  0  0  0  0  0  0  0  0
   -1.4290    0.8250    0.0000 C   0  0  0  0  0  0  0  0  0  0  0  0
   -1.4290   -0.8250    0.0000 C   0  0  0  0  0  0  0  0  0  0  0  0
    5.0405   -2.9645    0.0000 C   0  0  0  0  0  0  0  0  0  0  0  0
    4.3731   -4.1205    0.0000 C   0  0  0  0  0  0  0  0  0  0  0  0
    6.2708    0.0000    0.0000 C   0  0  0  0  0  0  0  0  0  0  0  0
    2.1434    0.4125    0.0000 C   0  0  0  0  0  0  0  0  0  0  0  0
   -2.1434    0.4125    0.0000 C   0  0  0  0  0  0  0  0  0  0  0  0
   -2.1434   -0.4125    0.0000 C   0  0  0  0  0  0  0  0  0  0  0  0
    3.5724    0.4125    0.0000 C   0  0  0  0  0  0  0  0  0  0  0  0
    5.5926   -3.5776    0.0000 C   0  0  0  0  0  0  0  0  0  0  0  0
    5.1801   -4.2920    0.0000 C   0  0  0  0  0  0  0  0  0  0  0  0
   -0.7144    2.0625    0.0000 C   0  0  0  0  0  0  0  0  0  0  0  0
    2.8579    0.8250    0.0000 C   0  0  0  0  0  0  0  0  0  0  0  0
   -0.7144    2.8875    0.0000 C   0  0  0  0  0  0  0  0  0  0  0  0
    0.0000    3.3000    0.0000 C   0  0  0  0  0  0  0  0  0  0  0  0
   -1.4290    3.3000    0.0000 C   0  0  0  0  0  0  0  0  0  0  0  0
    0.0000    4.1250    0.0000 C   0  0  0  0  0  0  0  0  0  0  0  0
   -1.4290    4.1250    0.0000 C   0  0  0  0  0  0  0  0  0  0  0  0
   -0.7144    4.5375    0.0000 C   0  0  0  0  0  0  0  0  0  0  0  0
    0.6504   -1.3772    0.0000 H   0  0  0  0  0  0  0  0  0  0  0  0
    5.0875   -1.2330    0.0000 H   0  0  0  0  0  0  0  0  0  0  0  0
    5.0875    1.2330    0.0000 H   0  0  0  0  0  0  0  0  0  0  0  0
  1  5  2  0  0  0  0
  1  6  2  0  0  0  0
  1 13  1  0  0  0  0
  1 27  1  0  0  0  0
  2 19  2  0  0  0  0
  3 22  1  0  0  0  0
  3 28  1  0  0  0  0
  4 20  2  0  0  0  0
  7 26  2  0  0  0  0
  8 31  1  0  0  0  0
  8 40  1  0  0  0  0
  9 32  1  0  0  0  0
  9 56  1  0  0  0  0
 10 40  2  0  0  0  0
 16 11  1  1  0  0  0
 11 20  1  0  0  0  0
 12 21  1  0  0  0  0
 12 25  1  0  0  0  0
 12 26  1  0  0  0  0
 13 19  1  0  0  0  0
 14 28  2  0  0  0  0
 14 38  1  0  0  0  0
 15 29  1  0  0  0  0
 15 40  1  0  0  0  0
 16 17  1  0  0  0  0
 16 18  1  0  0  0  0
 16 19  1  6  0  0  0
 17 18  1  0  0  0  0
 17 23  1  6  0  0  0
 21 20  1  6  0  0  0
 21 24  1  0  0  0  0
 22 24  1  0  0  0  0
 22 25  1  0  0  0  0
 22 64  1  6  0  0  0
 23 37  2  0  0  0  0
 29 26  1  1  0  0  0
 27 33  1  0  0  0  0
 27 34  1  0  0  0  0
 28 30  1  0  0  0  0
 29 39  1  0  0  0  0
 30 32  2  0  0  0  0
 30 41  1  0  0  0  0
 31 35  1  0  0  0  0
 31 42  1  0  0  0  0
 31 65  1  6  0  0  0
 32 36  1  0  0  0  0
 33 34  1  0  0  0  0
 35 43  1  0  0  0  0
 35 44  1  0  0  0  0
 35 66  1  1  0  0  0
 36 38  1  0  0  0  0
 36 45  2  0  0  0  0
 38 46  2  0  0  0  0
 39 47  1  0  0  0  0
 39 48  1  0  0  0  0
 41 50  1  0  0  0  0
 42 49  1  0  0  0  0
 43 49  1  0  0  0  0
 44 53  1  0  0  0  0
 45 51  1  0  0  0  0
 46 52  1  0  0  0  0
 47 54  1  0  0  0  0
 48 55  1  0  0  0  0
 50 57  2  0  0  0  0
 51 52  2  0  0  0  0
 53 57  1  0  0  0  0
 54 55  1  0  0  0  0
 56 58  1  0  0  0  0
 58 59  2  0  0  0  0
 58 60  1  0  0  0  0
 59 61  1  0  0  0  0
 60 62  2  0  0  0  0
 61 63  2  0  0  0  0
 62 63  1  0  0  0  0
M  END
> <PUBCHEM_COMPOUND_ID_TYPE>
0

> <PUBCHEM_TOTAL_CHARGE>
0

> <PUBCHEM_SUBSTANCE_ID>
310929448

> <PUBCHEM_SUBSTANCE_VERSION>
1

> <PUBCHEM_EXT_DATASOURCE_NAME>
4488

> <PUBCHEM_EXT_DATASOURCE_REGID>
SCHEMBL16106622

> <PUBCHEM_SUBSTANCE_COMMENT>
InChI=1S/C48H57N5O9S/c1-2-33-27-48(33,46(56)52-63(58,59)35-24-25-35)51-43(54)39-26-34-28-53(39)45(55)41(32-17-9-10-18-32)50-47(57)62-40-23-13-19-31(40)16-7-4-8-21-37-42(60-29-30-14-5-3-6-15-30)36-20-11-12-22-38(36)49-44(37)61-34/h2-6,8,11-12,14-15,20,22,31-35,39-41H,1,7,9-10,13,16-19,21,23-29H2,(H,50,57)(H,51,54)(H,52,56)/b8-4+/t31-,33-,34-,39+,40-,41+,48-/m1/s1
InChIKey=GGOGNNOUCSLYMX-OPTRCNTJSA-N

> <PUBCHEM_SUBSTANCE_SYNONYM>
SCHEMBL16106622

> <PUBCHEM_XREF_EXT_ID>
SCHEMBL16106622

> <PUBCHEM_EXT_DATASOURCE_URL>
https://www.surechembl.org/

> <PUBCHEM_EXT_SUBSTANCE_URL>
https://www.surechembl.org/chemical/SCHEMBL16106622

> <PUBCHEM_CID_ASSOCIATIONS>
117598794  1

> <PUBCHEM_COORDINATE_TYPE>
1
3

> <PUBCHEM_BONDANNOTATIONS>
16  11  5
16  19  6
17  23  6
21  20  6
22  64  6
29  26  5
31  65  6
35  66  5

$$$$
