310946307
  -OEChem-07211613022D

 23 24  0     0  0  0  0  0  0999 V2000
   -0.9350   -9.4153    0.0000 I   0  0  0  0  0  0  0  0  0  0  0  0
    0.4940   -6.9403    0.0000 I   0  0  0  0  0  0  0  0  0  0  0  0
   -3.7929   -7.7653    0.0000 I   0  0  0  0  0  0  0  0  0  0  0  0
   -0.9350   -7.7653    0.0000 O   0  0  0  0  0  0  0  0  0  0  0  0
   -3.7929   -9.4153    0.0000 O   0  0  0  0  0  0  0  0  0  0  0  0
    2.6374   -8.1778    0.0000 O   0  0  0  0  0  0  0  0  0  0  0  0
    3.3518   -9.4153    0.0000 N   0  0  0  0  0  0  0  0  0  0  0  0
   -0.2205   -8.1778    0.0000 C   0  0  0  0  0  0  0  0  0  0  0  0
   -0.2205   -9.0028    0.0000 C   0  0  0  0  0  0  0  0  0  0  0  0
    0.4940   -7.7653    0.0000 C   0  0  0  0  0  0  0  0  0  0  0  0
    1.2084   -9.0028    0.0000 C   0  0  0  0  0  0  0  0  0  0  0  0
   -1.6494   -8.1778    0.0000 C   0  0  0  0  0  0  0  0  0  0  0  0
    0.4940   -9.4153    0.0000 C   0  0  0  0  0  0  0  0  0  0  0  0
    1.2084   -8.1778    0.0000 C   0  0  0  0  0  0  0  0  0  0  0  0
   -2.3639   -7.7653    0.0000 C   0  0  0  0  0  0  0  0  0  0  0  0
   -3.0784   -8.1778    0.0000 C   0  0  0  0  0  0  0  0  0  0  0  0
    1.9229   -9.4153    0.0000 C   0  0  0  0  0  0  0  0  0  0  0  0
   -1.6494   -9.0028    0.0000 C   0  0  0  0  0  0  0  0  0  0  0  0
   -3.0784   -9.0028    0.0000 C   0  0  0  0  0  0  0  0  0  0  0  0
   -2.3639   -9.4153    0.0000 C   0  0  0  0  0  0  0  0  0  0  0  0
    2.6374   -9.0028    0.0000 C   0  0  0  0  0  0  0  0  0  0  0  0
    4.0663   -9.0028    0.0000 C   0  0  0  0  0  0  0  0  0  0  0  0
    3.3518  -10.2403    0.0000 C   0  0  0  0  0  0  0  0  0  0  0  0
  1  9  1  0  0  0  0
  2 10  1  0  0  0  0
  3 16  1  0  0  0  0
  4  8  1  0  0  0  0
  4 12  1  0  0  0  0
  5 19  1  0  0  0  0
  6 21  2  0  0  0  0
  7 21  1  0  0  0  0
  7 22  1  0  0  0  0
  7 23  1  0  0  0  0
  8  9  2  0  0  0  0
  8 10  1  0  0  0  0
  9 13  1  0  0  0  0
 10 14  2  0  0  0  0
 11 13  2  0  0  0  0
 11 14  1  0  0  0  0
 11 17  1  0  0  0  0
 12 15  2  0  0  0  0
 12 18  1  0  0  0  0
 15 16  1  0  0  0  0
 16 19  2  0  0  0  0
 17 21  1  0  0  0  0
 18 20  2  0  0  0  0
 19 20  1  0  0  0  0
M  END
> <PUBCHEM_COMPOUND_ID_TYPE>
0

> <PUBCHEM_TOTAL_CHARGE>
0

> <PUBCHEM_SUBSTANCE_ID>
310946307

> <PUBCHEM_SUBSTANCE_VERSION>
1

> <PUBCHEM_EXT_DATASOURCE_NAME>
4488

> <PUBCHEM_EXT_DATASOURCE_REGID>
SCHEMBL16124426

> <PUBCHEM_SUBSTANCE_COMMENT>
InChI=1S/C16H14I3NO3/c1-20(2)15(22)7-9-5-12(18)16(13(19)6-9)23-10-3-4-14(21)11(17)8-10/h3-6,8,21H,7H2,1-2H3
InChIKey=DBRHIPPJIGTDQK-UHFFFAOYSA-N

> <PUBCHEM_SUBSTANCE_SYNONYM>
SCHEMBL16124426

> <PUBCHEM_XREF_EXT_ID>
SCHEMBL16124426

> <PUBCHEM_EXT_DATASOURCE_URL>
https://www.surechembl.org/

> <PUBCHEM_EXT_SUBSTANCE_URL>
https://www.surechembl.org/chemical/SCHEMBL16124426

> <PUBCHEM_CID_ASSOCIATIONS>
71487301  1

> <PUBCHEM_COORDINATE_TYPE>
1
3

$$$$
