310937924
  -OEChem-07211613022D

 12 12  0     0  0  0  0  0  0999 V2000
   -0.6972   -0.9920    0.0000 O   0  0  0  0  0  0  0  0  0  0  0  0
   -1.4117    0.2455    0.0000 O   0  0  0  0  0  0  0  0  0  0  0  0
   -3.5944   -0.9151    0.0000 N   0  0  0  0  0  0  0  0  0  0  0  0
   -3.7339    0.4125    0.0000 N   0  0  0  0  0  0  0  0  0  0  0  0
   -4.9669   -0.3882    0.0000 N   0  0  0  0  0  0  0  0  0  0  0  0
   -2.8407   -0.5795    0.0000 C   0  0  0  0  0  0  0  0  0  0  0  0
   -4.1464   -0.3020    0.0000 C   0  0  0  0  0  0  0  0  0  0  0  0
   -2.1262   -0.9920    0.0000 C   0  0  0  0  0  0  0  0  0  0  0  0
   -2.9270    0.2410    0.0000 C   0  0  0  0  0  0  0  0  0  0  0  0
   -1.4117   -0.5795    0.0000 C   0  0  0  0  0  0  0  0  0  0  0  0
    0.0172   -0.5795    0.0000 C   0  0  0  0  0  0  0  0  0  0  0  0
    0.7317   -0.9920    0.0000 C   0  0  0  0  0  0  0  0  0  0  0  0
  1 10  1  0  0  0  0
  1 11  1  0  0  0  0
  2 10  2  0  0  0  0
  3  6  1  0  0  0  0
  3  7  2  0  0  0  0
  4  7  1  0  0  0  0
  4  9  1  0  0  0  0
  5  7  1  0  0  0  0
  6  8  1  0  0  0  0
  6  9  2  0  0  0  0
  8 10  1  0  0  0  0
 11 12  1  0  0  0  0
M  END
> <PUBCHEM_COMPOUND_ID_TYPE>
0

> <PUBCHEM_TOTAL_CHARGE>
0

> <PUBCHEM_SUBSTANCE_ID>
310937924

> <PUBCHEM_SUBSTANCE_VERSION>
1

> <PUBCHEM_EXT_DATASOURCE_NAME>
4488

> <PUBCHEM_EXT_DATASOURCE_REGID>
SCHEMBL16115753

> <PUBCHEM_SUBSTANCE_COMMENT>
InChI=1S/C7H11N3O2/c1-2-12-6(11)3-5-4-9-7(8)10-5/h4H,2-3H2,1H3,(H3,8,9,10)
InChIKey=CXRTZMKBJBUMRD-UHFFFAOYSA-N

> <PUBCHEM_SUBSTANCE_SYNONYM>
SCHEMBL16115753

> <PUBCHEM_XREF_EXT_ID>
SCHEMBL16115753

> <PUBCHEM_EXT_DATASOURCE_URL>
https://www.surechembl.org/

> <PUBCHEM_EXT_SUBSTANCE_URL>
https://www.surechembl.org/chemical/SCHEMBL16115753

> <PUBCHEM_CID_ASSOCIATIONS>
45019687  1

> <PUBCHEM_COORDINATE_TYPE>
1
3

$$$$
