310948062
  -OEChem-07211613022D

 31 34  0     0  0  0  0  0  0999 V2000
    1.8503   -1.4428    0.0000 Br  0  0  0  0  0  0  0  0  0  0  0  0
    3.9045    2.1275    0.0000 F   0  0  0  0  0  0  0  0  0  0  0  0
    2.7796    1.8177    0.0000 F   0  0  0  0  0  0  0  0  0  0  0  0
    4.1653    1.0189    0.0000 F   0  0  0  0  0  0  0  0  0  0  0  0
   -1.4754    0.1711    0.0000 O   0  0  0  0  0  0  0  0  0  0  0  0
    3.0730    0.7255    0.0000 O   0  0  0  0  0  0  0  0  0  0  0  0
   -4.1653   -0.9537    0.0000 O   0  0  0  0  0  0  0  0  0  0  0  0
   -1.4754   -1.4428    0.0000 N   0  0  0  0  0  0  0  0  0  0  0  0
   -0.7907    1.3287    0.0000 N   0  0  0  0  0  0  0  0  0  0  0  0
   -1.9644   -0.7581    0.0000 N   0  0  0  0  0  0  0  0  0  0  0  0
   -0.6440    0.0082    0.0000 C   0  0  0  0  0  0  0  0  0  0  0  0
   -0.2364   -0.6929    0.0000 C   0  0  0  0  0  0  0  0  0  0  0  0
   -0.2364    0.7417    0.0000 C   0  0  0  0  0  0  0  0  0  0  0  0
   -0.6440   -1.4102    0.0000 C   0  0  0  0  0  0  0  0  0  0  0  0
    0.5950    0.7255    0.0000 C   0  0  0  0  0  0  0  0  0  0  0  0
   -1.5569    1.0026    0.0000 C   0  0  0  0  0  0  0  0  0  0  0  0
    0.5950   -0.7255    0.0000 C   0  0  0  0  0  0  0  0  0  0  0  0
   -0.2201   -2.1275    0.0000 C   0  0  0  0  0  0  0  0  0  0  0  0
    1.0026   -1.4264    0.0000 C   0  0  0  0  0  0  0  0  0  0  0  0
    1.0189    0.0244    0.0000 C   0  0  0  0  0  0  0  0  0  0  0  0
    1.0189    1.4264    0.0000 C   0  0  0  0  0  0  0  0  0  0  0  0
   -1.9644   -2.0949    0.0000 C   0  0  0  0  0  0  0  0  0  0  0  0
    0.6114   -2.1275    0.0000 C   0  0  0  0  0  0  0  0  0  0  0  0
   -2.7469   -1.0026    0.0000 C   0  0  0  0  0  0  0  0  0  0  0  0
    2.2416    0.7255    0.0000 C   0  0  0  0  0  0  0  0  0  0  0  0
   -2.7469   -1.8341    0.0000 C   0  0  0  0  0  0  0  0  0  0  0  0
    1.8503    0.0244    0.0000 C   0  0  0  0  0  0  0  0  0  0  0  0
    1.8503    1.4428    0.0000 C   0  0  0  0  0  0  0  0  0  0  0  0
   -2.2742    1.4102    0.0000 C   0  0  0  0  0  0  0  0  0  0  0  0
    3.4969    1.4264    0.0000 C   0  0  0  0  0  0  0  0  0  0  0  0
   -3.4480   -0.5298    0.0000 C   0  0  0  0  0  0  0  0  0  0  0  0
  1 19  1  0  0  0  0
  2 30  1  0  0  0  0
  3 30  1  0  0  0  0
  4 30  1  0  0  0  0
  5 11  1  0  0  0  0
  5 16  1  0  0  0  0
  6 25  1  0  0  0  0
  6 30  1  0  0  0  0
  7 31  1  0  0  0  0
  8 10  1  0  0  0  0
  8 14  1  0  0  0  0
  8 22  1  0  0  0  0
  9 13  1  0  0  0  0
  9 16  2  0  0  0  0
 10 24  2  0  0  0  0
 11 12  1  0  0  0  0
 11 13  2  0  0  0  0
 12 14  1  0  0  0  0
 12 17  2  0  0  0  0
 13 15  1  0  0  0  0
 14 18  2  0  0  0  0
 15 20  2  0  0  0  0
 15 21  1  0  0  0  0
 16 29  1  0  0  0  0
 17 19  1  0  0  0  0
 18 23  1  0  0  0  0
 19 23  2  0  0  0  0
 20 27  1  0  0  0  0
 21 28  2  0  0  0  0
 22 26  2  0  0  0  0
 24 26  1  0  0  0  0
 24 31  1  0  0  0  0
 25 27  2  0  0  0  0
 25 28  1  0  0  0  0
M  END
> <PUBCHEM_COMPOUND_ID_TYPE>
0

> <PUBCHEM_TOTAL_CHARGE>
0

> <PUBCHEM_SUBSTANCE_ID>
310948062

> <PUBCHEM_SUBSTANCE_VERSION>
1

> <PUBCHEM_EXT_DATASOURCE_NAME>
4488

> <PUBCHEM_EXT_DATASOURCE_REGID>
SCHEMBL16126237

> <PUBCHEM_SUBSTANCE_COMMENT>
InChI=1S/C21H15BrF3N3O3/c1-12-26-19(13-2-5-16(6-3-13)31-21(23,24)25)20(30-12)17-10-14(22)4-7-18(17)28-9-8-15(11-29)27-28/h2-10,29H,11H2,1H3
InChIKey=UGQLAJUKPXEAED-UHFFFAOYSA-N

> <PUBCHEM_SUBSTANCE_SYNONYM>
SCHEMBL16126237

> <PUBCHEM_XREF_EXT_ID>
SCHEMBL16126237

> <PUBCHEM_EXT_DATASOURCE_URL>
https://www.surechembl.org/

> <PUBCHEM_EXT_SUBSTANCE_URL>
https://www.surechembl.org/chemical/SCHEMBL16126237

> <PUBCHEM_CID_ASSOCIATIONS>
117613687  1

> <PUBCHEM_COORDINATE_TYPE>
1
3

$$$$
