310946879
  -OEChem-07211613022D

 31 34  0     1  0  0  0  0  0999 V2000
   -1.8212   -3.1892    0.0000 S   0  0  0  0  0  0  0  0  0  0  0  0
   -1.1214    1.8848    0.0000 F   0  0  0  0  0  0  0  0  0  0  0  0
    0.6919    3.5709    0.0000 O   0  0  0  0  0  0  0  0  0  0  0  0
   -1.4077   -0.9305    0.0000 O   0  0  0  0  0  0  0  0  0  0  0  0
   -1.1850   -3.7300    0.0000 O   0  0  0  0  0  0  0  0  0  0  0  0
   -2.3462   -3.8254    0.0000 O   0  0  0  0  0  0  0  0  0  0  0  0
    0.0398    1.4236    0.0000 N   0  0  0  0  0  0  0  0  0  0  0  0
    0.5329    0.7714    0.0000 N   0  0  0  0  0  0  0  0  0  0  0  0
    0.3420   -0.6919    0.0000 N   0  0  0  0  0  0  0  0  0  0  0  0
   -2.1552    0.2943    0.0000 N   0  0  0  0  0  0  0  0  0  0  0  0
    2.4416    1.9962    0.0000 N   0  0  0  0  0  0  0  0  0  0  0  0
   -2.4416   -2.6484    0.0000 N   0  0  0  0  0  0  0  0  0  0  0  0
    0.2783    2.2189    0.0000 C   0  0  3  0  0  0  0  0  0  0  0  0
   -0.7397    1.1532    0.0000 C   0  0  0  0  0  0  0  0  0  0  0  0
   -0.7397    0.3260    0.0000 C   0  0  0  0  0  0  0  0  0  0  0  0
    0.0716    0.0875    0.0000 C   0  0  0  0  0  0  0  0  0  0  0  0
   -0.5170    2.4734    0.0000 C   0  0  3  0  0  0  0  0  0  0  0  0
   -1.4236   -0.0875    0.0000 C   0  0  0  0  0  0  0  0  0  0  0  0
    0.8828    2.7756    0.0000 C   0  0  0  0  0  0  0  0  0  0  0  0
    0.8351    1.5986    0.0000 C   0  0  0  0  0  0  0  0  0  0  0  0
   -1.4713    1.5508    0.0000 C   0  0  0  0  0  0  0  0  0  0  0  0
   -0.7078    3.2369    0.0000 C   0  0  0  0  0  0  0  0  0  0  0  0
   -2.1712    1.1214    0.0000 C   0  0  0  0  0  0  0  0  0  0  0  0
   -0.1988   -1.3122    0.0000 C   0  0  0  0  0  0  0  0  0  0  0  0
   -0.1034    3.8254    0.0000 C   0  0  0  0  0  0  0  0  0  0  0  0
    1.6304    1.7894    0.0000 C   0  0  0  0  0  0  0  0  0  0  0  0
   -1.0101   -1.1691    0.0000 C   0  0  0  0  0  0  0  0  0  0  0  0
    0.0716   -2.0916    0.0000 C   0  0  0  0  0  0  0  0  0  0  0  0
   -1.2804   -2.5370    0.0000 C   0  0  0  0  0  0  0  0  0  0  0  0
   -1.5190   -1.7735    0.0000 C   0  0  0  0  0  0  0  0  0  0  0  0
   -0.4693   -2.7120    0.0000 C   0  0  0  0  0  0  0  0  0  0  0  0
  1  5  2  0  0  0  0
  1  6  2  0  0  0  0
  1 12  1  0  0  0  0
  1 29  1  0  0  0  0
 17  2  1  1  0  0  0
  3 19  1  0  0  0  0
  3 25  1  0  0  0  0
  4 18  2  0  0  0  0
  7  8  1  0  0  0  0
  7 13  1  0  0  0  0
  7 14  1  0  0  0  0
  8 16  2  0  0  0  0
  9 16  1  0  0  0  0
  9 24  1  0  0  0  0
 10 18  1  0  0  0  0
 10 23  1  0  0  0  0
 11 26  3  0  0  0  0
 13 17  1  0  0  0  0
 13 19  1  0  0  0  0
 13 20  1  6  0  0  0
 14 15  2  0  0  0  0
 14 21  1  0  0  0  0
 15 16  1  0  0  0  0
 15 18  1  0  0  0  0
 17 22  1  0  0  0  0
 20 26  1  0  0  0  0
 21 23  2  0  0  0  0
 22 25  1  0  0  0  0
 24 27  2  0  0  0  0
 24 28  1  0  0  0  0
 27 30  1  0  0  0  0
 28 31  2  0  0  0  0
 29 30  2  0  0  0  0
 29 31  1  0  0  0  0
M  END
> <PUBCHEM_COMPOUND_ID_TYPE>
0

> <PUBCHEM_TOTAL_CHARGE>
0

> <PUBCHEM_SUBSTANCE_ID>
310946879

> <PUBCHEM_SUBSTANCE_VERSION>
1

> <PUBCHEM_EXT_DATASOURCE_NAME>
4488

> <PUBCHEM_EXT_DATASOURCE_REGID>
SCHEMBL16125003

> <PUBCHEM_SUBSTANCE_COMMENT>
InChI=1S/C19H19FN6O4S/c20-15-6-10-30-11-19(15,7-8-21)26-14-5-9-23-18(27)16(14)17(25-26)24-12-1-3-13(4-2-12)31(22,28)29/h1-5,9,15H,6-7,10-11H2,(H,23,27)(H,24,25)(H2,22,28,29)/t15-,19+/m0/s1
InChIKey=AHNMFMNWJZWEPS-HNAYVOBHSA-N

> <PUBCHEM_SUBSTANCE_SYNONYM>
SCHEMBL16125003

> <PUBCHEM_XREF_EXT_ID>
SCHEMBL16125003

> <PUBCHEM_EXT_DATASOURCE_URL>
https://www.surechembl.org/

> <PUBCHEM_EXT_SUBSTANCE_URL>
https://www.surechembl.org/chemical/SCHEMBL16125003

> <PUBCHEM_CID_ASSOCIATIONS>
117612737  1

> <PUBCHEM_COORDINATE_TYPE>
1
3

> <PUBCHEM_BONDANNOTATIONS>
13  20  6
17  2  5

$$$$
