310943259
  -OEChem-07211613022D

 35 39  0     0  0  0  0  0  0999 V2000
    1.7509    2.2578    0.0000 O   0  0  0  0  0  0  0  0  0  0  0  0
   -5.4218    2.2732    0.0000 O   0  0  0  0  0  0  0  0  0  0  0  0
   -1.1212   -2.6725    0.0000 O   0  0  0  0  0  0  0  0  0  0  0  0
   -3.9780    1.4438    0.0000 N   0  0  0  0  0  0  0  0  0  0  0  0
   -3.2715    0.1996    0.0000 N   0  0  0  0  0  0  0  0  0  0  0  0
   -0.3994    2.6725    0.0000 N   0  0  0  0  0  0  0  0  0  0  0  0
    1.0444    1.0291    0.0000 N   0  0  0  0  0  0  0  0  0  0  0  0
    3.9166    0.1996    0.0000 N   0  0  0  0  0  0  0  0  0  0  0  0
   -2.5496   -1.0291    0.0000 N   0  0  0  0  0  0  0  0  0  0  0  0
    3.1947   -0.2150    0.0000 N   0  0  0  0  0  0  0  0  0  0  0  0
   -1.8278    1.0291    0.0000 C   0  0  0  0  0  0  0  0  0  0  0  0
   -1.1212    1.4438    0.0000 C   0  0  0  0  0  0  0  0  0  0  0  0
   -3.2561    1.0444    0.0000 C   0  0  0  0  0  0  0  0  0  0  0  0
   -2.5496    1.4438    0.0000 C   0  0  0  0  0  0  0  0  0  0  0  0
   -1.1058    2.2732    0.0000 C   0  0  0  0  0  0  0  0  0  0  0  0
   -0.3686    1.0444    0.0000 C   0  0  0  0  0  0  0  0  0  0  0  0
    0.3072    1.4438    0.0000 C   0  0  0  0  0  0  0  0  0  0  0  0
   -1.8431    0.1996    0.0000 C   0  0  0  0  0  0  0  0  0  0  0  0
   -2.5496   -0.1996    0.0000 C   0  0  0  0  0  0  0  0  0  0  0  0
    3.9166    1.0291    0.0000 C   0  0  0  0  0  0  0  0  0  0  0  0
    4.6384    1.4591    0.0000 C   0  0  0  0  0  0  0  0  0  0  0  0
    2.4728    1.0291    0.0000 C   0  0  0  0  0  0  0  0  0  0  0  0
    1.7509    1.4284    0.0000 C   0  0  0  0  0  0  0  0  0  0  0  0
    0.3226    2.2732    0.0000 C   0  0  0  0  0  0  0  0  0  0  0  0
    3.1793    1.4438    0.0000 C   0  0  0  0  0  0  0  0  0  0  0  0
    5.0378    2.1195    0.0000 C   0  0  0  0  0  0  0  0  0  0  0  0
    5.4218    1.4438    0.0000 C   0  0  0  0  0  0  0  0  0  0  0  0
    2.4728    0.2150    0.0000 C   0  0  0  0  0  0  0  0  0  0  0  0
   -3.9780    2.2578    0.0000 C   0  0  0  0  0  0  0  0  0  0  0  0
   -4.7152    1.0291    0.0000 C   0  0  0  0  0  0  0  0  0  0  0  0
   -1.8431    2.6571    0.0000 C   0  0  0  0  0  0  0  0  0  0  0  0
   -4.7152    2.6725    0.0000 C   0  0  0  0  0  0  0  0  0  0  0  0
   -5.4064    1.4284    0.0000 C   0  0  0  0  0  0  0  0  0  0  0  0
   -1.8278   -1.4438    0.0000 C   0  0  0  0  0  0  0  0  0  0  0  0
   -1.8278   -2.2578    0.0000 C   0  0  0  0  0  0  0  0  0  0  0  0
  1 23  2  0  0  0  0
  2 32  1  0  0  0  0
  2 33  1  0  0  0  0
  3 35  1  0  0  0  0
  4 13  1  0  0  0  0
  4 29  1  0  0  0  0
  4 30  1  0  0  0  0
  5 13  2  0  0  0  0
  5 19  1  0  0  0  0
  6 15  2  0  0  0  0
  6 24  1  0  0  0  0
  7 17  1  0  0  0  0
  7 23  1  0  0  0  0
  8 10  2  0  0  0  0
  8 20  1  0  0  0  0
  9 19  1  0  0  0  0
  9 34  1  0  0  0  0
 10 28  1  0  0  0  0
 11 12  1  0  0  0  0
 11 14  2  0  0  0  0
 11 18  1  0  0  0  0
 12 15  1  0  0  0  0
 12 16  2  0  0  0  0
 13 14  1  0  0  0  0
 15 31  1  0  0  0  0
 16 17  1  0  0  0  0
 17 24  2  0  0  0  0
 18 19  2  0  0  0  0
 20 21  1  0  0  0  0
 20 25  2  0  0  0  0
 21 26  1  0  0  0  0
 21 27  1  0  0  0  0
 22 23  1  0  0  0  0
 22 25  1  0  0  0  0
 22 28  2  0  0  0  0
 26 27  1  0  0  0  0
 29 32  1  0  0  0  0
 30 33  1  0  0  0  0
 34 35  1  0  0  0  0
M  END
> <PUBCHEM_COMPOUND_ID_TYPE>
0

> <PUBCHEM_TOTAL_CHARGE>
0

> <PUBCHEM_SUBSTANCE_ID>
310943259

> <PUBCHEM_SUBSTANCE_VERSION>
1

> <PUBCHEM_EXT_DATASOURCE_NAME>
4488

> <PUBCHEM_EXT_DATASOURCE_REGID>
SCHEMBL16121321

> <PUBCHEM_SUBSTANCE_COMMENT>
InChI=1S/C25H29N7O3/c1-16-21(18-11-23(26-4-7-33)30-24(12-18)32-5-8-35-9-6-32)13-20(15-27-16)29-25(34)19-10-22(17-2-3-17)31-28-14-19/h10-15,17,33H,2-9H2,1H3,(H,26,30)(H,29,34)
InChIKey=BKULACNYBXAEKS-UHFFFAOYSA-N

> <PUBCHEM_SUBSTANCE_SYNONYM>
SCHEMBL16121321

> <PUBCHEM_XREF_EXT_ID>
SCHEMBL16121321

> <PUBCHEM_EXT_DATASOURCE_URL>
https://www.surechembl.org/

> <PUBCHEM_EXT_SUBSTANCE_URL>
https://www.surechembl.org/chemical/SCHEMBL16121321

> <PUBCHEM_CID_ASSOCIATIONS>
117609684  1

> <PUBCHEM_COORDINATE_TYPE>
1
3

$$$$
