310938821
  -OEChem-07211613022D

 21 24  0     0  0  0  0  0  0999 V2000
    0.0533  -13.2681    0.0000 O   0  0  0  0  0  0  0  0  0  0  0  0
    1.2504  -15.0625    0.0000 N   0  0  0  0  0  0  0  0  0  0  0  0
   -1.3291  -13.9825    0.0000 N   0  0  0  0  0  0  0  0  0  0  0  0
   -1.3291  -15.3174    0.0000 N   0  0  0  0  0  0  0  0  0  0  0  0
    0.0533  -16.0319    0.0000 N   0  0  0  0  0  0  0  0  0  0  0  0
    2.7495  -16.5549    0.0000 N   0  0  0  0  0  0  0  0  0  0  0  0
   -0.0191  -14.6500    0.0000 C   0  0  0  0  0  0  0  0  0  0  0  0
    0.4658  -15.3174    0.0000 C   0  0  0  0  0  0  0  0  0  0  0  0
   -0.8441  -14.6500    0.0000 C   0  0  0  0  0  0  0  0  0  0  0  0
    0.4658  -13.9825    0.0000 C   0  0  0  0  0  0  0  0  0  0  0  0
    1.2504  -14.2375    0.0000 C   0  0  0  0  0  0  0  0  0  0  0  0
    1.9649  -15.4750    0.0000 C   0  0  0  0  0  0  0  0  0  0  0  0
   -2.1137  -14.2375    0.0000 C   0  0  0  0  0  0  0  0  0  0  0  0
   -2.1137  -15.0625    0.0000 C   0  0  0  0  0  0  0  0  0  0  0  0
    1.9649  -16.3000    0.0000 C   0  0  0  0  0  0  0  0  0  0  0  0
    2.7495  -15.2200    0.0000 C   0  0  0  0  0  0  0  0  0  0  0  0
   -2.8282  -13.8250    0.0000 C   0  0  0  0  0  0  0  0  0  0  0  0
   -2.8282  -15.4750    0.0000 C   0  0  0  0  0  0  0  0  0  0  0  0
    3.2344  -15.8875    0.0000 C   0  0  0  0  0  0  0  0  0  0  0  0
   -3.5426  -14.2375    0.0000 C   0  0  0  0  0  0  0  0  0  0  0  0
   -3.5426  -15.0625    0.0000 C   0  0  0  0  0  0  0  0  0  0  0  0
  1 10  2  0  0  0  0
  2  8  1  0  0  0  0
  2 11  1  0  0  0  0
  2 12  1  0  0  0  0
  3  9  2  0  0  0  0
  3 13  1  0  0  0  0
  4  9  1  0  0  0  0
  4 14  1  0  0  0  0
  5  8  1  0  0  0  0
  6 15  2  0  0  0  0
  6 19  1  0  0  0  0
  7  8  2  0  0  0  0
  7  9  1  0  0  0  0
  7 10  1  0  0  0  0
 10 11  1  0  0  0  0
 12 15  1  0  0  0  0
 12 16  2  0  0  0  0
 13 14  1  0  0  0  0
 13 17  2  0  0  0  0
 14 18  2  0  0  0  0
 16 19  1  0  0  0  0
 17 20  1  0  0  0  0
 18 21  1  0  0  0  0
 20 21  2  0  0  0  0
M  END
> <PUBCHEM_COMPOUND_ID_TYPE>
0

> <PUBCHEM_TOTAL_CHARGE>
0

> <PUBCHEM_SUBSTANCE_ID>
310938821

> <PUBCHEM_SUBSTANCE_VERSION>
1

> <PUBCHEM_EXT_DATASOURCE_NAME>
4488

> <PUBCHEM_EXT_DATASOURCE_REGID>
SCHEMBL16116739

> <PUBCHEM_SUBSTANCE_COMMENT>
InChI=1S/C15H13N5O/c16-14-13(12(21)8-20(14)9-5-6-17-7-9)15-18-10-3-1-2-4-11(10)19-15/h1-5,7H,6,8,16H2,(H,18,19)
InChIKey=ILBGGYMTQVEJJZ-UHFFFAOYSA-N

> <PUBCHEM_SUBSTANCE_SYNONYM>
SCHEMBL16116739

> <PUBCHEM_XREF_EXT_ID>
SCHEMBL16116739

> <PUBCHEM_EXT_DATASOURCE_URL>
https://www.surechembl.org/

> <PUBCHEM_EXT_SUBSTANCE_URL>
https://www.surechembl.org/chemical/SCHEMBL16116739

> <PUBCHEM_CID_ASSOCIATIONS>
117606224  1

> <PUBCHEM_COORDINATE_TYPE>
1
3

$$$$
