310948886
  -OEChem-07211613022D

 24 24  0     1  0  0  0  0  0999 V2000
   -2.6071    1.8794    0.0000 O   0  0  0  0  0  0  0  0  0  0  0  0
   -2.6071   -0.5896    0.0000 O   0  0  0  0  0  0  0  0  0  0  0  0
   -1.1884    1.8794    0.0000 O   0  0  0  0  0  0  0  0  0  0  0  0
   -1.1884    0.2395    0.0000 O   0  0  0  0  0  0  0  0  0  0  0  0
   -4.0259    0.2395    0.0000 O   0  0  0  0  0  0  0  0  0  0  0  0
   -4.7445    1.4556    0.0000 O   0  0  0  0  0  0  0  0  0  0  0  0
   -2.5703   -1.8794    0.0000 O   0  0  0  0  0  0  0  0  0  0  0  0
    0.9489    1.4556    0.0000 O   0  0  0  0  0  0  0  0  0  0  0  0
   -1.3727   -1.1239    0.0000 N   0  0  0  0  0  0  0  0  0  0  0  0
    3.0678    1.8794    0.0000 N   0  0  0  0  0  0  0  0  0  0  0  0
   -2.6071    0.2395    0.0000 C   0  0  3  0  0  0  0  0  0  0  0  0
   -1.9070    0.6449    0.0000 C   0  0  3  0  0  0  0  0  0  0  0  0
   -3.3258    0.6449    0.0000 C   0  0  3  0  0  0  0  0  0  0  0  0
   -1.8887    1.4740    0.0000 C   0  0  3  0  0  0  0  0  0  0  0  0
   -3.3258    1.4740    0.0000 C   0  0  3  0  0  0  0  0  0  0  0  0
   -4.0075    1.8426    0.0000 C   0  0  0  0  0  0  0  0  0  0  0  0
   -2.1834   -1.1055    0.0000 C   0  0  0  0  0  0  0  0  0  0  0  0
   -0.4698    1.4740    0.0000 C   0  0  0  0  0  0  0  0  0  0  0  0
    0.2119    1.8610    0.0000 C   0  0  0  0  0  0  0  0  0  0  0  0
   -0.9305   -1.8241    0.0000 C   0  0  0  0  0  0  0  0  0  0  0  0
    1.6306    1.8610    0.0000 C   0  0  0  0  0  0  0  0  0  0  0  0
    2.3676    1.4740    0.0000 C   0  0  0  0  0  0  0  0  0  0  0  0
    4.3207    1.6398    0.0000 C   0  0  0  0  0  0  0  0  0  0  0  0
    4.7445    1.7873    0.0000 C   0  0  0  0  0  0  0  0  0  0  0  0
  1 14  1  0  0  0  0
  1 15  1  0  0  0  0
 11  2  1  1  0  0  0
  2 17  1  0  0  0  0
  3 14  1  0  0  0  0
  3 18  1  0  0  0  0
 12  4  1  1  0  0  0
 13  5  1  6  0  0  0
  6 16  1  0  0  0  0
  7 17  2  0  0  0  0
  8 19  1  0  0  0  0
  8 21  1  0  0  0  0
  9 17  1  0  0  0  0
  9 20  1  0  0  0  0
 10 22  1  0  0  0  0
 10 23  1  0  0  0  0
 11 12  1  0  0  0  0
 11 13  1  0  0  0  0
 12 14  1  0  0  0  0
 13 15  1  0  0  0  0
 15 16  1  1  0  0  0
 18 19  1  0  0  0  0
 21 22  1  0  0  0  0
 23 24  2  0  0  0  0
M  END
> <PUBCHEM_COMPOUND_ID_TYPE>
0

> <PUBCHEM_TOTAL_CHARGE>
0

> <PUBCHEM_SUBSTANCE_ID>
310948886

> <PUBCHEM_SUBSTANCE_VERSION>
1

> <PUBCHEM_EXT_DATASOURCE_NAME>
4488

> <PUBCHEM_EXT_DATASOURCE_REGID>
SCHEMBL16127071

> <PUBCHEM_SUBSTANCE_COMMENT>
InChI=1S/C14H26N2O8/c1-3-16-4-5-21-6-7-22-13-11(19)12(24-14(20)15-2)10(18)9(8-17)23-13/h3,9-13,16-19H,1,4-8H2,2H3,(H,15,20)/t9-,10-,11+,12+,13?/m1/s1
InChIKey=FQIHCAIPAYOXNC-BWOQGFTMSA-N

> <PUBCHEM_SUBSTANCE_SYNONYM>
SCHEMBL16127071

> <PUBCHEM_XREF_EXT_ID>
SCHEMBL16127071

> <PUBCHEM_EXT_DATASOURCE_URL>
https://www.surechembl.org/

> <PUBCHEM_EXT_SUBSTANCE_URL>
https://www.surechembl.org/chemical/SCHEMBL16127071

> <PUBCHEM_CID_ASSOCIATIONS>
117614416  1

> <PUBCHEM_COORDINATE_TYPE>
1
3

> <PUBCHEM_BONDANNOTATIONS>
15  16  5
11  2  5
12  4  5
13  5  6

$$$$
