310933750
  -OEChem-07211613022D

 11 12  0     0  0  0  0  0  0999 V2000
    2.1265   -2.4726    0.0000 Br  0  0  0  0  0  0  0  0  0  0  0  0
    0.0000   -0.4080    0.0000 N   0  0  0  0  0  0  0  0  0  0  0  0
    1.4465   -1.2364    0.0000 C   0  0  0  0  0  0  0  0  0  0  0  0
    1.4465   -0.4080    0.0000 C   0  0  0  0  0  0  0  0  0  0  0  0
    2.1389   -1.6443    0.0000 C   0  0  0  0  0  0  0  0  0  0  0  0
    0.7295   -1.6443    0.0000 C   0  0  0  0  0  0  0  0  0  0  0  0
    2.1389    0.0000    0.0000 C   0  0  0  0  0  0  0  0  0  0  0  0
    0.7295    0.0000    0.0000 C   0  0  0  0  0  0  0  0  0  0  0  0
    2.8559   -1.2364    0.0000 C   0  0  0  0  0  0  0  0  0  0  0  0
    2.8559   -0.4080    0.0000 C   0  0  0  0  0  0  0  0  0  0  0  0
    0.0000   -1.2364    0.0000 C   0  0  0  0  0  0  0  0  0  0  0  0
  1  5  1  0  0  0  0
  2  8  1  0  0  0  0
  2 11  2  0  0  0  0
  3  4  2  0  0  0  0
  3  5  1  0  0  0  0
  3  6  1  0  0  0  0
  4  7  1  0  0  0  0
  4  8  1  0  0  0  0
  5  9  2  0  0  0  0
  6 11  1  0  0  0  0
  7 10  2  0  0  0  0
  9 10  1  0  0  0  0
M  END
> <PUBCHEM_COMPOUND_ID_TYPE>
0

> <PUBCHEM_TOTAL_CHARGE>
0

> <PUBCHEM_SUBSTANCE_ID>
310933750

> <PUBCHEM_SUBSTANCE_VERSION>
1

> <PUBCHEM_EXT_DATASOURCE_NAME>
4488

> <PUBCHEM_EXT_DATASOURCE_REGID>
SCHEMBL16111186

> <PUBCHEM_SUBSTANCE_COMMENT>
InChI=1S/C9H8BrN/c10-9-3-1-2-7-6-11-5-4-8(7)9/h1-3,5H,4,6H2
InChIKey=HXWZNHCPUIDYAE-UHFFFAOYSA-N

> <PUBCHEM_SUBSTANCE_SYNONYM>
SCHEMBL16111186

> <PUBCHEM_XREF_EXT_ID>
SCHEMBL16111186

> <PUBCHEM_EXT_DATASOURCE_URL>
https://www.surechembl.org/

> <PUBCHEM_EXT_SUBSTANCE_URL>
https://www.surechembl.org/chemical/SCHEMBL16111186

> <PUBCHEM_CID_ASSOCIATIONS>
117602109  1

> <PUBCHEM_COORDINATE_TYPE>
1
3

$$$$
