310945466
  -OEChem-07211613022D

 30 33  0     1  0  0  0  0  0999 V2000
    1.0743   -1.1673    0.0000 O   0  0  0  0  0  0  0  0  0  0  0  0
   -0.1438   -1.8441    0.0000 O   0  0  0  0  0  0  0  0  0  0  0  0
   -4.5086   -1.7764    0.0000 O   0  0  0  0  0  0  0  0  0  0  0  0
    3.7304    0.8290    0.0000 O   0  0  0  0  0  0  0  0  0  0  0  0
    3.3751    2.2332    0.0000 O   0  0  0  0  0  0  0  0  0  0  0  0
   -0.1100    0.7105    0.0000 C   0  0  3  0  0  0  0  0  0  0  0  0
   -0.1100   -0.1523    0.0000 C   0  0  3  0  0  0  0  0  0  0  0  0
   -0.8544   -0.5583    0.0000 C   0  0  3  0  0  0  0  0  0  0  0  0
   -1.5649   -0.1184    0.0000 C   0  0  3  0  0  0  0  0  0  0  0  0
   -2.3263   -0.5245    0.0000 C   0  0  3  0  0  0  0  0  0  0  0  0
    0.6851    0.9305    0.0000 C   0  0  3  0  0  0  0  0  0  0  0  0
    0.6682   -0.4229    0.0000 C   0  0  3  0  0  0  0  0  0  0  0  0
   -2.3263   -1.4042    0.0000 C   0  0  3  0  0  0  0  0  0  0  0  0
   -0.8713   -1.4211    0.0000 C   0  0  3  0  0  0  0  0  0  0  0  0
   -0.8374    1.0996    0.0000 C   0  0  0  0  0  0  0  0  0  0  0  0
   -1.5480    0.6936    0.0000 C   0  0  0  0  0  0  0  0  0  0  0  0
    1.1589    0.2031    0.0000 C   0  0  0  0  0  0  0  0  0  0  0  0
   -1.5987   -1.8102    0.0000 C   0  0  0  0  0  0  0  0  0  0  0  0
   -3.0368   -0.1184    0.0000 C   0  0  0  0  0  0  0  0  0  0  0  0
    0.9559    1.6410    0.0000 C   0  0  3  0  0  0  0  0  0  0  0  0
   -0.1100    1.5057    0.0000 C   0  0  0  0  0  0  0  0  0  0  0  0
   -3.0537   -1.7764    0.0000 C   0  0  0  0  0  0  0  0  0  0  0  0
   -2.2924    0.2707    0.0000 C   0  0  0  0  0  0  0  0  0  0  0  0
   -3.7642   -1.3365    0.0000 C   0  0  3  0  0  0  0  0  0  0  0  0
   -3.7473   -0.5076    0.0000 C   0  0  0  0  0  0  0  0  0  0  0  0
    1.7849    1.8272    0.0000 C   0  0  0  0  0  0  0  0  0  0  0  0
    0.3976    2.2332    0.0000 C   0  0  0  0  0  0  0  0  0  0  0  0
    2.3600    1.2350    0.0000 C   0  0  0  0  0  0  0  0  0  0  0  0
    3.1383    1.4381    0.0000 C   0  0  0  0  0  0  0  0  0  0  0  0
    4.5086    1.0151    0.0000 C   0  0  0  0  0  0  0  0  0  0  0  0
 12  1  1  6  0  0  0
 14  2  1  6  0  0  0
 24  3  1  6  0  0  0
  4 29  1  0  0  0  0
  4 30  1  0  0  0  0
  5 29  2  0  0  0  0
  7  6  1  1  0  0  0
  6 11  1  0  0  0  0
  6 15  1  0  0  0  0
  6 21  1  0  0  0  0
  7  8  1  0  0  0  0
  7 12  1  0  0  0  0
  8  9  1  0  0  0  0
  8 14  1  0  0  0  0
  9 10  1  0  0  0  0
  9 16  1  0  0  0  0
 10 13  1  0  0  0  0
 10 19  1  0  0  0  0
 10 23  1  0  0  0  0
 11 17  1  0  0  0  0
 11 20  1  1  0  0  0
 12 17  1  0  0  0  0
 13 18  1  0  0  0  0
 13 22  1  0  0  0  0
 14 18  1  0  0  0  0
 15 16  1  0  0  0  0
 19 25  1  0  0  0  0
 20 26  1  0  0  0  0
 20 27  1  6  0  0  0
 22 24  1  0  0  0  0
 24 25  1  0  0  0  0
 26 28  1  0  0  0  0
 28 29  1  0  0  0  0
M  END
> <PUBCHEM_COMPOUND_ID_TYPE>
0

> <PUBCHEM_TOTAL_CHARGE>
0

> <PUBCHEM_SUBSTANCE_ID>
310945466

> <PUBCHEM_SUBSTANCE_VERSION>
1

> <PUBCHEM_EXT_DATASOURCE_NAME>
4488

> <PUBCHEM_EXT_DATASOURCE_REGID>
SCHEMBL16123564

> <PUBCHEM_SUBSTANCE_COMMENT>
InChI=1S/C25H42O5/c1-14(5-6-21(29)30-4)18-13-20(28)23-22-17(8-10-25(18,23)3)24(2)9-7-16(26)11-15(24)12-19(22)27/h14-20,22-23,26-28H,5-13H2,1-4H3/t14-,15?,16-,17?,18-,19-,20+,22?,23+,24?,25?/m1/s1
InChIKey=GNGSNCPQCZJNBI-MUXGRSJESA-N

> <PUBCHEM_SUBSTANCE_SYNONYM>
SCHEMBL16123564

> <PUBCHEM_XREF_EXT_ID>
SCHEMBL16123564

> <PUBCHEM_EXT_DATASOURCE_URL>
https://www.surechembl.org/

> <PUBCHEM_EXT_SUBSTANCE_URL>
https://www.surechembl.org/chemical/SCHEMBL16123564

> <PUBCHEM_CID_ASSOCIATIONS>
117611511  1

> <PUBCHEM_COORDINATE_TYPE>
1
3

> <PUBCHEM_BONDANNOTATIONS>
12  1  6
11  20  5
14  2  6
20  27  6
24  3  6
7  6  5

$$$$
