310935133
  -OEChem-07211613022D

 26 25  0     1  0  0  0  0  0999 V2000
   13.8552    3.0493    0.0000 S   0  0  0  0  0  0  0  0  0  0  0  0
   13.8552    5.5243    0.0000 O   0  0  0  0  0  0  0  0  0  0  0  0
   10.2829    5.9368    0.0000 O   0  0  0  0  0  0  0  0  0  0  0  0
    8.8539    5.9368    0.0000 O   0  0  0  0  0  0  0  0  0  0  0  0
   11.7118    3.4618    0.0000 O   0  0  0  0  0  0  0  0  0  0  0  0
    8.1395    5.5243    0.0000 O   0  0  0  0  0  0  0  0  0  0  0  0
    6.7105    4.6993    0.0000 O   0  0  0  0  0  0  0  0  0  0  0  0
   16.7131    4.6993    0.0000 O   0  0  0  0  0  0  0  0  0  0  0  0
   15.9987    3.4618    0.0000 O   0  0  0  0  0  0  0  0  0  0  0  0
   12.4263    4.6993    0.0000 N   0  0  0  0  0  0  0  0  0  0  0  0
    8.8539    4.2868    0.0000 N   0  0  0  0  0  0  0  0  0  0  0  0
   14.5697    4.2868    0.0000 N   0  0  0  0  0  0  0  0  0  0  0  0
    7.4250    4.2868    0.0000 N   0  0  0  0  0  0  0  0  0  0  0  0
   13.1408    4.2868    0.0000 C   0  0  3  0  0  0  0  0  0  0  0  0
    9.5684    4.6993    0.0000 C   0  0  3  0  0  0  0  0  0  0  0  0
   13.8552    4.6993    0.0000 C   0  0  0  0  0  0  0  0  0  0  0  0
    9.5684    5.5243    0.0000 C   0  0  0  0  0  0  0  0  0  0  0  0
   10.2829    4.2868    0.0000 C   0  0  0  0  0  0  0  0  0  0  0  0
   11.7118    4.2868    0.0000 C   0  0  0  0  0  0  0  0  0  0  0  0
   10.9974    4.6993    0.0000 C   0  0  0  0  0  0  0  0  0  0  0  0
   13.1408    3.4618    0.0000 C   0  0  0  0  0  0  0  0  0  0  0  0
    8.1395    4.6993    0.0000 C   0  0  0  0  0  0  0  0  0  0  0  0
   15.2842    4.6993    0.0000 C   0  0  0  0  0  0  0  0  0  0  0  0
   15.9987    4.2868    0.0000 C   0  0  0  0  0  0  0  0  0  0  0  0
   12.4263    3.8743    0.0000 H   0  0  0  0  0  0  0  0  0  0  0  0
    8.8539    5.1118    0.0000 H   0  0  0  0  0  0  0  0  0  0  0  0
  1 21  1  0  0  0  0
  2 16  2  0  0  0  0
  3 17  2  0  0  0  0
  4 17  1  0  0  0  0
  5 19  2  0  0  0  0
  6 22  2  0  0  0  0
  7 13  1  0  0  0  0
  8 24  2  0  0  0  0
  9 24  1  0  0  0  0
 14 10  1  6  0  0  0
 10 19  1  0  0  0  0
 11 15  1  0  0  0  0
 11 22  1  0  0  0  0
 12 16  1  0  0  0  0
 12 23  1  0  0  0  0
 13 22  1  0  0  0  0
 14 16  1  0  0  0  0
 14 21  1  0  0  0  0
 14 25  1  1  0  0  0
 15 17  1  0  0  0  0
 15 18  1  0  0  0  0
 15 26  1  1  0  0  0
 18 20  1  0  0  0  0
 19 20  1  0  0  0  0
 23 24  1  0  0  0  0
M  END
> <PUBCHEM_COMPOUND_ID_TYPE>
0

> <PUBCHEM_TOTAL_CHARGE>
0

> <PUBCHEM_SUBSTANCE_ID>
310935133

> <PUBCHEM_SUBSTANCE_VERSION>
1

> <PUBCHEM_EXT_DATASOURCE_NAME>
4488

> <PUBCHEM_EXT_DATASOURCE_REGID>
SCHEMBL16112660

> <PUBCHEM_SUBSTANCE_COMMENT>
InChI=1S/C11H18N4O8S/c16-7(2-1-5(10(20)21)14-11(22)15-23)13-6(4-24)9(19)12-3-8(17)18/h5-6,23-24H,1-4H2,(H,12,19)(H,13,16)(H,17,18)(H,20,21)(H2,14,15,22)/t5-,6-/m0/s1
InChIKey=HMEVOPOIILGAEI-WDSKDSINSA-N

> <PUBCHEM_SUBSTANCE_SYNONYM>
SCHEMBL16112660

> <PUBCHEM_XREF_EXT_ID>
SCHEMBL16112660

> <PUBCHEM_EXT_DATASOURCE_URL>
https://www.surechembl.org/

> <PUBCHEM_EXT_SUBSTANCE_URL>
https://www.surechembl.org/chemical/SCHEMBL16112660

> <PUBCHEM_CID_ASSOCIATIONS>
117603221  1

> <PUBCHEM_COORDINATE_TYPE>
1
3

> <PUBCHEM_BONDANNOTATIONS>
14  10  6
14  25  5
15  26  5

$$$$
