310941126
  -OEChem-07211613022D

 42 45  0     1  0  0  0  0  0999 V2000
    5.1022    0.6704    0.0000 O   0  0  0  0  0  0  0  0  0  0  0  0
    3.9731   -1.2914    0.0000 O   0  0  0  0  0  0  0  0  0  0  0  0
    1.8136    0.7833    0.0000 O   0  0  0  0  0  0  0  0  0  0  0  0
   -0.3599   -1.2914    0.0000 O   0  0  0  0  0  0  0  0  0  0  0  0
    3.9731   -2.9569    0.0000 O   0  0  0  0  0  0  0  0  0  0  0  0
   -2.5193    0.7833    0.0000 O   0  0  0  0  0  0  0  0  0  0  0  0
   -5.3986    0.7833    0.0000 O   0  0  0  0  0  0  0  0  0  0  0  0
    2.5335   -0.4587    0.0000 N   0  0  0  0  0  0  0  0  0  0  0  0
    0.3740   -0.0494    0.0000 N   0  0  0  0  0  0  0  0  0  0  0  0
   -1.7854   -0.4587    0.0000 N   0  0  0  0  0  0  0  0  0  0  0  0
   -3.2250   -0.4587    0.0000 N   0  0  0  0  0  0  0  0  0  0  0  0
   -3.9590   -0.0494    0.0000 N   0  0  0  0  0  0  0  0  0  0  0  0
    4.6788    0.0070    0.0000 C   0  0  3  0  0  0  0  0  0  0  0  0
    3.9731   -0.4305    0.0000 C   0  0  0  0  0  0  0  0  0  0  0  0
    4.2977    0.6845    0.0000 C   0  0  0  0  0  0  0  0  0  0  0  0
    3.2533   -0.0212    0.0000 C   0  0  3  0  0  0  0  0  0  0  0  0
    5.3986   -0.4305    0.0000 C   0  0  0  0  0  0  0  0  0  0  0  0
    3.2533    1.3056    0.0000 C   0  0  0  0  0  0  0  0  0  0  0  0
    1.8136   -0.0353    0.0000 C   0  0  0  0  0  0  0  0  0  0  0  0
    1.1080   -0.4305    0.0000 C   0  0  3  0  0  0  0  0  0  0  0  0
    2.5335    1.7431    0.0000 C   0  0  0  0  0  0  0  0  0  0  0  0
    1.0797   -1.2773    0.0000 C   0  0  0  0  0  0  0  0  0  0  0  0
    1.8278   -1.6725    0.0000 C   0  0  0  0  0  0  0  0  0  0  0  0
   -0.3458   -0.4164    0.0000 C   0  0  0  0  0  0  0  0  0  0  0  0
    1.8278    1.3196    0.0000 C   0  0  0  0  0  0  0  0  0  0  0  0
    2.5335    2.5475    0.0000 C   0  0  0  0  0  0  0  0  0  0  0  0
   -1.0656   -0.0212    0.0000 C   0  0  3  0  0  0  0  0  0  0  0  0
    2.5335   -1.2914    0.0000 C   0  0  0  0  0  0  0  0  0  0  0  0
    1.8278   -2.5053    0.0000 C   0  0  0  0  0  0  0  0  0  0  0  0
    1.1080    1.7290    0.0000 C   0  0  0  0  0  0  0  0  0  0  0  0
    1.7995    2.9569    0.0000 C   0  0  0  0  0  0  0  0  0  0  0  0
    3.2391   -2.5053    0.0000 C   0  0  0  0  0  0  0  0  0  0  0  0
    3.2533   -1.6866    0.0000 C   0  0  0  0  0  0  0  0  0  0  0  0
    2.5335   -2.9145    0.0000 C   0  0  0  0  0  0  0  0  0  0  0  0
   -2.5193   -0.0353    0.0000 C   0  0  0  0  0  0  0  0  0  0  0  0
    1.1080    2.5475    0.0000 C   0  0  0  0  0  0  0  0  0  0  0  0
   -1.0656    0.8115    0.0000 C   0  0  0  0  0  0  0  0  0  0  0  0
   -3.9448    0.7974    0.0000 C   0  0  0  0  0  0  0  0  0  0  0  0
   -4.6646   -0.4305    0.0000 C   0  0  0  0  0  0  0  0  0  0  0  0
   -4.6788    1.2209    0.0000 C   0  0  0  0  0  0  0  0  0  0  0  0
   -5.3703   -0.0212    0.0000 C   0  0  0  0  0  0  0  0  0  0  0  0
    4.7211   -2.5053    0.0000 C   0  0  0  0  0  0  0  0  0  0  0  0
  1 13  1  0  0  0  0
  1 15  1  0  0  0  0
  2 14  2  0  0  0  0
  3 19  2  0  0  0  0
  4 24  2  0  0  0  0
  5 32  1  0  0  0  0
  5 42  1  0  0  0  0
  6 35  2  0  0  0  0
  7 40  1  0  0  0  0
  7 41  1  0  0  0  0
 16  8  1  1  0  0  0
  8 19  1  0  0  0  0
 20  9  1  6  0  0  0
  9 24  1  0  0  0  0
 10 27  1  0  0  0  0
 10 35  1  0  0  0  0
 11 12  1  0  0  0  0
 11 35  1  0  0  0  0
 12 38  1  0  0  0  0
 12 39  1  0  0  0  0
 13 14  1  1  0  0  0
 13 15  1  0  0  0  0
 13 17  1  6  0  0  0
 14 16  1  0  0  0  0
 16 18  1  0  0  0  0
 18 21  1  0  0  0  0
 19 20  1  0  0  0  0
 20 22  1  0  0  0  0
 21 25  2  0  0  0  0
 21 26  1  0  0  0  0
 22 23  1  0  0  0  0
 23 28  2  0  0  0  0
 23 29  1  0  0  0  0
 24 27  1  0  0  0  0
 25 30  1  0  0  0  0
 26 31  2  0  0  0  0
 27 37  1  1  0  0  0
 28 33  1  0  0  0  0
 29 34  2  0  0  0  0
 30 36  2  0  0  0  0
 31 36  1  0  0  0  0
 32 33  2  0  0  0  0
 32 34  1  0  0  0  0
 38 40  1  0  0  0  0
 39 41  1  0  0  0  0
M  END
> <PUBCHEM_COMPOUND_ID_TYPE>
0

> <PUBCHEM_TOTAL_CHARGE>
0

> <PUBCHEM_SUBSTANCE_ID>
310941126

> <PUBCHEM_SUBSTANCE_VERSION>
1

> <PUBCHEM_EXT_DATASOURCE_NAME>
4488

> <PUBCHEM_EXT_DATASOURCE_REGID>
SCHEMBL16119086

> <PUBCHEM_SUBSTANCE_COMMENT>
InChI=1S/C30H39N5O7/c1-20(31-29(39)34-35-13-15-41-16-14-35)27(37)33-25(18-22-9-11-23(40-3)12-10-22)28(38)32-24(26(36)30(2)19-42-30)17-21-7-5-4-6-8-21/h4-12,20,24-25H,13-19H2,1-3H3,(H,32,38)(H,33,37)(H2,31,34,39)/t20-,24-,25-,30+/m0/s1
InChIKey=QFNDYPKFAGTHFP-NHPFZIKMSA-N

> <PUBCHEM_SUBSTANCE_SYNONYM>
SCHEMBL16119086

> <PUBCHEM_XREF_EXT_ID>
SCHEMBL16119086

> <PUBCHEM_EXT_DATASOURCE_URL>
https://www.surechembl.org/

> <PUBCHEM_EXT_SUBSTANCE_URL>
https://www.surechembl.org/chemical/SCHEMBL16119086

> <PUBCHEM_CID_ASSOCIATIONS>
117608009  1

> <PUBCHEM_COORDINATE_TYPE>
1
3

> <PUBCHEM_BONDANNOTATIONS>
13  14  5
13  17  6
27  37  5
16  8  5
20  9  6

$$$$
