310948271
  -OEChem-07211613022D

 31 35  0     1  0  0  0  0  0999 V2000
    2.4608   -2.5823    0.0000 S   0  0  0  0  0  0  0  0  0  0  0  0
   -2.5502   -2.0965    0.0000 O   0  0  0  0  0  0  0  0  0  0  0  0
    2.6398   -1.7769    0.0000 O   0  0  0  0  0  0  0  0  0  0  0  0
    3.2789   -2.7612    0.0000 O   0  0  0  0  0  0  0  0  0  0  0  0
   -1.0419    0.2429    0.0000 N   0  0  0  0  0  0  0  0  0  0  0  0
   -0.5561   -0.4347    0.0000 N   0  0  0  0  0  0  0  0  0  0  0  0
   -0.7862   -1.8919    0.0000 N   0  0  0  0  0  0  0  0  0  0  0  0
   -3.2789   -0.8437    0.0000 N   0  0  0  0  0  0  0  0  0  0  0  0
    1.1313   -0.0127    0.0000 N   0  0  0  0  0  0  0  0  0  0  0  0
   -1.8217   -0.0127    0.0000 C   0  0  0  0  0  0  0  0  0  0  0  0
   -1.8344   -0.8437    0.0000 C   0  0  0  0  0  0  0  0  0  0  0  0
   -0.2748    2.6334    0.0000 C   0  0  0  0  0  0  0  0  0  0  0  0
   -0.7862    1.0355    0.0000 C   0  0  3  0  0  0  0  0  0  0  0  0
   -1.0419   -1.0994    0.0000 C   0  0  0  0  0  0  0  0  0  0  0  0
    0.0192    1.2144    0.0000 C   0  0  3  0  0  0  0  0  0  0  0  0
    0.2621    2.0070    0.0000 C   0  0  0  0  0  0  0  0  0  0  0  0
   -2.5502   -1.2400    0.0000 C   0  0  0  0  0  0  0  0  0  0  0  0
   -0.4282    3.4131    0.0000 C   0  0  0  0  0  0  0  0  0  0  0  0
    0.3259    3.1703    0.0000 C   0  0  0  0  0  0  0  0  0  0  0  0
   -1.0802    2.4289    0.0000 C   0  0  0  0  0  0  0  0  0  0  0  0
   -1.3231    1.6362    0.0000 C   0  0  0  0  0  0  0  0  0  0  0  0
   -2.5758    0.3963    0.0000 C   0  0  0  0  0  0  0  0  0  0  0  0
    0.0319   -2.0709    0.0000 C   0  0  0  0  0  0  0  0  0  0  0  0
   -3.2662   -0.0127    0.0000 C   0  0  0  0  0  0  0  0  0  0  0  0
    0.5816    0.5880    0.0000 C   0  0  0  0  0  0  0  0  0  0  0  0
    1.6427   -2.4033    0.0000 C   0  0  0  0  0  0  0  0  0  0  0  0
    0.2876   -2.8507    0.0000 C   0  0  0  0  0  0  0  0  0  0  0  0
    0.5944   -1.4573    0.0000 C   0  0  0  0  0  0  0  0  0  0  0  0
    1.1057   -3.0168    0.0000 C   0  0  0  0  0  0  0  0  0  0  0  0
    1.3870   -1.6235    0.0000 C   0  0  0  0  0  0  0  0  0  0  0  0
    2.3074   -3.4131    0.0000 C   0  0  0  0  0  0  0  0  0  0  0  0
  1  3  2  0  0  0  0
  1  4  2  0  0  0  0
  1 26  1  0  0  0  0
  1 31  1  0  0  0  0
  2 17  2  0  0  0  0
  5  6  1  0  0  0  0
  5 10  1  0  0  0  0
 13  5  1  1  0  0  0
  6 14  2  0  0  0  0
  7 14  1  0  0  0  0
  7 23  1  0  0  0  0
  8 17  1  0  0  0  0
  8 24  1  0  0  0  0
  9 25  3  0  0  0  0
 10 11  2  0  0  0  0
 10 22  1  0  0  0  0
 11 14  1  0  0  0  0
 11 17  1  0  0  0  0
 12 16  1  0  0  0  0
 12 18  1  0  0  0  0
 12 19  1  0  0  0  0
 12 20  1  0  0  0  0
 13 15  1  0  0  0  0
 13 21  1  0  0  0  0
 15 16  1  0  0  0  0
 15 25  1  6  0  0  0
 18 19  1  0  0  0  0
 20 21  1  0  0  0  0
 22 24  2  0  0  0  0
 23 27  2  0  0  0  0
 23 28  1  0  0  0  0
 26 29  2  0  0  0  0
 26 30  1  0  0  0  0
 27 29  1  0  0  0  0
 28 30  2  0  0  0  0
M  END
> <PUBCHEM_COMPOUND_ID_TYPE>
0

> <PUBCHEM_TOTAL_CHARGE>
0

> <PUBCHEM_SUBSTANCE_ID>
310948271

> <PUBCHEM_SUBSTANCE_VERSION>
1

> <PUBCHEM_EXT_DATASOURCE_NAME>
4488

> <PUBCHEM_EXT_DATASOURCE_REGID>
SCHEMBL16126448

> <PUBCHEM_SUBSTANCE_COMMENT>
InChI=1S/C22H23N5O3S/c1-31(29,30)16-4-2-15(3-5-16)25-20-19-18(7-11-24-21(19)28)27(26-20)17-6-8-22(9-10-22)12-14(17)13-23/h2-5,7,11,14,17H,6,8-10,12H2,1H3,(H,24,28)(H,25,26)/t14-,17+/m1/s1
InChIKey=VTJWCDXVXRPCAT-PBHICJAKSA-N

> <PUBCHEM_SUBSTANCE_SYNONYM>
SCHEMBL16126448

> <PUBCHEM_XREF_EXT_ID>
SCHEMBL16126448

> <PUBCHEM_EXT_DATASOURCE_URL>
https://www.surechembl.org/

> <PUBCHEM_EXT_SUBSTANCE_URL>
https://www.surechembl.org/chemical/SCHEMBL16126448

> <PUBCHEM_CID_ASSOCIATIONS>
117613851  1

> <PUBCHEM_COORDINATE_TYPE>
1
3

> <PUBCHEM_BONDANNOTATIONS>
15  25  6
13  5  5

$$$$
