310932506
  -OEChem-07211613022D

 15 15  0     0  0  0  0  0  0999 V2000
    3.5561   -1.2345    0.0000 O   0  0  0  0  0  0  0  0  0  0  0  0
    2.8559    0.0000    0.0000 O   0  0  0  0  0  0  0  0  0  0  0  0
    2.8375   -2.4506    0.0000 N   0  0  0  0  0  0  0  0  0  0  0  0
    0.7186   -1.2345    0.0000 N   0  0  0  0  0  0  0  0  0  0  0  0
    2.1374   -1.2345    0.0000 C   0  0  0  0  0  0  0  0  0  0  0  0
    2.1374   -2.0637    0.0000 C   0  0  0  0  0  0  0  0  0  0  0  0
    2.8559   -0.8292    0.0000 C   0  0  0  0  0  0  0  0  0  0  0  0
    1.4372   -0.8107    0.0000 C   0  0  0  0  0  0  0  0  0  0  0  0
    1.4188   -2.4506    0.0000 C   0  0  0  0  0  0  0  0  0  0  0  0
    2.8744   -3.2798    0.0000 C   0  0  0  0  0  0  0  0  0  0  0  0
    1.4556   -3.2982    0.0000 C   0  0  0  0  0  0  0  0  0  0  0  0
    2.1558   -3.6851    0.0000 C   0  0  0  0  0  0  0  0  0  0  0  0
    0.0000   -0.8107    0.0000 C   0  0  0  0  0  0  0  0  0  0  0  0
    0.7186   -2.0452    0.0000 C   0  0  0  0  0  0  0  0  0  0  0  0
    4.2747   -0.8292    0.0000 C   0  0  0  0  0  0  0  0  0  0  0  0
  1  7  1  0  0  0  0
  1 15  1  0  0  0  0
  2  7  2  0  0  0  0
  3  6  1  0  0  0  0
  3 10  2  0  0  0  0
  4  8  1  0  0  0  0
  4 13  1  0  0  0  0
  4 14  1  0  0  0  0
  5  6  1  0  0  0  0
  5  7  1  0  0  0  0
  5  8  2  0  0  0  0
  6  9  2  0  0  0  0
  9 11  1  0  0  0  0
 10 12  1  0  0  0  0
 11 12  2  0  0  0  0
M  END
> <PUBCHEM_COMPOUND_ID_TYPE>
0

> <PUBCHEM_TOTAL_CHARGE>
0

> <PUBCHEM_SUBSTANCE_ID>
310932506

> <PUBCHEM_SUBSTANCE_VERSION>
1

> <PUBCHEM_EXT_DATASOURCE_NAME>
4488

> <PUBCHEM_EXT_DATASOURCE_REGID>
SCHEMBL16109878

> <PUBCHEM_SUBSTANCE_COMMENT>
InChI=1S/C11H14N2O2/c1-13(2)8-9(11(14)15-3)10-6-4-5-7-12-10/h4-8H,1-3H3/b9-8+
InChIKey=BPFLPMLSDMXNMF-CMDGGOBGSA-N

> <PUBCHEM_SUBSTANCE_SYNONYM>
SCHEMBL16109878

> <PUBCHEM_XREF_EXT_ID>
SCHEMBL16109878

> <PUBCHEM_EXT_DATASOURCE_URL>
https://www.surechembl.org/

> <PUBCHEM_EXT_SUBSTANCE_URL>
https://www.surechembl.org/chemical/SCHEMBL16109878

> <PUBCHEM_CID_ASSOCIATIONS>
11665618  1

> <PUBCHEM_COORDINATE_TYPE>
1
3

$$$$
