310940954
  -OEChem-07211613022D

 39 42  0     1  0  0  0  0  0999 V2000
    4.9701    0.9853    0.0000 O   0  0  0  0  0  0  0  0  0  0  0  0
    3.8399   -0.9853    0.0000 O   0  0  0  0  0  0  0  0  0  0  0  0
    1.4780    0.9709    0.0000 O   0  0  0  0  0  0  0  0  0  0  0  0
   -0.6665   -1.1013    0.0000 O   0  0  0  0  0  0  0  0  0  0  0  0
   -2.8256    0.9709    0.0000 O   0  0  0  0  0  0  0  0  0  0  0  0
   -5.2599   -1.2751    0.0000 O   0  0  0  0  0  0  0  0  0  0  0  0
    3.6225   -2.7676    0.0000 O   0  0  0  0  0  0  0  0  0  0  0  0
    2.2025   -0.2753    0.0000 N   0  0  0  0  0  0  0  0  0  0  0  0
    0.0435    0.1304    0.0000 N   0  0  0  0  0  0  0  0  0  0  0  0
   -2.1011   -0.2753    0.0000 N   0  0  0  0  0  0  0  0  0  0  0  0
    4.5498    0.3043    0.0000 C   0  0  3  0  0  0  0  0  0  0  0  0
    3.8399   -0.1159    0.0000 C   0  0  0  0  0  0  0  0  0  0  0  0
    4.1732    0.9853    0.0000 C   0  0  0  0  0  0  0  0  0  0  0  0
    3.1154    0.2898    0.0000 C   0  0  3  0  0  0  0  0  0  0  0  0
    5.2599   -0.1159    0.0000 C   0  0  0  0  0  0  0  0  0  0  0  0
    3.1299    1.3621    0.0000 C   0  0  0  0  0  0  0  0  0  0  0  0
    1.4635    0.1449    0.0000 C   0  0  0  0  0  0  0  0  0  0  0  0
    0.7680   -0.2463    0.0000 C   0  0  3  0  0  0  0  0  0  0  0  0
    2.4054    1.7968    0.0000 C   0  0  0  0  0  0  0  0  0  0  0  0
   -3.5356   -0.2463    0.0000 C   0  0  0  0  0  0  0  0  0  0  0  0
    0.7536   -1.1013    0.0000 C   0  0  0  0  0  0  0  0  0  0  0  0
   -0.6665   -0.2318    0.0000 C   0  0  0  0  0  0  0  0  0  0  0  0
   -2.8111    0.1594    0.0000 C   0  0  0  0  0  0  0  0  0  0  0  0
   -1.4056    0.1594    0.0000 C   0  0  3  0  0  0  0  0  0  0  0  0
    1.4925   -1.4925    0.0000 C   0  0  0  0  0  0  0  0  0  0  0  0
   -4.5354   -0.8405    0.0000 C   0  0  0  0  0  0  0  0  0  0  0  0
    1.6518    1.4490    0.0000 C   0  0  0  0  0  0  0  0  0  0  0  0
    2.3184    2.5937    0.0000 C   0  0  0  0  0  0  0  0  0  0  0  0
   -4.3325   -0.0580    0.0000 C   0  0  0  0  0  0  0  0  0  0  0  0
   -3.7530   -1.0433    0.0000 C   0  0  0  0  0  0  0  0  0  0  0  0
    1.1158    2.0576    0.0000 C   0  0  0  0  0  0  0  0  0  0  0  0
    1.5214    2.7676    0.0000 C   0  0  0  0  0  0  0  0  0  0  0  0
    1.4925   -2.3184    0.0000 C   0  0  0  0  0  0  0  0  0  0  0  0
    2.1880   -1.1013    0.0000 C   0  0  0  0  0  0  0  0  0  0  0  0
    2.8980   -2.3184    0.0000 C   0  0  0  0  0  0  0  0  0  0  0  0
    2.2025   -2.7386    0.0000 C   0  0  0  0  0  0  0  0  0  0  0  0
    2.9125   -1.5070    0.0000 C   0  0  0  0  0  0  0  0  0  0  0  0
   -1.3766    0.9709    0.0000 C   0  0  0  0  0  0  0  0  0  0  0  0
    4.3760   -2.3184    0.0000 C   0  0  0  0  0  0  0  0  0  0  0  0
  1 11  1  0  0  0  0
  1 13  1  0  0  0  0
  2 12  2  0  0  0  0
  3 17  2  0  0  0  0
  4 22  2  0  0  0  0
  5 23  2  0  0  0  0
 26  6  1  6  0  0  0
  7 35  1  0  0  0  0
  7 39  1  0  0  0  0
 14  8  1  1  0  0  0
  8 17  1  0  0  0  0
 18  9  1  6  0  0  0
  9 22  1  0  0  0  0
 10 23  1  0  0  0  0
 10 24  1  0  0  0  0
 11 12  1  1  0  0  0
 11 13  1  0  0  0  0
 11 15  1  6  0  0  0
 12 14  1  0  0  0  0
 14 16  1  0  0  0  0
 16 19  1  0  0  0  0
 17 18  1  0  0  0  0
 18 21  1  0  0  0  0
 19 27  1  0  0  0  0
 19 28  1  0  0  0  0
 20 23  1  1  0  0  0
 20 29  1  0  0  0  0
 20 30  1  0  0  0  0
 21 25  1  0  0  0  0
 22 24  1  0  0  0  0
 24 38  1  6  0  0  0
 25 33  2  0  0  0  0
 25 34  1  0  0  0  0
 26 29  1  0  0  0  0
 26 30  1  0  0  0  0
 27 31  1  0  0  0  0
 28 32  1  0  0  0  0
 31 32  1  0  0  0  0
 33 36  1  0  0  0  0
 34 37  2  0  0  0  0
 35 36  2  0  0  0  0
 35 37  1  0  0  0  0
M  END
> <PUBCHEM_COMPOUND_ID_TYPE>
0

> <PUBCHEM_TOTAL_CHARGE>
0

> <PUBCHEM_SUBSTANCE_ID>
310940954

> <PUBCHEM_SUBSTANCE_VERSION>
1

> <PUBCHEM_EXT_DATASOURCE_NAME>
4488

> <PUBCHEM_EXT_DATASOURCE_REGID>
SCHEMBL16118913

> <PUBCHEM_SUBSTANCE_COMMENT>
InChI=1S/C29H41N3O7/c1-17(30-27(36)20-14-21(33)15-20)26(35)32-24(13-19-8-10-22(38-3)11-9-19)28(37)31-23(12-18-6-4-5-7-18)25(34)29(2)16-39-29/h8-11,17-18,20-21,23-24,33H,4-7,12-16H2,1-3H3,(H,30,36)(H,31,37)(H,32,35)/t17-,20-,21-,23+,24+,29-/m1/s1
InChIKey=KDHYIBPXZARBBD-JBYIJFBCSA-N

> <PUBCHEM_SUBSTANCE_SYNONYM>
SCHEMBL16118913

> <PUBCHEM_XREF_EXT_ID>
SCHEMBL16118913

> <PUBCHEM_EXT_DATASOURCE_URL>
https://www.surechembl.org/

> <PUBCHEM_EXT_SUBSTANCE_URL>
https://www.surechembl.org/chemical/SCHEMBL16118913

> <PUBCHEM_CID_ASSOCIATIONS>
117607862  1

> <PUBCHEM_COORDINATE_TYPE>
1
3

> <PUBCHEM_BONDANNOTATIONS>
11  12  5
11  15  6
20  23  5
24  38  6
26  6  6
14  8  5
18  9  6

$$$$
