310937861
  -OEChem-07211613022D

 15 15  0     0  0  0  0  0  0999 V2000
   -2.1434    0.0000    0.0000 F   0  0  0  0  0  0  0  0  0  0  0  0
   -2.1434    2.4750    0.0000 O   0  0  0  0  0  0  0  0  0  0  0  0
   -5.7158    0.4125    0.0000 O   0  5  0  0  0  0  0  0  0  0  0  0
   -5.0013   -0.8250    0.0000 O   0  0  0  0  0  0  0  0  0  0  0  0
   -5.0013    0.0000    0.0000 N   0  3  0  0  0  0  0  0  0  0  0  0
   -1.4290    1.2375    0.0000 N   0  0  0  0  0  0  0  0  0  0  0  0
   -1.4290    0.4125    0.0000 N   0  0  0  0  0  0  0  0  0  0  0  0
   -2.8579    1.2375    0.0000 C   0  0  0  0  0  0  0  0  0  0  0  0
   -2.8579    0.4125    0.0000 C   0  0  0  0  0  0  0  0  0  0  0  0
   -4.2868    0.4125    0.0000 C   0  0  0  0  0  0  0  0  0  0  0  0
   -2.1434    1.6500    0.0000 C   0  0  0  0  0  0  0  0  0  0  0  0
   -3.5724    0.0000    0.0000 C   0  0  0  0  0  0  0  0  0  0  0  0
   -3.5724    1.6500    0.0000 C   0  0  0  0  0  0  0  0  0  0  0  0
   -4.2868    1.2375    0.0000 C   0  0  0  0  0  0  0  0  0  0  0  0
   -0.7144    1.6500    0.0000 C   0  0  0  0  0  0  0  0  0  0  0  0
  1  9  1  0  0  0  0
  2 11  2  0  0  0  0
  3  5  1  0  0  0  0
  4  5  2  0  0  0  0
  5 10  1  0  0  0  0
  6  7  1  0  0  0  0
  6 11  1  0  0  0  0
  6 15  1  0  0  0  0
  8  9  1  0  0  0  0
  8 11  1  0  0  0  0
  8 13  2  0  0  0  0
  9 12  2  0  0  0  0
 10 12  1  0  0  0  0
 10 14  2  0  0  0  0
 13 14  1  0  0  0  0
M  CHG  2   3  -1   5   1
M  END
> <PUBCHEM_COMPOUND_ID_TYPE>
0

> <PUBCHEM_TOTAL_CHARGE>
0

> <PUBCHEM_SUBSTANCE_ID>
310937861

> <PUBCHEM_SUBSTANCE_VERSION>
1

> <PUBCHEM_EXT_DATASOURCE_NAME>
4488

> <PUBCHEM_EXT_DATASOURCE_REGID>
SCHEMBL16115685

> <PUBCHEM_SUBSTANCE_COMMENT>
InChI=1S/C8H8FN3O3/c1-11(10)8(13)6-3-2-5(12(14)15)4-7(6)9/h2-4H,10H2,1H3
InChIKey=DKMSOVIIBMAQPS-UHFFFAOYSA-N

> <PUBCHEM_SUBSTANCE_SYNONYM>
SCHEMBL16115685

> <PUBCHEM_XREF_EXT_ID>
SCHEMBL16115685

> <PUBCHEM_EXT_DATASOURCE_URL>
https://www.surechembl.org/

> <PUBCHEM_EXT_SUBSTANCE_URL>
https://www.surechembl.org/chemical/SCHEMBL16115685

> <PUBCHEM_CID_ASSOCIATIONS>
117605487  1

> <PUBCHEM_COORDINATE_TYPE>
1
3

$$$$
