310942637
  -OEChem-07211613022D

 34 36  0     1  0  0  0  0  0999 V2000
   -2.5613   -0.2355    0.0000 F   0  0  0  0  0  0  0  0  0  0  0  0
   -0.8980   -3.1207    0.0000 F   0  0  0  0  0  0  0  0  0  0  0  0
    0.6772   -0.5152    0.0000 O   0  0  0  0  0  0  0  0  0  0  0  0
    1.1482   -1.9725    0.0000 O   0  0  0  0  0  0  0  0  0  0  0  0
   -0.6330    1.0746    0.0000 N   0  0  0  0  0  0  0  0  0  0  0  0
   -0.0883   -0.1619    0.0000 N   0  0  0  0  0  0  0  0  0  0  0  0
    1.9137    0.3238    0.0000 N   0  0  0  0  0  0  0  0  0  0  0  0
    3.1060    2.2964    0.0000 N   0  0  0  0  0  0  0  0  0  0  0  0
    0.0883    0.6624    0.0000 C   0  0  0  0  0  0  0  0  0  0  0  0
    0.8391    1.0010    0.0000 C   0  0  3  0  0  0  0  0  0  0  0  0
    1.0599    1.8106    0.0000 C   0  0  0  0  0  0  0  0  0  0  0  0
   -0.9127   -0.2208    0.0000 C   0  0  0  0  0  0  0  0  0  0  0  0
   -1.2365    0.4858    0.0000 C   0  0  0  0  0  0  0  0  0  0  0  0
   -1.3395   -0.9568    0.0000 C   0  0  0  0  0  0  0  0  0  0  0  0
   -0.7066    1.8990    0.0000 C   0  0  0  0  0  0  0  0  0  0  0  0
    1.5162   -0.5152    0.0000 C   0  0  0  0  0  0  0  0  0  0  0  0
   -2.1491   -0.9568    0.0000 C   0  0  0  0  0  0  0  0  0  0  0  0
    1.8842    1.7959    0.0000 C   0  0  0  0  0  0  0  0  0  0  0  0
   -0.9127   -1.6781    0.0000 C   0  0  0  0  0  0  0  0  0  0  0  0
    0.3385    2.1933    0.0000 C   0  0  0  0  0  0  0  0  0  0  0  0
    1.0157    2.6202    0.0000 C   0  0  0  0  0  0  0  0  0  0  0  0
   -1.5309    2.1344    0.0000 C   0  0  0  0  0  0  0  0  0  0  0  0
    2.8999    0.5446    0.0000 C   0  0  0  0  0  0  0  0  0  0  0  0
   -1.3248   -2.3994    0.0000 C   0  0  0  0  0  0  0  0  0  0  0  0
    1.8842   -1.2218    0.0000 C   0  0  3  0  0  0  0  0  0  0  0  0
   -2.5466   -1.6929    0.0000 C   0  0  0  0  0  0  0  0  0  0  0  0
   -2.1491   -2.3847    0.0000 C   0  0  0  0  0  0  0  0  0  0  0  0
    2.3111    2.5172    0.0000 C   0  0  0  0  0  0  0  0  0  0  0  0
   -1.7370    2.9147    0.0000 C   0  0  0  0  0  0  0  0  0  0  0  0
   -2.1050    1.5309    0.0000 C   0  0  0  0  0  0  0  0  0  0  0  0
    2.6938   -1.4426    0.0000 C   0  0  0  0  0  0  0  0  0  0  0  0
   -2.5319    3.1207    0.0000 C   0  0  0  0  0  0  0  0  0  0  0  0
   -2.8999    1.7517    0.0000 C   0  0  0  0  0  0  0  0  0  0  0  0
   -3.1060    2.5466    0.0000 C   0  0  0  0  0  0  0  0  0  0  0  0
  1 17  1  0  0  0  0
  2 24  1  0  0  0  0
  3 16  2  0  0  0  0
 25  4  1  6  0  0  0
  5  9  1  0  0  0  0
  5 13  1  0  0  0  0
  5 15  1  0  0  0  0
  6  9  2  0  0  0  0
  6 12  1  0  0  0  0
 10  7  1  1  0  0  0
  7 16  1  0  0  0  0
  7 23  1  0  0  0  0
  8 28  1  0  0  0  0
  9 10  1  0  0  0  0
 10 11  1  0  0  0  0
 11 18  1  0  0  0  0
 11 20  1  0  0  0  0
 11 21  1  0  0  0  0
 12 13  2  0  0  0  0
 12 14  1  0  0  0  0
 14 17  2  0  0  0  0
 14 19  1  0  0  0  0
 15 22  1  0  0  0  0
 16 25  1  0  0  0  0
 17 26  1  0  0  0  0
 18 28  1  0  0  0  0
 19 24  2  0  0  0  0
 22 29  2  0  0  0  0
 22 30  1  0  0  0  0
 24 27  1  0  0  0  0
 25 31  1  0  0  0  0
 26 27  2  0  0  0  0
 29 32  1  0  0  0  0
 30 33  2  0  0  0  0
 32 34  2  0  0  0  0
 33 34  1  0  0  0  0
M  END
> <PUBCHEM_COMPOUND_ID_TYPE>
0

> <PUBCHEM_TOTAL_CHARGE>
0

> <PUBCHEM_SUBSTANCE_ID>
310942637

> <PUBCHEM_SUBSTANCE_VERSION>
1

> <PUBCHEM_EXT_DATASOURCE_NAME>
4488

> <PUBCHEM_EXT_DATASOURCE_REGID>
SCHEMBL16120683

> <PUBCHEM_SUBSTANCE_COMMENT>
InChI=1S/C26H32F2N4O2/c1-17(33)25(34)31(4)23(26(2,3)12-13-29)24-30-22(20-14-19(27)10-11-21(20)28)16-32(24)15-18-8-6-5-7-9-18/h5-11,14,16-17,23,33H,12-13,15,29H2,1-4H3/t17-,23-/m0/s1
InChIKey=KTBZTZRADBXUPS-SBUREZEXSA-N

> <PUBCHEM_SUBSTANCE_SYNONYM>
SCHEMBL16120683

> <PUBCHEM_XREF_EXT_ID>
SCHEMBL16120683

> <PUBCHEM_EXT_DATASOURCE_URL>
https://www.surechembl.org/

> <PUBCHEM_EXT_SUBSTANCE_URL>
https://www.surechembl.org/chemical/SCHEMBL16120683

> <PUBCHEM_CID_ASSOCIATIONS>
117609168  1

> <PUBCHEM_COORDINATE_TYPE>
1
3

> <PUBCHEM_BONDANNOTATIONS>
25  4  6
10  7  5

$$$$
