310944910
  -OEChem-07211613022D

 15 16  0     0  0  0  0  0  0999 V2000
   -2.5783    0.6703    0.0000 S   0  0  0  0  0  0  0  0  0  0  0  0
   -3.3861   -0.3781    0.0000 N   0  0  0  0  0  0  0  0  0  0  0  0
   -1.2548    0.0000    0.0000 C   0  0  0  0  0  0  0  0  0  0  0  0
   -2.0970    0.0172    0.0000 C   0  0  0  0  0  0  0  0  0  0  0  0
   -0.8251    0.6876    0.0000 C   0  0  0  0  0  0  0  0  0  0  0  0
   -0.8251   -0.6876    0.0000 C   0  0  0  0  0  0  0  0  0  0  0  0
   -2.5783   -0.6531    0.0000 C   0  0  0  0  0  0  0  0  0  0  0  0
    0.4297    0.0172    0.0000 C   0  0  0  0  0  0  0  0  0  0  0  0
    0.0000    0.6876    0.0000 C   0  0  0  0  0  0  0  0  0  0  0  0
    0.0172   -0.6876    0.0000 C   0  0  0  0  0  0  0  0  0  0  0  0
   -3.3517    0.4125    0.0000 C   0  0  0  0  0  0  0  0  0  0  0  0
    1.2548   -0.0172    0.0000 C   0  0  0  0  0  0  0  0  0  0  0  0
    2.1142    0.0000    0.0000 C   0  0  0  0  0  0  0  0  0  0  0  0
    2.9392    0.0000    0.0000 C   0  0  0  0  0  0  0  0  0  0  0  0
    3.3861    0.6876    0.0000 C   0  0  0  0  0  0  0  0  0  0  0  0
  1  4  1  0  0  0  0
  1 11  1  0  0  0  0
  2  7  1  0  0  0  0
  2 11  2  0  0  0  0
  3  4  1  0  0  0  0
  3  5  2  0  0  0  0
  3  6  1  0  0  0  0
  4  7  2  0  0  0  0
  5  9  1  0  0  0  0
  6 10  2  0  0  0  0
  8  9  2  0  0  0  0
  8 10  1  0  0  0  0
  8 12  1  0  0  0  0
 12 13  3  0  0  0  0
 13 14  1  0  0  0  0
 14 15  1  0  0  0  0
M  END
> <PUBCHEM_COMPOUND_ID_TYPE>
0

> <PUBCHEM_TOTAL_CHARGE>
0

> <PUBCHEM_SUBSTANCE_ID>
310944910

> <PUBCHEM_SUBSTANCE_VERSION>
1

> <PUBCHEM_EXT_DATASOURCE_NAME>
4488

> <PUBCHEM_EXT_DATASOURCE_REGID>
SCHEMBL16122995

> <PUBCHEM_SUBSTANCE_COMMENT>
InChI=1S/C13H11NS/c1-2-3-4-11-5-7-12(8-6-11)13-9-14-10-15-13/h5-10H,2H2,1H3
InChIKey=MOKCVNFNDCUZKE-UHFFFAOYSA-N

> <PUBCHEM_SUBSTANCE_SYNONYM>
SCHEMBL16122995

> <PUBCHEM_XREF_EXT_ID>
SCHEMBL16122995

> <PUBCHEM_EXT_DATASOURCE_URL>
https://www.surechembl.org/

> <PUBCHEM_EXT_SUBSTANCE_URL>
https://www.surechembl.org/chemical/SCHEMBL16122995

> <PUBCHEM_CID_ASSOCIATIONS>
117611085  1

> <PUBCHEM_COORDINATE_TYPE>
1
3

$$$$
