310942870
  -OEChem-07211613022D

 55 60  0     1  0  0  0  0  0999 V2000
    3.5272    3.0391    0.0000 F   0  0  0  0  0  0  0  0  0  0  0  0
    2.3588   -3.6307    0.0000 F   0  0  0  0  0  0  0  0  0  0  0  0
    0.2293    2.6842    0.0000 F   0  0  0  0  0  0  0  0  0  0  0  0
    3.9856   -0.1700    0.0000 O   0  0  0  0  0  0  0  0  0  0  0  0
    1.8265    0.2440    0.0000 O   0  0  0  0  0  0  0  0  0  0  0  0
   -0.3179    0.6581    0.0000 O   0  0  0  0  0  0  0  0  0  0  0  0
    0.3919    1.9004    0.0000 O   0  0  0  0  0  0  0  0  0  0  0  0
   -6.2927    0.7468    0.0000 O   0  0  0  0  0  0  0  0  0  0  0  0
   -4.8286    3.2757    0.0000 O   0  0  0  0  0  0  0  0  0  0  0  0
   -3.2018    1.4863    0.0000 O   0  0  0  0  0  0  0  0  0  0  0  0
    2.5511   -0.9983    0.0000 N   0  0  0  0  0  0  0  0  0  0  0  0
    3.9412    0.7321    0.0000 N   0  0  0  0  0  0  0  0  0  0  0  0
    2.5955    0.7321    0.0000 N   0  0  0  0  0  0  0  0  0  0  0  0
    1.1018   -0.9983    0.0000 N   0  0  0  0  0  0  0  0  0  0  0  0
    0.5102   -2.5067    0.0000 N   0  0  0  0  0  0  0  0  0  0  0  0
   -5.3609    1.9004    0.0000 N   0  0  0  0  0  0  0  0  0  0  0  0
   -1.0426    1.9004    0.0000 N   0  0  0  0  0  0  0  0  0  0  0  0
    3.9856   -0.9983    0.0000 C   0  0  0  0  0  0  0  0  0  0  0  0
    3.2609   -0.5693    0.0000 C   0  0  3  0  0  0  0  0  0  0  0  0
    3.2758    0.2588    0.0000 C   0  0  0  0  0  0  0  0  0  0  0  0
    4.0004   -1.7969    0.0000 C   0  0  0  0  0  0  0  0  0  0  0  0
    4.6807   -1.3976    0.0000 C   0  0  0  0  0  0  0  0  0  0  0  0
    2.8616    1.5454    0.0000 C   0  0  0  0  0  0  0  0  0  0  0  0
    3.6898    1.5307    0.0000 C   0  0  0  0  0  0  0  0  0  0  0  0
    1.8265   -0.5990    0.0000 C   0  0  0  0  0  0  0  0  0  0  0  0
    2.5363   -1.8265    0.0000 C   0  0  0  0  0  0  0  0  0  0  0  0
    2.3440    2.2109    0.0000 C   0  0  0  0  0  0  0  0  0  0  0  0
    4.7398    0.4954    0.0000 C   0  0  0  0  0  0  0  0  0  0  0  0
    1.8412   -2.2258    0.0000 C   0  0  3  0  0  0  0  0  0  0  0  0
    2.6990    2.9651    0.0000 C   0  0  0  0  0  0  0  0  0  0  0  0
    5.3166    1.0722    0.0000 C   0  0  0  0  0  0  0  0  0  0  0  0
    1.5454    2.1222    0.0000 C   0  0  0  0  0  0  0  0  0  0  0  0
    1.7229   -3.0539    0.0000 C   0  0  3  0  0  0  0  0  0  0  0  0
    1.1018   -1.9300    0.0000 C   0  0  0  0  0  0  0  0  0  0  0  0
    1.0279    2.7877    0.0000 C   0  0  0  0  0  0  0  0  0  0  0  0
    2.2109    3.6307    0.0000 C   0  0  0  0  0  0  0  0  0  0  0  0
    0.3772   -0.5842    0.0000 C   0  0  3  0  0  0  0  0  0  0  0  0
    1.3828    3.5419    0.0000 C   0  0  0  0  0  0  0  0  0  0  0  0
    0.9243   -3.2314    0.0000 C   0  0  0  0  0  0  0  0  0  0  0  0
    6.1004    0.8800    0.0000 C   0  0  0  0  0  0  0  0  0  0  0  0
    5.1243    1.8560    0.0000 C   0  0  0  0  0  0  0  0  0  0  0  0
    0.3919    0.2440    0.0000 C   0  0  0  0  0  0  0  0  0  0  0  0
    6.6772    1.4419    0.0000 C   0  0  0  0  0  0  0  0  0  0  0  0
    5.6715    2.4328    0.0000 C   0  0  0  0  0  0  0  0  0  0  0  0
   -0.3179   -0.9983    0.0000 C   0  0  0  0  0  0  0  0  0  0  0  0
    6.4701    2.2258    0.0000 C   0  0  0  0  0  0  0  0  0  0  0  0
   -0.3475    1.4863    0.0000 C   0  0  0  0  0  0  0  0  0  0  0  0
   -6.1152    1.6046    0.0000 C   0  0  0  0  0  0  0  0  0  0  0  0
   -5.4645    2.7137    0.0000 C   0  0  0  0  0  0  0  0  0  0  0  0
   -6.6772    2.1814    0.0000 C   0  0  0  0  0  0  0  0  0  0  0  0
   -6.2631    2.9060    0.0000 C   0  0  0  0  0  0  0  0  0  0  0  0
   -4.6215    1.5011    0.0000 C   0  0  0  0  0  0  0  0  0  0  0  0
   -3.9265    1.9004    0.0000 C   0  0  0  0  0  0  0  0  0  0  0  0
   -1.7525    1.5011    0.0000 C   0  0  0  0  0  0  0  0  0  0  0  0
   -2.4919    1.9004    0.0000 C   0  0  0  0  0  0  0  0  0  0  0  0
  1 30  1  0  0  0  0
 33  2  1  1  0  0  0
  3 35  1  0  0  0  0
  4 18  1  0  0  0  0
  5 25  2  0  0  0  0
  6 42  1  0  0  0  0
  6 47  1  0  0  0  0
  7 47  2  0  0  0  0
  8 48  2  0  0  0  0
  9 49  2  0  0  0  0
 10 53  1  0  0  0  0
 10 55  1  0  0  0  0
 19 11  1  1  0  0  0
 11 25  1  0  0  0  0
 11 26  1  0  0  0  0
 12 20  1  0  0  0  0
 12 24  1  0  0  0  0
 12 28  1  0  0  0  0
 13 20  2  0  0  0  0
 13 23  1  0  0  0  0
 14 25  1  0  0  0  0
 14 37  1  0  0  0  0
 15 34  1  0  0  0  0
 15 39  1  0  0  0  0
 16 48  1  0  0  0  0
 16 49  1  0  0  0  0
 16 52  1  0  0  0  0
 17 47  1  0  0  0  0
 17 54  1  0  0  0  0
 18 19  1  0  0  0  0
 18 21  1  0  0  0  0
 18 22  1  0  0  0  0
 19 20  1  0  0  0  0
 21 22  1  0  0  0  0
 23 24  2  0  0  0  0
 23 27  1  0  0  0  0
 29 26  1  1  0  0  0
 27 30  1  0  0  0  0
 27 32  2  0  0  0  0
 28 31  1  0  0  0  0
 29 33  1  0  0  0  0
 29 34  1  0  0  0  0
 30 36  2  0  0  0  0
 31 40  2  0  0  0  0
 31 41  1  0  0  0  0
 32 35  1  0  0  0  0
 33 39  1  0  0  0  0
 35 38  2  0  0  0  0
 36 38  1  0  0  0  0
 37 42  1  0  0  0  0
 37 45  1  1  0  0  0
 40 43  1  0  0  0  0
 41 44  2  0  0  0  0
 43 46  2  0  0  0  0
 44 46  1  0  0  0  0
 48 50  1  0  0  0  0
 49 51  1  0  0  0  0
 50 51  2  0  0  0  0
 52 53  1  0  0  0  0
 54 55  1  0  0  0  0
M  END
> <PUBCHEM_COMPOUND_ID_TYPE>
0

> <PUBCHEM_TOTAL_CHARGE>
0

> <PUBCHEM_SUBSTANCE_ID>
310942870

> <PUBCHEM_SUBSTANCE_VERSION>
1

> <PUBCHEM_EXT_DATASOURCE_NAME>
4488

> <PUBCHEM_EXT_DATASOURCE_REGID>
SCHEMBL16120928

> <PUBCHEM_SUBSTANCE_COMMENT>
InChI=1S/C38H44F3N7O7/c1-24(23-55-37(52)43-13-15-54-16-14-47-32(49)9-10-33(47)50)44-36(51)48(21-26-18-42-19-30(26)41)34(38(53)11-12-38)35-45-31(28-17-27(39)7-8-29(28)40)22-46(35)20-25-5-3-2-4-6-25/h2-10,17,22,24,26,30,34,42,53H,11-16,18-21,23H2,1H3,(H,43,52)(H,44,51)/t24-,26-,30-,34-/m0/s1
InChIKey=SDMXQKDGYJJIEJ-JLQCPKICSA-N

> <PUBCHEM_SUBSTANCE_SYNONYM>
SCHEMBL16120928

> <PUBCHEM_XREF_EXT_ID>
SCHEMBL16120928

> <PUBCHEM_EXT_DATASOURCE_URL>
https://www.surechembl.org/

> <PUBCHEM_EXT_SUBSTANCE_URL>
https://www.surechembl.org/chemical/SCHEMBL16120928

> <PUBCHEM_CID_ASSOCIATIONS>
117609358  1

> <PUBCHEM_COORDINATE_TYPE>
1
3

> <PUBCHEM_BONDANNOTATIONS>
19  11  5
33  2  5
29  26  5
37  45  5

$$$$
