310930469
  -OEChem-07211613022D

 35 39  0     0  0  0  0  0  0999 V2000
    8.0388   -2.9580    0.0000 Cl  0  0  0  0  0  0  0  0  0  0  0  0
    6.3684   -2.9580    0.0000 S   0  0  0  0  0  0  0  0  0  0  0  0
    2.1924   -1.4616    0.0000 S   0  0  0  0  0  0  0  0  0  0  0  0
    7.1688   -2.5056    0.0000 O   0  0  0  0  0  0  0  0  0  0  0  0
    5.6724   -3.3408    0.0000 O   0  0  0  0  0  0  0  0  0  0  0  0
   10.4400   -4.4544    0.0000 O   0  0  0  0  0  0  0  0  0  0  0  0
    3.9324   -1.5312    0.0000 O   0  0  0  0  0  0  0  0  0  0  0  0
    8.8044   -4.4196    0.0000 N   0  0  0  0  0  0  0  0  0  0  0  0
    7.5864   -5.0808    0.0000 N   0  0  0  0  0  0  0  0  0  0  0  0
    3.9324   -0.1044    0.0000 N   0  0  0  0  0  0  0  0  0  0  0  0
    0.0000   -1.2528    0.0000 N   0  0  0  0  0  0  0  0  0  0  0  0
    6.7860   -3.6888    0.0000 C   0  0  0  0  0  0  0  0  0  0  0  0
    7.6212   -3.6540    0.0000 C   0  0  0  0  0  0  0  0  0  0  0  0
    5.9508   -2.2620    0.0000 C   0  0  0  0  0  0  0  0  0  0  0  0
    8.0040   -4.3848    0.0000 C   0  0  0  0  0  0  0  0  0  0  0  0
    6.3684   -4.3500    0.0000 C   0  0  0  0  0  0  0  0  0  0  0  0
    6.3684   -1.5312    0.0000 C   0  0  0  0  0  0  0  0  0  0  0  0
    5.1504   -2.2272    0.0000 C   0  0  0  0  0  0  0  0  0  0  0  0
    6.7513   -5.0808    0.0000 C   0  0  0  0  0  0  0  0  0  0  0  0
    2.6796   -0.8004    0.0000 C   0  0  0  0  0  0  0  0  0  0  0  0
    1.4268   -1.2528    0.0000 C   0  0  0  0  0  0  0  0  0  0  0  0
    1.4268   -0.3828    0.0000 C   0  0  0  0  0  0  0  0  0  0  0  0
    5.1504   -0.8004    0.0000 C   0  0  0  0  0  0  0  0  0  0  0  0
    5.9856   -0.8352    0.0000 C   0  0  0  0  0  0  0  0  0  0  0  0
    4.7328   -1.5312    0.0000 C   0  0  0  0  0  0  0  0  0  0  0  0
    2.1924   -0.1740    0.0000 C   0  0  0  0  0  0  0  0  0  0  0  0
    3.5148   -0.8004    0.0000 C   0  0  0  0  0  0  0  0  0  0  0  0
    9.2568   -3.7236    0.0000 C   0  0  0  0  0  0  0  0  0  0  0  0
    9.1873   -5.1156    0.0000 C   0  0  0  0  0  0  0  0  0  0  0  0
    4.7328   -0.1044    0.0000 C   0  0  0  0  0  0  0  0  0  0  0  0
    0.6960   -1.6356    0.0000 C   0  0  0  0  0  0  0  0  0  0  0  0
    0.6960    0.0000    0.0000 C   0  0  0  0  0  0  0  0  0  0  0  0
   10.0224   -5.1504    0.0000 C   0  0  0  0  0  0  0  0  0  0  0  0
   10.0572   -3.7584    0.0000 C   0  0  0  0  0  0  0  0  0  0  0  0
    0.0000   -0.3828    0.0000 C   0  0  0  0  0  0  0  0  0  0  0  0
  1 13  1  0  0  0  0
  2  4  2  0  0  0  0
  2  5  2  0  0  0  0
  2 12  1  0  0  0  0
  2 14  1  0  0  0  0
  3 20  1  0  0  0  0
  3 21  1  0  0  0  0
  6 33  1  0  0  0  0
  6 34  1  0  0  0  0
  7 27  2  0  0  0  0
  8 15  1  0  0  0  0
  8 28  1  0  0  0  0
  8 29  1  0  0  0  0
  9 15  1  0  0  0  0
  9 19  2  0  0  0  0
 10 27  1  0  0  0  0
 10 30  1  0  0  0  0
 11 31  1  0  0  0  0
 11 35  2  0  0  0  0
 12 13  1  0  0  0  0
 12 16  2  0  0  0  0
 13 15  2  0  0  0  0
 14 17  2  0  0  0  0
 14 18  1  0  0  0  0
 16 19  1  0  0  0  0
 17 24  1  0  0  0  0
 18 25  2  0  0  0  0
 20 26  2  0  0  0  0
 20 27  1  0  0  0  0
 21 22  1  0  0  0  0
 21 31  2  0  0  0  0
 22 26  1  0  0  0  0
 22 32  2  0  0  0  0
 23 24  2  0  0  0  0
 23 25  1  0  0  0  0
 23 30  1  0  0  0  0
 28 34  1  0  0  0  0
 29 33  1  0  0  0  0
 32 35  1  0  0  0  0
M  END
> <PUBCHEM_COMPOUND_ID_TYPE>
0

> <PUBCHEM_TOTAL_CHARGE>
0

> <PUBCHEM_SUBSTANCE_ID>
310930469

> <PUBCHEM_SUBSTANCE_VERSION>
1

> <PUBCHEM_EXT_DATASOURCE_NAME>
4488

> <PUBCHEM_EXT_DATASOURCE_REGID>
SCHEMBL16107759

> <PUBCHEM_SUBSTANCE_COMMENT>
InChI=1S/C24H21ClN4O4S2/c25-22-21(6-8-27-23(22)29-9-11-33-12-10-29)35(31,32)18-3-1-16(2-4-18)14-28-24(30)19-13-17-5-7-26-15-20(17)34-19/h1-8,13,15H,9-12,14H2,(H,28,30)
InChIKey=PCMMABSMEVXWFJ-UHFFFAOYSA-N

> <PUBCHEM_SUBSTANCE_SYNONYM>
SCHEMBL16107759

> <PUBCHEM_XREF_EXT_ID>
SCHEMBL16107759

> <PUBCHEM_EXT_DATASOURCE_URL>
https://www.surechembl.org/

> <PUBCHEM_EXT_SUBSTANCE_URL>
https://www.surechembl.org/chemical/SCHEMBL16107759

> <PUBCHEM_CID_ASSOCIATIONS>
117599589  1

> <PUBCHEM_COORDINATE_TYPE>
1
3

$$$$
