310941299
  -OEChem-07211613022D

 42 45  0     1  0  0  0  0  0999 V2000
    5.0973    0.6820    0.0000 O   0  0  0  0  0  0  0  0  0  0  0  0
    3.9583   -1.2866    0.0000 O   0  0  0  0  0  0  0  0  0  0  0  0
    1.8069    0.7804    0.0000 O   0  0  0  0  0  0  0  0  0  0  0  0
    1.0898   -2.9459    0.0000 O   0  0  0  0  0  0  0  0  0  0  0  0
   -0.3445   -1.2866    0.0000 O   0  0  0  0  0  0  0  0  0  0  0  0
    3.9583   -2.9459    0.0000 O   0  0  0  0  0  0  0  0  0  0  0  0
   -2.4960    0.7804    0.0000 O   0  0  0  0  0  0  0  0  0  0  0  0
   -5.3645    0.7804    0.0000 O   0  0  0  0  0  0  0  0  0  0  0  0
    2.5381   -0.4430    0.0000 N   0  0  0  0  0  0  0  0  0  0  0  0
    0.3726   -0.0211    0.0000 N   0  0  0  0  0  0  0  0  0  0  0  0
   -1.7788   -0.4430    0.0000 N   0  0  0  0  0  0  0  0  0  0  0  0
   -3.9302   -0.0211    0.0000 N   0  0  0  0  0  0  0  0  0  0  0  0
    4.6614   -0.0070    0.0000 C   0  0  3  0  0  0  0  0  0  0  0  0
    3.9443   -0.4289    0.0000 C   0  0  0  0  0  0  0  0  0  0  0  0
    4.2958    0.6820    0.0000 C   0  0  0  0  0  0  0  0  0  0  0  0
    3.2271   -0.0352    0.0000 C   0  0  3  0  0  0  0  0  0  0  0  0
    5.3645   -0.4148    0.0000 C   0  0  0  0  0  0  0  0  0  0  0  0
    3.2412    1.3007    0.0000 C   0  0  0  0  0  0  0  0  0  0  0  0
    1.7929   -0.0493    0.0000 C   0  0  0  0  0  0  0  0  0  0  0  0
    1.1179   -0.4289    0.0000 C   0  0  3  0  0  0  0  0  0  0  0  0
    2.5100    1.7225    0.0000 C   0  0  0  0  0  0  0  0  0  0  0  0
    1.0757   -1.2866    0.0000 C   0  0  0  0  0  0  0  0  0  0  0  0
    1.8210   -1.6804    0.0000 C   0  0  0  0  0  0  0  0  0  0  0  0
    1.8069   -2.5100    0.0000 C   0  0  0  0  0  0  0  0  0  0  0  0
   -0.3305   -0.4148    0.0000 C   0  0  0  0  0  0  0  0  0  0  0  0
    1.8210    1.3147    0.0000 C   0  0  0  0  0  0  0  0  0  0  0  0
    2.5240    2.5381    0.0000 C   0  0  0  0  0  0  0  0  0  0  0  0
    2.5100   -1.2866    0.0000 C   0  0  0  0  0  0  0  0  0  0  0  0
   -1.0757   -0.0352    0.0000 C   0  0  3  0  0  0  0  0  0  0  0  0
    2.5521   -2.9178    0.0000 C   0  0  0  0  0  0  0  0  0  0  0  0
    3.2271   -2.5100    0.0000 C   0  0  0  0  0  0  0  0  0  0  0  0
    3.2412   -1.6804    0.0000 C   0  0  0  0  0  0  0  0  0  0  0  0
    1.1038    1.7225    0.0000 C   0  0  0  0  0  0  0  0  0  0  0  0
    1.8069    2.9459    0.0000 C   0  0  0  0  0  0  0  0  0  0  0  0
   -2.5100   -0.0493    0.0000 C   0  0  0  0  0  0  0  0  0  0  0  0
    1.1038    2.5381    0.0000 C   0  0  0  0  0  0  0  0  0  0  0  0
   -1.0616    0.7945    0.0000 C   0  0  0  0  0  0  0  0  0  0  0  0
   -3.1850   -0.4289    0.0000 C   0  0  0  0  0  0  0  0  0  0  0  0
   -4.6614   -0.4289    0.0000 C   0  0  0  0  0  0  0  0  0  0  0  0
   -3.9302    0.8085    0.0000 C   0  0  0  0  0  0  0  0  0  0  0  0
   -5.3645   -0.0352    0.0000 C   0  0  0  0  0  0  0  0  0  0  0  0
   -4.6614    1.2163    0.0000 C   0  0  0  0  0  0  0  0  0  0  0  0
  1 13  1  0  0  0  0
  1 15  1  0  0  0  0
  2 14  2  0  0  0  0
  3 19  2  0  0  0  0
  4 24  1  0  0  0  0
  5 25  2  0  0  0  0
  6 31  1  0  0  0  0
  7 35  2  0  0  0  0
  8 41  1  0  0  0  0
  8 42  1  0  0  0  0
 16  9  1  1  0  0  0
  9 19  1  0  0  0  0
 20 10  1  6  0  0  0
 10 25  1  0  0  0  0
 11 29  1  0  0  0  0
 11 35  1  0  0  0  0
 12 38  1  0  0  0  0
 12 39  1  0  0  0  0
 12 40  1  0  0  0  0
 13 14  1  1  0  0  0
 13 15  1  0  0  0  0
 13 17  1  6  0  0  0
 14 16  1  0  0  0  0
 16 18  1  0  0  0  0
 18 21  1  0  0  0  0
 19 20  1  0  0  0  0
 20 22  1  0  0  0  0
 21 26  2  0  0  0  0
 21 27  1  0  0  0  0
 22 23  1  0  0  0  0
 23 24  1  0  0  0  0
 23 28  2  0  0  0  0
 24 30  2  0  0  0  0
 25 29  1  0  0  0  0
 26 33  1  0  0  0  0
 27 34  2  0  0  0  0
 28 32  1  0  0  0  0
 29 37  1  1  0  0  0
 30 31  1  0  0  0  0
 31 32  2  0  0  0  0
 33 36  2  0  0  0  0
 34 36  1  0  0  0  0
 35 38  1  0  0  0  0
 39 41  1  0  0  0  0
 40 42  1  0  0  0  0
M  END
> <PUBCHEM_COMPOUND_ID_TYPE>
0

> <PUBCHEM_TOTAL_CHARGE>
0

> <PUBCHEM_SUBSTANCE_ID>
310941299

> <PUBCHEM_SUBSTANCE_VERSION>
1

> <PUBCHEM_EXT_DATASOURCE_NAME>
4488

> <PUBCHEM_EXT_DATASOURCE_REGID>
SCHEMBL16119259

> <PUBCHEM_SUBSTANCE_COMMENT>
InChI=1S/C30H38N4O8/c1-19(31-26(37)17-34-10-12-41-13-11-34)28(39)33-24(15-21-8-9-22(35)16-25(21)36)29(40)32-23(27(38)30(2)18-42-30)14-20-6-4-3-5-7-20/h3-9,16,19,23-24,35-36H,10-15,17-18H2,1-2H3,(H,31,37)(H,32,40)(H,33,39)/t19-,23-,24-,30+/m0/s1
InChIKey=RREDUVXUSBKEBT-FFHGTZDOSA-N

> <PUBCHEM_SUBSTANCE_SYNONYM>
SCHEMBL16119259

> <PUBCHEM_XREF_EXT_ID>
SCHEMBL16119259

> <PUBCHEM_EXT_DATASOURCE_URL>
https://www.surechembl.org/

> <PUBCHEM_EXT_SUBSTANCE_URL>
https://www.surechembl.org/chemical/SCHEMBL16119259

> <PUBCHEM_CID_ASSOCIATIONS>
117608148  1

> <PUBCHEM_COORDINATE_TYPE>
1
3

> <PUBCHEM_BONDANNOTATIONS>
20  10  6
13  14  5
13  17  6
29  37  5
16  9  5

$$$$
