310938627
  -OEChem-07211613022D

 36 40  0     0  0  0  0  0  0999 V2000
   -4.1887   -5.1735    0.0000 Cl  0  0  0  0  0  0  0  0  0  0  0  0
    5.0993   -8.0609    0.0000 F   0  0  0  0  0  0  0  0  0  0  0  0
   -0.6163   -5.5860    0.0000 O   0  0  0  0  0  0  0  0  0  0  0  0
    0.0981   -6.8235    0.0000 O   0  0  0  0  0  0  0  0  0  0  0  0
   -4.1887   -7.6485    0.0000 O   0  0  0  0  0  0  0  0  0  0  0  0
    0.8126   -3.1110    0.0000 N   0  0  0  0  0  0  0  0  0  0  0  0
    0.0981   -4.3485    0.0000 N   0  0  0  0  0  0  0  0  0  0  0  0
    1.5270   -4.3485    0.0000 N   0  0  0  0  0  0  0  0  0  0  0  0
    1.5270   -6.8235    0.0000 N   0  0  0  0  0  0  0  0  0  0  0  0
    0.8215   -1.4611    0.0000 C   0  0  0  0  0  0  0  0  0  0  0  0
    1.2340   -0.7466    0.0000 C   0  0  0  0  0  0  0  0  0  0  0  0
    0.4090   -0.7466    0.0000 C   0  0  0  0  0  0  0  0  0  0  0  0
    1.5359   -1.8736    0.0000 C   0  0  0  0  0  0  0  0  0  0  0  0
    0.1071   -1.8736    0.0000 C   0  0  0  0  0  0  0  0  0  0  0  0
    0.8126   -3.9360    0.0000 C   0  0  0  0  0  0  0  0  0  0  0  0
    0.0981   -5.1735    0.0000 C   0  0  0  0  0  0  0  0  0  0  0  0
    1.5359   -2.6986    0.0000 C   0  0  0  0  0  0  0  0  0  0  0  0
    0.1071   -2.6986    0.0000 C   0  0  0  0  0  0  0  0  0  0  0  0
    0.8126   -5.5860    0.0000 C   0  0  0  0  0  0  0  0  0  0  0  0
    1.5270   -5.1735    0.0000 C   0  0  0  0  0  0  0  0  0  0  0  0
    0.8126   -6.4110    0.0000 C   0  0  0  0  0  0  0  0  0  0  0  0
   -1.3308   -5.1735    0.0000 C   0  0  0  0  0  0  0  0  0  0  0  0
   -2.0453   -5.5860    0.0000 C   0  0  0  0  0  0  0  0  0  0  0  0
   -3.4741   -5.5860    0.0000 C   0  0  0  0  0  0  0  0  0  0  0  0
   -2.7597   -5.1735    0.0000 C   0  0  0  0  0  0  0  0  0  0  0  0
   -3.4741   -6.4110    0.0000 C   0  0  0  0  0  0  0  0  0  0  0  0
   -2.0453   -6.4110    0.0000 C   0  0  0  0  0  0  0  0  0  0  0  0
    2.2415   -6.4110    0.0000 C   0  0  0  0  0  0  0  0  0  0  0  0
   -2.7597   -6.8235    0.0000 C   0  0  0  0  0  0  0  0  0  0  0  0
    2.9560   -6.8235    0.0000 C   0  0  0  0  0  0  0  0  0  0  0  0
   -4.1887   -6.8235    0.0000 C   0  0  0  0  0  0  0  0  0  0  0  0
    2.9560   -7.6485    0.0000 C   0  0  0  0  0  0  0  0  0  0  0  0
    3.6704   -6.4110    0.0000 C   0  0  0  0  0  0  0  0  0  0  0  0
    4.3848   -7.6485    0.0000 C   0  0  0  0  0  0  0  0  0  0  0  0
    3.6704   -8.0609    0.0000 C   0  0  0  0  0  0  0  0  0  0  0  0
    4.3848   -6.8235    0.0000 C   0  0  0  0  0  0  0  0  0  0  0  0
  1 24  1  0  0  0  0
  2 34  1  0  0  0  0
  3 16  1  0  0  0  0
  3 22  1  0  0  0  0
  4 21  2  0  0  0  0
  5 31  1  0  0  0  0
  6 15  1  0  0  0  0
  6 17  1  0  0  0  0
  6 18  1  0  0  0  0
  7 15  1  0  0  0  0
  7 16  2  0  0  0  0
  8 15  2  0  0  0  0
  8 20  1  0  0  0  0
  9 21  1  0  0  0  0
  9 28  1  0  0  0  0
 10 11  1  0  0  0  0
 10 12  1  0  0  0  0
 10 13  1  0  0  0  0
 10 14  1  0  0  0  0
 11 12  1  0  0  0  0
 13 17  1  0  0  0  0
 14 18  1  0  0  0  0
 16 19  1  0  0  0  0
 19 20  2  0  0  0  0
 19 21  1  0  0  0  0
 22 23  1  0  0  0  0
 23 25  2  0  0  0  0
 23 27  1  0  0  0  0
 24 25  1  0  0  0  0
 24 26  2  0  0  0  0
 26 29  1  0  0  0  0
 26 31  1  0  0  0  0
 27 29  2  0  0  0  0
 28 30  1  0  0  0  0
 30 32  2  0  0  0  0
 30 33  1  0  0  0  0
 32 35  1  0  0  0  0
 33 36  2  0  0  0  0
 34 35  2  0  0  0  0
 34 36  1  0  0  0  0
M  END
> <PUBCHEM_COMPOUND_ID_TYPE>
0

> <PUBCHEM_TOTAL_CHARGE>
0

> <PUBCHEM_SUBSTANCE_ID>
310938627

> <PUBCHEM_SUBSTANCE_VERSION>
1

> <PUBCHEM_EXT_DATASOURCE_NAME>
4488

> <PUBCHEM_EXT_DATASOURCE_REGID>
SCHEMBL16116541

> <PUBCHEM_SUBSTANCE_COMMENT>
InChI=1S/C27H28ClFN4O3/c28-23-13-19(1-4-20(23)16-34)17-36-25-22(24(35)30-14-18-2-5-21(29)6-3-18)15-31-26(32-25)33-11-9-27(7-8-27)10-12-33/h1-6,13,15,34H,7-12,14,16-17H2,(H,30,35)
InChIKey=NZXBXMZVWQEZMG-UHFFFAOYSA-N

> <PUBCHEM_SUBSTANCE_SYNONYM>
SCHEMBL16116541

> <PUBCHEM_XREF_EXT_ID>
SCHEMBL16116541

> <PUBCHEM_EXT_DATASOURCE_URL>
https://www.surechembl.org/

> <PUBCHEM_EXT_SUBSTANCE_URL>
https://www.surechembl.org/chemical/SCHEMBL16116541

> <PUBCHEM_CID_ASSOCIATIONS>
117606060  1

> <PUBCHEM_COORDINATE_TYPE>
1
3

$$$$
