310938883
  -OEChem-07211613022D

 16 16  0     1  0  0  0  0  0999 V2000
    2.1343    0.8131    0.0000 O   0  0  0  0  0  0  0  0  0  0  0  0
   -2.1197    0.8131    0.0000 O   0  0  0  0  0  0  0  0  0  0  0  0
   -0.6969    0.8131    0.0000 O   0  0  0  0  0  0  0  0  0  0  0  0
   -2.1197   -0.8131    0.0000 N   0  0  0  0  0  0  0  0  0  0  0  0
    0.0000   -0.4065    0.0000 C   0  0  0  0  0  0  0  0  0  0  0  0
   -1.4228   -0.4065    0.0000 C   0  0  3  0  0  0  0  0  0  0  0  0
   -0.6969   -0.8131    0.0000 C   0  0  0  0  0  0  0  0  0  0  0  0
    1.4374    0.4211    0.0000 C   0  0  0  0  0  0  0  0  0  0  0  0
    0.0290    0.4211    0.0000 C   0  0  0  0  0  0  0  0  0  0  0  0
    0.7259   -0.8131    0.0000 C   0  0  0  0  0  0  0  0  0  0  0  0
   -1.3938    0.4356    0.0000 C   0  0  0  0  0  0  0  0  0  0  0  0
    0.7115    0.8131    0.0000 C   0  0  0  0  0  0  0  0  0  0  0  0
    1.4228   -0.4065    0.0000 C   0  0  0  0  0  0  0  0  0  0  0  0
   -2.8312   -0.4356    0.0000 C   0  0  0  0  0  0  0  0  0  0  0  0
    2.8312    0.4211    0.0000 C   0  0  0  0  0  0  0  0  0  0  0  0
   -2.7732    0.0145    0.0000 C   0  0  0  0  0  0  0  0  0  0  0  0
  1  8  1  0  0  0  0
  1 15  1  0  0  0  0
  2 11  2  0  0  0  0
  3 11  1  0  0  0  0
  6  4  1  1  0  0  0
  4 14  1  0  0  0  0
  5  7  1  0  0  0  0
  5  9  2  0  0  0  0
  5 10  1  0  0  0  0
  6  7  1  0  0  0  0
  6 11  1  0  0  0  0
  8 12  2  0  0  0  0
  8 13  1  0  0  0  0
  9 12  1  0  0  0  0
 10 13  2  0  0  0  0
 14 16  1  0  0  0  0
M  END
> <PUBCHEM_COMPOUND_ID_TYPE>
0

> <PUBCHEM_TOTAL_CHARGE>
0

> <PUBCHEM_SUBSTANCE_ID>
310938883

> <PUBCHEM_SUBSTANCE_VERSION>
1

> <PUBCHEM_EXT_DATASOURCE_NAME>
4488

> <PUBCHEM_EXT_DATASOURCE_REGID>
SCHEMBL16116802

> <PUBCHEM_SUBSTANCE_COMMENT>
InChI=1S/C12H17NO3/c1-3-13-11(12(14)15)8-9-4-6-10(16-2)7-5-9/h4-7,11,13H,3,8H2,1-2H3,(H,14,15)/t11-/m1/s1
InChIKey=CBAKYNLHKYHJJO-LLVKDONJSA-N

> <PUBCHEM_SUBSTANCE_SYNONYM>
SCHEMBL16116802

> <PUBCHEM_XREF_EXT_ID>
SCHEMBL16116802

> <PUBCHEM_EXT_DATASOURCE_URL>
https://www.surechembl.org/

> <PUBCHEM_EXT_SUBSTANCE_URL>
https://www.surechembl.org/chemical/SCHEMBL16116802

> <PUBCHEM_CID_ASSOCIATIONS>
117606281  1

> <PUBCHEM_COORDINATE_TYPE>
1
3

> <PUBCHEM_BONDANNOTATIONS>
16  14  3
6  4  5

$$$$
