310936907
  -OEChem-07211613022D

 38 41  0     1  0  0  0  0  0999 V2000
    2.5420   -1.4134    0.0000 Br  0  0  0  0  0  0  0  0  0  0  0  0
   -0.7145   -2.0625    0.0000 F   0  0  0  0  0  0  0  0  0  0  0  0
    0.0000   -1.6500    0.0000 F   0  0  0  0  0  0  0  0  0  0  0  0
   -1.4290   -1.6500    0.0000 F   0  0  0  0  0  0  0  0  0  0  0  0
   -2.1434    2.0625    0.0000 F   0  0  0  0  0  0  0  0  0  0  0  0
   -2.8579    1.6500    0.0000 F   0  0  0  0  0  0  0  0  0  0  0  0
   -2.8579    0.8250    0.0000 F   0  0  0  0  0  0  0  0  0  0  0  0
    0.8007    2.0580    0.0000 O   0  0  0  0  0  0  0  0  0  0  0  0
    1.9433    2.9832    0.0000 O   0  0  0  0  0  0  0  0  0  0  0  0
    3.4750    3.5174    0.0000 O   0  0  0  0  0  0  0  0  0  0  0  0
    2.0202    1.5151    0.0000 N   0  0  0  0  0  0  0  0  0  0  0  0
    4.4817    1.2564    0.0000 N   0  0  0  0  0  0  0  0  0  0  0  0
    4.3323   -0.1648    0.0000 N   0  0  0  0  0  0  0  0  0  0  0  0
    0.7145    1.2375    0.0000 C   0  0  3  0  0  0  0  0  0  0  0  0
    0.0000    0.8250    0.0000 C   0  0  0  0  0  0  0  0  0  0  0  0
    1.4682    0.9020    0.0000 C   0  0  3  0  0  0  0  0  0  0  0  0
    1.6077    2.2295    0.0000 C   0  0  0  0  0  0  0  0  0  0  0  0
   -0.7145   -0.4125    0.0000 C   0  0  0  0  0  0  0  0  0  0  0  0
   -1.4290    0.8250    0.0000 C   0  0  0  0  0  0  0  0  0  0  0  0
   -0.7145    1.2375    0.0000 C   0  0  0  0  0  0  0  0  0  0  0  0
    0.0000    0.0000    0.0000 C   0  0  0  0  0  0  0  0  0  0  0  0
   -1.4290    0.0000    0.0000 C   0  0  0  0  0  0  0  0  0  0  0  0
    2.8407    1.4288    0.0000 C   0  0  0  0  0  0  0  0  0  0  0  0
   -0.7145   -1.2375    0.0000 C   0  0  0  0  0  0  0  0  0  0  0  0
   -2.1434    1.2375    0.0000 C   0  0  0  0  0  0  0  0  0  0  0  0
    3.1762    0.6752    0.0000 C   0  0  0  0  0  0  0  0  0  0  0  0
    3.9968    0.5889    0.0000 C   0  0  0  0  0  0  0  0  0  0  0  0
    1.6397    0.0950    0.0000 C   0  0  0  0  0  0  0  0  0  0  0  0
    2.6913    0.0077    0.0000 C   0  0  0  0  0  0  0  0  0  0  0  0
    3.0269   -0.7460    0.0000 C   0  0  0  0  0  0  0  0  0  0  0  0
    3.8474   -0.8323    0.0000 C   0  0  0  0  0  0  0  0  0  0  0  0
    4.1461    2.0100    0.0000 C   0  0  3  0  0  0  0  0  0  0  0  0
    4.6310    2.6775    0.0000 C   0  0  0  0  0  0  0  0  0  0  0  0
    3.3256    2.0963    0.0000 C   0  0  0  0  0  0  0  0  0  0  0  0
    4.2955    3.4312    0.0000 C   0  0  3  0  0  0  0  0  0  0  0  0
    2.9901    2.8499    0.0000 C   0  0  0  0  0  0  0  0  0  0  0  0
    4.7804    4.0986    0.0000 C   0  0  0  0  0  0  0  0  0  0  0  0
    4.4449    4.8523    0.0000 C   0  0  0  0  0  0  0  0  0  0  0  0
  1 30  1  0  0  0  0
  2 24  1  0  0  0  0
  3 24  1  0  0  0  0
  4 24  1  0  0  0  0
  5 25  1  0  0  0  0
  6 25  1  0  0  0  0
  7 25  1  0  0  0  0
 14  8  1  1  0  0  0
  8 17  1  0  0  0  0
  9 17  2  0  0  0  0
 10 35  1  0  0  0  0
 10 36  1  0  0  0  0
 11 16  1  0  0  0  0
 11 17  1  0  0  0  0
 11 23  1  0  0  0  0
 12 27  1  0  0  0  0
 12 32  1  0  0  0  0
 13 27  2  0  0  0  0
 13 31  1  0  0  0  0
 14 15  1  0  0  0  0
 14 16  1  0  0  0  0
 15 20  2  0  0  0  0
 15 21  1  0  0  0  0
 16 28  1  1  0  0  0
 18 21  2  0  0  0  0
 18 22  1  0  0  0  0
 18 24  1  0  0  0  0
 19 20  1  0  0  0  0
 19 22  2  0  0  0  0
 19 25  1  0  0  0  0
 23 26  1  0  0  0  0
 26 27  1  0  0  0  0
 26 29  2  0  0  0  0
 29 30  1  0  0  0  0
 30 31  2  0  0  0  0
 32 33  1  0  0  0  0
 32 34  1  0  0  0  0
 33 35  1  0  0  0  0
 34 36  1  0  0  0  0
 35 37  1  0  0  0  0
 37 38  1  0  0  0  0
M  END
> <PUBCHEM_COMPOUND_ID_TYPE>
0

> <PUBCHEM_TOTAL_CHARGE>
0

> <PUBCHEM_SUBSTANCE_ID>
310936907

> <PUBCHEM_SUBSTANCE_VERSION>
1

> <PUBCHEM_EXT_DATASOURCE_NAME>
4488

> <PUBCHEM_EXT_DATASOURCE_REGID>
SCHEMBL16114606

> <PUBCHEM_SUBSTANCE_COMMENT>
InChI=1S/C25H26BrF6N3O3/c1-3-20-10-19(4-5-37-20)34-22-15(8-18(26)11-33-22)12-35-13(2)21(38-23(35)36)14-6-16(24(27,28)29)9-17(7-14)25(30,31)32/h6-9,11,13,19-21H,3-5,10,12H2,1-2H3,(H,33,34)/t13-,19?,20?,21-/m0/s1
InChIKey=XGWLQWDWDOHMEL-DWEJAGOKSA-N

> <PUBCHEM_SUBSTANCE_SYNONYM>
SCHEMBL16114606

> <PUBCHEM_XREF_EXT_ID>
SCHEMBL16114606

> <PUBCHEM_EXT_DATASOURCE_URL>
https://www.surechembl.org/

> <PUBCHEM_EXT_SUBSTANCE_URL>
https://www.surechembl.org/chemical/SCHEMBL16114606

> <PUBCHEM_CID_ASSOCIATIONS>
85473148  1

> <PUBCHEM_COORDINATE_TYPE>
1
3

> <PUBCHEM_BONDANNOTATIONS>
16  28  5
14  8  5

$$$$
