310933271
  -OEChem-07211613022D

 22 24  0     0  0  0  0  0  0999 V2000
    2.6860   -4.5104    0.0000 F   0  0  0  0  0  0  0  0  0  0  0  0
    0.0000   -3.9783    0.0000 O   0  0  0  0  0  0  0  0  0  0  0  0
    1.9765   -0.8109    0.0000 O   0  0  0  0  0  0  0  0  0  0  0  0
    5.5240   -2.8634    0.0000 O   0  0  0  0  0  0  0  0  0  0  0  0
    3.3955   -0.8109    0.0000 O   0  0  0  0  0  0  0  0  0  0  0  0
    4.2063   -3.5222    0.0000 N   0  0  0  0  0  0  0  0  0  0  0  0
    4.2063   -2.2045    0.0000 N   0  0  0  0  0  0  0  0  0  0  0  0
    0.4054   -4.7131    0.0000 N   0  0  0  0  0  0  0  0  0  0  0  0
    3.4208   -3.2941    0.0000 C   0  0  0  0  0  0  0  0  0  0  0  0
    2.0018   -3.2941    0.0000 C   0  0  0  0  0  0  0  0  0  0  0  0
    3.4208   -2.4326    0.0000 C   0  0  0  0  0  0  0  0  0  0  0  0
    2.6860   -3.6742    0.0000 C   0  0  0  0  0  0  0  0  0  0  0  0
    2.6860   -2.0525    0.0000 C   0  0  0  0  0  0  0  0  0  0  0  0
    1.2923   -3.6996    0.0000 C   0  0  0  0  0  0  0  0  0  0  0  0
    2.0018   -2.4326    0.0000 C   0  0  0  0  0  0  0  0  0  0  0  0
    4.6878   -2.8634    0.0000 C   0  0  0  0  0  0  0  0  0  0  0  0
    0.5321   -3.3702    0.0000 C   0  0  0  0  0  0  0  0  0  0  0  0
    1.2163   -4.5104    0.0000 C   0  0  0  0  0  0  0  0  0  0  0  0
    2.6860   -1.2163    0.0000 C   0  0  0  0  0  0  0  0  0  0  0  0
    0.3548   -2.5847    0.0000 C   0  0  0  0  0  0  0  0  0  0  0  0
    1.8244   -5.0679    0.0000 C   0  0  0  0  0  0  0  0  0  0  0  0
    1.9765    0.0000    0.0000 C   0  0  0  0  0  0  0  0  0  0  0  0
  1 12  1  0  0  0  0
  2  8  1  0  0  0  0
  2 17  1  0  0  0  0
  3 19  1  0  0  0  0
  3 22  1  0  0  0  0
  4 16  2  0  0  0  0
  5 19  2  0  0  0  0
  6  9  1  0  0  0  0
  6 16  1  0  0  0  0
  7 11  1  0  0  0  0
  7 16  1  0  0  0  0
  8 18  2  0  0  0  0
  9 11  2  0  0  0  0
  9 12  1  0  0  0  0
 10 12  2  0  0  0  0
 10 14  1  0  0  0  0
 10 15  1  0  0  0  0
 11 13  1  0  0  0  0
 13 15  2  0  0  0  0
 13 19  1  0  0  0  0
 14 17  2  0  0  0  0
 14 18  1  0  0  0  0
 17 20  1  0  0  0  0
 18 21  1  0  0  0  0
M  END
> <PUBCHEM_COMPOUND_ID_TYPE>
0

> <PUBCHEM_TOTAL_CHARGE>
0

> <PUBCHEM_SUBSTANCE_ID>
310933271

> <PUBCHEM_SUBSTANCE_VERSION>
1

> <PUBCHEM_EXT_DATASOURCE_NAME>
4488

> <PUBCHEM_EXT_DATASOURCE_REGID>
SCHEMBL16110680

> <PUBCHEM_SUBSTANCE_COMMENT>
InChI=1S/C14H12FN3O4/c1-5-9(6(2)22-18-5)7-4-8(13(19)21-3)11-12(10(7)15)17-14(20)16-11/h4H,1-3H3,(H2,16,17,20)
InChIKey=QRUQXDJOFUVORV-UHFFFAOYSA-N

> <PUBCHEM_SUBSTANCE_SYNONYM>
SCHEMBL16110680

> <PUBCHEM_XREF_EXT_ID>
SCHEMBL16110680

> <PUBCHEM_EXT_DATASOURCE_URL>
https://www.surechembl.org/

> <PUBCHEM_EXT_SUBSTANCE_URL>
https://www.surechembl.org/chemical/SCHEMBL16110680

> <PUBCHEM_CID_ASSOCIATIONS>
117601700  1

> <PUBCHEM_COORDINATE_TYPE>
1
3

$$$$
