310931489
  -OEChem-07211613022D

 40 43  0     1  0  0  0  0  0999 V2000
   -0.7145    2.8876    0.0000 Cl  0  0  0  0  0  0  0  0  0  0  0  0
    0.7145   -1.2375    0.0000 S   0  0  0  0  0  0  0  0  0  0  0  0
    2.8972   -1.5731    0.0000 S   0  0  0  0  0  0  0  0  0  0  0  0
    0.7145    0.4125    0.0000 F   0  0  0  0  0  0  0  0  0  0  0  0
   -2.1435   -1.2375    0.0000 F   0  0  0  0  0  0  0  0  0  0  0  0
   -2.1435    0.4125    0.0000 O   0  0  0  0  0  0  0  0  0  0  0  0
    0.3020   -1.9520    0.0000 O   0  0  0  0  0  0  0  0  0  0  0  0
    1.1270   -0.5231    0.0000 O   0  0  0  0  0  0  0  0  0  0  0  0
   -6.4304    0.4125    0.0000 O   0  0  0  0  0  0  0  0  0  0  0  0
   -5.7159   -0.8250    0.0000 O   0  0  0  0  0  0  0  0  0  0  0  0
    1.4290   -1.6500    0.0000 N   0  0  0  0  0  0  0  0  0  0  0  0
    2.2297   -0.4170    0.0000 N   0  0  0  0  0  0  0  0  0  0  0  0
   -5.0014    0.4125    0.0000 N   0  0  0  0  0  0  0  0  0  0  0  0
    3.4492   -0.9600    0.0000 N   0  0  0  0  0  0  0  0  0  0  0  0
    0.0000   -0.8250    0.0000 C   0  0  0  0  0  0  0  0  0  0  0  0
    0.0000    0.0000    0.0000 C   0  0  0  0  0  0  0  0  0  0  0  0
   -1.4290    0.0000    0.0000 C   0  0  0  0  0  0  0  0  0  0  0  0
   -0.7145   -1.2375    0.0000 C   0  0  0  0  0  0  0  0  0  0  0  0
   -1.4290   -0.8250    0.0000 C   0  0  0  0  0  0  0  0  0  0  0  0
   -0.7145    0.4125    0.0000 C   0  0  0  0  0  0  0  0  0  0  0  0
    2.1435   -1.2375    0.0000 C   0  0  0  0  0  0  0  0  0  0  0  0
   -3.5724    0.4125    0.0000 C   0  0  3  0  0  0  0  0  0  0  0  0
   -3.5724    1.2375    0.0000 C   0  0  3  0  0  0  0  0  0  0  0  0
   -2.8579    0.0000    0.0000 C   0  0  0  0  0  0  0  0  0  0  0  0
   -2.8579    1.6500    0.0000 C   0  0  0  0  0  0  0  0  0  0  0  0
   -4.2869    0.0000    0.0000 C   0  0  0  0  0  0  0  0  0  0  0  0
   -4.2869    1.6500    0.0000 C   0  0  0  0  0  0  0  0  0  0  0  0
   -5.0014    1.2375    0.0000 C   0  0  0  0  0  0  0  0  0  0  0  0
   -5.7159    0.0000    0.0000 C   0  0  0  0  0  0  0  0  0  0  0  0
    3.0367   -0.2455    0.0000 C   0  0  0  0  0  0  0  0  0  0  0  0
   -2.1435    1.2375    0.0000 C   0  0  0  0  0  0  0  0  0  0  0  0
   -2.8579    2.4751    0.0000 C   0  0  0  0  0  0  0  0  0  0  0  0
    1.6166    0.1350    0.0000 C   0  0  0  0  0  0  0  0  0  0  0  0
   -7.1449    0.0000    0.0000 C   0  0  0  0  0  0  0  0  0  0  0  0
   -1.4290    1.6500    0.0000 C   0  0  0  0  0  0  0  0  0  0  0  0
   -2.1435    2.8876    0.0000 C   0  0  0  0  0  0  0  0  0  0  0  0
   -1.4290    2.4751    0.0000 C   0  0  0  0  0  0  0  0  0  0  0  0
   -7.1449   -0.8250    0.0000 C   0  0  0  0  0  0  0  0  0  0  0  0
   -7.8594   -0.4125    0.0000 C   0  0  0  0  0  0  0  0  0  0  0  0
   -7.8594    0.4125    0.0000 C   0  0  0  0  0  0  0  0  0  0  0  0
  1 37  1  0  0  0  0
  2  7  2  0  0  0  0
  2  8  2  0  0  0  0
  2 11  1  0  0  0  0
  2 15  1  0  0  0  0
  3 14  1  0  0  0  0
  3 21  1  0  0  0  0
  4 16  1  0  0  0  0
  5 19  1  0  0  0  0
  6 17  1  0  0  0  0
  6 24  1  0  0  0  0
  9 29  1  0  0  0  0
  9 34  1  0  0  0  0
 10 29  2  0  0  0  0
 11 21  2  0  0  0  0
 12 21  1  0  0  0  0
 12 30  1  0  0  0  0
 12 33  1  0  0  0  0
 13 26  1  0  0  0  0
 13 28  1  0  0  0  0
 13 29  1  0  0  0  0
 14 30  2  0  0  0  0
 15 16  2  0  0  0  0
 15 18  1  0  0  0  0
 16 20  1  0  0  0  0
 17 19  1  0  0  0  0
 17 20  2  0  0  0  0
 18 19  2  0  0  0  0
 22 23  1  0  0  0  0
 22 24  1  1  0  0  0
 22 26  1  0  0  0  0
 23 25  1  0  0  0  0
 23 27  1  6  0  0  0
 25 31  2  0  0  0  0
 25 32  1  0  0  0  0
 27 28  1  0  0  0  0
 31 35  1  0  0  0  0
 32 36  2  0  0  0  0
 34 38  1  0  0  0  0
 34 39  1  0  0  0  0
 34 40  1  0  0  0  0
 35 37  2  0  0  0  0
 36 37  1  0  0  0  0
M  END
> <PUBCHEM_COMPOUND_ID_TYPE>
0

> <PUBCHEM_TOTAL_CHARGE>
0

> <PUBCHEM_SUBSTANCE_ID>
310931489

> <PUBCHEM_SUBSTANCE_VERSION>
1

> <PUBCHEM_EXT_DATASOURCE_NAME>
4488

> <PUBCHEM_EXT_DATASOURCE_REGID>
SCHEMBL16108814

> <PUBCHEM_SUBSTANCE_COMMENT>
InChI=1S/C26H29ClF2N4O5S2/c1-26(2,3)38-25(34)33-10-9-19(16-5-7-18(27)8-6-16)17(13-33)14-37-22-11-21(29)23(12-20(22)28)40(35,36)31-24-32(4)15-30-39-24/h5-8,11-12,15,17,19H,9-10,13-14H2,1-4H3/b31-24+/t17-,19-/m1/s1
InChIKey=OQONJWZKBIXROV-RHOUJOHFSA-N

> <PUBCHEM_SUBSTANCE_SYNONYM>
SCHEMBL16108814

> <PUBCHEM_XREF_EXT_ID>
SCHEMBL16108814

> <PUBCHEM_EXT_DATASOURCE_URL>
https://www.surechembl.org/

> <PUBCHEM_EXT_SUBSTANCE_URL>
https://www.surechembl.org/chemical/SCHEMBL16108814

> <PUBCHEM_CID_ASSOCIATIONS>
117600254  1

> <PUBCHEM_COORDINATE_TYPE>
1
3

> <PUBCHEM_BONDANNOTATIONS>
22  24  5
23  27  6

$$$$
