310940590
  -OEChem-07211613022D

 36 40  0     0  0  0  0  0  0999 V2000
    0.0273    3.2701    0.0000 S   0  0  0  0  0  0  0  0  0  0  0  0
    2.3123   -0.8347    0.0000 O   0  0  0  0  0  0  0  0  0  0  0  0
   -1.8608   -0.9577    0.0000 O   0  0  0  0  0  0  0  0  0  0  0  0
    2.4081    0.6704    0.0000 O   0  0  0  0  0  0  0  0  0  0  0  0
   -3.1333   -2.8733    0.0000 O   0  0  0  0  0  0  0  0  0  0  0  0
    3.1333   -2.1892    0.0000 O   0  0  0  0  0  0  0  0  0  0  0  0
   -0.5746    2.7091    0.0000 O   0  0  0  0  0  0  0  0  0  0  0  0
    0.6567    3.8174    0.0000 O   0  0  0  0  0  0  0  0  0  0  0  0
    1.1903   -0.1505    0.0000 N   0  0  0  0  0  0  0  0  0  0  0  0
    1.0262   -2.6271    0.0000 N   0  0  0  0  0  0  0  0  0  0  0  0
   -2.7228   -3.5985    0.0000 N   0  0  0  0  0  0  0  0  0  0  0  0
    0.9852   -0.8894    0.0000 C   0  0  0  0  0  0  0  0  0  0  0  0
    0.2873   -1.2998    0.0000 C   0  0  0  0  0  0  0  0  0  0  0  0
    1.7103   -1.2998    0.0000 C   0  0  0  0  0  0  0  0  0  0  0  0
    0.2736   -2.1208    0.0000 C   0  0  0  0  0  0  0  0  0  0  0  0
    1.6829   -2.1345    0.0000 C   0  0  0  0  0  0  0  0  0  0  0  0
    1.9566   -0.0137    0.0000 C   0  0  0  0  0  0  0  0  0  0  0  0
   -1.1493   -2.1345    0.0000 C   0  0  0  0  0  0  0  0  0  0  0  0
   -0.4378   -0.9030    0.0000 C   0  0  0  0  0  0  0  0  0  0  0  0
   -1.1356   -1.2998    0.0000 C   0  0  0  0  0  0  0  0  0  0  0  0
   -0.4378   -2.5313    0.0000 C   0  0  0  0  0  0  0  0  0  0  0  0
   -1.8745   -2.5449    0.0000 C   0  0  0  0  0  0  0  0  0  0  0  0
    0.6157    0.5199    0.0000 C   0  0  0  0  0  0  0  0  0  0  0  0
   -2.6271   -2.1755    0.0000 C   0  0  0  0  0  0  0  0  0  0  0  0
   -1.9566   -3.3658    0.0000 C   0  0  0  0  0  0  0  0  0  0  0  0
    2.4355   -2.5313    0.0000 C   0  0  0  0  0  0  0  0  0  0  0  0
    0.8620    1.3272    0.0000 C   0  0  0  0  0  0  0  0  0  0  0  0
    0.3284    1.9155    0.0000 C   0  0  0  0  0  0  0  0  0  0  0  0
    0.5746    2.7091    0.0000 C   0  0  0  0  0  0  0  0  0  0  0  0
    1.6692    1.5051    0.0000 C   0  0  0  0  0  0  0  0  0  0  0  0
   -2.7775   -1.3819    0.0000 C   0  0  0  0  0  0  0  0  0  0  0  0
   -1.3272   -3.9132    0.0000 C   0  0  0  0  0  0  0  0  0  0  0  0
    1.3683    2.8733    0.0000 C   0  0  0  0  0  0  0  0  0  0  0  0
    1.9019    2.2850    0.0000 C   0  0  0  0  0  0  0  0  0  0  0  0
   -1.8745   -0.0547    0.0000 C   0  0  0  0  0  0  0  0  0  0  0  0
   -0.5336    3.9132    0.0000 C   0  0  0  0  0  0  0  0  0  0  0  0
  1  7  2  0  0  0  0
  1  8  2  0  0  0  0
  1 29  1  0  0  0  0
  1 36  1  0  0  0  0
  2 14  1  0  0  0  0
  2 17  1  0  0  0  0
  3 20  1  0  0  0  0
  3 35  1  0  0  0  0
  4 17  2  0  0  0  0
  5 11  1  0  0  0  0
  5 24  1  0  0  0  0
  6 26  1  0  0  0  0
  9 12  1  0  0  0  0
  9 17  1  0  0  0  0
  9 23  1  0  0  0  0
 10 15  2  0  0  0  0
 10 16  1  0  0  0  0
 11 25  2  0  0  0  0
 12 13  2  0  0  0  0
 12 14  1  0  0  0  0
 13 15  1  0  0  0  0
 13 19  1  0  0  0  0
 14 16  2  0  0  0  0
 15 21  1  0  0  0  0
 16 26  1  0  0  0  0
 18 20  1  0  0  0  0
 18 21  2  0  0  0  0
 18 22  1  0  0  0  0
 19 20  2  0  0  0  0
 22 24  2  0  0  0  0
 22 25  1  0  0  0  0
 23 27  1  0  0  0  0
 24 31  1  0  0  0  0
 25 32  1  0  0  0  0
 27 28  2  0  0  0  0
 27 30  1  0  0  0  0
 28 29  1  0  0  0  0
 29 33  2  0  0  0  0
 30 34  2  0  0  0  0
 33 34  1  0  0  0  0
M  END
> <PUBCHEM_COMPOUND_ID_TYPE>
0

> <PUBCHEM_TOTAL_CHARGE>
0

> <PUBCHEM_SUBSTANCE_ID>
310940590

> <PUBCHEM_SUBSTANCE_VERSION>
1

> <PUBCHEM_EXT_DATASOURCE_NAME>
4488

> <PUBCHEM_EXT_DATASOURCE_REGID>
SCHEMBL16118544

> <PUBCHEM_SUBSTANCE_COMMENT>
InChI=1S/C25H23N3O7S/c1-13-22(14(2)35-27-13)18-9-19-17(10-21(18)33-3)23-24(20(12-29)26-19)34-25(30)28(23)11-15-6-5-7-16(8-15)36(4,31)32/h5-10,29H,11-12H2,1-4H3
InChIKey=YVZXUQYUYURKAC-UHFFFAOYSA-N

> <PUBCHEM_SUBSTANCE_SYNONYM>
SCHEMBL16118544

> <PUBCHEM_XREF_EXT_ID>
SCHEMBL16118544

> <PUBCHEM_EXT_DATASOURCE_URL>
https://www.surechembl.org/

> <PUBCHEM_EXT_SUBSTANCE_URL>
https://www.surechembl.org/chemical/SCHEMBL16118544

> <PUBCHEM_CID_ASSOCIATIONS>
117607580  1

> <PUBCHEM_COORDINATE_TYPE>
1
3

$$$$
