310939812
  -OEChem-07211613022D

 25 26  0     1  0  0  0  0  0999 V2000
    2.5006    3.5062    0.0000 Cl  0  0  0  0  0  0  0  0  0  0  0  0
    1.0717    4.3312    0.0000 Cl  0  0  0  0  0  0  0  0  0  0  0  0
   -1.7862   -3.0938    0.0000 S   0  0  0  0  0  0  0  0  0  0  0  0
   -0.3572    1.8563    0.0000 O   0  0  0  0  0  0  0  0  0  0  0  0
    1.0717   -0.6187    0.0000 O   0  0  0  0  0  0  0  0  0  0  0  0
   -2.1987   -2.3793    0.0000 O   0  0  0  0  0  0  0  0  0  0  0  0
   -1.3737   -3.8082    0.0000 O   0  0  0  0  0  0  0  0  0  0  0  0
   -0.3572   -0.6187    0.0000 N   0  0  0  0  0  0  0  0  0  0  0  0
   -1.0717   -2.6812    0.0000 N   0  0  0  0  0  0  0  0  0  0  0  0
    1.0717    1.0313    0.0000 N   0  0  0  0  0  0  0  0  0  0  0  0
    1.0717    1.8563    0.0000 C   0  0  0  0  0  0  0  0  0  0  0  0
   -1.0717   -1.8563    0.0000 C   0  0  3  0  0  0  0  0  0  0  0  0
    0.3572    2.2687    0.0000 C   0  0  0  0  0  0  0  0  0  0  0  0
    1.7862    3.0938    0.0000 C   0  0  0  0  0  0  0  0  0  0  0  0
    0.3572   -0.2062    0.0000 C   0  0  0  0  0  0  0  0  0  0  0  0
    1.0717    3.5062    0.0000 C   0  0  0  0  0  0  0  0  0  0  0  0
   -0.3572   -1.4437    0.0000 C   0  0  0  0  0  0  0  0  0  0  0  0
    1.7862    2.2687    0.0000 C   0  0  0  0  0  0  0  0  0  0  0  0
    0.3572    3.0938    0.0000 C   0  0  0  0  0  0  0  0  0  0  0  0
    0.3572    0.6188    0.0000 C   0  0  0  0  0  0  0  0  0  0  0  0
   -1.0717   -0.2062    0.0000 C   0  0  0  0  0  0  0  0  0  0  0  0
   -1.7862   -1.4437    0.0000 C   0  0  0  0  0  0  0  0  0  0  0  0
   -1.7862   -0.6187    0.0000 C   0  0  0  0  0  0  0  0  0  0  0  0
   -2.5006   -3.5062    0.0000 C   0  0  0  0  0  0  0  0  0  0  0  0
   -2.5006   -4.3312    0.0000 C   0  0  0  0  0  0  0  0  0  0  0  0
  1 14  1  0  0  0  0
  2 16  1  0  0  0  0
  3  6  2  0  0  0  0
  3  7  2  0  0  0  0
  3  9  1  0  0  0  0
  3 24  1  0  0  0  0
  4 13  1  0  0  0  0
  5 15  2  0  0  0  0
  8 15  1  0  0  0  0
  8 17  1  0  0  0  0
  8 21  1  0  0  0  0
 12  9  1  1  0  0  0
 10 11  1  0  0  0  0
 10 20  1  0  0  0  0
 11 13  1  0  0  0  0
 11 18  2  0  0  0  0
 12 17  1  0  0  0  0
 12 22  1  0  0  0  0
 13 19  2  0  0  0  0
 14 16  2  0  0  0  0
 14 18  1  0  0  0  0
 15 20  1  0  0  0  0
 16 19  1  0  0  0  0
 21 23  1  0  0  0  0
 22 23  1  0  0  0  0
 24 25  2  0  0  0  0
M  END
> <PUBCHEM_COMPOUND_ID_TYPE>
0

> <PUBCHEM_TOTAL_CHARGE>
0

> <PUBCHEM_SUBSTANCE_ID>
310939812

> <PUBCHEM_SUBSTANCE_VERSION>
1

> <PUBCHEM_EXT_DATASOURCE_NAME>
4488

> <PUBCHEM_EXT_DATASOURCE_REGID>
SCHEMBL16117742

> <PUBCHEM_SUBSTANCE_COMMENT>
InChI=1S/C15H19Cl2N3O4S/c1-2-25(23,24)19-10-4-3-5-20(9-10)15(22)8-18-13-6-11(16)12(17)7-14(13)21/h2,6-7,10,18-19,21H,1,3-5,8-9H2/t10-/m0/s1
InChIKey=MMUFIIWZGLSKAH-JTQLQIEISA-N

> <PUBCHEM_SUBSTANCE_SYNONYM>
SCHEMBL16117742

> <PUBCHEM_XREF_EXT_ID>
SCHEMBL16117742

> <PUBCHEM_EXT_DATASOURCE_URL>
https://www.surechembl.org/

> <PUBCHEM_EXT_SUBSTANCE_URL>
https://www.surechembl.org/chemical/SCHEMBL16117742

> <PUBCHEM_CID_ASSOCIATIONS>
117607030  1

> <PUBCHEM_COORDINATE_TYPE>
1
3

> <PUBCHEM_BONDANNOTATIONS>
12  9  5

$$$$
