310943821
  -OEChem-07211613022D

 36 41  0     1  0  0  0  0  0999 V2000
    4.1291    2.4698    0.0000 O   0  0  0  0  0  0  0  0  0  0  0  0
    2.4198    0.1165    0.0000 O   0  0  0  0  0  0  0  0  0  0  0  0
    3.8628   -2.0479    0.0000 O   0  0  0  0  0  0  0  0  0  0  0  0
    5.2281   -2.4919    0.0000 O   0  0  0  0  0  0  0  0  0  0  0  0
   -0.3996    0.2720    0.0000 O   0  0  0  0  0  0  0  0  0  0  0  0
    3.8517    0.2831    0.0000 N   0  0  0  0  0  0  0  0  0  0  0  0
    0.8547    1.6706    0.0000 N   0  0  0  0  0  0  0  0  0  0  0  0
   -2.9859    1.6706    0.0000 N   0  0  0  0  0  0  0  0  0  0  0  0
   -4.1735    0.9935    0.0000 N   0  0  0  0  0  0  0  0  0  0  0  0
   -4.6509    1.7704    0.0000 N   0  0  0  0  0  0  0  0  0  0  0  0
   -5.5500    1.5484    0.0000 N   0  0  0  0  0  0  0  0  0  0  0  0
   -5.6055    0.6383    0.0000 N   0  0  0  0  0  0  0  0  0  0  0  0
    3.0858    1.4152    0.0000 C   0  0  0  0  0  0  0  0  0  0  0  0
    3.0747    0.5939    0.0000 C   0  0  0  0  0  0  0  0  0  0  0  0
    3.8517    1.6372    0.0000 C   0  0  3  0  0  0  0  0  0  0  0  0
    2.4975    2.0923    0.0000 C   0  0  0  0  0  0  0  0  0  0  0  0
    2.3754    1.5263    0.0000 C   0  0  0  0  0  0  0  0  0  0  0  0
    1.4541    0.9824    0.0000 C   0  0  3  0  0  0  0  0  0  0  0  0
    1.6428    1.5707    0.0000 C   0  0  3  0  0  0  0  0  0  0  0  0
    4.3623    0.9491    0.0000 C   0  0  0  0  0  0  0  0  0  0  0  0
    4.0626   -0.7271    0.0000 C   0  0  0  0  0  0  0  0  0  0  0  0
    1.3653    0.0721    0.0000 C   0  0  0  0  0  0  0  0  0  0  0  0
    1.7205    0.7271    0.0000 C   0  0  0  0  0  0  0  0  0  0  0  0
    4.7952   -1.1044    0.0000 C   0  0  0  0  0  0  0  0  0  0  0  0
   -0.2886    1.6816    0.0000 C   0  0  0  0  0  0  0  0  0  0  0  0
    3.5076   -1.3375    0.0000 C   0  0  0  0  0  0  0  0  0  0  0  0
    4.6398   -1.8926    0.0000 C   0  0  0  0  0  0  0  0  0  0  0  0
   -0.8214    1.0045    0.0000 C   0  0  3  0  0  0  0  0  0  0  0  0
   -1.8537    1.0156    0.0000 C   0  0  0  0  0  0  0  0  0  0  0  0
    5.0505    2.4919    0.0000 C   0  0  0  0  0  0  0  0  0  0  0  0
    5.6055   -0.6937    0.0000 C   0  0  0  0  0  0  0  0  0  0  0  0
   -2.2089    1.6706    0.0000 C   0  0  0  0  0  0  0  0  0  0  0  0
   -2.2089    0.3385    0.0000 C   0  0  0  0  0  0  0  0  0  0  0  0
   -3.3855    0.9935    0.0000 C   0  0  0  0  0  0  0  0  0  0  0  0
   -2.9859    0.3385    0.0000 C   0  0  0  0  0  0  0  0  0  0  0  0
   -4.7619    0.3052    0.0000 C   0  0  0  0  0  0  0  0  0  0  0  0
  1 15  1  0  0  0  0
  1 30  1  0  0  0  0
  2 14  2  0  0  0  0
  3 26  1  0  0  0  0
  3 27  1  0  0  0  0
  4 27  2  0  0  0  0
 28  5  1  6  0  0  0
  6 14  1  0  0  0  0
  6 20  1  0  0  0  0
  6 21  1  0  0  0  0
  7 18  1  0  0  0  0
  7 19  1  0  0  0  0
  7 25  1  0  0  0  0
  8 32  1  0  0  0  0
  8 34  2  0  0  0  0
  9 10  1  0  0  0  0
  9 34  1  0  0  0  0
  9 36  1  0  0  0  0
 10 11  2  0  0  0  0
 11 12  1  0  0  0  0
 12 36  2  0  0  0  0
 13 14  1  0  0  0  0
 13 15  1  0  0  0  0
 13 16  1  0  0  0  0
 13 17  1  0  0  0  0
 15 20  1  0  0  0  0
 16 19  1  0  0  0  0
 17 18  1  0  0  0  0
 18 22  1  0  0  0  0
 19 23  1  0  0  0  0
 21 24  2  0  0  0  0
 21 26  1  0  0  0  0
 22 23  1  0  0  0  0
 24 27  1  0  0  0  0
 24 31  1  0  0  0  0
 25 28  1  0  0  0  0
 28 29  1  0  0  0  0
 29 32  2  0  0  0  0
 29 33  1  0  0  0  0
 33 35  2  0  0  0  0
 34 35  1  0  0  0  0
M  END
> <PUBCHEM_COMPOUND_ID_TYPE>
0

> <PUBCHEM_TOTAL_CHARGE>
0

> <PUBCHEM_SUBSTANCE_ID>
310943821

> <PUBCHEM_SUBSTANCE_VERSION>
1

> <PUBCHEM_EXT_DATASOURCE_NAME>
4488

> <PUBCHEM_EXT_DATASOURCE_REGID>
SCHEMBL16121892

> <PUBCHEM_SUBSTANCE_COMMENT>
InChI=1S/C24H29N7O5/c1-14-18(12-36-22(14)33)30-11-20(35-2)24(23(30)34)7-16-4-5-17(8-24)29(16)10-19(32)15-3-6-21(25-9-15)31-13-26-27-28-31/h3,6,9,13,16-17,19-20,32H,4-5,7-8,10-12H2,1-2H3/t16?,17?,19-,20?,24?/m0/s1
InChIKey=YHIVCXQZRHPPIA-BHHHPPITSA-N

> <PUBCHEM_SUBSTANCE_SYNONYM>
SCHEMBL16121892

> <PUBCHEM_XREF_EXT_ID>
SCHEMBL16121892

> <PUBCHEM_EXT_DATASOURCE_URL>
https://www.surechembl.org/

> <PUBCHEM_EXT_SUBSTANCE_URL>
https://www.surechembl.org/chemical/SCHEMBL16121892

> <PUBCHEM_CID_ASSOCIATIONS>
117610166  1

> <PUBCHEM_COORDINATE_TYPE>
1
3

> <PUBCHEM_BONDANNOTATIONS>
28  5  6

$$$$
