310940551
  -OEChem-07211613022D

 15 16  0     1  0  0  0  0  0999 V2000
    1.1709   -1.5298    0.0000 O   0  0  0  0  0  0  0  0  0  0  0  0
    1.2563   -0.0598    0.0000 O   0  0  0  0  0  0  0  0  0  0  0  0
   -0.8632   -2.0939    0.0000 O   0  0  0  0  0  0  0  0  0  0  0  0
    0.0256   -0.8461    0.0000 N   0  0  0  0  0  0  0  0  0  0  0  0
   -0.5726   -0.2820    0.0000 C   0  0  3  0  0  0  0  0  0  0  0  0
    0.7948   -0.7948    0.0000 C   0  0  0  0  0  0  0  0  0  0  0  0
   -0.1624   -1.6666    0.0000 C   0  0  0  0  0  0  0  0  0  0  0  0
   -0.3675    0.5384    0.0000 C   0  0  0  0  0  0  0  0  0  0  0  0
    0.5384   -2.1109    0.0000 C   0  0  0  0  0  0  0  0  0  0  0  0
   -0.9145    1.0854    0.0000 C   0  0  0  0  0  0  0  0  0  0  0  0
    0.4359    0.7606    0.0000 C   0  0  0  0  0  0  0  0  0  0  0  0
   -1.2563   -0.4701    0.0000 C   0  0  0  0  0  0  0  0  0  0  0  0
   -0.7265    1.8887    0.0000 C   0  0  0  0  0  0  0  0  0  0  0  0
    0.6581    1.5469    0.0000 C   0  0  0  0  0  0  0  0  0  0  0  0
    0.0940    2.1109    0.0000 C   0  0  0  0  0  0  0  0  0  0  0  0
  1  6  1  0  0  0  0
  1  9  1  0  0  0  0
  2  6  2  0  0  0  0
  3  7  2  0  0  0  0
  4  5  1  0  0  0  0
  4  6  1  0  0  0  0
  4  7  1  0  0  0  0
  5  8  1  0  0  0  0
  5 12  1  6  0  0  0
  7  9  1  0  0  0  0
  8 10  2  0  0  0  0
  8 11  1  0  0  0  0
 10 13  1  0  0  0  0
 11 14  2  0  0  0  0
 13 15  2  0  0  0  0
 14 15  1  0  0  0  0
M  END
> <PUBCHEM_COMPOUND_ID_TYPE>
0

> <PUBCHEM_TOTAL_CHARGE>
0

> <PUBCHEM_SUBSTANCE_ID>
310940551

> <PUBCHEM_SUBSTANCE_VERSION>
1

> <PUBCHEM_EXT_DATASOURCE_NAME>
4488

> <PUBCHEM_EXT_DATASOURCE_REGID>
SCHEMBL16118505

> <PUBCHEM_SUBSTANCE_COMMENT>
InChI=1S/C11H11NO3/c1-8(9-5-3-2-4-6-9)12-10(13)7-15-11(12)14/h2-6,8H,7H2,1H3/t8-/m1/s1
InChIKey=OBWCRFQZWIKNJM-MRVPVSSYSA-N

> <PUBCHEM_SUBSTANCE_SYNONYM>
SCHEMBL16118505

> <PUBCHEM_XREF_EXT_ID>
SCHEMBL16118505

> <PUBCHEM_EXT_DATASOURCE_URL>
https://www.surechembl.org/

> <PUBCHEM_EXT_SUBSTANCE_URL>
https://www.surechembl.org/chemical/SCHEMBL16118505

> <PUBCHEM_CID_ASSOCIATIONS>
117607550  1

> <PUBCHEM_COORDINATE_TYPE>
1
3

> <PUBCHEM_BONDANNOTATIONS>
5  12  6

$$$$
