310943966
  -OEChem-07211613022D

 16 16  0     0  0  0  0  0  0999 V2000
    0.0246    1.8253    0.0000 F   0  0  0  0  0  0  0  0  0  0  0  0
   -1.4504    1.0140    0.0000 O   0  0  0  0  0  0  0  0  0  0  0  0
    2.1756    1.3828    0.0000 N   0  0  0  0  0  0  0  0  0  0  0  0
    0.0000   -2.2555    0.0000 N   0  0  0  0  0  0  0  0  0  0  0  0
   -0.7129    0.6207    0.0000 C   0  0  0  0  0  0  0  0  0  0  0  0
    0.0000    1.0263    0.0000 C   0  0  0  0  0  0  0  0  0  0  0  0
    0.7498    0.6207    0.0000 C   0  0  0  0  0  0  0  0  0  0  0  0
    0.0123   -0.6085    0.0000 C   0  0  0  0  0  0  0  0  0  0  0  0
   -0.7006   -0.1905    0.0000 C   0  0  0  0  0  0  0  0  0  0  0  0
    0.7375   -0.1782    0.0000 C   0  0  0  0  0  0  0  0  0  0  0  0
   -1.4504    1.8498    0.0000 C   0  0  0  0  0  0  0  0  0  0  0  0
    1.4627    1.0140    0.0000 C   0  0  0  0  0  0  0  0  0  0  0  0
    0.0000   -1.4442    0.0000 C   0  0  0  0  0  0  0  0  0  0  0  0
   -0.7129    2.2555    0.0000 C   0  0  0  0  0  0  0  0  0  0  0  0
   -2.1756    2.2432    0.0000 C   0  0  0  0  0  0  0  0  0  0  0  0
   -2.0281    1.2722    0.0000 C   0  0  0  0  0  0  0  0  0  0  0  0
  1  6  1  0  0  0  0
  2  5  1  0  0  0  0
  2 11  1  0  0  0  0
  3 12  3  0  0  0  0
  4 13  3  0  0  0  0
  5  6  1  0  0  0  0
  5  9  2  0  0  0  0
  6  7  2  0  0  0  0
  7 10  1  0  0  0  0
  7 12  1  0  0  0  0
  8  9  1  0  0  0  0
  8 10  2  0  0  0  0
  8 13  1  0  0  0  0
 11 14  1  0  0  0  0
 11 15  1  0  0  0  0
 11 16  1  0  0  0  0
M  END
> <PUBCHEM_COMPOUND_ID_TYPE>
0

> <PUBCHEM_TOTAL_CHARGE>
0

> <PUBCHEM_SUBSTANCE_ID>
310943966

> <PUBCHEM_SUBSTANCE_VERSION>
1

> <PUBCHEM_EXT_DATASOURCE_NAME>
4488

> <PUBCHEM_EXT_DATASOURCE_REGID>
SCHEMBL16122037

> <PUBCHEM_SUBSTANCE_COMMENT>
InChI=1S/C12H11FN2O/c1-12(2,3)16-10-5-8(6-14)4-9(7-15)11(10)13/h4-5H,1-3H3
InChIKey=VHZKIDGFJIFIOF-UHFFFAOYSA-N

> <PUBCHEM_SUBSTANCE_SYNONYM>
SCHEMBL16122037

> <PUBCHEM_XREF_EXT_ID>
SCHEMBL16122037

> <PUBCHEM_EXT_DATASOURCE_URL>
https://www.surechembl.org/

> <PUBCHEM_EXT_SUBSTANCE_URL>
https://www.surechembl.org/chemical/SCHEMBL16122037

> <PUBCHEM_CID_ASSOCIATIONS>
117610273  1

> <PUBCHEM_COORDINATE_TYPE>
1
3

$$$$
