310943081
  -OEChem-07211613022D

 29 32  0     1  0  0  0  0  0999 V2000
   -0.4063   -3.3273    0.0000 S   0  0  3  0  0  0  0  0  0  0  0  0
   -2.0163   -2.9593    0.0000 F   0  0  0  0  0  0  0  0  0  0  0  0
   -1.5256   -0.7053    0.0000 O   0  0  0  0  0  0  0  0  0  0  0  0
    0.0383    3.7566    0.0000 O   0  0  0  0  0  0  0  0  0  0  0  0
    0.5290   -3.5113    0.0000 O   0  0  0  0  0  0  0  0  0  0  0  0
    0.0383    1.5793    0.0000 N   0  0  0  0  0  0  0  0  0  0  0  0
    0.5137    0.8893    0.0000 N   0  0  0  0  0  0  0  0  0  0  0  0
    0.2530   -0.5520    0.0000 N   0  0  0  0  0  0  0  0  0  0  0  0
   -2.2003    0.5367    0.0000 N   0  0  0  0  0  0  0  0  0  0  0  0
    2.2003    1.2726    0.0000 N   0  0  0  0  0  0  0  0  0  0  0  0
   -0.7743    0.5213    0.0000 C   0  0  0  0  0  0  0  0  0  0  0  0
   -0.7437    1.3493    0.0000 C   0  0  0  0  0  0  0  0  0  0  0  0
    0.0076    0.2300    0.0000 C   0  0  0  0  0  0  0  0  0  0  0  0
    0.3143    2.3613    0.0000 C   0  0  3  0  0  0  0  0  0  0  0  0
   -1.4950    0.1227    0.0000 C   0  0  0  0  0  0  0  0  0  0  0  0
   -1.4796    1.7633    0.0000 C   0  0  0  0  0  0  0  0  0  0  0  0
    1.1116    2.5146    0.0000 C   0  0  3  0  0  0  0  0  0  0  0  0
   -0.3143   -1.1499    0.0000 C   0  0  0  0  0  0  0  0  0  0  0  0
   -2.1696    1.3647    0.0000 C   0  0  0  0  0  0  0  0  0  0  0  0
   -0.2376    2.9900    0.0000 C   0  0  0  0  0  0  0  0  0  0  0  0
   -0.0843   -1.9320    0.0000 C   0  0  0  0  0  0  0  0  0  0  0  0
   -0.6516   -2.5453    0.0000 C   0  0  0  0  0  0  0  0  0  0  0  0
    1.3723    3.3119    0.0000 C   0  0  0  0  0  0  0  0  0  0  0  0
   -1.1270   -0.9660    0.0000 C   0  0  0  0  0  0  0  0  0  0  0  0
   -1.4490   -2.3306    0.0000 C   0  0  0  0  0  0  0  0  0  0  0  0
    1.6330    1.8860    0.0000 C   0  0  0  0  0  0  0  0  0  0  0  0
   -1.6636   -1.5486    0.0000 C   0  0  0  0  0  0  0  0  0  0  0  0
    0.8356    3.9099    0.0000 C   0  0  0  0  0  0  0  0  0  0  0  0
   -0.9737   -3.9099    0.0000 C   0  0  0  0  0  0  0  0  0  0  0  0
  1  5  2  0  0  0  0
  1 22  1  0  0  0  0
  1 29  1  0  0  0  0
  2 25  1  0  0  0  0
  3 15  2  0  0  0  0
  4 20  1  0  0  0  0
  4 28  1  0  0  0  0
  6  7  1  0  0  0  0
  6 12  1  0  0  0  0
 14  6  1  1  0  0  0
  7 13  2  0  0  0  0
  8 13  1  0  0  0  0
  8 18  1  0  0  0  0
  9 15  1  0  0  0  0
  9 19  1  0  0  0  0
 10 26  3  0  0  0  0
 11 12  2  0  0  0  0
 11 13  1  0  0  0  0
 11 15  1  0  0  0  0
 12 16  1  0  0  0  0
 14 17  1  0  0  0  0
 14 20  1  0  0  0  0
 16 19  2  0  0  0  0
 17 23  1  0  0  0  0
 17 26  1  6  0  0  0
 18 21  1  0  0  0  0
 18 24  2  0  0  0  0
 21 22  2  0  0  0  0
 22 25  1  0  0  0  0
 23 28  1  0  0  0  0
 24 27  1  0  0  0  0
 25 27  2  0  0  0  0
M  END
> <PUBCHEM_COMPOUND_ID_TYPE>
0

> <PUBCHEM_TOTAL_CHARGE>
0

> <PUBCHEM_SUBSTANCE_ID>
310943081

> <PUBCHEM_SUBSTANCE_VERSION>
1

> <PUBCHEM_EXT_DATASOURCE_NAME>
4488

> <PUBCHEM_EXT_DATASOURCE_REGID>
SCHEMBL16121140

> <PUBCHEM_SUBSTANCE_COMMENT>
InChI=1S/C19H18FN5O3S/c1-29(27)16-8-12(2-3-13(16)20)23-18-17-14(4-6-22-19(17)26)25(24-18)15-10-28-7-5-11(15)9-21/h2-4,6,8,11,15H,5,7,10H2,1H3,(H,22,26)(H,23,24)/t11-,15+,29?/m1/s1
InChIKey=XTMVJGRVZLDCNX-ZEIOZGIQSA-N

> <PUBCHEM_SUBSTANCE_SYNONYM>
SCHEMBL16121140

> <PUBCHEM_XREF_EXT_ID>
SCHEMBL16121140

> <PUBCHEM_EXT_DATASOURCE_URL>
https://www.surechembl.org/

> <PUBCHEM_EXT_SUBSTANCE_URL>
https://www.surechembl.org/chemical/SCHEMBL16121140

> <PUBCHEM_CID_ASSOCIATIONS>
117609516  1

> <PUBCHEM_COORDINATE_TYPE>
1
3

> <PUBCHEM_BONDANNOTATIONS>
17  26  6
14  6  5

$$$$
