310941827
  -OEChem-07211613022D

 15 16  0     1  0  0  0  0  0999 V2000
    1.4367    1.6566    0.0000 Br  0  0  0  0  0  0  0  0  0  0  0  0
    1.4091   -1.6566    0.0000 Cl  0  0  0  0  0  0  0  0  0  0  0  0
    0.0069    0.8317    0.0000 O   0  0  0  0  0  0  0  0  0  0  0  0
    2.1377   -0.4193    0.0000 N   0  0  0  0  0  0  0  0  0  0  0  0
   -1.4367   -0.8180    0.0000 N   0  0  0  0  0  0  0  0  0  0  0  0
    0.7218    0.4193    0.0000 C   0  0  0  0  0  0  0  0  0  0  0  0
    1.4091    0.8317    0.0000 C   0  0  0  0  0  0  0  0  0  0  0  0
    0.7080   -0.4056    0.0000 C   0  0  0  0  0  0  0  0  0  0  0  0
    1.4229   -0.8317    0.0000 C   0  0  0  0  0  0  0  0  0  0  0  0
   -0.7080    0.4193    0.0000 C   0  0  3  0  0  0  0  0  0  0  0  0
    2.1240    0.4056    0.0000 C   0  0  0  0  0  0  0  0  0  0  0  0
   -0.7218   -0.4056    0.0000 C   0  0  0  0  0  0  0  0  0  0  0  0
   -1.4504    0.8317    0.0000 C   0  0  0  0  0  0  0  0  0  0  0  0
   -2.1377    0.4193    0.0000 C   0  0  0  0  0  0  0  0  0  0  0  0
   -2.1377   -0.4056    0.0000 C   0  0  0  0  0  0  0  0  0  0  0  0
  1  7  1  0  0  0  0
  2  9  1  0  0  0  0
  3  6  1  0  0  0  0
 10  3  1  1  0  0  0
  4  9  2  0  0  0  0
  4 11  1  0  0  0  0
  5 12  1  0  0  0  0
  5 15  1  0  0  0  0
  6  7  1  0  0  0  0
  6  8  2  0  0  0  0
  7 11  2  0  0  0  0
  8  9  1  0  0  0  0
 10 12  1  0  0  0  0
 10 13  1  0  0  0  0
 13 14  1  0  0  0  0
 14 15  1  0  0  0  0
M  END
> <PUBCHEM_COMPOUND_ID_TYPE>
0

> <PUBCHEM_TOTAL_CHARGE>
0

> <PUBCHEM_SUBSTANCE_ID>
310941827

> <PUBCHEM_SUBSTANCE_VERSION>
1

> <PUBCHEM_EXT_DATASOURCE_NAME>
4488

> <PUBCHEM_EXT_DATASOURCE_REGID>
SCHEMBL16119859

> <PUBCHEM_SUBSTANCE_COMMENT>
InChI=1S/C10H12BrClN2O/c11-8-6-14-10(12)4-9(8)15-7-2-1-3-13-5-7/h4,6-7,13H,1-3,5H2/t7-/m1/s1
InChIKey=XRIBACIXPKXLSC-SSDOTTSWSA-N

> <PUBCHEM_SUBSTANCE_SYNONYM>
SCHEMBL16119859

> <PUBCHEM_XREF_EXT_ID>
SCHEMBL16119859

> <PUBCHEM_EXT_DATASOURCE_URL>
https://www.surechembl.org/

> <PUBCHEM_EXT_SUBSTANCE_URL>
https://www.surechembl.org/chemical/SCHEMBL16119859

> <PUBCHEM_CID_ASSOCIATIONS>
117608571  1

> <PUBCHEM_COORDINATE_TYPE>
1
3

> <PUBCHEM_BONDANNOTATIONS>
10  3  5

$$$$
