310943123
  -OEChem-07211613022D

 35 38  0     0  0  0  0  0  0999 V2000
   -2.8818   -0.0080    0.0000 O   0  0  0  0  0  0  0  0  0  0  0  0
    1.4450   -0.0242    0.0000 O   0  0  0  0  0  0  0  0  0  0  0  0
   -4.3187    2.4782    0.0000 O   0  0  0  0  0  0  0  0  0  0  0  0
    4.3187   -2.5105    0.0000 O   0  0  0  0  0  0  0  0  0  0  0  0
   -2.8818    1.6548    0.0000 N   0  0  0  0  0  0  0  0  0  0  0  0
   -1.4450   -0.0080    0.0000 N   0  0  0  0  0  0  0  0  0  0  0  0
    2.1553    1.2351    0.0000 N   0  0  0  0  0  0  0  0  0  0  0  0
    4.3187   -0.8476    0.0000 N   0  0  0  0  0  0  0  0  0  0  0  0
   -0.7022    1.2351    0.0000 C   0  0  0  0  0  0  0  0  0  0  0  0
    0.0080    1.6548    0.0000 C   0  0  0  0  0  0  0  0  0  0  0  0
   -2.1553    1.2513    0.0000 C   0  0  0  0  0  0  0  0  0  0  0  0
   -2.1714    0.3955    0.0000 C   0  0  0  0  0  0  0  0  0  0  0  0
   -1.4288    1.6548    0.0000 C   0  0  0  0  0  0  0  0  0  0  0  0
    0.0080    2.4782    0.0000 C   0  0  0  0  0  0  0  0  0  0  0  0
    0.7508    1.2513    0.0000 C   0  0  0  0  0  0  0  0  0  0  0  0
    1.4288    1.6710    0.0000 C   0  0  0  0  0  0  0  0  0  0  0  0
   -0.7184    0.4117    0.0000 C   0  0  0  0  0  0  0  0  0  0  0  0
    2.8980   -0.0080    0.0000 C   0  0  0  0  0  0  0  0  0  0  0  0
    2.1714    0.4278    0.0000 C   0  0  0  0  0  0  0  0  0  0  0  0
    3.6083   -1.2513    0.0000 C   0  0  0  0  0  0  0  0  0  0  0  0
    0.7346    2.8818    0.0000 C   0  0  0  0  0  0  0  0  0  0  0  0
    1.4288    2.4782    0.0000 C   0  0  0  0  0  0  0  0  0  0  0  0
    3.5921   -2.1068    0.0000 C   0  0  0  0  0  0  0  0  0  0  0  0
    2.8980   -0.8476    0.0000 C   0  0  0  0  0  0  0  0  0  0  0  0
   -2.8818    2.4782    0.0000 C   0  0  0  0  0  0  0  0  0  0  0  0
   -3.6083    1.2351    0.0000 C   0  0  0  0  0  0  0  0  0  0  0  0
    3.5921    0.3955    0.0000 C   0  0  0  0  0  0  0  0  0  0  0  0
   -0.7184    2.8656    0.0000 C   0  0  0  0  0  0  0  0  0  0  0  0
    4.3187   -0.0080    0.0000 C   0  0  0  0  0  0  0  0  0  0  0  0
   -3.5921    2.8980    0.0000 C   0  0  0  0  0  0  0  0  0  0  0  0
   -4.3025    1.6387    0.0000 C   0  0  0  0  0  0  0  0  0  0  0  0
   -3.6083    0.3955    0.0000 C   0  0  0  0  0  0  0  0  0  0  0  0
    2.8818   -2.5105    0.0000 C   0  0  0  0  0  0  0  0  0  0  0  0
    3.3984   -2.8980    0.0000 C   0  0  0  0  0  0  0  0  0  0  0  0
   -4.3025   -0.0242    0.0000 C   0  0  0  0  0  0  0  0  0  0  0  0
  1 12  1  0  0  0  0
  1 32  1  0  0  0  0
  2 19  2  0  0  0  0
  3 30  1  0  0  0  0
  3 31  1  0  0  0  0
  4 23  1  0  0  0  0
  5 11  1  0  0  0  0
  5 25  1  0  0  0  0
  5 26  1  0  0  0  0
  6 12  2  0  0  0  0
  6 17  1  0  0  0  0
  7 16  1  0  0  0  0
  7 19  1  0  0  0  0
  8 20  2  0  0  0  0
  8 29  1  0  0  0  0
  9 10  1  0  0  0  0
  9 13  1  0  0  0  0
  9 17  2  0  0  0  0
 10 14  2  0  0  0  0
 10 15  1  0  0  0  0
 11 12  1  0  0  0  0
 11 13  2  0  0  0  0
 14 21  1  0  0  0  0
 14 28  1  0  0  0  0
 15 16  2  0  0  0  0
 16 22  1  0  0  0  0
 18 19  1  0  0  0  0
 18 24  2  0  0  0  0
 18 27  1  0  0  0  0
 20 23  1  0  0  0  0
 20 24  1  0  0  0  0
 21 22  2  0  0  0  0
 23 33  1  0  0  0  0
 23 34  1  0  0  0  0
 25 30  1  0  0  0  0
 26 31  1  0  0  0  0
 27 29  2  0  0  0  0
 32 35  1  0  0  0  0
M  END
> <PUBCHEM_COMPOUND_ID_TYPE>
0

> <PUBCHEM_TOTAL_CHARGE>
0

> <PUBCHEM_SUBSTANCE_ID>
310943123

> <PUBCHEM_SUBSTANCE_VERSION>
1

> <PUBCHEM_EXT_DATASOURCE_NAME>
4488

> <PUBCHEM_EXT_DATASOURCE_REGID>
SCHEMBL16121183

> <PUBCHEM_SUBSTANCE_COMMENT>
InChI=1S/C27H32N4O4/c1-5-35-26-23(31-10-12-34-13-11-31)14-20(17-29-26)22-16-21(7-6-18(22)2)30-25(32)19-8-9-28-24(15-19)27(3,4)33/h6-9,14-17,33H,5,10-13H2,1-4H3,(H,30,32)
InChIKey=SBIWEVAYLVTCSL-UHFFFAOYSA-N

> <PUBCHEM_SUBSTANCE_SYNONYM>
SCHEMBL16121183

> <PUBCHEM_XREF_EXT_ID>
SCHEMBL16121183

> <PUBCHEM_EXT_DATASOURCE_URL>
https://www.surechembl.org/

> <PUBCHEM_EXT_SUBSTANCE_URL>
https://www.surechembl.org/chemical/SCHEMBL16121183

> <PUBCHEM_CID_ASSOCIATIONS>
117609553  1

> <PUBCHEM_COORDINATE_TYPE>
1
3

$$$$
