310948041
  -OEChem-07211613022D

 48 52  0     0  0  0  0  0  0999 V2000
    3.7259   -2.6959    0.0000 S   0  0  0  0  0  0  0  0  0  0  0  0
   -2.6613   -3.2212    0.0000 F   0  0  0  0  0  0  0  0  0  0  0  0
   -3.8365   -3.2212    0.0000 F   0  0  0  0  0  0  0  0  0  0  0  0
    3.7259    0.1797    0.0000 F   0  0  0  0  0  0  0  0  0  0  0  0
    3.6567    3.3871    0.0000 F   0  0  0  0  0  0  0  0  0  0  0  0
    2.5783    2.8756    0.0000 F   0  0  0  0  0  0  0  0  0  0  0  0
    4.1129    2.3087    0.0000 F   0  0  0  0  0  0  0  0  0  0  0  0
   -4.3065   -2.7236    0.0000 O   0  0  0  0  0  0  0  0  0  0  0  0
    3.0208   -3.0968    0.0000 O   0  0  0  0  0  0  0  0  0  0  0  0
    4.4585   -2.2673    0.0000 O   0  0  0  0  0  0  0  0  0  0  0  0
    3.0760    1.8249    0.0000 O   0  0  0  0  0  0  0  0  0  0  0  0
    4.9701   -0.5392    0.0000 O   0  0  0  0  0  0  0  0  0  0  0  0
   -0.5323    0.3732    0.0000 N   0  0  0  0  0  0  0  0  0  0  0  0
   -2.0254   -0.8848    0.0000 N   0  0  0  0  0  0  0  0  0  0  0  0
   -2.7720   -1.2443    0.0000 N   0  0  0  0  0  0  0  0  0  0  0  0
   -1.3203    0.4700    0.0000 N   0  0  0  0  0  0  0  0  0  0  0  0
   -1.4999    1.2719    0.0000 N   0  0  0  0  0  0  0  0  0  0  0  0
   -0.3940   -1.2580    0.0000 C   0  0  0  0  0  0  0  0  0  0  0  0
    0.0069   -0.5392    0.0000 C   0  0  0  0  0  0  0  0  0  0  0  0
   -1.4447   -1.4239    0.0000 C   0  0  0  0  0  0  0  0  0  0  0  0
   -2.6613   -2.0323    0.0000 C   0  0  0  0  0  0  0  0  0  0  0  0
   -3.2420   -2.6267    0.0000 C   0  0  0  0  0  0  0  0  0  0  0  0
   -1.8456   -2.1982    0.0000 C   0  0  0  0  0  0  0  0  0  0  0  0
    1.2373   -1.2580    0.0000 C   0  0  0  0  0  0  0  0  0  0  0  0
    0.8226   -0.5531    0.0000 C   0  0  0  0  0  0  0  0  0  0  0  0
   -0.1451    1.1475    0.0000 C   0  0  0  0  0  0  0  0  0  0  0  0
   -3.8365   -2.0461    0.0000 C   0  0  0  0  0  0  0  0  0  0  0  0
    2.0807   -1.2580    0.0000 C   0  0  0  0  0  0  0  0  0  0  0  0
    0.0207   -1.9770    0.0000 C   0  0  0  0  0  0  0  0  0  0  0  0
    0.8364   -1.9770    0.0000 C   0  0  0  0  0  0  0  0  0  0  0  0
    3.3248   -1.9770    0.0000 C   0  0  0  0  0  0  0  0  0  0  0  0
    0.6567    1.3134    0.0000 C   0  0  0  0  0  0  0  0  0  0  0  0
    2.4954   -1.9631    0.0000 C   0  0  0  0  0  0  0  0  0  0  0  0
    3.7397   -1.2443    0.0000 C   0  0  0  0  0  0  0  0  0  0  0  0
    2.5092   -0.5531    0.0000 C   0  0  0  0  0  0  0  0  0  0  0  0
   -0.7950    1.6867    0.0000 C   0  0  0  0  0  0  0  0  0  0  0  0
    3.3248   -0.5253    0.0000 C   0  0  0  0  0  0  0  0  0  0  0  0
   -1.9009   -0.0691    0.0000 C   0  0  0  0  0  0  0  0  0  0  0  0
   -4.9701   -1.7005    0.0000 C   0  0  0  0  0  0  0  0  0  0  0  0
   -3.8365   -1.2304    0.0000 C   0  0  0  0  0  0  0  0  0  0  0  0
    1.1959    0.7051    0.0000 C   0  0  0  0  0  0  0  0  0  0  0  0
    0.9194    2.1014    0.0000 C   0  0  0  0  0  0  0  0  0  0  0  0
    4.5691   -1.2443    0.0000 C   0  0  0  0  0  0  0  0  0  0  0  0
    2.2742    1.6591    0.0000 C   0  0  0  0  0  0  0  0  0  0  0  0
    2.0115    0.8848    0.0000 C   0  0  0  0  0  0  0  0  0  0  0  0
    1.7212    2.2535    0.0000 C   0  0  0  0  0  0  0  0  0  0  0  0
    4.1405   -3.3871    0.0000 C   0  0  0  0  0  0  0  0  0  0  0  0
    3.3525    2.5852    0.0000 C   0  0  0  0  0  0  0  0  0  0  0  0
  1  9  2  0  0  0  0
  1 10  2  0  0  0  0
  1 31  1  0  0  0  0
  1 47  1  0  0  0  0
  2 22  1  0  0  0  0
  3 22  1  0  0  0  0
  4 37  1  0  0  0  0
  5 48  1  0  0  0  0
  6 48  1  0  0  0  0
  7 48  1  0  0  0  0
  8 27  1  0  0  0  0
 11 44  1  0  0  0  0
 11 48  1  0  0  0  0
 12 43  1  0  0  0  0
 13 16  1  0  0  0  0
 13 19  1  0  0  0  0
 13 26  1  0  0  0  0
 14 15  1  0  0  0  0
 14 20  1  0  0  0  0
 14 38  1  0  0  0  0
 15 21  2  0  0  0  0
 16 17  2  0  0  0  0
 17 36  1  0  0  0  0
 18 19  2  0  0  0  0
 18 20  1  0  0  0  0
 18 29  1  0  0  0  0
 19 25  1  0  0  0  0
 20 23  2  0  0  0  0
 21 22  1  0  0  0  0
 21 23  1  0  0  0  0
 22 27  1  0  0  0  0
 24 25  2  0  0  0  0
 24 28  1  0  0  0  0
 24 30  1  0  0  0  0
 26 32  1  0  0  0  0
 26 36  2  0  0  0  0
 27 39  1  0  0  0  0
 27 40  1  0  0  0  0
 28 33  1  0  0  0  0
 28 35  2  0  0  0  0
 29 30  2  0  0  0  0
 31 33  2  0  0  0  0
 31 34  1  0  0  0  0
 32 41  2  0  0  0  0
 32 42  1  0  0  0  0
 34 37  2  0  0  0  0
 34 43  1  0  0  0  0
 35 37  1  0  0  0  0
 41 45  1  0  0  0  0
 42 46  2  0  0  0  0
 44 45  2  0  0  0  0
 44 46  1  0  0  0  0
M  END
> <PUBCHEM_COMPOUND_ID_TYPE>
0

> <PUBCHEM_TOTAL_CHARGE>
0

> <PUBCHEM_SUBSTANCE_ID>
310948041

> <PUBCHEM_SUBSTANCE_VERSION>
1

> <PUBCHEM_EXT_DATASOURCE_NAME>
4488

> <PUBCHEM_EXT_DATASOURCE_REGID>
SCHEMBL16126216

> <PUBCHEM_SUBSTANCE_COMMENT>
InChI=1S/C31H27F6N5O5S/c1-29(2,44)30(33,34)28-14-24(41(3)39-28)21-10-7-18(19-11-23(32)22(16-43)27(13-19)48(4,45)46)12-25(21)42-26(15-38-40-42)17-5-8-20(9-6-17)47-31(35,36)37/h5-15,43-44H,16H2,1-4H3
InChIKey=VICQKGOABZJLJV-UHFFFAOYSA-N

> <PUBCHEM_SUBSTANCE_SYNONYM>
SCHEMBL16126216

> <PUBCHEM_XREF_EXT_ID>
SCHEMBL16126216

> <PUBCHEM_EXT_DATASOURCE_URL>
https://www.surechembl.org/

> <PUBCHEM_EXT_SUBSTANCE_URL>
https://www.surechembl.org/chemical/SCHEMBL16126216

> <PUBCHEM_CID_ASSOCIATIONS>
86275952  1

> <PUBCHEM_COORDINATE_TYPE>
1
3

$$$$
