310948591
  -OEChem-07211613022D

 32 34  0     1  0  0  0  0  0999 V2000
   -4.2045    0.0344    0.0000 O   0  0  0  0  0  0  0  0  0  0  0  0
   -2.9658   -0.5987    0.0000 O   0  0  0  0  0  0  0  0  0  0  0  0
   -0.1032    2.4704    0.0000 O   0  0  0  0  0  0  0  0  0  0  0  0
    0.6124   -0.4060    0.0000 N   0  0  0  0  0  0  0  0  0  0  0  0
    0.6124    1.2455    0.0000 N   0  0  0  0  0  0  0  0  0  0  0  0
    1.3281    2.4841    0.0000 N   0  0  0  0  0  0  0  0  0  0  0  0
   -2.2914    1.2593    0.0000 C   0  0  3  0  0  0  0  0  0  0  0  0
   -2.9658    0.8464    0.0000 C   0  0  3  0  0  0  0  0  0  0  0  0
   -1.5070    0.8189    0.0000 C   0  0  0  0  0  0  0  0  0  0  0  0
   -2.9658    1.6446    0.0000 C   0  0  0  0  0  0  0  0  0  0  0  0
   -0.1032    0.8464    0.0000 C   0  0  0  0  0  0  0  0  0  0  0  0
   -0.1170    0.0206    0.0000 C   0  0  0  0  0  0  0  0  0  0  0  0
   -0.8327    1.2318    0.0000 C   0  0  0  0  0  0  0  0  0  0  0  0
   -3.3924    0.1032    0.0000 C   0  0  0  0  0  0  0  0  0  0  0  0
   -1.5345    0.0069    0.0000 C   0  0  0  0  0  0  0  0  0  0  0  0
   -0.7913   -0.3922    0.0000 C   0  0  0  0  0  0  0  0  0  0  0  0
    0.6262    2.0713    0.0000 C   0  0  0  0  0  0  0  0  0  0  0  0
    0.5987   -1.2318    0.0000 C   0  0  0  0  0  0  0  0  0  0  0  0
    1.3143    0.0069    0.0000 C   0  0  0  0  0  0  0  0  0  0  0  0
   -0.1032   -1.6308    0.0000 C   0  0  0  0  0  0  0  0  0  0  0  0
    2.0437   -0.3922    0.0000 C   0  0  0  0  0  0  0  0  0  0  0  0
    2.0437    2.0713    0.0000 C   0  0  0  0  0  0  0  0  0  0  0  0
    2.0437    1.2455    0.0000 C   0  0  0  0  0  0  0  0  0  0  0  0
    2.7319    2.4704    0.0000 C   0  0  0  0  0  0  0  0  0  0  0  0
    3.4613    1.2593    0.0000 C   0  0  0  0  0  0  0  0  0  0  0  0
    2.7456    0.8464    0.0000 C   0  0  0  0  0  0  0  0  0  0  0  0
    3.4613    2.0713    0.0000 C   0  0  0  0  0  0  0  0  0  0  0  0
   -0.8327   -1.2455    0.0000 C   0  0  0  0  0  0  0  0  0  0  0  0
   -0.0895   -2.4841    0.0000 C   0  0  0  0  0  0  0  0  0  0  0  0
    2.7731   -0.0069    0.0000 C   0  0  0  0  0  0  0  0  0  0  0  0
    2.0575   -1.2455    0.0000 C   0  0  0  0  0  0  0  0  0  0  0  0
    4.2045    0.8464    0.0000 C   0  0  0  0  0  0  0  0  0  0  0  0
  1 14  2  0  0  0  0
  2 14  1  0  0  0  0
  3 17  2  0  0  0  0
  4 12  1  0  0  0  0
  4 18  1  0  0  0  0
  4 19  1  0  0  0  0
  5 11  1  0  0  0  0
  5 17  1  0  0  0  0
  6 17  1  0  0  0  0
  6 22  1  0  0  0  0
  7  8  1  0  0  0  0
  7  9  1  0  0  0  0
  7 10  1  1  0  0  0
  8 10  1  0  0  0  0
  8 14  1  1  0  0  0
  9 13  1  0  0  0  0
  9 15  2  0  0  0  0
 11 12  1  0  0  0  0
 11 13  2  0  0  0  0
 12 16  2  0  0  0  0
 15 16  1  0  0  0  0
 18 20  1  0  0  0  0
 19 21  1  0  0  0  0
 20 28  1  0  0  0  0
 20 29  1  0  0  0  0
 21 30  1  0  0  0  0
 21 31  1  0  0  0  0
 22 23  2  0  0  0  0
 22 24  1  0  0  0  0
 23 26  1  0  0  0  0
 24 27  2  0  0  0  0
 25 26  2  0  0  0  0
 25 27  1  0  0  0  0
 25 32  1  0  0  0  0
M  END
> <PUBCHEM_COMPOUND_ID_TYPE>
0

> <PUBCHEM_TOTAL_CHARGE>
0

> <PUBCHEM_SUBSTANCE_ID>
310948591

> <PUBCHEM_SUBSTANCE_VERSION>
1

> <PUBCHEM_EXT_DATASOURCE_NAME>
4488

> <PUBCHEM_EXT_DATASOURCE_REGID>
SCHEMBL16126774

> <PUBCHEM_SUBSTANCE_COMMENT>
InChI=1S/C26H35N3O3/c1-16(2)14-29(15-17(3)4)24-11-8-19(21-13-22(21)25(30)31)12-23(24)28-26(32)27-20-9-6-18(5)7-10-20/h6-12,16-17,21-22H,13-15H2,1-5H3,(H,30,31)(H2,27,28,32)/t21-,22-/m0/s1
InChIKey=VZYCPKLOYXSKAB-VXKWHMMOSA-N

> <PUBCHEM_SUBSTANCE_SYNONYM>
SCHEMBL16126774

> <PUBCHEM_XREF_EXT_ID>
SCHEMBL16126774

> <PUBCHEM_EXT_DATASOURCE_URL>
https://www.surechembl.org/

> <PUBCHEM_EXT_SUBSTANCE_URL>
https://www.surechembl.org/chemical/SCHEMBL16126774

> <PUBCHEM_CID_ASSOCIATIONS>
117614140  1

> <PUBCHEM_COORDINATE_TYPE>
1
3

> <PUBCHEM_BONDANNOTATIONS>
7  10  5
8  14  5

$$$$
