310933472
  -OEChem-07211613022D

 29 33  0     0  0  0  0  0  0999 V2000
    0.3351   -4.0736    0.0000 O   0  0  0  0  0  0  0  0  0  0  0  0
    5.9042   -2.9392    0.0000 O   0  0  0  0  0  0  0  0  0  0  0  0
    3.7127   -0.7993    0.0000 N   0  0  0  0  0  0  0  0  0  0  0  0
    4.5892   -2.2688    0.0000 N   0  0  0  0  0  0  0  0  0  0  0  0
    4.5892   -3.6095    0.0000 N   0  0  0  0  0  0  0  0  0  0  0  0
    3.4806    0.0000    0.0000 N   0  0  0  0  0  0  0  0  0  0  0  0
    0.7477   -4.7955    0.0000 N   0  0  0  0  0  0  0  0  0  0  0  0
    3.0681   -2.1141    0.0000 C   0  0  0  0  0  0  0  0  0  0  0  0
    3.7900   -2.5009    0.0000 C   0  0  0  0  0  0  0  0  0  0  0  0
    3.0681   -1.2891    0.0000 C   0  0  0  0  0  0  0  0  0  0  0  0
    3.7900   -3.3774    0.0000 C   0  0  0  0  0  0  0  0  0  0  0  0
    2.3719   -3.3774    0.0000 C   0  0  0  0  0  0  0  0  0  0  0  0
    2.3719   -0.7993    0.0000 C   0  0  0  0  0  0  0  0  0  0  0  0
    2.3719   -2.5009    0.0000 C   0  0  0  0  0  0  0  0  0  0  0  0
    1.6501   -3.7900    0.0000 C   0  0  0  0  0  0  0  0  0  0  0  0
    3.0681   -3.7642    0.0000 C   0  0  0  0  0  0  0  0  0  0  0  0
    5.0791   -2.9392    0.0000 C   0  0  0  0  0  0  0  0  0  0  0  0
    1.5985   -1.0571    0.0000 C   0  0  0  0  0  0  0  0  0  0  0  0
    0.9024   -3.4548    0.0000 C   0  0  0  0  0  0  0  0  0  0  0  0
    1.5727   -4.5892    0.0000 C   0  0  0  0  0  0  0  0  0  0  0  0
    2.6298   -0.0258    0.0000 C   0  0  0  0  0  0  0  0  0  0  0  0
    4.5119   -1.0571    0.0000 C   0  0  0  0  0  0  0  0  0  0  0  0
    1.4180   -1.8821    0.0000 C   0  0  0  0  0  0  0  0  0  0  0  0
    0.9797   -0.5156    0.0000 C   0  0  0  0  0  0  0  0  0  0  0  0
    0.7219   -2.6556    0.0000 C   0  0  0  0  0  0  0  0  0  0  0  0
    2.1915   -5.1565    0.0000 C   0  0  0  0  0  0  0  0  0  0  0  0
    0.6188   -2.1399    0.0000 C   0  0  0  0  0  0  0  0  0  0  0  0
    0.1805   -0.7735    0.0000 C   0  0  0  0  0  0  0  0  0  0  0  0
    0.0000   -1.5727    0.0000 C   0  0  0  0  0  0  0  0  0  0  0  0
  1  7  1  0  0  0  0
  1 19  1  0  0  0  0
  2 17  2  0  0  0  0
  3  6  1  0  0  0  0
  3 10  1  0  0  0  0
  3 22  1  0  0  0  0
  4  9  1  0  0  0  0
  4 17  1  0  0  0  0
  5 11  1  0  0  0  0
  5 17  1  0  0  0  0
  6 21  2  0  0  0  0
  7 20  2  0  0  0  0
  8  9  1  0  0  0  0
  8 10  1  0  0  0  0
  8 14  2  0  0  0  0
  9 11  2  0  0  0  0
 10 13  2  0  0  0  0
 11 16  1  0  0  0  0
 12 14  1  0  0  0  0
 12 15  1  0  0  0  0
 12 16  2  0  0  0  0
 13 18  1  0  0  0  0
 13 21  1  0  0  0  0
 15 19  2  0  0  0  0
 15 20  1  0  0  0  0
 18 23  2  0  0  0  0
 18 24  1  0  0  0  0
 19 25  1  0  0  0  0
 20 26  1  0  0  0  0
 23 27  1  0  0  0  0
 24 28  2  0  0  0  0
 27 29  2  0  0  0  0
 28 29  1  0  0  0  0
M  END
> <PUBCHEM_COMPOUND_ID_TYPE>
0

> <PUBCHEM_TOTAL_CHARGE>
0

> <PUBCHEM_SUBSTANCE_ID>
310933472

> <PUBCHEM_SUBSTANCE_VERSION>
1

> <PUBCHEM_EXT_DATASOURCE_NAME>
4488

> <PUBCHEM_EXT_DATASOURCE_REGID>
SCHEMBL16110890

> <PUBCHEM_SUBSTANCE_COMMENT>
InChI=1S/C22H19N5O2/c1-12-19(13(2)29-26-12)15-9-16(20-18(10-15)24-22(28)25-20)21-17(11-23-27(21)3)14-7-5-4-6-8-14/h4-11H,1-3H3,(H2,24,25,28)
InChIKey=BKHGKKXSNIAMIL-UHFFFAOYSA-N

> <PUBCHEM_SUBSTANCE_SYNONYM>
SCHEMBL16110890

> <PUBCHEM_XREF_EXT_ID>
SCHEMBL16110890

> <PUBCHEM_EXT_DATASOURCE_URL>
https://www.surechembl.org/

> <PUBCHEM_EXT_SUBSTANCE_URL>
https://www.surechembl.org/chemical/SCHEMBL16110890

> <PUBCHEM_CID_ASSOCIATIONS>
117601869  1

> <PUBCHEM_COORDINATE_TYPE>
1
3

$$$$
