310939984
  -OEChem-07211613022D

 12 12  0     0  0  0  0  0  0999 V2000
   -3.8970   11.3534    0.0000 Br  0  0  0  0  0  0  0  0  0  0  0  0
   -3.8970    9.7034    0.0000 Cl  0  0  0  0  0  0  0  0  0  0  0  0
   -1.0391    9.7034    0.0000 O   0  0  0  0  0  0  0  0  0  0  0  0
   -0.3247   10.9409    0.0000 O   0  0  0  0  0  0  0  0  0  0  0  0
   -1.7536   10.1159    0.0000 C   0  0  0  0  0  0  0  0  0  0  0  0
   -1.7536   10.9409    0.0000 C   0  0  0  0  0  0  0  0  0  0  0  0
   -3.1826   10.1159    0.0000 C   0  0  0  0  0  0  0  0  0  0  0  0
   -3.1826   10.9409    0.0000 C   0  0  0  0  0  0  0  0  0  0  0  0
   -2.4681    9.7034    0.0000 C   0  0  0  0  0  0  0  0  0  0  0  0
   -2.4681   11.3534    0.0000 C   0  0  0  0  0  0  0  0  0  0  0  0
   -1.0391   11.3534    0.0000 C   0  0  0  0  0  0  0  0  0  0  0  0
   -0.0865   10.2534    0.0000 C   0  0  0  0  0  0  0  0  0  0  0  0
  1  8  1  0  0  0  0
  2  7  1  0  0  0  0
  3  5  1  0  0  0  0
  3 12  1  0  0  0  0
  4 11  1  0  0  0  0
  5  6  1  0  0  0  0
  5  9  2  0  0  0  0
  6 10  2  0  0  0  0
  6 11  1  0  0  0  0
  7  8  2  0  0  0  0
  7  9  1  0  0  0  0
  8 10  1  0  0  0  0
M  END
> <PUBCHEM_COMPOUND_ID_TYPE>
0

> <PUBCHEM_TOTAL_CHARGE>
0

> <PUBCHEM_SUBSTANCE_ID>
310939984

> <PUBCHEM_SUBSTANCE_VERSION>
1

> <PUBCHEM_EXT_DATASOURCE_NAME>
4488

> <PUBCHEM_EXT_DATASOURCE_REGID>
SCHEMBL16117914

> <PUBCHEM_SUBSTANCE_COMMENT>
InChI=1S/C8H8BrClO2/c1-12-8-3-7(10)6(9)2-5(8)4-11/h2-3,11H,4H2,1H3
InChIKey=QQRZTJLPOLCGDU-UHFFFAOYSA-N

> <PUBCHEM_SUBSTANCE_SYNONYM>
SCHEMBL16117914

> <PUBCHEM_XREF_EXT_ID>
SCHEMBL16117914

> <PUBCHEM_EXT_DATASOURCE_URL>
https://www.surechembl.org/

> <PUBCHEM_EXT_SUBSTANCE_URL>
https://www.surechembl.org/chemical/SCHEMBL16117914

> <PUBCHEM_CID_ASSOCIATIONS>
117607150  1

> <PUBCHEM_COORDINATE_TYPE>
1
3

$$$$
