310935113
  -OEChem-07211613022D

 19 20  0     0  0  0  0  0  0999 V2000
    0.3461   -0.8515    0.0000 F   0  0  0  0  0  0  0  0  0  0  0  0
    2.8697   -2.4080    0.0000 O   0  0  0  0  0  0  0  0  0  0  0  0
    3.1178   -3.8152    0.0000 O   0  0  0  0  0  0  0  0  0  0  0  0
    0.1842   -5.2224    0.0000 O   0  0  0  0  0  0  0  0  0  0  0  0
    1.7751   -3.3265    0.0000 C   0  0  0  0  0  0  0  0  0  0  0  0
    1.7751   -2.5015    0.0000 C   0  0  0  0  0  0  0  0  0  0  0  0
    1.0606   -2.0890    0.0000 C   0  0  0  0  0  0  0  0  0  0  0  0
    2.5875   -3.1832    0.0000 C   0  0  0  0  0  0  0  0  0  0  0  0
    2.0572   -4.1017    0.0000 C   0  0  0  0  0  0  0  0  0  0  0  0
    0.9626   -3.1832    0.0000 C   0  0  0  0  0  0  0  0  0  0  0  0
    1.0606   -1.2640    0.0000 C   0  0  0  0  0  0  0  0  0  0  0  0
    2.4895   -2.0890    0.0000 C   0  0  0  0  0  0  0  0  0  0  0  0
    1.7751   -0.8515    0.0000 C   0  0  0  0  0  0  0  0  0  0  0  0
    2.4895   -1.2640    0.0000 C   0  0  0  0  0  0  0  0  0  0  0  0
    1.5269   -4.7337    0.0000 C   0  0  0  0  0  0  0  0  0  0  0  0
    0.4323   -3.8152    0.0000 C   0  0  0  0  0  0  0  0  0  0  0  0
    0.7145   -4.5904    0.0000 C   0  0  0  0  0  0  0  0  0  0  0  0
    0.3461   -2.5015    0.0000 C   0  0  0  0  0  0  0  0  0  0  0  0
    1.7751   -0.0265    0.0000 C   0  0  0  0  0  0  0  0  0  0  0  0
  1 11  1  0  0  0  0
  2  8  2  0  0  0  0
  3  8  1  0  0  0  0
  4 17  2  0  0  0  0
  5  6  1  0  0  0  0
  5  8  1  0  0  0  0
  5  9  1  0  0  0  0
  5 10  1  0  0  0  0
  6  7  2  0  0  0  0
  6 12  1  0  0  0  0
  7 11  1  0  0  0  0
  7 18  1  0  0  0  0
  9 15  1  0  0  0  0
 10 16  1  0  0  0  0
 11 13  2  0  0  0  0
 12 14  2  0  0  0  0
 13 14  1  0  0  0  0
 13 19  1  0  0  0  0
 15 17  1  0  0  0  0
 16 17  1  0  0  0  0
M  END
> <PUBCHEM_COMPOUND_ID_TYPE>
0

> <PUBCHEM_TOTAL_CHARGE>
0

> <PUBCHEM_SUBSTANCE_ID>
310935113

> <PUBCHEM_SUBSTANCE_VERSION>
1

> <PUBCHEM_EXT_DATASOURCE_NAME>
4488

> <PUBCHEM_EXT_DATASOURCE_REGID>
SCHEMBL16112640

> <PUBCHEM_SUBSTANCE_COMMENT>
InChI=1S/C15H17FO3/c1-9-3-4-12(10(2)13(9)16)15(14(18)19)7-5-11(17)6-8-15/h3-4H,5-8H2,1-2H3,(H,18,19)
InChIKey=UYHDMQFFWNRGJF-UHFFFAOYSA-N

> <PUBCHEM_SUBSTANCE_SYNONYM>
SCHEMBL16112640

> <PUBCHEM_XREF_EXT_ID>
SCHEMBL16112640

> <PUBCHEM_EXT_DATASOURCE_URL>
https://www.surechembl.org/

> <PUBCHEM_EXT_SUBSTANCE_URL>
https://www.surechembl.org/chemical/SCHEMBL16112640

> <PUBCHEM_CID_ASSOCIATIONS>
117603204  1

> <PUBCHEM_COORDINATE_TYPE>
1
3

$$$$
