310945754
  -OEChem-07211613022D

 28 31  0     1  0  0  0  0  0999 V2000
    1.4838    3.2029    0.0000 F   0  0  0  0  0  0  0  0  0  0  0  0
    1.7907    2.1387    0.0000 F   0  0  0  0  0  0  0  0  0  0  0  0
    0.7470    1.8522    0.0000 F   0  0  0  0  0  0  0  0  0  0  0  0
    1.7498   -2.9368    0.0000 O   0  0  0  0  0  0  0  0  0  0  0  0
    1.1154   -4.1239    0.0000 O   0  0  0  0  0  0  0  0  0  0  0  0
   -0.3377   -0.8494    0.0000 N   0  0  0  0  0  0  0  0  0  0  0  0
    0.3786   -2.0568    0.0000 N   0  0  0  0  0  0  0  0  0  0  0  0
   -1.0744   -2.0568    0.0000 N   0  0  0  0  0  0  0  0  0  0  0  0
    0.0716    0.4400    0.0000 C   0  0  3  0  0  0  0  0  0  0  0  0
   -0.7675    0.4400    0.0000 C   0  0  3  0  0  0  0  0  0  0  0  0
   -0.3377    1.7089    0.0000 C   0  0  0  0  0  0  0  0  0  0  0  0
   -0.3172    2.5480    0.0000 C   0  0  0  0  0  0  0  0  0  0  0  0
    0.3172    1.2177    0.0000 C   0  0  0  0  0  0  0  0  0  0  0  0
   -1.0131    1.1972    0.0000 C   0  0  0  0  0  0  0  0  0  0  0  0
    0.3172   -0.3581    0.0000 C   0  0  0  0  0  0  0  0  0  0  0  0
   -1.0131   -0.3377    0.0000 C   0  0  0  0  0  0  0  0  0  0  0  0
   -0.3581   -1.6475    0.0000 C   0  0  0  0  0  0  0  0  0  0  0  0
    0.3786    2.9573    0.0000 C   0  0  0  0  0  0  0  0  0  0  0  0
    1.0949    2.5276    0.0000 C   0  0  0  0  0  0  0  0  0  0  0  0
   -1.0540    2.9368    0.0000 C   0  0  0  0  0  0  0  0  0  0  0  0
    0.3786   -2.8754    0.0000 C   0  0  0  0  0  0  0  0  0  0  0  0
    0.3786    3.7145    0.0000 C   0  0  0  0  0  0  0  0  0  0  0  0
   -1.0744   -2.8754    0.0000 C   0  0  0  0  0  0  0  0  0  0  0  0
   -0.3377   -3.2848    0.0000 C   0  0  0  0  0  0  0  0  0  0  0  0
   -1.0540    3.7350    0.0000 C   0  0  0  0  0  0  0  0  0  0  0  0
   -0.3172    4.1239    0.0000 C   0  0  0  0  0  0  0  0  0  0  0  0
    1.0949   -3.3052    0.0000 C   0  0  0  0  0  0  0  0  0  0  0  0
   -1.7907   -3.3052    0.0000 C   0  0  0  0  0  0  0  0  0  0  0  0
  1 19  1  0  0  0  0
  2 19  1  0  0  0  0
  3 19  1  0  0  0  0
  4 27  2  0  0  0  0
  5 27  1  0  0  0  0
  6 15  1  0  0  0  0
  6 16  1  0  0  0  0
  6 17  1  0  0  0  0
  7 17  1  0  0  0  0
  7 21  2  0  0  0  0
  8 17  2  0  0  0  0
  8 23  1  0  0  0  0
  9 10  1  0  0  0  0
  9 13  1  1  0  0  0
  9 15  1  0  0  0  0
 10 14  1  0  0  0  0
 10 16  1  0  0  0  0
 11 12  1  0  0  0  0
 11 13  1  0  0  0  0
 11 14  1  1  0  0  0
 12 18  2  0  0  0  0
 12 20  1  0  0  0  0
 18 19  1  0  0  0  0
 18 22  1  0  0  0  0
 20 25  2  0  0  0  0
 21 24  1  0  0  0  0
 21 27  1  0  0  0  0
 22 26  2  0  0  0  0
 23 24  2  0  0  0  0
 23 28  1  0  0  0  0
 25 26  1  0  0  0  0
M  END
> <PUBCHEM_COMPOUND_ID_TYPE>
0

> <PUBCHEM_TOTAL_CHARGE>
0

> <PUBCHEM_SUBSTANCE_ID>
310945754

> <PUBCHEM_SUBSTANCE_VERSION>
1

> <PUBCHEM_EXT_DATASOURCE_NAME>
4488

> <PUBCHEM_EXT_DATASOURCE_REGID>
SCHEMBL16123858

> <PUBCHEM_SUBSTANCE_COMMENT>
InChI=1S/C20H20F3N3O2/c1-11-6-17(18(27)28)25-19(24-11)26-9-13-7-12(8-14(13)10-26)15-4-2-3-5-16(15)20(21,22)23/h2-6,12-14H,7-10H2,1H3,(H,27,28)/t12-,13-,14?/m0/s1
InChIKey=XODSGAMMDBEEFN-RFHHWMCGSA-N

> <PUBCHEM_SUBSTANCE_SYNONYM>
SCHEMBL16123858

> <PUBCHEM_XREF_EXT_ID>
SCHEMBL16123858

> <PUBCHEM_EXT_DATASOURCE_URL>
https://www.surechembl.org/

> <PUBCHEM_EXT_SUBSTANCE_URL>
https://www.surechembl.org/chemical/SCHEMBL16123858

> <PUBCHEM_CID_ASSOCIATIONS>
117611747  1

> <PUBCHEM_COORDINATE_TYPE>
1
3

> <PUBCHEM_BONDANNOTATIONS>
11  14  5
9  13  5

$$$$
