310948256
  -OEChem-07211613022D

 29 33  0     1  0  0  0  0  0999 V2000
   -2.4062    2.1037    0.0000 O   0  0  0  0  0  0  0  0  0  0  0  0
    0.1787    1.1274    0.0000 N   0  0  0  0  0  0  0  0  0  0  0  0
   -0.3850    0.5088    0.0000 N   0  0  0  0  0  0  0  0  0  0  0  0
   -1.9250    0.4813    0.0000 N   0  0  0  0  0  0  0  0  0  0  0  0
   -1.3474    3.0661    0.0000 N   0  0  0  0  0  0  0  0  0  0  0  0
   -0.4950   -2.8049    0.0000 N   0  0  0  0  0  0  0  0  0  0  0  0
    0.3575   -1.0449    0.0000 N   0  0  0  0  0  0  0  0  0  0  0  0
   -1.0449    1.6775    0.0000 C   0  0  0  0  0  0  0  0  0  0  0  0
   -0.2337    1.8287    0.0000 C   0  0  0  0  0  0  0  0  0  0  0  0
   -1.1411    0.8524    0.0000 C   0  0  0  0  0  0  0  0  0  0  0  0
    0.9899    1.0312    0.0000 C   0  0  3  0  0  0  0  0  0  0  0  0
   -1.5950    2.2825    0.0000 C   0  0  0  0  0  0  0  0  0  0  0  0
    0.0137    2.6261    0.0000 C   0  0  0  0  0  0  0  0  0  0  0  0
    1.3337    0.3025    0.0000 C   0  0  3  0  0  0  0  0  0  0  0  0
   -1.9250   -0.3438    0.0000 C   0  0  0  0  0  0  0  0  0  0  0  0
   -0.5225    3.2174    0.0000 C   0  0  0  0  0  0  0  0  0  0  0  0
    1.4849    1.6912    0.0000 C   0  0  0  0  0  0  0  0  0  0  0  0
   -1.2099   -0.7562    0.0000 C   0  0  0  0  0  0  0  0  0  0  0  0
   -1.2237   -1.5674    0.0000 C   0  0  0  0  0  0  0  0  0  0  0  0
    2.1450    0.2063    0.0000 C   0  0  0  0  0  0  0  0  0  0  0  0
   -1.9112   -1.9800    0.0000 C   0  0  0  0  0  0  0  0  0  0  0  0
   -2.6261   -0.7562    0.0000 C   0  0  0  0  0  0  0  0  0  0  0  0
    0.8524   -0.3713    0.0000 C   0  0  0  0  0  0  0  0  0  0  0  0
    2.2825    1.6225    0.0000 C   0  0  0  0  0  0  0  0  0  0  0  0
   -2.6261   -1.5812    0.0000 C   0  0  0  0  0  0  0  0  0  0  0  0
    2.6261    0.8662    0.0000 C   0  0  0  0  0  0  0  0  0  0  0  0
   -0.4950   -1.9937    0.0000 C   0  0  0  0  0  0  0  0  0  0  0  0
   -1.9250   -2.8049    0.0000 C   0  0  0  0  0  0  0  0  0  0  0  0
   -1.2099   -3.2174    0.0000 C   0  0  0  0  0  0  0  0  0  0  0  0
  1 12  2  0  0  0  0
  2  3  1  0  0  0  0
  2  9  1  0  0  0  0
 11  2  1  1  0  0  0
  3 10  2  0  0  0  0
  4 10  1  0  0  0  0
  4 15  1  0  0  0  0
  5 12  1  0  0  0  0
  5 16  1  0  0  0  0
  6 27  1  0  0  0  0
  6 29  1  0  0  0  0
  7 23  3  0  0  0  0
  8  9  2  0  0  0  0
  8 10  1  0  0  0  0
  8 12  1  0  0  0  0
  9 13  1  0  0  0  0
 11 14  1  0  0  0  0
 11 17  1  0  0  0  0
 13 16  2  0  0  0  0
 14 20  1  0  0  0  0
 14 23  1  6  0  0  0
 15 18  1  0  0  0  0
 15 22  2  0  0  0  0
 17 24  1  0  0  0  0
 18 19  2  0  0  0  0
 19 21  1  0  0  0  0
 19 27  1  0  0  0  0
 20 26  1  0  0  0  0
 21 25  2  0  0  0  0
 21 28  1  0  0  0  0
 22 25  1  0  0  0  0
 24 26  1  0  0  0  0
 28 29  1  0  0  0  0
M  END
> <PUBCHEM_COMPOUND_ID_TYPE>
0

> <PUBCHEM_TOTAL_CHARGE>
0

> <PUBCHEM_SUBSTANCE_ID>
310948256

> <PUBCHEM_SUBSTANCE_VERSION>
1

> <PUBCHEM_EXT_DATASOURCE_NAME>
4488

> <PUBCHEM_EXT_DATASOURCE_REGID>
SCHEMBL16126433

> <PUBCHEM_SUBSTANCE_COMMENT>
InChI=1S/C22H24N6O/c23-12-15-3-1-2-4-18(15)28-19-8-10-25-22(29)20(19)21(27-28)26-17-6-5-14-7-9-24-13-16(14)11-17/h5-6,8,10-11,15,18,24H,1-4,7,9,13H2,(H,25,29)(H,26,27)/t15-,18+/m1/s1
InChIKey=YHJPSPBVQOCRNV-QAPCUYQASA-N

> <PUBCHEM_SUBSTANCE_SYNONYM>
SCHEMBL16126433

> <PUBCHEM_XREF_EXT_ID>
SCHEMBL16126433

> <PUBCHEM_EXT_DATASOURCE_URL>
https://www.surechembl.org/

> <PUBCHEM_EXT_SUBSTANCE_URL>
https://www.surechembl.org/chemical/SCHEMBL16126433

> <PUBCHEM_CID_ASSOCIATIONS>
117613836  1

> <PUBCHEM_COORDINATE_TYPE>
1
3

> <PUBCHEM_BONDANNOTATIONS>
14  23  6
11  2  5

$$$$
