310940934
  -OEChem-07211613022D

 31 31  0     1  0  0  0  0  0999 V2000
   -1.2188   -2.6031    0.0000 O   0  0  0  0  0  0  0  0  0  0  0  0
   -1.8016   -1.6210    0.0000 O   0  0  0  0  0  0  0  0  0  0  0  0
   -1.8016    0.8827    0.0000 O   0  0  0  0  0  0  0  0  0  0  0  0
   -1.7157   -3.4203    0.0000 O   0  0  0  0  0  0  0  0  0  0  0  0
    0.3637    0.4767    0.0000 O   0  0  0  0  0  0  0  0  0  0  0  0
    1.0912   -0.7751    0.0000 O   0  0  0  0  0  0  0  0  0  0  0  0
    2.5291   -3.2957    0.0000 O   0  0  0  0  0  0  0  0  0  0  0  0
   -1.0742   -0.3691    0.0000 N   0  0  0  0  0  0  0  0  0  0  0  0
   -3.2396   -0.7921    0.0000 N   0  0  0  0  0  0  0  0  0  0  0  0
   -0.3468   -0.7751    0.0000 C   0  0  3  0  0  0  0  0  0  0  0  0
   -2.5291   -0.3691    0.0000 C   0  0  3  0  0  0  0  0  0  0  0  0
   -1.7848   -0.7583    0.0000 C   0  0  0  0  0  0  0  0  0  0  0  0
    0.3637   -2.0270    0.0000 C   0  0  0  0  0  0  0  0  0  0  0  0
   -0.3637   -1.6379    0.0000 C   0  0  0  0  0  0  0  0  0  0  0  0
    0.3468   -0.3861    0.0000 C   0  0  0  0  0  0  0  0  0  0  0  0
   -1.7157   -2.8902    0.0000 C   0  0  0  0  0  0  0  0  0  0  0  0
   -2.5122    0.4598    0.0000 C   0  0  0  0  0  0  0  0  0  0  0  0
   -1.2077   -2.0510    0.0000 C   0  0  0  0  0  0  0  0  0  0  0  0
    0.3806   -2.8729    0.0000 C   0  0  0  0  0  0  0  0  0  0  0  0
    1.0912   -1.6379    0.0000 C   0  0  0  0  0  0  0  0  0  0  0  0
    1.8186   -2.8559    0.0000 C   0  0  0  0  0  0  0  0  0  0  0  0
    1.1080   -3.2789    0.0000 C   0  0  0  0  0  0  0  0  0  0  0  0
    1.8186   -2.0270    0.0000 C   0  0  0  0  0  0  0  0  0  0  0  0
   -0.7108   -2.0289    0.0000 C   0  0  0  0  0  0  0  0  0  0  0  0
   -1.7157   -2.0510    0.0000 C   0  0  0  0  0  0  0  0  0  0  0  0
   -1.2188   -1.5099    0.0000 C   0  0  0  0  0  0  0  0  0  0  0  0
   -1.8355    1.6609    0.0000 C   0  0  0  0  0  0  0  0  0  0  0  0
    3.2396   -2.9236    0.0000 C   0  0  0  0  0  0  0  0  0  0  0  0
   -1.1757    2.1346    0.0000 C   0  0  0  0  0  0  0  0  0  0  0  0
   -1.2603    2.9466    0.0000 C   0  0  0  0  0  0  0  0  0  0  0  0
   -0.5837    3.4203    0.0000 C   0  0  0  0  0  0  0  0  0  0  0  0
  1 16  1  0  0  0  0
  1 18  1  0  0  0  0
  2 12  2  0  0  0  0
  3 17  1  0  0  0  0
  3 27  1  0  0  0  0
  4 16  2  0  0  0  0
  5 15  2  0  0  0  0
  6 15  1  0  0  0  0
  7 21  1  0  0  0  0
  7 28  1  0  0  0  0
 10  8  1  6  0  0  0
  8 12  1  0  0  0  0
 11  9  1  1  0  0  0
  9 16  1  0  0  0  0
 10 14  1  0  0  0  0
 10 15  1  0  0  0  0
 11 12  1  0  0  0  0
 11 17  1  0  0  0  0
 13 14  1  0  0  0  0
 13 19  2  0  0  0  0
 13 20  1  0  0  0  0
 18 24  1  0  0  0  0
 18 25  1  0  0  0  0
 18 26  1  0  0  0  0
 19 22  1  0  0  0  0
 20 23  2  0  0  0  0
 21 22  2  0  0  0  0
 21 23  1  0  0  0  0
 27 29  1  0  0  0  0
 29 30  1  0  0  0  0
 30 31  1  0  0  0  0
M  END
> <PUBCHEM_COMPOUND_ID_TYPE>
0

> <PUBCHEM_TOTAL_CHARGE>
0

> <PUBCHEM_SUBSTANCE_ID>
310940934

> <PUBCHEM_SUBSTANCE_VERSION>
1

> <PUBCHEM_EXT_DATASOURCE_NAME>
4488

> <PUBCHEM_EXT_DATASOURCE_REGID>
SCHEMBL16118893

> <PUBCHEM_SUBSTANCE_COMMENT>
InChI=1S/C22H34N2O7/c1-6-7-12-30-14-18(24-21(28)31-22(2,3)4)19(25)23-17(20(26)27)13-15-8-10-16(29-5)11-9-15/h8-11,17-18H,6-7,12-14H2,1-5H3,(H,23,25)(H,24,28)(H,26,27)/t17-,18-/m0/s1
InChIKey=CLZHTZIPLFTJPJ-ROUUACIJSA-N

> <PUBCHEM_SUBSTANCE_SYNONYM>
SCHEMBL16118893

> <PUBCHEM_XREF_EXT_ID>
SCHEMBL16118893

> <PUBCHEM_EXT_DATASOURCE_URL>
https://www.surechembl.org/

> <PUBCHEM_EXT_SUBSTANCE_URL>
https://www.surechembl.org/chemical/SCHEMBL16118893

> <PUBCHEM_CID_ASSOCIATIONS>
117607843  1

> <PUBCHEM_COORDINATE_TYPE>
1
3

> <PUBCHEM_BONDANNOTATIONS>
10  8  6
11  9  5

$$$$
