310943026
  -OEChem-07211613022D

 36 40  0     1  0  0  0  0  0999 V2000
    3.7366   -3.4933    0.0000 F   0  0  0  0  0  0  0  0  0  0  0  0
    2.7112   -4.0668    0.0000 F   0  0  0  0  0  0  0  0  0  0  0  0
   -2.9893   -0.6604    0.0000 O   0  0  0  0  0  0  0  0  0  0  0  0
   -1.6337    3.8930    0.0000 O   0  0  0  0  0  0  0  0  0  0  0  0
    2.5548   -0.3128    0.0000 O   0  0  0  0  0  0  0  0  0  0  0  0
   -1.5468    1.7032    0.0000 N   0  0  0  0  0  0  0  0  0  0  0  0
   -1.0428    1.0428    0.0000 N   0  0  0  0  0  0  0  0  0  0  0  0
   -1.2339   -0.4171    0.0000 N   0  0  0  0  0  0  0  0  0  0  0  0
   -3.7366    0.5561    0.0000 N   0  0  0  0  0  0  0  0  0  0  0  0
    2.3462   -1.7205    0.0000 N   0  0  0  0  0  0  0  0  0  0  0  0
    0.6430    1.5120    0.0000 N   0  0  0  0  0  0  0  0  0  0  0  0
   -2.2941    0.6083    0.0000 C   0  0  0  0  0  0  0  0  0  0  0  0
   -2.3114    1.4251    0.0000 C   0  0  0  0  0  0  0  0  0  0  0  0
   -1.5120    0.3650    0.0000 C   0  0  0  0  0  0  0  0  0  0  0  0
   -1.3208    2.5200    0.0000 C   0  0  3  0  0  0  0  0  0  0  0  0
   -3.0066    0.1912    0.0000 C   0  0  0  0  0  0  0  0  0  0  0  0
   -3.0588    1.8248    0.0000 C   0  0  0  0  0  0  0  0  0  0  0  0
   -0.5040    2.6764    0.0000 C   0  0  3  0  0  0  0  0  0  0  0  0
   -0.4171   -0.5735    0.0000 C   0  0  0  0  0  0  0  0  0  0  0  0
   -3.7366    1.4077    0.0000 C   0  0  0  0  0  0  0  0  0  0  0  0
   -1.8770    3.0935    0.0000 C   0  0  0  0  0  0  0  0  0  0  0  0
    1.1992   -0.8168    0.0000 C   0  0  0  0  0  0  0  0  0  0  0  0
    0.9037   -0.0695    0.0000 C   0  0  0  0  0  0  0  0  0  0  0  0
    0.1043    0.0695    0.0000 C   0  0  0  0  0  0  0  0  0  0  0  0
    2.0160   -0.9732    0.0000 C   0  0  0  0  0  0  0  0  0  0  0  0
   -0.1217   -1.3382    0.0000 C   0  0  0  0  0  0  0  0  0  0  0  0
   -0.2607    3.4759    0.0000 C   0  0  0  0  0  0  0  0  0  0  0  0
    0.7126   -1.4599    0.0000 C   0  0  0  0  0  0  0  0  0  0  0  0
    0.0695    2.0855    0.0000 C   0  0  0  0  0  0  0  0  0  0  0  0
   -0.8168    4.0668    0.0000 C   0  0  0  0  0  0  0  0  0  0  0  0
    2.9371   -3.2673    0.0000 C   0  0  0  0  0  0  0  0  0  0  0  0
    1.8248   -2.3810    0.0000 C   0  0  0  0  0  0  0  0  0  0  0  0
    3.1631   -1.8596    0.0000 C   0  0  0  0  0  0  0  0  0  0  0  0
    2.1203   -3.1283    0.0000 C   0  0  0  0  0  0  0  0  0  0  0  0
    3.4585   -2.6069    0.0000 C   0  0  0  0  0  0  0  0  0  0  0  0
    1.4425    0.5909    0.0000 C   0  0  0  0  0  0  0  0  0  0  0  0
  1 31  1  0  0  0  0
  2 31  1  0  0  0  0
  3 16  2  0  0  0  0
  4 21  1  0  0  0  0
  4 30  1  0  0  0  0
  5 25  2  0  0  0  0
  6  7  1  0  0  0  0
  6 13  1  0  0  0  0
 15  6  1  1  0  0  0
  7 14  2  0  0  0  0
  8 14  1  0  0  0  0
  8 19  1  0  0  0  0
  9 16  1  0  0  0  0
  9 20  1  0  0  0  0
 10 25  1  0  0  0  0
 10 32  1  0  0  0  0
 10 33  1  0  0  0  0
 11 29  3  0  0  0  0
 12 13  2  0  0  0  0
 12 14  1  0  0  0  0
 12 16  1  0  0  0  0
 13 17  1  0  0  0  0
 15 18  1  0  0  0  0
 15 21  1  0  0  0  0
 17 20  2  0  0  0  0
 18 27  1  0  0  0  0
 18 29  1  6  0  0  0
 19 24  1  0  0  0  0
 19 26  2  0  0  0  0
 22 23  1  0  0  0  0
 22 25  1  0  0  0  0
 22 28  2  0  0  0  0
 23 24  2  0  0  0  0
 23 36  1  0  0  0  0
 26 28  1  0  0  0  0
 27 30  1  0  0  0  0
 31 34  1  0  0  0  0
 31 35  1  0  0  0  0
 32 34  1  0  0  0  0
 33 35  1  0  0  0  0
M  END
> <PUBCHEM_COMPOUND_ID_TYPE>
0

> <PUBCHEM_TOTAL_CHARGE>
0

> <PUBCHEM_SUBSTANCE_ID>
310943026

> <PUBCHEM_SUBSTANCE_VERSION>
1

> <PUBCHEM_EXT_DATASOURCE_NAME>
4488

> <PUBCHEM_EXT_DATASOURCE_REGID>
SCHEMBL16121085

> <PUBCHEM_SUBSTANCE_COMMENT>
InChI=1S/C25H26F2N6O3/c1-15-12-17(2-3-18(15)24(35)32-9-6-25(26,27)7-10-32)30-22-21-19(4-8-29-23(21)34)33(31-22)20-14-36-11-5-16(20)13-28/h2-4,8,12,16,20H,5-7,9-11,14H2,1H3,(H,29,34)(H,30,31)/t16-,20+/m1/s1
InChIKey=FPPBCXXQYOINRJ-UZLBHIALSA-N

> <PUBCHEM_SUBSTANCE_SYNONYM>
SCHEMBL16121085

> <PUBCHEM_XREF_EXT_ID>
SCHEMBL16121085

> <PUBCHEM_EXT_DATASOURCE_URL>
https://www.surechembl.org/

> <PUBCHEM_EXT_SUBSTANCE_URL>
https://www.surechembl.org/chemical/SCHEMBL16121085

> <PUBCHEM_CID_ASSOCIATIONS>
117609471  1

> <PUBCHEM_COORDINATE_TYPE>
1
3

> <PUBCHEM_BONDANNOTATIONS>
18  29  6
15  6  5

$$$$
