310933106
  -OEChem-07211613022D

 31 34  0     0  0  0  0  0  0999 V2000
    5.7432   -2.0625    0.0000 O   0  0  0  0  0  0  0  0  0  0  0  0
    1.6182   -3.7760    0.0000 O   0  0  0  0  0  0  0  0  0  0  0  0
    0.7932   -0.0952    0.0000 O   0  0  0  0  0  0  0  0  0  0  0  0
    5.3624   -3.4586    0.0000 N   0  0  0  0  0  0  0  0  0  0  0  0
    5.7750   -4.1884    0.0000 N   0  0  0  0  0  0  0  0  0  0  0  0
    4.0932   -4.0298    0.0000 N   0  0  0  0  0  0  0  0  0  0  0  0
    1.7769   -2.3480    0.0000 N   0  0  0  0  0  0  0  0  0  0  0  0
    9.5192   -0.7298    0.0000 N   0  0  0  0  0  0  0  0  0  0  0  0
    6.6634   -3.1730    0.0000 C   0  0  0  0  0  0  0  0  0  0  0  0
    5.9019   -2.8558    0.0000 C   0  0  0  0  0  0  0  0  0  0  0  0
    7.3615   -2.7606    0.0000 C   0  0  0  0  0  0  0  0  0  0  0  0
    4.5374   -3.3634    0.0000 C   0  0  0  0  0  0  0  0  0  0  0  0
    6.5682   -3.9980    0.0000 C   0  0  0  0  0  0  0  0  0  0  0  0
    7.3615   -1.9673    0.0000 C   0  0  0  0  0  0  0  0  0  0  0  0
    2.9192   -3.2048    0.0000 C   0  0  0  0  0  0  0  0  0  0  0  0
    4.2202   -2.6019    0.0000 C   0  0  0  0  0  0  0  0  0  0  0  0
    8.0913   -3.1730    0.0000 C   0  0  0  0  0  0  0  0  0  0  0  0
    2.1260   -3.1096    0.0000 C   0  0  0  0  0  0  0  0  0  0  0  0
    3.2682   -3.9663    0.0000 C   0  0  0  0  0  0  0  0  0  0  0  0
    3.3952   -2.5384    0.0000 C   0  0  0  0  0  0  0  0  0  0  0  0
    8.0913   -1.5548    0.0000 C   0  0  0  0  0  0  0  0  0  0  0  0
    8.7894   -1.9673    0.0000 C   0  0  0  0  0  0  0  0  0  0  0  0
    8.7894   -2.7606    0.0000 C   0  0  0  0  0  0  0  0  0  0  0  0
    0.9519   -2.2846    0.0000 C   0  0  0  0  0  0  0  0  0  0  0  0
    2.2846   -1.7134    0.0000 C   0  0  0  0  0  0  0  0  0  0  0  0
    6.6634   -1.5548    0.0000 C   0  0  0  0  0  0  0  0  0  0  0  0
    1.1423   -0.8567    0.0000 C   0  0  0  0  0  0  0  0  0  0  0  0
    0.6346   -1.5230    0.0000 C   0  0  0  0  0  0  0  0  0  0  0  0
    1.9673   -0.9519    0.0000 C   0  0  0  0  0  0  0  0  0  0  0  0
    9.5192   -1.5548    0.0000 C   0  0  0  0  0  0  0  0  0  0  0  0
    0.0000    0.0000    0.0000 C   0  0  0  0  0  0  0  0  0  0  0  0
  1 10  1  0  0  0  0
  2 18  2  0  0  0  0
  3 27  1  0  0  0  0
  3 31  1  0  0  0  0
  4  5  1  0  0  0  0
  4 10  1  0  0  0  0
  4 12  1  0  0  0  0
  5 13  2  0  0  0  0
  6 12  1  0  0  0  0
  6 19  2  0  0  0  0
  7 18  1  0  0  0  0
  7 24  1  0  0  0  0
  7 25  1  0  0  0  0
  8 30  3  0  0  0  0
  9 10  2  0  0  0  0
  9 11  1  0  0  0  0
  9 13  1  0  0  0  0
 11 14  2  0  0  0  0
 11 17  1  0  0  0  0
 12 16  2  0  0  0  0
 14 21  1  0  0  0  0
 14 26  1  0  0  0  0
 15 18  1  0  0  0  0
 15 19  1  0  0  0  0
 15 20  2  0  0  0  0
 16 20  1  0  0  0  0
 17 23  2  0  0  0  0
 21 22  2  0  0  0  0
 22 23  1  0  0  0  0
 22 30  1  0  0  0  0
 24 28  1  0  0  0  0
 25 29  1  0  0  0  0
 27 28  1  0  0  0  0
 27 29  1  0  0  0  0
M  END
> <PUBCHEM_COMPOUND_ID_TYPE>
0

> <PUBCHEM_TOTAL_CHARGE>
0

> <PUBCHEM_SUBSTANCE_ID>
310933106

> <PUBCHEM_SUBSTANCE_VERSION>
1

> <PUBCHEM_EXT_DATASOURCE_NAME>
4488

> <PUBCHEM_EXT_DATASOURCE_REGID>
SCHEMBL16110508

> <PUBCHEM_SUBSTANCE_COMMENT>
InChI=1S/C23H23N5O3/c1-15-11-16(12-24)3-5-19(15)20-14-26-28(23(20)30)21-6-4-17(13-25-21)22(29)27-9-7-18(31-2)8-10-27/h3-6,11,13-14,18,30H,7-10H2,1-2H3
InChIKey=WRCAJKGOFLTNAR-UHFFFAOYSA-N

> <PUBCHEM_SUBSTANCE_SYNONYM>
SCHEMBL16110508

> <PUBCHEM_XREF_EXT_ID>
SCHEMBL16110508

> <PUBCHEM_EXT_DATASOURCE_URL>
https://www.surechembl.org/

> <PUBCHEM_EXT_SUBSTANCE_URL>
https://www.surechembl.org/chemical/SCHEMBL16110508

> <PUBCHEM_CID_ASSOCIATIONS>
117601563  1

> <PUBCHEM_COORDINATE_TYPE>
1
3

$$$$
