310949819
  -OEChem-07211613022D

 20 21  0     0  0  0  0  0  0999 V2000
    0.4015    1.2587    0.0000 O   0  0  0  0  0  0  0  0  0  0  0  0
    3.9606   -0.1519    0.0000 O   0  0  0  0  0  0  0  0  0  0  0  0
    3.2445   -1.3021    0.0000 O   0  0  0  0  0  0  0  0  0  0  0  0
   -0.3363    0.0217    0.0000 N   0  0  0  0  0  0  0  0  0  0  0  0
   -3.2228    0.0651    0.0000 N   0  0  0  0  0  0  0  0  0  0  0  0
    1.1177    0.8681    0.0000 C   0  0  0  0  0  0  0  0  0  0  0  0
   -0.3363    0.8898    0.0000 C   0  0  0  0  0  0  0  0  0  0  0  0
    2.4848    0.0217    0.0000 C   0  0  0  0  0  0  0  0  0  0  0  0
   -1.7904    0.0868    0.0000 C   0  0  0  0  0  0  0  0  0  0  0  0
    1.0743    0.0434    0.0000 C   0  0  0  0  0  0  0  0  0  0  0  0
    1.8121    1.2587    0.0000 C   0  0  0  0  0  0  0  0  0  0  0  0
   -1.0308    1.3021    0.0000 C   0  0  0  0  0  0  0  0  0  0  0  0
    1.7904   -0.3907    0.0000 C   0  0  0  0  0  0  0  0  0  0  0  0
    2.5066    0.8464    0.0000 C   0  0  0  0  0  0  0  0  0  0  0  0
   -1.0525   -0.3472    0.0000 C   0  0  0  0  0  0  0  0  0  0  0  0
   -1.7470    0.9115    0.0000 C   0  0  0  0  0  0  0  0  0  0  0  0
    3.2445   -0.4774    0.0000 C   0  0  0  0  0  0  0  0  0  0  0  0
   -2.5283   -0.3255    0.0000 C   0  0  0  0  0  0  0  0  0  0  0  0
   -3.2010    0.8898    0.0000 C   0  0  0  0  0  0  0  0  0  0  0  0
   -3.9606   -0.3038    0.0000 C   0  0  0  0  0  0  0  0  0  0  0  0
  1  6  1  0  0  0  0
  1  7  1  0  0  0  0
  2 17  2  0  0  0  0
  3 17  1  0  0  0  0
  4  7  2  0  0  0  0
  4 15  1  0  0  0  0
  5 18  1  0  0  0  0
  5 19  1  0  0  0  0
  5 20  1  0  0  0  0
  6 10  2  0  0  0  0
  6 11  1  0  0  0  0
  7 12  1  0  0  0  0
  8 13  2  0  0  0  0
  8 14  1  0  0  0  0
  8 17  1  0  0  0  0
  9 15  2  0  0  0  0
  9 16  1  0  0  0  0
  9 18  1  0  0  0  0
 10 13  1  0  0  0  0
 11 14  2  0  0  0  0
 12 16  2  0  0  0  0
M  END
> <PUBCHEM_COMPOUND_ID_TYPE>
0

> <PUBCHEM_TOTAL_CHARGE>
0

> <PUBCHEM_SUBSTANCE_ID>
310949819

> <PUBCHEM_SUBSTANCE_VERSION>
1

> <PUBCHEM_EXT_DATASOURCE_NAME>
4488

> <PUBCHEM_EXT_DATASOURCE_REGID>
SCHEMBL16128019

> <PUBCHEM_SUBSTANCE_COMMENT>
InChI=1S/C15H16N2O3/c1-17(2)10-11-3-8-14(16-9-11)20-13-6-4-12(5-7-13)15(18)19/h3-9H,10H2,1-2H3,(H,18,19)
InChIKey=ZSBAGWVCGXQSEA-UHFFFAOYSA-N

> <PUBCHEM_SUBSTANCE_SYNONYM>
SCHEMBL16128019

> <PUBCHEM_XREF_EXT_ID>
SCHEMBL16128019

> <PUBCHEM_EXT_DATASOURCE_URL>
https://www.surechembl.org/

> <PUBCHEM_EXT_SUBSTANCE_URL>
https://www.surechembl.org/chemical/SCHEMBL16128019

> <PUBCHEM_CID_ASSOCIATIONS>
117615137  1

> <PUBCHEM_COORDINATE_TYPE>
1
3

$$$$
