310931992
  -OEChem-07211613022D

 17 18  0     0  0  0  0  0  0999 V2000
    0.0000   -0.7981    0.0000 Br  0  0  0  0  0  0  0  0  0  0  0  0
    1.2162   -2.1282    0.0000 O   0  0  0  0  0  0  0  0  0  0  0  0
    5.7007   -2.2233    0.0000 O   0  0  0  0  0  0  0  0  0  0  0  0
    4.9786   -3.4584    0.0000 O   0  0  0  0  0  0  0  0  0  0  0  0
    2.1282   -0.9881    0.0000 N   0  0  0  0  0  0  0  0  0  0  0  0
    2.0332   -0.1520    0.0000 N   0  0  0  0  0  0  0  0  0  0  0  0
    3.5534   -0.9881    0.0000 N   0  0  0  0  0  0  0  0  0  0  0  0
    1.3872   -1.3112    0.0000 C   0  0  0  0  0  0  0  0  0  0  0  0
    2.8314   -1.3872    0.0000 C   0  0  0  0  0  0  0  0  0  0  0  0
    0.8171   -0.7221    0.0000 C   0  0  0  0  0  0  0  0  0  0  0  0
    1.2162    0.0000    0.0000 C   0  0  0  0  0  0  0  0  0  0  0  0
    2.8314   -2.2233    0.0000 C   0  0  0  0  0  0  0  0  0  0  0  0
    4.2565   -2.2233    0.0000 C   0  0  0  0  0  0  0  0  0  0  0  0
    4.2565   -1.3872    0.0000 C   0  0  0  0  0  0  0  0  0  0  0  0
    3.5534   -2.6223    0.0000 C   0  0  0  0  0  0  0  0  0  0  0  0
    4.9786   -2.6223    0.0000 C   0  0  0  0  0  0  0  0  0  0  0  0
    1.8432   -2.6603    0.0000 C   0  0  0  0  0  0  0  0  0  0  0  0
  1 10  1  0  0  0  0
  2  8  1  0  0  0  0
  2 17  1  0  0  0  0
  3 16  2  0  0  0  0
  4 16  1  0  0  0  0
  5  6  1  0  0  0  0
  5  8  1  0  0  0  0
  5  9  1  0  0  0  0
  6 11  2  0  0  0  0
  7  9  2  0  0  0  0
  7 14  1  0  0  0  0
  8 10  2  0  0  0  0
  9 12  1  0  0  0  0
 10 11  1  0  0  0  0
 12 15  2  0  0  0  0
 13 14  2  0  0  0  0
 13 15  1  0  0  0  0
 13 16  1  0  0  0  0
M  END
> <PUBCHEM_COMPOUND_ID_TYPE>
0

> <PUBCHEM_TOTAL_CHARGE>
0

> <PUBCHEM_SUBSTANCE_ID>
310931992

> <PUBCHEM_SUBSTANCE_VERSION>
1

> <PUBCHEM_EXT_DATASOURCE_NAME>
4488

> <PUBCHEM_EXT_DATASOURCE_REGID>
SCHEMBL16109333

> <PUBCHEM_SUBSTANCE_COMMENT>
InChI=1S/C10H8BrN3O3/c1-17-9-7(11)5-13-14(9)8-3-2-6(4-12-8)10(15)16/h2-5H,1H3,(H,15,16)
InChIKey=YCPMMAJVVQBAEA-UHFFFAOYSA-N

> <PUBCHEM_SUBSTANCE_SYNONYM>
SCHEMBL16109333

> <PUBCHEM_XREF_EXT_ID>
SCHEMBL16109333

> <PUBCHEM_EXT_DATASOURCE_URL>
https://www.surechembl.org/

> <PUBCHEM_EXT_SUBSTANCE_URL>
https://www.surechembl.org/chemical/SCHEMBL16109333

> <PUBCHEM_CID_ASSOCIATIONS>
117600634  1

> <PUBCHEM_COORDINATE_TYPE>
1
3

$$$$
