310940155
  -OEChem-07211613022D

 35 39  0     0  0  0  0  0  0999 V2000
    1.8777    4.8712    0.0000 F   0  0  0  0  0  0  0  0  0  0  0  0
   -0.0235   -3.8498    0.0000 F   0  0  0  0  0  0  0  0  0  0  0  0
   -0.5107   -4.8712    0.0000 F   0  0  0  0  0  0  0  0  0  0  0  0
   -1.5321   -4.3683    0.0000 F   0  0  0  0  0  0  0  0  0  0  0  0
   -2.8835    0.4871    0.0000 O   0  0  0  0  0  0  0  0  0  0  0  0
   -0.1022    0.3457    0.0000 N   0  0  0  0  0  0  0  0  0  0  0  0
   -0.4321   -0.4085    0.0000 N   0  0  0  0  0  0  0  0  0  0  0  0
   -1.8306   -0.9428    0.0000 N   0  0  0  0  0  0  0  0  0  0  0  0
   -2.1606    1.7442    0.0000 N   0  0  0  0  0  0  0  0  0  0  0  0
    1.3592    2.9384    0.0000 N   0  0  0  0  0  0  0  0  0  0  0  0
    2.8834    0.2200    0.0000 N   0  0  0  0  0  0  0  0  0  0  0  0
    0.6678    0.5342    0.0000 C   0  0  0  0  0  0  0  0  0  0  0  0
   -0.7307    0.9113    0.0000 C   0  0  0  0  0  0  0  0  0  0  0  0
   -1.4378    0.5028    0.0000 C   0  0  0  0  0  0  0  0  0  0  0  0
   -1.2807   -0.3143    0.0000 C   0  0  0  0  0  0  0  0  0  0  0  0
   -2.1449    0.9271    0.0000 C   0  0  0  0  0  0  0  0  0  0  0  0
    0.1336    1.1157    0.0000 C   0  0  0  0  0  0  0  0  0  0  0  0
    1.5163    0.7542    0.0000 C   0  0  0  0  0  0  0  0  0  0  0  0
   -0.7150    1.7442    0.0000 C   0  0  0  0  0  0  0  0  0  0  0  0
    1.2649   -0.1100    0.0000 C   0  0  0  0  0  0  0  0  0  0  0  0
    1.1392    2.1213    0.0000 C   0  0  0  0  0  0  0  0  0  0  0  0
    0.3378    1.9171    0.0000 C   0  0  0  0  0  0  0  0  0  0  0  0
    1.7206    1.5399    0.0000 C   0  0  0  0  0  0  0  0  0  0  0  0
   -1.4535    2.1527    0.0000 C   0  0  0  0  0  0  0  0  0  0  0  0
   -1.5792   -1.7127    0.0000 C   0  0  0  0  0  0  0  0  0  0  0  0
    2.0821    0.0786    0.0000 C   0  0  0  0  0  0  0  0  0  0  0  0
    2.0663    3.3626    0.0000 C   0  0  0  0  0  0  0  0  0  0  0  0
    0.9506    3.6298    0.0000 C   0  0  0  0  0  0  0  0  0  0  0  0
    1.6578    4.0698    0.0000 C   0  0  0  0  0  0  0  0  0  0  0  0
   -2.1135   -2.3413    0.0000 C   0  0  0  0  0  0  0  0  0  0  0  0
   -0.7621   -1.9171    0.0000 C   0  0  0  0  0  0  0  0  0  0  0  0
   -1.0607   -3.3155    0.0000 C   0  0  0  0  0  0  0  0  0  0  0  0
   -1.8621   -3.1270    0.0000 C   0  0  0  0  0  0  0  0  0  0  0  0
   -0.5107   -2.7027    0.0000 C   0  0  0  0  0  0  0  0  0  0  0  0
   -0.7935   -4.1012    0.0000 C   0  0  0  0  0  0  0  0  0  0  0  0
  1 29  1  0  0  0  0
  2 35  1  0  0  0  0
  3 35  1  0  0  0  0
  4 35  1  0  0  0  0
  5 16  2  0  0  0  0
  6  7  1  0  0  0  0
  6 12  1  0  0  0  0
  6 13  1  0  0  0  0
  7 15  2  0  0  0  0
  8 15  1  0  0  0  0
  8 25  1  0  0  0  0
  9 16  1  0  0  0  0
  9 24  1  0  0  0  0
 21 10  1  1  0  0  0
 10 27  1  0  0  0  0
 10 28  1  0  0  0  0
 11 26  3  0  0  0  0
 12 17  1  0  0  0  0
 12 18  1  0  0  0  0
 12 20  1  6  0  0  0
 13 14  2  0  0  0  0
 13 19  1  0  0  0  0
 14 15  1  0  0  0  0
 14 16  1  0  0  0  0
 17 22  1  0  0  0  0
 18 23  1  0  0  0  0
 19 24  2  0  0  0  0
 20 26  1  0  0  0  0
 21 22  1  0  0  0  0
 21 23  1  0  0  0  0
 25 30  2  0  0  0  0
 25 31  1  0  0  0  0
 27 29  1  0  0  0  0
 28 29  1  0  0  0  0
 30 33  1  0  0  0  0
 31 34  2  0  0  0  0
 32 33  2  0  0  0  0
 32 34  1  0  0  0  0
 32 35  1  0  0  0  0
M  END
> <PUBCHEM_COMPOUND_ID_TYPE>
0

> <PUBCHEM_TOTAL_CHARGE>
0

> <PUBCHEM_SUBSTANCE_ID>
310940155

> <PUBCHEM_SUBSTANCE_VERSION>
1

> <PUBCHEM_EXT_DATASOURCE_NAME>
4488

> <PUBCHEM_EXT_DATASOURCE_REGID>
SCHEMBL16118088

> <PUBCHEM_SUBSTANCE_COMMENT>
InChI=1S/C24H24F4N6O/c25-16-13-33(14-16)18-5-8-23(9-6-18,10-11-29)34-19-7-12-30-22(35)20(19)21(32-34)31-17-3-1-15(2-4-17)24(26,27)28/h1-4,7,12,16,18H,5-6,8-10,13-14H2,(H,30,35)(H,31,32)/t18-,23+
InChIKey=DBQKIMGOWUTYQI-QRTMHTFLSA-N

> <PUBCHEM_SUBSTANCE_SYNONYM>
SCHEMBL16118088

> <PUBCHEM_XREF_EXT_ID>
SCHEMBL16118088

> <PUBCHEM_EXT_DATASOURCE_URL>
https://www.surechembl.org/

> <PUBCHEM_EXT_SUBSTANCE_URL>
https://www.surechembl.org/chemical/SCHEMBL16118088

> <PUBCHEM_CID_ASSOCIATIONS>
90460110  1

> <PUBCHEM_COORDINATE_TYPE>
1
3

> <PUBCHEM_BONDANNOTATIONS>
21  10  5
12  20  6

$$$$
