310947080
  -OEChem-07211613022D

 35 39  0     1  0  0  0  0  0999 V2000
   -2.7239    0.9391    0.0000 F   0  0  0  0  0  0  0  0  0  0  0  0
   -1.6685    2.8792    0.0000 O   0  0  0  0  0  0  0  0  0  0  0  0
   -3.0809   -1.8858    0.0000 O   0  0  0  0  0  0  0  0  0  0  0  0
    2.4135   -2.8792    0.0000 O   0  0  0  0  0  0  0  0  0  0  0  0
   -1.5754    0.4423    0.0000 N   0  0  0  0  0  0  0  0  0  0  0  0
   -1.0787   -0.2251    0.0000 N   0  0  0  0  0  0  0  0  0  0  0  0
   -1.3115   -1.6840    0.0000 N   0  0  0  0  0  0  0  0  0  0  0  0
    2.1963   -1.4202    0.0000 N   0  0  0  0  0  0  0  0  0  0  0  0
   -3.7949   -0.6441    0.0000 N   0  0  0  0  0  0  0  0  0  0  0  0
    0.8459    0.9391    0.0000 N   0  0  0  0  0  0  0  0  0  0  0  0
   -1.3270    1.2495    0.0000 C   0  0  3  0  0  0  0  0  0  0  0  0
   -2.3514    0.1940    0.0000 C   0  0  0  0  0  0  0  0  0  0  0  0
   -2.3669   -0.6286    0.0000 C   0  0  0  0  0  0  0  0  0  0  0  0
   -1.5754   -0.9080    0.0000 C   0  0  0  0  0  0  0  0  0  0  0  0
   -2.1031    1.5133    0.0000 C   0  0  3  0  0  0  0  0  0  0  0  0
   -3.0809   -1.0321    0.0000 C   0  0  0  0  0  0  0  0  0  0  0  0
   -0.7062    1.8082    0.0000 C   0  0  0  0  0  0  0  0  0  0  0  0
   -3.0965    0.6131    0.0000 C   0  0  0  0  0  0  0  0  0  0  0  0
   -0.7528    0.6286    0.0000 C   0  0  0  0  0  0  0  0  0  0  0  0
   -0.5200   -1.8548    0.0000 C   0  0  0  0  0  0  0  0  0  0  0  0
    1.0942   -2.1963    0.0000 C   0  0  0  0  0  0  0  0  0  0  0  0
    0.8459   -1.4046    0.0000 C   0  0  0  0  0  0  0  0  0  0  0  0
    1.9169   -2.1807    0.0000 C   0  0  0  0  0  0  0  0  0  0  0  0
   -2.2738    2.3204    0.0000 C   0  0  0  0  0  0  0  0  0  0  0  0
    0.0388   -1.2495    0.0000 C   0  0  0  0  0  0  0  0  0  0  0  0
   -3.7949    0.2095    0.0000 C   0  0  0  0  0  0  0  0  0  0  0  0
    1.5133   -0.9235    0.0000 C   0  0  0  0  0  0  0  0  0  0  0  0
   -0.8770    2.6153    0.0000 C   0  0  0  0  0  0  0  0  0  0  0  0
    2.9723   -1.1408    0.0000 C   0  0  0  0  0  0  0  0  0  0  0  0
    0.5510   -2.8171    0.0000 C   0  0  0  0  0  0  0  0  0  0  0  0
   -0.2561   -2.6463    0.0000 C   0  0  0  0  0  0  0  0  0  0  0  0
    0.0388    0.7993    0.0000 C   0  0  0  0  0  0  0  0  0  0  0  0
    3.5776   -1.7461    0.0000 C   0  0  0  0  0  0  0  0  0  0  0  0
    3.1741   -0.3337    0.0000 C   0  0  0  0  0  0  0  0  0  0  0  0
    3.7949   -0.9546    0.0000 C   0  0  0  0  0  0  0  0  0  0  0  0
 15  1  1  6  0  0  0
  2 24  1  0  0  0  0
  2 28  1  0  0  0  0
  3 16  2  0  0  0  0
  4 23  2  0  0  0  0
  5  6  1  0  0  0  0
  5 11  1  0  0  0  0
  5 12  1  0  0  0  0
  6 14  2  0  0  0  0
  7 14  1  0  0  0  0
  7 20  1  0  0  0  0
  8 23  1  0  0  0  0
  8 27  1  0  0  0  0
  8 29  1  0  0  0  0
  9 16  1  0  0  0  0
  9 26  1  0  0  0  0
 10 32  3  0  0  0  0
 11 15  1  0  0  0  0
 11 17  1  0  0  0  0
 11 19  1  1  0  0  0
 12 13  2  0  0  0  0
 12 18  1  0  0  0  0
 13 14  1  0  0  0  0
 13 16  1  0  0  0  0
 15 24  1  0  0  0  0
 17 28  1  0  0  0  0
 18 26  2  0  0  0  0
 19 32  1  0  0  0  0
 20 25  1  0  0  0  0
 20 31  2  0  0  0  0
 21 22  1  0  0  0  0
 21 23  1  0  0  0  0
 21 30  2  0  0  0  0
 22 25  2  0  0  0  0
 22 27  1  0  0  0  0
 29 33  1  0  0  0  0
 29 34  1  0  0  0  0
 29 35  1  0  0  0  0
 30 31  1  0  0  0  0
M  END
> <PUBCHEM_COMPOUND_ID_TYPE>
0

> <PUBCHEM_TOTAL_CHARGE>
0

> <PUBCHEM_SUBSTANCE_ID>
310947080

> <PUBCHEM_SUBSTANCE_VERSION>
1

> <PUBCHEM_EXT_DATASOURCE_NAME>
4488

> <PUBCHEM_EXT_DATASOURCE_REGID>
SCHEMBL16125234

> <PUBCHEM_SUBSTANCE_COMMENT>
InChI=1S/C25H27FN6O3/c1-24(2,3)31-13-15-12-16(4-5-17(15)23(31)34)29-21-20-18(6-10-28-22(20)33)32(30-21)25(7-9-27)8-11-35-14-19(25)26/h4-6,10,12,19H,7-8,11,13-14H2,1-3H3,(H,28,33)(H,29,30)/t19-,25+/m1/s1
InChIKey=PDUVQCXXOZUIED-CLOONOSVSA-N

> <PUBCHEM_SUBSTANCE_SYNONYM>
SCHEMBL16125234

> <PUBCHEM_XREF_EXT_ID>
SCHEMBL16125234

> <PUBCHEM_EXT_DATASOURCE_URL>
https://www.surechembl.org/

> <PUBCHEM_EXT_SUBSTANCE_URL>
https://www.surechembl.org/chemical/SCHEMBL16125234

> <PUBCHEM_CID_ASSOCIATIONS>
117612932  1

> <PUBCHEM_COORDINATE_TYPE>
1
3

> <PUBCHEM_BONDANNOTATIONS>
15  1  6
11  19  5

$$$$
