310935663
  -OEChem-07211613022D

 19 20  0     0  0  0  0  0  0999 V2000
    4.1500   -2.8500    0.0000 Br  0  0  0  0  0  0  0  0  0  0  0  0
    1.7000   -0.0250    0.0000 F   0  0  0  0  0  0  0  0  0  0  0  0
    0.0500    0.0000    0.0000 F   0  0  0  0  0  0  0  0  0  0  0  0
    0.4000   -3.5750    0.0000 O   0  0  0  0  0  0  0  0  0  0  0  0
    2.4750   -2.8750    0.0000 N   0  0  0  0  0  0  0  0  0  0  0  0
    1.6750   -4.2750    0.0000 N   0  0  0  0  0  0  0  0  0  0  0  0
    1.6750   -2.8750    0.0000 C   0  0  0  0  0  0  0  0  0  0  0  0
    1.2500   -2.1500    0.0000 C   0  0  0  0  0  0  0  0  0  0  0  0
    1.2250   -3.5750    0.0000 C   0  0  0  0  0  0  0  0  0  0  0  0
    1.6750   -1.4500    0.0000 C   0  0  0  0  0  0  0  0  0  0  0  0
    2.9000   -3.5750    0.0000 C   0  0  0  0  0  0  0  0  0  0  0  0
    1.2750   -0.7250    0.0000 C   0  0  0  0  0  0  0  0  0  0  0  0
    0.4250   -2.1500    0.0000 C   0  0  0  0  0  0  0  0  0  0  0  0
    0.4500   -0.7250    0.0000 C   0  0  0  0  0  0  0  0  0  0  0  0
    2.4750   -4.2750    0.0000 C   0  0  0  0  0  0  0  0  0  0  0  0
    0.0250   -1.4250    0.0000 C   0  0  0  0  0  0  0  0  0  0  0  0
    3.7250   -3.5750    0.0000 C   0  0  0  0  0  0  0  0  0  0  0  0
    0.0000   -4.2750    0.0000 C   0  0  0  0  0  0  0  0  0  0  0  0
    0.4000   -5.0000    0.0000 C   0  0  0  0  0  0  0  0  0  0  0  0
  1 17  1  0  0  0  0
  2 12  1  0  0  0  0
  3 14  1  0  0  0  0
  4  9  1  0  0  0  0
  4 18  1  0  0  0  0
  5  7  2  0  0  0  0
  5 11  1  0  0  0  0
  6  9  2  0  0  0  0
  6 15  1  0  0  0  0
  7  8  1  0  0  0  0
  7  9  1  0  0  0  0
  8 10  1  0  0  0  0
  8 13  2  0  0  0  0
 10 12  2  0  0  0  0
 11 15  2  0  0  0  0
 11 17  1  0  0  0  0
 12 14  1  0  0  0  0
 13 16  1  0  0  0  0
 14 16  2  0  0  0  0
 18 19  1  0  0  0  0
M  END
> <PUBCHEM_COMPOUND_ID_TYPE>
0

> <PUBCHEM_TOTAL_CHARGE>
0

> <PUBCHEM_SUBSTANCE_ID>
310935663

> <PUBCHEM_SUBSTANCE_VERSION>
1

> <PUBCHEM_EXT_DATASOURCE_NAME>
4488

> <PUBCHEM_EXT_DATASOURCE_REGID>
SCHEMBL16113245

> <PUBCHEM_SUBSTANCE_COMMENT>
InChI=1S/C13H11BrF2N2O/c1-2-19-13-12(18-9(6-14)7-17-13)8-3-4-10(15)11(16)5-8/h3-5,7H,2,6H2,1H3
InChIKey=DVMJTKYLXVGQCB-UHFFFAOYSA-N

> <PUBCHEM_SUBSTANCE_SYNONYM>
SCHEMBL16113245

> <PUBCHEM_XREF_EXT_ID>
SCHEMBL16113245

> <PUBCHEM_EXT_DATASOURCE_URL>
https://www.surechembl.org/

> <PUBCHEM_EXT_SUBSTANCE_URL>
https://www.surechembl.org/chemical/SCHEMBL16113245

> <PUBCHEM_CID_ASSOCIATIONS>
117603674  1

> <PUBCHEM_COORDINATE_TYPE>
1
3

$$$$
