310946917
  -OEChem-07211613022D

 24 27  0     0  0  0  0  0  0999 V2000
    2.3938   -1.7321    0.0000 O   0  0  0  0  0  0  0  0  0  0  0  0
   -1.2487    1.8228    0.0000 N   0  0  0  0  0  0  0  0  0  0  0  0
   -1.7336    1.1554    0.0000 N   0  0  0  0  0  0  0  0  0  0  0  0
    0.9649    0.7429    0.0000 N   0  0  0  0  0  0  0  0  0  0  0  0
    0.2504   -0.4946    0.0000 N   0  0  0  0  0  0  0  0  0  0  0  0
   -1.1762   -0.8940    0.0000 N   0  0  0  0  0  0  0  0  0  0  0  0
   -1.6612   -1.5614    0.0000 N   0  0  0  0  0  0  0  0  0  0  0  0
   -0.4640    0.7429    0.0000 C   0  0  0  0  0  0  0  0  0  0  0  0
   -1.2487    0.4879    0.0000 C   0  0  0  0  0  0  0  0  0  0  0  0
   -0.4640    1.5679    0.0000 C   0  0  0  0  0  0  0  0  0  0  0  0
    0.2504    0.3304    0.0000 C   0  0  0  0  0  0  0  0  0  0  0  0
   -1.6612   -0.2265    0.0000 C   0  0  0  0  0  0  0  0  0  0  0  0
    0.2504    1.9804    0.0000 C   0  0  0  0  0  0  0  0  0  0  0  0
   -2.4458   -0.4815    0.0000 C   0  0  0  0  0  0  0  0  0  0  0  0
    0.9649    1.5679    0.0000 C   0  0  0  0  0  0  0  0  0  0  0  0
   -2.4458   -1.3065    0.0000 C   0  0  0  0  0  0  0  0  0  0  0  0
    0.9649   -0.9071    0.0000 C   0  0  0  0  0  0  0  0  0  0  0  0
   -1.6612    2.5373    0.0000 C   0  0  0  0  0  0  0  0  0  0  0  0
   -3.1603   -1.7190    0.0000 C   0  0  0  0  0  0  0  0  0  0  0  0
    0.9649   -1.7321    0.0000 C   0  0  0  0  0  0  0  0  0  0  0  0
    1.6794   -0.4946    0.0000 C   0  0  0  0  0  0  0  0  0  0  0  0
    1.6794   -2.1446    0.0000 C   0  0  0  0  0  0  0  0  0  0  0  0
    2.3938   -0.9071    0.0000 C   0  0  0  0  0  0  0  0  0  0  0  0
   -3.8747   -1.3065    0.0000 C   0  0  0  0  0  0  0  0  0  0  0  0
  1 22  1  0  0  0  0
  1 23  1  0  0  0  0
  2  3  1  0  0  0  0
  2 10  1  0  0  0  0
  2 18  1  0  0  0  0
  3  9  2  0  0  0  0
  4 11  2  0  0  0  0
  4 15  1  0  0  0  0
  5 11  1  0  0  0  0
  5 17  1  0  0  0  0
  6  7  1  0  0  0  0
  6 12  2  0  0  0  0
  7 16  1  0  0  0  0
  8  9  1  0  0  0  0
  8 10  2  0  0  0  0
  8 11  1  0  0  0  0
  9 12  1  0  0  0  0
 10 13  1  0  0  0  0
 12 14  1  0  0  0  0
 13 15  2  0  0  0  0
 14 16  2  0  0  0  0
 16 19  1  0  0  0  0
 17 20  1  0  0  0  0
 17 21  1  0  0  0  0
 19 24  1  0  0  0  0
 20 22  1  0  0  0  0
 21 23  1  0  0  0  0
M  END
> <PUBCHEM_COMPOUND_ID_TYPE>
0

> <PUBCHEM_TOTAL_CHARGE>
0

> <PUBCHEM_SUBSTANCE_ID>
310946917

> <PUBCHEM_SUBSTANCE_VERSION>
1

> <PUBCHEM_EXT_DATASOURCE_NAME>
4488

> <PUBCHEM_EXT_DATASOURCE_REGID>
SCHEMBL16125041

> <PUBCHEM_SUBSTANCE_COMMENT>
InChI=1S/C17H22N6O/c1-3-11-10-13(21-20-11)16-15-14(23(2)22-16)4-7-18-17(15)19-12-5-8-24-9-6-12/h4,7,10,12H,3,5-6,8-9H2,1-2H3,(H,18,19)(H,20,21)
InChIKey=YQGXHHNFAXOAEQ-UHFFFAOYSA-N

> <PUBCHEM_SUBSTANCE_SYNONYM>
SCHEMBL16125041

> <PUBCHEM_XREF_EXT_ID>
SCHEMBL16125041

> <PUBCHEM_EXT_DATASOURCE_URL>
https://www.surechembl.org/

> <PUBCHEM_EXT_SUBSTANCE_URL>
https://www.surechembl.org/chemical/SCHEMBL16125041

> <PUBCHEM_CID_ASSOCIATIONS>
117612774  1

> <PUBCHEM_COORDINATE_TYPE>
1
3

$$$$
