310937623
  -OEChem-07211613022D

 45 49  0     1  0  0  0  0  0999 V2000
   -1.6712   -1.4717    0.0000 F   0  0  0  0  0  0  0  0  0  0  0  0
   -2.3123   -1.9910    0.0000 F   0  0  0  0  0  0  0  0  0  0  0  0
   -2.1832   -2.8058    0.0000 F   0  0  0  0  0  0  0  0  0  0  0  0
   -0.3847   -5.0268    0.0000 F   0  0  0  0  0  0  0  0  0  0  0  0
    0.3855   -5.3224    0.0000 F   0  0  0  0  0  0  0  0  0  0  0  0
    1.0266   -4.8032    0.0000 F   0  0  0  0  0  0  0  0  0  0  0  0
    4.7681   -1.4597    0.0000 F   0  0  0  0  0  0  0  0  0  0  0  0
    5.5650   -1.2462    0.0000 F   0  0  0  0  0  0  0  0  0  0  0  0
    5.7785   -0.4493    0.0000 F   0  0  0  0  0  0  0  0  0  0  0  0
    2.0775   -2.0531    0.0000 O   0  0  0  0  0  0  0  0  0  0  0  0
   -0.3731    1.3908    0.0000 O   0  0  0  0  0  0  0  0  0  0  0  0
    3.3518   -1.3611    0.0000 O   0  0  0  0  0  0  0  0  0  0  0  0
    0.0394    0.1212    0.0000 O   0  0  0  0  0  0  0  0  0  0  0  0
    2.0076   -0.7200    0.0000 N   0  0  0  0  0  0  0  0  0  0  0  0
    2.6482    1.6707    0.0000 N   0  0  0  0  0  0  0  0  0  0  0  0
    4.0285    1.3008    0.0000 N   0  0  0  0  0  0  0  0  0  0  0  0
    1.2806   -1.8395    0.0000 C   0  0  3  0  0  0  0  0  0  0  0  0
    1.2374   -1.0156    0.0000 C   0  0  3  0  0  0  0  0  0  0  0  0
    0.6394   -2.3587    0.0000 C   0  0  0  0  0  0  0  0  0  0  0  0
    2.5268   -1.3611    0.0000 C   0  0  0  0  0  0  0  0  0  0  0  0
   -0.7719   -2.5822    0.0000 C   0  0  0  0  0  0  0  0  0  0  0  0
    0.1273   -3.6928    0.0000 C   0  0  0  0  0  0  0  0  0  0  0  0
    3.0180    0.2904    0.0000 C   0  0  0  0  0  0  0  0  0  0  0  0
    0.7685   -3.1735    0.0000 C   0  0  0  0  0  0  0  0  0  0  0  0
   -0.1308   -2.0630    0.0000 C   0  0  0  0  0  0  0  0  0  0  0  0
    2.2211    0.0769    0.0000 C   0  0  0  0  0  0  0  0  0  0  0  0
    3.2316    1.0873    0.0000 C   0  0  0  0  0  0  0  0  0  0  0  0
   -0.6429   -3.3971    0.0000 C   0  0  0  0  0  0  0  0  0  0  0  0
   -1.5421   -2.2866    0.0000 C   0  0  0  0  0  0  0  0  0  0  0  0
    0.2564   -4.5076    0.0000 C   0  0  0  0  0  0  0  0  0  0  0  0
    0.2943    0.9058    0.0000 C   0  0  0  0  0  0  0  0  0  0  0  0
    4.3983   -0.0794    0.0000 C   0  0  0  0  0  0  0  0  0  0  0  0
    3.6014   -0.2929    0.0000 C   0  0  0  0  0  0  0  0  0  0  0  0
    1.8636    1.4158    0.0000 C   0  0  0  0  0  0  0  0  0  0  0  0
    0.5229   -0.6031    0.0000 C   0  0  0  0  0  0  0  0  0  0  0  0
    4.9816   -0.6628    0.0000 C   0  0  0  0  0  0  0  0  0  0  0  0
    0.4658    1.7128    0.0000 C   0  0  0  0  0  0  0  0  0  0  0  0
    0.9074    0.3538    0.0000 C   0  0  0  0  0  0  0  0  0  0  0  0
    4.6118    0.7175    0.0000 C   0  0  0  0  0  0  0  0  0  0  0  0
    1.2505    1.9677    0.0000 C   0  0  0  0  0  0  0  0  0  0  0  0
    1.6920    0.6087    0.0000 C   0  0  0  0  0  0  0  0  0  0  0  0
   -1.0406    0.9058    0.0000 C   0  0  3  0  0  0  0  0  0  0  0  0
   -0.7856    0.1212    0.0000 C   0  0  0  0  0  0  0  0  0  0  0  0
   -1.8252    1.1608    0.0000 C   0  0  0  0  0  0  0  0  0  0  0  0
   -2.4085    0.5774    0.0000 C   0  0  0  0  0  0  0  0  0  0  0  0
  1 29  1  0  0  0  0
  2 29  1  0  0  0  0
  3 29  1  0  0  0  0
  4 30  1  0  0  0  0
  5 30  1  0  0  0  0
  6 30  1  0  0  0  0
  7 36  1  0  0  0  0
  8 36  1  0  0  0  0
  9 36  1  0  0  0  0
 17 10  1  6  0  0  0
 10 20  1  0  0  0  0
 11 31  1  0  0  0  0
 11 42  1  0  0  0  0
 12 20  2  0  0  0  0
 13 31  1  0  0  0  0
 13 43  1  0  0  0  0
 14 18  1  0  0  0  0
 14 20  1  0  0  0  0
 14 26  1  0  0  0  0
 15 27  1  0  0  0  0
 15 34  1  0  0  0  0
 16 27  2  0  0  0  0
 16 39  1  0  0  0  0
 17 18  1  0  0  0  0
 17 19  1  0  0  0  0
 18 35  1  6  0  0  0
 19 24  2  0  0  0  0
 19 25  1  0  0  0  0
 21 25  2  0  0  0  0
 21 28  1  0  0  0  0
 21 29  1  0  0  0  0
 22 24  1  0  0  0  0
 22 28  2  0  0  0  0
 22 30  1  0  0  0  0
 23 26  1  0  0  0  0
 23 27  1  0  0  0  0
 23 33  2  0  0  0  0
 31 37  1  0  0  0  0
 31 38  1  0  0  0  0
 32 33  1  0  0  0  0
 32 36  1  0  0  0  0
 32 39  2  0  0  0  0
 34 40  1  0  0  0  0
 34 41  1  0  0  0  0
 37 40  1  0  0  0  0
 38 41  1  0  0  0  0
 42 43  1  0  0  0  0
 42 44  1  0  0  0  0
 44 45  1  0  0  0  0
M  END
> <PUBCHEM_COMPOUND_ID_TYPE>
0

> <PUBCHEM_TOTAL_CHARGE>
0

> <PUBCHEM_SUBSTANCE_ID>
310937623

> <PUBCHEM_SUBSTANCE_VERSION>
1

> <PUBCHEM_EXT_DATASOURCE_NAME>
4488

> <PUBCHEM_EXT_DATASOURCE_REGID>
SCHEMBL16115406

> <PUBCHEM_SUBSTANCE_COMMENT>
InChI=1S/C29H30F9N3O4/c1-3-22-14-43-26(45-22)6-4-21(5-7-26)40-24-17(10-20(12-39-24)29(36,37)38)13-41-15(2)23(44-25(41)42)16-8-18(27(30,31)32)11-19(9-16)28(33,34)35/h8-12,15,21-23H,3-7,13-14H2,1-2H3,(H,39,40)/t15-,21?,22?,23-,26?/m0/s1
InChIKey=SQTRYDBISMPIKZ-WFINZBMBSA-N

> <PUBCHEM_SUBSTANCE_SYNONYM>
SCHEMBL16115406

> <PUBCHEM_XREF_EXT_ID>
SCHEMBL16115406

> <PUBCHEM_EXT_DATASOURCE_URL>
https://www.surechembl.org/

> <PUBCHEM_EXT_SUBSTANCE_URL>
https://www.surechembl.org/chemical/SCHEMBL16115406

> <PUBCHEM_CID_ASSOCIATIONS>
117605322  1

> <PUBCHEM_COORDINATE_TYPE>
1
3

> <PUBCHEM_BONDANNOTATIONS>
17  10  6
18  35  6

$$$$
