310938774
  -OEChem-07211613022D

 23 23  0     0  0  0  0  0  0999 V2000
    6.0730   -0.8250    0.0000 S   0  0  0  0  0  0  0  0  0  0  0  0
   -6.0730   -0.4125    0.0000 O   0  0  0  0  0  0  0  0  0  0  0  0
   -6.7875    0.8250    0.0000 O   0  0  0  0  0  0  0  0  0  0  0  0
    6.7875    0.4125    0.0000 N   0  0  0  0  0  0  0  0  0  0  0  0
    5.3585    0.4125    0.0000 C   0  0  0  0  0  0  0  0  0  0  0  0
    5.3585   -0.4125    0.0000 C   0  0  0  0  0  0  0  0  0  0  0  0
    4.6441    0.8250    0.0000 C   0  0  0  0  0  0  0  0  0  0  0  0
    6.7875   -0.4125    0.0000 C   0  0  0  0  0  0  0  0  0  0  0  0
    3.9296    0.4125    0.0000 C   0  0  0  0  0  0  0  0  0  0  0  0
    3.2151    0.8250    0.0000 C   0  0  0  0  0  0  0  0  0  0  0  0
    2.5006    0.4125    0.0000 C   0  0  0  0  0  0  0  0  0  0  0  0
    1.7862    0.8250    0.0000 C   0  0  0  0  0  0  0  0  0  0  0  0
   -6.0730    0.4125    0.0000 C   0  0  0  0  0  0  0  0  0  0  0  0
   -5.3585    0.8250    0.0000 C   0  0  0  0  0  0  0  0  0  0  0  0
   -4.6441    0.4125    0.0000 C   0  0  0  0  0  0  0  0  0  0  0  0
    1.0717    0.4125    0.0000 C   0  0  0  0  0  0  0  0  0  0  0  0
   -3.9296    0.8250    0.0000 C   0  0  0  0  0  0  0  0  0  0  0  0
   -3.2151    0.4125    0.0000 C   0  0  0  0  0  0  0  0  0  0  0  0
    0.3572    0.8250    0.0000 C   0  0  0  0  0  0  0  0  0  0  0  0
   -2.5006    0.8250    0.0000 C   0  0  0  0  0  0  0  0  0  0  0  0
   -1.7862    0.4125    0.0000 C   0  0  0  0  0  0  0  0  0  0  0  0
   -0.3572    0.4125    0.0000 C   0  0  0  0  0  0  0  0  0  0  0  0
   -1.0717    0.8250    0.0000 C   0  0  0  0  0  0  0  0  0  0  0  0
  1  6  1  0  0  0  0
  1  8  1  0  0  0  0
  2 13  2  0  0  0  0
  3 13  1  0  0  0  0
  4  5  1  0  0  0  0
  4  8  2  0  0  0  0
  5  6  2  0  0  0  0
  5  7  1  0  0  0  0
  7  9  1  0  0  0  0
  9 10  1  0  0  0  0
 10 11  1  0  0  0  0
 11 12  1  0  0  0  0
 12 16  1  0  0  0  0
 13 14  1  0  0  0  0
 14 15  1  0  0  0  0
 15 17  1  0  0  0  0
 16 19  1  0  0  0  0
 17 18  1  0  0  0  0
 18 20  1  0  0  0  0
 19 22  1  0  0  0  0
 20 21  1  0  0  0  0
 21 23  1  0  0  0  0
 22 23  1  0  0  0  0
M  END
> <PUBCHEM_COMPOUND_ID_TYPE>
0

> <PUBCHEM_TOTAL_CHARGE>
0

> <PUBCHEM_SUBSTANCE_ID>
310938774

> <PUBCHEM_SUBSTANCE_VERSION>
1

> <PUBCHEM_EXT_DATASOURCE_NAME>
4488

> <PUBCHEM_EXT_DATASOURCE_REGID>
SCHEMBL16116690

> <PUBCHEM_SUBSTANCE_COMMENT>
InChI=1S/C19H33NO2S/c21-19(22)15-13-11-9-7-5-3-1-2-4-6-8-10-12-14-18-16-23-17-20-18/h16-17H,1-15H2,(H,21,22)
InChIKey=MXGFNEFLXCFFMD-UHFFFAOYSA-N

> <PUBCHEM_SUBSTANCE_SYNONYM>
SCHEMBL16116690

> <PUBCHEM_XREF_EXT_ID>
SCHEMBL16116690

> <PUBCHEM_EXT_DATASOURCE_URL>
https://www.surechembl.org/

> <PUBCHEM_EXT_SUBSTANCE_URL>
https://www.surechembl.org/chemical/SCHEMBL16116690

> <PUBCHEM_CID_ASSOCIATIONS>
117606186  1

> <PUBCHEM_COORDINATE_TYPE>
1
3

$$$$
