310945052
  -OEChem-07211613022D

 32 37  0     0  0  0  0  0  0999 V2000
   -0.1398   -0.7897    0.0000 O   0  0  0  0  0  0  0  0  0  0  0  0
    4.7519    1.4186    0.0000 O   0  0  0  0  0  0  0  0  0  0  0  0
   -3.8993   -0.2446    0.0000 O   0  0  0  0  0  0  0  0  0  0  0  0
    2.9210    0.1747    0.0000 N   0  0  0  0  0  0  0  0  0  0  0  0
    4.5981    0.0070    0.0000 N   0  0  0  0  0  0  0  0  0  0  0  0
   -0.8246    0.3564    0.0000 N   0  0  0  0  0  0  0  0  0  0  0  0
   -2.6554    0.4542    0.0000 N   0  0  0  0  0  0  0  0  0  0  0  0
    3.2564   -0.5660    0.0000 C   0  0  0  0  0  0  0  0  0  0  0  0
    2.1104    0.4542    0.0000 C   0  0  0  0  0  0  0  0  0  0  0  0
    3.4101    0.8596    0.0000 C   0  0  0  0  0  0  0  0  0  0  0  0
    2.1244    1.2648    0.0000 C   0  0  0  0  0  0  0  0  0  0  0  0
    2.9070    1.5024    0.0000 C   0  0  0  0  0  0  0  0  0  0  0  0
    4.2348    0.7477    0.0000 C   0  0  0  0  0  0  0  0  0  0  0  0
    4.0950   -0.6499    0.0000 C   0  0  0  0  0  0  0  0  0  0  0  0
    2.4458   -0.6918    0.0000 C   0  0  0  0  0  0  0  0  0  0  0  0
    3.3962   -1.3627    0.0000 C   0  0  0  0  0  0  0  0  0  0  0  0
    1.4116    0.0349    0.0000 C   0  0  0  0  0  0  0  0  0  0  0  0
    0.6709    0.4403    0.0000 C   0  0  0  0  0  0  0  0  0  0  0  0
   -0.0559    0.0349    0.0000 C   0  0  0  0  0  0  0  0  0  0  0  0
    2.5996   -1.5024    0.0000 C   0  0  0  0  0  0  0  0  0  0  0  0
    1.3836    1.6562    0.0000 C   0  0  0  0  0  0  0  0  0  0  0  0
   -1.3976   -0.2586    0.0000 C   0  0  0  0  0  0  0  0  0  0  0  0
   -0.9784   -0.9574    0.0000 C   0  0  0  0  0  0  0  0  0  0  0  0
    0.6848    1.2648    0.0000 C   0  0  0  0  0  0  0  0  0  0  0  0
   -2.2361   -0.2446    0.0000 C   0  0  0  0  0  0  0  0  0  0  0  0
   -2.6554   -0.9434    0.0000 C   0  0  0  0  0  0  0  0  0  0  0  0
   -1.3976   -1.6562    0.0000 C   0  0  0  0  0  0  0  0  0  0  0  0
   -2.2361   -1.6562    0.0000 C   0  0  0  0  0  0  0  0  0  0  0  0
   -3.4800    0.4822    0.0000 C   0  0  0  0  0  0  0  0  0  0  0  0
   -3.5080   -0.9713    0.0000 C   0  0  0  0  0  0  0  0  0  0  0  0
   -3.8993    1.1670    0.0000 C   0  0  0  0  0  0  0  0  0  0  0  0
   -4.7519    1.0831    0.0000 C   0  0  0  0  0  0  0  0  0  0  0  0
  1 19  1  0  0  0  0
  1 23  1  0  0  0  0
  2 13  2  0  0  0  0
  3 29  2  0  0  0  0
  4  8  1  0  0  0  0
  4  9  1  0  0  0  0
  4 10  1  0  0  0  0
  5 13  1  0  0  0  0
  5 14  1  0  0  0  0
  6 19  2  0  0  0  0
  6 22  1  0  0  0  0
  7 25  1  0  0  0  0
  7 29  1  0  0  0  0
  8 14  1  0  0  0  0
  8 15  1  0  0  0  0
  8 16  1  0  0  0  0
  9 11  1  0  0  0  0
  9 17  2  0  0  0  0
 10 12  2  0  0  0  0
 10 13  1  0  0  0  0
 11 12  1  0  0  0  0
 11 21  2  0  0  0  0
 15 20  1  0  0  0  0
 16 20  1  0  0  0  0
 17 18  1  0  0  0  0
 18 19  1  0  0  0  0
 18 24  2  0  0  0  0
 21 24  1  0  0  0  0
 22 23  2  0  0  0  0
 22 25  1  0  0  0  0
 23 27  1  0  0  0  0
 25 26  2  0  0  0  0
 26 28  1  0  0  0  0
 26 30  1  0  0  0  0
 27 28  2  0  0  0  0
 29 31  1  0  0  0  0
 31 32  2  0  0  0  0
M  END
> <PUBCHEM_COMPOUND_ID_TYPE>
0

> <PUBCHEM_TOTAL_CHARGE>
0

> <PUBCHEM_SUBSTANCE_ID>
310945052

> <PUBCHEM_SUBSTANCE_VERSION>
1

> <PUBCHEM_EXT_DATASOURCE_NAME>
4488

> <PUBCHEM_EXT_DATASOURCE_REGID>
SCHEMBL16123140

> <PUBCHEM_SUBSTANCE_COMMENT>
InChI=1S/C25H22N4O3/c1-3-20(30)27-21-14(2)5-8-19-22(21)28-24(32-19)16-7-6-15-11-18-23(31)26-13-25(9-4-10-25)29(18)17(15)12-16/h3,5-8,11-12H,1,4,9-10,13H2,2H3,(H,26,31)(H,27,30)
InChIKey=IBSIOGTXBJVBJG-UHFFFAOYSA-N

> <PUBCHEM_SUBSTANCE_SYNONYM>
SCHEMBL16123140

> <PUBCHEM_XREF_EXT_ID>
SCHEMBL16123140

> <PUBCHEM_EXT_DATASOURCE_URL>
https://www.surechembl.org/

> <PUBCHEM_EXT_SUBSTANCE_URL>
https://www.surechembl.org/chemical/SCHEMBL16123140

> <PUBCHEM_CID_ASSOCIATIONS>
117611175  1

> <PUBCHEM_COORDINATE_TYPE>
1
3

$$$$
