310933422
  -OEChem-07211613022D

 30 34  0     0  0  0  0  0  0999 V2000
    0.0000   -4.9738    0.0000 O   0  0  0  0  0  0  0  0  0  0  0  0
    5.5196   -3.8820    0.0000 O   0  0  0  0  0  0  0  0  0  0  0  0
    0.0606    0.0000    0.0000 O   0  0  0  0  0  0  0  0  0  0  0  0
    4.2156   -3.2451    0.0000 N   0  0  0  0  0  0  0  0  0  0  0  0
    4.2156   -4.5492    0.0000 N   0  0  0  0  0  0  0  0  0  0  0  0
    0.3943   -5.7016    0.0000 N   0  0  0  0  0  0  0  0  0  0  0  0
    1.3648   -0.4852    0.0000 N   0  0  0  0  0  0  0  0  0  0  0  0
    2.7295   -3.0631    0.0000 C   0  0  0  0  0  0  0  0  0  0  0  0
    3.4271   -3.4574    0.0000 C   0  0  0  0  0  0  0  0  0  0  0  0
    2.7295   -2.2139    0.0000 C   0  0  0  0  0  0  0  0  0  0  0  0
    3.4271   -4.3065    0.0000 C   0  0  0  0  0  0  0  0  0  0  0  0
    2.0017   -4.2762    0.0000 C   0  0  0  0  0  0  0  0  0  0  0  0
    2.0320   -3.4271    0.0000 C   0  0  0  0  0  0  0  0  0  0  0  0
    2.0017   -1.7893    0.0000 C   0  0  0  0  0  0  0  0  0  0  0  0
    1.3041   -4.7008    0.0000 C   0  0  0  0  0  0  0  0  0  0  0  0
    2.6992   -4.7008    0.0000 C   0  0  0  0  0  0  0  0  0  0  0  0
    3.4271   -1.7893    0.0000 C   0  0  0  0  0  0  0  0  0  0  0  0
    2.0017   -1.0008    0.0000 C   0  0  0  0  0  0  0  0  0  0  0  0
    4.7008   -3.8820    0.0000 C   0  0  0  0  0  0  0  0  0  0  0  0
    0.5459   -4.3672    0.0000 C   0  0  0  0  0  0  0  0  0  0  0  0
    1.2131   -5.5196    0.0000 C   0  0  0  0  0  0  0  0  0  0  0  0
    3.4271   -1.0008    0.0000 C   0  0  0  0  0  0  0  0  0  0  0  0
    1.3648   -2.3049    0.0000 C   0  0  0  0  0  0  0  0  0  0  0  0
    2.7295   -0.5763    0.0000 C   0  0  0  0  0  0  0  0  0  0  0  0
    4.1549   -2.1836    0.0000 C   0  0  0  0  0  0  0  0  0  0  0  0
    0.5459   -0.6369    0.0000 C   0  0  0  0  0  0  0  0  0  0  0  0
    0.5459   -2.1533    0.0000 C   0  0  0  0  0  0  0  0  0  0  0  0
    0.3639   -3.5484    0.0000 C   0  0  0  0  0  0  0  0  0  0  0  0
    1.8197   -6.0656    0.0000 C   0  0  0  0  0  0  0  0  0  0  0  0
    0.1820   -1.3951    0.0000 C   0  0  0  0  0  0  0  0  0  0  0  0
  1  6  1  0  0  0  0
  1 20  1  0  0  0  0
  2 19  2  0  0  0  0
  3 26  2  0  0  0  0
  4  9  1  0  0  0  0
  4 19  1  0  0  0  0
  5 11  1  0  0  0  0
  5 19  1  0  0  0  0
  6 21  2  0  0  0  0
  7 18  1  0  0  0  0
  7 26  1  0  0  0  0
  8  9  1  0  0  0  0
  8 10  1  0  0  0  0
  8 13  2  0  0  0  0
  9 11  2  0  0  0  0
 10 14  1  0  0  0  0
 10 17  2  0  0  0  0
 11 16  1  0  0  0  0
 12 13  1  0  0  0  0
 12 15  1  0  0  0  0
 12 16  2  0  0  0  0
 14 18  2  0  0  0  0
 14 23  1  0  0  0  0
 15 20  2  0  0  0  0
 15 21  1  0  0  0  0
 17 22  1  0  0  0  0
 17 25  1  0  0  0  0
 18 24  1  0  0  0  0
 20 28  1  0  0  0  0
 21 29  1  0  0  0  0
 22 24  2  0  0  0  0
 23 27  1  0  0  0  0
 26 30  1  0  0  0  0
 27 30  1  0  0  0  0
M  END
> <PUBCHEM_COMPOUND_ID_TYPE>
0

> <PUBCHEM_TOTAL_CHARGE>
0

> <PUBCHEM_SUBSTANCE_ID>
310933422

> <PUBCHEM_SUBSTANCE_VERSION>
1

> <PUBCHEM_EXT_DATASOURCE_NAME>
4488

> <PUBCHEM_EXT_DATASOURCE_REGID>
SCHEMBL16110839

> <PUBCHEM_SUBSTANCE_COMMENT>
InChI=1S/C23H22N4O3/c1-11-7-8-17-15(5-4-6-19(28)24-17)20(11)16-9-14(21-12(2)27-30-13(21)3)10-18-22(16)26-23(29)25-18/h7-10H,4-6H2,1-3H3,(H,24,28)(H2,25,26,29)
InChIKey=WCGCIBVEZCMPCZ-UHFFFAOYSA-N

> <PUBCHEM_SUBSTANCE_SYNONYM>
SCHEMBL16110839

> <PUBCHEM_XREF_EXT_ID>
SCHEMBL16110839

> <PUBCHEM_EXT_DATASOURCE_URL>
https://www.surechembl.org/

> <PUBCHEM_EXT_SUBSTANCE_URL>
https://www.surechembl.org/chemical/SCHEMBL16110839

> <PUBCHEM_CID_ASSOCIATIONS>
117601826  1

> <PUBCHEM_COORDINATE_TYPE>
1
3

$$$$
