310941592
  -OEChem-07211613022D

 26 29  0     0  0  0  0  0  0999 V2000
    0.3955    1.7542    0.0000 S   0  0  0  0  0  0  0  0  0  0  0  0
   -3.3708   -1.7542    0.0000 F   0  0  0  0  0  0  0  0  0  0  0  0
   -1.9262   -0.9115    0.0000 O   0  0  0  0  0  0  0  0  0  0  0  0
   -0.4815   -0.9115    0.0000 O   0  0  0  0  0  0  0  0  0  0  0  0
    3.2677    0.7911    0.0000 O   0  0  0  0  0  0  0  0  0  0  0  0
    0.2408    0.4127    0.0000 N   0  0  0  0  0  0  0  0  0  0  0  0
    1.6338    0.9459    0.0000 N   0  0  0  0  0  0  0  0  0  0  0  0
   -1.2039    0.3439    0.0000 C   0  0  0  0  0  0  0  0  0  0  0  0
   -0.5159    0.7567    0.0000 C   0  0  0  0  0  0  0  0  0  0  0  0
   -2.6485   -0.4815    0.0000 C   0  0  0  0  0  0  0  0  0  0  0  0
   -2.6313    0.3268    0.0000 C   0  0  0  0  0  0  0  0  0  0  0  0
   -1.2383   -0.4815    0.0000 C   0  0  0  0  0  0  0  0  0  0  0  0
   -1.9434    0.7567    0.0000 C   0  0  0  0  0  0  0  0  0  0  0  0
    0.7911    1.0491    0.0000 C   0  0  0  0  0  0  0  0  0  0  0  0
   -3.3537   -0.9115    0.0000 C   0  0  0  0  0  0  0  0  0  0  0  0
   -0.4127    1.5650    0.0000 C   0  0  0  0  0  0  0  0  0  0  0  0
   -3.3880    0.7223    0.0000 C   0  0  0  0  0  0  0  0  0  0  0  0
    1.9778    0.2064    0.0000 C   0  0  0  0  0  0  0  0  0  0  0  0
   -4.0760   -0.4988    0.0000 C   0  0  0  0  0  0  0  0  0  0  0  0
   -4.0588    0.3268    0.0000 C   0  0  0  0  0  0  0  0  0  0  0  0
    2.8033    0.1032    0.0000 C   0  0  0  0  0  0  0  0  0  0  0  0
    1.5134   -0.4643    0.0000 C   0  0  0  0  0  0  0  0  0  0  0  0
    3.1300   -0.6535    0.0000 C   0  0  0  0  0  0  0  0  0  0  0  0
    1.8402   -1.2211    0.0000 C   0  0  0  0  0  0  0  0  0  0  0  0
    2.6485   -1.3242    0.0000 C   0  0  0  0  0  0  0  0  0  0  0  0
    4.0760    0.7395    0.0000 C   0  0  0  0  0  0  0  0  0  0  0  0
  1 14  1  0  0  0  0
  1 16  1  0  0  0  0
  2 15  1  0  0  0  0
  3 10  1  0  0  0  0
  3 12  1  0  0  0  0
  4 12  2  0  0  0  0
  5 21  1  0  0  0  0
  5 26  1  0  0  0  0
  6  9  1  0  0  0  0
  6 14  2  0  0  0  0
  7 14  1  0  0  0  0
  7 18  1  0  0  0  0
  8  9  1  0  0  0  0
  8 12  1  0  0  0  0
  8 13  2  0  0  0  0
  9 16  2  0  0  0  0
 10 11  1  0  0  0  0
 10 15  2  0  0  0  0
 11 13  1  0  0  0  0
 11 17  2  0  0  0  0
 15 19  1  0  0  0  0
 17 20  1  0  0  0  0
 18 21  1  0  0  0  0
 18 22  2  0  0  0  0
 19 20  2  0  0  0  0
 21 23  2  0  0  0  0
 22 24  1  0  0  0  0
 23 25  1  0  0  0  0
 24 25  2  0  0  0  0
M  END
> <PUBCHEM_COMPOUND_ID_TYPE>
0

> <PUBCHEM_TOTAL_CHARGE>
0

> <PUBCHEM_SUBSTANCE_ID>
310941592

> <PUBCHEM_SUBSTANCE_VERSION>
1

> <PUBCHEM_EXT_DATASOURCE_NAME>
4488

> <PUBCHEM_EXT_DATASOURCE_REGID>
SCHEMBL16119623

> <PUBCHEM_SUBSTANCE_COMMENT>
InChI=1S/C19H13FN2O3S/c1-24-16-8-3-2-7-14(16)21-19-22-15(10-26-19)12-9-11-5-4-6-13(20)17(11)25-18(12)23/h2-10H,1H3,(H,21,22)
InChIKey=MGIJTVNZXHPTSX-UHFFFAOYSA-N

> <PUBCHEM_SUBSTANCE_SYNONYM>
SCHEMBL16119623

> <PUBCHEM_XREF_EXT_ID>
SCHEMBL16119623

> <PUBCHEM_EXT_DATASOURCE_URL>
https://www.surechembl.org/

> <PUBCHEM_EXT_SUBSTANCE_URL>
https://www.surechembl.org/chemical/SCHEMBL16119623

> <PUBCHEM_CID_ASSOCIATIONS>
117608393  1

> <PUBCHEM_COORDINATE_TYPE>
1
3

$$$$
