310932738
  -OEChem-07211613022D

 16 16  0     0  0  0  0  0  0999 V2000
    4.3065   -2.0625    0.0000 Br  0  0  0  0  0  0  0  0  0  0  0  0
    0.7260   -2.4750    0.0000 S   0  0  0  0  0  0  0  0  0  0  0  0
    0.0165   -2.0460    0.0000 F   0  0  0  0  0  0  0  0  0  0  0  0
    0.7260   -3.3000    0.0000 F   0  0  0  0  0  0  0  0  0  0  0  0
    0.7260   -1.6500    0.0000 F   0  0  0  0  0  0  0  0  0  0  0  0
    1.4355   -2.9040    0.0000 F   0  0  0  0  0  0  0  0  0  0  0  0
    0.0000   -2.8875    0.0000 F   0  0  0  0  0  0  0  0  0  0  0  0
    3.5805    0.0000    0.0000 O   0  0  0  0  0  0  0  0  0  0  0  0
    1.4355   -2.0625    0.0000 C   0  0  0  0  0  0  0  0  0  0  0  0
    2.1450   -2.4915    0.0000 C   0  0  0  0  0  0  0  0  0  0  0  0
    1.4355   -1.2375    0.0000 C   0  0  0  0  0  0  0  0  0  0  0  0
    2.8710   -1.2375    0.0000 C   0  0  0  0  0  0  0  0  0  0  0  0
    2.8545   -2.0790    0.0000 C   0  0  0  0  0  0  0  0  0  0  0  0
    2.1450   -0.8250    0.0000 C   0  0  0  0  0  0  0  0  0  0  0  0
    3.5805   -0.8250    0.0000 C   0  0  0  0  0  0  0  0  0  0  0  0
    4.3065   -1.2375    0.0000 C   0  0  0  0  0  0  0  0  0  0  0  0
  1 16  1  0  0  0  0
  2  3  1  0  0  0  0
  2  4  1  0  0  0  0
  2  5  1  0  0  0  0
  2  6  1  0  0  0  0
  2  7  1  0  0  0  0
  2  9  1  0  0  0  0
  8 15  2  0  0  0  0
  9 10  2  0  0  0  0
  9 11  1  0  0  0  0
 10 13  1  0  0  0  0
 11 14  2  0  0  0  0
 12 13  2  0  0  0  0
 12 14  1  0  0  0  0
 12 15  1  0  0  0  0
 15 16  1  0  0  0  0
M  END
> <PUBCHEM_COMPOUND_ID_TYPE>
0

> <PUBCHEM_TOTAL_CHARGE>
0

> <PUBCHEM_SUBSTANCE_ID>
310932738

> <PUBCHEM_SUBSTANCE_VERSION>
1

> <PUBCHEM_EXT_DATASOURCE_NAME>
4488

> <PUBCHEM_EXT_DATASOURCE_REGID>
SCHEMBL16110122

> <PUBCHEM_SUBSTANCE_COMMENT>
InChI=1S/C8H6BrF5OS/c9-5-8(15)6-1-3-7(4-2-6)16(10,11,12,13)14/h1-4H,5H2
InChIKey=CRCJSDPWIPPVGQ-UHFFFAOYSA-N

> <PUBCHEM_SUBSTANCE_SYNONYM>
SCHEMBL16110122

> <PUBCHEM_XREF_EXT_ID>
SCHEMBL16110122

> <PUBCHEM_EXT_DATASOURCE_URL>
https://www.surechembl.org/

> <PUBCHEM_EXT_SUBSTANCE_URL>
https://www.surechembl.org/chemical/SCHEMBL16110122

> <PUBCHEM_CID_ASSOCIATIONS>
117601242  1

> <PUBCHEM_COORDINATE_TYPE>
1
3

$$$$
