310934074
  -OEChem-07211613022D

 33 37  0     0  0  0  0  0  0999 V2000
    7.7995   -1.8430    0.0000 Cl  0  0  0  0  0  0  0  0  0  0  0  0
    1.4157    0.0000    0.0000 O   0  0  0  0  0  0  0  0  0  0  0  0
    5.7695   -2.4574    0.0000 O   0  0  0  0  0  0  0  0  0  0  0  0
    0.6945   -1.2287    0.0000 O   0  0  0  0  0  0  0  0  0  0  0  0
    2.8313    0.0000    0.0000 N   0  0  0  0  0  0  0  0  0  0  0  0
    6.5708   -2.6444    0.0000 N   0  0  0  0  0  0  0  0  0  0  0  0
    2.8313   -1.6560    0.0000 C   0  0  0  0  0  0  0  0  0  0  0  0
    3.5525   -1.2287    0.0000 C   0  0  0  0  0  0  0  0  0  0  0  0
    2.1101   -1.2287    0.0000 C   0  0  0  0  0  0  0  0  0  0  0  0
    3.5525   -0.4007    0.0000 C   0  0  0  0  0  0  0  0  0  0  0  0
    2.1101   -0.4007    0.0000 C   0  0  0  0  0  0  0  0  0  0  0  0
    2.8313   -2.4574    0.0000 C   0  0  0  0  0  0  0  0  0  0  0  0
    4.2470   -1.6560    0.0000 C   0  0  0  0  0  0  0  0  0  0  0  0
    4.9682   -1.2287    0.0000 C   0  0  0  0  0  0  0  0  0  0  0  0
    1.4157   -1.6560    0.0000 C   0  0  0  0  0  0  0  0  0  0  0  0
    4.2470    0.0000    0.0000 C   0  0  0  0  0  0  0  0  0  0  0  0
    5.6893   -1.6560    0.0000 C   0  0  0  0  0  0  0  0  0  0  0  0
    4.9682   -0.4007    0.0000 C   0  0  0  0  0  0  0  0  0  0  0  0
    3.5525   -2.8847    0.0000 C   0  0  0  0  0  0  0  0  0  0  0  0
    2.1369   -2.8847    0.0000 C   0  0  0  0  0  0  0  0  0  0  0  0
    1.4157   -2.4574    0.0000 C   0  0  0  0  0  0  0  0  0  0  0  0
    6.4373   -1.3088    0.0000 C   0  0  0  0  0  0  0  0  0  0  0  0
    6.9715   -1.9232    0.0000 C   0  0  0  0  0  0  0  0  0  0  0  0
    3.5525   -3.6861    0.0000 C   0  0  0  0  0  0  0  0  0  0  0  0
    2.1369   -3.6861    0.0000 C   0  0  0  0  0  0  0  0  0  0  0  0
    0.6945   -2.8847    0.0000 C   0  0  0  0  0  0  0  0  0  0  0  0
    2.8313   -4.1134    0.0000 C   0  0  0  0  0  0  0  0  0  0  0  0
    0.6945   -3.6861    0.0000 C   0  0  0  0  0  0  0  0  0  0  0  0
    0.0000   -4.1134    0.0000 C   0  0  0  0  0  0  0  0  0  0  0  0
    1.4157   -4.1134    0.0000 C   0  0  0  0  0  0  0  0  0  0  0  0
    0.0000   -4.9415    0.0000 C   0  0  0  0  0  0  0  0  0  0  0  0
    1.4157   -4.9415    0.0000 C   0  0  0  0  0  0  0  0  0  0  0  0
    0.6945   -5.3421    0.0000 C   0  0  0  0  0  0  0  0  0  0  0  0
  1 23  1  0  0  0  0
  2 11  2  0  0  0  0
  3  6  1  0  0  0  0
  3 17  1  0  0  0  0
  4 15  2  0  0  0  0
  5 10  1  0  0  0  0
  5 11  1  0  0  0  0
  6 23  2  0  0  0  0
  7  8  1  0  0  0  0
  7  9  2  0  0  0  0
  7 12  1  0  0  0  0
  8 10  2  0  0  0  0
  8 13  1  0  0  0  0
  9 11  1  0  0  0  0
  9 15  1  0  0  0  0
 10 16  1  0  0  0  0
 12 19  2  0  0  0  0
 12 20  1  0  0  0  0
 13 14  2  0  0  0  0
 14 17  1  0  0  0  0
 14 18  1  0  0  0  0
 15 21  1  0  0  0  0
 16 18  2  0  0  0  0
 17 22  2  0  0  0  0
 19 24  1  0  0  0  0
 20 25  2  0  0  0  0
 21 26  2  0  0  0  0
 22 23  1  0  0  0  0
 24 27  2  0  0  0  0
 25 27  1  0  0  0  0
 26 28  1  0  0  0  0
 28 29  2  0  0  0  0
 28 30  1  0  0  0  0
 29 31  1  0  0  0  0
 30 32  2  0  0  0  0
 31 33  2  0  0  0  0
 32 33  1  0  0  0  0
M  END
> <PUBCHEM_COMPOUND_ID_TYPE>
0

> <PUBCHEM_TOTAL_CHARGE>
0

> <PUBCHEM_SUBSTANCE_ID>
310934074

> <PUBCHEM_SUBSTANCE_VERSION>
1

> <PUBCHEM_EXT_DATASOURCE_NAME>
4488

> <PUBCHEM_EXT_DATASOURCE_REGID>
SCHEMBL16111519

> <PUBCHEM_SUBSTANCE_COMMENT>
InChI=1S/C27H17ClN2O3/c28-24-16-23(33-30-24)19-12-13-21-20(15-19)25(18-9-5-2-6-10-18)26(27(32)29-21)22(31)14-11-17-7-3-1-4-8-17/h1-16H,(H,29,32)/b14-11+
InChIKey=XKMNNOSYMXPEIR-SDNWHVSQSA-N

> <PUBCHEM_SUBSTANCE_SYNONYM>
SCHEMBL16111519

> <PUBCHEM_XREF_EXT_ID>
SCHEMBL16111519

> <PUBCHEM_EXT_DATASOURCE_URL>
https://www.surechembl.org/

> <PUBCHEM_EXT_SUBSTANCE_URL>
https://www.surechembl.org/chemical/SCHEMBL16111519

> <PUBCHEM_CID_ASSOCIATIONS>
117602361  1

> <PUBCHEM_COORDINATE_TYPE>
1
3

$$$$
