310942078
  -OEChem-07211613022D

 26 27  0     1  0  0  0  0  0999 V2000
    1.0813    0.8188    0.0000 Cl  0  0  0  0  0  0  0  0  0  0  0  0
   -0.3563   -1.6689    0.0000 F   0  0  0  0  0  0  0  0  0  0  0  0
    1.0688   -0.8438    0.0000 O   0  0  0  0  0  0  0  0  0  0  0  0
   -1.0938    2.0689    0.0000 O   0  0  0  0  0  0  0  0  0  0  0  0
   -2.5189   -0.4187    0.0000 N   0  0  0  0  0  0  0  0  0  0  0  0
   -2.5189    2.0814    0.0000 N   0  0  0  0  0  0  0  0  0  0  0  0
   -3.2439    1.6564    0.0000 N   0  0  0  0  0  0  0  0  0  0  0  0
   -1.0938   -0.4187    0.0000 C   0  0  0  0  0  0  0  0  0  0  0  0
    0.3563   -0.4187    0.0000 C   0  0  0  0  0  0  0  0  0  0  0  0
   -0.3563   -0.8313    0.0000 C   0  0  0  0  0  0  0  0  0  0  0  0
    0.3688    0.4188    0.0000 C   0  0  0  0  0  0  0  0  0  0  0  0
   -1.7939   -0.8313    0.0000 C   0  0  3  0  0  0  0  0  0  0  0  0
   -1.0688    0.4063    0.0000 C   0  0  0  0  0  0  0  0  0  0  0  0
   -0.3563    0.8188    0.0000 C   0  0  0  0  0  0  0  0  0  0  0  0
    1.7939   -0.4187    0.0000 C   0  0  0  0  0  0  0  0  0  0  0  0
   -1.8063   -1.6813    0.0000 C   0  0  0  0  0  0  0  0  0  0  0  0
   -2.5189    0.4188    0.0000 C   0  0  3  0  0  0  0  0  0  0  0  0
    1.8189    0.4063    0.0000 C   0  0  0  0  0  0  0  0  0  0  0  0
    2.5314   -0.8313    0.0000 C   0  0  0  0  0  0  0  0  0  0  0  0
   -1.8063    0.8188    0.0000 C   0  0  0  0  0  0  0  0  0  0  0  0
    2.5314    0.8188    0.0000 C   0  0  0  0  0  0  0  0  0  0  0  0
    3.2439   -0.4187    0.0000 C   0  0  0  0  0  0  0  0  0  0  0  0
   -2.5064   -2.0814    0.0000 C   0  0  0  0  0  0  0  0  0  0  0  0
   -1.8189    1.6564    0.0000 C   0  0  0  0  0  0  0  0  0  0  0  0
    3.2439    0.4063    0.0000 C   0  0  0  0  0  0  0  0  0  0  0  0
   -3.2315    0.8313    0.0000 C   0  0  0  0  0  0  0  0  0  0  0  0
  1 11  1  0  0  0  0
  2 10  1  0  0  0  0
  3  9  1  0  0  0  0
  3 15  1  0  0  0  0
  4 24  2  0  0  0  0
 12  5  1  1  0  0  0
  5 17  1  0  0  0  0
  6  7  1  0  0  0  0
  6 24  1  0  0  0  0
  8 10  2  0  0  0  0
  8 12  1  0  0  0  0
  8 13  1  0  0  0  0
  9 10  1  0  0  0  0
  9 11  2  0  0  0  0
 11 14  1  0  0  0  0
 12 16  1  0  0  0  0
 13 14  2  0  0  0  0
 15 18  2  0  0  0  0
 15 19  1  0  0  0  0
 16 23  1  0  0  0  0
 17 20  1  0  0  0  0
 17 26  1  1  0  0  0
 18 21  1  0  0  0  0
 19 22  2  0  0  0  0
 20 24  1  0  0  0  0
 21 25  2  0  0  0  0
 22 25  1  0  0  0  0
M  END
> <PUBCHEM_COMPOUND_ID_TYPE>
0

> <PUBCHEM_TOTAL_CHARGE>
0

> <PUBCHEM_SUBSTANCE_ID>
310942078

> <PUBCHEM_SUBSTANCE_VERSION>
1

> <PUBCHEM_EXT_DATASOURCE_NAME>
4488

> <PUBCHEM_EXT_DATASOURCE_REGID>
SCHEMBL16120113

> <PUBCHEM_SUBSTANCE_COMMENT>
InChI=1S/C19H23ClFN3O2/c1-3-16(23-12(2)11-17(25)24-22)14-9-10-15(20)19(18(14)21)26-13-7-5-4-6-8-13/h4-10,12,16,23H,3,11,22H2,1-2H3,(H,24,25)/t12-,16+/m0/s1
InChIKey=LWJJPQFIPFWSFD-BLLLJJGKSA-N

> <PUBCHEM_SUBSTANCE_SYNONYM>
SCHEMBL16120113

> <PUBCHEM_XREF_EXT_ID>
SCHEMBL16120113

> <PUBCHEM_EXT_DATASOURCE_URL>
https://www.surechembl.org/

> <PUBCHEM_EXT_SUBSTANCE_URL>
https://www.surechembl.org/chemical/SCHEMBL16120113

> <PUBCHEM_CID_ASSOCIATIONS>
117608747  1

> <PUBCHEM_COORDINATE_TYPE>
1
3

> <PUBCHEM_BONDANNOTATIONS>
17  26  5
12  5  5

$$$$
