310939991
  -OEChem-07211613022D

 11 11  0     0  0  0  0  0  0999 V2000
  -10.7032   11.0554    0.0000 Cl  0  0  0  0  0  0  0  0  0  0  0  0
  -10.7032    9.4054    0.0000 Cl  0  0  0  0  0  0  0  0  0  0  0  0
   -7.8453   11.0554    0.0000 N   0  0  0  0  0  0  0  0  0  0  0  0
   -9.9888    9.8179    0.0000 C   0  0  0  0  0  0  0  0  0  0  0  0
   -9.9888   10.6429    0.0000 C   0  0  0  0  0  0  0  0  0  0  0  0
   -8.5598    9.8179    0.0000 C   0  0  0  0  0  0  0  0  0  0  0  0
   -8.5598   10.6429    0.0000 C   0  0  0  0  0  0  0  0  0  0  0  0
   -9.2743    9.4054    0.0000 C   0  0  0  0  0  0  0  0  0  0  0  0
   -9.2743   11.0554    0.0000 C   0  0  0  0  0  0  0  0  0  0  0  0
   -7.8453    9.4054    0.0000 C   0  0  0  0  0  0  0  0  0  0  0  0
   -7.1309    9.8179    0.0000 C   0  0  0  0  0  0  0  0  0  0  0  0
  1  5  1  0  0  0  0
  2  4  1  0  0  0  0
  3  7  1  0  0  0  0
  4  5  2  0  0  0  0
  4  8  1  0  0  0  0
  5  9  1  0  0  0  0
  6  7  1  0  0  0  0
  6  8  2  0  0  0  0
  6 10  1  0  0  0  0
  7  9  2  0  0  0  0
 10 11  2  0  0  0  0
M  END
> <PUBCHEM_COMPOUND_ID_TYPE>
0

> <PUBCHEM_TOTAL_CHARGE>
0

> <PUBCHEM_SUBSTANCE_ID>
310939991

> <PUBCHEM_SUBSTANCE_VERSION>
1

> <PUBCHEM_EXT_DATASOURCE_NAME>
4488

> <PUBCHEM_EXT_DATASOURCE_REGID>
SCHEMBL16117921

> <PUBCHEM_SUBSTANCE_COMMENT>
InChI=1S/C8H7Cl2N/c1-2-5-3-6(9)7(10)4-8(5)11/h2-4H,1,11H2
InChIKey=JFWUDSAWVYDXOA-UHFFFAOYSA-N

> <PUBCHEM_SUBSTANCE_SYNONYM>
SCHEMBL16117921

> <PUBCHEM_XREF_EXT_ID>
SCHEMBL16117921

> <PUBCHEM_EXT_DATASOURCE_URL>
https://www.surechembl.org/

> <PUBCHEM_EXT_SUBSTANCE_URL>
https://www.surechembl.org/chemical/SCHEMBL16117921

> <PUBCHEM_CID_ASSOCIATIONS>
117607154  1

> <PUBCHEM_COORDINATE_TYPE>
1
3

$$$$
