310949132
  -OEChem-07211613022D

 39 43  0     0  0  0  0  0  0999 V2000
    0.0209    1.5223    0.0000 N   0  0  0  0  0  0  0  0  0  0  0  0
    2.1438    1.0894    0.0000 N   0  0  0  0  0  0  0  0  0  0  0  0
   -2.1158    1.0614    0.0000 N   0  0  0  0  0  0  0  0  0  0  0  0
    0.6774    2.0530    0.0000 C   0  0  0  0  0  0  0  0  0  0  0  0
   -0.6913    2.0251    0.0000 C   0  0  0  0  0  0  0  0  0  0  0  0
    0.4259    2.8071    0.0000 C   0  0  0  0  0  0  0  0  0  0  0  0
   -0.4259    2.8071    0.0000 C   0  0  0  0  0  0  0  0  0  0  0  0
   -0.0209    0.7123    0.0000 C   0  0  0  0  0  0  0  0  0  0  0  0
    0.7332    0.3073    0.0000 C   0  0  0  0  0  0  0  0  0  0  0  0
   -0.7053    0.2793    0.0000 C   0  0  0  0  0  0  0  0  0  0  0  0
    0.9566    3.4216    0.0000 C   0  0  0  0  0  0  0  0  0  0  0  0
   -0.9706    3.3937    0.0000 C   0  0  0  0  0  0  0  0  0  0  0  0
    1.4874    1.8993    0.0000 C   0  0  0  0  0  0  0  0  0  0  0  0
   -1.5013    1.8575    0.0000 C   0  0  0  0  0  0  0  0  0  0  0  0
    1.7667    3.2680    0.0000 C   0  0  0  0  0  0  0  0  0  0  0  0
   -1.8086    3.2400    0.0000 C   0  0  0  0  0  0  0  0  0  0  0  0
    2.0320    2.4859    0.0000 C   0  0  0  0  0  0  0  0  0  0  0  0
   -2.0181    2.4580    0.0000 C   0  0  0  0  0  0  0  0  0  0  0  0
   -0.0070   -0.9636    0.0000 C   0  0  0  0  0  0  0  0  0  0  0  0
    0.7193   -0.5447    0.0000 C   0  0  0  0  0  0  0  0  0  0  0  0
   -0.6913   -0.5447    0.0000 C   0  0  0  0  0  0  0  0  0  0  0  0
    2.3253    3.9104    0.0000 C   0  0  0  0  0  0  0  0  0  0  0  0
   -2.3533    3.8686    0.0000 C   0  0  0  0  0  0  0  0  0  0  0  0
    1.4315    0.7123    0.0000 C   0  0  0  0  0  0  0  0  0  0  0  0
   -1.4176    0.6844    0.0000 C   0  0  0  0  0  0  0  0  0  0  0  0
   -0.0070   -1.8016    0.0000 C   0  0  0  0  0  0  0  0  0  0  0  0
    2.0739    4.6925    0.0000 C   0  0  0  0  0  0  0  0  0  0  0  0
    3.1633    3.7568    0.0000 C   0  0  0  0  0  0  0  0  0  0  0  0
    2.7862    3.2261    0.0000 C   0  0  0  0  0  0  0  0  0  0  0  0
   -3.1633    3.6591    0.0000 C   0  0  0  0  0  0  0  0  0  0  0  0
   -2.1158    4.6506    0.0000 C   0  0  0  0  0  0  0  0  0  0  0  0
   -1.5851    4.2317    0.0000 C   0  0  0  0  0  0  0  0  0  0  0  0
   -0.7193   -2.2345    0.0000 C   0  0  0  0  0  0  0  0  0  0  0  0
    0.6913   -2.2066    0.0000 C   0  0  0  0  0  0  0  0  0  0  0  0
   -0.6913   -3.0585    0.0000 C   0  0  0  0  0  0  0  0  0  0  0  0
    0.7053   -3.0445    0.0000 C   0  0  0  0  0  0  0  0  0  0  0  0
   -0.0209   -3.4496    0.0000 C   0  0  0  0  0  0  0  0  0  0  0  0
   -0.0209   -4.3154    0.0000 C   0  0  0  0  0  0  0  0  0  0  0  0
   -0.7611   -4.6925    0.0000 C   0  0  0  0  0  0  0  0  0  0  0  0
  1  4  1  0  0  0  0
  1  5  1  0  0  0  0
  1  8  1  0  0  0  0
  2 24  3  0  0  0  0
  3 25  3  0  0  0  0
  4  6  2  0  0  0  0
  4 13  1  0  0  0  0
  5  7  2  0  0  0  0
  5 14  1  0  0  0  0
  6  7  1  0  0  0  0
  6 11  1  0  0  0  0
  7 12  1  0  0  0  0
  8  9  2  0  0  0  0
  8 10  1  0  0  0  0
  9 20  1  0  0  0  0
  9 24  1  0  0  0  0
 10 21  2  0  0  0  0
 10 25  1  0  0  0  0
 11 15  2  0  0  0  0
 12 16  2  0  0  0  0
 13 17  2  0  0  0  0
 14 18  2  0  0  0  0
 15 17  1  0  0  0  0
 15 22  1  0  0  0  0
 16 18  1  0  0  0  0
 16 23  1  0  0  0  0
 19 20  2  0  0  0  0
 19 21  1  0  0  0  0
 19 26  1  0  0  0  0
 22 27  1  0  0  0  0
 22 28  1  0  0  0  0
 22 29  1  0  0  0  0
 23 30  1  0  0  0  0
 23 31  1  0  0  0  0
 23 32  1  0  0  0  0
 26 33  2  0  0  0  0
 26 34  1  0  0  0  0
 33 35  1  0  0  0  0
 34 36  2  0  0  0  0
 35 37  2  0  0  0  0
 36 37  1  0  0  0  0
 37 38  1  0  0  0  0
 38 39  2  0  0  0  0
M  END
> <PUBCHEM_COMPOUND_ID_TYPE>
0

> <PUBCHEM_TOTAL_CHARGE>
0

> <PUBCHEM_SUBSTANCE_ID>
310949132

> <PUBCHEM_SUBSTANCE_VERSION>
1

> <PUBCHEM_EXT_DATASOURCE_NAME>
4488

> <PUBCHEM_EXT_DATASOURCE_REGID>
SCHEMBL16127322

> <PUBCHEM_SUBSTANCE_COMMENT>
InChI=1S/C36H33N3/c1-8-23-9-11-24(12-10-23)25-17-26(21-37)34(27(18-25)22-38)39-32-15-13-28(35(2,3)4)19-30(32)31-20-29(36(5,6)7)14-16-33(31)39/h8-20H,1H2,2-7H3
InChIKey=XVFZIJMFMDEYGF-UHFFFAOYSA-N

> <PUBCHEM_SUBSTANCE_SYNONYM>
SCHEMBL16127322

> <PUBCHEM_XREF_EXT_ID>
SCHEMBL16127322

> <PUBCHEM_EXT_DATASOURCE_URL>
https://www.surechembl.org/

> <PUBCHEM_EXT_SUBSTANCE_URL>
https://www.surechembl.org/chemical/SCHEMBL16127322

> <PUBCHEM_CID_ASSOCIATIONS>
117614629  1

> <PUBCHEM_COORDINATE_TYPE>
1
3

$$$$
