310931812
  -OEChem-07211613022D

 29 31  0     0  0  0  0  0  0999 V2000
    2.8421   -2.1158    0.0000 O   0  0  0  0  0  0  0  0  0  0  0  0
    0.1263   -2.3684    0.0000 O   0  0  0  0  0  0  0  0  0  0  0  0
    7.3264   -2.2106    0.0000 O   0  0  0  0  0  0  0  0  0  0  0  0
    8.0527   -5.9053    0.0000 O   0  0  0  0  0  0  0  0  0  0  0  0
    3.7579   -0.9790    0.0000 N   0  0  0  0  0  0  0  0  0  0  0  0
    3.6632   -0.1579    0.0000 N   0  0  0  0  0  0  0  0  0  0  0  0
    5.1790   -0.9790    0.0000 N   0  0  0  0  0  0  0  0  0  0  0  0
    0.0000   -0.9790    0.0000 N   0  0  0  0  0  0  0  0  0  0  0  0
    6.6000   -3.4421    0.0000 N   0  0  0  0  0  0  0  0  0  0  0  0
    2.4316   -0.6947    0.0000 C   0  0  0  0  0  0  0  0  0  0  0  0
    3.0000   -1.2948    0.0000 C   0  0  0  0  0  0  0  0  0  0  0  0
    4.4527   -1.3895    0.0000 C   0  0  0  0  0  0  0  0  0  0  0  0
    1.6105   -0.7895    0.0000 C   0  0  0  0  0  0  0  0  0  0  0  0
    2.8421    0.0000    0.0000 C   0  0  0  0  0  0  0  0  0  0  0  0
    4.4527   -2.2106    0.0000 C   0  0  0  0  0  0  0  0  0  0  0  0
    1.2948   -1.5790    0.0000 C   0  0  0  0  0  0  0  0  0  0  0  0
    1.1684   -0.1579    0.0000 C   0  0  0  0  0  0  0  0  0  0  0  0
    5.8738   -2.2106    0.0000 C   0  0  0  0  0  0  0  0  0  0  0  0
    0.4737   -1.6422    0.0000 C   0  0  0  0  0  0  0  0  0  0  0  0
    5.8738   -1.3895    0.0000 C   0  0  0  0  0  0  0  0  0  0  0  0
    5.1790   -2.6211    0.0000 C   0  0  0  0  0  0  0  0  0  0  0  0
    6.6000   -2.6211    0.0000 C   0  0  0  0  0  0  0  0  0  0  0  0
    0.3158   -0.2211    0.0000 C   0  0  0  0  0  0  0  0  0  0  0  0
    7.3264   -3.8526    0.0000 C   0  0  0  0  0  0  0  0  0  0  0  0
    0.6000   -3.0316    0.0000 C   0  0  0  0  0  0  0  0  0  0  0  0
    7.3264   -4.6737    0.0000 C   0  0  0  0  0  0  0  0  0  0  0  0
    8.0527   -5.0843    0.0000 C   0  0  0  0  0  0  0  0  0  0  0  0
    8.7475   -6.3159    0.0000 C   0  0  0  0  0  0  0  0  0  0  0  0
    9.4738   -5.9053    0.0000 C   0  0  0  0  0  0  0  0  0  0  0  0
  1 11  1  0  0  0  0
  2 19  1  0  0  0  0
  2 25  1  0  0  0  0
  3 22  2  0  0  0  0
  4 27  1  0  0  0  0
  4 28  1  0  0  0  0
  5  6  1  0  0  0  0
  5 11  1  0  0  0  0
  5 12  1  0  0  0  0
  6 14  2  0  0  0  0
  7 12  2  0  0  0  0
  7 20  1  0  0  0  0
  8 19  1  0  0  0  0
  8 23  2  0  0  0  0
  9 22  1  0  0  0  0
  9 24  1  0  0  0  0
 10 11  2  0  0  0  0
 10 13  1  0  0  0  0
 10 14  1  0  0  0  0
 12 15  1  0  0  0  0
 13 16  1  0  0  0  0
 13 17  2  0  0  0  0
 15 21  2  0  0  0  0
 16 19  2  0  0  0  0
 17 23  1  0  0  0  0
 18 20  2  0  0  0  0
 18 21  1  0  0  0  0
 18 22  1  0  0  0  0
 24 26  1  0  0  0  0
 26 27  1  0  0  0  0
 28 29  1  0  0  0  0
M  END
> <PUBCHEM_COMPOUND_ID_TYPE>
0

> <PUBCHEM_TOTAL_CHARGE>
0

> <PUBCHEM_SUBSTANCE_ID>
310931812

> <PUBCHEM_SUBSTANCE_VERSION>
1

> <PUBCHEM_EXT_DATASOURCE_NAME>
4488

> <PUBCHEM_EXT_DATASOURCE_REGID>
SCHEMBL16109145

> <PUBCHEM_SUBSTANCE_COMMENT>
InChI=1S/C20H23N5O4/c1-3-29-10-4-8-22-19(26)15-5-6-17(23-12-15)25-20(27)16(13-24-25)14-7-9-21-18(11-14)28-2/h5-7,9,11-13,27H,3-4,8,10H2,1-2H3,(H,22,26)
InChIKey=ZRZXYPNCTFKZFL-UHFFFAOYSA-N

> <PUBCHEM_SUBSTANCE_SYNONYM>
SCHEMBL16109145

> <PUBCHEM_XREF_EXT_ID>
SCHEMBL16109145

> <PUBCHEM_EXT_DATASOURCE_URL>
https://www.surechembl.org/

> <PUBCHEM_EXT_SUBSTANCE_URL>
https://www.surechembl.org/chemical/SCHEMBL16109145

> <PUBCHEM_CID_ASSOCIATIONS>
117600489  1

> <PUBCHEM_COORDINATE_TYPE>
1
3

$$$$
