310931503
  -OEChem-07211613022D

 16 16  0     0  0  0  0  0  0999 V2000
    3.2751   -4.3001    0.0000 Br  0  0  0  0  0  0  0  0  0  0  0  0
    0.0000   -1.4251    0.0000 F   0  0  0  0  0  0  0  0  0  0  0  0
    0.4250   -0.7250    0.0000 F   0  0  0  0  0  0  0  0  0  0  0  0
    2.0751   -0.7250    0.0000 F   0  0  0  0  0  0  0  0  0  0  0  0
    0.8250    0.0000    0.0000 F   0  0  0  0  0  0  0  0  0  0  0  0
    1.6501    0.0000    0.0000 F   0  0  0  0  0  0  0  0  0  0  0  0
    0.8000   -2.8751    0.0000 O   0  0  0  0  0  0  0  0  0  0  0  0
    0.8250   -1.4251    0.0000 C   0  0  0  0  0  0  0  0  0  0  0  0
    1.2501   -0.7250    0.0000 C   0  0  0  0  0  0  0  0  0  0  0  0
    1.2251   -2.1501    0.0000 C   0  0  0  0  0  0  0  0  0  0  0  0
    1.2251   -3.5751    0.0000 C   0  0  0  0  0  0  0  0  0  0  0  0
    2.0251   -3.5751    0.0000 C   0  0  0  0  0  0  0  0  0  0  0  0
    0.7750   -4.3001    0.0000 C   0  0  0  0  0  0  0  0  0  0  0  0
    2.4501   -4.3001    0.0000 C   0  0  0  0  0  0  0  0  0  0  0  0
    1.2251   -5.0001    0.0000 C   0  0  0  0  0  0  0  0  0  0  0  0
    2.0251   -5.0001    0.0000 C   0  0  0  0  0  0  0  0  0  0  0  0
  1 14  1  0  0  0  0
  2  8  1  0  0  0  0
  3  8  1  0  0  0  0
  4  9  1  0  0  0  0
  5  9  1  0  0  0  0
  6  9  1  0  0  0  0
  7 10  1  0  0  0  0
  7 11  1  0  0  0  0
  8  9  1  0  0  0  0
  8 10  1  0  0  0  0
 11 12  2  0  0  0  0
 11 13  1  0  0  0  0
 12 14  1  0  0  0  0
 13 15  2  0  0  0  0
 14 16  2  0  0  0  0
 15 16  1  0  0  0  0
M  END
> <PUBCHEM_COMPOUND_ID_TYPE>
0

> <PUBCHEM_TOTAL_CHARGE>
0

> <PUBCHEM_SUBSTANCE_ID>
310931503

> <PUBCHEM_SUBSTANCE_VERSION>
1

> <PUBCHEM_EXT_DATASOURCE_NAME>
4488

> <PUBCHEM_EXT_DATASOURCE_REGID>
SCHEMBL16108829

> <PUBCHEM_SUBSTANCE_COMMENT>
InChI=1S/C9H6BrF5O/c10-6-2-1-3-7(4-6)16-5-8(11,12)9(13,14)15/h1-4H,5H2
InChIKey=STQDZDBRZWABBB-UHFFFAOYSA-N

> <PUBCHEM_SUBSTANCE_SYNONYM>
SCHEMBL16108829

> <PUBCHEM_XREF_EXT_ID>
SCHEMBL16108829

> <PUBCHEM_EXT_DATASOURCE_URL>
https://www.surechembl.org/

> <PUBCHEM_EXT_SUBSTANCE_URL>
https://www.surechembl.org/chemical/SCHEMBL16108829

> <PUBCHEM_CID_ASSOCIATIONS>
95757098  1

> <PUBCHEM_COORDINATE_TYPE>
1
3

$$$$
