310949708
  -OEChem-07211613022D

 23 24  0     0  0  0  0  0  0999 V2000
   -2.4447    2.1797    0.0000 F   0  0  0  0  0  0  0  0  0  0  0  0
    1.6364    0.7089    0.0000 O   0  0  0  0  0  0  0  0  0  0  0  0
    2.4579    0.7089    0.0000 O   0  0  0  0  0  0  0  0  0  0  0  0
    3.6902   -0.0199    0.0000 O   0  0  0  0  0  0  0  0  0  0  0  0
   -3.6770    1.4509    0.0000 O   0  0  0  0  0  0  0  0  0  0  0  0
   -3.6902    0.0066    0.0000 O   0  0  0  0  0  0  0  0  0  0  0  0
    0.4041   -0.0066    0.0000 N   0  0  0  0  0  0  0  0  0  0  0  0
    1.6364   -0.7222    0.0000 C   0  0  0  0  0  0  0  0  0  0  0  0
    2.4447   -0.7354    0.0000 C   0  0  0  0  0  0  0  0  0  0  0  0
   -2.4579    0.7354    0.0000 C   0  0  0  0  0  0  0  0  0  0  0  0
    1.2124   -0.0199    0.0000 C   0  0  0  0  0  0  0  0  0  0  0  0
   -2.0472    1.4509    0.0000 C   0  0  0  0  0  0  0  0  0  0  0  0
   -0.8281    0.7354    0.0000 C   0  0  0  0  0  0  0  0  0  0  0  0
   -1.2124    1.4377    0.0000 C   0  0  0  0  0  0  0  0  0  0  0  0
   -2.0472    0.0066    0.0000 C   0  0  0  0  0  0  0  0  0  0  0  0
    2.8687   -0.0199    0.0000 C   0  0  0  0  0  0  0  0  0  0  0  0
    1.2522   -1.4774    0.0000 C   0  0  0  0  0  0  0  0  0  0  0  0
   -1.2389    0.0066    0.0000 C   0  0  0  0  0  0  0  0  0  0  0  0
    0.0066    0.7089    0.0000 C   0  0  0  0  0  0  0  0  0  0  0  0
   -3.2794    0.7222    0.0000 C   0  0  0  0  0  0  0  0  0  0  0  0
    2.8555   -1.4642    0.0000 C   0  0  0  0  0  0  0  0  0  0  0  0
    1.6364   -2.1664    0.0000 C   0  0  0  0  0  0  0  0  0  0  0  0
    2.4447   -2.1797    0.0000 C   0  0  0  0  0  0  0  0  0  0  0  0
  1 12  1  0  0  0  0
  2 11  2  0  0  0  0
  3 16  2  0  0  0  0
  4 16  1  0  0  0  0
  5 20  2  0  0  0  0
  6 20  1  0  0  0  0
  7 11  1  0  0  0  0
  7 19  1  0  0  0  0
  8  9  2  0  0  0  0
  8 11  1  0  0  0  0
  8 17  1  0  0  0  0
  9 16  1  0  0  0  0
  9 21  1  0  0  0  0
 10 12  2  0  0  0  0
 10 15  1  0  0  0  0
 10 20  1  0  0  0  0
 12 14  1  0  0  0  0
 13 14  2  0  0  0  0
 13 18  1  0  0  0  0
 13 19  1  0  0  0  0
 15 18  2  0  0  0  0
 17 22  2  0  0  0  0
 21 23  2  0  0  0  0
 22 23  1  0  0  0  0
M  END
> <PUBCHEM_COMPOUND_ID_TYPE>
0

> <PUBCHEM_TOTAL_CHARGE>
0

> <PUBCHEM_SUBSTANCE_ID>
310949708

> <PUBCHEM_SUBSTANCE_VERSION>
1

> <PUBCHEM_EXT_DATASOURCE_NAME>
4488

> <PUBCHEM_EXT_DATASOURCE_REGID>
SCHEMBL16127906

> <PUBCHEM_SUBSTANCE_COMMENT>
InChI=1S/C16H12FNO5/c17-13-7-9(5-6-12(13)16(22)23)8-18-14(19)10-3-1-2-4-11(10)15(20)21/h1-7H,8H2,(H,18,19)(H,20,21)(H,22,23)
InChIKey=SNAQJURBVWQOHH-UHFFFAOYSA-N

> <PUBCHEM_SUBSTANCE_SYNONYM>
SCHEMBL16127906

> <PUBCHEM_XREF_EXT_ID>
SCHEMBL16127906

> <PUBCHEM_EXT_DATASOURCE_URL>
https://www.surechembl.org/

> <PUBCHEM_EXT_SUBSTANCE_URL>
https://www.surechembl.org/chemical/SCHEMBL16127906

> <PUBCHEM_CID_ASSOCIATIONS>
117615061  1

> <PUBCHEM_COORDINATE_TYPE>
1
3

$$$$
