310949752
  -OEChem-07211613022D

 30 32  0     0  0  0  0  0  0999 V2000
   -1.7794    0.4222    0.0000 S   0  0  0  0  0  0  0  0  0  0  0  0
   -1.3572    1.1310    0.0000 O   0  0  0  0  0  0  0  0  0  0  0  0
   -2.1866   -0.3016    0.0000 O   0  0  0  0  0  0  0  0  0  0  0  0
    0.3468   -0.0150    0.0000 O   0  0  0  0  0  0  0  0  0  0  0  0
    4.5844    1.6438    0.0000 O   0  0  0  0  0  0  0  0  0  0  0  0
   -1.0707    0.0000    0.0000 N   0  0  0  0  0  0  0  0  0  0  0  0
    1.0406   -1.2668    0.0000 N   0  0  0  0  0  0  0  0  0  0  0  0
   -1.0858   -0.8445    0.0000 C   0  0  0  0  0  0  0  0  0  0  0  0
   -0.3770   -1.2668    0.0000 C   0  0  0  0  0  0  0  0  0  0  0  0
    0.3167   -0.8596    0.0000 C   0  0  0  0  0  0  0  0  0  0  0  0
   -1.7794   -1.2668    0.0000 C   0  0  0  0  0  0  0  0  0  0  0  0
   -0.3770   -2.0962    0.0000 C   0  0  0  0  0  0  0  0  0  0  0  0
   -2.5033    0.8294    0.0000 C   0  0  0  0  0  0  0  0  0  0  0  0
    1.7493   -0.8445    0.0000 C   0  0  0  0  0  0  0  0  0  0  0  0
   -3.1970    0.4222    0.0000 C   0  0  0  0  0  0  0  0  0  0  0  0
   -1.7794   -2.0962    0.0000 C   0  0  0  0  0  0  0  0  0  0  0  0
   -1.1008   -2.5033    0.0000 C   0  0  0  0  0  0  0  0  0  0  0  0
    2.4279   -1.2668    0.0000 C   0  0  0  0  0  0  0  0  0  0  0  0
    1.7644   -0.0150    0.0000 C   0  0  0  0  0  0  0  0  0  0  0  0
    3.1668   -0.0302    0.0000 C   0  0  0  0  0  0  0  0  0  0  0  0
   -3.1970   -0.4222    0.0000 C   0  0  0  0  0  0  0  0  0  0  0  0
   -3.9058    0.8294    0.0000 C   0  0  0  0  0  0  0  0  0  0  0  0
    3.1518   -0.8596    0.0000 C   0  0  0  0  0  0  0  0  0  0  0  0
    2.4430    0.3770    0.0000 C   0  0  0  0  0  0  0  0  0  0  0  0
   -3.9208   -0.8144    0.0000 C   0  0  0  0  0  0  0  0  0  0  0  0
   -4.5994    0.4072    0.0000 C   0  0  0  0  0  0  0  0  0  0  0  0
    3.8756    0.3770    0.0000 C   0  0  0  0  0  0  0  0  0  0  0  0
   -4.5994   -0.4072    0.0000 C   0  0  0  0  0  0  0  0  0  0  0  0
    3.8756    1.2215    0.0000 C   0  0  0  0  0  0  0  0  0  0  0  0
    4.5994    2.5033    0.0000 C   0  0  0  0  0  0  0  0  0  0  0  0
  1  2  2  0  0  0  0
  1  3  2  0  0  0  0
  1  6  1  0  0  0  0
  1 13  1  0  0  0  0
  4 10  2  0  0  0  0
  5 29  1  0  0  0  0
  5 30  1  0  0  0  0
  6  8  1  0  0  0  0
  7 10  1  0  0  0  0
  7 14  1  0  0  0  0
  8  9  1  0  0  0  0
  8 11  2  0  0  0  0
  9 10  1  0  0  0  0
  9 12  2  0  0  0  0
 11 16  1  0  0  0  0
 12 17  1  0  0  0  0
 13 15  1  0  0  0  0
 14 18  2  0  0  0  0
 14 19  1  0  0  0  0
 15 21  2  0  0  0  0
 15 22  1  0  0  0  0
 16 17  2  0  0  0  0
 18 23  1  0  0  0  0
 19 24  2  0  0  0  0
 20 23  2  0  0  0  0
 20 24  1  0  0  0  0
 20 27  1  0  0  0  0
 21 25  1  0  0  0  0
 22 26  2  0  0  0  0
 25 28  2  0  0  0  0
 26 28  1  0  0  0  0
 27 29  1  0  0  0  0
M  END
> <PUBCHEM_COMPOUND_ID_TYPE>
0

> <PUBCHEM_TOTAL_CHARGE>
0

> <PUBCHEM_SUBSTANCE_ID>
310949752

> <PUBCHEM_SUBSTANCE_VERSION>
1

> <PUBCHEM_EXT_DATASOURCE_NAME>
4488

> <PUBCHEM_EXT_DATASOURCE_REGID>
SCHEMBL16127950

> <PUBCHEM_SUBSTANCE_COMMENT>
InChI=1S/C23H24N2O4S/c1-29-16-15-18-11-13-20(14-12-18)24-23(26)21-9-5-6-10-22(21)25-30(27,28)17-19-7-3-2-4-8-19/h2-14,25H,15-17H2,1H3,(H,24,26)
InChIKey=MVANYJDVOSQRMX-UHFFFAOYSA-N

> <PUBCHEM_SUBSTANCE_SYNONYM>
SCHEMBL16127950

> <PUBCHEM_XREF_EXT_ID>
SCHEMBL16127950

> <PUBCHEM_EXT_DATASOURCE_URL>
https://www.surechembl.org/

> <PUBCHEM_EXT_SUBSTANCE_URL>
https://www.surechembl.org/chemical/SCHEMBL16127950

> <PUBCHEM_CID_ASSOCIATIONS>
117615081  1

> <PUBCHEM_COORDINATE_TYPE>
1
3

$$$$
