310941542
  -OEChem-07211613022D

 34 38  0     0  0  0  0  0  0999 V2000
    2.5602    1.9330    0.0000 S   0  0  0  0  0  0  0  0  0  0  0  0
   -6.2543   -1.9330    0.0000 F   0  0  0  0  0  0  0  0  0  0  0  0
    0.2234   -0.7131    0.0000 O   0  0  0  0  0  0  0  0  0  0  0  0
    1.6666   -0.7131    0.0000 O   0  0  0  0  0  0  0  0  0  0  0  0
   -2.6460   -0.7131    0.0000 O   0  0  0  0  0  0  0  0  0  0  0  0
    5.4467    0.9708    0.0000 O   0  0  0  0  0  0  0  0  0  0  0  0
    2.4399    0.6271    0.0000 N   0  0  0  0  0  0  0  0  0  0  0  0
    3.7972    1.1426    0.0000 N   0  0  0  0  0  0  0  0  0  0  0  0
    0.9622    0.5412    0.0000 C   0  0  0  0  0  0  0  0  0  0  0  0
    1.6494    0.9708    0.0000 C   0  0  0  0  0  0  0  0  0  0  0  0
   -0.4811    0.5412    0.0000 C   0  0  0  0  0  0  0  0  0  0  0  0
   -0.4983   -0.2836    0.0000 C   0  0  0  0  0  0  0  0  0  0  0  0
    0.9278   -0.2664    0.0000 C   0  0  0  0  0  0  0  0  0  0  0  0
    0.2406    0.9536    0.0000 C   0  0  0  0  0  0  0  0  0  0  0  0
    2.9725    1.2629    0.0000 C   0  0  0  0  0  0  0  0  0  0  0  0
   -1.1856   -0.6787    0.0000 C   0  0  0  0  0  0  0  0  0  0  0  0
    1.7697    1.7783    0.0000 C   0  0  0  0  0  0  0  0  0  0  0  0
   -1.2199    0.9364    0.0000 C   0  0  0  0  0  0  0  0  0  0  0  0
   -1.9587   -0.3007    0.0000 C   0  0  0  0  0  0  0  0  0  0  0  0
   -1.9072    0.5412    0.0000 C   0  0  0  0  0  0  0  0  0  0  0  0
    4.1409    0.3867    0.0000 C   0  0  0  0  0  0  0  0  0  0  0  0
    4.9484    0.3007    0.0000 C   0  0  0  0  0  0  0  0  0  0  0  0
    3.6598   -0.2836    0.0000 C   0  0  0  0  0  0  0  0  0  0  0  0
   -3.4021   -0.3007    0.0000 C   0  0  0  0  0  0  0  0  0  0  0  0
    5.2921   -0.4382    0.0000 C   0  0  0  0  0  0  0  0  0  0  0  0
   -4.0722   -0.6959    0.0000 C   0  0  0  0  0  0  0  0  0  0  0  0
    3.9862   -1.0224    0.0000 C   0  0  0  0  0  0  0  0  0  0  0  0
    4.8281   -1.1083    0.0000 C   0  0  0  0  0  0  0  0  0  0  0  0
   -4.8453   -0.3179    0.0000 C   0  0  0  0  0  0  0  0  0  0  0  0
   -4.0893   -1.5379    0.0000 C   0  0  0  0  0  0  0  0  0  0  0  0
   -5.5326   -1.5379    0.0000 C   0  0  0  0  0  0  0  0  0  0  0  0
   -5.5155   -0.6959    0.0000 C   0  0  0  0  0  0  0  0  0  0  0  0
   -4.7938   -1.9330    0.0000 C   0  0  0  0  0  0  0  0  0  0  0  0
    6.2543    0.8677    0.0000 C   0  0  0  0  0  0  0  0  0  0  0  0
  1 15  1  0  0  0  0
  1 17  1  0  0  0  0
  2 31  1  0  0  0  0
  3 12  1  0  0  0  0
  3 13  1  0  0  0  0
  4 13  2  0  0  0  0
  5 19  1  0  0  0  0
  5 24  1  0  0  0  0
  6 22  1  0  0  0  0
  6 34  1  0  0  0  0
  7 10  1  0  0  0  0
  7 15  2  0  0  0  0
  8 15  1  0  0  0  0
  8 21  1  0  0  0  0
  9 10  1  0  0  0  0
  9 13  1  0  0  0  0
  9 14  2  0  0  0  0
 10 17  2  0  0  0  0
 11 12  1  0  0  0  0
 11 14  1  0  0  0  0
 11 18  2  0  0  0  0
 12 16  2  0  0  0  0
 16 19  1  0  0  0  0
 18 20  1  0  0  0  0
 19 20  2  0  0  0  0
 21 22  1  0  0  0  0
 21 23  2  0  0  0  0
 22 25  2  0  0  0  0
 23 27  1  0  0  0  0
 24 26  1  0  0  0  0
 25 28  1  0  0  0  0
 26 29  2  0  0  0  0
 26 30  1  0  0  0  0
 27 28  2  0  0  0  0
 29 32  1  0  0  0  0
 30 33  2  0  0  0  0
 31 32  2  0  0  0  0
 31 33  1  0  0  0  0
M  END
> <PUBCHEM_COMPOUND_ID_TYPE>
0

> <PUBCHEM_TOTAL_CHARGE>
0

> <PUBCHEM_SUBSTANCE_ID>
310941542

> <PUBCHEM_SUBSTANCE_VERSION>
1

> <PUBCHEM_EXT_DATASOURCE_NAME>
4488

> <PUBCHEM_EXT_DATASOURCE_REGID>
SCHEMBL16119573

> <PUBCHEM_SUBSTANCE_COMMENT>
InChI=1S/C26H19FN2O4S/c1-31-23-5-3-2-4-21(23)28-26-29-22(15-34-26)20-12-17-8-11-19(13-24(17)33-25(20)30)32-14-16-6-9-18(27)10-7-16/h2-13,15H,14H2,1H3,(H,28,29)
InChIKey=ZPEGWDUQOZPFLE-UHFFFAOYSA-N

> <PUBCHEM_SUBSTANCE_SYNONYM>
SCHEMBL16119573

> <PUBCHEM_XREF_EXT_ID>
SCHEMBL16119573

> <PUBCHEM_EXT_DATASOURCE_URL>
https://www.surechembl.org/

> <PUBCHEM_EXT_SUBSTANCE_URL>
https://www.surechembl.org/chemical/SCHEMBL16119573

> <PUBCHEM_CID_ASSOCIATIONS>
117608350  1

> <PUBCHEM_COORDINATE_TYPE>
1
3

$$$$
