310940964
  -OEChem-07211613022D

 44 47  0     1  0  0  0  0  0999 V2000
   -1.9020   -1.4084    0.0000 F   0  0  0  0  0  0  0  0  0  0  0  0
   -0.4646   -1.4084    0.0000 F   0  0  0  0  0  0  0  0  0  0  0  0
   -1.1760   -1.8294    0.0000 F   0  0  0  0  0  0  0  0  0  0  0  0
    5.1833   -1.0163    0.0000 O   0  0  0  0  0  0  0  0  0  0  0  0
    4.0508    0.9438    0.0000 O   0  0  0  0  0  0  0  0  0  0  0  0
    1.6842   -1.0018    0.0000 O   0  0  0  0  0  0  0  0  0  0  0  0
   -0.4791    1.0599    0.0000 O   0  0  0  0  0  0  0  0  0  0  0  0
   -2.6279   -1.0018    0.0000 O   0  0  0  0  0  0  0  0  0  0  0  0
    3.8331    2.7151    0.0000 O   0  0  0  0  0  0  0  0  0  0  0  0
   -5.4882   -1.0018    0.0000 O   0  0  0  0  0  0  0  0  0  0  0  0
    2.3957    0.2323    0.0000 N   0  0  0  0  0  0  0  0  0  0  0  0
    0.2468   -0.1742    0.0000 N   0  0  0  0  0  0  0  0  0  0  0  0
   -1.9020    0.2323    0.0000 N   0  0  0  0  0  0  0  0  0  0  0  0
   -4.0508   -0.1742    0.0000 N   0  0  0  0  0  0  0  0  0  0  0  0
    4.7768   -0.2759    0.0000 C   0  0  3  0  0  0  0  0  0  0  0  0
    3.9927    0.1307    0.0000 C   0  0  0  0  0  0  0  0  0  0  0  0
    4.3703   -0.9873    0.0000 C   0  0  0  0  0  0  0  0  0  0  0  0
    3.3539   -0.2613    0.0000 C   0  0  3  0  0  0  0  0  0  0  0  0
    5.4882    0.1452    0.0000 C   0  0  0  0  0  0  0  0  0  0  0  0
    1.6987   -0.1307    0.0000 C   0  0  0  0  0  0  0  0  0  0  0  0
    3.3249   -1.3358    0.0000 C   0  0  0  0  0  0  0  0  0  0  0  0
    0.9728    0.2613    0.0000 C   0  0  3  0  0  0  0  0  0  0  0  0
   -1.1760   -0.1307    0.0000 C   0  0  3  0  0  0  0  0  0  0  0  0
   -0.4791    0.2468    0.0000 C   0  0  0  0  0  0  0  0  0  0  0  0
   -1.1760   -1.0163    0.0000 C   0  0  0  0  0  0  0  0  0  0  0  0
    2.6279   -1.7568    0.0000 C   0  0  0  0  0  0  0  0  0  0  0  0
    0.9873    1.0889    0.0000 C   0  0  0  0  0  0  0  0  0  0  0  0
    1.6697    1.5100    0.0000 C   0  0  0  0  0  0  0  0  0  0  0  0
   -2.6135   -0.1161    0.0000 C   0  0  0  0  0  0  0  0  0  0  0  0
    1.8585   -1.4374    0.0000 C   0  0  0  0  0  0  0  0  0  0  0  0
    2.5264   -2.5699    0.0000 C   0  0  0  0  0  0  0  0  0  0  0  0
    2.4102    1.1035    0.0000 C   0  0  0  0  0  0  0  0  0  0  0  0
    1.6987    2.3376    0.0000 C   0  0  0  0  0  0  0  0  0  0  0  0
    1.3212   -2.0327    0.0000 C   0  0  0  0  0  0  0  0  0  0  0  0
    1.7133   -2.7296    0.0000 C   0  0  0  0  0  0  0  0  0  0  0  0
   -3.3539    0.2613    0.0000 C   0  0  0  0  0  0  0  0  0  0  0  0
    3.1216    2.3376    0.0000 C   0  0  0  0  0  0  0  0  0  0  0  0
    3.1216    1.5100    0.0000 C   0  0  0  0  0  0  0  0  0  0  0  0
    2.3957    2.7296    0.0000 C   0  0  0  0  0  0  0  0  0  0  0  0
   -4.0508   -0.9728    0.0000 C   0  0  0  0  0  0  0  0  0  0  0  0
   -4.7768    0.2613    0.0000 C   0  0  0  0  0  0  0  0  0  0  0  0
   -4.7623   -1.3793    0.0000 C   0  0  0  0  0  0  0  0  0  0  0  0
   -5.4737   -0.1452    0.0000 C   0  0  0  0  0  0  0  0  0  0  0  0
    4.5735    2.3086    0.0000 C   0  0  0  0  0  0  0  0  0  0  0  0
  1 25  1  0  0  0  0
  2 25  1  0  0  0  0
  3 25  1  0  0  0  0
  4 15  1  0  0  0  0
  4 17  1  0  0  0  0
  5 16  2  0  0  0  0
  6 20  2  0  0  0  0
  7 24  2  0  0  0  0
  8 29  2  0  0  0  0
  9 37  1  0  0  0  0
  9 44  1  0  0  0  0
 10 42  1  0  0  0  0
 10 43  1  0  0  0  0
 18 11  1  6  0  0  0
 11 20  1  0  0  0  0
 22 12  1  1  0  0  0
 12 24  1  0  0  0  0
 23 13  1  1  0  0  0
 13 29  1  0  0  0  0
 14 36  1  0  0  0  0
 14 40  1  0  0  0  0
 14 41  1  0  0  0  0
 15 16  1  6  0  0  0
 15 17  1  0  0  0  0
 15 19  1  1  0  0  0
 16 18  1  0  0  0  0
 18 21  1  0  0  0  0
 20 22  1  0  0  0  0
 21 26  1  0  0  0  0
 22 27  1  0  0  0  0
 23 24  1  0  0  0  0
 23 25  1  0  0  0  0
 26 30  2  0  0  0  0
 26 31  1  0  0  0  0
 27 28  1  0  0  0  0
 28 32  2  0  0  0  0
 28 33  1  0  0  0  0
 29 36  1  0  0  0  0
 30 34  1  0  0  0  0
 31 35  1  0  0  0  0
 32 38  1  0  0  0  0
 33 39  2  0  0  0  0
 34 35  1  0  0  0  0
 37 38  2  0  0  0  0
 37 39  1  0  0  0  0
 40 42  1  0  0  0  0
 41 43  1  0  0  0  0
M  END
> <PUBCHEM_COMPOUND_ID_TYPE>
0

> <PUBCHEM_TOTAL_CHARGE>
0

> <PUBCHEM_SUBSTANCE_ID>
310940964

> <PUBCHEM_SUBSTANCE_VERSION>
1

> <PUBCHEM_EXT_DATASOURCE_NAME>
4488

> <PUBCHEM_EXT_DATASOURCE_REGID>
SCHEMBL16118923

> <PUBCHEM_SUBSTANCE_COMMENT>
InChI=1S/C30H39F3N4O7/c1-29(18-44-29)26(39)22(15-19-5-3-4-6-19)34-27(40)23(16-20-7-9-21(42-2)10-8-20)35-28(41)25(30(31,32)33)36-24(38)17-37-11-13-43-14-12-37/h5,7-10,22-23,25H,3-4,6,11-18H2,1-2H3,(H,34,40)(H,35,41)(H,36,38)/t22-,23-,25-,29+/m0/s1
InChIKey=SVCWIKBIULKUKK-HFYXNAFRSA-N

> <PUBCHEM_SUBSTANCE_SYNONYM>
SCHEMBL16118923

> <PUBCHEM_XREF_EXT_ID>
SCHEMBL16118923

> <PUBCHEM_EXT_DATASOURCE_URL>
https://www.surechembl.org/

> <PUBCHEM_EXT_SUBSTANCE_URL>
https://www.surechembl.org/chemical/SCHEMBL16118923

> <PUBCHEM_CID_ASSOCIATIONS>
117607872  1

> <PUBCHEM_COORDINATE_TYPE>
1
3

> <PUBCHEM_BONDANNOTATIONS>
18  11  6
22  12  5
23  13  5
15  16  6
15  19  5

$$$$
