310945936
  -OEChem-07211613022D

 39 41  0     1  0  0  0  0  0999 V2000
    3.6260    0.8220    0.0000 O   0  0  0  0  0  0  0  0  0  0  0  0
    2.1683   -0.8543    0.0000 O   0  0  0  0  0  0  0  0  0  0  0  0
    0.0000    1.2412    0.0000 O   0  0  0  0  0  0  0  0  0  0  0  0
   -2.1683   -0.8543    0.0000 O   0  0  0  0  0  0  0  0  0  0  0  0
   -1.5913   -1.8396    0.0000 O   0  0  0  0  0  0  0  0  0  0  0  0
    2.1683   -2.5307    0.0000 O   0  0  0  0  0  0  0  0  0  0  0  0
   -2.0916   -2.6623    0.0000 O   0  0  0  0  0  0  0  0  0  0  0  0
    0.7289   -0.0161    0.0000 N   0  0  0  0  0  0  0  0  0  0  0  0
   -1.4577    0.4029    0.0000 N   0  0  0  0  0  0  0  0  0  0  0  0
   -3.6260   -0.0161    0.0000 N   0  0  0  0  0  0  0  0  0  0  0  0
    2.8971    0.4212    0.0000 C   0  0  3  0  0  0  0  0  0  0  0  0
    2.1683    0.0203    0.0000 C   0  0  0  0  0  0  0  0  0  0  0  0
    3.6260    0.0021    0.0000 C   0  0  0  0  0  0  0  0  0  0  0  0
    1.4394    0.4212    0.0000 C   0  0  3  0  0  0  0  0  0  0  0  0
    2.3141    0.9860    0.0000 C   0  0  0  0  0  0  0  0  0  0  0  0
    1.4759    1.2593    0.0000 C   0  0  0  0  0  0  0  0  0  0  0  0
   -0.0183    0.4029    0.0000 C   0  0  0  0  0  0  0  0  0  0  0  0
   -0.7106    0.0021    0.0000 C   0  0  3  0  0  0  0  0  0  0  0  0
    2.1866    1.6785    0.0000 C   0  0  0  0  0  0  0  0  0  0  0  0
   -0.7289   -0.8725    0.0000 C   0  0  0  0  0  0  0  0  0  0  0  0
    0.0183   -1.2551    0.0000 C   0  0  0  0  0  0  0  0  0  0  0  0
   -2.1683    0.0203    0.0000 C   0  0  0  0  0  0  0  0  0  0  0  0
    2.2776    2.4983    0.0000 C   0  0  0  0  0  0  0  0  0  0  0  0
    2.9518    1.3322    0.0000 C   0  0  0  0  0  0  0  0  0  0  0  0
   -2.9154    0.4029    0.0000 C   0  0  3  0  0  0  0  0  0  0  0  0
    3.0794    2.6623    0.0000 C   0  0  0  0  0  0  0  0  0  0  0  0
    3.4803    1.9335    0.0000 C   0  0  0  0  0  0  0  0  0  0  0  0
    0.0183   -2.1115    0.0000 C   0  0  0  0  0  0  0  0  0  0  0  0
    0.7470   -0.8725    0.0000 C   0  0  0  0  0  0  0  0  0  0  0  0
    1.4394   -2.0934    0.0000 C   0  0  0  0  0  0  0  0  0  0  0  0
    0.7653   -2.5124    0.0000 C   0  0  0  0  0  0  0  0  0  0  0  0
    1.4394   -1.2734    0.0000 C   0  0  0  0  0  0  0  0  0  0  0  0
   -2.0916   -2.1287    0.0000 C   0  0  0  0  0  0  0  0  0  0  0  0
   -1.5802   -1.2836    0.0000 C   0  0  0  0  0  0  0  0  0  0  0  0
   -2.8971    1.2229    0.0000 C   0  0  0  0  0  0  0  0  0  0  0  0
   -1.0799   -1.2614    0.0000 C   0  0  0  0  0  0  0  0  0  0  0  0
   -2.0916   -1.2836    0.0000 C   0  0  0  0  0  0  0  0  0  0  0  0
   -1.5913   -0.7389    0.0000 C   0  0  0  0  0  0  0  0  0  0  0  0
    2.9154   -2.0934    0.0000 C   0  0  0  0  0  0  0  0  0  0  0  0
  1 11  1  0  0  0  0
  1 13  1  0  0  0  0
  2 12  2  0  0  0  0
  3 17  2  0  0  0  0
  4 22  2  0  0  0  0
  5 33  1  0  0  0  0
  5 34  1  0  0  0  0
  6 30  1  0  0  0  0
  6 39  1  0  0  0  0
  7 33  2  0  0  0  0
 14  8  1  1  0  0  0
  8 17  1  0  0  0  0
 18  9  1  6  0  0  0
  9 22  1  0  0  0  0
 10 25  1  0  0  0  0
 10 33  1  0  0  0  0
 11 12  1  6  0  0  0
 11 13  1  0  0  0  0
 11 15  1  1  0  0  0
 12 14  1  0  0  0  0
 14 16  1  0  0  0  0
 16 19  1  0  0  0  0
 17 18  1  0  0  0  0
 18 20  1  0  0  0  0
 19 23  1  0  0  0  0
 19 24  1  0  0  0  0
 20 21  1  0  0  0  0
 21 28  2  0  0  0  0
 21 29  1  0  0  0  0
 22 25  1  0  0  0  0
 23 26  1  0  0  0  0
 24 27  1  0  0  0  0
 25 35  1  6  0  0  0
 26 27  1  0  0  0  0
 28 31  1  0  0  0  0
 29 32  2  0  0  0  0
 30 31  2  0  0  0  0
 30 32  1  0  0  0  0
 34 36  1  0  0  0  0
 34 37  1  0  0  0  0
 34 38  1  0  0  0  0
M  END
> <PUBCHEM_COMPOUND_ID_TYPE>
0

> <PUBCHEM_TOTAL_CHARGE>
0

> <PUBCHEM_SUBSTANCE_ID>
310945936

> <PUBCHEM_SUBSTANCE_VERSION>
1

> <PUBCHEM_EXT_DATASOURCE_NAME>
4488

> <PUBCHEM_EXT_DATASOURCE_REGID>
SCHEMBL16124041

> <PUBCHEM_SUBSTANCE_COMMENT>
InChI=1S/C29H43N3O7/c1-18(30-27(36)39-28(2,3)4)25(34)32-23(16-20-11-13-21(37-6)14-12-20)26(35)31-22(15-19-9-7-8-10-19)24(33)29(5)17-38-29/h11-14,18-19,22-23H,7-10,15-17H2,1-6H3,(H,30,36)(H,31,35)(H,32,34)/t18-,22+,23+,29-/m1/s1
InChIKey=DDYFBFBQBUSQRX-KBSQQMHRSA-N

> <PUBCHEM_SUBSTANCE_SYNONYM>
SCHEMBL16124041

> <PUBCHEM_XREF_EXT_ID>
SCHEMBL16124041

> <PUBCHEM_EXT_DATASOURCE_URL>
https://www.surechembl.org/

> <PUBCHEM_EXT_SUBSTANCE_URL>
https://www.surechembl.org/chemical/SCHEMBL16124041

> <PUBCHEM_CID_ASSOCIATIONS>
117611919  1

> <PUBCHEM_COORDINATE_TYPE>
1
3

> <PUBCHEM_BONDANNOTATIONS>
11  12  6
11  15  5
25  35  6
14  8  5
18  9  6

$$$$
