310936946
  -OEChem-07211613022D

 24 26  0     0  0  0  0  0  0999 V2000
    2.2474   -1.9629    0.0000 O   0  0  0  0  0  0  0  0  0  0  0  0
    4.3810   -4.0396    0.0000 O   0  0  0  0  0  0  0  0  0  0  0  0
    5.8034   -5.6896    0.0000 O   0  0  0  0  0  0  0  0  0  0  0  0
    2.2474   -4.4378    0.0000 N   0  0  0  0  0  0  0  0  0  0  0  0
    3.6698   -5.2913    0.0000 N   0  0  0  0  0  0  0  0  0  0  0  0
    1.5362   -3.2146    0.0000 C   0  0  0  0  0  0  0  0  0  0  0  0
    0.8250   -2.8163    0.0000 C   0  0  0  0  0  0  0  0  0  0  0  0
    2.2474   -2.7879    0.0000 C   0  0  0  0  0  0  0  0  0  0  0  0
    2.9585   -4.0396    0.0000 C   0  0  0  0  0  0  0  0  0  0  0  0
    2.9585   -3.2146    0.0000 C   0  0  0  0  0  0  0  0  0  0  0  0
    1.5362   -4.0396    0.0000 C   0  0  0  0  0  0  0  0  0  0  0  0
    0.0000   -2.8163    0.0000 C   0  0  0  0  0  0  0  0  0  0  0  0
    0.3983   -2.0767    0.0000 C   0  0  0  0  0  0  0  0  0  0  0  0
    3.6698   -4.4663    0.0000 C   0  0  0  0  0  0  0  0  0  0  0  0
    1.5362   -0.7397    0.0000 C   0  0  0  0  0  0  0  0  0  0  0  0
    1.5362   -1.5647    0.0000 C   0  0  0  0  0  0  0  0  0  0  0  0
    5.0921   -5.2628    0.0000 C   0  0  0  0  0  0  0  0  0  0  0  0
    5.0921   -4.4663    0.0000 C   0  0  0  0  0  0  0  0  0  0  0  0
    4.3810   -5.6896    0.0000 C   0  0  0  0  0  0  0  0  0  0  0  0
    1.1379   -0.0284    0.0000 C   0  0  0  0  0  0  0  0  0  0  0  0
    1.9345    0.0000    0.0000 C   0  0  0  0  0  0  0  0  0  0  0  0
    5.8034   -4.0396    0.0000 C   0  0  0  0  0  0  0  0  0  0  0  0
    4.5516   -4.2103    0.0000 C   0  0  0  0  0  0  0  0  0  0  0  0
    5.8034   -4.8646    0.0000 C   0  0  0  0  0  0  0  0  0  0  0  0
  1  8  1  0  0  0  0
  1 16  1  0  0  0  0
  2 14  2  0  0  0  0
  3 17  2  0  0  0  0
  4  9  1  0  0  0  0
  4 11  2  0  0  0  0
  5 14  1  0  0  0  0
  5 19  1  0  0  0  0
  6  7  1  0  0  0  0
  6  8  2  0  0  0  0
  6 11  1  0  0  0  0
  7 12  1  0  0  0  0
  7 13  1  0  0  0  0
  8 10  1  0  0  0  0
  9 10  2  0  0  0  0
  9 14  1  0  0  0  0
 12 13  1  0  0  0  0
 15 16  1  0  0  0  0
 15 20  1  0  0  0  0
 15 21  1  0  0  0  0
 17 18  1  0  0  0  0
 17 19  1  0  0  0  0
 18 22  1  0  0  0  0
 18 23  1  0  0  0  0
 18 24  1  0  0  0  0
 20 21  1  0  0  0  0
M  END
> <PUBCHEM_COMPOUND_ID_TYPE>
0

> <PUBCHEM_TOTAL_CHARGE>
0

> <PUBCHEM_SUBSTANCE_ID>
310936946

> <PUBCHEM_SUBSTANCE_VERSION>
1

> <PUBCHEM_EXT_DATASOURCE_NAME>
4488

> <PUBCHEM_EXT_DATASOURCE_REGID>
SCHEMBL16114649

> <PUBCHEM_SUBSTANCE_COMMENT>
InChI=1S/C19H26N2O3/c1-19(2,3)17(22)10-21-18(23)15-8-16(24-11-12-4-5-12)14(9-20-15)13-6-7-13/h8-9,12-13H,4-7,10-11H2,1-3H3,(H,21,23)
InChIKey=OWYIJJHZKPAODA-UHFFFAOYSA-N

> <PUBCHEM_SUBSTANCE_SYNONYM>
SCHEMBL16114649

> <PUBCHEM_XREF_EXT_ID>
SCHEMBL16114649

> <PUBCHEM_EXT_DATASOURCE_URL>
https://www.surechembl.org/

> <PUBCHEM_EXT_SUBSTANCE_URL>
https://www.surechembl.org/chemical/SCHEMBL16114649

> <PUBCHEM_CID_ASSOCIATIONS>
117604814  1

> <PUBCHEM_COORDINATE_TYPE>
1
3

$$$$
