310945194
  -OEChem-07211613022D

 13 13  0     0  0  0  0  0  0999 V2000
   -2.3651   -0.8333    0.0000 I   0  0  0  0  0  0  0  0  0  0  0  0
   -1.2541   -0.9511    0.0000 S   0  0  0  0  0  0  0  0  0  0  0  0
    1.6244   -0.9679    0.0000 N   0  0  0  0  0  0  0  0  0  0  0  0
    0.9006   -0.5134    0.0000 C   0  0  0  0  0  0  0  0  0  0  0  0
    0.9174    0.3114    0.0000 C   0  0  0  0  0  0  0  0  0  0  0  0
    0.2104   -0.9342    0.0000 C   0  0  0  0  0  0  0  0  0  0  0  0
    1.6244    0.7154    0.0000 C   0  0  0  0  0  0  0  0  0  0  0  0
    2.3482   -0.5134    0.0000 C   0  0  0  0  0  0  0  0  0  0  0  0
    0.1767    0.6986    0.0000 C   0  0  0  0  0  0  0  0  0  0  0  0
    2.3651    0.2946    0.0000 C   0  0  0  0  0  0  0  0  0  0  0  0
   -0.5471   -0.5303    0.0000 C   0  0  0  0  0  0  0  0  0  0  0  0
    0.7154    0.9679    0.0000 C   0  0  0  0  0  0  0  0  0  0  0  0
   -1.9779   -0.5303    0.0000 C   0  0  0  0  0  0  0  0  0  0  0  0
  1 13  1  0  0  0  0
  2 11  1  0  0  0  0
  2 13  1  0  0  0  0
  3  4  1  0  0  0  0
  3  8  2  0  0  0  0
  4  5  2  0  0  0  0
  4  6  1  0  0  0  0
  5  7  1  0  0  0  0
  5  9  1  0  0  0  0
  6 11  2  0  0  0  0
  7 10  2  0  0  0  0
  8 10  1  0  0  0  0
  9 12  1  0  0  0  0
M  END
> <PUBCHEM_COMPOUND_ID_TYPE>
0

> <PUBCHEM_TOTAL_CHARGE>
0

> <PUBCHEM_SUBSTANCE_ID>
310945194

> <PUBCHEM_SUBSTANCE_VERSION>
1

> <PUBCHEM_EXT_DATASOURCE_NAME>
4488

> <PUBCHEM_EXT_DATASOURCE_REGID>
SCHEMBL16123284

> <PUBCHEM_SUBSTANCE_COMMENT>
InChI=1S/C10H12INS/c1-2-9-4-3-6-12-10(9)5-7-13-8-11/h3-7H,2,8H2,1H3/b7-5+
InChIKey=PJGPKKAFDPNHLP-FNORWQNLSA-N

> <PUBCHEM_SUBSTANCE_SYNONYM>
SCHEMBL16123284

> <PUBCHEM_XREF_EXT_ID>
SCHEMBL16123284

> <PUBCHEM_EXT_DATASOURCE_URL>
https://www.surechembl.org/

> <PUBCHEM_EXT_SUBSTANCE_URL>
https://www.surechembl.org/chemical/SCHEMBL16123284

> <PUBCHEM_CID_ASSOCIATIONS>
117611278  1

> <PUBCHEM_COORDINATE_TYPE>
1
3

> <PUBCHEM_BONDANNOTATIONS>
9  12  3

$$$$
