310948668
  -OEChem-07211613022D

 33 36  0     1  0  0  0  0  0999 V2000
   -0.7262   -2.5899    0.0000 S   0  0  0  0  0  0  0  0  0  0  0  0
    1.9595    3.4669    0.0000 F   0  0  0  0  0  0  0  0  0  0  0  0
    2.7681    2.7269    0.0000 F   0  0  0  0  0  0  0  0  0  0  0  0
   -2.7681    1.9732    0.0000 O   0  0  0  0  0  0  0  0  0  0  0  0
   -0.4659   -3.3709    0.0000 O   0  0  0  0  0  0  0  0  0  0  0  0
    0.0548   -2.3431    0.0000 O   0  0  0  0  0  0  0  0  0  0  0  0
   -0.0137    1.8225    0.0000 N   0  0  0  0  0  0  0  0  0  0  0  0
   -0.3562    1.0688    0.0000 N   0  0  0  0  0  0  0  0  0  0  0  0
   -1.7265    0.5481    0.0000 N   0  0  0  0  0  0  0  0  0  0  0  0
   -2.0417    3.2065    0.0000 N   0  0  0  0  0  0  0  0  0  0  0  0
    1.2196   -0.2056    0.0000 N   0  0  0  0  0  0  0  0  0  0  0  0
   -0.6303    2.3706    0.0000 C   0  0  0  0  0  0  0  0  0  0  0  0
   -1.3429    1.9732    0.0000 C   0  0  0  0  0  0  0  0  0  0  0  0
    0.8085    1.9732    0.0000 C   0  0  3  0  0  0  0  0  0  0  0  0
   -1.1785    1.1648    0.0000 C   0  0  0  0  0  0  0  0  0  0  0  0
    1.4114    1.4388    0.0000 C   0  0  3  0  0  0  0  0  0  0  0  0
    1.9458    2.6584    0.0000 C   0  0  0  0  0  0  0  0  0  0  0  0
   -2.0554    2.3980    0.0000 C   0  0  0  0  0  0  0  0  0  0  0  0
    1.1374    2.7269    0.0000 C   0  0  0  0  0  0  0  0  0  0  0  0
   -0.6166    3.1928    0.0000 C   0  0  0  0  0  0  0  0  0  0  0  0
    2.1102    1.8362    0.0000 C   0  0  0  0  0  0  0  0  0  0  0  0
   -1.4800   -0.2193    0.0000 C   0  0  0  0  0  0  0  0  0  0  0  0
   -0.9730   -1.8088    0.0000 C   0  0  0  0  0  0  0  0  0  0  0  0
   -1.5074   -2.8503    0.0000 C   0  0  0  0  0  0  0  0  0  0  0  0
   -1.3566    3.6039    0.0000 C   0  0  0  0  0  0  0  0  0  0  0  0
    1.3155    0.6029    0.0000 C   0  0  0  0  0  0  0  0  0  0  0  0
   -2.0143   -0.8222    0.0000 C   0  0  0  0  0  0  0  0  0  0  0  0
   -0.6714   -0.4110    0.0000 C   0  0  0  0  0  0  0  0  0  0  0  0
   -1.7814   -1.6170    0.0000 C   0  0  0  0  0  0  0  0  0  0  0  0
   -0.4384   -1.2059    0.0000 C   0  0  0  0  0  0  0  0  0  0  0  0
   -2.0965   -2.2747    0.0000 C   0  0  0  0  0  0  0  0  0  0  0  0
   -2.1925   -3.3298    0.0000 C   0  0  0  0  0  0  0  0  0  0  0  0
   -1.1374   -3.6039    0.0000 C   0  0  0  0  0  0  0  0  0  0  0  0
  1  5  2  0  0  0  0
  1  6  2  0  0  0  0
  1 23  1  0  0  0  0
  1 24  1  0  0  0  0
  2 17  1  0  0  0  0
  3 17  1  0  0  0  0
  4 18  2  0  0  0  0
  7  8  1  0  0  0  0
  7 12  1  0  0  0  0
 14  7  1  6  0  0  0
  8 15  2  0  0  0  0
  9 15  1  0  0  0  0
  9 22  1  0  0  0  0
 10 18  1  0  0  0  0
 10 25  1  0  0  0  0
 11 26  3  0  0  0  0
 12 13  2  0  0  0  0
 12 20  1  0  0  0  0
 13 15  1  0  0  0  0
 13 18  1  0  0  0  0
 14 16  1  0  0  0  0
 14 19  1  0  0  0  0
 16 21  1  0  0  0  0
 16 26  1  1  0  0  0
 17 19  1  0  0  0  0
 17 21  1  0  0  0  0
 20 25  2  0  0  0  0
 22 27  2  0  0  0  0
 22 28  1  0  0  0  0
 23 29  2  0  0  0  0
 23 30  1  0  0  0  0
 24 31  1  0  0  0  0
 24 32  1  0  0  0  0
 24 33  1  0  0  0  0
 27 29  1  0  0  0  0
 28 30  2  0  0  0  0
M  END
> <PUBCHEM_COMPOUND_ID_TYPE>
0

> <PUBCHEM_TOTAL_CHARGE>
0

> <PUBCHEM_SUBSTANCE_ID>
310948668

> <PUBCHEM_SUBSTANCE_VERSION>
1

> <PUBCHEM_EXT_DATASOURCE_NAME>
4488

> <PUBCHEM_EXT_DATASOURCE_REGID>
SCHEMBL16126852

> <PUBCHEM_SUBSTANCE_COMMENT>
InChI=1S/C22H23F2N5O3S/c1-21(2,3)33(31,32)15-6-4-14(5-7-15)27-19-18-16(8-9-26-20(18)30)29(28-19)17-11-22(23,24)10-13(17)12-25/h4-9,13,17H,10-11H2,1-3H3,(H,26,30)(H,27,28)/t13-,17+/m0/s1
InChIKey=OKKSQYGPSXAHSK-SUMWQHHRSA-N

> <PUBCHEM_SUBSTANCE_SYNONYM>
SCHEMBL16126852

> <PUBCHEM_XREF_EXT_ID>
SCHEMBL16126852

> <PUBCHEM_EXT_DATASOURCE_URL>
https://www.surechembl.org/

> <PUBCHEM_EXT_SUBSTANCE_URL>
https://www.surechembl.org/chemical/SCHEMBL16126852

> <PUBCHEM_CID_ASSOCIATIONS>
117614209  1

> <PUBCHEM_COORDINATE_TYPE>
1
3

> <PUBCHEM_BONDANNOTATIONS>
16  26  5
14  7  6

$$$$
