310937920
  -OEChem-07211613022D

 22 24  0     1  0  0  0  0  0999 V2000
    4.9629   -1.0011    0.0000 Br  0  0  0  0  0  0  0  0  0  0  0  0
    0.4999   -0.1173    0.0000 N   0  0  0  0  0  0  0  0  0  0  0  0
    3.7519   -2.8171    0.0000 N   0  0  0  0  0  0  0  0  0  0  0  0
    1.9176   -2.9957    0.0000 N   0  0  0  0  0  0  0  0  0  0  0  0
    2.1275   -1.3591    0.0000 C   0  0  0  0  0  0  0  0  0  0  0  0
    0.6396   -0.9304    0.0000 C   0  0  3  0  0  0  0  0  0  0  0  0
    1.0605   -0.5572    0.0000 C   0  0  3  0  0  0  0  0  0  0  0  0
    1.6113   -0.9304    0.0000 C   0  0  0  0  0  0  0  0  0  0  0  0
    1.9893   -0.5417    0.0000 C   0  0  0  0  0  0  0  0  0  0  0  0
    0.0773    0.5912    0.0000 C   0  0  0  0  0  0  0  0  0  0  0  0
    2.8880   -1.6789    0.0000 C   0  0  0  0  0  0  0  0  0  0  0  0
    0.1197   -1.6427    0.0000 C   0  0  0  0  0  0  0  0  0  0  0  0
    0.7400   -1.2658    0.0000 C   0  0  0  0  0  0  0  0  0  0  0  0
    2.0225   -2.1774    0.0000 C   0  0  0  0  0  0  0  0  0  0  0  0
    3.5452   -1.1801    0.0000 C   0  0  0  0  0  0  0  0  0  0  0  0
    2.9914   -2.4974    0.0000 C   0  0  0  0  0  0  0  0  0  0  0  0
   -0.3453    1.2998    0.0000 C   0  0  0  0  0  0  0  0  0  0  0  0
    4.3057   -1.4999    0.0000 C   0  0  0  0  0  0  0  0  0  0  0  0
   -0.6312    0.1686    0.0000 C   0  0  0  0  0  0  0  0  0  0  0  0
    0.7858    1.0138    0.0000 C   0  0  0  0  0  0  0  0  0  0  0  0
    4.4090   -2.3184    0.0000 C   0  0  0  0  0  0  0  0  0  0  0  0
   -0.7679    2.0083    0.0000 C   0  0  0  0  0  0  0  0  0  0  0  0
  1 18  1  0  0  0  0
  6  2  1  1  0  0  0
  7  2  1  6  0  0  0
  2 10  1  0  0  0  0
  3 16  2  0  0  0  0
  3 21  1  0  0  0  0
  4 14  3  0  0  0  0
  5  8  1  0  0  0  0
  5  9  1  0  0  0  0
  5 11  1  0  0  0  0
  5 14  1  0  0  0  0
  6  8  1  0  0  0  0
  6 12  1  0  0  0  0
  7  9  1  0  0  0  0
  7 13  1  0  0  0  0
 10 17  1  0  0  0  0
 10 19  1  0  0  0  0
 10 20  1  0  0  0  0
 11 15  2  0  0  0  0
 11 16  1  0  0  0  0
 12 13  1  0  0  0  0
 15 18  1  0  0  0  0
 17 22  3  0  0  0  0
 18 21  2  0  0  0  0
M  END
> <PUBCHEM_COMPOUND_ID_TYPE>
0

> <PUBCHEM_TOTAL_CHARGE>
0

> <PUBCHEM_SUBSTANCE_ID>
310937920

> <PUBCHEM_SUBSTANCE_VERSION>
1

> <PUBCHEM_EXT_DATASOURCE_NAME>
4488

> <PUBCHEM_EXT_DATASOURCE_REGID>
SCHEMBL16115749

> <PUBCHEM_SUBSTANCE_COMMENT>
InChI=1S/C18H20BrN3/c1-4-17(2,3)22-15-5-6-16(22)9-18(8-15,12-20)13-7-14(19)11-21-10-13/h1,7,10-11,15-16H,5-6,8-9H2,2-3H3/t15-,16+,18?
InChIKey=OOTFPHQWYUBJAH-BYICEURKSA-N

> <PUBCHEM_SUBSTANCE_SYNONYM>
SCHEMBL16115749

> <PUBCHEM_XREF_EXT_ID>
SCHEMBL16115749

> <PUBCHEM_EXT_DATASOURCE_URL>
https://www.surechembl.org/

> <PUBCHEM_EXT_SUBSTANCE_URL>
https://www.surechembl.org/chemical/SCHEMBL16115749

> <PUBCHEM_CID_ASSOCIATIONS>
117605533  1

> <PUBCHEM_COORDINATE_TYPE>
1
3

> <PUBCHEM_BONDANNOTATIONS>
6  2  5
7  2  6

$$$$
