310948448
  -OEChem-07211613022D

 33 36  0     1  0  0  0  0  0999 V2000
   -1.8362   -2.4375    0.0000 S   0  0  0  0  0  0  0  0  0  0  0  0
   -2.3863    2.5527    0.0000 O   0  0  0  0  0  0  0  0  0  0  0  0
   -2.6678   -2.4375    0.0000 O   0  0  0  0  0  0  0  0  0  0  0  0
   -1.0044   -2.4375    0.0000 O   0  0  0  0  0  0  0  0  0  0  0  0
    0.1984    1.5674    0.0000 N   0  0  0  0  0  0  0  0  0  0  0  0
   -0.3519    0.9532    0.0000 N   0  0  0  0  0  0  0  0  0  0  0  0
   -1.8362    0.8764    0.0000 N   0  0  0  0  0  0  0  0  0  0  0  0
   -1.3243    3.5124    0.0000 N   0  0  0  0  0  0  0  0  0  0  0  0
   -1.8362   -3.2564    0.0000 N   0  0  0  0  0  0  0  0  0  0  0  0
    0.3263   -1.1964    0.0000 N   0  0  0  0  0  0  0  0  0  0  0  0
    0.4159   -0.6206    0.0000 N   0  0  0  0  0  0  0  0  0  0  0  0
   -1.0172    2.1177    0.0000 C   0  0  0  0  0  0  0  0  0  0  0  0
   -0.2111    2.2713    0.0000 C   0  0  0  0  0  0  0  0  0  0  0  0
   -1.1068    1.2987    0.0000 C   0  0  0  0  0  0  0  0  0  0  0  0
    1.0300    1.4779    0.0000 C   0  0  3  0  0  0  0  0  0  0  0  0
   -1.5803    2.7446    0.0000 C   0  0  0  0  0  0  0  0  0  0  0  0
   -1.8233   -1.5930    0.0000 C   0  0  0  0  0  0  0  0  0  0  0  0
    0.0448    3.0645    0.0000 C   0  0  0  0  0  0  0  0  0  0  0  0
   -1.8233    0.0448    0.0000 C   0  0  0  0  0  0  0  0  0  0  0  0
   -1.1323   -1.1835    0.0000 C   0  0  0  0  0  0  0  0  0  0  0  0
    1.3627    0.7358    0.0000 C   0  0  3  0  0  0  0  0  0  0  0  0
   -1.1196   -0.3647    0.0000 C   0  0  0  0  0  0  0  0  0  0  0  0
   -0.5182    3.6916    0.0000 C   0  0  0  0  0  0  0  0  0  0  0  0
    1.5162    2.1433    0.0000 C   0  0  0  0  0  0  0  0  0  0  0  0
   -2.5398   -1.1835    0.0000 C   0  0  0  0  0  0  0  0  0  0  0  0
   -2.5398   -0.3647    0.0000 C   0  0  0  0  0  0  0  0  0  0  0  0
    2.1945    0.6462    0.0000 C   0  0  0  0  0  0  0  0  0  0  0  0
   -0.3775   -1.5930    0.0000 C   0  0  0  0  0  0  0  0  0  0  0  0
    0.8764    0.0448    0.0000 C   0  0  0  0  0  0  0  0  0  0  0  0
    2.3351    2.0537    0.0000 C   0  0  0  0  0  0  0  0  0  0  0  0
    2.6678    1.2987    0.0000 C   0  0  0  0  0  0  0  0  0  0  0  0
   -2.5527   -3.6660    0.0000 C   0  0  0  0  0  0  0  0  0  0  0  0
   -1.1068   -3.6916    0.0000 C   0  0  0  0  0  0  0  0  0  0  0  0
  1  3  2  0  0  0  0
  1  4  2  0  0  0  0
  1  9  1  0  0  0  0
  1 17  1  0  0  0  0
  2 16  2  0  0  0  0
  5  6  1  0  0  0  0
  5 13  1  0  0  0  0
 15  5  1  1  0  0  0
  6 14  2  0  0  0  0
  7 14  1  0  0  0  0
  7 19  1  0  0  0  0
  8 16  1  0  0  0  0
  8 23  1  0  0  0  0
  9 32  1  0  0  0  0
  9 33  1  0  0  0  0
 10 28  1  0  0  0  0
 11 29  3  0  0  0  0
 12 13  2  0  0  0  0
 12 14  1  0  0  0  0
 12 16  1  0  0  0  0
 13 18  1  0  0  0  0
 15 21  1  0  0  0  0
 15 24  1  0  0  0  0
 17 20  2  0  0  0  0
 17 25  1  0  0  0  0
 18 23  2  0  0  0  0
 19 22  2  0  0  0  0
 19 26  1  0  0  0  0
 20 22  1  0  0  0  0
 20 28  1  0  0  0  0
 21 27  1  0  0  0  0
 21 29  1  6  0  0  0
 24 30  1  0  0  0  0
 25 26  2  0  0  0  0
 27 31  1  0  0  0  0
 30 31  1  0  0  0  0
M  END
> <PUBCHEM_COMPOUND_ID_TYPE>
0

> <PUBCHEM_TOTAL_CHARGE>
0

> <PUBCHEM_SUBSTANCE_ID>
310948448

> <PUBCHEM_SUBSTANCE_VERSION>
1

> <PUBCHEM_EXT_DATASOURCE_NAME>
4488

> <PUBCHEM_EXT_DATASOURCE_REGID>
SCHEMBL16126629

> <PUBCHEM_SUBSTANCE_COMMENT>
InChI=1S/C22H27N7O3S/c1-28(2)33(31,32)19-8-7-16(11-15(19)13-24)26-21-20-18(9-10-25-22(20)30)29(27-21)17-6-4-3-5-14(17)12-23/h7-11,14,17H,3-6,13,24H2,1-2H3,(H,25,30)(H,26,27)/t14-,17+/m1/s1
InChIKey=GBHIKDNNYJBTRC-PBHICJAKSA-N

> <PUBCHEM_SUBSTANCE_SYNONYM>
SCHEMBL16126629

> <PUBCHEM_XREF_EXT_ID>
SCHEMBL16126629

> <PUBCHEM_EXT_DATASOURCE_URL>
https://www.surechembl.org/

> <PUBCHEM_EXT_SUBSTANCE_URL>
https://www.surechembl.org/chemical/SCHEMBL16126629

> <PUBCHEM_CID_ASSOCIATIONS>
117614006  1

> <PUBCHEM_COORDINATE_TYPE>
1
3

> <PUBCHEM_BONDANNOTATIONS>
21  29  6
15  5  5

$$$$
