310937645
  -OEChem-07211613022D

 12 11  0     0  0  0  0  0  0999 V2000
    0.8013   -0.8013    0.0000 S   0  0  0  0  0  0  0  0  0  0  0  0
    1.5224   -2.8579    0.0000 O   0  0  0  0  0  0  0  0  0  0  0  0
    1.7094   -0.8013    0.0000 O   0  0  0  0  0  0  0  0  0  0  0  0
    0.0000   -0.8013    0.0000 O   0  0  0  0  0  0  0  0  0  0  0  0
    0.8013    0.0000    0.0000 O   0  0  0  0  0  0  0  0  0  0  0  0
    2.9380   -2.8579    0.0000 O   0  0  0  0  0  0  0  0  0  0  0  0
    1.5224   -5.3418    0.0000 N   0  0  0  0  0  0  0  0  0  0  0  0
    0.8013   -1.6292    0.0000 C   0  0  0  0  0  0  0  0  0  0  0  0
    1.5224   -2.0299    0.0000 C   0  0  0  0  0  0  0  0  0  0  0  0
    2.2436   -3.2852    0.0000 C   0  0  0  0  0  0  0  0  0  0  0  0
    2.2436   -4.1132    0.0000 C   0  0  0  0  0  0  0  0  0  0  0  0
    1.5224   -4.5139    0.0000 C   0  0  0  0  0  0  0  0  0  0  0  0
  1  3  2  0  0  0  0
  1  4  2  0  0  0  0
  1  5  1  0  0  0  0
  1  8  1  0  0  0  0
  2  9  1  0  0  0  0
  2 10  1  0  0  0  0
  6 10  2  0  0  0  0
  7 12  3  0  0  0  0
  8  9  1  0  0  0  0
 10 11  1  0  0  0  0
 11 12  1  0  0  0  0
M  END
> <PUBCHEM_COMPOUND_ID_TYPE>
0

> <PUBCHEM_TOTAL_CHARGE>
0

> <PUBCHEM_SUBSTANCE_ID>
310937645

> <PUBCHEM_SUBSTANCE_VERSION>
1

> <PUBCHEM_EXT_DATASOURCE_NAME>
4488

> <PUBCHEM_EXT_DATASOURCE_REGID>
SCHEMBL16115434

> <PUBCHEM_SUBSTANCE_COMMENT>
InChI=1S/C5H7NO5S/c6-2-1-5(7)11-3-4-12(8,9)10/h1,3-4H2,(H,8,9,10)
InChIKey=NXXLFCBRAPIYCF-UHFFFAOYSA-N

> <PUBCHEM_SUBSTANCE_SYNONYM>
SCHEMBL16115434

> <PUBCHEM_XREF_EXT_ID>
SCHEMBL16115434

> <PUBCHEM_EXT_DATASOURCE_URL>
https://www.surechembl.org/

> <PUBCHEM_EXT_SUBSTANCE_URL>
https://www.surechembl.org/chemical/SCHEMBL16115434

> <PUBCHEM_CID_ASSOCIATIONS>
92001182  1

> <PUBCHEM_COORDINATE_TYPE>
1
3

$$$$
