310949627
  -OEChem-07211613022D

 27 29  0     0  0  0  0  0  0999 V2000
    0.9628    1.2364    0.0000 O   0  0  0  0  0  0  0  0  0  0  0  0
   -1.9154    0.4256    0.0000 O   0  0  0  0  0  0  0  0  0  0  0  0
    3.7598    2.0471    0.0000 O   0  0  0  0  0  0  0  0  0  0  0  0
    2.4221    0.3445    0.0000 N   0  0  0  0  0  0  0  0  0  0  0  0
    1.7533   -0.7905    0.0000 N   0  0  0  0  0  0  0  0  0  0  0  0
    2.5641   -0.9729    0.0000 N   0  0  0  0  0  0  0  0  0  0  0  0
    0.2331    0.0202    0.0000 N   0  0  0  0  0  0  0  0  0  0  0  0
    1.6924    0.0405    0.0000 C   0  0  0  0  0  0  0  0  0  0  0  0
    2.9897   -0.2432    0.0000 C   0  0  0  0  0  0  0  0  0  0  0  0
    0.9426    0.4256    0.0000 C   0  0  0  0  0  0  0  0  0  0  0  0
    2.7059    1.1148    0.0000 C   0  0  0  0  0  0  0  0  0  0  0  0
    3.8004   -0.0811    0.0000 C   0  0  0  0  0  0  0  0  0  0  0  0
    3.4964    1.2973    0.0000 C   0  0  0  0  0  0  0  0  0  0  0  0
   -2.6451   -0.7702    0.0000 C   0  0  0  0  0  0  0  0  0  0  0  0
    4.0639    0.6891    0.0000 C   0  0  0  0  0  0  0  0  0  0  0  0
   -2.6451    0.0202    0.0000 C   0  0  0  0  0  0  0  0  0  0  0  0
   -1.9154   -1.2162    0.0000 C   0  0  0  0  0  0  0  0  0  0  0  0
   -0.4965    0.4256    0.0000 C   0  0  0  0  0  0  0  0  0  0  0  0
   -3.3342   -1.1553    0.0000 C   0  0  0  0  0  0  0  0  0  0  0  0
   -3.3544    0.4459    0.0000 C   0  0  0  0  0  0  0  0  0  0  0  0
   -1.1857    0.0202    0.0000 C   0  0  0  0  0  0  0  0  0  0  0  0
    0.2331   -0.8107    0.0000 C   0  0  0  0  0  0  0  0  0  0  0  0
   -4.0639   -0.7702    0.0000 C   0  0  0  0  0  0  0  0  0  0  0  0
   -4.0436    0.0405    0.0000 C   0  0  0  0  0  0  0  0  0  0  0  0
   -1.2060   -0.7905    0.0000 C   0  0  0  0  0  0  0  0  0  0  0  0
   -1.2060   -1.6013    0.0000 C   0  0  0  0  0  0  0  0  0  0  0  0
   -1.9356   -2.0471    0.0000 C   0  0  0  0  0  0  0  0  0  0  0  0
  1 10  2  0  0  0  0
  2 16  1  0  0  0  0
  2 21  1  0  0  0  0
  3 13  1  0  0  0  0
  4  8  1  0  0  0  0
  4  9  1  0  0  0  0
  4 11  1  0  0  0  0
  5  6  1  0  0  0  0
  5  8  2  0  0  0  0
  6  9  2  0  0  0  0
  7 10  1  0  0  0  0
  7 18  1  0  0  0  0
  7 22  1  0  0  0  0
  8 10  1  0  0  0  0
  9 12  1  0  0  0  0
 11 13  2  0  0  0  0
 12 15  2  0  0  0  0
 13 15  1  0  0  0  0
 14 16  1  0  0  0  0
 14 17  1  0  0  0  0
 14 19  2  0  0  0  0
 16 20  2  0  0  0  0
 17 25  1  0  0  0  0
 17 26  1  0  0  0  0
 17 27  1  0  0  0  0
 18 21  1  0  0  0  0
 19 23  1  0  0  0  0
 20 24  1  0  0  0  0
 23 24  2  0  0  0  0
M  END
> <PUBCHEM_COMPOUND_ID_TYPE>
0

> <PUBCHEM_TOTAL_CHARGE>
0

> <PUBCHEM_SUBSTANCE_ID>
310949627

> <PUBCHEM_SUBSTANCE_VERSION>
1

> <PUBCHEM_EXT_DATASOURCE_NAME>
4488

> <PUBCHEM_EXT_DATASOURCE_REGID>
SCHEMBL16127825

> <PUBCHEM_SUBSTANCE_COMMENT>
InChI=1S/C20H24N4O3/c1-20(2,3)15-7-5-6-8-16(15)27-12-11-23(4)19(26)18-22-21-17-10-9-14(25)13-24(17)18/h5-10,13,25H,11-12H2,1-4H3
InChIKey=VIWICHQRRXNDFG-UHFFFAOYSA-N

> <PUBCHEM_SUBSTANCE_SYNONYM>
SCHEMBL16127825

> <PUBCHEM_XREF_EXT_ID>
SCHEMBL16127825

> <PUBCHEM_EXT_DATASOURCE_URL>
https://www.surechembl.org/

> <PUBCHEM_EXT_SUBSTANCE_URL>
https://www.surechembl.org/chemical/SCHEMBL16127825

> <PUBCHEM_CID_ASSOCIATIONS>
117615014  1

> <PUBCHEM_COORDINATE_TYPE>
1
3

$$$$
