310935627
  -OEChem-07211613022D

 30 33  0     0  0  0  0  0  0999 V2000
    2.5720   -0.4008    0.0000 Cl  0  0  0  0  0  0  0  0  0  0  0  0
    0.0000   -6.6806    0.0000 F   0  0  0  0  0  0  0  0  0  0  0  0
    1.3027   -3.0397    0.0000 O   0  0  0  0  0  0  0  0  0  0  0  0
    2.7390   -5.1107    0.0000 O   0  0  0  0  0  0  0  0  0  0  0  0
    6.9144   -1.2359    0.0000 O   0  0  0  0  0  0  0  0  0  0  0  0
    6.2130   -2.4718    0.0000 O   0  0  0  0  0  0  0  0  0  0  0  0
    1.9040   -1.6367    0.0000 N   0  0  0  0  0  0  0  0  0  0  0  0
    3.8080   -4.1420    0.0000 N   0  0  0  0  0  0  0  0  0  0  0  0
    4.7766    0.0000    0.0000 N   0  0  0  0  0  0  0  0  0  0  0  0
    2.6388   -2.9061    0.0000 C   0  0  0  0  0  0  0  0  0  0  0  0
    2.4384   -3.7078    0.0000 C   0  0  0  0  0  0  0  0  0  0  0  0
    1.9040   -2.4718    0.0000 C   0  0  0  0  0  0  0  0  0  0  0  0
    1.6367   -3.8080    0.0000 C   0  0  0  0  0  0  0  0  0  0  0  0
    3.3403   -1.6702    0.0000 C   0  0  0  0  0  0  0  0  0  0  0  0
    3.3403   -2.4718    0.0000 C   0  0  0  0  0  0  0  0  0  0  0  0
    2.6054   -1.2359    0.0000 C   0  0  0  0  0  0  0  0  0  0  0  0
    1.2025   -4.5095    0.0000 C   0  0  0  0  0  0  0  0  0  0  0  0
    3.0063   -4.3090    0.0000 C   0  0  0  0  0  0  0  0  0  0  0  0
    4.0418   -1.2359    0.0000 C   0  0  0  0  0  0  0  0  0  0  0  0
    1.6367   -5.2443    0.0000 C   0  0  0  0  0  0  0  0  0  0  0  0
    0.4008   -4.5428    0.0000 C   0  0  0  0  0  0  0  0  0  0  0  0
    4.7766   -1.6367    0.0000 C   0  0  0  0  0  0  0  0  0  0  0  0
    4.0418   -0.4342    0.0000 C   0  0  0  0  0  0  0  0  0  0  0  0
    5.4781   -1.2359    0.0000 C   0  0  0  0  0  0  0  0  0  0  0  0
    1.2359   -5.9458    0.0000 C   0  0  0  0  0  0  0  0  0  0  0  0
    0.0000   -5.2443    0.0000 C   0  0  0  0  0  0  0  0  0  0  0  0
    0.4008   -5.9458    0.0000 C   0  0  0  0  0  0  0  0  0  0  0  0
    5.4781   -0.4342    0.0000 C   0  0  0  0  0  0  0  0  0  0  0  0
    6.2130   -1.6367    0.0000 C   0  0  0  0  0  0  0  0  0  0  0  0
    4.3758   -4.7432    0.0000 C   0  0  0  0  0  0  0  0  0  0  0  0
  1 16  1  0  0  0  0
  2 27  1  0  0  0  0
  3 12  1  0  0  0  0
  3 13  1  0  0  0  0
  4 18  2  0  0  0  0
  5 29  2  0  0  0  0
  6 29  1  0  0  0  0
  7 12  1  0  0  0  0
  7 16  2  0  0  0  0
  8 18  1  0  0  0  0
  8 30  1  0  0  0  0
  9 23  2  0  0  0  0
  9 28  1  0  0  0  0
 10 11  1  0  0  0  0
 10 12  2  0  0  0  0
 10 15  1  0  0  0  0
 11 13  2  0  0  0  0
 11 18  1  0  0  0  0
 13 17  1  0  0  0  0
 14 15  2  0  0  0  0
 14 16  1  0  0  0  0
 14 19  1  0  0  0  0
 17 20  2  0  0  0  0
 17 21  1  0  0  0  0
 19 22  2  0  0  0  0
 19 23  1  0  0  0  0
 20 25  1  0  0  0  0
 21 26  2  0  0  0  0
 22 24  1  0  0  0  0
 24 28  2  0  0  0  0
 24 29  1  0  0  0  0
 25 27  2  0  0  0  0
 26 27  1  0  0  0  0
M  END
> <PUBCHEM_COMPOUND_ID_TYPE>
0

> <PUBCHEM_TOTAL_CHARGE>
0

> <PUBCHEM_SUBSTANCE_ID>
310935627

> <PUBCHEM_SUBSTANCE_VERSION>
1

> <PUBCHEM_EXT_DATASOURCE_NAME>
4488

> <PUBCHEM_EXT_DATASOURCE_REGID>
SCHEMBL16113205

> <PUBCHEM_SUBSTANCE_COMMENT>
InChI=1S/C21H13ClFN3O4/c1-24-19(27)16-15-7-14(11-6-12(21(28)29)9-25-8-11)18(22)26-20(15)30-17(16)10-2-4-13(23)5-3-10/h2-9H,1H3,(H,24,27)(H,28,29)
InChIKey=UCQHANOHRPLQFD-UHFFFAOYSA-N

> <PUBCHEM_SUBSTANCE_SYNONYM>
SCHEMBL16113205

> <PUBCHEM_XREF_EXT_ID>
SCHEMBL16113205

> <PUBCHEM_EXT_DATASOURCE_URL>
https://www.surechembl.org/

> <PUBCHEM_EXT_SUBSTANCE_URL>
https://www.surechembl.org/chemical/SCHEMBL16113205

> <PUBCHEM_CID_ASSOCIATIONS>
117603644  1

> <PUBCHEM_COORDINATE_TYPE>
1
3

$$$$
