310932381
  -OEChem-07211613022D

 28 33  0     0  0  0  0  0  0999 V2000
    3.1180    0.0000    0.0000 O   0  0  0  0  0  0  0  0  0  0  0  0
    0.0000   -4.0715    0.0000 O   0  0  0  0  0  0  0  0  0  0  0  0
    5.5660   -2.9376    0.0000 O   0  0  0  0  0  0  0  0  0  0  0  0
    2.2935    0.0000    0.0000 N   0  0  0  0  0  0  0  0  0  0  0  0
    4.2518   -2.2676    0.0000 N   0  0  0  0  0  0  0  0  0  0  0  0
    4.2518   -3.6077    0.0000 N   0  0  0  0  0  0  0  0  0  0  0  0
    0.4123   -4.7930    0.0000 N   0  0  0  0  0  0  0  0  0  0  0  0
    2.7057   -1.2884    0.0000 C   0  0  0  0  0  0  0  0  0  0  0  0
    2.7315   -2.1130    0.0000 C   0  0  0  0  0  0  0  0  0  0  0  0
    3.4530   -2.4996    0.0000 C   0  0  0  0  0  0  0  0  0  0  0  0
    3.3757   -0.7731    0.0000 C   0  0  0  0  0  0  0  0  0  0  0  0
    2.0358   -0.7988    0.0000 C   0  0  0  0  0  0  0  0  0  0  0  0
    3.4530   -3.3757    0.0000 C   0  0  0  0  0  0  0  0  0  0  0  0
    2.0358   -3.3757    0.0000 C   0  0  0  0  0  0  0  0  0  0  0  0
    2.0358   -2.4996    0.0000 C   0  0  0  0  0  0  0  0  0  0  0  0
    4.1745   -1.0050    0.0000 C   0  0  0  0  0  0  0  0  0  0  0  0
    1.2627   -1.0565    0.0000 C   0  0  0  0  0  0  0  0  0  0  0  0
    1.3142   -3.7880    0.0000 C   0  0  0  0  0  0  0  0  0  0  0  0
    2.7315   -3.7622    0.0000 C   0  0  0  0  0  0  0  0  0  0  0  0
    4.7415   -2.9376    0.0000 C   0  0  0  0  0  0  0  0  0  0  0  0
    4.9734   -0.8246    0.0000 C   0  0  0  0  0  0  0  0  0  0  0  0
    4.7415   -1.6234    0.0000 C   0  0  0  0  0  0  0  0  0  0  0  0
    0.7215   -1.6750    0.0000 C   0  0  0  0  0  0  0  0  0  0  0  0
    0.4381   -0.9019    0.0000 C   0  0  0  0  0  0  0  0  0  0  0  0
    0.5669   -3.4530    0.0000 C   0  0  0  0  0  0  0  0  0  0  0  0
    1.2369   -4.5868    0.0000 C   0  0  0  0  0  0  0  0  0  0  0  0
    0.3608   -2.6542    0.0000 C   0  0  0  0  0  0  0  0  0  0  0  0
    1.8553   -5.1538    0.0000 C   0  0  0  0  0  0  0  0  0  0  0  0
  1  4  1  0  0  0  0
  1 11  1  0  0  0  0
  2  7  1  0  0  0  0
  2 25  1  0  0  0  0
  3 20  2  0  0  0  0
  4 12  2  0  0  0  0
  5 10  1  0  0  0  0
  5 20  1  0  0  0  0
  6 13  1  0  0  0  0
  6 20  1  0  0  0  0
  7 26  2  0  0  0  0
  8  9  1  0  0  0  0
  8 11  2  0  0  0  0
  8 12  1  0  0  0  0
  9 10  1  0  0  0  0
  9 15  2  0  0  0  0
 10 13  2  0  0  0  0
 11 16  1  0  0  0  0
 12 17  1  0  0  0  0
 13 19  1  0  0  0  0
 14 15  1  0  0  0  0
 14 18  1  0  0  0  0
 14 19  2  0  0  0  0
 16 21  1  0  0  0  0
 16 22  1  0  0  0  0
 17 23  1  0  0  0  0
 17 24  1  0  0  0  0
 18 25  2  0  0  0  0
 18 26  1  0  0  0  0
 21 22  1  0  0  0  0
 23 24  1  0  0  0  0
 25 27  1  0  0  0  0
 26 28  1  0  0  0  0
M  END
> <PUBCHEM_COMPOUND_ID_TYPE>
0

> <PUBCHEM_TOTAL_CHARGE>
0

> <PUBCHEM_SUBSTANCE_ID>
310932381

> <PUBCHEM_SUBSTANCE_VERSION>
1

> <PUBCHEM_EXT_DATASOURCE_NAME>
4488

> <PUBCHEM_EXT_DATASOURCE_REGID>
SCHEMBL16109747

> <PUBCHEM_SUBSTANCE_COMMENT>
InChI=1S/C21H20N4O3/c1-9-16(10(2)27-24-9)13-7-14(19-15(8-13)22-21(26)23-19)17-18(11-3-4-11)25-28-20(17)12-5-6-12/h7-8,11-12H,3-6H2,1-2H3,(H2,22,23,26)
InChIKey=DFTALPPAXJVRFD-UHFFFAOYSA-N

> <PUBCHEM_SUBSTANCE_SYNONYM>
SCHEMBL16109747

> <PUBCHEM_XREF_EXT_ID>
SCHEMBL16109747

> <PUBCHEM_EXT_DATASOURCE_URL>
https://www.surechembl.org/

> <PUBCHEM_EXT_SUBSTANCE_URL>
https://www.surechembl.org/chemical/SCHEMBL16109747

> <PUBCHEM_CID_ASSOCIATIONS>
117600936  1

> <PUBCHEM_COORDINATE_TYPE>
1
3

$$$$
