310945939
  -OEChem-07211613022D

 37 39  0     1  0  0  0  0  0999 V2000
    4.3852    0.6650    0.0000 O   0  0  0  0  0  0  0  0  0  0  0  0
    3.2490   -1.2884    0.0000 O   0  0  0  0  0  0  0  0  0  0  0  0
    1.0877    0.7759    0.0000 O   0  0  0  0  0  0  0  0  0  0  0  0
   -1.0738   -1.2884    0.0000 O   0  0  0  0  0  0  0  0  0  0  0  0
    3.2490   -2.9511    0.0000 O   0  0  0  0  0  0  0  0  0  0  0  0
   -3.9556   -0.4572    0.0000 O   0  0  0  0  0  0  0  0  0  0  0  0
   -3.2352    0.7759    0.0000 O   0  0  0  0  0  0  0  0  0  0  0  0
    1.8220   -0.4572    0.0000 N   0  0  0  0  0  0  0  0  0  0  0  0
   -0.3533   -0.0416    0.0000 N   0  0  0  0  0  0  0  0  0  0  0  0
   -2.5147   -0.4572    0.0000 N   0  0  0  0  0  0  0  0  0  0  0  0
    3.9695    0.0000    0.0000 C   0  0  3  0  0  0  0  0  0  0  0  0
    3.2490   -0.4157    0.0000 C   0  0  0  0  0  0  0  0  0  0  0  0
    3.5816    0.6789    0.0000 C   0  0  0  0  0  0  0  0  0  0  0  0
    2.5424   -0.0138    0.0000 C   0  0  3  0  0  0  0  0  0  0  0  0
    4.6899   -0.4295    0.0000 C   0  0  0  0  0  0  0  0  0  0  0  0
    2.5286    1.3024    0.0000 C   0  0  0  0  0  0  0  0  0  0  0  0
    1.0877   -0.0416    0.0000 C   0  0  0  0  0  0  0  0  0  0  0  0
    0.3811   -0.4295    0.0000 C   0  0  3  0  0  0  0  0  0  0  0  0
    1.8220    1.7318    0.0000 C   0  0  0  0  0  0  0  0  0  0  0  0
    0.3811   -1.2470    0.0000 C   0  0  0  0  0  0  0  0  0  0  0  0
    1.1154   -1.6765    0.0000 C   0  0  0  0  0  0  0  0  0  0  0  0
   -1.0599   -0.4157    0.0000 C   0  0  0  0  0  0  0  0  0  0  0  0
    1.1015    1.3162    0.0000 C   0  0  0  0  0  0  0  0  0  0  0  0
    1.8220    2.5354    0.0000 C   0  0  0  0  0  0  0  0  0  0  0  0
   -1.7804   -0.0138    0.0000 C   0  0  3  0  0  0  0  0  0  0  0  0
    1.1154   -2.5078    0.0000 C   0  0  0  0  0  0  0  0  0  0  0  0
    1.8081   -1.2746    0.0000 C   0  0  0  0  0  0  0  0  0  0  0  0
    2.5424   -2.4939    0.0000 C   0  0  0  0  0  0  0  0  0  0  0  0
    0.3949    1.7180    0.0000 C   0  0  0  0  0  0  0  0  0  0  0  0
    1.0877    2.9511    0.0000 C   0  0  0  0  0  0  0  0  0  0  0  0
    1.8220   -2.9096    0.0000 C   0  0  0  0  0  0  0  0  0  0  0  0
    2.5424   -1.6903    0.0000 C   0  0  0  0  0  0  0  0  0  0  0  0
    0.3949    2.5354    0.0000 C   0  0  0  0  0  0  0  0  0  0  0  0
   -3.2352   -0.0416    0.0000 C   0  0  0  0  0  0  0  0  0  0  0  0
   -1.7943    0.7897    0.0000 C   0  0  0  0  0  0  0  0  0  0  0  0
    3.9971   -2.5216    0.0000 C   0  0  0  0  0  0  0  0  0  0  0  0
   -4.6899   -0.0277    0.0000 C   0  0  0  0  0  0  0  0  0  0  0  0
  1 11  1  0  0  0  0
  1 13  1  0  0  0  0
  2 12  2  0  0  0  0
  3 17  2  0  0  0  0
  4 22  2  0  0  0  0
  5 28  1  0  0  0  0
  5 36  1  0  0  0  0
  6 34  1  0  0  0  0
  6 37  1  0  0  0  0
  7 34  2  0  0  0  0
 14  8  1  1  0  0  0
  8 17  1  0  0  0  0
 18  9  1  6  0  0  0
  9 22  1  0  0  0  0
 10 25  1  0  0  0  0
 10 34  1  0  0  0  0
 11 12  1  1  0  0  0
 11 13  1  0  0  0  0
 11 15  1  6  0  0  0
 12 14  1  0  0  0  0
 14 16  1  0  0  0  0
 16 19  1  0  0  0  0
 17 18  1  0  0  0  0
 18 20  1  0  0  0  0
 19 23  2  0  0  0  0
 19 24  1  0  0  0  0
 20 21  1  0  0  0  0
 21 26  2  0  0  0  0
 21 27  1  0  0  0  0
 22 25  1  0  0  0  0
 23 29  1  0  0  0  0
 24 30  2  0  0  0  0
 25 35  1  6  0  0  0
 26 31  1  0  0  0  0
 27 32  2  0  0  0  0
 28 31  2  0  0  0  0
 28 32  1  0  0  0  0
 29 33  2  0  0  0  0
 30 33  1  0  0  0  0
M  END
> <PUBCHEM_COMPOUND_ID_TYPE>
0

> <PUBCHEM_TOTAL_CHARGE>
0

> <PUBCHEM_SUBSTANCE_ID>
310945939

> <PUBCHEM_SUBSTANCE_VERSION>
1

> <PUBCHEM_EXT_DATASOURCE_NAME>
4488

> <PUBCHEM_EXT_DATASOURCE_REGID>
SCHEMBL16124044

> <PUBCHEM_SUBSTANCE_COMMENT>
InChI=1S/C27H33N3O7/c1-17(28-26(34)36-4)24(32)30-22(15-19-10-12-20(35-3)13-11-19)25(33)29-21(23(31)27(2)16-37-27)14-18-8-6-5-7-9-18/h5-13,17,21-22H,14-16H2,1-4H3,(H,28,34)(H,29,33)(H,30,32)/t17-,21+,22+,27-/m1/s1
InChIKey=XRWGZIDIMGCGCA-QVYLWBBZSA-N

> <PUBCHEM_SUBSTANCE_SYNONYM>
SCHEMBL16124044

> <PUBCHEM_XREF_EXT_ID>
SCHEMBL16124044

> <PUBCHEM_EXT_DATASOURCE_URL>
https://www.surechembl.org/

> <PUBCHEM_EXT_SUBSTANCE_URL>
https://www.surechembl.org/chemical/SCHEMBL16124044

> <PUBCHEM_CID_ASSOCIATIONS>
117611922  1

> <PUBCHEM_COORDINATE_TYPE>
1
3

> <PUBCHEM_BONDANNOTATIONS>
11  12  5
11  15  6
25  35  6
14  8  5
18  9  6

$$$$
