310940192
  -OEChem-07211613022D

 16 16  0     1  0  0  0  0  0999 V2000
   -1.8861   -0.4374    0.0000 O   0  0  0  0  0  0  0  0  0  0  0  0
   -0.0820    0.8200    0.0000 O   0  0  0  0  0  0  0  0  0  0  0  0
   -1.7402    0.9840    0.0000 O   0  0  0  0  0  0  0  0  0  0  0  0
    2.0136    1.9498    0.0000 N   0  0  0  0  0  0  0  0  0  0  0  0
   -0.5740    0.1458    0.0000 C   0  0  3  0  0  0  0  0  0  0  0  0
   -1.4122    0.2369    0.0000 C   0  0  0  0  0  0  0  0  0  0  0  0
   -1.5398   -1.1845    0.0000 C   0  0  0  0  0  0  0  0  0  0  0  0
   -0.2278   -0.6014    0.0000 C   0  0  0  0  0  0  0  0  0  0  0  0
    1.0843    0.0000    0.0000 C   0  0  3  0  0  0  0  0  0  0  0  0
    0.7563    0.7289    0.0000 C   0  0  0  0  0  0  0  0  0  0  0  0
    0.5922   -0.6924    0.0000 C   0  0  0  0  0  0  0  0  0  0  0  0
    1.8314    0.3280    0.0000 C   0  0  0  0  0  0  0  0  0  0  0  0
   -2.0136   -1.8769    0.0000 C   0  0  0  0  0  0  0  0  0  0  0  0
   -0.7016   -1.2573    0.0000 C   0  0  0  0  0  0  0  0  0  0  0  0
   -1.1753   -1.9498    0.0000 C   0  0  0  0  0  0  0  0  0  0  0  0
    1.9407    1.1298    0.0000 C   0  0  0  0  0  0  0  0  0  0  0  0
  1  6  1  0  0  0  0
  1  7  1  0  0  0  0
  2  5  1  0  0  0  0
  2 10  1  0  0  0  0
  3  6  2  0  0  0  0
  4 16  3  0  0  0  0
  5  6  1  1  0  0  0
  5  8  1  0  0  0  0
  7 13  1  0  0  0  0
  7 14  1  0  0  0  0
  7 15  1  0  0  0  0
  8 11  1  0  0  0  0
  9 10  1  0  0  0  0
  9 11  1  0  0  0  0
  9 12  1  1  0  0  0
 12 16  1  0  0  0  0
M  END
> <PUBCHEM_COMPOUND_ID_TYPE>
0

> <PUBCHEM_TOTAL_CHARGE>
0

> <PUBCHEM_SUBSTANCE_ID>
310940192

> <PUBCHEM_SUBSTANCE_VERSION>
1

> <PUBCHEM_EXT_DATASOURCE_NAME>
4488

> <PUBCHEM_EXT_DATASOURCE_REGID>
SCHEMBL16118126

> <PUBCHEM_SUBSTANCE_COMMENT>
InChI=1S/C12H19NO3/c1-12(2,3)16-11(14)10-5-4-9(6-7-13)8-15-10/h9-10H,4-6,8H2,1-3H3/t9-,10+/m1/s1
InChIKey=FVMABOPXNFWTHV-ZJUUUORDSA-N

> <PUBCHEM_SUBSTANCE_SYNONYM>
SCHEMBL16118126

> <PUBCHEM_XREF_EXT_ID>
SCHEMBL16118126

> <PUBCHEM_EXT_DATASOURCE_URL>
https://www.surechembl.org/

> <PUBCHEM_EXT_SUBSTANCE_URL>
https://www.surechembl.org/chemical/SCHEMBL16118126

> <PUBCHEM_CID_ASSOCIATIONS>
117607296  1

> <PUBCHEM_COORDINATE_TYPE>
1
3

> <PUBCHEM_BONDANNOTATIONS>
5  6  5
9  12  5

$$$$
