310941415
  -OEChem-07211613022D

 21 21  0     1  0  0  0  0  0999 V2000
    2.1600   -1.7786    0.0000 O   0  0  0  0  0  0  0  0  0  0  0  0
    1.5564    0.9089    0.0000 O   0  0  0  0  0  0  0  0  0  0  0  0
   -2.2979    2.0730    0.0000 O   0  0  0  0  0  0  0  0  0  0  0  0
    1.6556   -2.6079    0.0000 O   0  0  0  0  0  0  0  0  0  0  0  0
   -1.3540    0.8931    0.0000 N   0  0  0  0  0  0  0  0  0  0  0  0
    0.1091    0.0593    0.0000 N   0  0  0  0  0  0  0  0  0  0  0  0
    0.1091    0.9089    0.0000 C   0  0  3  0  0  0  0  0  0  0  0  0
   -0.6460    1.3179    0.0000 C   0  0  0  0  0  0  0  0  0  0  0  0
    0.8013    1.3336    0.0000 C   0  0  0  0  0  0  0  0  0  0  0  0
   -2.1248    1.2235    0.0000 C   0  0  0  0  0  0  0  0  0  0  0  0
    1.6556   -2.0700    0.0000 C   0  0  0  0  0  0  0  0  0  0  0  0
   -1.4484    0.0593    0.0000 C   0  0  0  0  0  0  0  0  0  0  0  0
    2.1712   -1.2183    0.0000 C   0  0  0  0  0  0  0  0  0  0  0  0
    0.8485    2.1674    0.0000 C   0  0  0  0  0  0  0  0  0  0  0  0
   -2.6755    0.6100    0.0000 C   0  0  0  0  0  0  0  0  0  0  0  0
   -2.2665   -0.0980    0.0000 C   0  0  0  0  0  0  0  0  0  0  0  0
    2.6755   -1.1958    0.0000 C   0  0  0  0  0  0  0  0  0  0  0  0
    1.6556   -1.2183    0.0000 C   0  0  0  0  0  0  0  0  0  0  0  0
    2.1600   -0.6691    0.0000 C   0  0  0  0  0  0  0  0  0  0  0  0
    0.0934    2.5764    0.0000 C   0  0  0  0  0  0  0  0  0  0  0  0
    1.5722    2.6079    0.0000 C   0  0  0  0  0  0  0  0  0  0  0  0
  1 11  1  0  0  0  0
  1 13  1  0  0  0  0
  2  9  2  0  0  0  0
  3 10  2  0  0  0  0
  4 11  2  0  0  0  0
  5  8  1  0  0  0  0
  5 10  1  0  0  0  0
  5 12  1  0  0  0  0
  7  6  1  1  0  0  0
  6 11  1  0  0  0  0
  7  8  1  0  0  0  0
  7  9  1  0  0  0  0
  9 14  1  0  0  0  0
 10 15  1  0  0  0  0
 12 16  1  0  0  0  0
 13 17  1  0  0  0  0
 13 18  1  0  0  0  0
 13 19  1  0  0  0  0
 14 20  2  0  0  0  0
 14 21  1  0  0  0  0
 15 16  1  0  0  0  0
M  END
> <PUBCHEM_COMPOUND_ID_TYPE>
0

> <PUBCHEM_TOTAL_CHARGE>
0

> <PUBCHEM_SUBSTANCE_ID>
310941415

> <PUBCHEM_SUBSTANCE_VERSION>
1

> <PUBCHEM_EXT_DATASOURCE_NAME>
4488

> <PUBCHEM_EXT_DATASOURCE_REGID>
SCHEMBL16119375

> <PUBCHEM_SUBSTANCE_COMMENT>
InChI=1S/C15H24N2O4/c1-10(2)13(19)11(9-17-8-6-7-12(17)18)16-14(20)21-15(3,4)5/h11H,1,6-9H2,2-5H3,(H,16,20)/t11-/m0/s1
InChIKey=OLUMXQPAMHEBBW-NSHDSACASA-N

> <PUBCHEM_SUBSTANCE_SYNONYM>
SCHEMBL16119375

> <PUBCHEM_XREF_EXT_ID>
SCHEMBL16119375

> <PUBCHEM_EXT_DATASOURCE_URL>
https://www.surechembl.org/

> <PUBCHEM_EXT_SUBSTANCE_URL>
https://www.surechembl.org/chemical/SCHEMBL16119375

> <PUBCHEM_CID_ASSOCIATIONS>
117608240  1

> <PUBCHEM_COORDINATE_TYPE>
1
3

> <PUBCHEM_BONDANNOTATIONS>
7  6  5

$$$$
