310934993
  -OEChem-07211613022D

 11 12  0     0  0  0  0  0  0999 V2000
    2.8008   -1.0422    0.0000 O   0  0  0  0  0  0  0  0  0  0  0  0
    1.7152    0.0000    0.0000 O   0  0  0  0  0  0  0  0  0  0  0  0
    0.0000   -1.4547    0.0000 O   0  0  0  0  0  0  0  0  0  0  0  0
    1.6392   -1.4547    0.0000 C   0  0  0  0  0  0  0  0  0  0  0  0
    2.0192   -0.7708    0.0000 C   0  0  0  0  0  0  0  0  0  0  0  0
    2.0192   -2.1386    0.0000 C   0  0  0  0  0  0  0  0  0  0  0  0
    1.2267   -2.1712    0.0000 C   0  0  0  0  0  0  0  0  0  0  0  0
    1.2267   -0.7382    0.0000 C   0  0  0  0  0  0  0  0  0  0  0  0
    2.8008   -1.8672    0.0000 C   0  0  0  0  0  0  0  0  0  0  0  0
    0.4125   -2.1712    0.0000 C   0  0  0  0  0  0  0  0  0  0  0  0
    0.4125   -0.7382    0.0000 C   0  0  0  0  0  0  0  0  0  0  0  0
  1  5  1  0  0  0  0
  1  9  1  0  0  0  0
  2  5  2  0  0  0  0
  3 10  1  0  0  0  0
  3 11  1  0  0  0  0
  4  5  1  0  0  0  0
  4  6  1  0  0  0  0
  4  7  1  0  0  0  0
  4  8  1  0  0  0  0
  6  9  1  0  0  0  0
  7 10  1  0  0  0  0
  8 11  1  0  0  0  0
M  END
> <PUBCHEM_COMPOUND_ID_TYPE>
0

> <PUBCHEM_TOTAL_CHARGE>
0

> <PUBCHEM_SUBSTANCE_ID>
310934993

> <PUBCHEM_SUBSTANCE_VERSION>
1

> <PUBCHEM_EXT_DATASOURCE_NAME>
4488

> <PUBCHEM_EXT_DATASOURCE_REGID>
SCHEMBL16112511

> <PUBCHEM_SUBSTANCE_COMMENT>
InChI=1S/C8H12O3/c9-7-8(3-6-11-7)1-4-10-5-2-8/h1-6H2
InChIKey=APIPWCNIYUXQKS-UHFFFAOYSA-N

> <PUBCHEM_SUBSTANCE_SYNONYM>
SCHEMBL16112511

> <PUBCHEM_XREF_EXT_ID>
SCHEMBL16112511

> <PUBCHEM_EXT_DATASOURCE_URL>
https://www.surechembl.org/

> <PUBCHEM_EXT_SUBSTANCE_URL>
https://www.surechembl.org/chemical/SCHEMBL16112511

> <PUBCHEM_CID_ASSOCIATIONS>
75458718  1

> <PUBCHEM_COORDINATE_TYPE>
1
3

$$$$
