310944018
  -OEChem-07211613022D

 19 20  0     0  0  0  0  0  0999 V2000
   -0.0078    3.0757    0.0000 F   0  0  0  0  0  0  0  0  0  0  0  0
    2.1623    2.6541    0.0000 N   0  0  0  0  0  0  0  0  0  0  0  0
   -2.1623    2.5605    0.0000 N   0  0  0  0  0  0  0  0  0  0  0  0
    0.0078    0.6245    0.0000 C   0  0  0  0  0  0  0  0  0  0  0  0
   -0.0078    2.2639    0.0000 C   0  0  0  0  0  0  0  0  0  0  0  0
    0.7260    1.8892    0.0000 C   0  0  0  0  0  0  0  0  0  0  0  0
   -0.7260    1.8579    0.0000 C   0  0  0  0  0  0  0  0  0  0  0  0
   -0.0234   -0.1874    0.0000 C   0  0  0  0  0  0  0  0  0  0  0  0
    0.7104    1.0617    0.0000 C   0  0  0  0  0  0  0  0  0  0  0  0
   -0.7104    1.0304    0.0000 C   0  0  0  0  0  0  0  0  0  0  0  0
   -0.7104   -0.6089    0.0000 C   0  0  0  0  0  0  0  0  0  0  0  0
    0.7260   -0.5932    0.0000 C   0  0  0  0  0  0  0  0  0  0  0  0
    1.4441    2.2950    0.0000 C   0  0  0  0  0  0  0  0  0  0  0  0
   -1.4441    2.2326    0.0000 C   0  0  0  0  0  0  0  0  0  0  0  0
    0.0078   -1.8111    0.0000 C   0  0  0  0  0  0  0  0  0  0  0  0
   -0.7104   -1.4052    0.0000 C   0  0  0  0  0  0  0  0  0  0  0  0
    0.7104   -1.4208    0.0000 C   0  0  0  0  0  0  0  0  0  0  0  0
    0.0234   -2.6385    0.0000 C   0  0  0  0  0  0  0  0  0  0  0  0
   -0.7104   -3.0757    0.0000 C   0  0  0  0  0  0  0  0  0  0  0  0
  1  5  1  0  0  0  0
  2 13  3  0  0  0  0
  3 14  3  0  0  0  0
  4  8  1  0  0  0  0
  4  9  2  0  0  0  0
  4 10  1  0  0  0  0
  5  6  2  0  0  0  0
  5  7  1  0  0  0  0
  6  9  1  0  0  0  0
  6 13  1  0  0  0  0
  7 10  2  0  0  0  0
  7 14  1  0  0  0  0
  8 11  1  0  0  0  0
  8 12  1  0  0  0  0
 11 16  1  0  0  0  0
 12 17  1  0  0  0  0
 15 16  1  0  0  0  0
 15 17  1  0  0  0  0
 15 18  1  0  0  0  0
 18 19  1  0  0  0  0
M  END
> <PUBCHEM_COMPOUND_ID_TYPE>
0

> <PUBCHEM_TOTAL_CHARGE>
0

> <PUBCHEM_SUBSTANCE_ID>
310944018

> <PUBCHEM_SUBSTANCE_VERSION>
1

> <PUBCHEM_EXT_DATASOURCE_NAME>
4488

> <PUBCHEM_EXT_DATASOURCE_REGID>
SCHEMBL16122091

> <PUBCHEM_SUBSTANCE_COMMENT>
InChI=1S/C16H17FN2/c1-2-11-3-5-12(6-4-11)13-7-14(9-18)16(17)15(8-13)10-19/h7-8,11-12H,2-6H2,1H3
InChIKey=SGOQQNFVQXUJON-UHFFFAOYSA-N

> <PUBCHEM_SUBSTANCE_SYNONYM>
SCHEMBL16122091

> <PUBCHEM_XREF_EXT_ID>
SCHEMBL16122091

> <PUBCHEM_EXT_DATASOURCE_URL>
https://www.surechembl.org/

> <PUBCHEM_EXT_SUBSTANCE_URL>
https://www.surechembl.org/chemical/SCHEMBL16122091

> <PUBCHEM_CID_ASSOCIATIONS>
117610321  1

> <PUBCHEM_COORDINATE_TYPE>
1
3

$$$$
