310942942
  -OEChem-07211613022D

 33 36  0     0  0  0  0  0  0999 V2000
    2.0713   -1.4575    0.0000 O   0  0  0  0  0  0  0  0  0  0  0  0
   -2.0853    1.4436    0.0000 O   0  0  0  0  0  0  0  0  0  0  0  0
   -4.5681    2.8663    0.0000 O   0  0  0  0  0  0  0  0  0  0  0  0
    4.5820   -2.8245    0.0000 O   0  0  0  0  0  0  0  0  0  0  0  0
    4.5401   -1.3878    0.0000 N   0  0  0  0  0  0  0  0  0  0  0  0
   -4.5681    1.4297    0.0000 N   0  0  0  0  0  0  0  0  0  0  0  0
    3.0058    0.0627    0.0000 N   0  0  0  0  0  0  0  0  0  0  0  0
   -3.0615   -0.0627    0.0000 N   0  0  0  0  0  0  0  0  0  0  0  0
    3.3266   -2.1411    0.0000 N   0  0  0  0  0  0  0  0  0  0  0  0
   -3.3266    2.1550    0.0000 N   0  0  0  0  0  0  0  0  0  0  0  0
   -4.4006   -0.0767    0.0000 N   0  0  0  0  0  0  0  0  0  0  0  0
    4.3448    0.1046    0.0000 N   0  0  0  0  0  0  0  0  0  0  0  0
    3.2849   -0.6905    0.0000 C   0  0  0  0  0  0  0  0  0  0  0  0
   -3.3266    0.7183    0.0000 C   0  0  0  0  0  0  0  0  0  0  0  0
    4.1216   -0.6905    0.0000 C   0  0  0  0  0  0  0  0  0  0  0  0
   -4.1496    0.7323    0.0000 C   0  0  0  0  0  0  0  0  0  0  0  0
    2.9082   -1.4436    0.0000 C   0  0  0  0  0  0  0  0  0  0  0  0
   -2.9360    1.4575    0.0000 C   0  0  0  0  0  0  0  0  0  0  0  0
   -4.1496    2.1550    0.0000 C   0  0  0  0  0  0  0  0  0  0  0  0
    4.1496   -2.1132    0.0000 C   0  0  0  0  0  0  0  0  0  0  0  0
   -3.7311   -0.5370    0.0000 C   0  0  0  0  0  0  0  0  0  0  0  0
    3.6753    0.5788    0.0000 C   0  0  0  0  0  0  0  0  0  0  0  0
   -2.1271    0.4951    0.0000 C   0  0  0  0  0  0  0  0  0  0  0  0
    2.1968    0.5370    0.0000 C   0  0  0  0  0  0  0  0  0  0  0  0
   -5.3909    1.4158    0.0000 C   0  0  0  0  0  0  0  0  0  0  0  0
    5.3909   -1.3599    0.0000 C   0  0  0  0  0  0  0  0  0  0  0  0
   -2.9221    2.8942    0.0000 C   0  0  0  0  0  0  0  0  0  0  0  0
    2.9500   -2.8942    0.0000 C   0  0  0  0  0  0  0  0  0  0  0  0
   -1.3041    0.0627    0.0000 C   0  0  0  0  0  0  0  0  0  0  0  0
    1.4994    0.1185    0.0000 C   0  0  0  0  0  0  0  0  0  0  0  0
   -0.5509    0.5370    0.0000 C   0  0  0  0  0  0  0  0  0  0  0  0
    0.7742    0.5091    0.0000 C   0  0  0  0  0  0  0  0  0  0  0  0
    0.0767    0.0907    0.0000 C   0  0  0  0  0  0  0  0  0  0  0  0
  1 17  2  0  0  0  0
  2 18  2  0  0  0  0
  3 19  2  0  0  0  0
  4 20  2  0  0  0  0
  5 15  1  0  0  0  0
  5 20  1  0  0  0  0
  5 26  1  0  0  0  0
  6 16  1  0  0  0  0
  6 19  1  0  0  0  0
  6 25  1  0  0  0  0
  7 13  1  0  0  0  0
  7 22  1  0  0  0  0
  7 24  1  0  0  0  0
  8 14  1  0  0  0  0
  8 21  1  0  0  0  0
  8 23  1  0  0  0  0
  9 17  1  0  0  0  0
  9 20  1  0  0  0  0
  9 28  1  0  0  0  0
 10 18  1  0  0  0  0
 10 19  1  0  0  0  0
 10 27  1  0  0  0  0
 11 16  1  0  0  0  0
 11 21  2  0  0  0  0
 12 15  1  0  0  0  0
 12 22  2  0  0  0  0
 13 15  2  0  0  0  0
 13 17  1  0  0  0  0
 14 16  2  0  0  0  0
 14 18  1  0  0  0  0
 23 29  1  0  0  0  0
 24 30  1  0  0  0  0
 29 31  1  0  0  0  0
 30 32  1  0  0  0  0
 31 33  1  0  0  0  0
 32 33  1  0  0  0  0
M  END
> <PUBCHEM_COMPOUND_ID_TYPE>
0

> <PUBCHEM_TOTAL_CHARGE>
0

> <PUBCHEM_SUBSTANCE_ID>
310942942

> <PUBCHEM_SUBSTANCE_VERSION>
1

> <PUBCHEM_EXT_DATASOURCE_NAME>
4488

> <PUBCHEM_EXT_DATASOURCE_REGID>
SCHEMBL16121000

> <PUBCHEM_SUBSTANCE_COMMENT>
InChI=1S/C21H28N8O4/c1-24-16-14(18(30)26(3)20(24)32)28(12-22-16)10-8-6-5-7-9-11-29-13-23-17-15(29)19(31)27(4)21(33)25(17)2/h12-13H,5-11H2,1-4H3
InChIKey=YZOLXAILGQPBIP-UHFFFAOYSA-N

> <PUBCHEM_SUBSTANCE_SYNONYM>
SCHEMBL16121000

> <PUBCHEM_XREF_EXT_ID>
SCHEMBL16121000

> <PUBCHEM_EXT_DATASOURCE_URL>
https://www.surechembl.org/

> <PUBCHEM_EXT_SUBSTANCE_URL>
https://www.surechembl.org/chemical/SCHEMBL16121000

> <PUBCHEM_CID_ASSOCIATIONS>
117609406  1

> <PUBCHEM_COORDINATE_TYPE>
1
3

$$$$
