310949840
  -OEChem-07211613022D

 24 25  0     0  0  0  0  0  0999 V2000
    0.0062    0.8372    0.0000 O   0  0  0  0  0  0  0  0  0  0  0  0
   -1.4432    1.6619    0.0000 O   0  0  0  0  0  0  0  0  0  0  0  0
    3.6051   -0.4125    0.0000 O   0  0  0  0  0  0  0  0  0  0  0  0
    3.6051   -2.0869    0.0000 O   0  0  0  0  0  0  0  0  0  0  0  0
   -3.6051    2.0869    0.0000 O   0  0  0  0  0  0  0  0  0  0  0  0
   -2.1431    0.4125    0.0000 N   0  0  0  0  0  0  0  0  0  0  0  0
    2.9053   -1.6619    0.0000 N   0  0  0  0  0  0  0  0  0  0  0  0
   -2.1556   -0.4125    0.0000 C   0  0  0  0  0  0  0  0  0  0  0  0
   -1.4308    0.8247    0.0000 C   0  0  0  0  0  0  0  0  0  0  0  0
    0.7435    0.4249    0.0000 C   0  0  0  0  0  0  0  0  0  0  0  0
    2.1681   -0.4125    0.0000 C   0  0  0  0  0  0  0  0  0  0  0  0
   -0.6935    0.4249    0.0000 C   0  0  0  0  0  0  0  0  0  0  0  0
    1.4683    0.8247    0.0000 C   0  0  0  0  0  0  0  0  0  0  0  0
    0.7435   -0.4125    0.0000 C   0  0  0  0  0  0  0  0  0  0  0  0
    2.1805    0.4125    0.0000 C   0  0  0  0  0  0  0  0  0  0  0  0
    1.4683   -0.8247    0.0000 C   0  0  0  0  0  0  0  0  0  0  0  0
    2.8929   -0.8372    0.0000 C   0  0  0  0  0  0  0  0  0  0  0  0
   -2.8678    0.8372    0.0000 C   0  0  0  0  0  0  0  0  0  0  0  0
   -2.8554   -0.8372    0.0000 C   0  0  0  0  0  0  0  0  0  0  0  0
   -1.4308   -0.8372    0.0000 C   0  0  0  0  0  0  0  0  0  0  0  0
   -2.8554   -1.6619    0.0000 C   0  0  0  0  0  0  0  0  0  0  0  0
   -1.4308   -1.6619    0.0000 C   0  0  0  0  0  0  0  0  0  0  0  0
   -2.1306   -2.0744    0.0000 C   0  0  0  0  0  0  0  0  0  0  0  0
   -2.8678    1.6619    0.0000 C   0  0  0  0  0  0  0  0  0  0  0  0
  1 10  1  0  0  0  0
  1 12  1  0  0  0  0
  2  9  2  0  0  0  0
  3 17  2  0  0  0  0
  4  7  1  0  0  0  0
  5 24  1  0  0  0  0
  6  8  1  0  0  0  0
  6  9  1  0  0  0  0
  6 18  1  0  0  0  0
  7 17  1  0  0  0  0
  8 19  2  0  0  0  0
  8 20  1  0  0  0  0
  9 12  1  0  0  0  0
 10 13  2  0  0  0  0
 10 14  1  0  0  0  0
 11 15  2  0  0  0  0
 11 16  1  0  0  0  0
 11 17  1  0  0  0  0
 13 15  1  0  0  0  0
 14 16  2  0  0  0  0
 18 24  1  0  0  0  0
 19 21  1  0  0  0  0
 20 22  2  0  0  0  0
 21 23  2  0  0  0  0
 22 23  1  0  0  0  0
M  END
> <PUBCHEM_COMPOUND_ID_TYPE>
0

> <PUBCHEM_TOTAL_CHARGE>
0

> <PUBCHEM_SUBSTANCE_ID>
310949840

> <PUBCHEM_SUBSTANCE_VERSION>
1

> <PUBCHEM_EXT_DATASOURCE_NAME>
4488

> <PUBCHEM_EXT_DATASOURCE_REGID>
SCHEMBL16128042

> <PUBCHEM_SUBSTANCE_COMMENT>
InChI=1S/C17H18N2O5/c20-11-10-19(14-4-2-1-3-5-14)16(21)12-24-15-8-6-13(7-9-15)17(22)18-23/h1-9,20,23H,10-12H2,(H,18,22)
InChIKey=JLHMUGKXPVBMIL-UHFFFAOYSA-N

> <PUBCHEM_SUBSTANCE_SYNONYM>
SCHEMBL16128042

> <PUBCHEM_XREF_EXT_ID>
SCHEMBL16128042

> <PUBCHEM_EXT_DATASOURCE_URL>
https://www.surechembl.org/

> <PUBCHEM_EXT_SUBSTANCE_URL>
https://www.surechembl.org/chemical/SCHEMBL16128042

> <PUBCHEM_CID_ASSOCIATIONS>
71523619  1

> <PUBCHEM_COORDINATE_TYPE>
1
3

$$$$
