310944532
  -OEChem-07211613022D

 25 29  0     0  0  0  0  0  0999 V2000
   -0.0318    1.4529    0.0000 N   0  0  0  0  0  0  0  0  0  0  0  0
    0.4136    0.1803    0.0000 C   0  0  0  0  0  0  0  0  0  0  0  0
   -0.4772    0.1803    0.0000 C   0  0  0  0  0  0  0  0  0  0  0  0
    0.7105    0.9650    0.0000 C   0  0  0  0  0  0  0  0  0  0  0  0
   -0.7317    0.9650    0.0000 C   0  0  0  0  0  0  0  0  0  0  0  0
    0.9650   -0.4136    0.0000 C   0  0  0  0  0  0  0  0  0  0  0  0
   -1.0287   -0.4136    0.0000 C   0  0  0  0  0  0  0  0  0  0  0  0
    1.8135   -0.2439    0.0000 C   0  0  0  0  0  0  0  0  0  0  0  0
   -1.8771   -0.2439    0.0000 C   0  0  0  0  0  0  0  0  0  0  0  0
    1.5165    1.1136    0.0000 C   0  0  0  0  0  0  0  0  0  0  0  0
   -1.5590    1.1136    0.0000 C   0  0  0  0  0  0  0  0  0  0  0  0
    2.0680    0.5196    0.0000 C   0  0  0  0  0  0  0  0  0  0  0  0
   -2.1104    0.5408    0.0000 C   0  0  0  0  0  0  0  0  0  0  0  0
    2.4073   -0.8590    0.0000 C   0  0  0  0  0  0  0  0  0  0  0  0
   -2.4498   -0.8802    0.0000 C   0  0  0  0  0  0  0  0  0  0  0  0
    2.1528   -1.6650    0.0000 C   0  0  0  0  0  0  0  0  0  0  0  0
    3.2133   -0.7105    0.0000 C   0  0  0  0  0  0  0  0  0  0  0  0
   -2.1952   -1.6862    0.0000 C   0  0  0  0  0  0  0  0  0  0  0  0
   -3.2769   -0.7317    0.0000 C   0  0  0  0  0  0  0  0  0  0  0  0
    2.7255   -2.2801    0.0000 C   0  0  0  0  0  0  0  0  0  0  0  0
    3.8072   -1.3044    0.0000 C   0  0  0  0  0  0  0  0  0  0  0  0
   -2.7467   -2.2589    0.0000 C   0  0  0  0  0  0  0  0  0  0  0  0
   -3.8072   -1.3044    0.0000 C   0  0  0  0  0  0  0  0  0  0  0  0
    3.5314   -2.1104    0.0000 C   0  0  0  0  0  0  0  0  0  0  0  0
   -3.5527   -2.0892    0.0000 C   0  0  0  0  0  0  0  0  0  0  0  0
  1  4  1  0  0  0  0
  1  5  1  0  0  0  0
  2  3  1  0  0  0  0
  2  4  2  0  0  0  0
  2  6  1  0  0  0  0
  3  5  2  0  0  0  0
  3  7  1  0  0  0  0
  4 10  1  0  0  0  0
  5 11  1  0  0  0  0
  6  8  2  0  0  0  0
  7  9  2  0  0  0  0
  8 12  1  0  0  0  0
  8 14  1  0  0  0  0
  9 13  1  0  0  0  0
  9 15  1  0  0  0  0
 10 12  2  0  0  0  0
 11 13  2  0  0  0  0
 14 16  2  0  0  0  0
 14 17  1  0  0  0  0
 15 18  1  0  0  0  0
 15 19  2  0  0  0  0
 16 20  1  0  0  0  0
 17 21  2  0  0  0  0
 18 22  2  0  0  0  0
 19 23  1  0  0  0  0
 20 24  2  0  0  0  0
 21 24  1  0  0  0  0
 22 25  1  0  0  0  0
 23 25  1  0  0  0  0
M  END
> <PUBCHEM_COMPOUND_ID_TYPE>
0

> <PUBCHEM_TOTAL_CHARGE>
0

> <PUBCHEM_SUBSTANCE_ID>
310944532

> <PUBCHEM_SUBSTANCE_VERSION>
1

> <PUBCHEM_EXT_DATASOURCE_NAME>
4488

> <PUBCHEM_EXT_DATASOURCE_REGID>
SCHEMBL16122608

> <PUBCHEM_SUBSTANCE_COMMENT>
InChI=1S/C24H19N/c1-3-7-17(8-4-1)19-11-13-23-21(15-19)22-16-20(12-14-24(22)25-23)18-9-5-2-6-10-18/h1,3-5,7-16,25H,2,6H2
InChIKey=DWDRUHZCJZYDLC-UHFFFAOYSA-N

> <PUBCHEM_SUBSTANCE_SYNONYM>
SCHEMBL16122608

> <PUBCHEM_XREF_EXT_ID>
SCHEMBL16122608

> <PUBCHEM_EXT_DATASOURCE_URL>
https://www.surechembl.org/

> <PUBCHEM_EXT_SUBSTANCE_URL>
https://www.surechembl.org/chemical/SCHEMBL16122608

> <PUBCHEM_CID_ASSOCIATIONS>
117610767  1

> <PUBCHEM_COORDINATE_TYPE>
1
3

$$$$
