310938291
  -OEChem-07211613022D

 16 17  0     0  0  0  0  0  0999 V2000
    0.5644   -2.5016    0.0000 Cl  0  0  0  0  0  0  0  0  0  0  0  0
    4.5761   -2.9134    0.0000 O   0  0  0  0  0  0  0  0  0  0  0  0
    4.5761   -1.4948    0.0000 O   0  0  0  0  0  0  0  0  0  0  0  0
    2.8677   -2.8677    0.0000 N   0  0  0  0  0  0  0  0  0  0  0  0
    0.0915   -0.3661    0.0000 N   0  0  0  0  0  0  0  0  0  0  0  0
    2.0897   -1.7999    0.0000 C   0  0  0  0  0  0  0  0  0  0  0  0
    2.8677   -1.5254    0.0000 C   0  0  0  0  0  0  0  0  0  0  0  0
    1.4186   -1.3118    0.0000 C   0  0  0  0  0  0  0  0  0  0  0  0
    3.3558   -2.1965    0.0000 C   0  0  0  0  0  0  0  0  0  0  0  0
    2.0897   -2.6084    0.0000 C   0  0  0  0  0  0  0  0  0  0  0  0
    0.6559   -1.6779    0.0000 C   0  0  0  0  0  0  0  0  0  0  0  0
    4.1795   -2.1965    0.0000 C   0  0  0  0  0  0  0  0  0  0  0  0
    1.5101   -0.5186    0.0000 C   0  0  0  0  0  0  0  0  0  0  0  0
    3.1270   -0.7474    0.0000 C   0  0  0  0  0  0  0  0  0  0  0  0
    0.0000   -1.1593    0.0000 C   0  0  0  0  0  0  0  0  0  0  0  0
    0.8390    0.0000    0.0000 C   0  0  0  0  0  0  0  0  0  0  0  0
  1 11  1  0  0  0  0
  2 12  2  0  0  0  0
  3 12  1  0  0  0  0
  4  9  1  0  0  0  0
  4 10  1  0  0  0  0
  5 15  1  0  0  0  0
  5 16  2  0  0  0  0
  6  7  1  0  0  0  0
  6  8  1  0  0  0  0
  6 10  2  0  0  0  0
  7  9  2  0  0  0  0
  7 14  1  0  0  0  0
  8 11  1  0  0  0  0
  8 13  2  0  0  0  0
  9 12  1  0  0  0  0
 11 15  2  0  0  0  0
 13 16  1  0  0  0  0
M  END
> <PUBCHEM_COMPOUND_ID_TYPE>
0

> <PUBCHEM_TOTAL_CHARGE>
0

> <PUBCHEM_SUBSTANCE_ID>
310938291

> <PUBCHEM_SUBSTANCE_VERSION>
1

> <PUBCHEM_EXT_DATASOURCE_NAME>
4488

> <PUBCHEM_EXT_DATASOURCE_REGID>
SCHEMBL16116161

> <PUBCHEM_SUBSTANCE_COMMENT>
InChI=1S/C11H9ClN2O2/c1-6-8(4-14-10(6)11(15)16)7-2-3-13-5-9(7)12/h2-5,14H,1H3,(H,15,16)
InChIKey=FPQFRWRCFSMOBS-UHFFFAOYSA-N

> <PUBCHEM_SUBSTANCE_SYNONYM>
SCHEMBL16116161

> <PUBCHEM_XREF_EXT_ID>
SCHEMBL16116161

> <PUBCHEM_EXT_DATASOURCE_URL>
https://www.surechembl.org/

> <PUBCHEM_EXT_SUBSTANCE_URL>
https://www.surechembl.org/chemical/SCHEMBL16116161

> <PUBCHEM_CID_ASSOCIATIONS>
117605796  1

> <PUBCHEM_COORDINATE_TYPE>
1
3

$$$$
