310944773
  -OEChem-07211613022D

 20 23  0     0  0  0  0  0  0999 V2000
   -3.0745   -0.5699    0.0000 Cl  0  0  0  0  0  0  0  0  0  0  0  0
    1.4578    1.0734    0.0000 S   0  0  0  0  0  0  0  0  0  0  0  0
    3.0745    0.8879    0.0000 O   0  0  0  0  0  0  0  0  0  0  0  0
    1.2722   -1.0734    0.0000 N   0  0  0  0  0  0  0  0  0  0  0  0
   -1.7492    0.4108    0.0000 N   0  0  0  0  0  0  0  0  0  0  0  0
    3.0480   -0.5434    0.0000 N   0  0  0  0  0  0  0  0  0  0  0  0
    0.4506    0.1723    0.0000 C   0  0  0  0  0  0  0  0  0  0  0  0
    1.1927   -0.2518    0.0000 C   0  0  0  0  0  0  0  0  0  0  0  0
    0.6361    0.9939    0.0000 C   0  0  0  0  0  0  0  0  0  0  0  0
   -0.3446    0.0398    0.0000 C   0  0  0  0  0  0  0  0  0  0  0  0
    1.8023    0.3313    0.0000 C   0  0  0  0  0  0  0  0  0  0  0  0
   -0.9276    0.6228    0.0000 C   0  0  0  0  0  0  0  0  0  0  0  0
    2.6505    0.1723    0.0000 C   0  0  0  0  0  0  0  0  0  0  0  0
    0.1061    1.5505    0.0000 C   0  0  0  0  0  0  0  0  0  0  0  0
   -0.6891    1.3915    0.0000 C   0  0  0  0  0  0  0  0  0  0  0  0
   -0.5831   -0.7819    0.0000 C   0  0  0  0  0  0  0  0  0  0  0  0
   -1.9614   -0.3843    0.0000 C   0  0  0  0  0  0  0  0  0  0  0  0
   -1.4047   -0.9409    0.0000 C   0  0  0  0  0  0  0  0  0  0  0  0
    2.0143   -1.5505    0.0000 C   0  0  0  0  0  0  0  0  0  0  0  0
    2.7299   -1.3119    0.0000 C   0  0  0  0  0  0  0  0  0  0  0  0
  1 17  1  0  0  0  0
  2  9  1  0  0  0  0
  2 11  1  0  0  0  0
  3 13  2  0  0  0  0
  4  8  1  0  0  0  0
  4 19  1  0  0  0  0
  5 12  1  0  0  0  0
  5 17  2  0  0  0  0
  6 13  1  0  0  0  0
  6 20  1  0  0  0  0
  7  8  1  0  0  0  0
  7  9  2  0  0  0  0
  7 10  1  0  0  0  0
  8 11  2  0  0  0  0
  9 14  1  0  0  0  0
 10 12  2  0  0  0  0
 10 16  1  0  0  0  0
 11 13  1  0  0  0  0
 12 15  1  0  0  0  0
 14 15  2  0  0  0  0
 16 18  2  0  0  0  0
 17 18  1  0  0  0  0
 19 20  1  0  0  0  0
M  END
> <PUBCHEM_COMPOUND_ID_TYPE>
0

> <PUBCHEM_TOTAL_CHARGE>
0

> <PUBCHEM_SUBSTANCE_ID>
310944773

> <PUBCHEM_SUBSTANCE_VERSION>
1

> <PUBCHEM_EXT_DATASOURCE_NAME>
4488

> <PUBCHEM_EXT_DATASOURCE_REGID>
SCHEMBL16122852

> <PUBCHEM_SUBSTANCE_COMMENT>
InChI=1S/C14H10ClN3OS/c15-10-4-1-7-8(18-10)2-3-9-11(7)12-13(20-9)14(19)17-6-5-16-12/h1-4,16H,5-6H2,(H,17,19)
InChIKey=UTFUPXRCMHRGHU-UHFFFAOYSA-N

> <PUBCHEM_SUBSTANCE_SYNONYM>
SCHEMBL16122852

> <PUBCHEM_XREF_EXT_ID>
SCHEMBL16122852

> <PUBCHEM_EXT_DATASOURCE_URL>
https://www.surechembl.org/

> <PUBCHEM_EXT_SUBSTANCE_URL>
https://www.surechembl.org/chemical/SCHEMBL16122852

> <PUBCHEM_CID_ASSOCIATIONS>
117610989  1

> <PUBCHEM_COORDINATE_TYPE>
1
3

$$$$
