310942138
  -OEChem-07211613022D

 26 27  0     1  0  0  0  0  0999 V2000
    1.3548    1.4356    0.0000 Cl  0  0  0  0  0  0  0  0  0  0  0  0
   -0.0746   -1.0379    0.0000 F   0  0  0  0  0  0  0  0  0  0  0  0
    1.3548   -0.2175    0.0000 O   0  0  0  0  0  0  0  0  0  0  0  0
   -3.6294    0.2175    0.0000 O   0  0  0  0  0  0  0  0  0  0  0  0
   -2.2249    0.2051    0.0000 N   0  0  0  0  0  0  0  0  0  0  0  0
    4.3628    1.4356    0.0000 N   0  0  0  0  0  0  0  0  0  0  0  0
   -4.3628    1.4480    0.0000 N   0  0  0  0  0  0  0  0  0  0  0  0
    0.6339    0.2051    0.0000 C   0  0  0  0  0  0  0  0  0  0  0  0
   -0.0746   -0.2051    0.0000 C   0  0  0  0  0  0  0  0  0  0  0  0
   -0.8080    0.2051    0.0000 C   0  0  0  0  0  0  0  0  0  0  0  0
    0.6464    1.0379    0.0000 C   0  0  0  0  0  0  0  0  0  0  0  0
   -1.5040   -0.2051    0.0000 C   0  0  3  0  0  0  0  0  0  0  0  0
   -0.7830    1.0254    0.0000 C   0  0  0  0  0  0  0  0  0  0  0  0
   -0.0622    1.4356    0.0000 C   0  0  0  0  0  0  0  0  0  0  0  0
    2.0633    0.2051    0.0000 C   0  0  0  0  0  0  0  0  0  0  0  0
   -1.5040   -1.0379    0.0000 C   0  0  0  0  0  0  0  0  0  0  0  0
    2.7967   -0.2051    0.0000 C   0  0  0  0  0  0  0  0  0  0  0  0
    2.0882    1.0254    0.0000 C   0  0  0  0  0  0  0  0  0  0  0  0
   -2.2249    1.0254    0.0000 C   0  0  3  0  0  0  0  0  0  0  0  0
    3.5175    1.0379    0.0000 C   0  0  0  0  0  0  0  0  0  0  0  0
    3.5175    0.2051    0.0000 C   0  0  0  0  0  0  0  0  0  0  0  0
    2.8091    1.4356    0.0000 C   0  0  0  0  0  0  0  0  0  0  0  0
   -2.9458    1.4356    0.0000 C   0  0  0  0  0  0  0  0  0  0  0  0
   -0.7955   -1.4480    0.0000 C   0  0  0  0  0  0  0  0  0  0  0  0
   -1.5164    1.4356    0.0000 C   0  0  0  0  0  0  0  0  0  0  0  0
   -3.6543    1.0254    0.0000 C   0  0  0  0  0  0  0  0  0  0  0  0
  1 11  1  0  0  0  0
  2  9  1  0  0  0  0
  3  8  1  0  0  0  0
  3 15  1  0  0  0  0
  4 26  2  0  0  0  0
 12  5  1  1  0  0  0
  5 19  1  0  0  0  0
  6 20  1  0  0  0  0
  7 26  1  0  0  0  0
  8  9  2  0  0  0  0
  8 11  1  0  0  0  0
  9 10  1  0  0  0  0
 10 12  1  0  0  0  0
 10 13  2  0  0  0  0
 11 14  2  0  0  0  0
 12 16  1  0  0  0  0
 13 14  1  0  0  0  0
 15 17  2  0  0  0  0
 15 18  1  0  0  0  0
 16 24  1  0  0  0  0
 17 21  1  0  0  0  0
 18 22  2  0  0  0  0
 19 23  1  0  0  0  0
 19 25  1  6  0  0  0
 20 21  2  0  0  0  0
 20 22  1  0  0  0  0
 23 26  1  0  0  0  0
M  END
> <PUBCHEM_COMPOUND_ID_TYPE>
0

> <PUBCHEM_TOTAL_CHARGE>
0

> <PUBCHEM_SUBSTANCE_ID>
310942138

> <PUBCHEM_SUBSTANCE_VERSION>
1

> <PUBCHEM_EXT_DATASOURCE_NAME>
4488

> <PUBCHEM_EXT_DATASOURCE_REGID>
SCHEMBL16120173

> <PUBCHEM_SUBSTANCE_COMMENT>
InChI=1S/C19H23ClFN3O2/c1-3-16(24-11(2)10-17(23)25)14-8-9-15(20)19(18(14)21)26-13-6-4-12(22)5-7-13/h4-9,11,16,24H,3,10,22H2,1-2H3,(H2,23,25)/t11-,16+/m0/s1
InChIKey=NFRVNKYPSZHDRG-MEDUHNTESA-N

> <PUBCHEM_SUBSTANCE_SYNONYM>
SCHEMBL16120173

> <PUBCHEM_XREF_EXT_ID>
SCHEMBL16120173

> <PUBCHEM_EXT_DATASOURCE_URL>
https://www.surechembl.org/

> <PUBCHEM_EXT_SUBSTANCE_URL>
https://www.surechembl.org/chemical/SCHEMBL16120173

> <PUBCHEM_CID_ASSOCIATIONS>
117608797  1

> <PUBCHEM_COORDINATE_TYPE>
1
3

> <PUBCHEM_BONDANNOTATIONS>
19  25  6
12  5  5

$$$$
