310949974
  -OEChem-07211613022D

 30 34  0     1  0  0  0  0  0999 V2000
   -3.1108    1.2402    0.0000 Cl  0  0  0  0  0  0  0  0  0  0  0  0
   -2.8336    2.8890    0.0000 O   0  0  0  0  0  0  0  0  0  0  0  0
    0.1039    1.3925    0.0000 N   0  0  0  0  0  0  0  0  0  0  0  0
    0.1039    2.7366    0.0000 N   0  0  0  0  0  0  0  0  0  0  0  0
    0.8660   -0.9630    0.0000 N   0  0  0  0  0  0  0  0  0  0  0  0
    2.6950    1.6558    0.0000 N   0  0  0  0  0  0  0  0  0  0  0  0
   -0.6998    1.6696    0.0000 C   0  0  0  0  0  0  0  0  0  0  0  0
    0.5750    2.0854    0.0000 C   0  0  0  0  0  0  0  0  0  0  0  0
   -0.6859    2.4872    0.0000 C   0  0  0  0  0  0  0  0  0  0  0  0
    0.3533    0.6304    0.0000 C   0  0  0  0  0  0  0  0  0  0  0  0
    1.4341    2.0577    0.0000 C   0  0  3  0  0  0  0  0  0  0  0  0
   -1.3925    1.2540    0.0000 C   0  0  0  0  0  0  0  0  0  0  0  0
   -1.4064    2.8890    0.0000 C   0  0  0  0  0  0  0  0  0  0  0  0
   -2.1269    1.6558    0.0000 C   0  0  0  0  0  0  0  0  0  0  0  0
   -2.1131    2.4872    0.0000 C   0  0  0  0  0  0  0  0  0  0  0  0
   -0.2009   -0.0208    0.0000 C   0  0  0  0  0  0  0  0  0  0  0  0
    1.1708    0.4365    0.0000 C   0  0  0  0  0  0  0  0  0  0  0  0
    1.9329    1.4064    0.0000 C   0  0  0  0  0  0  0  0  0  0  0  0
    1.8914    2.7366    0.0000 C   0  0  0  0  0  0  0  0  0  0  0  0
    0.0623   -0.7829    0.0000 C   0  0  0  0  0  0  0  0  0  0  0  0
    1.4202   -0.3533    0.0000 C   0  0  0  0  0  0  0  0  0  0  0  0
    2.6950    2.4872    0.0000 C   0  0  0  0  0  0  0  0  0  0  0  0
    1.1293   -1.7528    0.0000 C   0  0  0  0  0  0  0  0  0  0  0  0
    1.9329   -1.9329    0.0000 C   0  0  0  0  0  0  0  0  0  0  0  0
   -3.5541    2.4595    0.0000 C   0  0  0  0  0  0  0  0  0  0  0  0
    2.5010   -1.3233    0.0000 C   0  0  0  0  0  0  0  0  0  0  0  0
    2.1962   -2.7089    0.0000 C   0  0  0  0  0  0  0  0  0  0  0  0
    3.3047   -1.4896    0.0000 C   0  0  0  0  0  0  0  0  0  0  0  0
    3.0137   -2.8890    0.0000 C   0  0  0  0  0  0  0  0  0  0  0  0
    3.5541   -2.2794    0.0000 C   0  0  0  0  0  0  0  0  0  0  0  0
  1 14  1  0  0  0  0
  2 15  1  0  0  0  0
  2 25  1  0  0  0  0
  3  7  1  0  0  0  0
  3  8  1  0  0  0  0
  3 10  1  0  0  0  0
  4  8  2  0  0  0  0
  4  9  1  0  0  0  0
  5 20  1  0  0  0  0
  5 21  1  0  0  0  0
  5 23  1  0  0  0  0
  6 18  1  0  0  0  0
  6 22  1  0  0  0  0
  7  9  1  0  0  0  0
  7 12  2  0  0  0  0
 11  8  1  6  0  0  0
  9 13  2  0  0  0  0
 10 16  1  0  0  0  0
 10 17  1  0  0  0  0
 11 18  1  0  0  0  0
 11 19  1  0  0  0  0
 12 14  1  0  0  0  0
 13 15  1  0  0  0  0
 14 15  2  0  0  0  0
 16 20  1  0  0  0  0
 17 21  1  0  0  0  0
 19 22  1  0  0  0  0
 23 24  1  0  0  0  0
 24 26  2  0  0  0  0
 24 27  1  0  0  0  0
 26 28  1  0  0  0  0
 27 29  2  0  0  0  0
 28 30  2  0  0  0  0
 29 30  1  0  0  0  0
M  END
> <PUBCHEM_COMPOUND_ID_TYPE>
0

> <PUBCHEM_TOTAL_CHARGE>
0

> <PUBCHEM_SUBSTANCE_ID>
310949974

> <PUBCHEM_SUBSTANCE_VERSION>
1

> <PUBCHEM_EXT_DATASOURCE_NAME>
4488

> <PUBCHEM_EXT_DATASOURCE_REGID>
SCHEMBL16128203

> <PUBCHEM_SUBSTANCE_COMMENT>
InChI=1S/C24H29ClN4O/c1-30-23-14-21-22(13-20(23)25)29(24(27-21)18-7-10-26-15-18)19-8-11-28(12-9-19)16-17-5-3-2-4-6-17/h2-6,13-14,18-19,26H,7-12,15-16H2,1H3/t18-/m1/s1
InChIKey=LUWRHNZUZXERMC-GOSISDBHSA-N

> <PUBCHEM_SUBSTANCE_SYNONYM>
SCHEMBL16128203

> <PUBCHEM_XREF_EXT_ID>
SCHEMBL16128203

> <PUBCHEM_EXT_DATASOURCE_URL>
https://www.surechembl.org/

> <PUBCHEM_EXT_SUBSTANCE_URL>
https://www.surechembl.org/chemical/SCHEMBL16128203

> <PUBCHEM_CID_ASSOCIATIONS>
117615216  1

> <PUBCHEM_COORDINATE_TYPE>
1
3

> <PUBCHEM_BONDANNOTATIONS>
11  8  6

$$$$
