310949859
  -OEChem-07211613022D

 30 34  0     1  0  0  0  0  0999 V2000
    1.2262    2.4731    0.0000 Cl  0  0  0  0  0  0  0  0  0  0  0  0
    2.5563    2.6671    0.0000 F   0  0  0  0  0  0  0  0  0  0  0  0
    3.6786    2.7226    0.0000 F   0  0  0  0  0  0  0  0  0  0  0  0
    3.7340    1.5864    0.0000 F   0  0  0  0  0  0  0  0  0  0  0  0
   -0.2009    0.7136    0.0000 N   0  0  0  0  0  0  0  0  0  0  0  0
   -1.6418   -0.1177    0.0000 N   0  0  0  0  0  0  0  0  0  0  0  0
   -0.7412    1.9328    0.0000 N   0  0  0  0  0  0  0  0  0  0  0  0
    0.0762    2.0159    0.0000 N   0  0  0  0  0  0  0  0  0  0  0  0
   -2.4177    0.9629    0.0000 N   0  0  0  0  0  0  0  0  0  0  0  0
   -2.9165    0.2979    0.0000 N   0  0  0  0  0  0  0  0  0  0  0  0
   -2.1267   -1.7665    0.0000 N   0  0  0  0  0  0  0  0  0  0  0  0
   -3.1936   -2.7226    0.0000 N   0  0  0  0  0  0  0  0  0  0  0  0
   -0.9214    1.1154    0.0000 C   0  0  0  0  0  0  0  0  0  0  0  0
   -1.6279    0.6997    0.0000 C   0  0  0  0  0  0  0  0  0  0  0  0
    0.4087    1.2539    0.0000 C   0  0  0  0  0  0  0  0  0  0  0  0
   -0.2009   -0.1316    0.0000 C   0  0  3  0  0  0  0  0  0  0  0  0
   -2.4177   -0.3810    0.0000 C   0  0  0  0  0  0  0  0  0  0  0  0
    1.2262    1.0737    0.0000 C   0  0  0  0  0  0  0  0  0  0  0  0
   -0.8937   -0.5334    0.0000 C   0  0  0  0  0  0  0  0  0  0  0  0
    1.7665    1.6972    0.0000 C   0  0  0  0  0  0  0  0  0  0  0  0
   -2.6810   -1.1708    0.0000 C   0  0  0  0  0  0  0  0  0  0  0  0
    2.5840    1.5171    0.0000 C   0  0  0  0  0  0  0  0  0  0  0  0
    1.4894    0.2979    0.0000 C   0  0  0  0  0  0  0  0  0  0  0  0
    3.1382    2.1267    0.0000 C   0  0  0  0  0  0  0  0  0  0  0  0
    0.5195   -0.5473    0.0000 C   0  0  0  0  0  0  0  0  0  0  0  0
    2.8334    0.7274    0.0000 C   0  0  0  0  0  0  0  0  0  0  0  0
    2.2930    0.1316    0.0000 C   0  0  0  0  0  0  0  0  0  0  0  0
   -3.4707   -1.3371    0.0000 C   0  0  0  0  0  0  0  0  0  0  0  0
   -2.3762   -2.5701    0.0000 C   0  0  0  0  0  0  0  0  0  0  0  0
   -3.7340   -2.1406    0.0000 C   0  0  0  0  0  0  0  0  0  0  0  0
  1 20  1  0  0  0  0
  2 24  1  0  0  0  0
  3 24  1  0  0  0  0
  4 24  1  0  0  0  0
  5 13  1  0  0  0  0
  5 15  1  0  0  0  0
  5 16  1  0  0  0  0
  6 14  1  0  0  0  0
  6 17  1  0  0  0  0
  6 19  1  0  0  0  0
  7  8  1  0  0  0  0
  7 13  2  0  0  0  0
  8 15  2  0  0  0  0
  9 10  1  0  0  0  0
  9 14  2  0  0  0  0
 10 17  2  0  0  0  0
 11 21  1  0  0  0  0
 11 29  2  0  0  0  0
 12 29  1  0  0  0  0
 12 30  2  0  0  0  0
 13 14  1  0  0  0  0
 15 18  1  0  0  0  0
 16 19  1  0  0  0  0
 16 25  1  1  0  0  0
 17 21  1  0  0  0  0
 18 20  1  0  0  0  0
 18 23  2  0  0  0  0
 20 22  2  0  0  0  0
 21 28  2  0  0  0  0
 22 24  1  0  0  0  0
 22 26  1  0  0  0  0
 23 27  1  0  0  0  0
 26 27  2  0  0  0  0
 28 30  1  0  0  0  0
M  END
> <PUBCHEM_COMPOUND_ID_TYPE>
0

> <PUBCHEM_TOTAL_CHARGE>
0

> <PUBCHEM_SUBSTANCE_ID>
310949859

> <PUBCHEM_SUBSTANCE_VERSION>
1

> <PUBCHEM_EXT_DATASOURCE_NAME>
4488

> <PUBCHEM_EXT_DATASOURCE_REGID>
SCHEMBL16128063

> <PUBCHEM_SUBSTANCE_COMMENT>
InChI=1S/C18H12ClF3N8/c1-9-7-29-15(12-5-6-23-8-24-12)26-27-16(29)17-28-25-14(30(9)17)10-3-2-4-11(13(10)19)18(20,21)22/h2-6,8-9H,7H2,1H3/t9-/m0/s1
InChIKey=FFDMRXQWYHCDFD-VIFPVBQESA-N

> <PUBCHEM_SUBSTANCE_SYNONYM>
SCHEMBL16128063

> <PUBCHEM_XREF_EXT_ID>
SCHEMBL16128063

> <PUBCHEM_EXT_DATASOURCE_URL>
https://www.surechembl.org/

> <PUBCHEM_EXT_SUBSTANCE_URL>
https://www.surechembl.org/chemical/SCHEMBL16128063

> <PUBCHEM_CID_ASSOCIATIONS>
117615159  1

> <PUBCHEM_COORDINATE_TYPE>
1
3

> <PUBCHEM_BONDANNOTATIONS>
16  25  5

$$$$
