310940402
  -OEChem-07211613022D

 10 10  0     0  0  0  0  0  0999 V2000
   -0.9438   -1.8508    0.0000 O   0  0  0  0  0  0  0  0  0  0  0  0
   -0.1327    0.2286    0.0000 N   0  0  0  0  0  0  0  0  0  0  0  0
    0.5309   -0.9364    0.0000 N   0  0  0  0  0  0  0  0  0  0  0  0
    1.3420    1.8508    0.0000 N   0  0  0  0  0  0  0  0  0  0  0  0
   -0.2212   -0.5825    0.0000 C   0  0  0  0  0  0  0  0  0  0  0  0
    0.6783    0.4056    0.0000 C   0  0  0  0  0  0  0  0  0  0  0  0
   -0.9438   -0.9807    0.0000 C   0  0  0  0  0  0  0  0  0  0  0  0
    1.0912   -0.3023    0.0000 C   0  0  0  0  0  0  0  0  0  0  0  0
    1.0175    1.1576    0.0000 C   0  0  0  0  0  0  0  0  0  0  0  0
   -1.3420   -0.8037    0.0000 C   0  0  0  0  0  0  0  0  0  0  0  0
  1  7  2  0  0  0  0
  2  5  2  0  0  0  0
  2  6  1  0  0  0  0
  3  5  1  0  0  0  0
  3  8  1  0  0  0  0
  4  9  3  0  0  0  0
  5  7  1  0  0  0  0
  6  8  2  0  0  0  0
  6  9  1  0  0  0  0
  7 10  1  0  0  0  0
M  END
> <PUBCHEM_COMPOUND_ID_TYPE>
0

> <PUBCHEM_TOTAL_CHARGE>
0

> <PUBCHEM_SUBSTANCE_ID>
310940402

> <PUBCHEM_SUBSTANCE_VERSION>
1

> <PUBCHEM_EXT_DATASOURCE_NAME>
4488

> <PUBCHEM_EXT_DATASOURCE_REGID>
SCHEMBL16118350

> <PUBCHEM_SUBSTANCE_COMMENT>
InChI=1S/C6H5N3O/c1-4(10)6-8-3-5(2-7)9-6/h3H,1H3,(H,8,9)
InChIKey=LPNHCMNOESSGNP-UHFFFAOYSA-N

> <PUBCHEM_SUBSTANCE_SYNONYM>
SCHEMBL16118350

> <PUBCHEM_XREF_EXT_ID>
SCHEMBL16118350

> <PUBCHEM_EXT_DATASOURCE_URL>
https://www.surechembl.org/

> <PUBCHEM_EXT_SUBSTANCE_URL>
https://www.surechembl.org/chemical/SCHEMBL16118350

> <PUBCHEM_CID_ASSOCIATIONS>
117607428  1

> <PUBCHEM_COORDINATE_TYPE>
1
3

$$$$
