310942967
  -OEChem-07211613022D

 35 39  0     1  0  0  0  0  0999 V2000
    3.4317   -0.6508    0.0000 F   0  0  0  0  0  0  0  0  0  0  0  0
   -2.8570   -1.1411    0.0000 O   0  0  0  0  0  0  0  0  0  0  0  0
   -1.5722    3.4402    0.0000 O   0  0  0  0  0  0  0  0  0  0  0  0
    2.4174   -0.5495    0.0000 O   0  0  0  0  0  0  0  0  0  0  0  0
   -1.4370    1.2426    0.0000 N   0  0  0  0  0  0  0  0  0  0  0  0
   -0.9298    0.6002    0.0000 N   0  0  0  0  0  0  0  0  0  0  0  0
   -1.0989   -0.8706    0.0000 N   0  0  0  0  0  0  0  0  0  0  0  0
   -3.6346    0.0761    0.0000 N   0  0  0  0  0  0  0  0  0  0  0  0
    2.0117   -2.7640    0.0000 N   0  0  0  0  0  0  0  0  0  0  0  0
    0.7438    1.0904    0.0000 N   0  0  0  0  0  0  0  0  0  0  0  0
   -2.1977    0.1437    0.0000 C   0  0  0  0  0  0  0  0  0  0  0  0
   -2.2145    0.9720    0.0000 C   0  0  0  0  0  0  0  0  0  0  0  0
   -1.3863   -0.0930    0.0000 C   0  0  0  0  0  0  0  0  0  0  0  0
   -1.2002    2.0708    0.0000 C   0  0  3  0  0  0  0  0  0  0  0  0
   -2.8909   -0.2959    0.0000 C   0  0  0  0  0  0  0  0  0  0  0  0
   -2.9754    1.3440    0.0000 C   0  0  0  0  0  0  0  0  0  0  0  0
    2.2145   -1.3271    0.0000 C   0  0  3  0  0  0  0  0  0  0  0  0
   -0.4058    2.2569    0.0000 C   0  0  3  0  0  0  0  0  0  0  0  0
   -0.2705   -1.0059    0.0000 C   0  0  0  0  0  0  0  0  0  0  0  0
    1.3693   -1.2256    0.0000 C   0  0  0  0  0  0  0  0  0  0  0  0
   -3.6516    0.9044    0.0000 C   0  0  0  0  0  0  0  0  0  0  0  0
   -1.7920    2.6457    0.0000 C   0  0  0  0  0  0  0  0  0  0  0  0
    2.5189   -2.1047    0.0000 C   0  0  0  0  0  0  0  0  0  0  0  0
    0.0338   -1.7667    0.0000 C   0  0  0  0  0  0  0  0  0  0  0  0
    0.2367   -0.3635    0.0000 C   0  0  0  0  0  0  0  0  0  0  0  0
    0.8790   -1.8680    0.0000 C   0  0  0  0  0  0  0  0  0  0  0  0
    1.0651   -0.4649    0.0000 C   0  0  0  0  0  0  0  0  0  0  0  0
   -0.1859    3.0513    0.0000 C   0  0  0  0  0  0  0  0  0  0  0  0
    3.0261   -1.3440    0.0000 C   0  0  0  0  0  0  0  0  0  0  0  0
    0.1691    1.6652    0.0000 C   0  0  0  0  0  0  0  0  0  0  0  0
   -0.7776    3.6431    0.0000 C   0  0  0  0  0  0  0  0  0  0  0  0
    3.3472   -2.2230    0.0000 C   0  0  0  0  0  0  0  0  0  0  0  0
    2.3160   -3.5247    0.0000 C   0  0  0  0  0  0  0  0  0  0  0  0
    3.6516   -2.9669    0.0000 C   0  0  0  0  0  0  0  0  0  0  0  0
    3.1613   -3.6431    0.0000 C   0  0  0  0  0  0  0  0  0  0  0  0
  1 29  1  0  0  0  0
  2 15  2  0  0  0  0
  3 22  1  0  0  0  0
  3 31  1  0  0  0  0
  4 17  1  0  0  0  0
  5  6  1  0  0  0  0
  5 12  1  0  0  0  0
 14  5  1  1  0  0  0
  6 13  2  0  0  0  0
  7 13  1  0  0  0  0
  7 19  1  0  0  0  0
  8 15  1  0  0  0  0
  8 21  1  0  0  0  0
  9 23  2  0  0  0  0
  9 33  1  0  0  0  0
 10 30  3  0  0  0  0
 11 12  2  0  0  0  0
 11 13  1  0  0  0  0
 11 15  1  0  0  0  0
 12 16  1  0  0  0  0
 14 18  1  0  0  0  0
 14 22  1  0  0  0  0
 16 21  2  0  0  0  0
 17 20  1  0  0  0  0
 17 23  1  0  0  0  0
 17 29  1  0  0  0  0
 18 28  1  0  0  0  0
 18 30  1  6  0  0  0
 19 24  2  0  0  0  0
 19 25  1  0  0  0  0
 20 26  2  0  0  0  0
 20 27  1  0  0  0  0
 23 32  1  0  0  0  0
 24 26  1  0  0  0  0
 25 27  2  0  0  0  0
 28 31  1  0  0  0  0
 32 34  2  0  0  0  0
 33 35  2  0  0  0  0
 34 35  1  0  0  0  0
M  END
> <PUBCHEM_COMPOUND_ID_TYPE>
0

> <PUBCHEM_TOTAL_CHARGE>
0

> <PUBCHEM_SUBSTANCE_ID>
310942967

> <PUBCHEM_SUBSTANCE_VERSION>
1

> <PUBCHEM_EXT_DATASOURCE_NAME>
4488

> <PUBCHEM_EXT_DATASOURCE_REGID>
SCHEMBL16121026

> <PUBCHEM_SUBSTANCE_COMMENT>
InChI=1S/C25H23FN6O3/c26-15-25(34,21-3-1-2-10-28-21)17-4-6-18(7-5-17)30-23-22-19(8-11-29-24(22)33)32(31-23)20-14-35-12-9-16(20)13-27/h1-8,10-11,16,20,34H,9,12,14-15H2,(H,29,33)(H,30,31)/t16-,20+,25?/m1/s1
InChIKey=QXRXHCLXXGORRV-NLDMFTSSSA-N

> <PUBCHEM_SUBSTANCE_SYNONYM>
SCHEMBL16121026

> <PUBCHEM_XREF_EXT_ID>
SCHEMBL16121026

> <PUBCHEM_EXT_DATASOURCE_URL>
https://www.surechembl.org/

> <PUBCHEM_EXT_SUBSTANCE_URL>
https://www.surechembl.org/chemical/SCHEMBL16121026

> <PUBCHEM_CID_ASSOCIATIONS>
117609429  1

> <PUBCHEM_COORDINATE_TYPE>
1
3

> <PUBCHEM_BONDANNOTATIONS>
18  30  6
14  5  5

$$$$
