310935231
  -OEChem-07211613022D

 29 31  0     1  0  0  0  0  0999 V2000
    0.4169   -0.1900    0.0000 F   0  0  0  0  0  0  0  0  0  0  0  0
    2.4492   -2.3196    0.0000 O   0  0  0  0  0  0  0  0  0  0  0  0
    3.1504   -3.2388    0.0000 O   0  0  0  0  0  0  0  0  0  0  0  0
    2.3453   -3.4188    0.0000 N   0  0  0  0  0  0  0  0  0  0  0  0
   -2.3639   -3.3431    0.0000 N   0  0  0  0  0  0  0  0  0  0  0  0
   -2.2777   -4.1636    0.0000 N   0  0  0  0  0  0  0  0  0  0  0  0
   -4.5073   -2.9306    0.0000 N   0  0  0  0  0  0  0  0  0  0  0  0
    0.9818   -2.9915    0.0000 C   0  0  3  0  0  0  0  0  0  0  0  0
    1.2449   -2.2096    0.0000 C   0  0  0  0  0  0  0  0  0  0  0  0
    0.1748   -2.8199    0.0000 C   0  0  0  0  0  0  0  0  0  0  0  0
   -0.2377   -3.5344    0.0000 C   0  0  3  0  0  0  0  0  0  0  0  0
    1.7869   -2.8115    0.0000 C   0  0  0  0  0  0  0  0  0  0  0  0
    1.0680   -3.8120    0.0000 C   0  0  0  0  0  0  0  0  0  0  0  0
    0.6993   -1.5907    0.0000 C   0  0  0  0  0  0  0  0  0  0  0  0
    0.3143   -4.1475    0.0000 C   0  0  0  0  0  0  0  0  0  0  0  0
   -1.0582   -3.6206    0.0000 C   0  0  0  0  0  0  0  0  0  0  0  0
    2.0536   -2.0465    0.0000 C   0  0  0  0  0  0  0  0  0  0  0  0
    0.9625   -0.8088    0.0000 C   0  0  0  0  0  0  0  0  0  0  0  0
   -1.6102   -3.0076    0.0000 C   0  0  0  0  0  0  0  0  0  0  0  0
   -1.4707   -4.3351    0.0000 C   0  0  0  0  0  0  0  0  0  0  0  0
    2.3168   -1.2646    0.0000 C   0  0  0  0  0  0  0  0  0  0  0  0
    1.7712   -0.6457    0.0000 C   0  0  0  0  0  0  0  0  0  0  0  0
   -0.1094   -1.7538    0.0000 C   0  0  0  0  0  0  0  0  0  0  0  0
   -3.0784   -2.9306    0.0000 C   0  0  0  0  0  0  0  0  0  0  0  0
   -3.7928   -3.3431    0.0000 C   0  0  0  0  0  0  0  0  0  0  0  0
   -5.2218   -3.3431    0.0000 C   0  0  0  0  0  0  0  0  0  0  0  0
   -4.5073   -2.1056    0.0000 C   0  0  0  0  0  0  0  0  0  0  0  0
   -5.9363   -2.9306    0.0000 C   0  0  0  0  0  0  0  0  0  0  0  0
   -3.7928   -1.6931    0.0000 C   0  0  0  0  0  0  0  0  0  0  0  0
  1 18  1  0  0  0  0
  2 12  2  0  0  0  0
  3  4  1  0  0  0  0
  4 12  1  0  0  0  0
  5  6  1  0  0  0  0
  5 19  1  0  0  0  0
  5 24  1  0  0  0  0
  6 20  2  0  0  0  0
  7 25  1  0  0  0  0
  7 26  1  0  0  0  0
  7 27  1  0  0  0  0
  8  9  1  0  0  0  0
  8 10  1  0  0  0  0
  8 12  1  1  0  0  0
  8 13  1  0  0  0  0
  9 14  2  0  0  0  0
  9 17  1  0  0  0  0
 11 10  1  6  0  0  0
 11 15  1  0  0  0  0
 11 16  1  0  0  0  0
 13 15  1  0  0  0  0
 14 18  1  0  0  0  0
 14 23  1  0  0  0  0
 16 19  2  0  0  0  0
 16 20  1  0  0  0  0
 17 21  2  0  0  0  0
 18 22  2  0  0  0  0
 21 22  1  0  0  0  0
 24 25  1  0  0  0  0
 26 28  1  0  0  0  0
 27 29  1  0  0  0  0
M  END
> <PUBCHEM_COMPOUND_ID_TYPE>
0

> <PUBCHEM_TOTAL_CHARGE>
0

> <PUBCHEM_SUBSTANCE_ID>
310935231

> <PUBCHEM_SUBSTANCE_VERSION>
1

> <PUBCHEM_EXT_DATASOURCE_NAME>
4488

> <PUBCHEM_EXT_DATASOURCE_REGID>
SCHEMBL16112759

> <PUBCHEM_SUBSTANCE_COMMENT>
InChI=1S/C22H31FN4O2/c1-4-26(5-2)11-12-27-15-18(14-24-27)17-9-10-22(13-17,21(28)25-29)19-7-6-8-20(23)16(19)3/h6-8,14-15,17,29H,4-5,9-13H2,1-3H3,(H,25,28)/t17-,22-/m0/s1
InChIKey=LHOKZZCIENTAEE-JTSKRJEESA-N

> <PUBCHEM_SUBSTANCE_SYNONYM>
SCHEMBL16112759

> <PUBCHEM_XREF_EXT_ID>
SCHEMBL16112759

> <PUBCHEM_EXT_DATASOURCE_URL>
https://www.surechembl.org/

> <PUBCHEM_EXT_SUBSTANCE_URL>
https://www.surechembl.org/chemical/SCHEMBL16112759

> <PUBCHEM_CID_ASSOCIATIONS>
117603307  1

> <PUBCHEM_COORDINATE_TYPE>
1
3

> <PUBCHEM_BONDANNOTATIONS>
11  10  6
8  12  5

$$$$
