310944368
  -OEChem-07211613022D

 29 32  0     0  0  0  0  0  0999 V2000
   -2.2036    3.0322    0.0000 F   0  0  0  0  0  0  0  0  0  0  0  0
   -0.0171    1.0334    0.0000 N   0  0  0  0  0  0  0  0  0  0  0  0
   -0.7346   -0.2306    0.0000 N   0  0  0  0  0  0  0  0  0  0  0  0
   -0.0342    2.5880    0.0000 N   0  0  0  0  0  0  0  0  0  0  0  0
   -2.1866   -1.0334    0.0000 N   0  0  0  0  0  0  0  0  0  0  0  0
   -1.4690    1.0334    0.0000 C   0  0  0  0  0  0  0  0  0  0  0  0
   -0.7346    0.6406    0.0000 C   0  0  0  0  0  0  0  0  0  0  0  0
   -1.4690    1.8534    0.0000 C   0  0  0  0  0  0  0  0  0  0  0  0
   -2.1695    0.6065    0.0000 C   0  0  0  0  0  0  0  0  0  0  0  0
    0.7175    0.6577    0.0000 C   0  0  0  0  0  0  0  0  0  0  0  0
    0.0000   -0.6065    0.0000 C   0  0  0  0  0  0  0  0  0  0  0  0
   -2.1866    2.2464    0.0000 C   0  0  0  0  0  0  0  0  0  0  0  0
    0.7175   -0.1794    0.0000 C   0  0  0  0  0  0  0  0  0  0  0  0
    1.4008    1.0676    0.0000 C   0  0  0  0  0  0  0  0  0  0  0  0
    0.0000   -1.4093    0.0000 C   0  0  0  0  0  0  0  0  0  0  0  0
   -2.9040    1.0164    0.0000 C   0  0  0  0  0  0  0  0  0  0  0  0
   -2.9211    1.8193    0.0000 C   0  0  0  0  0  0  0  0  0  0  0  0
   -0.7516    2.2464    0.0000 C   0  0  0  0  0  0  0  0  0  0  0  0
   -2.1866   -0.2306    0.0000 C   0  0  0  0  0  0  0  0  0  0  0  0
    2.1695    0.6748    0.0000 C   0  0  0  0  0  0  0  0  0  0  0  0
    1.4348    1.8705    0.0000 C   0  0  0  0  0  0  0  0  0  0  0  0
   -0.7175   -1.8534    0.0000 C   0  0  0  0  0  0  0  0  0  0  0  0
    0.7175   -1.8364    0.0000 C   0  0  0  0  0  0  0  0  0  0  0  0
    2.9040    1.1018    0.0000 C   0  0  0  0  0  0  0  0  0  0  0  0
    2.1866    2.2804    0.0000 C   0  0  0  0  0  0  0  0  0  0  0  0
   -0.7004   -2.6563    0.0000 C   0  0  0  0  0  0  0  0  0  0  0  0
    0.7175   -2.6393    0.0000 C   0  0  0  0  0  0  0  0  0  0  0  0
    2.9211    1.9047    0.0000 C   0  0  0  0  0  0  0  0  0  0  0  0
    0.0342   -3.0322    0.0000 C   0  0  0  0  0  0  0  0  0  0  0  0
  1 12  1  0  0  0  0
  2  7  1  0  0  0  0
  2 10  2  0  0  0  0
  3  7  2  0  0  0  0
  3 11  1  0  0  0  0
  4 18  3  0  0  0  0
  5 19  3  0  0  0  0
  6  7  1  0  0  0  0
  6  8  1  0  0  0  0
  6  9  2  0  0  0  0
  8 12  2  0  0  0  0
  8 18  1  0  0  0  0
  9 16  1  0  0  0  0
  9 19  1  0  0  0  0
 10 13  1  0  0  0  0
 10 14  1  0  0  0  0
 11 13  2  0  0  0  0
 11 15  1  0  0  0  0
 12 17  1  0  0  0  0
 14 20  2  0  0  0  0
 14 21  1  0  0  0  0
 15 22  2  0  0  0  0
 15 23  1  0  0  0  0
 16 17  2  0  0  0  0
 20 24  1  0  0  0  0
 21 25  2  0  0  0  0
 22 26  1  0  0  0  0
 23 27  2  0  0  0  0
 24 28  2  0  0  0  0
 25 28  1  0  0  0  0
 26 29  2  0  0  0  0
 27 29  1  0  0  0  0
M  END
> <PUBCHEM_COMPOUND_ID_TYPE>
0

> <PUBCHEM_TOTAL_CHARGE>
0

> <PUBCHEM_SUBSTANCE_ID>
310944368

> <PUBCHEM_SUBSTANCE_VERSION>
1

> <PUBCHEM_EXT_DATASOURCE_NAME>
4488

> <PUBCHEM_EXT_DATASOURCE_REGID>
SCHEMBL16122443

> <PUBCHEM_SUBSTANCE_COMMENT>
InChI=1S/C24H13FN4/c25-20-12-11-18(14-26)23(19(20)15-27)24-28-21(16-7-3-1-4-8-16)13-22(29-24)17-9-5-2-6-10-17/h1-13H
InChIKey=KAYWAGDXFBSMSE-UHFFFAOYSA-N

> <PUBCHEM_SUBSTANCE_SYNONYM>
SCHEMBL16122443

> <PUBCHEM_XREF_EXT_ID>
SCHEMBL16122443

> <PUBCHEM_EXT_DATASOURCE_URL>
https://www.surechembl.org/

> <PUBCHEM_EXT_SUBSTANCE_URL>
https://www.surechembl.org/chemical/SCHEMBL16122443

> <PUBCHEM_CID_ASSOCIATIONS>
117610625  1

> <PUBCHEM_COORDINATE_TYPE>
1
3

$$$$
