310938900
  -OEChem-07211613022D

 30 33  0     1  0  0  0  0  0999 V2000
   -2.1434    2.6812    0.0000 Cl  0  0  0  0  0  0  0  0  0  0  0  0
   -0.7145   -1.4437    0.0000 Cl  0  0  0  0  0  0  0  0  0  0  0  0
    2.8579    1.4438    0.0000 F   0  0  0  0  0  0  0  0  0  0  0  0
   -0.7145    2.6812    0.0000 O   0  0  0  0  0  0  0  0  0  0  0  0
    0.0000    1.4437    0.0000 N   0  0  0  0  0  0  0  0  0  0  0  0
    0.7145   -0.6187    0.0000 N   0  0  0  0  0  0  0  0  0  0  0  0
    1.4289   -1.8563    0.0000 N   0  0  0  0  0  0  0  0  0  0  0  0
    0.7145   -3.0938    0.0000 N   0  0  0  0  0  0  0  0  0  0  0  0
    2.1434   -3.0938    0.0000 N   0  0  0  0  0  0  0  0  0  0  0  0
    0.0000    0.6187    0.0000 C   0  0  0  0  0  0  0  0  0  0  0  0
   -1.4289    1.4437    0.0000 C   0  0  0  0  0  0  0  0  0  0  0  0
   -0.7145    1.8563    0.0000 C   0  0  0  0  0  0  0  0  0  0  0  0
   -1.4289    0.6187    0.0000 C   0  0  0  0  0  0  0  0  0  0  0  0
    0.7145    1.8563    0.0000 C   0  0  0  0  0  0  0  0  0  0  0  0
   -0.7145    0.2062    0.0000 C   0  0  0  0  0  0  0  0  0  0  0  0
    0.7145    0.2062    0.0000 C   0  0  3  0  0  0  0  0  0  0  0  0
   -2.1434    1.8563    0.0000 C   0  0  0  0  0  0  0  0  0  0  0  0
   -2.1434    0.2062    0.0000 C   0  0  0  0  0  0  0  0  0  0  0  0
    1.4289    1.4437    0.0000 C   0  0  0  0  0  0  0  0  0  0  0  0
    0.7145    2.6812    0.0000 C   0  0  0  0  0  0  0  0  0  0  0  0
   -2.8579    1.4437    0.0000 C   0  0  0  0  0  0  0  0  0  0  0  0
    0.7145   -1.4437    0.0000 C   0  0  0  0  0  0  0  0  0  0  0  0
   -2.8579    0.6187    0.0000 C   0  0  0  0  0  0  0  0  0  0  0  0
    2.1434    1.8563    0.0000 C   0  0  0  0  0  0  0  0  0  0  0  0
    0.0000   -1.8563    0.0000 C   0  0  0  0  0  0  0  0  0  0  0  0
    1.4289    0.6187    0.0000 C   0  0  0  0  0  0  0  0  0  0  0  0
    1.4289    3.0938    0.0000 C   0  0  0  0  0  0  0  0  0  0  0  0
    2.1434    2.6812    0.0000 C   0  0  0  0  0  0  0  0  0  0  0  0
    1.4289   -2.6812    0.0000 C   0  0  0  0  0  0  0  0  0  0  0  0
    0.0000   -2.6812    0.0000 C   0  0  0  0  0  0  0  0  0  0  0  0
  1 17  1  0  0  0  0
  2 25  1  0  0  0  0
  3 24  1  0  0  0  0
  4 12  2  0  0  0  0
  5 10  1  0  0  0  0
  5 12  1  0  0  0  0
  5 14  1  0  0  0  0
  6 16  1  0  0  0  0
  6 22  1  0  0  0  0
  7 22  1  0  0  0  0
  7 29  2  0  0  0  0
  8 29  1  0  0  0  0
  8 30  2  0  0  0  0
  9 29  1  0  0  0  0
 10 15  2  0  0  0  0
 10 16  1  0  0  0  0
 11 12  1  0  0  0  0
 11 13  1  0  0  0  0
 11 17  2  0  0  0  0
 13 15  1  0  0  0  0
 13 18  2  0  0  0  0
 14 19  2  0  0  0  0
 14 20  1  0  0  0  0
 16 26  1  6  0  0  0
 17 21  1  0  0  0  0
 18 23  1  0  0  0  0
 19 24  1  0  0  0  0
 20 27  2  0  0  0  0
 21 23  2  0  0  0  0
 22 25  2  0  0  0  0
 24 28  2  0  0  0  0
 25 30  1  0  0  0  0
 27 28  1  0  0  0  0
M  END
> <PUBCHEM_COMPOUND_ID_TYPE>
0

> <PUBCHEM_TOTAL_CHARGE>
0

> <PUBCHEM_SUBSTANCE_ID>
310938900

> <PUBCHEM_SUBSTANCE_VERSION>
1

> <PUBCHEM_EXT_DATASOURCE_NAME>
4488

> <PUBCHEM_EXT_DATASOURCE_REGID>
SCHEMBL16116819

> <PUBCHEM_SUBSTANCE_COMMENT>
InChI=1S/C21H16Cl2FN5O/c1-11(27-19-16(23)10-26-21(25)28-19)17-8-12-4-2-7-15(22)18(12)20(30)29(17)14-6-3-5-13(24)9-14/h2-11H,1H3,(H3,25,26,27,28)/t11-/m0/s1
InChIKey=CNRNJLAYYLPPPC-NSHDSACASA-N

> <PUBCHEM_SUBSTANCE_SYNONYM>
SCHEMBL16116819

> <PUBCHEM_XREF_EXT_ID>
SCHEMBL16116819

> <PUBCHEM_EXT_DATASOURCE_URL>
https://www.surechembl.org/

> <PUBCHEM_EXT_SUBSTANCE_URL>
https://www.surechembl.org/chemical/SCHEMBL16116819

> <PUBCHEM_CID_ASSOCIATIONS>
117606297  1

> <PUBCHEM_COORDINATE_TYPE>
1
3

> <PUBCHEM_BONDANNOTATIONS>
16  26  6

$$$$
