310939033
  -OEChem-07211613022D

 22 23  0     1  0  0  0  0  0999 V2000
   -1.4190   -3.8768    0.0000 O   0  0  0  0  0  0  0  0  0  0  0  0
    1.9248   -2.5538    0.0000 O   0  0  0  0  0  0  0  0  0  0  0  0
    1.5550   -3.9341    0.0000 O   0  0  0  0  0  0  0  0  0  0  0  0
    1.6043    0.9313    0.0000 O   0  0  0  0  0  0  0  0  0  0  0  0
    0.8899   -0.3062    0.0000 O   0  0  0  0  0  0  0  0  0  0  0  0
   -1.7889   -5.2571    0.0000 O   0  0  0  0  0  0  0  0  0  0  0  0
   -0.3095    0.2639    0.0000 N   0  3  0  0  0  0  0  0  0  0  0  0
   -0.0388   -3.5070    0.0000 N   0  0  0  0  0  0  0  0  0  0  0  0
   -0.4658   -1.9132    0.0000 C   0  0  0  0  0  0  0  0  0  0  0  0
    0.5446   -2.9236    0.0000 C   0  0  0  0  0  0  0  0  0  0  0  0
    0.1754    0.9313    0.0000 C   0  0  3  0  0  0  0  0  0  0  0  0
   -0.8357   -3.2935    0.0000 C   0  0  3  0  0  0  0  0  0  0  0  0
    0.3311   -2.1268    0.0000 C   0  0  0  0  0  0  0  0  0  0  0  0
   -1.0492   -2.4966    0.0000 C   0  0  0  0  0  0  0  0  0  0  0  0
   -0.6794   -1.1163    0.0000 C   0  0  0  0  0  0  0  0  0  0  0  0
   -0.0960   -0.5330    0.0000 C   0  0  0  0  0  0  0  0  0  0  0  0
    1.3415   -3.1372    0.0000 C   0  0  0  0  0  0  0  0  0  0  0  0
   -1.0941    0.5188    0.0000 C   0  0  0  0  0  0  0  0  0  0  0  0
   -0.3095    1.5988    0.0000 C   0  0  0  0  0  0  0  0  0  0  0  0
    0.8899    0.5188    0.0000 C   0  0  0  0  0  0  0  0  0  0  0  0
   -1.0941    1.3438    0.0000 C   0  0  0  0  0  0  0  0  0  0  0  0
   -1.2055   -4.6737    0.0000 C   0  0  0  0  0  0  0  0  0  0  0  0
 12  1  1  1  0  0  0
  1 22  1  0  0  0  0
  2 17  2  0  0  0  0
  3 17  1  0  0  0  0
  4 20  2  0  0  0  0
  5 20  1  0  0  0  0
  6 22  2  0  0  0  0
  7 11  1  0  0  0  0
  7 16  2  0  0  0  0
  7 18  1  0  0  0  0
  8 10  1  0  0  0  0
  8 12  1  0  0  0  0
  9 13  1  0  0  0  0
  9 14  1  0  0  0  0
  9 15  2  0  0  0  0
 10 13  2  0  0  0  0
 10 17  1  0  0  0  0
 11 19  1  0  0  0  0
 11 20  1  1  0  0  0
 12 14  1  0  0  0  0
 15 16  1  0  0  0  0
 18 21  1  0  0  0  0
 19 21  1  0  0  0  0
M  CHG  1   7   1
M  END
> <PUBCHEM_COMPOUND_ID_TYPE>
0

> <PUBCHEM_TOTAL_CHARGE>
1

> <PUBCHEM_SUBSTANCE_ID>
310939033

> <PUBCHEM_SUBSTANCE_VERSION>
1

> <PUBCHEM_EXT_DATASOURCE_NAME>
4488

> <PUBCHEM_EXT_DATASOURCE_REGID>
SCHEMBL16116952

> <PUBCHEM_SUBSTANCE_COMMENT>
InChI=1S/C14H16N2O6/c17-8-22-12-7-9(6-10(15-12)13(18)19)3-5-16-4-1-2-11(16)14(20)21/h3,5-6,8,11-12H,1-2,4,7H2,(H2,18,19,20,21)/p+1/t11-,12-/m0/s1
InChIKey=JKJBFPOFZPPPNV-RYUDHWBXSA-O

> <PUBCHEM_SUBSTANCE_SYNONYM>
SCHEMBL16116952

> <PUBCHEM_XREF_EXT_ID>
SCHEMBL16116952

> <PUBCHEM_EXT_DATASOURCE_URL>
https://www.surechembl.org/

> <PUBCHEM_EXT_SUBSTANCE_URL>
https://www.surechembl.org/chemical/SCHEMBL16116952

> <PUBCHEM_CID_ASSOCIATIONS>
117606405  1

> <PUBCHEM_COORDINATE_TYPE>
1
3

> <PUBCHEM_BONDANNOTATIONS>
12  1  5
11  20  5

$$$$
