310940122
  -OEChem-07211613022D

 59 70  0     0  0  0  0  0  0999 V2000
    1.1459   -2.7299    0.0000 O   0  0  0  0  0  0  0  0  0  0  0  0
   -4.7093   -8.5248    0.0000 N   0  0  0  0  0  0  0  0  0  0  0  0
    4.9960   -7.5593    0.0000 N   0  0  0  0  0  0  0  0  0  0  0  0
    6.0759   -6.7746    0.0000 N   0  0  0  0  0  0  0  0  0  0  0  0
   -4.5379   -9.3317    0.0000 C   0  0  0  0  0  0  0  0  0  0  0  0
   -5.5299   -8.4385    0.0000 C   0  0  0  0  0  0  0  0  0  0  0  0
   -5.2523   -9.7443    0.0000 C   0  0  0  0  0  0  0  0  0  0  0  0
   -5.8654   -9.1923    0.0000 C   0  0  0  0  0  0  0  0  0  0  0  0
    1.5584   -3.9996    0.0000 C   0  0  0  0  0  0  0  0  0  0  0  0
    0.7334   -3.9996    0.0000 C   0  0  0  0  0  0  0  0  0  0  0  0
   -4.1260   -7.9414    0.0000 C   0  0  0  0  0  0  0  0  0  0  0  0
    5.2509   -6.7746    0.0000 C   0  0  0  0  0  0  0  0  0  0  0  0
    1.8134   -3.2149    0.0000 C   0  0  0  0  0  0  0  0  0  0  0  0
    0.4784   -3.2149    0.0000 C   0  0  0  0  0  0  0  0  0  0  0  0
    5.6635   -8.0442    0.0000 C   0  0  0  0  0  0  0  0  0  0  0  0
    6.3310   -7.5593    0.0000 C   0  0  0  0  0  0  0  0  0  0  0  0
    4.6676   -6.1912    0.0000 C   0  0  0  0  0  0  0  0  0  0  0  0
    2.9174   -4.4411    0.0000 C   0  0  0  0  0  0  0  0  0  0  0  0
   -3.8233   -9.7443    0.0000 C   0  0  0  0  0  0  0  0  0  0  0  0
   -6.0148   -7.7710    0.0000 C   0  0  0  0  0  0  0  0  0  0  0  0
    2.1105   -4.6127    0.0000 C   0  0  0  0  0  0  0  0  0  0  0  0
   -5.2523  -10.5692    0.0000 C   0  0  0  0  0  0  0  0  0  0  0  0
   -6.6859   -9.2784    0.0000 C   0  0  0  0  0  0  0  0  0  0  0  0
    4.2814   -7.9718    0.0000 C   0  0  0  0  0  0  0  0  0  0  0  0
    0.1813   -4.6127    0.0000 C   0  0  0  0  0  0  0  0  0  0  0  0
   -0.6256   -4.4411    0.0000 C   0  0  0  0  0  0  0  0  0  0  0  0
    3.5008   -5.0244    0.0000 C   0  0  0  0  0  0  0  0  0  0  0  0
    2.6203   -3.0433    0.0000 C   0  0  0  0  0  0  0  0  0  0  0  0
   -3.3290   -8.1549    0.0000 C   0  0  0  0  0  0  0  0  0  0  0  0
   -4.3395   -7.1445    0.0000 C   0  0  0  0  0  0  0  0  0  0  0  0
   -0.3285   -3.0433    0.0000 C   0  0  0  0  0  0  0  0  0  0  0  0
    3.1724   -3.6565    0.0000 C   0  0  0  0  0  0  0  0  0  0  0  0
   -1.2091   -5.0244    0.0000 C   0  0  0  0  0  0  0  0  0  0  0  0
   -2.9591   -6.7746    0.0000 C   0  0  0  0  0  0  0  0  0  0  0  0
    5.7498   -8.8646    0.0000 C   0  0  0  0  0  0  0  0  0  0  0  0
    3.8706   -6.4047    0.0000 C   0  0  0  0  0  0  0  0  0  0  0  0
    4.8811   -5.3943    0.0000 C   0  0  0  0  0  0  0  0  0  0  0  0
   -0.8807   -3.6565    0.0000 C   0  0  0  0  0  0  0  0  0  0  0  0
   -3.8233  -10.5692    0.0000 C   0  0  0  0  0  0  0  0  0  0  0  0
   -6.8353   -7.8573    0.0000 C   0  0  0  0  0  0  0  0  0  0  0  0
   -4.5379  -10.9818    0.0000 C   0  0  0  0  0  0  0  0  0  0  0  0
   -7.1709   -8.6110    0.0000 C   0  0  0  0  0  0  0  0  0  0  0  0
    3.2873   -5.8214    0.0000 C   0  0  0  0  0  0  0  0  0  0  0  0
    4.2977   -4.8109    0.0000 C   0  0  0  0  0  0  0  0  0  0  0  0
    7.0846   -7.8949    0.0000 C   0  0  0  0  0  0  0  0  0  0  0  0
   -2.3758   -6.1912    0.0000 C   0  0  0  0  0  0  0  0  0  0  0  0
   -2.7457   -7.5715    0.0000 C   0  0  0  0  0  0  0  0  0  0  0  0
   -3.7561   -6.5611    0.0000 C   0  0  0  0  0  0  0  0  0  0  0  0
    3.5670   -7.5593    0.0000 C   0  0  0  0  0  0  0  0  0  0  0  0
    4.2814   -8.7968    0.0000 C   0  0  0  0  0  0  0  0  0  0  0  0
   -0.9955   -5.8214    0.0000 C   0  0  0  0  0  0  0  0  0  0  0  0
   -2.0059   -4.8109    0.0000 C   0  0  0  0  0  0  0  0  0  0  0  0
    6.5034   -9.2003    0.0000 C   0  0  0  0  0  0  0  0  0  0  0  0
    7.1709   -8.7153    0.0000 C   0  0  0  0  0  0  0  0  0  0  0  0
   -1.5788   -6.4047    0.0000 C   0  0  0  0  0  0  0  0  0  0  0  0
   -2.5894   -5.3943    0.0000 C   0  0  0  0  0  0  0  0  0  0  0  0
    2.8525   -7.9718    0.0000 C   0  0  0  0  0  0  0  0  0  0  0  0
    3.5670   -9.2093    0.0000 C   0  0  0  0  0  0  0  0  0  0  0  0
    2.8525   -8.7968    0.0000 C   0  0  0  0  0  0  0  0  0  0  0  0
  1 13  1  0  0  0  0
  1 14  1  0  0  0  0
  2  5  1  0  0  0  0
  2  6  1  0  0  0  0
  2 11  1  0  0  0  0
  3 12  1  0  0  0  0
  3 15  1  0  0  0  0
  3 24  1  0  0  0  0
  4 12  2  0  0  0  0
  4 16  1  0  0  0  0
  5  7  2  0  0  0  0
  5 19  1  0  0  0  0
  6  8  2  0  0  0  0
  6 20  1  0  0  0  0
  7  8  1  0  0  0  0
  7 22  1  0  0  0  0
  8 23  1  0  0  0  0
  9 10  1  0  0  0  0
  9 13  2  0  0  0  0
  9 21  1  0  0  0  0
 10 14  1  0  0  0  0
 10 25  2  0  0  0  0
 11 29  2  0  0  0  0
 11 30  1  0  0  0  0
 12 17  1  0  0  0  0
 13 28  1  0  0  0  0
 14 31  2  0  0  0  0
 15 16  2  0  0  0  0
 15 35  1  0  0  0  0
 16 45  1  0  0  0  0
 17 36  2  0  0  0  0
 17 37  1  0  0  0  0
 18 21  2  0  0  0  0
 18 27  1  0  0  0  0
 18 32  1  0  0  0  0
 19 39  2  0  0  0  0
 20 40  2  0  0  0  0
 22 41  2  0  0  0  0
 23 42  2  0  0  0  0
 24 49  2  0  0  0  0
 24 50  1  0  0  0  0
 25 26  1  0  0  0  0
 26 33  1  0  0  0  0
 26 38  2  0  0  0  0
 27 43  2  0  0  0  0
 27 44  1  0  0  0  0
 28 32  2  0  0  0  0
 29 47  1  0  0  0  0
 30 48  2  0  0  0  0
 31 38  1  0  0  0  0
 33 51  2  0  0  0  0
 33 52  1  0  0  0  0
 34 46  1  0  0  0  0
 34 47  2  0  0  0  0
 34 48  1  0  0  0  0
 35 53  2  0  0  0  0
 36 43  1  0  0  0  0
 37 44  2  0  0  0  0
 39 41  1  0  0  0  0
 40 42  1  0  0  0  0
 45 54  2  0  0  0  0
 46 55  2  0  0  0  0
 46 56  1  0  0  0  0
 49 57  1  0  0  0  0
 50 58  2  0  0  0  0
 51 55  1  0  0  0  0
 52 56  2  0  0  0  0
 53 54  1  0  0  0  0
 57 59  2  0  0  0  0
 58 59  1  0  0  0  0
M  END
> <PUBCHEM_COMPOUND_ID_TYPE>
0

> <PUBCHEM_TOTAL_CHARGE>
0

> <PUBCHEM_SUBSTANCE_ID>
310940122

> <PUBCHEM_SUBSTANCE_VERSION>
1

> <PUBCHEM_EXT_DATASOURCE_NAME>
4488

> <PUBCHEM_EXT_DATASOURCE_REGID>
SCHEMBL16118054

> <PUBCHEM_SUBSTANCE_COMMENT>
InChI=1S/C55H35N3O/c1-2-10-43(11-3-1)58-52-17-9-6-14-49(52)56-55(58)40-24-22-39(23-25-40)42-29-33-54-48(35-42)47-34-41(28-32-53(47)59-54)38-20-18-36(19-21-38)37-26-30-44(31-27-37)57-50-15-7-4-12-45(50)46-13-5-8-16-51(46)57/h1-35H
InChIKey=WOQBVCJSGCUVSA-UHFFFAOYSA-N

> <PUBCHEM_SUBSTANCE_SYNONYM>
SCHEMBL16118054

> <PUBCHEM_XREF_EXT_ID>
SCHEMBL16118054

> <PUBCHEM_EXT_DATASOURCE_URL>
https://www.surechembl.org/

> <PUBCHEM_EXT_SUBSTANCE_URL>
https://www.surechembl.org/chemical/SCHEMBL16118054

> <PUBCHEM_CID_ASSOCIATIONS>
117607249  1

> <PUBCHEM_COORDINATE_TYPE>
1
3

$$$$
