310944356
  -OEChem-07211613022D

 35 39  0     0  0  0  0  0  0999 V2000
   -0.7186    2.4533    0.0000 F   0  0  0  0  0  0  0  0  0  0  0  0
   -2.8961    1.9742    0.0000 N   0  0  0  0  0  0  0  0  0  0  0  0
    1.4299    1.9742    0.0000 N   0  0  0  0  0  0  0  0  0  0  0  0
   -1.4735    0.4065    0.0000 C   0  0  0  0  0  0  0  0  0  0  0  0
   -0.0218    0.4065    0.0000 C   0  0  0  0  0  0  0  0  0  0  0  0
   -1.4589    1.2339    0.0000 C   0  0  0  0  0  0  0  0  0  0  0  0
   -0.0073    1.2339    0.0000 C   0  0  0  0  0  0  0  0  0  0  0  0
   -0.7475    1.6404    0.0000 C   0  0  0  0  0  0  0  0  0  0  0  0
   -2.1702    0.0000    0.0000 C   0  0  0  0  0  0  0  0  0  0  0  0
    0.7040    0.0000    0.0000 C   0  0  0  0  0  0  0  0  0  0  0  0
   -0.7330    0.0000    0.0000 C   0  0  0  0  0  0  0  0  0  0  0  0
   -2.1848   -0.8129    0.0000 C   0  0  0  0  0  0  0  0  0  0  0  0
    1.4444    0.3920    0.0000 C   0  0  0  0  0  0  0  0  0  0  0  0
   -2.9251    0.3920    0.0000 C   0  0  0  0  0  0  0  0  0  0  0  0
    0.7186   -0.8274    0.0000 C   0  0  0  0  0  0  0  0  0  0  0  0
   -1.4589   -1.2339    0.0000 C   0  0  0  0  0  0  0  0  0  0  0  0
    2.1702    0.8129    0.0000 C   0  0  0  0  0  0  0  0  0  0  0  0
   -2.1848    1.6259    0.0000 C   0  0  0  0  0  0  0  0  0  0  0  0
    0.7040    1.6259    0.0000 C   0  0  0  0  0  0  0  0  0  0  0  0
   -2.8961   -1.2194    0.0000 C   0  0  0  0  0  0  0  0  0  0  0  0
    2.1702   -0.0145    0.0000 C   0  0  0  0  0  0  0  0  0  0  0  0
   -3.6219    0.0000    0.0000 C   0  0  0  0  0  0  0  0  0  0  0  0
    1.4444   -1.2339    0.0000 C   0  0  0  0  0  0  0  0  0  0  0  0
   -3.6219   -0.7984    0.0000 C   0  0  0  0  0  0  0  0  0  0  0  0
    2.1557   -0.8419    0.0000 C   0  0  0  0  0  0  0  0  0  0  0  0
   -1.4589   -2.0468    0.0000 C   0  0  0  0  0  0  0  0  0  0  0  0
   -0.7620   -0.8419    0.0000 C   0  0  0  0  0  0  0  0  0  0  0  0
    2.9106    0.4210    0.0000 C   0  0  0  0  0  0  0  0  0  0  0  0
    2.1848    1.6259    0.0000 C   0  0  0  0  0  0  0  0  0  0  0  0
   -0.7475   -2.4533    0.0000 C   0  0  0  0  0  0  0  0  0  0  0  0
   -0.0218   -1.2339    0.0000 C   0  0  0  0  0  0  0  0  0  0  0  0
    3.6219    0.8129    0.0000 C   0  0  0  0  0  0  0  0  0  0  0  0
    2.8815    2.0468    0.0000 C   0  0  0  0  0  0  0  0  0  0  0  0
   -0.0363   -2.0613    0.0000 C   0  0  0  0  0  0  0  0  0  0  0  0
    3.6219    1.6259    0.0000 C   0  0  0  0  0  0  0  0  0  0  0  0
  1  8  1  0  0  0  0
  2 18  3  0  0  0  0
  3 19  3  0  0  0  0
  4  6  2  0  0  0  0
  4  9  1  0  0  0  0
  4 11  1  0  0  0  0
  5  7  1  0  0  0  0
  5 10  1  0  0  0  0
  5 11  2  0  0  0  0
  6  8  1  0  0  0  0
  6 18  1  0  0  0  0
  7  8  2  0  0  0  0
  7 19  1  0  0  0  0
  9 12  1  0  0  0  0
  9 14  2  0  0  0  0
 10 13  1  0  0  0  0
 10 15  2  0  0  0  0
 12 16  1  0  0  0  0
 12 20  2  0  0  0  0
 13 17  1  0  0  0  0
 13 21  2  0  0  0  0
 14 22  1  0  0  0  0
 15 23  1  0  0  0  0
 16 26  2  0  0  0  0
 16 27  1  0  0  0  0
 17 28  2  0  0  0  0
 17 29  1  0  0  0  0
 20 24  1  0  0  0  0
 21 25  1  0  0  0  0
 22 24  2  0  0  0  0
 23 25  2  0  0  0  0
 26 30  1  0  0  0  0
 27 31  2  0  0  0  0
 28 32  1  0  0  0  0
 29 33  2  0  0  0  0
 30 34  2  0  0  0  0
 31 34  1  0  0  0  0
 32 35  2  0  0  0  0
 33 35  1  0  0  0  0
M  END
> <PUBCHEM_COMPOUND_ID_TYPE>
0

> <PUBCHEM_TOTAL_CHARGE>
0

> <PUBCHEM_SUBSTANCE_ID>
310944356

> <PUBCHEM_SUBSTANCE_VERSION>
1

> <PUBCHEM_EXT_DATASOURCE_NAME>
4488

> <PUBCHEM_EXT_DATASOURCE_REGID>
SCHEMBL16122431

> <PUBCHEM_SUBSTANCE_COMMENT>
InChI=1S/C32H19FN2/c33-32-30(20-34)28(26-17-9-7-15-24(26)22-11-3-1-4-12-22)19-29(31(32)21-35)27-18-10-8-16-25(27)23-13-5-2-6-14-23/h1-19H
InChIKey=JRKKKIBZQRLREN-UHFFFAOYSA-N

> <PUBCHEM_SUBSTANCE_SYNONYM>
SCHEMBL16122431

> <PUBCHEM_XREF_EXT_ID>
SCHEMBL16122431

> <PUBCHEM_EXT_DATASOURCE_URL>
https://www.surechembl.org/

> <PUBCHEM_EXT_SUBSTANCE_URL>
https://www.surechembl.org/chemical/SCHEMBL16122431

> <PUBCHEM_CID_ASSOCIATIONS>
117610613  1

> <PUBCHEM_COORDINATE_TYPE>
1
3

$$$$
