310948805
  -OEChem-07211613022D

 37 41  0     1  0  0  0  0  0999 V2000
   -2.3718   -0.2062    0.0000 F   0  0  0  0  0  0  0  0  0  0  0  0
   -3.8981    0.1925    0.0000 O   0  0  0  0  0  0  0  0  0  0  0  0
   -4.5994    1.4437    0.0000 O   0  0  0  0  0  0  0  0  0  0  0  0
    4.1319    2.5301    0.0000 O   0  0  0  0  0  0  0  0  0  0  0  0
    4.1319    1.1825    0.0000 O   0  0  0  0  0  0  0  0  0  0  0  0
   -0.2131    2.6813    0.0000 O   0  0  0  0  0  0  0  0  0  0  0  0
    0.4882   -0.2062    0.0000 N   0  0  3  0  0  0  0  0  0  0  0  0
    0.4882    1.4575    0.0000 N   0  0  0  0  0  0  0  0  0  0  0  0
    1.2031    2.6951    0.0000 N   0  0  0  0  0  0  0  0  0  0  0  0
   -2.3855    1.4713    0.0000 C   0  0  3  0  0  0  0  0  0  0  0  0
   -1.6431    1.0312    0.0000 C   0  0  0  0  0  0  0  0  0  0  0  0
   -3.1694    1.4575    0.0000 C   0  0  3  0  0  0  0  0  0  0  0  0
   -2.7844    2.1450    0.0000 C   0  0  0  0  0  0  0  0  0  0  0  0
   -0.2406    0.2062    0.0000 C   0  0  0  0  0  0  0  0  0  0  0  0
   -1.6569    0.2062    0.0000 C   0  0  0  0  0  0  0  0  0  0  0  0
   -0.2268    1.0450    0.0000 C   0  0  0  0  0  0  0  0  0  0  0  0
   -0.9556    1.4299    0.0000 C   0  0  0  0  0  0  0  0  0  0  0  0
   -0.9281   -0.2062    0.0000 C   0  0  0  0  0  0  0  0  0  0  0  0
   -3.9394    1.0587    0.0000 C   0  0  0  0  0  0  0  0  0  0  0  0
    0.4882   -1.0450    0.0000 C   0  0  0  0  0  0  0  0  0  0  0  0
    0.5157    2.2687    0.0000 C   0  0  0  0  0  0  0  0  0  0  0  0
    1.2031    0.2062    0.0000 C   0  0  0  0  0  0  0  0  0  0  0  0
    1.9181    2.2824    0.0000 C   0  0  0  0  0  0  0  0  0  0  0  0
    3.3481    2.2824    0.0000 C   0  0  0  0  0  0  0  0  0  0  0  0
    3.3343    1.4575    0.0000 C   0  0  0  0  0  0  0  0  0  0  0  0
   -0.2131   -1.4713    0.0000 C   0  0  0  0  0  0  0  0  0  0  0  0
    1.2031   -1.4713    0.0000 C   0  0  0  0  0  0  0  0  0  0  0  0
    2.6194    2.6813    0.0000 C   0  0  0  0  0  0  0  0  0  0  0  0
    1.9181   -0.2062    0.0000 C   0  0  0  0  0  0  0  0  0  0  0  0
    1.9181    1.4437    0.0000 C   0  0  0  0  0  0  0  0  0  0  0  0
    2.6332    1.0312    0.0000 C   0  0  0  0  0  0  0  0  0  0  0  0
    4.5994    1.8425    0.0000 C   0  0  0  0  0  0  0  0  0  0  0  0
   -0.2131   -2.2962    0.0000 C   0  0  0  0  0  0  0  0  0  0  0  0
    1.2031   -2.2824    0.0000 C   0  0  0  0  0  0  0  0  0  0  0  0
    0.5019   -2.6951    0.0000 C   0  0  0  0  0  0  0  0  0  0  0  0
    2.6332    0.2199    0.0000 C   0  0  0  0  0  0  0  0  0  0  0  0
    1.9319   -1.0587    0.0000 C   0  0  0  0  0  0  0  0  0  0  0  0
  1 15  1  0  0  0  0
  2 19  2  0  0  0  0
  3 19  1  0  0  0  0
  4 24  1  0  0  0  0
  4 32  1  0  0  0  0
  5 25  1  0  0  0  0
  5 32  1  0  0  0  0
  6 21  2  0  0  0  0
  7 14  1  0  0  0  0
  7 20  1  0  0  0  0
  7 22  1  0  0  0  0
  8 16  1  0  0  0  0
  8 21  1  0  0  0  0
  9 21  1  0  0  0  0
  9 23  1  0  0  0  0
 10 11  1  0  0  0  0
 10 12  1  0  0  0  0
 10 13  1  6  0  0  0
 11 15  2  0  0  0  0
 11 17  1  0  0  0  0
 12 13  1  0  0  0  0
 12 19  1  6  0  0  0
 14 16  1  0  0  0  0
 14 18  2  0  0  0  0
 15 18  1  0  0  0  0
 16 17  2  0  0  0  0
 20 26  1  0  0  0  0
 20 27  1  0  0  0  0
 22 29  1  0  0  0  0
 23 28  1  0  0  0  0
 23 30  2  0  0  0  0
 24 25  1  0  0  0  0
 24 28  2  0  0  0  0
 25 31  2  0  0  0  0
 26 33  1  0  0  0  0
 27 34  1  0  0  0  0
 29 36  1  0  0  0  0
 29 37  1  0  0  0  0
 30 31  1  0  0  0  0
 33 35  1  0  0  0  0
 34 35  1  0  0  0  0
M  END
> <PUBCHEM_COMPOUND_ID_TYPE>
0

> <PUBCHEM_TOTAL_CHARGE>
0

> <PUBCHEM_SUBSTANCE_ID>
310948805

> <PUBCHEM_SUBSTANCE_VERSION>
1

> <PUBCHEM_EXT_DATASOURCE_NAME>
4488

> <PUBCHEM_EXT_DATASOURCE_REGID>
SCHEMBL16126989

> <PUBCHEM_SUBSTANCE_COMMENT>
InChI=1S/C28H34FN3O5/c1-16(2)14-32(18-6-4-3-5-7-18)24-13-22(29)20(19-11-21(19)27(33)34)12-23(24)31-28(35)30-17-8-9-25-26(10-17)37-15-36-25/h8-10,12-13,16,18-19,21H,3-7,11,14-15H2,1-2H3,(H,33,34)(H2,30,31,35)/t19-,21-/m1/s1
InChIKey=UELHXUXKGVYXEI-TZIWHRDSSA-N

> <PUBCHEM_SUBSTANCE_SYNONYM>
SCHEMBL16126989

> <PUBCHEM_XREF_EXT_ID>
SCHEMBL16126989

> <PUBCHEM_EXT_DATASOURCE_URL>
https://www.surechembl.org/

> <PUBCHEM_EXT_SUBSTANCE_URL>
https://www.surechembl.org/chemical/SCHEMBL16126989

> <PUBCHEM_CID_ASSOCIATIONS>
117614344  1

> <PUBCHEM_COORDINATE_TYPE>
1
3

> <PUBCHEM_BONDANNOTATIONS>
10  13  6
12  19  6

$$$$
