310945086
  -OEChem-07211613022D

 32 35  0     0  0  0  0  0  0999 V2000
    3.6442   -1.2403    0.0000 O   0  0  0  0  0  0  0  0  0  0  0  0
    2.9336   -2.4806    0.0000 O   0  0  0  0  0  0  0  0  0  0  0  0
   -4.3410   -1.7838    0.0000 N   0  0  0  0  0  0  0  0  0  0  0  0
   -1.4284    0.0279    0.0000 C   0  0  0  0  0  0  0  0  0  0  0  0
   -1.4145    0.8641    0.0000 C   0  0  0  0  0  0  0  0  0  0  0  0
   -2.1671    1.2821    0.0000 C   0  0  0  0  0  0  0  0  0  0  0  0
   -0.6898   -0.3763    0.0000 C   0  0  0  0  0  0  0  0  0  0  0  0
   -2.1252   -0.3902    0.0000 C   0  0  0  0  0  0  0  0  0  0  0  0
   -0.7037    1.2821    0.0000 C   0  0  0  0  0  0  0  0  0  0  0  0
   -2.9336    1.0592    0.0000 C   0  0  0  0  0  0  0  0  0  0  0  0
   -2.3622    2.0625    0.0000 C   0  0  0  0  0  0  0  0  0  0  0  0
   -0.6759   -1.2125    0.0000 C   0  0  0  0  0  0  0  0  0  0  0  0
    0.0209    0.0139    0.0000 C   0  0  0  0  0  0  0  0  0  0  0  0
   -2.8778    0.0000    0.0000 C   0  0  0  0  0  0  0  0  0  0  0  0
   -2.1392   -1.2264    0.0000 C   0  0  0  0  0  0  0  0  0  0  0  0
    0.0348    0.8780    0.0000 C   0  0  0  0  0  0  0  0  0  0  0  0
   -0.6898    2.1182    0.0000 C   0  0  0  0  0  0  0  0  0  0  0  0
   -3.1565    1.8395    0.0000 C   0  0  0  0  0  0  0  0  0  0  0  0
    0.7455   -1.2125    0.0000 C   0  0  0  0  0  0  0  0  0  0  0  0
    0.0488   -1.6305    0.0000 C   0  0  0  0  0  0  0  0  0  0  0  0
    0.7455   -0.3902    0.0000 C   0  0  0  0  0  0  0  0  0  0  0  0
   -3.5606   -0.3902    0.0000 C   0  0  0  0  0  0  0  0  0  0  0  0
   -2.8639   -1.6305    0.0000 C   0  0  0  0  0  0  0  0  0  0  0  0
   -3.5885   -1.2125    0.0000 C   0  0  0  0  0  0  0  0  0  0  0  0
    0.7316    1.2821    0.0000 C   0  0  0  0  0  0  0  0  0  0  0  0
    0.0070    2.5084    0.0000 C   0  0  0  0  0  0  0  0  0  0  0  0
    0.7316    2.1182    0.0000 C   0  0  0  0  0  0  0  0  0  0  0  0
    1.4981   -1.6166    0.0000 C   0  0  0  0  0  0  0  0  0  0  0  0
    2.1949   -1.2125    0.0000 C   0  0  0  0  0  0  0  0  0  0  0  0
    2.9196   -1.5887    0.0000 C   0  0  0  0  0  0  0  0  0  0  0  0
    4.3410   -1.6723    0.0000 C   0  0  0  0  0  0  0  0  0  0  0  0
    4.2992   -2.5084    0.0000 C   0  0  0  0  0  0  0  0  0  0  0  0
  1 30  1  0  0  0  0
  1 31  1  0  0  0  0
  2 30  2  0  0  0  0
  3 24  1  0  0  0  0
  4  5  2  0  0  0  0
  4  7  1  0  0  0  0
  4  8  1  0  0  0  0
  5  6  1  0  0  0  0
  5  9  1  0  0  0  0
  6 10  1  0  0  0  0
  6 11  1  0  0  0  0
  7 12  2  0  0  0  0
  7 13  1  0  0  0  0
  8 14  2  0  0  0  0
  8 15  1  0  0  0  0
  9 16  2  0  0  0  0
  9 17  1  0  0  0  0
 10 18  1  0  0  0  0
 11 18  1  0  0  0  0
 12 20  1  0  0  0  0
 13 21  2  0  0  0  0
 14 22  1  0  0  0  0
 15 23  2  0  0  0  0
 16 25  1  0  0  0  0
 17 26  2  0  0  0  0
 19 20  2  0  0  0  0
 19 21  1  0  0  0  0
 19 28  1  0  0  0  0
 22 24  2  0  0  0  0
 23 24  1  0  0  0  0
 25 27  2  0  0  0  0
 26 27  1  0  0  0  0
 28 29  2  0  0  0  0
 29 30  1  0  0  0  0
 31 32  1  0  0  0  0
M  END
> <PUBCHEM_COMPOUND_ID_TYPE>
0

> <PUBCHEM_TOTAL_CHARGE>
0

> <PUBCHEM_SUBSTANCE_ID>
310945086

> <PUBCHEM_SUBSTANCE_VERSION>
1

> <PUBCHEM_EXT_DATASOURCE_NAME>
4488

> <PUBCHEM_EXT_DATASOURCE_REGID>
SCHEMBL16123176

> <PUBCHEM_SUBSTANCE_COMMENT>
InChI=1S/C29H29NO2/c1-2-32-27(31)20-13-21-11-14-24(15-12-21)29(25-16-18-26(30)19-17-25)28(23-9-6-10-23)22-7-4-3-5-8-22/h3-5,7-8,11-20,23H,2,6,9-10,30H2,1H3/b20-13+,29-28-
InChIKey=JNFAEGKXNVDEBQ-DCHLROMLSA-N

> <PUBCHEM_SUBSTANCE_SYNONYM>
SCHEMBL16123176

> <PUBCHEM_XREF_EXT_ID>
SCHEMBL16123176

> <PUBCHEM_EXT_DATASOURCE_URL>
https://www.surechembl.org/

> <PUBCHEM_EXT_SUBSTANCE_URL>
https://www.surechembl.org/chemical/SCHEMBL16123176

> <PUBCHEM_CID_ASSOCIATIONS>
117611188  1

> <PUBCHEM_COORDINATE_TYPE>
1
3

$$$$
