310945524
  -OEChem-07211613022D

 26 29  0     0  0  0  0  0  0999 V2000
    2.5816    3.6774    0.0000 F   0  0  0  0  0  0  0  0  0  0  0  0
   -2.5816    2.0888    0.0000 O   0  0  0  0  0  0  0  0  0  0  0  0
   -1.1988   -3.6774    0.0000 O   0  0  0  0  0  0  0  0  0  0  0  0
    0.2427    1.3386    0.0000 N   0  0  0  0  0  0  0  0  0  0  0  0
    2.2726    2.2653    0.0000 N   0  0  0  0  0  0  0  0  0  0  0  0
   -1.1988   -2.0153    0.0000 N   0  0  0  0  0  0  0  0  0  0  0  0
    0.9046    1.8388    0.0000 C   0  0  0  0  0  0  0  0  0  0  0  0
    0.6546    2.6036    0.0000 C   0  0  0  0  0  0  0  0  0  0  0  0
   -0.1692    2.6183    0.0000 C   0  0  0  0  0  0  0  0  0  0  0  0
   -0.4486    1.8240    0.0000 C   0  0  0  0  0  0  0  0  0  0  0  0
    1.7284    1.6475    0.0000 C   0  0  0  0  0  0  0  0  0  0  0  0
    1.2136    3.2214    0.0000 C   0  0  0  0  0  0  0  0  0  0  0  0
   -1.2430    1.6622    0.0000 C   0  0  0  0  0  0  0  0  0  0  0  0
   -0.7134    3.2067    0.0000 C   0  0  0  0  0  0  0  0  0  0  0  0
    2.0226    3.0596    0.0000 C   0  0  0  0  0  0  0  0  0  0  0  0
    0.2280    0.4707    0.0000 C   0  0  0  0  0  0  0  0  0  0  0  0
   -1.7725    2.2653    0.0000 C   0  0  0  0  0  0  0  0  0  0  0  0
   -1.5225    3.0449    0.0000 C   0  0  0  0  0  0  0  0  0  0  0  0
    2.0373    0.7649    0.0000 C   0  0  0  0  0  0  0  0  0  0  0  0
   -0.4633    0.0736    0.0000 C   0  0  0  0  0  0  0  0  0  0  0  0
   -0.4928   -0.7649    0.0000 C   0  0  0  0  0  0  0  0  0  0  0  0
   -1.1841   -1.1768    0.0000 C   0  0  0  0  0  0  0  0  0  0  0  0
   -0.4780   -2.4271    0.0000 C   0  0  0  0  0  0  0  0  0  0  0  0
   -1.9049   -2.4124    0.0000 C   0  0  0  0  0  0  0  0  0  0  0  0
   -0.4928   -3.2508    0.0000 C   0  0  0  0  0  0  0  0  0  0  0  0
   -1.9049   -3.2508    0.0000 C   0  0  0  0  0  0  0  0  0  0  0  0
  1 15  1  0  0  0  0
  2 17  1  0  0  0  0
  3 25  1  0  0  0  0
  3 26  1  0  0  0  0
  4  7  1  0  0  0  0
  4 10  1  0  0  0  0
  4 16  1  0  0  0  0
  5 11  2  0  0  0  0
  5 15  1  0  0  0  0
  6 22  1  0  0  0  0
  6 23  1  0  0  0  0
  6 24  1  0  0  0  0
  7  8  2  0  0  0  0
  7 11  1  0  0  0  0
  8  9  1  0  0  0  0
  8 12  1  0  0  0  0
  9 10  2  0  0  0  0
  9 14  1  0  0  0  0
 10 13  1  0  0  0  0
 11 19  1  0  0  0  0
 12 15  2  0  0  0  0
 13 17  2  0  0  0  0
 14 18  2  0  0  0  0
 16 20  1  0  0  0  0
 17 18  1  0  0  0  0
 20 21  1  0  0  0  0
 21 22  1  0  0  0  0
 23 25  1  0  0  0  0
 24 26  1  0  0  0  0
M  END
> <PUBCHEM_COMPOUND_ID_TYPE>
0

> <PUBCHEM_TOTAL_CHARGE>
0

> <PUBCHEM_SUBSTANCE_ID>
310945524

> <PUBCHEM_SUBSTANCE_VERSION>
1

> <PUBCHEM_EXT_DATASOURCE_NAME>
4488

> <PUBCHEM_EXT_DATASOURCE_REGID>
SCHEMBL16123622

> <PUBCHEM_SUBSTANCE_COMMENT>
InChI=1S/C20H24FN3O2/c1-14-20-17(13-19(21)22-14)16-5-4-15(25)12-18(16)24(20)7-3-2-6-23-8-10-26-11-9-23/h4-5,12-13,25H,2-3,6-11H2,1H3
InChIKey=DQSULUWCRJKACY-UHFFFAOYSA-N

> <PUBCHEM_SUBSTANCE_SYNONYM>
SCHEMBL16123622

> <PUBCHEM_XREF_EXT_ID>
SCHEMBL16123622

> <PUBCHEM_EXT_DATASOURCE_URL>
https://www.surechembl.org/

> <PUBCHEM_EXT_SUBSTANCE_URL>
https://www.surechembl.org/chemical/SCHEMBL16123622

> <PUBCHEM_CID_ASSOCIATIONS>
117611565  1

> <PUBCHEM_COORDINATE_TYPE>
1
3

$$$$
