310946881
  -OEChem-07211613022D

 36 40  0     1  0  0  0  0  0999 V2000
    3.6146   -0.4636    0.0000 S   0  0  0  0  0  0  0  0  0  0  0  0
   -2.7503    1.0923    0.0000 F   0  0  0  0  0  0  0  0  0  0  0  0
   -1.6973    3.0096    0.0000 O   0  0  0  0  0  0  0  0  0  0  0  0
   -3.1117   -1.7366    0.0000 O   0  0  0  0  0  0  0  0  0  0  0  0
    2.1216   -3.0096    0.0000 O   0  0  0  0  0  0  0  0  0  0  0  0
   -1.6030    0.6051    0.0000 N   0  0  0  0  0  0  0  0  0  0  0  0
   -1.1158   -0.0707    0.0000 N   0  0  0  0  0  0  0  0  0  0  0  0
   -1.3515   -1.5323    0.0000 N   0  0  0  0  0  0  0  0  0  0  0  0
   -3.8347   -0.4793    0.0000 N   0  0  0  0  0  0  0  0  0  0  0  0
    2.4517   -1.6423    0.0000 N   0  0  0  0  0  0  0  0  0  0  0  0
    0.8015    1.0923    0.0000 N   0  0  0  0  0  0  0  0  0  0  0  0
   -1.3515    1.4066    0.0000 C   0  0  3  0  0  0  0  0  0  0  0  0
   -2.3888    0.3536    0.0000 C   0  0  0  0  0  0  0  0  0  0  0  0
   -2.4045   -0.4793    0.0000 C   0  0  0  0  0  0  0  0  0  0  0  0
   -1.6187   -0.7308    0.0000 C   0  0  0  0  0  0  0  0  0  0  0  0
   -2.1531    1.6580    0.0000 C   0  0  3  0  0  0  0  0  0  0  0  0
   -3.1117   -0.8722    0.0000 C   0  0  0  0  0  0  0  0  0  0  0  0
   -0.7386    1.9409    0.0000 C   0  0  0  0  0  0  0  0  0  0  0  0
   -0.8172    0.7622    0.0000 C   0  0  0  0  0  0  0  0  0  0  0  0
   -3.1275    0.7622    0.0000 C   0  0  0  0  0  0  0  0  0  0  0  0
   -2.3102    2.4595    0.0000 C   0  0  0  0  0  0  0  0  0  0  0  0
   -3.8189    0.3536    0.0000 C   0  0  0  0  0  0  0  0  0  0  0  0
   -0.5500   -1.6895    0.0000 C   0  0  0  0  0  0  0  0  0  0  0  0
   -0.9115    2.7581    0.0000 C   0  0  0  0  0  0  0  0  0  0  0  0
    0.0000    0.9508    0.0000 C   0  0  0  0  0  0  0  0  0  0  0  0
    0.0158   -1.0923    0.0000 C   0  0  0  0  0  0  0  0  0  0  0  0
    1.0530   -2.0352    0.0000 C   0  0  0  0  0  0  0  0  0  0  0  0
    0.8172   -1.2651    0.0000 C   0  0  0  0  0  0  0  0  0  0  0  0
   -0.2829   -2.4752    0.0000 C   0  0  0  0  0  0  0  0  0  0  0  0
    0.5029   -2.6481    0.0000 C   0  0  0  0  0  0  0  0  0  0  0  0
    1.8545   -2.2081    0.0000 C   0  0  0  0  0  0  0  0  0  0  0  0
    1.3515   -0.6365    0.0000 C   0  0  0  0  0  0  0  0  0  0  0  0
    3.2375   -1.8466    0.0000 C   0  0  0  0  0  0  0  0  0  0  0  0
    2.2316   -0.8408    0.0000 C   0  0  0  0  0  0  0  0  0  0  0  0
    3.8347   -1.2651    0.0000 C   0  0  0  0  0  0  0  0  0  0  0  0
    2.8288   -0.2436    0.0000 C   0  0  0  0  0  0  0  0  0  0  0  0
  1 35  1  0  0  0  0
  1 36  1  0  0  0  0
 16  2  1  1  0  0  0
  3 21  1  0  0  0  0
  3 24  1  0  0  0  0
  4 17  2  0  0  0  0
  5 31  2  0  0  0  0
  6  7  1  0  0  0  0
  6 12  1  0  0  0  0
  6 13  1  0  0  0  0
  7 15  2  0  0  0  0
  8 15  1  0  0  0  0
  8 23  1  0  0  0  0
  9 17  1  0  0  0  0
  9 22  1  0  0  0  0
 10 31  1  0  0  0  0
 10 33  1  0  0  0  0
 10 34  1  0  0  0  0
 11 25  3  0  0  0  0
 12 16  1  0  0  0  0
 12 18  1  0  0  0  0
 12 19  1  6  0  0  0
 13 14  2  0  0  0  0
 13 20  1  0  0  0  0
 14 15  1  0  0  0  0
 14 17  1  0  0  0  0
 16 21  1  0  0  0  0
 18 24  1  0  0  0  0
 19 25  1  0  0  0  0
 20 22  2  0  0  0  0
 23 26  1  0  0  0  0
 23 29  2  0  0  0  0
 26 28  2  0  0  0  0
 27 28  1  0  0  0  0
 27 30  2  0  0  0  0
 27 31  1  0  0  0  0
 28 32  1  0  0  0  0
 29 30  1  0  0  0  0
 33 35  1  0  0  0  0
 34 36  1  0  0  0  0
M  END
> <PUBCHEM_COMPOUND_ID_TYPE>
0

> <PUBCHEM_TOTAL_CHARGE>
0

> <PUBCHEM_SUBSTANCE_ID>
310946881

> <PUBCHEM_SUBSTANCE_VERSION>
1

> <PUBCHEM_EXT_DATASOURCE_NAME>
4488

> <PUBCHEM_EXT_DATASOURCE_REGID>
SCHEMBL16125005

> <PUBCHEM_SUBSTANCE_COMMENT>
InChI=1S/C25H27FN6O3S/c1-16-14-17(2-3-18(16)24(34)31-9-12-36-13-10-31)29-22-21-19(4-8-28-23(21)33)32(30-22)25(5-7-27)6-11-35-15-20(25)26/h2-4,8,14,20H,5-6,9-13,15H2,1H3,(H,28,33)(H,29,30)/t20-,25+/m0/s1
InChIKey=ZEMKOQGKMADMOM-NBGIEHNGSA-N

> <PUBCHEM_SUBSTANCE_SYNONYM>
SCHEMBL16125005

> <PUBCHEM_XREF_EXT_ID>
SCHEMBL16125005

> <PUBCHEM_EXT_DATASOURCE_URL>
https://www.surechembl.org/

> <PUBCHEM_EXT_SUBSTANCE_URL>
https://www.surechembl.org/chemical/SCHEMBL16125005

> <PUBCHEM_CID_ASSOCIATIONS>
117612739  1

> <PUBCHEM_COORDINATE_TYPE>
1
3

> <PUBCHEM_BONDANNOTATIONS>
12  19  6
16  2  5

$$$$
