310946847
  -OEChem-07211613022D

 33 37  0     1  0  0  0  0  0999 V2000
    1.3292   -2.8604    0.0000 S   0  0  0  0  0  0  0  0  0  0  0  0
   -3.1969    1.8676    0.0000 O   0  0  0  0  0  0  0  0  0  0  0  0
   -0.2524   -1.1947    0.0000 O   0  0  0  0  0  0  0  0  0  0  0  0
    1.5312   -3.6680    0.0000 O   0  0  0  0  0  0  0  0  0  0  0  0
    0.5385   -3.0455    0.0000 O   0  0  0  0  0  0  0  0  0  0  0  0
   -1.2788    1.3797    0.0000 N   0  0  0  0  0  0  0  0  0  0  0  0
   -0.4375    1.3965    0.0000 N   0  0  0  0  0  0  0  0  0  0  0  0
    0.6057    0.3702    0.0000 N   0  0  0  0  0  0  0  0  0  0  0  0
   -1.6658   -1.0601    0.0000 N   0  0  0  0  0  0  0  0  0  0  0  0
    2.1537   -2.6753    0.0000 N   0  0  0  0  0  0  0  0  0  0  0  0
   -0.3029    3.6680    0.0000 N   0  0  0  0  0  0  0  0  0  0  0  0
   -1.5143    0.6057    0.0000 C   0  0  0  0  0  0  0  0  0  0  0  0
   -1.7835    2.0528    0.0000 C   0  0  3  0  0  0  0  0  0  0  0  0
   -0.8413    0.1346    0.0000 C   0  0  0  0  0  0  0  0  0  0  0  0
   -0.1851    0.6394    0.0000 C   0  0  0  0  0  0  0  0  0  0  0  0
   -0.9423   -0.6899    0.0000 C   0  0  0  0  0  0  0  0  0  0  0  0
   -2.2715    0.2524    0.0000 C   0  0  0  0  0  0  0  0  0  0  0  0
   -2.4229    1.5480    0.0000 C   0  0  0  0  0  0  0  0  0  0  0  0
   -1.8508    2.8604    0.0000 C   0  0  0  0  0  0  0  0  0  0  0  0
   -0.9255    2.1369    0.0000 C   0  0  0  0  0  0  0  0  0  0  0  0
    0.7908   -0.4207    0.0000 C   0  0  0  0  0  0  0  0  0  0  0  0
    1.1610   -2.0528    0.0000 C   0  0  0  0  0  0  0  0  0  0  0  0
   -2.3388   -0.5889    0.0000 C   0  0  0  0  0  0  0  0  0  0  0  0
   -2.6248    3.1969    0.0000 C   0  0  0  0  0  0  0  0  0  0  0  0
    0.2019   -0.9927    0.0000 C   0  0  0  0  0  0  0  0  0  0  0  0
    1.5816   -0.6899    0.0000 C   0  0  0  0  0  0  0  0  0  0  0  0
    0.3702   -1.8004    0.0000 C   0  0  0  0  0  0  0  0  0  0  0  0
    1.7499   -1.4975    0.0000 C   0  0  0  0  0  0  0  0  0  0  0  0
   -0.6057    2.8940    0.0000 C   0  0  0  0  0  0  0  0  0  0  0  0
   -3.2810    2.7090    0.0000 C   0  0  0  0  0  0  0  0  0  0  0  0
    2.8604   -3.1128    0.0000 C   0  0  0  0  0  0  0  0  0  0  0  0
    2.5912   -1.9686    0.0000 C   0  0  0  0  0  0  0  0  0  0  0  0
    3.2810   -2.4061    0.0000 C   0  0  0  0  0  0  0  0  0  0  0  0
  1  4  2  0  0  0  0
  1  5  2  0  0  0  0
  1 10  1  0  0  0  0
  1 22  1  0  0  0  0
  2 18  1  0  0  0  0
  2 30  1  0  0  0  0
  3 16  2  0  0  0  0
  6  7  1  0  0  0  0
  6 12  1  0  0  0  0
  6 13  1  0  0  0  0
  7 15  2  0  0  0  0
  8 15  1  0  0  0  0
  8 21  1  0  0  0  0
  9 16  1  0  0  0  0
  9 23  1  0  0  0  0
 10 31  1  0  0  0  0
 10 32  1  0  0  0  0
 11 29  3  0  0  0  0
 12 14  2  0  0  0  0
 12 17  1  0  0  0  0
 13 18  1  0  0  0  0
 13 19  1  0  0  0  0
 13 20  1  6  0  0  0
 14 15  1  0  0  0  0
 14 16  1  0  0  0  0
 17 23  2  0  0  0  0
 19 24  1  0  0  0  0
 20 29  1  0  0  0  0
 21 25  2  0  0  0  0
 21 26  1  0  0  0  0
 22 27  2  0  0  0  0
 22 28  1  0  0  0  0
 24 30  1  0  0  0  0
 25 27  1  0  0  0  0
 26 28  2  0  0  0  0
 31 33  1  0  0  0  0
 32 33  1  0  0  0  0
M  END
> <PUBCHEM_COMPOUND_ID_TYPE>
0

> <PUBCHEM_TOTAL_CHARGE>
0

> <PUBCHEM_SUBSTANCE_ID>
310946847

> <PUBCHEM_SUBSTANCE_VERSION>
1

> <PUBCHEM_EXT_DATASOURCE_NAME>
4488

> <PUBCHEM_EXT_DATASOURCE_REGID>
SCHEMBL16124971

> <PUBCHEM_SUBSTANCE_COMMENT>
InChI=1S/C22H24N6O4S/c23-10-9-22(8-1-14-32-15-22)28-18-7-11-24-21(29)19(18)20(26-28)25-16-3-5-17(6-4-16)33(30,31)27-12-2-13-27/h3-7,11H,1-2,8-9,12-15H2,(H,24,29)(H,25,26)/t22-/m0/s1
InChIKey=NOHDBSFZJDUJOB-QFIPXVFZSA-N

> <PUBCHEM_SUBSTANCE_SYNONYM>
SCHEMBL16124971

> <PUBCHEM_XREF_EXT_ID>
SCHEMBL16124971

> <PUBCHEM_EXT_DATASOURCE_URL>
https://www.surechembl.org/

> <PUBCHEM_EXT_SUBSTANCE_URL>
https://www.surechembl.org/chemical/SCHEMBL16124971

> <PUBCHEM_CID_ASSOCIATIONS>
117612706  1

> <PUBCHEM_COORDINATE_TYPE>
1
3

> <PUBCHEM_BONDANNOTATIONS>
13  20  6

$$$$
