310930800
  -OEChem-07211613022D

 36 40  0     1  0  0  0  0  0999 V2000
    6.3706   -5.8397    0.0000 F   0  0  0  0  0  0  0  0  0  0  0  0
    0.0000   -4.6218    0.0000 F   0  0  0  0  0  0  0  0  0  0  0  0
    0.7183   -5.8397    0.0000 F   0  0  0  0  0  0  0  0  0  0  0  0
    0.7183   -4.1846    0.0000 F   0  0  0  0  0  0  0  0  0  0  0  0
    4.9965   -5.8397    0.0000 O   0  0  0  0  0  0  0  0  0  0  0  0
    4.2783   -4.5905    0.0000 N   0  0  0  0  0  0  0  0  0  0  0  0
    4.9965   -3.3726    0.0000 N   0  0  0  0  0  0  0  0  0  0  0  0
    3.5600   -2.5607    0.0000 N   0  0  0  0  0  0  0  0  0  0  0  0
    2.1860   -2.5607    0.0000 N   0  0  0  0  0  0  0  0  0  0  0  0
    3.4663   -0.7495    0.0000 N   0  0  0  0  0  0  0  0  0  0  0  0
    1.4365   -1.3116    0.0000 N   0  0  0  0  0  0  0  0  0  0  0  0
    2.3421   -0.0937    0.0000 N   0  0  0  0  0  0  0  0  0  0  0  0
    4.2783   -3.7786    0.0000 C   0  0  0  0  0  0  0  0  0  0  0  0
    5.6835   -4.5905    0.0000 C   0  0  0  0  0  0  0  0  0  0  0  0
    4.9965   -4.9965    0.0000 C   0  0  0  0  0  0  0  0  0  0  0  0
    5.6835   -3.7786    0.0000 C   0  0  0  0  0  0  0  0  0  0  0  0
    3.5600   -4.9965    0.0000 C   0  0  0  0  0  0  0  0  0  0  0  0
    3.5600   -3.3726    0.0000 C   0  0  3  0  0  0  0  0  0  0  0  0
    6.3706   -4.9965    0.0000 C   0  0  0  0  0  0  0  0  0  0  0  0
    2.8730   -2.1548    0.0000 C   0  0  0  0  0  0  0  0  0  0  0  0
    6.3706   -3.3726    0.0000 C   0  0  0  0  0  0  0  0  0  0  0  0
    2.8730   -1.3116    0.0000 C   0  0  0  0  0  0  0  0  0  0  0  0
    3.0291   -4.7779    0.0000 C   0  0  0  0  0  0  0  0  0  0  0  0
    3.5600   -5.8397    0.0000 C   0  0  0  0  0  0  0  0  0  0  0  0
    7.0888   -4.5905    0.0000 C   0  0  0  0  0  0  0  0  0  0  0  0
    2.1235   -0.9056    0.0000 C   0  0  0  0  0  0  0  0  0  0  0  0
    2.1548   -5.0277    0.0000 C   0  0  0  0  0  0  0  0  0  0  0  0
    2.8418   -3.7786    0.0000 C   0  0  0  0  0  0  0  0  0  0  0  0
    7.0888   -3.7786    0.0000 C   0  0  0  0  0  0  0  0  0  0  0  0
    2.8730   -6.2456    0.0000 C   0  0  0  0  0  0  0  0  0  0  0  0
    2.1548   -5.8397    0.0000 C   0  0  0  0  0  0  0  0  0  0  0  0
    1.4365   -2.1235    0.0000 C   0  0  0  0  0  0  0  0  0  0  0  0
    1.4365   -4.6218    0.0000 C   0  0  0  0  0  0  0  0  0  0  0  0
    3.1228    0.0000    0.0000 C   0  0  0  0  0  0  0  0  0  0  0  0
    0.7183   -5.0277    0.0000 C   0  0  0  0  0  0  0  0  0  0  0  0
    2.8418   -4.5905    0.0000 C   0  0  0  0  0  0  0  0  0  0  0  0
  1 19  1  0  0  0  0
  2 35  1  0  0  0  0
  3 35  1  0  0  0  0
  4 35  1  0  0  0  0
  5 15  2  0  0  0  0
  6 13  1  0  0  0  0
  6 15  1  0  0  0  0
  6 17  1  0  0  0  0
  7 13  2  0  0  0  0
  7 16  1  0  0  0  0
 18  8  1  6  0  0  0
  8 20  1  0  0  0  0
  9 20  2  0  0  0  0
  9 32  1  0  0  0  0
 10 22  1  0  0  0  0
 10 34  2  0  0  0  0
 11 26  1  0  0  0  0
 11 32  2  0  0  0  0
 12 26  1  0  0  0  0
 12 34  1  0  0  0  0
 13 18  1  0  0  0  0
 14 15  1  0  0  0  0
 14 16  2  0  0  0  0
 14 19  1  0  0  0  0
 16 21  1  0  0  0  0
 17 23  1  0  0  0  0
 17 24  2  0  0  0  0
 18 28  1  0  0  0  0
 19 25  2  0  0  0  0
 20 22  1  0  0  0  0
 21 29  2  0  0  0  0
 22 26  2  0  0  0  0
 23 27  2  0  0  0  0
 24 30  1  0  0  0  0
 25 29  1  0  0  0  0
 27 31  1  0  0  0  0
 27 33  1  0  0  0  0
 28 36  1  0  0  0  0
 30 31  2  0  0  0  0
 33 35  1  0  0  0  0
M  END
> <PUBCHEM_COMPOUND_ID_TYPE>
0

> <PUBCHEM_TOTAL_CHARGE>
0

> <PUBCHEM_SUBSTANCE_ID>
310930800

> <PUBCHEM_SUBSTANCE_VERSION>
1

> <PUBCHEM_EXT_DATASOURCE_NAME>
4488

> <PUBCHEM_EXT_DATASOURCE_REGID>
SCHEMBL16108097

> <PUBCHEM_SUBSTANCE_COMMENT>
InChI=1S/C24H19F4N7O/c1-2-16(33-21-19-20(30-11-29-19)31-12-32-21)22-34-17-8-4-7-15(25)18(17)23(36)35(22)14-6-3-5-13(9-14)10-24(26,27)28/h3-9,11-12,16H,2,10H2,1H3,(H2,29,30,31,32,33)/t16-/m0/s1
InChIKey=JSFCONAGIRFNEB-INIZCTEOSA-N

> <PUBCHEM_SUBSTANCE_SYNONYM>
SCHEMBL16108097

> <PUBCHEM_XREF_EXT_ID>
SCHEMBL16108097

> <PUBCHEM_EXT_DATASOURCE_URL>
https://www.surechembl.org/

> <PUBCHEM_EXT_SUBSTANCE_URL>
https://www.surechembl.org/chemical/SCHEMBL16108097

> <PUBCHEM_CID_ASSOCIATIONS>
86273089  1

> <PUBCHEM_COORDINATE_TYPE>
1
3

> <PUBCHEM_BONDANNOTATIONS>
18  8  6

$$$$
