310947333
  -OEChem-07211613022D

 26 28  0     0  0  0  0  0  0999 V2000
   -1.4565    2.1691    0.0000 O   0  0  0  0  0  0  0  0  0  0  0  0
   -4.3144    1.3441    0.0000 O   0  0  0  0  0  0  0  0  0  0  0  0
    1.4715   -0.1483    0.0000 N   0  0  0  0  0  0  0  0  0  0  0  0
    1.9564    0.5191    0.0000 N   0  0  0  0  0  0  0  0  0  0  0  0
   -2.1710    0.9316    0.0000 N   0  0  0  0  0  0  0  0  0  0  0  0
    5.0289    0.3778    0.0000 N   0  0  0  0  0  0  0  0  0  0  0  0
    0.6869    0.1066    0.0000 C   0  0  0  0  0  0  0  0  0  0  0  0
    0.6869    0.9316    0.0000 C   0  0  0  0  0  0  0  0  0  0  0  0
    1.4715    1.1866    0.0000 C   0  0  0  0  0  0  0  0  0  0  0  0
   -0.0276    1.3441    0.0000 C   0  0  0  0  0  0  0  0  0  0  0  0
   -0.7421    0.9316    0.0000 C   0  0  0  0  0  0  0  0  0  0  0  0
   -0.0276   -0.3059    0.0000 C   0  0  0  0  0  0  0  0  0  0  0  0
    1.6850   -0.9452    0.0000 C   0  0  0  0  0  0  0  0  0  0  0  0
   -0.7421    0.1066    0.0000 C   0  0  0  0  0  0  0  0  0  0  0  0
   -1.4565    1.3441    0.0000 C   0  0  0  0  0  0  0  0  0  0  0  0
    2.4819   -1.1587    0.0000 C   0  0  0  0  0  0  0  0  0  0  0  0
    1.8840    1.9010    0.0000 C   0  0  0  0  0  0  0  0  0  0  0  0
    3.0653   -0.5754    0.0000 C   0  0  0  0  0  0  0  0  0  0  0  0
    2.6954   -1.9556    0.0000 C   0  0  0  0  0  0  0  0  0  0  0  0
    3.8622   -0.7889    0.0000 C   0  0  0  0  0  0  0  0  0  0  0  0
    3.4923   -2.1691    0.0000 C   0  0  0  0  0  0  0  0  0  0  0  0
    4.0757   -1.5858    0.0000 C   0  0  0  0  0  0  0  0  0  0  0  0
   -2.8855    1.3441    0.0000 C   0  0  0  0  0  0  0  0  0  0  0  0
    4.4455   -0.2055    0.0000 C   0  0  0  0  0  0  0  0  0  0  0  0
   -3.5999    0.9316    0.0000 C   0  0  0  0  0  0  0  0  0  0  0  0
   -5.0289    0.9316    0.0000 C   0  0  0  0  0  0  0  0  0  0  0  0
  1 15  2  0  0  0  0
  2 25  1  0  0  0  0
  2 26  1  0  0  0  0
  3  4  1  0  0  0  0
  3  7  1  0  0  0  0
  3 13  1  0  0  0  0
  4  9  2  0  0  0  0
  5 15  1  0  0  0  0
  5 23  1  0  0  0  0
  6 24  3  0  0  0  0
  7  8  1  0  0  0  0
  7 12  2  0  0  0  0
  8  9  1  0  0  0  0
  8 10  2  0  0  0  0
  9 17  1  0  0  0  0
 10 11  1  0  0  0  0
 11 14  2  0  0  0  0
 11 15  1  0  0  0  0
 12 14  1  0  0  0  0
 13 16  1  0  0  0  0
 16 18  1  0  0  0  0
 16 19  2  0  0  0  0
 18 20  2  0  0  0  0
 19 21  1  0  0  0  0
 20 22  1  0  0  0  0
 20 24  1  0  0  0  0
 21 22  2  0  0  0  0
 23 25  1  0  0  0  0
M  END
> <PUBCHEM_COMPOUND_ID_TYPE>
0

> <PUBCHEM_TOTAL_CHARGE>
0

> <PUBCHEM_SUBSTANCE_ID>
310947333

> <PUBCHEM_SUBSTANCE_VERSION>
1

> <PUBCHEM_EXT_DATASOURCE_NAME>
4488

> <PUBCHEM_EXT_DATASOURCE_REGID>
SCHEMBL16125488

> <PUBCHEM_SUBSTANCE_COMMENT>
InChI=1S/C20H20N4O2/c1-14-18-11-17(20(25)22-8-9-26-2)6-7-19(18)24(23-14)13-16-5-3-4-15(10-16)12-21/h3-7,10-11H,8-9,13H2,1-2H3,(H,22,25)
InChIKey=HAGGFGVAMIVCDU-UHFFFAOYSA-N

> <PUBCHEM_SUBSTANCE_SYNONYM>
SCHEMBL16125488

> <PUBCHEM_XREF_EXT_ID>
SCHEMBL16125488

> <PUBCHEM_EXT_DATASOURCE_URL>
https://www.surechembl.org/

> <PUBCHEM_EXT_SUBSTANCE_URL>
https://www.surechembl.org/chemical/SCHEMBL16125488

> <PUBCHEM_CID_ASSOCIATIONS>
117613085  1

> <PUBCHEM_COORDINATE_TYPE>
1
3

$$$$
