310943025
  -OEChem-07211613022D

 32 36  0     1  0  0  0  0  0999 V2000
    2.4558   -1.7592    0.0000 S   0  0  0  0  0  0  0  0  0  0  0  0
    2.7171   -0.9754    0.0000 O   0  0  0  0  0  0  0  0  0  0  0  0
    3.2223   -2.0378    0.0000 O   0  0  0  0  0  0  0  0  0  0  0  0
   -2.5255   -1.1321    0.0000 O   0  0  0  0  0  0  0  0  0  0  0  0
   -1.0102    3.3790    0.0000 O   0  0  0  0  0  0  0  0  0  0  0  0
    2.3862   -2.5952    0.0000 N   0  0  3  0  0  0  0  0  0  0  0  0
   -0.9754    1.1844    0.0000 N   0  0  0  0  0  0  0  0  0  0  0  0
   -0.4877    0.5051    0.0000 N   0  0  0  0  0  0  0  0  0  0  0  0
   -0.7489   -0.9406    0.0000 N   0  0  0  0  0  0  0  0  0  0  0  0
   -3.2223    0.1220    0.0000 N   0  0  0  0  0  0  0  0  0  0  0  0
    1.2192    0.9231    0.0000 N   0  0  0  0  0  0  0  0  0  0  0  0
    1.6721   -1.4457    0.0000 C   0  0  0  0  0  0  0  0  0  0  0  0
    1.1321   -2.0727    0.0000 C   0  0  0  0  0  0  0  0  0  0  0  0
   -1.8114    0.1220    0.0000 C   0  0  0  0  0  0  0  0  0  0  0  0
    1.5675   -2.7694    0.0000 C   0  0  3  0  0  0  0  0  0  0  0  0
   -1.7766    0.9406    0.0000 C   0  0  0  0  0  0  0  0  0  0  0  0
   -1.0102   -0.1568    0.0000 C   0  0  0  0  0  0  0  0  0  0  0  0
    0.0523   -1.1321    0.0000 C   0  0  0  0  0  0  0  0  0  0  0  0
    0.3309   -1.8985    0.0000 C   0  0  0  0  0  0  0  0  0  0  0  0
   -0.7141    2.0030    0.0000 C   0  0  3  0  0  0  0  0  0  0  0  0
    1.3934   -0.6619    0.0000 C   0  0  0  0  0  0  0  0  0  0  0  0
   -2.5255   -0.2612    0.0000 C   0  0  0  0  0  0  0  0  0  0  0  0
    0.5922   -0.5051    0.0000 C   0  0  0  0  0  0  0  0  0  0  0  0
   -2.5081    1.3586    0.0000 C   0  0  0  0  0  0  0  0  0  0  0  0
    0.0871    2.1249    0.0000 C   0  0  3  0  0  0  0  0  0  0  0  0
    2.9261   -3.2049    0.0000 C   0  0  0  0  0  0  0  0  0  0  0  0
    0.8535   -3.5358    0.0000 C   0  0  0  0  0  0  0  0  0  0  0  0
   -3.2048    0.9580    0.0000 C   0  0  0  0  0  0  0  0  0  0  0  0
   -1.2715    2.5952    0.0000 C   0  0  0  0  0  0  0  0  0  0  0  0
    0.3483    2.9261    0.0000 C   0  0  0  0  0  0  0  0  0  0  0  0
    0.6619    1.5153    0.0000 C   0  0  0  0  0  0  0  0  0  0  0  0
   -0.1742    3.5358    0.0000 C   0  0  0  0  0  0  0  0  0  0  0  0
  1  2  2  0  0  0  0
  1  3  2  0  0  0  0
  1  6  1  0  0  0  0
  1 12  1  0  0  0  0
  4 22  2  0  0  0  0
  5 29  1  0  0  0  0
  5 32  1  0  0  0  0
  6 15  1  0  0  0  0
  6 26  1  0  0  0  0
  7  8  1  0  0  0  0
  7 16  1  0  0  0  0
 20  7  1  1  0  0  0
  8 17  2  0  0  0  0
  9 17  1  0  0  0  0
  9 18  1  0  0  0  0
 10 22  1  0  0  0  0
 10 28  1  0  0  0  0
 11 31  3  0  0  0  0
 12 13  2  0  0  0  0
 12 21  1  0  0  0  0
 13 15  1  0  0  0  0
 13 19  1  0  0  0  0
 14 16  2  0  0  0  0
 14 17  1  0  0  0  0
 14 22  1  0  0  0  0
 15 27  1  0  0  0  0
 16 24  1  0  0  0  0
 18 19  2  0  0  0  0
 18 23  1  0  0  0  0
 20 25  1  0  0  0  0
 20 29  1  0  0  0  0
 21 23  2  0  0  0  0
 24 28  2  0  0  0  0
 25 30  1  0  0  0  0
 25 31  1  6  0  0  0
 30 32  1  0  0  0  0
M  END
> <PUBCHEM_COMPOUND_ID_TYPE>
0

> <PUBCHEM_TOTAL_CHARGE>
0

> <PUBCHEM_SUBSTANCE_ID>
310943025

> <PUBCHEM_SUBSTANCE_VERSION>
1

> <PUBCHEM_EXT_DATASOURCE_NAME>
4488

> <PUBCHEM_EXT_DATASOURCE_REGID>
SCHEMBL16121084

> <PUBCHEM_SUBSTANCE_COMMENT>
InChI=1S/C21H22N6O4S/c1-12-15-9-14(3-4-18(15)32(29,30)26(12)2)24-20-19-16(5-7-23-21(19)28)27(25-20)17-11-31-8-6-13(17)10-22/h3-5,7,9,12-13,17H,6,8,11H2,1-2H3,(H,23,28)(H,24,25)/t12?,13-,17+/m1/s1
InChIKey=SSBUARYNOTXJKO-SHSDOYLRSA-N

> <PUBCHEM_SUBSTANCE_SYNONYM>
SCHEMBL16121084

> <PUBCHEM_XREF_EXT_ID>
SCHEMBL16121084

> <PUBCHEM_EXT_DATASOURCE_URL>
https://www.surechembl.org/

> <PUBCHEM_EXT_SUBSTANCE_URL>
https://www.surechembl.org/chemical/SCHEMBL16121084

> <PUBCHEM_CID_ASSOCIATIONS>
117609470  1

> <PUBCHEM_COORDINATE_TYPE>
1
3

> <PUBCHEM_BONDANNOTATIONS>
25  31  6
20  7  5

$$$$
