310931496
  -OEChem-07211613022D

 30 33  0     0  0  0  0  0  0999 V2000
    0.9119   -3.4889    0.0000 O   0  0  0  0  0  0  0  0  0  0  0  0
    0.0000   -7.1761    0.0000 O   0  0  0  0  0  0  0  0  0  0  0  0
    3.4096   -7.4536    0.0000 O   0  0  0  0  0  0  0  0  0  0  0  0
    2.3392   -3.2510    0.0000 N   0  0  0  0  0  0  0  0  0  0  0  0
    2.7753   -4.5198    0.0000 N   0  0  0  0  0  0  0  0  0  0  0  0
    3.8061   -3.4889    0.0000 N   0  0  0  0  0  0  0  0  0  0  0  0
    2.3392   -0.8326    0.0000 N   0  0  0  0  0  0  0  0  0  0  0  0
    1.9427   -4.5198    0.0000 C   0  0  0  0  0  0  0  0  0  0  0  0
    1.7048   -3.7268    0.0000 C   0  0  0  0  0  0  0  0  0  0  0  0
    1.4669   -5.1937    0.0000 C   0  0  0  0  0  0  0  0  0  0  0  0
    2.2995   -5.2731    0.0000 C   0  0  0  0  0  0  0  0  0  0  0  0
    3.0132   -3.7268    0.0000 C   0  0  0  0  0  0  0  0  0  0  0  0
    2.3392   -2.4581    0.0000 C   0  0  0  0  0  0  0  0  0  0  0  0
    1.7841   -5.9470    0.0000 C   0  0  0  0  0  0  0  0  0  0  0  0
    3.1321   -5.3127    0.0000 C   0  0  0  0  0  0  0  0  0  0  0  0
    0.6343   -5.1144    0.0000 C   0  0  0  0  0  0  0  0  0  0  0  0
    2.0220   -6.1056    0.0000 C   0  0  0  0  0  0  0  0  0  0  0  0
    3.0925   -2.0220    0.0000 C   0  0  0  0  0  0  0  0  0  0  0  0
    1.6651   -2.0220    0.0000 C   0  0  0  0  0  0  0  0  0  0  0  0
    1.3083   -6.6210    0.0000 C   0  0  0  0  0  0  0  0  0  0  0  0
    3.5285   -6.0263    0.0000 C   0  0  0  0  0  0  0  0  0  0  0  0
    0.1586   -5.7884    0.0000 C   0  0  0  0  0  0  0  0  0  0  0  0
    2.2599   -6.6607    0.0000 C   0  0  0  0  0  0  0  0  0  0  0  0
    0.5154   -6.5021    0.0000 C   0  0  0  0  0  0  0  0  0  0  0  0
    3.0528   -6.7400    0.0000 C   0  0  0  0  0  0  0  0  0  0  0  0
    3.0925   -1.2291    0.0000 C   0  0  0  0  0  0  0  0  0  0  0  0
    1.6651   -1.2291    0.0000 C   0  0  0  0  0  0  0  0  0  0  0  0
    2.3392    0.0000    0.0000 C   0  0  0  0  0  0  0  0  0  0  0  0
    0.3568   -7.9293    0.0000 C   0  0  0  0  0  0  0  0  0  0  0  0
    4.2422   -7.4933    0.0000 C   0  0  0  0  0  0  0  0  0  0  0  0
  1  9  2  0  0  0  0
  2 24  1  0  0  0  0
  2 29  1  0  0  0  0
  3 25  1  0  0  0  0
  3 30  1  0  0  0  0
  4  9  1  0  0  0  0
  4 12  1  0  0  0  0
  4 13  1  0  0  0  0
  5  8  1  0  0  0  0
  5 12  1  0  0  0  0
  6 12  2  3  0  0  0
  7 26  1  0  0  0  0
  7 27  1  0  0  0  0
  7 28  1  0  0  0  0
  8  9  1  0  0  0  0
  8 10  1  0  0  0  0
  8 11  1  0  0  0  0
 10 14  2  0  0  0  0
 10 16  1  0  0  0  0
 11 15  2  0  0  0  0
 11 17  1  0  0  0  0
 13 18  1  0  0  0  0
 13 19  1  0  0  0  0
 14 20  1  0  0  0  0
 15 21  1  0  0  0  0
 16 22  2  0  0  0  0
 17 23  2  0  0  0  0
 18 26  1  0  0  0  0
 19 27  1  0  0  0  0
 20 24  2  0  0  0  0
 21 25  2  0  0  0  0
 22 24  1  0  0  0  0
 23 25  1  0  0  0  0
M  END
> <PUBCHEM_COMPOUND_ID_TYPE>
0

> <PUBCHEM_TOTAL_CHARGE>
0

> <PUBCHEM_SUBSTANCE_ID>
310931496

> <PUBCHEM_SUBSTANCE_VERSION>
1

> <PUBCHEM_EXT_DATASOURCE_NAME>
4488

> <PUBCHEM_EXT_DATASOURCE_REGID>
SCHEMBL16108821

> <PUBCHEM_SUBSTANCE_COMMENT>
InChI=1S/C23H28N4O3/c1-26-14-12-18(13-15-26)27-21(28)23(25-22(27)24,16-4-8-19(29-2)9-5-16)17-6-10-20(30-3)11-7-17/h4-11,18H,12-15H2,1-3H3,(H2,24,25)
InChIKey=NEZMJXSOLFCLPF-UHFFFAOYSA-N

> <PUBCHEM_SUBSTANCE_SYNONYM>
SCHEMBL16108821

> <PUBCHEM_XREF_EXT_ID>
SCHEMBL16108821

> <PUBCHEM_EXT_DATASOURCE_URL>
https://www.surechembl.org/

> <PUBCHEM_EXT_SUBSTANCE_URL>
https://www.surechembl.org/chemical/SCHEMBL16108821

> <PUBCHEM_CID_ASSOCIATIONS>
76335709  1

> <PUBCHEM_COORDINATE_TYPE>
1
3

$$$$
