310945953
  -OEChem-07211613022D

 39 41  0     1  0  0  0  0  0999 V2000
    4.7794    0.6848    0.0000 O   0  0  0  0  0  0  0  0  0  0  0  0
    3.6335   -1.2857    0.0000 O   0  0  0  0  0  0  0  0  0  0  0  0
    1.4674    0.7965    0.0000 O   0  0  0  0  0  0  0  0  0  0  0  0
   -0.6988   -1.2857    0.0000 O   0  0  0  0  0  0  0  0  0  0  0  0
    3.6335   -2.9627    0.0000 O   0  0  0  0  0  0  0  0  0  0  0  0
   -2.8788    0.7965    0.0000 O   0  0  0  0  0  0  0  0  0  0  0  0
    2.1801   -0.4472    0.0000 N   0  0  0  0  0  0  0  0  0  0  0  0
    0.0140   -0.0280    0.0000 N   0  0  0  0  0  0  0  0  0  0  0  0
   -2.1661   -0.4472    0.0000 N   0  0  0  0  0  0  0  0  0  0  0  0
   -4.3323   -0.0280    0.0000 N   0  0  0  0  0  0  0  0  0  0  0  0
    4.3462    0.0000    0.0000 C   0  0  3  0  0  0  0  0  0  0  0  0
    3.6195   -0.4332    0.0000 C   0  0  0  0  0  0  0  0  0  0  0  0
    3.9549    0.6988    0.0000 C   0  0  0  0  0  0  0  0  0  0  0  0
    2.8928   -0.0280    0.0000 C   0  0  3  0  0  0  0  0  0  0  0  0
    5.0450   -0.4332    0.0000 C   0  0  0  0  0  0  0  0  0  0  0  0
    2.9068    1.3137    0.0000 C   0  0  0  0  0  0  0  0  0  0  0  0
    1.4394   -0.0559    0.0000 C   0  0  0  0  0  0  0  0  0  0  0  0
    0.7407   -0.4472    0.0000 C   0  0  3  0  0  0  0  0  0  0  0  0
    2.1662    1.7329    0.0000 C   0  0  0  0  0  0  0  0  0  0  0  0
    0.7267   -1.2997    0.0000 C   0  0  0  0  0  0  0  0  0  0  0  0
    1.4674   -1.7049    0.0000 C   0  0  0  0  0  0  0  0  0  0  0  0
   -0.7128   -0.4193    0.0000 C   0  0  0  0  0  0  0  0  0  0  0  0
    1.4674    1.3137    0.0000 C   0  0  0  0  0  0  0  0  0  0  0  0
    2.1801    2.5435    0.0000 C   0  0  0  0  0  0  0  0  0  0  0  0
   -1.4534   -0.0280    0.0000 C   0  0  3  0  0  0  0  0  0  0  0  0
    2.1801   -1.2997    0.0000 C   0  0  0  0  0  0  0  0  0  0  0  0
    1.4674   -2.5155    0.0000 C   0  0  0  0  0  0  0  0  0  0  0  0
    0.7407    1.7329    0.0000 C   0  0  0  0  0  0  0  0  0  0  0  0
    1.4394    2.9627    0.0000 C   0  0  0  0  0  0  0  0  0  0  0  0
    2.8928   -2.5295    0.0000 C   0  0  0  0  0  0  0  0  0  0  0  0
    2.8928   -1.7049    0.0000 C   0  0  0  0  0  0  0  0  0  0  0  0
    2.1941   -2.9487    0.0000 C   0  0  0  0  0  0  0  0  0  0  0  0
    0.7407    2.5574    0.0000 C   0  0  0  0  0  0  0  0  0  0  0  0
   -2.8928   -0.0419    0.0000 C   0  0  0  0  0  0  0  0  0  0  0  0
   -1.4254    0.7965    0.0000 C   0  0  0  0  0  0  0  0  0  0  0  0
   -3.5916   -0.4472    0.0000 C   0  0  0  0  0  0  0  0  0  0  0  0
    4.3462   -2.5295    0.0000 C   0  0  0  0  0  0  0  0  0  0  0  0
   -4.3183    0.8245    0.0000 C   0  0  0  0  0  0  0  0  0  0  0  0
   -5.0450   -0.4751    0.0000 C   0  0  0  0  0  0  0  0  0  0  0  0
  1 11  1  0  0  0  0
  1 13  1  0  0  0  0
  2 12  2  0  0  0  0
  3 17  2  0  0  0  0
  4 22  2  0  0  0  0
  5 30  1  0  0  0  0
  5 37  1  0  0  0  0
  6 34  2  0  0  0  0
 14  7  1  1  0  0  0
  7 17  1  0  0  0  0
 18  8  1  6  0  0  0
  8 22  1  0  0  0  0
  9 25  1  0  0  0  0
  9 34  1  0  0  0  0
 10 36  1  0  0  0  0
 10 38  1  0  0  0  0
 10 39  1  0  0  0  0
 11 12  1  1  0  0  0
 11 13  1  0  0  0  0
 11 15  1  6  0  0  0
 12 14  1  0  0  0  0
 14 16  1  0  0  0  0
 16 19  1  0  0  0  0
 17 18  1  0  0  0  0
 18 20  1  0  0  0  0
 19 23  2  0  0  0  0
 19 24  1  0  0  0  0
 20 21  1  0  0  0  0
 21 26  2  0  0  0  0
 21 27  1  0  0  0  0
 22 25  1  0  0  0  0
 23 28  1  0  0  0  0
 24 29  2  0  0  0  0
 25 35  1  1  0  0  0
 26 31  1  0  0  0  0
 27 32  2  0  0  0  0
 28 33  2  0  0  0  0
 29 33  1  0  0  0  0
 30 31  2  0  0  0  0
 30 32  1  0  0  0  0
 34 36  1  0  0  0  0
M  END
> <PUBCHEM_COMPOUND_ID_TYPE>
0

> <PUBCHEM_TOTAL_CHARGE>
0

> <PUBCHEM_SUBSTANCE_ID>
310945953

> <PUBCHEM_SUBSTANCE_VERSION>
1

> <PUBCHEM_EXT_DATASOURCE_NAME>
4488

> <PUBCHEM_EXT_DATASOURCE_REGID>
SCHEMBL16124058

> <PUBCHEM_SUBSTANCE_COMMENT>
InChI=1S/C29H38N4O6/c1-19(30-25(34)17-33(3)4)27(36)32-24(16-21-11-13-22(38-5)14-12-21)28(37)31-23(26(35)29(2)18-39-29)15-20-9-7-6-8-10-20/h6-14,19,23-24H,15-18H2,1-5H3,(H,30,34)(H,31,37)(H,32,36)/t19-,23-,24-,29+/m0/s1
InChIKey=YYSLPJJOGXVENL-BWHDGOAMSA-N

> <PUBCHEM_SUBSTANCE_SYNONYM>
SCHEMBL16124058

> <PUBCHEM_XREF_EXT_ID>
SCHEMBL16124058

> <PUBCHEM_EXT_DATASOURCE_URL>
https://www.surechembl.org/

> <PUBCHEM_EXT_SUBSTANCE_URL>
https://www.surechembl.org/chemical/SCHEMBL16124058

> <PUBCHEM_CID_ASSOCIATIONS>
117611934  1

> <PUBCHEM_COORDINATE_TYPE>
1
3

> <PUBCHEM_BONDANNOTATIONS>
11  12  5
11  15  6
25  35  5
14  7  5
18  8  6

$$$$
