310947324
  -OEChem-07211613022D

 29 31  0     0  0  0  0  0  0999 V2000
    4.5523   -1.5858    0.0000 S   0  0  0  0  0  0  0  0  0  0  0  0
    0.7814   -1.3150    0.0000 O   0  0  0  0  0  0  0  0  0  0  0  0
   -1.7768    2.3827    0.0000 O   0  0  0  0  0  0  0  0  0  0  0  0
    4.7658   -0.7889    0.0000 O   0  0  0  0  0  0  0  0  0  0  0  0
    4.3388   -2.3827    0.0000 O   0  0  0  0  0  0  0  0  0  0  0  0
   -4.6347    1.5577    0.0000 O   0  0  0  0  0  0  0  0  0  0  0  0
    1.1512    0.0652    0.0000 N   0  0  0  0  0  0  0  0  0  0  0  0
    1.6361    0.7327    0.0000 N   0  0  0  0  0  0  0  0  0  0  0  0
   -2.4913    1.1452    0.0000 N   0  0  0  0  0  0  0  0  0  0  0  0
    0.3666    0.3202    0.0000 C   0  0  0  0  0  0  0  0  0  0  0  0
    0.3666    1.1452    0.0000 C   0  0  0  0  0  0  0  0  0  0  0  0
    1.1512    1.4001    0.0000 C   0  0  0  0  0  0  0  0  0  0  0  0
    1.3647   -0.7317    0.0000 C   0  0  0  0  0  0  0  0  0  0  0  0
   -0.3479    1.5577    0.0000 C   0  0  0  0  0  0  0  0  0  0  0  0
    2.1616   -0.9452    0.0000 C   0  0  0  0  0  0  0  0  0  0  0  0
   -0.3479   -0.0923    0.0000 C   0  0  0  0  0  0  0  0  0  0  0  0
   -1.0624    1.1452    0.0000 C   0  0  0  0  0  0  0  0  0  0  0  0
   -1.0624    0.3202    0.0000 C   0  0  0  0  0  0  0  0  0  0  0  0
    3.7554   -1.3722    0.0000 C   0  0  0  0  0  0  0  0  0  0  0  0
    2.3751   -1.7421    0.0000 C   0  0  0  0  0  0  0  0  0  0  0  0
    2.7450   -0.3618    0.0000 C   0  0  0  0  0  0  0  0  0  0  0  0
   -1.7768    1.5577    0.0000 C   0  0  0  0  0  0  0  0  0  0  0  0
    1.5637    2.1146    0.0000 C   0  0  0  0  0  0  0  0  0  0  0  0
    3.1720   -1.9556    0.0000 C   0  0  0  0  0  0  0  0  0  0  0  0
    3.5419   -0.5754    0.0000 C   0  0  0  0  0  0  0  0  0  0  0  0
    5.3492   -1.7993    0.0000 C   0  0  0  0  0  0  0  0  0  0  0  0
   -3.2058    1.5577    0.0000 C   0  0  0  0  0  0  0  0  0  0  0  0
   -3.9202    1.1452    0.0000 C   0  0  0  0  0  0  0  0  0  0  0  0
   -5.3492    1.1452    0.0000 C   0  0  0  0  0  0  0  0  0  0  0  0
  1  4  2  0  0  0  0
  1  5  2  0  0  0  0
  1 19  1  0  0  0  0
  1 26  1  0  0  0  0
  2 13  2  0  0  0  0
  3 22  2  0  0  0  0
  6 28  1  0  0  0  0
  6 29  1  0  0  0  0
  7  8  1  0  0  0  0
  7 10  1  0  0  0  0
  7 13  1  0  0  0  0
  8 12  2  0  0  0  0
  9 22  1  0  0  0  0
  9 27  1  0  0  0  0
 10 11  1  0  0  0  0
 10 16  2  0  0  0  0
 11 12  1  0  0  0  0
 11 14  2  0  0  0  0
 12 23  1  0  0  0  0
 13 15  1  0  0  0  0
 14 17  1  0  0  0  0
 15 20  2  0  0  0  0
 15 21  1  0  0  0  0
 16 18  1  0  0  0  0
 17 18  2  0  0  0  0
 17 22  1  0  0  0  0
 19 24  2  0  0  0  0
 19 25  1  0  0  0  0
 20 24  1  0  0  0  0
 21 25  2  0  0  0  0
 27 28  1  0  0  0  0
M  END
> <PUBCHEM_COMPOUND_ID_TYPE>
0

> <PUBCHEM_TOTAL_CHARGE>
0

> <PUBCHEM_SUBSTANCE_ID>
310947324

> <PUBCHEM_SUBSTANCE_VERSION>
1

> <PUBCHEM_EXT_DATASOURCE_NAME>
4488

> <PUBCHEM_EXT_DATASOURCE_REGID>
SCHEMBL16125479

> <PUBCHEM_SUBSTANCE_COMMENT>
InChI=1S/C20H21N3O5S/c1-13-17-12-15(19(24)21-10-11-28-2)6-9-18(17)23(22-13)20(25)14-4-7-16(8-5-14)29(3,26)27/h4-9,12H,10-11H2,1-3H3,(H,21,24)
InChIKey=KCKCGKDKVDOUJD-UHFFFAOYSA-N

> <PUBCHEM_SUBSTANCE_SYNONYM>
SCHEMBL16125479

> <PUBCHEM_XREF_EXT_ID>
SCHEMBL16125479

> <PUBCHEM_EXT_DATASOURCE_URL>
https://www.surechembl.org/

> <PUBCHEM_EXT_SUBSTANCE_URL>
https://www.surechembl.org/chemical/SCHEMBL16125479

> <PUBCHEM_CID_ASSOCIATIONS>
71577666  1

> <PUBCHEM_COORDINATE_TYPE>
1
3

$$$$
