310935107
  -OEChem-07211613022D

 32 36  0     0  0  0  0  0  0999 V2000
    2.8505   -6.4730    0.0000 O   0  0  0  0  0  0  0  0  0  0  0  0
    0.7126   -9.3829    0.0000 O   0  0  0  0  0  0  0  0  0  0  0  0
    0.0000   -3.2068    0.0000 O   0  0  0  0  0  0  0  0  0  0  0  0
    0.7126    0.0000    0.0000 O   0  0  0  0  0  0  0  0  0  0  0  0
    0.7126   -2.0191    0.0000 N   0  0  0  0  0  0  0  0  0  0  0  0
    2.8505   -5.6416    0.0000 C   0  0  0  0  0  0  0  0  0  0  0  0
    2.8505   -4.0382    0.0000 C   0  0  0  0  0  0  0  0  0  0  0  0
    3.3255   -4.8696    0.0000 C   0  0  0  0  0  0  0  0  0  0  0  0
    3.5631   -5.2259    0.0000 C   0  0  0  0  0  0  0  0  0  0  0  0
    2.1379   -5.2259    0.0000 C   0  0  0  0  0  0  0  0  0  0  0  0
    3.5631   -4.4539    0.0000 C   0  0  0  0  0  0  0  0  0  0  0  0
    2.1379   -4.4539    0.0000 C   0  0  0  0  0  0  0  0  0  0  0  0
    2.8505   -3.2068    0.0000 C   0  0  0  0  0  0  0  0  0  0  0  0
    2.1379   -6.8887    0.0000 C   0  0  0  0  0  0  0  0  0  0  0  0
    2.1379   -2.7911    0.0000 C   0  0  0  0  0  0  0  0  0  0  0  0
    2.1379   -7.7201    0.0000 C   0  0  0  0  0  0  0  0  0  0  0  0
    1.4252   -3.2068    0.0000 C   0  0  0  0  0  0  0  0  0  0  0  0
    0.7126   -2.7911    0.0000 C   0  0  0  0  0  0  0  0  0  0  0  0
    1.4252   -8.1358    0.0000 C   0  0  0  0  0  0  0  0  0  0  0  0
    0.7126   -0.8314    0.0000 C   0  0  0  0  0  0  0  0  0  0  0  0
    0.1188   -1.4252    0.0000 C   0  0  0  0  0  0  0  0  0  0  0  0
    1.3065   -1.4252    0.0000 C   0  0  0  0  0  0  0  0  0  0  0  0
    1.4252   -8.9672    0.0000 C   0  0  0  0  0  0  0  0  0  0  0  0
    2.8505   -8.1358    0.0000 C   0  0  0  0  0  0  0  0  0  0  0  0
    2.1379   -9.3829    0.0000 C   0  0  0  0  0  0  0  0  0  0  0  0
    2.8505   -8.9672    0.0000 C   0  0  0  0  0  0  0  0  0  0  0  0
    0.7126  -10.2143    0.0000 C   0  0  0  0  0  0  0  0  0  0  0  0
    0.0000  -10.6300    0.0000 C   0  0  0  0  0  0  0  0  0  0  0  0
    1.4252  -10.6300    0.0000 C   0  0  0  0  0  0  0  0  0  0  0  0
    0.0000  -11.4614    0.0000 C   0  0  0  0  0  0  0  0  0  0  0  0
    1.4252  -11.4614    0.0000 C   0  0  0  0  0  0  0  0  0  0  0  0
    0.7126  -11.8771    0.0000 C   0  0  0  0  0  0  0  0  0  0  0  0
  1  6  1  0  0  0  0
  1 14  1  0  0  0  0
  2 23  1  0  0  0  0
  2 27  1  0  0  0  0
  3 18  2  0  0  0  0
  4 20  1  0  0  0  0
  5 18  1  0  0  0  0
  5 21  1  0  0  0  0
  5 22  1  0  0  0  0
  6  8  1  0  0  0  0
  6  9  1  0  0  0  0
  6 10  1  0  0  0  0
  7  8  1  0  0  0  0
  7 11  1  0  0  0  0
  7 12  1  0  0  0  0
  7 13  1  0  0  0  0
  9 11  1  0  0  0  0
 10 12  1  0  0  0  0
 13 15  1  0  0  0  0
 14 16  1  0  0  0  0
 15 17  1  0  0  0  0
 16 19  2  0  0  0  0
 16 24  1  0  0  0  0
 17 18  1  0  0  0  0
 19 23  1  0  0  0  0
 20 21  1  0  0  0  0
 20 22  1  0  0  0  0
 23 25  2  0  0  0  0
 24 26  2  0  0  0  0
 25 26  1  0  0  0  0
 27 28  2  0  0  0  0
 27 29  1  0  0  0  0
 28 30  1  0  0  0  0
 29 31  2  0  0  0  0
 30 32  2  0  0  0  0
 31 32  1  0  0  0  0
M  END
> <PUBCHEM_COMPOUND_ID_TYPE>
0

> <PUBCHEM_TOTAL_CHARGE>
0

> <PUBCHEM_SUBSTANCE_ID>
310935107

> <PUBCHEM_SUBSTANCE_VERSION>
1

> <PUBCHEM_EXT_DATASOURCE_NAME>
4488

> <PUBCHEM_EXT_DATASOURCE_REGID>
SCHEMBL16112634

> <PUBCHEM_SUBSTANCE_COMMENT>
InChI=1S/C27H33NO4/c29-22-17-28(18-22)25(30)10-5-11-26-12-14-27(20-26,15-13-26)31-19-21-6-4-9-24(16-21)32-23-7-2-1-3-8-23/h1-4,6-9,16,22,29H,5,10-15,17-20H2
InChIKey=WBZBLQXMKYHSKL-UHFFFAOYSA-N

> <PUBCHEM_SUBSTANCE_SYNONYM>
SCHEMBL16112634

> <PUBCHEM_XREF_EXT_ID>
SCHEMBL16112634

> <PUBCHEM_EXT_DATASOURCE_URL>
https://www.surechembl.org/

> <PUBCHEM_EXT_SUBSTANCE_URL>
https://www.surechembl.org/chemical/SCHEMBL16112634

> <PUBCHEM_CID_ASSOCIATIONS>
86300225  1

> <PUBCHEM_COORDINATE_TYPE>
1
3

$$$$
