310929488
  -OEChem-07211613022D

 29 31  0     0  0  0  0  0  0999 V2000
    7.7553   -2.4421    0.0000 O   0  0  0  0  0  0  0  0  0  0  0  0
    0.0000   -5.2802    0.0000 O   0  0  0  0  0  0  0  0  0  0  0  0
    7.7883   -4.0592    0.0000 N   0  0  0  0  0  0  0  0  0  0  0  0
    8.4813   -3.6301    0.0000 C   0  0  0  0  0  0  0  0  0  0  0  0
    9.1743   -4.0262    0.0000 C   0  0  0  0  0  0  0  0  0  0  0  0
    8.4813   -2.8381    0.0000 C   0  0  0  0  0  0  0  0  0  0  0  0
    7.7553   -4.8842    0.0000 C   0  0  0  0  0  0  0  0  0  0  0  0
    9.1743   -4.8512    0.0000 C   0  0  0  0  0  0  0  0  0  0  0  0
    9.9004   -3.6301    0.0000 C   0  0  0  0  0  0  0  0  0  0  0  0
    9.1743   -2.4091    0.0000 C   0  0  0  0  0  0  0  0  0  0  0  0
    8.4813   -5.2802    0.0000 C   0  0  0  0  0  0  0  0  0  0  0  0
    9.9004   -2.8381    0.0000 C   0  0  0  0  0  0  0  0  0  0  0  0
    7.0623   -5.2802    0.0000 C   0  0  0  0  0  0  0  0  0  0  0  0
    7.7553   -1.6171    0.0000 C   0  0  0  0  0  0  0  0  0  0  0  0
    7.0292   -1.2211    0.0000 C   0  0  0  0  0  0  0  0  0  0  0  0
    6.3692   -4.8842    0.0000 C   0  0  0  0  0  0  0  0  0  0  0  0
    7.0292   -0.3960    0.0000 C   0  0  0  0  0  0  0  0  0  0  0  0
    6.3362   -1.6171    0.0000 C   0  0  0  0  0  0  0  0  0  0  0  0
    6.3032    0.0000    0.0000 C   0  0  0  0  0  0  0  0  0  0  0  0
    5.6102   -1.2211    0.0000 C   0  0  0  0  0  0  0  0  0  0  0  0
    5.6432   -5.2802    0.0000 C   0  0  0  0  0  0  0  0  0  0  0  0
    5.6102   -0.3960    0.0000 C   0  0  0  0  0  0  0  0  0  0  0  0
    4.9502   -4.8842    0.0000 C   0  0  0  0  0  0  0  0  0  0  0  0
    4.2242   -5.2802    0.0000 C   0  0  0  0  0  0  0  0  0  0  0  0
    3.5311   -4.8842    0.0000 C   0  0  0  0  0  0  0  0  0  0  0  0
    2.8051   -5.2802    0.0000 C   0  0  0  0  0  0  0  0  0  0  0  0
    2.1121   -4.8842    0.0000 C   0  0  0  0  0  0  0  0  0  0  0  0
    1.4191   -5.2802    0.0000 C   0  0  0  0  0  0  0  0  0  0  0  0
    0.6930   -4.8842    0.0000 C   0  0  0  0  0  0  0  0  0  0  0  0
  1  6  1  0  0  0  0
  1 14  1  0  0  0  0
  2 29  1  0  0  0  0
  3  4  2  0  0  0  0
  3  7  1  0  0  0  0
  4  5  1  0  0  0  0
  4  6  1  0  0  0  0
  5  8  2  0  0  0  0
  5  9  1  0  0  0  0
  6 10  2  0  0  0  0
  7 11  2  0  0  0  0
  7 13  1  0  0  0  0
  8 11  1  0  0  0  0
  9 12  2  0  0  0  0
 10 12  1  0  0  0  0
 13 16  1  0  0  0  0
 14 15  1  0  0  0  0
 15 17  2  0  0  0  0
 15 18  1  0  0  0  0
 16 21  1  0  0  0  0
 17 19  1  0  0  0  0
 18 20  2  0  0  0  0
 19 22  2  0  0  0  0
 20 22  1  0  0  0  0
 21 23  1  0  0  0  0
 23 24  1  0  0  0  0
 24 25  1  0  0  0  0
 25 26  1  0  0  0  0
 26 27  1  0  0  0  0
 27 28  1  0  0  0  0
 28 29  1  0  0  0  0
M  END
> <PUBCHEM_COMPOUND_ID_TYPE>
0

> <PUBCHEM_TOTAL_CHARGE>
0

> <PUBCHEM_SUBSTANCE_ID>
310929488

> <PUBCHEM_SUBSTANCE_VERSION>
1

> <PUBCHEM_EXT_DATASOURCE_NAME>
4488

> <PUBCHEM_EXT_DATASOURCE_REGID>
SCHEMBL16106664

> <PUBCHEM_SUBSTANCE_COMMENT>
InChI=1S/C26H33NO2/c28-20-11-6-4-2-1-3-5-10-16-24-19-18-23-15-12-17-25(26(23)27-24)29-21-22-13-8-7-9-14-22/h7-9,12-15,17-19,28H,1-6,10-11,16,20-21H2
InChIKey=IZXRCUJAVJTCGS-UHFFFAOYSA-N

> <PUBCHEM_SUBSTANCE_SYNONYM>
SCHEMBL16106664

> <PUBCHEM_XREF_EXT_ID>
SCHEMBL16106664

> <PUBCHEM_EXT_DATASOURCE_URL>
https://www.surechembl.org/

> <PUBCHEM_EXT_SUBSTANCE_URL>
https://www.surechembl.org/chemical/SCHEMBL16106664

> <PUBCHEM_CID_ASSOCIATIONS>
85473324  1

> <PUBCHEM_COORDINATE_TYPE>
1
3

$$$$
