310941848
  -OEChem-07211613022D

 19 18  0     0  0  0  0  0  0999 V2000
    2.0499    2.4472    0.0000 O   0  0  0  0  0  0  0  0  0  0  0  0
    2.0499    1.0668    0.0000 O   0  0  0  0  0  0  0  0  0  0  0  0
    0.7949   -1.0668    0.0000 N   0  0  0  0  0  0  0  0  0  0  0  0
   -0.4183    1.0668    0.0000 C   0  0  0  0  0  0  0  0  0  0  0  0
   -1.2550    1.1086    0.0000 C   0  0  0  0  0  0  0  0  0  0  0  0
    0.0000    1.7780    0.0000 C   0  0  0  0  0  0  0  0  0  0  0  0
    0.8367    1.7780    0.0000 C   0  0  0  0  0  0  0  0  0  0  0  0
    0.0000    0.3973    0.0000 C   0  0  0  0  0  0  0  0  0  0  0  0
   -1.6316    0.3555    0.0000 C   0  0  0  0  0  0  0  0  0  0  0  0
   -2.0499    1.0668    0.0000 C   0  0  0  0  0  0  0  0  0  0  0  0
   -1.6316    1.7780    0.0000 C   0  0  0  0  0  0  0  0  0  0  0  0
    1.2550   -1.7780    0.0000 C   0  0  0  0  0  0  0  0  0  0  0  0
    1.2550    2.4890    0.0000 C   0  0  0  0  0  0  0  0  0  0  0  0
    0.8367    0.3555    0.0000 C   0  0  0  0  0  0  0  0  0  0  0  0
    0.8367   -2.4890    0.0000 C   0  0  0  0  0  0  0  0  0  0  0  0
    1.2132    1.0668    0.0000 C   0  0  0  0  0  0  0  0  0  0  0  0
    0.0000   -2.4472    0.0000 C   0  0  0  0  0  0  0  0  0  0  0  0
   -0.3764   -1.7362    0.0000 C   0  0  0  0  0  0  0  0  0  0  0  0
    0.0000   -1.0668    0.0000 C   0  0  0  0  0  0  0  0  0  0  0  0
  1 13  2  0  0  0  0
  2 16  1  0  0  0  0
  3 19  1  0  0  0  0
  4  5  1  0  0  0  0
  4  6  1  0  0  0  0
  4  8  2  0  0  0  0
  5  9  1  0  0  0  0
  5 10  1  0  0  0  0
  5 11  1  0  0  0  0
  6  7  2  0  0  0  0
  7 12  1  0  0  0  0
  7 13  1  0  0  0  0
  8 14  1  0  0  0  0
 12 15  1  0  0  0  0
 14 16  2  0  0  0  0
 15 17  1  0  0  0  0
 17 18  1  0  0  0  0
 18 19  1  0  0  0  0
M  END
> <PUBCHEM_COMPOUND_ID_TYPE>
0

> <PUBCHEM_TOTAL_CHARGE>
0

> <PUBCHEM_SUBSTANCE_ID>
310941848

> <PUBCHEM_SUBSTANCE_VERSION>
1

> <PUBCHEM_EXT_DATASOURCE_NAME>
4488

> <PUBCHEM_EXT_DATASOURCE_REGID>
SCHEMBL16119880

> <PUBCHEM_SUBSTANCE_COMMENT>
InChI=1S/C16H27NO2/c1-16(2,3)15(9-7-11-18)12-14(13-19)8-5-4-6-10-17/h7,9,11-13,18H,4-6,8,10,17H2,1-3H3/b11-7+,14-12+,15-9+
InChIKey=PZFCKRSRRFWESE-VUFQDUEESA-N

> <PUBCHEM_SUBSTANCE_SYNONYM>
SCHEMBL16119880

> <PUBCHEM_XREF_EXT_ID>
SCHEMBL16119880

> <PUBCHEM_EXT_DATASOURCE_URL>
https://www.surechembl.org/

> <PUBCHEM_EXT_SUBSTANCE_URL>
https://www.surechembl.org/chemical/SCHEMBL16119880

> <PUBCHEM_CID_ASSOCIATIONS>
117608589  1

> <PUBCHEM_COORDINATE_TYPE>
1
3

> <PUBCHEM_BONDANNOTATIONS>
7  12  3

$$$$
