310939923
  -OEChem-07211613022D

 27 29  0     0  0  0  0  0  0999 V2000
    1.4289    4.2959    0.0000 Cl  0  0  0  0  0  0  0  0  0  0  0  0
    1.4289    2.6459    0.0000 Cl  0  0  0  0  0  0  0  0  0  0  0  0
    0.0000   -4.2959    0.0000 O   0  0  0  0  0  0  0  0  0  0  0  0
    0.0000    1.8209    0.0000 O   0  0  0  0  0  0  0  0  0  0  0  0
    0.0000    5.1209    0.0000 O   0  0  0  0  0  0  0  0  0  0  0  0
   -0.7145   -1.0666    0.0000 N   0  0  0  0  0  0  0  0  0  0  0  0
   -0.7145   -3.0584    0.0000 N   0  0  0  0  0  0  0  0  0  0  0  0
   -0.7145    0.5834    0.0000 N   0  0  0  0  0  0  0  0  0  0  0  0
   -1.4289    2.6459    0.0000 N   0  0  0  0  0  0  0  0  0  0  0  0
   -0.7145   -1.8916    0.0000 C   0  0  0  0  0  0  0  0  0  0  0  0
   -1.2978   -2.4750    0.0000 C   0  0  0  0  0  0  0  0  0  0  0  0
   -0.1311   -2.4750    0.0000 C   0  0  0  0  0  0  0  0  0  0  0  0
   -0.7145   -3.8834    0.0000 C   0  0  0  0  0  0  0  0  0  0  0  0
   -1.4289   -0.6541    0.0000 C   0  0  0  0  0  0  0  0  0  0  0  0
    0.0000   -0.6541    0.0000 C   0  0  0  0  0  0  0  0  0  0  0  0
   -0.7145    3.0584    0.0000 C   0  0  0  0  0  0  0  0  0  0  0  0
   -0.7145    1.4084    0.0000 C   0  0  0  0  0  0  0  0  0  0  0  0
   -1.4289    0.1709    0.0000 C   0  0  0  0  0  0  0  0  0  0  0  0
    0.0000    0.1709    0.0000 C   0  0  0  0  0  0  0  0  0  0  0  0
    0.7145    3.8834    0.0000 C   0  0  0  0  0  0  0  0  0  0  0  0
    0.7145    3.0584    0.0000 C   0  0  0  0  0  0  0  0  0  0  0  0
    0.0000    4.2959    0.0000 C   0  0  0  0  0  0  0  0  0  0  0  0
    0.0000    2.6459    0.0000 C   0  0  0  0  0  0  0  0  0  0  0  0
   -0.7145    3.8834    0.0000 C   0  0  0  0  0  0  0  0  0  0  0  0
   -1.4289    1.8209    0.0000 C   0  0  0  0  0  0  0  0  0  0  0  0
   -1.4289   -4.2959    0.0000 C   0  0  0  0  0  0  0  0  0  0  0  0
   -1.4289   -5.1209    0.0000 C   0  0  0  0  0  0  0  0  0  0  0  0
  1 20  1  0  0  0  0
  2 21  1  0  0  0  0
  3 13  2  0  0  0  0
  4 17  2  0  0  0  0
  5 22  1  0  0  0  0
  6 10  1  0  0  0  0
  6 14  1  0  0  0  0
  6 15  1  0  0  0  0
  7 11  1  0  0  0  0
  7 12  1  0  0  0  0
  7 13  1  0  0  0  0
  8 17  1  0  0  0  0
  8 18  1  0  0  0  0
  8 19  1  0  0  0  0
  9 16  1  0  0  0  0
  9 25  1  0  0  0  0
 10 11  1  0  0  0  0
 10 12  1  0  0  0  0
 13 26  1  0  0  0  0
 14 18  1  0  0  0  0
 15 19  1  0  0  0  0
 16 23  2  0  0  0  0
 16 24  1  0  0  0  0
 17 25  1  0  0  0  0
 20 21  2  0  0  0  0
 20 22  1  0  0  0  0
 21 23  1  0  0  0  0
 22 24  2  0  0  0  0
 26 27  2  0  0  0  0
M  END
> <PUBCHEM_COMPOUND_ID_TYPE>
0

> <PUBCHEM_TOTAL_CHARGE>
0

> <PUBCHEM_SUBSTANCE_ID>
310939923

> <PUBCHEM_SUBSTANCE_VERSION>
1

> <PUBCHEM_EXT_DATASOURCE_NAME>
4488

> <PUBCHEM_EXT_DATASOURCE_REGID>
SCHEMBL16117853

> <PUBCHEM_SUBSTANCE_COMMENT>
InChI=1S/C18H22Cl2N4O3/c1-2-16(26)24-10-13(11-24)22-3-5-23(6-4-22)17(27)9-21-12-7-14(19)18(20)15(25)8-12/h2,7-8,13,21,25H,1,3-6,9-11H2
InChIKey=WKRIFCKYISTWJU-UHFFFAOYSA-N

> <PUBCHEM_SUBSTANCE_SYNONYM>
SCHEMBL16117853

> <PUBCHEM_XREF_EXT_ID>
SCHEMBL16117853

> <PUBCHEM_EXT_DATASOURCE_URL>
https://www.surechembl.org/

> <PUBCHEM_EXT_SUBSTANCE_URL>
https://www.surechembl.org/chemical/SCHEMBL16117853

> <PUBCHEM_CID_ASSOCIATIONS>
86279818  1

> <PUBCHEM_COORDINATE_TYPE>
1
3

$$$$
