310936566
  -OEChem-07211613022D

 24 26  0     0  0  0  0  0  0999 V2000
    0.0000   -4.0955    0.0000 Cl  0  0  0  0  0  0  0  0  0  0  0  0
    3.6187   -5.0493    0.0000 O   0  0  0  0  0  0  0  0  0  0  0  0
    3.9833   -1.2904    0.0000 N   0  0  0  0  0  0  0  0  0  0  0  0
    4.2078   -3.7309    0.0000 N   0  0  0  0  0  0  0  0  0  0  0  0
    4.7688   -1.5429    0.0000 N   0  0  0  0  0  0  0  0  0  0  0  0
    6.0592   -0.8696    0.0000 N   0  0  0  0  0  0  0  0  0  0  0  0
    2.8052   -3.8711    0.0000 C   0  0  0  0  0  0  0  0  0  0  0  0
    3.3943   -2.5808    0.0000 C   0  0  0  0  0  0  0  0  0  0  0  0
    3.5626   -4.2359    0.0000 C   0  0  0  0  0  0  0  0  0  0  0  0
    2.1600   -4.3200    0.0000 C   0  0  0  0  0  0  0  0  0  0  0  0
    2.7491   -3.0577    0.0000 C   0  0  0  0  0  0  0  0  0  0  0  0
    3.3101   -1.7392    0.0000 C   0  0  0  0  0  0  0  0  0  0  0  0
    3.9833   -0.4769    0.0000 C   0  0  0  0  0  0  0  0  0  0  0  0
    4.1517   -2.9455    0.0000 C   0  0  0  0  0  0  0  0  0  0  0  0
    5.2176   -0.8696    0.0000 C   0  0  0  0  0  0  0  0  0  0  0  0
    1.4026   -3.9833    0.0000 C   0  0  0  0  0  0  0  0  0  0  0  0
    4.7688   -0.2244    0.0000 C   0  0  0  0  0  0  0  0  0  0  0  0
    2.2161   -5.1335    0.0000 C   0  0  0  0  0  0  0  0  0  0  0  0
    0.7293   -4.4322    0.0000 C   0  0  0  0  0  0  0  0  0  0  0  0
    1.5429   -5.6104    0.0000 C   0  0  0  0  0  0  0  0  0  0  0  0
    0.8135   -5.2737    0.0000 C   0  0  0  0  0  0  0  0  0  0  0  0
    3.3101    0.0000    0.0000 C   0  0  0  0  0  0  0  0  0  0  0  0
    4.3761   -5.3859    0.0000 C   0  0  0  0  0  0  0  0  0  0  0  0
    5.0493   -4.9091    0.0000 C   0  0  0  0  0  0  0  0  0  0  0  0
  1 19  1  0  0  0  0
  2  9  1  0  0  0  0
  2 23  1  0  0  0  0
  3  5  1  0  0  0  0
  3 12  1  0  0  0  0
  3 13  1  0  0  0  0
  4  9  2  0  0  0  0
  4 14  1  0  0  0  0
  5 15  2  0  0  0  0
  6 15  1  0  0  0  0
  7  9  1  0  0  0  0
  7 10  1  0  0  0  0
  7 11  2  0  0  0  0
  8 11  1  0  0  0  0
  8 12  1  0  0  0  0
  8 14  2  0  0  0  0
 10 16  1  0  0  0  0
 10 18  2  0  0  0  0
 13 17  2  0  0  0  0
 13 22  1  0  0  0  0
 15 17  1  0  0  0  0
 16 19  2  0  0  0  0
 18 20  1  0  0  0  0
 19 21  1  0  0  0  0
 20 21  2  0  0  0  0
 23 24  1  0  0  0  0
M  END
> <PUBCHEM_COMPOUND_ID_TYPE>
0

> <PUBCHEM_TOTAL_CHARGE>
0

> <PUBCHEM_SUBSTANCE_ID>
310936566

> <PUBCHEM_SUBSTANCE_VERSION>
1

> <PUBCHEM_EXT_DATASOURCE_NAME>
4488

> <PUBCHEM_EXT_DATASOURCE_REGID>
SCHEMBL16114222

> <PUBCHEM_SUBSTANCE_COMMENT>
InChI=1S/C18H19ClN4O/c1-3-24-18-16(14-5-4-6-15(19)9-14)8-13(10-21-18)11-23-12(2)7-17(20)22-23/h4-10H,3,11H2,1-2H3,(H2,20,22)
InChIKey=WCBUBYPUPPRXKZ-UHFFFAOYSA-N

> <PUBCHEM_SUBSTANCE_SYNONYM>
SCHEMBL16114222

> <PUBCHEM_XREF_EXT_ID>
SCHEMBL16114222

> <PUBCHEM_EXT_DATASOURCE_URL>
https://www.surechembl.org/

> <PUBCHEM_EXT_SUBSTANCE_URL>
https://www.surechembl.org/chemical/SCHEMBL16114222

> <PUBCHEM_CID_ASSOCIATIONS>
117604486  1

> <PUBCHEM_COORDINATE_TYPE>
1
3

$$$$
