310935621
  -OEChem-07211613022D

 35 38  0     0  0  0  0  0  0999 V2000
    4.9408   -2.5360    0.0000 S   0  0  0  0  0  0  0  0  0  0  0  0
    3.4979    0.0000    0.0000 F   0  0  0  0  0  0  0  0  0  0  0  0
    0.8308   -8.7448    0.0000 F   0  0  0  0  0  0  0  0  0  0  0  0
    3.3230   -5.7716    0.0000 O   0  0  0  0  0  0  0  0  0  0  0  0
    1.0931   -4.1538    0.0000 O   0  0  0  0  0  0  0  0  0  0  0  0
    5.7716   -2.5360    0.0000 O   0  0  0  0  0  0  0  0  0  0  0  0
    4.1101   -2.4923    0.0000 O   0  0  0  0  0  0  0  0  0  0  0  0
    4.9408    0.0000    0.0000 O   0  0  0  0  0  0  0  0  0  0  0  0
    5.6404   -1.2680    0.0000 O   0  0  0  0  0  0  0  0  0  0  0  0
    0.7870   -5.5529    0.0000 N   0  0  0  0  0  0  0  0  0  0  0  0
    2.7546   -4.5473    0.0000 C   0  0  0  0  0  0  0  0  0  0  0  0
    2.1862   -5.1157    0.0000 C   0  0  0  0  0  0  0  0  0  0  0  0
    3.4979   -4.9845    0.0000 C   0  0  0  0  0  0  0  0  0  0  0  0
    2.4923   -5.9028    0.0000 C   0  0  0  0  0  0  0  0  0  0  0  0
    3.4979   -3.3230    0.0000 C   0  0  0  0  0  0  0  0  0  0  0  0
    4.2413   -3.7603    0.0000 C   0  0  0  0  0  0  0  0  0  0  0  0
    2.7983   -3.7165    0.0000 C   0  0  0  0  0  0  0  0  0  0  0  0
    4.2413   -4.5473    0.0000 C   0  0  0  0  0  0  0  0  0  0  0  0
    2.0551   -6.6023    0.0000 C   0  0  0  0  0  0  0  0  0  0  0  0
    1.3554   -4.9408    0.0000 C   0  0  0  0  0  0  0  0  0  0  0  0
    3.4979   -2.4923    0.0000 C   0  0  0  0  0  0  0  0  0  0  0  0
    4.9408   -3.3230    0.0000 C   0  0  0  0  0  0  0  0  0  0  0  0
    4.1975   -2.0551    0.0000 C   0  0  0  0  0  0  0  0  0  0  0  0
    2.7546   -2.0551    0.0000 C   0  0  0  0  0  0  0  0  0  0  0  0
    4.1975   -1.2680    0.0000 C   0  0  0  0  0  0  0  0  0  0  0  0
    2.4923   -7.3019    0.0000 C   0  0  0  0  0  0  0  0  0  0  0  0
    1.2680   -6.6023    0.0000 C   0  0  0  0  0  0  0  0  0  0  0  0
    3.4979   -0.8308    0.0000 C   0  0  0  0  0  0  0  0  0  0  0  0
    2.7546   -1.2680    0.0000 C   0  0  0  0  0  0  0  0  0  0  0  0
    2.0551   -8.0453    0.0000 C   0  0  0  0  0  0  0  0  0  0  0  0
    0.8308   -7.3019    0.0000 C   0  0  0  0  0  0  0  0  0  0  0  0
    4.9408   -0.8308    0.0000 C   0  0  0  0  0  0  0  0  0  0  0  0
    1.2680   -8.0453    0.0000 C   0  0  0  0  0  0  0  0  0  0  0  0
    4.9845   -1.7052    0.0000 C   0  0  0  0  0  0  0  0  0  0  0  0
    0.0000   -5.3781    0.0000 C   0  0  0  0  0  0  0  0  0  0  0  0
  1  6  2  0  0  0  0
  1  7  2  0  0  0  0
  1 22  1  0  0  0  0
  1 34  1  0  0  0  0
  2 28  1  0  0  0  0
  3 33  1  0  0  0  0
  4 13  1  0  0  0  0
  4 14  1  0  0  0  0
  5 20  2  0  0  0  0
  8 32  2  0  0  0  0
  9 32  1  0  0  0  0
 10 20  1  0  0  0  0
 10 35  1  0  0  0  0
 11 12  1  0  0  0  0
 11 13  2  0  0  0  0
 11 17  1  0  0  0  0
 12 14  2  0  0  0  0
 12 20  1  0  0  0  0
 13 18  1  0  0  0  0
 14 19  1  0  0  0  0
 15 16  1  0  0  0  0
 15 17  2  0  0  0  0
 15 21  1  0  0  0  0
 16 18  2  0  0  0  0
 16 22  1  0  0  0  0
 19 26  2  0  0  0  0
 19 27  1  0  0  0  0
 21 23  2  0  0  0  0
 21 24  1  0  0  0  0
 23 25  1  0  0  0  0
 24 29  2  0  0  0  0
 25 28  2  0  0  0  0
 25 32  1  0  0  0  0
 26 30  1  0  0  0  0
 27 31  2  0  0  0  0
 28 29  1  0  0  0  0
 30 33  2  0  0  0  0
 31 33  1  0  0  0  0
M  END
> <PUBCHEM_COMPOUND_ID_TYPE>
0

> <PUBCHEM_TOTAL_CHARGE>
0

> <PUBCHEM_SUBSTANCE_ID>
310935621

> <PUBCHEM_SUBSTANCE_VERSION>
1

> <PUBCHEM_EXT_DATASOURCE_NAME>
4488

> <PUBCHEM_EXT_DATASOURCE_REGID>
SCHEMBL16113198

> <PUBCHEM_SUBSTANCE_COMMENT>
InChI=1S/C25H19F2NO6S/c1-28-24(29)22-19-11-17(14-5-8-20(27)18(9-14)25(30)31)15(12-35(2,32)33)10-21(19)34-23(22)13-3-6-16(26)7-4-13/h3-11H,12H2,1-2H3,(H,28,29)(H,30,31)
InChIKey=JTCYRVOXYJLMOW-UHFFFAOYSA-N

> <PUBCHEM_SUBSTANCE_SYNONYM>
SCHEMBL16113198

> <PUBCHEM_XREF_EXT_ID>
SCHEMBL16113198

> <PUBCHEM_EXT_DATASOURCE_URL>
https://www.surechembl.org/

> <PUBCHEM_EXT_SUBSTANCE_URL>
https://www.surechembl.org/chemical/SCHEMBL16113198

> <PUBCHEM_CID_ASSOCIATIONS>
117603638  1

> <PUBCHEM_COORDINATE_TYPE>
1
3

$$$$
