310940756
  -OEChem-07211613022D

 35 38  0     0  0  0  0  0  0999 V2000
   -1.1058    1.6809    0.0000 Br  0  0  0  0  0  0  0  0  0  0  0  0
    2.4477    2.3740    0.0000 F   0  0  0  0  0  0  0  0  0  0  0  0
   -1.2533    0.1622    0.0000 O   0  0  0  0  0  0  0  0  0  0  0  0
    3.4061   -2.8163    0.0000 O   0  0  0  0  0  0  0  0  0  0  0  0
    4.6594   -2.1085    0.0000 O   0  0  0  0  0  0  0  0  0  0  0  0
    1.6662    0.0147    0.0000 N   0  0  0  0  0  0  0  0  0  0  0  0
    1.6662   -1.3270    0.0000 N   0  0  0  0  0  0  0  0  0  0  0  0
   -3.4651   -0.1769    0.0000 N   0  0  0  0  0  0  0  0  0  0  0  0
   -4.0106    0.4423    0.0000 N   0  0  0  0  0  0  0  0  0  0  0  0
    0.8847   -0.2359    0.0000 C   0  0  0  0  0  0  0  0  0  0  0  0
    2.1528   -0.6488    0.0000 C   0  0  0  0  0  0  0  0  0  0  0  0
    0.8699   -1.0617    0.0000 C   0  0  0  0  0  0  0  0  0  0  0  0
    3.4061   -1.3860    0.0000 C   0  0  0  0  0  0  0  0  0  0  0  0
    3.0079   -0.6782    0.0000 C   0  0  0  0  0  0  0  0  0  0  0  0
    0.1622    0.1475    0.0000 C   0  0  0  0  0  0  0  0  0  0  0  0
    1.9168    0.8110    0.0000 C   0  0  0  0  0  0  0  0  0  0  0  0
    0.1769   -1.4745    0.0000 C   0  0  0  0  0  0  0  0  0  0  0  0
   -0.5456   -0.2507    0.0000 C   0  0  0  0  0  0  0  0  0  0  0  0
    1.3713    1.4155    0.0000 C   0  0  0  0  0  0  0  0  0  0  0  0
   -0.5456   -1.0764    0.0000 C   0  0  0  0  0  0  0  0  0  0  0  0
    3.8189   -2.0643    0.0000 C   0  0  0  0  0  0  0  0  0  0  0  0
    1.6367    2.2118    0.0000 C   0  0  0  0  0  0  0  0  0  0  0  0
    2.6835   -1.7841    0.0000 C   0  0  0  0  0  0  0  0  0  0  0  0
    4.1286   -0.9732    0.0000 C   0  0  0  0  0  0  0  0  0  0  0  0
    0.5603    1.2533    0.0000 C   0  0  0  0  0  0  0  0  0  0  0  0
    0.0147    1.8578    0.0000 C   0  0  0  0  0  0  0  0  0  0  0  0
    1.0764    2.8163    0.0000 C   0  0  0  0  0  0  0  0  0  0  0  0
   -1.9758   -0.2359    0.0000 C   0  0  0  0  0  0  0  0  0  0  0  0
    0.2801    2.6393    0.0000 C   0  0  0  0  0  0  0  0  0  0  0  0
   -2.7131    0.1769    0.0000 C   0  0  0  0  0  0  0  0  0  0  0  0
    4.8511   -1.3713    0.0000 C   0  0  0  0  0  0  0  0  0  0  0  0
    2.6983   -2.6393    0.0000 C   0  0  0  0  0  0  0  0  0  0  0  0
   -2.7868    0.9879    0.0000 C   0  0  0  0  0  0  0  0  0  0  0  0
   -3.5977    1.1648    0.0000 C   0  0  0  0  0  0  0  0  0  0  0  0
   -4.8511    0.3391    0.0000 C   0  0  0  0  0  0  0  0  0  0  0  0
  1 26  1  0  0  0  0
  2 22  1  0  0  0  0
  3 18  1  0  0  0  0
  3 28  1  0  0  0  0
  4 21  2  0  0  0  0
  5 21  1  0  0  0  0
  6 10  1  0  0  0  0
  6 11  1  0  0  0  0
  6 16  1  0  0  0  0
  7 11  2  0  0  0  0
  7 12  1  0  0  0  0
  8  9  1  0  0  0  0
  8 30  2  0  0  0  0
  9 34  1  0  0  0  0
  9 35  1  0  0  0  0
 10 12  1  0  0  0  0
 10 15  2  0  0  0  0
 11 14  1  0  0  0  0
 12 17  2  0  0  0  0
 13 14  1  0  0  0  0
 13 21  1  0  0  0  0
 13 23  1  0  0  0  0
 13 24  1  0  0  0  0
 15 18  1  0  0  0  0
 16 19  1  0  0  0  0
 17 20  1  0  0  0  0
 18 20  2  0  0  0  0
 19 22  1  0  0  0  0
 19 25  2  0  0  0  0
 22 27  2  0  0  0  0
 23 32  1  0  0  0  0
 24 31  1  0  0  0  0
 25 26  1  0  0  0  0
 26 29  2  0  0  0  0
 27 29  1  0  0  0  0
 28 30  1  0  0  0  0
 30 33  1  0  0  0  0
 33 34  2  0  0  0  0
M  END
> <PUBCHEM_COMPOUND_ID_TYPE>
0

> <PUBCHEM_TOTAL_CHARGE>
0

> <PUBCHEM_SUBSTANCE_ID>
310940756

> <PUBCHEM_SUBSTANCE_VERSION>
1

> <PUBCHEM_EXT_DATASOURCE_NAME>
4488

> <PUBCHEM_EXT_DATASOURCE_REGID>
SCHEMBL16118715

> <PUBCHEM_SUBSTANCE_COMMENT>
InChI=1S/C26H28BrFN4O3/c1-4-26(5-2,25(33)34)14-24-29-22-9-7-20(35-16-19-10-11-31(3)30-19)13-23(22)32(24)15-17-12-18(27)6-8-21(17)28/h6-13H,4-5,14-16H2,1-3H3,(H,33,34)
InChIKey=LIDXWPCPUSDUSM-UHFFFAOYSA-N

> <PUBCHEM_SUBSTANCE_SYNONYM>
SCHEMBL16118715

> <PUBCHEM_XREF_EXT_ID>
SCHEMBL16118715

> <PUBCHEM_EXT_DATASOURCE_URL>
https://www.surechembl.org/

> <PUBCHEM_EXT_SUBSTANCE_URL>
https://www.surechembl.org/chemical/SCHEMBL16118715

> <PUBCHEM_CID_ASSOCIATIONS>
117607711  1

> <PUBCHEM_COORDINATE_TYPE>
1
3

$$$$
