310947916
  -OEChem-07211613022D

 19 19  0     0  0  0  0  0  0999 V2000
   -2.1536   -1.6822    0.0000 O   0  0  0  0  0  0  0  0  0  0  0  0
   -0.7246   -1.6822    0.0000 O   0  0  0  0  0  0  0  0  0  0  0  0
    0.7043    1.2054    0.0000 O   0  0  0  0  0  0  0  0  0  0  0  0
   -1.4391   -0.4447    0.0000 N   0  0  0  0  0  0  0  0  0  0  0  0
   -1.4391   -0.0321    0.0000 C   0  0  0  0  0  0  0  0  0  0  0  0
   -1.4391   -1.2697    0.0000 C   0  0  0  0  0  0  0  0  0  0  0  0
   -2.1536   -0.4446    0.0000 C   0  0  0  0  0  0  0  0  0  0  0  0
   -0.7246   -0.4446    0.0000 C   0  0  0  0  0  0  0  0  0  0  0  0
   -2.1536   -1.2696    0.0000 C   0  0  0  0  0  0  0  0  0  0  0  0
   -0.7246   -1.2696    0.0000 C   0  0  0  0  0  0  0  0  0  0  0  0
   -0.7246    0.3804    0.0000 C   0  0  0  0  0  0  0  0  0  0  0  0
   -2.1536   -2.5072    0.0000 C   0  0  0  0  0  0  0  0  0  0  0  0
   -2.1536    0.3804    0.0000 C   0  0  0  0  0  0  0  0  0  0  0  0
   -0.0102   -0.0321    0.0000 C   0  0  0  0  0  0  0  0  0  0  0  0
   -1.4391   -2.9197    0.0000 C   0  0  0  0  0  0  0  0  0  0  0  0
   -2.1536   -3.3322    0.0000 C   0  0  0  0  0  0  0  0  0  0  0  0
   -2.8680   -2.9197    0.0000 C   0  0  0  0  0  0  0  0  0  0  0  0
    0.7043    0.3804    0.0000 C   0  0  0  0  0  0  0  0  0  0  0  0
    1.4188   -0.0321    0.0000 C   0  0  0  0  0  0  0  0  0  0  0  0
  1  6  1  0  0  0  0
  1 12  1  0  0  0  0
  2  6  2  0  0  0  0
  3 18  2  0  0  0  0
  4  6  1  0  0  0  0
  4  9  1  0  0  0  0
  4 10  1  0  0  0  0
  5  7  1  0  0  0  0
  5  8  1  0  0  0  0
  5 11  1  0  0  0  0
  5 13  1  0  0  0  0
  7  9  1  0  0  0  0
  8 10  1  0  0  0  0
 11 14  1  0  0  0  0
 12 15  1  0  0  0  0
 12 16  1  0  0  0  0
 12 17  1  0  0  0  0
 14 18  1  0  0  0  0
 18 19  1  0  0  0  0
M  END
> <PUBCHEM_COMPOUND_ID_TYPE>
0

> <PUBCHEM_TOTAL_CHARGE>
0

> <PUBCHEM_SUBSTANCE_ID>
310947916

> <PUBCHEM_SUBSTANCE_VERSION>
1

> <PUBCHEM_EXT_DATASOURCE_NAME>
4488

> <PUBCHEM_EXT_DATASOURCE_REGID>
SCHEMBL16126090

> <PUBCHEM_SUBSTANCE_COMMENT>
InChI=1S/C15H27NO3/c1-12(17)6-7-15(5)8-10-16(11-9-15)13(18)19-14(2,3)4/h6-11H2,1-5H3
InChIKey=KODYMSKXXMFCNZ-UHFFFAOYSA-N

> <PUBCHEM_SUBSTANCE_SYNONYM>
SCHEMBL16126090

> <PUBCHEM_XREF_EXT_ID>
SCHEMBL16126090

> <PUBCHEM_EXT_DATASOURCE_URL>
https://www.surechembl.org/

> <PUBCHEM_EXT_SUBSTANCE_URL>
https://www.surechembl.org/chemical/SCHEMBL16126090

> <PUBCHEM_CID_ASSOCIATIONS>
97987435  1

> <PUBCHEM_COORDINATE_TYPE>
1
3

$$$$
