310943625
  -OEChem-07211613022D

 38 41  0     0  0  0  0  0  0999 V2000
    3.2989   -2.1812    0.0000 F   0  0  0  0  0  0  0  0  0  0  0  0
    4.7485   -2.1812    0.0000 F   0  0  0  0  0  0  0  0  0  0  0  0
    4.0168   -2.5876    0.0000 F   0  0  0  0  0  0  0  0  0  0  0  0
    4.0168    1.4090    0.0000 O   0  0  0  0  0  0  0  0  0  0  0  0
   -3.3260   -0.9213    0.0000 O   0  0  0  0  0  0  0  0  0  0  0  0
    2.5673    1.4090    0.0000 O   0  0  0  0  0  0  0  0  0  0  0  0
   -4.7349    1.5038    0.0000 O   0  0  0  0  0  0  0  0  0  0  0  0
   -3.2989    0.6909    0.0000 N   0  0  0  0  0  0  0  0  0  0  0  0
    1.8357    0.2167    0.0000 N   0  0  0  0  0  0  0  0  0  0  0  0
    4.7485   -0.5825    0.0000 N   0  0  0  0  0  0  0  0  0  0  0  0
   -1.8764   -0.9484    0.0000 N   0  0  0  0  0  0  0  0  0  0  0  0
   -0.3590    0.6096    0.0000 C   0  0  0  0  0  0  0  0  0  0  0  0
   -1.1177    0.2438    0.0000 C   0  0  0  0  0  0  0  0  0  0  0  0
    3.2989    0.2167    0.0000 C   0  0  0  0  0  0  0  0  0  0  0  0
   -2.5673    0.2845    0.0000 C   0  0  0  0  0  0  0  0  0  0  0  0
    4.0168   -0.9890    0.0000 C   0  0  0  0  0  0  0  0  0  0  0  0
    4.0033    0.6096    0.0000 C   0  0  0  0  0  0  0  0  0  0  0  0
    2.5538    0.5961    0.0000 C   0  0  0  0  0  0  0  0  0  0  0  0
   -1.8493    0.6503    0.0000 C   0  0  0  0  0  0  0  0  0  0  0  0
   -2.5944   -0.5283    0.0000 C   0  0  0  0  0  0  0  0  0  0  0  0
    1.1041    0.6232    0.0000 C   0  0  0  0  0  0  0  0  0  0  0  0
    3.2989   -0.5825    0.0000 C   0  0  0  0  0  0  0  0  0  0  0  0
   -0.3455    1.4225    0.0000 C   0  0  0  0  0  0  0  0  0  0  0  0
    0.3861    0.2167    0.0000 C   0  0  0  0  0  0  0  0  0  0  0  0
    4.0033   -1.8018    0.0000 C   0  0  0  0  0  0  0  0  0  0  0  0
   -1.1448   -0.5690    0.0000 C   0  0  0  0  0  0  0  0  0  0  0  0
    4.7485    0.2167    0.0000 C   0  0  0  0  0  0  0  0  0  0  0  0
    1.1041    1.4090    0.0000 C   0  0  0  0  0  0  0  0  0  0  0  0
    0.3997    1.8018    0.0000 C   0  0  0  0  0  0  0  0  0  0  0  0
   -3.2718    1.4767    0.0000 C   0  0  0  0  0  0  0  0  0  0  0  0
   -4.0033    0.3116    0.0000 C   0  0  0  0  0  0  0  0  0  0  0  0
   -1.0635    1.8289    0.0000 C   0  0  0  0  0  0  0  0  0  0  0  0
   -4.0033    1.8967    0.0000 C   0  0  0  0  0  0  0  0  0  0  0  0
   -4.7485    0.7180    0.0000 C   0  0  0  0  0  0  0  0  0  0  0  0
    4.7349    1.8154    0.0000 C   0  0  0  0  0  0  0  0  0  0  0  0
   -3.3395   -1.7205    0.0000 C   0  0  0  0  0  0  0  0  0  0  0  0
    4.7349    2.5876    0.0000 C   0  0  0  0  0  0  0  0  0  0  0  0
   -4.0575   -2.1270    0.0000 C   0  0  0  0  0  0  0  0  0  0  0  0
  1 25  1  0  0  0  0
  2 25  1  0  0  0  0
  3 25  1  0  0  0  0
  4 17  1  0  0  0  0
  4 35  1  0  0  0  0
  5 20  1  0  0  0  0
  5 36  1  0  0  0  0
  6 18  2  0  0  0  0
  7 33  1  0  0  0  0
  7 34  1  0  0  0  0
  8 15  1  0  0  0  0
  8 30  1  0  0  0  0
  8 31  1  0  0  0  0
  9 18  1  0  0  0  0
  9 21  1  0  0  0  0
 10 16  2  0  0  0  0
 10 27  1  0  0  0  0
 11 20  1  0  0  0  0
 11 26  2  0  0  0  0
 12 13  1  0  0  0  0
 12 23  2  0  0  0  0
 12 24  1  0  0  0  0
 13 19  2  0  0  0  0
 13 26  1  0  0  0  0
 14 17  1  0  0  0  0
 14 18  1  0  0  0  0
 14 22  2  0  0  0  0
 15 19  1  0  0  0  0
 15 20  2  0  0  0  0
 16 22  1  0  0  0  0
 16 25  1  0  0  0  0
 17 27  2  0  0  0  0
 21 24  2  0  0  0  0
 21 28  1  0  0  0  0
 23 29  1  0  0  0  0
 23 32  1  0  0  0  0
 28 29  2  0  0  0  0
 30 33  1  0  0  0  0
 31 34  1  0  0  0  0
 35 37  1  0  0  0  0
 36 38  1  0  0  0  0
M  END
> <PUBCHEM_COMPOUND_ID_TYPE>
0

> <PUBCHEM_TOTAL_CHARGE>
0

> <PUBCHEM_SUBSTANCE_ID>
310943625

> <PUBCHEM_SUBSTANCE_VERSION>
1

> <PUBCHEM_EXT_DATASOURCE_NAME>
4488

> <PUBCHEM_EXT_DATASOURCE_REGID>
SCHEMBL16121693

> <PUBCHEM_SUBSTANCE_COMMENT>
InChI=1S/C27H29F3N4O4/c1-4-37-23-16-31-24(27(28,29)30)14-21(23)25(35)33-19-7-6-17(3)20(13-19)18-12-22(26(32-15-18)38-5-2)34-8-10-36-11-9-34/h6-7,12-16H,4-5,8-11H2,1-3H3,(H,33,35)
InChIKey=RCHDRJZBLCCTOP-UHFFFAOYSA-N

> <PUBCHEM_SUBSTANCE_SYNONYM>
SCHEMBL16121693

> <PUBCHEM_XREF_EXT_ID>
SCHEMBL16121693

> <PUBCHEM_EXT_DATASOURCE_URL>
https://www.surechembl.org/

> <PUBCHEM_EXT_SUBSTANCE_URL>
https://www.surechembl.org/chemical/SCHEMBL16121693

> <PUBCHEM_CID_ASSOCIATIONS>
117610016  1

> <PUBCHEM_COORDINATE_TYPE>
1
3

$$$$
