310948721
  -OEChem-07211613022D

 27 28  0     1  0  0  0  0  0999 V2000
   -1.4749    1.0352    0.0000 I   0  0  0  0  0  0  0  0  0  0  0  0
    2.0612    0.4672    0.0000 S   0  0  0  0  0  0  0  0  0  0  0  0
   -1.4199   -0.1924    0.0000 O   0  0  0  0  0  0  0  0  0  0  0  0
    0.5955   -0.4489    0.0000 O   0  0  0  0  0  0  0  0  0  0  0  0
   -2.5925    1.6398    0.0000 O   0  0  0  0  0  0  0  0  0  0  0  0
   -1.2551    1.5665    0.0000 O   0  0  0  0  0  0  0  0  0  0  0  0
    1.3833    1.6215    0.0000 N   0  0  0  0  0  0  0  0  0  0  0  0
   -0.5955    0.4855    0.0000 C   0  0  3  0  0  0  0  0  0  0  0  0
   -0.1374    0.7970    0.0000 C   0  0  3  0  0  0  0  0  0  0  0  0
   -1.2184   -0.9436    0.0000 C   0  0  0  0  0  0  0  0  0  0  0  0
   -0.2473    1.2917    0.0000 C   0  0  0  0  0  0  0  0  0  0  0  0
    0.5955    0.3939    0.0000 C   0  0  3  0  0  0  0  0  0  0  0  0
    1.2917    0.7970    0.0000 C   0  0  0  0  0  0  0  0  0  0  0  0
   -1.8047   -1.5665    0.0000 C   0  0  0  0  0  0  0  0  0  0  0  0
   -0.3939   -1.2001    0.0000 C   0  0  0  0  0  0  0  0  0  0  0  0
   -0.8336    0.3939    0.0000 C   0  0  0  0  0  0  0  0  0  0  0  0
    2.5925    1.0718    0.0000 C   0  0  0  0  0  0  0  0  0  0  0  0
    2.1895    1.7681    0.0000 C   0  0  0  0  0  0  0  0  0  0  0  0
    1.2733   -0.8519    0.0000 C   0  0  0  0  0  0  0  0  0  0  0  0
   -1.5299    0.7786    0.0000 C   0  0  0  0  0  0  0  0  0  0  0  0
    1.2551   -1.6765    0.0000 C   0  0  0  0  0  0  0  0  0  0  0  0
   -1.8963    2.0979    0.0000 C   0  0  0  0  0  0  0  0  0  0  0  0
   -2.3910    0.8519    0.0000 C   0  0  0  0  0  0  0  0  0  0  0  0
    1.9513   -2.1162    0.0000 C   0  0  0  0  0  0  0  0  0  0  0  0
   -1.8596    2.9223    0.0000 C   0  0  0  0  0  0  0  0  0  0  0  0
   -1.1268    2.4276    0.0000 C   0  0  0  0  0  0  0  0  0  0  0  0
    1.9146   -2.9223    0.0000 C   0  0  0  0  0  0  0  0  0  0  0  0
  1  6  1  0  0  0  0
  2 13  1  0  0  0  0
  2 17  1  0  0  0  0
  3 10  1  0  0  0  0
  3 16  1  0  0  0  0
 12  4  1  1  0  0  0
  4 19  1  0  0  0  0
  5 22  1  0  0  0  0
  5 23  1  0  0  0  0
  6 22  1  0  0  0  0
  7 13  2  0  0  0  0
  7 18  1  0  0  0  0
  8  9  1  0  0  0  0
  8 10  1  0  0  0  0
  8 11  1  0  0  0  0
  9 11  1  0  0  0  0
  9 12  1  6  0  0  0
 10 14  1  0  0  0  0
 10 15  1  0  0  0  0
 12 13  1  0  0  0  0
 16 20  1  0  0  0  0
 17 18  2  0  0  0  0
 19 21  1  0  0  0  0
 20 23  1  0  0  0  0
 21 24  1  0  0  0  0
 22 25  1  0  0  0  0
 22 26  1  0  0  0  0
 24 27  1  0  0  0  0
M  END
> <PUBCHEM_COMPOUND_ID_TYPE>
0

> <PUBCHEM_TOTAL_CHARGE>
0

> <PUBCHEM_SUBSTANCE_ID>
310948721

> <PUBCHEM_SUBSTANCE_VERSION>
1

> <PUBCHEM_EXT_DATASOURCE_NAME>
4488

> <PUBCHEM_EXT_DATASOURCE_REGID>
SCHEMBL16126905

> <PUBCHEM_SUBSTANCE_COMMENT>
InChI=1S/C20H34INO4S/c1-6-7-10-23-17(18-22-9-13-27-18)15-14-16(15)19(2,3)24-11-8-12-25-20(4,5)26-21/h9,13,15-17H,6-8,10-12,14H2,1-5H3/t15-,16?,17-/m0/s1
InChIKey=XUMJVRWTLWDKFE-QRFGZVGRSA-N

> <PUBCHEM_SUBSTANCE_SYNONYM>
SCHEMBL16126905

> <PUBCHEM_XREF_EXT_ID>
SCHEMBL16126905

> <PUBCHEM_EXT_DATASOURCE_URL>
https://www.surechembl.org/

> <PUBCHEM_EXT_SUBSTANCE_URL>
https://www.surechembl.org/chemical/SCHEMBL16126905

> <PUBCHEM_CID_ASSOCIATIONS>
117614262  1

> <PUBCHEM_COORDINATE_TYPE>
1
3

> <PUBCHEM_BONDANNOTATIONS>
12  4  5
9  12  6

$$$$
