310948048
  -OEChem-07211613022D

 44 48  0     0  0  0  0  0  0999 V2000
    3.1953   -0.0434    0.0000 S   0  0  0  0  0  0  0  0  0  0  0  0
    3.2126   -2.9087    0.0000 F   0  0  0  0  0  0  0  0  0  0  0  0
   -4.4456   -0.9117    0.0000 F   0  0  0  0  0  0  0  0  0  0  0  0
   -3.5946    0.2518    0.0000 F   0  0  0  0  0  0  0  0  0  0  0  0
    2.1706    2.4398    0.0000 F   0  0  0  0  0  0  0  0  0  0  0  0
    3.1778    2.9434    0.0000 F   0  0  0  0  0  0  0  0  0  0  0  0
    3.6641    1.9015    0.0000 F   0  0  0  0  0  0  0  0  0  0  0  0
    2.4833    0.3733    0.0000 O   0  0  0  0  0  0  0  0  0  0  0  0
    3.9246   -0.4602    0.0000 O   0  0  0  0  0  0  0  0  0  0  0  0
    2.6395    1.3979    0.0000 O   0  0  0  0  0  0  0  0  0  0  0  0
    4.4456   -2.1967    0.0000 O   0  0  0  0  0  0  0  0  0  0  0  0
   -0.9203   -0.0434    0.0000 N   0  0  0  0  0  0  0  0  0  0  0  0
   -2.2401   -2.1446    0.0000 N   0  0  0  0  0  0  0  0  0  0  0  0
   -1.7539    0.0434    0.0000 N   0  0  0  0  0  0  0  0  0  0  0  0
   -3.0216   -1.8841    0.0000 N   0  0  0  0  0  0  0  0  0  0  0  0
   -1.9102    0.8596    0.0000 N   0  0  0  0  0  0  0  0  0  0  0  0
   -0.5210   -0.7380    0.0000 C   0  0  0  0  0  0  0  0  0  0  0  0
   -0.9377   -1.4673    0.0000 C   0  0  0  0  0  0  0  0  0  0  0  0
   -1.7539   -1.4500    0.0000 C   0  0  0  0  0  0  0  0  0  0  0  0
    0.7293   -1.4500    0.0000 C   0  0  0  0  0  0  0  0  0  0  0  0
   -0.5730    0.7207    0.0000 C   0  0  0  0  0  0  0  0  0  0  0  0
    0.3126   -0.7728    0.0000 C   0  0  0  0  0  0  0  0  0  0  0  0
    1.5455   -1.4673    0.0000 C   0  0  0  0  0  0  0  0  0  0  0  0
    2.7785   -0.7554    0.0000 C   0  0  0  0  0  0  0  0  0  0  0  0
   -0.5036   -2.1793    0.0000 C   0  0  0  0  0  0  0  0  0  0  0  0
    0.3126   -2.1793    0.0000 C   0  0  0  0  0  0  0  0  0  0  0  0
    3.1953   -1.4673    0.0000 C   0  0  0  0  0  0  0  0  0  0  0  0
    1.9623   -0.7728    0.0000 C   0  0  0  0  0  0  0  0  0  0  0  0
    0.1910    0.8943    0.0000 C   0  0  0  0  0  0  0  0  0  0  0  0
   -2.2228   -0.8075    0.0000 C   0  0  0  0  0  0  0  0  0  0  0  0
   -3.0042   -1.0506    0.0000 C   0  0  0  0  0  0  0  0  0  0  0  0
    2.7958   -2.1967    0.0000 C   0  0  0  0  0  0  0  0  0  0  0  0
    1.9623   -2.1793    0.0000 C   0  0  0  0  0  0  0  0  0  0  0  0
   -1.2156    1.2590    0.0000 C   0  0  0  0  0  0  0  0  0  0  0  0
    0.4862    1.6758    0.0000 C   0  0  0  0  0  0  0  0  0  0  0  0
    0.7988    0.2865    0.0000 C   0  0  0  0  0  0  0  0  0  0  0  0
   -3.6988   -0.5643    0.0000 C   0  0  0  0  0  0  0  0  0  0  0  0
    4.0461   -1.4848    0.0000 C   0  0  0  0  0  0  0  0  0  0  0  0
   -1.9623   -2.9434    0.0000 C   0  0  0  0  0  0  0  0  0  0  0  0
    1.8233    1.2590    0.0000 C   0  0  0  0  0  0  0  0  0  0  0  0
    1.3024    1.8147    0.0000 C   0  0  0  0  0  0  0  0  0  0  0  0
    1.5803    0.4602    0.0000 C   0  0  0  0  0  0  0  0  0  0  0  0
    3.6120    0.6860    0.0000 C   0  0  0  0  0  0  0  0  0  0  0  0
    2.9174    2.1793    0.0000 C   0  0  0  0  0  0  0  0  0  0  0  0
  1  8  2  0  0  0  0
  1  9  2  0  0  0  0
  1 24  1  0  0  0  0
  1 43  1  0  0  0  0
  2 32  1  0  0  0  0
  3 37  1  0  0  0  0
  4 37  1  0  0  0  0
  5 44  1  0  0  0  0
  6 44  1  0  0  0  0
  7 44  1  0  0  0  0
 10 40  1  0  0  0  0
 10 44  1  0  0  0  0
 11 38  1  0  0  0  0
 12 14  1  0  0  0  0
 12 17  1  0  0  0  0
 12 21  1  0  0  0  0
 13 15  1  0  0  0  0
 13 19  1  0  0  0  0
 13 39  1  0  0  0  0
 14 16  2  0  0  0  0
 15 31  2  0  0  0  0
 16 34  1  0  0  0  0
 17 18  1  0  0  0  0
 17 22  2  0  0  0  0
 18 19  1  0  0  0  0
 18 25  2  0  0  0  0
 19 30  2  0  0  0  0
 20 22  1  0  0  0  0
 20 23  1  0  0  0  0
 20 26  2  0  0  0  0
 21 29  1  0  0  0  0
 21 34  2  0  0  0  0
 23 28  2  0  0  0  0
 23 33  1  0  0  0  0
 24 27  2  0  0  0  0
 24 28  1  0  0  0  0
 25 26  1  0  0  0  0
 27 32  1  0  0  0  0
 27 38  1  0  0  0  0
 29 35  2  0  0  0  0
 29 36  1  0  0  0  0
 30 31  1  0  0  0  0
 31 37  1  0  0  0  0
 32 33  2  0  0  0  0
 35 41  1  0  0  0  0
 36 42  2  0  0  0  0
 40 41  2  0  0  0  0
 40 42  1  0  0  0  0
M  END
> <PUBCHEM_COMPOUND_ID_TYPE>
0

> <PUBCHEM_TOTAL_CHARGE>
0

> <PUBCHEM_SUBSTANCE_ID>
310948048

> <PUBCHEM_SUBSTANCE_VERSION>
1

> <PUBCHEM_EXT_DATASOURCE_NAME>
4488

> <PUBCHEM_EXT_DATASOURCE_REGID>
SCHEMBL16126223

> <PUBCHEM_SUBSTANCE_COMMENT>
InChI=1S/C28H21F6N5O4S/c1-38-23(12-22(36-38)27(30)31)19-8-5-16(17-9-21(29)20(14-40)26(11-17)44(2,41)42)10-24(19)39-25(13-35-37-39)15-3-6-18(7-4-15)43-28(32,33)34/h3-13,27,40H,14H2,1-2H3
InChIKey=ZMSBDHCFMRGFHT-UHFFFAOYSA-N

> <PUBCHEM_SUBSTANCE_SYNONYM>
SCHEMBL16126223

> <PUBCHEM_XREF_EXT_ID>
SCHEMBL16126223

> <PUBCHEM_EXT_DATASOURCE_URL>
https://www.surechembl.org/

> <PUBCHEM_EXT_SUBSTANCE_URL>
https://www.surechembl.org/chemical/SCHEMBL16126223

> <PUBCHEM_CID_ASSOCIATIONS>
86276047  1

> <PUBCHEM_COORDINATE_TYPE>
1
3

$$$$
