310936393
  -OEChem-07211613022D

 29 32  0     1  0  0  0  0  0999 V2000
    3.7000   -3.7909    0.0000 O   0  0  0  0  0  0  0  0  0  0  0  0
    3.7909   -1.6680    0.0000 O   0  0  0  0  0  0  0  0  0  0  0  0
    7.9155   -4.0336    0.0000 O   0  0  0  0  0  0  0  0  0  0  0  0
    5.3983   -2.4869    0.0000 O   0  0  0  0  0  0  0  0  0  0  0  0
    5.9139   -6.0655    0.0000 O   0  0  0  0  0  0  0  0  0  0  0  0
    7.8852   -6.0655    0.0000 O   0  0  0  0  0  0  0  0  0  0  0  0
    0.0000   -1.7590    0.0000 O   0  0  0  0  0  0  0  0  0  0  0  0
    2.5172   -2.9115    0.0000 N   0  0  0  0  0  0  0  0  0  0  0  0
    1.2131   -3.1237    0.0000 N   0  0  0  0  0  0  0  0  0  0  0  0
    2.4565   -1.3951    0.0000 N   0  0  0  0  0  0  0  0  0  0  0  0
    5.9139   -4.0336    0.0000 N   0  0  0  0  0  0  0  0  0  0  0  0
    1.1221   -0.9098    0.0000 N   0  0  0  0  0  0  0  0  0  0  0  0
    2.2746    0.0000    0.0000 N   0  0  0  0  0  0  0  0  0  0  0  0
    3.3360   -3.0631    0.0000 C   0  0  3  0  0  0  0  0  0  0  0  0
    2.1836   -2.1836    0.0000 C   0  0  0  0  0  0  0  0  0  0  0  0
    1.3041   -2.3049    0.0000 C   0  0  0  0  0  0  0  0  0  0  0  0
    3.9123   -2.4869    0.0000 C   0  0  3  0  0  0  0  0  0  0  0  0
    4.5188   -3.6696    0.0000 C   0  0  3  0  0  0  0  0  0  0  0  0
    4.6401   -2.8508    0.0000 C   0  0  3  0  0  0  0  0  0  0  0  0
    6.4901   -4.6401    0.0000 C   0  0  0  0  0  0  0  0  0  0  0  0
    7.3393   -4.6401    0.0000 C   0  0  0  0  0  0  0  0  0  0  0  0
    1.9410   -3.5180    0.0000 C   0  0  0  0  0  0  0  0  0  0  0  0
    6.4901   -5.4590    0.0000 C   0  0  0  0  0  0  0  0  0  0  0  0
    7.3090   -5.4590    0.0000 C   0  0  0  0  0  0  0  0  0  0  0  0
    0.8188   -1.6377    0.0000 C   0  0  0  0  0  0  0  0  0  0  0  0
    5.1254   -4.2459    0.0000 C   0  0  0  0  0  0  0  0  0  0  0  0
    1.9713   -0.7582    0.0000 C   0  0  0  0  0  0  0  0  0  0  0  0
    7.7032   -3.2451    0.0000 C   0  0  0  0  0  0  0  0  0  0  0  0
    6.9147   -3.0327    0.0000 C   0  0  0  0  0  0  0  0  0  0  0  0
 14  1  1  1  0  0  0
  1 18  1  0  0  0  0
 17  2  1  6  0  0  0
  3 21  1  0  0  0  0
  3 28  1  0  0  0  0
 19  4  1  6  0  0  0
  5 23  2  0  0  0  0
  6 24  2  0  0  0  0
  7 25  2  0  0  0  0
  8 14  1  0  0  0  0
  8 15  1  0  0  0  0
  8 22  1  0  0  0  0
  9 16  1  0  0  0  0
  9 22  2  0  0  0  0
 10 15  1  0  0  0  0
 10 27  2  0  0  0  0
 11 20  1  0  0  0  0
 11 26  1  0  0  0  0
 12 25  1  0  0  0  0
 12 27  1  0  0  0  0
 13 27  1  0  0  0  0
 14 17  1  0  0  0  0
 15 16  2  0  0  0  0
 16 25  1  0  0  0  0
 17 19  1  0  0  0  0
 18 19  1  0  0  0  0
 18 26  1  1  0  0  0
 20 21  2  0  0  0  0
 20 23  1  0  0  0  0
 21 24  1  0  0  0  0
 23 24  1  0  0  0  0
 28 29  1  0  0  0  0
M  END
> <PUBCHEM_COMPOUND_ID_TYPE>
0

> <PUBCHEM_TOTAL_CHARGE>
0

> <PUBCHEM_SUBSTANCE_ID>
310936393

> <PUBCHEM_SUBSTANCE_VERSION>
1

> <PUBCHEM_EXT_DATASOURCE_NAME>
4488

> <PUBCHEM_EXT_DATASOURCE_REGID>
SCHEMBL16114031

> <PUBCHEM_SUBSTANCE_COMMENT>
InChI=1S/C16H18N6O7/c1-2-28-12-6(9(24)10(12)25)18-3-5-8(23)11(26)15(29-5)22-4-19-7-13(22)20-16(17)21-14(7)27/h4-5,8,11,15,18,23,26H,2-3H2,1H3,(H3,17,20,21,27)/t5-,8-,11-,15-/m1/s1
InChIKey=LRAULHFVLHPUDP-YWCKQIRYSA-N

> <PUBCHEM_SUBSTANCE_SYNONYM>
SCHEMBL16114031

> <PUBCHEM_XREF_EXT_ID>
SCHEMBL16114031

> <PUBCHEM_EXT_DATASOURCE_URL>
https://www.surechembl.org/

> <PUBCHEM_EXT_SUBSTANCE_URL>
https://www.surechembl.org/chemical/SCHEMBL16114031

> <PUBCHEM_CID_ASSOCIATIONS>
46868130  1

> <PUBCHEM_COORDINATE_TYPE>
1
3

> <PUBCHEM_BONDANNOTATIONS>
14  1  5
18  26  5
17  2  6
19  4  6

$$$$
