310933110
  -OEChem-07211613022D

 31 33  0     0  0  0  0  0  0999 V2000
    3.9913   -2.7418    0.0000 O   0  0  0  0  0  0  0  0  0  0  0  0
    1.2842   -3.0195    0.0000 O   0  0  0  0  0  0  0  0  0  0  0  0
    8.4684   -2.8112    0.0000 O   0  0  0  0  0  0  0  0  0  0  0  0
    9.2320   -6.5249    0.0000 O   0  0  0  0  0  0  0  0  0  0  0  0
    4.8936   -1.5965    0.0000 N   0  0  0  0  0  0  0  0  0  0  0  0
    4.8242   -0.7636    0.0000 N   0  0  0  0  0  0  0  0  0  0  0  0
    6.3514   -1.5965    0.0000 N   0  0  0  0  0  0  0  0  0  0  0  0
    7.7743   -4.0607    0.0000 N   0  0  0  0  0  0  0  0  0  0  0  0
    0.0000   -2.4642    0.0000 N   0  0  0  0  0  0  0  0  0  0  0  0
    3.6095   -1.3189    0.0000 C   0  0  0  0  0  0  0  0  0  0  0  0
    4.1648   -1.9436    0.0000 C   0  0  0  0  0  0  0  0  0  0  0  0
    2.7765   -1.4230    0.0000 C   0  0  0  0  0  0  0  0  0  0  0  0
    5.6225   -2.0130    0.0000 C   0  0  0  0  0  0  0  0  0  0  0  0
    2.2906   -0.7636    0.0000 C   0  0  0  0  0  0  0  0  0  0  0  0
    3.9913   -0.6247    0.0000 C   0  0  0  0  0  0  0  0  0  0  0  0
    2.4642   -2.1865    0.0000 C   0  0  0  0  0  0  0  0  0  0  0  0
    1.6312   -2.2559    0.0000 C   0  0  0  0  0  0  0  0  0  0  0  0
    1.1453   -1.5965    0.0000 C   0  0  0  0  0  0  0  0  0  0  0  0
    1.4577   -0.8677    0.0000 C   0  0  0  0  0  0  0  0  0  0  0  0
    5.6225   -2.8112    0.0000 C   0  0  0  0  0  0  0  0  0  0  0  0
    7.0455   -2.8112    0.0000 C   0  0  0  0  0  0  0  0  0  0  0  0
    7.0455   -2.0130    0.0000 C   0  0  0  0  0  0  0  0  0  0  0  0
    6.3514   -3.2277    0.0000 C   0  0  0  0  0  0  0  0  0  0  0  0
    2.6030    0.0000    0.0000 C   0  0  0  0  0  0  0  0  0  0  0  0
    0.3124   -1.7006    0.0000 C   0  0  0  0  0  0  0  0  0  0  0  0
    7.7743   -3.2277    0.0000 C   0  0  0  0  0  0  0  0  0  0  0  0
    1.8048   -3.6789    0.0000 C   0  0  0  0  0  0  0  0  0  0  0  0
    8.5032   -4.4772    0.0000 C   0  0  0  0  0  0  0  0  0  0  0  0
    8.5032   -5.3102    0.0000 C   0  0  0  0  0  0  0  0  0  0  0  0
    9.1973   -5.6919    0.0000 C   0  0  0  0  0  0  0  0  0  0  0  0
    9.9261   -6.9414    0.0000 C   0  0  0  0  0  0  0  0  0  0  0  0
  1 11  1  0  0  0  0
  2 17  1  0  0  0  0
  2 27  1  0  0  0  0
  3 26  2  0  0  0  0
  4 30  1  0  0  0  0
  4 31  1  0  0  0  0
  5  6  1  0  0  0  0
  5 11  1  0  0  0  0
  5 13  1  0  0  0  0
  6 15  2  0  0  0  0
  7 13  2  0  0  0  0
  7 22  1  0  0  0  0
  8 26  1  0  0  0  0
  8 28  1  0  0  0  0
  9 25  3  0  0  0  0
 10 11  2  0  0  0  0
 10 12  1  0  0  0  0
 10 15  1  0  0  0  0
 12 14  1  0  0  0  0
 12 16  2  0  0  0  0
 13 20  1  0  0  0  0
 14 19  2  0  0  0  0
 14 24  1  0  0  0  0
 16 17  1  0  0  0  0
 17 18  2  0  0  0  0
 18 19  1  0  0  0  0
 18 25  1  0  0  0  0
 20 23  2  0  0  0  0
 21 22  2  0  0  0  0
 21 23  1  0  0  0  0
 21 26  1  0  0  0  0
 28 29  1  0  0  0  0
 29 30  1  0  0  0  0
M  END
> <PUBCHEM_COMPOUND_ID_TYPE>
0

> <PUBCHEM_TOTAL_CHARGE>
0

> <PUBCHEM_SUBSTANCE_ID>
310933110

> <PUBCHEM_SUBSTANCE_VERSION>
1

> <PUBCHEM_EXT_DATASOURCE_NAME>
4488

> <PUBCHEM_EXT_DATASOURCE_REGID>
SCHEMBL16110512

> <PUBCHEM_SUBSTANCE_COMMENT>
InChI=1S/C22H23N5O4/c1-14-9-16(11-23)19(31-3)10-17(14)18-13-26-27(22(18)29)20-6-5-15(12-25-20)21(28)24-7-4-8-30-2/h5-6,9-10,12-13,29H,4,7-8H2,1-3H3,(H,24,28)
InChIKey=HGYQUFYWLXFJOF-UHFFFAOYSA-N

> <PUBCHEM_SUBSTANCE_SYNONYM>
SCHEMBL16110512

> <PUBCHEM_XREF_EXT_ID>
SCHEMBL16110512

> <PUBCHEM_EXT_DATASOURCE_URL>
https://www.surechembl.org/

> <PUBCHEM_EXT_SUBSTANCE_URL>
https://www.surechembl.org/chemical/SCHEMBL16110512

> <PUBCHEM_CID_ASSOCIATIONS>
117601567  1

> <PUBCHEM_COORDINATE_TYPE>
1
3

$$$$
