310928797
  -OEChem-07211613022D

 31 33  0     0  0  0  0  0  0999 V2000
    2.8334   -1.2426    0.0000 Br  0  0  0  0  0  0  0  0  0  0  0  0
   -2.8334   -1.2426    0.0000 Br  0  0  0  0  0  0  0  0  0  0  0  0
   -0.0000   -0.4876    0.0000 Si  0  0  0  0  0  0  0  0  0  0  0  0
    0.6674   -0.9725    0.0000 C   0  0  0  0  0  0  0  0  0  0  0  0
   -0.6674   -0.9725    0.0000 C   0  0  0  0  0  0  0  0  0  0  0  0
    0.4125   -1.7572    0.0000 C   0  0  0  0  0  0  0  0  0  0  0  0
   -0.4125   -1.7572    0.0000 C   0  0  0  0  0  0  0  0  0  0  0  0
    0.4125    0.2268    0.0000 C   0  0  0  0  0  0  0  0  0  0  0  0
   -0.4125    0.2268    0.0000 C   0  0  0  0  0  0  0  0  0  0  0  0
    1.4744   -0.8010    0.0000 C   0  0  0  0  0  0  0  0  0  0  0  0
   -1.4744   -0.8010    0.0000 C   0  0  0  0  0  0  0  0  0  0  0  0
    0.9645   -2.3703    0.0000 C   0  0  0  0  0  0  0  0  0  0  0  0
   -0.9645   -2.3703    0.0000 C   0  0  0  0  0  0  0  0  0  0  0  0
    2.0264   -1.4141    0.0000 C   0  0  0  0  0  0  0  0  0  0  0  0
   -2.0264   -1.4141    0.0000 C   0  0  0  0  0  0  0  0  0  0  0  0
    1.7715   -2.1987    0.0000 C   0  0  0  0  0  0  0  0  0  0  0  0
   -1.7715   -2.1987    0.0000 C   0  0  0  0  0  0  0  0  0  0  0  0
    1.2375    0.2268    0.0000 C   0  0  0  0  0  0  0  0  0  0  0  0
   -1.2375    0.2268    0.0000 C   0  0  0  0  0  0  0  0  0  0  0  0
    1.6500    0.9413    0.0000 C   0  0  0  0  0  0  0  0  0  0  0  0
   -1.6500    0.9413    0.0000 C   0  0  0  0  0  0  0  0  0  0  0  0
    2.4750    0.9413    0.0000 C   0  0  0  0  0  0  0  0  0  0  0  0
   -2.4750    0.9413    0.0000 C   0  0  0  0  0  0  0  0  0  0  0  0
    2.8875    1.6558    0.0000 C   0  0  0  0  0  0  0  0  0  0  0  0
   -2.8875    1.6558    0.0000 C   0  0  0  0  0  0  0  0  0  0  0  0
    3.7125    1.6558    0.0000 C   0  0  0  0  0  0  0  0  0  0  0  0
   -3.7125    1.6558    0.0000 C   0  0  0  0  0  0  0  0  0  0  0  0
    4.1250    2.3703    0.0000 C   0  0  0  0  0  0  0  0  0  0  0  0
   -4.1250    2.3703    0.0000 C   0  0  0  0  0  0  0  0  0  0  0  0
    4.9500    2.3703    0.0000 C   0  0  0  0  0  0  0  0  0  0  0  0
   -4.9500    2.3703    0.0000 C   0  0  0  0  0  0  0  0  0  0  0  0
  1 14  1  0  0  0  0
  2 15  1  0  0  0  0
  3  4  1  0  0  0  0
  3  5  1  0  0  0  0
  3  8  1  0  0  0  0
  3  9  1  0  0  0  0
  4  6  1  0  0  0  0
  4 10  2  0  0  0  0
  5  7  1  0  0  0  0
  5 11  2  0  0  0  0
  6  7  1  0  0  0  0
  6 12  2  0  0  0  0
  7 13  2  0  0  0  0
  8 18  1  0  0  0  0
  9 19  1  0  0  0  0
 10 14  1  0  0  0  0
 11 15  1  0  0  0  0
 12 16  1  0  0  0  0
 13 17  1  0  0  0  0
 14 16  2  0  0  0  0
 15 17  2  0  0  0  0
 18 20  1  0  0  0  0
 19 21  1  0  0  0  0
 20 22  1  0  0  0  0
 21 23  1  0  0  0  0
 22 24  1  0  0  0  0
 23 25  1  0  0  0  0
 24 26  1  0  0  0  0
 25 27  1  0  0  0  0
 26 28  1  0  0  0  0
 27 29  1  0  0  0  0
 28 30  1  0  0  0  0
 29 31  1  0  0  0  0
M  END
> <PUBCHEM_COMPOUND_ID_TYPE>
0

> <PUBCHEM_TOTAL_CHARGE>
0

> <PUBCHEM_SUBSTANCE_ID>
310928797

> <PUBCHEM_SUBSTANCE_VERSION>
1

> <PUBCHEM_EXT_DATASOURCE_NAME>
11752

> <PUBCHEM_EXT_DATASOURCE_REGID>
BD254692

> <PUBCHEM_SUBSTANCE_SYNONYM>
3,7-Dibromo-5,5-dioctyl-5H-dibenzo[b,d]silole
891182-24-4

> <PUBCHEM_GENERIC_REGISTRY_NAME>
891182-24-4

> <PUBCHEM_XREF_EXT_ID>
BD254692

> <PUBCHEM_EXT_DATASOURCE_URL>
http://www.bidepharmatech.com/en/index.html

> <PUBCHEM_EXT_SUBSTANCE_URL>
http://www.bidepharmatech.com/en/goodsview_goodscode_BD254692.html

> <PUBCHEM_CID_ASSOCIATIONS>
57892317  1

> <PUBCHEM_COORDINATE_TYPE>
1
3

$$$$
