310942901
  -OEChem-07211613022D

 38 43  0     0  0  0  0  0  0999 V2000
    7.0107   -1.0220    0.0000 F   0  0  0  0  0  0  0  0  0  0  0  0
   -5.5405   -0.6275    0.0000 O   0  0  0  0  0  0  0  0  0  0  0  0
    4.7157    0.8427    0.0000 O   0  0  0  0  0  0  0  0  0  0  0  0
   -2.6537   -0.6275    0.0000 O   0  0  0  0  0  0  0  0  0  0  0  0
   -5.5405    1.8648    0.0000 O   0  0  0  0  0  0  0  0  0  0  0  0
    3.9088    0.6634    0.0000 N   0  0  0  0  0  0  0  0  0  0  0  0
    1.6675   -1.3985    0.0000 N   0  0  0  0  0  0  0  0  0  0  0  0
    4.5722   -0.4841    0.0000 C   0  0  0  0  0  0  0  0  0  0  0  0
    3.8012   -0.1434    0.0000 C   0  0  0  0  0  0  0  0  0  0  0  0
    5.1281    0.1255    0.0000 C   0  0  0  0  0  0  0  0  0  0  0  0
   -4.8053    0.6275    0.0000 C   0  0  0  0  0  0  0  0  0  0  0  0
   -4.8053   -0.2152    0.0000 C   0  0  0  0  0  0  0  0  0  0  0  0
    3.1020   -0.5558    0.0000 C   0  0  0  0  0  0  0  0  0  0  0  0
   -6.2577   -0.1972    0.0000 C   0  0  0  0  0  0  0  0  0  0  0  0
   -5.5405    1.0400    0.0000 C   0  0  0  0  0  0  0  0  0  0  0  0
   -6.2397    0.6275    0.0000 C   0  0  0  0  0  0  0  0  0  0  0  0
    4.8412   -1.2730    0.0000 C   0  0  0  0  0  0  0  0  0  0  0  0
    5.9349   -0.0538    0.0000 C   0  0  0  0  0  0  0  0  0  0  0  0
   -4.0881   -0.6096    0.0000 C   0  0  0  0  0  0  0  0  0  0  0  0
   -3.3709   -0.1972    0.0000 C   0  0  0  0  0  0  0  0  0  0  0  0
   -4.1061    1.0220    0.0000 C   0  0  0  0  0  0  0  0  0  0  0  0
    6.1860   -0.8248    0.0000 C   0  0  0  0  0  0  0  0  0  0  0  0
    3.0840   -1.3985    0.0000 C   0  0  0  0  0  0  0  0  0  0  0  0
    2.3668   -0.1614    0.0000 C   0  0  0  0  0  0  0  0  0  0  0  0
    5.6480   -1.4344    0.0000 C   0  0  0  0  0  0  0  0  0  0  0  0
   -3.3888    0.6097    0.0000 C   0  0  0  0  0  0  0  0  0  0  0  0
    2.4027   -1.8110    0.0000 C   0  0  0  0  0  0  0  0  0  0  0  0
    1.6675   -0.5738    0.0000 C   0  0  0  0  0  0  0  0  0  0  0  0
   -7.0107    0.1255    0.0000 C   0  0  0  0  0  0  0  0  0  0  0  0
   -6.3294   -1.0399    0.0000 C   0  0  0  0  0  0  0  0  0  0  0  0
    0.9503   -1.8648    0.0000 C   0  0  0  0  0  0  0  0  0  0  0  0
    0.2152   -1.4524    0.0000 C   0  0  0  0  0  0  0  0  0  0  0  0
   -1.2193   -0.6275    0.0000 C   0  0  0  0  0  0  0  0  0  0  0  0
   -1.9365   -0.2152    0.0000 C   0  0  0  0  0  0  0  0  0  0  0  0
   -0.4841   -1.8468    0.0000 C   0  0  0  0  0  0  0  0  0  0  0  0
    0.2152   -0.6275    0.0000 C   0  0  0  0  0  0  0  0  0  0  0  0
   -1.2013   -1.4524    0.0000 C   0  0  0  0  0  0  0  0  0  0  0  0
   -0.4841   -0.2152    0.0000 C   0  0  0  0  0  0  0  0  0  0  0  0
  1 22  1  0  0  0  0
  2 12  1  0  0  0  0
  2 14  1  0  0  0  0
  3  6  1  0  0  0  0
  3 10  1  0  0  0  0
  4 20  1  0  0  0  0
  4 34  1  0  0  0  0
  5 15  2  0  0  0  0
  6  9  2  0  0  0  0
  7 27  1  0  0  0  0
  7 28  1  0  0  0  0
  7 31  1  0  0  0  0
  8  9  1  0  0  0  0
  8 10  2  0  0  0  0
  8 17  1  0  0  0  0
  9 13  1  0  0  0  0
 10 18  1  0  0  0  0
 11 12  2  0  0  0  0
 11 15  1  0  0  0  0
 11 21  1  0  0  0  0
 12 19  1  0  0  0  0
 13 23  1  0  0  0  0
 13 24  1  0  0  0  0
 14 16  1  0  0  0  0
 14 29  1  0  0  0  0
 14 30  1  0  0  0  0
 15 16  1  0  0  0  0
 17 25  2  0  0  0  0
 18 22  2  0  0  0  0
 19 20  2  0  0  0  0
 20 26  1  0  0  0  0
 21 26  2  0  0  0  0
 22 25  1  0  0  0  0
 23 27  1  0  0  0  0
 24 28  1  0  0  0  0
 31 32  1  0  0  0  0
 32 35  1  0  0  0  0
 32 36  1  0  0  0  0
 33 34  1  0  0  0  0
 33 37  1  0  0  0  0
 33 38  1  0  0  0  0
 35 37  1  0  0  0  0
 36 38  1  0  0  0  0
M  END
> <PUBCHEM_COMPOUND_ID_TYPE>
0

> <PUBCHEM_TOTAL_CHARGE>
0

> <PUBCHEM_SUBSTANCE_ID>
310942901

> <PUBCHEM_SUBSTANCE_VERSION>
1

> <PUBCHEM_EXT_DATASOURCE_NAME>
4488

> <PUBCHEM_EXT_DATASOURCE_REGID>
SCHEMBL16120959

> <PUBCHEM_SUBSTANCE_COMMENT>
InChI=1S/C31H37FN2O4/c1-31(2)17-27(35)25-10-8-24(16-28(25)37-31)36-19-21-5-3-20(4-6-21)18-34-13-11-22(12-14-34)30-26-9-7-23(32)15-29(26)38-33-30/h7-10,15-16,20-22H,3-6,11-14,17-19H2,1-2H3
InChIKey=UXFHTXWQOKQWKC-UHFFFAOYSA-N

> <PUBCHEM_SUBSTANCE_SYNONYM>
SCHEMBL16120959

> <PUBCHEM_XREF_EXT_ID>
SCHEMBL16120959

> <PUBCHEM_EXT_DATASOURCE_URL>
https://www.surechembl.org/

> <PUBCHEM_EXT_SUBSTANCE_URL>
https://www.surechembl.org/chemical/SCHEMBL16120959

> <PUBCHEM_CID_ASSOCIATIONS>
86275441  1

> <PUBCHEM_COORDINATE_TYPE>
1
3

$$$$
