310941034
  -OEChem-07211613022D

 41 44  0     1  0  0  0  0  0999 V2000
    5.2065   -1.0045    0.0000 O   0  0  0  0  0  0  0  0  0  0  0  0
    4.0746    0.9479    0.0000 O   0  0  0  0  0  0  0  0  0  0  0  0
    2.5467   -2.6033    0.0000 O   0  0  0  0  0  0  0  0  0  0  0  0
    1.6978   -0.9904    0.0000 O   0  0  0  0  0  0  0  0  0  0  0  0
   -0.4669    1.0752    0.0000 O   0  0  0  0  0  0  0  0  0  0  0  0
    3.8624    2.7306    0.0000 O   0  0  0  0  0  0  0  0  0  0  0  0
   -2.6316   -0.9904    0.0000 O   0  0  0  0  0  0  0  0  0  0  0  0
   -5.5036   -0.9904    0.0000 O   0  0  0  0  0  0  0  0  0  0  0  0
    2.4193    0.2406    0.0000 N   0  0  0  0  0  0  0  0  0  0  0  0
    0.2547   -0.1697    0.0000 N   0  0  0  0  0  0  0  0  0  0  0  0
   -1.8958    0.2406    0.0000 N   0  0  0  0  0  0  0  0  0  0  0  0
   -4.0605   -0.1697    0.0000 N   0  0  0  0  0  0  0  0  0  0  0  0
    4.7962   -0.2830    0.0000 C   0  0  3  0  0  0  0  0  0  0  0  0
    4.0181    0.1273    0.0000 C   0  0  0  0  0  0  0  0  0  0  0  0
    4.4001   -0.9621    0.0000 C   0  0  0  0  0  0  0  0  0  0  0  0
    3.3814   -0.2547    0.0000 C   0  0  3  0  0  0  0  0  0  0  0  0
    5.5036    0.1415    0.0000 C   0  0  0  0  0  0  0  0  0  0  0  0
    3.2965   -1.3016    0.0000 C   0  0  0  0  0  0  0  0  0  0  0  0
    1.7119   -0.1132    0.0000 C   0  0  0  0  0  0  0  0  0  0  0  0
    0.9762    0.2688    0.0000 C   0  0  3  0  0  0  0  0  0  0  0  0
    2.6457   -1.7544    0.0000 C   0  0  3  0  0  0  0  0  0  0  0  0
    0.9904    1.1035    0.0000 C   0  0  0  0  0  0  0  0  0  0  0  0
    1.8817   -1.4289    0.0000 C   0  0  0  0  0  0  0  0  0  0  0  0
    1.7119    1.5138    0.0000 C   0  0  0  0  0  0  0  0  0  0  0  0
   -0.4527    0.2547    0.0000 C   0  0  0  0  0  0  0  0  0  0  0  0
   -1.1602   -0.1273    0.0000 C   0  0  3  0  0  0  0  0  0  0  0  0
    1.7402   -2.7306    0.0000 C   0  0  0  0  0  0  0  0  0  0  0  0
    1.3299   -2.0514    0.0000 C   0  0  0  0  0  0  0  0  0  0  0  0
    2.4334    1.1035    0.0000 C   0  0  0  0  0  0  0  0  0  0  0  0
    1.7261    2.3486    0.0000 C   0  0  0  0  0  0  0  0  0  0  0  0
    3.1409    2.3486    0.0000 C   0  0  0  0  0  0  0  0  0  0  0  0
    3.1409    1.5138    0.0000 C   0  0  0  0  0  0  0  0  0  0  0  0
    2.4193    2.7306    0.0000 C   0  0  0  0  0  0  0  0  0  0  0  0
   -2.6033   -0.1132    0.0000 C   0  0  0  0  0  0  0  0  0  0  0  0
   -3.3531    0.2688    0.0000 C   0  0  0  0  0  0  0  0  0  0  0  0
   -1.1743   -0.9479    0.0000 C   0  0  0  0  0  0  0  0  0  0  0  0
   -4.0605   -0.9621    0.0000 C   0  0  0  0  0  0  0  0  0  0  0  0
   -4.7962    0.2688    0.0000 C   0  0  0  0  0  0  0  0  0  0  0  0
   -4.7537   -1.3724    0.0000 C   0  0  0  0  0  0  0  0  0  0  0  0
   -5.4894   -0.1415    0.0000 C   0  0  0  0  0  0  0  0  0  0  0  0
    4.5981    2.3344    0.0000 C   0  0  0  0  0  0  0  0  0  0  0  0
  1 13  1  0  0  0  0
  1 15  1  0  0  0  0
  2 14  2  0  0  0  0
  3 21  1  0  0  0  0
  3 27  1  0  0  0  0
  4 19  2  0  0  0  0
  5 25  2  0  0  0  0
  6 31  1  0  0  0  0
  6 41  1  0  0  0  0
  7 34  2  0  0  0  0
  8 39  1  0  0  0  0
  8 40  1  0  0  0  0
 16  9  1  6  0  0  0
  9 19  1  0  0  0  0
 20 10  1  1  0  0  0
 10 25  1  0  0  0  0
 11 26  1  0  0  0  0
 11 34  1  0  0  0  0
 12 35  1  0  0  0  0
 12 37  1  0  0  0  0
 12 38  1  0  0  0  0
 13 14  1  6  0  0  0
 13 15  1  0  0  0  0
 13 17  1  1  0  0  0
 14 16  1  0  0  0  0
 16 18  1  0  0  0  0
 21 18  1  6  0  0  0
 19 20  1  0  0  0  0
 20 22  1  0  0  0  0
 21 23  1  0  0  0  0
 22 24  1  0  0  0  0
 23 28  1  0  0  0  0
 24 29  2  0  0  0  0
 24 30  1  0  0  0  0
 25 26  1  0  0  0  0
 26 36  1  6  0  0  0
 27 28  1  0  0  0  0
 29 32  1  0  0  0  0
 30 33  2  0  0  0  0
 31 32  2  0  0  0  0
 31 33  1  0  0  0  0
 34 35  1  0  0  0  0
 37 39  1  0  0  0  0
 38 40  1  0  0  0  0
M  END
> <PUBCHEM_COMPOUND_ID_TYPE>
0

> <PUBCHEM_TOTAL_CHARGE>
0

> <PUBCHEM_SUBSTANCE_ID>
310941034

> <PUBCHEM_SUBSTANCE_VERSION>
1

> <PUBCHEM_EXT_DATASOURCE_NAME>
4488

> <PUBCHEM_EXT_DATASOURCE_REGID>
SCHEMBL16118993

> <PUBCHEM_SUBSTANCE_COMMENT>
InChI=1S/C29H42N4O8/c1-19(30-25(34)17-33-10-13-39-14-11-33)27(36)32-24(15-20-6-8-21(38-3)9-7-20)28(37)31-23(16-22-5-4-12-40-22)26(35)29(2)18-41-29/h6-9,19,22-24H,4-5,10-18H2,1-3H3,(H,30,34)(H,31,37)(H,32,36)/t19-,22+,23-,24-,29+/m0/s1
InChIKey=RXAQHZMQIAWMLA-PWXYPQOQSA-N

> <PUBCHEM_SUBSTANCE_SYNONYM>
SCHEMBL16118993

> <PUBCHEM_XREF_EXT_ID>
SCHEMBL16118993

> <PUBCHEM_EXT_DATASOURCE_URL>
https://www.surechembl.org/

> <PUBCHEM_EXT_SUBSTANCE_URL>
https://www.surechembl.org/chemical/SCHEMBL16118993

> <PUBCHEM_CID_ASSOCIATIONS>
117607928  1

> <PUBCHEM_COORDINATE_TYPE>
1
3

> <PUBCHEM_BONDANNOTATIONS>
20  10  5
13  14  6
13  17  5
21  18  6
26  36  6
16  9  6

$$$$
