310940519
  -OEChem-07211613022D

 31 35  0     1  0  0  0  0  0999 V2000
    2.7366   -0.2009    0.0000 O   0  0  0  0  0  0  0  0  0  0  0  0
   -1.4895   -0.3395    0.0000 O   0  0  0  0  0  0  0  0  0  0  0  0
    2.8058    1.2678    0.0000 O   0  0  0  0  0  0  0  0  0  0  0  0
   -2.8058   -2.2793    0.0000 O   0  0  0  0  0  0  0  0  0  0  0  0
    1.5588    0.4642    0.0000 N   0  0  0  0  0  0  0  0  0  0  0  0
    1.3925   -1.9883    0.0000 N   0  0  0  0  0  0  0  0  0  0  0  0
   -2.3901   -2.9859    0.0000 N   0  0  0  0  0  0  0  0  0  0  0  0
    1.3648   -0.3533    0.0000 C   0  0  0  0  0  0  0  0  0  0  0  0
    0.6582   -0.7690    0.0000 C   0  0  0  0  0  0  0  0  0  0  0  0
    2.0991   -0.7690    0.0000 C   0  0  0  0  0  0  0  0  0  0  0  0
    0.6582   -1.5865    0.0000 C   0  0  0  0  0  0  0  0  0  0  0  0
    2.3763    0.5196    0.0000 C   0  0  0  0  0  0  0  0  0  0  0  0
   -0.7967   -1.6004    0.0000 C   0  0  0  0  0  0  0  0  0  0  0  0
   -0.7690   -0.7690    0.0000 C   0  0  0  0  0  0  0  0  0  0  0  0
   -0.0623   -0.3672    0.0000 C   0  0  0  0  0  0  0  0  0  0  0  0
    1.0184    1.0877    0.0000 C   0  0  3  0  0  0  0  0  0  0  0  0
   -0.0623   -2.0021    0.0000 C   0  0  0  0  0  0  0  0  0  0  0  0
   -1.4895   -2.0161    0.0000 C   0  0  0  0  0  0  0  0  0  0  0  0
    2.0991   -1.6004    0.0000 C   0  0  0  0  0  0  0  0  0  0  0  0
    1.2540    1.8636    0.0000 C   0  0  0  0  0  0  0  0  0  0  0  0
   -2.2516   -1.6558    0.0000 C   0  0  0  0  0  0  0  0  0  0  0  0
   -1.6004   -2.8197    0.0000 C   0  0  0  0  0  0  0  0  0  0  0  0
    0.2979    0.9075    0.0000 C   0  0  0  0  0  0  0  0  0  0  0  0
    0.7136    2.4733    0.0000 C   0  0  0  0  0  0  0  0  0  0  0  0
    2.0715    2.0299    0.0000 C   0  0  0  0  0  0  0  0  0  0  0  0
   -2.4317   -0.8521    0.0000 C   0  0  0  0  0  0  0  0  0  0  0  0
   -0.9491   -3.4155    0.0000 C   0  0  0  0  0  0  0  0  0  0  0  0
   -1.5034    0.4918    0.0000 C   0  0  0  0  0  0  0  0  0  0  0  0
    0.9629    3.2492    0.0000 C   0  0  0  0  0  0  0  0  0  0  0  0
    2.3209    2.8335    0.0000 C   0  0  0  0  0  0  0  0  0  0  0  0
    1.7805    3.4155    0.0000 C   0  0  0  0  0  0  0  0  0  0  0  0
  1 10  1  0  0  0  0
  1 12  1  0  0  0  0
  2 14  1  0  0  0  0
  2 28  1  0  0  0  0
  3 12  2  0  0  0  0
  4  7  1  0  0  0  0
  4 21  1  0  0  0  0
  5  8  1  0  0  0  0
  5 12  1  0  0  0  0
  5 16  1  0  0  0  0
  6 11  1  0  0  0  0
  6 19  2  0  0  0  0
  7 22  2  0  0  0  0
  8  9  1  0  0  0  0
  8 10  2  0  0  0  0
  9 11  1  0  0  0  0
  9 15  2  0  0  0  0
 10 19  1  0  0  0  0
 11 17  2  0  0  0  0
 13 14  2  0  0  0  0
 13 17  1  0  0  0  0
 13 18  1  0  0  0  0
 14 15  1  0  0  0  0
 16 20  1  0  0  0  0
 16 23  1  6  0  0  0
 18 21  2  0  0  0  0
 18 22  1  0  0  0  0
 20 24  2  0  0  0  0
 20 25  1  0  0  0  0
 21 26  1  0  0  0  0
 22 27  1  0  0  0  0
 24 29  1  0  0  0  0
 25 30  2  0  0  0  0
 29 31  2  0  0  0  0
 30 31  1  0  0  0  0
M  END
> <PUBCHEM_COMPOUND_ID_TYPE>
0

> <PUBCHEM_TOTAL_CHARGE>
0

> <PUBCHEM_SUBSTANCE_ID>
310940519

> <PUBCHEM_SUBSTANCE_VERSION>
1

> <PUBCHEM_EXT_DATASOURCE_NAME>
4488

> <PUBCHEM_EXT_DATASOURCE_REGID>
SCHEMBL16118473

> <PUBCHEM_SUBSTANCE_COMMENT>
InChI=1S/C24H21N3O4/c1-13-22(15(3)31-26-13)18-10-19-17(11-20(18)29-4)23-21(12-25-19)30-24(28)27(23)14(2)16-8-6-5-7-9-16/h5-12,14H,1-4H3/t14-/m1/s1
InChIKey=RYMLIHXLIHUWGD-CQSZACIVSA-N

> <PUBCHEM_SUBSTANCE_SYNONYM>
SCHEMBL16118473

> <PUBCHEM_XREF_EXT_ID>
SCHEMBL16118473

> <PUBCHEM_EXT_DATASOURCE_URL>
https://www.surechembl.org/

> <PUBCHEM_EXT_SUBSTANCE_URL>
https://www.surechembl.org/chemical/SCHEMBL16118473

> <PUBCHEM_CID_ASSOCIATIONS>
117607533  1

> <PUBCHEM_COORDINATE_TYPE>
1
3

> <PUBCHEM_BONDANNOTATIONS>
16  23  6

$$$$
