310943607
  -OEChem-07211613022D

 34 37  0     0  0  0  0  0  0999 V2000
    4.2599    0.4125    0.0000 F   0  0  0  0  0  0  0  0  0  0  0  0
    5.0512   -0.2105    0.0000 F   0  0  0  0  0  0  0  0  0  0  0  0
    4.9670   -0.8335    0.0000 F   0  0  0  0  0  0  0  0  0  0  0  0
    0.6735   -0.8335    0.0000 O   0  0  0  0  0  0  0  0  0  0  0  0
   -5.0512    1.6585    0.0000 O   0  0  0  0  0  0  0  0  0  0  0  0
   -3.6201    0.8166    0.0000 N   0  0  0  0  0  0  0  0  0  0  0  0
    1.3975    0.4125    0.0000 N   0  0  0  0  0  0  0  0  0  0  0  0
   -0.0337    2.0626    0.0000 N   0  0  0  0  0  0  0  0  0  0  0  0
   -4.3272   -1.2544    0.0000 N   0  0  0  0  0  0  0  0  0  0  0  0
   -0.7745    0.8335    0.0000 C   0  0  0  0  0  0  0  0  0  0  0  0
   -1.4648    0.4125    0.0000 C   0  0  0  0  0  0  0  0  0  0  0  0
   -2.8961    0.4125    0.0000 C   0  0  0  0  0  0  0  0  0  0  0  0
   -2.2057    0.8166    0.0000 C   0  0  0  0  0  0  0  0  0  0  0  0
   -2.8961   -0.4125    0.0000 C   0  0  0  0  0  0  0  0  0  0  0  0
   -0.7577    1.6585    0.0000 C   0  0  0  0  0  0  0  0  0  0  0  0
    0.6566    0.8335    0.0000 C   0  0  0  0  0  0  0  0  0  0  0  0
   -0.0168    0.4125    0.0000 C   0  0  0  0  0  0  0  0  0  0  0  0
   -1.4817   -0.4125    0.0000 C   0  0  0  0  0  0  0  0  0  0  0  0
    2.1216   -0.8335    0.0000 C   0  0  0  0  0  0  0  0  0  0  0  0
   -2.1888   -0.8166    0.0000 C   0  0  0  0  0  0  0  0  0  0  0  0
    3.5359   -0.8335    0.0000 C   0  0  0  0  0  0  0  0  0  0  0  0
    1.3975   -0.3957    0.0000 C   0  0  0  0  0  0  0  0  0  0  0  0
    4.2767   -0.4125    0.0000 C   0  0  0  0  0  0  0  0  0  0  0  0
    0.6903    1.6417    0.0000 C   0  0  0  0  0  0  0  0  0  0  0  0
    2.8119   -0.4294    0.0000 C   0  0  0  0  0  0  0  0  0  0  0  0
   -3.6201    1.6585    0.0000 C   0  0  0  0  0  0  0  0  0  0  0  0
   -4.3104    0.4125    0.0000 C   0  0  0  0  0  0  0  0  0  0  0  0
   -3.6032   -0.8166    0.0000 C   0  0  0  0  0  0  0  0  0  0  0  0
    2.1216   -1.6585    0.0000 C   0  0  0  0  0  0  0  0  0  0  0  0
    3.5359   -1.6585    0.0000 C   0  0  0  0  0  0  0  0  0  0  0  0
    2.8287   -2.0626    0.0000 C   0  0  0  0  0  0  0  0  0  0  0  0
   -1.4817    2.0458    0.0000 C   0  0  0  0  0  0  0  0  0  0  0  0
   -4.3441    2.0626    0.0000 C   0  0  0  0  0  0  0  0  0  0  0  0
   -5.0344    0.8166    0.0000 C   0  0  0  0  0  0  0  0  0  0  0  0
  1 23  1  0  0  0  0
  2 23  1  0  0  0  0
  3 23  1  0  0  0  0
  4 22  2  0  0  0  0
  5 33  1  0  0  0  0
  5 34  1  0  0  0  0
  6 12  1  0  0  0  0
  6 26  1  0  0  0  0
  6 27  1  0  0  0  0
  7 16  1  0  0  0  0
  7 22  1  0  0  0  0
  8 15  1  0  0  0  0
  8 24  2  0  0  0  0
  9 28  3  0  0  0  0
 10 11  1  0  0  0  0
 10 15  2  0  0  0  0
 10 17  1  0  0  0  0
 11 13  1  0  0  0  0
 11 18  2  0  0  0  0
 12 13  2  0  0  0  0
 12 14  1  0  0  0  0
 14 20  2  0  0  0  0
 14 28  1  0  0  0  0
 15 32  1  0  0  0  0
 16 17  2  0  0  0  0
 16 24  1  0  0  0  0
 18 20  1  0  0  0  0
 19 22  1  0  0  0  0
 19 25  1  0  0  0  0
 19 29  2  0  0  0  0
 21 23  1  0  0  0  0
 21 25  2  0  0  0  0
 21 30  1  0  0  0  0
 26 33  1  0  0  0  0
 27 34  1  0  0  0  0
 29 31  1  0  0  0  0
 30 31  2  0  0  0  0
M  END
> <PUBCHEM_COMPOUND_ID_TYPE>
0

> <PUBCHEM_TOTAL_CHARGE>
0

> <PUBCHEM_SUBSTANCE_ID>
310943607

> <PUBCHEM_SUBSTANCE_VERSION>
1

> <PUBCHEM_EXT_DATASOURCE_NAME>
4488

> <PUBCHEM_EXT_DATASOURCE_REGID>
SCHEMBL16121674

> <PUBCHEM_SUBSTANCE_COMMENT>
InChI=1S/C25H21F3N4O2/c1-16-22(17-5-6-19(14-29)23(12-17)32-7-9-34-10-8-32)13-21(15-30-16)31-24(33)18-3-2-4-20(11-18)25(26,27)28/h2-6,11-13,15H,7-10H2,1H3,(H,31,33)
InChIKey=PZVHJGYHGMDVGJ-UHFFFAOYSA-N

> <PUBCHEM_SUBSTANCE_SYNONYM>
SCHEMBL16121674

> <PUBCHEM_XREF_EXT_ID>
SCHEMBL16121674

> <PUBCHEM_EXT_DATASOURCE_URL>
https://www.surechembl.org/

> <PUBCHEM_EXT_SUBSTANCE_URL>
https://www.surechembl.org/chemical/SCHEMBL16121674

> <PUBCHEM_CID_ASSOCIATIONS>
117609998  1

> <PUBCHEM_COORDINATE_TYPE>
1
3

$$$$
