310947579
  -OEChem-07211613022D

 42 45  0     1  0  0  0  0  0999 V2000
   -1.0875    4.3803    0.0000 P   0  0  3  0  0  0  0  0  0  0  0  0
    0.7185    1.9280    0.0000 F   0  0  0  0  0  0  0  0  0  0  0  0
    1.5435    3.9120    0.0000 O   0  0  0  0  0  0  0  0  0  0  0  0
    2.3685    1.9280    0.0000 O   0  0  0  0  0  0  0  0  0  0  0  0
   -0.5041    3.7969    0.0000 O   0  0  0  0  0  0  0  0  0  0  0  0
   -1.6709    4.9636    0.0000 O   0  0  0  0  0  0  0  0  0  0  0  0
   -0.5041    4.9636    0.0000 O   0  0  0  0  0  0  0  0  0  0  0  0
   -2.3853    1.7344    0.0000 O   0  0  0  0  0  0  0  0  0  0  0  0
   -3.0998    2.9719    0.0000 O   0  0  0  0  0  0  0  0  0  0  0  0
    2.2110    4.2521    0.0000 N   0  0  0  0  0  0  0  0  0  0  0  0
    2.9255    5.4896    0.0000 N   0  0  0  0  0  0  0  0  0  0  0  0
   -1.6709    3.7969    0.0000 N   0  0  0  0  0  0  0  0  0  0  0  0
    2.2110    6.7271    0.0000 N   0  0  0  0  0  0  0  0  0  0  0  0
    1.9560    2.6425    0.0000 C   0  0  3  0  0  0  0  0  0  0  0  0
    2.2110    3.4271    0.0000 C   0  0  3  0  0  0  0  0  0  0  0  0
    1.1310    2.6425    0.0000 C   0  0  3  0  0  0  0  0  0  0  0  0
    0.8761    3.4271    0.0000 C   0  0  3  0  0  0  0  0  0  0  0  0
    2.9255    4.6646    0.0000 C   0  0  0  0  0  0  0  0  0  0  0  0
    0.2927    4.0104    0.0000 C   0  0  0  0  0  0  0  0  0  0  0  0
    2.7529    2.8560    0.0000 C   0  0  0  0  0  0  0  0  0  0  0  0
    1.4965    4.6646    0.0000 C   0  0  0  0  0  0  0  0  0  0  0  0
   -1.6709    5.7886    0.0000 C   0  0  0  0  0  0  0  0  0  0  0  0
   -2.3853    6.2011    0.0000 C   0  0  0  0  0  0  0  0  0  0  0  0
    1.4965    5.4896    0.0000 C   0  0  0  0  0  0  0  0  0  0  0  0
    2.2110    5.9021    0.0000 C   0  0  0  0  0  0  0  0  0  0  0  0
   -2.3853    7.0261    0.0000 C   0  0  0  0  0  0  0  0  0  0  0  0
    3.6399    4.2521    0.0000 C   0  0  0  0  0  0  0  0  0  0  0  0
   -1.6709    2.9719    0.0000 C   0  0  3  0  0  0  0  0  0  0  0  0
   -0.9564    6.2011    0.0000 C   0  0  0  0  0  0  0  0  0  0  0  0
   -3.0998    5.7886    0.0000 C   0  0  0  0  0  0  0  0  0  0  0  0
   -1.6709    7.4386    0.0000 C   0  0  0  0  0  0  0  0  0  0  0  0
   -0.9564    7.0261    0.0000 C   0  0  0  0  0  0  0  0  0  0  0  0
   -3.0998    7.4386    0.0000 C   0  0  0  0  0  0  0  0  0  0  0  0
   -2.3853    2.5594    0.0000 C   0  0  0  0  0  0  0  0  0  0  0  0
   -3.8143    6.2011    0.0000 C   0  0  0  0  0  0  0  0  0  0  0  0
   -3.8143    7.0261    0.0000 C   0  0  0  0  0  0  0  0  0  0  0  0
   -0.9564    2.5594    0.0000 C   0  0  0  0  0  0  0  0  0  0  0  0
   -3.0998    1.3219    0.0000 C   0  0  0  0  0  0  0  0  0  0  0  0
   -3.8143    1.7344    0.0000 C   0  0  0  0  0  0  0  0  0  0  0  0
   -3.8143    2.5594    0.0000 C   0  0  0  0  0  0  0  0  0  0  0  0
   -4.5288    1.3219    0.0000 C   0  0  0  0  0  0  0  0  0  0  0  0
   -4.5288    2.1469    0.0000 C   0  0  0  0  0  0  0  0  0  0  0  0
  1  5  1  0  0  0  0
  1  6  1  0  0  0  0
  1  7  2  0  0  0  0
  1 12  1  0  0  0  0
 16  2  1  6  0  0  0
 15  3  1  6  0  0  0
  3 17  1  0  0  0  0
 14  4  1  6  0  0  0
  5 19  1  0  0  0  0
  6 22  1  0  0  0  0
  8 34  1  0  0  0  0
  8 38  1  0  0  0  0
  9 34  2  0  0  0  0
 10 15  1  0  0  0  0
 10 18  1  0  0  0  0
 10 21  1  0  0  0  0
 11 18  1  0  0  0  0
 11 25  2  0  0  0  0
 12 28  1  0  0  0  0
 13 25  1  0  0  0  0
 14 15  1  0  0  0  0
 14 16  1  0  0  0  0
 14 20  1  1  0  0  0
 16 17  1  0  0  0  0
 17 19  1  1  0  0  0
 18 27  2  0  0  0  0
 21 24  2  0  0  0  0
 22 23  1  0  0  0  0
 22 29  2  0  0  0  0
 23 26  2  0  0  0  0
 23 30  1  0  0  0  0
 24 25  1  0  0  0  0
 26 31  1  0  0  0  0
 26 33  1  0  0  0  0
 28 34  1  0  0  0  0
 28 37  1  1  0  0  0
 29 32  1  0  0  0  0
 30 35  2  0  0  0  0
 31 32  2  0  0  0  0
 33 36  2  0  0  0  0
 35 36  1  0  0  0  0
 38 39  1  0  0  0  0
 39 40  1  0  0  0  0
 39 41  1  0  0  0  0
 39 42  1  0  0  0  0
M  END
> <PUBCHEM_COMPOUND_ID_TYPE>
0

> <PUBCHEM_TOTAL_CHARGE>
0

> <PUBCHEM_SUBSTANCE_ID>
310947579

> <PUBCHEM_SUBSTANCE_VERSION>
1

> <PUBCHEM_EXT_DATASOURCE_NAME>
4488

> <PUBCHEM_EXT_DATASOURCE_REGID>
SCHEMBL16125742

> <PUBCHEM_SUBSTANCE_COMMENT>
InChI=1S/C29H38FN4O7P/c1-18(26(35)38-17-28(3,4)5)33-42(37,41-22-13-9-11-20-10-7-8-12-21(20)22)39-16-23-25(30)29(6,36)27(40-23)34-15-14-24(31)32-19(34)2/h7-15,18,23,25,27,36H,2,16-17H2,1,3-6H3,(H2,31,32)(H,33,37)/t18-,23+,25+,27+,29+,42?/m0/s1
InChIKey=NPQMFBHPSRKVOR-RLZAPYLOSA-N

> <PUBCHEM_SUBSTANCE_SYNONYM>
SCHEMBL16125742

> <PUBCHEM_XREF_EXT_ID>
SCHEMBL16125742

> <PUBCHEM_EXT_DATASOURCE_URL>
https://www.surechembl.org/

> <PUBCHEM_EXT_SUBSTANCE_URL>
https://www.surechembl.org/chemical/SCHEMBL16125742

> <PUBCHEM_CID_ASSOCIATIONS>
117613301  1

> <PUBCHEM_COORDINATE_TYPE>
1
3

> <PUBCHEM_BONDANNOTATIONS>
14  20  5
17  19  5
16  2  6
28  37  5
15  3  6
14  4  6

$$$$
