310947038
  -OEChem-07211613022D

 26 29  0     0  0  0  0  0  0999 V2000
    4.2615    0.9210    0.0000 O   0  0  0  0  0  0  0  0  0  0  0  0
    3.4428   -0.5994    0.0000 O   0  0  0  0  0  0  0  0  0  0  0  0
   -0.7967   -0.6432    0.0000 N   0  0  0  0  0  0  0  0  0  0  0  0
   -0.7967   -1.9736    0.0000 N   0  0  0  0  0  0  0  0  0  0  0  0
   -2.3025   -2.1344    0.0000 N   0  0  0  0  0  0  0  0  0  0  0  0
   -3.7498   -0.4825    0.0000 N   0  0  0  0  0  0  0  0  0  0  0  0
    2.2002    0.1169    0.0000 N   0  0  0  0  0  0  0  0  0  0  0  0
   -1.5716   -0.8918    0.0000 C   0  0  0  0  0  0  0  0  0  0  0  0
   -0.2997   -1.3011    0.0000 C   0  0  0  0  0  0  0  0  0  0  0  0
   -1.5862   -1.7251    0.0000 C   0  0  0  0  0  0  0  0  0  0  0  0
    0.5336   -1.3157    0.0000 C   0  0  0  0  0  0  0  0  0  0  0  0
   -2.2879   -0.4825    0.0000 C   0  0  0  0  0  0  0  0  0  0  0  0
   -3.0189   -0.8918    0.0000 C   0  0  0  0  0  0  0  0  0  0  0  0
    0.9575   -0.5994    0.0000 C   0  0  0  0  0  0  0  0  0  0  0  0
    1.7762   -0.5994    0.0000 C   0  0  0  0  0  0  0  0  0  0  0  0
   -3.0189   -1.7104    0.0000 C   0  0  0  0  0  0  0  0  0  0  0  0
    0.9575   -2.0175    0.0000 C   0  0  0  0  0  0  0  0  0  0  0  0
    3.0189    0.1316    0.0000 C   0  0  0  0  0  0  0  0  0  0  0  0
    2.1856   -1.3011    0.0000 C   0  0  0  0  0  0  0  0  0  0  0  0
    1.7909   -2.0175    0.0000 C   0  0  0  0  0  0  0  0  0  0  0  0
    3.4428    0.8479    0.0000 C   0  0  0  0  0  0  0  0  0  0  0  0
    3.1212    1.5789    0.0000 C   0  0  0  0  0  0  0  0  0  0  0  0
    4.4515    1.7251    0.0000 C   0  0  0  0  0  0  0  0  0  0  0  0
    3.7059    2.1344    0.0000 C   0  0  0  0  0  0  0  0  0  0  0  0
   -3.7498    0.3508    0.0000 C   0  0  0  0  0  0  0  0  0  0  0  0
   -4.4515   -0.8918    0.0000 C   0  0  0  0  0  0  0  0  0  0  0  0
  1 21  1  0  0  0  0
  1 23  1  0  0  0  0
  2 18  2  0  0  0  0
  3  8  1  0  0  0  0
  3  9  1  0  0  0  0
  4  9  2  0  0  0  0
  4 10  1  0  0  0  0
  5 10  2  0  0  0  0
  5 16  1  0  0  0  0
  6 13  1  0  0  0  0
  6 25  1  0  0  0  0
  6 26  1  0  0  0  0
  7 15  1  0  0  0  0
  7 18  1  0  0  0  0
  8 10  1  0  0  0  0
  8 12  2  0  0  0  0
  9 11  1  0  0  0  0
 11 14  2  0  0  0  0
 11 17  1  0  0  0  0
 12 13  1  0  0  0  0
 13 16  2  0  0  0  0
 14 15  1  0  0  0  0
 15 19  2  0  0  0  0
 17 20  2  0  0  0  0
 18 21  1  0  0  0  0
 19 20  1  0  0  0  0
 21 22  2  0  0  0  0
 22 24  1  0  0  0  0
 23 24  2  0  0  0  0
M  END
> <PUBCHEM_COMPOUND_ID_TYPE>
0

> <PUBCHEM_TOTAL_CHARGE>
0

> <PUBCHEM_SUBSTANCE_ID>
310947038

> <PUBCHEM_SUBSTANCE_VERSION>
1

> <PUBCHEM_EXT_DATASOURCE_NAME>
4488

> <PUBCHEM_EXT_DATASOURCE_REGID>
SCHEMBL16125191

> <PUBCHEM_SUBSTANCE_COMMENT>
InChI=1S/C19H17N5O2/c1-24(2)14-10-15-18(20-11-14)23-17(22-15)12-5-3-6-13(9-12)21-19(25)16-7-4-8-26-16/h3-11H,1-2H3,(H,21,25)(H,20,22,23)
InChIKey=UVXNTSGZKAPXIO-UHFFFAOYSA-N

> <PUBCHEM_SUBSTANCE_SYNONYM>
SCHEMBL16125191

> <PUBCHEM_XREF_EXT_ID>
SCHEMBL16125191

> <PUBCHEM_EXT_DATASOURCE_URL>
https://www.surechembl.org/

> <PUBCHEM_EXT_SUBSTANCE_URL>
https://www.surechembl.org/chemical/SCHEMBL16125191

> <PUBCHEM_CID_ASSOCIATIONS>
117612889  1

> <PUBCHEM_COORDINATE_TYPE>
1
3

$$$$
