310936467
  -OEChem-07211613022D

 35 40  0     0  0  0  0  0  0999 V2000
    1.9984   -6.2451    0.0000 Cl  0  0  0  0  0  0  0  0  0  0  0  0
    8.7118   -5.4020    0.0000 F   0  0  0  0  0  0  0  0  0  0  0  0
    4.9336   -6.0577    0.0000 O   0  0  0  0  0  0  0  0  0  0  0  0
    2.0296   -2.0921    0.0000 O   0  0  0  0  0  0  0  0  0  0  0  0
    5.9953   -3.7782    0.0000 O   0  0  0  0  0  0  0  0  0  0  0  0
    0.5933   -2.0608    0.0000 N   0  0  0  0  0  0  0  0  0  0  0  0
    3.4035   -6.2139    0.0000 N   0  0  0  0  0  0  0  0  0  0  0  0
    4.6213   -3.3411    0.0000 N   0  0  0  0  0  0  0  0  0  0  0  0
    0.5620   -4.5277    0.0000 N   0  0  0  0  0  0  0  0  0  0  0  0
    0.5933   -1.2490    0.0000 C   0  0  0  0  0  0  0  0  0  0  0  0
    0.6245    0.0000    0.0000 C   0  0  0  0  0  0  0  0  0  0  0  0
    4.1217   -4.9648    0.0000 C   0  0  0  0  0  0  0  0  0  0  0  0
    0.0000   -0.6245    0.0000 C   0  0  0  0  0  0  0  0  0  0  0  0
    0.9680   -0.6245    0.0000 C   0  0  0  0  0  0  0  0  0  0  0  0
    1.2490   -0.6245    0.0000 C   0  0  0  0  0  0  0  0  0  0  0  0
    4.9336   -4.7463    0.0000 C   0  0  0  0  0  0  0  0  0  0  0  0
    4.1217   -5.8392    0.0000 C   0  0  0  0  0  0  0  0  0  0  0  0
    5.4020   -5.4020    0.0000 C   0  0  0  0  0  0  0  0  0  0  0  0
    2.7166   -4.9648    0.0000 C   0  0  0  0  0  0  0  0  0  0  0  0
    3.4035   -4.5589    0.0000 C   0  0  0  0  0  0  0  0  0  0  0  0
    2.7166   -5.8392    0.0000 C   0  0  0  0  0  0  0  0  0  0  0  0
    6.2451   -5.4020    0.0000 C   0  0  0  0  0  0  0  0  0  0  0  0
    1.9984   -4.5589    0.0000 C   0  0  0  0  0  0  0  0  0  0  0  0
    1.3114   -2.4980    0.0000 C   0  0  0  0  0  0  0  0  0  0  0  0
    5.1834   -3.9656    0.0000 C   0  0  0  0  0  0  0  0  0  0  0  0
    1.2802   -3.3099    0.0000 C   0  0  0  0  0  0  0  0  0  0  0  0
    1.9984   -3.7158    0.0000 C   0  0  0  0  0  0  0  0  0  0  0  0
    1.2802   -4.9648    0.0000 C   0  0  0  0  0  0  0  0  0  0  0  0
    6.6510   -4.6838    0.0000 C   0  0  0  0  0  0  0  0  0  0  0  0
    6.6510   -6.1202    0.0000 C   0  0  0  0  0  0  0  0  0  0  0  0
    0.5620   -3.7158    0.0000 C   0  0  0  0  0  0  0  0  0  0  0  0
    7.4629   -4.6838    0.0000 C   0  0  0  0  0  0  0  0  0  0  0  0
    7.4629   -6.1202    0.0000 C   0  0  0  0  0  0  0  0  0  0  0  0
    7.9000   -5.4020    0.0000 C   0  0  0  0  0  0  0  0  0  0  0  0
    4.9024   -2.5604    0.0000 C   0  0  0  0  0  0  0  0  0  0  0  0
  1 21  1  0  0  0  0
  2 34  1  0  0  0  0
  3 17  1  0  0  0  0
  3 18  1  0  0  0  0
  4 24  2  0  0  0  0
  5 25  2  0  0  0  0
  6 10  1  0  0  0  0
  6 24  1  0  0  0  0
  7 17  1  0  0  0  0
  7 21  2  0  0  0  0
  8 25  1  0  0  0  0
  8 35  1  0  0  0  0
  9 28  1  0  0  0  0
  9 31  2  0  0  0  0
 10 13  1  0  0  0  0
 10 14  1  0  0  0  0
 10 15  1  0  0  0  0
 11 13  1  0  0  0  0
 11 14  1  0  0  0  0
 11 15  1  0  0  0  0
 12 16  1  0  0  0  0
 12 17  2  0  0  0  0
 12 20  1  0  0  0  0
 16 18  2  0  0  0  0
 16 25  1  0  0  0  0
 18 22  1  0  0  0  0
 19 20  2  0  0  0  0
 19 21  1  0  0  0  0
 19 23  1  0  0  0  0
 22 29  2  0  0  0  0
 22 30  1  0  0  0  0
 23 27  1  0  0  0  0
 23 28  2  0  0  0  0
 24 26  1  0  0  0  0
 26 27  2  0  0  0  0
 26 31  1  0  0  0  0
 29 32  1  0  0  0  0
 30 33  2  0  0  0  0
 32 34  2  0  0  0  0
 33 34  1  0  0  0  0
M  END
> <PUBCHEM_COMPOUND_ID_TYPE>
0

> <PUBCHEM_TOTAL_CHARGE>
0

> <PUBCHEM_SUBSTANCE_ID>
310936467

> <PUBCHEM_SUBSTANCE_VERSION>
1

> <PUBCHEM_EXT_DATASOURCE_NAME>
4488

> <PUBCHEM_EXT_DATASOURCE_REGID>
SCHEMBL16114111

> <PUBCHEM_SUBSTANCE_COMMENT>
InChI=1S/C26H20ClFN4O3/c1-29-24(34)20-19-7-18(22(27)31-25(19)35-21(20)14-2-4-17(28)5-3-14)15-6-16(12-30-11-15)23(33)32-26-8-13(9-26)10-26/h2-7,11-13H,8-10H2,1H3,(H,29,34)(H,32,33)
InChIKey=VUBHPJTUFMVRRW-UHFFFAOYSA-N

> <PUBCHEM_SUBSTANCE_SYNONYM>
SCHEMBL16114111

> <PUBCHEM_XREF_EXT_ID>
SCHEMBL16114111

> <PUBCHEM_EXT_DATASOURCE_URL>
https://www.surechembl.org/

> <PUBCHEM_EXT_SUBSTANCE_URL>
https://www.surechembl.org/chemical/SCHEMBL16114111

> <PUBCHEM_CID_ASSOCIATIONS>
117604398  1

> <PUBCHEM_COORDINATE_TYPE>
1
3

$$$$
