310938816
  -OEChem-07211613022D

 15 17  0     0  0  0  0  0  0999 V2000
    2.8704   -7.7708    0.0000 N   0  0  0  0  0  0  0  0  0  0  0  0
    2.8704   -9.1057    0.0000 N   0  0  0  0  0  0  0  0  0  0  0  0
    2.0858   -8.0257    0.0000 C   0  0  0  0  0  0  0  0  0  0  0  0
    2.0858   -8.8507    0.0000 C   0  0  0  0  0  0  0  0  0  0  0  0
    3.3554   -8.4382    0.0000 C   0  0  0  0  0  0  0  0  0  0  0  0
    3.0840   -6.9739    0.0000 C   0  0  0  0  0  0  0  0  0  0  0  0
    1.3713   -7.6132    0.0000 C   0  0  0  0  0  0  0  0  0  0  0  0
    3.8808   -6.7604    0.0000 C   0  0  0  0  0  0  0  0  0  0  0  0
    1.3713   -9.2632    0.0000 C   0  0  0  0  0  0  0  0  0  0  0  0
    0.6569   -8.0257    0.0000 C   0  0  0  0  0  0  0  0  0  0  0  0
    0.6569   -8.8507    0.0000 C   0  0  0  0  0  0  0  0  0  0  0  0
    4.1804   -8.4382    0.0000 C   0  0  0  0  0  0  0  0  0  0  0  0
    4.5953   -7.1729    0.0000 C   0  0  0  0  0  0  0  0  0  0  0  0
    4.2933   -6.0459    0.0000 C   0  0  0  0  0  0  0  0  0  0  0  0
    5.0078   -6.4584    0.0000 C   0  0  0  0  0  0  0  0  0  0  0  0
  1  3  1  0  0  0  0
  1  5  1  0  0  0  0
  1  6  1  0  0  0  0
  2  4  1  0  0  0  0
  2  5  2  0  0  0  0
  3  4  1  0  0  0  0
  3  7  2  0  0  0  0
  4  9  2  0  0  0  0
  5 12  1  0  0  0  0
  6  8  1  0  0  0  0
  7 10  1  0  0  0  0
  8 13  1  0  0  0  0
  8 14  1  0  0  0  0
  9 11  1  0  0  0  0
 10 11  2  0  0  0  0
 13 15  1  0  0  0  0
 14 15  1  0  0  0  0
M  END
> <PUBCHEM_COMPOUND_ID_TYPE>
0

> <PUBCHEM_TOTAL_CHARGE>
0

> <PUBCHEM_SUBSTANCE_ID>
310938816

> <PUBCHEM_SUBSTANCE_VERSION>
1

> <PUBCHEM_EXT_DATASOURCE_NAME>
4488

> <PUBCHEM_EXT_DATASOURCE_REGID>
SCHEMBL16116733

> <PUBCHEM_SUBSTANCE_COMMENT>
InChI=1S/C13H16N2/c1-10-14-12-7-2-3-8-13(12)15(10)9-11-5-4-6-11/h2-3,7-8,11H,4-6,9H2,1H3
InChIKey=DDWMWRIWXJOJJF-UHFFFAOYSA-N

> <PUBCHEM_SUBSTANCE_SYNONYM>
SCHEMBL16116733

> <PUBCHEM_XREF_EXT_ID>
SCHEMBL16116733

> <PUBCHEM_EXT_DATASOURCE_URL>
https://www.surechembl.org/

> <PUBCHEM_EXT_SUBSTANCE_URL>
https://www.surechembl.org/chemical/SCHEMBL16116733

> <PUBCHEM_CID_ASSOCIATIONS>
79762076  1

> <PUBCHEM_COORDINATE_TYPE>
1
3

$$$$
