310936197
  -OEChem-07211613022D

 41 44  0     1  0  0  0  0  0999 V2000
   -5.2543    0.6368    0.0000 O   0  0  0  0  0  0  0  0  0  0  0  0
   -5.0308    2.0482    0.0000 O   0  0  0  0  0  0  0  0  0  0  0  0
   -3.6104   -4.0701    0.0000 O   0  0  0  0  0  0  0  0  0  0  0  0
   -4.7209   -3.1708    0.0000 O   0  0  0  0  0  0  0  0  0  0  0  0
    0.9645   -1.0054    0.0000 N   0  0  0  0  0  0  0  0  0  0  0  0
   -1.1773    1.9615    0.0000 N   0  0  0  0  0  0  0  0  0  0  0  0
   -1.4322    2.7462    0.0000 N   0  3  0  0  0  0  0  0  0  0  0  0
   -1.6872    3.5308    0.0000 N   0  5  0  0  0  0  0  0  0  0  0  0
   -0.6674    0.3923    0.0000 C   0  0  3  0  0  0  0  0  0  0  0  0
   -0.4125   -0.3923    0.0000 C   0  0  3  0  0  0  0  0  0  0  0  0
   -1.4744    0.5638    0.0000 C   0  0  3  0  0  0  0  0  0  0  0  0
    0.4125   -0.3923    0.0000 C   0  0  0  0  0  0  0  0  0  0  0  0
   -2.0264   -0.0493    0.0000 C   0  0  3  0  0  0  0  0  0  0  0  0
    0.0000    0.8772    0.0000 C   0  0  0  0  0  0  0  0  0  0  0  0
    0.6674    0.3923    0.0000 C   0  0  0  0  0  0  0  0  0  0  0  0
   -2.8334    0.1223    0.0000 C   0  0  3  0  0  0  0  0  0  0  0  0
   -0.9645   -1.0054    0.0000 C   0  0  0  0  0  0  0  0  0  0  0  0
   -1.7715   -0.8339    0.0000 C   0  0  0  0  0  0  0  0  0  0  0  0
   -0.0770   -1.1460    0.0000 C   0  0  0  0  0  0  0  0  0  0  0  0
   -3.3854   -0.4908    0.0000 C   0  0  3  0  0  0  0  0  0  0  0  0
   -1.7294    1.3485    0.0000 C   0  0  0  0  0  0  0  0  0  0  0  0
    1.4744    0.5638    0.0000 C   0  0  0  0  0  0  0  0  0  0  0  0
   -3.0883    0.9069    0.0000 C   0  0  0  0  0  0  0  0  0  0  0  0
   -2.5785   -0.6624    0.0000 C   0  0  0  0  0  0  0  0  0  0  0  0
    1.7715   -0.8339    0.0000 C   0  0  0  0  0  0  0  0  0  0  0  0
   -4.1924   -0.3193    0.0000 C   0  0  0  0  0  0  0  0  0  0  0  0
    2.0264   -0.0493    0.0000 C   0  0  0  0  0  0  0  0  0  0  0  0
   -4.4473    0.4653    0.0000 C   0  0  3  0  0  0  0  0  0  0  0  0
   -3.8953    1.0784    0.0000 C   0  0  0  0  0  0  0  0  0  0  0  0
   -3.1305   -1.2754    0.0000 C   0  0  0  0  0  0  0  0  0  0  0  0
   -3.6825   -1.8885    0.0000 C   0  0  0  0  0  0  0  0  0  0  0  0
   -3.3868   -2.6587    0.0000 C   0  0  0  0  0  0  0  0  0  0  0  0
   -5.5500    1.4070    0.0000 C   0  0  0  0  0  0  0  0  0  0  0  0
   -6.3648    1.5361    0.0000 C   0  0  0  0  0  0  0  0  0  0  0  0
   -3.9061   -3.2999    0.0000 C   0  0  0  0  0  0  0  0  0  0  0  0
   -2.7457   -3.1779    0.0000 C   0  0  0  0  0  0  0  0  0  0  0  0
   -2.6166   -2.3631    0.0000 C   0  0  0  0  0  0  0  0  0  0  0  0
   -6.8840    0.8949    0.0000 C   0  0  0  0  0  0  0  0  0  0  0  0
   -7.1796    1.6651    0.0000 C   0  0  0  0  0  0  0  0  0  0  0  0
   -6.6604    2.3063    0.0000 C   0  0  0  0  0  0  0  0  0  0  0  0
   -0.8390    1.1992    0.0000 H   0  0  0  0  0  0  0  0  0  0  0  0
 28  1  1  1  0  0  0
  1 33  1  0  0  0  0
  2 33  2  0  0  0  0
  3 35  2  0  0  0  0
  4 35  1  0  0  0  0
  5 12  2  0  0  0  0
  5 25  1  0  0  0  0
  6  7  2  0  0  0  0
  6 21  1  0  0  0  0
  7  8  2  0  0  0  0
  9 10  1  0  0  0  0
  9 11  1  0  0  0  0
  9 14  1  0  0  0  0
  9 41  1  1  0  0  0
 10 12  1  0  0  0  0
 10 17  1  0  0  0  0
 10 19  1  6  0  0  0
 11 13  1  0  0  0  0
 11 21  1  1  0  0  0
 12 15  1  0  0  0  0
 13 16  1  0  0  0  0
 13 18  1  6  0  0  0
 14 15  1  0  0  0  0
 15 22  2  0  0  0  0
 16 20  1  0  0  0  0
 16 23  1  0  0  0  0
 16 24  1  6  0  0  0
 17 18  1  0  0  0  0
 20 26  1  0  0  0  0
 20 30  1  1  0  0  0
 22 27  1  0  0  0  0
 23 29  1  0  0  0  0
 25 27  2  0  0  0  0
 26 28  1  0  0  0  0
 28 29  1  0  0  0  0
 30 31  1  0  0  0  0
 31 32  1  0  0  0  0
 32 35  1  0  0  0  0
 32 36  1  0  0  0  0
 32 37  1  0  0  0  0
 33 34  1  0  0  0  0
 34 38  1  0  0  0  0
 34 39  1  0  0  0  0
 34 40  1  0  0  0  0
M  CHG  2   7   1   8  -1
M  END
> <PUBCHEM_COMPOUND_ID_TYPE>
0

> <PUBCHEM_TOTAL_CHARGE>
0

> <PUBCHEM_SUBSTANCE_ID>
310936197

> <PUBCHEM_SUBSTANCE_VERSION>
1

> <PUBCHEM_EXT_DATASOURCE_NAME>
4488

> <PUBCHEM_EXT_DATASOURCE_REGID>
SCHEMBL16113809

> <PUBCHEM_SUBSTANCE_COMMENT>
InChI=1S/C32H48N4O4/c1-29(2,3)28(39)40-22-11-14-31(6,21(18-22)10-13-30(4,5)27(37)38)24-12-15-32(7)25(23(24)19-35-36-33)17-20-9-8-16-34-26(20)32/h8-9,16,21-25H,10-15,17-19H2,1-7H3,(H,37,38)/t21-,22-,23+,24-,25-,31+,32-/m0/s1
InChIKey=JBDBNTDAWZAVOV-GQIHVCFYSA-N

> <PUBCHEM_SUBSTANCE_SYNONYM>
SCHEMBL16113809

> <PUBCHEM_XREF_EXT_ID>
SCHEMBL16113809

> <PUBCHEM_EXT_DATASOURCE_URL>
https://www.surechembl.org/

> <PUBCHEM_EXT_SUBSTANCE_URL>
https://www.surechembl.org/chemical/SCHEMBL16113809

> <PUBCHEM_CID_ASSOCIATIONS>
117604151  1

> <PUBCHEM_COORDINATE_TYPE>
1
3

> <PUBCHEM_BONDANNOTATIONS>
28  1  5
10  19  6
11  21  5
13  18  6
16  24  6
20  30  5
9  41  5

$$$$
