310930135
  -OEChem-07211613022D

 16 17  0     1  0  0  0  0  0999 V2000
    0.8292   -0.8461    0.0000 S   0  0  0  0  0  0  0  0  0  0  0  0
    1.6754   -0.7277    0.0000 O   0  0  0  0  0  0  0  0  0  0  0  0
    3.1646   -0.3723    0.0000 O   0  0  0  0  0  0  0  0  0  0  0  0
    0.7107    0.0000    0.0000 O   0  0  0  0  0  0  0  0  0  0  0  0
    0.9646   -1.6923    0.0000 O   0  0  0  0  0  0  0  0  0  0  0  0
    0.0000   -0.9815    0.0000 O   0  0  0  0  0  0  0  0  0  0  0  0
    2.2000   -1.3877    0.0000 N   0  0  0  0  0  0  0  0  0  0  0  0
    3.6046   -1.7092    0.0000 N   0  0  0  0  0  0  0  0  0  0  0  0
    5.0769   -2.3861    0.0000 N   0  0  0  0  0  0  0  0  0  0  0  0
    2.9784   -1.2015    0.0000 C   0  0  0  0  0  0  0  0  0  0  0  0
    1.8446   -2.1153    0.0000 C   0  0  3  0  0  0  0  0  0  0  0  0
    2.8430   -2.4200    0.0000 C   0  0  0  0  0  0  0  0  0  0  0  0
    3.6046   -2.5046    0.0000 C   0  0  3  0  0  0  0  0  0  0  0  0
    2.2000   -2.8262    0.0000 C   0  0  0  0  0  0  0  0  0  0  0  0
    2.9784   -3.0123    0.0000 C   0  0  0  0  0  0  0  0  0  0  0  0
    4.3661   -2.8769    0.0000 C   0  0  0  0  0  0  0  0  0  0  0  0
  1  2  1  0  0  0  0
  1  4  2  0  0  0  0
  1  5  2  0  0  0  0
  1  6  1  0  0  0  0
  2  7  1  0  0  0  0
  3 10  2  0  0  0  0
  7 10  1  0  0  0  0
  7 11  1  0  0  0  0
  8 10  1  0  0  0  0
  8 12  1  0  0  0  0
  8 13  1  0  0  0  0
  9 16  3  0  0  0  0
 11 12  1  1  0  0  0
 11 14  1  0  0  0  0
 13 15  1  0  0  0  0
 13 16  1  6  0  0  0
 14 15  1  0  0  0  0
M  END
> <PUBCHEM_COMPOUND_ID_TYPE>
0

> <PUBCHEM_TOTAL_CHARGE>
0

> <PUBCHEM_SUBSTANCE_ID>
310930135

> <PUBCHEM_SUBSTANCE_VERSION>
1

> <PUBCHEM_EXT_DATASOURCE_NAME>
4488

> <PUBCHEM_EXT_DATASOURCE_REGID>
SCHEMBL16107393

> <PUBCHEM_SUBSTANCE_COMMENT>
InChI=1S/C7H9N3O5S/c8-3-5-1-2-6-4-9(5)7(11)10(6)15-16(12,13)14/h5-6H,1-2,4H2,(H,12,13,14)/t5-,6-/m0/s1
InChIKey=JQDYTHSKUVKCRO-WDSKDSINSA-N

> <PUBCHEM_SUBSTANCE_SYNONYM>
SCHEMBL16107393

> <PUBCHEM_XREF_EXT_ID>
SCHEMBL16107393

> <PUBCHEM_EXT_DATASOURCE_URL>
https://www.surechembl.org/

> <PUBCHEM_EXT_SUBSTANCE_URL>
https://www.surechembl.org/chemical/SCHEMBL16107393

> <PUBCHEM_CID_ASSOCIATIONS>
117599362  1

> <PUBCHEM_COORDINATE_TYPE>
1
3

> <PUBCHEM_BONDANNOTATIONS>
11  12  5
13  16  6

$$$$
