310944792
  -OEChem-07211613022D

 31 35  0     0  0  0  0  0  0999 V2000
    0.2004    0.4572    0.0000 F   0  0  0  0  0  0  0  0  0  0  0  0
   -1.2276    2.9626    0.0000 F   0  0  0  0  0  0  0  0  0  0  0  0
   -1.2401    0.4698    0.0000 N   0  0  0  0  0  0  0  0  0  0  0  0
   -0.5763   -0.0188    0.0000 N   0  0  0  0  0  0  0  0  0  0  0  0
   -0.8392   -2.2485    0.0000 N   0  0  0  0  0  0  0  0  0  0  0  0
    1.6535   -2.2610    0.0000 N   0  0  0  0  0  0  0  0  0  0  0  0
    1.6535   -0.8205    0.0000 N   0  0  0  0  0  0  0  0  0  0  0  0
    2.9061   -0.1065    0.0000 N   0  0  0  0  0  0  0  0  0  0  0  0
   -1.7036   -0.7704    0.0000 C   0  0  0  0  0  0  0  0  0  0  0  0
   -0.8518   -0.7954    0.0000 C   0  0  0  0  0  0  0  0  0  0  0  0
   -1.9416    0.0062    0.0000 C   0  0  0  0  0  0  0  0  0  0  0  0
   -0.4384   -1.4969    0.0000 C   0  0  0  0  0  0  0  0  0  0  0  0
   -1.2527    1.3216    0.0000 C   0  0  0  0  0  0  0  0  0  0  0  0
   -2.2423   -1.3842    0.0000 C   0  0  0  0  0  0  0  0  0  0  0  0
   -2.7684    0.1691    0.0000 C   0  0  0  0  0  0  0  0  0  0  0  0
   -0.5386    1.7475    0.0000 C   0  0  0  0  0  0  0  0  0  0  0  0
    0.4133   -1.5345    0.0000 C   0  0  0  0  0  0  0  0  0  0  0  0
    0.8017   -2.2235    0.0000 C   0  0  0  0  0  0  0  0  0  0  0  0
   -3.0565   -1.2088    0.0000 C   0  0  0  0  0  0  0  0  0  0  0  0
    0.1879    1.3216    0.0000 C   0  0  0  0  0  0  0  0  0  0  0  0
   -0.5136    2.5617    0.0000 C   0  0  0  0  0  0  0  0  0  0  0  0
   -3.3070   -0.4321    0.0000 C   0  0  0  0  0  0  0  0  0  0  0  0
   -0.4384   -2.9375    0.0000 C   0  0  0  0  0  0  0  0  0  0  0  0
    0.3883   -2.9626    0.0000 C   0  0  0  0  0  0  0  0  0  0  0  0
    0.9019    1.7349    0.0000 C   0  0  0  0  0  0  0  0  0  0  0  0
    0.2129    2.9500    0.0000 C   0  0  0  0  0  0  0  0  0  0  0  0
    2.0543   -1.5094    0.0000 C   0  0  0  0  0  0  0  0  0  0  0  0
    0.9145    2.5491    0.0000 C   0  0  0  0  0  0  0  0  0  0  0  0
    2.9061   -1.5220    0.0000 C   0  0  0  0  0  0  0  0  0  0  0  0
    2.0543   -0.0939    0.0000 C   0  0  0  0  0  0  0  0  0  0  0  0
    3.3070   -0.7954    0.0000 C   0  0  0  0  0  0  0  0  0  0  0  0
  1 20  1  0  0  0  0
  2 21  1  0  0  0  0
  3  4  1  0  0  0  0
  3 11  1  0  0  0  0
  3 13  1  0  0  0  0
  4 10  2  0  0  0  0
  5 12  1  0  0  0  0
  5 23  2  0  0  0  0
  6 18  1  0  0  0  0
  6 27  1  0  0  0  0
  7 27  2  0  0  0  0
  7 30  1  0  0  0  0
  8 30  2  0  0  0  0
  8 31  1  0  0  0  0
  9 10  1  0  0  0  0
  9 11  2  0  0  0  0
  9 14  1  0  0  0  0
 10 12  1  0  0  0  0
 11 15  1  0  0  0  0
 12 17  2  0  0  0  0
 13 16  1  0  0  0  0
 14 19  2  0  0  0  0
 15 22  2  0  0  0  0
 16 20  1  0  0  0  0
 16 21  2  0  0  0  0
 17 18  1  0  0  0  0
 18 24  2  0  0  0  0
 19 22  1  0  0  0  0
 20 25  2  0  0  0  0
 21 26  1  0  0  0  0
 23 24  1  0  0  0  0
 25 28  1  0  0  0  0
 26 28  2  0  0  0  0
 27 29  1  0  0  0  0
 29 31  2  0  0  0  0
M  END
> <PUBCHEM_COMPOUND_ID_TYPE>
0

> <PUBCHEM_TOTAL_CHARGE>
0

> <PUBCHEM_SUBSTANCE_ID>
310944792

> <PUBCHEM_SUBSTANCE_VERSION>
1

> <PUBCHEM_EXT_DATASOURCE_NAME>
4488

> <PUBCHEM_EXT_DATASOURCE_REGID>
SCHEMBL16122871

> <PUBCHEM_SUBSTANCE_COMMENT>
InChI=1S/C23H16F2N6/c24-18-5-3-6-19(25)17(18)13-31-21-7-2-1-4-16(21)23(30-31)20-12-15(8-11-27-20)29-22-9-10-26-14-28-22/h1-12,14H,13H2,(H,26,27,28,29)
InChIKey=WYPAGYIFVYFCAV-UHFFFAOYSA-N

> <PUBCHEM_SUBSTANCE_SYNONYM>
SCHEMBL16122871

> <PUBCHEM_XREF_EXT_ID>
SCHEMBL16122871

> <PUBCHEM_EXT_DATASOURCE_URL>
https://www.surechembl.org/

> <PUBCHEM_EXT_SUBSTANCE_URL>
https://www.surechembl.org/chemical/SCHEMBL16122871

> <PUBCHEM_CID_ASSOCIATIONS>
86268504  1

> <PUBCHEM_COORDINATE_TYPE>
1
3

$$$$
