310946403
  -OEChem-07211613022D

 23 23  0     0  0  0  0  0  0999 V2000
    0.3051   -1.5706    0.0000 O   0  0  0  0  0  0  0  0  0  0  0  0
   -0.4094   -2.8081    0.0000 O   0  0  0  0  0  0  0  0  0  0  0  0
    3.8775   -1.9831    0.0000 O   0  0  0  0  0  0  0  0  0  0  0  0
    5.3064   -1.9831    0.0000 O   0  5  0  0  0  0  0  0  0  0  0  0
    4.5919   -0.7456    0.0000 O   0  0  0  0  0  0  0  0  0  0  0  0
    4.5919   -1.5706    0.0000 N   0  3  0  0  0  0  0  0  0  0  0  0
   -3.9817   -0.7456    0.0000 C   0  0  0  0  0  0  0  0  0  0  0  0
   -3.9817   -1.5706    0.0000 C   0  0  0  0  0  0  0  0  0  0  0  0
   -2.5528   -1.5706    0.0000 C   0  0  0  0  0  0  0  0  0  0  0  0
   -3.2673   -1.9831    0.0000 C   0  0  0  0  0  0  0  0  0  0  0  0
   -3.2673   -0.3331    0.0000 C   0  0  0  0  0  0  0  0  0  0  0  0
   -2.5528   -0.7456    0.0000 C   0  0  0  0  0  0  0  0  0  0  0  0
   -4.6962   -0.3331    0.0000 C   0  0  0  0  0  0  0  0  0  0  0  0
   -1.8383   -1.9831    0.0000 C   0  0  0  0  0  0  0  0  0  0  0  0
   -1.1238   -1.5706    0.0000 C   0  0  0  0  0  0  0  0  0  0  0  0
   -4.6962   -1.9831    0.0000 C   0  0  0  0  0  0  0  0  0  0  0  0
   -0.4094   -1.9831    0.0000 C   0  0  0  0  0  0  0  0  0  0  0  0
   -4.2837    0.3814    0.0000 C   0  0  0  0  0  0  0  0  0  0  0  0
   -5.1087   -1.0475    0.0000 C   0  0  0  0  0  0  0  0  0  0  0  0
    1.0196   -1.9831    0.0000 C   0  0  0  0  0  0  0  0  0  0  0  0
    1.7340   -1.5706    0.0000 C   0  0  0  0  0  0  0  0  0  0  0  0
    2.4485   -1.9831    0.0000 C   0  0  0  0  0  0  0  0  0  0  0  0
    3.1630   -1.5706    0.0000 C   0  0  0  0  0  0  0  0  0  0  0  0
  1 17  1  0  0  0  0
  1 20  1  0  0  0  0
  2 17  2  0  0  0  0
  3  6  1  0  0  0  0
  3 23  1  0  0  0  0
  4  6  1  0  0  0  0
  5  6  2  0  0  0  0
  7  8  1  0  0  0  0
  7 11  2  0  0  0  0
  7 13  1  0  0  0  0
  8 10  2  0  0  0  0
  8 16  1  0  0  0  0
  9 10  1  0  0  0  0
  9 12  2  0  0  0  0
  9 14  1  0  0  0  0
 11 12  1  0  0  0  0
 13 18  1  0  0  0  0
 13 19  1  0  0  0  0
 14 15  2  0  0  0  0
 15 17  1  0  0  0  0
 20 21  1  0  0  0  0
 21 22  1  0  0  0  0
 22 23  1  0  0  0  0
M  CHG  2   4  -1   6   1
M  END
> <PUBCHEM_COMPOUND_ID_TYPE>
0

> <PUBCHEM_TOTAL_CHARGE>
0

> <PUBCHEM_SUBSTANCE_ID>
310946403

> <PUBCHEM_SUBSTANCE_VERSION>
1

> <PUBCHEM_EXT_DATASOURCE_NAME>
4488

> <PUBCHEM_EXT_DATASOURCE_REGID>
SCHEMBL16124524

> <PUBCHEM_SUBSTANCE_COMMENT>
InChI=1S/C17H23NO5/c1-13(2)16-8-6-15(12-14(16)3)7-9-17(19)22-10-4-5-11-23-18(20)21/h6-9,12-13H,4-5,10-11H2,1-3H3/b9-7+
InChIKey=ATWMRWWKNRXQOJ-VQHVLOKHSA-N

> <PUBCHEM_SUBSTANCE_SYNONYM>
SCHEMBL16124524

> <PUBCHEM_XREF_EXT_ID>
SCHEMBL16124524

> <PUBCHEM_EXT_DATASOURCE_URL>
https://www.surechembl.org/

> <PUBCHEM_EXT_SUBSTANCE_URL>
https://www.surechembl.org/chemical/SCHEMBL16124524

> <PUBCHEM_CID_ASSOCIATIONS>
117612322  1

> <PUBCHEM_COORDINATE_TYPE>
1
3

> <PUBCHEM_BONDANNOTATIONS>
13  18  3
13  19  3

$$$$
