310941618
  -OEChem-07211613022D

 27 30  0     0  0  0  0  0  0999 V2000
    0.8801    1.9802    0.0000 S   0  0  0  0  0  0  0  0  0  0  0  0
   -1.4609   -0.7128    0.0000 O   0  0  0  0  0  0  0  0  0  0  0  0
   -0.0176   -0.6953    0.0000 O   0  0  0  0  0  0  0  0  0  0  0  0
   -3.5731   -1.9802    0.0000 O   0  5  0  0  0  0  0  0  0  0  0  0
   -2.1826   -1.9274    0.0000 O   0  0  0  0  0  0  0  0  0  0  0  0
    0.7569    0.6424    0.0000 N   0  0  0  0  0  0  0  0  0  0  0  0
   -2.8867   -1.5401    0.0000 N   0  3  0  0  0  0  0  0  0  0  0  0
    2.1474    1.1705    0.0000 N   0  0  0  0  0  0  0  0  0  0  0  0
    3.3971   -1.9274    0.0000 N   0  0  0  0  0  0  0  0  0  0  0  0
   -0.7393    0.5720    0.0000 C   0  0  0  0  0  0  0  0  0  0  0  0
   -2.2178   -0.2728    0.0000 C   0  0  0  0  0  0  0  0  0  0  0  0
   -2.1826    0.5369    0.0000 C   0  0  0  0  0  0  0  0  0  0  0  0
   -0.0352    0.9945    0.0000 C   0  0  0  0  0  0  0  0  0  0  0  0
   -0.7745   -0.2552    0.0000 C   0  0  0  0  0  0  0  0  0  0  0  0
   -1.4785    0.9593    0.0000 C   0  0  0  0  0  0  0  0  0  0  0  0
   -2.9043   -0.6953    0.0000 C   0  0  0  0  0  0  0  0  0  0  0  0
    1.2849    1.2585    0.0000 C   0  0  0  0  0  0  0  0  0  0  0  0
   -2.9218    0.9593    0.0000 C   0  0  0  0  0  0  0  0  0  0  0  0
    0.0704    1.8217    0.0000 C   0  0  0  0  0  0  0  0  0  0  0  0
   -3.6260   -0.2904    0.0000 C   0  0  0  0  0  0  0  0  0  0  0  0
   -3.6260    0.5544    0.0000 C   0  0  0  0  0  0  0  0  0  0  0  0
    2.4642    0.4312    0.0000 C   0  0  0  0  0  0  0  0  0  0  0  0
    2.0066   -0.2200    0.0000 C   0  0  0  0  0  0  0  0  0  0  0  0
    3.3091    0.3080    0.0000 C   0  0  0  0  0  0  0  0  0  0  0  0
    3.1507   -1.1177    0.0000 C   0  0  0  0  0  0  0  0  0  0  0  0
    2.3410   -1.0121    0.0000 C   0  0  0  0  0  0  0  0  0  0  0  0
    3.6260   -0.4489    0.0000 C   0  0  0  0  0  0  0  0  0  0  0  0
  1 17  1  0  0  0  0
  1 19  1  0  0  0  0
  2 11  1  0  0  0  0
  2 14  1  0  0  0  0
  3 14  2  0  0  0  0
  4  7  1  0  0  0  0
  5  7  2  0  0  0  0
  6 13  1  0  0  0  0
  6 17  2  0  0  0  0
  7 16  1  0  0  0  0
  8 17  1  0  0  0  0
  8 22  1  0  0  0  0
  9 25  1  0  0  0  0
 10 13  1  0  0  0  0
 10 14  1  0  0  0  0
 10 15  2  0  0  0  0
 11 12  1  0  0  0  0
 11 16  2  0  0  0  0
 12 15  1  0  0  0  0
 12 18  2  0  0  0  0
 13 19  2  0  0  0  0
 16 20  1  0  0  0  0
 18 21  1  0  0  0  0
 20 21  2  0  0  0  0
 22 23  2  0  0  0  0
 22 24  1  0  0  0  0
 23 26  1  0  0  0  0
 24 27  2  0  0  0  0
 25 26  2  0  0  0  0
 25 27  1  0  0  0  0
M  CHG  2   4  -1   7   1
M  END
> <PUBCHEM_COMPOUND_ID_TYPE>
0

> <PUBCHEM_TOTAL_CHARGE>
0

> <PUBCHEM_SUBSTANCE_ID>
310941618

> <PUBCHEM_SUBSTANCE_VERSION>
1

> <PUBCHEM_EXT_DATASOURCE_NAME>
4488

> <PUBCHEM_EXT_DATASOURCE_REGID>
SCHEMBL16119649

> <PUBCHEM_SUBSTANCE_COMMENT>
InChI=1S/C18H12N4O4S/c19-11-4-6-12(7-5-11)20-18-21-14(9-27-18)13-8-10-2-1-3-15(22(24)25)16(10)26-17(13)23/h1-9H,19H2,(H,20,21)
InChIKey=MSITWJMHMDYRNX-UHFFFAOYSA-N

> <PUBCHEM_SUBSTANCE_SYNONYM>
SCHEMBL16119649

> <PUBCHEM_XREF_EXT_ID>
SCHEMBL16119649

> <PUBCHEM_EXT_DATASOURCE_URL>
https://www.surechembl.org/

> <PUBCHEM_EXT_SUBSTANCE_URL>
https://www.surechembl.org/chemical/SCHEMBL16119649

> <PUBCHEM_CID_ASSOCIATIONS>
117608408  1

> <PUBCHEM_COORDINATE_TYPE>
1
3

$$$$
