310936993
  -OEChem-07211613022D

 19 21  0     0  0  0  0  0  0999 V2000
    2.1995   -0.7734    0.0000 S   0  0  0  0  0  0  0  0  0  0  0  0
    6.0184    0.0000    0.0000 O   0  0  0  0  0  0  0  0  0  0  0  0
    7.2511   -0.7251    0.0000 O   0  0  0  0  0  0  0  0  0  0  0  0
    1.4985   -1.9578    0.0000 N   0  0  0  0  0  0  0  0  0  0  0  0
    6.0184   -1.4260    0.0000 N   0  0  0  0  0  0  0  0  0  0  0  0
    0.0000   -1.1360    0.0000 N   0  0  0  0  0  0  0  0  0  0  0  0
    2.7312   -1.4019    0.0000 C   0  0  0  0  0  0  0  0  0  0  0  0
    3.5772   -1.4019    0.0000 C   0  0  0  0  0  0  0  0  0  0  0  0
    2.3203   -2.1270    0.0000 C   0  0  0  0  0  0  0  0  0  0  0  0
    3.9640   -2.1028    0.0000 C   0  0  0  0  0  0  0  0  0  0  0  0
    1.4260   -1.1360    0.0000 C   0  0  0  0  0  0  0  0  0  0  0  0
    2.7554   -2.8521    0.0000 C   0  0  0  0  0  0  0  0  0  0  0  0
    3.5531   -2.8279    0.0000 C   0  0  0  0  0  0  0  0  0  0  0  0
    3.9640   -0.7251    0.0000 C   0  0  0  0  0  0  0  0  0  0  0  0
    4.8099   -2.1028    0.0000 C   0  0  0  0  0  0  0  0  0  0  0  0
    5.1966   -1.4260    0.0000 C   0  0  0  0  0  0  0  0  0  0  0  0
    4.7857   -0.7009    0.0000 C   0  0  0  0  0  0  0  0  0  0  0  0
    0.7251   -0.7251    0.0000 C   0  0  0  0  0  0  0  0  0  0  0  0
    6.4293   -0.7251    0.0000 C   0  0  0  0  0  0  0  0  0  0  0  0
  1  7  1  0  0  0  0
  1 11  1  0  0  0  0
  2 19  2  0  0  0  0
  3 19  1  0  0  0  0
  4  9  1  0  0  0  0
  4 11  2  0  0  0  0
  5 16  1  0  0  0  0
  5 19  1  0  0  0  0
  6 18  3  0  0  0  0
  7  8  1  0  0  0  0
  7  9  2  0  0  0  0
  8 10  2  0  0  0  0
  8 14  1  0  0  0  0
  9 12  1  0  0  0  0
 10 13  1  0  0  0  0
 10 15  1  0  0  0  0
 11 18  1  0  0  0  0
 12 13  2  0  0  0  0
 14 17  2  0  0  0  0
 15 16  2  0  0  0  0
 16 17  1  0  0  0  0
M  END
> <PUBCHEM_COMPOUND_ID_TYPE>
0

> <PUBCHEM_TOTAL_CHARGE>
0

> <PUBCHEM_SUBSTANCE_ID>
310936993

> <PUBCHEM_SUBSTANCE_VERSION>
1

> <PUBCHEM_EXT_DATASOURCE_NAME>
4488

> <PUBCHEM_EXT_DATASOURCE_REGID>
SCHEMBL16114699

> <PUBCHEM_SUBSTANCE_COMMENT>
InChI=1S/C13H7N3O2S/c14-6-11-16-10-4-1-7-5-8(15-13(17)18)2-3-9(7)12(10)19-11/h1-5,15H,(H,17,18)
InChIKey=DOJCFXMVKIJDKZ-UHFFFAOYSA-N

> <PUBCHEM_SUBSTANCE_SYNONYM>
SCHEMBL16114699

> <PUBCHEM_XREF_EXT_ID>
SCHEMBL16114699

> <PUBCHEM_EXT_DATASOURCE_URL>
https://www.surechembl.org/

> <PUBCHEM_EXT_SUBSTANCE_URL>
https://www.surechembl.org/chemical/SCHEMBL16114699

> <PUBCHEM_CID_ASSOCIATIONS>
117604852  1

> <PUBCHEM_COORDINATE_TYPE>
1
3

$$$$
