310949860
  -OEChem-07211613022D

 34 37  0     0  0  0  0  0  0999 V2000
   -5.9812   -1.2269    0.0000 Cl  0  0  0  0  0  0  0  0  0  0  0  0
    4.7264    0.3346    0.0000 O   0  0  0  0  0  0  0  0  0  0  0  0
    3.4716   -0.3904    0.0000 O   0  0  0  0  0  0  0  0  0  0  0  0
   -2.8163   -1.0596    0.0000 N   0  0  0  0  0  0  0  0  0  0  0  0
   -0.2509   -1.1014    0.0000 N   0  0  0  0  0  0  0  0  0  0  0  0
    1.0038    1.0596    0.0000 N   0  0  0  0  0  0  0  0  0  0  0  0
   -1.9798    1.7288    0.0000 N   0  0  0  0  0  0  0  0  0  0  0  0
    2.6629    1.0596    0.0000 N   0  0  0  0  0  0  0  0  0  0  0  0
    3.4855    1.0596    0.0000 N   0  0  0  0  0  0  0  0  0  0  0  0
   -2.3423   -0.3765    0.0000 C   0  0  0  0  0  0  0  0  0  0  0  0
   -3.6110    0.0418    0.0000 C   0  0  0  0  0  0  0  0  0  0  0  0
   -2.8303    0.2928    0.0000 C   0  0  0  0  0  0  0  0  0  0  0  0
   -3.6250   -0.7808    0.0000 C   0  0  0  0  0  0  0  0  0  0  0  0
   -1.5058   -0.3765    0.0000 C   0  0  0  0  0  0  0  0  0  0  0  0
   -4.3360   -1.2130    0.0000 C   0  0  0  0  0  0  0  0  0  0  0  0
   -4.3500    0.4322    0.0000 C   0  0  0  0  0  0  0  0  0  0  0  0
   -2.3981    1.0178    0.0000 C   0  0  0  0  0  0  0  0  0  0  0  0
   -1.0875    0.3346    0.0000 C   0  0  0  0  0  0  0  0  0  0  0  0
   -5.0749   -0.7947    0.0000 C   0  0  0  0  0  0  0  0  0  0  0  0
   -1.0875   -1.1014    0.0000 C   0  0  0  0  0  0  0  0  0  0  0  0
   -5.0471    0.0279    0.0000 C   0  0  0  0  0  0  0  0  0  0  0  0
   -2.4120   -1.7846    0.0000 C   0  0  0  0  0  0  0  0  0  0  0  0
   -0.2649    0.3346    0.0000 C   0  0  0  0  0  0  0  0  0  0  0  0
    0.1534   -0.3765    0.0000 C   0  0  0  0  0  0  0  0  0  0  0  0
    0.1534    1.0456    0.0000 C   0  0  0  0  0  0  0  0  0  0  0  0
    1.4082    1.7846    0.0000 C   0  0  0  0  0  0  0  0  0  0  0  0
    1.4082    0.3346    0.0000 C   0  0  0  0  0  0  0  0  0  0  0  0
    2.2447    1.7706    0.0000 C   0  0  0  0  0  0  0  0  0  0  0  0
    2.2307    0.3346    0.0000 C   0  0  0  0  0  0  0  0  0  0  0  0
    3.9038    0.3625    0.0000 C   0  0  0  0  0  0  0  0  0  0  0  0
    5.1586   -0.3625    0.0000 C   0  0  0  0  0  0  0  0  0  0  0  0
    5.5629    0.3346    0.0000 C   0  0  0  0  0  0  0  0  0  0  0  0
    5.9812   -0.3765    0.0000 C   0  0  0  0  0  0  0  0  0  0  0  0
    4.7543   -1.1014    0.0000 C   0  0  0  0  0  0  0  0  0  0  0  0
  1 19  1  0  0  0  0
  2 30  1  0  0  0  0
  2 31  1  0  0  0  0
  3 30  2  0  0  0  0
  4 10  1  0  0  0  0
  4 13  1  0  0  0  0
  4 22  1  0  0  0  0
  5 20  1  0  0  0  0
  5 24  2  0  0  0  0
  6 25  1  0  0  0  0
  6 26  1  0  0  0  0
  6 27  1  0  0  0  0
  7 17  3  0  0  0  0
  8  9  1  0  0  0  0
  8 28  1  0  0  0  0
  8 29  1  0  0  0  0
  9 30  1  0  0  0  0
 10 12  2  0  0  0  0
 10 14  1  0  0  0  0
 11 12  1  0  0  0  0
 11 13  1  0  0  0  0
 11 16  2  0  0  0  0
 12 17  1  0  0  0  0
 13 15  2  0  0  0  0
 14 18  1  0  0  0  0
 14 20  2  0  0  0  0
 15 19  1  0  0  0  0
 16 21  1  0  0  0  0
 18 23  2  0  0  0  0
 19 21  2  0  0  0  0
 23 24  1  0  0  0  0
 23 25  1  0  0  0  0
 26 28  1  0  0  0  0
 27 29  1  0  0  0  0
 31 32  1  0  0  0  0
 31 33  1  0  0  0  0
 31 34  1  0  0  0  0
M  END
> <PUBCHEM_COMPOUND_ID_TYPE>
0

> <PUBCHEM_TOTAL_CHARGE>
0

> <PUBCHEM_SUBSTANCE_ID>
310949860

> <PUBCHEM_SUBSTANCE_VERSION>
1

> <PUBCHEM_EXT_DATASOURCE_NAME>
4488

> <PUBCHEM_EXT_DATASOURCE_REGID>
SCHEMBL16128064

> <PUBCHEM_SUBSTANCE_COMMENT>
InChI=1S/C25H29ClN6O2/c1-25(2,3)34-24(33)29-32-9-7-31(8-10-32)16-17-11-18(15-28-14-17)23-21(13-27)20-6-5-19(26)12-22(20)30(23)4/h5-6,11-12,14-15H,7-10,16H2,1-4H3,(H,29,33)
InChIKey=KUTZEMOZHSEBAX-UHFFFAOYSA-N

> <PUBCHEM_SUBSTANCE_SYNONYM>
SCHEMBL16128064

> <PUBCHEM_XREF_EXT_ID>
SCHEMBL16128064

> <PUBCHEM_EXT_DATASOURCE_URL>
https://www.surechembl.org/

> <PUBCHEM_EXT_SUBSTANCE_URL>
https://www.surechembl.org/chemical/SCHEMBL16128064

> <PUBCHEM_CID_ASSOCIATIONS>
117615160  1

> <PUBCHEM_COORDINATE_TYPE>
1
3

$$$$
