310932803
  -OEChem-07211613022D

 25 27  0     0  0  0  0  0  0999 V2000
    5.8474    0.0000    0.0000 Cl  0  0  0  0  0  0  0  0  0  0  0  0
    5.8474   -2.8488    0.0000 O   0  0  0  0  0  0  0  0  0  0  0  0
    2.3490   -1.3994    0.0000 O   0  0  0  0  0  0  0  0  0  0  0  0
    2.5739   -2.8488    0.0000 N   0  0  0  0  0  0  0  0  0  0  0  0
    2.0991   -3.5235    0.0000 N   0  0  0  0  0  0  0  0  0  0  0  0
    1.2994   -2.4490    0.0000 N   0  0  0  0  0  0  0  0  0  0  0  0
    3.7983   -2.1491    0.0000 N   0  0  0  0  0  0  0  0  0  0  0  0
    7.0469   -2.1491    0.0000 N   0  0  0  0  0  0  0  0  0  0  0  0
    7.0720   -0.7247    0.0000 N   0  0  0  0  0  0  0  0  0  0  0  0
    3.3985   -2.8488    0.0000 C   0  0  0  0  0  0  0  0  0  0  0  0
    1.2994   -3.2486    0.0000 C   0  0  0  0  0  0  0  0  0  0  0  0
    2.0991   -2.1741    0.0000 C   0  0  0  0  0  0  0  0  0  0  0  0
    0.6497   -3.7234    0.0000 C   0  0  0  0  0  0  0  0  0  0  0  0
    5.0229   -2.8488    0.0000 C   0  0  0  0  0  0  0  0  0  0  0  0
    4.6230   -2.1241    0.0000 C   0  0  0  0  0  0  0  0  0  0  0  0
    3.7983   -3.5735    0.0000 C   0  0  0  0  0  0  0  0  0  0  0  0
    4.6230   -3.5485    0.0000 C   0  0  0  0  0  0  0  0  0  0  0  0
    6.2473   -2.1241    0.0000 C   0  0  0  0  0  0  0  0  0  0  0  0
    0.1749   -3.0487    0.0000 C   0  0  0  0  0  0  0  0  0  0  0  0
    0.0000   -4.1982    0.0000 C   0  0  0  0  0  0  0  0  0  0  0  0
    1.1245   -4.3981    0.0000 C   0  0  0  0  0  0  0  0  0  0  0  0
    5.8225   -1.4244    0.0000 C   0  0  0  0  0  0  0  0  0  0  0  0
    5.0229   -1.3994    0.0000 C   0  0  0  0  0  0  0  0  0  0  0  0
    6.2473   -0.7247    0.0000 C   0  0  0  0  0  0  0  0  0  0  0  0
    7.4967   -1.4244    0.0000 C   0  0  0  0  0  0  0  0  0  0  0  0
  1 24  1  0  0  0  0
  2 14  1  0  0  0  0
  2 18  1  0  0  0  0
  3 12  2  0  0  0  0
  4  5  1  0  0  0  0
  4 10  1  0  0  0  0
  4 12  1  0  0  0  0
  5 11  2  0  0  0  0
  6 11  1  0  0  0  0
  6 12  1  0  0  0  0
  7 10  1  0  0  0  0
  7 15  2  0  0  0  0
  8 18  2  0  0  0  0
  8 25  1  0  0  0  0
  9 24  1  0  0  0  0
  9 25  2  0  0  0  0
 10 16  2  0  0  0  0
 11 13  1  0  0  0  0
 13 19  1  0  0  0  0
 13 20  1  0  0  0  0
 13 21  1  0  0  0  0
 14 15  1  0  0  0  0
 14 17  2  0  0  0  0
 15 23  1  0  0  0  0
 16 17  1  0  0  0  0
 18 22  1  0  0  0  0
 22 24  2  0  0  0  0
M  END
> <PUBCHEM_COMPOUND_ID_TYPE>
0

> <PUBCHEM_TOTAL_CHARGE>
0

> <PUBCHEM_SUBSTANCE_ID>
310932803

> <PUBCHEM_SUBSTANCE_VERSION>
1

> <PUBCHEM_EXT_DATASOURCE_NAME>
4488

> <PUBCHEM_EXT_DATASOURCE_REGID>
SCHEMBL16110191

> <PUBCHEM_SUBSTANCE_COMMENT>
InChI=1S/C16H17ClN6O2/c1-9-10(25-13-7-11(17)18-8-19-13)5-6-12(20-9)23-15(24)21-14(22-23)16(2,3)4/h5-8H,1-4H3,(H,21,22,24)
InChIKey=JZWYSMPJSZAFKB-UHFFFAOYSA-N

> <PUBCHEM_SUBSTANCE_SYNONYM>
SCHEMBL16110191

> <PUBCHEM_XREF_EXT_ID>
SCHEMBL16110191

> <PUBCHEM_EXT_DATASOURCE_URL>
https://www.surechembl.org/

> <PUBCHEM_EXT_SUBSTANCE_URL>
https://www.surechembl.org/chemical/SCHEMBL16110191

> <PUBCHEM_CID_ASSOCIATIONS>
117601293  1

> <PUBCHEM_COORDINATE_TYPE>
1
3

$$$$
