310949509
  -OEChem-07211613022D

 26 28  0     0  0  0  0  0  0999 V2000
   -0.3972    1.2528    0.0000 S   0  0  0  0  0  0  0  0  0  0  0  0
    1.0847   -0.4278    0.0000 F   0  0  0  0  0  0  0  0  0  0  0  0
    2.5514   -2.9333    0.0000 F   0  0  0  0  0  0  0  0  0  0  0  0
   -0.8097    1.9861    0.0000 O   0  0  0  0  0  0  0  0  0  0  0  0
    0.0305    0.5195    0.0000 O   0  0  0  0  0  0  0  0  0  0  0  0
    1.7875    2.5208    0.0000 O   0  0  0  0  0  0  0  0  0  0  0  0
   -1.1000   -1.6958    0.0000 O   0  0  0  0  0  0  0  0  0  0  0  0
    0.3361    1.6805    0.0000 N   0  0  0  0  0  0  0  0  0  0  0  0
   -0.3819   -0.4278    0.0000 N   0  0  0  0  0  0  0  0  0  0  0  0
   -1.1152    0.8250    0.0000 C   0  0  0  0  0  0  0  0  0  0  0  0
   -1.1152    0.0000    0.0000 C   0  0  0  0  0  0  0  0  0  0  0  0
   -1.8638    1.2375    0.0000 C   0  0  0  0  0  0  0  0  0  0  0  0
   -0.3667   -1.2528    0.0000 C   0  0  0  0  0  0  0  0  0  0  0  0
    0.3667   -1.6958    0.0000 C   0  0  0  0  0  0  0  0  0  0  0  0
   -1.8486   -0.4278    0.0000 C   0  0  0  0  0  0  0  0  0  0  0  0
    0.3361    2.5055    0.0000 C   0  0  0  0  0  0  0  0  0  0  0  0
    1.0847    1.2681    0.0000 C   0  0  0  0  0  0  0  0  0  0  0  0
    1.0695   -1.2681    0.0000 C   0  0  0  0  0  0  0  0  0  0  0  0
   -2.5514    0.8097    0.0000 C   0  0  0  0  0  0  0  0  0  0  0  0
   -2.5514   -0.0153    0.0000 C   0  0  0  0  0  0  0  0  0  0  0  0
    0.3667   -2.5361    0.0000 C   0  0  0  0  0  0  0  0  0  0  0  0
    1.0388    2.9333    0.0000 C   0  0  0  0  0  0  0  0  0  0  0  0
    1.7875    1.6805    0.0000 C   0  0  0  0  0  0  0  0  0  0  0  0
    1.8028   -1.6805    0.0000 C   0  0  0  0  0  0  0  0  0  0  0  0
    1.8028   -2.5055    0.0000 C   0  0  0  0  0  0  0  0  0  0  0  0
    1.0695   -2.9333    0.0000 C   0  0  0  0  0  0  0  0  0  0  0  0
  1  4  2  0  0  0  0
  1  5  2  0  0  0  0
  1  8  1  0  0  0  0
  1 10  1  0  0  0  0
  2 18  1  0  0  0  0
  3 25  1  0  0  0  0
  6 22  1  0  0  0  0
  6 23  1  0  0  0  0
  7 13  2  0  0  0  0
  8 16  1  0  0  0  0
  8 17  1  0  0  0  0
  9 11  1  0  0  0  0
  9 13  1  0  0  0  0
 10 11  1  0  0  0  0
 10 12  2  0  0  0  0
 11 15  2  0  0  0  0
 12 19  1  0  0  0  0
 13 14  1  0  0  0  0
 14 18  1  0  0  0  0
 14 21  2  0  0  0  0
 15 20  1  0  0  0  0
 16 22  1  0  0  0  0
 17 23  1  0  0  0  0
 18 24  2  0  0  0  0
 19 20  2  0  0  0  0
 21 26  1  0  0  0  0
 24 25  1  0  0  0  0
 25 26  2  0  0  0  0
M  END
> <PUBCHEM_COMPOUND_ID_TYPE>
0

> <PUBCHEM_TOTAL_CHARGE>
0

> <PUBCHEM_SUBSTANCE_ID>
310949509

> <PUBCHEM_SUBSTANCE_VERSION>
1

> <PUBCHEM_EXT_DATASOURCE_NAME>
4488

> <PUBCHEM_EXT_DATASOURCE_REGID>
SCHEMBL16127704

> <PUBCHEM_SUBSTANCE_COMMENT>
InChI=1S/C17H16F2N2O4S/c18-12-5-6-13(14(19)11-12)17(22)20-15-3-1-2-4-16(15)26(23,24)21-7-9-25-10-8-21/h1-6,11H,7-10H2,(H,20,22)
InChIKey=XLYPBQRMZHAIMB-UHFFFAOYSA-N

> <PUBCHEM_SUBSTANCE_SYNONYM>
SCHEMBL16127704

> <PUBCHEM_XREF_EXT_ID>
SCHEMBL16127704

> <PUBCHEM_EXT_DATASOURCE_URL>
https://www.surechembl.org/

> <PUBCHEM_EXT_SUBSTANCE_URL>
https://www.surechembl.org/chemical/SCHEMBL16127704

> <PUBCHEM_CID_ASSOCIATIONS>
117614946  1

> <PUBCHEM_COORDINATE_TYPE>
1
3

$$$$
