310943212
  -OEChem-07211613022D

 22 24  0     0  0  0  0  0  0999 V2000
    0.3667    1.8715    0.0000 F   0  0  0  0  0  0  0  0  0  0  0  0
   -1.7876   -1.0313    0.0000 O   0  0  0  0  0  0  0  0  0  0  0  0
   -3.2237    1.4591    0.0000 O   0  0  0  0  0  0  0  0  0  0  0  0
   -0.3514   -1.0313    0.0000 N   0  0  0  0  0  0  0  0  0  0  0  0
   -1.7876    0.6187    0.0000 N   0  0  0  0  0  0  0  0  0  0  0  0
    3.2237    0.2063    0.0000 N   0  0  0  0  0  0  0  0  0  0  0  0
   -1.0694    0.2215    0.0000 C   0  0  0  0  0  0  0  0  0  0  0  0
    0.3667    0.2215    0.0000 C   0  0  0  0  0  0  0  0  0  0  0  0
   -1.0694   -0.6035    0.0000 C   0  0  0  0  0  0  0  0  0  0  0  0
    1.0847    0.6341    0.0000 C   0  0  0  0  0  0  0  0  0  0  0  0
   -0.3667    0.6187    0.0000 C   0  0  0  0  0  0  0  0  0  0  0  0
    0.3514   -0.6187    0.0000 C   0  0  0  0  0  0  0  0  0  0  0  0
    1.0847    1.4591    0.0000 C   0  0  0  0  0  0  0  0  0  0  0  0
    1.8028    0.2215    0.0000 C   0  0  0  0  0  0  0  0  0  0  0  0
    2.5056    0.6341    0.0000 C   0  0  0  0  0  0  0  0  0  0  0  0
   -1.7876    1.4591    0.0000 C   0  0  0  0  0  0  0  0  0  0  0  0
   -2.4903    0.2215    0.0000 C   0  0  0  0  0  0  0  0  0  0  0  0
    1.7876    1.8563    0.0000 C   0  0  0  0  0  0  0  0  0  0  0  0
    2.5056    1.4591    0.0000 C   0  0  0  0  0  0  0  0  0  0  0  0
   -0.3514   -1.8715    0.0000 C   0  0  0  0  0  0  0  0  0  0  0  0
   -2.5056    1.8715    0.0000 C   0  0  0  0  0  0  0  0  0  0  0  0
   -3.2084    0.6187    0.0000 C   0  0  0  0  0  0  0  0  0  0  0  0
  1 13  1  0  0  0  0
  2  9  2  0  0  0  0
  3 21  1  0  0  0  0
  3 22  1  0  0  0  0
  4  9  1  0  0  0  0
  4 12  1  0  0  0  0
  4 20  1  0  0  0  0
  5  7  1  0  0  0  0
  5 16  1  0  0  0  0
  5 17  1  0  0  0  0
  6 15  1  0  0  0  0
  7  9  1  0  0  0  0
  7 11  2  0  0  0  0
  8 10  1  0  0  0  0
  8 11  1  0  0  0  0
  8 12  2  0  0  0  0
 10 13  2  0  0  0  0
 10 14  1  0  0  0  0
 13 18  1  0  0  0  0
 14 15  2  0  0  0  0
 15 19  1  0  0  0  0
 16 21  1  0  0  0  0
 17 22  1  0  0  0  0
 18 19  2  0  0  0  0
M  END
> <PUBCHEM_COMPOUND_ID_TYPE>
0

> <PUBCHEM_TOTAL_CHARGE>
0

> <PUBCHEM_SUBSTANCE_ID>
310943212

> <PUBCHEM_SUBSTANCE_VERSION>
1

> <PUBCHEM_EXT_DATASOURCE_NAME>
4488

> <PUBCHEM_EXT_DATASOURCE_REGID>
SCHEMBL16121273

> <PUBCHEM_SUBSTANCE_COMMENT>
InChI=1S/C16H18FN3O2/c1-19-10-11(13-9-12(18)2-3-14(13)17)8-15(16(19)21)20-4-6-22-7-5-20/h2-3,8-10H,4-7,18H2,1H3
InChIKey=SIMJGOXKTAAICO-UHFFFAOYSA-N

> <PUBCHEM_SUBSTANCE_SYNONYM>
SCHEMBL16121273

> <PUBCHEM_XREF_EXT_ID>
SCHEMBL16121273

> <PUBCHEM_EXT_DATASOURCE_URL>
https://www.surechembl.org/

> <PUBCHEM_EXT_SUBSTANCE_URL>
https://www.surechembl.org/chemical/SCHEMBL16121273

> <PUBCHEM_CID_ASSOCIATIONS>
117609638  1

> <PUBCHEM_COORDINATE_TYPE>
1
3

$$$$
