310940975
  -OEChem-07211613022D

 43 46  0     1  0  0  0  0  0999 V2000
    5.1832    0.5880    0.0000 O   0  0  0  0  0  0  0  0  0  0  0  0
    4.0507   -1.3720    0.0000 O   0  0  0  0  0  0  0  0  0  0  0  0
    1.6842    0.5735    0.0000 O   0  0  0  0  0  0  0  0  0  0  0  0
    3.1505    2.7368    0.0000 O   0  0  0  0  0  0  0  0  0  0  0  0
   -0.4646   -1.4882    0.0000 O   0  0  0  0  0  0  0  0  0  0  0  0
    3.8329   -3.1433    0.0000 O   0  0  0  0  0  0  0  0  0  0  0  0
   -2.6134    0.5735    0.0000 O   0  0  0  0  0  0  0  0  0  0  0  0
   -5.4881    0.5735    0.0000 O   0  0  0  0  0  0  0  0  0  0  0  0
    2.4101   -0.6751    0.0000 N   0  0  0  0  0  0  0  0  0  0  0  0
    1.7277    2.3448    0.0000 N   0  0  0  0  0  0  0  0  0  0  0  0
    0.2613   -0.2541    0.0000 N   0  0  0  0  0  0  0  0  0  0  0  0
   -1.9019   -0.6751    0.0000 N   0  0  0  0  0  0  0  0  0  0  0  0
   -4.0507   -0.2541    0.0000 N   0  0  0  0  0  0  0  0  0  0  0  0
    4.7622   -0.0798    0.0000 C   0  0  3  0  0  0  0  0  0  0  0  0
    4.0507   -0.5009    0.0000 C   0  0  0  0  0  0  0  0  0  0  0  0
    4.3846    0.6025    0.0000 C   0  0  0  0  0  0  0  0  0  0  0  0
    3.3248   -0.0944    0.0000 C   0  0  3  0  0  0  0  0  0  0  0  0
    5.4881   -0.5009    0.0000 C   0  0  0  0  0  0  0  0  0  0  0  0
    3.3538    0.9655    0.0000 C   0  0  0  0  0  0  0  0  0  0  0  0
    2.6134    1.3865    0.0000 C   0  0  3  0  0  0  0  0  0  0  0  0
    1.6987   -0.2395    0.0000 C   0  0  0  0  0  0  0  0  0  0  0  0
    2.5262    2.1851    0.0000 C   0  0  0  0  0  0  0  0  0  0  0  0
    0.9873   -0.6315    0.0000 C   0  0  3  0  0  0  0  0  0  0  0  0
    1.8875    1.0526    0.0000 C   0  0  0  0  0  0  0  0  0  0  0  0
    1.3212    1.6478    0.0000 C   0  0  0  0  0  0  0  0  0  0  0  0
    0.9582   -1.4736    0.0000 C   0  0  0  0  0  0  0  0  0  0  0  0
    1.7132   -1.8802    0.0000 C   0  0  0  0  0  0  0  0  0  0  0  0
   -0.4501   -0.6171    0.0000 C   0  0  0  0  0  0  0  0  0  0  0  0
   -1.1760   -0.2250    0.0000 C   0  0  3  0  0  0  0  0  0  0  0  0
    1.3793    3.1433    0.0000 C   0  0  0  0  0  0  0  0  0  0  0  0
    2.4101   -1.4882    0.0000 C   0  0  0  0  0  0  0  0  0  0  0  0
    1.7132   -2.7077    0.0000 C   0  0  0  0  0  0  0  0  0  0  0  0
    3.1360   -2.6932    0.0000 C   0  0  0  0  0  0  0  0  0  0  0  0
    3.1360   -1.8947    0.0000 C   0  0  0  0  0  0  0  0  0  0  0  0
    2.4246   -3.1142    0.0000 C   0  0  0  0  0  0  0  0  0  0  0  0
   -2.6134   -0.2395    0.0000 C   0  0  0  0  0  0  0  0  0  0  0  0
   -1.1760    0.5880    0.0000 C   0  0  0  0  0  0  0  0  0  0  0  0
   -3.3248   -0.6315    0.0000 C   0  0  0  0  0  0  0  0  0  0  0  0
   -4.0362    0.5880    0.0000 C   0  0  0  0  0  0  0  0  0  0  0  0
   -4.7476   -0.6315    0.0000 C   0  0  0  0  0  0  0  0  0  0  0  0
   -4.7766    1.0091    0.0000 C   0  0  0  0  0  0  0  0  0  0  0  0
   -5.4590   -0.2250    0.0000 C   0  0  0  0  0  0  0  0  0  0  0  0
    4.5879   -2.7222    0.0000 C   0  0  0  0  0  0  0  0  0  0  0  0
  1 14  1  0  0  0  0
  1 16  1  0  0  0  0
  2 15  2  0  0  0  0
  3 21  2  0  0  0  0
  4 22  2  0  0  0  0
  5 28  2  0  0  0  0
  6 33  1  0  0  0  0
  6 43  1  0  0  0  0
  7 36  2  0  0  0  0
  8 41  1  0  0  0  0
  8 42  1  0  0  0  0
 17  9  1  1  0  0  0
  9 21  1  0  0  0  0
 10 22  1  0  0  0  0
 10 25  1  0  0  0  0
 10 30  1  0  0  0  0
 23 11  1  6  0  0  0
 11 28  1  0  0  0  0
 12 29  1  0  0  0  0
 12 36  1  0  0  0  0
 13 38  1  0  0  0  0
 13 39  1  0  0  0  0
 13 40  1  0  0  0  0
 14 15  1  1  0  0  0
 14 16  1  0  0  0  0
 14 18  1  6  0  0  0
 15 17  1  0  0  0  0
 17 19  1  0  0  0  0
 20 19  1  1  0  0  0
 20 22  1  0  0  0  0
 20 24  1  0  0  0  0
 21 23  1  0  0  0  0
 23 26  1  0  0  0  0
 24 25  1  0  0  0  0
 26 27  1  0  0  0  0
 27 31  2  0  0  0  0
 27 32  1  0  0  0  0
 28 29  1  0  0  0  0
 29 37  1  1  0  0  0
 31 34  1  0  0  0  0
 32 35  2  0  0  0  0
 33 34  2  0  0  0  0
 33 35  1  0  0  0  0
 36 38  1  0  0  0  0
 39 41  1  0  0  0  0
 40 42  1  0  0  0  0
M  END
> <PUBCHEM_COMPOUND_ID_TYPE>
0

> <PUBCHEM_TOTAL_CHARGE>
0

> <PUBCHEM_SUBSTANCE_ID>
310940975

> <PUBCHEM_SUBSTANCE_VERSION>
1

> <PUBCHEM_EXT_DATASOURCE_NAME>
4488

> <PUBCHEM_EXT_DATASOURCE_REGID>
SCHEMBL16118934

> <PUBCHEM_SUBSTANCE_COMMENT>
InChI=1S/C30H43N5O8/c1-19(31-25(36)17-35-11-13-42-14-12-35)27(38)33-24(15-20-5-7-22(41-4)8-6-20)28(39)32-23(26(37)30(2)18-43-30)16-21-9-10-34(3)29(21)40/h5-8,19,21,23-24H,9-18H2,1-4H3,(H,31,36)(H,32,39)(H,33,38)/t19-,21+,23-,24-,30+/m0/s1
InChIKey=KBWRLIIPRWIGLV-JHYGQDQHSA-N

> <PUBCHEM_SUBSTANCE_SYNONYM>
SCHEMBL16118934

> <PUBCHEM_XREF_EXT_ID>
SCHEMBL16118934

> <PUBCHEM_EXT_DATASOURCE_URL>
https://www.surechembl.org/

> <PUBCHEM_EXT_SUBSTANCE_URL>
https://www.surechembl.org/chemical/SCHEMBL16118934

> <PUBCHEM_CID_ASSOCIATIONS>
117607883  1

> <PUBCHEM_COORDINATE_TYPE>
1
3

> <PUBCHEM_BONDANNOTATIONS>
23  11  6
14  15  5
14  18  6
20  19  5
29  37  5
17  9  5

$$$$
