310948002
  -OEChem-07211613022D

 30 34  0     1  0  0  0  0  0999 V2000
   -2.4771   -2.2782    0.0000 P   0  0  0  0  0  0  0  0  0  0  0  0
   -1.4450    0.0959    0.0000 O   0  0  0  0  0  0  0  0  0  0  0  0
   -1.7547   -1.8652    0.0000 O   0  0  0  0  0  0  0  0  0  0  0  0
   -1.7547    2.2782    0.0000 O   0  0  0  0  0  0  0  0  0  0  0  0
   -2.4771   -3.1038    0.0000 O   0  0  0  0  0  0  0  0  0  0  0  0
    2.5656    3.1038    0.0000 O   0  0  0  0  0  0  0  0  0  0  0  0
    3.2882    1.8652    0.0000 O   0  0  0  0  0  0  0  0  0  0  0  0
    1.8432   -0.6710    0.0000 N   0  0  3  0  0  0  0  0  0  0  0  0
   -0.3097   -0.1696    0.0000 C   0  0  3  0  0  0  0  0  0  0  0  0
   -0.3097    0.6414    0.0000 C   0  0  0  0  0  0  0  0  0  0  0  0
   -1.0321   -0.6120    0.0000 C   0  0  3  0  0  0  0  0  0  0  0  0
    0.3981   -0.5972    0.0000 C   0  0  3  0  0  0  0  0  0  0  0  0
   -1.0321    1.0542    0.0000 C   0  0  0  0  0  0  0  0  0  0  0  0
    0.3834    1.0690    0.0000 C   0  0  0  0  0  0  0  0  0  0  0  0
    1.1059   -0.1843    0.0000 C   0  0  3  0  0  0  0  0  0  0  0  0
    0.2507    0.2728    0.0000 C   0  0  0  0  0  0  0  0  0  0  0  0
   -1.0321   -1.4229    0.0000 C   0  0  3  0  0  0  0  0  0  0  0  0
    1.1206    0.6267    0.0000 C   0  0  0  0  0  0  0  0  0  0  0  0
    0.3981    1.8800    0.0000 C   0  0  0  0  0  0  0  0  0  0  0  0
   -1.0321    1.8800    0.0000 C   0  0  0  0  0  0  0  0  0  0  0  0
    0.3834   -1.4376    0.0000 C   0  0  0  0  0  0  0  0  0  0  0  0
    1.5777    0.2580    0.0000 C   0  0  0  0  0  0  0  0  0  0  0  0
   -0.2949   -1.8358    0.0000 C   0  0  0  0  0  0  0  0  0  0  0  0
   -0.3244    2.2782    0.0000 C   0  0  0  0  0  0  0  0  0  0  0  0
    1.1059    2.2929    0.0000 C   0  0  0  0  0  0  0  0  0  0  0  0
    2.6688   -0.4350    0.0000 C   0  0  0  0  0  0  0  0  0  0  0  0
    1.8284    1.8800    0.0000 C   0  0  0  0  0  0  0  0  0  0  0  0
   -2.9195   -1.5261    0.0000 C   0  0  0  0  0  0  0  0  0  0  0  0
   -3.2882   -2.0570    0.0000 C   0  0  0  0  0  0  0  0  0  0  0  0
    2.5509    2.2782    0.0000 C   0  0  0  0  0  0  0  0  0  0  0  0
  1  3  1  0  0  0  0
  1  5  2  0  0  0  0
  1 28  1  0  0  0  0
  1 29  1  0  0  0  0
 11  2  1  6  0  0  0
  2 13  1  0  0  0  0
 17  3  1  6  0  0  0
  4 20  1  0  0  0  0
  6 30  2  0  0  0  0
  7 30  1  0  0  0  0
 15  8  1  1  0  0  0
  8 22  1  0  0  0  0
  8 26  1  0  0  0  0
  9 10  1  6  0  0  0
  9 11  1  0  0  0  0
  9 12  1  0  0  0  0
  9 16  1  0  0  0  0
 10 13  1  0  0  0  0
 10 14  2  0  0  0  0
 11 17  1  0  0  0  0
 12 15  1  0  0  0  0
 12 21  1  0  0  0  0
 13 20  2  0  0  0  0
 14 18  1  0  0  0  0
 14 19  1  0  0  0  0
 15 18  1  0  0  0  0
 16 22  1  0  0  0  0
 17 23  1  0  0  0  0
 19 24  2  0  0  0  0
 19 25  1  0  0  0  0
 20 24  1  0  0  0  0
 21 23  2  0  0  0  0
 25 27  1  0  0  0  0
 27 30  1  0  0  0  0
M  END
> <PUBCHEM_COMPOUND_ID_TYPE>
0

> <PUBCHEM_TOTAL_CHARGE>
0

> <PUBCHEM_SUBSTANCE_ID>
310948002

> <PUBCHEM_SUBSTANCE_VERSION>
1

> <PUBCHEM_EXT_DATASOURCE_NAME>
4488

> <PUBCHEM_EXT_DATASOURCE_REGID>
SCHEMBL16126176

> <PUBCHEM_SUBSTANCE_COMMENT>
InChI=1S/C22H28NO6P/c1-23-9-8-22-14-5-6-17(29-30(2,3)27)21(22)28-20-16(24)10-12(4-7-18(25)26)13(19(20)22)11-15(14)23/h5-6,10,14-15,17,21,24H,4,7-9,11H2,1-3H3,(H,25,26)/t14?,15-,17+,21+,22+/m1/s1
InChIKey=OGFNPKKOTBWZCB-VBDJPVSXSA-N

> <PUBCHEM_SUBSTANCE_SYNONYM>
SCHEMBL16126176

> <PUBCHEM_XREF_EXT_ID>
SCHEMBL16126176

> <PUBCHEM_EXT_DATASOURCE_URL>
https://www.surechembl.org/

> <PUBCHEM_EXT_SUBSTANCE_URL>
https://www.surechembl.org/chemical/SCHEMBL16126176

> <PUBCHEM_CID_ASSOCIATIONS>
117613647  1

> <PUBCHEM_COORDINATE_TYPE>
1
3

> <PUBCHEM_BONDANNOTATIONS>
11  2  6
17  3  6
15  8  5
9  10  6

$$$$
