310941357
  -OEChem-07211613022D

 29 30  0     1  0  0  0  0  0999 V2000
    3.5820    1.0311    0.0000 O   0  0  0  0  0  0  0  0  0  0  0  0
    0.7103    0.2062    0.0000 O   0  0  0  0  0  0  0  0  0  0  0  0
    2.8640    2.2683    0.0000 O   0  0  0  0  0  0  0  0  0  0  0  0
    3.5820   -2.2836    0.0000 O   0  0  0  0  0  0  0  0  0  0  0  0
   -1.4282    2.2683    0.0000 O   0  0  0  0  0  0  0  0  0  0  0  0
   -4.2999    2.2683    0.0000 O   0  0  0  0  0  0  0  0  0  0  0  0
    1.4282    1.4435    0.0000 N   0  0  0  0  0  0  0  0  0  0  0  0
   -0.7103    1.0311    0.0000 N   0  0  0  0  0  0  0  0  0  0  0  0
   -2.8640    1.4435    0.0000 N   0  0  0  0  0  0  0  0  0  0  0  0
    4.2999   -1.0311    0.0000 N   0  0  0  0  0  0  0  0  0  0  0  0
    2.1767    1.0463    0.0000 C   0  0  3  0  0  0  0  0  0  0  0  0
    2.8793   -0.2062    0.0000 C   0  0  0  0  0  0  0  0  0  0  0  0
    0.7103    1.0616    0.0000 C   0  0  0  0  0  0  0  0  0  0  0  0
    2.1461    0.1909    0.0000 C   0  0  0  0  0  0  0  0  0  0  0  0
    2.8488    1.4282    0.0000 C   0  0  0  0  0  0  0  0  0  0  0  0
   -0.0076    1.4435    0.0000 C   0  0  3  0  0  0  0  0  0  0  0  0
    2.8640   -1.0311    0.0000 C   0  0  0  0  0  0  0  0  0  0  0  0
    3.5820   -1.4435    0.0000 C   0  0  0  0  0  0  0  0  0  0  0  0
   -1.4282    1.4282    0.0000 C   0  0  0  0  0  0  0  0  0  0  0  0
    3.5820    0.2062    0.0000 C   0  0  0  0  0  0  0  0  0  0  0  0
   -2.1156    1.0463    0.0000 C   0  0  0  0  0  0  0  0  0  0  0  0
    4.2999   -0.2062    0.0000 C   0  0  0  0  0  0  0  0  0  0  0  0
    0.0076    2.2683    0.0000 C   0  0  0  0  0  0  0  0  0  0  0  0
   -2.8640    2.2683    0.0000 C   0  0  0  0  0  0  0  0  0  0  0  0
   -3.5515    1.0463    0.0000 C   0  0  0  0  0  0  0  0  0  0  0  0
   -3.5667    2.6807    0.0000 C   0  0  0  0  0  0  0  0  0  0  0  0
   -4.2847    1.4435    0.0000 C   0  0  0  0  0  0  0  0  0  0  0  0
    4.2693    1.4588    0.0000 C   0  0  0  0  0  0  0  0  0  0  0  0
    4.2847   -2.6807    0.0000 C   0  0  0  0  0  0  0  0  0  0  0  0
  1 15  1  0  0  0  0
  1 28  1  0  0  0  0
  2 13  2  0  0  0  0
  3 15  2  0  0  0  0
  4 18  1  0  0  0  0
  4 29  1  0  0  0  0
  5 19  2  0  0  0  0
  6 26  1  0  0  0  0
  6 27  1  0  0  0  0
 11  7  1  6  0  0  0
  7 13  1  0  0  0  0
  8 16  1  0  0  0  0
  8 19  1  0  0  0  0
  9 21  1  0  0  0  0
  9 24  1  0  0  0  0
  9 25  1  0  0  0  0
 10 18  2  0  0  0  0
 10 22  1  0  0  0  0
 11 14  1  0  0  0  0
 11 15  1  0  0  0  0
 12 14  1  0  0  0  0
 12 17  2  0  0  0  0
 12 20  1  0  0  0  0
 13 16  1  0  0  0  0
 16 23  1  1  0  0  0
 17 18  1  0  0  0  0
 19 21  1  0  0  0  0
 20 22  2  0  0  0  0
 24 26  1  0  0  0  0
 25 27  1  0  0  0  0
M  END
> <PUBCHEM_COMPOUND_ID_TYPE>
0

> <PUBCHEM_TOTAL_CHARGE>
0

> <PUBCHEM_SUBSTANCE_ID>
310941357

> <PUBCHEM_SUBSTANCE_VERSION>
1

> <PUBCHEM_EXT_DATASOURCE_NAME>
4488

> <PUBCHEM_EXT_DATASOURCE_REGID>
SCHEMBL16119317

> <PUBCHEM_SUBSTANCE_COMMENT>
InChI=1S/C19H28N4O6/c1-13(21-16(24)12-23-6-8-29-9-7-23)18(25)22-15(19(26)28-3)10-14-4-5-20-17(11-14)27-2/h4-5,11,13,15H,6-10,12H2,1-3H3,(H,21,24)(H,22,25)/t13-,15-/m0/s1
InChIKey=LKTHSZYSYDRIBZ-ZFWWWQNUSA-N

> <PUBCHEM_SUBSTANCE_SYNONYM>
SCHEMBL16119317

> <PUBCHEM_XREF_EXT_ID>
SCHEMBL16119317

> <PUBCHEM_EXT_DATASOURCE_URL>
https://www.surechembl.org/

> <PUBCHEM_EXT_SUBSTANCE_URL>
https://www.surechembl.org/chemical/SCHEMBL16119317

> <PUBCHEM_CID_ASSOCIATIONS>
117608200  1

> <PUBCHEM_COORDINATE_TYPE>
1
3

> <PUBCHEM_BONDANNOTATIONS>
16  23  5
11  7  6

$$$$
