310930064
  -OEChem-07211613022D

 35 39  0     1  0  0  0  0  0999 V2000
   -4.1571    3.5724    0.0000 F   0  0  0  0  0  0  0  0  0  0  0  0
   -3.3321    3.5724    0.0000 F   0  0  0  0  0  0  0  0  0  0  0  0
   -4.5696    2.8579    0.0000 F   0  0  0  0  0  0  0  0  0  0  0  0
    1.1561   -1.2524    0.0000 O   0  0  0  0  0  0  0  0  0  0  0  0
   -2.5071   -0.7145    0.0000 O   0  0  0  0  0  0  0  0  0  0  0  0
   -0.1494   -1.8336    0.0000 O   0  0  0  0  0  0  0  0  0  0  0  0
   -1.2696    0.0000    0.0000 N   0  0  0  0  0  0  0  0  0  0  0  0
    1.3422   -3.4272    0.0000 N   0  0  0  0  0  0  0  0  0  0  0  0
   -0.2987   -3.2548    0.0000 N   0  0  0  0  0  0  0  0  0  0  0  0
   -1.4548   -2.4149    0.0000 N   0  0  0  0  0  0  0  0  0  0  0  0
    0.0000   -0.4125    0.0000 C   0  0  3  0  0  0  0  0  0  0  0  0
    0.0000    0.4125    0.0000 C   0  0  3  0  0  0  0  0  0  0  0  0
    0.7145    0.0000    0.0000 C   0  0  0  0  0  0  0  0  0  0  0  0
   -0.7846   -0.6674    0.0000 C   0  0  0  0  0  0  0  0  0  0  0  0
   -0.7846    0.6674    0.0000 C   0  0  0  0  0  0  0  0  0  0  0  0
    0.3355   -1.1662    0.0000 C   0  0  0  0  0  0  0  0  0  0  0  0
   -2.0946    0.0000    0.0000 C   0  0  0  0  0  0  0  0  0  0  0  0
   -2.5071    0.7145    0.0000 C   0  0  0  0  0  0  0  0  0  0  0  0
    1.4916   -2.0061    0.0000 C   0  0  0  0  0  0  0  0  0  0  0  0
    1.0067   -2.6735    0.0000 C   0  0  0  0  0  0  0  0  0  0  0  0
   -2.0946    1.4290    0.0000 C   0  0  0  0  0  0  0  0  0  0  0  0
   -3.3321    0.7145    0.0000 C   0  0  0  0  0  0  0  0  0  0  0  0
   -3.3321    2.1434    0.0000 C   0  0  0  0  0  0  0  0  0  0  0  0
    2.3121   -2.0923    0.0000 C   0  0  0  0  0  0  0  0  0  0  0  0
    0.1862   -2.5873    0.0000 C   0  0  0  0  0  0  0  0  0  0  0  0
   -2.5071    2.1434    0.0000 C   0  0  0  0  0  0  0  0  0  0  0  0
   -3.7446    1.4290    0.0000 C   0  0  0  0  0  0  0  0  0  0  0  0
   -3.7446    2.8579    0.0000 C   0  0  0  0  0  0  0  0  0  0  0  0
    2.6477   -2.8460    0.0000 C   0  0  0  0  0  0  0  0  0  0  0  0
    2.1628   -3.5135    0.0000 C   0  0  0  0  0  0  0  0  0  0  0  0
   -1.1192   -3.1685    0.0000 C   0  0  0  0  0  0  0  0  0  0  0  0
   -1.6042   -3.8360    0.0000 C   0  0  0  0  0  0  0  0  0  0  0  0
   -2.2752   -2.3286    0.0000 C   0  0  0  0  0  0  0  0  0  0  0  0
   -2.4246   -3.7497    0.0000 C   0  0  0  0  0  0  0  0  0  0  0  0
   -2.7602   -2.9961    0.0000 C   0  0  0  0  0  0  0  0  0  0  0  0
  1 28  1  0  0  0  0
  2 28  1  0  0  0  0
  3 28  1  0  0  0  0
  4 16  1  0  0  0  0
  4 19  1  0  0  0  0
  5 17  2  0  0  0  0
  6 25  2  0  0  0  0
  7 14  1  0  0  0  0
  7 15  1  0  0  0  0
  7 17  1  0  0  0  0
  8 20  2  0  0  0  0
  8 30  1  0  0  0  0
  9 25  1  0  0  0  0
  9 31  1  0  0  0  0
 10 31  2  0  0  0  0
 10 33  1  0  0  0  0
 11 12  1  0  0  0  0
 11 13  1  0  0  0  0
 11 14  1  0  0  0  0
 11 16  1  0  0  0  0
 12 13  1  0  0  0  0
 12 15  1  0  0  0  0
 18 17  1  6  0  0  0
 18 21  1  0  0  0  0
 18 22  1  0  0  0  0
 19 20  1  0  0  0  0
 19 24  2  0  0  0  0
 20 25  1  0  0  0  0
 21 26  1  0  0  0  0
 22 27  1  0  0  0  0
 23 26  1  0  0  0  0
 23 27  1  0  0  0  0
 23 28  1  1  0  0  0
 24 29  1  0  0  0  0
 29 30  2  0  0  0  0
 31 32  1  0  0  0  0
 32 34  2  0  0  0  0
 33 35  2  0  0  0  0
 34 35  1  0  0  0  0
M  END
> <PUBCHEM_COMPOUND_ID_TYPE>
0

> <PUBCHEM_TOTAL_CHARGE>
0

> <PUBCHEM_SUBSTANCE_ID>
310930064

> <PUBCHEM_SUBSTANCE_VERSION>
1

> <PUBCHEM_EXT_DATASOURCE_NAME>
4488

> <PUBCHEM_EXT_DATASOURCE_REGID>
SCHEMBL16107307

> <PUBCHEM_SUBSTANCE_COMMENT>
InChI=1S/C25H27F3N4O3/c26-25(27,28)17-8-6-16(7-9-17)23(34)32-13-18-12-24(18,14-32)15-35-19-4-3-11-30-21(19)22(33)31-20-5-1-2-10-29-20/h1-5,10-11,16-18H,6-9,12-15H2,(H,29,31,33)/t16-,17-,18?,24?
InChIKey=VXERNQOVEGTIOS-OESDFDSJSA-N

> <PUBCHEM_SUBSTANCE_SYNONYM>
SCHEMBL16107307

> <PUBCHEM_XREF_EXT_ID>
SCHEMBL16107307

> <PUBCHEM_EXT_DATASOURCE_URL>
https://www.surechembl.org/

> <PUBCHEM_EXT_SUBSTANCE_URL>
https://www.surechembl.org/chemical/SCHEMBL16107307

> <PUBCHEM_CID_ASSOCIATIONS>
117599306  1

> <PUBCHEM_COORDINATE_TYPE>
1
3

> <PUBCHEM_BONDANNOTATIONS>
18  17  6
23  28  5

$$$$
