310945031
  -OEChem-07211613022D

 34 39  0     0  0  0  0  0  0999 V2000
    4.7755    1.4175    0.0000 O   0  0  0  0  0  0  0  0  0  0  0  0
   -3.3633   -1.3744    0.0000 O   0  0  0  0  0  0  0  0  0  0  0  0
    0.1617   -0.9432    0.0000 O   0  0  0  0  0  0  0  0  0  0  0  0
   -2.6842    1.6008    0.0000 O   0  0  0  0  0  0  0  0  0  0  0  0
    2.9968    0.1240    0.0000 N   0  0  0  0  0  0  0  0  0  0  0  0
    4.6461   -0.0162    0.0000 N   0  0  0  0  0  0  0  0  0  0  0  0
   -0.5497    0.2965    0.0000 N   0  0  0  0  0  0  0  0  0  0  0  0
   -3.3741    0.2856    0.0000 N   0  0  0  0  0  0  0  0  0  0  0  0
    3.3525   -0.6199    0.0000 C   0  0  0  0  0  0  0  0  0  0  0  0
    2.2099    0.3827    0.0000 C   0  0  0  0  0  0  0  0  0  0  0  0
    3.4711    0.8247    0.0000 C   0  0  0  0  0  0  0  0  0  0  0  0
    2.1990    1.2127    0.0000 C   0  0  0  0  0  0  0  0  0  0  0  0
    2.9752    1.4606    0.0000 C   0  0  0  0  0  0  0  0  0  0  0  0
    4.2904    0.7276    0.0000 C   0  0  0  0  0  0  0  0  0  0  0  0
    4.1718   -0.6953    0.0000 C   0  0  0  0  0  0  0  0  0  0  0  0
    2.5440   -0.7923    0.0000 C   0  0  0  0  0  0  0  0  0  0  0  0
    3.4711   -1.4606    0.0000 C   0  0  0  0  0  0  0  0  0  0  0  0
    1.5092   -0.0485    0.0000 C   0  0  0  0  0  0  0  0  0  0  0  0
    2.6734   -1.6008    0.0000 C   0  0  0  0  0  0  0  0  0  0  0  0
    0.7762    0.3612    0.0000 C   0  0  0  0  0  0  0  0  0  0  0  0
    1.4768    1.6008    0.0000 C   0  0  0  0  0  0  0  0  0  0  0  0
    0.7762    1.1804    0.0000 C   0  0  0  0  0  0  0  0  0  0  0  0
    0.1617   -0.0916    0.0000 C   0  0  0  0  0  0  0  0  0  0  0  0
   -2.6518   -0.1240    0.0000 C   0  0  0  0  0  0  0  0  0  0  0  0
   -1.2289   -0.1240    0.0000 C   0  0  0  0  0  0  0  0  0  0  0  0
   -2.6626   -0.9540    0.0000 C   0  0  0  0  0  0  0  0  0  0  0  0
   -1.9512    0.2749    0.0000 C   0  0  0  0  0  0  0  0  0  0  0  0
   -1.2289   -0.9540    0.0000 C   0  0  0  0  0  0  0  0  0  0  0  0
   -1.9296   -1.3637    0.0000 C   0  0  0  0  0  0  0  0  0  0  0  0
   -3.3741    1.1265    0.0000 C   0  0  0  0  0  0  0  0  0  0  0  0
   -4.0748   -0.1240    0.0000 C   0  0  0  0  0  0  0  0  0  0  0  0
   -4.0748   -0.9540    0.0000 C   0  0  0  0  0  0  0  0  0  0  0  0
   -4.1179    1.4930    0.0000 C   0  0  0  0  0  0  0  0  0  0  0  0
   -4.7755    0.9648    0.0000 C   0  0  0  0  0  0  0  0  0  0  0  0
  1 14  2  0  0  0  0
  2 26  1  0  0  0  0
  2 32  1  0  0  0  0
  3 23  2  0  0  0  0
  4 30  2  0  0  0  0
  5  9  1  0  0  0  0
  5 10  1  0  0  0  0
  5 11  1  0  0  0  0
  6 14  1  0  0  0  0
  6 15  1  0  0  0  0
  7 23  1  0  0  0  0
  7 25  1  0  0  0  0
  8 24  1  0  0  0  0
  8 30  1  0  0  0  0
  8 31  1  0  0  0  0
  9 15  1  0  0  0  0
  9 16  1  0  0  0  0
  9 17  1  0  0  0  0
 10 12  2  0  0  0  0
 10 18  1  0  0  0  0
 11 13  2  0  0  0  0
 11 14  1  0  0  0  0
 12 13  1  0  0  0  0
 12 21  1  0  0  0  0
 16 19  1  0  0  0  0
 17 19  1  0  0  0  0
 18 20  2  0  0  0  0
 20 22  1  0  0  0  0
 20 23  1  0  0  0  0
 21 22  2  0  0  0  0
 24 26  2  0  0  0  0
 24 27  1  0  0  0  0
 25 27  2  0  0  0  0
 25 28  1  0  0  0  0
 26 29  1  0  0  0  0
 28 29  2  0  0  0  0
 30 33  1  0  0  0  0
 31 32  1  0  0  0  0
 33 34  2  0  0  0  0
M  END
> <PUBCHEM_COMPOUND_ID_TYPE>
0

> <PUBCHEM_TOTAL_CHARGE>
0

> <PUBCHEM_SUBSTANCE_ID>
310945031

> <PUBCHEM_SUBSTANCE_VERSION>
1

> <PUBCHEM_EXT_DATASOURCE_NAME>
4488

> <PUBCHEM_EXT_DATASOURCE_REGID>
SCHEMBL16123119

> <PUBCHEM_SUBSTANCE_COMMENT>
InChI=1S/C26H24N4O4/c1-2-23(31)29-10-11-34-22-7-6-18(14-20(22)29)28-24(32)17-5-4-16-12-21-25(33)27-15-26(8-3-9-26)30(21)19(16)13-17/h2,4-7,12-14H,1,3,8-11,15H2,(H,27,33)(H,28,32)
InChIKey=GOFNSERJKKHIDO-UHFFFAOYSA-N

> <PUBCHEM_SUBSTANCE_SYNONYM>
SCHEMBL16123119

> <PUBCHEM_XREF_EXT_ID>
SCHEMBL16123119

> <PUBCHEM_EXT_DATASOURCE_URL>
https://www.surechembl.org/

> <PUBCHEM_EXT_SUBSTANCE_URL>
https://www.surechembl.org/chemical/SCHEMBL16123119

> <PUBCHEM_CID_ASSOCIATIONS>
117611159  1

> <PUBCHEM_COORDINATE_TYPE>
1
3

$$$$
