310933852
  -OEChem-07211613022D

 18 19  0     0  0  0  0  0  0999 V2000
    0.6639   -1.7935    0.0000 O   0  0  0  0  0  0  0  0  0  0  0  0
    2.4573   -4.2547    0.0000 O   0  0  0  0  0  0  0  0  0  0  0  0
    1.0285   -4.2333    0.0000 O   0  0  0  0  0  0  0  0  0  0  0  0
    1.0655   -1.7586    0.0000 C   0  0  0  0  0  0  0  0  0  0  0  0
    0.9228   -1.0102    0.0000 C   0  0  0  0  0  0  0  0  0  0  0  0
    1.8140   -2.1055    0.0000 C   0  0  0  0  0  0  0  0  0  0  0  0
    0.2262   -2.1175    0.0000 C   0  0  0  0  0  0  0  0  0  0  0  0
    1.2052   -0.7200    0.0000 C   0  0  0  0  0  0  0  0  0  0  0  0
    1.6614   -1.3425    0.0000 C   0  0  0  0  0  0  0  0  0  0  0  0
    0.1190   -1.3621    0.0000 C   0  0  0  0  0  0  0  0  0  0  0  0
    0.9605   -0.1141    0.0000 C   0  0  0  0  0  0  0  0  0  0  0  0
    1.0532   -2.5835    0.0000 C   0  0  0  0  0  0  0  0  0  0  0  0
    1.7614   -3.0066    0.0000 C   0  0  0  0  0  0  0  0  0  0  0  0
    1.7491   -3.8316    0.0000 C   0  0  0  0  0  0  0  0  0  0  0  0
    2.4449   -5.0796    0.0000 C   0  0  0  0  0  0  0  0  0  0  0  0
    2.4326   -5.9045    0.0000 C   0  0  0  0  0  0  0  0  0  0  0  0
    3.2698   -5.0919    0.0000 C   0  0  0  0  0  0  0  0  0  0  0  0
    1.6200   -5.0673    0.0000 C   0  0  0  0  0  0  0  0  0  0  0  0
  1  5  1  0  0  0  0
  2 14  1  0  0  0  0
  2 15  1  0  0  0  0
  3 14  2  0  0  0  0
  4  6  1  0  0  0  0
  4  7  1  0  0  0  0
  4  8  1  0  0  0  0
  4 12  1  0  0  0  0
  5  9  1  0  0  0  0
  5 10  1  0  0  0  0
  5 11  1  0  0  0  0
  6  9  1  0  0  0  0
  7 10  1  0  0  0  0
  8 11  1  0  0  0  0
 12 13  1  0  0  0  0
 13 14  1  0  0  0  0
 15 16  1  0  0  0  0
 15 17  1  0  0  0  0
 15 18  1  0  0  0  0
M  END
> <PUBCHEM_COMPOUND_ID_TYPE>
0

> <PUBCHEM_TOTAL_CHARGE>
0

> <PUBCHEM_SUBSTANCE_ID>
310933852

> <PUBCHEM_SUBSTANCE_VERSION>
1

> <PUBCHEM_EXT_DATASOURCE_NAME>
4488

> <PUBCHEM_EXT_DATASOURCE_REGID>
SCHEMBL16111290

> <PUBCHEM_SUBSTANCE_COMMENT>
InChI=1S/C15H26O3/c1-13(2,3)18-12(16)4-5-14-6-9-15(17,10-7-14)11-8-14/h17H,4-11H2,1-3H3
InChIKey=ZUVHKVJIJPMGDP-UHFFFAOYSA-N

> <PUBCHEM_SUBSTANCE_SYNONYM>
SCHEMBL16111290

> <PUBCHEM_XREF_EXT_ID>
SCHEMBL16111290

> <PUBCHEM_EXT_DATASOURCE_URL>
https://www.surechembl.org/

> <PUBCHEM_EXT_SUBSTANCE_URL>
https://www.surechembl.org/chemical/SCHEMBL16111290

> <PUBCHEM_CID_ASSOCIATIONS>
117602196  1

> <PUBCHEM_COORDINATE_TYPE>
1
3

$$$$
