310946219
  -OEChem-07211613022D

 59 70  0     0  0  0  0  0  0999 V2000
   -0.0106    1.2725    0.0000 S   0  0  0  0  0  0  0  0  0  0  0  0
   -0.0318   -0.4030    0.0000 N   0  0  0  0  0  0  0  0  0  0  0  0
    2.8950    1.2302    0.0000 N   0  0  0  0  0  0  0  0  0  0  0  0
   -2.9162    1.2513    0.0000 N   0  0  0  0  0  0  0  0  0  0  0  0
   -0.7317    0.8484    0.0000 C   0  0  0  0  0  0  0  0  0  0  0  0
    0.7317    0.8484    0.0000 C   0  0  0  0  0  0  0  0  0  0  0  0
   -0.7741    0.0425    0.0000 C   0  0  0  0  0  0  0  0  0  0  0  0
    0.7105    0.0212    0.0000 C   0  0  0  0  0  0  0  0  0  0  0  0
   -0.6256    1.9088    0.0000 C   0  0  0  0  0  0  0  0  0  0  0  0
    0.5833    1.9088    0.0000 C   0  0  0  0  0  0  0  0  0  0  0  0
   -1.4740    1.2513    0.0000 C   0  0  0  0  0  0  0  0  0  0  0  0
    1.4316    1.2513    0.0000 C   0  0  0  0  0  0  0  0  0  0  0  0
   -2.1739    0.8696    0.0000 C   0  0  0  0  0  0  0  0  0  0  0  0
    2.1739    0.8484    0.0000 C   0  0  0  0  0  0  0  0  0  0  0  0
   -0.0106   -1.2089    0.0000 C   0  0  0  0  0  0  0  0  0  0  0  0
   -1.4740   -0.3393    0.0000 C   0  0  0  0  0  0  0  0  0  0  0  0
    1.4316   -0.3606    0.0000 C   0  0  0  0  0  0  0  0  0  0  0  0
   -2.1527    0.0212    0.0000 C   0  0  0  0  0  0  0  0  0  0  0  0
    2.1527    0.0212    0.0000 C   0  0  0  0  0  0  0  0  0  0  0  0
   -0.4136    2.7359    0.0000 C   0  0  0  0  0  0  0  0  0  0  0  0
    1.4528    1.7180    0.0000 C   0  0  0  0  0  0  0  0  0  0  0  0
   -1.4528    1.7180    0.0000 C   0  0  0  0  0  0  0  0  0  0  0  0
    0.3923    2.7147    0.0000 C   0  0  0  0  0  0  0  0  0  0  0  0
    2.9799    2.1209    0.0000 C   0  0  0  0  0  0  0  0  0  0  0  0
    3.7010    0.9332    0.0000 C   0  0  0  0  0  0  0  0  0  0  0  0
   -2.9799    2.0997    0.0000 C   0  0  0  0  0  0  0  0  0  0  0  0
   -3.6798    0.9332    0.0000 C   0  0  0  0  0  0  0  0  0  0  0  0
    3.8070    2.2481    0.0000 C   0  0  0  0  0  0  0  0  0  0  0  0
    4.2312    1.5483    0.0000 C   0  0  0  0  0  0  0  0  0  0  0  0
   -3.8282    2.2694    0.0000 C   0  0  0  0  0  0  0  0  0  0  0  0
   -4.2524    1.5270    0.0000 C   0  0  0  0  0  0  0  0  0  0  0  0
   -0.7317   -1.5907    0.0000 C   0  0  0  0  0  0  0  0  0  0  0  0
    0.6681   -1.6119    0.0000 C   0  0  0  0  0  0  0  0  0  0  0  0
   -0.9862    3.3086    0.0000 C   0  0  0  0  0  0  0  0  0  0  0  0
    2.0255    2.2694    0.0000 C   0  0  0  0  0  0  0  0  0  0  0  0
   -2.0466    2.2694    0.0000 C   0  0  0  0  0  0  0  0  0  0  0  0
    0.9650    3.3086    0.0000 C   0  0  0  0  0  0  0  0  0  0  0  0
    2.4496    2.6724    0.0000 C   0  0  0  0  0  0  0  0  0  0  0  0
    3.9343    0.1485    0.0000 C   0  0  0  0  0  0  0  0  0  0  0  0
   -2.4709    2.6511    0.0000 C   0  0  0  0  0  0  0  0  0  0  0  0
   -3.9343    0.1697    0.0000 C   0  0  0  0  0  0  0  0  0  0  0  0
    4.0615    3.0329    0.0000 C   0  0  0  0  0  0  0  0  0  0  0  0
    5.0583    1.3574    0.0000 C   0  0  0  0  0  0  0  0  0  0  0  0
   -4.0615    3.0117    0.0000 C   0  0  0  0  0  0  0  0  0  0  0  0
   -5.0371    1.3786    0.0000 C   0  0  0  0  0  0  0  0  0  0  0  0
   -1.8558    3.0965    0.0000 C   0  0  0  0  0  0  0  0  0  0  0  0
    1.8133    3.0753    0.0000 C   0  0  0  0  0  0  0  0  0  0  0  0
   -0.7317   -2.4178    0.0000 C   0  0  0  0  0  0  0  0  0  0  0  0
    0.6681   -2.4178    0.0000 C   0  0  0  0  0  0  0  0  0  0  0  0
   -0.0318   -2.7996    0.0000 C   0  0  0  0  0  0  0  0  0  0  0  0
    2.7042    3.4783    0.0000 C   0  0  0  0  0  0  0  0  0  0  0  0
    4.7826    0.0000    0.0000 C   0  0  0  0  0  0  0  0  0  0  0  0
   -2.7042    3.4571    0.0000 C   0  0  0  0  0  0  0  0  0  0  0  0
   -4.7614    0.0212    0.0000 C   0  0  0  0  0  0  0  0  0  0  0  0
    3.5313    3.6268    0.0000 C   0  0  0  0  0  0  0  0  0  0  0  0
    5.2916    0.5726    0.0000 C   0  0  0  0  0  0  0  0  0  0  0  0
   -3.5313    3.6055    0.0000 C   0  0  0  0  0  0  0  0  0  0  0  0
   -5.2916    0.5726    0.0000 C   0  0  0  0  0  0  0  0  0  0  0  0
   -0.0318   -3.6268    0.0000 C   0  0  0  0  0  0  0  0  0  0  0  0
  1  5  1  0  0  0  0
  1  6  1  0  0  0  0
  1  9  1  0  0  0  0
  1 10  1  0  0  0  0
  2  7  1  0  0  0  0
  2  8  1  0  0  0  0
  2 15  1  0  0  0  0
  3 14  1  0  0  0  0
  3 24  1  0  0  0  0
  3 25  1  0  0  0  0
  4 13  1  0  0  0  0
  4 26  1  0  0  0  0
  4 27  1  0  0  0  0
  5  7  2  0  0  0  0
  5 11  1  0  0  0  0
  6  8  2  0  0  0  0
  6 12  1  0  0  0  0
  7 16  1  0  0  0  0
  8 17  1  0  0  0  0
  9 20  2  0  0  0  0
  9 22  1  0  0  0  0
 10 21  2  0  0  0  0
 10 23  1  0  0  0  0
 11 13  2  0  0  0  0
 12 14  2  0  0  0  0
 13 18  1  0  0  0  0
 14 19  1  0  0  0  0
 15 32  2  0  0  0  0
 15 33  1  0  0  0  0
 16 18  2  0  0  0  0
 17 19  2  0  0  0  0
 20 34  1  0  0  0  0
 21 35  1  0  0  0  0
 22 36  2  0  0  0  0
 23 37  2  0  0  0  0
 24 28  2  0  0  0  0
 24 38  1  0  0  0  0
 25 29  2  0  0  0  0
 25 39  1  0  0  0  0
 26 30  2  0  0  0  0
 26 40  1  0  0  0  0
 27 31  2  0  0  0  0
 27 41  1  0  0  0  0
 28 29  1  0  0  0  0
 28 42  1  0  0  0  0
 29 43  1  0  0  0  0
 30 31  1  0  0  0  0
 30 44  1  0  0  0  0
 31 45  1  0  0  0  0
 32 48  1  0  0  0  0
 33 49  2  0  0  0  0
 34 46  2  0  0  0  0
 35 47  2  0  0  0  0
 36 46  1  0  0  0  0
 37 47  1  0  0  0  0
 38 51  2  0  0  0  0
 39 52  2  0  0  0  0
 40 53  2  0  0  0  0
 41 54  2  0  0  0  0
 42 55  2  0  0  0  0
 43 56  2  0  0  0  0
 44 57  2  0  0  0  0
 45 58  2  0  0  0  0
 48 50  2  0  0  0  0
 49 50  1  0  0  0  0
 50 59  1  0  0  0  0
 51 55  1  0  0  0  0
 52 56  1  0  0  0  0
 53 57  1  0  0  0  0
 54 58  1  0  0  0  0
M  END
> <PUBCHEM_COMPOUND_ID_TYPE>
0

> <PUBCHEM_TOTAL_CHARGE>
0

> <PUBCHEM_SUBSTANCE_ID>
310946219

> <PUBCHEM_SUBSTANCE_VERSION>
1

> <PUBCHEM_EXT_DATASOURCE_NAME>
4488

> <PUBCHEM_EXT_DATASOURCE_REGID>
SCHEMBL16124331

> <PUBCHEM_SUBSTANCE_COMMENT>
InChI=1S/C55H39N3S/c1-38-28-30-39(31-29-38)56-52-34-32-40(57-48-24-12-8-20-44(48)45-21-9-13-25-49(45)57)36-54(52)59(42-16-4-2-5-17-42,43-18-6-3-7-19-43)55-37-41(33-35-53(55)56)58-50-26-14-10-22-46(50)47-23-11-15-27-51(47)58/h2-37H,1H3
InChIKey=ZIOCVMVKFPIISP-UHFFFAOYSA-N

> <PUBCHEM_SUBSTANCE_SYNONYM>
SCHEMBL16124331

> <PUBCHEM_XREF_EXT_ID>
SCHEMBL16124331

> <PUBCHEM_EXT_DATASOURCE_URL>
https://www.surechembl.org/

> <PUBCHEM_EXT_SUBSTANCE_URL>
https://www.surechembl.org/chemical/SCHEMBL16124331

> <PUBCHEM_CID_ASSOCIATIONS>
117612167  1

> <PUBCHEM_COORDINATE_TYPE>
1
3

$$$$
