310945176
  -OEChem-07211613022D

 32 35  0     0  0  0  0  0  0999 V2000
    5.9021    1.8623    0.0000 O   0  0  0  0  0  0  0  0  0  0  0  0
    0.6126    0.8311    0.0000 O   0  0  0  0  0  0  0  0  0  0  0  0
   -2.2747   -1.5468    0.0000 O   0  0  0  0  0  0  0  0  0  0  0  0
    4.1794    0.5641    0.0000 N   0  0  0  0  0  0  0  0  0  0  0  0
    5.8293    0.3822    0.0000 N   0  0  0  0  0  0  0  0  0  0  0  0
    1.3406   -0.4186    0.0000 N   0  0  0  0  0  0  0  0  0  0  0  0
   -1.5711   -0.3094    0.0000 N   0  0  0  0  0  0  0  0  0  0  0  0
   -5.1742   -0.7704    0.0000 N   0  0  0  0  0  0  0  0  0  0  0  0
    3.3787    0.8311    0.0000 C   0  0  0  0  0  0  0  0  0  0  0  0
    4.6646    1.2313    0.0000 C   0  0  0  0  0  0  0  0  0  0  0  0
    3.3909    1.6438    0.0000 C   0  0  0  0  0  0  0  0  0  0  0  0
    4.1915    1.8865    0.0000 C   0  0  0  0  0  0  0  0  0  0  0  0
    2.6750    0.4186    0.0000 C   0  0  0  0  0  0  0  0  0  0  0  0
    5.4775    1.1343    0.0000 C   0  0  0  0  0  0  0  0  0  0  0  0
    1.9350    0.8189    0.0000 C   0  0  0  0  0  0  0  0  0  0  0  0
    2.6508    2.0442    0.0000 C   0  0  0  0  0  0  0  0  0  0  0  0
    4.5191   -0.1880    0.0000 C   0  0  0  0  0  0  0  0  0  0  0  0
    1.9472    1.6438    0.0000 C   0  0  0  0  0  0  0  0  0  0  0  0
    1.3527    0.4064    0.0000 C   0  0  0  0  0  0  0  0  0  0  0  0
    5.3440   -0.2851    0.0000 C   0  0  0  0  0  0  0  0  0  0  0  0
    0.6126   -0.8311    0.0000 C   0  0  0  0  0  0  0  0  0  0  0  0
   -0.1031   -0.4064    0.0000 C   0  0  0  0  0  0  0  0  0  0  0  0
   -0.8189   -0.7947    0.0000 C   0  0  0  0  0  0  0  0  0  0  0  0
    0.6005   -1.6560    0.0000 C   0  0  0  0  0  0  0  0  0  0  0  0
   -0.8311   -1.6196    0.0000 C   0  0  0  0  0  0  0  0  0  0  0  0
   -0.1274   -2.0442    0.0000 C   0  0  0  0  0  0  0  0  0  0  0  0
   -2.2747   -0.7097    0.0000 C   0  0  0  0  0  0  0  0  0  0  0  0
   -3.0147   -0.3337    0.0000 C   0  0  0  0  0  0  0  0  0  0  0  0
   -3.7062   -0.7461    0.0000 C   0  0  0  0  0  0  0  0  0  0  0  0
   -4.4706   -0.3579    0.0000 C   0  0  0  0  0  0  0  0  0  0  0  0
   -5.1621   -1.6196    0.0000 C   0  0  0  0  0  0  0  0  0  0  0  0
   -5.9021   -0.3458    0.0000 C   0  0  0  0  0  0  0  0  0  0  0  0
  1 14  2  0  0  0  0
  2 19  2  0  0  0  0
  3 27  2  0  0  0  0
  4  9  1  0  0  0  0
  4 10  1  0  0  0  0
  4 17  1  0  0  0  0
  5 14  1  0  0  0  0
  5 20  1  0  0  0  0
  6 19  1  0  0  0  0
  6 21  1  0  0  0  0
  7 23  1  0  0  0  0
  7 27  1  0  0  0  0
  8 30  1  0  0  0  0
  8 31  1  0  0  0  0
  8 32  1  0  0  0  0
  9 11  1  0  0  0  0
  9 13  2  0  0  0  0
 10 12  2  0  0  0  0
 10 14  1  0  0  0  0
 11 12  1  0  0  0  0
 11 16  2  0  0  0  0
 13 15  1  0  0  0  0
 15 18  2  0  0  0  0
 15 19  1  0  0  0  0
 16 18  1  0  0  0  0
 17 20  1  0  0  0  0
 21 22  2  0  0  0  0
 21 24  1  0  0  0  0
 22 23  1  0  0  0  0
 23 25  2  0  0  0  0
 24 26  2  0  0  0  0
 25 26  1  0  0  0  0
 27 28  1  0  0  0  0
 28 29  2  0  0  0  0
 29 30  1  0  0  0  0
M  END
> <PUBCHEM_COMPOUND_ID_TYPE>
0

> <PUBCHEM_TOTAL_CHARGE>
0

> <PUBCHEM_SUBSTANCE_ID>
310945176

> <PUBCHEM_SUBSTANCE_VERSION>
1

> <PUBCHEM_EXT_DATASOURCE_NAME>
4488

> <PUBCHEM_EXT_DATASOURCE_REGID>
SCHEMBL16123266

> <PUBCHEM_SUBSTANCE_COMMENT>
InChI=1S/C24H25N5O3/c1-28(2)11-4-7-22(30)26-18-5-3-6-19(15-18)27-23(31)17-9-8-16-13-21-24(32)25-10-12-29(21)20(16)14-17/h3-9,13-15H,10-12H2,1-2H3,(H,25,32)(H,26,30)(H,27,31)/b7-4+
InChIKey=KXUDFWOFALKHCH-QPJJXVBHSA-N

> <PUBCHEM_SUBSTANCE_SYNONYM>
SCHEMBL16123266

> <PUBCHEM_XREF_EXT_ID>
SCHEMBL16123266

> <PUBCHEM_EXT_DATASOURCE_URL>
https://www.surechembl.org/

> <PUBCHEM_EXT_SUBSTANCE_URL>
https://www.surechembl.org/chemical/SCHEMBL16123266

> <PUBCHEM_CID_ASSOCIATIONS>
117611262  1

> <PUBCHEM_COORDINATE_TYPE>
1
3

$$$$
