310943508
  -OEChem-07211613022D

 35 39  0     0  0  0  0  0  0999 V2000
    4.1816    1.3939    0.0000 F   0  0  0  0  0  0  0  0  0  0  0  0
    4.8337    1.4754    0.0000 F   0  0  0  0  0  0  0  0  0  0  0  0
    5.4532    0.4320    0.0000 F   0  0  0  0  0  0  0  0  0  0  0  0
   -5.4532    1.4428    0.0000 O   0  0  0  0  0  0  0  0  0  0  0  0
    1.7036    1.4428    0.0000 O   0  0  0  0  0  0  0  0  0  0  0  0
   -2.5839   -1.0026    0.0000 N   0  0  0  0  0  0  0  0  0  0  0  0
   -4.0185    0.6276    0.0000 N   0  0  0  0  0  0  0  0  0  0  0  0
   -3.9208   -1.1330    0.0000 N   0  0  0  0  0  0  0  0  0  0  0  0
    1.0026    0.2201    0.0000 N   0  0  0  0  0  0  0  0  0  0  0  0
    3.8718   -0.5950    0.0000 N   0  0  0  0  0  0  0  0  0  0  0  0
   -3.3175   -0.5950    0.0000 C   0  0  0  0  0  0  0  0  0  0  0  0
   -3.3012    0.2364    0.0000 C   0  0  0  0  0  0  0  0  0  0  0  0
   -1.8666    0.2364    0.0000 C   0  0  0  0  0  0  0  0  0  0  0  0
   -1.1656    0.6276    0.0000 C   0  0  0  0  0  0  0  0  0  0  0  0
   -2.6002    0.6276    0.0000 C   0  0  0  0  0  0  0  0  0  0  0  0
   -1.8829   -0.5950    0.0000 C   0  0  0  0  0  0  0  0  0  0  0  0
   -1.1493    1.4428    0.0000 C   0  0  0  0  0  0  0  0  0  0  0  0
   -2.7632   -1.7851    0.0000 C   0  0  0  0  0  0  0  0  0  0  0  0
   -0.4320    0.2364    0.0000 C   0  0  0  0  0  0  0  0  0  0  0  0
    0.2690    0.6440    0.0000 C   0  0  0  0  0  0  0  0  0  0  0  0
   -3.5947   -1.8666    0.0000 C   0  0  0  0  0  0  0  0  0  0  0  0
   -4.0185    1.4428    0.0000 C   0  0  0  0  0  0  0  0  0  0  0  0
   -4.7196    0.2364    0.0000 C   0  0  0  0  0  0  0  0  0  0  0  0
    2.4372    0.2364    0.0000 C   0  0  0  0  0  0  0  0  0  0  0  0
   -0.4320    1.8340    0.0000 C   0  0  0  0  0  0  0  0  0  0  0  0
    3.8718    0.2364    0.0000 C   0  0  0  0  0  0  0  0  0  0  0  0
    1.7036    0.6113    0.0000 C   0  0  0  0  0  0  0  0  0  0  0  0
    0.2690    1.4428    0.0000 C   0  0  0  0  0  0  0  0  0  0  0  0
    4.6054    0.6766    0.0000 C   0  0  0  0  0  0  0  0  0  0  0  0
    3.1382    0.6276    0.0000 C   0  0  0  0  0  0  0  0  0  0  0  0
    2.4372   -0.5950    0.0000 C   0  0  0  0  0  0  0  0  0  0  0  0
   -1.8503    1.8666    0.0000 C   0  0  0  0  0  0  0  0  0  0  0  0
   -4.7358    1.8503    0.0000 C   0  0  0  0  0  0  0  0  0  0  0  0
   -5.4532    0.6276    0.0000 C   0  0  0  0  0  0  0  0  0  0  0  0
    3.2035   -1.0026    0.0000 C   0  0  0  0  0  0  0  0  0  0  0  0
  1 29  1  0  0  0  0
  2 29  1  0  0  0  0
  3 29  1  0  0  0  0
  4 33  1  0  0  0  0
  4 34  1  0  0  0  0
  5 27  2  0  0  0  0
  6 11  1  0  0  0  0
  6 16  1  0  0  0  0
  6 18  1  0  0  0  0
  7 12  1  0  0  0  0
  7 22  1  0  0  0  0
  7 23  1  0  0  0  0
  8 11  2  0  0  0  0
  8 21  1  0  0  0  0
  9 20  1  0  0  0  0
  9 27  1  0  0  0  0
 10 26  2  0  0  0  0
 10 35  1  0  0  0  0
 11 12  1  0  0  0  0
 12 15  2  0  0  0  0
 13 14  1  0  0  0  0
 13 15  1  0  0  0  0
 13 16  2  0  0  0  0
 14 17  2  0  0  0  0
 14 19  1  0  0  0  0
 17 25  1  0  0  0  0
 17 32  1  0  0  0  0
 18 21  2  0  0  0  0
 19 20  2  0  0  0  0
 20 28  1  0  0  0  0
 22 33  1  0  0  0  0
 23 34  1  0  0  0  0
 24 27  1  0  0  0  0
 24 30  2  0  0  0  0
 24 31  1  0  0  0  0
 25 28  2  0  0  0  0
 26 29  1  0  0  0  0
 26 30  1  0  0  0  0
 31 35  2  0  0  0  0
M  END
> <PUBCHEM_COMPOUND_ID_TYPE>
0

> <PUBCHEM_TOTAL_CHARGE>
0

> <PUBCHEM_SUBSTANCE_ID>
310943508

> <PUBCHEM_SUBSTANCE_VERSION>
1

> <PUBCHEM_EXT_DATASOURCE_NAME>
4488

> <PUBCHEM_EXT_DATASOURCE_REGID>
SCHEMBL16121574

> <PUBCHEM_SUBSTANCE_COMMENT>
InChI=1S/C25H22F3N5O2/c1-16-2-3-19(31-24(34)17-4-5-29-22(13-17)25(26,27)28)14-20(16)18-12-21(32-8-10-35-11-9-32)23-30-6-7-33(23)15-18/h2-7,12-15H,8-11H2,1H3,(H,31,34)
InChIKey=HEZCBUKLIMESEE-UHFFFAOYSA-N

> <PUBCHEM_SUBSTANCE_SYNONYM>
SCHEMBL16121574

> <PUBCHEM_XREF_EXT_ID>
SCHEMBL16121574

> <PUBCHEM_EXT_DATASOURCE_URL>
https://www.surechembl.org/

> <PUBCHEM_EXT_SUBSTANCE_URL>
https://www.surechembl.org/chemical/SCHEMBL16121574

> <PUBCHEM_CID_ASSOCIATIONS>
117609926  1

> <PUBCHEM_COORDINATE_TYPE>
1
3

$$$$
