310941834
  -OEChem-07211613022D

 23 24  0     0  0  0  0  0  0999 V2000
    2.1015    0.3002    0.0000 Cl  0  0  0  0  0  0  0  0  0  0  0  0
    1.2438    1.0722    0.0000 O   0  0  0  0  0  0  0  0  0  0  0  0
    2.9165    1.5440    0.0000 O   0  0  0  0  0  0  0  0  0  0  0  0
    0.0000   -1.1151    0.0000 N   0  0  0  0  0  0  0  0  0  0  0  0
    1.2438    2.5733    0.0000 N   0  0  0  0  0  0  0  0  0  0  0  0
    0.3860    1.1151    0.0000 C   0  0  0  0  0  0  0  0  0  0  0  0
    0.0000    0.3860    0.0000 C   0  0  0  0  0  0  0  0  0  0  0  0
   -1.2438    1.1151    0.0000 C   0  0  0  0  0  0  0  0  0  0  0  0
    0.0000    1.8443    0.0000 C   0  0  0  0  0  0  0  0  0  0  0  0
   -0.8149    0.3860    0.0000 C   0  0  0  0  0  0  0  0  0  0  0  0
   -2.1015    1.1151    0.0000 C   0  0  0  0  0  0  0  0  0  0  0  0
   -0.8149    1.8013    0.0000 C   0  0  0  0  0  0  0  0  0  0  0  0
    0.4289   -0.3431    0.0000 C   0  0  0  0  0  0  0  0  0  0  0  0
    0.4289    2.5305    0.0000 C   0  0  0  0  0  0  0  0  0  0  0  0
    2.1015    1.8443    0.0000 C   0  0  0  0  0  0  0  0  0  0  0  0
   -2.4875    0.3860    0.0000 C   0  0  0  0  0  0  0  0  0  0  0  0
   -2.9165    1.0722    0.0000 C   0  0  0  0  0  0  0  0  0  0  0  0
   -2.4875    1.8013    0.0000 C   0  0  0  0  0  0  0  0  0  0  0  0
   -0.8149   -1.1151    0.0000 C   0  0  0  0  0  0  0  0  0  0  0  0
    0.4289   -1.8013    0.0000 C   0  0  0  0  0  0  0  0  0  0  0  0
   -1.2438   -1.8443    0.0000 C   0  0  0  0  0  0  0  0  0  0  0  0
    0.0000   -2.5733    0.0000 C   0  0  0  0  0  0  0  0  0  0  0  0
   -0.8578   -2.5305    0.0000 C   0  0  0  0  0  0  0  0  0  0  0  0
  1 15  1  0  0  0  0
  2  6  1  0  0  0  0
  2 15  1  0  0  0  0
  3 15  2  0  0  0  0
  4 13  1  0  0  0  0
  4 19  1  0  0  0  0
  4 20  1  0  0  0  0
  5 14  2  3  0  0  0
  6  7  2  0  0  0  0
  6  9  1  0  0  0  0
  7 10  1  0  0  0  0
  7 13  1  0  0  0  0
  8 10  2  0  0  0  0
  8 11  1  0  0  0  0
  8 12  1  0  0  0  0
  9 12  2  0  0  0  0
  9 14  1  0  0  0  0
 11 16  1  0  0  0  0
 11 17  1  0  0  0  0
 11 18  1  0  0  0  0
 19 21  1  0  0  0  0
 20 22  1  0  0  0  0
 21 23  1  0  0  0  0
 22 23  1  0  0  0  0
M  END
> <PUBCHEM_COMPOUND_ID_TYPE>
0

> <PUBCHEM_TOTAL_CHARGE>
0

> <PUBCHEM_SUBSTANCE_ID>
310941834

> <PUBCHEM_SUBSTANCE_VERSION>
1

> <PUBCHEM_EXT_DATASOURCE_NAME>
4488

> <PUBCHEM_EXT_DATASOURCE_REGID>
SCHEMBL16119866

> <PUBCHEM_SUBSTANCE_COMMENT>
InChI=1S/C18H25ClN2O2/c1-18(2,3)15-9-13(11-20)16(23-17(19)22)14(10-15)12-21-7-5-4-6-8-21/h9-11,20H,4-8,12H2,1-3H3
InChIKey=OREJRUVRNVLMSI-UHFFFAOYSA-N

> <PUBCHEM_SUBSTANCE_SYNONYM>
SCHEMBL16119866

> <PUBCHEM_XREF_EXT_ID>
SCHEMBL16119866

> <PUBCHEM_EXT_DATASOURCE_URL>
https://www.surechembl.org/

> <PUBCHEM_EXT_SUBSTANCE_URL>
https://www.surechembl.org/chemical/SCHEMBL16119866

> <PUBCHEM_CID_ASSOCIATIONS>
117608577  1

> <PUBCHEM_COORDINATE_TYPE>
1
3

$$$$
