310938758
  -OEChem-07211613022D

 28 31  0     1  0  0  0  0  0999 V2000
    0.3606   -0.0680    0.0000 S   0  0  0  0  0  0  0  0  0  0  0  0
    2.6780    1.4311    0.0000 S   0  0  0  0  0  0  0  0  0  0  0  0
   -4.8379    1.0120    0.0000 S   0  0  0  0  0  0  0  0  0  0  0  0
    2.0106    1.3610    0.0000 O   0  0  0  0  0  0  0  0  0  0  0  0
    1.5981   -0.7824    0.0000 N   0  0  0  0  0  0  0  0  0  0  0  0
    3.0905    0.1616    0.0000 N   0  0  0  0  0  0  0  0  0  0  0  0
    0.3606   -1.4969    0.0000 N   0  0  0  0  0  0  0  0  0  0  0  0
   -0.8769   -0.7824    0.0000 N   0  0  0  0  0  0  0  0  0  0  0  0
   -2.0741    1.0120    0.0000 N   0  0  0  0  0  0  0  0  0  0  0  0
   -2.0741    0.1870    0.0000 N   0  0  0  0  0  0  0  0  0  0  0  0
   -3.7579    0.2274    0.0000 N   0  0  0  0  0  0  0  0  0  0  0  0
    1.5981    0.6465    0.0000 C   0  0  3  0  0  0  0  0  0  0  0  0
    1.1856   -0.0680    0.0000 C   0  0  0  0  0  0  0  0  0  0  0  0
    2.4231    0.6465    0.0000 C   0  0  0  0  0  0  0  0  0  0  0  0
   -0.0519   -0.7824    0.0000 C   0  0  0  0  0  0  0  0  0  0  0  0
    3.7579    0.6465    0.0000 C   0  0  0  0  0  0  0  0  0  0  0  0
    1.1856    1.3610    0.0000 C   0  0  0  0  0  0  0  0  0  0  0  0
   -1.2894   -0.0680    0.0000 C   0  0  0  0  0  0  0  0  0  0  0  0
    3.5030    1.4311    0.0000 C   0  0  0  0  0  0  0  0  0  0  0  0
   -0.8045    0.5995    0.0000 C   0  0  0  0  0  0  0  0  0  0  0  0
   -1.2894    1.2669    0.0000 C   0  0  0  0  0  0  0  0  0  0  0  0
   -2.7885    1.4245    0.0000 C   0  0  0  0  0  0  0  0  0  0  0  0
   -3.5030    1.0120    0.0000 C   0  0  0  0  0  0  0  0  0  0  0  0
    4.5829    0.6465    0.0000 C   0  0  0  0  0  0  0  0  0  0  0  0
   -4.1704    1.4969    0.0000 C   0  0  0  0  0  0  0  0  0  0  0  0
   -4.5829    0.2274    0.0000 C   0  0  0  0  0  0  0  0  0  0  0  0
    4.9954   -0.0680    0.0000 C   0  0  0  0  0  0  0  0  0  0  0  0
   -4.9954   -0.4871    0.0000 C   0  0  0  0  0  0  0  0  0  0  0  0
  1 13  1  0  0  0  0
  1 15  1  0  0  0  0
  2 14  1  0  0  0  0
  2 19  1  0  0  0  0
  3 25  1  0  0  0  0
  3 26  1  0  0  0  0
 12  4  1  1  0  0  0
  5  7  1  0  0  0  0
  5 13  2  0  0  0  0
  6 14  2  0  0  0  0
  6 16  1  0  0  0  0
  7 15  2  0  0  0  0
  8 15  1  0  0  0  0
  8 18  1  0  0  0  0
  9 10  1  0  0  0  0
  9 21  1  0  0  0  0
  9 22  1  0  0  0  0
 10 18  2  0  0  0  0
 11 23  1  0  0  0  0
 11 26  2  0  0  0  0
 12 13  1  0  0  0  0
 12 14  1  0  0  0  0
 12 17  1  6  0  0  0
 16 19  2  0  0  0  0
 16 24  1  0  0  0  0
 18 20  1  0  0  0  0
 20 21  2  0  0  0  0
 22 23  1  0  0  0  0
 23 25  2  0  0  0  0
 24 27  1  0  0  0  0
 26 28  1  0  0  0  0
M  END
> <PUBCHEM_COMPOUND_ID_TYPE>
0

> <PUBCHEM_TOTAL_CHARGE>
0

> <PUBCHEM_SUBSTANCE_ID>
310938758

> <PUBCHEM_SUBSTANCE_VERSION>
1

> <PUBCHEM_EXT_DATASOURCE_NAME>
4488

> <PUBCHEM_EXT_DATASOURCE_REGID>
SCHEMBL16116674

> <PUBCHEM_SUBSTANCE_COMMENT>
InChI=1S/C17H19N7OS3/c1-4-11-8-27-14(19-11)17(3,25)15-21-22-16(28-15)20-13-5-6-24(23-13)7-12-9-26-10(2)18-12/h5-6,8-9,25H,4,7H2,1-3H3,(H,20,22,23)/t17-/m0/s1
InChIKey=RGYFTFFDGKEMOM-KRWDZBQOSA-N

> <PUBCHEM_SUBSTANCE_SYNONYM>
SCHEMBL16116674

> <PUBCHEM_XREF_EXT_ID>
SCHEMBL16116674

> <PUBCHEM_EXT_DATASOURCE_URL>
https://www.surechembl.org/

> <PUBCHEM_EXT_SUBSTANCE_URL>
https://www.surechembl.org/chemical/SCHEMBL16116674

> <PUBCHEM_CID_ASSOCIATIONS>
117606171  1

> <PUBCHEM_COORDINATE_TYPE>
1
3

> <PUBCHEM_BONDANNOTATIONS>
12  17  6
12  4  5

$$$$
