310940698
  -OEChem-07211613022D

 26 28  0     0  0  0  0  0  0999 V2000
   -4.0672   -0.8012    0.0000 F   0  0  0  0  0  0  0  0  0  0  0  0
    1.4599    1.8876    0.0000 O   0  0  0  0  0  0  0  0  0  0  0  0
    0.7672    0.5432    0.0000 N   0  0  0  0  0  0  0  0  0  0  0  0
    2.1524    0.5432    0.0000 N   0  0  0  0  0  0  0  0  0  0  0  0
    2.8450   -1.7111    0.0000 N   0  0  0  0  0  0  0  0  0  0  0  0
    1.4462    0.9642    0.0000 C   0  0  0  0  0  0  0  0  0  0  0  0
    0.7672   -0.3531    0.0000 C   0  0  0  0  0  0  0  0  0  0  0  0
    1.4599   -0.8012    0.0000 C   0  0  0  0  0  0  0  0  0  0  0  0
    2.8450    0.9913    0.0000 C   0  0  0  0  0  0  0  0  0  0  0  0
    0.0476    0.9778    0.0000 C   0  0  0  0  0  0  0  0  0  0  0  0
   -2.0030    0.5432    0.0000 C   0  0  0  0  0  0  0  0  0  0  0  0
   -0.6179    0.5432    0.0000 C   0  0  0  0  0  0  0  0  0  0  0  0
    1.4599   -1.7111    0.0000 C   0  0  0  0  0  0  0  0  0  0  0  0
    2.1389   -0.3531    0.0000 C   0  0  0  0  0  0  0  0  0  0  0  0
    2.8722    1.9012    0.0000 C   0  0  0  0  0  0  0  0  0  0  0  0
    3.6055    0.7198    0.0000 C   0  0  0  0  0  0  0  0  0  0  0  0
   -1.3105    0.9913    0.0000 C   0  0  0  0  0  0  0  0  0  0  0  0
   -2.6685    0.9778    0.0000 C   0  0  0  0  0  0  0  0  0  0  0  0
   -2.0030   -0.3531    0.0000 C   0  0  0  0  0  0  0  0  0  0  0  0
   -3.3882   -0.3667    0.0000 C   0  0  0  0  0  0  0  0  0  0  0  0
    3.6055    2.1593    0.0000 C   0  0  0  0  0  0  0  0  0  0  0  0
    4.0672    1.4259    0.0000 C   0  0  0  0  0  0  0  0  0  0  0  0
    2.8450   -0.8012    0.0000 C   0  0  0  0  0  0  0  0  0  0  0  0
    2.1524   -2.1593    0.0000 C   0  0  0  0  0  0  0  0  0  0  0  0
   -3.3747    0.5432    0.0000 C   0  0  0  0  0  0  0  0  0  0  0  0
   -2.6820   -0.8012    0.0000 C   0  0  0  0  0  0  0  0  0  0  0  0
  1 20  1  0  0  0  0
  2  6  2  0  0  0  0
  3  6  1  0  0  0  0
  3  7  1  0  0  0  0
  3 10  1  0  0  0  0
  4  6  1  0  0  0  0
  4  9  1  0  0  0  0
  5 23  1  0  0  0  0
  5 24  1  0  0  0  0
  7  8  1  0  0  0  0
  8 13  1  0  0  0  0
  8 14  1  0  0  0  0
  9 15  1  0  0  0  0
  9 16  1  0  0  0  0
 10 12  1  0  0  0  0
 11 17  1  0  0  0  0
 11 18  2  0  0  0  0
 11 19  1  0  0  0  0
 12 17  2  0  0  0  0
 13 24  1  0  0  0  0
 14 23  1  0  0  0  0
 15 21  1  0  0  0  0
 16 22  1  0  0  0  0
 18 25  1  0  0  0  0
 19 26  2  0  0  0  0
 20 25  2  0  0  0  0
 20 26  1  0  0  0  0
 21 22  1  0  0  0  0
M  END
> <PUBCHEM_COMPOUND_ID_TYPE>
0

> <PUBCHEM_TOTAL_CHARGE>
0

> <PUBCHEM_SUBSTANCE_ID>
310940698

> <PUBCHEM_SUBSTANCE_VERSION>
1

> <PUBCHEM_EXT_DATASOURCE_NAME>
4488

> <PUBCHEM_EXT_DATASOURCE_REGID>
SCHEMBL16118654

> <PUBCHEM_SUBSTANCE_COMMENT>
InChI=1S/C21H30FN3O/c22-19-9-7-17(8-10-19)4-3-15-25(16-18-11-13-23-14-12-18)21(26)24-20-5-1-2-6-20/h3-4,7-10,18,20,23H,1-2,5-6,11-16H2,(H,24,26)/b4-3+
InChIKey=WMZOUVLBBKFQNY-ONEGZZNKSA-N

> <PUBCHEM_SUBSTANCE_SYNONYM>
SCHEMBL16118654

> <PUBCHEM_XREF_EXT_ID>
SCHEMBL16118654

> <PUBCHEM_EXT_DATASOURCE_URL>
https://www.surechembl.org/

> <PUBCHEM_EXT_SUBSTANCE_URL>
https://www.surechembl.org/chemical/SCHEMBL16118654

> <PUBCHEM_CID_ASSOCIATIONS>
86300362  1

> <PUBCHEM_COORDINATE_TYPE>
1
3

$$$$
