310949656
  -OEChem-07211613022D

 23 24  0     0  0  0  0  0  0999 V2000
    3.6967   -1.0865    0.0000 F   0  0  0  0  0  0  0  0  0  0  0  0
    1.6297    1.0865    0.0000 O   0  0  0  0  0  0  0  0  0  0  0  0
    2.4512    1.0865    0.0000 O   0  0  0  0  0  0  0  0  0  0  0  0
    3.6834    0.3577    0.0000 O   0  0  0  0  0  0  0  0  0  0  0  0
   -3.6967    1.8020    0.0000 O   0  0  0  0  0  0  0  0  0  0  0  0
   -3.6967    0.3577    0.0000 O   0  0  0  0  0  0  0  0  0  0  0  0
    0.3975    0.3577    0.0000 N   0  0  0  0  0  0  0  0  0  0  0  0
    2.4512   -0.3710    0.0000 C   0  0  0  0  0  0  0  0  0  0  0  0
    1.6297   -0.3577    0.0000 C   0  0  0  0  0  0  0  0  0  0  0  0
    2.8620   -1.0732    0.0000 C   0  0  0  0  0  0  0  0  0  0  0  0
    1.2057    0.3445    0.0000 C   0  0  0  0  0  0  0  0  0  0  0  0
    2.8620    0.3445    0.0000 C   0  0  0  0  0  0  0  0  0  0  0  0
    1.2323   -1.0865    0.0000 C   0  0  0  0  0  0  0  0  0  0  0  0
    2.4512   -1.8020    0.0000 C   0  0  0  0  0  0  0  0  0  0  0  0
    1.6430   -1.8020    0.0000 C   0  0  0  0  0  0  0  0  0  0  0  0
   -0.8347    1.0865    0.0000 C   0  0  0  0  0  0  0  0  0  0  0  0
    0.0000    1.0732    0.0000 C   0  0  0  0  0  0  0  0  0  0  0  0
   -2.4777    1.0865    0.0000 C   0  0  0  0  0  0  0  0  0  0  0  0
   -1.2587    1.8020    0.0000 C   0  0  0  0  0  0  0  0  0  0  0  0
   -1.2455    0.3710    0.0000 C   0  0  0  0  0  0  0  0  0  0  0  0
   -2.0537    1.8020    0.0000 C   0  0  0  0  0  0  0  0  0  0  0  0
   -2.0537    0.3710    0.0000 C   0  0  0  0  0  0  0  0  0  0  0  0
   -3.2860    1.0865    0.0000 C   0  0  0  0  0  0  0  0  0  0  0  0
  1 10  1  0  0  0  0
  2 11  2  0  0  0  0
  3 12  2  0  0  0  0
  4 12  1  0  0  0  0
  5 23  2  0  0  0  0
  6 23  1  0  0  0  0
  7 11  1  0  0  0  0
  7 17  1  0  0  0  0
  8  9  2  0  0  0  0
  8 10  1  0  0  0  0
  8 12  1  0  0  0  0
  9 11  1  0  0  0  0
  9 13  1  0  0  0  0
 10 14  2  0  0  0  0
 13 15  2  0  0  0  0
 14 15  1  0  0  0  0
 16 17  1  0  0  0  0
 16 19  2  0  0  0  0
 16 20  1  0  0  0  0
 18 21  2  0  0  0  0
 18 22  1  0  0  0  0
 18 23  1  0  0  0  0
 19 21  1  0  0  0  0
 20 22  2  0  0  0  0
M  END
> <PUBCHEM_COMPOUND_ID_TYPE>
0

> <PUBCHEM_TOTAL_CHARGE>
0

> <PUBCHEM_SUBSTANCE_ID>
310949656

> <PUBCHEM_SUBSTANCE_VERSION>
1

> <PUBCHEM_EXT_DATASOURCE_NAME>
4488

> <PUBCHEM_EXT_DATASOURCE_REGID>
SCHEMBL16127854

> <PUBCHEM_SUBSTANCE_COMMENT>
InChI=1S/C16H12FNO5/c17-12-3-1-2-11(13(12)16(22)23)14(19)18-8-9-4-6-10(7-5-9)15(20)21/h1-7H,8H2,(H,18,19)(H,20,21)(H,22,23)
InChIKey=BUUBZBWGRIOASE-UHFFFAOYSA-N

> <PUBCHEM_SUBSTANCE_SYNONYM>
SCHEMBL16127854

> <PUBCHEM_XREF_EXT_ID>
SCHEMBL16127854

> <PUBCHEM_EXT_DATASOURCE_URL>
https://www.surechembl.org/

> <PUBCHEM_EXT_SUBSTANCE_URL>
https://www.surechembl.org/chemical/SCHEMBL16127854

> <PUBCHEM_CID_ASSOCIATIONS>
85471538  1

> <PUBCHEM_COORDINATE_TYPE>
1
3

$$$$
