310942986
  -OEChem-07211613022D

 33 36  0     1  0  0  0  0  0999 V2000
   -0.2782    3.0846    0.0000 Cl  0  0  0  0  0  0  0  0  0  0  0  0
   -1.7246    0.6119    0.0000 O   0  0  0  0  0  0  0  0  0  0  0  0
    4.7783   -0.4636    0.0000 O   0  0  0  0  0  0  0  0  0  0  0  0
   -3.1464   -0.2040    0.0000 O   0  0  0  0  0  0  0  0  0  0  0  0
    1.1559   -0.2040    0.0000 N   0  0  0  0  0  0  0  0  0  0  0  0
    1.8730    1.0323    0.0000 N   0  0  0  0  0  0  0  0  0  0  0  0
    3.2947    1.0323    0.0000 N   0  0  0  0  0  0  0  0  0  0  0  0
    1.8730   -3.0846    0.0000 N   0  0  0  0  0  0  0  0  0  0  0  0
   -4.5558    0.6243    0.0000 N   0  0  0  0  0  0  0  0  0  0  0  0
    1.8606   -0.6119    0.0000 C   0  0  0  0  0  0  0  0  0  0  0  0
    1.1435    0.6243    0.0000 C   0  0  0  0  0  0  0  0  0  0  0  0
    2.5654   -0.2040    0.0000 C   0  0  0  0  0  0  0  0  0  0  0  0
    2.5777    0.6243    0.0000 C   0  0  0  0  0  0  0  0  0  0  0  0
    0.4265    1.0447    0.0000 C   0  0  0  0  0  0  0  0  0  0  0  0
    1.8606   -1.4403    0.0000 C   0  0  0  0  0  0  0  0  0  0  0  0
   -0.2658    0.6243    0.0000 C   0  0  0  0  0  0  0  0  0  0  0  0
    0.4389    1.8483    0.0000 C   0  0  0  0  0  0  0  0  0  0  0  0
   -0.9952    1.0323    0.0000 C   0  0  0  0  0  0  0  0  0  0  0  0
   -0.2905    2.2686    0.0000 C   0  0  0  0  0  0  0  0  0  0  0  0
    4.0118    0.6243    0.0000 C   0  0  3  0  0  0  0  0  0  0  0  0
    2.5777   -1.8606    0.0000 C   0  0  0  0  0  0  0  0  0  0  0  0
    1.1559   -1.8606    0.0000 C   0  0  0  0  0  0  0  0  0  0  0  0
   -0.9829    1.8483    0.0000 C   0  0  0  0  0  0  0  0  0  0  0  0
    3.2947   -0.6119    0.0000 C   0  0  0  0  0  0  0  0  0  0  0  0
    3.9994   -0.2040    0.0000 C   0  0  0  0  0  0  0  0  0  0  0  0
    4.8030    0.8592    0.0000 C   0  0  0  0  0  0  0  0  0  0  0  0
    2.5777   -2.6890    0.0000 C   0  0  0  0  0  0  0  0  0  0  0  0
    1.1435   -2.6766    0.0000 C   0  0  0  0  0  0  0  0  0  0  0  0
    5.2728    0.2040    0.0000 C   0  0  0  0  0  0  0  0  0  0  0  0
   -2.4170    1.0323    0.0000 C   0  0  0  0  0  0  0  0  0  0  0  0
   -3.1340    0.6243    0.0000 C   0  0  3  0  0  0  0  0  0  0  0  0
   -3.8387    1.0323    0.0000 C   0  0  0  0  0  0  0  0  0  0  0  0
   -5.2728    1.0199    0.0000 C   0  0  0  0  0  0  0  0  0  0  0  0
  1 19  1  0  0  0  0
  2 18  1  0  0  0  0
  2 30  1  0  0  0  0
  3 25  1  0  0  0  0
  3 29  1  0  0  0  0
  4 31  1  0  0  0  0
  5 10  2  0  0  0  0
  5 11  1  0  0  0  0
  6 11  2  0  0  0  0
  6 13  1  0  0  0  0
  7 13  1  0  0  0  0
 20  7  1  1  0  0  0
  8 27  2  0  0  0  0
  8 28  1  0  0  0  0
  9 32  1  0  0  0  0
  9 33  1  0  0  0  0
 10 12  1  0  0  0  0
 10 15  1  0  0  0  0
 11 14  1  0  0  0  0
 12 13  2  0  0  0  0
 12 24  1  0  0  0  0
 14 16  2  0  0  0  0
 14 17  1  0  0  0  0
 15 21  2  0  0  0  0
 15 22  1  0  0  0  0
 16 18  1  0  0  0  0
 17 19  2  0  0  0  0
 18 23  2  0  0  0  0
 19 23  1  0  0  0  0
 20 25  1  0  0  0  0
 20 26  1  0  0  0  0
 21 27  1  0  0  0  0
 22 28  2  0  0  0  0
 26 29  1  0  0  0  0
 30 31  1  0  0  0  0
 31 32  1  0  0  0  0
M  END
> <PUBCHEM_COMPOUND_ID_TYPE>
0

> <PUBCHEM_TOTAL_CHARGE>
0

> <PUBCHEM_SUBSTANCE_ID>
310942986

> <PUBCHEM_SUBSTANCE_VERSION>
1

> <PUBCHEM_EXT_DATASOURCE_NAME>
4488

> <PUBCHEM_EXT_DATASOURCE_REGID>
SCHEMBL16121045

> <PUBCHEM_SUBSTANCE_COMMENT>
InChI=1S/C24H28ClN5O3/c1-15-22(16-3-6-27-7-4-16)29-24(30-23(15)28-19-5-8-32-13-19)17-9-18(25)11-21(10-17)33-14-20(31)12-26-2/h3-4,6-7,9-11,19-20,26,31H,5,8,12-14H2,1-2H3,(H,28,29,30)/t19-,20?/m0/s1
InChIKey=RPRSAYBGJQYSRT-XJDOXCRVSA-N

> <PUBCHEM_SUBSTANCE_SYNONYM>
SCHEMBL16121045

> <PUBCHEM_XREF_EXT_ID>
SCHEMBL16121045

> <PUBCHEM_EXT_DATASOURCE_URL>
https://www.surechembl.org/

> <PUBCHEM_EXT_SUBSTANCE_URL>
https://www.surechembl.org/chemical/SCHEMBL16121045

> <PUBCHEM_CID_ASSOCIATIONS>
117609446  1

> <PUBCHEM_COORDINATE_TYPE>
1
3

> <PUBCHEM_BONDANNOTATIONS>
20  7  5

$$$$
