310932632
  -OEChem-07211613022D

 31 34  0     0  0  0  0  0  0999 V2000
    4.0737   -2.7873    0.0000 O   0  0  0  0  0  0  0  0  0  0  0  0
    8.5762   -2.8588    0.0000 O   0  0  0  0  0  0  0  0  0  0  0  0
    4.9671   -1.6080    0.0000 N   0  0  0  0  0  0  0  0  0  0  0  0
    4.8956   -0.7862    0.0000 N   0  0  0  0  0  0  0  0  0  0  0  0
    6.4321   -1.6080    0.0000 N   0  0  0  0  0  0  0  0  0  0  0  0
    7.8615   -4.1094    0.0000 N   0  0  0  0  0  0  0  0  0  0  0  0
   10.0056   -5.3601    0.0000 N   0  0  0  0  0  0  0  0  0  0  0  0
    0.0000   -2.4656    0.0000 N   0  0  0  0  0  0  0  0  0  0  0  0
    3.6449   -1.3579    0.0000 C   0  0  0  0  0  0  0  0  0  0  0  0
    4.2167   -1.9654    0.0000 C   0  0  0  0  0  0  0  0  0  0  0  0
    2.8230   -1.4293    0.0000 C   0  0  0  0  0  0  0  0  0  0  0  0
    5.6817   -2.0369    0.0000 C   0  0  0  0  0  0  0  0  0  0  0  0
    4.0737   -0.6432    0.0000 C   0  0  0  0  0  0  0  0  0  0  0  0
    2.3228   -0.7862    0.0000 C   0  0  0  0  0  0  0  0  0  0  0  0
    5.6817   -2.8588    0.0000 C   0  0  0  0  0  0  0  0  0  0  0  0
    2.5014   -2.2155    0.0000 C   0  0  0  0  0  0  0  0  0  0  0  0
    7.1469   -2.8588    0.0000 C   0  0  0  0  0  0  0  0  0  0  0  0
    1.5009   -0.8933    0.0000 C   0  0  0  0  0  0  0  0  0  0  0  0
    7.1469   -2.0369    0.0000 C   0  0  0  0  0  0  0  0  0  0  0  0
    6.4321   -3.2518    0.0000 C   0  0  0  0  0  0  0  0  0  0  0  0
    1.1792   -1.6438    0.0000 C   0  0  0  0  0  0  0  0  0  0  0  0
    7.8615   -3.2518    0.0000 C   0  0  0  0  0  0  0  0  0  0  0  0
    1.6795   -2.2870    0.0000 C   0  0  0  0  0  0  0  0  0  0  0  0
    2.6801    0.0000    0.0000 C   0  0  0  0  0  0  0  0  0  0  0  0
    8.5762   -4.5382    0.0000 C   0  0  0  0  0  0  0  0  0  0  0  0
    0.3573   -1.7152    0.0000 C   0  0  0  0  0  0  0  0  0  0  0  0
    8.5762   -5.3601    0.0000 C   0  0  0  0  0  0  0  0  0  0  0  0
    9.2909   -4.1094    0.0000 C   0  0  0  0  0  0  0  0  0  0  0  0
    9.2909   -5.7890    0.0000 C   0  0  0  0  0  0  0  0  0  0  0  0
   10.0056   -4.5382    0.0000 C   0  0  0  0  0  0  0  0  0  0  0  0
   10.7202   -5.7532    0.0000 C   0  0  0  0  0  0  0  0  0  0  0  0
  1 10  1  0  0  0  0
  2 22  2  0  0  0  0
  3  4  1  0  0  0  0
  3 10  1  0  0  0  0
  3 12  1  0  0  0  0
  4 13  2  0  0  0  0
  5 12  2  0  0  0  0
  5 19  1  0  0  0  0
  6 22  1  0  0  0  0
  6 25  1  0  0  0  0
  7 29  1  0  0  0  0
  7 30  1  0  0  0  0
  7 31  1  0  0  0  0
  8 26  3  0  0  0  0
  9 10  2  0  0  0  0
  9 11  1  0  0  0  0
  9 13  1  0  0  0  0
 11 14  1  0  0  0  0
 11 16  2  0  0  0  0
 12 15  1  0  0  0  0
 14 18  2  0  0  0  0
 14 24  1  0  0  0  0
 15 20  2  0  0  0  0
 16 23  1  0  0  0  0
 17 19  2  0  0  0  0
 17 20  1  0  0  0  0
 17 22  1  0  0  0  0
 18 21  1  0  0  0  0
 21 23  2  0  0  0  0
 21 26  1  0  0  0  0
 25 27  1  0  0  0  0
 25 28  1  0  0  0  0
 27 29  1  0  0  0  0
 28 30  1  0  0  0  0
M  END
> <PUBCHEM_COMPOUND_ID_TYPE>
0

> <PUBCHEM_TOTAL_CHARGE>
0

> <PUBCHEM_SUBSTANCE_ID>
310932632

> <PUBCHEM_SUBSTANCE_VERSION>
1

> <PUBCHEM_EXT_DATASOURCE_NAME>
4488

> <PUBCHEM_EXT_DATASOURCE_REGID>
SCHEMBL16110010

> <PUBCHEM_SUBSTANCE_COMMENT>
InChI=1S/C23H24N6O2/c1-15-11-16(12-24)3-5-19(15)20-14-26-29(23(20)31)21-6-4-17(13-25-21)22(30)27-18-7-9-28(2)10-8-18/h3-6,11,13-14,18,31H,7-10H2,1-2H3,(H,27,30)
InChIKey=UUBAWYQBXACTAD-UHFFFAOYSA-N

> <PUBCHEM_SUBSTANCE_SYNONYM>
SCHEMBL16110010

> <PUBCHEM_XREF_EXT_ID>
SCHEMBL16110010

> <PUBCHEM_EXT_DATASOURCE_URL>
https://www.surechembl.org/

> <PUBCHEM_EXT_SUBSTANCE_URL>
https://www.surechembl.org/chemical/SCHEMBL16110010

> <PUBCHEM_CID_ASSOCIATIONS>
117601150  1

> <PUBCHEM_COORDINATE_TYPE>
1
3

$$$$
