310947355
  -OEChem-07211613022D

 35 38  0     0  0  0  0  0  0999 V2000
   -2.9060    2.4893    0.0000 O   0  0  0  0  0  0  0  0  0  0  0  0
   -5.7639    1.6644    0.0000 O   0  0  0  0  0  0  0  0  0  0  0  0
    0.0219    0.1720    0.0000 N   0  0  0  0  0  0  0  0  0  0  0  0
    0.5068    0.8394    0.0000 N   0  0  0  0  0  0  0  0  0  0  0  0
   -3.6205    1.2519    0.0000 N   0  0  0  0  0  0  0  0  0  0  0  0
   -0.7626    0.4270    0.0000 C   0  0  0  0  0  0  0  0  0  0  0  0
   -0.7626    1.2519    0.0000 C   0  0  0  0  0  0  0  0  0  0  0  0
    0.0219    1.5068    0.0000 C   0  0  0  0  0  0  0  0  0  0  0  0
   -1.4771    1.6644    0.0000 C   0  0  0  0  0  0  0  0  0  0  0  0
   -2.1916    1.2519    0.0000 C   0  0  0  0  0  0  0  0  0  0  0  0
   -1.4771    0.0144    0.0000 C   0  0  0  0  0  0  0  0  0  0  0  0
    0.2354   -0.6249    0.0000 C   0  0  0  0  0  0  0  0  0  0  0  0
    1.0323   -0.8384    0.0000 C   0  0  0  0  0  0  0  0  0  0  0  0
   -2.1916    0.4270    0.0000 C   0  0  0  0  0  0  0  0  0  0  0  0
    3.4229   -1.4789    0.0000 C   0  0  0  0  0  0  0  0  0  0  0  0
    4.0063   -0.8956    0.0000 C   0  0  0  0  0  0  0  0  0  0  0  0
    2.6261   -1.2655    0.0000 C   0  0  0  0  0  0  0  0  0  0  0  0
   -2.9060    1.6644    0.0000 C   0  0  0  0  0  0  0  0  0  0  0  0
    3.7928   -0.0987    0.0000 C   0  0  0  0  0  0  0  0  0  0  0  0
    1.2458   -1.6353    0.0000 C   0  0  0  0  0  0  0  0  0  0  0  0
    1.6157   -0.2551    0.0000 C   0  0  0  0  0  0  0  0  0  0  0  0
    0.4344    2.2213    0.0000 C   0  0  0  0  0  0  0  0  0  0  0  0
    2.0427   -1.8488    0.0000 C   0  0  0  0  0  0  0  0  0  0  0  0
    2.4125   -0.4686    0.0000 C   0  0  0  0  0  0  0  0  0  0  0  0
    3.6365   -2.2758    0.0000 C   0  0  0  0  0  0  0  0  0  0  0  0
    4.8032   -1.1091    0.0000 C   0  0  0  0  0  0  0  0  0  0  0  0
    4.4334   -2.4893    0.0000 C   0  0  0  0  0  0  0  0  0  0  0  0
    5.0167   -1.9060    0.0000 C   0  0  0  0  0  0  0  0  0  0  0  0
    2.9428   -0.3265    0.0000 C   0  0  0  0  0  0  0  0  0  0  0  0
    3.5651    0.7513    0.0000 C   0  0  0  0  0  0  0  0  0  0  0  0
    4.6428    0.1290    0.0000 C   0  0  0  0  0  0  0  0  0  0  0  0
   -4.3350    1.6644    0.0000 C   0  0  0  0  0  0  0  0  0  0  0  0
   -5.0494    1.2519    0.0000 C   0  0  0  0  0  0  0  0  0  0  0  0
   -6.4783    1.2519    0.0000 C   0  0  0  0  0  0  0  0  0  0  0  0
   -7.1928    1.6644    0.0000 C   0  0  0  0  0  0  0  0  0  0  0  0
  1 18  2  0  0  0  0
  2 33  1  0  0  0  0
  2 34  1  0  0  0  0
  3  4  1  0  0  0  0
  3  6  1  0  0  0  0
  3 12  1  0  0  0  0
  4  8  2  0  0  0  0
  5 18  1  0  0  0  0
  5 32  1  0  0  0  0
  6  7  1  0  0  0  0
  6 11  2  0  0  0  0
  7  8  1  0  0  0  0
  7  9  2  0  0  0  0
  8 22  1  0  0  0  0
  9 10  1  0  0  0  0
 10 14  2  0  0  0  0
 10 18  1  0  0  0  0
 11 14  1  0  0  0  0
 12 13  1  0  0  0  0
 13 20  2  0  0  0  0
 13 21  1  0  0  0  0
 15 16  1  0  0  0  0
 15 17  1  0  0  0  0
 15 25  2  0  0  0  0
 16 19  1  0  0  0  0
 16 26  2  0  0  0  0
 17 23  2  0  0  0  0
 17 24  1  0  0  0  0
 19 29  1  0  0  0  0
 19 30  1  0  0  0  0
 19 31  1  0  0  0  0
 20 23  1  0  0  0  0
 21 24  2  0  0  0  0
 25 27  1  0  0  0  0
 26 28  1  0  0  0  0
 27 28  2  0  0  0  0
 32 33  1  0  0  0  0
 34 35  1  0  0  0  0
M  END
> <PUBCHEM_COMPOUND_ID_TYPE>
0

> <PUBCHEM_TOTAL_CHARGE>
0

> <PUBCHEM_SUBSTANCE_ID>
310947355

> <PUBCHEM_SUBSTANCE_VERSION>
1

> <PUBCHEM_EXT_DATASOURCE_NAME>
4488

> <PUBCHEM_EXT_DATASOURCE_REGID>
SCHEMBL16125510

> <PUBCHEM_SUBSTANCE_COMMENT>
InChI=1S/C30H35N3O2/c1-6-35-18-17-31-29(34)24-15-16-28-26(19-24)21(2)32-33(28)20-22-11-13-23(14-12-22)25-9-7-8-10-27(25)30(3,4)5/h7-16,19H,6,17-18,20H2,1-5H3,(H,31,34)
InChIKey=JEMRRCRQWUTGDX-UHFFFAOYSA-N

> <PUBCHEM_SUBSTANCE_SYNONYM>
SCHEMBL16125510

> <PUBCHEM_XREF_EXT_ID>
SCHEMBL16125510

> <PUBCHEM_EXT_DATASOURCE_URL>
https://www.surechembl.org/

> <PUBCHEM_EXT_SUBSTANCE_URL>
https://www.surechembl.org/chemical/SCHEMBL16125510

> <PUBCHEM_CID_ASSOCIATIONS>
117613100  1

> <PUBCHEM_COORDINATE_TYPE>
1
3

$$$$
