310940342
  -OEChem-07211613022D

 23 25  0     0  0  0  0  0  0999 V2000
    3.5759    1.6783    0.0000 Cl  0  0  0  0  0  0  0  0  0  0  0  0
   -0.7809    1.6099    0.0000 O   0  0  0  0  0  0  0  0  0  0  0  0
    2.1510   -1.3221    0.0000 O   0  0  0  0  0  0  0  0  0  0  0  0
    1.1920    0.0479    0.0000 N   0  0  0  0  0  0  0  0  0  0  0  0
    0.7672   -0.6645    0.0000 N   0  0  0  0  0  0  0  0  0  0  0  0
   -0.0411   -0.4727    0.0000 N   0  0  0  0  0  0  0  0  0  0  0  0
   -0.1096    0.3494    0.0000 C   0  0  0  0  0  0  0  0  0  0  0  0
    2.0277    0.1165    0.0000 C   0  0  0  0  0  0  0  0  0  0  0  0
   -0.8221    0.7741    0.0000 C   0  0  0  0  0  0  0  0  0  0  0  0
    0.6440    0.6782    0.0000 C   0  0  0  0  0  0  0  0  0  0  0  0
   -1.5345    0.3905    0.0000 C   0  0  0  0  0  0  0  0  0  0  0  0
    2.4935   -0.5549    0.0000 C   0  0  0  0  0  0  0  0  0  0  0  0
    2.3839    0.8563    0.0000 C   0  0  0  0  0  0  0  0  0  0  0  0
    3.1923    0.9385    0.0000 C   0  0  0  0  0  0  0  0  0  0  0  0
   -2.2470    0.8015    0.0000 C   0  0  0  0  0  0  0  0  0  0  0  0
   -1.5619   -0.4316    0.0000 C   0  0  0  0  0  0  0  0  0  0  0  0
    3.3293   -0.4864    0.0000 C   0  0  0  0  0  0  0  0  0  0  0  0
   -2.9594    0.4316    0.0000 C   0  0  0  0  0  0  0  0  0  0  0  0
   -2.2743   -0.8289    0.0000 C   0  0  0  0  0  0  0  0  0  0  0  0
    3.6718    0.2672    0.0000 C   0  0  0  0  0  0  0  0  0  0  0  0
   -2.9867   -0.4041    0.0000 C   0  0  0  0  0  0  0  0  0  0  0  0
   -3.6718    0.8700    0.0000 C   0  0  0  0  0  0  0  0  0  0  0  0
   -2.3017   -1.6783    0.0000 C   0  0  0  0  0  0  0  0  0  0  0  0
  1 14  1  0  0  0  0
  2  9  2  0  0  0  0
  3 12  1  0  0  0  0
  4  5  1  0  0  0  0
  4  8  1  0  0  0  0
  4 10  1  0  0  0  0
  5  6  2  0  0  0  0
  6  7  1  0  0  0  0
  7  9  1  0  0  0  0
  7 10  2  0  0  0  0
  8 12  2  0  0  0  0
  8 13  1  0  0  0  0
  9 11  1  0  0  0  0
 11 15  2  0  0  0  0
 11 16  1  0  0  0  0
 12 17  1  0  0  0  0
 13 14  2  0  0  0  0
 14 20  1  0  0  0  0
 15 18  1  0  0  0  0
 16 19  2  0  0  0  0
 17 20  2  0  0  0  0
 18 21  2  0  0  0  0
 18 22  1  0  0  0  0
 19 21  1  0  0  0  0
 19 23  1  0  0  0  0
M  END
> <PUBCHEM_COMPOUND_ID_TYPE>
0

> <PUBCHEM_TOTAL_CHARGE>
0

> <PUBCHEM_SUBSTANCE_ID>
310940342

> <PUBCHEM_SUBSTANCE_VERSION>
1

> <PUBCHEM_EXT_DATASOURCE_NAME>
4488

> <PUBCHEM_EXT_DATASOURCE_REGID>
SCHEMBL16118286

> <PUBCHEM_SUBSTANCE_COMMENT>
InChI=1S/C17H14ClN3O2/c1-10-5-11(2)7-12(6-10)17(23)14-9-21(20-19-14)15-8-13(18)3-4-16(15)22/h3-9,22H,1-2H3
InChIKey=MWSAVUFSXPDLGB-UHFFFAOYSA-N

> <PUBCHEM_SUBSTANCE_SYNONYM>
SCHEMBL16118286

> <PUBCHEM_XREF_EXT_ID>
SCHEMBL16118286

> <PUBCHEM_EXT_DATASOURCE_URL>
https://www.surechembl.org/

> <PUBCHEM_EXT_SUBSTANCE_URL>
https://www.surechembl.org/chemical/SCHEMBL16118286

> <PUBCHEM_CID_ASSOCIATIONS>
86296298  1

> <PUBCHEM_COORDINATE_TYPE>
1
3

$$$$
