310936193
  -OEChem-07211613022D

 25 27  0     0  0  0  0  0  0999 V2000
    8.2496   -1.6499    0.0000 Br  0  0  0  0  0  0  0  0  0  0  0  0
    2.8599   -1.2375    0.0000 O   0  0  0  0  0  0  0  0  0  0  0  0
    1.6224   -3.3549    0.0000 O   0  0  0  0  0  0  0  0  0  0  0  0
    1.6224   -1.9524    0.0000 O   0  0  0  0  0  0  0  0  0  0  0  0
    4.5098   -2.6674    0.0000 N   0  0  0  0  0  0  0  0  0  0  0  0
    5.3348   -2.4749    0.0000 N   0  0  0  0  0  0  0  0  0  0  0  0
    4.0973   -1.9524    0.0000 C   0  0  0  0  0  0  0  0  0  0  0  0
    3.2724   -1.9524    0.0000 C   0  0  0  0  0  0  0  0  0  0  0  0
    2.8599   -2.6674    0.0000 C   0  0  0  0  0  0  0  0  0  0  0  0
    5.3897   -1.6499    0.0000 C   0  0  0  0  0  0  0  0  0  0  0  0
    3.2724   -3.3549    0.0000 C   0  0  0  0  0  0  0  0  0  0  0  0
    4.6473   -1.3200    0.0000 C   0  0  0  0  0  0  0  0  0  0  0  0
    4.0973   -3.3549    0.0000 C   0  0  0  0  0  0  0  0  0  0  0  0
    2.0349   -2.6674    0.0000 C   0  0  0  0  0  0  0  0  0  0  0  0
    6.1047   -1.2375    0.0000 C   0  0  0  0  0  0  0  0  0  0  0  0
    6.8197   -1.6499    0.0000 C   0  0  0  0  0  0  0  0  0  0  0  0
    6.1047   -0.4125    0.0000 C   0  0  0  0  0  0  0  0  0  0  0  0
    2.8599   -4.0698    0.0000 C   0  0  0  0  0  0  0  0  0  0  0  0
    0.8249   -3.3549    0.0000 C   0  0  0  0  0  0  0  0  0  0  0  0
    7.5346   -1.2375    0.0000 C   0  0  0  0  0  0  0  0  0  0  0  0
    6.8197    0.0000    0.0000 C   0  0  0  0  0  0  0  0  0  0  0  0
    7.5346   -0.4125    0.0000 C   0  0  0  0  0  0  0  0  0  0  0  0
    0.8249   -2.5299    0.0000 C   0  0  0  0  0  0  0  0  0  0  0  0
    0.0000   -3.3549    0.0000 C   0  0  0  0  0  0  0  0  0  0  0  0
    0.8249   -4.1798    0.0000 C   0  0  0  0  0  0  0  0  0  0  0  0
  1 20  1  0  0  0  0
  2  8  1  0  0  0  0
  3 14  1  0  0  0  0
  3 19  1  0  0  0  0
  4 14  2  0  0  0  0
  5  6  1  0  0  0  0
  5  7  1  0  0  0  0
  5 13  1  0  0  0  0
  6 10  2  0  0  0  0
  7  8  1  0  0  0  0
  7 12  2  0  0  0  0
  8  9  2  0  0  0  0
  9 11  1  0  0  0  0
  9 14  1  0  0  0  0
 10 12  1  0  0  0  0
 10 15  1  0  0  0  0
 11 13  2  0  0  0  0
 11 18  1  0  0  0  0
 15 16  1  0  0  0  0
 15 17  2  0  0  0  0
 16 20  2  0  0  0  0
 17 21  1  0  0  0  0
 19 23  1  0  0  0  0
 19 24  1  0  0  0  0
 19 25  1  0  0  0  0
 20 22  1  0  0  0  0
 21 22  2  0  0  0  0
M  END
> <PUBCHEM_COMPOUND_ID_TYPE>
0

> <PUBCHEM_TOTAL_CHARGE>
0

> <PUBCHEM_SUBSTANCE_ID>
310936193

> <PUBCHEM_SUBSTANCE_VERSION>
1

> <PUBCHEM_EXT_DATASOURCE_NAME>
4488

> <PUBCHEM_EXT_DATASOURCE_REGID>
SCHEMBL16113805

> <PUBCHEM_SUBSTANCE_COMMENT>
InChI=1S/C19H19BrN2O3/c1-11-10-22-15(17(23)16(11)18(24)25-19(2,3)4)9-14(21-22)12-6-5-7-13(20)8-12/h5-10,23H,1-4H3
InChIKey=KEGOPLMAUDOPOE-UHFFFAOYSA-N

> <PUBCHEM_SUBSTANCE_SYNONYM>
SCHEMBL16113805

> <PUBCHEM_XREF_EXT_ID>
SCHEMBL16113805

> <PUBCHEM_EXT_DATASOURCE_URL>
https://www.surechembl.org/

> <PUBCHEM_EXT_SUBSTANCE_URL>
https://www.surechembl.org/chemical/SCHEMBL16113805

> <PUBCHEM_CID_ASSOCIATIONS>
117604149  1

> <PUBCHEM_COORDINATE_TYPE>
1
3

$$$$
