310949251
  -OEChem-07211613022D

 43 48  0     0  0  0  0  0  0999 V2000
   -0.0549    0.2198    0.0000 N   0  0  0  0  0  0  0  0  0  0  0  0
    2.1064   -0.2564    0.0000 N   0  0  0  0  0  0  0  0  0  0  0  0
   -0.0549   -3.9015    0.0000 N   0  0  0  0  0  0  0  0  0  0  0  0
    0.6045    0.7327    0.0000 C   0  0  0  0  0  0  0  0  0  0  0  0
   -0.7876    0.7144    0.0000 C   0  0  0  0  0  0  0  0  0  0  0  0
   -0.0549   -0.5862    0.0000 C   0  0  0  0  0  0  0  0  0  0  0  0
    0.3663    1.4654    0.0000 C   0  0  0  0  0  0  0  0  0  0  0  0
   -0.4946    1.5021    0.0000 C   0  0  0  0  0  0  0  0  0  0  0  0
    0.6961   -1.0075    0.0000 C   0  0  0  0  0  0  0  0  0  0  0  0
    0.6595   -1.8317    0.0000 C   0  0  0  0  0  0  0  0  0  0  0  0
   -0.8060   -1.8317    0.0000 C   0  0  0  0  0  0  0  0  0  0  0  0
   -0.0916   -2.2347    0.0000 C   0  0  0  0  0  0  0  0  0  0  0  0
   -0.7694   -1.0075    0.0000 C   0  0  0  0  0  0  0  0  0  0  0  0
    0.9342    2.0698    0.0000 C   0  0  0  0  0  0  0  0  0  0  0  0
   -1.0257    2.0515    0.0000 C   0  0  0  0  0  0  0  0  0  0  0  0
    1.4471    0.5679    0.0000 C   0  0  0  0  0  0  0  0  0  0  0  0
   -1.5203    0.5495    0.0000 C   0  0  0  0  0  0  0  0  0  0  0  0
    1.4104   -2.2530    0.0000 C   0  0  0  0  0  0  0  0  0  0  0  0
   -1.5203   -2.2163    0.0000 C   0  0  0  0  0  0  0  0  0  0  0  0
   -1.8683    1.9233    0.0000 C   0  0  0  0  0  0  0  0  0  0  0  0
    1.7402    1.9416    0.0000 C   0  0  0  0  0  0  0  0  0  0  0  0
    1.9966    1.1356    0.0000 C   0  0  0  0  0  0  0  0  0  0  0  0
   -2.0515    1.1173    0.0000 C   0  0  0  0  0  0  0  0  0  0  0  0
    1.3921   -0.6228    0.0000 C   0  0  0  0  0  0  0  0  0  0  0  0
   -0.0733   -3.0956    0.0000 C   0  0  0  0  0  0  0  0  0  0  0  0
   -2.3813    2.5095    0.0000 C   0  0  0  0  0  0  0  0  0  0  0  0
    2.3079    2.5645    0.0000 C   0  0  0  0  0  0  0  0  0  0  0  0
    0.8243   -2.8391    0.0000 C   0  0  0  0  0  0  0  0  0  0  0  0
    2.1614   -1.8683    0.0000 C   0  0  0  0  0  0  0  0  0  0  0  0
    1.4288   -3.0956    0.0000 C   0  0  0  0  0  0  0  0  0  0  0  0
   -1.4837   -3.0772    0.0000 C   0  0  0  0  0  0  0  0  0  0  0  0
   -2.1797   -1.8500    0.0000 C   0  0  0  0  0  0  0  0  0  0  0  0
   -1.7218   -1.4654    0.0000 C   0  0  0  0  0  0  0  0  0  0  0  0
   -2.1248    3.3155    0.0000 C   0  0  0  0  0  0  0  0  0  0  0  0
    3.1139    2.3996    0.0000 C   0  0  0  0  0  0  0  0  0  0  0  0
   -3.1871    2.3813    0.0000 C   0  0  0  0  0  0  0  0  0  0  0  0
    2.0698    3.2787    0.0000 C   0  0  0  0  0  0  0  0  0  0  0  0
   -2.6743    3.8833    0.0000 C   0  0  0  0  0  0  0  0  0  0  0  0
    3.7184    2.9674    0.0000 C   0  0  0  0  0  0  0  0  0  0  0  0
   -3.7184    2.9490    0.0000 C   0  0  0  0  0  0  0  0  0  0  0  0
    2.6010    3.9015    0.0000 C   0  0  0  0  0  0  0  0  0  0  0  0
   -3.4620    3.7184    0.0000 C   0  0  0  0  0  0  0  0  0  0  0  0
    3.4437    3.7184    0.0000 C   0  0  0  0  0  0  0  0  0  0  0  0
  1  4  1  0  0  0  0
  1  5  1  0  0  0  0
  1  6  1  0  0  0  0
  2 24  3  0  0  0  0
  3 25  3  0  0  0  0
  4  7  2  0  0  0  0
  4 16  1  0  0  0  0
  5  8  2  0  0  0  0
  5 17  1  0  0  0  0
  6  9  2  0  0  0  0
  6 13  1  0  0  0  0
  7  8  1  0  0  0  0
  7 14  1  0  0  0  0
  8 15  1  0  0  0  0
  9 10  1  0  0  0  0
  9 24  1  0  0  0  0
 10 12  2  0  0  0  0
 10 18  1  0  0  0  0
 11 12  1  0  0  0  0
 11 13  2  0  0  0  0
 11 19  1  0  0  0  0
 12 25  1  0  0  0  0
 14 21  2  0  0  0  0
 15 20  2  0  0  0  0
 16 22  2  0  0  0  0
 17 23  2  0  0  0  0
 18 28  1  0  0  0  0
 18 29  1  0  0  0  0
 18 30  1  0  0  0  0
 19 31  1  0  0  0  0
 19 32  1  0  0  0  0
 19 33  1  0  0  0  0
 20 23  1  0  0  0  0
 20 26  1  0  0  0  0
 21 22  1  0  0  0  0
 21 27  1  0  0  0  0
 26 34  2  0  0  0  0
 26 36  1  0  0  0  0
 27 35  2  0  0  0  0
 27 37  1  0  0  0  0
 34 38  1  0  0  0  0
 35 39  1  0  0  0  0
 36 40  2  0  0  0  0
 37 41  2  0  0  0  0
 38 42  2  0  0  0  0
 39 43  2  0  0  0  0
 40 42  1  0  0  0  0
 41 43  1  0  0  0  0
M  END
> <PUBCHEM_COMPOUND_ID_TYPE>
0

> <PUBCHEM_TOTAL_CHARGE>
0

> <PUBCHEM_SUBSTANCE_ID>
310949251

> <PUBCHEM_SUBSTANCE_VERSION>
1

> <PUBCHEM_EXT_DATASOURCE_NAME>
4488

> <PUBCHEM_EXT_DATASOURCE_REGID>
SCHEMBL16127441

> <PUBCHEM_SUBSTANCE_COMMENT>
InChI=1S/C40H35N3/c1-39(2,3)34-23-37(33(25-42)38(32(34)24-41)40(4,5)6)43-35-19-17-28(26-13-9-7-10-14-26)21-30(35)31-22-29(18-20-36(31)43)27-15-11-8-12-16-27/h7-23H,1-6H3
InChIKey=OUKTUXRRUFMOEF-UHFFFAOYSA-N

> <PUBCHEM_SUBSTANCE_SYNONYM>
SCHEMBL16127441

> <PUBCHEM_XREF_EXT_ID>
SCHEMBL16127441

> <PUBCHEM_EXT_DATASOURCE_URL>
https://www.surechembl.org/

> <PUBCHEM_EXT_SUBSTANCE_URL>
https://www.surechembl.org/chemical/SCHEMBL16127441

> <PUBCHEM_CID_ASSOCIATIONS>
117614738  1

> <PUBCHEM_COORDINATE_TYPE>
1
3

$$$$
