310948894
  -OEChem-07211613022D

 53 55  0     1  0  0  0  0  0999 V2000
    3.0952    1.2430    0.0000 P   0  0  3  0  0  0  0  0  0  0  0  0
    6.0412   -1.0815    0.0000 F   0  0  0  0  0  0  0  0  0  0  0  0
    6.0287    1.0815    0.0000 O   0  0  0  0  0  0  0  0  0  0  0  0
    4.8230   -0.7210    0.0000 O   0  0  0  0  0  0  0  0  0  0  0  0
    3.8037    0.8204    0.0000 O   0  0  0  0  0  0  0  0  0  0  0  0
    7.3339    1.8397    0.0000 O   0  0  0  0  0  0  0  0  0  0  0  0
    3.0827    0.4102    0.0000 O   0  0  0  0  0  0  0  0  0  0  0  0
    9.8200    0.4102    0.0000 O   0  0  0  0  0  0  0  0  0  0  0  0
    3.0827    2.0635    0.0000 O   0  0  0  0  0  0  0  0  0  0  0  0
   -0.5096    0.0000    0.0000 O   0  0  0  0  0  0  0  0  0  0  0  0
    7.3588    0.4102    0.0000 N   0  0  0  0  0  0  0  0  0  0  0  0
    8.7261    1.1312    0.0000 N   0  0  0  0  0  0  0  0  0  0  0  0
    2.3866    0.8328    0.0000 N   0  0  0  0  0  0  0  0  0  0  0  0
    0.2237    1.2430    0.0000 N   0  0  0  0  0  0  0  0  0  0  0  0
    6.0412   -0.2486    0.0000 C   0  0  3  0  0  0  0  0  0  0  0  0
    6.5259    0.4226    0.0000 C   0  0  3  0  0  0  0  0  0  0  0  0
    5.2456    0.0000    0.0000 C   0  0  3  0  0  0  0  0  0  0  0  0
    5.2581    0.8328    0.0000 C   0  0  3  0  0  0  0  0  0  0  0  0
    6.7497   -0.6713    0.0000 C   0  0  0  0  0  0  0  0  0  0  0  0
    7.7690    1.1312    0.0000 C   0  0  0  0  0  0  0  0  0  0  0  0
    4.5371    1.2430    0.0000 C   0  0  0  0  0  0  0  0  0  0  0  0
    7.7690   -0.2984    0.0000 C   0  0  0  0  0  0  0  0  0  0  0  0
    8.6018   -0.2984    0.0000 C   0  0  0  0  0  0  0  0  0  0  0  0
    8.9872    0.4226    0.0000 C   0  0  0  0  0  0  0  0  0  0  0  0
    6.7621   -1.4916    0.0000 C   0  0  0  0  0  0  0  0  0  0  0  0
    3.0952   -0.4226    0.0000 C   0  0  0  0  0  0  0  0  0  0  0  0
    1.6533    1.2430    0.0000 C   0  0  0  0  0  0  0  0  0  0  0  0
    2.3866   -0.8328    0.0000 C   0  0  0  0  0  0  0  0  0  0  0  0
    3.8161   -0.8328    0.0000 C   0  0  0  0  0  0  0  0  0  0  0  0
    0.9571    0.8328    0.0000 C   0  0  0  0  0  0  0  0  0  0  0  0
    2.3866   -1.6533    0.0000 C   0  0  0  0  0  0  0  0  0  0  0  0
    3.8161   -1.6533    0.0000 C   0  0  0  0  0  0  0  0  0  0  0  0
    3.0952   -2.0635    0.0000 C   0  0  0  0  0  0  0  0  0  0  0  0
   -0.4972    0.8453    0.0000 C   0  0  0  0  0  0  0  0  0  0  0  0
   -1.2182    1.2430    0.0000 C   0  0  0  0  0  0  0  0  0  0  0  0
   -1.9143    0.8328    0.0000 C   0  0  0  0  0  0  0  0  0  0  0  0
   -1.9267   -0.0125    0.0000 C   0  0  0  0  0  0  0  0  0  0  0  0
   -2.6353   -0.4102    0.0000 C   0  0  0  0  0  0  0  0  0  0  0  0
   -3.3686    0.0000    0.0000 C   0  0  0  0  0  0  0  0  0  0  0  0
   -3.3686    0.8328    0.0000 C   0  0  0  0  0  0  0  0  0  0  0  0
   -4.0772    1.2430    0.0000 C   0  0  0  0  0  0  0  0  0  0  0  0
   -4.7857    0.8328    0.0000 C   0  0  0  0  0  0  0  0  0  0  0  0
   -4.7981   -0.0125    0.0000 C   0  0  0  0  0  0  0  0  0  0  0  0
   -5.5066   -0.4102    0.0000 C   0  0  0  0  0  0  0  0  0  0  0  0
   -6.2401    0.0000    0.0000 C   0  0  0  0  0  0  0  0  0  0  0  0
   -6.2401    0.8328    0.0000 C   0  0  0  0  0  0  0  0  0  0  0  0
   -6.9485    1.2430    0.0000 C   0  0  0  0  0  0  0  0  0  0  0  0
   -7.6571    0.8328    0.0000 C   0  0  0  0  0  0  0  0  0  0  0  0
   -7.6696   -0.0125    0.0000 C   0  0  0  0  0  0  0  0  0  0  0  0
   -8.3781   -0.4102    0.0000 C   0  0  0  0  0  0  0  0  0  0  0  0
   -9.0990    0.0000    0.0000 C   0  0  0  0  0  0  0  0  0  0  0  0
   -9.0990    0.8204    0.0000 C   0  0  0  0  0  0  0  0  0  0  0  0
   -9.8200    1.2306    0.0000 C   0  0  0  0  0  0  0  0  0  0  0  0
  1  5  1  0  0  0  0
  1  7  1  0  0  0  0
  1  9  2  0  0  0  0
  1 13  1  0  0  0  0
 15  2  1  6  0  0  0
 16  3  1  1  0  0  0
  3 18  1  0  0  0  0
 17  4  1  6  0  0  0
  5 21  1  0  0  0  0
  6 20  2  0  0  0  0
  7 26  1  0  0  0  0
  8 24  2  0  0  0  0
 10 34  2  0  0  0  0
 11 16  1  0  0  0  0
 11 20  1  0  0  0  0
 11 22  1  0  0  0  0
 12 20  1  0  0  0  0
 12 24  1  0  0  0  0
 13 27  1  0  0  0  0
 14 30  1  0  0  0  0
 14 34  1  0  0  0  0
 15 16  1  0  0  0  0
 15 17  1  0  0  0  0
 15 19  1  1  0  0  0
 17 18  1  0  0  0  0
 18 21  1  1  0  0  0
 19 25  1  0  0  0  0
 22 23  2  0  0  0  0
 23 24  1  0  0  0  0
 26 28  2  0  0  0  0
 26 29  1  0  0  0  0
 27 30  1  0  0  0  0
 28 31  1  0  0  0  0
 29 32  2  0  0  0  0
 31 33  2  0  0  0  0
 32 33  1  0  0  0  0
 34 35  1  0  0  0  0
 35 36  1  0  0  0  0
 36 37  1  0  0  0  0
 37 38  1  0  0  0  0
 38 39  2  0  0  0  0
 39 40  1  0  0  0  0
 40 41  1  0  0  0  0
 41 42  2  0  0  0  0
 42 43  1  0  0  0  0
 43 44  1  0  0  0  0
 44 45  2  0  0  0  0
 45 46  1  0  0  0  0
 46 47  1  0  0  0  0
 47 48  2  0  0  0  0
 48 49  1  0  0  0  0
 49 50  1  0  0  0  0
 50 51  2  0  0  0  0
 51 52  1  0  0  0  0
 52 53  1  0  0  0  0
M  END
> <PUBCHEM_COMPOUND_ID_TYPE>
0

> <PUBCHEM_TOTAL_CHARGE>
0

> <PUBCHEM_SUBSTANCE_ID>
310948894

> <PUBCHEM_SUBSTANCE_VERSION>
1

> <PUBCHEM_EXT_DATASOURCE_NAME>
4488

> <PUBCHEM_EXT_DATASOURCE_REGID>
SCHEMBL16127079

> <PUBCHEM_SUBSTANCE_COMMENT>
InChI=1S/C39H54FN4O8P/c1-3-5-6-7-8-9-10-11-12-13-14-15-16-17-18-19-23-26-34(45)41-28-29-42-53(49,52-32-24-21-20-22-25-32)50-31-33-36(47)39(40,4-2)37(51-33)44-30-27-35(46)43-38(44)48/h5-6,8-9,11-12,14-15,17-18,20-22,24-25,27,30,33,36-37,47H,3-4,7,10,13,16,19,23,26,28-29,31H2,1-2H3,(H,41,45)(H,42,49)(H,43,46,48)/b6-5-,9-8-,12-11-,15-14-,18-17-/t33-,36-,37-,39-,53?/m1/s1
InChIKey=DBYUVBPJZGACHJ-BVYLBMRXSA-N

> <PUBCHEM_SUBSTANCE_SYNONYM>
SCHEMBL16127079

> <PUBCHEM_XREF_EXT_ID>
SCHEMBL16127079

> <PUBCHEM_EXT_DATASOURCE_URL>
https://www.surechembl.org/

> <PUBCHEM_EXT_SUBSTANCE_URL>
https://www.surechembl.org/chemical/SCHEMBL16127079

> <PUBCHEM_CID_ASSOCIATIONS>
86270687  1

> <PUBCHEM_COORDINATE_TYPE>
1
3

> <PUBCHEM_BONDANNOTATIONS>
15  19  5
18  21  5
15  2  6
16  3  5
17  4  6

$$$$
