310948771
  -OEChem-07211613022D

 42 44  0     1  0  0  0  0  0999 V2000
   -2.5345    1.1589    0.0000 O   0  0  0  0  0  0  0  0  0  0  0  0
   -1.0838   -0.5253    0.0000 O   0  0  0  0  0  0  0  0  0  0  0  0
   -2.5345   -1.3589    0.0000 O   0  0  0  0  0  0  0  0  0  0  0  0
   -3.9852   -0.5253    0.0000 O   0  0  0  0  0  0  0  0  0  0  0  0
   -1.0338    1.0922    0.0000 O   0  0  0  0  0  0  0  0  0  0  0  0
    3.2515    2.5429    0.0000 O   0  0  0  0  0  0  0  0  0  0  0  0
    4.0185   -0.3251    0.0000 O   0  0  0  0  0  0  0  0  0  0  0  0
   -4.7022    0.7420    0.0000 O   0  0  0  0  0  0  0  0  0  0  0  0
   -1.0338   -2.0593    0.0000 O   0  0  0  0  0  0  0  0  0  0  0  0
    1.1339    0.6753    0.0000 O   0  0  0  0  0  0  0  0  0  0  0  0
   -1.8008   -2.5429    0.0000 O   0  0  0  0  0  0  0  0  0  0  0  0
   -4.7188    0.6253    0.0000 O   0  0  0  0  0  0  0  0  0  0  0  0
   -5.4025    1.9092    0.0000 O   0  0  0  0  0  0  0  0  0  0  0  0
    3.3683    1.0255    0.0000 N   0  0  0  0  0  0  0  0  0  0  0  0
    0.1834   -1.1088    0.0000 N   0  0  0  0  0  0  0  0  0  0  0  0
   -2.5345   -0.4919    0.0000 C   0  0  3  0  0  0  0  0  0  0  0  0
   -1.8342   -0.0917    0.0000 C   0  0  3  0  0  0  0  0  0  0  0  0
   -3.2682   -0.0750    0.0000 C   0  0  3  0  0  0  0  0  0  0  0  0
   -1.8175    0.7420    0.0000 C   0  0  3  0  0  0  0  0  0  0  0  0
   -3.2682    0.7587    0.0000 C   0  0  3  0  0  0  0  0  0  0  0  0
    4.7188    0.9922    0.0000 C   0  0  0  0  0  0  0  0  0  0  0  0
    4.5021    1.7758    0.0000 C   0  0  0  0  0  0  0  0  0  0  0  0
    4.0185    0.5586    0.0000 C   0  0  0  0  0  0  0  0  0  0  0  0
    3.6850    1.8258    0.0000 C   0  0  0  0  0  0  0  0  0  0  0  0
   -4.0019    1.1589    0.0000 C   0  0  0  0  0  0  0  0  0  0  0  0
    5.0857    2.3595    0.0000 C   0  0  0  0  0  0  0  0  0  0  0  0
    5.5359    0.7754    0.0000 C   0  0  0  0  0  0  0  0  0  0  0  0
   -0.6169   -1.2756    0.0000 C   0  0  0  0  0  0  0  0  0  0  0  0
    2.6012    0.6920    0.0000 C   0  0  0  0  0  0  0  0  0  0  0  0
   -1.8008   -1.7758    0.0000 C   0  0  0  0  0  0  0  0  0  0  0  0
   -4.7022   -0.1418    0.0000 C   0  0  0  0  0  0  0  0  0  0  0  0
    5.9028    2.1427    0.0000 C   0  0  0  0  0  0  0  0  0  0  0  0
    6.1029    1.3423    0.0000 C   0  0  0  0  0  0  0  0  0  0  0  0
   -0.3168    0.7087    0.0000 C   0  0  0  0  0  0  0  0  0  0  0  0
    1.8342    1.1088    0.0000 C   0  0  0  0  0  0  0  0  0  0  0  0
    0.4002    1.1088    0.0000 C   0  0  0  0  0  0  0  0  0  0  0  0
   -5.4192    1.1422    0.0000 C   0  0  0  0  0  0  0  0  0  0  0  0
   -1.1172   -1.3589    0.0000 C   0  0  0  0  0  0  0  0  0  0  0  0
   -5.3859   -0.5419    0.0000 C   0  0  0  0  0  0  0  0  0  0  0  0
    0.7504   -1.7091    0.0000 C   0  0  0  0  0  0  0  0  0  0  0  0
    0.4502   -0.3585    0.0000 C   0  0  0  0  0  0  0  0  0  0  0  0
   -6.1029    0.7420    0.0000 C   0  0  0  0  0  0  0  0  0  0  0  0
  1 19  1  0  0  0  0
  1 20  1  0  0  0  0
 17  2  1  1  0  0  0
  2 28  1  0  0  0  0
 16  3  1  1  0  0  0
  3 30  1  0  0  0  0
 18  4  1  6  0  0  0
  4 31  1  0  0  0  0
 19  5  1  6  0  0  0
  5 34  1  0  0  0  0
  6 24  2  0  0  0  0
  7 23  2  0  0  0  0
  8 25  1  0  0  0  0
  8 37  1  0  0  0  0
  9 28  2  0  0  0  0
 10 35  1  0  0  0  0
 10 36  1  0  0  0  0
 11 30  2  0  0  0  0
 12 31  2  0  0  0  0
 13 37  2  0  0  0  0
 14 23  1  0  0  0  0
 14 24  1  0  0  0  0
 14 29  1  0  0  0  0
 15 28  1  0  0  0  0
 15 40  1  0  0  0  0
 15 41  1  0  0  0  0
 16 17  1  0  0  0  0
 16 18  1  0  0  0  0
 17 19  1  0  0  0  0
 18 20  1  0  0  0  0
 20 25  1  1  0  0  0
 21 22  1  0  0  0  0
 21 23  1  0  0  0  0
 21 27  2  0  0  0  0
 22 24  1  0  0  0  0
 22 26  2  0  0  0  0
 26 32  1  0  0  0  0
 27 33  1  0  0  0  0
 29 35  1  0  0  0  0
 30 38  1  0  0  0  0
 31 39  1  0  0  0  0
 32 33  2  0  0  0  0
 34 36  1  0  0  0  0
 37 42  1  0  0  0  0
M  END
> <PUBCHEM_COMPOUND_ID_TYPE>
0

> <PUBCHEM_TOTAL_CHARGE>
0

> <PUBCHEM_SUBSTANCE_ID>
310948771

> <PUBCHEM_SUBSTANCE_VERSION>
1

> <PUBCHEM_EXT_DATASOURCE_NAME>
4488

> <PUBCHEM_EXT_DATASOURCE_REGID>
SCHEMBL16126955

> <PUBCHEM_SUBSTANCE_COMMENT>
InChI=1S/C27H34N2O13/c1-15(30)38-14-20-21(39-16(2)31)22(40-17(3)32)23(42-27(35)28(4)5)26(41-20)37-13-12-36-11-10-29-24(33)18-8-6-7-9-19(18)25(29)34/h6-9,20-23,26H,10-14H2,1-5H3/t20-,21-,22+,23+,26+/m1/s1
InChIKey=XBIYDJHXQOYPDJ-IOCWQACJSA-N

> <PUBCHEM_SUBSTANCE_SYNONYM>
SCHEMBL16126955

> <PUBCHEM_XREF_EXT_ID>
SCHEMBL16126955

> <PUBCHEM_EXT_DATASOURCE_URL>
https://www.surechembl.org/

> <PUBCHEM_EXT_SUBSTANCE_URL>
https://www.surechembl.org/chemical/SCHEMBL16126955

> <PUBCHEM_CID_ASSOCIATIONS>
117614313  1

> <PUBCHEM_COORDINATE_TYPE>
1
3

> <PUBCHEM_BONDANNOTATIONS>
17  2  5
20  25  5
16  3  5
18  4  6
19  5  6

$$$$
