310931061
  -OEChem-07211613022D

 51 55  0     1  0  0  0  0  0999 V2000
    1.5304   -7.8478    0.0000 Cl  0  0  0  0  0  0  0  0  0  0  0  0
    6.5529   -5.8074    0.0000 S   0  0  0  0  0  0  0  0  0  0  0  0
    5.7289   -4.2771    0.0000 S   0  0  0  0  0  0  0  0  0  0  0  0
    6.5529   -4.1201    0.0000 F   0  0  0  0  0  0  0  0  0  0  0  0
    3.6885   -5.7681    0.0000 F   0  0  0  0  0  0  0  0  0  0  0  0
    0.1177   -7.0238    0.0000 F   0  0  0  0  0  0  0  0  0  0  0  0
    6.1213   -6.5137    0.0000 O   0  0  0  0  0  0  0  0  0  0  0  0
    7.2593   -6.2391    0.0000 O   0  0  0  0  0  0  0  0  0  0  0  0
    3.6885   -4.1201    0.0000 O   0  0  0  0  0  0  0  0  0  0  0  0
   10.3199   -3.7277    0.0000 O   0  0  0  0  0  0  0  0  0  0  0  0
    0.8240   -1.6481    0.0000 O   0  0  0  0  0  0  0  0  0  0  0  0
    9.4959   -2.2759    0.0000 O   0  0  0  0  0  0  0  0  0  0  0  0
    2.2759   -1.6481    0.0000 O   0  0  0  0  0  0  0  0  0  0  0  0
    6.9846   -5.1011    0.0000 N   0  0  0  0  0  0  0  0  0  0  0  0
    6.9061   -3.6100    0.0000 N   0  0  0  0  0  0  0  0  0  0  0  0
    5.5720   -3.4531    0.0000 N   0  0  0  0  0  0  0  0  0  0  0  0
    1.5304   -2.8645    0.0000 N   0  0  0  0  0  0  0  0  0  0  0  0
    5.8466   -5.3758    0.0000 C   0  0  0  0  0  0  0  0  0  0  0  0
    5.8466   -4.5518    0.0000 C   0  0  0  0  0  0  0  0  0  0  0  0
    6.5529   -4.3556    0.0000 C   0  0  0  0  0  0  0  0  0  0  0  0
    5.1403   -5.7681    0.0000 C   0  0  0  0  0  0  0  0  0  0  0  0
    4.4341   -4.5518    0.0000 C   0  0  0  0  0  0  0  0  0  0  0  0
    4.3948   -5.3758    0.0000 C   0  0  0  0  0  0  0  0  0  0  0  0
    7.8086   -5.1011    0.0000 C   0  0  0  0  0  0  0  0  0  0  0  0
    5.1403   -4.1201    0.0000 C   0  0  0  0  0  0  0  0  0  0  0  0
    8.2402   -4.3948    0.0000 C   0  0  0  0  0  0  0  0  0  0  0  0
    2.2759   -4.1201    0.0000 C   0  0  3  0  0  0  0  0  0  0  0  0
    1.5304   -4.5125    0.0000 C   0  0  3  0  0  0  0  0  0  0  0  0
    2.9822   -4.5125    0.0000 C   0  0  0  0  0  0  0  0  0  0  0  0
    1.5304   -5.3366    0.0000 C   0  0  0  0  0  0  0  0  0  0  0  0
    9.0643   -4.3948    0.0000 C   0  0  0  0  0  0  0  0  0  0  0  0
    6.3175   -3.0606    0.0000 C   0  0  0  0  0  0  0  0  0  0  0  0
    2.2759   -3.2961    0.0000 C   0  0  0  0  0  0  0  0  0  0  0  0
    7.8478   -3.6493    0.0000 C   0  0  0  0  0  0  0  0  0  0  0  0
    9.4959   -3.6885    0.0000 C   0  0  0  0  0  0  0  0  0  0  0  0
    0.8240   -4.1201    0.0000 C   0  0  0  0  0  0  0  0  0  0  0  0
    9.0643   -2.9822    0.0000 C   0  0  0  0  0  0  0  0  0  0  0  0
    0.8240   -3.2961    0.0000 C   0  0  0  0  0  0  0  0  0  0  0  0
    8.2402   -2.9822    0.0000 C   0  0  0  0  0  0  0  0  0  0  0  0
    0.8240   -5.7681    0.0000 C   0  0  0  0  0  0  0  0  0  0  0  0
    1.5304   -2.0404    0.0000 C   0  0  0  0  0  0  0  0  0  0  0  0
    2.2759   -5.7681    0.0000 C   0  0  0  0  0  0  0  0  0  0  0  0
    0.8240   -6.5922    0.0000 C   0  0  0  0  0  0  0  0  0  0  0  0
    1.5304   -7.0238    0.0000 C   0  0  0  0  0  0  0  0  0  0  0  0
    2.2759   -6.5922    0.0000 C   0  0  0  0  0  0  0  0  0  0  0  0
    0.8240   -0.8240    0.0000 C   0  0  0  0  0  0  0  0  0  0  0  0
   10.7516   -2.9822    0.0000 C   0  0  0  0  0  0  0  0  0  0  0  0
    9.1035   -1.5304    0.0000 C   0  0  0  0  0  0  0  0  0  0  0  0
    1.6873   -0.8240    0.0000 C   0  0  0  0  0  0  0  0  0  0  0  0
    0.8240    0.0000    0.0000 C   0  0  0  0  0  0  0  0  0  0  0  0
    0.0000   -0.8240    0.0000 C   0  0  0  0  0  0  0  0  0  0  0  0
  1 44  1  0  0  0  0
  2  7  2  0  0  0  0
  2  8  2  0  0  0  0
  2 14  1  0  0  0  0
  2 18  1  0  0  0  0
  3 16  1  0  0  0  0
  3 20  1  0  0  0  0
  4 19  1  0  0  0  0
  5 23  1  0  0  0  0
  6 43  1  0  0  0  0
  9 22  1  0  0  0  0
  9 29  1  0  0  0  0
 10 35  1  0  0  0  0
 10 47  1  0  0  0  0
 11 41  1  0  0  0  0
 11 46  1  0  0  0  0
 12 37  1  0  0  0  0
 12 48  1  0  0  0  0
 13 41  2  0  0  0  0
 14 20  1  0  0  0  0
 14 24  1  0  0  0  0
 15 20  2  0  0  0  0
 15 32  1  0  0  0  0
 16 32  2  0  0  0  0
 17 33  1  0  0  0  0
 17 38  1  0  0  0  0
 17 41  1  0  0  0  0
 18 19  1  0  0  0  0
 18 21  2  0  0  0  0
 19 25  2  0  0  0  0
 21 23  1  0  0  0  0
 22 23  2  0  0  0  0
 22 25  1  0  0  0  0
 24 26  1  0  0  0  0
 26 31  2  0  0  0  0
 26 34  1  0  0  0  0
 27 28  1  0  0  0  0
 27 29  1  6  0  0  0
 27 33  1  0  0  0  0
 28 30  1  0  0  0  0
 28 36  1  1  0  0  0
 30 40  1  0  0  0  0
 30 42  2  0  0  0  0
 31 35  1  0  0  0  0
 34 39  2  0  0  0  0
 35 37  2  0  0  0  0
 36 38  1  0  0  0  0
 37 39  1  0  0  0  0
 40 43  2  0  0  0  0
 42 45  1  0  0  0  0
 43 44  1  0  0  0  0
 44 45  2  0  0  0  0
 46 49  1  0  0  0  0
 46 50  1  0  0  0  0
 46 51  1  0  0  0  0
M  END
> <PUBCHEM_COMPOUND_ID_TYPE>
0

> <PUBCHEM_TOTAL_CHARGE>
0

> <PUBCHEM_SUBSTANCE_ID>
310931061

> <PUBCHEM_SUBSTANCE_VERSION>
1

> <PUBCHEM_EXT_DATASOURCE_NAME>
4488

> <PUBCHEM_EXT_DATASOURCE_REGID>
SCHEMBL16108364

> <PUBCHEM_SUBSTANCE_COMMENT>
InChI=1S/C34H36ClF3N4O7S2/c1-34(2,3)49-33(43)41-11-10-23(21-7-8-24(35)25(36)13-21)22(17-41)18-48-29-14-27(38)31(15-26(29)37)51(44,45)42(32-39-19-40-50-32)16-20-6-9-28(46-4)30(12-20)47-5/h6-9,12-15,19,22-23H,10-11,16-18H2,1-5H3/t22-,23-/m1/s1
InChIKey=HENXDUUGGKCPMR-DHIUTWEWSA-N

> <PUBCHEM_SUBSTANCE_SYNONYM>
SCHEMBL16108364

> <PUBCHEM_XREF_EXT_ID>
SCHEMBL16108364

> <PUBCHEM_EXT_DATASOURCE_URL>
https://www.surechembl.org/

> <PUBCHEM_EXT_SUBSTANCE_URL>
https://www.surechembl.org/chemical/SCHEMBL16108364

> <PUBCHEM_CID_ASSOCIATIONS>
117599968  1

> <PUBCHEM_COORDINATE_TYPE>
1
3

> <PUBCHEM_BONDANNOTATIONS>
27  29  6
28  36  5

$$$$
