310934858
  -OEChem-07211613022D

 16 18  0     0  0  0  0  0  0999 V2000
    0.0000    0.0000    0.0000 F   0  0  0  0  0  0  0  0  0  0  0  0
    4.3110   -1.6983    0.0000 N   0  0  0  0  0  0  0  0  0  0  0  0
    3.5832   -2.9486    0.0000 N   0  0  0  0  0  0  0  0  0  0  0  0
    5.0948   -1.4557    0.0000 N   0  0  0  0  0  0  0  0  0  0  0  0
    0.7278   -1.2504    0.0000 N   0  0  0  0  0  0  0  0  0  0  0  0
    2.8927   -1.6983    0.0000 C   0  0  0  0  0  0  0  0  0  0  0  0
    4.3110   -2.5568    0.0000 C   0  0  0  0  0  0  0  0  0  0  0  0
    2.1648   -1.2690    0.0000 C   0  0  0  0  0  0  0  0  0  0  0  0
    3.5832   -1.2877    0.0000 C   0  0  0  0  0  0  0  0  0  0  0  0
    2.8927   -2.5568    0.0000 C   0  0  0  0  0  0  0  0  0  0  0  0
    5.0948   -2.7807    0.0000 C   0  0  0  0  0  0  0  0  0  0  0  0
    5.5987   -2.1275    0.0000 C   0  0  0  0  0  0  0  0  0  0  0  0
    1.4370   -1.6796    0.0000 C   0  0  0  0  0  0  0  0  0  0  0  0
    2.1462   -0.4479    0.0000 C   0  0  0  0  0  0  0  0  0  0  0  0
    0.7092   -0.4292    0.0000 C   0  0  0  0  0  0  0  0  0  0  0  0
    1.4557   -0.0374    0.0000 C   0  0  0  0  0  0  0  0  0  0  0  0
  1 15  1  0  0  0  0
  2  4  1  0  0  0  0
  2  7  1  0  0  0  0
  2  9  1  0  0  0  0
  3  7  1  0  0  0  0
  3 10  2  0  0  0  0
  4 12  2  0  0  0  0
  5 13  1  0  0  0  0
  5 15  2  0  0  0  0
  6  8  1  0  0  0  0
  6  9  2  0  0  0  0
  6 10  1  0  0  0  0
  7 11  2  0  0  0  0
  8 13  2  0  0  0  0
  8 14  1  0  0  0  0
 11 12  1  0  0  0  0
 14 16  2  0  0  0  0
 15 16  1  0  0  0  0
M  END
> <PUBCHEM_COMPOUND_ID_TYPE>
0

> <PUBCHEM_TOTAL_CHARGE>
0

> <PUBCHEM_SUBSTANCE_ID>
310934858

> <PUBCHEM_SUBSTANCE_VERSION>
1

> <PUBCHEM_EXT_DATASOURCE_NAME>
4488

> <PUBCHEM_EXT_DATASOURCE_REGID>
SCHEMBL16112367

> <PUBCHEM_SUBSTANCE_COMMENT>
InChI=1S/C11H7FN4/c12-10-2-1-8(5-13-10)9-6-14-11-3-4-15-16(11)7-9/h1-7H
InChIKey=RNTRFQROLXADFT-UHFFFAOYSA-N

> <PUBCHEM_SUBSTANCE_SYNONYM>
SCHEMBL16112367

> <PUBCHEM_XREF_EXT_ID>
SCHEMBL16112367

> <PUBCHEM_EXT_DATASOURCE_URL>
https://www.surechembl.org/

> <PUBCHEM_EXT_SUBSTANCE_URL>
https://www.surechembl.org/chemical/SCHEMBL16112367

> <PUBCHEM_CID_ASSOCIATIONS>
117602994  1

> <PUBCHEM_COORDINATE_TYPE>
1
3

$$$$
