310944281
  -OEChem-07211613022D

 26 27  0     1  0  0  0  0  0999 V2000
    3.3595    0.7897    0.0000 O   0  0  0  0  0  0  0  0  0  0  0  0
   -3.8997    1.7594    0.0000 O   0  0  0  0  0  0  0  0  0  0  0  0
    2.9163   -0.5957    0.0000 O   0  0  0  0  0  0  0  0  0  0  0  0
   -2.5560   -1.8564    0.0000 N   0  0  0  0  0  0  0  0  0  0  0  0
   -1.9465   -2.4244    0.0000 N   0  0  0  0  0  0  0  0  0  0  0  0
   -0.0346   -0.7203    0.0000 N   0  0  3  0  0  0  0  0  0  0  0  0
    1.8911    0.3464    0.0000 N   0  0  0  0  0  0  0  0  0  0  0  0
   -2.2096   -1.1083    0.0000 C   0  0  0  0  0  0  0  0  0  0  0  0
   -1.4200   -1.1914    0.0000 C   0  0  0  0  0  0  0  0  0  0  0  0
   -2.6530   -0.3603    0.0000 C   0  0  0  0  0  0  0  0  0  0  0  0
   -1.2261   -1.9811    0.0000 C   0  0  0  0  0  0  0  0  0  0  0  0
   -0.8520   -0.5402    0.0000 C   0  0  0  0  0  0  0  0  0  0  0  0
   -3.4842   -0.3741    0.0000 C   0  0  0  0  0  0  0  0  0  0  0  0
   -2.2511    0.3603    0.0000 C   0  0  0  0  0  0  0  0  0  0  0  0
   -3.4980    1.0529    0.0000 C   0  0  0  0  0  0  0  0  0  0  0  0
   -3.8997    0.3325    0.0000 C   0  0  0  0  0  0  0  0  0  0  0  0
   -2.6530    1.0390    0.0000 C   0  0  0  0  0  0  0  0  0  0  0  0
    2.7222    0.1940    0.0000 C   0  0  0  0  0  0  0  0  0  0  0  0
    0.5195   -0.0831    0.0000 C   0  0  0  0  0  0  0  0  0  0  0  0
    3.1794    1.6070    0.0000 C   0  0  0  0  0  0  0  0  0  0  0  0
    1.3507   -0.2355    0.0000 C   0  0  0  0  0  0  0  0  0  0  0  0
    0.2425   -1.5238    0.0000 C   0  0  0  0  0  0  0  0  0  0  0  0
    1.6001    1.1776    0.0000 C   0  0  0  0  0  0  0  0  0  0  0  0
    3.8997    1.8425    0.0000 C   0  0  0  0  0  0  0  0  0  0  0  0
    2.4174    1.4130    0.0000 C   0  0  0  0  0  0  0  0  0  0  0  0
    2.9438    2.4244    0.0000 C   0  0  0  0  0  0  0  0  0  0  0  0
  1 18  1  0  0  0  0
  1 20  1  0  0  0  0
 15  2  1  1  0  0  0
  3 18  2  0  0  0  0
  4  5  1  0  0  0  0
  4  8  2  0  0  0  0
  5 11  1  0  0  0  0
  6 12  1  0  0  0  0
  6 19  1  0  0  0  0
  6 22  1  0  0  0  0
  7 18  1  0  0  0  0
  7 21  1  0  0  0  0
  7 23  1  0  0  0  0
  8  9  1  0  0  0  0
 10  8  1  1  0  0  0
  9 11  2  0  0  0  0
  9 12  1  0  0  0  0
 10 13  1  0  0  0  0
 10 14  1  0  0  0  0
 13 16  1  0  0  0  0
 14 17  1  0  0  0  0
 15 16  1  0  0  0  0
 15 17  1  0  0  0  0
 19 21  1  0  0  0  0
 20 24  1  0  0  0  0
 20 25  1  0  0  0  0
 20 26  1  0  0  0  0
M  END
> <PUBCHEM_COMPOUND_ID_TYPE>
0

> <PUBCHEM_TOTAL_CHARGE>
0

> <PUBCHEM_SUBSTANCE_ID>
310944281

> <PUBCHEM_SUBSTANCE_VERSION>
1

> <PUBCHEM_EXT_DATASOURCE_NAME>
4488

> <PUBCHEM_EXT_DATASOURCE_REGID>
SCHEMBL16122356

> <PUBCHEM_SUBSTANCE_COMMENT>
InChI=1S/C19H34N4O3/c1-19(2,3)26-18(25)23(5)11-10-22(4)13-15-12-20-21-17(15)14-6-8-16(24)9-7-14/h12,14,16,24H,6-11,13H2,1-5H3,(H,20,21)/t14-,16+
InChIKey=BPNLDCUNVOAQLW-FZNQNYSPSA-N

> <PUBCHEM_SUBSTANCE_SYNONYM>
SCHEMBL16122356

> <PUBCHEM_XREF_EXT_ID>
SCHEMBL16122356

> <PUBCHEM_EXT_DATASOURCE_URL>
https://www.surechembl.org/

> <PUBCHEM_EXT_SUBSTANCE_URL>
https://www.surechembl.org/chemical/SCHEMBL16122356

> <PUBCHEM_CID_ASSOCIATIONS>
90460905  1

> <PUBCHEM_COORDINATE_TYPE>
1
3

> <PUBCHEM_BONDANNOTATIONS>
15  2  5
10  8  5

$$$$
