310933185
  -OEChem-07211613022D

 29 32  0     1  0  0  0  0  0999 V2000
    6.0571   -0.3266    0.0000 O   0  0  0  0  0  0  0  0  0  0  0  0
    8.9075   -2.4644    0.0000 O   0  0  0  0  0  0  0  0  0  0  0  0
    2.6723   -2.7316    0.0000 N   0  0  0  0  0  0  0  0  0  0  0  0
    3.4442   -3.0582    0.0000 N   0  0  0  0  0  0  0  0  0  0  0  0
    4.7804   -1.0095    0.0000 N   0  0  0  0  0  0  0  0  0  0  0  0
    6.0571   -1.7518    0.0000 N   0  0  0  0  0  0  0  0  0  0  0  0
    0.9799   -0.2969    0.0000 N   0  0  0  0  0  0  0  0  0  0  0  0
    7.2744   -1.0392    0.0000 N   0  0  0  0  0  0  0  0  0  0  0  0
    3.5630   -1.7221    0.0000 C   0  0  0  0  0  0  0  0  0  0  0  0
    2.7910   -1.9300    0.0000 C   0  0  0  0  0  0  0  0  0  0  0  0
    4.0084   -2.4644    0.0000 C   0  0  0  0  0  0  0  0  0  0  0  0
    2.1675   -1.3658    0.0000 C   0  0  0  0  0  0  0  0  0  0  0  0
    4.8397   -2.4347    0.0000 C   0  0  0  0  0  0  0  0  0  0  0  0
    4.0084   -1.0095    0.0000 C   0  0  0  0  0  0  0  0  0  0  0  0
    5.2257   -1.7518    0.0000 C   0  0  0  0  0  0  0  0  0  0  0  0
    1.3955   -1.6330    0.0000 C   0  0  0  0  0  0  0  0  0  0  0  0
    2.3457   -0.5938    0.0000 C   0  0  0  0  0  0  0  0  0  0  0  0
    0.8017   -1.0689    0.0000 C   0  0  0  0  0  0  0  0  0  0  0  0
    6.4431   -1.0392    0.0000 C   0  0  0  0  0  0  0  0  0  0  0  0
    1.7518    0.0000    0.0000 C   0  0  0  0  0  0  0  0  0  0  0  0
    7.6901   -1.7518    0.0000 C   0  0  3  0  0  0  0  0  0  0  0  0
    7.2744   -2.4644    0.0000 C   0  0  0  0  0  0  0  0  0  0  0  0
    0.0000   -1.3065    0.0000 C   0  0  0  0  0  0  0  0  0  0  0  0
    7.6901   -3.2067    0.0000 C   0  0  0  0  0  0  0  0  0  0  0  0
    6.4431   -2.4941    0.0000 C   0  0  0  0  0  0  0  0  0  0  0  0
    8.4918   -1.7518    0.0000 C   0  0  0  0  0  0  0  0  0  0  0  0
    7.2744   -3.9193    0.0000 C   0  0  0  0  0  0  0  0  0  0  0  0
    6.0274   -3.1770    0.0000 C   0  0  0  0  0  0  0  0  0  0  0  0
    6.4431   -3.8896    0.0000 C   0  0  0  0  0  0  0  0  0  0  0  0
  1 19  2  0  0  0  0
  2 26  1  0  0  0  0
  3  4  1  0  0  0  0
  3 10  2  0  0  0  0
  4 11  1  0  0  0  0
  5 14  1  0  0  0  0
  5 15  2  0  0  0  0
  6 15  1  0  0  0  0
  6 19  1  0  0  0  0
  7 18  1  0  0  0  0
  7 20  2  0  0  0  0
  8 19  1  0  0  0  0
 21  8  1  6  0  0  0
  9 10  1  0  0  0  0
  9 11  1  0  0  0  0
  9 14  2  0  0  0  0
 10 12  1  0  0  0  0
 11 13  2  0  0  0  0
 12 16  1  0  0  0  0
 12 17  2  0  0  0  0
 13 15  1  0  0  0  0
 16 18  2  0  0  0  0
 17 20  1  0  0  0  0
 18 23  1  0  0  0  0
 21 22  1  0  0  0  0
 21 26  1  0  0  0  0
 22 24  2  0  0  0  0
 22 25  1  0  0  0  0
 24 27  1  0  0  0  0
 25 28  2  0  0  0  0
 27 29  2  0  0  0  0
 28 29  1  0  0  0  0
M  END
> <PUBCHEM_COMPOUND_ID_TYPE>
0

> <PUBCHEM_TOTAL_CHARGE>
0

> <PUBCHEM_SUBSTANCE_ID>
310933185

> <PUBCHEM_SUBSTANCE_VERSION>
1

> <PUBCHEM_EXT_DATASOURCE_NAME>
4488

> <PUBCHEM_EXT_DATASOURCE_REGID>
SCHEMBL16110594

> <PUBCHEM_SUBSTANCE_COMMENT>
InChI=1S/C21H20N6O2/c1-13-9-15(7-8-22-13)20-16-11-23-19(10-17(16)26-27-20)25-21(29)24-18(12-28)14-5-3-2-4-6-14/h2-11,18,28H,12H2,1H3,(H,26,27)(H2,23,24,25,29)/t18-/m1/s1
InChIKey=VZNCWYDRVUCASS-GOSISDBHSA-N

> <PUBCHEM_SUBSTANCE_SYNONYM>
SCHEMBL16110594

> <PUBCHEM_XREF_EXT_ID>
SCHEMBL16110594

> <PUBCHEM_EXT_DATASOURCE_URL>
https://www.surechembl.org/

> <PUBCHEM_EXT_SUBSTANCE_URL>
https://www.surechembl.org/chemical/SCHEMBL16110594

> <PUBCHEM_CID_ASSOCIATIONS>
71555318  1

> <PUBCHEM_COORDINATE_TYPE>
1
3

> <PUBCHEM_BONDANNOTATIONS>
21  8  6

$$$$
