310936980
  -OEChem-07211613022D

 24 26  0     0  0  0  0  0  0999 V2000
    1.0315   -6.9358    0.0000 Cl  0  0  0  0  0  0  0  0  0  0  0  0
    4.1259   -4.8017    0.0000 O   0  0  0  0  0  0  0  0  0  0  0  0
    0.0000    0.0000    0.0000 O   0  0  0  0  0  0  0  0  0  0  0  0
    1.5294   -2.0274    0.0000 N   0  0  0  0  0  0  0  0  0  0  0  0
    3.5569   -3.4857    0.0000 N   0  0  0  0  0  0  0  0  0  0  0  0
    0.9248   -1.4583    0.0000 N   0  0  0  0  0  0  0  0  0  0  0  0
    2.0630   -0.8180    0.0000 N   0  0  0  0  0  0  0  0  0  0  0  0
    3.2012   -6.7579    0.0000 N   0  0  0  0  0  0  0  0  0  0  0  0
    2.7032   -4.6239    0.0000 C   0  0  0  0  0  0  0  0  0  0  0  0
    3.4857   -4.3038    0.0000 C   0  0  0  0  0  0  0  0  0  0  0  0
    2.6320   -5.4419    0.0000 C   0  0  0  0  0  0  0  0  0  0  0  0
    2.1341   -3.3434    0.0000 C   0  0  0  0  0  0  0  0  0  0  0  0
    2.0630   -4.1615    0.0000 C   0  0  0  0  0  0  0  0  0  0  0  0
    1.4583   -2.8455    0.0000 C   0  0  0  0  0  0  0  0  0  0  0  0
    2.8810   -2.9877    0.0000 C   0  0  0  0  0  0  0  0  0  0  0  0
    1.8496   -5.7976    0.0000 C   0  0  0  0  0  0  0  0  0  0  0  0
    3.2723   -5.9755    0.0000 C   0  0  0  0  0  0  0  0  0  0  0  0
    1.2449   -0.7114    0.0000 C   0  0  0  0  0  0  0  0  0  0  0  0
    2.2408   -1.6006    0.0000 C   0  0  0  0  0  0  0  0  0  0  0  0
    1.7429   -6.6157    0.0000 C   0  0  0  0  0  0  0  0  0  0  0  0
    2.4186   -7.1136    0.0000 C   0  0  0  0  0  0  0  0  0  0  0  0
    0.8536    0.0000    0.0000 C   0  0  0  0  0  0  0  0  0  0  0  0
    4.9084   -4.4460    0.0000 C   0  0  0  0  0  0  0  0  0  0  0  0
    4.9796   -3.6279    0.0000 C   0  0  0  0  0  0  0  0  0  0  0  0
  1 20  1  0  0  0  0
  2 10  1  0  0  0  0
  2 23  1  0  0  0  0
  3 22  1  0  0  0  0
  4  6  1  0  0  0  0
  4 14  1  0  0  0  0
  4 19  1  0  0  0  0
  5 10  2  0  0  0  0
  5 15  1  0  0  0  0
  6 18  2  0  0  0  0
  7 18  1  0  0  0  0
  7 19  2  0  0  0  0
  8 17  1  0  0  0  0
  8 21  2  0  0  0  0
  9 10  1  0  0  0  0
  9 11  1  0  0  0  0
  9 13  2  0  0  0  0
 11 16  1  0  0  0  0
 11 17  2  0  0  0  0
 12 13  1  0  0  0  0
 12 14  1  0  0  0  0
 12 15  2  0  0  0  0
 16 20  2  0  0  0  0
 18 22  1  0  0  0  0
 20 21  1  0  0  0  0
 23 24  1  0  0  0  0
M  END
> <PUBCHEM_COMPOUND_ID_TYPE>
0

> <PUBCHEM_TOTAL_CHARGE>
0

> <PUBCHEM_SUBSTANCE_ID>
310936980

> <PUBCHEM_SUBSTANCE_VERSION>
1

> <PUBCHEM_EXT_DATASOURCE_NAME>
4488

> <PUBCHEM_EXT_DATASOURCE_REGID>
SCHEMBL16114683

> <PUBCHEM_SUBSTANCE_COMMENT>
InChI=1S/C16H16ClN5O2/c1-2-24-16-14(12-4-13(17)7-18-6-12)3-11(5-19-16)8-22-10-20-15(9-23)21-22/h3-7,10,23H,2,8-9H2,1H3
InChIKey=UIRNVBHUWLEDMN-UHFFFAOYSA-N

> <PUBCHEM_SUBSTANCE_SYNONYM>
SCHEMBL16114683

> <PUBCHEM_XREF_EXT_ID>
SCHEMBL16114683

> <PUBCHEM_EXT_DATASOURCE_URL>
https://www.surechembl.org/

> <PUBCHEM_EXT_SUBSTANCE_URL>
https://www.surechembl.org/chemical/SCHEMBL16114683

> <PUBCHEM_CID_ASSOCIATIONS>
117604843  1

> <PUBCHEM_COORDINATE_TYPE>
1
3

$$$$
