310939771
  -OEChem-07211613022D

 15 15  0     0  0  0  0  0  0999 V2000
    4.0713    4.7406    0.0000 Cl  0  0  0  0  0  0  0  0  0  0  0  0
    2.6424    5.5656    0.0000 Cl  0  0  0  0  0  0  0  0  0  0  0  0
    1.2134    2.2656    0.0000 O   0  0  0  0  0  0  0  0  0  0  0  0
    0.4990    3.5031    0.0000 N   0  0  0  0  0  0  0  0  0  0  0  0
    2.6424    3.0906    0.0000 C   0  0  0  0  0  0  0  0  0  0  0  0
    1.9279    3.5031    0.0000 C   0  0  0  0  0  0  0  0  0  0  0  0
    2.6424    2.2656    0.0000 C   0  0  0  0  0  0  0  0  0  0  0  0
    3.3568    3.5031    0.0000 C   0  0  0  0  0  0  0  0  0  0  0  0
    3.3568    4.3281    0.0000 C   0  0  0  0  0  0  0  0  0  0  0  0
    2.6424    4.7406    0.0000 C   0  0  0  0  0  0  0  0  0  0  0  0
    1.9279    4.3281    0.0000 C   0  0  0  0  0  0  0  0  0  0  0  0
    1.2134    3.0906    0.0000 C   0  0  0  0  0  0  0  0  0  0  0  0
    3.4674    2.2656    0.0000 C   0  0  0  0  0  0  0  0  0  0  0  0
    1.8174    2.2656    0.0000 C   0  0  0  0  0  0  0  0  0  0  0  0
    2.6424    1.4406    0.0000 C   0  0  0  0  0  0  0  0  0  0  0  0
  1  9  1  0  0  0  0
  2 10  1  0  0  0  0
  3 12  2  0  0  0  0
  4 12  1  0  0  0  0
  5  6  1  0  0  0  0
  5  7  1  0  0  0  0
  5  8  2  0  0  0  0
  6 11  2  0  0  0  0
  6 12  1  0  0  0  0
  7 13  1  0  0  0  0
  7 14  1  0  0  0  0
  7 15  1  0  0  0  0
  8  9  1  0  0  0  0
  9 10  2  0  0  0  0
 10 11  1  0  0  0  0
M  END
> <PUBCHEM_COMPOUND_ID_TYPE>
0

> <PUBCHEM_TOTAL_CHARGE>
0

> <PUBCHEM_SUBSTANCE_ID>
310939771

> <PUBCHEM_SUBSTANCE_VERSION>
1

> <PUBCHEM_EXT_DATASOURCE_NAME>
4488

> <PUBCHEM_EXT_DATASOURCE_REGID>
SCHEMBL16117701

> <PUBCHEM_SUBSTANCE_COMMENT>
InChI=1S/C11H13Cl2NO/c1-11(2,3)7-5-9(13)8(12)4-6(7)10(14)15/h4-5H,1-3H3,(H2,14,15)
InChIKey=CVFAHMHVKFNTMD-UHFFFAOYSA-N

> <PUBCHEM_SUBSTANCE_SYNONYM>
SCHEMBL16117701

> <PUBCHEM_XREF_EXT_ID>
SCHEMBL16117701

> <PUBCHEM_EXT_DATASOURCE_URL>
https://www.surechembl.org/

> <PUBCHEM_EXT_SUBSTANCE_URL>
https://www.surechembl.org/chemical/SCHEMBL16117701

> <PUBCHEM_CID_ASSOCIATIONS>
117606993  1

> <PUBCHEM_COORDINATE_TYPE>
1
3

> <PUBCHEM_BONDANNOTATIONS>
7  13  3
7  14  3

$$$$
