310946561
  -OEChem-07211613022D

 21 23  0     1  0  0  0  0  0999 V2000
   -2.4888   -1.4952    0.0000 O   0  0  0  0  0  0  0  0  0  0  0  0
    1.1144    2.2195    0.0000 O   0  0  0  0  0  0  0  0  0  0  0  0
   -0.3529   -0.2322    0.0000 C   0  0  3  0  0  0  0  0  0  0  0  0
    0.3714    0.1579    0.0000 C   0  0  0  0  0  0  0  0  0  0  0  0
   -0.3529   -1.0865    0.0000 C   0  0  3  0  0  0  0  0  0  0  0  0
    1.0958   -0.2879    0.0000 C   0  0  3  0  0  0  0  0  0  0  0  0
   -1.0773   -1.4952    0.0000 C   0  0  0  0  0  0  0  0  0  0  0  0
   -1.0401    0.1579    0.0000 C   0  0  0  0  0  0  0  0  0  0  0  0
    0.3714   -1.4952    0.0000 C   0  0  0  0  0  0  0  0  0  0  0  0
    1.0773   -1.1237    0.0000 C   0  0  0  0  0  0  0  0  0  0  0  0
   -1.7644   -1.0865    0.0000 C   0  0  0  0  0  0  0  0  0  0  0  0
    0.4086    0.9937    0.0000 C   0  0  0  0  0  0  0  0  0  0  0  0
    1.8016    0.1393    0.0000 C   0  0  0  0  0  0  0  0  0  0  0  0
   -1.7273   -0.2507    0.0000 C   0  0  0  0  0  0  0  0  0  0  0  0
   -0.3343    0.5665    0.0000 C   0  0  0  0  0  0  0  0  0  0  0  0
    1.8016   -0.7151    0.0000 C   0  0  0  0  0  0  0  0  0  0  0  0
    1.0958    1.3652    0.0000 C   0  0  0  0  0  0  0  0  0  0  0  0
    1.8016    0.9751    0.0000 C   0  0  0  0  0  0  0  0  0  0  0  0
   -0.6872   -2.2010    0.0000 C   0  0  0  0  0  0  0  0  0  0  0  0
   -1.5044   -2.2195    0.0000 C   0  0  0  0  0  0  0  0  0  0  0  0
    2.4888   -1.1237    0.0000 C   0  0  0  0  0  0  0  0  0  0  0  0
  1 11  2  0  0  0  0
  2 17  2  0  0  0  0
  3  4  1  0  0  0  0
  3  5  1  0  0  0  0
  3  8  1  0  0  0  0
  3 15  1  1  0  0  0
  4  6  1  0  0  0  0
  4 12  2  0  0  0  0
  5  7  1  0  0  0  0
  5  9  1  0  0  0  0
  6 10  1  0  0  0  0
  6 13  1  0  0  0  0
  6 16  1  1  0  0  0
  7 11  1  0  0  0  0
  7 19  1  0  0  0  0
  7 20  1  0  0  0  0
  8 14  1  0  0  0  0
  9 10  1  0  0  0  0
 11 14  1  0  0  0  0
 12 17  1  0  0  0  0
 13 18  1  0  0  0  0
 16 21  3  0  0  0  0
 17 18  1  0  0  0  0
M  END
> <PUBCHEM_COMPOUND_ID_TYPE>
0

> <PUBCHEM_TOTAL_CHARGE>
0

> <PUBCHEM_SUBSTANCE_ID>
310946561

> <PUBCHEM_SUBSTANCE_VERSION>
1

> <PUBCHEM_EXT_DATASOURCE_NAME>
4488

> <PUBCHEM_EXT_DATASOURCE_REGID>
SCHEMBL16124682

> <PUBCHEM_SUBSTANCE_COMMENT>
InChI=1S/C19H24O2/c1-5-19-10-6-13(20)12-15(19)18(4)9-8-16(21)17(2,3)14(18)7-11-19/h1,12,14H,6-11H2,2-4H3/t14?,18-,19+/m0/s1
InChIKey=RYCKKVSJKKEGFF-GGUZCGDUSA-N

> <PUBCHEM_SUBSTANCE_SYNONYM>
SCHEMBL16124682

> <PUBCHEM_XREF_EXT_ID>
SCHEMBL16124682

> <PUBCHEM_EXT_DATASOURCE_URL>
https://www.surechembl.org/

> <PUBCHEM_EXT_SUBSTANCE_URL>
https://www.surechembl.org/chemical/SCHEMBL16124682

> <PUBCHEM_CID_ASSOCIATIONS>
117612463  1

> <PUBCHEM_COORDINATE_TYPE>
1
3

> <PUBCHEM_BONDANNOTATIONS>
3  15  5
6  16  5

$$$$
