310943381
  -OEChem-07211613022D

 17 17  0     0  0  0  0  0  0999 V2000
    1.8148    1.8774    0.0000 F   0  0  0  0  0  0  0  0  0  0  0  0
    2.5300    1.4661    0.0000 F   0  0  0  0  0  0  0  0  0  0  0  0
    2.5300    0.6437    0.0000 F   0  0  0  0  0  0  0  0  0  0  0  0
    1.8148   -0.6079    0.0000 O   0  0  0  0  0  0  0  0  0  0  0  0
   -1.8148    0.6437    0.0000 O   0  0  0  0  0  0  0  0  0  0  0  0
   -1.0818    1.8774    0.0000 O   0  0  0  0  0  0  0  0  0  0  0  0
    0.3666   -0.6079    0.0000 N   0  0  0  0  0  0  0  0  0  0  0  0
    1.0996    0.6437    0.0000 C   0  0  0  0  0  0  0  0  0  0  0  0
    1.0639   -0.1788    0.0000 C   0  0  0  0  0  0  0  0  0  0  0  0
    1.8148    1.0549    0.0000 C   0  0  0  0  0  0  0  0  0  0  0  0
   -0.3487    0.6616    0.0000 C   0  0  0  0  0  0  0  0  0  0  0  0
    0.3845    1.0549    0.0000 C   0  0  0  0  0  0  0  0  0  0  0  0
   -0.3487   -0.1967    0.0000 C   0  0  0  0  0  0  0  0  0  0  0  0
   -1.0818    1.0370    0.0000 C   0  0  0  0  0  0  0  0  0  0  0  0
    0.3666   -1.4304    0.0000 C   0  0  0  0  0  0  0  0  0  0  0  0
    1.0996   -1.8774    0.0000 C   0  0  0  0  0  0  0  0  0  0  0  0
   -2.5300    1.0370    0.0000 C   0  0  0  0  0  0  0  0  0  0  0  0
  1 10  1  0  0  0  0
  2 10  1  0  0  0  0
  3 10  1  0  0  0  0
  4  9  2  0  0  0  0
  5 14  1  0  0  0  0
  5 17  1  0  0  0  0
  6 14  2  0  0  0  0
  7  9  1  0  0  0  0
  7 13  1  0  0  0  0
  7 15  1  0  0  0  0
  8  9  1  0  0  0  0
  8 10  1  0  0  0  0
  8 12  2  0  0  0  0
 11 12  1  0  0  0  0
 11 13  2  0  0  0  0
 11 14  1  0  0  0  0
 15 16  1  0  0  0  0
M  END
> <PUBCHEM_COMPOUND_ID_TYPE>
0

> <PUBCHEM_TOTAL_CHARGE>
0

> <PUBCHEM_SUBSTANCE_ID>
310943381

> <PUBCHEM_SUBSTANCE_VERSION>
1

> <PUBCHEM_EXT_DATASOURCE_NAME>
4488

> <PUBCHEM_EXT_DATASOURCE_REGID>
SCHEMBL16121444

> <PUBCHEM_SUBSTANCE_COMMENT>
InChI=1S/C10H10F3NO3/c1-3-14-5-6(9(16)17-2)4-7(8(14)15)10(11,12)13/h4-5H,3H2,1-2H3
InChIKey=PAQTWTFBFZHJTI-UHFFFAOYSA-N

> <PUBCHEM_SUBSTANCE_SYNONYM>
SCHEMBL16121444

> <PUBCHEM_XREF_EXT_ID>
SCHEMBL16121444

> <PUBCHEM_EXT_DATASOURCE_URL>
https://www.surechembl.org/

> <PUBCHEM_EXT_SUBSTANCE_URL>
https://www.surechembl.org/chemical/SCHEMBL16121444

> <PUBCHEM_CID_ASSOCIATIONS>
117609805  1

> <PUBCHEM_COORDINATE_TYPE>
1
3

$$$$
