310941061
  -OEChem-07211613022D

 42 45  0     1  0  0  0  0  0999 V2000
    5.2137   -1.4281    0.0000 O   0  0  0  0  0  0  0  0  0  0  0  0
    4.0803    0.5365    0.0000 O   0  0  0  0  0  0  0  0  0  0  0  0
    1.6926   -1.4130    0.0000 O   0  0  0  0  0  0  0  0  0  0  0  0
   -0.4685    0.6725    0.0000 O   0  0  0  0  0  0  0  0  0  0  0  0
    3.8537    2.3348    0.0000 O   0  0  0  0  0  0  0  0  0  0  0  0
    2.4180    3.1660    0.0000 O   0  0  0  0  0  0  0  0  0  0  0  0
   -2.6295   -1.4130    0.0000 O   0  0  0  0  0  0  0  0  0  0  0  0
   -5.5160    1.0805    0.0000 O   0  0  0  0  0  0  0  0  0  0  0  0
    2.4180   -0.1587    0.0000 N   0  0  0  0  0  0  0  0  0  0  0  0
    0.2569   -0.5818    0.0000 N   0  0  0  0  0  0  0  0  0  0  0  0
   -1.9041   -0.1587    0.0000 N   0  0  0  0  0  0  0  0  0  0  0  0
    4.8057   -0.6876    0.0000 C   0  0  3  0  0  0  0  0  0  0  0  0
    4.0803   -0.3098    0.0000 C   0  0  0  0  0  0  0  0  0  0  0  0
    4.3977   -1.3828    0.0000 C   0  0  0  0  0  0  0  0  0  0  0  0
    3.3700   -0.6725    0.0000 C   0  0  3  0  0  0  0  0  0  0  0  0
    5.5160   -0.2645    0.0000 C   0  0  0  0  0  0  0  0  0  0  0  0
    3.3851   -1.7757    0.0000 C   0  0  0  0  0  0  0  0  0  0  0  0
    1.7077   -0.5365    0.0000 C   0  0  0  0  0  0  0  0  0  0  0  0
    0.9823   -0.1436    0.0000 C   0  0  3  0  0  0  0  0  0  0  0  0
    2.6446   -2.1686    0.0000 C   0  0  0  0  0  0  0  0  0  0  0  0
    0.9974    0.6876    0.0000 C   0  0  0  0  0  0  0  0  0  0  0  0
    1.7077    1.1108    0.0000 C   0  0  0  0  0  0  0  0  0  0  0  0
   -0.4534   -0.1587    0.0000 C   0  0  0  0  0  0  0  0  0  0  0  0
    2.5389   -2.9998    0.0000 C   0  0  0  0  0  0  0  0  0  0  0  0
    1.8890   -1.8513    0.0000 C   0  0  0  0  0  0  0  0  0  0  0  0
    1.7228    1.9419    0.0000 C   0  0  0  0  0  0  0  0  0  0  0  0
    2.4331    2.3499    0.0000 C   0  0  0  0  0  0  0  0  0  0  0  0
   -1.1636   -0.5516    0.0000 C   0  0  3  0  0  0  0  0  0  0  0  0
    3.1434    1.9419    0.0000 C   0  0  0  0  0  0  0  0  0  0  0  0
    2.4331    0.7027    0.0000 C   0  0  0  0  0  0  0  0  0  0  0  0
    3.1434    1.1108    0.0000 C   0  0  0  0  0  0  0  0  0  0  0  0
   -2.5540   -0.5516    0.0000 C   0  0  0  0  0  0  0  0  0  0  0  0
    1.7379   -3.1660    0.0000 C   0  0  0  0  0  0  0  0  0  0  0  0
    1.3450   -2.4709    0.0000 C   0  0  0  0  0  0  0  0  0  0  0  0
   -3.3398   -0.1436    0.0000 C   0  0  0  0  0  0  0  0  0  0  0  0
   -3.3398    0.6876    0.0000 C   0  0  0  0  0  0  0  0  0  0  0  0
   -4.0501   -0.5516    0.0000 C   0  0  0  0  0  0  0  0  0  0  0  0
   -1.1787   -1.3979    0.0000 C   0  0  0  0  0  0  0  0  0  0  0  0
   -4.7604    0.6876    0.0000 C   0  0  0  0  0  0  0  0  0  0  0  0
   -4.7604   -0.1436    0.0000 C   0  0  0  0  0  0  0  0  0  0  0  0
   -4.0652    1.0805    0.0000 C   0  0  0  0  0  0  0  0  0  0  0  0
    4.6093    1.9117    0.0000 C   0  0  0  0  0  0  0  0  0  0  0  0
  1 12  1  0  0  0  0
  1 14  1  0  0  0  0
  2 13  2  0  0  0  0
  3 18  2  0  0  0  0
  4 23  2  0  0  0  0
  5 29  1  0  0  0  0
  5 42  1  0  0  0  0
  6 27  1  0  0  0  0
  7 32  2  0  0  0  0
 39  8  1  1  0  0  0
 15  9  1  6  0  0  0
  9 18  1  0  0  0  0
 19 10  1  1  0  0  0
 10 23  1  0  0  0  0
 11 28  1  0  0  0  0
 11 32  1  0  0  0  0
 12 13  1  6  0  0  0
 12 14  1  0  0  0  0
 12 16  1  1  0  0  0
 13 15  1  0  0  0  0
 15 17  1  0  0  0  0
 17 20  1  0  0  0  0
 18 19  1  0  0  0  0
 19 21  1  0  0  0  0
 20 24  2  0  0  0  0
 20 25  1  0  0  0  0
 21 22  1  0  0  0  0
 22 26  1  0  0  0  0
 22 30  2  0  0  0  0
 23 28  1  0  0  0  0
 24 33  1  0  0  0  0
 25 34  1  0  0  0  0
 26 27  2  0  0  0  0
 27 29  1  0  0  0  0
 28 38  1  1  0  0  0
 29 31  2  0  0  0  0
 30 31  1  0  0  0  0
 35 32  1  6  0  0  0
 33 34  1  0  0  0  0
 35 36  1  0  0  0  0
 35 37  1  0  0  0  0
 36 41  1  0  0  0  0
 37 40  1  0  0  0  0
 39 40  1  0  0  0  0
 39 41  1  0  0  0  0
M  END
> <PUBCHEM_COMPOUND_ID_TYPE>
0

> <PUBCHEM_TOTAL_CHARGE>
0

> <PUBCHEM_SUBSTANCE_ID>
310941061

> <PUBCHEM_SUBSTANCE_VERSION>
1

> <PUBCHEM_EXT_DATASOURCE_NAME>
4488

> <PUBCHEM_EXT_DATASOURCE_REGID>
SCHEMBL16119021

> <PUBCHEM_SUBSTANCE_COMMENT>
InChI=1S/C31H43N3O8/c1-18(32-29(39)21-9-11-22(35)12-10-21)28(38)34-24(15-20-8-13-26(41-3)25(36)16-20)30(40)33-23(14-19-6-4-5-7-19)27(37)31(2)17-42-31/h6,8,13,16,18,21-24,35-36H,4-5,7,9-12,14-15,17H2,1-3H3,(H,32,39)(H,33,40)(H,34,38)/t18-,21-,22-,23+,24+,31-/m1/s1
InChIKey=RVHYWZNAZFBRDL-FJMOJAGLSA-N

> <PUBCHEM_SUBSTANCE_SYNONYM>
SCHEMBL16119021

> <PUBCHEM_XREF_EXT_ID>
SCHEMBL16119021

> <PUBCHEM_EXT_DATASOURCE_URL>
https://www.surechembl.org/

> <PUBCHEM_EXT_SUBSTANCE_URL>
https://www.surechembl.org/chemical/SCHEMBL16119021

> <PUBCHEM_CID_ASSOCIATIONS>
117607953  1

> <PUBCHEM_COORDINATE_TYPE>
1
3

> <PUBCHEM_BONDANNOTATIONS>
19  10  5
12  13  6
12  16  5
28  38  5
35  32  6
39  8  5
15  9  6

$$$$
