310936524
  -OEChem-07211613022D

 14 13  0     0  0  0  0  0  0999 V2000
    1.4374   -2.0698    0.0000 O   0  0  0  0  0  0  0  0  0  0  0  0
    4.3121   -2.0698    0.0000 O   0  0  0  0  0  0  0  0  0  0  0  0
    0.7283    0.0000    0.0000 O   0  0  0  0  0  0  0  0  0  0  0  0
    5.7495   -1.2457    0.0000 O   0  0  0  0  0  0  0  0  0  0  0  0
    0.0000   -1.2457    0.0000 O   0  0  0  0  0  0  0  0  0  0  0  0
    5.0404    0.0000    0.0000 O   0  0  0  0  0  0  0  0  0  0  0  0
    2.8747   -1.2457    0.0000 C   0  0  0  0  0  0  0  0  0  0  0  0
    1.4374   -1.2457    0.0000 C   0  0  0  0  0  0  0  0  0  0  0  0
    4.3121   -1.2457    0.0000 C   0  0  0  0  0  0  0  0  0  0  0  0
    2.1465   -0.8241    0.0000 C   0  0  0  0  0  0  0  0  0  0  0  0
    3.6030   -0.8241    0.0000 C   0  0  0  0  0  0  0  0  0  0  0  0
    0.7283   -0.8241    0.0000 C   0  0  0  0  0  0  0  0  0  0  0  0
    5.0404   -0.8241    0.0000 C   0  0  0  0  0  0  0  0  0  0  0  0
    2.8747   -2.0698    0.0000 C   0  0  0  0  0  0  0  0  0  0  0  0
  1  8  2  0  0  0  0
  2  9  2  0  0  0  0
  3 12  2  0  0  0  0
  4 13  2  0  0  0  0
  5 12  1  0  0  0  0
  6 13  1  0  0  0  0
  7 10  1  0  0  0  0
  7 11  1  0  0  0  0
  7 14  1  0  0  0  0
  8 10  1  0  0  0  0
  8 12  1  0  0  0  0
  9 11  1  0  0  0  0
  9 13  1  0  0  0  0
M  END
> <PUBCHEM_COMPOUND_ID_TYPE>
0

> <PUBCHEM_TOTAL_CHARGE>
0

> <PUBCHEM_SUBSTANCE_ID>
310936524

> <PUBCHEM_SUBSTANCE_VERSION>
1

> <PUBCHEM_EXT_DATASOURCE_NAME>
4488

> <PUBCHEM_EXT_DATASOURCE_REGID>
SCHEMBL16114175

> <PUBCHEM_SUBSTANCE_COMMENT>
InChI=1S/C8H10O6/c1-4(2-5(9)7(11)12)3-6(10)8(13)14/h4H,2-3H2,1H3,(H,11,12)(H,13,14)
InChIKey=JXLXOJWKJCUFLB-UHFFFAOYSA-N

> <PUBCHEM_SUBSTANCE_SYNONYM>
SCHEMBL16114175

> <PUBCHEM_XREF_EXT_ID>
SCHEMBL16114175

> <PUBCHEM_EXT_DATASOURCE_URL>
https://www.surechembl.org/

> <PUBCHEM_EXT_SUBSTANCE_URL>
https://www.surechembl.org/chemical/SCHEMBL16114175

> <PUBCHEM_CID_ASSOCIATIONS>
117604451  1

> <PUBCHEM_COORDINATE_TYPE>
1
3

$$$$
