310948383
  -OEChem-07211613022D

 33 35  0     1  0  0  0  0  0999 V2000
   -0.8031   -2.7325    0.0000 S   0  0  0  0  0  0  0  0  0  0  0  0
   -2.7601    1.9017    0.0000 O   0  0  0  0  0  0  0  0  0  0  0  0
   -0.5631   -3.5263    0.0000 O   0  0  0  0  0  0  0  0  0  0  0  0
   -1.5786   -2.9724    0.0000 O   0  0  0  0  0  0  0  0  0  0  0  0
    2.0217   -3.0648    0.0000 O   0  0  0  0  0  0  0  0  0  0  0  0
   -1.7447    0.4431    0.0000 N   0  0  0  0  0  0  0  0  0  0  0  0
   -0.0092    1.6985    0.0000 N   0  0  0  0  0  0  0  0  0  0  0  0
   -2.0217    3.1386    0.0000 N   0  0  0  0  0  0  0  0  0  0  0  0
   -0.0092   -2.4924    0.0000 N   0  0  0  0  0  0  0  0  0  0  0  0
   -0.3600    0.9416    0.0000 N   0  0  0  0  0  0  0  0  0  0  0  0
    0.8585   -0.3508    0.0000 N   0  0  0  0  0  0  0  0  0  0  0  0
   -1.3200    1.8832    0.0000 C   0  0  0  0  0  0  0  0  0  0  0  0
   -0.6185    2.2709    0.0000 C   0  0  0  0  0  0  0  0  0  0  0  0
   -1.1724    1.0708    0.0000 C   0  0  0  0  0  0  0  0  0  0  0  0
   -2.0401    2.3078    0.0000 C   0  0  0  0  0  0  0  0  0  0  0  0
   -1.0247   -1.9385    0.0000 C   0  0  0  0  0  0  0  0  0  0  0  0
   -1.5047   -0.3323    0.0000 C   0  0  0  0  0  0  0  0  0  0  0  0
    0.8031    1.8647    0.0000 C   0  0  3  0  0  0  0  0  0  0  0  0
   -0.6000    3.1017    0.0000 C   0  0  0  0  0  0  0  0  0  0  0  0
   -1.8185   -1.7170    0.0000 C   0  0  0  0  0  0  0  0  0  0  0  0
   -0.4523   -1.3108    0.0000 C   0  0  0  0  0  0  0  0  0  0  0  0
   -2.0401   -0.9231    0.0000 C   0  0  0  0  0  0  0  0  0  0  0  0
   -0.6924   -0.5354    0.0000 C   0  0  0  0  0  0  0  0  0  0  0  0
    1.3754    1.2370    0.0000 C   0  0  3  0  0  0  0  0  0  0  0  0
   -1.3200    3.5263    0.0000 C   0  0  0  0  0  0  0  0  0  0  0  0
    1.0801    2.6401    0.0000 C   0  0  0  0  0  0  0  0  0  0  0  0
    2.1508    1.4032    0.0000 C   0  0  0  0  0  0  0  0  0  0  0  0
    0.6185   -3.0463    0.0000 C   0  0  0  0  0  0  0  0  0  0  0  0
    1.0985    0.4246    0.0000 C   0  0  0  0  0  0  0  0  0  0  0  0
    1.9109    2.7878    0.0000 C   0  0  0  0  0  0  0  0  0  0  0  0
    2.4278    2.1601    0.0000 C   0  0  0  0  0  0  0  0  0  0  0  0
    1.2831   -2.6586    0.0000 C   0  0  0  0  0  0  0  0  0  0  0  0
    2.7601   -2.6401    0.0000 C   0  0  0  0  0  0  0  0  0  0  0  0
  1  3  2  0  0  0  0
  1  4  2  0  0  0  0
  1  9  1  0  0  0  0
  1 16  1  0  0  0  0
  2 15  2  0  0  0  0
  5 32  1  0  0  0  0
  5 33  1  0  0  0  0
  6 14  1  0  0  0  0
  6 17  1  0  0  0  0
  7 13  1  0  0  0  0
 18  7  1  1  0  0  0
  8 15  1  0  0  0  0
  8 25  1  0  0  0  0
  9 28  1  0  0  0  0
 10 14  2  3  0  0  0
 11 29  3  0  0  0  0
 12 13  2  0  0  0  0
 12 14  1  0  0  0  0
 12 15  1  0  0  0  0
 13 19  1  0  0  0  0
 16 20  2  0  0  0  0
 16 21  1  0  0  0  0
 17 22  2  0  0  0  0
 17 23  1  0  0  0  0
 18 24  1  0  0  0  0
 18 26  1  0  0  0  0
 19 25  2  0  0  0  0
 20 22  1  0  0  0  0
 21 23  2  0  0  0  0
 24 27  1  0  0  0  0
 24 29  1  6  0  0  0
 26 30  1  0  0  0  0
 27 31  1  0  0  0  0
 28 32  1  0  0  0  0
 30 31  1  0  0  0  0
M  END
> <PUBCHEM_COMPOUND_ID_TYPE>
0

> <PUBCHEM_TOTAL_CHARGE>
0

> <PUBCHEM_SUBSTANCE_ID>
310948383

> <PUBCHEM_SUBSTANCE_VERSION>
1

> <PUBCHEM_EXT_DATASOURCE_NAME>
4488

> <PUBCHEM_EXT_DATASOURCE_REGID>
SCHEMBL16126564

> <PUBCHEM_SUBSTANCE_COMMENT>
InChI=1S/C22H28N6O4S/c1-32-13-12-26-33(30,31)17-8-6-16(7-9-17)27-21(24)20-19(10-11-25-22(20)29)28-18-5-3-2-4-15(18)14-23/h6-11,15,18,26H,2-5,12-13H2,1H3,(H2,24,27)(H2,25,28,29)/t15-,18+/m1/s1
InChIKey=UFXFZVCIVGLLMY-QAPCUYQASA-N

> <PUBCHEM_SUBSTANCE_SYNONYM>
SCHEMBL16126564

> <PUBCHEM_XREF_EXT_ID>
SCHEMBL16126564

> <PUBCHEM_EXT_DATASOURCE_URL>
https://www.surechembl.org/

> <PUBCHEM_EXT_SUBSTANCE_URL>
https://www.surechembl.org/chemical/SCHEMBL16126564

> <PUBCHEM_CID_ASSOCIATIONS>
117613945  1

> <PUBCHEM_COORDINATE_TYPE>
1
3

> <PUBCHEM_BONDANNOTATIONS>
24  29  6
18  7  5

$$$$
