310946191
  -OEChem-07211613022D

 10  9  0     0  0  0  0  0  0999 V2000
    6.7944    0.4400    0.0000 O   0  0  0  0  0  0  0  0  0  0  0  0
    7.5089   -0.7975    0.0000 O   0  0  0  0  0  0  0  0  0  0  0  0
    3.2221   -0.7975    0.0000 O   0  0  0  0  0  0  0  0  0  0  0  0
    7.5089    0.0275    0.0000 C   0  0  0  0  0  0  0  0  0  0  0  0
    6.0800    0.0275    0.0000 C   0  0  0  0  0  0  0  0  0  0  0  0
    5.3655    0.4400    0.0000 C   0  0  0  0  0  0  0  0  0  0  0  0
    4.6510    0.0275    0.0000 C   0  0  0  0  0  0  0  0  0  0  0  0
    8.2234    0.4400    0.0000 C   0  0  0  0  0  0  0  0  0  0  0  0
    3.9366    0.4400    0.0000 C   0  0  0  0  0  0  0  0  0  0  0  0
    3.2221    0.0275    0.0000 C   0  0  0  0  0  0  0  0  0  0  0  0
  1  4  1  0  0  0  0
  1  5  1  0  0  0  0
  2  4  2  0  0  0  0
  3 10  2  0  0  0  0
  4  8  1  0  0  0  0
  5  6  1  0  0  0  0
  6  7  2  0  0  0  0
  7  9  1  0  0  0  0
  9 10  1  0  0  0  0
M  END
> <PUBCHEM_COMPOUND_ID_TYPE>
0

> <PUBCHEM_TOTAL_CHARGE>
0

> <PUBCHEM_SUBSTANCE_ID>
310946191

> <PUBCHEM_SUBSTANCE_VERSION>
1

> <PUBCHEM_EXT_DATASOURCE_NAME>
4488

> <PUBCHEM_EXT_DATASOURCE_REGID>
SCHEMBL16124303

> <PUBCHEM_SUBSTANCE_COMMENT>
InChI=1S/C7H10O3/c1-7(9)10-6-4-2-3-5-8/h2,4-5H,3,6H2,1H3/b4-2+
InChIKey=YBYIAXXVOZWMFI-DUXPYHPUSA-N

> <PUBCHEM_SUBSTANCE_SYNONYM>
SCHEMBL16124303

> <PUBCHEM_XREF_EXT_ID>
SCHEMBL16124303

> <PUBCHEM_EXT_DATASOURCE_URL>
https://www.surechembl.org/

> <PUBCHEM_EXT_SUBSTANCE_URL>
https://www.surechembl.org/chemical/SCHEMBL16124303

> <PUBCHEM_CID_ASSOCIATIONS>
117612143  1

> <PUBCHEM_COORDINATE_TYPE>
1
3

$$$$
