310949935
  -OEChem-07211613022D

 21 23  0     0  0  0  0  0  0999 V2000
    3.6070   -0.0070    0.0000 O   0  0  0  0  0  0  0  0  0  0  0  0
    0.7242   -0.8227    0.0000 N   0  0  0  0  0  0  0  0  0  0  0  0
   -1.4414    0.4148    0.0000 N   0  0  0  0  0  0  0  0  0  0  0  0
   -2.8899    1.2305    0.0000 N   0  0  0  0  0  0  0  0  0  0  0  0
   -0.7101    0.0070    0.0000 C   0  0  0  0  0  0  0  0  0  0  0  0
   -2.1585    0.0070    0.0000 C   0  0  0  0  0  0  0  0  0  0  0  0
   -2.8899    0.4148    0.0000 C   0  0  0  0  0  0  0  0  0  0  0  0
   -0.7242   -0.8227    0.0000 C   0  0  0  0  0  0  0  0  0  0  0  0
   -0.0070    0.4148    0.0000 C   0  0  0  0  0  0  0  0  0  0  0  0
    0.7242   -0.0070    0.0000 C   0  0  0  0  0  0  0  0  0  0  0  0
    0.0070   -1.2305    0.0000 C   0  0  0  0  0  0  0  0  0  0  0  0
    1.4555   -1.2305    0.0000 C   0  0  0  0  0  0  0  0  0  0  0  0
    2.1585   -0.8087    0.0000 C   0  0  0  0  0  0  0  0  0  0  0  0
   -2.1726   -0.8227    0.0000 C   0  0  0  0  0  0  0  0  0  0  0  0
   -3.6070    0.0070    0.0000 C   0  0  0  0  0  0  0  0  0  0  0  0
    2.1726    0.0070    0.0000 C   0  0  0  0  0  0  0  0  0  0  0  0
    2.9040   -1.2305    0.0000 C   0  0  0  0  0  0  0  0  0  0  0  0
   -2.8759   -1.2305    0.0000 C   0  0  0  0  0  0  0  0  0  0  0  0
   -3.6070   -0.8087    0.0000 C   0  0  0  0  0  0  0  0  0  0  0  0
    2.8759    0.4148    0.0000 C   0  0  0  0  0  0  0  0  0  0  0  0
    3.6070   -0.8227    0.0000 C   0  0  0  0  0  0  0  0  0  0  0  0
  1 20  1  0  0  0  0
  1 21  1  0  0  0  0
  2 10  1  0  0  0  0
  2 11  1  0  0  0  0
  2 12  1  0  0  0  0
  3  5  1  0  0  0  0
  3  6  1  0  0  0  0
  4  7  1  0  0  0  0
  5  8  1  0  0  0  0
  5  9  1  0  0  0  0
  6  7  2  0  0  0  0
  6 14  1  0  0  0  0
  7 15  1  0  0  0  0
  8 11  1  0  0  0  0
  9 10  1  0  0  0  0
 12 13  1  0  0  0  0
 13 16  1  0  0  0  0
 13 17  1  0  0  0  0
 14 18  2  0  0  0  0
 15 19  2  0  0  0  0
 16 20  1  0  0  0  0
 17 21  1  0  0  0  0
 18 19  1  0  0  0  0
M  END
> <PUBCHEM_COMPOUND_ID_TYPE>
0

> <PUBCHEM_TOTAL_CHARGE>
0

> <PUBCHEM_SUBSTANCE_ID>
310949935

> <PUBCHEM_SUBSTANCE_VERSION>
1

> <PUBCHEM_EXT_DATASOURCE_NAME>
4488

> <PUBCHEM_EXT_DATASOURCE_REGID>
SCHEMBL16128162

> <PUBCHEM_SUBSTANCE_COMMENT>
InChI=1S/C17H27N3O/c18-16-3-1-2-4-17(16)19-15-5-9-20(10-6-15)13-14-7-11-21-12-8-14/h1-4,14-15,19H,5-13,18H2
InChIKey=IJHPYPBFKWETRB-UHFFFAOYSA-N

> <PUBCHEM_SUBSTANCE_SYNONYM>
SCHEMBL16128162

> <PUBCHEM_XREF_EXT_ID>
SCHEMBL16128162

> <PUBCHEM_EXT_DATASOURCE_URL>
https://www.surechembl.org/

> <PUBCHEM_EXT_SUBSTANCE_URL>
https://www.surechembl.org/chemical/SCHEMBL16128162

> <PUBCHEM_CID_ASSOCIATIONS>
117615199  1

> <PUBCHEM_COORDINATE_TYPE>
1
3

$$$$
