310949306
  -OEChem-07211613022D

 26 29  0     0  0  0  0  0  0999 V2000
    1.3317    3.1073    0.0000 S   0  0  0  0  0  0  0  0  0  0  0  0
   -2.1270    2.5894    0.0000 F   0  0  0  0  0  0  0  0  0  0  0  0
    0.6104    3.5512    0.0000 O   0  0  0  0  0  0  0  0  0  0  0  0
    1.5167    3.9211    0.0000 O   0  0  0  0  0  0  0  0  0  0  0  0
    1.3132   -2.6819    0.0000 O   0  0  0  0  0  0  0  0  0  0  0  0
    0.1850   -3.9211    0.0000 O   0  0  0  0  0  0  0  0  0  0  0  0
    0.8323    1.0912    0.0000 N   0  0  0  0  0  0  0  0  0  0  0  0
   -0.0740   -3.1258    0.0000 N   0  0  0  0  0  0  0  0  0  0  0  0
    0.8323    2.4600    0.0000 C   0  0  0  0  0  0  0  0  0  0  0  0
    1.3317    1.7941    0.0000 C   0  0  0  0  0  0  0  0  0  0  0  0
    0.0555    2.2010    0.0000 C   0  0  0  0  0  0  0  0  0  0  0  0
    0.0370    1.3872    0.0000 C   0  0  0  0  0  0  0  0  0  0  0  0
    2.1085    2.0345    0.0000 C   0  0  0  0  0  0  0  0  0  0  0  0
    2.1270    2.8669    0.0000 C   0  0  0  0  0  0  0  0  0  0  0  0
   -0.6843    2.5894    0.0000 C   0  0  0  0  0  0  0  0  0  0  0  0
    1.0912    0.3330    0.0000 C   0  0  0  0  0  0  0  0  0  0  0  0
   -0.6843    0.9618    0.0000 C   0  0  0  0  0  0  0  0  0  0  0  0
   -1.4057    2.2010    0.0000 C   0  0  0  0  0  0  0  0  0  0  0  0
   -1.3872    1.3687    0.0000 C   0  0  0  0  0  0  0  0  0  0  0  0
    0.5364   -0.3145    0.0000 C   0  0  0  0  0  0  0  0  0  0  0  0
    0.7768   -1.0912    0.0000 C   0  0  0  0  0  0  0  0  0  0  0  0
   -0.2775   -0.1294    0.0000 C   0  0  0  0  0  0  0  0  0  0  0  0
    0.2219   -1.7017    0.0000 C   0  0  0  0  0  0  0  0  0  0  0  0
   -0.8138   -0.7213    0.0000 C   0  0  0  0  0  0  0  0  0  0  0  0
   -0.5734   -1.5167    0.0000 C   0  0  0  0  0  0  0  0  0  0  0  0
    0.4624   -2.4600    0.0000 C   0  0  0  0  0  0  0  0  0  0  0  0
  1  3  2  0  0  0  0
  1  4  2  0  0  0  0
  1  9  1  0  0  0  0
  1 14  1  0  0  0  0
  2 18  1  0  0  0  0
  5 26  2  0  0  0  0
  6  8  1  0  0  0  0
  7 10  1  0  0  0  0
  7 12  1  0  0  0  0
  7 16  1  0  0  0  0
  8 26  1  0  0  0  0
  9 10  2  0  0  0  0
  9 11  1  0  0  0  0
 10 13  1  0  0  0  0
 11 12  1  0  0  0  0
 11 15  2  0  0  0  0
 12 17  2  0  0  0  0
 13 14  1  0  0  0  0
 15 18  1  0  0  0  0
 16 20  1  0  0  0  0
 17 19  1  0  0  0  0
 18 19  2  0  0  0  0
 20 21  1  0  0  0  0
 20 22  2  0  0  0  0
 21 23  2  0  0  0  0
 22 24  1  0  0  0  0
 23 25  1  0  0  0  0
 23 26  1  0  0  0  0
 24 25  2  0  0  0  0
M  END
> <PUBCHEM_COMPOUND_ID_TYPE>
0

> <PUBCHEM_TOTAL_CHARGE>
0

> <PUBCHEM_SUBSTANCE_ID>
310949306

> <PUBCHEM_SUBSTANCE_VERSION>
1

> <PUBCHEM_EXT_DATASOURCE_NAME>
4488

> <PUBCHEM_EXT_DATASOURCE_REGID>
SCHEMBL16127496

> <PUBCHEM_SUBSTANCE_COMMENT>
InChI=1S/C18H15FN2O4S/c19-13-4-5-15-14(9-13)17-16(6-7-26(17,24)25)21(15)10-11-2-1-3-12(8-11)18(22)20-23/h1-5,8-9,23H,6-7,10H2,(H,20,22)
InChIKey=MWWORRGMXHNQJC-UHFFFAOYSA-N

> <PUBCHEM_SUBSTANCE_SYNONYM>
SCHEMBL16127496

> <PUBCHEM_XREF_EXT_ID>
SCHEMBL16127496

> <PUBCHEM_EXT_DATASOURCE_URL>
https://www.surechembl.org/

> <PUBCHEM_EXT_SUBSTANCE_URL>
https://www.surechembl.org/chemical/SCHEMBL16127496

> <PUBCHEM_CID_ASSOCIATIONS>
117614789  1

> <PUBCHEM_COORDINATE_TYPE>
1
3

$$$$
