310943223
  -OEChem-07211613022D

 34 38  0     0  0  0  0  0  0999 V2000
    1.0102   -0.1967    0.0000 O   0  0  0  0  0  0  0  0  0  0  0  0
   -4.6754    2.3422    0.0000 O   0  0  0  0  0  0  0  0  0  0  0  0
   -1.8147    1.5197    0.0000 N   0  0  0  0  0  0  0  0  0  0  0  0
   -3.2451    1.5197    0.0000 N   0  0  0  0  0  0  0  0  0  0  0  0
   -3.1378   -0.2861    0.0000 N   0  0  0  0  0  0  0  0  0  0  0  0
   -1.9756   -0.9476    0.0000 N   0  0  0  0  0  0  0  0  0  0  0  0
    1.7611    1.1085    0.0000 N   0  0  0  0  0  0  0  0  0  0  0  0
    3.4597   -1.2336    0.0000 N   0  0  0  0  0  0  0  0  0  0  0  0
    0.3308    2.7534    0.0000 N   0  0  0  0  0  0  0  0  0  0  0  0
    3.8888   -0.4827    0.0000 N   0  0  0  0  0  0  0  0  0  0  0  0
   -2.5478    0.2682    0.0000 C   0  0  0  0  0  0  0  0  0  0  0  0
   -2.5299    1.1085    0.0000 C   0  0  0  0  0  0  0  0  0  0  0  0
   -1.0996    1.1085    0.0000 C   0  0  0  0  0  0  0  0  0  0  0  0
   -1.8147   -0.1430    0.0000 C   0  0  0  0  0  0  0  0  0  0  0  0
   -0.4023    1.5197    0.0000 C   0  0  0  0  0  0  0  0  0  0  0  0
   -1.1175    0.2682    0.0000 C   0  0  0  0  0  0  0  0  0  0  0  0
   -0.3844    2.3422    0.0000 C   0  0  0  0  0  0  0  0  0  0  0  0
    0.3308    1.1085    0.0000 C   0  0  0  0  0  0  0  0  0  0  0  0
    1.0281    1.5197    0.0000 C   0  0  0  0  0  0  0  0  0  0  0  0
    2.5299   -0.1788    0.0000 C   0  0  0  0  0  0  0  0  0  0  0  0
   -2.8159   -1.0191    0.0000 C   0  0  0  0  0  0  0  0  0  0  0  0
    1.7790    0.2682    0.0000 C   0  0  0  0  0  0  0  0  0  0  0  0
    3.2808    0.1609    0.0000 C   0  0  0  0  0  0  0  0  0  0  0  0
    2.6014   -1.0548    0.0000 C   0  0  0  0  0  0  0  0  0  0  0  0
    1.0460    2.3422    0.0000 C   0  0  0  0  0  0  0  0  0  0  0  0
   -3.2451    2.3422    0.0000 C   0  0  0  0  0  0  0  0  0  0  0  0
   -3.9603    1.1085    0.0000 C   0  0  0  0  0  0  0  0  0  0  0  0
    3.7994   -2.0025    0.0000 C   0  0  0  0  0  0  0  0  0  0  0  0
   -1.0996    2.7355    0.0000 C   0  0  0  0  0  0  0  0  0  0  0  0
   -3.9603    2.7534    0.0000 C   0  0  0  0  0  0  0  0  0  0  0  0
   -4.6754    1.5197    0.0000 C   0  0  0  0  0  0  0  0  0  0  0  0
    3.4775    1.0191    0.0000 C   0  0  0  0  0  0  0  0  0  0  0  0
    4.6754   -2.1277    0.0000 C   0  0  0  0  0  0  0  0  0  0  0  0
    3.3166   -2.7534    0.0000 C   0  0  0  0  0  0  0  0  0  0  0  0
  1 22  2  0  0  0  0
  2 30  1  0  0  0  0
  2 31  1  0  0  0  0
  3 12  2  0  0  0  0
  3 13  1  0  0  0  0
  4 12  1  0  0  0  0
  4 26  1  0  0  0  0
  4 27  1  0  0  0  0
  5 11  1  0  0  0  0
  5 21  2  0  0  0  0
  6 14  1  0  0  0  0
  6 21  1  0  0  0  0
  7 19  1  0  0  0  0
  7 22  1  0  0  0  0
  8 10  1  0  0  0  0
  8 24  1  0  0  0  0
  8 28  1  0  0  0  0
  9 17  1  0  0  0  0
  9 25  2  0  0  0  0
 10 23  2  0  0  0  0
 11 12  1  0  0  0  0
 11 14  2  0  0  0  0
 13 15  1  0  0  0  0
 13 16  2  0  0  0  0
 14 16  1  0  0  0  0
 15 17  2  0  0  0  0
 15 18  1  0  0  0  0
 17 29  1  0  0  0  0
 18 19  2  0  0  0  0
 19 25  1  0  0  0  0
 20 22  1  0  0  0  0
 20 23  1  0  0  0  0
 20 24  2  0  0  0  0
 23 32  1  0  0  0  0
 26 30  1  0  0  0  0
 27 31  1  0  0  0  0
 28 33  1  0  0  0  0
 28 34  1  0  0  0  0
M  END
> <PUBCHEM_COMPOUND_ID_TYPE>
0

> <PUBCHEM_TOTAL_CHARGE>
0

> <PUBCHEM_SUBSTANCE_ID>
310943223

> <PUBCHEM_SUBSTANCE_VERSION>
1

> <PUBCHEM_EXT_DATASOURCE_NAME>
4488

> <PUBCHEM_EXT_DATASOURCE_REGID>
SCHEMBL16121284

> <PUBCHEM_SUBSTANCE_COMMENT>
InChI=1S/C24H28N8O2/c1-14(2)32-12-19(16(4)30-32)24(33)28-17-9-18(15(3)25-11-17)20-10-21-22(27-13-26-21)23(29-20)31-5-7-34-8-6-31/h9-14H,5-8H2,1-4H3,(H,26,27)(H,28,33)
InChIKey=STKJMEQQQFYPID-UHFFFAOYSA-N

> <PUBCHEM_SUBSTANCE_SYNONYM>
SCHEMBL16121284

> <PUBCHEM_XREF_EXT_ID>
SCHEMBL16121284

> <PUBCHEM_EXT_DATASOURCE_URL>
https://www.surechembl.org/

> <PUBCHEM_EXT_SUBSTANCE_URL>
https://www.surechembl.org/chemical/SCHEMBL16121284

> <PUBCHEM_CID_ASSOCIATIONS>
117609649  1

> <PUBCHEM_COORDINATE_TYPE>
1
3

$$$$
