310944233
  -OEChem-07211613022D

 13 13  0     0  0  0  0  0  0999 V2000
   -0.3504    2.0613    0.0000 F   0  0  0  0  0  0  0  0  0  0  0  0
    1.8070    1.6215    0.0000 N   0  0  0  0  0  0  0  0  0  0  0  0
   -0.3642   -2.0613    0.0000 N   0  0  0  0  0  0  0  0  0  0  0  0
    0.3504    0.0137    0.0000 C   0  0  0  0  0  0  0  0  0  0  0  0
    0.3504    0.8382    0.0000 C   0  0  0  0  0  0  0  0  0  0  0  0
   -0.3642   -0.3847    0.0000 C   0  0  0  0  0  0  0  0  0  0  0  0
   -0.3642    1.2505    0.0000 C   0  0  0  0  0  0  0  0  0  0  0  0
   -1.0925    0.0137    0.0000 C   0  0  0  0  0  0  0  0  0  0  0  0
   -1.0787    0.8245    0.0000 C   0  0  0  0  0  0  0  0  0  0  0  0
    1.0787    1.2505    0.0000 C   0  0  0  0  0  0  0  0  0  0  0  0
   -0.3642   -1.2368    0.0000 C   0  0  0  0  0  0  0  0  0  0  0  0
    1.1062   -0.3847    0.0000 C   0  0  0  0  0  0  0  0  0  0  0  0
   -1.8070   -0.3985    0.0000 C   0  0  0  0  0  0  0  0  0  0  0  0
  1  7  1  0  0  0  0
  2 10  3  0  0  0  0
  3 11  3  0  0  0  0
  4  5  1  0  0  0  0
  4  6  2  0  0  0  0
  4 12  1  0  0  0  0
  5  7  2  0  0  0  0
  5 10  1  0  0  0  0
  6  8  1  0  0  0  0
  6 11  1  0  0  0  0
  7  9  1  0  0  0  0
  8  9  2  0  0  0  0
  8 13  1  0  0  0  0
M  END
> <PUBCHEM_COMPOUND_ID_TYPE>
0

> <PUBCHEM_TOTAL_CHARGE>
0

> <PUBCHEM_SUBSTANCE_ID>
310944233

> <PUBCHEM_SUBSTANCE_VERSION>
1

> <PUBCHEM_EXT_DATASOURCE_NAME>
4488

> <PUBCHEM_EXT_DATASOURCE_REGID>
SCHEMBL16122308

> <PUBCHEM_SUBSTANCE_COMMENT>
InChI=1S/C10H7FN2/c1-6-3-10(11)9(5-13)7(2)8(6)4-12/h3H,1-2H3
InChIKey=YAJRWNGCHVLPSQ-UHFFFAOYSA-N

> <PUBCHEM_SUBSTANCE_SYNONYM>
SCHEMBL16122308

> <PUBCHEM_XREF_EXT_ID>
SCHEMBL16122308

> <PUBCHEM_EXT_DATASOURCE_URL>
https://www.surechembl.org/

> <PUBCHEM_EXT_SUBSTANCE_URL>
https://www.surechembl.org/chemical/SCHEMBL16122308

> <PUBCHEM_CID_ASSOCIATIONS>
117610504  1

> <PUBCHEM_COORDINATE_TYPE>
1
3

$$$$
