310949399
  -OEChem-07211613022D

 30 34  0     0  0  0  0  0  0999 V2000
    2.2093    1.9446    0.0000 Cl  0  0  0  0  0  0  0  0  0  0  0  0
    3.5441   -0.6559    0.0000 O   0  0  0  0  0  0  0  0  0  0  0  0
   -2.8997    0.6789    0.0000 N   0  0  0  0  0  0  0  0  0  0  0  0
   -1.4499    0.6789    0.0000 N   0  0  0  0  0  0  0  0  0  0  0  0
    2.3704   -1.3232    0.0000 N   0  0  0  0  0  0  0  0  0  0  0  0
   -1.4729    2.3588    0.0000 N   0  0  0  0  0  0  0  0  0  0  0  0
   -2.8997   -1.3232    0.0000 N   0  0  0  0  0  0  0  0  0  0  0  0
    3.6131   -2.1287    0.0000 N   0  0  0  0  0  0  0  0  0  0  0  0
    1.4729    0.7479    0.0000 C   0  0  0  0  0  0  0  0  0  0  0  0
    0.7134    1.1621    0.0000 C   0  0  0  0  0  0  0  0  0  0  0  0
   -0.7364    1.1392    0.0000 C   0  0  0  0  0  0  0  0  0  0  0  0
    2.2323   -0.4718    0.0000 C   0  0  0  0  0  0  0  0  0  0  0  0
   -2.1862    1.1392    0.0000 C   0  0  0  0  0  0  0  0  0  0  0  0
    2.8997   -0.0575    0.0000 C   0  0  0  0  0  0  0  0  0  0  0  0
   -0.7364    1.9676    0.0000 C   0  0  0  0  0  0  0  0  0  0  0  0
    2.2093    1.1392    0.0000 C   0  0  0  0  0  0  0  0  0  0  0  0
    1.4958   -0.0805    0.0000 C   0  0  0  0  0  0  0  0  0  0  0  0
    0.0000    0.7479    0.0000 C   0  0  0  0  0  0  0  0  0  0  0  0
   -2.8997   -0.4718    0.0000 C   0  0  0  0  0  0  0  0  0  0  0  0
    2.9227    0.7249    0.0000 C   0  0  0  0  0  0  0  0  0  0  0  0
   -3.4750    0.1035    0.0000 C   0  0  0  0  0  0  0  0  0  0  0  0
   -2.3243    0.1035    0.0000 C   0  0  0  0  0  0  0  0  0  0  0  0
    0.7134    1.9676    0.0000 C   0  0  0  0  0  0  0  0  0  0  0  0
   -2.1632    1.9676    0.0000 C   0  0  0  0  0  0  0  0  0  0  0  0
   -0.0230    2.3818    0.0000 C   0  0  0  0  0  0  0  0  0  0  0  0
    3.1989   -1.3923    0.0000 C   0  0  0  0  0  0  0  0  0  0  0  0
   -3.6131   -1.7145    0.0000 C   0  0  0  0  0  0  0  0  0  0  0  0
   -2.1632   -1.7375    0.0000 C   0  0  0  0  0  0  0  0  0  0  0  0
   -3.6131   -2.3818    0.0000 C   0  0  0  0  0  0  0  0  0  0  0  0
   -2.1632   -2.3818    0.0000 C   0  0  0  0  0  0  0  0  0  0  0  0
  1 16  1  0  0  0  0
  2 14  1  0  0  0  0
  2 26  1  0  0  0  0
  3 13  1  0  0  0  0
  3 21  1  0  0  0  0
  3 22  1  0  0  0  0
  4 11  1  0  0  0  0
  4 13  2  0  0  0  0
  5 12  1  0  0  0  0
  5 26  2  0  0  0  0
  6 15  1  0  0  0  0
  6 24  2  0  0  0  0
  7 19  1  0  0  0  0
  7 27  1  0  0  0  0
  7 28  1  0  0  0  0
  8 26  1  0  0  0  0
  9 10  1  0  0  0  0
  9 16  1  0  0  0  0
  9 17  2  0  0  0  0
 10 18  2  0  0  0  0
 10 23  1  0  0  0  0
 11 15  2  0  0  0  0
 11 18  1  0  0  0  0
 12 14  2  0  0  0  0
 12 17  1  0  0  0  0
 13 24  1  0  0  0  0
 14 20  1  0  0  0  0
 15 25  1  0  0  0  0
 16 20  2  0  0  0  0
 19 21  1  0  0  0  0
 19 22  1  0  0  0  0
 23 25  2  0  0  0  0
 27 29  1  0  0  0  0
 28 30  1  0  0  0  0
M  END
> <PUBCHEM_COMPOUND_ID_TYPE>
0

> <PUBCHEM_TOTAL_CHARGE>
0

> <PUBCHEM_SUBSTANCE_ID>
310949399

> <PUBCHEM_SUBSTANCE_VERSION>
1

> <PUBCHEM_EXT_DATASOURCE_NAME>
4488

> <PUBCHEM_EXT_DATASOURCE_REGID>
SCHEMBL16127591

> <PUBCHEM_SUBSTANCE_COMMENT>
InChI=1S/C22H23ClN6O/c1-3-28(4-2)14-11-29(12-14)21-10-25-17-6-5-13(7-18(17)26-21)15-8-19-20(9-16(15)23)30-22(24)27-19/h5-10,14H,3-4,11-12H2,1-2H3,(H2,24,27)
InChIKey=SWFIMVKRCFMPOF-UHFFFAOYSA-N

> <PUBCHEM_SUBSTANCE_SYNONYM>
SCHEMBL16127591

> <PUBCHEM_XREF_EXT_ID>
SCHEMBL16127591

> <PUBCHEM_EXT_DATASOURCE_URL>
https://www.surechembl.org/

> <PUBCHEM_EXT_SUBSTANCE_URL>
https://www.surechembl.org/chemical/SCHEMBL16127591

> <PUBCHEM_CID_ASSOCIATIONS>
117614851  1

> <PUBCHEM_COORDINATE_TYPE>
1
3

$$$$
