310937834
  -OEChem-07211613022D

 32 36  0     0  0  0  0  0  0999 V2000
    3.5846   -0.8578    0.0000 F   0  0  0  0  0  0  0  0  0  0  0  0
    4.3200   -2.0834    0.0000 F   0  0  0  0  0  0  0  0  0  0  0  0
    4.2893   -0.4290    0.0000 F   0  0  0  0  0  0  0  0  0  0  0  0
    6.3727    0.0000    0.0000 O   0  0  0  0  0  0  0  0  0  0  0  0
    5.7293   -1.2255    0.0000 N   0  0  0  0  0  0  0  0  0  0  0  0
    7.9046   -2.3285    0.0000 N   0  0  0  0  0  0  0  0  0  0  0  0
    5.7293   -3.6766    0.0000 N   0  0  0  0  0  0  0  0  0  0  0  0
    8.3642   -1.6545    0.0000 N   0  0  0  0  0  0  0  0  0  0  0  0
    3.5540   -4.9021    0.0000 N   0  0  0  0  0  0  0  0  0  0  0  0
    2.1446   -4.9021    0.0000 N   0  0  0  0  0  0  0  0  0  0  0  0
    0.7353   -5.7293    0.0000 N   0  0  0  0  0  0  0  0  0  0  0  0
    5.7293   -2.0527    0.0000 C   0  0  0  0  0  0  0  0  0  0  0  0
    6.4034   -2.4817    0.0000 C   0  0  0  0  0  0  0  0  0  0  0  0
    7.1387   -2.0527    0.0000 C   0  0  0  0  0  0  0  0  0  0  0  0
    7.1387   -1.2255    0.0000 C   0  0  0  0  0  0  0  0  0  0  0  0
    6.4034   -0.8272    0.0000 C   0  0  0  0  0  0  0  0  0  0  0  0
    4.9940   -2.4817    0.0000 C   0  0  0  0  0  0  0  0  0  0  0  0
    4.9940   -3.2476    0.0000 C   0  0  0  0  0  0  0  0  0  0  0  0
    6.4034   -3.2476    0.0000 C   0  0  0  0  0  0  0  0  0  0  0  0
    7.9046   -0.9804    0.0000 C   0  0  0  0  0  0  0  0  0  0  0  0
    5.0247   -0.8272    0.0000 C   0  0  0  0  0  0  0  0  0  0  0  0
    4.2893   -3.6766    0.0000 C   0  0  0  0  0  0  0  0  0  0  0  0
    4.3200   -1.2562    0.0000 C   0  0  0  0  0  0  0  0  0  0  0  0
    4.2587   -4.5038    0.0000 C   0  0  0  0  0  0  0  0  0  0  0  0
    3.5540   -3.2782    0.0000 C   0  0  0  0  0  0  0  0  0  0  0  0
    2.8494   -4.5038    0.0000 C   0  0  0  0  0  0  0  0  0  0  0  0
    2.8800   -3.6766    0.0000 C   0  0  0  0  0  0  0  0  0  0  0  0
    1.4400   -4.4731    0.0000 C   0  0  0  0  0  0  0  0  0  0  0  0
    2.1446   -5.6986    0.0000 C   0  0  0  0  0  0  0  0  0  0  0  0
    1.4094   -6.1276    0.0000 C   0  0  0  0  0  0  0  0  0  0  0  0
    0.7353   -4.9021    0.0000 C   0  0  0  0  0  0  0  0  0  0  0  0
    0.0000   -6.1276    0.0000 C   0  0  0  0  0  0  0  0  0  0  0  0
  1 23  1  0  0  0  0
  2 23  1  0  0  0  0
  3 23  1  0  0  0  0
  4 16  2  0  0  0  0
  5 12  1  0  0  0  0
  5 16  1  0  0  0  0
  5 21  1  0  0  0  0
  6  8  1  0  0  0  0
  6 14  1  0  0  0  0
  7 18  2  0  0  0  0
  7 19  1  0  0  0  0
  8 20  2  0  0  0  0
  9 24  1  0  0  0  0
  9 26  2  0  0  0  0
 10 26  1  0  0  0  0
 10 28  1  0  0  0  0
 10 29  1  0  0  0  0
 11 30  1  0  0  0  0
 11 31  1  0  0  0  0
 11 32  1  0  0  0  0
 12 13  1  0  0  0  0
 12 17  2  0  0  0  0
 13 14  1  0  0  0  0
 13 19  2  0  0  0  0
 14 15  2  0  0  0  0
 15 16  1  0  0  0  0
 15 20  1  0  0  0  0
 17 18  1  0  0  0  0
 18 22  1  0  0  0  0
 21 23  1  0  0  0  0
 22 24  2  0  0  0  0
 22 25  1  0  0  0  0
 25 27  2  0  0  0  0
 26 27  1  0  0  0  0
 28 31  1  0  0  0  0
 29 30  1  0  0  0  0
M  END
> <PUBCHEM_COMPOUND_ID_TYPE>
0

> <PUBCHEM_TOTAL_CHARGE>
0

> <PUBCHEM_SUBSTANCE_ID>
310937834

> <PUBCHEM_SUBSTANCE_VERSION>
1

> <PUBCHEM_EXT_DATASOURCE_NAME>
4488

> <PUBCHEM_EXT_DATASOURCE_REGID>
SCHEMBL16115656

> <PUBCHEM_SUBSTANCE_COMMENT>
InChI=1S/C21H20F3N7O/c1-29-4-6-30(7-5-29)18-3-2-13(9-26-18)16-8-17-14(10-25-16)19-15(11-27-28-19)20(32)31(17)12-21(22,23)24/h2-3,8-11H,4-7,12H2,1H3,(H,27,28)
InChIKey=RFGPPQPXKHQYGH-UHFFFAOYSA-N

> <PUBCHEM_SUBSTANCE_SYNONYM>
SCHEMBL16115656

> <PUBCHEM_XREF_EXT_ID>
SCHEMBL16115656

> <PUBCHEM_EXT_DATASOURCE_URL>
https://www.surechembl.org/

> <PUBCHEM_EXT_SUBSTANCE_URL>
https://www.surechembl.org/chemical/SCHEMBL16115656

> <PUBCHEM_CID_ASSOCIATIONS>
86298952  1

> <PUBCHEM_COORDINATE_TYPE>
1
3

$$$$
