310949934
  -OEChem-07211613022D

 24 26  0     0  0  0  0  0  0999 V2000
   -4.3551   -1.2093    0.0000 Cl  0  0  0  0  0  0  0  0  0  0  0  0
   -1.2093    0.4544    0.0000 N   0  0  0  0  0  0  0  0  0  0  0  0
    0.9437   -0.7899    0.0000 N   0  0  0  0  0  0  0  0  0  0  0  0
   -2.6493    1.2793    0.0000 N   0  0  0  0  0  0  0  0  0  0  0  0
   -1.9364    0.0490    0.0000 C   0  0  0  0  0  0  0  0  0  0  0  0
   -0.4963    0.0350    0.0000 C   0  0  0  0  0  0  0  0  0  0  0  0
   -2.6633    0.4544    0.0000 C   0  0  0  0  0  0  0  0  0  0  0  0
   -1.9364   -0.7899    0.0000 C   0  0  0  0  0  0  0  0  0  0  0  0
   -3.3624    0.0350    0.0000 C   0  0  0  0  0  0  0  0  0  0  0  0
   -3.3764   -0.7899    0.0000 C   0  0  0  0  0  0  0  0  0  0  0  0
   -0.4963   -0.7899    0.0000 C   0  0  0  0  0  0  0  0  0  0  0  0
    0.2167    0.4544    0.0000 C   0  0  0  0  0  0  0  0  0  0  0  0
    0.2027   -1.1954    0.0000 C   0  0  0  0  0  0  0  0  0  0  0  0
    0.9297    0.0350    0.0000 C   0  0  0  0  0  0  0  0  0  0  0  0
   -2.6493   -1.1954    0.0000 C   0  0  0  0  0  0  0  0  0  0  0  0
    1.6707   -1.1954    0.0000 C   0  0  0  0  0  0  0  0  0  0  0  0
    2.3697   -0.7899    0.0000 C   0  0  0  0  0  0  0  0  0  0  0  0
    3.0129   -1.2793    0.0000 C   0  0  0  0  0  0  0  0  0  0  0  0
    2.2719    0.0350    0.0000 C   0  0  0  0  0  0  0  0  0  0  0  0
    2.7752    0.6781    0.0000 C   0  0  0  0  0  0  0  0  0  0  0  0
    3.8517   -1.1814    0.0000 C   0  0  0  0  0  0  0  0  0  0  0  0
    3.6140    0.7759    0.0000 C   0  0  0  0  0  0  0  0  0  0  0  0
    4.3551   -0.5243    0.0000 C   0  0  0  0  0  0  0  0  0  0  0  0
    4.2432    0.2866    0.0000 C   0  0  0  0  0  0  0  0  0  0  0  0
  1 10  1  0  0  0  0
  2  5  1  0  0  0  0
  2  6  1  0  0  0  0
  3 13  1  0  0  0  0
  3 14  1  0  0  0  0
  3 16  1  0  0  0  0
  4  7  1  0  0  0  0
  5  7  2  0  0  0  0
  5  8  1  0  0  0  0
  6 11  1  0  0  0  0
  6 12  1  0  0  0  0
  7  9  1  0  0  0  0
  8 15  2  0  0  0  0
  9 10  2  0  0  0  0
 10 15  1  0  0  0  0
 11 13  1  0  0  0  0
 12 14  1  0  0  0  0
 16 17  1  0  0  0  0
 17 18  1  0  0  0  0
 17 19  1  0  0  0  0
 18 21  1  0  0  0  0
 19 20  1  0  0  0  0
 20 22  1  0  0  0  0
 21 23  1  0  0  0  0
 22 24  1  0  0  0  0
 23 24  1  0  0  0  0
M  END
> <PUBCHEM_COMPOUND_ID_TYPE>
0

> <PUBCHEM_TOTAL_CHARGE>
0

> <PUBCHEM_SUBSTANCE_ID>
310949934

> <PUBCHEM_SUBSTANCE_VERSION>
1

> <PUBCHEM_EXT_DATASOURCE_NAME>
4488

> <PUBCHEM_EXT_DATASOURCE_REGID>
SCHEMBL16128161

> <PUBCHEM_SUBSTANCE_COMMENT>
InChI=1S/C20H32ClN3/c21-17-8-9-20(19(22)14-17)23-18-10-12-24(13-11-18)15-16-6-4-2-1-3-5-7-16/h8-9,14,16,18,23H,1-7,10-13,15,22H2
InChIKey=YMQUFXZPEVZYPX-UHFFFAOYSA-N

> <PUBCHEM_SUBSTANCE_SYNONYM>
SCHEMBL16128161

> <PUBCHEM_XREF_EXT_ID>
SCHEMBL16128161

> <PUBCHEM_EXT_DATASOURCE_URL>
https://www.surechembl.org/

> <PUBCHEM_EXT_SUBSTANCE_URL>
https://www.surechembl.org/chemical/SCHEMBL16128161

> <PUBCHEM_CID_ASSOCIATIONS>
117615198  1

> <PUBCHEM_COORDINATE_TYPE>
1
3

$$$$
