310929685
  -OEChem-07211613022D

 31 33  0     1  0  0  0  0  0999 V2000
   -0.5327   -8.8221    0.0000 Br  0  0  0  0  0  0  0  0  0  0  0  0
   -3.6529   -7.7477    0.0000 S   0  0  0  0  0  0  0  0  0  0  0  0
   -5.4986   -3.7771    0.0000 O   0  0  0  0  0  0  0  0  0  0  0  0
   -5.3741   -2.3536    0.0000 O   0  0  0  0  0  0  0  0  0  0  0  0
   -4.4330   -7.4791    0.0000 O   0  0  0  0  0  0  0  0  0  0  0  0
   -3.2572   -4.5248    0.0000 O   0  0  0  0  0  0  0  0  0  0  0  0
   -3.9215   -8.5278    0.0000 O   0  0  0  0  0  0  0  0  0  0  0  0
   -3.3843   -6.9677    0.0000 O   0  0  0  0  0  0  0  0  0  0  0  0
   -4.5522   -3.9209    0.0000 N   0  0  0  0  0  0  0  0  0  0  0  0
   -5.2375   -5.5018    0.0000 N   0  0  0  0  0  0  0  0  0  0  0  0
   -4.2036   -3.1732    0.0000 C   0  0  3  0  0  0  0  0  0  0  0  0
   -3.7911   -2.4587    0.0000 C   0  0  3  0  0  0  0  0  0  0  0  0
   -3.3786   -3.1732    0.0000 C   0  0  0  0  0  0  0  0  0  0  0  0
   -5.0254   -3.1013    0.0000 C   0  0  0  0  0  0  0  0  0  0  0  0
   -4.0790   -4.5967    0.0000 C   0  0  0  0  0  0  0  0  0  0  0  0
   -4.4277   -5.3444    0.0000 C   0  0  3  0  0  0  0  0  0  0  0  0
   -4.4231   -1.9284    0.0000 C   0  0  0  0  0  0  0  0  0  0  0  0
   -3.1591   -1.9284    0.0000 C   0  0  0  0  0  0  0  0  0  0  0  0
   -4.5904   -6.6693    0.0000 C   0  0  3  0  0  0  0  0  0  0  0  0
   -4.0277   -6.0659    0.0000 C   0  0  0  0  0  0  0  0  0  0  0  0
   -5.3381   -6.3206    0.0000 C   0  0  0  0  0  0  0  0  0  0  0  0
   -4.2798   -1.1159    0.0000 C   0  0  0  0  0  0  0  0  0  0  0  0
   -2.3838   -2.2106    0.0000 C   0  0  0  0  0  0  0  0  0  0  0  0
   -2.8728   -8.0163    0.0000 C   0  0  0  0  0  0  0  0  0  0  0  0
   -2.7154   -8.8262    0.0000 C   0  0  0  0  0  0  0  0  0  0  0  0
   -2.2502   -7.4751    0.0000 C   0  0  0  0  0  0  0  0  0  0  0  0
   -1.9354   -9.0948    0.0000 C   0  0  0  0  0  0  0  0  0  0  0  0
   -1.4702   -7.7437    0.0000 C   0  0  0  0  0  0  0  0  0  0  0  0
   -1.3127   -8.5535    0.0000 C   0  0  0  0  0  0  0  0  0  0  0  0
   -3.6032   -5.3156    0.0000 H   0  0  0  0  0  0  0  0  0  0  0  0
   -5.2405   -7.1772    0.0000 H   0  0  0  0  0  0  0  0  0  0  0  0
  1 29  1  0  0  0  0
  2  5  1  0  0  0  0
  2  7  2  0  0  0  0
  2  8  2  0  0  0  0
  2 24  1  0  0  0  0
  3 14  2  0  0  0  0
  4 14  1  0  0  0  0
  5 19  1  0  0  0  0
  6 15  2  0  0  0  0
 11  9  1  1  0  0  0
  9 15  1  0  0  0  0
 10 16  1  0  0  0  0
 10 21  1  0  0  0  0
 11 12  1  0  0  0  0
 11 13  1  0  0  0  0
 11 14  1  6  0  0  0
 12 13  1  0  0  0  0
 12 17  1  1  0  0  0
 12 18  1  6  0  0  0
 15 16  1  0  0  0  0
 16 20  1  0  0  0  0
 16 30  1  1  0  0  0
 17 22  1  0  0  0  0
 18 23  2  0  0  0  0
 19 20  1  0  0  0  0
 19 21  1  0  0  0  0
 19 31  1  1  0  0  0
 24 25  2  0  0  0  0
 24 26  1  0  0  0  0
 25 27  1  0  0  0  0
 26 28  2  0  0  0  0
 27 29  2  0  0  0  0
 28 29  1  0  0  0  0
M  END
> <PUBCHEM_COMPOUND_ID_TYPE>
0

> <PUBCHEM_TOTAL_CHARGE>
0

> <PUBCHEM_SUBSTANCE_ID>
310929685

> <PUBCHEM_SUBSTANCE_VERSION>
1

> <PUBCHEM_EXT_DATASOURCE_NAME>
4488

> <PUBCHEM_EXT_DATASOURCE_REGID>
SCHEMBL16106876

> <PUBCHEM_SUBSTANCE_COMMENT>
InChI=1S/C19H23BrN2O6S/c1-3-18(4-2)11-19(18,17(24)25)22-16(23)15-9-13(10-21-15)28-29(26,27)14-7-5-12(20)6-8-14/h3,5-8,13,15,21H,1,4,9-11H2,2H3,(H,22,23)(H,24,25)/t13-,15-,18-,19-/m0/s1
InChIKey=YWXGDVLLRNZOHY-BMIPRAEKSA-N

> <PUBCHEM_SUBSTANCE_SYNONYM>
SCHEMBL16106876

> <PUBCHEM_XREF_EXT_ID>
SCHEMBL16106876

> <PUBCHEM_EXT_DATASOURCE_URL>
https://www.surechembl.org/

> <PUBCHEM_EXT_SUBSTANCE_URL>
https://www.surechembl.org/chemical/SCHEMBL16106876

> <PUBCHEM_CID_ASSOCIATIONS>
117598983  1

> <PUBCHEM_COORDINATE_TYPE>
1
3

> <PUBCHEM_BONDANNOTATIONS>
11  14  6
12  17  5
12  18  6
16  30  5
19  31  5
11  9  5

$$$$
