310939296
  -OEChem-07211613022D

 27 29  0     1  0  0  0  0  0999 V2000
    1.6117    0.6580    0.0000 Cl  0  0  0  0  0  0  0  0  0  0  0  0
    0.1827   -1.8170    0.0000 F   0  0  0  0  0  0  0  0  0  0  0  0
    1.6117   -0.9920    0.0000 O   0  0  0  0  0  0  0  0  0  0  0  0
   -1.9607   -0.5795    0.0000 N   0  0  0  0  0  0  0  0  0  0  0  0
   -1.7057    1.4449    0.0000 N   0  0  0  0  0  0  0  0  0  0  0  0
   -2.7857    2.2295    0.0000 N   0  0  0  0  0  0  0  0  0  0  0  0
   -0.5317   -0.5795    0.0000 C   0  0  0  0  0  0  0  0  0  0  0  0
    0.1827   -0.9920    0.0000 C   0  0  0  0  0  0  0  0  0  0  0  0
    0.8972   -0.5795    0.0000 C   0  0  0  0  0  0  0  0  0  0  0  0
   -1.2462   -0.9920    0.0000 C   0  0  3  0  0  0  0  0  0  0  0  0
    0.8972    0.2455    0.0000 C   0  0  0  0  0  0  0  0  0  0  0  0
   -0.5317    0.2455    0.0000 C   0  0  0  0  0  0  0  0  0  0  0  0
    0.1827    0.6580    0.0000 C   0  0  0  0  0  0  0  0  0  0  0  0
   -2.3732    0.1350    0.0000 C   0  0  3  0  0  0  0  0  0  0  0  0
   -2.3732    0.9600    0.0000 C   0  0  0  0  0  0  0  0  0  0  0  0
    2.3261   -0.5795    0.0000 C   0  0  0  0  0  0  0  0  0  0  0  0
   -3.0406    1.4449    0.0000 C   0  0  0  0  0  0  0  0  0  0  0  0
   -1.2462   -1.8170    0.0000 C   0  0  0  0  0  0  0  0  0  0  0  0
   -1.9607    2.2295    0.0000 C   0  0  0  0  0  0  0  0  0  0  0  0
    2.3261    0.2455    0.0000 C   0  0  0  0  0  0  0  0  0  0  0  0
    3.0406   -0.9920    0.0000 C   0  0  0  0  0  0  0  0  0  0  0  0
   -3.1701   -0.0786    0.0000 C   0  0  0  0  0  0  0  0  0  0  0  0
   -3.7551    1.0324    0.0000 C   0  0  0  0  0  0  0  0  0  0  0  0
   -1.9607   -2.2295    0.0000 C   0  0  0  0  0  0  0  0  0  0  0  0
    3.0406    0.6580    0.0000 C   0  0  0  0  0  0  0  0  0  0  0  0
    3.7551   -0.5795    0.0000 C   0  0  0  0  0  0  0  0  0  0  0  0
    3.7551    0.2455    0.0000 C   0  0  0  0  0  0  0  0  0  0  0  0
  1 11  1  0  0  0  0
  2  8  1  0  0  0  0
  3  9  1  0  0  0  0
  3 16  1  0  0  0  0
 10  4  1  1  0  0  0
  4 14  1  0  0  0  0
  5 15  1  0  0  0  0
  5 19  1  0  0  0  0
  6 17  1  0  0  0  0
  6 19  2  0  0  0  0
  7  8  1  0  0  0  0
  7 10  1  0  0  0  0
  7 12  2  0  0  0  0
  8  9  2  0  0  0  0
  9 11  1  0  0  0  0
 10 18  1  0  0  0  0
 11 13  2  0  0  0  0
 12 13  1  0  0  0  0
 14 15  1  0  0  0  0
 14 22  1  6  0  0  0
 15 17  2  0  0  0  0
 16 20  2  0  0  0  0
 16 21  1  0  0  0  0
 17 23  1  0  0  0  0
 18 24  1  0  0  0  0
 20 25  1  0  0  0  0
 21 26  2  0  0  0  0
 25 27  2  0  0  0  0
 26 27  1  0  0  0  0
M  END
> <PUBCHEM_COMPOUND_ID_TYPE>
0

> <PUBCHEM_TOTAL_CHARGE>
0

> <PUBCHEM_SUBSTANCE_ID>
310939296

> <PUBCHEM_SUBSTANCE_VERSION>
1

> <PUBCHEM_EXT_DATASOURCE_NAME>
4488

> <PUBCHEM_EXT_DATASOURCE_REGID>
SCHEMBL16117217

> <PUBCHEM_SUBSTANCE_COMMENT>
InChI=1S/C21H23ClFN3O/c1-4-18(26-14(3)20-13(2)24-12-25-20)16-10-11-17(22)21(19(16)23)27-15-8-6-5-7-9-15/h5-12,14,18,26H,4H2,1-3H3,(H,24,25)/t14-,18-/m1/s1
InChIKey=XBKGIGIRLWLAQD-RDTXWAMCSA-N

> <PUBCHEM_SUBSTANCE_SYNONYM>
SCHEMBL16117217

> <PUBCHEM_XREF_EXT_ID>
SCHEMBL16117217

> <PUBCHEM_EXT_DATASOURCE_URL>
https://www.surechembl.org/

> <PUBCHEM_EXT_SUBSTANCE_URL>
https://www.surechembl.org/chemical/SCHEMBL16117217

> <PUBCHEM_CID_ASSOCIATIONS>
117606637  1

> <PUBCHEM_COORDINATE_TYPE>
1
3

> <PUBCHEM_BONDANNOTATIONS>
14  22  6
10  4  5

$$$$
