310932470
  -OEChem-07211613022D

 28 30  0     0  0  0  0  0  0999 V2000
    9.8998   -3.8279    0.0000 F   0  0  0  0  0  0  0  0  0  0  0  0
    9.1738   -2.5740    0.0000 F   0  0  0  0  0  0  0  0  0  0  0  0
    9.1738   -4.2239    0.0000 F   0  0  0  0  0  0  0  0  0  0  0  0
    3.9929   -2.1120    0.0000 O   0  0  0  0  0  0  0  0  0  0  0  0
    8.4478   -2.1780    0.0000 O   0  0  0  0  0  0  0  0  0  0  0  0
    4.8839   -0.9570    0.0000 N   0  0  0  0  0  0  0  0  0  0  0  0
    4.8179   -0.1320    0.0000 N   0  0  0  0  0  0  0  0  0  0  0  0
    6.3359   -0.9570    0.0000 N   0  0  0  0  0  0  0  0  0  0  0  0
    7.7548   -3.4319    0.0000 N   0  0  0  0  0  0  0  0  0  0  0  0
    0.0000   -1.8150    0.0000 N   0  0  0  0  0  0  0  0  0  0  0  0
    4.1579   -1.2870    0.0000 C   0  0  0  0  0  0  0  0  0  0  0  0
    3.5969   -0.6930    0.0000 C   0  0  0  0  0  0  0  0  0  0  0  0
    5.6099   -1.3530    0.0000 C   0  0  0  0  0  0  0  0  0  0  0  0
    2.7720   -0.7920    0.0000 C   0  0  0  0  0  0  0  0  0  0  0  0
    3.9929    0.0000    0.0000 C   0  0  0  0  0  0  0  0  0  0  0  0
    5.6099   -2.1780    0.0000 C   0  0  0  0  0  0  0  0  0  0  0  0
    7.0288   -2.1780    0.0000 C   0  0  0  0  0  0  0  0  0  0  0  0
    7.0288   -1.3530    0.0000 C   0  0  0  0  0  0  0  0  0  0  0  0
    6.3359   -2.5740    0.0000 C   0  0  0  0  0  0  0  0  0  0  0  0
    2.4420   -1.5510    0.0000 C   0  0  0  0  0  0  0  0  0  0  0  0
    2.2769   -0.1320    0.0000 C   0  0  0  0  0  0  0  0  0  0  0  0
    7.7548   -2.5740    0.0000 C   0  0  0  0  0  0  0  0  0  0  0  0
    1.1550   -0.9570    0.0000 C   0  0  0  0  0  0  0  0  0  0  0  0
    1.6170   -1.6170    0.0000 C   0  0  0  0  0  0  0  0  0  0  0  0
    1.4850   -0.2310    0.0000 C   0  0  0  0  0  0  0  0  0  0  0  0
    9.1738   -3.3989    0.0000 C   0  0  0  0  0  0  0  0  0  0  0  0
    8.4808   -3.8279    0.0000 C   0  0  0  0  0  0  0  0  0  0  0  0
    0.3300   -1.0560    0.0000 C   0  0  0  0  0  0  0  0  0  0  0  0
  1 26  1  0  0  0  0
  2 26  1  0  0  0  0
  3 26  1  0  0  0  0
  4 11  1  0  0  0  0
  5 22  2  0  0  0  0
  6  7  1  0  0  0  0
  6 11  1  0  0  0  0
  6 13  1  0  0  0  0
  7 15  2  0  0  0  0
  8 13  2  0  0  0  0
  8 18  1  0  0  0  0
  9 22  1  0  0  0  0
  9 27  1  0  0  0  0
 10 28  3  0  0  0  0
 11 12  2  0  0  0  0
 12 14  1  0  0  0  0
 12 15  1  0  0  0  0
 13 16  1  0  0  0  0
 14 20  2  0  0  0  0
 14 21  1  0  0  0  0
 16 19  2  0  0  0  0
 17 18  2  0  0  0  0
 17 19  1  0  0  0  0
 17 22  1  0  0  0  0
 20 24  1  0  0  0  0
 21 25  2  0  0  0  0
 23 24  2  0  0  0  0
 23 25  1  0  0  0  0
 23 28  1  0  0  0  0
 26 27  1  0  0  0  0
M  END
> <PUBCHEM_COMPOUND_ID_TYPE>
0

> <PUBCHEM_TOTAL_CHARGE>
0

> <PUBCHEM_SUBSTANCE_ID>
310932470

> <PUBCHEM_SUBSTANCE_VERSION>
1

> <PUBCHEM_EXT_DATASOURCE_NAME>
4488

> <PUBCHEM_EXT_DATASOURCE_REGID>
SCHEMBL16109842

> <PUBCHEM_SUBSTANCE_COMMENT>
InChI=1S/C18H12F3N5O2/c19-18(20,21)10-24-16(27)13-5-6-15(23-8-13)26-17(28)14(9-25-26)12-3-1-11(7-22)2-4-12/h1-6,8-9,28H,10H2,(H,24,27)
InChIKey=ZNGIJBLKCQQDOI-UHFFFAOYSA-N

> <PUBCHEM_SUBSTANCE_SYNONYM>
SCHEMBL16109842

> <PUBCHEM_XREF_EXT_ID>
SCHEMBL16109842

> <PUBCHEM_EXT_DATASOURCE_URL>
https://www.surechembl.org/

> <PUBCHEM_EXT_SUBSTANCE_URL>
https://www.surechembl.org/chemical/SCHEMBL16109842

> <PUBCHEM_CID_ASSOCIATIONS>
117601011  1

> <PUBCHEM_COORDINATE_TYPE>
1
3

$$$$
