310941634
  -OEChem-07211613022D

 28 31  0     0  0  0  0  0  0999 V2000
   -3.3085   -1.6500    0.0000 Cl  0  0  0  0  0  0  0  0  0  0  0  0
    0.4607    1.8343    0.0000 S   0  0  0  0  0  0  0  0  0  0  0  0
   -1.8678   -0.8292    0.0000 O   0  0  0  0  0  0  0  0  0  0  0  0
   -0.4439   -0.8292    0.0000 O   0  0  0  0  0  0  0  0  0  0  0  0
    3.3420    0.8125    0.0000 O   0  0  0  0  0  0  0  0  0  0  0  0
    0.3267    0.4941    0.0000 N   0  0  0  0  0  0  0  0  0  0  0  0
    1.7171    1.0135    0.0000 N   0  0  0  0  0  0  0  0  0  0  0  0
    2.6719   -1.2648    0.0000 N   0  0  0  0  0  0  0  0  0  0  0  0
   -1.1308    0.4272    0.0000 C   0  0  0  0  0  0  0  0  0  0  0  0
   -0.4439    0.8292    0.0000 C   0  0  0  0  0  0  0  0  0  0  0  0
   -2.5881   -0.4104    0.0000 C   0  0  0  0  0  0  0  0  0  0  0  0
   -2.5714    0.4272    0.0000 C   0  0  0  0  0  0  0  0  0  0  0  0
   -1.1810   -0.3937    0.0000 C   0  0  0  0  0  0  0  0  0  0  0  0
   -1.9013    0.8125    0.0000 C   0  0  0  0  0  0  0  0  0  0  0  0
    0.8795    1.1140    0.0000 C   0  0  0  0  0  0  0  0  0  0  0  0
    2.0186    0.2764    0.0000 C   0  0  0  0  0  0  0  0  0  0  0  0
   -3.3085   -0.8125    0.0000 C   0  0  0  0  0  0  0  0  0  0  0  0
   -0.3434    1.6500    0.0000 C   0  0  0  0  0  0  0  0  0  0  0  0
    2.8562    0.1424    0.0000 C   0  0  0  0  0  0  0  0  0  0  0  0
   -3.2917    0.8125    0.0000 C   0  0  0  0  0  0  0  0  0  0  0  0
    3.1577   -0.5947    0.0000 C   0  0  0  0  0  0  0  0  0  0  0  0
    1.5328   -0.4439    0.0000 C   0  0  0  0  0  0  0  0  0  0  0  0
   -4.0121   -0.4104    0.0000 C   0  0  0  0  0  0  0  0  0  0  0  0
    1.8343   -1.1308    0.0000 C   0  0  0  0  0  0  0  0  0  0  0  0
   -4.0121    0.4105    0.0000 C   0  0  0  0  0  0  0  0  0  0  0  0
    4.0121   -0.7119    0.0000 C   0  0  0  0  0  0  0  0  0  0  0  0
    1.3653   -1.8343    0.0000 C   0  0  0  0  0  0  0  0  0  0  0  0
    3.0237    1.5998    0.0000 C   0  0  0  0  0  0  0  0  0  0  0  0
  1 17  1  0  0  0  0
  2 15  1  0  0  0  0
  2 18  1  0  0  0  0
  3 11  1  0  0  0  0
  3 13  1  0  0  0  0
  4 13  2  0  0  0  0
  5 19  1  0  0  0  0
  5 28  1  0  0  0  0
  6 10  1  0  0  0  0
  6 15  2  0  0  0  0
  7 15  1  0  0  0  0
  7 16  1  0  0  0  0
  8 21  1  0  0  0  0
  8 24  2  0  0  0  0
  9 10  1  0  0  0  0
  9 13  1  0  0  0  0
  9 14  2  0  0  0  0
 10 18  2  0  0  0  0
 11 12  1  0  0  0  0
 11 17  2  0  0  0  0
 12 14  1  0  0  0  0
 12 20  2  0  0  0  0
 16 19  1  0  0  0  0
 16 22  2  0  0  0  0
 17 23  1  0  0  0  0
 19 21  2  0  0  0  0
 20 25  1  0  0  0  0
 21 26  1  0  0  0  0
 22 24  1  0  0  0  0
 23 25  2  0  0  0  0
 24 27  1  0  0  0  0
M  END
> <PUBCHEM_COMPOUND_ID_TYPE>
0

> <PUBCHEM_TOTAL_CHARGE>
0

> <PUBCHEM_SUBSTANCE_ID>
310941634

> <PUBCHEM_SUBSTANCE_VERSION>
1

> <PUBCHEM_EXT_DATASOURCE_NAME>
4488

> <PUBCHEM_EXT_DATASOURCE_REGID>
SCHEMBL16119665

> <PUBCHEM_SUBSTANCE_COMMENT>
InChI=1S/C20H16ClN3O3S/c1-10-7-15(17(26-3)11(2)22-10)23-20-24-16(9-28-20)13-8-12-5-4-6-14(21)18(12)27-19(13)25/h4-9H,1-3H3,(H,22,23,24)
InChIKey=NPPIPPNULUVNGR-UHFFFAOYSA-N

> <PUBCHEM_SUBSTANCE_SYNONYM>
SCHEMBL16119665

> <PUBCHEM_XREF_EXT_ID>
SCHEMBL16119665

> <PUBCHEM_EXT_DATASOURCE_URL>
https://www.surechembl.org/

> <PUBCHEM_EXT_SUBSTANCE_URL>
https://www.surechembl.org/chemical/SCHEMBL16119665

> <PUBCHEM_CID_ASSOCIATIONS>
117608421  1

> <PUBCHEM_COORDINATE_TYPE>
1
3

$$$$
