310939229
  -OEChem-07211613022D

 22 23  0     1  0  0  0  0  0999 V2000
    0.8250   -0.7145    0.0000 Cl  0  0  0  0  0  0  0  0  0  0  0  0
   -1.6500    0.7145    0.0000 F   0  0  0  0  0  0  0  0  0  0  0  0
    0.0000    0.7145    0.0000 O   0  0  0  0  0  0  0  0  0  0  0  0
    3.7125    0.0000    0.0000 O   0  0  0  0  0  0  0  0  0  0  0  0
   -2.8875    0.0000    0.0000 N   0  0  0  0  0  0  0  0  0  0  0  0
   -0.4125    0.0000    0.0000 C   0  0  0  0  0  0  0  0  0  0  0  0
   -1.2375    0.0000    0.0000 C   0  0  0  0  0  0  0  0  0  0  0  0
   -1.6500   -0.7145    0.0000 C   0  0  0  0  0  0  0  0  0  0  0  0
    0.0000   -0.7145    0.0000 C   0  0  0  0  0  0  0  0  0  0  0  0
    0.8250    0.7145    0.0000 C   0  0  0  0  0  0  0  0  0  0  0  0
   -1.2375   -1.4289    0.0000 C   0  0  0  0  0  0  0  0  0  0  0  0
   -2.4750   -0.7145    0.0000 C   0  0  3  0  0  0  0  0  0  0  0  0
   -0.4125   -1.4289    0.0000 C   0  0  0  0  0  0  0  0  0  0  0  0
    1.2375    1.4289    0.0000 C   0  0  0  0  0  0  0  0  0  0  0  0
    1.2375    0.0000    0.0000 C   0  0  0  0  0  0  0  0  0  0  0  0
    2.4750    0.7145    0.0000 C   0  0  0  0  0  0  0  0  0  0  0  0
    2.0625    1.4289    0.0000 C   0  0  0  0  0  0  0  0  0  0  0  0
    2.0625    0.0000    0.0000 C   0  0  0  0  0  0  0  0  0  0  0  0
   -2.8875   -1.4289    0.0000 C   0  0  0  0  0  0  0  0  0  0  0  0
    3.3000    0.7145    0.0000 C   0  0  3  0  0  0  0  0  0  0  0  0
   -3.7125   -1.4289    0.0000 C   0  0  0  0  0  0  0  0  0  0  0  0
    3.7125    1.4289    0.0000 C   0  0  0  0  0  0  0  0  0  0  0  0
  1  9  1  0  0  0  0
  2  7  1  0  0  0  0
  3  6  1  0  0  0  0
  3 10  1  0  0  0  0
  4 20  1  0  0  0  0
 12  5  1  1  0  0  0
  6  7  1  0  0  0  0
  6  9  2  0  0  0  0
  7  8  2  0  0  0  0
  8 11  1  0  0  0  0
  8 12  1  0  0  0  0
  9 13  1  0  0  0  0
 10 14  2  0  0  0  0
 10 15  1  0  0  0  0
 11 13  2  0  0  0  0
 12 19  1  0  0  0  0
 14 17  1  0  0  0  0
 15 18  2  0  0  0  0
 16 17  2  0  0  0  0
 16 18  1  0  0  0  0
 16 20  1  0  0  0  0
 19 21  1  0  0  0  0
 20 22  1  0  0  0  0
M  END
> <PUBCHEM_COMPOUND_ID_TYPE>
0

> <PUBCHEM_TOTAL_CHARGE>
0

> <PUBCHEM_SUBSTANCE_ID>
310939229

> <PUBCHEM_SUBSTANCE_VERSION>
1

> <PUBCHEM_EXT_DATASOURCE_NAME>
4488

> <PUBCHEM_EXT_DATASOURCE_REGID>
SCHEMBL16117150

> <PUBCHEM_SUBSTANCE_COMMENT>
InChI=1S/C17H19ClFNO2/c1-3-15(20)13-8-9-14(18)17(16(13)19)22-12-6-4-11(5-7-12)10(2)21/h4-10,15,21H,3,20H2,1-2H3/t10?,15-/m1/s1
InChIKey=PUIURUCHYACUQE-GENIYJEYSA-N

> <PUBCHEM_SUBSTANCE_SYNONYM>
SCHEMBL16117150

> <PUBCHEM_XREF_EXT_ID>
SCHEMBL16117150

> <PUBCHEM_EXT_DATASOURCE_URL>
https://www.surechembl.org/

> <PUBCHEM_EXT_SUBSTANCE_URL>
https://www.surechembl.org/chemical/SCHEMBL16117150

> <PUBCHEM_CID_ASSOCIATIONS>
117606577  1

> <PUBCHEM_COORDINATE_TYPE>
1
3

> <PUBCHEM_BONDANNOTATIONS>
12  5  5

$$$$
