310936150
  -OEChem-07211613022D

 28 30  0     0  0  0  0  0  0999 V2000
    7.3627   -0.8344    0.0000 F   0  0  0  0  0  0  0  0  0  0  0  0
    3.5832   -0.1964    0.0000 O   0  0  0  0  0  0  0  0  0  0  0  0
    0.7117   -1.6689    0.0000 O   0  0  0  0  0  0  0  0  0  0  0  0
    4.6385   -2.4297    0.0000 O   0  0  0  0  0  0  0  0  0  0  0  0
    3.2887   -2.8715    0.0000 O   0  0  0  0  0  0  0  0  0  0  0  0
    2.8224   -1.2762    0.0000 C   0  0  0  0  0  0  0  0  0  0  0  0
    3.5832   -1.4971    0.0000 C   0  0  0  0  0  0  0  0  0  0  0  0
    4.0740   -0.8344    0.0000 C   0  0  0  0  0  0  0  0  0  0  0  0
    2.8224   -0.4172    0.0000 C   0  0  0  0  0  0  0  0  0  0  0  0
    2.0861   -1.6689    0.0000 C   0  0  0  0  0  0  0  0  0  0  0  0
    4.8840   -0.8344    0.0000 C   0  0  0  0  0  0  0  0  0  0  0  0
    3.8532   -2.2824    0.0000 C   0  0  0  0  0  0  0  0  0  0  0  0
    1.3989   -1.2762    0.0000 C   0  0  0  0  0  0  0  0  0  0  0  0
    2.0861   -0.0245    0.0000 C   0  0  0  0  0  0  0  0  0  0  0  0
    1.3989   -0.4172    0.0000 C   0  0  0  0  0  0  0  0  0  0  0  0
    5.3012   -0.1227    0.0000 C   0  0  0  0  0  0  0  0  0  0  0  0
    5.3012   -1.5462    0.0000 C   0  0  0  0  0  0  0  0  0  0  0  0
    0.7117    0.0000    0.0000 C   0  0  0  0  0  0  0  0  0  0  0  0
    6.1111   -0.1227    0.0000 C   0  0  0  0  0  0  0  0  0  0  0  0
    6.1111   -1.5462    0.0000 C   0  0  0  0  0  0  0  0  0  0  0  0
    6.5283   -0.8344    0.0000 C   0  0  0  0  0  0  0  0  0  0  0  0
    0.6872   -2.5033    0.0000 C   0  0  0  0  0  0  0  0  0  0  0  0
    4.8840   -3.2151    0.0000 C   0  0  0  0  0  0  0  0  0  0  0  0
    0.0000   -0.4172    0.0000 C   0  0  0  0  0  0  0  0  0  0  0  0
    0.0000   -2.9205    0.0000 C   0  0  0  0  0  0  0  0  0  0  0  0
    1.3989   -2.9205    0.0000 C   0  0  0  0  0  0  0  0  0  0  0  0
    5.6938   -3.3868    0.0000 C   0  0  0  0  0  0  0  0  0  0  0  0
    0.0000   -1.2271    0.0000 C   0  0  0  0  0  0  0  0  0  0  0  0
  1 21  1  0  0  0  0
  2  8  1  0  0  0  0
  2  9  1  0  0  0  0
  3 13  1  0  0  0  0
  3 22  1  0  0  0  0
  4 12  1  0  0  0  0
  4 23  1  0  0  0  0
  5 12  2  0  0  0  0
  6  7  1  0  0  0  0
  6  9  2  0  0  0  0
  6 10  1  0  0  0  0
  7  8  2  0  0  0  0
  7 12  1  0  0  0  0
  8 11  1  0  0  0  0
  9 14  1  0  0  0  0
 10 13  2  0  0  0  0
 11 16  2  0  0  0  0
 11 17  1  0  0  0  0
 13 15  1  0  0  0  0
 14 15  2  0  0  0  0
 15 18  1  0  0  0  0
 16 19  1  0  0  0  0
 17 20  2  0  0  0  0
 18 24  1  0  0  0  0
 19 21  2  0  0  0  0
 20 21  1  0  0  0  0
 22 25  1  0  0  0  0
 22 26  1  0  0  0  0
 23 27  1  0  0  0  0
 24 28  1  0  0  0  0
M  END
> <PUBCHEM_COMPOUND_ID_TYPE>
0

> <PUBCHEM_TOTAL_CHARGE>
0

> <PUBCHEM_SUBSTANCE_ID>
310936150

> <PUBCHEM_SUBSTANCE_VERSION>
1

> <PUBCHEM_EXT_DATASOURCE_NAME>
4488

> <PUBCHEM_EXT_DATASOURCE_REGID>
SCHEMBL16113760

> <PUBCHEM_SUBSTANCE_COMMENT>
InChI=1S/C23H25FO4/c1-5-7-16-12-20-18(13-19(16)27-14(3)4)21(23(25)26-6-2)22(28-20)15-8-10-17(24)11-9-15/h8-14H,5-7H2,1-4H3
InChIKey=JZASBHUIRCBSCL-UHFFFAOYSA-N

> <PUBCHEM_SUBSTANCE_SYNONYM>
SCHEMBL16113760

> <PUBCHEM_XREF_EXT_ID>
SCHEMBL16113760

> <PUBCHEM_EXT_DATASOURCE_URL>
https://www.surechembl.org/

> <PUBCHEM_EXT_SUBSTANCE_URL>
https://www.surechembl.org/chemical/SCHEMBL16113760

> <PUBCHEM_CID_ASSOCIATIONS>
117604114  1

> <PUBCHEM_COORDINATE_TYPE>
1
3

$$$$
