310946153
  -OEChem-07211613022D

 59 69  0     0  0  0  0  0  0999 V2000
   -0.0856   -8.5741    0.0000 O   0  0  0  0  0  0  0  0  0  0  0  0
   -1.0682  -10.0732    0.0000 N   0  0  0  0  0  0  0  0  0  0  0  0
    0.1693   -9.3588    0.0000 C   0  0  0  0  0  0  0  0  0  0  0  0
    0.9943   -9.3588    0.0000 C   0  0  0  0  0  0  0  0  0  0  0  0
   -3.5252  -11.6737    0.0000 C   0  0  0  0  0  0  0  0  0  0  0  0
   -0.2432  -10.0732    0.0000 C   0  0  0  0  0  0  0  0  0  0  0  0
   -2.7182  -11.5022    0.0000 C   0  0  0  0  0  0  0  0  0  0  0  0
    1.2492   -8.5741    0.0000 C   0  0  0  0  0  0  0  0  0  0  0  0
    0.5818   -8.0892    0.0000 C   0  0  0  0  0  0  0  0  0  0  0  0
   -2.3057  -12.2167    0.0000 C   0  0  0  0  0  0  0  0  0  0  0  0
   -3.6114  -12.4942    0.0000 C   0  0  0  0  0  0  0  0  0  0  0  0
   -2.8577  -12.8297    0.0000 C   0  0  0  0  0  0  0  0  0  0  0  0
   -1.4807  -10.7877    0.0000 C   0  0  0  0  0  0  0  0  0  0  0  0
    0.6680   -7.2687    0.0000 C   0  0  0  0  0  0  0  0  0  0  0  0
   -2.3057  -10.7877    0.0000 C   0  0  0  0  0  0  0  0  0  0  0  0
    1.4068  -10.0732    0.0000 C   0  0  0  0  0  0  0  0  0  0  0  0
    0.9943  -10.7877    0.0000 C   0  0  0  0  0  0  0  0  0  0  0  0
    0.1693  -10.7877    0.0000 C   0  0  0  0  0  0  0  0  0  0  0  0
    2.0029   -8.2386    0.0000 C   0  0  0  0  0  0  0  0  0  0  0  0
   -1.4807   -9.3588    0.0000 C   0  0  0  0  0  0  0  0  0  0  0  0
   -1.4807  -12.2167    0.0000 C   0  0  0  0  0  0  0  0  0  0  0  0
    2.0891   -7.4181    0.0000 C   0  0  0  0  0  0  0  0  0  0  0  0
   -1.0682  -11.5022    0.0000 C   0  0  0  0  0  0  0  0  0  0  0  0
    1.4217   -6.9332    0.0000 C   0  0  0  0  0  0  0  0  0  0  0  0
   -4.2788  -12.9791    0.0000 C   0  0  0  0  0  0  0  0  0  0  0  0
    0.0006   -6.7838    0.0000 C   0  0  0  0  0  0  0  0  0  0  0  0
   -2.7715  -13.6502    0.0000 C   0  0  0  0  0  0  0  0  0  0  0  0
   -3.5252  -10.8487    0.0000 C   0  0  0  0  0  0  0  0  0  0  0  0
   -4.3502  -11.6737    0.0000 C   0  0  0  0  0  0  0  0  0  0  0  0
    1.4068  -11.5022    0.0000 C   0  0  0  0  0  0  0  0  0  0  0  0
    2.8428   -7.0826    0.0000 C   0  0  0  0  0  0  0  0  0  0  0  0
   -1.0682   -8.6443    0.0000 C   0  0  0  0  0  0  0  0  0  0  0  0
   -2.3057   -9.3588    0.0000 C   0  0  0  0  0  0  0  0  0  0  0  0
   -4.1926  -13.7996    0.0000 C   0  0  0  0  0  0  0  0  0  0  0  0
   -3.4389  -14.1351    0.0000 C   0  0  0  0  0  0  0  0  0  0  0  0
    0.0868   -5.9633    0.0000 C   0  0  0  0  0  0  0  0  0  0  0  0
   -0.7531   -7.1194    0.0000 C   0  0  0  0  0  0  0  0  0  0  0  0
    0.9943  -12.2167    0.0000 C   0  0  0  0  0  0  0  0  0  0  0  0
    2.2318  -11.5022    0.0000 C   0  0  0  0  0  0  0  0  0  0  0  0
   -2.3057   -7.9298    0.0000 C   0  0  0  0  0  0  0  0  0  0  0  0
   -1.4807   -7.9298    0.0000 C   0  0  0  0  0  0  0  0  0  0  0  0
   -2.7182   -8.6443    0.0000 C   0  0  0  0  0  0  0  0  0  0  0  0
    3.5103   -7.5675    0.0000 C   0  0  0  0  0  0  0  0  0  0  0  0
    2.9291   -6.2621    0.0000 C   0  0  0  0  0  0  0  0  0  0  0  0
   -0.5806   -5.4784    0.0000 C   0  0  0  0  0  0  0  0  0  0  0  0
   -1.4205   -6.6345    0.0000 C   0  0  0  0  0  0  0  0  0  0  0  0
   -2.7182   -7.2154    0.0000 C   0  0  0  0  0  0  0  0  0  0  0  0
    1.4068  -12.9311    0.0000 C   0  0  0  0  0  0  0  0  0  0  0  0
    2.6443  -12.2167    0.0000 C   0  0  0  0  0  0  0  0  0  0  0  0
   -1.3343   -5.8140    0.0000 C   0  0  0  0  0  0  0  0  0  0  0  0
    4.2639   -7.2319    0.0000 C   0  0  0  0  0  0  0  0  0  0  0  0
    3.6827   -5.9265    0.0000 C   0  0  0  0  0  0  0  0  0  0  0  0
    2.2318  -12.9311    0.0000 C   0  0  0  0  0  0  0  0  0  0  0  0
    4.3502   -6.4114    0.0000 C   0  0  0  0  0  0  0  0  0  0  0  0
   -2.3057   -6.5009    0.0000 C   0  0  0  0  0  0  0  0  0  0  0  0
   -3.5432   -7.2154    0.0000 C   0  0  0  0  0  0  0  0  0  0  0  0
   -2.7182   -5.7864    0.0000 C   0  0  0  0  0  0  0  0  0  0  0  0
   -3.9557   -6.5009    0.0000 C   0  0  0  0  0  0  0  0  0  0  0  0
   -3.5432   -5.7864    0.0000 C   0  0  0  0  0  0  0  0  0  0  0  0
  1  3  1  0  0  0  0
  1  9  1  0  0  0  0
  2  6  1  0  0  0  0
  2 13  1  0  0  0  0
  2 20  1  0  0  0  0
  3  4  2  0  0  0  0
  3  6  1  0  0  0  0
  4  8  1  0  0  0  0
  4 16  1  0  0  0  0
  5  7  1  0  0  0  0
  5 11  1  0  0  0  0
  5 28  1  0  0  0  0
  5 29  1  0  0  0  0
  6 18  2  0  0  0  0
  7 10  2  0  0  0  0
  7 15  1  0  0  0  0
  8  9  2  0  0  0  0
  8 19  1  0  0  0  0
  9 14  1  0  0  0  0
 10 12  1  0  0  0  0
 10 21  1  0  0  0  0
 11 12  2  0  0  0  0
 11 25  1  0  0  0  0
 12 27  1  0  0  0  0
 13 15  2  0  0  0  0
 13 23  1  0  0  0  0
 14 24  2  0  0  0  0
 14 26  1  0  0  0  0
 16 17  2  0  0  0  0
 17 18  1  0  0  0  0
 17 30  1  0  0  0  0
 19 22  2  0  0  0  0
 20 32  2  0  0  0  0
 20 33  1  0  0  0  0
 21 23  2  0  0  0  0
 22 24  1  0  0  0  0
 22 31  1  0  0  0  0
 25 34  2  0  0  0  0
 26 36  2  0  0  0  0
 26 37  1  0  0  0  0
 27 35  2  0  0  0  0
 30 38  2  0  0  0  0
 30 39  1  0  0  0  0
 31 43  2  0  0  0  0
 31 44  1  0  0  0  0
 32 41  1  0  0  0  0
 33 42  2  0  0  0  0
 34 35  1  0  0  0  0
 36 45  1  0  0  0  0
 37 46  2  0  0  0  0
 38 48  1  0  0  0  0
 39 49  2  0  0  0  0
 40 41  2  0  0  0  0
 40 42  1  0  0  0  0
 40 47  1  0  0  0  0
 43 51  1  0  0  0  0
 44 52  2  0  0  0  0
 45 50  2  0  0  0  0
 46 50  1  0  0  0  0
 47 55  2  0  0  0  0
 47 56  1  0  0  0  0
 48 53  2  0  0  0  0
 49 53  1  0  0  0  0
 51 54  2  0  0  0  0
 52 54  1  0  0  0  0
 55 57  1  0  0  0  0
 56 58  2  0  0  0  0
 57 59  2  0  0  0  0
 58 59  1  0  0  0  0
M  END
> <PUBCHEM_COMPOUND_ID_TYPE>
0

> <PUBCHEM_TOTAL_CHARGE>
0

> <PUBCHEM_SUBSTANCE_ID>
310946153

> <PUBCHEM_SUBSTANCE_VERSION>
1

> <PUBCHEM_EXT_DATASOURCE_NAME>
4488

> <PUBCHEM_EXT_DATASOURCE_REGID>
SCHEMBL16124262

> <PUBCHEM_SUBSTANCE_COMMENT>
InChI=1S/C57H41NO/c1-57(2)52-26-16-15-25-47(52)48-32-31-46(37-53(48)57)58(45-29-27-41(28-30-45)38-17-7-3-8-18-38)54-36-44(40-21-11-5-12-22-40)35-51-50-34-43(39-19-9-4-10-20-39)33-49(55(50)59-56(51)54)42-23-13-6-14-24-42/h3-37H,1-2H3
InChIKey=WJHOIKAKAHLMHM-UHFFFAOYSA-N

> <PUBCHEM_SUBSTANCE_SYNONYM>
SCHEMBL16124262

> <PUBCHEM_XREF_EXT_ID>
SCHEMBL16124262

> <PUBCHEM_EXT_DATASOURCE_URL>
https://www.surechembl.org/

> <PUBCHEM_EXT_SUBSTANCE_URL>
https://www.surechembl.org/chemical/SCHEMBL16124262

> <PUBCHEM_CID_ASSOCIATIONS>
117612110  1

> <PUBCHEM_COORDINATE_TYPE>
1
3

$$$$
