310945062
  -OEChem-07211613022D

 32 35  0     0  0  0  0  0  0999 V2000
   -3.4159   -2.3579    0.0000 S   0  0  0  0  0  0  0  0  0  0  0  0
    3.9359   -2.3579    0.0000 O   0  0  0  0  0  0  0  0  0  0  0  0
    4.6531   -1.1207    0.0000 O   0  0  0  0  0  0  0  0  0  0  0  0
   -4.6531   -1.8200    0.0000 N   0  0  0  0  0  0  0  0  0  0  0  0
   -0.4393    0.0807    0.0000 C   0  0  0  0  0  0  0  0  0  0  0  0
   -1.1386   -0.3138    0.0000 C   0  0  0  0  0  0  0  0  0  0  0  0
   -0.4214    0.9055    0.0000 C   0  0  0  0  0  0  0  0  0  0  0  0
    0.3318   -0.3138    0.0000 C   0  0  0  0  0  0  0  0  0  0  0  0
    0.2959    1.3179    0.0000 C   0  0  0  0  0  0  0  0  0  0  0  0
   -2.6090   -1.1386    0.0000 C   0  0  0  0  0  0  0  0  0  0  0  0
   -1.8559    0.0628    0.0000 C   0  0  0  0  0  0  0  0  0  0  0  0
   -1.1566   -1.1386    0.0000 C   0  0  0  0  0  0  0  0  0  0  0  0
   -3.3262   -1.5510    0.0000 C   0  0  0  0  0  0  0  0  0  0  0  0
    0.3138   -1.1566    0.0000 C   0  0  0  0  0  0  0  0  0  0  0  0
    1.0490    0.0628    0.0000 C   0  0  0  0  0  0  0  0  0  0  0  0
   -2.5732   -0.3138    0.0000 C   0  0  0  0  0  0  0  0  0  0  0  0
   -1.8917   -1.5331    0.0000 C   0  0  0  0  0  0  0  0  0  0  0  0
   -1.1386    1.3000    0.0000 C   0  0  0  0  0  0  0  0  0  0  0  0
    1.7483   -1.1386    0.0000 C   0  0  0  0  0  0  0  0  0  0  0  0
    1.0490   -1.5331    0.0000 C   0  0  0  0  0  0  0  0  0  0  0  0
    1.7483   -0.3318    0.0000 C   0  0  0  0  0  0  0  0  0  0  0  0
    1.0310    0.9055    0.0000 C   0  0  0  0  0  0  0  0  0  0  0  0
    0.3318    2.1248    0.0000 C   0  0  0  0  0  0  0  0  0  0  0  0
   -4.0972   -1.2283    0.0000 C   0  0  0  0  0  0  0  0  0  0  0  0
    1.7483    1.3179    0.0000 C   0  0  0  0  0  0  0  0  0  0  0  0
    1.0490    2.5193    0.0000 C   0  0  0  0  0  0  0  0  0  0  0  0
   -4.2407   -2.5193    0.0000 C   0  0  0  0  0  0  0  0  0  0  0  0
    2.5014   -1.5510    0.0000 C   0  0  0  0  0  0  0  0  0  0  0  0
   -1.1386    2.1427    0.0000 C   0  0  0  0  0  0  0  0  0  0  0  0
    1.7483    2.1069    0.0000 C   0  0  0  0  0  0  0  0  0  0  0  0
    3.1828   -1.1566    0.0000 C   0  0  0  0  0  0  0  0  0  0  0  0
    3.9359   -1.5331    0.0000 C   0  0  0  0  0  0  0  0  0  0  0  0
  1 13  1  0  0  0  0
  1 27  1  0  0  0  0
  2 32  2  0  0  0  0
  3 32  1  0  0  0  0
  4 24  1  0  0  0  0
  4 27  2  0  0  0  0
  5  6  1  0  0  0  0
  5  7  2  0  0  0  0
  5  8  1  0  0  0  0
  6 11  2  0  0  0  0
  6 12  1  0  0  0  0
  7  9  1  0  0  0  0
  7 18  1  0  0  0  0
  8 14  2  0  0  0  0
  8 15  1  0  0  0  0
  9 22  2  0  0  0  0
  9 23  1  0  0  0  0
 10 13  1  0  0  0  0
 10 16  2  0  0  0  0
 10 17  1  0  0  0  0
 11 16  1  0  0  0  0
 12 17  2  0  0  0  0
 13 24  2  0  0  0  0
 14 20  1  0  0  0  0
 15 21  2  0  0  0  0
 18 29  1  0  0  0  0
 19 20  2  0  0  0  0
 19 21  1  0  0  0  0
 19 28  1  0  0  0  0
 22 25  1  0  0  0  0
 23 26  2  0  0  0  0
 25 30  2  0  0  0  0
 26 30  1  0  0  0  0
 28 31  2  0  0  0  0
 31 32  1  0  0  0  0
M  END
> <PUBCHEM_COMPOUND_ID_TYPE>
0

> <PUBCHEM_TOTAL_CHARGE>
0

> <PUBCHEM_SUBSTANCE_ID>
310945062

> <PUBCHEM_SUBSTANCE_VERSION>
1

> <PUBCHEM_EXT_DATASOURCE_NAME>
4488

> <PUBCHEM_EXT_DATASOURCE_REGID>
SCHEMBL16123151

> <PUBCHEM_SUBSTANCE_COMMENT>
InChI=1S/C28H23NO2S/c1-2-25(21-6-4-3-5-7-21)28(23-11-8-20(9-12-23)10-17-27(30)31)24-15-13-22(14-16-24)26-18-29-19-32-26/h3-19H,2H2,1H3,(H,30,31)/b17-10+,28-25+
InChIKey=HLVUTNWOBALXNQ-CCUDOUGISA-N

> <PUBCHEM_SUBSTANCE_SYNONYM>
SCHEMBL16123151

> <PUBCHEM_XREF_EXT_ID>
SCHEMBL16123151

> <PUBCHEM_EXT_DATASOURCE_URL>
https://www.surechembl.org/

> <PUBCHEM_EXT_SUBSTANCE_URL>
https://www.surechembl.org/chemical/SCHEMBL16123151

> <PUBCHEM_CID_ASSOCIATIONS>
86271087  1

> <PUBCHEM_COORDINATE_TYPE>
1
3

$$$$
