310930972
  -OEChem-07211613022D

 36 39  0     0  0  0  0  0  0999 V2000
    2.0815   -2.9942    0.0000 S   0  0  0  0  0  0  0  0  0  0  0  0
    2.2707   -2.4747    0.0000 F   0  0  0  0  0  0  0  0  0  0  0  0
    3.8847   -2.8178    0.0000 F   0  0  0  0  0  0  0  0  0  0  0  0
    2.9062   -3.4532    0.0000 F   0  0  0  0  0  0  0  0  0  0  0  0
    2.6361   -1.2872    0.0000 O   0  0  0  0  0  0  0  0  0  0  0  0
   -0.2680   -1.2872    0.0000 O   0  0  0  0  0  0  0  0  0  0  0  0
    4.0338   -1.5843    0.0000 O   0  0  0  0  0  0  0  0  0  0  0  0
   -1.0241    1.3951    0.0000 O   0  0  0  0  0  0  0  0  0  0  0  0
    3.3922    1.3951    0.0000 O   0  0  0  0  0  0  0  0  0  0  0  0
    1.8515   -1.5422    0.0000 N   0  0  0  0  0  0  0  0  0  0  0  0
    0.7716   -2.3268    0.0000 N   0  0  0  0  0  0  0  0  0  0  0  0
   -0.6832   -4.3291    0.0000 N   0  0  0  0  0  0  0  0  0  0  0  0
    1.1841   -1.0572    0.0000 C   0  0  0  0  0  0  0  0  0  0  0  0
    0.5166   -1.5422    0.0000 C   0  0  0  0  0  0  0  0  0  0  0  0
    1.5966   -2.3268    0.0000 C   0  0  0  0  0  0  0  0  0  0  0  0
    0.6320   -0.4441    0.0000 C   0  0  0  0  0  0  0  0  0  0  0  0
    1.7361   -0.4441    0.0000 C   0  0  0  0  0  0  0  0  0  0  0  0
    0.2866   -2.9942    0.0000 C   0  0  0  0  0  0  0  0  0  0  0  0
    0.8870    0.3405    0.0000 C   0  0  0  0  0  0  0  0  0  0  0  0
    1.4812    0.3405    0.0000 C   0  0  0  0  0  0  0  0  0  0  0  0
   -0.1749   -0.6157    0.0000 C   0  0  0  0  0  0  0  0  0  0  0  0
    2.5431   -0.6157    0.0000 C   0  0  0  0  0  0  0  0  0  0  0  0
    3.2492   -1.8393    0.0000 C   0  0  0  0  0  0  0  0  0  0  0  0
    0.6222   -3.7479    0.0000 C   0  0  0  0  0  0  0  0  0  0  0  0
   -0.5338   -2.9080    0.0000 C   0  0  0  0  0  0  0  0  0  0  0  0
    0.3349    0.9536    0.0000 C   0  0  0  0  0  0  0  0  0  0  0  0
    2.0332    0.9536    0.0000 C   0  0  0  0  0  0  0  0  0  0  0  0
   -0.7270   -0.0026    0.0000 C   0  0  0  0  0  0  0  0  0  0  0  0
    3.0951   -0.0026    0.0000 C   0  0  0  0  0  0  0  0  0  0  0  0
    3.0777   -2.6462    0.0000 C   0  0  0  0  0  0  0  0  0  0  0  0
   -0.4720    0.7820    0.0000 C   0  0  0  0  0  0  0  0  0  0  0  0
    2.8402    0.7820    0.0000 C   0  0  0  0  0  0  0  0  0  0  0  0
    0.1373   -4.4153    0.0000 C   0  0  0  0  0  0  0  0  0  0  0  0
   -1.0188   -3.5754    0.0000 C   0  0  0  0  0  0  0  0  0  0  0  0
   -1.8310    1.2236    0.0000 C   0  0  0  0  0  0  0  0  0  0  0  0
    4.1992    1.2236    0.0000 C   0  0  0  0  0  0  0  0  0  0  0  0
  1 15  2  0  0  0  0
  2 30  1  0  0  0  0
  3 30  1  0  0  0  0
  4 30  1  0  0  0  0
  5 10  1  0  0  0  0
  5 23  1  0  0  0  0
  6 14  2  0  0  0  0
  7 23  2  0  0  0  0
  8 31  1  0  0  0  0
  8 35  1  0  0  0  0
  9 32  1  0  0  0  0
  9 36  1  0  0  0  0
 10 13  1  0  0  0  0
 10 15  1  0  0  0  0
 11 14  1  0  0  0  0
 11 15  1  0  0  0  0
 11 18  1  0  0  0  0
 12 33  1  0  0  0  0
 12 34  1  0  0  0  0
 13 14  1  0  0  0  0
 13 16  1  0  0  0  0
 13 17  1  0  0  0  0
 16 19  2  0  0  0  0
 16 21  1  0  0  0  0
 17 20  2  0  0  0  0
 17 22  1  0  0  0  0
 18 24  1  0  0  0  0
 18 25  1  0  0  0  0
 19 26  1  0  0  0  0
 20 27  1  0  0  0  0
 21 28  2  0  0  0  0
 22 29  2  0  0  0  0
 23 30  1  0  0  0  0
 24 33  1  0  0  0  0
 25 34  1  0  0  0  0
 26 31  2  0  0  0  0
 27 32  2  0  0  0  0
 28 31  1  0  0  0  0
 29 32  1  0  0  0  0
M  END
> <PUBCHEM_COMPOUND_ID_TYPE>
0

> <PUBCHEM_TOTAL_CHARGE>
0

> <PUBCHEM_SUBSTANCE_ID>
310930972

> <PUBCHEM_SUBSTANCE_VERSION>
1

> <PUBCHEM_EXT_DATASOURCE_NAME>
4488

> <PUBCHEM_EXT_DATASOURCE_REGID>
SCHEMBL16108272

> <PUBCHEM_SUBSTANCE_COMMENT>
InChI=1S/C24H24F3N3O5S/c1-33-18-7-3-15(4-8-18)23(16-5-9-19(34-2)10-6-16)20(31)29(17-11-13-28-14-12-17)22(36)30(23)35-21(32)24(25,26)27/h3-10,17,28H,11-14H2,1-2H3
InChIKey=CJPCOQMHIAJDQI-UHFFFAOYSA-N

> <PUBCHEM_SUBSTANCE_SYNONYM>
SCHEMBL16108272

> <PUBCHEM_XREF_EXT_ID>
SCHEMBL16108272

> <PUBCHEM_EXT_DATASOURCE_URL>
https://www.surechembl.org/

> <PUBCHEM_EXT_SUBSTANCE_URL>
https://www.surechembl.org/chemical/SCHEMBL16108272

> <PUBCHEM_CID_ASSOCIATIONS>
117599912  1

> <PUBCHEM_COORDINATE_TYPE>
1
3

$$$$
