310932899
  -OEChem-07211613022D

 18 18  0     0  0  0  0  0  0999 V2000
    2.8210   -1.6501    0.0000 O   0  0  0  0  0  0  0  0  0  0  0  0
    2.1291   -0.4258    0.0000 O   0  0  0  0  0  0  0  0  0  0  0  0
    2.1025   -2.8743    0.0000 N   0  0  0  0  0  0  0  0  0  0  0  0
    0.6919   -0.4258    0.0000 N   0  0  0  0  0  0  0  0  0  0  0  0
    2.1291   -5.3227    0.0000 N   0  0  0  0  0  0  0  0  0  0  0  0
    1.4105   -1.6501    0.0000 C   0  0  0  0  0  0  0  0  0  0  0  0
    1.4105   -2.4751    0.0000 C   0  0  0  0  0  0  0  0  0  0  0  0
    2.1291   -1.2508    0.0000 C   0  0  0  0  0  0  0  0  0  0  0  0
    0.6919   -2.8743    0.0000 C   0  0  0  0  0  0  0  0  0  0  0  0
    0.6919   -1.2242    0.0000 C   0  0  0  0  0  0  0  0  0  0  0  0
    1.4371   -4.0985    0.0000 C   0  0  0  0  0  0  0  0  0  0  0  0
    2.1557   -3.6993    0.0000 C   0  0  0  0  0  0  0  0  0  0  0  0
    0.7185   -3.6993    0.0000 C   0  0  0  0  0  0  0  0  0  0  0  0
    1.4371   -4.9235    0.0000 C   0  0  0  0  0  0  0  0  0  0  0  0
    3.5396   -1.2508    0.0000 C   0  0  0  0  0  0  0  0  0  0  0  0
    1.4105    0.0000    0.0000 C   0  0  0  0  0  0  0  0  0  0  0  0
    0.0000    0.0000    0.0000 C   0  0  0  0  0  0  0  0  0  0  0  0
    3.5396   -0.4258    0.0000 C   0  0  0  0  0  0  0  0  0  0  0  0
  1  8  1  0  0  0  0
  1 15  1  0  0  0  0
  2  8  2  0  0  0  0
  3  7  1  0  0  0  0
  3 12  2  0  0  0  0
  4 10  1  0  0  0  0
  4 16  1  0  0  0  0
  4 17  1  0  0  0  0
  5 14  3  0  0  0  0
  6  7  1  0  0  0  0
  6  8  1  0  0  0  0
  6 10  2  0  0  0  0
  7  9  2  0  0  0  0
  9 13  1  0  0  0  0
 11 12  1  0  0  0  0
 11 13  2  0  0  0  0
 11 14  1  0  0  0  0
 15 18  1  0  0  0  0
M  END
> <PUBCHEM_COMPOUND_ID_TYPE>
0

> <PUBCHEM_TOTAL_CHARGE>
0

> <PUBCHEM_SUBSTANCE_ID>
310932899

> <PUBCHEM_SUBSTANCE_VERSION>
1

> <PUBCHEM_EXT_DATASOURCE_NAME>
4488

> <PUBCHEM_EXT_DATASOURCE_REGID>
SCHEMBL16110293

> <PUBCHEM_SUBSTANCE_COMMENT>
InChI=1S/C13H15N3O2/c1-4-18-13(17)11(9-16(2)3)12-6-5-10(7-14)8-15-12/h5-6,8-9H,4H2,1-3H3/b11-9-
InChIKey=LMBZAIAXPPWUKW-LUAWRHEFSA-N

> <PUBCHEM_SUBSTANCE_SYNONYM>
SCHEMBL16110293

> <PUBCHEM_XREF_EXT_ID>
SCHEMBL16110293

> <PUBCHEM_EXT_DATASOURCE_URL>
https://www.surechembl.org/

> <PUBCHEM_EXT_SUBSTANCE_URL>
https://www.surechembl.org/chemical/SCHEMBL16110293

> <PUBCHEM_CID_ASSOCIATIONS>
117601381  1

> <PUBCHEM_COORDINATE_TYPE>
1
3

$$$$
