310941916
  -OEChem-07211613022D

 31 34  0     0  0  0  0  0  0999 V2000
   -1.3712   -3.3194    0.0000 O   0  0  0  0  0  0  0  0  0  0  0  0
    2.2399   -1.1230    0.0000 O   0  0  0  0  0  0  0  0  0  0  0  0
    2.6122   -2.5004    0.0000 O   0  0  0  0  0  0  0  0  0  0  0  0
   -3.3939   -1.2967    0.0000 O   0  0  0  0  0  0  0  0  0  0  0  0
    0.5646    3.3194    0.0000 O   0  0  0  0  0  0  0  0  0  0  0  0
    0.5770   -1.6442    0.0000 N   0  0  0  0  0  0  0  0  0  0  0  0
    0.1675   -2.9224    0.0000 N   0  0  0  0  0  0  0  0  0  0  0  0
    0.9989   -2.9224    0.0000 N   0  0  0  0  0  0  0  0  0  0  0  0
    1.2967    0.4281    0.0000 N   0  0  0  0  0  0  0  0  0  0  0  0
    0.5770    1.6690    0.0000 N   0  0  0  0  0  0  0  0  0  0  0  0
   -0.0931   -2.1405    0.0000 C   0  0  0  0  0  0  0  0  0  0  0  0
   -0.9865   -1.9172    0.0000 C   0  0  0  0  0  0  0  0  0  0  0  0
    1.2471   -2.1282    0.0000 C   0  0  0  0  0  0  0  0  0  0  0  0
    0.5770   -0.8128    0.0000 C   0  0  0  0  0  0  0  0  0  0  0  0
   -1.5698   -2.5128    0.0000 C   0  0  0  0  0  0  0  0  0  0  0  0
   -1.1975   -1.1354    0.0000 C   0  0  0  0  0  0  0  0  0  0  0  0
   -2.0041   -0.9121    0.0000 C   0  0  0  0  0  0  0  0  0  0  0  0
    2.0289   -1.9296    0.0000 C   0  0  0  0  0  0  0  0  0  0  0  0
   -2.5749   -1.4953    0.0000 C   0  0  0  0  0  0  0  0  0  0  0  0
    1.2843   -0.4157    0.0000 C   0  0  0  0  0  0  0  0  0  0  0  0
   -0.1427   -0.4033    0.0000 C   0  0  0  0  0  0  0  0  0  0  0  0
   -2.3640   -2.2895    0.0000 C   0  0  0  0  0  0  0  0  0  0  0  0
    0.5646    0.8376    0.0000 C   0  0  0  0  0  0  0  0  0  0  0  0
   -0.1303    0.4281    0.0000 C   0  0  0  0  0  0  0  0  0  0  0  0
   -2.2150   -0.1179    0.0000 C   0  0  0  0  0  0  0  0  0  0  0  0
    1.2843    2.0662    0.0000 C   0  0  0  0  0  0  0  0  0  0  0  0
   -0.1427    2.0785    0.0000 C   0  0  0  0  0  0  0  0  0  0  0  0
   -3.0092    0.0806    0.0000 C   0  0  0  0  0  0  0  0  0  0  0  0
   -1.6318    0.4654    0.0000 C   0  0  0  0  0  0  0  0  0  0  0  0
    1.2843    2.9100    0.0000 C   0  0  0  0  0  0  0  0  0  0  0  0
   -0.1303    2.9100    0.0000 C   0  0  0  0  0  0  0  0  0  0  0  0
  1 15  1  0  0  0  0
  2 18  2  0  0  0  0
  3 18  1  0  0  0  0
  4 19  1  0  0  0  0
  5 30  1  0  0  0  0
  5 31  1  0  0  0  0
  6 11  1  0  0  0  0
  6 13  1  0  0  0  0
  6 14  1  0  0  0  0
  7  8  1  0  0  0  0
  7 11  2  0  0  0  0
  8 13  2  0  0  0  0
  9 20  1  0  0  0  0
  9 23  2  0  0  0  0
 10 23  1  0  0  0  0
 10 26  1  0  0  0  0
 10 27  1  0  0  0  0
 11 12  1  0  0  0  0
 12 15  1  0  0  0  0
 12 16  2  0  0  0  0
 13 18  1  0  0  0  0
 14 20  2  0  0  0  0
 14 21  1  0  0  0  0
 15 22  2  0  0  0  0
 16 17  1  0  0  0  0
 17 19  2  0  0  0  0
 17 25  1  0  0  0  0
 19 22  1  0  0  0  0
 21 24  2  0  0  0  0
 23 24  1  0  0  0  0
 25 28  1  0  0  0  0
 25 29  1  0  0  0  0
 26 30  1  0  0  0  0
 27 31  1  0  0  0  0
M  END
> <PUBCHEM_COMPOUND_ID_TYPE>
0

> <PUBCHEM_TOTAL_CHARGE>
0

> <PUBCHEM_SUBSTANCE_ID>
310941916

> <PUBCHEM_SUBSTANCE_VERSION>
1

> <PUBCHEM_EXT_DATASOURCE_NAME>
4488

> <PUBCHEM_EXT_DATASOURCE_REGID>
SCHEMBL16119948

> <PUBCHEM_SUBSTANCE_COMMENT>
InChI=1S/C21H23N5O5/c1-12(2)14-9-15(17(28)10-16(14)27)19-23-24-20(21(29)30)26(19)13-3-4-18(22-11-13)25-5-7-31-8-6-25/h3-4,9-12,27-28H,5-8H2,1-2H3,(H,29,30)
InChIKey=UVZXVDPYDNXLGK-UHFFFAOYSA-N

> <PUBCHEM_SUBSTANCE_SYNONYM>
SCHEMBL16119948

> <PUBCHEM_XREF_EXT_ID>
SCHEMBL16119948

> <PUBCHEM_EXT_DATASOURCE_URL>
https://www.surechembl.org/

> <PUBCHEM_EXT_SUBSTANCE_URL>
https://www.surechembl.org/chemical/SCHEMBL16119948

> <PUBCHEM_CID_ASSOCIATIONS>
117608648  1

> <PUBCHEM_COORDINATE_TYPE>
1
3

$$$$
