310944918
  -OEChem-07211613022D

 37 41  0     0  0  0  0  0  0999 V2000
    2.4495    2.3789    0.0000 Cl  0  0  0  0  0  0  0  0  0  0  0  0
    3.8822   -2.5734    0.0000 O   0  0  0  0  0  0  0  0  0  0  0  0
    4.5897   -1.3354    0.0000 O   0  0  0  0  0  0  0  0  0  0  0  0
   -1.1054    2.7503    0.0000 N   0  0  0  0  0  0  0  0  0  0  0  0
   -4.5897   -2.0251    0.0000 N   0  0  0  0  0  0  0  0  0  0  0  0
   -4.1829   -2.7503    0.0000 N   0  0  0  0  0  0  0  0  0  0  0  0
   -0.4156    0.7163    0.0000 C   0  0  0  0  0  0  0  0  0  0  0  0
   -0.4334   -0.1150    0.0000 C   0  0  0  0  0  0  0  0  0  0  0  0
    0.2918    1.1231    0.0000 C   0  0  0  0  0  0  0  0  0  0  0  0
   -1.1761    1.1408    0.0000 C   0  0  0  0  0  0  0  0  0  0  0  0
   -1.1231   -0.5218    0.0000 C   0  0  0  0  0  0  0  0  0  0  0  0
    0.3095   -0.5218    0.0000 C   0  0  0  0  0  0  0  0  0  0  0  0
    0.3095    1.9543    0.0000 C   0  0  0  0  0  0  0  0  0  0  0  0
    1.0170    0.7163    0.0000 C   0  0  0  0  0  0  0  0  0  0  0  0
   -1.9190    0.9108    0.0000 C   0  0  0  0  0  0  0  0  0  0  0  0
   -1.3530    1.9013    0.0000 C   0  0  0  0  0  0  0  0  0  0  0  0
   -1.8659   -0.1327    0.0000 C   0  0  0  0  0  0  0  0  0  0  0  0
   -1.1408   -1.3530    0.0000 C   0  0  0  0  0  0  0  0  0  0  0  0
    0.3095   -1.3707    0.0000 C   0  0  0  0  0  0  0  0  0  0  0  0
    0.9993   -0.1327    0.0000 C   0  0  0  0  0  0  0  0  0  0  0  0
   -2.5734   -1.3530    0.0000 C   0  0  0  0  0  0  0  0  0  0  0  0
    0.9816    2.3435    0.0000 C   0  0  0  0  0  0  0  0  0  0  0  0
   -2.1312    1.6891    0.0000 C   0  0  0  0  0  0  0  0  0  0  0  0
    1.7422    1.9543    0.0000 C   0  0  0  0  0  0  0  0  0  0  0  0
   -2.5380   -0.5218    0.0000 C   0  0  0  0  0  0  0  0  0  0  0  0
   -1.8482   -1.7598    0.0000 C   0  0  0  0  0  0  0  0  0  0  0  0
    1.7244    1.1231    0.0000 C   0  0  0  0  0  0  0  0  0  0  0  0
   -0.4156    2.3789    0.0000 C   0  0  0  0  0  0  0  0  0  0  0  0
   -3.2809   -1.7598    0.0000 C   0  0  0  0  0  0  0  0  0  0  0  0
    1.7244   -1.3530    0.0000 C   0  0  0  0  0  0  0  0  0  0  0  0
    1.0170   -1.7598    0.0000 C   0  0  0  0  0  0  0  0  0  0  0  0
    1.7244   -0.5394    0.0000 C   0  0  0  0  0  0  0  0  0  0  0  0
   -4.0414   -1.4415    0.0000 C   0  0  0  0  0  0  0  0  0  0  0  0
   -3.3693   -2.5911    0.0000 C   0  0  0  0  0  0  0  0  0  0  0  0
    2.4495   -1.7775    0.0000 C   0  0  0  0  0  0  0  0  0  0  0  0
    3.1394   -1.3707    0.0000 C   0  0  0  0  0  0  0  0  0  0  0  0
    3.8822   -1.7422    0.0000 C   0  0  0  0  0  0  0  0  0  0  0  0
  1 24  1  0  0  0  0
  2 37  2  0  0  0  0
  3 37  1  0  0  0  0
  4 28  3  0  0  0  0
  5  6  1  0  0  0  0
  5 33  2  0  0  0  0
  6 34  1  0  0  0  0
  7  8  2  0  0  0  0
  7  9  1  0  0  0  0
  7 10  1  0  0  0  0
  8 11  1  0  0  0  0
  8 12  1  0  0  0  0
  9 13  1  0  0  0  0
  9 14  2  0  0  0  0
 10 15  1  0  0  0  0
 10 16  1  0  0  0  0
 11 17  2  0  0  0  0
 11 18  1  0  0  0  0
 12 19  2  0  0  0  0
 12 20  1  0  0  0  0
 13 22  2  0  0  0  0
 13 28  1  0  0  0  0
 14 27  1  0  0  0  0
 15 23  1  0  0  0  0
 16 23  1  0  0  0  0
 17 25  1  0  0  0  0
 18 26  2  0  0  0  0
 19 31  1  0  0  0  0
 20 32  2  0  0  0  0
 21 25  2  0  0  0  0
 21 26  1  0  0  0  0
 21 29  1  0  0  0  0
 22 24  1  0  0  0  0
 24 27  2  0  0  0  0
 29 33  1  0  0  0  0
 29 34  2  0  0  0  0
 30 31  2  0  0  0  0
 30 32  1  0  0  0  0
 30 35  1  0  0  0  0
 35 36  2  0  0  0  0
 36 37  1  0  0  0  0
M  END
> <PUBCHEM_COMPOUND_ID_TYPE>
0

> <PUBCHEM_TOTAL_CHARGE>
0

> <PUBCHEM_SUBSTANCE_ID>
310944918

> <PUBCHEM_SUBSTANCE_VERSION>
1

> <PUBCHEM_EXT_DATASOURCE_NAME>
4488

> <PUBCHEM_EXT_DATASOURCE_REGID>
SCHEMBL16123003

> <PUBCHEM_SUBSTANCE_COMMENT>
InChI=1S/C31H24ClN3O2/c32-27-13-14-28(25(16-27)17-33)31(22-2-1-3-22)30(23-7-4-20(5-8-23)6-15-29(36)37)24-11-9-21(10-12-24)26-18-34-35-19-26/h4-16,18-19,22H,1-3H2,(H,34,35)(H,36,37)/b15-6+,31-30+
InChIKey=UEAIFCIWPJJBOV-PEACJXIOSA-N

> <PUBCHEM_SUBSTANCE_SYNONYM>
SCHEMBL16123003

> <PUBCHEM_XREF_EXT_ID>
SCHEMBL16123003

> <PUBCHEM_EXT_DATASOURCE_URL>
https://www.surechembl.org/

> <PUBCHEM_EXT_SUBSTANCE_URL>
https://www.surechembl.org/chemical/SCHEMBL16123003

> <PUBCHEM_CID_ASSOCIATIONS>
86271646  1

> <PUBCHEM_COORDINATE_TYPE>
1
3

$$$$
