310949516
  -OEChem-07211613022D

 27 29  0     0  0  0  0  0  0999 V2000
   -0.4189    1.0551    0.0000 S   0  0  0  0  0  0  0  0  0  0  0  0
    1.7533    2.3118    0.0000 S   0  0  0  0  0  0  0  0  0  0  0  0
    2.4981   -3.1032    0.0000 F   0  0  0  0  0  0  0  0  0  0  0  0
   -0.8224    1.7843    0.0000 O   0  0  0  0  0  0  0  0  0  0  0  0
    0.0155    0.3413    0.0000 O   0  0  0  0  0  0  0  0  0  0  0  0
    2.0325    3.1032    0.0000 O   0  0  0  0  0  0  0  0  0  0  0  0
    2.5756    2.1722    0.0000 O   0  0  0  0  0  0  0  0  0  0  0  0
   -1.1171   -1.8619    0.0000 O   0  0  0  0  0  0  0  0  0  0  0  0
    0.3103    1.4896    0.0000 N   0  0  0  0  0  0  0  0  0  0  0  0
   -0.4034   -0.6051    0.0000 N   0  0  0  0  0  0  0  0  0  0  0  0
   -1.1326    0.6361    0.0000 C   0  0  0  0  0  0  0  0  0  0  0  0
   -1.1326   -0.1862    0.0000 C   0  0  0  0  0  0  0  0  0  0  0  0
    0.3103    2.3274    0.0000 C   0  0  0  0  0  0  0  0  0  0  0  0
    1.0396    1.0706    0.0000 C   0  0  0  0  0  0  0  0  0  0  0  0
   -1.8619    1.0396    0.0000 C   0  0  0  0  0  0  0  0  0  0  0  0
    1.0085    2.7308    0.0000 C   0  0  0  0  0  0  0  0  0  0  0  0
    1.7533    1.4740    0.0000 C   0  0  0  0  0  0  0  0  0  0  0  0
   -1.8619   -0.6051    0.0000 C   0  0  0  0  0  0  0  0  0  0  0  0
   -0.4034   -1.4275    0.0000 C   0  0  0  0  0  0  0  0  0  0  0  0
   -2.5756    0.6206    0.0000 C   0  0  0  0  0  0  0  0  0  0  0  0
   -2.5601   -0.2017    0.0000 C   0  0  0  0  0  0  0  0  0  0  0  0
    0.3413   -1.8775    0.0000 C   0  0  0  0  0  0  0  0  0  0  0  0
    0.3413   -2.6997    0.0000 C   0  0  0  0  0  0  0  0  0  0  0  0
    1.0240   -1.4585    0.0000 C   0  0  0  0  0  0  0  0  0  0  0  0
    1.7688   -2.6842    0.0000 C   0  0  0  0  0  0  0  0  0  0  0  0
    1.0706   -3.1032    0.0000 C   0  0  0  0  0  0  0  0  0  0  0  0
    1.7688   -1.8619    0.0000 C   0  0  0  0  0  0  0  0  0  0  0  0
  1  4  2  0  0  0  0
  1  5  2  0  0  0  0
  1  9  1  0  0  0  0
  1 11  1  0  0  0  0
  2  6  2  0  0  0  0
  2  7  2  0  0  0  0
  2 16  1  0  0  0  0
  2 17  1  0  0  0  0
  3 25  1  0  0  0  0
  8 19  2  0  0  0  0
  9 13  1  0  0  0  0
  9 14  1  0  0  0  0
 10 12  1  0  0  0  0
 10 19  1  0  0  0  0
 11 12  1  0  0  0  0
 11 15  2  0  0  0  0
 12 18  2  0  0  0  0
 13 16  1  0  0  0  0
 14 17  1  0  0  0  0
 15 20  1  0  0  0  0
 18 21  1  0  0  0  0
 19 22  1  0  0  0  0
 20 21  2  0  0  0  0
 22 23  2  0  0  0  0
 22 24  1  0  0  0  0
 23 26  1  0  0  0  0
 24 27  2  0  0  0  0
 25 26  2  0  0  0  0
 25 27  1  0  0  0  0
M  END
> <PUBCHEM_COMPOUND_ID_TYPE>
0

> <PUBCHEM_TOTAL_CHARGE>
0

> <PUBCHEM_SUBSTANCE_ID>
310949516

> <PUBCHEM_SUBSTANCE_VERSION>
1

> <PUBCHEM_EXT_DATASOURCE_NAME>
4488

> <PUBCHEM_EXT_DATASOURCE_REGID>
SCHEMBL16127711

> <PUBCHEM_SUBSTANCE_COMMENT>
InChI=1S/C17H17FN2O5S2/c18-14-7-5-13(6-8-14)17(21)19-15-3-1-2-4-16(15)27(24,25)20-9-11-26(22,23)12-10-20/h1-8H,9-12H2,(H,19,21)
InChIKey=QQCZYZUUKMUJEP-UHFFFAOYSA-N

> <PUBCHEM_SUBSTANCE_SYNONYM>
SCHEMBL16127711

> <PUBCHEM_XREF_EXT_ID>
SCHEMBL16127711

> <PUBCHEM_EXT_DATASOURCE_URL>
https://www.surechembl.org/

> <PUBCHEM_EXT_SUBSTANCE_URL>
https://www.surechembl.org/chemical/SCHEMBL16127711

> <PUBCHEM_CID_ASSOCIATIONS>
117614952  1

> <PUBCHEM_COORDINATE_TYPE>
1
3

$$$$
