310945336
  -OEChem-07211613022D

 23 25  0     0  0  0  0  0  0999 V2000
   -3.7340   -0.8972    0.0000 Cl  0  0  0  0  0  0  0  0  0  0  0  0
   -2.1660   -0.6709    0.0000 S   0  0  0  0  0  0  0  0  0  0  0  0
    0.4203    2.1095    0.0000 F   0  0  0  0  0  0  0  0  0  0  0  0
    1.8266    2.1095    0.0000 F   0  0  0  0  0  0  0  0  0  0  0  0
    1.8913    1.4629    0.0000 F   0  0  0  0  0  0  0  0  0  0  0  0
    2.0044   -1.7862    0.0000 F   0  0  0  0  0  0  0  0  0  0  0  0
    3.7340   -0.3475    0.0000 F   0  0  0  0  0  0  0  0  0  0  0  0
    2.7641   -2.1095    0.0000 F   0  0  0  0  0  0  0  0  0  0  0  0
   -0.3879    0.6870    0.0000 N   0  0  0  0  0  0  0  0  0  0  0  0
    1.7943    0.4283    0.0000 N   0  0  0  0  0  0  0  0  0  0  0  0
    1.0183   -0.8972    0.0000 N   0  0  0  0  0  0  0  0  0  0  0  0
   -0.3879   -0.6709    0.0000 N   0  0  0  0  0  0  0  0  0  0  0  0
    0.3879    0.4122    0.0000 C   0  0  0  0  0  0  0  0  0  0  0  0
    1.0831    0.8325    0.0000 C   0  0  0  0  0  0  0  0  0  0  0  0
    0.3717   -0.4283    0.0000 C   0  0  0  0  0  0  0  0  0  0  0  0
    1.7781   -0.4283    0.0000 C   0  0  0  0  0  0  0  0  0  0  0  0
   -0.8729   -0.0081    0.0000 C   0  0  0  0  0  0  0  0  0  0  0  0
    1.1153    1.6568    0.0000 C   0  0  0  0  0  0  0  0  0  0  0  0
    2.7479   -0.9942    0.0000 C   0  0  0  0  0  0  0  0  0  0  0  0
   -1.6810    0.0081    0.0000 C   0  0  0  0  0  0  0  0  0  0  0  0
   -2.1338    0.6385    0.0000 C   0  0  0  0  0  0  0  0  0  0  0  0
   -2.9258   -0.4122    0.0000 C   0  0  0  0  0  0  0  0  0  0  0  0
   -2.8935    0.4122    0.0000 C   0  0  0  0  0  0  0  0  0  0  0  0
  1 22  1  0  0  0  0
  2 20  1  0  0  0  0
  2 22  1  0  0  0  0
  3 18  1  0  0  0  0
  4 18  1  0  0  0  0
  5 18  1  0  0  0  0
  6 19  1  0  0  0  0
  7 19  1  0  0  0  0
  8 19  1  0  0  0  0
  9 13  1  0  0  0  0
  9 17  2  0  0  0  0
 10 14  2  0  0  0  0
 10 16  1  0  0  0  0
 11 15  1  0  0  0  0
 11 16  2  0  0  0  0
 12 15  1  0  0  0  0
 12 17  1  0  0  0  0
 13 14  1  0  0  0  0
 13 15  2  0  0  0  0
 14 18  1  0  0  0  0
 16 19  1  0  0  0  0
 17 20  1  0  0  0  0
 20 21  2  0  0  0  0
 21 23  1  0  0  0  0
 22 23  2  0  0  0  0
M  END
> <PUBCHEM_COMPOUND_ID_TYPE>
0

> <PUBCHEM_TOTAL_CHARGE>
0

> <PUBCHEM_SUBSTANCE_ID>
310945336

> <PUBCHEM_SUBSTANCE_VERSION>
1

> <PUBCHEM_EXT_DATASOURCE_NAME>
4488

> <PUBCHEM_EXT_DATASOURCE_REGID>
SCHEMBL16123434

> <PUBCHEM_SUBSTANCE_COMMENT>
InChI=1S/C11H3ClF6N4S/c12-4-2-1-3(23-4)7-19-5-6(10(13,14)15)20-9(11(16,17)18)22-8(5)21-7/h1-2H,(H,19,20,21,22)
InChIKey=LPSTYOODXMJVAL-UHFFFAOYSA-N

> <PUBCHEM_SUBSTANCE_SYNONYM>
SCHEMBL16123434

> <PUBCHEM_XREF_EXT_ID>
SCHEMBL16123434

> <PUBCHEM_EXT_DATASOURCE_URL>
https://www.surechembl.org/

> <PUBCHEM_EXT_SUBSTANCE_URL>
https://www.surechembl.org/chemical/SCHEMBL16123434

> <PUBCHEM_CID_ASSOCIATIONS>
117611395  1

> <PUBCHEM_COORDINATE_TYPE>
1
3

$$$$
