310934924
  -OEChem-07211613022D

 40 44  0     1  0  0  0  0  0999 V2000
    0.0000   -9.2674    0.0000 F   0  0  0  0  0  0  0  0  0  0  0  0
    5.6531   -1.1121    0.0000 O   0  0  0  0  0  0  0  0  0  0  0  0
    6.3945   -3.1973    0.0000 O   0  0  0  0  0  0  0  0  0  0  0  0
    7.0896   -1.9462    0.0000 O   0  0  0  0  0  0  0  0  0  0  0  0
    3.5216   -3.1973    0.0000 N   0  0  0  0  0  0  0  0  0  0  0  0
    5.6531   -3.6143    0.0000 N   0  0  0  0  0  0  0  0  0  0  0  0
    2.9193   -3.7533    0.0000 N   0  0  0  0  0  0  0  0  0  0  0  0
    2.8266   -5.1898    0.0000 N   0  0  0  0  0  0  0  0  0  0  0  0
    2.0388   -5.2825    0.0000 N   0  0  0  0  0  0  0  0  0  0  0  0
    4.9581   -3.1973    0.0000 C   0  0  0  0  0  0  0  0  0  0  0  0
    4.2630   -3.5680    0.0000 C   0  0  0  0  0  0  0  0  0  0  0  0
    4.9581   -2.3632    0.0000 C   0  0  0  0  0  0  0  0  0  0  0  0
    4.2630   -1.9462    0.0000 C   0  0  0  0  0  0  0  0  0  0  0  0
    3.2436   -4.4947    0.0000 C   0  0  0  0  0  0  0  0  0  0  0  0
    4.0777   -4.4020    0.0000 C   0  0  0  0  0  0  0  0  0  0  0  0
    5.6531   -1.9462    0.0000 C   0  0  3  0  0  0  0  0  0  0  0  0
    3.5216   -2.3632    0.0000 C   0  0  0  0  0  0  0  0  0  0  0  0
    6.5335   -3.3363    0.0000 C   0  0  0  0  0  0  0  0  0  0  0  0
    5.6531   -4.4020    0.0000 C   0  0  0  0  0  0  0  0  0  0  0  0
    6.3945   -2.3632    0.0000 C   0  0  0  0  0  0  0  0  0  0  0  0
    7.0896   -4.4484    0.0000 C   0  0  0  0  0  0  0  0  0  0  0  0
    3.1973   -5.9311    0.0000 C   0  0  0  0  0  0  0  0  0  0  0  0
    4.2630   -1.1121    0.0000 C   0  0  0  0  0  0  0  0  0  0  0  0
    7.0896   -3.5680    0.0000 C   0  0  0  0  0  0  0  0  0  0  0  0
    6.3482   -4.8191    0.0000 C   0  0  0  0  0  0  0  0  0  0  0  0
    4.9581   -0.6950    0.0000 C   0  0  0  0  0  0  0  0  0  0  0  0
    2.5949   -6.4872    0.0000 C   0  0  0  0  0  0  0  0  0  0  0  0
    1.8535   -6.1165    0.0000 C   0  0  0  0  0  0  0  0  0  0  0  0
    2.6875   -7.3213    0.0000 C   0  0  0  0  0  0  0  0  0  0  0  0
    7.7846   -4.8191    0.0000 C   0  0  0  0  0  0  0  0  0  0  0  0
    7.0896   -5.2361    0.0000 C   0  0  0  0  0  0  0  0  0  0  0  0
    4.2630   -0.2780    0.0000 C   0  0  0  0  0  0  0  0  0  0  0  0
    5.3751    0.0000    0.0000 C   0  0  0  0  0  0  0  0  0  0  0  0
    4.5410   -1.3901    0.0000 C   0  0  0  0  0  0  0  0  0  0  0  0
    2.0388   -7.8310    0.0000 C   0  0  0  0  0  0  0  0  0  0  0  0
    1.2511   -7.4603    0.0000 C   0  0  0  0  0  0  0  0  0  0  0  0
    2.1315   -8.6187    0.0000 C   0  0  0  0  0  0  0  0  0  0  0  0
    0.6024   -7.9700    0.0000 C   0  0  0  0  0  0  0  0  0  0  0  0
    1.4365   -9.1284    0.0000 C   0  0  0  0  0  0  0  0  0  0  0  0
    0.6950   -8.8041    0.0000 C   0  0  0  0  0  0  0  0  0  0  0  0
  1 40  1  0  0  0  0
 16  2  1  6  0  0  0
  2 26  1  0  0  0  0
  3 20  2  0  0  0  0
  4 20  1  0  0  0  0
  5  7  1  0  0  0  0
  5 11  1  0  0  0  0
  5 17  1  0  0  0  0
  6 10  1  0  0  0  0
  6 18  1  0  0  0  0
  6 19  1  0  0  0  0
  7 14  2  0  0  0  0
  8  9  1  0  0  0  0
  8 14  1  0  0  0  0
  8 22  1  0  0  0  0
  9 28  2  0  0  0  0
 10 11  1  0  0  0  0
 10 12  2  0  0  0  0
 11 15  2  0  0  0  0
 12 13  1  0  0  0  0
 12 16  1  0  0  0  0
 13 17  2  0  0  0  0
 13 23  1  0  0  0  0
 14 15  1  0  0  0  0
 16 20  1  0  0  0  0
 18 24  1  0  0  0  0
 19 25  1  0  0  0  0
 21 24  1  0  0  0  0
 21 25  1  0  0  0  0
 21 30  1  0  0  0  0
 21 31  1  0  0  0  0
 22 27  2  0  0  0  0
 26 32  1  0  0  0  0
 26 33  1  0  0  0  0
 26 34  1  0  0  0  0
 27 28  1  0  0  0  0
 27 29  1  0  0  0  0
 29 35  1  0  0  0  0
 35 36  2  0  0  0  0
 35 37  1  0  0  0  0
 36 38  1  0  0  0  0
 37 39  2  0  0  0  0
 38 40  2  0  0  0  0
 39 40  1  0  0  0  0
M  END
> <PUBCHEM_COMPOUND_ID_TYPE>
0

> <PUBCHEM_TOTAL_CHARGE>
0

> <PUBCHEM_SUBSTANCE_ID>
310934924

> <PUBCHEM_SUBSTANCE_VERSION>
1

> <PUBCHEM_EXT_DATASOURCE_NAME>
4488

> <PUBCHEM_EXT_DATASOURCE_REGID>
SCHEMBL16112437

> <PUBCHEM_SUBSTANCE_COMMENT>
InChI=1S/C31H38FN5O3/c1-20-18-36-24(16-25(34-36)37-19-22(17-33-37)15-21-7-9-23(32)10-8-21)27(35-13-11-31(5,6)12-14-35)26(20)28(29(38)39)40-30(2,3)4/h7-10,16-19,28H,11-15H2,1-6H3,(H,38,39)/t28-/m0/s1
InChIKey=CBDSJKSTELMHIB-NDEPHWFRSA-N

> <PUBCHEM_SUBSTANCE_SYNONYM>
SCHEMBL16112437

> <PUBCHEM_XREF_EXT_ID>
SCHEMBL16112437

> <PUBCHEM_EXT_DATASOURCE_URL>
https://www.surechembl.org/

> <PUBCHEM_EXT_SUBSTANCE_URL>
https://www.surechembl.org/chemical/SCHEMBL16112437

> <PUBCHEM_CID_ASSOCIATIONS>
86300174  1

> <PUBCHEM_COORDINATE_TYPE>
1
3

> <PUBCHEM_BONDANNOTATIONS>
16  2  6

$$$$
