310944257
  -OEChem-07211613022D

 12 12  0     0  0  0  0  0  0999 V2000
   -1.9425    1.2389    0.0000 Br  0  0  0  0  0  0  0  0  0  0  0  0
   -0.2379    2.0614    0.0000 F   0  0  0  0  0  0  0  0  0  0  0  0
    1.9425    1.6056    0.0000 N   0  0  0  0  0  0  0  0  0  0  0  0
   -0.2577   -2.0614    0.0000 N   0  0  0  0  0  0  0  0  0  0  0  0
   -0.2577    1.2488    0.0000 C   0  0  0  0  0  0  0  0  0  0  0  0
    0.4658    0.8523    0.0000 C   0  0  0  0  0  0  0  0  0  0  0  0
   -0.9713    0.8424    0.0000 C   0  0  0  0  0  0  0  0  0  0  0  0
   -0.2577   -0.3866    0.0000 C   0  0  0  0  0  0  0  0  0  0  0  0
    0.4658    0.0198    0.0000 C   0  0  0  0  0  0  0  0  0  0  0  0
   -0.9713    0.0198    0.0000 C   0  0  0  0  0  0  0  0  0  0  0  0
    1.1893    1.2290    0.0000 C   0  0  0  0  0  0  0  0  0  0  0  0
   -0.2577   -1.2190    0.0000 C   0  0  0  0  0  0  0  0  0  0  0  0
  1  7  1  0  0  0  0
  2  5  1  0  0  0  0
  3 11  3  0  0  0  0
  4 12  3  0  0  0  0
  5  6  2  0  0  0  0
  5  7  1  0  0  0  0
  6  9  1  0  0  0  0
  6 11  1  0  0  0  0
  7 10  2  0  0  0  0
  8  9  2  0  0  0  0
  8 10  1  0  0  0  0
  8 12  1  0  0  0  0
M  END
> <PUBCHEM_COMPOUND_ID_TYPE>
0

> <PUBCHEM_TOTAL_CHARGE>
0

> <PUBCHEM_SUBSTANCE_ID>
310944257

> <PUBCHEM_SUBSTANCE_VERSION>
1

> <PUBCHEM_EXT_DATASOURCE_NAME>
4488

> <PUBCHEM_EXT_DATASOURCE_REGID>
SCHEMBL16122332

> <PUBCHEM_SUBSTANCE_COMMENT>
InChI=1S/C8H2BrFN2/c9-7-2-5(3-11)1-6(4-12)8(7)10/h1-2H
InChIKey=DTRAMHOOIBXUCJ-UHFFFAOYSA-N

> <PUBCHEM_SUBSTANCE_SYNONYM>
SCHEMBL16122332

> <PUBCHEM_XREF_EXT_ID>
SCHEMBL16122332

> <PUBCHEM_EXT_DATASOURCE_URL>
https://www.surechembl.org/

> <PUBCHEM_EXT_SUBSTANCE_URL>
https://www.surechembl.org/chemical/SCHEMBL16122332

> <PUBCHEM_CID_ASSOCIATIONS>
117610526  1

> <PUBCHEM_COORDINATE_TYPE>
1
3

$$$$
