310937021
  -OEChem-07211613022D

 24 27  0     0  0  0  0  0  0999 V2000
    0.6568   -0.9458    0.0000 F   0  0  0  0  0  0  0  0  0  0  0  0
    0.1051   -2.2595    0.0000 F   0  0  0  0  0  0  0  0  0  0  0  0
    0.0000   -1.4450    0.0000 F   0  0  0  0  0  0  0  0  0  0  0  0
    5.7013   -2.1807    0.0000 O   0  0  0  0  0  0  0  0  0  0  0  0
    1.6027   -2.9163    0.0000 O   0  0  0  0  0  0  0  0  0  0  0  0
    4.4402   -1.7866    0.0000 N   0  0  0  0  0  0  0  0  0  0  0  0
    5.2284   -2.8638    0.0000 N   0  0  0  0  0  0  0  0  0  0  0  0
    3.8621   -3.8884    0.0000 N   0  0  0  0  0  0  0  0  0  0  0  0
    5.4911   -0.7356    0.0000 C   0  0  0  0  0  0  0  0  0  0  0  0
    5.2284   -1.5238    0.0000 C   0  0  0  0  0  0  0  0  0  0  0  0
    4.4402   -2.6011    0.0000 C   0  0  0  0  0  0  0  0  0  0  0  0
    5.8589    0.0000    0.0000 C   0  0  0  0  0  0  0  0  0  0  0  0
    6.3319   -0.6568    0.0000 C   0  0  0  0  0  0  0  0  0  0  0  0
    3.7833   -3.0740    0.0000 C   0  0  0  0  0  0  0  0  0  0  0  0
    2.4697   -4.0461    0.0000 C   0  0  0  0  0  0  0  0  0  0  0  0
    2.3646   -3.2316    0.0000 C   0  0  0  0  0  0  0  0  0  0  0  0
    1.7866   -4.5190    0.0000 C   0  0  0  0  0  0  0  0  0  0  0  0
    3.0214   -2.7324    0.0000 C   0  0  0  0  0  0  0  0  0  0  0  0
    4.8605   -0.1839    0.0000 C   0  0  0  0  0  0  0  0  0  0  0  0
    3.2053   -4.3876    0.0000 C   0  0  0  0  0  0  0  0  0  0  0  0
    1.4450   -5.2547    0.0000 C   0  0  0  0  0  0  0  0  0  0  0  0
    0.9458   -4.5978    0.0000 C   0  0  0  0  0  0  0  0  0  0  0  0
    1.5238   -2.1019    0.0000 C   0  0  0  0  0  0  0  0  0  0  0  0
    0.7619   -1.7603    0.0000 C   0  0  0  0  0  0  0  0  0  0  0  0
  1 24  1  0  0  0  0
  2 24  1  0  0  0  0
  3 24  1  0  0  0  0
  4  7  1  0  0  0  0
  4 10  1  0  0  0  0
  5 16  1  0  0  0  0
  5 23  1  0  0  0  0
  6 10  2  0  0  0  0
  6 11  1  0  0  0  0
  7 11  2  0  0  0  0
  8 14  1  0  0  0  0
  8 20  2  0  0  0  0
  9 10  1  0  0  0  0
  9 12  1  0  0  0  0
  9 13  1  0  0  0  0
  9 19  1  0  0  0  0
 11 14  1  0  0  0  0
 12 13  1  0  0  0  0
 14 18  2  0  0  0  0
 15 16  2  0  0  0  0
 15 17  1  0  0  0  0
 15 20  1  0  0  0  0
 16 18  1  0  0  0  0
 17 21  1  0  0  0  0
 17 22  1  0  0  0  0
 21 22  1  0  0  0  0
 23 24  1  0  0  0  0
M  END
> <PUBCHEM_COMPOUND_ID_TYPE>
0

> <PUBCHEM_TOTAL_CHARGE>
0

> <PUBCHEM_SUBSTANCE_ID>
310937021

> <PUBCHEM_SUBSTANCE_VERSION>
1

> <PUBCHEM_EXT_DATASOURCE_NAME>
4488

> <PUBCHEM_EXT_DATASOURCE_REGID>
SCHEMBL16114730

> <PUBCHEM_SUBSTANCE_COMMENT>
InChI=1S/C16H16F3N3O2/c1-15(4-5-15)14-21-13(22-24-14)11-6-12(23-8-16(17,18)19)10(7-20-11)9-2-3-9/h6-7,9H,2-5,8H2,1H3
InChIKey=MMXBYBGUZBDTCY-UHFFFAOYSA-N

> <PUBCHEM_SUBSTANCE_SYNONYM>
SCHEMBL16114730

> <PUBCHEM_XREF_EXT_ID>
SCHEMBL16114730

> <PUBCHEM_EXT_DATASOURCE_URL>
https://www.surechembl.org/

> <PUBCHEM_EXT_SUBSTANCE_URL>
https://www.surechembl.org/chemical/SCHEMBL16114730

> <PUBCHEM_CID_ASSOCIATIONS>
86275929  1

> <PUBCHEM_COORDINATE_TYPE>
1
3

$$$$
