310938944
  -OEChem-07211613022D

 25 26  0     1  0  0  0  0  0999 V2000
    5.2381   -3.2054    0.0000 O   0  0  0  0  0  0  0  0  0  0  0  0
    4.5236   -1.9679    0.0000 O   0  0  0  0  0  0  0  0  0  0  0  0
    3.0947   -2.7929    0.0000 N   0  0  0  0  0  0  0  0  0  0  0  0
    2.3802   -3.2054    0.0000 C   0  0  0  0  0  0  0  0  0  0  0  0
    2.3802   -4.0304    0.0000 C   0  0  0  0  0  0  0  0  0  0  0  0
    1.6657   -2.7929    0.0000 C   0  0  0  0  0  0  0  0  0  0  0  0
    3.8091   -3.2054    0.0000 C   0  0  3  0  0  0  0  0  0  0  0  0
    4.5236   -2.7929    0.0000 C   0  0  0  0  0  0  0  0  0  0  0  0
    1.6657   -4.4429    0.0000 C   0  0  0  0  0  0  0  0  0  0  0  0
    1.6657   -1.9679    0.0000 C   0  0  0  0  0  0  0  0  0  0  0  0
    3.0947   -4.4429    0.0000 C   0  0  0  0  0  0  0  0  0  0  0  0
    0.9512   -3.2054    0.0000 C   0  0  0  0  0  0  0  0  0  0  0  0
    5.9525   -2.7929    0.0000 C   0  0  0  0  0  0  0  0  0  0  0  0
    3.8091   -4.0304    0.0000 C   0  0  0  0  0  0  0  0  0  0  0  0
    1.6657   -5.2679    0.0000 C   0  0  0  0  0  0  0  0  0  0  0  0
    0.9512   -1.5554    0.0000 C   0  0  0  0  0  0  0  0  0  0  0  0
    3.0947   -5.2679    0.0000 C   0  0  0  0  0  0  0  0  0  0  0  0
    0.2368   -2.7929    0.0000 C   0  0  0  0  0  0  0  0  0  0  0  0
    2.3802   -5.6804    0.0000 C   0  0  0  0  0  0  0  0  0  0  0  0
    0.2368   -1.9679    0.0000 C   0  0  0  0  0  0  0  0  0  0  0  0
    4.5236   -4.4429    0.0000 C   0  0  0  0  0  0  0  0  0  0  0  0
    6.6670   -3.2054    0.0000 C   0  0  0  0  0  0  0  0  0  0  0  0
    6.6670   -2.3804    0.0000 C   0  0  0  0  0  0  0  0  0  0  0  0
    5.9525   -1.9679    0.0000 C   0  0  0  0  0  0  0  0  0  0  0  0
    4.5236   -5.2679    0.0000 C   0  0  0  0  0  0  0  0  0  0  0  0
  1  8  1  0  0  0  0
  1 13  1  0  0  0  0
  2  8  2  0  0  0  0
  3  4  2  0  0  0  0
  7  3  1  6  0  0  0
  4  5  1  0  0  0  0
  4  6  1  0  0  0  0
  5  9  2  0  0  0  0
  5 11  1  0  0  0  0
  6 10  2  0  0  0  0
  6 12  1  0  0  0  0
  7  8  1  0  0  0  0
  7 14  1  0  0  0  0
  9 15  1  0  0  0  0
 10 16  1  0  0  0  0
 11 17  2  0  0  0  0
 12 18  2  0  0  0  0
 13 22  1  0  0  0  0
 13 23  1  0  0  0  0
 13 24  1  0  0  0  0
 14 21  1  0  0  0  0
 15 19  2  0  0  0  0
 16 20  2  0  0  0  0
 17 19  1  0  0  0  0
 18 20  1  0  0  0  0
 21 25  1  0  0  0  0
M  END
> <PUBCHEM_COMPOUND_ID_TYPE>
0

> <PUBCHEM_TOTAL_CHARGE>
0

> <PUBCHEM_SUBSTANCE_ID>
310938944

> <PUBCHEM_SUBSTANCE_VERSION>
1

> <PUBCHEM_EXT_DATASOURCE_NAME>
4488

> <PUBCHEM_EXT_DATASOURCE_REGID>
SCHEMBL16116863

> <PUBCHEM_SUBSTANCE_COMMENT>
InChI=1S/C22H27NO2/c1-5-12-19(21(24)25-22(2,3)4)23-20(17-13-8-6-9-14-17)18-15-10-7-11-16-18/h6-11,13-16,19H,5,12H2,1-4H3/t19-/m0/s1
InChIKey=JNBAZZQDRYADMM-IBGZPJMESA-N

> <PUBCHEM_SUBSTANCE_SYNONYM>
SCHEMBL16116863

> <PUBCHEM_XREF_EXT_ID>
SCHEMBL16116863

> <PUBCHEM_EXT_DATASOURCE_URL>
https://www.surechembl.org/

> <PUBCHEM_EXT_SUBSTANCE_URL>
https://www.surechembl.org/chemical/SCHEMBL16116863

> <PUBCHEM_CID_ASSOCIATIONS>
101215764  1

> <PUBCHEM_COORDINATE_TYPE>
1
3

> <PUBCHEM_BONDANNOTATIONS>
7  3  6

$$$$
