310948705
  -OEChem-07211613022D

 31 33  0     1  0  0  0  0  0999 V2000
   -4.3169    1.2442    0.0000 O   0  0  0  0  0  0  0  0  0  0  0  0
   -3.6157    0.0069    0.0000 O   0  0  0  0  0  0  0  0  0  0  0  0
    3.0658    1.0655    0.0000 O   0  0  0  0  0  0  0  0  0  0  0  0
    0.0550    2.4952    0.0000 O   0  0  0  0  0  0  0  0  0  0  0  0
    0.7562   -0.4056    0.0000 N   0  0  0  0  0  0  0  0  0  0  0  0
    0.7562    1.2579    0.0000 N   0  0  0  0  0  0  0  0  0  0  0  0
    1.4710    2.4952    0.0000 N   0  0  0  0  0  0  0  0  0  0  0  0
    2.2684    1.2579    0.0000 N   0  0  0  0  0  0  0  0  0  0  0  0
   -2.1447    1.2855    0.0000 C   0  0  3  0  0  0  0  0  0  0  0  0
   -2.8459    1.2855    0.0000 C   0  0  3  0  0  0  0  0  0  0  0  0
   -1.3611    0.8318    0.0000 C   0  0  0  0  0  0  0  0  0  0  0  0
   -2.5021    1.9454    0.0000 C   0  0  0  0  0  0  0  0  0  0  0  0
    0.0550    0.8455    0.0000 C   0  0  0  0  0  0  0  0  0  0  0  0
    0.0412    0.0206    0.0000 C   0  0  0  0  0  0  0  0  0  0  0  0
   -0.6599    1.2442    0.0000 C   0  0  0  0  0  0  0  0  0  0  0  0
   -1.3748    0.0069    0.0000 C   0  0  0  0  0  0  0  0  0  0  0  0
   -3.6157    0.8318    0.0000 C   0  0  0  0  0  0  0  0  0  0  0  0
   -0.6461   -0.4056    0.0000 C   0  0  0  0  0  0  0  0  0  0  0  0
    0.7836    2.0690    0.0000 C   0  0  0  0  0  0  0  0  0  0  0  0
    0.7562   -1.2442    0.0000 C   0  0  0  0  0  0  0  0  0  0  0  0
    1.4710    0.0069    0.0000 C   0  0  0  0  0  0  0  0  0  0  0  0
    2.1722    2.0828    0.0000 C   0  0  0  0  0  0  0  0  0  0  0  0
    2.9283    2.4128    0.0000 C   0  0  0  0  0  0  0  0  0  0  0  0
    0.0550   -1.6429    0.0000 C   0  0  0  0  0  0  0  0  0  0  0  0
    2.1859   -0.4056    0.0000 C   0  0  0  0  0  0  0  0  0  0  0  0
    3.4782    1.8079    0.0000 C   0  0  0  0  0  0  0  0  0  0  0  0
    4.3169    1.8629    0.0000 C   0  0  0  0  0  0  0  0  0  0  0  0
   -0.6737   -1.2579    0.0000 C   0  0  0  0  0  0  0  0  0  0  0  0
    0.0550   -2.4952    0.0000 C   0  0  0  0  0  0  0  0  0  0  0  0
    2.9008    0.0069    0.0000 C   0  0  0  0  0  0  0  0  0  0  0  0
    2.1996   -1.2579    0.0000 C   0  0  0  0  0  0  0  0  0  0  0  0
  1 17  2  0  0  0  0
  2 17  1  0  0  0  0
  3  8  1  0  0  0  0
  3 26  1  0  0  0  0
  4 19  2  0  0  0  0
  5 14  1  0  0  0  0
  5 20  1  0  0  0  0
  5 21  1  0  0  0  0
  6 13  1  0  0  0  0
  6 19  1  0  0  0  0
  7 19  1  0  0  0  0
  7 22  1  0  0  0  0
  8 22  2  0  0  0  0
  9 10  1  0  0  0  0
  9 11  1  0  0  0  0
  9 12  1  1  0  0  0
 10 12  1  0  0  0  0
 10 17  1  1  0  0  0
 11 15  1  0  0  0  0
 11 16  2  0  0  0  0
 13 14  1  0  0  0  0
 13 15  2  0  0  0  0
 14 18  2  0  0  0  0
 16 18  1  0  0  0  0
 20 24  1  0  0  0  0
 21 25  1  0  0  0  0
 22 23  1  0  0  0  0
 23 26  2  0  0  0  0
 24 28  1  0  0  0  0
 24 29  1  0  0  0  0
 25 30  1  0  0  0  0
 25 31  1  0  0  0  0
 26 27  1  0  0  0  0
M  END
> <PUBCHEM_COMPOUND_ID_TYPE>
0

> <PUBCHEM_TOTAL_CHARGE>
0

> <PUBCHEM_SUBSTANCE_ID>
310948705

> <PUBCHEM_SUBSTANCE_VERSION>
1

> <PUBCHEM_EXT_DATASOURCE_NAME>
4488

> <PUBCHEM_EXT_DATASOURCE_REGID>
SCHEMBL16126889

> <PUBCHEM_SUBSTANCE_COMMENT>
InChI=1S/C23H32N4O4/c1-13(2)11-27(12-14(3)4)20-7-6-16(17-10-18(17)22(28)29)9-19(20)24-23(30)25-21-8-15(5)31-26-21/h6-9,13-14,17-18H,10-12H2,1-5H3,(H,28,29)(H2,24,25,26,30)/t17-,18-/m0/s1
InChIKey=PRIIVKWSVMJGAV-ROUUACIJSA-N

> <PUBCHEM_SUBSTANCE_SYNONYM>
SCHEMBL16126889

> <PUBCHEM_XREF_EXT_ID>
SCHEMBL16126889

> <PUBCHEM_EXT_DATASOURCE_URL>
https://www.surechembl.org/

> <PUBCHEM_EXT_SUBSTANCE_URL>
https://www.surechembl.org/chemical/SCHEMBL16126889

> <PUBCHEM_CID_ASSOCIATIONS>
117614246  1

> <PUBCHEM_COORDINATE_TYPE>
1
3

> <PUBCHEM_BONDANNOTATIONS>
10  17  5
9  12  5

$$$$
