310935192
  -OEChem-07211613022D

 25 27  0     1  0  0  0  0  0999 V2000
   -0.7144    2.0625    0.0000 F   0  0  0  0  0  0  0  0  0  0  0  0
    4.6403    1.0019    0.0000 F   0  0  0  0  0  0  0  0  0  0  0  0
   -0.6283   -0.9013    0.0000 O   0  0  0  0  0  0  0  0  0  0  0  0
    0.4664   -1.8197    0.0000 O   0  0  0  0  0  0  0  0  0  0  0  0
    4.1855    2.5880    0.0000 O   0  0  0  0  0  0  0  0  0  0  0  0
    2.8119    2.1941    0.0000 N   0  0  0  0  0  0  0  0  0  0  0  0
    0.7144   -0.4125    0.0000 C   0  0  3  0  0  0  0  0  0  0  0  0
    0.0000    0.0000    0.0000 C   0  0  0  0  0  0  0  0  0  0  0  0
    1.0762    0.3290    0.0000 C   0  0  0  0  0  0  0  0  0  0  0  0
    1.8931    0.2142    0.0000 C   0  0  3  0  0  0  0  0  0  0  0  0
    1.3079   -0.9856    0.0000 C   0  0  0  0  0  0  0  0  0  0  0  0
    0.1842   -1.0445    0.0000 C   0  0  0  0  0  0  0  0  0  0  0  0
    0.0000    0.8250    0.0000 C   0  0  0  0  0  0  0  0  0  0  0  0
    2.4662    0.8076    0.0000 C   0  0  0  0  0  0  0  0  0  0  0  0
    2.0363   -0.5983    0.0000 C   0  0  0  0  0  0  0  0  0  0  0  0
   -0.7144   -0.4125    0.0000 C   0  0  0  0  0  0  0  0  0  0  0  0
   -0.7144    1.2375    0.0000 C   0  0  0  0  0  0  0  0  0  0  0  0
    3.2667    0.6081    0.0000 C   0  0  0  0  0  0  0  0  0  0  0  0
    2.2388    1.6007    0.0000 C   0  0  0  0  0  0  0  0  0  0  0  0
    3.8398    1.2015    0.0000 C   0  0  0  0  0  0  0  0  0  0  0  0
   -1.4290    0.0000    0.0000 C   0  0  0  0  0  0  0  0  0  0  0  0
    3.6124    1.9946    0.0000 C   0  0  0  0  0  0  0  0  0  0  0  0
   -1.4290    0.8250    0.0000 C   0  0  0  0  0  0  0  0  0  0  0  0
    0.7144    1.2375    0.0000 C   0  0  0  0  0  0  0  0  0  0  0  0
    4.9859    2.3884    0.0000 C   0  0  0  0  0  0  0  0  0  0  0  0
  1 17  1  0  0  0  0
  2 20  1  0  0  0  0
  3 12  2  0  0  0  0
  4 12  1  0  0  0  0
  5 22  1  0  0  0  0
  5 25  1  0  0  0  0
  6 19  2  0  0  0  0
  6 22  1  0  0  0  0
  7  8  1  0  0  0  0
  7  9  1  0  0  0  0
  7 11  1  0  0  0  0
  7 12  1  6  0  0  0
  8 13  1  0  0  0  0
  8 16  2  0  0  0  0
  9 10  1  0  0  0  0
 10 14  1  0  0  0  0
 10 15  1  0  0  0  0
 11 15  1  0  0  0  0
 13 17  2  0  0  0  0
 13 24  1  0  0  0  0
 14 18  2  0  0  0  0
 14 19  1  0  0  0  0
 16 21  1  0  0  0  0
 17 23  1  0  0  0  0
 18 20  1  0  0  0  0
 20 22  2  0  0  0  0
 21 23  2  0  0  0  0
M  END
> <PUBCHEM_COMPOUND_ID_TYPE>
0

> <PUBCHEM_TOTAL_CHARGE>
0

> <PUBCHEM_SUBSTANCE_ID>
310935192

> <PUBCHEM_SUBSTANCE_VERSION>
1

> <PUBCHEM_EXT_DATASOURCE_NAME>
4488

> <PUBCHEM_EXT_DATASOURCE_REGID>
SCHEMBL16112720

> <PUBCHEM_SUBSTANCE_COMMENT>
InChI=1S/C19H19F2NO3/c1-11-14(4-3-5-15(11)20)19(18(23)24)7-6-12(9-19)13-8-16(21)17(25-2)22-10-13/h3-5,8,10,12H,6-7,9H2,1-2H3,(H,23,24)/t12?,19-/m0/s1
InChIKey=XEDCNKQQEIOVNG-RKLCOFROSA-N

> <PUBCHEM_SUBSTANCE_SYNONYM>
SCHEMBL16112720

> <PUBCHEM_XREF_EXT_ID>
SCHEMBL16112720

> <PUBCHEM_EXT_DATASOURCE_URL>
https://www.surechembl.org/

> <PUBCHEM_EXT_SUBSTANCE_URL>
https://www.surechembl.org/chemical/SCHEMBL16112720

> <PUBCHEM_CID_ASSOCIATIONS>
117603272  1

> <PUBCHEM_COORDINATE_TYPE>
1
3

> <PUBCHEM_BONDANNOTATIONS>
7  12  6

$$$$
