310941648
  -OEChem-07211613022D

 30 33  0     0  0  0  0  0  0999 V2000
    0.7649    2.5955    0.0000 S   0  0  0  0  0  0  0  0  0  0  0  0
   -1.5727   -0.0687    0.0000 O   0  0  0  0  0  0  0  0  0  0  0  0
   -3.0166   -0.9110    0.0000 O   0  0  0  0  0  0  0  0  0  0  0  0
   -0.1461   -0.0687    0.0000 O   0  0  0  0  0  0  0  0  0  0  0  0
    3.6354    1.6330    0.0000 O   0  0  0  0  0  0  0  0  0  0  0  0
    0.6102    1.2547    0.0000 N   0  0  0  0  0  0  0  0  0  0  0  0
    2.0025    1.7876    0.0000 N   0  0  0  0  0  0  0  0  0  0  0  0
   -0.8508    1.1860    0.0000 C   0  0  0  0  0  0  0  0  0  0  0  0
   -2.3119    0.3609    0.0000 C   0  0  0  0  0  0  0  0  0  0  0  0
   -2.3119    1.1860    0.0000 C   0  0  0  0  0  0  0  0  0  0  0  0
   -0.1633    1.6158    0.0000 C   0  0  0  0  0  0  0  0  0  0  0  0
   -0.8852    0.3953    0.0000 C   0  0  0  0  0  0  0  0  0  0  0  0
   -1.5727    1.5813    0.0000 C   0  0  0  0  0  0  0  0  0  0  0  0
   -3.0166   -0.0515    0.0000 C   0  0  0  0  0  0  0  0  0  0  0  0
    1.1602    1.8908    0.0000 C   0  0  0  0  0  0  0  0  0  0  0  0
   -0.0430    2.4236    0.0000 C   0  0  0  0  0  0  0  0  0  0  0  0
   -2.9994    1.5641    0.0000 C   0  0  0  0  0  0  0  0  0  0  0  0
   -3.7385    0.3266    0.0000 C   0  0  0  0  0  0  0  0  0  0  0  0
   -3.7214    1.1688    0.0000 C   0  0  0  0  0  0  0  0  0  0  0  0
    2.3119    1.0485    0.0000 C   0  0  0  0  0  0  0  0  0  0  0  0
    3.1369    0.9625    0.0000 C   0  0  0  0  0  0  0  0  0  0  0  0
    1.8477    0.3609    0.0000 C   0  0  0  0  0  0  0  0  0  0  0  0
   -3.7385   -1.3408    0.0000 C   0  0  0  0  0  0  0  0  0  0  0  0
    3.4807    0.1891    0.0000 C   0  0  0  0  0  0  0  0  0  0  0  0
    2.1916   -0.3953    0.0000 C   0  0  0  0  0  0  0  0  0  0  0  0
    2.9994   -0.4641    0.0000 C   0  0  0  0  0  0  0  0  0  0  0  0
   -3.7385   -2.1658    0.0000 C   0  0  0  0  0  0  0  0  0  0  0  0
    4.4432    1.5298    0.0000 C   0  0  0  0  0  0  0  0  0  0  0  0
   -4.4432   -2.5955    0.0000 C   0  0  0  0  0  0  0  0  0  0  0  0
   -2.9822   -2.5783    0.0000 C   0  0  0  0  0  0  0  0  0  0  0  0
  1 15  1  0  0  0  0
  1 16  1  0  0  0  0
  2  9  1  0  0  0  0
  2 12  1  0  0  0  0
  3 14  1  0  0  0  0
  3 23  1  0  0  0  0
  4 12  2  0  0  0  0
  5 21  1  0  0  0  0
  5 28  1  0  0  0  0
  6 11  1  0  0  0  0
  6 15  2  0  0  0  0
  7 15  1  0  0  0  0
  7 20  1  0  0  0  0
  8 11  1  0  0  0  0
  8 12  1  0  0  0  0
  8 13  2  0  0  0  0
  9 10  1  0  0  0  0
  9 14  2  0  0  0  0
 10 13  1  0  0  0  0
 10 17  2  0  0  0  0
 11 16  2  0  0  0  0
 14 18  1  0  0  0  0
 17 19  1  0  0  0  0
 18 19  2  0  0  0  0
 20 21  1  0  0  0  0
 20 22  2  0  0  0  0
 21 24  2  0  0  0  0
 22 25  1  0  0  0  0
 23 27  1  0  0  0  0
 24 26  1  0  0  0  0
 25 26  2  0  0  0  0
 27 29  1  0  0  0  0
 27 30  1  0  0  0  0
M  END
> <PUBCHEM_COMPOUND_ID_TYPE>
0

> <PUBCHEM_TOTAL_CHARGE>
0

> <PUBCHEM_SUBSTANCE_ID>
310941648

> <PUBCHEM_SUBSTANCE_VERSION>
1

> <PUBCHEM_EXT_DATASOURCE_NAME>
4488

> <PUBCHEM_EXT_DATASOURCE_REGID>
SCHEMBL16119679

> <PUBCHEM_SUBSTANCE_COMMENT>
InChI=1S/C23H22N2O4S/c1-14(2)12-28-20-10-6-7-15-11-16(22(26)29-21(15)20)18-13-30-23(25-18)24-17-8-4-5-9-19(17)27-3/h4-11,13-14H,12H2,1-3H3,(H,24,25)
InChIKey=JPEQGUPIIXKZHW-UHFFFAOYSA-N

> <PUBCHEM_SUBSTANCE_SYNONYM>
SCHEMBL16119679

> <PUBCHEM_XREF_EXT_ID>
SCHEMBL16119679

> <PUBCHEM_EXT_DATASOURCE_URL>
https://www.surechembl.org/

> <PUBCHEM_EXT_SUBSTANCE_URL>
https://www.surechembl.org/chemical/SCHEMBL16119679

> <PUBCHEM_CID_ASSOCIATIONS>
117608431  1

> <PUBCHEM_COORDINATE_TYPE>
1
3

$$$$
