310949146
  -OEChem-07211613022D

 37 42  0     0  0  0  0  0  0999 V2000
    0.0356    1.1261    0.0000 N   0  0  0  0  0  0  0  0  0  0  0  0
   -1.4326    1.4540    0.0000 N   0  0  0  0  0  0  0  0  0  0  0  0
    2.1882    0.6558    0.0000 N   0  0  0  0  0  0  0  0  0  0  0  0
   -2.1027    0.6415    0.0000 N   0  0  0  0  0  0  0  0  0  0  0  0
    0.0214   -3.0506    0.0000 N   0  0  0  0  0  0  0  0  0  0  0  0
    0.0356    0.3136    0.0000 C   0  0  0  0  0  0  0  0  0  0  0  0
   -0.6344    1.6394    0.0000 C   0  0  0  0  0  0  0  0  0  0  0  0
    0.7057    1.6536    0.0000 C   0  0  0  0  0  0  0  0  0  0  0  0
    0.7484   -0.1141    0.0000 C   0  0  0  0  0  0  0  0  0  0  0  0
   -0.6772   -0.0998    0.0000 C   0  0  0  0  0  0  0  0  0  0  0  0
    0.7484   -0.9551    0.0000 C   0  0  0  0  0  0  0  0  0  0  0  0
   -0.6914   -0.9551    0.0000 C   0  0  0  0  0  0  0  0  0  0  0  0
   -0.3921    2.4377    0.0000 C   0  0  0  0  0  0  0  0  0  0  0  0
    0.4490    2.4377    0.0000 C   0  0  0  0  0  0  0  0  0  0  0  0
    0.0356   -1.3542    0.0000 C   0  0  0  0  0  0  0  0  0  0  0  0
    1.4754   -1.3685    0.0000 C   0  0  0  0  0  0  0  0  0  0  0  0
   -1.4041   -1.3685    0.0000 C   0  0  0  0  0  0  0  0  0  0  0  0
    1.5467    1.4825    0.0000 C   0  0  0  0  0  0  0  0  0  0  0  0
   -0.9479    3.0506    0.0000 C   0  0  0  0  0  0  0  0  0  0  0  0
    1.0192    3.0221    0.0000 C   0  0  0  0  0  0  0  0  0  0  0  0
    1.4754    0.2851    0.0000 C   0  0  0  0  0  0  0  0  0  0  0  0
   -1.3898    0.2851    0.0000 C   0  0  0  0  0  0  0  0  0  0  0  0
    0.0214   -2.2381    0.0000 C   0  0  0  0  0  0  0  0  0  0  0  0
   -1.9886    2.0955    0.0000 C   0  0  0  0  0  0  0  0  0  0  0  0
    2.0599    2.0670    0.0000 C   0  0  0  0  0  0  0  0  0  0  0  0
   -1.7177    2.8795    0.0000 C   0  0  0  0  0  0  0  0  0  0  0  0
    1.8033    2.8510    0.0000 C   0  0  0  0  0  0  0  0  0  0  0  0
    1.4754   -2.2096    0.0000 C   0  0  0  0  0  0  0  0  0  0  0  0
    2.1882   -0.9836    0.0000 C   0  0  0  0  0  0  0  0  0  0  0  0
   -2.1169   -0.9551    0.0000 C   0  0  0  0  0  0  0  0  0  0  0  0
   -1.4184   -2.2096    0.0000 C   0  0  0  0  0  0  0  0  0  0  0  0
    2.2025   -2.6229    0.0000 C   0  0  0  0  0  0  0  0  0  0  0  0
   -2.8296   -1.3685    0.0000 C   0  0  0  0  0  0  0  0  0  0  0  0
    2.8439   -1.3827    0.0000 C   0  0  0  0  0  0  0  0  0  0  0  0
   -2.1311   -2.5944    0.0000 C   0  0  0  0  0  0  0  0  0  0  0  0
    2.8439   -2.2381    0.0000 C   0  0  0  0  0  0  0  0  0  0  0  0
   -2.8439   -2.1953    0.0000 C   0  0  0  0  0  0  0  0  0  0  0  0
  1  6  1  0  0  0  0
  1  7  1  0  0  0  0
  1  8  1  0  0  0  0
  2  7  1  0  0  0  0
  2 24  2  0  0  0  0
  3 21  3  0  0  0  0
  4 22  3  0  0  0  0
  5 23  3  0  0  0  0
  6  9  2  0  0  0  0
  6 10  1  0  0  0  0
  7 13  2  0  0  0  0
  8 14  2  0  0  0  0
  8 18  1  0  0  0  0
  9 11  1  0  0  0  0
  9 21  1  0  0  0  0
 10 12  2  0  0  0  0
 10 22  1  0  0  0  0
 11 15  2  0  0  0  0
 11 16  1  0  0  0  0
 12 15  1  0  0  0  0
 12 17  1  0  0  0  0
 13 14  1  0  0  0  0
 13 19  1  0  0  0  0
 14 20  1  0  0  0  0
 15 23  1  0  0  0  0
 16 28  2  0  0  0  0
 16 29  1  0  0  0  0
 17 30  2  0  0  0  0
 17 31  1  0  0  0  0
 18 25  2  0  0  0  0
 19 26  2  0  0  0  0
 20 27  2  0  0  0  0
 24 26  1  0  0  0  0
 25 27  1  0  0  0  0
 28 32  1  0  0  0  0
 29 34  2  0  0  0  0
 30 33  1  0  0  0  0
 31 35  2  0  0  0  0
 32 36  2  0  0  0  0
 33 37  2  0  0  0  0
 34 36  1  0  0  0  0
 35 37  1  0  0  0  0
M  END
> <PUBCHEM_COMPOUND_ID_TYPE>
0

> <PUBCHEM_TOTAL_CHARGE>
0

> <PUBCHEM_SUBSTANCE_ID>
310949146

> <PUBCHEM_SUBSTANCE_VERSION>
1

> <PUBCHEM_EXT_DATASOURCE_NAME>
4488

> <PUBCHEM_EXT_DATASOURCE_REGID>
SCHEMBL16127336

> <PUBCHEM_SUBSTANCE_COMMENT>
InChI=1S/C32H17N5/c33-18-25-29(21-10-3-1-4-11-21)26(19-34)31(27(20-35)30(25)22-12-5-2-6-13-22)37-28-16-8-7-14-23(28)24-15-9-17-36-32(24)37/h1-17H
InChIKey=WJVUKZMSKOMQLD-UHFFFAOYSA-N

> <PUBCHEM_SUBSTANCE_SYNONYM>
SCHEMBL16127336

> <PUBCHEM_XREF_EXT_ID>
SCHEMBL16127336

> <PUBCHEM_EXT_DATASOURCE_URL>
https://www.surechembl.org/

> <PUBCHEM_EXT_SUBSTANCE_URL>
https://www.surechembl.org/chemical/SCHEMBL16127336

> <PUBCHEM_CID_ASSOCIATIONS>
117614642  1

> <PUBCHEM_COORDINATE_TYPE>
1
3

$$$$
