310939727
  -OEChem-07211613022D

 12 11  0     0  0  0  0  0  0999 V2000
   -1.0243   -5.3657    0.0000 S   0  0  0  0  0  0  0  0  0  0  0  0
   -0.6118   -4.6513    0.0000 O   0  0  0  0  0  0  0  0  0  0  0  0
   -1.4368   -4.6513    0.0000 O   0  0  0  0  0  0  0  0  0  0  0  0
   -1.7388   -5.7782    0.0000 N   0  0  0  0  0  0  0  0  0  0  0  0
   -3.8822   -5.3657    0.0000 C   0  0  0  0  0  0  0  0  0  0  0  0
   -0.3098   -5.7782    0.0000 C   0  0  0  0  0  0  0  0  0  0  0  0
   -2.4532   -5.3657    0.0000 C   0  0  0  0  0  0  0  0  0  0  0  0
   -3.1677   -5.7782    0.0000 C   0  0  0  0  0  0  0  0  0  0  0  0
    0.4046   -5.3657    0.0000 C   0  0  0  0  0  0  0  0  0  0  0  0
   -3.4697   -4.6513    0.0000 C   0  0  0  0  0  0  0  0  0  0  0  0
   -4.2947   -6.0802    0.0000 C   0  0  0  0  0  0  0  0  0  0  0  0
   -4.5967   -4.9532    0.0000 C   0  0  0  0  0  0  0  0  0  0  0  0
  1  2  2  0  0  0  0
  1  3  2  0  0  0  0
  1  4  1  0  0  0  0
  1  6  1  0  0  0  0
  4  7  1  0  0  0  0
  5  8  1  0  0  0  0
  5 10  1  0  0  0  0
  5 11  1  0  0  0  0
  5 12  1  0  0  0  0
  6  9  2  0  0  0  0
  7  8  1  0  0  0  0
M  END
> <PUBCHEM_COMPOUND_ID_TYPE>
0

> <PUBCHEM_TOTAL_CHARGE>
0

> <PUBCHEM_SUBSTANCE_ID>
310939727

> <PUBCHEM_SUBSTANCE_VERSION>
1

> <PUBCHEM_EXT_DATASOURCE_NAME>
4488

> <PUBCHEM_EXT_DATASOURCE_REGID>
SCHEMBL16117657

> <PUBCHEM_SUBSTANCE_COMMENT>
InChI=1S/C8H17NO2S/c1-5-12(10,11)9-7-6-8(2,3)4/h5,9H,1,6-7H2,2-4H3
InChIKey=SKNYCPWFQOCEJN-UHFFFAOYSA-N

> <PUBCHEM_SUBSTANCE_SYNONYM>
SCHEMBL16117657

> <PUBCHEM_XREF_EXT_ID>
SCHEMBL16117657

> <PUBCHEM_EXT_DATASOURCE_URL>
https://www.surechembl.org/

> <PUBCHEM_EXT_SUBSTANCE_URL>
https://www.surechembl.org/chemical/SCHEMBL16117657

> <PUBCHEM_CID_ASSOCIATIONS>
117606952  1

> <PUBCHEM_COORDINATE_TYPE>
1
3

> <PUBCHEM_BONDANNOTATIONS>
5  10  3
5  11  3

$$$$
