310937138
  -OEChem-07211613022D

 13 15  0     0  0  0  0  0  0999 V2000
    2.9082   -1.5111    0.0000 N   0  0  0  0  0  0  0  0  0  0  0  0
    0.7270   -0.4134    0.0000 N   0  0  0  0  0  0  0  0  0  0  0  0
    3.3786   -0.8268    0.0000 N   0  0  0  0  0  0  0  0  0  0  0  0
    0.7270   -2.8511    0.0000 N   0  0  0  0  0  0  0  0  0  0  0  0
    2.1241   -1.2402    0.0000 C   0  0  0  0  0  0  0  0  0  0  0  0
    1.4113   -1.6679    0.0000 C   0  0  0  0  0  0  0  0  0  0  0  0
    2.1241   -0.4134    0.0000 C   0  0  0  0  0  0  0  0  0  0  0  0
    0.7270   -1.2402    0.0000 C   0  0  0  0  0  0  0  0  0  0  0  0
    1.4113    0.0000    0.0000 C   0  0  0  0  0  0  0  0  0  0  0  0
    2.9082   -0.1568    0.0000 C   0  0  0  0  0  0  0  0  0  0  0  0
    1.4113   -2.4378    0.0000 C   0  0  0  0  0  0  0  0  0  0  0  0
    0.0000   -1.6679    0.0000 C   0  0  0  0  0  0  0  0  0  0  0  0
    0.0000   -2.4378    0.0000 C   0  0  0  0  0  0  0  0  0  0  0  0
  1  3  1  0  0  0  0
  1  5  2  0  0  0  0
  2  8  1  0  0  0  0
  2  9  2  0  0  0  0
  3 10  1  0  0  0  0
  4 11  1  0  0  0  0
  4 13  2  0  0  0  0
  5  6  1  0  0  0  0
  5  7  1  0  0  0  0
  6  8  1  0  0  0  0
  6 11  2  0  0  0  0
  7  9  1  0  0  0  0
  7 10  2  0  0  0  0
  8 12  2  0  0  0  0
 12 13  1  0  0  0  0
M  END
> <PUBCHEM_COMPOUND_ID_TYPE>
0

> <PUBCHEM_TOTAL_CHARGE>
0

> <PUBCHEM_SUBSTANCE_ID>
310937138

> <PUBCHEM_SUBSTANCE_VERSION>
1

> <PUBCHEM_EXT_DATASOURCE_NAME>
4488

> <PUBCHEM_EXT_DATASOURCE_REGID>
SCHEMBL16114858

> <PUBCHEM_SUBSTANCE_COMMENT>
InChI=1S/C9H6N4/c1-2-10-5-7-8(1)11-3-6-4-12-13-9(6)7/h1-5H,(H,12,13)
InChIKey=HECZMUWFPXLQQD-UHFFFAOYSA-N

> <PUBCHEM_SUBSTANCE_SYNONYM>
SCHEMBL16114858

> <PUBCHEM_XREF_EXT_ID>
SCHEMBL16114858

> <PUBCHEM_EXT_DATASOURCE_URL>
https://www.surechembl.org/

> <PUBCHEM_EXT_SUBSTANCE_URL>
https://www.surechembl.org/chemical/SCHEMBL16114858

> <PUBCHEM_CID_ASSOCIATIONS>
117604965  1

> <PUBCHEM_COORDINATE_TYPE>
1
3

$$$$
