310931443
  -OEChem-07211613022D

 28 31  0     0  0  0  0  0  0999 V2000
    0.6637   -0.2184    0.0000 O   0  0  0  0  0  0  0  0  0  0  0  0
   -2.1434   -0.4125    0.0000 O   0  0  0  0  0  0  0  0  0  0  0  0
   -1.4067    3.7654    0.0000 O   0  0  0  0  0  0  0  0  0  0  0  0
    1.8931    0.6108    0.0000 N   0  0  0  0  0  0  0  0  0  0  0  0
    1.3079    1.8106    0.0000 N   0  0  0  0  0  0  0  0  0  0  0  0
    2.7508    1.8358    0.0000 N   0  0  0  0  0  0  0  0  0  0  0  0
    0.7144    1.2375    0.0000 C   0  0  0  0  0  0  0  0  0  0  0  0
    1.0762    0.4960    0.0000 C   0  0  0  0  0  0  0  0  0  0  0  0
    0.0000    0.8250    0.0000 C   0  0  0  0  0  0  0  0  0  0  0  0
    0.1842    1.8695    0.0000 C   0  0  0  0  0  0  0  0  0  0  0  0
    2.0363    1.4233    0.0000 C   0  0  0  0  0  0  0  0  0  0  0  0
    2.4662    0.0174    0.0000 C   0  0  0  0  0  0  0  0  0  0  0  0
   -0.7144    1.2375    0.0000 C   0  0  0  0  0  0  0  0  0  0  0  0
    0.4664    2.6447    0.0000 C   0  0  0  0  0  0  0  0  0  0  0  0
    0.0000    0.0000    0.0000 C   0  0  0  0  0  0  0  0  0  0  0  0
   -0.6283    1.7263    0.0000 C   0  0  0  0  0  0  0  0  0  0  0  0
    3.2831    0.1322    0.0000 C   0  0  0  0  0  0  0  0  0  0  0  0
    2.3229   -0.7951    0.0000 C   0  0  0  0  0  0  0  0  0  0  0  0
   -1.4290    0.8250    0.0000 C   0  0  0  0  0  0  0  0  0  0  0  0
   -0.0639    3.2767    0.0000 C   0  0  0  0  0  0  0  0  0  0  0  0
   -0.7144   -0.4125    0.0000 C   0  0  0  0  0  0  0  0  0  0  0  0
   -1.1586    2.3582    0.0000 C   0  0  0  0  0  0  0  0  0  0  0  0
   -1.4290    0.0000    0.0000 C   0  0  0  0  0  0  0  0  0  0  0  0
   -0.8764    3.1335    0.0000 C   0  0  0  0  0  0  0  0  0  0  0  0
    3.6448   -0.6093    0.0000 C   0  0  0  0  0  0  0  0  0  0  0  0
    3.0514   -1.1824    0.0000 C   0  0  0  0  0  0  0  0  0  0  0  0
   -2.8579    0.0000    0.0000 C   0  0  0  0  0  0  0  0  0  0  0  0
   -2.2192    3.6222    0.0000 C   0  0  0  0  0  0  0  0  0  0  0  0
  1  8  2  0  0  0  0
  2 23  1  0  0  0  0
  2 27  1  0  0  0  0
  3 24  1  0  0  0  0
  3 28  1  0  0  0  0
  4  8  1  0  0  0  0
  4 11  1  0  0  0  0
  4 12  1  0  0  0  0
  5  7  1  0  0  0  0
  5 11  1  0  0  0  0
  6 11  2  3  0  0  0
  7  8  1  0  0  0  0
  7  9  1  0  0  0  0
  7 10  1  0  0  0  0
  9 13  2  0  0  0  0
  9 15  1  0  0  0  0
 10 14  2  0  0  0  0
 10 16  1  0  0  0  0
 12 17  1  0  0  0  0
 12 18  1  0  0  0  0
 13 19  1  0  0  0  0
 14 20  1  0  0  0  0
 15 21  2  0  0  0  0
 16 22  2  0  0  0  0
 17 25  1  0  0  0  0
 18 26  1  0  0  0  0
 19 23  2  0  0  0  0
 20 24  2  0  0  0  0
 21 23  1  0  0  0  0
 22 24  1  0  0  0  0
 25 26  1  0  0  0  0
M  END
> <PUBCHEM_COMPOUND_ID_TYPE>
0

> <PUBCHEM_TOTAL_CHARGE>
0

> <PUBCHEM_SUBSTANCE_ID>
310931443

> <PUBCHEM_SUBSTANCE_VERSION>
1

> <PUBCHEM_EXT_DATASOURCE_NAME>
4488

> <PUBCHEM_EXT_DATASOURCE_REGID>
SCHEMBL16108768

> <PUBCHEM_SUBSTANCE_COMMENT>
InChI=1S/C22H25N3O3/c1-27-18-11-7-15(8-12-18)22(16-9-13-19(28-2)14-10-16)20(26)25(21(23)24-22)17-5-3-4-6-17/h7-14,17H,3-6H2,1-2H3,(H2,23,24)
InChIKey=IFKAPHKUNKCUEQ-UHFFFAOYSA-N

> <PUBCHEM_SUBSTANCE_SYNONYM>
SCHEMBL16108768

> <PUBCHEM_XREF_EXT_ID>
SCHEMBL16108768

> <PUBCHEM_EXT_DATASOURCE_URL>
https://www.surechembl.org/

> <PUBCHEM_EXT_SUBSTANCE_URL>
https://www.surechembl.org/chemical/SCHEMBL16108768

> <PUBCHEM_CID_ASSOCIATIONS>
76317506  1

> <PUBCHEM_COORDINATE_TYPE>
1
3

$$$$
