310949595
  -OEChem-07211613022D

 26 28  0     0  0  0  0  0  0999 V2000
    1.4735   -1.8317    0.0000 O   0  0  0  0  0  0  0  0  0  0  0  0
   -1.3917   -0.9926    0.0000 O   0  0  0  0  0  0  0  0  0  0  0  0
    2.9471   -0.9108    0.0000 N   0  0  0  0  0  0  0  0  0  0  0  0
    3.5202   -0.2968    0.0000 N   0  0  0  0  0  0  0  0  0  0  0  0
    0.7573   -0.5628    0.0000 N   0  0  0  0  0  0  0  0  0  0  0  0
    3.3564    1.2382    0.0000 N   0  0  0  0  0  0  0  0  0  0  0  0
    2.2717    0.2763    0.0000 C   0  0  0  0  0  0  0  0  0  0  0  0
    2.1899   -0.5628    0.0000 C   0  0  0  0  0  0  0  0  0  0  0  0
    3.0699    0.4195    0.0000 C   0  0  0  0  0  0  0  0  0  0  0  0
    1.4735   -0.9721    0.0000 C   0  0  0  0  0  0  0  0  0  0  0  0
    1.7396    0.8903    0.0000 C   0  0  0  0  0  0  0  0  0  0  0  0
   -2.1080    0.2354    0.0000 C   0  0  0  0  0  0  0  0  0  0  0  0
   -2.1284   -0.5628    0.0000 C   0  0  0  0  0  0  0  0  0  0  0  0
   -1.3712    0.6856    0.0000 C   0  0  0  0  0  0  0  0  0  0  0  0
    1.9852    1.6680    0.0000 C   0  0  0  0  0  0  0  0  0  0  0  0
    2.7834    1.8317    0.0000 C   0  0  0  0  0  0  0  0  0  0  0  0
    0.0409   -0.9926    0.0000 C   0  0  0  0  0  0  0  0  0  0  0  0
   -2.8243    0.6651    0.0000 C   0  0  0  0  0  0  0  0  0  0  0  0
   -2.8038   -0.9926    0.0000 C   0  0  0  0  0  0  0  0  0  0  0  0
   -0.6959   -0.5833    0.0000 C   0  0  0  0  0  0  0  0  0  0  0  0
    0.7368    0.2763    0.0000 C   0  0  0  0  0  0  0  0  0  0  0  0
   -3.4997    0.2558    0.0000 C   0  0  0  0  0  0  0  0  0  0  0  0
   -3.5202   -0.6038    0.0000 C   0  0  0  0  0  0  0  0  0  0  0  0
   -1.3712    1.5247    0.0000 C   0  0  0  0  0  0  0  0  0  0  0  0
   -0.6549    1.0745    0.0000 C   0  0  0  0  0  0  0  0  0  0  0  0
   -0.6549    0.2763    0.0000 C   0  0  0  0  0  0  0  0  0  0  0  0
  1 10  2  0  0  0  0
  2 13  1  0  0  0  0
  2 20  1  0  0  0  0
  3  4  1  0  0  0  0
  3  8  2  0  0  0  0
  4  9  1  0  0  0  0
  5 10  1  0  0  0  0
  5 17  1  0  0  0  0
  5 21  1  0  0  0  0
  6  9  1  0  0  0  0
  6 16  2  0  0  0  0
  7  8  1  0  0  0  0
  7  9  2  0  0  0  0
  7 11  1  0  0  0  0
  8 10  1  0  0  0  0
 11 15  2  0  0  0  0
 12 13  1  0  0  0  0
 12 14  1  0  0  0  0
 12 18  2  0  0  0  0
 13 19  2  0  0  0  0
 14 24  1  0  0  0  0
 14 25  1  0  0  0  0
 14 26  1  0  0  0  0
 15 16  1  0  0  0  0
 17 20  1  0  0  0  0
 18 22  1  0  0  0  0
 19 23  1  0  0  0  0
 22 23  2  0  0  0  0
M  END
> <PUBCHEM_COMPOUND_ID_TYPE>
0

> <PUBCHEM_TOTAL_CHARGE>
0

> <PUBCHEM_SUBSTANCE_ID>
310949595

> <PUBCHEM_SUBSTANCE_VERSION>
1

> <PUBCHEM_EXT_DATASOURCE_NAME>
4488

> <PUBCHEM_EXT_DATASOURCE_REGID>
SCHEMBL16127792

> <PUBCHEM_SUBSTANCE_COMMENT>
InChI=1S/C20H24N4O2/c1-20(2,3)15-9-5-6-10-16(15)26-13-12-24(4)19(25)17-14-8-7-11-21-18(14)23-22-17/h5-11H,12-13H2,1-4H3,(H,21,22,23)
InChIKey=QJPNNCAICFWFSP-UHFFFAOYSA-N

> <PUBCHEM_SUBSTANCE_SYNONYM>
SCHEMBL16127792

> <PUBCHEM_XREF_EXT_ID>
SCHEMBL16127792

> <PUBCHEM_EXT_DATASOURCE_URL>
https://www.surechembl.org/

> <PUBCHEM_EXT_SUBSTANCE_URL>
https://www.surechembl.org/chemical/SCHEMBL16127792

> <PUBCHEM_CID_ASSOCIATIONS>
86272528  1

> <PUBCHEM_COORDINATE_TYPE>
1
3

$$$$
