310942744
  -OEChem-07211613022D

 22 23  0     0  0  0  0  0  0999 V2000
    2.1191    0.9749    0.0000 O   0  0  0  0  0  0  0  0  0  0  0  0
    0.6688    0.9749    0.0000 O   0  0  0  0  0  0  0  0  0  0  0  0
   -2.4574    0.2337    0.0000 O   0  0  0  0  0  0  0  0  0  0  0  0
   -0.9749    2.7959    0.0000 O   0  0  0  0  0  0  0  0  0  0  0  0
    1.3939    2.2319    0.0000 O   0  0  0  0  0  0  0  0  0  0  0  0
    1.4261   -2.7959    0.0000 O   0  5  0  0  0  0  0  0  0  0  0  0
    2.8281   -2.7636    0.0000 O   0  0  0  0  0  0  0  0  0  0  0  0
   -1.5228    1.4100    0.0000 N   0  0  0  0  0  0  0  0  0  0  0  0
    2.1191   -2.3608    0.0000 N   0  3  0  0  0  0  0  0  0  0  0  0
   -2.2641    1.1038    0.0000 C   0  0  0  0  0  0  0  0  0  0  0  0
   -1.6195    2.2319    0.0000 C   0  0  0  0  0  0  0  0  0  0  0  0
    2.1191    0.1531    0.0000 C   0  0  0  0  0  0  0  0  0  0  0  0
    2.1191   -1.5067    0.0000 C   0  0  0  0  0  0  0  0  0  0  0  0
   -2.8442    1.6840    0.0000 C   0  0  0  0  0  0  0  0  0  0  0  0
   -2.4252    2.4092    0.0000 C   0  0  0  0  0  0  0  0  0  0  0  0
   -0.7655    0.9910    0.0000 C   0  0  0  0  0  0  0  0  0  0  0  0
    1.3939   -0.2820    0.0000 C   0  0  0  0  0  0  0  0  0  0  0  0
    2.8442   -0.2820    0.0000 C   0  0  0  0  0  0  0  0  0  0  0  0
    1.3778    1.3778    0.0000 C   0  0  0  0  0  0  0  0  0  0  0  0
    1.4100   -1.1038    0.0000 C   0  0  0  0  0  0  0  0  0  0  0  0
    2.8442   -1.1038    0.0000 C   0  0  0  0  0  0  0  0  0  0  0  0
   -0.0725    1.3939    0.0000 C   0  0  0  0  0  0  0  0  0  0  0  0
  1 12  1  0  0  0  0
  1 19  1  0  0  0  0
  2 19  1  0  0  0  0
  2 22  1  0  0  0  0
  3 10  2  0  0  0  0
  4 11  2  0  0  0  0
  5 19  2  0  0  0  0
  6  9  1  0  0  0  0
  7  9  2  0  0  0  0
  8 10  1  0  0  0  0
  8 11  1  0  0  0  0
  8 16  1  0  0  0  0
  9 13  1  0  0  0  0
 10 14  1  0  0  0  0
 11 15  1  0  0  0  0
 12 17  2  0  0  0  0
 12 18  1  0  0  0  0
 13 20  2  0  0  0  0
 13 21  1  0  0  0  0
 14 15  2  0  0  0  0
 16 22  1  0  0  0  0
 17 20  1  0  0  0  0
 18 21  2  0  0  0  0
M  CHG  2   6  -1   9   1
M  END
> <PUBCHEM_COMPOUND_ID_TYPE>
0

> <PUBCHEM_TOTAL_CHARGE>
0

> <PUBCHEM_SUBSTANCE_ID>
310942744

> <PUBCHEM_SUBSTANCE_VERSION>
1

> <PUBCHEM_EXT_DATASOURCE_NAME>
4488

> <PUBCHEM_EXT_DATASOURCE_REGID>
SCHEMBL16120796

> <PUBCHEM_SUBSTANCE_COMMENT>
InChI=1S/C13H10N2O7/c16-11-5-6-12(17)14(11)7-8-21-13(18)22-10-3-1-9(2-4-10)15(19)20/h1-6H,7-8H2
InChIKey=IUBLPUIFYHHZIV-UHFFFAOYSA-N

> <PUBCHEM_SUBSTANCE_SYNONYM>
SCHEMBL16120796

> <PUBCHEM_XREF_EXT_ID>
SCHEMBL16120796

> <PUBCHEM_EXT_DATASOURCE_URL>
https://www.surechembl.org/

> <PUBCHEM_EXT_SUBSTANCE_URL>
https://www.surechembl.org/chemical/SCHEMBL16120796

> <PUBCHEM_CID_ASSOCIATIONS>
117609264  1

> <PUBCHEM_COORDINATE_TYPE>
1
3

$$$$
