310941485
  -OEChem-07211613022D

 26 28  0     0  0  0  0  0  0999 V2000
    0.1778    0.7113    0.0000 S   0  0  0  0  0  0  0  0  0  0  0  0
    0.1778   -0.1186    0.0000 S   0  0  0  0  0  0  0  0  0  0  0  0
   -0.5334   -1.3633    0.0000 O   0  0  0  0  0  0  0  0  0  0  0  0
    2.6910    1.0077    0.0000 O   0  0  0  0  0  0  0  0  0  0  0  0
    2.0272   -1.3633    0.0000 O   0  0  0  0  0  0  0  0  0  0  0  0
   -0.5453    1.9323    0.0000 O   0  0  0  0  0  0  0  0  0  0  0  0
    1.5530    0.7113    0.0000 C   0  0  0  0  0  0  0  0  0  0  0  0
    0.8654   -1.3633    0.0000 C   0  0  0  0  0  0  0  0  0  0  0  0
   -1.2448    0.7113    0.0000 C   0  0  0  0  0  0  0  0  0  0  0  0
   -1.2803   -0.1304    0.0000 C   0  0  0  0  0  0  0  0  0  0  0  0
   -0.5691    1.0907    0.0000 C   0  0  0  0  0  0  0  0  0  0  0  0
   -0.5571   -0.5453    0.0000 C   0  0  0  0  0  0  0  0  0  0  0  0
    0.8179    1.1025    0.0000 C   0  0  0  0  0  0  0  0  0  0  0  0
    1.9679    1.4107    0.0000 C   0  0  0  0  0  0  0  0  0  0  0  0
    2.2880    0.3082    0.0000 C   0  0  0  0  0  0  0  0  0  0  0  0
    0.1659   -1.7545    0.0000 C   0  0  0  0  0  0  0  0  0  0  0  0
    1.4344   -0.7824    0.0000 C   0  0  0  0  0  0  0  0  0  0  0  0
    1.4700   -1.9323    0.0000 C   0  0  0  0  0  0  0  0  0  0  0  0
    0.9958    0.1067    0.0000 C   0  0  0  0  0  0  0  0  0  0  0  0
   -1.9442    1.1025    0.0000 C   0  0  0  0  0  0  0  0  0  0  0  0
   -1.9679   -0.5216    0.0000 C   0  0  0  0  0  0  0  0  0  0  0  0
    0.3082   -0.7942    0.0000 C   0  0  0  0  0  0  0  0  0  0  0  0
   -2.6910    0.6995    0.0000 C   0  0  0  0  0  0  0  0  0  0  0  0
   -2.6910   -0.1186    0.0000 C   0  0  0  0  0  0  0  0  0  0  0  0
    1.5767   -0.4861    0.0000 C   0  0  0  0  0  0  0  0  0  0  0  0
    0.8773   -0.1778    0.0000 C   0  0  0  0  0  0  0  0  0  0  0  0
  1 11  1  0  0  0  0
  1 13  1  0  0  0  0
  2 12  2  0  0  0  0
  3 12  1  0  0  0  0
  3 16  1  0  0  0  0
  4 14  1  0  0  0  0
  4 15  1  0  0  0  0
  5 17  1  0  0  0  0
  5 18  1  0  0  0  0
  6 11  2  0  0  0  0
  7 13  1  0  0  0  0
  7 14  1  0  0  0  0
  7 15  1  0  0  0  0
  7 19  1  0  0  0  0
  8 16  1  0  0  0  0
  8 17  1  0  0  0  0
  8 18  1  0  0  0  0
  8 22  1  0  0  0  0
  9 10  1  0  0  0  0
  9 11  1  0  0  0  0
  9 20  2  0  0  0  0
 10 12  1  0  0  0  0
 10 21  2  0  0  0  0
 19 25  1  0  0  0  0
 20 23  1  0  0  0  0
 21 24  1  0  0  0  0
 22 26  1  0  0  0  0
 23 24  2  0  0  0  0
M  END
> <PUBCHEM_COMPOUND_ID_TYPE>
0

> <PUBCHEM_TOTAL_CHARGE>
0

> <PUBCHEM_SUBSTANCE_ID>
310941485

> <PUBCHEM_SUBSTANCE_VERSION>
1

> <PUBCHEM_EXT_DATASOURCE_NAME>
4488

> <PUBCHEM_EXT_DATASOURCE_REGID>
SCHEMBL16119516

> <PUBCHEM_SUBSTANCE_COMMENT>
InChI=1S/C20H26O4S2/c1-3-19(9-22-10-19)13-24-18(25)16-8-6-5-7-15(16)17(21)26-14-20(4-2)11-23-12-20/h5-8H,3-4,9-14H2,1-2H3
InChIKey=CIZCLJKSPJXPGB-UHFFFAOYSA-N

> <PUBCHEM_SUBSTANCE_SYNONYM>
SCHEMBL16119516

> <PUBCHEM_XREF_EXT_ID>
SCHEMBL16119516

> <PUBCHEM_EXT_DATASOURCE_URL>
https://www.surechembl.org/

> <PUBCHEM_EXT_SUBSTANCE_URL>
https://www.surechembl.org/chemical/SCHEMBL16119516

> <PUBCHEM_CID_ASSOCIATIONS>
117608306  1

> <PUBCHEM_COORDINATE_TYPE>
1
3

$$$$
