310931822
  -OEChem-07211613022D

 34 38  0     1  0  0  0  0  0999 V2000
    6.9588   -2.2240    0.0000 O   0  0  0  0  0  0  0  0  0  0  0  0
    2.7979   -3.9457    0.0000 O   0  0  0  0  0  0  0  0  0  0  0  0
    6.6001   -3.6587    0.0000 N   0  0  0  0  0  0  0  0  0  0  0  0
    6.9947   -4.3762    0.0000 N   0  0  0  0  0  0  0  0  0  0  0  0
    2.9772   -2.5109    0.0000 N   0  0  0  0  0  0  0  0  0  0  0  0
    5.3088   -4.2327    0.0000 N   0  0  0  0  0  0  0  0  0  0  0  0
    1.0043   -1.5783    0.0000 N   0  0  3  0  0  0  0  0  0  0  0  0
   10.7611   -0.8968    0.0000 N   0  0  0  0  0  0  0  0  0  0  0  0
    7.8914   -3.3718    0.0000 C   0  0  0  0  0  0  0  0  0  0  0  0
    7.1381   -3.0490    0.0000 C   0  0  0  0  0  0  0  0  0  0  0  0
    8.6089   -2.9772    0.0000 C   0  0  0  0  0  0  0  0  0  0  0  0
    5.7751   -3.5512    0.0000 C   0  0  0  0  0  0  0  0  0  0  0  0
    7.8197   -4.1968    0.0000 C   0  0  0  0  0  0  0  0  0  0  0  0
    4.1251   -3.4076    0.0000 C   0  0  0  0  0  0  0  0  0  0  0  0
    8.6089   -2.1163    0.0000 C   0  0  0  0  0  0  0  0  0  0  0  0
    3.3001   -3.3001    0.0000 C   0  0  0  0  0  0  0  0  0  0  0  0
    5.4523   -2.7979    0.0000 C   0  0  0  0  0  0  0  0  0  0  0  0
    1.8294   -1.6859    0.0000 C   0  0  3  0  0  0  0  0  0  0  0  0
    9.3262   -3.3718    0.0000 C   0  0  0  0  0  0  0  0  0  0  0  0
    4.4479   -4.1609    0.0000 C   0  0  0  0  0  0  0  0  0  0  0  0
    4.5914   -2.7262    0.0000 C   0  0  0  0  0  0  0  0  0  0  0  0
    0.6815   -0.8250    0.0000 C   0  0  0  0  0  0  0  0  0  0  0  0
    2.1522   -2.4392    0.0000 C   0  0  0  0  0  0  0  0  0  0  0  0
    9.3262   -1.7218    0.0000 C   0  0  0  0  0  0  0  0  0  0  0  0
   10.0436   -2.1163    0.0000 C   0  0  0  0  0  0  0  0  0  0  0  0
   10.0436   -2.9772    0.0000 C   0  0  0  0  0  0  0  0  0  0  0  0
    3.4794   -1.8652    0.0000 C   0  0  0  0  0  0  0  0  0  0  0  0
    0.0000   -0.3229    0.0000 C   0  0  0  0  0  0  0  0  0  0  0  0
    0.7891    0.0000    0.0000 C   0  0  0  0  0  0  0  0  0  0  0  0
    2.3315   -1.0043    0.0000 C   0  0  0  0  0  0  0  0  0  0  0  0
    3.1566   -1.1120    0.0000 C   0  0  0  0  0  0  0  0  0  0  0  0
    7.8914   -1.7218    0.0000 C   0  0  0  0  0  0  0  0  0  0  0  0
    0.5022   -2.2598    0.0000 C   0  0  0  0  0  0  0  0  0  0  0  0
   10.7611   -1.7218    0.0000 C   0  0  0  0  0  0  0  0  0  0  0  0
  1 10  1  0  0  0  0
  2 16  2  0  0  0  0
  3  4  1  0  0  0  0
  3 10  1  0  0  0  0
  3 12  1  0  0  0  0
  4 13  2  0  0  0  0
  5 16  1  0  0  0  0
  5 23  1  0  0  0  0
  5 27  1  0  0  0  0
  6 12  1  0  0  0  0
  6 20  2  0  0  0  0
 18  7  1  1  0  0  0
  7 22  1  0  0  0  0
  7 33  1  0  0  0  0
  8 34  3  0  0  0  0
  9 10  2  0  0  0  0
  9 11  1  0  0  0  0
  9 13  1  0  0  0  0
 11 15  2  0  0  0  0
 11 19  1  0  0  0  0
 12 17  2  0  0  0  0
 14 16  1  0  0  0  0
 14 20  1  0  0  0  0
 14 21  2  0  0  0  0
 15 24  1  0  0  0  0
 15 32  1  0  0  0  0
 17 21  1  0  0  0  0
 18 23  1  0  0  0  0
 18 30  1  0  0  0  0
 19 26  2  0  0  0  0
 22 28  1  0  0  0  0
 22 29  1  0  0  0  0
 24 25  2  0  0  0  0
 25 26  1  0  0  0  0
 25 34  1  0  0  0  0
 27 31  1  0  0  0  0
 28 29  1  0  0  0  0
 30 31  1  0  0  0  0
M  END
> <PUBCHEM_COMPOUND_ID_TYPE>
0

> <PUBCHEM_TOTAL_CHARGE>
0

> <PUBCHEM_SUBSTANCE_ID>
310931822

> <PUBCHEM_SUBSTANCE_VERSION>
1

> <PUBCHEM_EXT_DATASOURCE_NAME>
4488

> <PUBCHEM_EXT_DATASOURCE_REGID>
SCHEMBL16109155

> <PUBCHEM_SUBSTANCE_COMMENT>
InChI=1S/C26H28N6O2/c1-17-12-18(13-27)5-9-22(17)23-15-29-32(26(23)34)24-10-6-19(14-28-24)25(33)31-11-3-4-21(16-31)30(2)20-7-8-20/h5-6,9-10,12,14-15,20-21,34H,3-4,7-8,11,16H2,1-2H3/t21-/m0/s1
InChIKey=PVCOTRMAVDDRKO-NRFANRHFSA-N

> <PUBCHEM_SUBSTANCE_SYNONYM>
SCHEMBL16109155

> <PUBCHEM_XREF_EXT_ID>
SCHEMBL16109155

> <PUBCHEM_EXT_DATASOURCE_URL>
https://www.surechembl.org/

> <PUBCHEM_EXT_SUBSTANCE_URL>
https://www.surechembl.org/chemical/SCHEMBL16109155

> <PUBCHEM_CID_ASSOCIATIONS>
117600495  1

> <PUBCHEM_COORDINATE_TYPE>
1
3

> <PUBCHEM_BONDANNOTATIONS>
18  7  5

$$$$
