310943753
  -OEChem-07211613022D

 36 39  0     0  0  0  0  0  0999 V2000
    4.1976    2.1564    0.0000 F   0  0  0  0  0  0  0  0  0  0  0  0
    5.0207    2.1564    0.0000 F   0  0  0  0  0  0  0  0  0  0  0  0
    1.7613    2.2717    0.0000 O   0  0  0  0  0  0  0  0  0  0  0  0
   -5.3170    2.2717    0.0000 O   0  0  0  0  0  0  0  0  0  0  0  0
   -1.0700   -2.6667    0.0000 O   0  0  0  0  0  0  0  0  0  0  0  0
   -3.9013    1.4321    0.0000 N   0  0  0  0  0  0  0  0  0  0  0  0
   -3.1935    0.1975    0.0000 N   0  0  0  0  0  0  0  0  0  0  0  0
    1.0700    1.0206    0.0000 N   0  0  0  0  0  0  0  0  0  0  0  0
   -0.3457    2.6667    0.0000 N   0  0  0  0  0  0  0  0  0  0  0  0
   -2.4857   -1.0370    0.0000 N   0  0  0  0  0  0  0  0  0  0  0  0
    3.9013    0.1975    0.0000 N   0  0  0  0  0  0  0  0  0  0  0  0
   -1.7613    1.0370    0.0000 C   0  0  0  0  0  0  0  0  0  0  0  0
   -1.0700    1.4486    0.0000 C   0  0  0  0  0  0  0  0  0  0  0  0
   -3.1771    1.0370    0.0000 C   0  0  0  0  0  0  0  0  0  0  0  0
   -2.4857    1.4486    0.0000 C   0  0  0  0  0  0  0  0  0  0  0  0
   -1.0535    2.2717    0.0000 C   0  0  0  0  0  0  0  0  0  0  0  0
    0.3622    1.4486    0.0000 C   0  0  0  0  0  0  0  0  0  0  0  0
   -0.3457    1.0370    0.0000 C   0  0  0  0  0  0  0  0  0  0  0  0
   -1.7778    0.1975    0.0000 C   0  0  0  0  0  0  0  0  0  0  0  0
   -2.4692   -0.1975    0.0000 C   0  0  0  0  0  0  0  0  0  0  0  0
    2.4857    1.0370    0.0000 C   0  0  0  0  0  0  0  0  0  0  0  0
    1.7613    1.4321    0.0000 C   0  0  0  0  0  0  0  0  0  0  0  0
    3.9013    1.0370    0.0000 C   0  0  0  0  0  0  0  0  0  0  0  0
    0.3622    2.2717    0.0000 C   0  0  0  0  0  0  0  0  0  0  0  0
    4.6092    1.4651    0.0000 C   0  0  0  0  0  0  0  0  0  0  0  0
    3.1935    1.4486    0.0000 C   0  0  0  0  0  0  0  0  0  0  0  0
    2.4857    0.2140    0.0000 C   0  0  0  0  0  0  0  0  0  0  0  0
   -3.9013    2.2717    0.0000 C   0  0  0  0  0  0  0  0  0  0  0  0
   -4.5763    1.0370    0.0000 C   0  0  0  0  0  0  0  0  0  0  0  0
   -1.7778    2.6667    0.0000 C   0  0  0  0  0  0  0  0  0  0  0  0
    3.2100   -0.1975    0.0000 C   0  0  0  0  0  0  0  0  0  0  0  0
   -4.6256    2.6667    0.0000 C   0  0  0  0  0  0  0  0  0  0  0  0
   -5.3006    1.4321    0.0000 C   0  0  0  0  0  0  0  0  0  0  0  0
    5.3170    1.0041    0.0000 C   0  0  0  0  0  0  0  0  0  0  0  0
   -1.7613   -1.4321    0.0000 C   0  0  0  0  0  0  0  0  0  0  0  0
   -1.7613   -2.2552    0.0000 C   0  0  0  0  0  0  0  0  0  0  0  0
  1 25  1  0  0  0  0
  2 25  1  0  0  0  0
  3 22  2  0  0  0  0
  4 32  1  0  0  0  0
  4 33  1  0  0  0  0
  5 36  1  0  0  0  0
  6 14  1  0  0  0  0
  6 28  1  0  0  0  0
  6 29  1  0  0  0  0
  7 14  2  0  0  0  0
  7 20  1  0  0  0  0
  8 17  1  0  0  0  0
  8 22  1  0  0  0  0
  9 16  2  0  0  0  0
  9 24  1  0  0  0  0
 10 20  1  0  0  0  0
 10 35  1  0  0  0  0
 11 23  1  0  0  0  0
 11 31  2  0  0  0  0
 12 13  1  0  0  0  0
 12 15  2  0  0  0  0
 12 19  1  0  0  0  0
 13 16  1  0  0  0  0
 13 18  2  0  0  0  0
 14 15  1  0  0  0  0
 16 30  1  0  0  0  0
 17 18  1  0  0  0  0
 17 24  2  0  0  0  0
 19 20  2  0  0  0  0
 21 22  1  0  0  0  0
 21 26  1  0  0  0  0
 21 27  2  0  0  0  0
 23 25  1  0  0  0  0
 23 26  2  0  0  0  0
 25 34  1  0  0  0  0
 27 31  1  0  0  0  0
 28 32  1  0  0  0  0
 29 33  1  0  0  0  0
 35 36  1  0  0  0  0
M  END
> <PUBCHEM_COMPOUND_ID_TYPE>
0

> <PUBCHEM_TOTAL_CHARGE>
0

> <PUBCHEM_SUBSTANCE_ID>
310943753

> <PUBCHEM_SUBSTANCE_VERSION>
1

> <PUBCHEM_EXT_DATASOURCE_NAME>
4488

> <PUBCHEM_EXT_DATASOURCE_REGID>
SCHEMBL16121822

> <PUBCHEM_SUBSTANCE_COMMENT>
InChI=1S/C25H28F2N6O3/c1-16-20(18-12-22(29-5-8-34)32-23(13-18)33-6-9-36-10-7-33)14-19(15-30-16)31-24(35)17-3-4-28-21(11-17)25(2,26)27/h3-4,11-15,34H,5-10H2,1-2H3,(H,29,32)(H,31,35)
InChIKey=PKZOIWHEQLERMA-UHFFFAOYSA-N

> <PUBCHEM_SUBSTANCE_SYNONYM>
SCHEMBL16121822

> <PUBCHEM_XREF_EXT_ID>
SCHEMBL16121822

> <PUBCHEM_EXT_DATASOURCE_URL>
https://www.surechembl.org/

> <PUBCHEM_EXT_SUBSTANCE_URL>
https://www.surechembl.org/chemical/SCHEMBL16121822

> <PUBCHEM_CID_ASSOCIATIONS>
117610115  1

> <PUBCHEM_COORDINATE_TYPE>
1
3

$$$$
