310942858
  -OEChem-07211613022D

 73 77  0     1  0  0  0  0  0999 V2000
  -11.4978   -4.2907    0.0000 F   0  0  0  0  0  0  0  0  0  0  0  0
   -4.5830   -5.4602    0.0000 F   0  0  0  0  0  0  0  0  0  0  0  0
  -11.1616   -7.5799    0.0000 F   0  0  0  0  0  0  0  0  0  0  0  0
   -8.8371   -6.2057    0.0000 O   0  0  0  0  0  0  0  0  0  0  0  0
   -8.0039   -7.6383    0.0000 O   0  0  0  0  0  0  0  0  0  0  0  0
   -5.3871   -3.1211    0.0000 O   0  0  0  0  0  0  0  0  0  0  0  0
   -5.3871   -1.6885    0.0000 O   0  0  0  0  0  0  0  0  0  0  0  0
   11.0300    4.7292    0.0000 O   0  0  0  0  0  0  0  0  0  0  0  0
   11.0300    7.6383    0.0000 O   0  0  0  0  0  0  0  0  0  0  0  0
   -2.4926   -0.9722    0.0000 O   0  0  0  0  0  0  0  0  0  0  0  0
    8.7202    5.4602    0.0000 O   0  0  0  0  0  0  0  0  0  0  0  0
   -0.4166   -0.2558    0.0000 O   0  0  0  0  0  0  0  0  0  0  0  0
    7.0536    4.0276    0.0000 O   0  0  0  0  0  0  0  0  0  0  0  0
    4.9777    3.3111    0.0000 O   0  0  0  0  0  0  0  0  0  0  0  0
    1.2499    1.1622    0.0000 O   0  0  0  0  0  0  0  0  0  0  0  0
    3.3258    1.8785    0.0000 O   0  0  0  0  0  0  0  0  0  0  0  0
   -9.2026   -3.8814    0.0000 N   0  0  0  0  0  0  0  0  0  0  0  0
   -7.4776   -5.2702    0.0000 N   0  0  0  0  0  0  0  0  0  0  0  0
   -9.2026   -5.2263    0.0000 N   0  0  0  0  0  0  0  0  0  0  0  0
   -5.6941   -7.2876    0.0000 N   0  0  0  0  0  0  0  0  0  0  0  0
   -4.1591   -2.4049    0.0000 N   0  0  0  0  0  0  0  0  0  0  0  0
   10.7814    6.1911    0.0000 N   0  0  0  0  0  0  0  0  0  0  0  0
   -7.8869   -4.5538    0.0000 C   0  0  3  0  0  0  0  0  0  0  0  0
   -8.7202   -4.5392    0.0000 C   0  0  0  0  0  0  0  0  0  0  0  0
   -7.4776   -3.8229    0.0000 C   0  0  0  0  0  0  0  0  0  0  0  0
   -9.9920   -4.9631    0.0000 C   0  0  0  0  0  0  0  0  0  0  0  0
   -9.9774   -4.1299    0.0000 C   0  0  0  0  0  0  0  0  0  0  0  0
  -10.6645   -5.4602    0.0000 C   0  0  0  0  0  0  0  0  0  0  0  0
   -7.9893   -6.1911    0.0000 C   0  0  0  0  0  0  0  0  0  0  0  0
   -6.3811   -5.2702    0.0000 C   0  0  0  0  0  0  0  0  0  0  0  0
   -8.9541   -3.0919    0.0000 C   0  0  0  0  0  0  0  0  0  0  0  0
   -6.6443   -3.8375    0.0000 C   0  0  0  0  0  0  0  0  0  0  0  0
  -11.4247   -5.1240    0.0000 C   0  0  0  0  0  0  0  0  0  0  0  0
   -5.9864   -5.9718    0.0000 C   0  0  3  0  0  0  0  0  0  0  0  0
   -8.1939   -3.4427    0.0000 C   0  0  0  0  0  0  0  0  0  0  0  0
   -7.4776   -3.0042    0.0000 C   0  0  0  0  0  0  0  0  0  0  0  0
  -10.5767   -6.2642    0.0000 C   0  0  0  0  0  0  0  0  0  0  0  0
   -7.5945   -6.9221    0.0000 C   0  0  3  0  0  0  0  0  0  0  0  0
   -9.5096   -2.4780    0.0000 C   0  0  0  0  0  0  0  0  0  0  0  0
   -5.1532   -6.0742    0.0000 C   0  0  3  0  0  0  0  0  0  0  0  0
  -11.2346   -6.7467    0.0000 C   0  0  0  0  0  0  0  0  0  0  0  0
  -12.0825   -5.6064    0.0000 C   0  0  0  0  0  0  0  0  0  0  0  0
   -6.2204   -3.1211    0.0000 C   0  0  0  0  0  0  0  0  0  0  0  0
   -6.3080   -6.7467    0.0000 C   0  0  0  0  0  0  0  0  0  0  0  0
  -11.9948   -6.4104    0.0000 C   0  0  0  0  0  0  0  0  0  0  0  0
   -9.2464   -1.6885    0.0000 C   0  0  0  0  0  0  0  0  0  0  0  0
  -10.3136   -2.6387    0.0000 C   0  0  0  0  0  0  0  0  0  0  0  0
   -4.9777   -6.8636    0.0000 C   0  0  0  0  0  0  0  0  0  0  0  0
   -6.7759   -6.9221    0.0000 C   0  0  0  0  0  0  0  0  0  0  0  0
   -9.7874   -1.1037    0.0000 C   0  0  0  0  0  0  0  0  0  0  0  0
  -10.8546   -2.0393    0.0000 C   0  0  0  0  0  0  0  0  0  0  0  0
  -10.5914   -1.2645    0.0000 C   0  0  0  0  0  0  0  0  0  0  0  0
   -4.9777   -2.4049    0.0000 C   0  0  0  0  0  0  0  0  0  0  0  0
   -3.7205   -1.6885    0.0000 C   0  0  0  0  0  0  0  0  0  0  0  0
   11.2931    5.5625    0.0000 C   0  0  0  0  0  0  0  0  0  0  0  0
   11.2785    6.8490    0.0000 C   0  0  0  0  0  0  0  0  0  0  0  0
   12.0679    5.7671    0.0000 C   0  0  0  0  0  0  0  0  0  0  0  0
   12.0825    6.6005    0.0000 C   0  0  0  0  0  0  0  0  0  0  0  0
   -2.9018   -1.6885    0.0000 C   0  0  0  0  0  0  0  0  0  0  0  0
    9.9628    6.1911    0.0000 C   0  0  0  0  0  0  0  0  0  0  0  0
    9.5389    5.4748    0.0000 C   0  0  0  0  0  0  0  0  0  0  0  0
   -1.6592   -0.9722    0.0000 C   0  0  0  0  0  0  0  0  0  0  0  0
    8.2963    4.7585    0.0000 C   0  0  0  0  0  0  0  0  0  0  0  0
   -1.2353   -0.2558    0.0000 C   0  0  0  0  0  0  0  0  0  0  0  0
    7.4776    4.7585    0.0000 C   0  0  0  0  0  0  0  0  0  0  0  0
    6.2349    4.0421    0.0000 C   0  0  0  0  0  0  0  0  0  0  0  0
    0.0073    0.4605    0.0000 C   0  0  0  0  0  0  0  0  0  0  0  0
    5.8110    3.3258    0.0000 C   0  0  0  0  0  0  0  0  0  0  0  0
    0.8261    0.4605    0.0000 C   0  0  0  0  0  0  0  0  0  0  0  0
    4.5684    2.6095    0.0000 C   0  0  0  0  0  0  0  0  0  0  0  0
    2.0832    1.1914    0.0000 C   0  0  0  0  0  0  0  0  0  0  0  0
    3.7498    2.6095    0.0000 C   0  0  0  0  0  0  0  0  0  0  0  0
    2.4926    1.8932    0.0000 C   0  0  0  0  0  0  0  0  0  0  0  0
  1 33  1  0  0  0  0
 40  2  1  1  0  0  0
  3 41  1  0  0  0  0
  4 29  2  0  0  0  0
 38  5  1  6  0  0  0
  6 43  1  0  0  0  0
  6 53  1  0  0  0  0
  7 53  2  0  0  0  0
  8 55  2  0  0  0  0
  9 56  2  0  0  0  0
 10 59  1  0  0  0  0
 10 62  1  0  0  0  0
 11 61  1  0  0  0  0
 11 63  1  0  0  0  0
 12 64  1  0  0  0  0
 12 67  1  0  0  0  0
 13 65  1  0  0  0  0
 13 66  1  0  0  0  0
 14 68  1  0  0  0  0
 14 70  1  0  0  0  0
 15 69  1  0  0  0  0
 15 71  1  0  0  0  0
 16 72  1  0  0  0  0
 16 73  1  0  0  0  0
 17 24  1  0  0  0  0
 17 27  1  0  0  0  0
 17 31  1  0  0  0  0
 23 18  1  1  0  0  0
 18 29  1  0  0  0  0
 18 30  1  0  0  0  0
 19 24  2  0  0  0  0
 19 26  1  0  0  0  0
 20 44  1  0  0  0  0
 20 48  1  0  0  0  0
 21 53  1  0  0  0  0
 21 54  1  0  0  0  0
 22 55  1  0  0  0  0
 22 56  1  0  0  0  0
 22 60  1  0  0  0  0
 23 24  1  0  0  0  0
 23 25  1  0  0  0  0
 25 32  1  0  0  0  0
 25 35  1  0  0  0  0
 25 36  1  0  0  0  0
 26 27  2  0  0  0  0
 26 28  1  0  0  0  0
 28 33  2  0  0  0  0
 28 37  1  0  0  0  0
 29 38  1  0  0  0  0
 34 30  1  1  0  0  0
 31 39  1  0  0  0  0
 32 43  1  0  0  0  0
 33 42  1  0  0  0  0
 34 40  1  0  0  0  0
 34 44  1  0  0  0  0
 37 41  2  0  0  0  0
 38 49  1  0  0  0  0
 39 46  2  0  0  0  0
 39 47  1  0  0  0  0
 40 48  1  0  0  0  0
 41 45  1  0  0  0  0
 42 45  2  0  0  0  0
 46 50  1  0  0  0  0
 47 51  2  0  0  0  0
 50 52  2  0  0  0  0
 51 52  1  0  0  0  0
 54 59  1  0  0  0  0
 55 57  1  0  0  0  0
 56 58  1  0  0  0  0
 57 58  2  0  0  0  0
 60 61  1  0  0  0  0
 62 64  1  0  0  0  0
 63 65  1  0  0  0  0
 66 68  1  0  0  0  0
 67 69  1  0  0  0  0
 70 72  1  0  0  0  0
 71 73  1  0  0  0  0
M  END
> <PUBCHEM_COMPOUND_ID_TYPE>
0

> <PUBCHEM_TOTAL_CHARGE>
0

> <PUBCHEM_SUBSTANCE_ID>
310942858

> <PUBCHEM_SUBSTANCE_VERSION>
1

> <PUBCHEM_EXT_DATASOURCE_NAME>
4488

> <PUBCHEM_EXT_DATASOURCE_REGID>
SCHEMBL16120915

> <PUBCHEM_SUBSTANCE_COMMENT>
InChI=1S/C51H71F3N6O13/c1-37(61)49(64)60(35-39-32-55-33-43(39)54)47(48-57-44(41-31-40(52)9-10-42(41)53)36-58(48)34-38-7-5-4-6-8-38)51(2,3)13-16-73-50(65)56-14-17-66-19-21-68-23-25-70-27-29-72-30-28-71-26-24-69-22-20-67-18-15-59-45(62)11-12-46(59)63/h4-12,31,36-37,39,43,47,55,61H,13-30,32-35H2,1-3H3,(H,56,65)/t37-,39-,43-,47-/m0/s1
InChIKey=GCTOUHQTIDJTJG-FLAUYGBOSA-N

> <PUBCHEM_SUBSTANCE_SYNONYM>
SCHEMBL16120915

> <PUBCHEM_XREF_EXT_ID>
SCHEMBL16120915

> <PUBCHEM_EXT_DATASOURCE_URL>
https://www.surechembl.org/

> <PUBCHEM_EXT_SUBSTANCE_URL>
https://www.surechembl.org/chemical/SCHEMBL16120915

> <PUBCHEM_CID_ASSOCIATIONS>
117609348  1

> <PUBCHEM_COORDINATE_TYPE>
1
3

> <PUBCHEM_BONDANNOTATIONS>
23  18  5
40  2  5
34  30  5
38  5  6

$$$$
