310948764
  -OEChem-07211613022D

 30 34  0     1  0  0  0  0  0999 V2000
    2.8737   -3.4038    0.0000 Cl  0  0  0  0  0  0  0  0  0  0  0  0
   -2.1483   -2.8644    0.0000 O   0  0  0  0  0  0  0  0  0  0  0  0
   -0.6417   -0.5208    0.0000 N   0  0  0  0  0  0  0  0  0  0  0  0
   -0.1395   -1.1904    0.0000 N   0  0  0  0  0  0  0  0  0  0  0  0
   -0.3813   -2.6598    0.0000 N   0  0  0  0  0  0  0  0  0  0  0  0
   -2.8737   -1.5996    0.0000 N   0  0  0  0  0  0  0  0  0  0  0  0
    0.3627    2.6598    0.0000 N   0  0  0  0  0  0  0  0  0  0  0  0
    1.5345   -0.7998    0.0000 N   0  0  0  0  0  0  0  0  0  0  0  0
   -1.4229   -0.7626    0.0000 C   0  0  0  0  0  0  0  0  0  0  0  0
   -1.4415   -1.5996    0.0000 C   0  0  0  0  0  0  0  0  0  0  0  0
   -0.6417   -1.8600    0.0000 C   0  0  0  0  0  0  0  0  0  0  0  0
   -0.3813    0.2976    0.0000 C   0  0  3  0  0  0  0  0  0  0  0  0
   -2.1483   -1.9902    0.0000 C   0  0  0  0  0  0  0  0  0  0  0  0
    0.4371    0.4650    0.0000 C   0  0  3  0  0  0  0  0  0  0  0  0
   -2.1483   -0.3534    0.0000 C   0  0  0  0  0  0  0  0  0  0  0  0
   -0.9207    0.8928    0.0000 C   0  0  0  0  0  0  0  0  0  0  0  0
    0.1395    1.8600    0.0000 C   0  0  3  0  0  0  0  0  0  0  0  0
    0.6789    1.2462    0.0000 C   0  0  0  0  0  0  0  0  0  0  0  0
   -2.8551   -0.7626    0.0000 C   0  0  0  0  0  0  0  0  0  0  0  0
   -0.6603    1.6926    0.0000 C   0  0  0  0  0  0  0  0  0  0  0  0
    0.4371   -2.8272    0.0000 C   0  0  0  0  0  0  0  0  0  0  0  0
    0.9951   -0.1860    0.0000 C   0  0  0  0  0  0  0  0  0  0  0  0
    1.0695    3.0876    0.0000 C   0  0  0  0  0  0  0  0  0  0  0  0
   -0.0279    3.4038    0.0000 C   0  0  0  0  0  0  0  0  0  0  0  0
    0.6975   -3.6084    0.0000 C   0  0  0  0  0  0  0  0  0  0  0  0
    0.9951   -2.2134    0.0000 C   0  0  0  0  0  0  0  0  0  0  0  0
    0.6603    3.7758    0.0000 C   0  0  0  0  0  0  0  0  0  0  0  0
    1.5159   -3.7758    0.0000 C   0  0  0  0  0  0  0  0  0  0  0  0
    1.8135   -2.3808    0.0000 C   0  0  0  0  0  0  0  0  0  0  0  0
    2.0553   -3.1620    0.0000 C   0  0  0  0  0  0  0  0  0  0  0  0
  1 30  1  0  0  0  0
  2 13  2  0  0  0  0
  3  4  1  0  0  0  0
  3  9  1  0  0  0  0
 12  3  1  1  0  0  0
  4 11  2  0  0  0  0
  5 11  1  0  0  0  0
  5 21  1  0  0  0  0
  6 13  1  0  0  0  0
  6 19  1  0  0  0  0
  7 17  1  0  0  0  0
  7 23  1  0  0  0  0
  7 24  1  0  0  0  0
  8 22  3  0  0  0  0
  9 10  2  0  0  0  0
  9 15  1  0  0  0  0
 10 11  1  0  0  0  0
 10 13  1  0  0  0  0
 12 14  1  0  0  0  0
 12 16  1  0  0  0  0
 14 18  1  0  0  0  0
 14 22  1  6  0  0  0
 15 19  2  0  0  0  0
 16 20  1  0  0  0  0
 17 18  1  6  0  0  0
 17 20  1  0  0  0  0
 21 25  2  0  0  0  0
 21 26  1  0  0  0  0
 23 27  1  0  0  0  0
 24 27  1  0  0  0  0
 25 28  1  0  0  0  0
 26 29  2  0  0  0  0
 28 30  2  0  0  0  0
 29 30  1  0  0  0  0
M  END
> <PUBCHEM_COMPOUND_ID_TYPE>
0

> <PUBCHEM_TOTAL_CHARGE>
0

> <PUBCHEM_SUBSTANCE_ID>
310948764

> <PUBCHEM_SUBSTANCE_VERSION>
1

> <PUBCHEM_EXT_DATASOURCE_NAME>
4488

> <PUBCHEM_EXT_DATASOURCE_REGID>
SCHEMBL16126948

> <PUBCHEM_SUBSTANCE_COMMENT>
InChI=1S/C22H23ClN6O/c23-15-2-4-16(5-3-15)26-21-20-19(8-9-25-22(20)30)29(27-21)18-7-6-17(12-14(18)13-24)28-10-1-11-28/h2-5,8-9,14,17-18H,1,6-7,10-12H2,(H,25,30)(H,26,27)/t14-,17+,18+/m1/s1
InChIKey=AWQHCAMBNMTGJD-JLSDUUJJSA-N

> <PUBCHEM_SUBSTANCE_SYNONYM>
SCHEMBL16126948

> <PUBCHEM_XREF_EXT_ID>
SCHEMBL16126948

> <PUBCHEM_EXT_DATASOURCE_URL>
https://www.surechembl.org/

> <PUBCHEM_EXT_SUBSTANCE_URL>
https://www.surechembl.org/chemical/SCHEMBL16126948

> <PUBCHEM_CID_ASSOCIATIONS>
117614306  1

> <PUBCHEM_COORDINATE_TYPE>
1
3

> <PUBCHEM_BONDANNOTATIONS>
14  22  6
17  18  6
12  3  5

$$$$
