310946906
  -OEChem-07211613022D

 29 32  0     0  0  0  0  0  0999 V2000
   -0.0183   -2.5977    0.0000 O   0  0  0  0  0  0  0  0  0  0  0  0
   -1.2558   -6.1701    0.0000 N   0  0  0  0  0  0  0  0  0  0  0  0
   -1.7407   -6.8375    0.0000 N   0  0  0  0  0  0  0  0  0  0  0  0
    0.9578   -7.2500    0.0000 N   0  0  0  0  0  0  0  0  0  0  0  0
    0.2433   -8.4875    0.0000 N   0  0  0  0  0  0  0  0  0  0  0  0
   -0.8860   -8.8852    0.0000 N   0  0  0  0  0  0  0  0  0  0  0  0
   -1.8964   -9.8956    0.0000 N   0  0  0  0  0  0  0  0  0  0  0  0
   -0.4712   -7.2500    0.0000 C   0  0  0  0  0  0  0  0  0  0  0  0
   -0.4712   -6.4250    0.0000 C   0  0  0  0  0  0  0  0  0  0  0  0
   -1.2558   -7.5050    0.0000 C   0  0  0  0  0  0  0  0  0  0  0  0
    0.2433   -7.6625    0.0000 C   0  0  0  0  0  0  0  0  0  0  0  0
   -1.4693   -8.3018    0.0000 C   0  0  0  0  0  0  0  0  0  0  0  0
    0.2433   -6.0125    0.0000 C   0  0  0  0  0  0  0  0  0  0  0  0
   -1.6683   -5.4556    0.0000 C   0  0  0  0  0  0  0  0  0  0  0  0
    0.9578   -6.4250    0.0000 C   0  0  0  0  0  0  0  0  0  0  0  0
   -2.2662   -8.5154    0.0000 C   0  0  0  0  0  0  0  0  0  0  0  0
   -1.2558   -4.7411    0.0000 C   0  0  0  0  0  0  0  0  0  0  0  0
   -2.4797   -9.3123    0.0000 C   0  0  0  0  0  0  0  0  0  0  0  0
    0.9578   -8.9000    0.0000 C   0  0  0  0  0  0  0  0  0  0  0  0
   -1.0995   -9.6821    0.0000 C   0  0  0  0  0  0  0  0  0  0  0  0
   -0.4308   -4.7411    0.0000 C   0  0  0  0  0  0  0  0  0  0  0  0
   -1.6683   -4.0267    0.0000 C   0  0  0  0  0  0  0  0  0  0  0  0
   -0.4308   -3.3122    0.0000 C   0  0  0  0  0  0  0  0  0  0  0  0
   -0.0183   -4.0267    0.0000 C   0  0  0  0  0  0  0  0  0  0  0  0
   -1.2558   -3.3122    0.0000 C   0  0  0  0  0  0  0  0  0  0  0  0
   -3.2766   -9.5258    0.0000 C   0  0  0  0  0  0  0  0  0  0  0  0
    0.9578   -9.7250    0.0000 C   0  0  0  0  0  0  0  0  0  0  0  0
    1.6722   -8.4875    0.0000 C   0  0  0  0  0  0  0  0  0  0  0  0
   -0.4308   -1.8832    0.0000 C   0  0  0  0  0  0  0  0  0  0  0  0
  1 23  1  0  0  0  0
  1 29  1  0  0  0  0
  2  3  1  0  0  0  0
  2  9  1  0  0  0  0
  2 14  1  0  0  0  0
  3 10  2  0  0  0  0
  4 11  2  0  0  0  0
  4 15  1  0  0  0  0
  5 11  1  0  0  0  0
  5 19  1  0  0  0  0
  6 12  1  0  0  0  0
  6 20  2  0  0  0  0
  7 18  2  0  0  0  0
  7 20  1  0  0  0  0
  8  9  2  0  0  0  0
  8 10  1  0  0  0  0
  8 11  1  0  0  0  0
  9 13  1  0  0  0  0
 10 12  1  0  0  0  0
 12 16  2  0  0  0  0
 13 15  2  0  0  0  0
 14 17  1  0  0  0  0
 16 18  1  0  0  0  0
 17 21  2  0  0  0  0
 17 22  1  0  0  0  0
 18 26  1  0  0  0  0
 19 27  1  0  0  0  0
 19 28  1  0  0  0  0
 21 24  1  0  0  0  0
 22 25  2  0  0  0  0
 23 24  2  0  0  0  0
 23 25  1  0  0  0  0
M  END
> <PUBCHEM_COMPOUND_ID_TYPE>
0

> <PUBCHEM_TOTAL_CHARGE>
0

> <PUBCHEM_SUBSTANCE_ID>
310946906

> <PUBCHEM_SUBSTANCE_VERSION>
1

> <PUBCHEM_EXT_DATASOURCE_NAME>
4488

> <PUBCHEM_EXT_DATASOURCE_REGID>
SCHEMBL16125030

> <PUBCHEM_SUBSTANCE_COMMENT>
InChI=1S/C22H24N6O/c1-14(2)26-22-20-19(9-10-23-22)28(12-16-5-7-17(29-4)8-6-16)27-21(20)18-11-15(3)24-13-25-18/h5-11,13-14H,12H2,1-4H3,(H,23,26)
InChIKey=LQAPEHUOMHDJSW-UHFFFAOYSA-N

> <PUBCHEM_SUBSTANCE_SYNONYM>
SCHEMBL16125030

> <PUBCHEM_XREF_EXT_ID>
SCHEMBL16125030

> <PUBCHEM_EXT_DATASOURCE_URL>
https://www.surechembl.org/

> <PUBCHEM_EXT_SUBSTANCE_URL>
https://www.surechembl.org/chemical/SCHEMBL16125030

> <PUBCHEM_CID_ASSOCIATIONS>
117612764  1

> <PUBCHEM_COORDINATE_TYPE>
1
3

$$$$
