310943388
  -OEChem-07211613022D

 37 40  0     0  0  0  0  0  0999 V2000
    4.6984   -1.1210    0.0000 F   0  0  0  0  0  0  0  0  0  0  0  0
    3.9070   -1.9288    0.0000 F   0  0  0  0  0  0  0  0  0  0  0  0
    3.1158   -1.1210    0.0000 F   0  0  0  0  0  0  0  0  0  0  0  0
   -3.2641   -0.2803    0.0000 O   0  0  0  0  0  0  0  0  0  0  0  0
    2.4563    2.2090    0.0000 O   0  0  0  0  0  0  0  0  0  0  0  0
   -4.5500    2.4727    0.0000 O   0  0  0  0  0  0  0  0  0  0  0  0
   -3.9894   -2.3574    0.0000 O   0  0  0  0  0  0  0  0  0  0  0  0
   -3.2641    1.4177    0.0000 N   0  0  0  0  0  0  0  0  0  0  0  0
   -1.8299   -0.2968    0.0000 N   0  0  0  0  0  0  0  0  0  0  0  0
    0.3132    2.6376    0.0000 N   0  0  0  0  0  0  0  0  0  0  0  0
    1.7474    0.9561    0.0000 N   0  0  0  0  0  0  0  0  0  0  0  0
   -1.1045    0.9726    0.0000 C   0  0  0  0  0  0  0  0  0  0  0  0
   -0.4121    1.3848    0.0000 C   0  0  0  0  0  0  0  0  0  0  0  0
   -2.5387    0.9726    0.0000 C   0  0  0  0  0  0  0  0  0  0  0  0
   -2.5552    0.1319    0.0000 C   0  0  0  0  0  0  0  0  0  0  0  0
   -1.8299    1.3848    0.0000 C   0  0  0  0  0  0  0  0  0  0  0  0
   -0.3957    2.2090    0.0000 C   0  0  0  0  0  0  0  0  0  0  0  0
    0.3297    0.9726    0.0000 C   0  0  0  0  0  0  0  0  0  0  0  0
    1.0385    1.3848    0.0000 C   0  0  0  0  0  0  0  0  0  0  0  0
   -1.1210    0.1319    0.0000 C   0  0  0  0  0  0  0  0  0  0  0  0
    3.1817    0.9726    0.0000 C   0  0  0  0  0  0  0  0  0  0  0  0
    2.4563    1.3682    0.0000 C   0  0  0  0  0  0  0  0  0  0  0  0
    3.8905   -0.2803    0.0000 C   0  0  0  0  0  0  0  0  0  0  0  0
    1.0385    2.2090    0.0000 C   0  0  0  0  0  0  0  0  0  0  0  0
    3.8905   -1.1210    0.0000 C   0  0  0  0  0  0  0  0  0  0  0  0
    3.1982    0.1154    0.0000 C   0  0  0  0  0  0  0  0  0  0  0  0
   -3.1322    2.2419    0.0000 C   0  0  0  0  0  0  0  0  0  0  0  0
   -4.0059    1.1210    0.0000 C   0  0  0  0  0  0  0  0  0  0  0  0
    3.8905    1.3682    0.0000 C   0  0  0  0  0  0  0  0  0  0  0  0
    4.5994    0.1319    0.0000 C   0  0  0  0  0  0  0  0  0  0  0  0
   -1.1210    2.6046    0.0000 C   0  0  0  0  0  0  0  0  0  0  0  0
    4.5994    0.9561    0.0000 C   0  0  0  0  0  0  0  0  0  0  0  0
   -3.7751    2.7695    0.0000 C   0  0  0  0  0  0  0  0  0  0  0  0
   -4.6653    1.6485    0.0000 C   0  0  0  0  0  0  0  0  0  0  0  0
   -3.2806   -1.1210    0.0000 C   0  0  0  0  0  0  0  0  0  0  0  0
   -3.9564   -1.5331    0.0000 C   0  0  0  0  0  0  0  0  0  0  0  0
   -4.6984   -2.7695    0.0000 C   0  0  0  0  0  0  0  0  0  0  0  0
  1 25  1  0  0  0  0
  2 25  1  0  0  0  0
  3 25  1  0  0  0  0
  4 15  1  0  0  0  0
  4 35  1  0  0  0  0
  5 22  2  0  0  0  0
  6 33  1  0  0  0  0
  6 34  1  0  0  0  0
  7 36  1  0  0  0  0
  7 37  1  0  0  0  0
  8 14  1  0  0  0  0
  8 27  1  0  0  0  0
  8 28  1  0  0  0  0
  9 15  1  0  0  0  0
  9 20  2  0  0  0  0
 10 17  2  0  0  0  0
 10 24  1  0  0  0  0
 11 19  1  0  0  0  0
 11 22  1  0  0  0  0
 12 13  1  0  0  0  0
 12 16  2  0  0  0  0
 12 20  1  0  0  0  0
 13 17  1  0  0  0  0
 13 18  2  0  0  0  0
 14 15  2  0  0  0  0
 14 16  1  0  0  0  0
 17 31  1  0  0  0  0
 18 19  1  0  0  0  0
 19 24  2  0  0  0  0
 21 22  1  0  0  0  0
 21 26  2  0  0  0  0
 21 29  1  0  0  0  0
 23 25  1  0  0  0  0
 23 26  1  0  0  0  0
 23 30  2  0  0  0  0
 27 33  1  0  0  0  0
 28 34  1  0  0  0  0
 29 32  2  0  0  0  0
 30 32  1  0  0  0  0
 35 36  1  0  0  0  0
M  END
> <PUBCHEM_COMPOUND_ID_TYPE>
0

> <PUBCHEM_TOTAL_CHARGE>
0

> <PUBCHEM_SUBSTANCE_ID>
310943388

> <PUBCHEM_SUBSTANCE_VERSION>
1

> <PUBCHEM_EXT_DATASOURCE_NAME>
4488

> <PUBCHEM_EXT_DATASOURCE_REGID>
SCHEMBL16121451

> <PUBCHEM_SUBSTANCE_COMMENT>
InChI=1S/C26H27F3N4O4/c1-17-22(14-21(16-30-17)32-24(34)18-4-3-5-20(12-18)26(27,28)29)19-13-23(33-6-8-36-9-7-33)25(31-15-19)37-11-10-35-2/h3-5,12-16H,6-11H2,1-2H3,(H,32,34)
InChIKey=NAAWGNMNBSLIFA-UHFFFAOYSA-N

> <PUBCHEM_SUBSTANCE_SYNONYM>
SCHEMBL16121451

> <PUBCHEM_XREF_EXT_ID>
SCHEMBL16121451

> <PUBCHEM_EXT_DATASOURCE_URL>
https://www.surechembl.org/

> <PUBCHEM_EXT_SUBSTANCE_URL>
https://www.surechembl.org/chemical/SCHEMBL16121451

> <PUBCHEM_CID_ASSOCIATIONS>
117609812  1

> <PUBCHEM_COORDINATE_TYPE>
1
3

$$$$
