310949210
  -OEChem-07211613022D

 69 80  0     0  0  0  0  0  0999 V2000
    1.0562    2.2901    0.0000 N   0  0  0  0  0  0  0  0  0  0  0  0
   -1.1155   -2.3297    0.0000 N   0  0  0  0  0  0  0  0  0  0  0  0
    3.2083    1.7966    0.0000 N   0  0  0  0  0  0  0  0  0  0  0  0
   -3.2280   -1.8756    0.0000 N   0  0  0  0  0  0  0  0  0  0  0  0
    1.0760   -1.8756    0.0000 N   0  0  0  0  0  0  0  0  0  0  0  0
    0.3850    2.8035    0.0000 C   0  0  0  0  0  0  0  0  0  0  0  0
    1.7276    2.8035    0.0000 C   0  0  0  0  0  0  0  0  0  0  0  0
   -0.4245   -2.8035    0.0000 C   0  0  0  0  0  0  0  0  0  0  0  0
   -1.7868   -2.8035    0.0000 C   0  0  0  0  0  0  0  0  0  0  0  0
    1.4906    3.5932    0.0000 C   0  0  0  0  0  0  0  0  0  0  0  0
    0.6417    3.6129    0.0000 C   0  0  0  0  0  0  0  0  0  0  0  0
   -1.5499   -3.5734    0.0000 C   0  0  0  0  0  0  0  0  0  0  0  0
   -0.7206   -3.5932    0.0000 C   0  0  0  0  0  0  0  0  0  0  0  0
    1.0562    1.4610    0.0000 C   0  0  0  0  0  0  0  0  0  0  0  0
   -1.0957   -1.4610    0.0000 C   0  0  0  0  0  0  0  0  0  0  0  0
    0.3258    0.2172    0.0000 C   0  0  0  0  0  0  0  0  0  0  0  0
   -0.3850   -0.1974    0.0000 C   0  0  0  0  0  0  0  0  0  0  0  0
    1.7670    1.0464    0.0000 C   0  0  0  0  0  0  0  0  0  0  0  0
    0.3652    1.0464    0.0000 C   0  0  0  0  0  0  0  0  0  0  0  0
   -1.8263   -1.0266    0.0000 C   0  0  0  0  0  0  0  0  0  0  0  0
   -0.3850   -1.0266    0.0000 C   0  0  0  0  0  0  0  0  0  0  0  0
   -0.4443    2.6456    0.0000 C   0  0  0  0  0  0  0  0  0  0  0  0
    2.5567    2.6456    0.0000 C   0  0  0  0  0  0  0  0  0  0  0  0
    0.3850   -2.6456    0.0000 C   0  0  0  0  0  0  0  0  0  0  0  0
   -2.5962   -2.6456    0.0000 C   0  0  0  0  0  0  0  0  0  0  0  0
    1.0365   -0.1777    0.0000 C   0  0  0  0  0  0  0  0  0  0  0  0
   -1.0957    0.2172    0.0000 C   0  0  0  0  0  0  0  0  0  0  0  0
    2.0236    4.2053    0.0000 C   0  0  0  0  0  0  0  0  0  0  0  0
    0.0888    4.2053    0.0000 C   0  0  0  0  0  0  0  0  0  0  0  0
   -0.1481   -4.2053    0.0000 C   0  0  0  0  0  0  0  0  0  0  0  0
   -2.1026   -4.1855    0.0000 C   0  0  0  0  0  0  0  0  0  0  0  0
    3.1096    3.2576    0.0000 C   0  0  0  0  0  0  0  0  0  0  0  0
   -0.9575    3.2576    0.0000 C   0  0  0  0  0  0  0  0  0  0  0  0
    0.9180   -3.2379    0.0000 C   0  0  0  0  0  0  0  0  0  0  0  0
   -3.1491   -3.2379    0.0000 C   0  0  0  0  0  0  0  0  0  0  0  0
    1.7868    0.2172    0.0000 C   0  0  0  0  0  0  0  0  0  0  0  0
   -1.8263   -0.1974    0.0000 C   0  0  0  0  0  0  0  0  0  0  0  0
    2.8528    4.0078    0.0000 C   0  0  0  0  0  0  0  0  0  0  0  0
   -0.7008    4.0473    0.0000 C   0  0  0  0  0  0  0  0  0  0  0  0
    0.6417   -4.0276    0.0000 C   0  0  0  0  0  0  0  0  0  0  0  0
   -2.8923   -4.0276    0.0000 C   0  0  0  0  0  0  0  0  0  0  0  0
   -1.8065    3.0997    0.0000 C   0  0  0  0  0  0  0  0  0  0  0  0
    3.9387    3.0799    0.0000 C   0  0  0  0  0  0  0  0  0  0  0  0
    2.4975    1.4413    0.0000 C   0  0  0  0  0  0  0  0  0  0  0  0
    1.7276   -3.0602    0.0000 C   0  0  0  0  0  0  0  0  0  0  0  0
   -3.9782   -3.0405    0.0000 C   0  0  0  0  0  0  0  0  0  0  0  0
   -2.5567   -1.4610    0.0000 C   0  0  0  0  0  0  0  0  0  0  0  0
    1.0562   -1.0661    0.0000 C   0  0  0  0  0  0  0  0  0  0  0  0
   -1.0957    0.7897    0.0000 C   0  0  0  0  0  0  0  0  0  0  0  0
   -2.3198    3.6919    0.0000 C   0  0  0  0  0  0  0  0  0  0  0  0
    4.2151    2.2901    0.0000 C   0  0  0  0  0  0  0  0  0  0  0  0
   -2.0434    2.3099    0.0000 C   0  0  0  0  0  0  0  0  0  0  0  0
    4.5113    3.6721    0.0000 C   0  0  0  0  0  0  0  0  0  0  0  0
    2.2803   -3.6721    0.0000 C   0  0  0  0  0  0  0  0  0  0  0  0
   -4.2349   -2.2704    0.0000 C   0  0  0  0  0  0  0  0  0  0  0  0
    2.0236   -2.2901    0.0000 C   0  0  0  0  0  0  0  0  0  0  0  0
   -4.5113   -3.6524    0.0000 C   0  0  0  0  0  0  0  0  0  0  0  0
   -3.1293    3.5142    0.0000 C   0  0  0  0  0  0  0  0  0  0  0  0
    4.9850    2.1125    0.0000 C   0  0  0  0  0  0  0  0  0  0  0  0
   -2.8528    2.1322    0.0000 C   0  0  0  0  0  0  0  0  0  0  0  0
    5.3010    3.5142    0.0000 C   0  0  0  0  0  0  0  0  0  0  0  0
    3.1096   -3.5142    0.0000 C   0  0  0  0  0  0  0  0  0  0  0  0
   -5.0048   -2.0927    0.0000 C   0  0  0  0  0  0  0  0  0  0  0  0
    2.7739   -2.1125    0.0000 C   0  0  0  0  0  0  0  0  0  0  0  0
   -5.3010   -3.5142    0.0000 C   0  0  0  0  0  0  0  0  0  0  0  0
   -3.4056    2.7245    0.0000 C   0  0  0  0  0  0  0  0  0  0  0  0
    5.5576    2.7443    0.0000 C   0  0  0  0  0  0  0  0  0  0  0  0
    3.3859   -2.7245    0.0000 C   0  0  0  0  0  0  0  0  0  0  0  0
   -5.5576   -2.6850    0.0000 C   0  0  0  0  0  0  0  0  0  0  0  0
  1  6  1  0  0  0  0
  1  7  1  0  0  0  0
  1 14  1  0  0  0  0
  2  8  1  0  0  0  0
  2  9  1  0  0  0  0
  2 15  1  0  0  0  0
  3 44  3  0  0  0  0
  4 47  3  0  0  0  0
  5 48  3  0  0  0  0
  6 11  2  0  0  0  0
  6 22  1  0  0  0  0
  7 10  2  0  0  0  0
  7 23  1  0  0  0  0
  8 13  2  0  0  0  0
  8 24  1  0  0  0  0
  9 12  2  0  0  0  0
  9 25  1  0  0  0  0
 10 11  1  0  0  0  0
 10 28  1  0  0  0  0
 11 29  1  0  0  0  0
 12 13  1  0  0  0  0
 12 31  1  0  0  0  0
 13 30  1  0  0  0  0
 14 18  2  0  0  0  0
 14 19  1  0  0  0  0
 15 20  1  0  0  0  0
 15 21  2  0  0  0  0
 16 17  1  0  0  0  0
 16 19  2  0  0  0  0
 16 26  1  0  0  0  0
 17 21  1  0  0  0  0
 17 27  2  0  0  0  0
 18 36  1  0  0  0  0
 18 44  1  0  0  0  0
 20 37  2  0  0  0  0
 20 47  1  0  0  0  0
 22 33  2  0  0  0  0
 23 32  2  0  0  0  0
 24 34  2  0  0  0  0
 25 35  2  0  0  0  0
 26 36  2  0  0  0  0
 26 48  1  0  0  0  0
 27 37  1  0  0  0  0
 27 49  1  0  0  0  0
 28 38  2  0  0  0  0
 29 39  2  0  0  0  0
 30 40  2  0  0  0  0
 31 41  2  0  0  0  0
 32 38  1  0  0  0  0
 32 43  1  0  0  0  0
 33 39  1  0  0  0  0
 33 42  1  0  0  0  0
 34 40  1  0  0  0  0
 34 45  1  0  0  0  0
 35 41  1  0  0  0  0
 35 46  1  0  0  0  0
 42 50  2  0  0  0  0
 42 52  1  0  0  0  0
 43 51  2  0  0  0  0
 43 53  1  0  0  0  0
 45 54  2  0  0  0  0
 45 56  1  0  0  0  0
 46 55  2  0  0  0  0
 46 57  1  0  0  0  0
 50 58  1  0  0  0  0
 51 59  1  0  0  0  0
 52 60  2  0  0  0  0
 53 61  2  0  0  0  0
 54 62  1  0  0  0  0
 55 63  1  0  0  0  0
 56 64  2  0  0  0  0
 57 65  2  0  0  0  0
 58 66  2  0  0  0  0
 59 67  2  0  0  0  0
 60 66  1  0  0  0  0
 61 67  1  0  0  0  0
 62 68  2  0  0  0  0
 63 69  2  0  0  0  0
 64 68  1  0  0  0  0
 65 69  1  0  0  0  0
M  END
> <PUBCHEM_COMPOUND_ID_TYPE>
0

> <PUBCHEM_TOTAL_CHARGE>
0

> <PUBCHEM_SUBSTANCE_ID>
310949210

> <PUBCHEM_SUBSTANCE_VERSION>
1

> <PUBCHEM_EXT_DATASOURCE_NAME>
4488

> <PUBCHEM_EXT_DATASOURCE_REGID>
SCHEMBL16127400

> <PUBCHEM_SUBSTANCE_COMMENT>
InChI=1S/C64H39N5/c1-41-30-51(39-66)59(68-61-32-46(42-14-6-2-7-15-42)22-26-53(61)54-27-23-47(33-62(54)68)43-16-8-3-9-17-43)36-57(41)58-37-60(52(40-67)31-50(58)38-65)69-63-34-48(44-18-10-4-11-19-44)24-28-55(63)56-29-25-49(35-64(56)69)45-20-12-5-13-21-45/h2-37H,1H3
InChIKey=CZWJFNLJEOUZTK-UHFFFAOYSA-N

> <PUBCHEM_SUBSTANCE_SYNONYM>
SCHEMBL16127400

> <PUBCHEM_XREF_EXT_ID>
SCHEMBL16127400

> <PUBCHEM_EXT_DATASOURCE_URL>
https://www.surechembl.org/

> <PUBCHEM_EXT_SUBSTANCE_URL>
https://www.surechembl.org/chemical/SCHEMBL16127400

> <PUBCHEM_CID_ASSOCIATIONS>
117614698  1

> <PUBCHEM_COORDINATE_TYPE>
1
3

$$$$
