310939795
  -OEChem-07211613022D

 25 27  0     0  0  0  0  0  0999 V2000
   -1.1514    3.7125    0.0000 Cl  0  0  0  0  0  0  0  0  0  0  0  0
   -3.1354    2.0625    0.0000 S   0  0  0  0  0  0  0  0  0  0  0  0
   -1.1514   -1.2375    0.0000 O   0  0  0  0  0  0  0  0  0  0  0  0
    3.1354   -2.0625    0.0000 O   0  0  0  0  0  0  0  0  0  0  0  0
   -2.6505    1.3951    0.0000 N   0  0  0  0  0  0  0  0  0  0  0  0
   -2.6505    2.7299    0.0000 N   0  0  0  0  0  0  0  0  0  0  0  0
   -1.1514    0.4125    0.0000 N   0  0  0  0  0  0  0  0  0  0  0  0
    0.2775   -1.2375    0.0000 N   0  0  0  0  0  0  0  0  0  0  0  0
    1.7065   -2.0625    0.0000 N   0  0  0  0  0  0  0  0  0  0  0  0
   -1.8659    1.6500    0.0000 C   0  0  0  0  0  0  0  0  0  0  0  0
   -1.8659    2.4750    0.0000 C   0  0  0  0  0  0  0  0  0  0  0  0
   -1.1514    1.2375    0.0000 C   0  0  0  0  0  0  0  0  0  0  0  0
   -1.1514    2.8875    0.0000 C   0  0  0  0  0  0  0  0  0  0  0  0
   -0.4369    1.6500    0.0000 C   0  0  0  0  0  0  0  0  0  0  0  0
   -0.4369    2.4750    0.0000 C   0  0  0  0  0  0  0  0  0  0  0  0
   -0.4369   -0.8250    0.0000 C   0  0  0  0  0  0  0  0  0  0  0  0
   -0.4369    0.0000    0.0000 C   0  0  0  0  0  0  0  0  0  0  0  0
    0.2775    1.2375    0.0000 C   0  0  0  0  0  0  0  0  0  0  0  0
    0.2775   -2.0625    0.0000 C   0  0  0  0  0  0  0  0  0  0  0  0
    0.9920   -0.8250    0.0000 C   0  0  0  0  0  0  0  0  0  0  0  0
    0.9920   -2.4750    0.0000 C   0  0  0  0  0  0  0  0  0  0  0  0
    1.7065   -1.2375    0.0000 C   0  0  0  0  0  0  0  0  0  0  0  0
    2.4209   -2.4750    0.0000 C   0  0  0  0  0  0  0  0  0  0  0  0
    2.4209   -3.3000    0.0000 C   0  0  0  0  0  0  0  0  0  0  0  0
    3.1354   -3.7125    0.0000 C   0  0  0  0  0  0  0  0  0  0  0  0
  1 13  1  0  0  0  0
  2  5  1  0  0  0  0
  2  6  1  0  0  0  0
  3 16  2  0  0  0  0
  4 23  2  0  0  0  0
  5 10  2  0  0  0  0
  6 11  2  0  0  0  0
  7 12  1  0  0  0  0
  7 17  1  0  0  0  0
  8 16  1  0  0  0  0
  8 19  1  0  0  0  0
  8 20  1  0  0  0  0
  9 21  1  0  0  0  0
  9 22  1  0  0  0  0
  9 23  1  0  0  0  0
 10 11  1  0  0  0  0
 10 12  1  0  0  0  0
 11 13  1  0  0  0  0
 12 14  2  0  0  0  0
 13 15  2  0  0  0  0
 14 15  1  0  0  0  0
 14 18  1  0  0  0  0
 16 17  1  0  0  0  0
 19 21  1  0  0  0  0
 20 22  1  0  0  0  0
 23 24  1  0  0  0  0
 24 25  2  0  0  0  0
M  END
> <PUBCHEM_COMPOUND_ID_TYPE>
0

> <PUBCHEM_TOTAL_CHARGE>
0

> <PUBCHEM_SUBSTANCE_ID>
310939795

> <PUBCHEM_SUBSTANCE_VERSION>
1

> <PUBCHEM_EXT_DATASOURCE_NAME>
4488

> <PUBCHEM_EXT_DATASOURCE_REGID>
SCHEMBL16117725

> <PUBCHEM_SUBSTANCE_COMMENT>
InChI=1S/C16H18ClN5O2S/c1-3-12(23)21-4-6-22(7-5-21)13(24)9-18-14-10(2)8-11(17)15-16(14)20-25-19-15/h3,8,18H,1,4-7,9H2,2H3
InChIKey=GPRFLCQJQWSXCY-UHFFFAOYSA-N

> <PUBCHEM_SUBSTANCE_SYNONYM>
SCHEMBL16117725

> <PUBCHEM_XREF_EXT_ID>
SCHEMBL16117725

> <PUBCHEM_EXT_DATASOURCE_URL>
https://www.surechembl.org/

> <PUBCHEM_EXT_SUBSTANCE_URL>
https://www.surechembl.org/chemical/SCHEMBL16117725

> <PUBCHEM_CID_ASSOCIATIONS>
117607013  1

> <PUBCHEM_COORDINATE_TYPE>
1
3

$$$$
