310933300
  -OEChem-07211613022D

 25 28  0     0  0  0  0  0  0999 V2000
    1.1062   -0.1252    0.0000 O   0  0  0  0  0  0  0  0  0  0  0  0
    4.6583    0.4361    0.0000 O   0  0  0  0  0  0  0  0  0  0  0  0
    1.0992   -3.8880    0.0000 O   0  0  0  0  0  0  0  0  0  0  0  0
    1.1407   -0.9495    0.0000 C   0  0  0  0  0  0  0  0  0  0  0  0
    1.1445   -1.7057    0.0000 C   0  0  0  0  0  0  0  0  0  0  0  0
    0.7366   -0.2235    0.0000 C   0  0  0  0  0  0  0  0  0  0  0  0
    0.6709   -1.5755    0.0000 C   0  0  0  0  0  0  0  0  0  0  0  0
    2.0411   -1.1462    0.0000 C   0  0  0  0  0  0  0  0  0  0  0  0
    0.5275   -2.3166    0.0000 C   0  0  0  0  0  0  0  0  0  0  0  0
    1.9537   -1.8322    0.0000 C   0  0  0  0  0  0  0  0  0  0  0  0
    1.3983   -2.4907    0.0000 C   0  0  0  0  0  0  0  0  0  0  0  0
    1.8029    0.3168    0.0000 C   0  0  0  0  0  0  0  0  0  0  0  0
    2.5339   -0.0655    0.0000 C   0  0  0  0  0  0  0  0  0  0  0  0
    0.8454   -3.1030    0.0000 C   0  0  0  0  0  0  0  0  0  0  0  0
    3.2306    0.3764    0.0000 C   0  0  0  0  0  0  0  0  0  0  0  0
    3.9616   -0.0059    0.0000 C   0  0  0  0  0  0  0  0  0  0  0  0
    2.5684   -0.8898    0.0000 C   0  0  0  0  0  0  0  0  0  0  0  0
    3.9961   -0.8301    0.0000 C   0  0  0  0  0  0  0  0  0  0  0  0
    3.2995   -1.2721    0.0000 C   0  0  0  0  0  0  0  0  0  0  0  0
    5.3893    0.0538    0.0000 C   0  0  0  0  0  0  0  0  0  0  0  0
    6.0859    0.4958    0.0000 C   0  0  0  0  0  0  0  0  0  0  0  0
    5.4238   -0.7705    0.0000 C   0  0  0  0  0  0  0  0  0  0  0  0
    6.8170    0.1135    0.0000 C   0  0  0  0  0  0  0  0  0  0  0  0
    6.1549   -1.1528    0.0000 C   0  0  0  0  0  0  0  0  0  0  0  0
    6.8515   -0.7108    0.0000 C   0  0  0  0  0  0  0  0  0  0  0  0
  1  4  1  0  0  0  0
  1 12  1  0  0  0  0
  2 16  1  0  0  0  0
  2 20  1  0  0  0  0
  3 14  2  0  0  0  0
  4  6  1  0  0  0  0
  4  7  1  0  0  0  0
  4  8  1  0  0  0  0
  5  6  1  0  0  0  0
  5  9  1  0  0  0  0
  5 10  1  0  0  0  0
  5 11  1  0  0  0  0
  7  9  1  0  0  0  0
  8 10  1  0  0  0  0
 11 14  1  0  0  0  0
 12 13  1  0  0  0  0
 13 15  2  0  0  0  0
 13 17  1  0  0  0  0
 15 16  1  0  0  0  0
 16 18  2  0  0  0  0
 17 19  2  0  0  0  0
 18 19  1  0  0  0  0
 20 21  2  0  0  0  0
 20 22  1  0  0  0  0
 21 23  1  0  0  0  0
 22 24  2  0  0  0  0
 23 25  2  0  0  0  0
 24 25  1  0  0  0  0
M  END
> <PUBCHEM_COMPOUND_ID_TYPE>
0

> <PUBCHEM_TOTAL_CHARGE>
0

> <PUBCHEM_SUBSTANCE_ID>
310933300

> <PUBCHEM_SUBSTANCE_VERSION>
1

> <PUBCHEM_EXT_DATASOURCE_NAME>
4488

> <PUBCHEM_EXT_DATASOURCE_REGID>
SCHEMBL16110711

> <PUBCHEM_SUBSTANCE_COMMENT>
InChI=1S/C22H24O3/c23-14-13-21-9-11-22(17-21,12-10-21)24-16-18-5-4-8-20(15-18)25-19-6-2-1-3-7-19/h1-8,14-15H,9-13,16-17H2
InChIKey=QORGZKHDRFZUAX-UHFFFAOYSA-N

> <PUBCHEM_SUBSTANCE_SYNONYM>
SCHEMBL16110711

> <PUBCHEM_XREF_EXT_ID>
SCHEMBL16110711

> <PUBCHEM_EXT_DATASOURCE_URL>
https://www.surechembl.org/

> <PUBCHEM_EXT_SUBSTANCE_URL>
https://www.surechembl.org/chemical/SCHEMBL16110711

> <PUBCHEM_CID_ASSOCIATIONS>
117601719  1

> <PUBCHEM_COORDINATE_TYPE>
1
3

$$$$
