310940160
  -OEChem-07211613022D

 33 36  0     0  0  0  0  0  0999 V2000
   -1.0179   -3.5978    0.0000 Cl  0  0  0  0  0  0  0  0  0  0  0  0
    3.0362    3.5978    0.0000 F   0  0  0  0  0  0  0  0  0  0  0  0
    3.0888    2.4745    0.0000 F   0  0  0  0  0  0  0  0  0  0  0  0
    1.9656    2.4395    0.0000 F   0  0  0  0  0  0  0  0  0  0  0  0
   -3.0888    0.9652    0.0000 O   0  0  0  0  0  0  0  0  0  0  0  0
   -0.3334    0.8249    0.0000 N   0  0  0  0  0  0  0  0  0  0  0  0
   -0.6669    0.0702    0.0000 N   0  0  0  0  0  0  0  0  0  0  0  0
   -2.0534   -0.4563    0.0000 N   0  0  0  0  0  0  0  0  0  0  0  0
   -2.3868    2.2113    0.0000 N   0  0  0  0  0  0  0  0  0  0  0  0
    1.1057    3.3872    0.0000 N   0  0  0  0  0  0  0  0  0  0  0  0
    2.6149    0.7196    0.0000 N   0  0  0  0  0  0  0  0  0  0  0  0
    0.4388    1.0179    0.0000 C   0  0  0  0  0  0  0  0  0  0  0  0
   -0.9652    1.3689    0.0000 C   0  0  0  0  0  0  0  0  0  0  0  0
   -1.6497    0.9652    0.0000 C   0  0  0  0  0  0  0  0  0  0  0  0
   -1.4918    0.1755    0.0000 C   0  0  0  0  0  0  0  0  0  0  0  0
   -2.3693    1.3865    0.0000 C   0  0  0  0  0  0  0  0  0  0  0  0
   -0.1053    1.5619    0.0000 C   0  0  0  0  0  0  0  0  0  0  0  0
    1.2636    1.2110    0.0000 C   0  0  0  0  0  0  0  0  0  0  0  0
   -0.9477    2.1937    0.0000 C   0  0  0  0  0  0  0  0  0  0  0  0
    1.0355    0.3510    0.0000 C   0  0  0  0  0  0  0  0  0  0  0  0
   -1.6672    2.6149    0.0000 C   0  0  0  0  0  0  0  0  0  0  0  0
    0.1053    2.3693    0.0000 C   0  0  0  0  0  0  0  0  0  0  0  0
    1.4742    2.0007    0.0000 C   0  0  0  0  0  0  0  0  0  0  0  0
    0.8950    2.5798    0.0000 C   0  0  0  0  0  0  0  0  0  0  0  0
   -1.7901   -1.2285    0.0000 C   0  0  0  0  0  0  0  0  0  0  0  0
    1.8252    0.5616    0.0000 C   0  0  0  0  0  0  0  0  0  0  0  0
   -2.3341   -1.8603    0.0000 C   0  0  0  0  0  0  0  0  0  0  0  0
   -0.9828   -1.4216    0.0000 C   0  0  0  0  0  0  0  0  0  0  0  0
    1.8779    3.5978    0.0000 C   0  0  0  0  0  0  0  0  0  0  0  0
   -2.0885   -2.6325    0.0000 C   0  0  0  0  0  0  0  0  0  0  0  0
   -0.7371   -2.1937    0.0000 C   0  0  0  0  0  0  0  0  0  0  0  0
   -1.2811   -2.8256    0.0000 C   0  0  0  0  0  0  0  0  0  0  0  0
    2.4921    3.0186    0.0000 C   0  0  0  0  0  0  0  0  0  0  0  0
  1 32  1  0  0  0  0
  2 33  1  0  0  0  0
  3 33  1  0  0  0  0
  4 33  1  0  0  0  0
  5 16  2  0  0  0  0
  6  7  1  0  0  0  0
  6 12  1  0  0  0  0
  6 13  1  0  0  0  0
  7 15  2  0  0  0  0
  8 15  1  0  0  0  0
  8 25  1  0  0  0  0
  9 16  1  0  0  0  0
  9 21  1  0  0  0  0
 24 10  1  6  0  0  0
 10 29  1  0  0  0  0
 11 26  3  0  0  0  0
 12 17  1  0  0  0  0
 12 18  1  0  0  0  0
 12 20  1  6  0  0  0
 13 14  2  0  0  0  0
 13 19  1  0  0  0  0
 14 15  1  0  0  0  0
 14 16  1  0  0  0  0
 17 22  1  0  0  0  0
 18 23  1  0  0  0  0
 19 21  2  0  0  0  0
 20 26  1  0  0  0  0
 22 24  1  0  0  0  0
 23 24  1  0  0  0  0
 25 27  2  0  0  0  0
 25 28  1  0  0  0  0
 27 30  1  0  0  0  0
 28 31  2  0  0  0  0
 29 33  1  0  0  0  0
 30 32  2  0  0  0  0
 31 32  1  0  0  0  0
M  END
> <PUBCHEM_COMPOUND_ID_TYPE>
0

> <PUBCHEM_TOTAL_CHARGE>
0

> <PUBCHEM_SUBSTANCE_ID>
310940160

> <PUBCHEM_SUBSTANCE_VERSION>
1

> <PUBCHEM_EXT_DATASOURCE_NAME>
4488

> <PUBCHEM_EXT_DATASOURCE_REGID>
SCHEMBL16118093

> <PUBCHEM_SUBSTANCE_COMMENT>
InChI=1S/C22H22ClF3N6O/c23-14-1-3-16(4-2-14)30-19-18-17(7-12-28-20(18)33)32(31-19)21(10-11-27)8-5-15(6-9-21)29-13-22(24,25)26/h1-4,7,12,15,29H,5-6,8-10,13H2,(H,28,33)(H,30,31)/t15-,21-
InChIKey=AOPUDLJPCDOBLZ-WEHONNDLSA-N

> <PUBCHEM_SUBSTANCE_SYNONYM>
SCHEMBL16118093

> <PUBCHEM_XREF_EXT_ID>
SCHEMBL16118093

> <PUBCHEM_EXT_DATASOURCE_URL>
https://www.surechembl.org/

> <PUBCHEM_EXT_SUBSTANCE_URL>
https://www.surechembl.org/chemical/SCHEMBL16118093

> <PUBCHEM_CID_ASSOCIATIONS>
86275048  1

> <PUBCHEM_COORDINATE_TYPE>
1
3

> <PUBCHEM_BONDANNOTATIONS>
24  10  6
12  20  6

$$$$
