310945353
  -OEChem-07211613022D

 31 33  0     0  0  0  0  0  0999 V2000
    0.7004    0.8669    0.0000 F   0  0  0  0  0  0  0  0  0  0  0  0
    1.4495    1.7407    0.0000 F   0  0  0  0  0  0  0  0  0  0  0  0
    2.2123    0.8669    0.0000 F   0  0  0  0  0  0  0  0  0  0  0  0
   -3.4190   -1.7407    0.0000 F   0  0  0  0  0  0  0  0  0  0  0  0
   -4.1820   -0.8808    0.0000 F   0  0  0  0  0  0  0  0  0  0  0  0
   -3.4190   -0.0070    0.0000 F   0  0  0  0  0  0  0  0  0  0  0  0
    2.6701   -0.4369    0.0000 F   0  0  0  0  0  0  0  0  0  0  0  0
    3.4330    0.4369    0.0000 F   0  0  0  0  0  0  0  0  0  0  0  0
    4.1820   -0.4369    0.0000 F   0  0  0  0  0  0  0  0  0  0  0  0
    2.7672   -1.7407    0.0000 O   0  0  0  0  0  0  0  0  0  0  0  0
   -1.1304    0.6172    0.0000 O   0  0  0  0  0  0  0  0  0  0  0  0
    0.0624   -0.1734    0.0000 N   0  0  0  0  0  0  0  0  0  0  0  0
    0.0624   -1.5882    0.0000 N   0  0  0  0  0  0  0  0  0  0  0  0
    1.4356   -1.7407    0.0000 N   0  0  0  0  0  0  0  0  0  0  0  0
    2.1014   -0.4369    0.0000 N   0  0  0  0  0  0  0  0  0  0  0  0
    0.7837   -0.4646    0.0000 C   0  0  0  0  0  0  0  0  0  0  0  0
    0.7698   -1.3246    0.0000 C   0  0  0  0  0  0  0  0  0  0  0  0
    1.4078   -0.0208    0.0000 C   0  0  0  0  0  0  0  0  0  0  0  0
   -0.3953   -0.8946    0.0000 C   0  0  0  0  0  0  0  0  0  0  0  0
   -1.1582   -0.8808    0.0000 C   0  0  0  0  0  0  0  0  0  0  0  0
    1.4217    0.8530    0.0000 C   0  0  0  0  0  0  0  0  0  0  0  0
    2.0875   -1.3246    0.0000 C   0  0  0  0  0  0  0  0  0  0  0  0
   -1.5327   -0.1457    0.0000 C   0  0  0  0  0  0  0  0  0  0  0  0
   -1.5465   -1.6575    0.0000 C   0  0  0  0  0  0  0  0  0  0  0  0
   -2.6701   -0.9224    0.0000 C   0  0  0  0  0  0  0  0  0  0  0  0
   -2.2817   -0.1595    0.0000 C   0  0  0  0  0  0  0  0  0  0  0  0
   -2.2817   -1.6575    0.0000 C   0  0  0  0  0  0  0  0  0  0  0  0
   -3.4468   -0.8946    0.0000 C   0  0  0  0  0  0  0  0  0  0  0  0
    3.4052   -1.3385    0.0000 C   0  0  0  0  0  0  0  0  0  0  0  0
    3.4190   -0.4508    0.0000 C   0  0  0  0  0  0  0  0  0  0  0  0
   -1.5188    1.3801    0.0000 C   0  0  0  0  0  0  0  0  0  0  0  0
  1 21  1  0  0  0  0
  2 21  1  0  0  0  0
  3 21  1  0  0  0  0
  4 28  1  0  0  0  0
  5 28  1  0  0  0  0
  6 28  1  0  0  0  0
  7 30  1  0  0  0  0
  8 30  1  0  0  0  0
  9 30  1  0  0  0  0
 10 22  1  0  0  0  0
 10 29  1  0  0  0  0
 11 23  1  0  0  0  0
 11 31  1  0  0  0  0
 12 16  1  0  0  0  0
 12 19  2  0  0  0  0
 13 17  1  0  0  0  0
 13 19  1  0  0  0  0
 14 17  1  0  0  0  0
 14 22  2  0  0  0  0
 15 18  2  0  0  0  0
 15 22  1  0  0  0  0
 16 17  2  0  0  0  0
 16 18  1  0  0  0  0
 18 21  1  0  0  0  0
 19 20  1  0  0  0  0
 20 23  2  0  0  0  0
 20 24  1  0  0  0  0
 23 26  1  0  0  0  0
 24 27  2  0  0  0  0
 25 26  2  0  0  0  0
 25 27  1  0  0  0  0
 25 28  1  0  0  0  0
 29 30  1  0  0  0  0
M  END
> <PUBCHEM_COMPOUND_ID_TYPE>
0

> <PUBCHEM_TOTAL_CHARGE>
0

> <PUBCHEM_SUBSTANCE_ID>
310945353

> <PUBCHEM_SUBSTANCE_VERSION>
1

> <PUBCHEM_EXT_DATASOURCE_NAME>
4488

> <PUBCHEM_EXT_DATASOURCE_REGID>
SCHEMBL16123451

> <PUBCHEM_SUBSTANCE_COMMENT>
InChI=1S/C16H9F9N4O2/c1-30-8-4-6(15(20,21)22)2-3-7(8)11-26-9-10(16(23,24)25)27-13(29-12(9)28-11)31-5-14(17,18)19/h2-4H,5H2,1H3,(H,26,27,28,29)
InChIKey=VXNZOSLYRGWRPF-UHFFFAOYSA-N

> <PUBCHEM_SUBSTANCE_SYNONYM>
SCHEMBL16123451

> <PUBCHEM_XREF_EXT_ID>
SCHEMBL16123451

> <PUBCHEM_EXT_DATASOURCE_URL>
https://www.surechembl.org/

> <PUBCHEM_EXT_SUBSTANCE_URL>
https://www.surechembl.org/chemical/SCHEMBL16123451

> <PUBCHEM_CID_ASSOCIATIONS>
117611412  1

> <PUBCHEM_COORDINATE_TYPE>
1
3

$$$$
