310942263
  -OEChem-07211613022D

 26 27  0     1  0  0  0  0  0999 V2000
    0.8061    0.8312    0.0000 Cl  0  0  0  0  0  0  0  0  0  0  0  0
   -0.6311   -1.6685    0.0000 F   0  0  0  0  0  0  0  0  0  0  0  0
    0.8061   -0.8312    0.0000 O   0  0  0  0  0  0  0  0  0  0  0  0
   -1.3686    2.0810    0.0000 O   0  0  0  0  0  0  0  0  0  0  0  0
   -2.7934   -0.4187    0.0000 N   0  0  0  0  0  0  0  0  0  0  0  0
   -2.7934    2.0810    0.0000 N   0  0  0  0  0  0  0  0  0  0  0  0
    0.0812   -0.4062    0.0000 C   0  0  0  0  0  0  0  0  0  0  0  0
   -0.6437   -0.8186    0.0000 C   0  0  0  0  0  0  0  0  0  0  0  0
   -1.3561   -0.4062    0.0000 C   0  0  0  0  0  0  0  0  0  0  0  0
    0.0938    0.4312    0.0000 C   0  0  0  0  0  0  0  0  0  0  0  0
   -2.0685   -0.8186    0.0000 C   0  0  3  0  0  0  0  0  0  0  0  0
   -1.3436    0.4187    0.0000 C   0  0  0  0  0  0  0  0  0  0  0  0
   -0.6187    0.8312    0.0000 C   0  0  0  0  0  0  0  0  0  0  0  0
    1.5311   -0.4062    0.0000 C   0  0  0  0  0  0  0  0  0  0  0  0
   -2.0810   -1.6685    0.0000 C   0  0  0  0  0  0  0  0  0  0  0  0
    1.5435    0.4187    0.0000 C   0  0  0  0  0  0  0  0  0  0  0  0
    2.2685   -0.8186    0.0000 C   0  0  0  0  0  0  0  0  0  0  0  0
   -2.7809    0.4187    0.0000 C   0  0  3  0  0  0  0  0  0  0  0  0
    2.9809    0.4312    0.0000 C   0  0  0  0  0  0  0  0  0  0  0  0
    2.2685    0.8312    0.0000 C   0  0  0  0  0  0  0  0  0  0  0  0
    2.9809   -0.4062    0.0000 C   0  0  0  0  0  0  0  0  0  0  0  0
   -2.0685    0.8312    0.0000 C   0  0  0  0  0  0  0  0  0  0  0  0
   -2.7684   -2.0810    0.0000 C   0  0  0  0  0  0  0  0  0  0  0  0
   -3.5058    0.8312    0.0000 C   0  0  0  0  0  0  0  0  0  0  0  0
   -2.0810    1.6685    0.0000 C   0  0  0  0  0  0  0  0  0  0  0  0
    3.5058    0.7312    0.0000 C   0  0  0  0  0  0  0  0  0  0  0  0
  1 10  1  0  0  0  0
  2  8  1  0  0  0  0
  3  7  1  0  0  0  0
  3 14  1  0  0  0  0
  4 25  2  0  0  0  0
 11  5  1  1  0  0  0
  5 18  1  0  0  0  0
  6 25  1  0  0  0  0
  7  8  1  0  0  0  0
  7 10  2  0  0  0  0
  8  9  2  0  0  0  0
  9 11  1  0  0  0  0
  9 12  1  0  0  0  0
 10 13  1  0  0  0  0
 11 15  1  0  0  0  0
 12 13  2  0  0  0  0
 14 16  2  0  0  0  0
 14 17  1  0  0  0  0
 15 23  1  0  0  0  0
 16 20  1  0  0  0  0
 17 21  2  0  0  0  0
 18 22  1  0  0  0  0
 18 24  1  6  0  0  0
 19 20  2  0  0  0  0
 19 21  1  0  0  0  0
 19 26  1  0  0  0  0
 22 25  1  0  0  0  0
M  END
> <PUBCHEM_COMPOUND_ID_TYPE>
0

> <PUBCHEM_TOTAL_CHARGE>
0

> <PUBCHEM_SUBSTANCE_ID>
310942263

> <PUBCHEM_SUBSTANCE_VERSION>
1

> <PUBCHEM_EXT_DATASOURCE_NAME>
4488

> <PUBCHEM_EXT_DATASOURCE_REGID>
SCHEMBL16120298

> <PUBCHEM_SUBSTANCE_COMMENT>
InChI=1S/C20H24ClFN2O2/c1-4-17(24-13(3)11-18(23)25)15-9-10-16(21)20(19(15)22)26-14-7-5-12(2)6-8-14/h5-10,13,17,24H,4,11H2,1-3H3,(H2,23,25)/t13-,17-/m1/s1
InChIKey=XHFAUZHPWBXSAX-CXAGYDPISA-N

> <PUBCHEM_SUBSTANCE_SYNONYM>
SCHEMBL16120298

> <PUBCHEM_XREF_EXT_ID>
SCHEMBL16120298

> <PUBCHEM_EXT_DATASOURCE_URL>
https://www.surechembl.org/

> <PUBCHEM_EXT_SUBSTANCE_URL>
https://www.surechembl.org/chemical/SCHEMBL16120298

> <PUBCHEM_CID_ASSOCIATIONS>
117608913  1

> <PUBCHEM_COORDINATE_TYPE>
1
3

> <PUBCHEM_BONDANNOTATIONS>
18  24  6
11  5  5

$$$$
