310938713
  -OEChem-07211613022D

 28 32  0     0  0  0  0  0  0999 V2000
   -4.7022    8.1274    0.0000 Br  0  0  0  0  0  0  0  0  0  0  0  0
   -5.4636    2.6924    0.0000 N   0  0  0  0  0  0  0  0  0  0  0  0
   -6.7986    2.6924    0.0000 N   0  0  0  0  0  0  0  0  0  0  0  0
   -6.1311    3.1774    0.0000 C   0  0  0  0  0  0  0  0  0  0  0  0
   -5.7187    1.9078    0.0000 C   0  0  0  0  0  0  0  0  0  0  0  0
   -6.5436    1.9078    0.0000 C   0  0  0  0  0  0  0  0  0  0  0  0
   -6.1311    4.0024    0.0000 C   0  0  0  0  0  0  0  0  0  0  0  0
   -4.6667    2.9058    0.0000 C   0  0  0  0  0  0  0  0  0  0  0  0
   -5.3061    1.1932    0.0000 C   0  0  0  0  0  0  0  0  0  0  0  0
   -6.9561    1.1932    0.0000 C   0  0  0  0  0  0  0  0  0  0  0  0
   -6.8456    4.4148    0.0000 C   0  0  0  0  0  0  0  0  0  0  0  0
   -5.4166    4.4148    0.0000 C   0  0  0  0  0  0  0  0  0  0  0  0
   -6.1311    5.6524    0.0000 C   0  0  0  0  0  0  0  0  0  0  0  0
   -4.0834    2.3226    0.0000 C   0  0  0  0  0  0  0  0  0  0  0  0
   -4.4532    3.7028    0.0000 C   0  0  0  0  0  0  0  0  0  0  0  0
   -6.8456    5.2399    0.0000 C   0  0  0  0  0  0  0  0  0  0  0  0
   -5.4166    5.2399    0.0000 C   0  0  0  0  0  0  0  0  0  0  0  0
   -5.7187    0.4788    0.0000 C   0  0  0  0  0  0  0  0  0  0  0  0
   -6.1311    6.4774    0.0000 C   0  0  0  0  0  0  0  0  0  0  0  0
   -6.5436    0.4788    0.0000 C   0  0  0  0  0  0  0  0  0  0  0  0
   -3.2865    2.5361    0.0000 C   0  0  0  0  0  0  0  0  0  0  0  0
   -3.6563    3.9165    0.0000 C   0  0  0  0  0  0  0  0  0  0  0  0
   -5.4166    6.8899    0.0000 C   0  0  0  0  0  0  0  0  0  0  0  0
   -6.8456    6.8899    0.0000 C   0  0  0  0  0  0  0  0  0  0  0  0
   -3.0730    3.3330    0.0000 C   0  0  0  0  0  0  0  0  0  0  0  0
   -5.4166    7.7149    0.0000 C   0  0  0  0  0  0  0  0  0  0  0  0
   -6.8456    7.7149    0.0000 C   0  0  0  0  0  0  0  0  0  0  0  0
   -6.1311    8.1274    0.0000 C   0  0  0  0  0  0  0  0  0  0  0  0
  1 26  1  0  0  0  0
  2  4  1  0  0  0  0
  2  5  1  0  0  0  0
  2  8  1  0  0  0  0
  3  4  2  0  0  0  0
  3  6  1  0  0  0  0
  4  7  1  0  0  0  0
  5  6  2  0  0  0  0
  5  9  1  0  0  0  0
  6 10  1  0  0  0  0
  7 11  2  0  0  0  0
  7 12  1  0  0  0  0
  8 14  2  0  0  0  0
  8 15  1  0  0  0  0
  9 18  2  0  0  0  0
 10 20  2  0  0  0  0
 11 16  1  0  0  0  0
 12 17  2  0  0  0  0
 13 16  2  0  0  0  0
 13 17  1  0  0  0  0
 13 19  1  0  0  0  0
 14 21  1  0  0  0  0
 15 22  2  0  0  0  0
 18 20  1  0  0  0  0
 19 23  2  0  0  0  0
 19 24  1  0  0  0  0
 21 25  2  0  0  0  0
 22 25  1  0  0  0  0
 23 26  1  0  0  0  0
 24 27  2  0  0  0  0
 26 28  2  0  0  0  0
 27 28  1  0  0  0  0
M  END
> <PUBCHEM_COMPOUND_ID_TYPE>
0

> <PUBCHEM_TOTAL_CHARGE>
0

> <PUBCHEM_SUBSTANCE_ID>
310938713

> <PUBCHEM_SUBSTANCE_VERSION>
1

> <PUBCHEM_EXT_DATASOURCE_NAME>
4488

> <PUBCHEM_EXT_DATASOURCE_REGID>
SCHEMBL16116627

> <PUBCHEM_SUBSTANCE_COMMENT>
InChI=1S/C25H17BrN2/c26-21-8-6-7-20(17-21)18-13-15-19(16-14-18)25-27-23-11-4-5-12-24(23)28(25)22-9-2-1-3-10-22/h1-17H
InChIKey=SAVFKQIMMSQIRJ-UHFFFAOYSA-N

> <PUBCHEM_SUBSTANCE_SYNONYM>
SCHEMBL16116627

> <PUBCHEM_XREF_EXT_ID>
SCHEMBL16116627

> <PUBCHEM_EXT_DATASOURCE_URL>
https://www.surechembl.org/

> <PUBCHEM_EXT_SUBSTANCE_URL>
https://www.surechembl.org/chemical/SCHEMBL16116627

> <PUBCHEM_CID_ASSOCIATIONS>
117606141  1

> <PUBCHEM_COORDINATE_TYPE>
1
3

$$$$
