310931391
  -OEChem-07211613022D

 33 36  0     1  0  0  0  0  0999 V2000
    6.2310   -2.1631    0.0000 S   0  0  0  0  0  0  0  0  0  0  0  0
    5.3593   -0.7425    0.0000 F   0  0  0  0  0  0  0  0  0  0  0  0
    3.7451   -3.5837    0.0000 F   0  0  0  0  0  0  0  0  0  0  0  0
    2.9057   -6.4570    0.0000 F   0  0  0  0  0  0  0  0  0  0  0  0
    2.8734   -2.1631    0.0000 O   0  0  0  0  0  0  0  0  0  0  0  0
    6.2310   -3.0671    0.0000 O   0  0  0  0  0  0  0  0  0  0  0  0
    6.2310   -1.3882    0.0000 O   0  0  0  0  0  0  0  0  0  0  0  0
    7.0059   -2.1631    0.0000 N   0  0  0  0  0  0  0  0  0  0  0  0
    7.0381   -0.7103    0.0000 N   0  0  0  0  0  0  0  0  0  0  0  0
    8.2650   -1.4205    0.0000 N   0  0  0  0  0  0  0  0  0  0  0  0
    0.4197   -2.1954    0.0000 N   0  0  0  0  0  0  0  0  0  0  0  0
    5.3916   -2.1631    0.0000 C   0  0  0  0  0  0  0  0  0  0  0  0
    4.9719   -1.4528    0.0000 C   0  0  0  0  0  0  0  0  0  0  0  0
    3.7128   -2.1631    0.0000 C   0  0  0  0  0  0  0  0  0  0  0  0
    4.9719   -2.8734    0.0000 C   0  0  0  0  0  0  0  0  0  0  0  0
    4.1648   -2.8734    0.0000 C   0  0  0  0  0  0  0  0  0  0  0  0
    4.1648   -1.4528    0.0000 C   0  0  0  0  0  0  0  0  0  0  0  0
    7.4256   -1.4528    0.0000 C   0  0  0  0  0  0  0  0  0  0  0  0
    1.6465   -2.9057    0.0000 C   0  0  3  0  0  0  0  0  0  0  0  0
    1.2268   -3.6160    0.0000 C   0  0  3  0  0  0  0  0  0  0  0  0
    2.4859   -2.9057    0.0000 C   0  0  0  0  0  0  0  0  0  0  0  0
    1.6465   -4.3262    0.0000 C   0  0  0  0  0  0  0  0  0  0  0  0
    1.2268   -2.1954    0.0000 C   0  0  0  0  0  0  0  0  0  0  0  0
    0.4197   -3.6160    0.0000 C   0  0  0  0  0  0  0  0  0  0  0  0
    2.4859   -4.3262    0.0000 C   0  0  0  0  0  0  0  0  0  0  0  0
    1.2591   -5.0365    0.0000 C   0  0  0  0  0  0  0  0  0  0  0  0
    0.0000   -2.9057    0.0000 C   0  0  0  0  0  0  0  0  0  0  0  0
    7.4256   -0.0323    0.0000 C   0  0  0  0  0  0  0  0  0  0  0  0
    8.6524   -0.7425    0.0000 C   0  0  0  0  0  0  0  0  0  0  0  0
    2.4859   -5.7467    0.0000 C   0  0  0  0  0  0  0  0  0  0  0  0
    2.8734   -5.0365    0.0000 C   0  0  0  0  0  0  0  0  0  0  0  0
    1.6465   -5.7467    0.0000 C   0  0  0  0  0  0  0  0  0  0  0  0
    8.2650    0.0000    0.0000 C   0  0  0  0  0  0  0  0  0  0  0  0
  1  6  2  0  0  0  0
  1  7  2  0  0  0  0
  1  8  1  0  0  0  0
  1 12  1  0  0  0  0
  2 13  1  0  0  0  0
  3 16  1  0  0  0  0
  4 30  1  0  0  0  0
  5 14  1  0  0  0  0
  5 21  1  0  0  0  0
  8 18  1  0  0  0  0
  9 18  1  0  0  0  0
  9 28  2  0  0  0  0
 10 18  2  0  0  0  0
 10 29  1  0  0  0  0
 11 23  1  0  0  0  0
 11 27  1  0  0  0  0
 12 13  1  0  0  0  0
 12 15  2  0  0  0  0
 13 17  2  0  0  0  0
 14 16  2  0  0  0  0
 14 17  1  0  0  0  0
 15 16  1  0  0  0  0
 19 20  1  0  0  0  0
 19 21  1  6  0  0  0
 19 23  1  0  0  0  0
 20 22  1  0  0  0  0
 20 24  1  1  0  0  0
 22 25  2  0  0  0  0
 22 26  1  0  0  0  0
 24 27  1  0  0  0  0
 25 31  1  0  0  0  0
 26 32  2  0  0  0  0
 28 33  1  0  0  0  0
 29 33  2  0  0  0  0
 30 31  2  0  0  0  0
 30 32  1  0  0  0  0
M  END
> <PUBCHEM_COMPOUND_ID_TYPE>
0

> <PUBCHEM_TOTAL_CHARGE>
0

> <PUBCHEM_SUBSTANCE_ID>
310931391

> <PUBCHEM_SUBSTANCE_VERSION>
1

> <PUBCHEM_EXT_DATASOURCE_NAME>
4488

> <PUBCHEM_EXT_DATASOURCE_REGID>
SCHEMBL16108715

> <PUBCHEM_SUBSTANCE_COMMENT>
InChI=1S/C22H21F3N4O3S/c23-16-4-2-14(3-5-16)17-6-9-26-12-15(17)13-32-20-10-19(25)21(11-18(20)24)33(30,31)29-22-27-7-1-8-28-22/h1-5,7-8,10-11,15,17,26H,6,9,12-13H2,(H,27,28,29)/t15-,17-/m1/s1
InChIKey=BXTHEILDFLTFQR-NVXWUHKLSA-N

> <PUBCHEM_SUBSTANCE_SYNONYM>
SCHEMBL16108715

> <PUBCHEM_XREF_EXT_ID>
SCHEMBL16108715

> <PUBCHEM_EXT_DATASOURCE_URL>
https://www.surechembl.org/

> <PUBCHEM_EXT_SUBSTANCE_URL>
https://www.surechembl.org/chemical/SCHEMBL16108715

> <PUBCHEM_CID_ASSOCIATIONS>
71558273  1

> <PUBCHEM_COORDINATE_TYPE>
1
3

> <PUBCHEM_BONDANNOTATIONS>
19  21  6
20  24  5

$$$$
