310943142
  -OEChem-07211613022D

 35 38  0     0  0  0  0  0  0999 V2000
    3.8742    0.2996    0.0000 F   0  0  0  0  0  0  0  0  0  0  0  0
    4.6929    0.2996    0.0000 F   0  0  0  0  0  0  0  0  0  0  0  0
    5.0000   -0.8260    0.0000 F   0  0  0  0  0  0  0  0  0  0  0  0
    0.7018   -0.8407    0.0000 O   0  0  0  0  0  0  0  0  0  0  0  0
   -5.0000    1.6301    0.0000 O   0  0  0  0  0  0  0  0  0  0  0  0
   -3.5819    0.8115    0.0000 N   0  0  0  0  0  0  0  0  0  0  0  0
   -2.1491   -0.8260    0.0000 N   0  0  0  0  0  0  0  0  0  0  0  0
   -3.5819   -0.8260    0.0000 N   0  0  0  0  0  0  0  0  0  0  0  0
    1.4182    0.4020    0.0000 N   0  0  0  0  0  0  0  0  0  0  0  0
   -0.0146    2.0541    0.0000 N   0  0  0  0  0  0  0  0  0  0  0  0
    3.5673   -1.6448    0.0000 N   0  0  0  0  0  0  0  0  0  0  0  0
    2.8508   -2.0541    0.0000 N   0  0  0  0  0  0  0  0  0  0  0  0
   -1.4328    0.4020    0.0000 C   0  0  0  0  0  0  0  0  0  0  0  0
   -2.8655    0.4020    0.0000 C   0  0  0  0  0  0  0  0  0  0  0  0
   -0.7310    0.8115    0.0000 C   0  0  0  0  0  0  0  0  0  0  0  0
   -2.8801   -0.4166    0.0000 C   0  0  0  0  0  0  0  0  0  0  0  0
   -2.1491    0.8115    0.0000 C   0  0  0  0  0  0  0  0  0  0  0  0
   -0.7164    1.6448    0.0000 C   0  0  0  0  0  0  0  0  0  0  0  0
    0.7018    0.8115    0.0000 C   0  0  0  0  0  0  0  0  0  0  0  0
    0.0146    0.4020    0.0000 C   0  0  0  0  0  0  0  0  0  0  0  0
   -1.4474   -0.4312    0.0000 C   0  0  0  0  0  0  0  0  0  0  0  0
    2.1345   -0.8260    0.0000 C   0  0  0  0  0  0  0  0  0  0  0  0
    3.5673   -0.8260    0.0000 C   0  0  0  0  0  0  0  0  0  0  0  0
    1.4328   -0.4020    0.0000 C   0  0  0  0  0  0  0  0  0  0  0  0
    4.2837   -0.4020    0.0000 C   0  0  0  0  0  0  0  0  0  0  0  0
    2.8508   -0.4166    0.0000 C   0  0  0  0  0  0  0  0  0  0  0  0
    0.7164    1.6301    0.0000 C   0  0  0  0  0  0  0  0  0  0  0  0
   -3.5819    1.6301    0.0000 C   0  0  0  0  0  0  0  0  0  0  0  0
   -4.2690    0.4166    0.0000 C   0  0  0  0  0  0  0  0  0  0  0  0
    2.1345   -1.6448    0.0000 C   0  0  0  0  0  0  0  0  0  0  0  0
   -1.4474    2.0248    0.0000 C   0  0  0  0  0  0  0  0  0  0  0  0
   -4.3129    2.0395    0.0000 C   0  0  0  0  0  0  0  0  0  0  0  0
   -5.0000    0.8115    0.0000 C   0  0  0  0  0  0  0  0  0  0  0  0
   -3.5673   -1.6594    0.0000 C   0  0  0  0  0  0  0  0  0  0  0  0
   -4.2983   -0.4460    0.0000 C   0  0  0  0  0  0  0  0  0  0  0  0
  1 25  1  0  0  0  0
  2 25  1  0  0  0  0
  3 25  1  0  0  0  0
  4 24  2  0  0  0  0
  5 32  1  0  0  0  0
  5 33  1  0  0  0  0
  6 14  1  0  0  0  0
  6 28  1  0  0  0  0
  6 29  1  0  0  0  0
  7 16  2  0  0  0  0
  7 21  1  0  0  0  0
  8 16  1  0  0  0  0
  8 34  1  0  0  0  0
  8 35  1  0  0  0  0
  9 19  1  0  0  0  0
  9 24  1  0  0  0  0
 10 18  1  0  0  0  0
 10 27  2  0  0  0  0
 11 12  2  0  0  0  0
 11 23  1  0  0  0  0
 12 30  1  0  0  0  0
 13 15  1  0  0  0  0
 13 17  1  0  0  0  0
 13 21  2  0  0  0  0
 14 16  1  0  0  0  0
 14 17  2  0  0  0  0
 15 18  2  0  0  0  0
 15 20  1  0  0  0  0
 18 31  1  0  0  0  0
 19 20  2  0  0  0  0
 19 27  1  0  0  0  0
 22 24  1  0  0  0  0
 22 26  1  0  0  0  0
 22 30  2  0  0  0  0
 23 25  1  0  0  0  0
 23 26  2  0  0  0  0
 28 32  1  0  0  0  0
 29 33  1  0  0  0  0
M  END
> <PUBCHEM_COMPOUND_ID_TYPE>
0

> <PUBCHEM_TOTAL_CHARGE>
0

> <PUBCHEM_SUBSTANCE_ID>
310943142

> <PUBCHEM_SUBSTANCE_VERSION>
1

> <PUBCHEM_EXT_DATASOURCE_NAME>
4488

> <PUBCHEM_EXT_DATASOURCE_REGID>
SCHEMBL16121202

> <PUBCHEM_SUBSTANCE_COMMENT>
InChI=1S/C23H24F3N7O2/c1-14-18(15-8-19(21(28-11-15)32(2)3)33-4-6-35-7-5-33)10-17(13-27-14)30-22(34)16-9-20(23(24,25)26)31-29-12-16/h8-13H,4-7H2,1-3H3,(H,30,34)
InChIKey=RXIUWLLWTXRNAY-UHFFFAOYSA-N

> <PUBCHEM_SUBSTANCE_SYNONYM>
SCHEMBL16121202

> <PUBCHEM_XREF_EXT_ID>
SCHEMBL16121202

> <PUBCHEM_EXT_DATASOURCE_URL>
https://www.surechembl.org/

> <PUBCHEM_EXT_SUBSTANCE_URL>
https://www.surechembl.org/chemical/SCHEMBL16121202

> <PUBCHEM_CID_ASSOCIATIONS>
117609572  1

> <PUBCHEM_COORDINATE_TYPE>
1
3

$$$$
