310941627
  -OEChem-07211613022D

 29 32  0     0  0  0  0  0  0999 V2000
    3.4568   -1.4652    0.0000 Br  0  0  0  0  0  0  0  0  0  0  0  0
    0.8773    2.3601    0.0000 S   0  0  0  0  0  0  0  0  0  0  0  0
   -1.4564   -0.3071    0.0000 O   0  0  0  0  0  0  0  0  0  0  0  0
   -0.0175   -0.3071    0.0000 O   0  0  0  0  0  0  0  0  0  0  0  0
   -3.6147   -1.5530    0.0000 O   0  0  0  0  0  0  0  0  0  0  0  0
   -2.1758   -1.5530    0.0000 O   0  0  0  0  0  0  0  0  0  0  0  0
    0.7545    1.0265    0.0000 N   0  0  0  0  0  0  0  0  0  0  0  0
    2.1232    1.5705    0.0000 N   0  0  0  0  0  0  0  0  0  0  0  0
   -0.7369    0.9563    0.0000 C   0  0  0  0  0  0  0  0  0  0  0  0
   -2.1934    0.1492    0.0000 C   0  0  0  0  0  0  0  0  0  0  0  0
   -2.1758    0.9563    0.0000 C   0  0  0  0  0  0  0  0  0  0  0  0
   -0.0351    1.3599    0.0000 C   0  0  0  0  0  0  0  0  0  0  0  0
   -0.7720    0.1316    0.0000 C   0  0  0  0  0  0  0  0  0  0  0  0
   -2.8954   -0.2896    0.0000 C   0  0  0  0  0  0  0  0  0  0  0  0
   -1.4740    1.3599    0.0000 C   0  0  0  0  0  0  0  0  0  0  0  0
    1.2985    1.6583    0.0000 C   0  0  0  0  0  0  0  0  0  0  0  0
    0.0702    2.1846    0.0000 C   0  0  0  0  0  0  0  0  0  0  0  0
   -2.9129    1.3599    0.0000 C   0  0  0  0  0  0  0  0  0  0  0  0
   -2.9305   -1.0967    0.0000 C   0  0  0  0  0  0  0  0  0  0  0  0
   -3.5796    0.1141    0.0000 C   0  0  0  0  0  0  0  0  0  0  0  0
   -3.5972    0.9388    0.0000 C   0  0  0  0  0  0  0  0  0  0  0  0
    2.4391    0.8159    0.0000 C   0  0  0  0  0  0  0  0  0  0  0  0
    1.9653    0.1492    0.0000 C   0  0  0  0  0  0  0  0  0  0  0  0
    3.2814    0.7107    0.0000 C   0  0  0  0  0  0  0  0  0  0  0  0
    2.3162   -0.6230    0.0000 C   0  0  0  0  0  0  0  0  0  0  0  0
    3.1235   -0.7107    0.0000 C   0  0  0  0  0  0  0  0  0  0  0  0
    3.6147   -0.0439    0.0000 C   0  0  0  0  0  0  0  0  0  0  0  0
    1.1405    0.2018    0.0000 C   0  0  0  0  0  0  0  0  0  0  0  0
   -3.6147   -2.3601    0.0000 C   0  0  0  0  0  0  0  0  0  0  0  0
  1 26  1  0  0  0  0
  2 16  1  0  0  0  0
  2 17  1  0  0  0  0
  3 10  1  0  0  0  0
  3 13  1  0  0  0  0
  4 13  2  0  0  0  0
  5 19  1  0  0  0  0
  5 29  1  0  0  0  0
  6 19  2  0  0  0  0
  7 12  1  0  0  0  0
  7 16  2  0  0  0  0
  8 16  1  0  0  0  0
  8 22  1  0  0  0  0
  9 12  1  0  0  0  0
  9 13  1  0  0  0  0
  9 15  2  0  0  0  0
 10 11  1  0  0  0  0
 10 14  2  0  0  0  0
 11 15  1  0  0  0  0
 11 18  2  0  0  0  0
 12 17  2  0  0  0  0
 14 19  1  0  0  0  0
 14 20  1  0  0  0  0
 18 21  1  0  0  0  0
 20 21  2  0  0  0  0
 22 23  2  0  0  0  0
 22 24  1  0  0  0  0
 23 25  1  0  0  0  0
 23 28  1  0  0  0  0
 24 27  2  0  0  0  0
 25 26  2  0  0  0  0
 26 27  1  0  0  0  0
M  END
> <PUBCHEM_COMPOUND_ID_TYPE>
0

> <PUBCHEM_TOTAL_CHARGE>
0

> <PUBCHEM_SUBSTANCE_ID>
310941627

> <PUBCHEM_SUBSTANCE_VERSION>
1

> <PUBCHEM_EXT_DATASOURCE_NAME>
4488

> <PUBCHEM_EXT_DATASOURCE_REGID>
SCHEMBL16119658

> <PUBCHEM_SUBSTANCE_COMMENT>
InChI=1S/C21H15BrN2O4S/c1-11-8-13(22)6-7-16(11)23-21-24-17(10-29-21)15-9-12-4-3-5-14(19(25)27-2)18(12)28-20(15)26/h3-10H,1-2H3,(H,23,24)
InChIKey=KJYJOEJCVPMPIM-UHFFFAOYSA-N

> <PUBCHEM_SUBSTANCE_SYNONYM>
SCHEMBL16119658

> <PUBCHEM_XREF_EXT_ID>
SCHEMBL16119658

> <PUBCHEM_EXT_DATASOURCE_URL>
https://www.surechembl.org/

> <PUBCHEM_EXT_SUBSTANCE_URL>
https://www.surechembl.org/chemical/SCHEMBL16119658

> <PUBCHEM_CID_ASSOCIATIONS>
117608415  1

> <PUBCHEM_COORDINATE_TYPE>
1
3

$$$$
