310933385
  -OEChem-07211613022D

 29 33  0     0  0  0  0  0  0999 V2000
    1.2375   -1.6775    0.0000 Cl  0  0  0  0  0  0  0  0  0  0  0  0
    0.0000   -4.4276    0.0000 O   0  0  0  0  0  0  0  0  0  0  0  0
    5.5001   -3.3001    0.0000 O   0  0  0  0  0  0  0  0  0  0  0  0
    4.2076   -2.6400    0.0000 N   0  0  0  0  0  0  0  0  0  0  0  0
    4.2076   -3.9600    0.0000 N   0  0  0  0  0  0  0  0  0  0  0  0
    2.6675   -0.0275    0.0000 N   0  0  0  0  0  0  0  0  0  0  0  0
    0.3850   -5.1425    0.0000 N   0  0  0  0  0  0  0  0  0  0  0  0
    2.6951   -2.4750    0.0000 C   0  0  0  0  0  0  0  0  0  0  0  0
    2.6675   -1.6500    0.0000 C   0  0  0  0  0  0  0  0  0  0  0  0
    3.4100   -2.8600    0.0000 C   0  0  0  0  0  0  0  0  0  0  0  0
    3.4100   -3.7401    0.0000 C   0  0  0  0  0  0  0  0  0  0  0  0
    2.0075   -3.7401    0.0000 C   0  0  0  0  0  0  0  0  0  0  0  0
    3.3826   -1.2375    0.0000 C   0  0  0  0  0  0  0  0  0  0  0  0
    2.0075   -2.8600    0.0000 C   0  0  0  0  0  0  0  0  0  0  0  0
    1.9525   -1.2650    0.0000 C   0  0  0  0  0  0  0  0  0  0  0  0
    1.2925   -4.1251    0.0000 C   0  0  0  0  0  0  0  0  0  0  0  0
    2.6951   -4.1251    0.0000 C   0  0  0  0  0  0  0  0  0  0  0  0
    3.3826   -0.4125    0.0000 C   0  0  0  0  0  0  0  0  0  0  0  0
    1.9525   -0.4400    0.0000 C   0  0  0  0  0  0  0  0  0  0  0  0
    4.6751   -3.3001    0.0000 C   0  0  0  0  0  0  0  0  0  0  0  0
    0.5225   -3.8226    0.0000 C   0  0  0  0  0  0  0  0  0  0  0  0
    1.2100   -4.9501    0.0000 C   0  0  0  0  0  0  0  0  0  0  0  0
    4.0975   -1.6500    0.0000 C   0  0  0  0  0  0  0  0  0  0  0  0
    4.0700    0.0000    0.0000 C   0  0  0  0  0  0  0  0  0  0  0  0
    4.7850   -1.2100    0.0000 C   0  0  0  0  0  0  0  0  0  0  0  0
    4.7850   -0.4125    0.0000 C   0  0  0  0  0  0  0  0  0  0  0  0
    1.2375   -0.0275    0.0000 C   0  0  0  0  0  0  0  0  0  0  0  0
    0.3575   -3.0250    0.0000 C   0  0  0  0  0  0  0  0  0  0  0  0
    1.8150   -5.5001    0.0000 C   0  0  0  0  0  0  0  0  0  0  0  0
  1 15  1  0  0  0  0
  2  7  1  0  0  0  0
  2 21  1  0  0  0  0
  3 20  2  0  0  0  0
  4 10  1  0  0  0  0
  4 20  1  0  0  0  0
  5 11  1  0  0  0  0
  5 20  1  0  0  0  0
  6 18  2  0  0  0  0
  6 19  1  0  0  0  0
  7 22  2  0  0  0  0
  8  9  1  0  0  0  0
  8 10  1  0  0  0  0
  8 14  2  0  0  0  0
  9 13  2  0  0  0  0
  9 15  1  0  0  0  0
 10 11  2  0  0  0  0
 11 17  1  0  0  0  0
 12 14  1  0  0  0  0
 12 16  1  0  0  0  0
 12 17  2  0  0  0  0
 13 18  1  0  0  0  0
 13 23  1  0  0  0  0
 15 19  2  0  0  0  0
 16 21  2  0  0  0  0
 16 22  1  0  0  0  0
 18 24  1  0  0  0  0
 19 27  1  0  0  0  0
 21 28  1  0  0  0  0
 22 29  1  0  0  0  0
 23 25  2  0  0  0  0
 24 26  2  0  0  0  0
 25 26  1  0  0  0  0
M  END
> <PUBCHEM_COMPOUND_ID_TYPE>
0

> <PUBCHEM_TOTAL_CHARGE>
0

> <PUBCHEM_SUBSTANCE_ID>
310933385

> <PUBCHEM_SUBSTANCE_VERSION>
1

> <PUBCHEM_EXT_DATASOURCE_NAME>
4488

> <PUBCHEM_EXT_DATASOURCE_REGID>
SCHEMBL16110801

> <PUBCHEM_SUBSTANCE_COMMENT>
InChI=1S/C22H17ClN4O2/c1-10-18(12(3)29-27-10)13-8-15(21-17(9-13)25-22(28)26-21)19-14-6-4-5-7-16(14)24-11(2)20(19)23/h4-9H,1-3H3,(H2,25,26,28)
InChIKey=MOVLBRHUWWXJEA-UHFFFAOYSA-N

> <PUBCHEM_SUBSTANCE_SYNONYM>
SCHEMBL16110801

> <PUBCHEM_XREF_EXT_ID>
SCHEMBL16110801

> <PUBCHEM_EXT_DATASOURCE_URL>
https://www.surechembl.org/

> <PUBCHEM_EXT_SUBSTANCE_URL>
https://www.surechembl.org/chemical/SCHEMBL16110801

> <PUBCHEM_CID_ASSOCIATIONS>
117601796  1

> <PUBCHEM_COORDINATE_TYPE>
1
3

$$$$
