310938488
  -OEChem-07211613022D

 14 15  0     0  0  0  0  0  0999 V2000
    0.7138    0.0000    0.0000 S   0  0  0  0  0  0  0  0  0  0  0  0
    1.3985   -2.8990    0.0000 O   0  0  0  0  0  0  0  0  0  0  0  0
    2.8262   -2.9136    0.0000 O   0  0  0  0  0  0  0  0  0  0  0  0
    1.4277   -1.2674    0.0000 N   0  0  0  0  0  0  0  0  0  0  0  0
    2.1270   -0.0145    0.0000 N   0  0  0  0  0  0  0  0  0  0  0  0
    2.8553   -1.2674    0.0000 C   0  0  0  0  0  0  0  0  0  0  0  0
    2.1270   -1.6754    0.0000 C   0  0  0  0  0  0  0  0  0  0  0  0
    2.8553   -0.4079    0.0000 C   0  0  0  0  0  0  0  0  0  0  0  0
    1.4277   -0.4079    0.0000 C   0  0  0  0  0  0  0  0  0  0  0  0
    2.1124   -2.5057    0.0000 C   0  0  0  0  0  0  0  0  0  0  0  0
    3.6420   -1.5005    0.0000 C   0  0  0  0  0  0  0  0  0  0  0  0
    3.6420   -0.1748    0.0000 C   0  0  0  0  0  0  0  0  0  0  0  0
    4.1373   -0.8450    0.0000 C   0  0  0  0  0  0  0  0  0  0  0  0
    0.0000   -0.4079    0.0000 C   0  0  0  0  0  0  0  0  0  0  0  0
  1  9  1  0  0  0  0
  1 14  1  0  0  0  0
  2 10  2  0  0  0  0
  3 10  1  0  0  0  0
  4  7  1  0  0  0  0
  4  9  2  0  0  0  0
  5  8  2  0  0  0  0
  5  9  1  0  0  0  0
  6  7  2  0  0  0  0
  6  8  1  0  0  0  0
  6 11  1  0  0  0  0
  7 10  1  0  0  0  0
  8 12  1  0  0  0  0
 11 13  1  0  0  0  0
 12 13  1  0  0  0  0
M  END
> <PUBCHEM_COMPOUND_ID_TYPE>
0

> <PUBCHEM_TOTAL_CHARGE>
0

> <PUBCHEM_SUBSTANCE_ID>
310938488

> <PUBCHEM_SUBSTANCE_VERSION>
1

> <PUBCHEM_EXT_DATASOURCE_NAME>
4488

> <PUBCHEM_EXT_DATASOURCE_REGID>
SCHEMBL16116393

> <PUBCHEM_SUBSTANCE_COMMENT>
InChI=1S/C9H10N2O2S/c1-14-9-10-6-4-2-3-5(6)7(11-9)8(12)13/h2-4H2,1H3,(H,12,13)
InChIKey=CNPKWLKGCXFCPW-UHFFFAOYSA-N

> <PUBCHEM_SUBSTANCE_SYNONYM>
SCHEMBL16116393

> <PUBCHEM_XREF_EXT_ID>
SCHEMBL16116393

> <PUBCHEM_EXT_DATASOURCE_URL>
https://www.surechembl.org/

> <PUBCHEM_EXT_SUBSTANCE_URL>
https://www.surechembl.org/chemical/SCHEMBL16116393

> <PUBCHEM_CID_ASSOCIATIONS>
117605943  1

> <PUBCHEM_COORDINATE_TYPE>
1
3

$$$$
