310938542
  -OEChem-07211613022D

 15 15  0     1  0  0  0  0  0999 V2000
    2.1988    0.1874    0.0000 O   0  0  0  0  0  0  0  0  0  0  0  0
    3.6278   -0.6376    0.0000 O   0  0  0  0  0  0  0  0  0  0  0  0
    5.0567    0.1874    0.0000 O   0  0  0  0  0  0  0  0  0  0  0  0
    1.4843    1.4249    0.0000 N   0  0  0  0  0  0  0  0  0  0  0  0
    1.4843    0.5999    0.0000 C   0  0  0  0  0  0  0  0  0  0  0  0
    0.7699    1.8374    0.0000 C   0  0  0  0  0  0  0  0  0  0  0  0
    0.7699    0.1874    0.0000 C   0  0  0  0  0  0  0  0  0  0  0  0
    0.0554    1.4249    0.0000 C   0  0  0  0  0  0  0  0  0  0  0  0
    0.7699    2.6624    0.0000 C   0  0  0  0  0  0  0  0  0  0  0  0
    0.0554    0.5999    0.0000 C   0  0  0  0  0  0  0  0  0  0  0  0
    2.9133    0.5999    0.0000 C   0  0  0  0  0  0  0  0  0  0  0  0
    3.6278    0.1874    0.0000 C   0  0  3  0  0  0  0  0  0  0  0  0
    4.3422    0.5999    0.0000 C   0  0  0  0  0  0  0  0  0  0  0  0
   -0.0551    2.6624    0.0000 C   0  0  0  0  0  0  0  0  0  0  0  0
    1.5304    2.6624    0.0000 C   0  0  0  0  0  0  0  0  0  0  0  0
  1  5  1  0  0  0  0
  1 11  1  0  0  0  0
 12  2  1  6  0  0  0
  3 13  1  0  0  0  0
  4  5  1  0  0  0  0
  4  6  2  0  0  0  0
  5  7  2  0  0  0  0
  6  8  1  0  0  0  0
  6  9  1  0  0  0  0
  7 10  1  0  0  0  0
  8 10  2  0  0  0  0
  9 14  1  0  0  0  0
  9 15  1  0  0  0  0
 11 12  1  0  0  0  0
 12 13  1  0  0  0  0
M  END
> <PUBCHEM_COMPOUND_ID_TYPE>
0

> <PUBCHEM_TOTAL_CHARGE>
0

> <PUBCHEM_SUBSTANCE_ID>
310938542

> <PUBCHEM_SUBSTANCE_VERSION>
1

> <PUBCHEM_EXT_DATASOURCE_NAME>
4488

> <PUBCHEM_EXT_DATASOURCE_REGID>
SCHEMBL16116456

> <PUBCHEM_SUBSTANCE_COMMENT>
InChI=1S/C11H17NO3/c1-8(2)10-4-3-5-11(12-10)15-7-9(14)6-13/h3-5,8-9,13-14H,6-7H2,1-2H3/t9-/m0/s1
InChIKey=YIMXFVUXLGFGGM-VIFPVBQESA-N

> <PUBCHEM_SUBSTANCE_SYNONYM>
SCHEMBL16116456

> <PUBCHEM_XREF_EXT_ID>
SCHEMBL16116456

> <PUBCHEM_EXT_DATASOURCE_URL>
https://www.surechembl.org/

> <PUBCHEM_EXT_SUBSTANCE_URL>
https://www.surechembl.org/chemical/SCHEMBL16116456

> <PUBCHEM_CID_ASSOCIATIONS>
117605985  1

> <PUBCHEM_COORDINATE_TYPE>
1
3

> <PUBCHEM_BONDANNOTATIONS>
12  2  6
9  14  3
9  15  3

$$$$
