310942173
  -OEChem-07211613022D

 29 30  0     1  0  0  0  0  0999 V2000
    1.8061    0.4250    0.0000 Cl  0  0  0  0  0  0  0  0  0  0  0  0
    0.3562   -2.0748    0.0000 F   0  0  0  0  0  0  0  0  0  0  0  0
    1.7935   -1.2499    0.0000 O   0  0  0  0  0  0  0  0  0  0  0  0
   -0.3687    1.6749    0.0000 O   0  0  0  0  0  0  0  0  0  0  0  0
   -3.2559    2.4998    0.0000 O   0  0  0  0  0  0  0  0  0  0  0  0
   -1.7935   -0.8249    0.0000 N   0  0  0  0  0  0  0  0  0  0  0  0
   -1.8061    1.6749    0.0000 N   0  0  0  0  0  0  0  0  0  0  0  0
   -3.9683    1.2499    0.0000 N   0  0  0  0  0  0  0  0  0  0  0  0
   -0.3562   -0.8249    0.0000 C   0  0  0  0  0  0  0  0  0  0  0  0
    0.3562   -1.2374    0.0000 C   0  0  0  0  0  0  0  0  0  0  0  0
    1.0686   -0.8249    0.0000 C   0  0  0  0  0  0  0  0  0  0  0  0
    1.0811    0.0125    0.0000 C   0  0  0  0  0  0  0  0  0  0  0  0
   -1.0811   -1.2374    0.0000 C   0  0  3  0  0  0  0  0  0  0  0  0
   -0.3437    0.0125    0.0000 C   0  0  0  0  0  0  0  0  0  0  0  0
    0.3562    0.4125    0.0000 C   0  0  0  0  0  0  0  0  0  0  0  0
    2.5185   -0.8249    0.0000 C   0  0  0  0  0  0  0  0  0  0  0  0
   -1.0936   -2.0873    0.0000 C   0  0  0  0  0  0  0  0  0  0  0  0
   -1.7935    0.0125    0.0000 C   0  0  3  0  0  0  0  0  0  0  0  0
    2.5310    0.0000    0.0000 C   0  0  0  0  0  0  0  0  0  0  0  0
    3.2559   -1.2374    0.0000 C   0  0  0  0  0  0  0  0  0  0  0  0
   -1.0811    0.4250    0.0000 C   0  0  0  0  0  0  0  0  0  0  0  0
    3.2434    0.4125    0.0000 C   0  0  0  0  0  0  0  0  0  0  0  0
    3.9683   -0.8249    0.0000 C   0  0  0  0  0  0  0  0  0  0  0  0
   -1.0936    1.2499    0.0000 C   0  0  0  0  0  0  0  0  0  0  0  0
   -1.7810   -2.4998    0.0000 C   0  0  0  0  0  0  0  0  0  0  0  0
    3.9683    0.0000    0.0000 C   0  0  0  0  0  0  0  0  0  0  0  0
   -2.5060    0.4125    0.0000 C   0  0  0  0  0  0  0  0  0  0  0  0
   -2.5185    1.2624    0.0000 C   0  0  0  0  0  0  0  0  0  0  0  0
   -3.2559    1.6623    0.0000 C   0  0  0  0  0  0  0  0  0  0  0  0
  1 12  1  0  0  0  0
  2 10  1  0  0  0  0
  3 11  1  0  0  0  0
  3 16  1  0  0  0  0
  4 24  2  0  0  0  0
  5 29  2  0  0  0  0
 13  6  1  1  0  0  0
  6 18  1  0  0  0  0
  7 24  1  0  0  0  0
  7 28  1  0  0  0  0
  8 29  1  0  0  0  0
  9 10  2  0  0  0  0
  9 13  1  0  0  0  0
  9 14  1  0  0  0  0
 10 11  1  0  0  0  0
 11 12  2  0  0  0  0
 12 15  1  0  0  0  0
 13 17  1  0  0  0  0
 14 15  2  0  0  0  0
 16 19  2  0  0  0  0
 16 20  1  0  0  0  0
 17 25  1  0  0  0  0
 18 21  1  0  0  0  0
 18 27  1  6  0  0  0
 19 22  1  0  0  0  0
 20 23  2  0  0  0  0
 21 24  1  0  0  0  0
 22 26  2  0  0  0  0
 23 26  1  0  0  0  0
 28 29  1  0  0  0  0
M  END
> <PUBCHEM_COMPOUND_ID_TYPE>
0

> <PUBCHEM_TOTAL_CHARGE>
0

> <PUBCHEM_SUBSTANCE_ID>
310942173

> <PUBCHEM_SUBSTANCE_VERSION>
1

> <PUBCHEM_EXT_DATASOURCE_NAME>
4488

> <PUBCHEM_EXT_DATASOURCE_REGID>
SCHEMBL16120208

> <PUBCHEM_SUBSTANCE_COMMENT>
InChI=1S/C21H25ClFN3O3/c1-3-17(26-13(2)11-19(28)25-12-18(24)27)15-9-10-16(22)21(20(15)23)29-14-7-5-4-6-8-14/h4-10,13,17,26H,3,11-12H2,1-2H3,(H2,24,27)(H,25,28)/t13-,17-/m1/s1
InChIKey=NTCRTTXHITWFHI-CXAGYDPISA-N

> <PUBCHEM_SUBSTANCE_SYNONYM>
SCHEMBL16120208

> <PUBCHEM_XREF_EXT_ID>
SCHEMBL16120208

> <PUBCHEM_EXT_DATASOURCE_URL>
https://www.surechembl.org/

> <PUBCHEM_EXT_SUBSTANCE_URL>
https://www.surechembl.org/chemical/SCHEMBL16120208

> <PUBCHEM_CID_ASSOCIATIONS>
117608826  1

> <PUBCHEM_COORDINATE_TYPE>
1
3

> <PUBCHEM_BONDANNOTATIONS>
18  27  6
13  6  5

$$$$
