310941776
  -OEChem-07211613022D

 24 29  0     1  0  0  0  0  0999 V2000
    0.3573    0.0481    0.0000 O   0  0  0  0  0  0  0  0  0  0  0  0
    2.4873   -1.1887    0.0000 N   0  0  0  0  0  0  0  0  0  0  0  0
    3.2707   -0.1168    0.0000 N   0  0  0  0  0  0  0  0  0  0  0  0
    3.7653   -0.8039    0.0000 N   0  0  0  0  0  0  0  0  0  0  0  0
   -2.3774    0.3367    0.0000 C   0  0  3  0  0  0  0  0  0  0  0  0
   -1.9788    1.0375    0.0000 C   0  0  3  0  0  0  0  0  0  0  0  0
   -3.1194    0.7077    0.0000 C   0  0  3  0  0  0  0  0  0  0  0  0
   -2.6797    1.4773    0.0000 C   0  0  3  0  0  0  0  0  0  0  0  0
    1.0444   -1.1887    0.0000 C   0  0  0  0  0  0  0  0  0  0  0  0
    1.0718   -0.3642    0.0000 C   0  0  0  0  0  0  0  0  0  0  0  0
   -1.0856    0.0618    0.0000 C   0  0  0  0  0  0  0  0  0  0  0  0
    0.3161   -1.6010    0.0000 C   0  0  0  0  0  0  0  0  0  0  0  0
   -3.1469    2.2743    0.0000 C   0  0  0  0  0  0  0  0  0  0  0  0
    2.4873   -0.3642    0.0000 C   0  0  0  0  0  0  0  0  0  0  0  0
   -1.8277   -0.2817    0.0000 C   0  0  0  0  0  0  0  0  0  0  0  0
   -1.1680    0.8726    0.0000 C   0  0  0  0  0  0  0  0  0  0  0  0
    1.7727   -1.6010    0.0000 C   0  0  0  0  0  0  0  0  0  0  0  0
    1.7590    0.0481    0.0000 C   0  0  0  0  0  0  0  0  0  0  0  0
   -3.7653    0.3230    0.0000 C   0  0  0  0  0  0  0  0  0  0  0  0
   -3.3806    1.0925    0.0000 C   0  0  0  0  0  0  0  0  0  0  0  0
   -0.3435   -0.3504    0.0000 C   0  0  0  0  0  0  0  0  0  0  0  0
   -0.4810   -1.6147    0.0000 C   0  0  0  0  0  0  0  0  0  0  0  0
   -0.0825   -2.2743    0.0000 C   0  0  0  0  0  0  0  0  0  0  0  0
    3.2569   -1.4498    0.0000 C   0  0  0  0  0  0  0  0  0  0  0  0
  1 10  1  0  0  0  0
  1 21  1  0  0  0  0
  2 14  1  0  0  0  0
  2 17  1  0  0  0  0
  2 24  1  0  0  0  0
  3  4  1  0  0  0  0
  3 14  2  0  0  0  0
  4 24  2  0  0  0  0
  5  6  1  0  0  0  0
  5  7  1  0  0  0  0
  5 15  1  0  0  0  0
  6  8  1  0  0  0  0
  6 16  1  0  0  0  0
  7 13  1  0  0  0  0
  7 19  1  0  0  0  0
  8 13  1  0  0  0  0
  8 20  1  0  0  0  0
  9 10  1  0  0  0  0
  9 12  1  0  0  0  0
  9 17  2  0  0  0  0
 10 18  2  0  0  0  0
 11 15  1  0  0  0  0
 11 16  1  0  0  0  0
 11 21  1  1  0  0  0
 12 22  1  0  0  0  0
 12 23  1  0  0  0  0
 14 18  1  0  0  0  0
 19 20  1  0  0  0  0
 22 23  1  0  0  0  0
M  END
> <PUBCHEM_COMPOUND_ID_TYPE>
0

> <PUBCHEM_TOTAL_CHARGE>
0

> <PUBCHEM_SUBSTANCE_ID>
310941776

> <PUBCHEM_SUBSTANCE_VERSION>
1

> <PUBCHEM_EXT_DATASOURCE_NAME>
4488

> <PUBCHEM_EXT_DATASOURCE_REGID>
SCHEMBL16119807

> <PUBCHEM_SUBSTANCE_COMMENT>
InChI=1S/C20H25N3O/c1-2-13(1)18-9-23-11-21-22-20(23)8-19(18)24-10-12-5-16-14-3-4-15(7-14)17(16)6-12/h8-9,11-17H,1-7,10H2
InChIKey=HNKBBZLOYMYONY-UHFFFAOYSA-N

> <PUBCHEM_SUBSTANCE_SYNONYM>
SCHEMBL16119807

> <PUBCHEM_XREF_EXT_ID>
SCHEMBL16119807

> <PUBCHEM_EXT_DATASOURCE_URL>
https://www.surechembl.org/

> <PUBCHEM_EXT_SUBSTANCE_URL>
https://www.surechembl.org/chemical/SCHEMBL16119807

> <PUBCHEM_CID_ASSOCIATIONS>
117608528  1

> <PUBCHEM_COORDINATE_TYPE>
1
3

> <PUBCHEM_BONDANNOTATIONS>
11  21  5

$$$$
