310939490
  -OEChem-07211613022D

 32 37  0     1  0  0  0  0  0999 V2000
    3.3842   -0.0527    0.0000 O   0  0  0  0  0  0  0  0  0  0  0  0
   -1.9709    2.4916    0.0000 O   0  0  0  0  0  0  0  0  0  0  0  0
    1.6015    1.2541    0.0000 N   0  0  0  0  0  0  0  0  0  0  0  0
    0.8870    0.8416    0.0000 N   0  0  0  0  0  0  0  0  0  0  0  0
    2.3861    2.3340    0.0000 N   0  0  0  0  0  0  0  0  0  0  0  0
   -0.5419    0.8416    0.0000 N   0  0  0  0  0  0  0  0  0  0  0  0
   -1.5584   -1.2529    0.0000 N   0  0  0  0  0  0  0  0  0  0  0  0
    2.3861    0.9992    0.0000 C   0  0  0  0  0  0  0  0  0  0  0  0
    2.5996    0.2023    0.0000 C   0  0  0  0  0  0  0  0  0  0  0  0
    1.6015    2.0791    0.0000 C   0  0  0  0  0  0  0  0  0  0  0  0
    2.8710    1.6666    0.0000 C   0  0  0  0  0  0  0  0  0  0  0  0
    3.3842   -0.8777    0.0000 C   0  0  0  0  0  0  0  0  0  0  0  0
    2.5996   -1.1326    0.0000 C   0  0  0  0  0  0  0  0  0  0  0  0
    2.1147   -0.4652    0.0000 C   0  0  0  0  0  0  0  0  0  0  0  0
    0.1725    1.2541    0.0000 C   0  0  0  0  0  0  0  0  0  0  0  0
    0.8870    2.4916    0.0000 C   0  0  0  0  0  0  0  0  0  0  0  0
    0.1725    2.0791    0.0000 C   0  0  0  0  0  0  0  0  0  0  0  0
   -2.6383   -0.4683    0.0000 C   0  0  0  0  0  0  0  0  0  0  0  0
   -1.9709    0.0166    0.0000 C   0  0  0  0  0  0  0  0  0  0  0  0
    3.9973   -1.4297    0.0000 C   0  0  0  0  0  0  0  0  0  0  0  0
    2.4281   -1.9396    0.0000 C   0  0  0  0  0  0  0  0  0  0  0  0
   -2.3834   -1.2529    0.0000 C   0  0  0  0  0  0  0  0  0  0  0  0
   -1.2564    1.2541    0.0000 C   0  0  3  0  0  0  0  0  0  0  0  0
   -1.9709    0.8416    0.0000 C   0  0  0  0  0  0  0  0  0  0  0  0
   -1.3034   -0.4683    0.0000 C   0  0  0  0  0  0  0  0  0  0  0  0
    3.8258   -2.2367    0.0000 C   0  0  0  0  0  0  0  0  0  0  0  0
    3.0412   -2.4916    0.0000 C   0  0  0  0  0  0  0  0  0  0  0  0
   -3.4453   -0.2968    0.0000 C   0  0  0  0  0  0  0  0  0  0  0  0
   -2.9354   -1.8660    0.0000 C   0  0  0  0  0  0  0  0  0  0  0  0
   -1.2564    2.0791    0.0000 C   0  0  0  0  0  0  0  0  0  0  0  0
   -3.9973   -0.9099    0.0000 C   0  0  0  0  0  0  0  0  0  0  0  0
   -3.7424   -1.6945    0.0000 C   0  0  0  0  0  0  0  0  0  0  0  0
  1  9  1  0  0  0  0
  1 12  1  0  0  0  0
  2 30  1  0  0  0  0
  3  4  1  0  0  0  0
  3  8  1  0  0  0  0
  3 10  1  0  0  0  0
  4 15  2  0  0  0  0
  5 10  2  0  0  0  0
  5 11  1  0  0  0  0
  6 15  1  0  0  0  0
 23  6  1  1  0  0  0
  7 22  1  0  0  0  0
  7 25  1  0  0  0  0
  8  9  1  0  0  0  0
  8 11  2  0  0  0  0
  9 14  2  0  0  0  0
 10 16  1  0  0  0  0
 12 13  2  0  0  0  0
 12 20  1  0  0  0  0
 13 14  1  0  0  0  0
 13 21  1  0  0  0  0
 15 17  1  0  0  0  0
 16 17  2  0  0  0  0
 18 19  1  0  0  0  0
 18 22  2  0  0  0  0
 18 28  1  0  0  0  0
 19 24  1  0  0  0  0
 19 25  2  0  0  0  0
 20 26  2  0  0  0  0
 21 27  2  0  0  0  0
 22 29  1  0  0  0  0
 23 24  1  0  0  0  0
 23 30  1  0  0  0  0
 26 27  1  0  0  0  0
 28 31  2  0  0  0  0
 29 32  2  0  0  0  0
 31 32  1  0  0  0  0
M  END
> <PUBCHEM_COMPOUND_ID_TYPE>
0

> <PUBCHEM_TOTAL_CHARGE>
0

> <PUBCHEM_SUBSTANCE_ID>
310939490

> <PUBCHEM_SUBSTANCE_VERSION>
1

> <PUBCHEM_EXT_DATASOURCE_NAME>
4488

> <PUBCHEM_EXT_DATASOURCE_REGID>
SCHEMBL16117419

> <PUBCHEM_SUBSTANCE_COMMENT>
InChI=1S/C25H21N5O2/c31-15-18(11-17-13-26-20-7-3-2-6-19(17)20)28-24-9-10-25-27-14-21(30(25)29-24)23-12-16-5-1-4-8-22(16)32-23/h1-10,12-14,18,26,31H,11,15H2,(H,28,29)/t18-/m0/s1
InChIKey=XXOAIQJDMSTOLB-SFHVURJKSA-N

> <PUBCHEM_SUBSTANCE_SYNONYM>
SCHEMBL16117419

> <PUBCHEM_XREF_EXT_ID>
SCHEMBL16117419

> <PUBCHEM_EXT_DATASOURCE_URL>
https://www.surechembl.org/

> <PUBCHEM_EXT_SUBSTANCE_URL>
https://www.surechembl.org/chemical/SCHEMBL16117419

> <PUBCHEM_CID_ASSOCIATIONS>
117606797  1

> <PUBCHEM_COORDINATE_TYPE>
1
3

> <PUBCHEM_BONDANNOTATIONS>
23  6  5

$$$$
