310941730
  -OEChem-07211613022D

 22 23  0     0  0  0  0  0  0999 V2000
    1.4498    1.4498    0.0000 N   0  0  0  0  0  0  0  0  0  0  0  0
    0.6999    0.2000    0.0000 C   0  0  0  0  0  0  0  0  0  0  0  0
   -0.0125   -1.0374    0.0000 C   0  0  0  0  0  0  0  0  0  0  0  0
    1.4373   -0.2000    0.0000 C   0  0  0  0  0  0  0  0  0  0  0  0
    0.0000   -0.2125    0.0000 C   0  0  0  0  0  0  0  0  0  0  0  0
   -0.7249   -1.4498    0.0000 C   0  0  0  0  0  0  0  0  0  0  0  0
    0.7249    1.0499    0.0000 C   0  0  0  0  0  0  0  0  0  0  0  0
    0.6999   -1.4498    0.0000 C   0  0  0  0  0  0  0  0  0  0  0  0
    1.4373   -1.0374    0.0000 C   0  0  0  0  0  0  0  0  0  0  0  0
   -1.4498   -1.0499    0.0000 C   0  0  0  0  0  0  0  0  0  0  0  0
   -0.7249   -2.2871    0.0000 C   0  0  0  0  0  0  0  0  0  0  0  0
   -0.0125    1.4622    0.0000 C   0  0  0  0  0  0  0  0  0  0  0  0
    2.1622    0.2000    0.0000 C   0  0  0  0  0  0  0  0  0  0  0  0
   -2.1622   -1.4622    0.0000 C   0  0  0  0  0  0  0  0  0  0  0  0
   -1.4373   -2.6996    0.0000 C   0  0  0  0  0  0  0  0  0  0  0  0
    1.1998    1.3748    0.0000 C   0  0  0  0  0  0  0  0  0  0  0  0
   -2.1622   -2.2871    0.0000 C   0  0  0  0  0  0  0  0  0  0  0  0
    0.0000    2.2871    0.0000 C   0  0  0  0  0  0  0  0  0  0  0  0
    0.7124    2.6996    0.0000 C   0  0  0  0  0  0  0  0  0  0  0  0
    1.4498    2.2996    0.0000 C   0  0  0  0  0  0  0  0  0  0  0  0
    2.1622    2.6996    0.0000 C   0  0  0  0  0  0  0  0  0  0  0  0
    2.1622    1.0374    0.0000 C   0  0  0  0  0  0  0  0  0  0  0  0
  1 20  1  0  0  0  0
  1 22  1  0  0  0  0
  2  4  2  0  0  0  0
  2  5  1  0  0  0  0
  2  7  1  0  0  0  0
  3  5  2  0  0  0  0
  3  6  1  0  0  0  0
  3  8  1  0  0  0  0
  4  9  1  0  0  0  0
  4 13  1  0  0  0  0
  6 10  2  0  0  0  0
  6 11  1  0  0  0  0
  7 12  1  0  0  0  0
  7 16  2  0  0  0  0
  8  9  2  0  0  0  0
 10 14  1  0  0  0  0
 11 15  2  0  0  0  0
 12 18  2  0  0  0  0
 14 17  2  0  0  0  0
 15 17  1  0  0  0  0
 18 19  1  0  0  0  0
 19 20  2  0  0  0  0
 20 21  1  0  0  0  0
M  END
> <PUBCHEM_COMPOUND_ID_TYPE>
0

> <PUBCHEM_TOTAL_CHARGE>
0

> <PUBCHEM_SUBSTANCE_ID>
310941730

> <PUBCHEM_SUBSTANCE_VERSION>
1

> <PUBCHEM_EXT_DATASOURCE_NAME>
4488

> <PUBCHEM_EXT_DATASOURCE_REGID>
SCHEMBL16119761

> <PUBCHEM_SUBSTANCE_COMMENT>
InChI=1S/C21H23N/c1-16(9-8-10-18(3)22-4)21-15-20(14-13-17(21)2)19-11-6-5-7-12-19/h5-15,22H,1H2,2-4H3/b9-8-,18-10-
InChIKey=JHYKBNJVGPXTSC-OVQXVUKJSA-N

> <PUBCHEM_SUBSTANCE_SYNONYM>
SCHEMBL16119761

> <PUBCHEM_XREF_EXT_ID>
SCHEMBL16119761

> <PUBCHEM_EXT_DATASOURCE_URL>
https://www.surechembl.org/

> <PUBCHEM_EXT_SUBSTANCE_URL>
https://www.surechembl.org/chemical/SCHEMBL16119761

> <PUBCHEM_CID_ASSOCIATIONS>
117608500  1

> <PUBCHEM_COORDINATE_TYPE>
1
3

$$$$
