310938590
  -OEChem-07211613022D

 31 35  0     0  0  0  0  0  0999 V2000
    2.9440   -3.6020    0.0000 F   0  0  0  0  0  0  0  0  0  0  0  0
   -0.8006   -0.1105    0.0000 O   0  0  0  0  0  0  0  0  0  0  0  0
    0.6284    3.1895    0.0000 O   0  0  0  0  0  0  0  0  0  0  0  0
   -0.8006   -2.5855    0.0000 N   0  0  0  0  0  0  0  0  0  0  0  0
   -0.0159   -1.5056    0.0000 N   0  0  0  0  0  0  0  0  0  0  0  0
   -1.5150   -2.9980    0.0000 N   0  0  0  0  0  0  0  0  0  0  0  0
   -2.2295   -0.1105    0.0000 N   0  0  0  0  0  0  0  0  0  0  0  0
   -1.5150    1.1270    0.0000 N   0  0  0  0  0  0  0  0  0  0  0  0
   -0.8006    2.3645    0.0000 N   0  0  0  0  0  0  0  0  0  0  0  0
   -0.8006   -1.7605    0.0000 C   0  0  0  0  0  0  0  0  0  0  0  0
   -1.5150   -1.3480    0.0000 C   0  0  0  0  0  0  0  0  0  0  0  0
    0.4690   -2.1730    0.0000 C   0  0  0  0  0  0  0  0  0  0  0  0
   -0.0159   -2.8405    0.0000 C   0  0  0  0  0  0  0  0  0  0  0  0
   -1.5150   -0.5230    0.0000 C   0  0  0  0  0  0  0  0  0  0  0  0
    1.2940   -2.1730    0.0000 C   0  0  0  0  0  0  0  0  0  0  0  0
   -2.2295   -1.7605    0.0000 C   0  0  0  0  0  0  0  0  0  0  0  0
   -2.2295   -2.5855    0.0000 C   0  0  0  0  0  0  0  0  0  0  0  0
   -2.2295    0.7145    0.0000 C   0  0  0  0  0  0  0  0  0  0  0  0
    1.7065   -2.8875    0.0000 C   0  0  0  0  0  0  0  0  0  0  0  0
    1.7065   -1.4586    0.0000 C   0  0  0  0  0  0  0  0  0  0  0  0
   -1.5150    1.9520    0.0000 C   0  0  0  0  0  0  0  0  0  0  0  0
    2.5315   -2.8875    0.0000 C   0  0  0  0  0  0  0  0  0  0  0  0
   -2.9440    1.1270    0.0000 C   0  0  0  0  0  0  0  0  0  0  0  0
   -2.2295    2.3645    0.0000 C   0  0  0  0  0  0  0  0  0  0  0  0
    2.5315   -1.4586    0.0000 C   0  0  0  0  0  0  0  0  0  0  0  0
    2.9440   -2.1730    0.0000 C   0  0  0  0  0  0  0  0  0  0  0  0
   -2.9440    1.9520    0.0000 C   0  0  0  0  0  0  0  0  0  0  0  0
   -0.0861    1.9520    0.0000 C   0  0  0  0  0  0  0  0  0  0  0  0
   -0.8006    3.1895    0.0000 C   0  0  0  0  0  0  0  0  0  0  0  0
    0.6284    2.3645    0.0000 C   0  0  0  0  0  0  0  0  0  0  0  0
   -0.0861    3.6020    0.0000 C   0  0  0  0  0  0  0  0  0  0  0  0
  1 22  1  0  0  0  0
  2 14  2  0  0  0  0
  3 30  1  0  0  0  0
  3 31  1  0  0  0  0
  4  6  1  0  0  0  0
  4 10  1  0  0  0  0
  4 13  1  0  0  0  0
  5 10  2  0  0  0  0
  5 12  1  0  0  0  0
  6 17  2  0  0  0  0
  7 14  1  0  0  0  0
  7 18  1  0  0  0  0
  8 18  1  0  0  0  0
  8 21  2  0  0  0  0
  9 21  1  0  0  0  0
  9 28  1  0  0  0  0
  9 29  1  0  0  0  0
 10 11  1  0  0  0  0
 11 14  1  0  0  0  0
 11 16  2  0  0  0  0
 12 13  2  0  0  0  0
 12 15  1  0  0  0  0
 15 19  1  0  0  0  0
 15 20  2  0  0  0  0
 16 17  1  0  0  0  0
 18 23  2  0  0  0  0
 19 22  2  0  0  0  0
 20 25  1  0  0  0  0
 21 24  1  0  0  0  0
 22 26  1  0  0  0  0
 23 27  1  0  0  0  0
 24 27  2  0  0  0  0
 25 26  2  0  0  0  0
 28 30  1  0  0  0  0
 29 31  1  0  0  0  0
M  END
> <PUBCHEM_COMPOUND_ID_TYPE>
0

> <PUBCHEM_TOTAL_CHARGE>
0

> <PUBCHEM_SUBSTANCE_ID>
310938590

> <PUBCHEM_SUBSTANCE_VERSION>
1

> <PUBCHEM_EXT_DATASOURCE_NAME>
4488

> <PUBCHEM_EXT_DATASOURCE_REGID>
SCHEMBL16116504

> <PUBCHEM_SUBSTANCE_COMMENT>
InChI=1S/C22H19FN6O2/c23-16-4-1-3-15(13-16)18-14-29-21(25-18)17(7-8-24-29)22(30)27-19-5-2-6-20(26-19)28-9-11-31-12-10-28/h1-8,13-14H,9-12H2,(H,26,27,30)
InChIKey=UPLLBYDFBDVNTQ-UHFFFAOYSA-N

> <PUBCHEM_SUBSTANCE_SYNONYM>
SCHEMBL16116504

> <PUBCHEM_XREF_EXT_ID>
SCHEMBL16116504

> <PUBCHEM_EXT_DATASOURCE_URL>
https://www.surechembl.org/

> <PUBCHEM_EXT_SUBSTANCE_URL>
https://www.surechembl.org/chemical/SCHEMBL16116504

> <PUBCHEM_CID_ASSOCIATIONS>
117606024  1

> <PUBCHEM_COORDINATE_TYPE>
1
3

$$$$
