310945776
  -OEChem-07211613022D

 36 39  0     1  0  0  0  0  0999 V2000
    3.9464    0.6532    0.0000 O   0  0  0  0  0  0  0  0  0  0  0  0
    2.8051   -1.2857    0.0000 O   0  0  0  0  0  0  0  0  0  0  0  0
    0.6600    0.7769    0.0000 O   0  0  0  0  0  0  0  0  0  0  0  0
   -1.4988   -1.2582    0.0000 O   0  0  0  0  0  0  0  0  0  0  0  0
    2.8051   -2.9357    0.0000 O   0  0  0  0  0  0  0  0  0  0  0  0
    1.3750   -0.4469    0.0000 N   0  0  0  0  0  0  0  0  0  0  0  0
   -0.7700   -0.0344    0.0000 N   0  0  0  0  0  0  0  0  0  0  0  0
   -2.9289   -0.4331    0.0000 N   0  0  0  0  0  0  0  0  0  0  0  0
   -3.6714   -0.1032    0.0000 N   0  0  0  0  0  0  0  0  0  0  0  0
   -4.2352   -0.7082    0.0000 N   0  0  0  0  0  0  0  0  0  0  0  0
    3.5201   -0.0069    0.0000 C   0  0  3  0  0  0  0  0  0  0  0  0
    2.8051   -0.4194    0.0000 C   0  0  0  0  0  0  0  0  0  0  0  0
    3.1489    0.6669    0.0000 C   0  0  0  0  0  0  0  0  0  0  0  0
    2.1038   -0.0069    0.0000 C   0  0  3  0  0  0  0  0  0  0  0  0
    4.2352   -0.4331    0.0000 C   0  0  0  0  0  0  0  0  0  0  0  0
    2.1038    1.2994    0.0000 C   0  0  0  0  0  0  0  0  0  0  0  0
    0.6600   -0.0344    0.0000 C   0  0  0  0  0  0  0  0  0  0  0  0
   -0.0413   -0.4194    0.0000 C   0  0  3  0  0  0  0  0  0  0  0  0
    1.3888    1.7257    0.0000 C   0  0  0  0  0  0  0  0  0  0  0  0
   -0.0687   -1.2719    0.0000 C   0  0  0  0  0  0  0  0  0  0  0  0
    0.6737   -1.6570    0.0000 C   0  0  0  0  0  0  0  0  0  0  0  0
   -1.4713   -0.3919    0.0000 C   0  0  0  0  0  0  0  0  0  0  0  0
    1.3888    2.5232    0.0000 C   0  0  0  0  0  0  0  0  0  0  0  0
    0.6737    1.3132    0.0000 C   0  0  0  0  0  0  0  0  0  0  0  0
   -2.2276   -0.0069    0.0000 C   0  0  0  0  0  0  0  0  0  0  0  0
    0.6737   -2.4820    0.0000 C   0  0  0  0  0  0  0  0  0  0  0  0
    1.3613   -1.2582    0.0000 C   0  0  0  0  0  0  0  0  0  0  0  0
    2.0901   -2.4683    0.0000 C   0  0  0  0  0  0  0  0  0  0  0  0
    0.6600    2.9357    0.0000 C   0  0  0  0  0  0  0  0  0  0  0  0
   -0.0275    1.7120    0.0000 C   0  0  0  0  0  0  0  0  0  0  0  0
    1.3750   -2.8808    0.0000 C   0  0  0  0  0  0  0  0  0  0  0  0
    2.0901   -1.6707    0.0000 C   0  0  0  0  0  0  0  0  0  0  0  0
   -0.0275    2.5232    0.0000 C   0  0  0  0  0  0  0  0  0  0  0  0
   -3.0114   -1.2307    0.0000 C   0  0  0  0  0  0  0  0  0  0  0  0
   -3.8089   -1.3957    0.0000 C   0  0  0  0  0  0  0  0  0  0  0  0
    3.5477   -2.5095    0.0000 C   0  0  0  0  0  0  0  0  0  0  0  0
  1 11  1  0  0  0  0
  1 13  1  0  0  0  0
  2 12  2  0  0  0  0
  3 17  2  0  0  0  0
  4 22  2  0  0  0  0
  5 28  1  0  0  0  0
  5 36  1  0  0  0  0
 14  6  1  1  0  0  0
  6 17  1  0  0  0  0
 18  7  1  6  0  0  0
  7 22  1  0  0  0  0
  8  9  1  0  0  0  0
  8 25  1  0  0  0  0
  8 34  1  0  0  0  0
  9 10  2  0  0  0  0
 10 35  1  0  0  0  0
 11 12  1  1  0  0  0
 11 13  1  0  0  0  0
 11 15  1  6  0  0  0
 12 14  1  0  0  0  0
 14 16  1  0  0  0  0
 16 19  1  0  0  0  0
 17 18  1  0  0  0  0
 18 20  1  0  0  0  0
 19 23  2  0  0  0  0
 19 24  1  0  0  0  0
 20 21  1  0  0  0  0
 21 26  2  0  0  0  0
 21 27  1  0  0  0  0
 22 25  1  0  0  0  0
 23 29  1  0  0  0  0
 24 30  2  0  0  0  0
 26 31  1  0  0  0  0
 27 32  2  0  0  0  0
 28 31  2  0  0  0  0
 28 32  1  0  0  0  0
 29 33  2  0  0  0  0
 30 33  1  0  0  0  0
 34 35  2  0  0  0  0
M  END
> <PUBCHEM_COMPOUND_ID_TYPE>
0

> <PUBCHEM_TOTAL_CHARGE>
0

> <PUBCHEM_SUBSTANCE_ID>
310945776

> <PUBCHEM_SUBSTANCE_VERSION>
1

> <PUBCHEM_EXT_DATASOURCE_NAME>
4488

> <PUBCHEM_EXT_DATASOURCE_REGID>
SCHEMBL16123880

> <PUBCHEM_SUBSTANCE_COMMENT>
InChI=1S/C26H29N5O5/c1-26(17-36-26)24(33)21(14-18-6-4-3-5-7-18)29-25(34)22(15-19-8-10-20(35-2)11-9-19)28-23(32)16-31-13-12-27-30-31/h3-13,21-22H,14-17H2,1-2H3,(H,28,32)(H,29,34)/t21-,22-,26+/m0/s1
InChIKey=BBPKPXIMVILALF-AOJNWGRGSA-N

> <PUBCHEM_SUBSTANCE_SYNONYM>
SCHEMBL16123880

> <PUBCHEM_XREF_EXT_ID>
SCHEMBL16123880

> <PUBCHEM_EXT_DATASOURCE_URL>
https://www.surechembl.org/

> <PUBCHEM_EXT_SUBSTANCE_URL>
https://www.surechembl.org/chemical/SCHEMBL16123880

> <PUBCHEM_CID_ASSOCIATIONS>
117611764  1

> <PUBCHEM_COORDINATE_TYPE>
1
3

> <PUBCHEM_BONDANNOTATIONS>
11  12  5
11  15  6
14  6  5
18  7  6

$$$$
