310931619
  -OEChem-07211613022D

 30 32  0     0  0  0  0  0  0999 V2000
    2.8370   -2.1120    0.0000 O   0  0  0  0  0  0  0  0  0  0  0  0
    0.1261   -2.3956    0.0000 O   0  0  0  0  0  0  0  0  0  0  0  0
    7.3446   -2.2065    0.0000 O   0  0  0  0  0  0  0  0  0  0  0  0
    3.7511   -0.9772    0.0000 N   0  0  0  0  0  0  0  0  0  0  0  0
    3.6565   -0.1576    0.0000 N   0  0  0  0  0  0  0  0  0  0  0  0
    5.2011   -0.9772    0.0000 N   0  0  0  0  0  0  0  0  0  0  0  0
    6.6511   -3.4674    0.0000 N   0  0  0  0  0  0  0  0  0  0  0  0
    0.0000   -0.9772    0.0000 N   0  0  0  0  0  0  0  0  0  0  0  0
    8.6055   -4.5706    0.0000 N   0  0  0  0  0  0  0  0  0  0  0  0
    2.4272   -0.7250    0.0000 C   0  0  0  0  0  0  0  0  0  0  0  0
    2.9946   -1.3239    0.0000 C   0  0  0  0  0  0  0  0  0  0  0  0
    4.4761   -1.3869    0.0000 C   0  0  0  0  0  0  0  0  0  0  0  0
    1.6076   -0.7881    0.0000 C   0  0  0  0  0  0  0  0  0  0  0  0
    2.8370    0.0000    0.0000 C   0  0  0  0  0  0  0  0  0  0  0  0
    5.9261   -2.2065    0.0000 C   0  0  0  0  0  0  0  0  0  0  0  0
    4.4761   -2.2065    0.0000 C   0  0  0  0  0  0  0  0  0  0  0  0
    1.2924   -1.5761    0.0000 C   0  0  0  0  0  0  0  0  0  0  0  0
    1.1348   -0.1576    0.0000 C   0  0  0  0  0  0  0  0  0  0  0  0
    5.9261   -1.3869    0.0000 C   0  0  0  0  0  0  0  0  0  0  0  0
    5.2011   -2.6163    0.0000 C   0  0  0  0  0  0  0  0  0  0  0  0
    6.6511   -2.6163    0.0000 C   0  0  0  0  0  0  0  0  0  0  0  0
    0.4728   -1.6392    0.0000 C   0  0  0  0  0  0  0  0  0  0  0  0
    7.3761   -3.8772    0.0000 C   0  0  0  0  0  0  0  0  0  0  0  0
    0.3152   -0.2206    0.0000 C   0  0  0  0  0  0  0  0  0  0  0  0
    8.1957   -3.8772    0.0000 C   0  0  0  0  0  0  0  0  0  0  0  0
    6.9664   -4.5706    0.0000 C   0  0  0  0  0  0  0  0  0  0  0  0
    7.7859   -3.1522    0.0000 C   0  0  0  0  0  0  0  0  0  0  0  0
    0.5989   -3.0576    0.0000 C   0  0  0  0  0  0  0  0  0  0  0  0
    8.1957   -5.2957    0.0000 C   0  0  0  0  0  0  0  0  0  0  0  0
    9.4566   -4.5706    0.0000 C   0  0  0  0  0  0  0  0  0  0  0  0
  1 11  1  0  0  0  0
  2 22  1  0  0  0  0
  2 28  1  0  0  0  0
  3 21  2  0  0  0  0
  4  5  1  0  0  0  0
  4 11  1  0  0  0  0
  4 12  1  0  0  0  0
  5 14  2  0  0  0  0
  6 12  2  0  0  0  0
  6 19  1  0  0  0  0
  7 21  1  0  0  0  0
  7 23  1  0  0  0  0
  8 22  1  0  0  0  0
  8 24  2  0  0  0  0
  9 25  1  0  0  0  0
  9 29  1  0  0  0  0
  9 30  1  0  0  0  0
 10 11  2  0  0  0  0
 10 13  1  0  0  0  0
 10 14  1  0  0  0  0
 12 16  1  0  0  0  0
 13 17  1  0  0  0  0
 13 18  2  0  0  0  0
 15 19  2  0  0  0  0
 15 20  1  0  0  0  0
 15 21  1  0  0  0  0
 16 20  2  0  0  0  0
 17 22  2  0  0  0  0
 18 24  1  0  0  0  0
 23 25  1  0  0  0  0
 23 26  1  0  0  0  0
 23 27  1  0  0  0  0
M  END
> <PUBCHEM_COMPOUND_ID_TYPE>
0

> <PUBCHEM_TOTAL_CHARGE>
0

> <PUBCHEM_SUBSTANCE_ID>
310931619

> <PUBCHEM_SUBSTANCE_VERSION>
1

> <PUBCHEM_EXT_DATASOURCE_NAME>
4488

> <PUBCHEM_EXT_DATASOURCE_REGID>
SCHEMBL16108945

> <PUBCHEM_SUBSTANCE_COMMENT>
InChI=1S/C21H26N6O3/c1-21(2,13-26(3)4)25-19(28)15-6-7-17(23-11-15)27-20(29)16(12-24-27)14-8-9-22-18(10-14)30-5/h6-12,29H,13H2,1-5H3,(H,25,28)
InChIKey=KAOMUGAPPAQCJZ-UHFFFAOYSA-N

> <PUBCHEM_SUBSTANCE_SYNONYM>
SCHEMBL16108945

> <PUBCHEM_XREF_EXT_ID>
SCHEMBL16108945

> <PUBCHEM_EXT_DATASOURCE_URL>
https://www.surechembl.org/

> <PUBCHEM_EXT_SUBSTANCE_URL>
https://www.surechembl.org/chemical/SCHEMBL16108945

> <PUBCHEM_CID_ASSOCIATIONS>
117600338  1

> <PUBCHEM_COORDINATE_TYPE>
1
3

$$$$
