310946360
  -OEChem-07211613022D

 31 33  0     1  0  0  0  0  0999 V2000
   -1.5772    2.7890    0.0000 I   0  0  0  0  0  0  0  0  0  0  0  0
   -0.1482    5.2640    0.0000 I   0  0  0  0  0  0  0  0  0  0  0  0
    2.7096    4.4390    0.0000 S   0  0  0  0  0  0  0  0  0  0  0  0
    2.2971    5.1535    0.0000 O   0  0  0  0  0  0  0  0  0  0  0  0
    3.1221    3.7245    0.0000 O   0  0  0  0  0  0  0  0  0  0  0  0
   -1.5772    4.4390    0.0000 O   0  0  0  0  0  0  0  0  0  0  0  0
    3.4241    3.2015    0.0000 O   0  0  0  0  0  0  0  0  0  0  0  0
   -4.4351    2.7890    0.0000 O   0  0  0  0  0  0  0  0  0  0  0  0
    1.9952    4.0265    0.0000 N   0  0  0  0  0  0  0  0  0  0  0  0
    4.2087    5.9314    0.0000 N   0  0  0  0  0  0  0  0  0  0  0  0
    3.4241    4.8515    0.0000 C   0  0  0  0  0  0  0  0  0  0  0  0
    3.4241    5.6765    0.0000 C   0  0  0  0  0  0  0  0  0  0  0  0
    4.2087    4.5965    0.0000 C   0  0  0  0  0  0  0  0  0  0  0  0
   -0.8627    4.0265    0.0000 C   0  0  0  0  0  0  0  0  0  0  0  0
    1.9952    3.2015    0.0000 C   0  0  3  0  0  0  0  0  0  0  0  0
    0.5662    3.2015    0.0000 C   0  0  0  0  0  0  0  0  0  0  0  0
    4.6937    5.2640    0.0000 C   0  0  0  0  0  0  0  0  0  0  0  0
   -0.8627    3.2015    0.0000 C   0  0  0  0  0  0  0  0  0  0  0  0
   -0.1482    4.4390    0.0000 C   0  0  0  0  0  0  0  0  0  0  0  0
    1.2807    2.7890    0.0000 C   0  0  0  0  0  0  0  0  0  0  0  0
   -0.1482    2.7890    0.0000 C   0  0  0  0  0  0  0  0  0  0  0  0
    0.5662    4.0265    0.0000 C   0  0  0  0  0  0  0  0  0  0  0  0
   -2.2917    4.0265    0.0000 C   0  0  0  0  0  0  0  0  0  0  0  0
    2.7096    6.0890    0.0000 C   0  0  0  0  0  0  0  0  0  0  0  0
    4.6212    3.8821    0.0000 C   0  0  0  0  0  0  0  0  0  0  0  0
    2.7096    2.7890    0.0000 C   0  0  0  0  0  0  0  0  0  0  0  0
   -3.0061    4.4390    0.0000 C   0  0  0  0  0  0  0  0  0  0  0  0
   -2.2917    3.2015    0.0000 C   0  0  0  0  0  0  0  0  0  0  0  0
   -3.7206    3.2015    0.0000 C   0  0  0  0  0  0  0  0  0  0  0  0
   -3.7206    4.0265    0.0000 C   0  0  0  0  0  0  0  0  0  0  0  0
   -3.0061    2.7890    0.0000 C   0  0  0  0  0  0  0  0  0  0  0  0
  1 18  1  0  0  0  0
  2 19  1  0  0  0  0
  3  4  2  0  0  0  0
  3  5  2  0  0  0  0
  3  9  1  0  0  0  0
  3 11  1  0  0  0  0
  6 14  1  0  0  0  0
  6 23  1  0  0  0  0
  7 26  1  0  0  0  0
  8 29  1  0  0  0  0
 15  9  1  6  0  0  0
 10 12  2  0  0  0  0
 10 17  1  0  0  0  0
 11 12  1  0  0  0  0
 11 13  2  0  0  0  0
 12 24  1  0  0  0  0
 13 17  1  0  0  0  0
 13 25  1  0  0  0  0
 14 18  2  0  0  0  0
 14 19  1  0  0  0  0
 15 20  1  0  0  0  0
 15 26  1  0  0  0  0
 16 20  1  0  0  0  0
 16 21  2  0  0  0  0
 16 22  1  0  0  0  0
 18 21  1  0  0  0  0
 19 22  2  0  0  0  0
 23 27  2  0  0  0  0
 23 28  1  0  0  0  0
 27 30  1  0  0  0  0
 28 31  2  0  0  0  0
 29 30  2  0  0  0  0
 29 31  1  0  0  0  0
M  END
> <PUBCHEM_COMPOUND_ID_TYPE>
0

> <PUBCHEM_TOTAL_CHARGE>
0

> <PUBCHEM_SUBSTANCE_ID>
310946360

> <PUBCHEM_SUBSTANCE_VERSION>
1

> <PUBCHEM_EXT_DATASOURCE_NAME>
4488

> <PUBCHEM_EXT_DATASOURCE_REGID>
SCHEMBL16124479

> <PUBCHEM_SUBSTANCE_COMMENT>
InChI=1S/C21H22I2N2O5S/c1-12-10-24-13(2)21(12)31(28,29)25-15(11-26)7-14-8-18(22)20(19(23)9-14)30-17-5-3-16(27)4-6-17/h3-6,8-9,15,25-27H,7,10-11H2,1-2H3/t15-/m0/s1
InChIKey=QODRULJFDTWMRT-HNNXBMFYSA-N

> <PUBCHEM_SUBSTANCE_SYNONYM>
SCHEMBL16124479

> <PUBCHEM_XREF_EXT_ID>
SCHEMBL16124479

> <PUBCHEM_EXT_DATASOURCE_URL>
https://www.surechembl.org/

> <PUBCHEM_EXT_SUBSTANCE_URL>
https://www.surechembl.org/chemical/SCHEMBL16124479

> <PUBCHEM_CID_ASSOCIATIONS>
117612283  1

> <PUBCHEM_COORDINATE_TYPE>
1
3

> <PUBCHEM_BONDANNOTATIONS>
15  9  6

$$$$
