310940397
  -OEChem-07211613022D

 26 28  0     0  0  0  0  0  0999 V2000
   -0.7396   -0.8328    0.0000 O   0  0  0  0  0  0  0  0  0  0  0  0
   -1.4480   -2.0758    0.0000 O   0  0  0  0  0  0  0  0  0  0  0  0
    2.1317    1.6532    0.0000 O   0  0  0  0  0  0  0  0  0  0  0  0
   -2.1566   -0.8328    0.0000 N   0  0  0  0  0  0  0  0  0  0  0  0
    3.5984    1.6532    0.0000 N   0  0  0  0  0  0  0  0  0  0  0  0
    1.4356   -1.2430    0.0000 C   0  0  0  0  0  0  0  0  0  0  0  0
    2.1442   -0.8328    0.0000 C   0  0  0  0  0  0  0  0  0  0  0  0
    1.4232   -2.0633    0.0000 C   0  0  0  0  0  0  0  0  0  0  0  0
   -0.0062   -1.2430    0.0000 C   0  0  0  0  0  0  0  0  0  0  0  0
    0.7023   -0.8452    0.0000 C   0  0  0  0  0  0  0  0  0  0  0  0
    2.1566   -0.0124    0.0000 C   0  0  0  0  0  0  0  0  0  0  0  0
    2.8526    0.4101    0.0000 C   0  0  0  0  0  0  0  0  0  0  0  0
    0.7147   -2.4859    0.0000 C   0  0  0  0  0  0  0  0  0  0  0  0
    2.8651   -1.2430    0.0000 C   0  0  0  0  0  0  0  0  0  0  0  0
    0.0062   -2.0758    0.0000 C   0  0  0  0  0  0  0  0  0  0  0  0
    3.5860    0.0000    0.0000 C   0  0  0  0  0  0  0  0  0  0  0  0
    3.5860   -0.8328    0.0000 C   0  0  0  0  0  0  0  0  0  0  0  0
   -1.4356   -1.2305    0.0000 C   0  0  0  0  0  0  0  0  0  0  0  0
    2.8899    1.2430    0.0000 C   0  0  0  0  0  0  0  0  0  0  0  0
    2.1442   -2.4859    0.0000 C   0  0  0  0  0  0  0  0  0  0  0  0
   -2.8775   -1.2430    0.0000 C   0  0  0  0  0  0  0  0  0  0  0  0
   -3.5984   -0.8452    0.0000 C   0  0  0  0  0  0  0  0  0  0  0  0
   -2.8775   -2.0758    0.0000 C   0  0  0  0  0  0  0  0  0  0  0  0
   -4.2944   -1.2430    0.0000 C   0  0  0  0  0  0  0  0  0  0  0  0
   -3.5860   -2.4859    0.0000 C   0  0  0  0  0  0  0  0  0  0  0  0
   -4.2944   -2.0758    0.0000 C   0  0  0  0  0  0  0  0  0  0  0  0
  1  9  1  0  0  0  0
  1 18  1  0  0  0  0
  2 18  2  0  0  0  0
  3 19  2  0  0  0  0
  4 18  1  0  0  0  0
  4 21  1  0  0  0  0
  5 19  1  0  0  0  0
  6  7  1  0  0  0  0
  6  8  1  0  0  0  0
  6 10  2  0  0  0  0
  7 11  1  0  0  0  0
  7 14  2  0  0  0  0
  8 13  2  0  0  0  0
  8 20  1  0  0  0  0
  9 10  1  0  0  0  0
  9 15  2  0  0  0  0
 11 12  2  0  0  0  0
 12 16  1  0  0  0  0
 12 19  1  0  0  0  0
 13 15  1  0  0  0  0
 14 17  1  0  0  0  0
 16 17  2  0  0  0  0
 21 22  1  0  0  0  0
 21 23  1  0  0  0  0
 22 24  1  0  0  0  0
 23 25  1  0  0  0  0
 24 26  1  0  0  0  0
 25 26  1  0  0  0  0
M  END
> <PUBCHEM_COMPOUND_ID_TYPE>
0

> <PUBCHEM_TOTAL_CHARGE>
0

> <PUBCHEM_SUBSTANCE_ID>
310940397

> <PUBCHEM_SUBSTANCE_VERSION>
1

> <PUBCHEM_EXT_DATASOURCE_NAME>
4488

> <PUBCHEM_EXT_DATASOURCE_REGID>
SCHEMBL16118345

> <PUBCHEM_SUBSTANCE_COMMENT>
InChI=1S/C21H24N2O3/c1-14-10-11-18(26-21(25)23-17-8-3-2-4-9-17)13-19(14)15-6-5-7-16(12-15)20(22)24/h5-7,10-13,17H,2-4,8-9H2,1H3,(H2,22,24)(H,23,25)
InChIKey=OWDDTHVKDDWPSM-UHFFFAOYSA-N

> <PUBCHEM_SUBSTANCE_SYNONYM>
SCHEMBL16118345

> <PUBCHEM_XREF_EXT_ID>
SCHEMBL16118345

> <PUBCHEM_EXT_DATASOURCE_URL>
https://www.surechembl.org/

> <PUBCHEM_EXT_SUBSTANCE_URL>
https://www.surechembl.org/chemical/SCHEMBL16118345

> <PUBCHEM_CID_ASSOCIATIONS>
71511803  1

> <PUBCHEM_COORDINATE_TYPE>
1
3

$$$$
