310941438
  -OEChem-07211613022D

 34 38  0     1  0  0  0  0  0999 V2000
   -1.1311    2.0372    0.0000 O   0  0  0  0  0  0  0  0  0  0  0  0
   -2.5808    3.3869    0.0000 O   0  0  0  0  0  0  0  0  0  0  0  0
   -0.3937    0.7874    0.0000 N   0  0  0  0  0  0  0  0  0  0  0  0
   -1.1061   -0.4624    0.0000 N   0  0  0  0  0  0  0  0  0  0  0  0
    0.3312   -1.2998    0.0000 N   0  0  0  0  0  0  0  0  0  0  0  0
    1.7809   -1.2998    0.0000 N   0  0  0  0  0  0  0  0  0  0  0  0
   -3.3432    3.1245    0.0000 N   0  0  0  0  0  0  0  0  0  0  0  0
    2.4934   -2.5496    0.0000 N   0  0  0  0  0  0  0  0  0  0  0  0
    3.3432   -1.2998    0.0000 N   0  0  0  0  0  0  0  0  0  0  0  0
   -0.3687   -3.3869    0.0000 N   0  0  0  0  0  0  0  0  0  0  0  0
   -1.8435    0.7998    0.0000 C   0  0  0  0  0  0  0  0  0  0  0  0
   -1.1311    1.1873    0.0000 C   0  0  0  0  0  0  0  0  0  0  0  0
   -0.4062   -0.0500    0.0000 C   0  0  0  0  0  0  0  0  0  0  0  0
   -1.8559   -0.0375    0.0000 C   0  0  0  0  0  0  0  0  0  0  0  0
   -2.5683    1.1998    0.0000 C   0  0  0  0  0  0  0  0  0  0  0  0
    0.3187    1.2123    0.0000 C   0  0  0  0  0  0  0  0  0  0  0  0
    0.3312   -0.4624    0.0000 C   0  0  3  0  0  0  0  0  0  0  0  0
   -2.5683    2.0496    0.0000 C   0  0  0  0  0  0  0  0  0  0  0  0
   -2.5683   -0.4499    0.0000 C   0  0  0  0  0  0  0  0  0  0  0  0
   -3.2682    0.7874    0.0000 C   0  0  0  0  0  0  0  0  0  0  0  0
   -3.2682   -0.0375    0.0000 C   0  0  0  0  0  0  0  0  0  0  0  0
    1.0561    0.7998    0.0000 C   0  0  0  0  0  0  0  0  0  0  0  0
    0.3312    2.0372    0.0000 C   0  0  0  0  0  0  0  0  0  0  0  0
    1.0561   -1.6997    0.0000 C   0  0  0  0  0  0  0  0  0  0  0  0
   -2.0684    2.7120    0.0000 C   0  0  0  0  0  0  0  0  0  0  0  0
   -3.3432    2.2996    0.0000 C   0  0  0  0  0  0  0  0  0  0  0  0
    1.0435   -0.0500    0.0000 C   0  0  0  0  0  0  0  0  0  0  0  0
    1.0311   -2.5371    0.0000 C   0  0  0  0  0  0  0  0  0  0  0  0
    1.7684    1.2123    0.0000 C   0  0  0  0  0  0  0  0  0  0  0  0
    1.0561    2.4496    0.0000 C   0  0  0  0  0  0  0  0  0  0  0  0
    2.4934   -1.6997    0.0000 C   0  0  0  0  0  0  0  0  0  0  0  0
    1.7684    2.0372    0.0000 C   0  0  0  0  0  0  0  0  0  0  0  0
    1.7809   -2.9620    0.0000 C   0  0  0  0  0  0  0  0  0  0  0  0
    0.3312   -2.9620    0.0000 C   0  0  0  0  0  0  0  0  0  0  0  0
  1 12  2  0  0  0  0
  2  7  1  0  0  0  0
  2 25  1  0  0  0  0
  3 12  1  0  0  0  0
  3 13  1  0  0  0  0
  3 16  1  0  0  0  0
  4 13  2  0  0  0  0
  4 14  1  0  0  0  0
  5 17  1  0  0  0  0
  5 24  1  0  0  0  0
  6 24  2  0  0  0  0
  6 31  1  0  0  0  0
  7 26  2  0  0  0  0
  8 31  2  0  0  0  0
  8 33  1  0  0  0  0
  9 31  1  0  0  0  0
 10 34  3  0  0  0  0
 11 12  1  0  0  0  0
 11 14  1  0  0  0  0
 11 15  2  0  0  0  0
 13 17  1  0  0  0  0
 14 19  2  0  0  0  0
 15 18  1  0  0  0  0
 15 20  1  0  0  0  0
 16 22  2  0  0  0  0
 16 23  1  0  0  0  0
 17 27  1  6  0  0  0
 18 25  2  0  0  0  0
 18 26  1  0  0  0  0
 19 21  1  0  0  0  0
 20 21  2  0  0  0  0
 22 29  1  0  0  0  0
 23 30  2  0  0  0  0
 24 28  1  0  0  0  0
 28 33  2  0  0  0  0
 28 34  1  0  0  0  0
 29 32  2  0  0  0  0
 30 32  1  0  0  0  0
M  END
> <PUBCHEM_COMPOUND_ID_TYPE>
0

> <PUBCHEM_TOTAL_CHARGE>
0

> <PUBCHEM_SUBSTANCE_ID>
310941438

> <PUBCHEM_SUBSTANCE_VERSION>
1

> <PUBCHEM_EXT_DATASOURCE_NAME>
4488

> <PUBCHEM_EXT_DATASOURCE_REGID>
SCHEMBL16119398

> <PUBCHEM_SUBSTANCE_COMMENT>
InChI=1S/C24H18N8O2/c1-14(29-21-15(10-25)11-27-24(26)31-21)22-30-19-9-5-8-18(16-12-28-34-13-16)20(19)23(33)32(22)17-6-3-2-4-7-17/h2-9,11-14H,1H3,(H3,26,27,29,31)/t14-/m0/s1
InChIKey=WDRXLBPMIFTYRH-AWEZNQCLSA-N

> <PUBCHEM_SUBSTANCE_SYNONYM>
SCHEMBL16119398

> <PUBCHEM_XREF_EXT_ID>
SCHEMBL16119398

> <PUBCHEM_EXT_DATASOURCE_URL>
https://www.surechembl.org/

> <PUBCHEM_EXT_SUBSTANCE_URL>
https://www.surechembl.org/chemical/SCHEMBL16119398

> <PUBCHEM_CID_ASSOCIATIONS>
117608263  1

> <PUBCHEM_COORDINATE_TYPE>
1
3

> <PUBCHEM_BONDANNOTATIONS>
17  27  6

$$$$
