310947962
  -OEChem-07211613022D

 29 31  0     1  0  0  0  0  0999 V2000
    2.4477   -6.2814    0.0000 O   0  0  0  0  0  0  0  0  0  0  0  0
   -2.0898   -4.1380    0.0000 O   0  0  0  0  0  0  0  0  0  0  0  0
   -3.7398   -5.5670    0.0000 O   0  0  0  0  0  0  0  0  0  0  0  0
   -4.5648   -4.1380    0.0000 O   0  0  0  0  0  0  0  0  0  0  0  0
   -1.2648   -5.5670    0.0000 N   0  0  0  0  0  0  0  0  0  0  0  0
   -3.3273   -3.4236    0.0000 N   0  0  0  0  0  0  0  0  0  0  0  0
    4.5102   -9.8538    0.0000 N   0  0  0  0  0  0  0  0  0  0  0  0
   -0.8523   -6.2814    0.0000 C   0  0  0  0  0  0  0  0  0  0  0  0
   -2.0898   -5.5670    0.0000 C   0  0  0  0  0  0  0  0  0  0  0  0
   -0.0273   -6.2814    0.0000 C   0  0  0  0  0  0  0  0  0  0  0  0
   -2.5023   -4.8525    0.0000 C   0  0  3  0  0  0  0  0  0  0  0  0
    1.6227   -6.2814    0.0000 C   0  0  0  0  0  0  0  0  0  0  0  0
   -3.3273   -4.8525    0.0000 C   0  0  3  0  0  0  0  0  0  0  0  0
   -1.2648   -6.9959    0.0000 C   0  0  0  0  0  0  0  0  0  0  0  0
    2.8602   -6.9959    0.0000 C   0  0  0  0  0  0  0  0  0  0  0  0
   -2.5023   -6.2814    0.0000 C   0  0  0  0  0  0  0  0  0  0  0  0
    0.3852   -6.9959    0.0000 C   0  0  0  0  0  0  0  0  0  0  0  0
    0.3852   -5.5670    0.0000 C   0  0  0  0  0  0  0  0  0  0  0  0
    1.2102   -6.9959    0.0000 C   0  0  0  0  0  0  0  0  0  0  0  0
    1.2102   -5.5670    0.0000 C   0  0  0  0  0  0  0  0  0  0  0  0
   -2.0898   -6.9959    0.0000 C   0  0  0  0  0  0  0  0  0  0  0  0
    4.0977   -7.7104    0.0000 C   0  0  0  0  0  0  0  0  0  0  0  0
    3.6852   -8.4248    0.0000 C   0  0  0  0  0  0  0  0  0  0  0  0
    3.6852   -6.9959    0.0000 C   0  0  0  0  0  0  0  0  0  0  0  0
   -3.7398   -4.1380    0.0000 C   0  0  0  0  0  0  0  0  0  0  0  0
    2.4477   -7.7104    0.0000 C   0  0  0  0  0  0  0  0  0  0  0  0
    2.8602   -8.4248    0.0000 C   0  0  0  0  0  0  0  0  0  0  0  0
    4.0977   -9.1393    0.0000 C   0  0  0  0  0  0  0  0  0  0  0  0
    4.9227   -7.7104    0.0000 C   0  0  0  0  0  0  0  0  0  0  0  0
  1 12  1  0  0  0  0
  1 15  1  0  0  0  0
 11  2  1  1  0  0  0
 13  3  1  1  0  0  0
  4 25  2  0  0  0  0
  5  8  2  0  0  0  0
  5  9  1  0  0  0  0
  6 25  1  0  0  0  0
  7 28  3  0  0  0  0
  8 10  1  0  0  0  0
  8 14  1  0  0  0  0
  9 11  1  0  0  0  0
  9 16  2  0  0  0  0
 10 17  2  0  0  0  0
 10 18  1  0  0  0  0
 11 13  1  0  0  0  0
 12 19  2  0  0  0  0
 12 20  1  0  0  0  0
 13 25  1  0  0  0  0
 14 21  2  0  0  0  0
 15 24  1  0  0  0  0
 15 26  2  0  0  0  0
 16 21  1  0  0  0  0
 17 19  1  0  0  0  0
 18 20  2  0  0  0  0
 22 23  1  0  0  0  0
 22 24  2  0  0  0  0
 22 29  1  0  0  0  0
 23 27  2  0  0  0  0
 23 28  1  0  0  0  0
 26 27  1  0  0  0  0
M  END
> <PUBCHEM_COMPOUND_ID_TYPE>
0

> <PUBCHEM_TOTAL_CHARGE>
0

> <PUBCHEM_SUBSTANCE_ID>
310947962

> <PUBCHEM_SUBSTANCE_VERSION>
1

> <PUBCHEM_EXT_DATASOURCE_NAME>
4488

> <PUBCHEM_EXT_DATASOURCE_REGID>
SCHEMBL16126136

> <PUBCHEM_SUBSTANCE_COMMENT>
InChI=1S/C22H19N3O4/c1-13-11-17(10-7-15(13)12-23)29-16-8-5-14(6-9-16)18-3-2-4-19(25-18)20(26)21(27)22(24)28/h2-11,20-21,26-27H,1H3,(H2,24,28)/t20-,21+/m0/s1
InChIKey=RXFYUGYYTMAJAG-LEWJYISDSA-N

> <PUBCHEM_SUBSTANCE_SYNONYM>
SCHEMBL16126136

> <PUBCHEM_XREF_EXT_ID>
SCHEMBL16126136

> <PUBCHEM_EXT_DATASOURCE_URL>
https://www.surechembl.org/

> <PUBCHEM_EXT_SUBSTANCE_URL>
https://www.surechembl.org/chemical/SCHEMBL16126136

> <PUBCHEM_CID_ASSOCIATIONS>
117613612  1

> <PUBCHEM_COORDINATE_TYPE>
1
3

> <PUBCHEM_BONDANNOTATIONS>
11  2  5
13  3  5

$$$$
