310940605
  -OEChem-07211613022D

 33 37  0     1  0  0  0  0  0999 V2000
    2.7086   -0.8110    0.0000 O   0  0  0  0  0  0  0  0  0  0  0  0
   -1.4960   -0.9370    0.0000 O   0  0  0  0  0  0  0  0  0  0  0  0
    2.7872    0.6849    0.0000 O   0  0  0  0  0  0  0  0  0  0  0  0
   -2.7872   -3.0314    0.0000 O   0  0  0  0  0  0  0  0  0  0  0  0
    1.5747   -0.1338    0.0000 N   0  0  0  0  0  0  0  0  0  0  0  0
    1.4015   -2.6219    0.0000 N   0  0  0  0  0  0  0  0  0  0  0  0
   -2.2834   -3.7400    0.0000 N   0  0  0  0  0  0  0  0  0  0  0  0
   -0.3149    3.8030    0.0000 N   0  0  0  0  0  0  0  0  0  0  0  0
    1.3700   -0.8898    0.0000 C   0  0  3  0  0  0  0  0  0  0  0  0
    0.6614   -1.2991    0.0000 C   0  0  0  0  0  0  0  0  0  0  0  0
    2.0944   -1.2991    0.0000 C   0  0  3  0  0  0  0  0  0  0  0  0
    0.6456   -2.1180    0.0000 C   0  0  0  0  0  0  0  0  0  0  0  0
    2.3464   -0.0078    0.0000 C   0  0  0  0  0  0  0  0  0  0  0  0
   -0.7717   -2.1337    0.0000 C   0  0  0  0  0  0  0  0  0  0  0  0
   -0.7717   -1.2991    0.0000 C   0  0  0  0  0  0  0  0  0  0  0  0
   -0.0630   -0.9055    0.0000 C   0  0  0  0  0  0  0  0  0  0  0  0
    0.9921    0.4960    0.0000 C   0  0  3  0  0  0  0  0  0  0  0  0
   -0.0473   -2.5275    0.0000 C   0  0  0  0  0  0  0  0  0  0  0  0
   -1.4802   -2.5432    0.0000 C   0  0  0  0  0  0  0  0  0  0  0  0
    2.0944   -2.1337    0.0000 C   0  0  0  0  0  0  0  0  0  0  0  0
    1.1968    1.3306    0.0000 C   0  0  0  0  0  0  0  0  0  0  0  0
   -2.2991   -2.2755    0.0000 C   0  0  0  0  0  0  0  0  0  0  0  0
   -1.5117   -3.3777    0.0000 C   0  0  0  0  0  0  0  0  0  0  0  0
    0.1890    0.3070    0.0000 C   0  0  0  0  0  0  0  0  0  0  0  0
    0.6141    1.8818    0.0000 C   0  0  0  0  0  0  0  0  0  0  0  0
    1.9998    1.5511    0.0000 C   0  0  0  0  0  0  0  0  0  0  0  0
    0.8189    2.7007    0.0000 C   0  0  0  0  0  0  0  0  0  0  0  0
   -2.5511   -1.4724    0.0000 C   0  0  0  0  0  0  0  0  0  0  0  0
   -0.7559   -3.8030    0.0000 C   0  0  0  0  0  0  0  0  0  0  0  0
    2.1889    2.3385    0.0000 C   0  0  0  0  0  0  0  0  0  0  0  0
   -1.4960   -0.0393    0.0000 C   0  0  0  0  0  0  0  0  0  0  0  0
    1.6219    2.9054    0.0000 C   0  0  0  0  0  0  0  0  0  0  0  0
    0.2362    3.2833    0.0000 C   0  0  0  0  0  0  0  0  0  0  0  0
  1 11  1  0  0  0  0
  1 13  1  0  0  0  0
  2 15  1  0  0  0  0
  2 31  1  0  0  0  0
  3 13  2  0  0  0  0
  4  7  1  0  0  0  0
  4 22  1  0  0  0  0
  5  9  1  0  0  0  0
  5 13  1  0  0  0  0
  5 17  1  0  0  0  0
  6 12  1  0  0  0  0
  6 20  1  0  0  0  0
  7 23  2  0  0  0  0
  8 33  3  0  0  0  0
  9 10  1  0  0  0  0
  9 11  1  0  0  0  0
 10 12  2  0  0  0  0
 10 16  1  0  0  0  0
 11 20  1  0  0  0  0
 12 18  1  0  0  0  0
 14 15  1  0  0  0  0
 14 18  2  0  0  0  0
 14 19  1  0  0  0  0
 15 16  2  0  0  0  0
 17 21  1  0  0  0  0
 17 24  1  6  0  0  0
 19 22  2  0  0  0  0
 19 23  1  0  0  0  0
 21 25  2  0  0  0  0
 21 26  1  0  0  0  0
 22 28  1  0  0  0  0
 23 29  1  0  0  0  0
 25 27  1  0  0  0  0
 26 30  2  0  0  0  0
 27 32  2  0  0  0  0
 27 33  1  0  0  0  0
 30 32  1  0  0  0  0
M  END
> <PUBCHEM_COMPOUND_ID_TYPE>
0

> <PUBCHEM_TOTAL_CHARGE>
0

> <PUBCHEM_SUBSTANCE_ID>
310940605

> <PUBCHEM_SUBSTANCE_VERSION>
1

> <PUBCHEM_EXT_DATASOURCE_NAME>
4488

> <PUBCHEM_EXT_DATASOURCE_REGID>
SCHEMBL16118559

> <PUBCHEM_SUBSTANCE_COMMENT>
InChI=1S/C25H24N4O4/c1-13-23(15(3)33-28-13)19-9-20-18(10-21(19)31-4)24-22(12-27-20)32-25(30)29(24)14(2)17-7-5-6-16(8-17)11-26/h5-10,14,22,24,27H,12H2,1-4H3/t14-,22?,24?/m1/s1
InChIKey=ZQTXVTQAZIQUKL-LAIWUVPNSA-N

> <PUBCHEM_SUBSTANCE_SYNONYM>
SCHEMBL16118559

> <PUBCHEM_XREF_EXT_ID>
SCHEMBL16118559

> <PUBCHEM_EXT_DATASOURCE_URL>
https://www.surechembl.org/

> <PUBCHEM_EXT_SUBSTANCE_URL>
https://www.surechembl.org/chemical/SCHEMBL16118559

> <PUBCHEM_CID_ASSOCIATIONS>
117607592  1

> <PUBCHEM_COORDINATE_TYPE>
1
3

> <PUBCHEM_BONDANNOTATIONS>
17  24  6

$$$$
