310938926
  -OEChem-07211613022D

 14 15  0     1  0  0  0  0  0999 V2000
   -0.0978   16.2653    0.0000 N   0  0  0  0  0  0  0  0  0  0  0  0
   -0.0978   15.4403    0.0000 C   0  0  0  0  0  0  0  0  0  0  0  0
   -0.5103   14.7258    0.0000 C   0  0  0  0  0  0  0  0  0  0  0  0
    0.3147   14.7258    0.0000 C   0  0  0  0  0  0  0  0  0  0  0  0
    0.6166   16.6778    0.0000 C   0  0  3  0  0  0  0  0  0  0  0  0
    1.3311   16.2653    0.0000 C   0  0  0  0  0  0  0  0  0  0  0  0
   -1.2248   14.3133    0.0000 C   0  0  0  0  0  0  0  0  0  0  0  0
    1.0291   14.3133    0.0000 C   0  0  0  0  0  0  0  0  0  0  0  0
    1.3311   15.4403    0.0000 C   0  0  0  0  0  0  0  0  0  0  0  0
    2.0456   16.6778    0.0000 C   0  0  0  0  0  0  0  0  0  0  0  0
    0.6166   17.5028    0.0000 C   0  0  0  0  0  0  0  0  0  0  0  0
    2.0456   15.0278    0.0000 C   0  0  0  0  0  0  0  0  0  0  0  0
    2.7601   16.2653    0.0000 C   0  0  0  0  0  0  0  0  0  0  0  0
    2.7601   15.4403    0.0000 C   0  0  0  0  0  0  0  0  0  0  0  0
  1  2  2  0  0  0  0
  1  5  1  0  0  0  0
  2  3  1  0  0  0  0
  2  4  1  0  0  0  0
  3  4  2  0  0  0  0
  3  7  1  0  0  0  0
  4  8  1  0  0  0  0
  5  6  1  0  0  0  0
  5 11  1  1  0  0  0
  6  9  2  0  0  0  0
  6 10  1  0  0  0  0
  9 12  1  0  0  0  0
 10 13  2  0  0  0  0
 12 14  2  0  0  0  0
 13 14  1  0  0  0  0
M  END
> <PUBCHEM_COMPOUND_ID_TYPE>
0

> <PUBCHEM_TOTAL_CHARGE>
0

> <PUBCHEM_SUBSTANCE_ID>
310938926

> <PUBCHEM_SUBSTANCE_VERSION>
1

> <PUBCHEM_EXT_DATASOURCE_NAME>
4488

> <PUBCHEM_EXT_DATASOURCE_REGID>
SCHEMBL16116845

> <PUBCHEM_SUBSTANCE_COMMENT>
InChI=1S/C13H15N/c1-9-10(2)13(9)14-11(3)12-7-5-4-6-8-12/h4-8,11H,1-3H3/t11-/m0/s1
InChIKey=UJYYNZRMFVLLQL-NSHDSACASA-N

> <PUBCHEM_SUBSTANCE_SYNONYM>
SCHEMBL16116845

> <PUBCHEM_XREF_EXT_ID>
SCHEMBL16116845

> <PUBCHEM_EXT_DATASOURCE_URL>
https://www.surechembl.org/

> <PUBCHEM_EXT_SUBSTANCE_URL>
https://www.surechembl.org/chemical/SCHEMBL16116845

> <PUBCHEM_CID_ASSOCIATIONS>
117606323  1

> <PUBCHEM_COORDINATE_TYPE>
1
3

> <PUBCHEM_BONDANNOTATIONS>
5  11  5

$$$$
