310937840
  -OEChem-07211613022D

 15 16  0     0  0  0  0  0  0999 V2000
    4.6015   -2.9332    0.0000 O   0  0  0  0  0  0  0  0  0  0  0  0
    4.6015   -1.4849    0.0000 O   0  0  0  0  0  0  0  0  0  0  0  0
    2.8782   -2.8782    0.0000 N   0  0  0  0  0  0  0  0  0  0  0  0
    0.0917   -0.3667    0.0000 N   0  0  0  0  0  0  0  0  0  0  0  0
    2.1082   -1.7966    0.0000 C   0  0  0  0  0  0  0  0  0  0  0  0
    3.3732   -2.1999    0.0000 C   0  0  0  0  0  0  0  0  0  0  0  0
    2.8782   -1.5399    0.0000 C   0  0  0  0  0  0  0  0  0  0  0  0
    2.1082   -2.6215    0.0000 C   0  0  0  0  0  0  0  0  0  0  0  0
    1.4299   -1.3200    0.0000 C   0  0  0  0  0  0  0  0  0  0  0  0
    4.1982   -2.1999    0.0000 C   0  0  0  0  0  0  0  0  0  0  0  0
    1.5216   -0.5133    0.0000 C   0  0  0  0  0  0  0  0  0  0  0  0
    0.6783   -1.6682    0.0000 C   0  0  0  0  0  0  0  0  0  0  0  0
    3.1348   -3.6665    0.0000 C   0  0  0  0  0  0  0  0  0  0  0  0
    0.8616    0.0000    0.0000 C   0  0  0  0  0  0  0  0  0  0  0  0
    0.0000   -1.1549    0.0000 C   0  0  0  0  0  0  0  0  0  0  0  0
  1 10  2  0  0  0  0
  2 10  1  0  0  0  0
  3  6  1  0  0  0  0
  3  8  1  0  0  0  0
  3 13  1  0  0  0  0
  4 14  2  0  0  0  0
  4 15  1  0  0  0  0
  5  7  1  0  0  0  0
  5  8  2  0  0  0  0
  5  9  1  0  0  0  0
  6  7  2  0  0  0  0
  6 10  1  0  0  0  0
  9 11  2  0  0  0  0
  9 12  1  0  0  0  0
 11 14  1  0  0  0  0
 12 15  2  0  0  0  0
M  END
> <PUBCHEM_COMPOUND_ID_TYPE>
0

> <PUBCHEM_TOTAL_CHARGE>
0

> <PUBCHEM_SUBSTANCE_ID>
310937840

> <PUBCHEM_SUBSTANCE_VERSION>
1

> <PUBCHEM_EXT_DATASOURCE_NAME>
4488

> <PUBCHEM_EXT_DATASOURCE_REGID>
SCHEMBL16115664

> <PUBCHEM_SUBSTANCE_COMMENT>
InChI=1S/C11H10N2O2/c1-13-7-9(6-10(13)11(14)15)8-2-4-12-5-3-8/h2-7H,1H3,(H,14,15)
InChIKey=FXUZHXUKLOZZAC-UHFFFAOYSA-N

> <PUBCHEM_SUBSTANCE_SYNONYM>
SCHEMBL16115664

> <PUBCHEM_XREF_EXT_ID>
SCHEMBL16115664

> <PUBCHEM_EXT_DATASOURCE_URL>
https://www.surechembl.org/

> <PUBCHEM_EXT_SUBSTANCE_URL>
https://www.surechembl.org/chemical/SCHEMBL16115664

> <PUBCHEM_CID_ASSOCIATIONS>
117605476  1

> <PUBCHEM_COORDINATE_TYPE>
1
3

$$$$
