310945170
  -OEChem-07211613022D

 15 15  0     0  0  0  0  0  0999 V2000
    0.3517    0.9686    0.0000 O   0  0  0  0  0  0  0  0  0  0  0  0
   -1.8621   -0.9916    0.0000 O   0  0  0  0  0  0  0  0  0  0  0  0
   -0.5823   -0.3920    0.0000 N   0  0  0  0  0  0  0  0  0  0  0  0
    0.2249   -0.4151    0.0000 C   0  0  0  0  0  0  0  0  0  0  0  0
    0.6860    0.2767    0.0000 C   0  0  0  0  0  0  0  0  0  0  0  0
    0.5938   -1.1530    0.0000 C   0  0  0  0  0  0  0  0  0  0  0  0
    1.3894   -1.2222    0.0000 C   0  0  0  0  0  0  0  0  0  0  0  0
    1.5047    0.1960    0.0000 C   0  0  0  0  0  0  0  0  0  0  0  0
    1.8621   -0.5419    0.0000 C   0  0  0  0  0  0  0  0  0  0  0  0
   -1.0435   -1.0262    0.0000 C   0  0  0  0  0  0  0  0  0  0  0  0
    1.6546   -1.7065    0.0000 C   0  0  0  0  0  0  0  0  0  0  0  0
    0.8014    1.6719    0.0000 C   0  0  0  0  0  0  0  0  0  0  0  0
   -0.7091   -1.7872    0.0000 C   0  0  0  0  0  0  0  0  0  0  0  0
   -1.2280   -2.4329    0.0000 C   0  0  0  0  0  0  0  0  0  0  0  0
    0.4324    2.4329    0.0000 C   0  0  0  0  0  0  0  0  0  0  0  0
  1  5  1  0  0  0  0
  1 12  1  0  0  0  0
  2 10  2  0  0  0  0
  3  4  1  0  0  0  0
  3 10  1  0  0  0  0
  4  5  1  0  0  0  0
  4  6  2  0  0  0  0
  5  8  2  0  0  0  0
  6  7  1  0  0  0  0
  7  9  2  0  0  0  0
  7 11  1  0  0  0  0
  8  9  1  0  0  0  0
 10 13  1  0  0  0  0
 12 15  1  0  0  0  0
 13 14  2  0  0  0  0
M  END
> <PUBCHEM_COMPOUND_ID_TYPE>
0

> <PUBCHEM_TOTAL_CHARGE>
0

> <PUBCHEM_SUBSTANCE_ID>
310945170

> <PUBCHEM_SUBSTANCE_VERSION>
1

> <PUBCHEM_EXT_DATASOURCE_NAME>
4488

> <PUBCHEM_EXT_DATASOURCE_REGID>
SCHEMBL16123260

> <PUBCHEM_SUBSTANCE_COMMENT>
InChI=1S/C12H15NO2/c1-4-12(14)13-10-8-9(3)6-7-11(10)15-5-2/h4,6-8H,1,5H2,2-3H3,(H,13,14)
InChIKey=KAJKSILUVBDJHH-UHFFFAOYSA-N

> <PUBCHEM_SUBSTANCE_SYNONYM>
SCHEMBL16123260

> <PUBCHEM_XREF_EXT_ID>
SCHEMBL16123260

> <PUBCHEM_EXT_DATASOURCE_URL>
https://www.surechembl.org/

> <PUBCHEM_EXT_SUBSTANCE_URL>
https://www.surechembl.org/chemical/SCHEMBL16123260

> <PUBCHEM_CID_ASSOCIATIONS>
117611256  1

> <PUBCHEM_COORDINATE_TYPE>
1
3

$$$$
