310945223
  -OEChem-07211613022D

 34 37  0     1  0  0  0  0  0999 V2000
    2.4131   -2.3307    0.0000 S   0  0  0  0  0  0  0  0  0  0  0  0
   -4.4482   -0.3094    0.0000 F   0  0  0  0  0  0  0  0  0  0  0  0
   -4.7920    0.7631    0.0000 F   0  0  0  0  0  0  0  0  0  0  0  0
   -3.7057    1.0931    0.0000 F   0  0  0  0  0  0  0  0  0  0  0  0
    4.0769   -2.4131    0.0000 O   0  0  0  0  0  0  0  0  0  0  0  0
   -0.5019   -0.0069    0.0000 O   0  0  0  0  0  0  0  0  0  0  0  0
   -1.9319    2.4682    0.0000 O   0  0  0  0  0  0  0  0  0  0  0  0
    2.6469   -0.1444    0.0000 N   0  0  0  0  0  0  0  0  0  0  0  0
    4.2832   -1.0244    0.0000 N   0  0  0  0  0  0  0  0  0  0  0  0
   -1.2169   -1.2307    0.0000 N   0  0  0  0  0  0  0  0  0  0  0  0
   -2.6469    1.2444    0.0000 N   0  0  0  0  0  0  0  0  0  0  0  0
    1.6432   -1.2307    0.0000 C   0  0  0  0  0  0  0  0  0  0  0  0
    2.4269   -0.9831    0.0000 C   0  0  0  0  0  0  0  0  0  0  0  0
    2.9082   -1.6432    0.0000 C   0  0  0  0  0  0  0  0  0  0  0  0
    1.6294   -2.0557    0.0000 C   0  0  0  0  0  0  0  0  0  0  0  0
    0.9282   -0.8319    0.0000 C   0  0  0  0  0  0  0  0  0  0  0  0
    0.2131   -1.2444    0.0000 C   0  0  0  0  0  0  0  0  0  0  0  0
    3.7194   -1.6432    0.0000 C   0  0  0  0  0  0  0  0  0  0  0  0
    0.9282   -2.4682    0.0000 C   0  0  0  0  0  0  0  0  0  0  0  0
    0.2131   -2.0557    0.0000 C   0  0  0  0  0  0  0  0  0  0  0  0
   -0.5157   -0.8456    0.0000 C   0  0  0  0  0  0  0  0  0  0  0  0
   -3.3481    0.0069    0.0000 C   0  0  0  0  0  0  0  0  0  0  0  0
   -2.6469    0.4194    0.0000 C   0  0  0  0  0  0  0  0  0  0  0  0
   -1.9319   -0.8181    0.0000 C   0  0  0  0  0  0  0  0  0  0  0  0
    3.3756    0.1719    0.0000 C   0  0  0  0  0  0  0  0  0  0  0  0
   -4.0769    0.4056    0.0000 C   0  0  0  0  0  0  0  0  0  0  0  0
    4.1319   -0.2131    0.0000 C   0  0  3  0  0  0  0  0  0  0  0  0
   -1.9319   -0.0069    0.0000 C   0  0  0  0  0  0  0  0  0  0  0  0
   -3.3481   -0.8181    0.0000 C   0  0  0  0  0  0  0  0  0  0  0  0
   -2.6332   -1.2307    0.0000 C   0  0  0  0  0  0  0  0  0  0  0  0
   -1.9319    1.6294    0.0000 C   0  0  0  0  0  0  0  0  0  0  0  0
    4.7920    0.2819    0.0000 C   0  0  0  0  0  0  0  0  0  0  0  0
   -1.2032    1.2444    0.0000 C   0  0  0  0  0  0  0  0  0  0  0  0
   -0.5294    1.7256    0.0000 C   0  0  0  0  0  0  0  0  0  0  0  0
  1 14  1  0  0  0  0
  1 15  1  0  0  0  0
  2 26  1  0  0  0  0
  3 26  1  0  0  0  0
  4 26  1  0  0  0  0
  5 18  2  0  0  0  0
  6 21  2  0  0  0  0
  7 31  2  0  0  0  0
  8 13  1  0  0  0  0
  8 25  1  0  0  0  0
  9 18  1  0  0  0  0
  9 27  1  0  0  0  0
 10 21  1  0  0  0  0
 10 24  1  0  0  0  0
 11 23  1  0  0  0  0
 11 31  1  0  0  0  0
 12 13  1  0  0  0  0
 12 15  1  0  0  0  0
 12 16  2  0  0  0  0
 13 14  2  0  0  0  0
 14 18  1  0  0  0  0
 15 19  2  0  0  0  0
 16 17  1  0  0  0  0
 17 20  2  0  0  0  0
 17 21  1  0  0  0  0
 19 20  1  0  0  0  0
 22 23  2  0  0  0  0
 22 26  1  0  0  0  0
 22 29  1  0  0  0  0
 23 28  1  0  0  0  0
 24 28  2  0  0  0  0
 24 30  1  0  0  0  0
 25 27  1  0  0  0  0
 27 32  1  1  0  0  0
 29 30  2  0  0  0  0
 31 33  1  0  0  0  0
 33 34  2  0  0  0  0
M  END
> <PUBCHEM_COMPOUND_ID_TYPE>
0

> <PUBCHEM_TOTAL_CHARGE>
0

> <PUBCHEM_SUBSTANCE_ID>
310945223

> <PUBCHEM_SUBSTANCE_VERSION>
1

> <PUBCHEM_EXT_DATASOURCE_NAME>
4488

> <PUBCHEM_EXT_DATASOURCE_REGID>
SCHEMBL16123313

> <PUBCHEM_SUBSTANCE_COMMENT>
InChI=1S/C23H19F3N4O3S/c1-3-18(31)30-16-9-13(5-6-15(16)23(24,25)26)29-21(32)12-4-7-17-14(8-12)19-20(34-17)22(33)28-11(2)10-27-19/h3-9,11,27H,1,10H2,2H3,(H,28,33)(H,29,32)(H,30,31)/t11-/m1/s1
InChIKey=WVETWTDRLABSQB-LLVKDONJSA-N

> <PUBCHEM_SUBSTANCE_SYNONYM>
SCHEMBL16123313

> <PUBCHEM_XREF_EXT_ID>
SCHEMBL16123313

> <PUBCHEM_EXT_DATASOURCE_URL>
https://www.surechembl.org/

> <PUBCHEM_EXT_SUBSTANCE_URL>
https://www.surechembl.org/chemical/SCHEMBL16123313

> <PUBCHEM_CID_ASSOCIATIONS>
117611297  1

> <PUBCHEM_COORDINATE_TYPE>
1
3

> <PUBCHEM_BONDANNOTATIONS>
27  32  5

$$$$
