310947924
  -OEChem-07211613022D

 22 23  0     0  0  0  0  0  0999 V2000
   -0.8999   -4.1923    0.0000 O   0  0  0  0  0  0  0  0  0  0  0  0
    1.8770   -0.5903    0.0000 O   0  0  0  0  0  0  0  0  0  0  0  0
    0.5290   -4.1923    0.0000 O   0  0  0  0  0  0  0  0  0  0  0  0
   -0.1855   -2.9548    0.0000 N   0  0  0  0  0  0  0  0  0  0  0  0
   -0.1855   -1.3048    0.0000 C   0  0  0  0  0  0  0  0  0  0  0  0
   -0.8999   -1.7173    0.0000 C   0  0  0  0  0  0  0  0  0  0  0  0
    0.5290   -1.7173    0.0000 C   0  0  0  0  0  0  0  0  0  0  0  0
    0.2270   -0.5903    0.0000 C   0  0  0  0  0  0  0  0  0  0  0  0
   -0.8999   -2.5423    0.0000 C   0  0  0  0  0  0  0  0  0  0  0  0
    0.5290   -2.5423    0.0000 C   0  0  0  0  0  0  0  0  0  0  0  0
    1.0520   -0.5903    0.0000 C   0  0  0  0  0  0  0  0  0  0  0  0
   -0.1855   -3.7798    0.0000 C   0  0  0  0  0  0  0  0  0  0  0  0
   -0.5980   -0.5903    0.0000 C   0  0  0  0  0  0  0  0  0  0  0  0
   -1.6144   -5.4298    0.0000 C   0  0  0  0  0  0  0  0  0  0  0  0
   -0.8999   -5.0173    0.0000 C   0  0  0  0  0  0  0  0  0  0  0  0
    1.4645    0.1242    0.0000 C   0  0  0  0  0  0  0  0  0  0  0  0
    1.4645   -1.3048    0.0000 C   0  0  0  0  0  0  0  0  0  0  0  0
   -2.3289   -5.0173    0.0000 C   0  0  0  0  0  0  0  0  0  0  0  0
   -1.6144   -6.2548    0.0000 C   0  0  0  0  0  0  0  0  0  0  0  0
   -3.0433   -5.4298    0.0000 C   0  0  0  0  0  0  0  0  0  0  0  0
   -2.3289   -6.6673    0.0000 C   0  0  0  0  0  0  0  0  0  0  0  0
   -3.0433   -6.2548    0.0000 C   0  0  0  0  0  0  0  0  0  0  0  0
  1 12  1  0  0  0  0
  1 15  1  0  0  0  0
  2 11  1  0  0  0  0
  3 12  2  0  0  0  0
  4  9  1  0  0  0  0
  4 10  1  0  0  0  0
  4 12  1  0  0  0  0
  5  6  1  0  0  0  0
  5  7  1  0  0  0  0
  5  8  1  0  0  0  0
  5 13  1  0  0  0  0
  6  9  1  0  0  0  0
  7 10  1  0  0  0  0
  8 11  1  0  0  0  0
 11 16  1  0  0  0  0
 11 17  1  0  0  0  0
 14 15  1  0  0  0  0
 14 18  2  0  0  0  0
 14 19  1  0  0  0  0
 18 20  1  0  0  0  0
 19 21  2  0  0  0  0
 20 22  2  0  0  0  0
 21 22  1  0  0  0  0
M  END
> <PUBCHEM_COMPOUND_ID_TYPE>
0

> <PUBCHEM_TOTAL_CHARGE>
0

> <PUBCHEM_SUBSTANCE_ID>
310947924

> <PUBCHEM_SUBSTANCE_VERSION>
1

> <PUBCHEM_EXT_DATASOURCE_NAME>
4488

> <PUBCHEM_EXT_DATASOURCE_REGID>
SCHEMBL16126098

> <PUBCHEM_SUBSTANCE_COMMENT>
InChI=1S/C18H27NO3/c1-17(2,21)14-18(3)9-11-19(12-10-18)16(20)22-13-15-7-5-4-6-8-15/h4-8,21H,9-14H2,1-3H3
InChIKey=OYUXTAFVKONVLJ-UHFFFAOYSA-N

> <PUBCHEM_SUBSTANCE_SYNONYM>
SCHEMBL16126098

> <PUBCHEM_XREF_EXT_ID>
SCHEMBL16126098

> <PUBCHEM_EXT_DATASOURCE_URL>
https://www.surechembl.org/

> <PUBCHEM_EXT_SUBSTANCE_URL>
https://www.surechembl.org/chemical/SCHEMBL16126098

> <PUBCHEM_CID_ASSOCIATIONS>
117613582  1

> <PUBCHEM_COORDINATE_TYPE>
1
3

$$$$
