310947442
  -OEChem-07211613022D

 29 31  0     0  0  0  0  0  0999 V2000
   -2.9954   -0.7242    0.0000 O   0  0  0  0  0  0  0  0  0  0  0  0
    1.2911    0.9257    0.0000 O   0  0  0  0  0  0  0  0  0  0  0  0
   -3.7097   -1.9616    0.0000 N   0  0  0  0  0  0  0  0  0  0  0  0
    0.5767   -0.3118    0.0000 N   0  0  0  0  0  0  0  0  0  0  0  0
   -2.9954   -1.5492    0.0000 C   0  0  0  0  0  0  0  0  0  0  0  0
   -3.7097   -2.7866    0.0000 C   0  0  0  0  0  0  0  0  0  0  0  0
   -1.5665   -1.5492    0.0000 C   0  0  0  0  0  0  0  0  0  0  0  0
   -2.2809   -1.9616    0.0000 C   0  0  0  0  0  0  0  0  0  0  0  0
   -0.1377   -0.7242    0.0000 C   0  0  0  0  0  0  0  0  0  0  0  0
   -1.5665   -0.7242    0.0000 C   0  0  0  0  0  0  0  0  0  0  0  0
   -0.8522   -1.9616    0.0000 C   0  0  0  0  0  0  0  0  0  0  0  0
   -0.8522   -0.3118    0.0000 C   0  0  0  0  0  0  0  0  0  0  0  0
   -0.1377   -1.5492    0.0000 C   0  0  0  0  0  0  0  0  0  0  0  0
   -4.4242   -1.5492    0.0000 C   0  0  0  0  0  0  0  0  0  0  0  0
   -4.4242   -3.1990    0.0000 C   0  0  0  0  0  0  0  0  0  0  0  0
   -2.9954   -3.1990    0.0000 C   0  0  0  0  0  0  0  0  0  0  0  0
    0.5767    0.5131    0.0000 C   0  0  0  0  0  0  0  0  0  0  0  0
   -0.1377    1.8684    0.0000 C   0  0  0  0  0  0  0  0  0  0  0  0
   -0.1377    0.9257    0.0000 C   0  0  0  0  0  0  0  0  0  0  0  0
   -4.4242   -4.0240    0.0000 C   0  0  0  0  0  0  0  0  0  0  0  0
   -2.9954   -4.0240    0.0000 C   0  0  0  0  0  0  0  0  0  0  0  0
   -3.7097   -4.4364    0.0000 C   0  0  0  0  0  0  0  0  0  0  0  0
   -4.4242   -0.7242    0.0000 C   0  0  0  0  0  0  0  0  0  0  0  0
    0.6787    2.3399    0.0000 C   0  0  0  0  0  0  0  0  0  0  0  0
   -0.9542    2.3399    0.0000 C   0  0  0  0  0  0  0  0  0  0  0  0
    0.6787    3.2826    0.0000 C   0  0  0  0  0  0  0  0  0  0  0  0
   -0.9542    3.2826    0.0000 C   0  0  0  0  0  0  0  0  0  0  0  0
   -0.1377    3.7539    0.0000 C   0  0  0  0  0  0  0  0  0  0  0  0
   -5.1385   -0.3118    0.0000 C   0  0  0  0  0  0  0  0  0  0  0  0
  1  5  2  0  0  0  0
  2 17  2  0  0  0  0
  3  5  1  0  0  0  0
  3  6  1  0  0  0  0
  3 14  1  0  0  0  0
  4  9  1  0  0  0  0
  4 17  1  0  0  0  0
  5  8  1  0  0  0  0
  6 15  2  0  0  0  0
  6 16  1  0  0  0  0
  7  8  1  0  0  0  0
  7 10  2  0  0  0  0
  7 11  1  0  0  0  0
  9 12  2  0  0  0  0
  9 13  1  0  0  0  0
 10 12  1  0  0  0  0
 11 13  2  0  0  0  0
 14 23  1  0  0  0  0
 15 20  1  0  0  0  0
 16 21  2  0  0  0  0
 17 19  1  0  0  0  0
 18 19  1  0  0  0  0
 18 24  2  0  0  0  0
 18 25  1  0  0  0  0
 20 22  2  0  0  0  0
 21 22  1  0  0  0  0
 23 29  1  0  0  0  0
 24 26  1  0  0  0  0
 25 27  2  0  0  0  0
 26 28  2  0  0  0  0
 27 28  1  0  0  0  0
M  END
> <PUBCHEM_COMPOUND_ID_TYPE>
0

> <PUBCHEM_TOTAL_CHARGE>
0

> <PUBCHEM_SUBSTANCE_ID>
310947442

> <PUBCHEM_SUBSTANCE_VERSION>
1

> <PUBCHEM_EXT_DATASOURCE_NAME>
4488

> <PUBCHEM_EXT_DATASOURCE_REGID>
SCHEMBL16125603

> <PUBCHEM_SUBSTANCE_COMMENT>
InChI=1S/C25H26N2O2/c1-2-17-27(23-11-7-4-8-12-23)25(29)19-21-13-15-22(16-14-21)26-24(28)18-20-9-5-3-6-10-20/h3-16H,2,17-19H2,1H3,(H,26,28)
InChIKey=ICGQLVGDBMFHBE-UHFFFAOYSA-N

> <PUBCHEM_SUBSTANCE_SYNONYM>
SCHEMBL16125603

> <PUBCHEM_XREF_EXT_ID>
SCHEMBL16125603

> <PUBCHEM_EXT_DATASOURCE_URL>
https://www.surechembl.org/

> <PUBCHEM_EXT_SUBSTANCE_URL>
https://www.surechembl.org/chemical/SCHEMBL16125603

> <PUBCHEM_CID_ASSOCIATIONS>
117613174  1

> <PUBCHEM_COORDINATE_TYPE>
1
3

$$$$
