310943525
  -OEChem-07211613022D

 40 45  0     0  0  0  0  0  0999 V2000
    4.5224   -1.4767    0.0000 F   0  0  0  0  0  0  0  0  0  0  0  0
   -3.2806    0.1342    0.0000 O   0  0  0  0  0  0  0  0  0  0  0  0
   -3.2974   -3.0205    0.0000 O   0  0  0  0  0  0  0  0  0  0  0  0
   -4.6734    2.6178    0.0000 O   0  0  0  0  0  0  0  0  0  0  0  0
    2.5926    2.3493    0.0000 O   0  0  0  0  0  0  0  0  0  0  0  0
   -3.2471    1.7788    0.0000 N   0  0  0  0  0  0  0  0  0  0  0  0
   -1.8375    0.1006    0.0000 N   0  0  0  0  0  0  0  0  0  0  0  0
    0.4615    2.9030    0.0000 N   0  0  0  0  0  0  0  0  0  0  0  0
    1.8039    1.1579    0.0000 N   0  0  0  0  0  0  0  0  0  0  0  0
    3.9686    1.4431    0.0000 N   0  0  0  0  0  0  0  0  0  0  0  0
   -3.2471   -1.8291    0.0000 C   0  0  0  0  0  0  0  0  0  0  0  0
   -3.2806   -0.6880    0.0000 C   0  0  0  0  0  0  0  0  0  0  0  0
   -3.8344   -1.2921    0.0000 C   0  0  0  0  0  0  0  0  0  0  0  0
   -2.6933   -1.2418    0.0000 C   0  0  0  0  0  0  0  0  0  0  0  0
   -2.6933   -2.4332    0.0000 C   0  0  0  0  0  0  0  0  0  0  0  0
   -3.8512   -2.4164    0.0000 C   0  0  0  0  0  0  0  0  0  0  0  0
   -2.5590    0.5370    0.0000 C   0  0  0  0  0  0  0  0  0  0  0  0
   -2.5255    1.3592    0.0000 C   0  0  0  0  0  0  0  0  0  0  0  0
   -1.0991    1.3257    0.0000 C   0  0  0  0  0  0  0  0  0  0  0  0
   -0.3440    1.7116    0.0000 C   0  0  0  0  0  0  0  0  0  0  0  0
   -1.8207    1.7452    0.0000 C   0  0  0  0  0  0  0  0  0  0  0  0
   -1.1159    0.4867    0.0000 C   0  0  0  0  0  0  0  0  0  0  0  0
   -0.2769    2.5339    0.0000 C   0  0  0  0  0  0  0  0  0  0  0  0
    0.3776    1.2585    0.0000 C   0  0  0  0  0  0  0  0  0  0  0  0
    1.0991    1.6277    0.0000 C   0  0  0  0  0  0  0  0  0  0  0  0
   -3.2471    2.6178    0.0000 C   0  0  0  0  0  0  0  0  0  0  0  0
   -3.9518    1.3928    0.0000 C   0  0  0  0  0  0  0  0  0  0  0  0
    1.1663    2.4332    0.0000 C   0  0  0  0  0  0  0  0  0  0  0  0
    2.5255    1.5270    0.0000 C   0  0  0  0  0  0  0  0  0  0  0  0
    3.2303    1.0907    0.0000 C   0  0  0  0  0  0  0  0  0  0  0  0
    3.8847   -0.1846    0.0000 C   0  0  0  0  0  0  0  0  0  0  0  0
    3.1967    0.2517    0.0000 C   0  0  0  0  0  0  0  0  0  0  0  0
    3.8176   -1.0236    0.0000 C   0  0  0  0  0  0  0  0  0  0  0  0
   -3.9518    3.0205    0.0000 C   0  0  0  0  0  0  0  0  0  0  0  0
   -4.6734    1.8123    0.0000 C   0  0  0  0  0  0  0  0  0  0  0  0
   -0.9817    2.9702    0.0000 C   0  0  0  0  0  0  0  0  0  0  0  0
    4.6063    0.1678    0.0000 C   0  0  0  0  0  0  0  0  0  0  0  0
    4.6734    0.9901    0.0000 C   0  0  0  0  0  0  0  0  0  0  0  0
    3.0793   -1.4096    0.0000 C   0  0  0  0  0  0  0  0  0  0  0  0
    3.6330   -1.8291    0.0000 C   0  0  0  0  0  0  0  0  0  0  0  0
  1 33  1  0  0  0  0
  2 12  1  0  0  0  0
  2 17  1  0  0  0  0
  3 15  1  0  0  0  0
  3 16  1  0  0  0  0
  4 34  1  0  0  0  0
  4 35  1  0  0  0  0
  5 29  2  0  0  0  0
  6 18  1  0  0  0  0
  6 26  1  0  0  0  0
  6 27  1  0  0  0  0
  7 17  1  0  0  0  0
  7 22  2  0  0  0  0
  8 23  2  0  0  0  0
  8 28  1  0  0  0  0
  9 25  1  0  0  0  0
  9 29  1  0  0  0  0
 10 30  1  0  0  0  0
 10 38  2  0  0  0  0
 11 13  1  0  0  0  0
 11 14  1  0  0  0  0
 11 15  1  0  0  0  0
 11 16  1  0  0  0  0
 12 13  1  0  0  0  0
 12 14  1  0  0  0  0
 17 18  2  0  0  0  0
 18 21  1  0  0  0  0
 19 20  1  0  0  0  0
 19 21  2  0  0  0  0
 19 22  1  0  0  0  0
 20 23  1  0  0  0  0
 20 24  2  0  0  0  0
 23 36  1  0  0  0  0
 24 25  1  0  0  0  0
 25 28  2  0  0  0  0
 26 34  1  0  0  0  0
 27 35  1  0  0  0  0
 29 30  1  0  0  0  0
 30 32  2  0  0  0  0
 31 32  1  0  0  0  0
 31 33  1  0  0  0  0
 31 37  2  0  0  0  0
 33 39  1  0  0  0  0
 33 40  1  0  0  0  0
 37 38  1  0  0  0  0
M  END
> <PUBCHEM_COMPOUND_ID_TYPE>
0

> <PUBCHEM_TOTAL_CHARGE>
0

> <PUBCHEM_SUBSTANCE_ID>
310943525

> <PUBCHEM_SUBSTANCE_VERSION>
1

> <PUBCHEM_EXT_DATASOURCE_NAME>
4488

> <PUBCHEM_EXT_DATASOURCE_REGID>
SCHEMBL16121591

> <PUBCHEM_SUBSTANCE_COMMENT>
InChI=1S/C30H34FN5O4/c1-19-24(12-22(16-33-19)35-27(37)25-11-21(4-5-32-25)29(2,3)31)20-10-26(36-6-8-38-9-7-36)28(34-15-20)40-23-13-30(14-23)17-39-18-30/h4-5,10-12,15-16,23H,6-9,13-14,17-18H2,1-3H3,(H,35,37)
InChIKey=CCUAKNKGRBCZCZ-UHFFFAOYSA-N

> <PUBCHEM_SUBSTANCE_SYNONYM>
SCHEMBL16121591

> <PUBCHEM_XREF_EXT_ID>
SCHEMBL16121591

> <PUBCHEM_EXT_DATASOURCE_URL>
https://www.surechembl.org/

> <PUBCHEM_EXT_SUBSTANCE_URL>
https://www.surechembl.org/chemical/SCHEMBL16121591

> <PUBCHEM_CID_ASSOCIATIONS>
117609939  1

> <PUBCHEM_COORDINATE_TYPE>
1
3

$$$$
