310944548
  -OEChem-07211613022D

 30 32  0     0  0  0  0  0  0999 V2000
   -3.4060   -1.6843    0.0000 Cl  0  0  0  0  0  0  0  0  0  0  0  0
   -0.3730   -1.6843    0.0000 O   0  0  0  0  0  0  0  0  0  0  0  0
    1.0566    0.8018    0.0000 O   0  0  0  0  0  0  0  0  0  0  0  0
    4.6615   -1.2741    0.0000 O   0  0  0  0  0  0  0  0  0  0  0  0
   -0.3605   -0.0186    0.0000 N   0  0  0  0  0  0  0  0  0  0  0  0
    1.8024   -0.4413    0.0000 N   0  0  0  0  0  0  0  0  0  0  0  0
    3.2444   -1.2617    0.0000 N   0  0  0  0  0  0  0  0  0  0  0  0
   -3.9406    2.8777    0.0000 N   0  0  0  0  0  0  0  0  0  0  0  0
   -2.5110   -0.4413    0.0000 C   0  0  0  0  0  0  0  0  0  0  0  0
   -1.0815   -0.4288    0.0000 C   0  0  0  0  0  0  0  0  0  0  0  0
   -2.5110   -1.2617    0.0000 C   0  0  0  0  0  0  0  0  0  0  0  0
   -3.2444   -0.0186    0.0000 C   0  0  0  0  0  0  0  0  0  0  0  0
   -1.7900   -0.0311    0.0000 C   0  0  0  0  0  0  0  0  0  0  0  0
   -1.0939   -1.2617    0.0000 C   0  0  0  0  0  0  0  0  0  0  0  0
   -1.8024   -1.6719    0.0000 C   0  0  0  0  0  0  0  0  0  0  0  0
   -3.2320    0.8018    0.0000 C   0  0  0  0  0  0  0  0  0  0  0  0
    1.0566   -0.0311    0.0000 C   0  0  0  0  0  0  0  0  0  0  0  0
   -3.9406   -0.4288    0.0000 C   0  0  0  0  0  0  0  0  0  0  0  0
    0.3605   -0.4413    0.0000 C   0  0  0  0  0  0  0  0  0  0  0  0
   -3.9529    1.2120    0.0000 C   0  0  0  0  0  0  0  0  0  0  0  0
    2.5235   -0.0186    0.0000 C   0  0  0  0  0  0  0  0  0  0  0  0
    1.8149   -1.2741    0.0000 C   0  0  0  0  0  0  0  0  0  0  0  0
    3.2320   -0.4413    0.0000 C   0  0  0  0  0  0  0  0  0  0  0  0
    2.5235   -1.6843    0.0000 C   0  0  0  0  0  0  0  0  0  0  0  0
   -4.6615   -0.0186    0.0000 C   0  0  0  0  0  0  0  0  0  0  0  0
    3.9406   -1.6843    0.0000 C   0  0  0  0  0  0  0  0  0  0  0  0
   -4.6615    0.8018    0.0000 C   0  0  0  0  0  0  0  0  0  0  0  0
   -3.9406    2.0573    0.0000 C   0  0  0  0  0  0  0  0  0  0  0  0
    3.9529   -2.5172    0.0000 C   0  0  0  0  0  0  0  0  0  0  0  0
    3.2071   -2.8777    0.0000 C   0  0  0  0  0  0  0  0  0  0  0  0
  1 11  1  0  0  0  0
  2 14  1  0  0  0  0
  3 17  2  0  0  0  0
  4 26  2  0  0  0  0
  5 10  1  0  0  0  0
  5 19  1  0  0  0  0
  6 17  1  0  0  0  0
  6 21  1  0  0  0  0
  6 22  1  0  0  0  0
  7 23  1  0  0  0  0
  7 24  1  0  0  0  0
  7 26  1  0  0  0  0
  8 28  3  0  0  0  0
  9 11  2  0  0  0  0
  9 12  1  0  0  0  0
  9 13  1  0  0  0  0
 10 13  2  0  0  0  0
 10 14  1  0  0  0  0
 11 15  1  0  0  0  0
 12 16  1  0  0  0  0
 12 18  2  0  0  0  0
 14 15  2  0  0  0  0
 16 20  2  0  0  0  0
 17 19  1  0  0  0  0
 18 25  1  0  0  0  0
 20 27  1  0  0  0  0
 20 28  1  0  0  0  0
 21 23  1  0  0  0  0
 22 24  1  0  0  0  0
 25 27  2  0  0  0  0
 26 29  1  0  0  0  0
 29 30  2  0  0  0  0
M  END
> <PUBCHEM_COMPOUND_ID_TYPE>
0

> <PUBCHEM_TOTAL_CHARGE>
0

> <PUBCHEM_SUBSTANCE_ID>
310944548

> <PUBCHEM_SUBSTANCE_VERSION>
1

> <PUBCHEM_EXT_DATASOURCE_NAME>
4488

> <PUBCHEM_EXT_DATASOURCE_REGID>
SCHEMBL16122625

> <PUBCHEM_SUBSTANCE_COMMENT>
InChI=1S/C22H21ClN4O3/c1-2-21(29)26-6-8-27(9-7-26)22(30)14-25-19-11-17(18(23)12-20(19)28)16-5-3-4-15(10-16)13-24/h2-5,10-12,25,28H,1,6-9,14H2
InChIKey=CPJWETXHBHKGBF-UHFFFAOYSA-N

> <PUBCHEM_SUBSTANCE_SYNONYM>
SCHEMBL16122625

> <PUBCHEM_XREF_EXT_ID>
SCHEMBL16122625

> <PUBCHEM_EXT_DATASOURCE_URL>
https://www.surechembl.org/

> <PUBCHEM_EXT_SUBSTANCE_URL>
https://www.surechembl.org/chemical/SCHEMBL16122625

> <PUBCHEM_CID_ASSOCIATIONS>
117610783  1

> <PUBCHEM_COORDINATE_TYPE>
1
3

$$$$
