310944167
  -OEChem-07211613022D

 32 36  0     1  0  0  0  0  0999 V2000
    2.4806   -0.0601    0.0000 O   0  0  0  0  0  0  0  0  0  0  0  0
    5.0151   -1.6216    0.0000 O   0  0  0  0  0  0  0  0  0  0  0  0
    5.4956   -0.2282    0.0000 O   0  0  0  0  0  0  0  0  0  0  0  0
    2.8649   -1.4655    0.0000 N   0  0  0  0  0  0  0  0  0  0  0  0
    0.1141   -0.3603    0.0000 N   0  0  0  0  0  0  0  0  0  0  0  0
   -4.1863    1.2853    0.0000 N   0  0  0  0  0  0  0  0  0  0  0  0
   -2.0361    0.8770    0.0000 N   0  0  0  0  0  0  0  0  0  0  0  0
   -2.7568    1.2853    0.0000 N   0  0  0  0  0  0  0  0  0  0  0  0
   -4.2704    2.1021    0.0000 N   0  0  0  0  0  0  0  0  0  0  0  0
   -5.0872    2.2704    0.0000 N   0  0  0  0  0  0  0  0  0  0  0  0
   -5.4956    1.5616    0.0000 N   0  0  0  0  0  0  0  0  0  0  0  0
    1.5436   -1.1892    0.0000 C   0  0  0  0  0  0  0  0  0  0  0  0
    2.3004   -0.8770    0.0000 C   0  0  0  0  0  0  0  0  0  0  0  0
    3.6937   -1.3814    0.0000 C   0  0  0  0  0  0  0  0  0  0  0  0
    1.5556   -2.0061    0.0000 C   0  0  0  0  0  0  0  0  0  0  0  0
    2.3485   -2.2704    0.0000 C   0  0  0  0  0  0  0  0  0  0  0  0
    0.8349   -1.5976    0.0000 C   0  0  0  0  0  0  0  0  0  0  0  0
    1.5556   -0.3723    0.0000 C   0  0  0  0  0  0  0  0  0  0  0  0
    4.0782   -0.6486    0.0000 C   0  0  0  0  0  0  0  0  0  0  0  0
    4.2824   -1.9700    0.0000 C   0  0  0  0  0  0  0  0  0  0  0  0
    4.8710   -0.8169    0.0000 C   0  0  0  0  0  0  0  0  0  0  0  0
    0.1261   -1.2013    0.0000 C   0  0  0  0  0  0  0  0  0  0  0  0
    0.8349    0.0480    0.0000 C   0  0  0  0  0  0  0  0  0  0  0  0
   -0.5946    0.0480    0.0000 C   0  0  0  0  0  0  0  0  0  0  0  0
   -1.3033   -0.3603    0.0000 C   0  0  3  0  0  0  0  0  0  0  0  0
   -2.0361    0.0480    0.0000 C   0  0  0  0  0  0  0  0  0  0  0  0
    3.7058    0.0841    0.0000 C   0  0  0  0  0  0  0  0  0  0  0  0
   -3.4655    0.8770    0.0000 C   0  0  0  0  0  0  0  0  0  0  0  0
   -2.7568   -0.3603    0.0000 C   0  0  0  0  0  0  0  0  0  0  0  0
   -3.4655    0.0480    0.0000 C   0  0  0  0  0  0  0  0  0  0  0  0
   -4.9430    0.9490    0.0000 C   0  0  0  0  0  0  0  0  0  0  0  0
   -1.3154   -1.1892    0.0000 C   0  0  0  0  0  0  0  0  0  0  0  0
  1 13  2  0  0  0  0
  2 20  1  0  0  0  0
  2 21  1  0  0  0  0
  3 21  2  0  0  0  0
  4 13  1  0  0  0  0
  4 14  1  0  0  0  0
  4 16  1  0  0  0  0
  5 22  1  0  0  0  0
  5 23  1  0  0  0  0
  5 24  1  0  0  0  0
  6  9  1  0  0  0  0
  6 28  1  0  0  0  0
  6 31  1  0  0  0  0
  7  8  2  0  0  0  0
  7 26  1  0  0  0  0
  8 28  1  0  0  0  0
  9 10  2  0  0  0  0
 10 11  1  0  0  0  0
 11 31  2  0  0  0  0
 12 13  1  0  0  0  0
 12 15  1  0  0  0  0
 12 17  1  0  0  0  0
 12 18  1  0  0  0  0
 14 19  2  0  0  0  0
 14 20  1  0  0  0  0
 15 16  1  0  0  0  0
 17 22  1  0  0  0  0
 18 23  1  0  0  0  0
 19 21  1  0  0  0  0
 19 27  1  0  0  0  0
 24 25  1  0  0  0  0
 25 26  1  0  0  0  0
 25 32  1  1  0  0  0
 26 29  2  0  0  0  0
 28 30  2  0  0  0  0
 29 30  1  0  0  0  0
M  END
> <PUBCHEM_COMPOUND_ID_TYPE>
0

> <PUBCHEM_TOTAL_CHARGE>
0

> <PUBCHEM_SUBSTANCE_ID>
310944167

> <PUBCHEM_SUBSTANCE_VERSION>
1

> <PUBCHEM_EXT_DATASOURCE_NAME>
4488

> <PUBCHEM_EXT_DATASOURCE_REGID>
SCHEMBL16122242

> <PUBCHEM_SUBSTANCE_COMMENT>
InChI=1S/C21H26N8O3/c1-14(16-3-4-18(24-23-16)29-13-22-25-26-29)11-27-8-5-21(6-9-27)7-10-28(20(21)31)17-12-32-19(30)15(17)2/h3-4,13-14H,5-12H2,1-2H3/t14-/m1/s1
InChIKey=KXAHASJRQJPSRK-CQSZACIVSA-N

> <PUBCHEM_SUBSTANCE_SYNONYM>
SCHEMBL16122242

> <PUBCHEM_XREF_EXT_ID>
SCHEMBL16122242

> <PUBCHEM_EXT_DATASOURCE_URL>
https://www.surechembl.org/

> <PUBCHEM_EXT_SUBSTANCE_URL>
https://www.surechembl.org/chemical/SCHEMBL16122242

> <PUBCHEM_CID_ASSOCIATIONS>
117610446  1

> <PUBCHEM_COORDINATE_TYPE>
1
3

> <PUBCHEM_BONDANNOTATIONS>
25  32  5

$$$$
