310943174
  -OEChem-07211613022D

 34 37  0     0  0  0  0  0  0999 V2000
   -1.4691    2.0538    0.0000 F   0  0  0  0  0  0  0  0  0  0  0  0
    4.2610    0.4166    0.0000 F   0  0  0  0  0  0  0  0  0  0  0  0
    5.0650   -0.1973    0.0000 F   0  0  0  0  0  0  0  0  0  0  0  0
    4.9773   -0.8259    0.0000 F   0  0  0  0  0  0  0  0  0  0  0  0
   -3.6325   -0.8259    0.0000 O   0  0  0  0  0  0  0  0  0  0  0  0
    0.6797   -0.8259    0.0000 O   0  0  0  0  0  0  0  0  0  0  0  0
   -5.0650    1.6445    0.0000 O   0  0  0  0  0  0  0  0  0  0  0  0
   -2.1999   -0.8259    0.0000 N   0  0  0  0  0  0  0  0  0  0  0  0
   -3.6325    0.8259    0.0000 N   0  0  0  0  0  0  0  0  0  0  0  0
    1.3814    0.4166    0.0000 N   0  0  0  0  0  0  0  0  0  0  0  0
    3.5448   -1.6445    0.0000 N   0  0  0  0  0  0  0  0  0  0  0  0
   -1.4691    0.4166    0.0000 C   0  0  0  0  0  0  0  0  0  0  0  0
   -0.7528    0.8259    0.0000 C   0  0  0  0  0  0  0  0  0  0  0  0
   -2.9016    0.4166    0.0000 C   0  0  0  0  0  0  0  0  0  0  0  0
   -2.9016   -0.4020    0.0000 C   0  0  0  0  0  0  0  0  0  0  0  0
   -2.1999    0.8259    0.0000 C   0  0  0  0  0  0  0  0  0  0  0  0
   -1.4837   -0.4166    0.0000 C   0  0  0  0  0  0  0  0  0  0  0  0
   -0.7528    1.6591    0.0000 C   0  0  0  0  0  0  0  0  0  0  0  0
   -0.0512    0.4166    0.0000 C   0  0  0  0  0  0  0  0  0  0  0  0
    0.6651    0.8405    0.0000 C   0  0  0  0  0  0  0  0  0  0  0  0
    2.1122   -0.8113    0.0000 C   0  0  0  0  0  0  0  0  0  0  0  0
    3.5448   -0.8113    0.0000 C   0  0  0  0  0  0  0  0  0  0  0  0
    1.3960   -0.3874    0.0000 C   0  0  0  0  0  0  0  0  0  0  0  0
   -0.0512    2.0538    0.0000 C   0  0  0  0  0  0  0  0  0  0  0  0
    4.2610   -0.4020    0.0000 C   0  0  0  0  0  0  0  0  0  0  0  0
    0.6651    1.6445    0.0000 C   0  0  0  0  0  0  0  0  0  0  0  0
    2.8139   -0.4166    0.0000 C   0  0  0  0  0  0  0  0  0  0  0  0
   -3.6325    1.6445    0.0000 C   0  0  0  0  0  0  0  0  0  0  0  0
   -4.3341    0.4166    0.0000 C   0  0  0  0  0  0  0  0  0  0  0  0
    2.1122   -1.6445    0.0000 C   0  0  0  0  0  0  0  0  0  0  0  0
   -2.1853   -1.6591    0.0000 C   0  0  0  0  0  0  0  0  0  0  0  0
    2.8285   -2.0538    0.0000 C   0  0  0  0  0  0  0  0  0  0  0  0
   -4.3633    2.0538    0.0000 C   0  0  0  0  0  0  0  0  0  0  0  0
   -5.0504    0.8259    0.0000 C   0  0  0  0  0  0  0  0  0  0  0  0
  1 18  1  0  0  0  0
  2 25  1  0  0  0  0
  3 25  1  0  0  0  0
  4 25  1  0  0  0  0
  5 15  2  0  0  0  0
  6 23  2  0  0  0  0
  7 33  1  0  0  0  0
  7 34  1  0  0  0  0
  8 15  1  0  0  0  0
  8 17  1  0  0  0  0
  8 31  1  0  0  0  0
  9 14  1  0  0  0  0
  9 28  1  0  0  0  0
  9 29  1  0  0  0  0
 10 20  1  0  0  0  0
 10 23  1  0  0  0  0
 11 22  1  0  0  0  0
 11 32  2  0  0  0  0
 12 13  1  0  0  0  0
 12 16  1  0  0  0  0
 12 17  2  0  0  0  0
 13 18  2  0  0  0  0
 13 19  1  0  0  0  0
 14 15  1  0  0  0  0
 14 16  2  0  0  0  0
 18 24  1  0  0  0  0
 19 20  2  0  0  0  0
 20 26  1  0  0  0  0
 21 23  1  0  0  0  0
 21 27  1  0  0  0  0
 21 30  2  0  0  0  0
 22 25  1  0  0  0  0
 22 27  2  0  0  0  0
 24 26  2  0  0  0  0
 28 33  1  0  0  0  0
 29 34  1  0  0  0  0
 30 32  1  0  0  0  0
M  END
> <PUBCHEM_COMPOUND_ID_TYPE>
0

> <PUBCHEM_TOTAL_CHARGE>
0

> <PUBCHEM_SUBSTANCE_ID>
310943174

> <PUBCHEM_SUBSTANCE_VERSION>
1

> <PUBCHEM_EXT_DATASOURCE_NAME>
4488

> <PUBCHEM_EXT_DATASOURCE_REGID>
SCHEMBL16121234

> <PUBCHEM_SUBSTANCE_COMMENT>
InChI=1S/C23H20F4N4O3/c1-30-13-15(10-19(22(30)33)31-6-8-34-9-7-31)17-12-16(2-3-18(17)24)29-21(32)14-4-5-28-20(11-14)23(25,26)27/h2-5,10-13H,6-9H2,1H3,(H,29,32)
InChIKey=KXBQYAYHIVRQOA-UHFFFAOYSA-N

> <PUBCHEM_SUBSTANCE_SYNONYM>
SCHEMBL16121234

> <PUBCHEM_XREF_EXT_ID>
SCHEMBL16121234

> <PUBCHEM_EXT_DATASOURCE_URL>
https://www.surechembl.org/

> <PUBCHEM_EXT_SUBSTANCE_URL>
https://www.surechembl.org/chemical/SCHEMBL16121234

> <PUBCHEM_CID_ASSOCIATIONS>
117609602  1

> <PUBCHEM_COORDINATE_TYPE>
1
3

$$$$
