310948957
  -OEChem-07211613022D

 28 30  0     0  0  0  0  0  0999 V2000
   -2.9726   -1.6464    0.0000 Cl  0  0  0  0  0  0  0  0  0  0  0  0
    0.7927    1.8598    0.0000 S   0  0  0  0  0  0  0  0  0  0  0  0
   -1.5397   -0.8232    0.0000 O   0  0  0  0  0  0  0  0  0  0  0  0
   -0.1067   -0.8232    0.0000 O   0  0  0  0  0  0  0  0  0  0  0  0
    3.6891    0.8689    0.0000 O   0  0  0  0  0  0  0  0  0  0  0  0
    0.6555    0.5183    0.0000 N   0  0  0  0  0  0  0  0  0  0  0  0
    2.0427    1.0366    0.0000 N   0  0  0  0  0  0  0  0  0  0  0  0
   -0.1220    0.8384    0.0000 C   0  0  0  0  0  0  0  0  0  0  0  0
   -0.8079    0.4116    0.0000 C   0  0  0  0  0  0  0  0  0  0  0  0
    1.2043    1.1128    0.0000 C   0  0  0  0  0  0  0  0  0  0  0  0
   -0.8384   -0.3964    0.0000 C   0  0  0  0  0  0  0  0  0  0  0  0
   -0.0305    1.6617    0.0000 C   0  0  0  0  0  0  0  0  0  0  0  0
    2.3781    0.2744    0.0000 C   0  0  0  0  0  0  0  0  0  0  0  0
   -1.5549    0.8384    0.0000 C   0  0  0  0  0  0  0  0  0  0  0  0
   -2.2409    0.4116    0.0000 C   0  0  0  0  0  0  0  0  0  0  0  0
    3.2013    0.1829    0.0000 C   0  0  0  0  0  0  0  0  0  0  0  0
   -2.2409   -0.4116    0.0000 C   0  0  0  0  0  0  0  0  0  0  0  0
    1.8750   -0.4116    0.0000 C   0  0  0  0  0  0  0  0  0  0  0  0
    2.2104   -1.1281    0.0000 C   0  0  0  0  0  0  0  0  0  0  0  0
    3.4909   -0.5945    0.0000 C   0  0  0  0  0  0  0  0  0  0  0  0
   -2.9879    0.8232    0.0000 C   0  0  0  0  0  0  0  0  0  0  0  0
    3.0336   -1.2347    0.0000 C   0  0  0  0  0  0  0  0  0  0  0  0
   -3.6891    0.4116    0.0000 C   0  0  0  0  0  0  0  0  0  0  0  0
    1.7379   -1.8598    0.0000 C   0  0  0  0  0  0  0  0  0  0  0  0
    3.3232    1.6159    0.0000 C   0  0  0  0  0  0  0  0  0  0  0  0
   -3.6891   -0.4116    0.0000 C   0  0  0  0  0  0  0  0  0  0  0  0
   -2.9574   -0.7927    0.0000 C   0  0  0  0  0  0  0  0  0  0  0  0
   -2.2714   -0.4268    0.0000 C   0  0  0  0  0  0  0  0  0  0  0  0
  1 27  1  0  0  0  0
  2 10  1  0  0  0  0
  2 12  1  0  0  0  0
  3 11  1  0  0  0  0
  3 17  1  0  0  0  0
  4 11  2  0  0  0  0
  5 16  1  0  0  0  0
  5 25  1  0  0  0  0
  6  8  1  0  0  0  0
  6 10  2  0  0  0  0
  7 10  1  0  0  0  0
  7 13  1  0  0  0  0
  8  9  1  0  0  0  0
  8 12  2  0  0  0  0
  9 11  1  0  0  0  0
  9 14  2  0  0  0  0
 13 16  1  0  0  0  0
 13 18  2  0  0  0  0
 14 15  1  0  0  0  0
 15 17  1  0  0  0  0
 15 21  2  0  0  0  0
 16 20  2  0  0  0  0
 18 19  1  0  0  0  0
 19 22  2  0  0  0  0
 19 24  1  0  0  0  0
 20 22  1  0  0  0  0
 21 23  1  0  0  0  0
 23 26  2  0  0  0  0
 26 27  1  0  0  0  0
 27 28  2  0  0  0  0
M  END
> <PUBCHEM_COMPOUND_ID_TYPE>
0

> <PUBCHEM_TOTAL_CHARGE>
0

> <PUBCHEM_SUBSTANCE_ID>
310948957

> <PUBCHEM_SUBSTANCE_VERSION>
1

> <PUBCHEM_EXT_DATASOURCE_NAME>
4488

> <PUBCHEM_EXT_DATASOURCE_REGID>
SCHEMBL16127145

> <PUBCHEM_SUBSTANCE_COMMENT>
InChI=1S/C21H19ClN2O3S/c1-13-7-8-19(26-3)17(9-13)23-21-24-18(12-28-21)16-10-15(11-27-20(16)25)6-4-5-14(2)22/h4-10,12H,2,11H2,1,3H3,(H,23,24)/b5-4-,15-6-
InChIKey=GWUMECGPANNNKF-AFEMUGOASA-N

> <PUBCHEM_SUBSTANCE_SYNONYM>
SCHEMBL16127145

> <PUBCHEM_XREF_EXT_ID>
SCHEMBL16127145

> <PUBCHEM_EXT_DATASOURCE_URL>
https://www.surechembl.org/

> <PUBCHEM_EXT_SUBSTANCE_URL>
https://www.surechembl.org/chemical/SCHEMBL16127145

> <PUBCHEM_CID_ASSOCIATIONS>
117614466  1

> <PUBCHEM_COORDINATE_TYPE>
1
3

$$$$
