310941756
  -OEChem-07211613022D

 39 43  0     1  0  0  0  0  0999 V2000
    3.8790   -3.1471    0.0000 F   0  0  0  0  0  0  0  0  0  0  0  0
    4.5444   -3.1605    0.0000 F   0  0  0  0  0  0  0  0  0  0  0  0
    4.8904   -2.5882    0.0000 F   0  0  0  0  0  0  0  0  0  0  0  0
   -4.7839   -1.0845    0.0000 F   0  0  0  0  0  0  0  0  0  0  0  0
    1.8697    3.1871    0.0000 O   0  0  0  0  0  0  0  0  0  0  0  0
    3.8125   -1.8431    0.0000 O   0  0  0  0  0  0  0  0  0  0  0  0
    1.9495    0.3659    0.0000 O   0  0  0  0  0  0  0  0  0  0  0  0
    0.1664   -1.1910    0.0000 O   0  0  0  0  0  0  0  0  0  0  0  0
    2.6282    1.8031    0.0000 N   0  0  3  0  0  0  0  0  0  0  0  0
    3.0008   -0.3793    0.0000 N   0  0  0  0  0  0  0  0  0  0  0  0
    0.0466   -2.4684    0.0000 N   0  0  0  0  0  0  0  0  0  0  0  0
   -2.0427   -3.1871    0.0000 N   0  0  0  0  0  0  0  0  0  0  0  0
    1.8829    1.8431    0.0000 C   0  0  3  0  0  0  0  0  0  0  0  0
    2.6681    3.1737    0.0000 C   0  0  3  0  0  0  0  0  0  0  0  0
    3.0274    1.0845    0.0000 C   0  0  3  0  0  0  0  0  0  0  0  0
    3.0673    2.5217    0.0000 C   0  0  0  0  0  0  0  0  0  0  0  0
    2.6414    2.2556    0.0000 C   0  0  0  0  0  0  0  0  0  0  0  0
    2.5882   -1.0845    0.0000 C   0  0  0  0  0  0  0  0  0  0  0  0
    2.6282    0.3793    0.0000 C   0  0  0  0  0  0  0  0  0  0  0  0
    1.4572    2.4951    0.0000 C   0  0  0  0  0  0  0  0  0  0  0  0
    2.9741   -1.8164    0.0000 C   0  0  0  0  0  0  0  0  0  0  0  0
    1.3240   -1.7499    0.0000 C   0  0  0  0  0  0  0  0  0  0  0  0
    1.7632   -1.0845    0.0000 C   0  0  0  0  0  0  0  0  0  0  0  0
    2.5484   -2.5217    0.0000 C   0  0  0  0  0  0  0  0  0  0  0  0
    0.5123   -1.7499    0.0000 C   0  0  0  0  0  0  0  0  0  0  0  0
    1.7233   -2.5217    0.0000 C   0  0  0  0  0  0  0  0  0  0  0  0
    3.7060    1.0446    0.0000 C   0  0  0  0  0  0  0  0  0  0  0  0
    4.2117   -2.5750    0.0000 C   0  0  0  0  0  0  0  0  0  0  0  0
   -0.7785   -2.4286    0.0000 C   0  0  0  0  0  0  0  0  0  0  0  0
   -2.4286   -2.4020    0.0000 C   0  0  0  0  0  0  0  0  0  0  0  0
   -3.2669   -2.3886    0.0000 C   0  0  0  0  0  0  0  0  0  0  0  0
   -1.1910   -3.1605    0.0000 C   0  0  0  0  0  0  0  0  0  0  0  0
   -1.1510   -1.7100    0.0000 C   0  0  0  0  0  0  0  0  0  0  0  0
   -1.9895   -1.6967    0.0000 C   0  0  0  0  0  0  0  0  0  0  0  0
   -3.6528   -1.6833    0.0000 C   0  0  0  0  0  0  0  0  0  0  0  0
   -3.6794   -3.0939    0.0000 C   0  0  0  0  0  0  0  0  0  0  0  0
   -4.4779   -1.6567    0.0000 C   0  0  0  0  0  0  0  0  0  0  0  0
   -4.5045   -3.0939    0.0000 C   0  0  0  0  0  0  0  0  0  0  0  0
   -4.8904   -2.3620    0.0000 C   0  0  0  0  0  0  0  0  0  0  0  0
  1 28  1  0  0  0  0
  2 28  1  0  0  0  0
  3 28  1  0  0  0  0
  4 37  1  0  0  0  0
  5 14  1  0  0  0  0
  5 20  1  0  0  0  0
  6 21  1  0  0  0  0
  6 28  1  0  0  0  0
  7 19  2  0  0  0  0
  8 25  2  0  0  0  0
 13  9  1  6  0  0  0
  9 15  1  0  0  0  0
  9 16  1  0  0  0  0
 10 18  1  0  0  0  0
 10 19  1  0  0  0  0
 11 25  1  0  0  0  0
 11 29  1  0  0  0  0
 12 30  2  0  0  0  0
 12 32  1  0  0  0  0
 13 17  1  0  0  0  0
 13 20  1  0  0  0  0
 14 16  1  0  0  0  0
 14 17  1  1  0  0  0
 15 19  1  0  0  0  0
 15 27  1  0  0  0  0
 18 21  1  0  0  0  0
 18 23  2  0  0  0  0
 21 24  2  0  0  0  0
 22 23  1  0  0  0  0
 22 25  1  0  0  0  0
 22 26  2  0  0  0  0
 24 26  1  0  0  0  0
 29 32  2  0  0  0  0
 29 33  1  0  0  0  0
 30 31  1  0  0  0  0
 30 34  1  0  0  0  0
 31 35  1  0  0  0  0
 31 36  2  0  0  0  0
 33 34  2  0  0  0  0
 35 37  2  0  0  0  0
 36 38  1  0  0  0  0
 37 39  1  0  0  0  0
 38 39  2  0  0  0  0
M  END
> <PUBCHEM_COMPOUND_ID_TYPE>
0

> <PUBCHEM_TOTAL_CHARGE>
0

> <PUBCHEM_SUBSTANCE_ID>
310941756

> <PUBCHEM_SUBSTANCE_VERSION>
1

> <PUBCHEM_EXT_DATASOURCE_NAME>
4488

> <PUBCHEM_EXT_DATASOURCE_REGID>
SCHEMBL16119787

> <PUBCHEM_SUBSTANCE_COMMENT>
InChI=1S/C27H24F4N4O4/c1-15(35-13-21-11-20(35)14-38-21)25(36)34-23-10-17(5-8-24(23)39-27(29,30)31)26(37)33-19-6-7-22(32-12-19)16-3-2-4-18(28)9-16/h2-10,12,15,20-21H,11,13-14H2,1H3,(H,33,37)(H,34,36)/t15?,20-,21-/m0/s1
InChIKey=IVAPGQZOCYCUJU-LBTAZEDMSA-N

> <PUBCHEM_SUBSTANCE_SYNONYM>
SCHEMBL16119787

> <PUBCHEM_XREF_EXT_ID>
SCHEMBL16119787

> <PUBCHEM_EXT_DATASOURCE_URL>
https://www.surechembl.org/

> <PUBCHEM_EXT_SUBSTANCE_URL>
https://www.surechembl.org/chemical/SCHEMBL16119787

> <PUBCHEM_CID_ASSOCIATIONS>
117608515  1

> <PUBCHEM_COORDINATE_TYPE>
1
3

> <PUBCHEM_BONDANNOTATIONS>
14  17  5
13  9  6

$$$$
