310938793
  -OEChem-07211613022D

 16 17  0     0  0  0  0  0  0999 V2000
    1.5004   -0.6856    0.0000 Cl  0  0  0  0  0  0  0  0  0  0  0  0
   -1.2601   -0.6003    0.0000 N   0  0  0  0  0  0  0  0  0  0  0  0
   -0.5926   -0.1154    0.0000 N   0  0  0  0  0  0  0  0  0  0  0  0
    0.5472   -2.6493    0.0000 N   0  0  0  0  0  0  0  0  0  0  0  0
   -0.4351    1.3837    0.0000 N   0  0  0  0  0  0  0  0  0  0  0  0
   -0.4632   -1.6388    0.0000 C   0  0  0  0  0  0  0  0  0  0  0  0
   -1.2601   -1.4253    0.0000 C   0  0  0  0  0  0  0  0  0  0  0  0
   -0.8476    0.6692    0.0000 C   0  0  0  0  0  0  0  0  0  0  0  0
    0.9171   -1.2690    0.0000 C   0  0  0  0  0  0  0  0  0  0  0  0
    0.1202   -1.0555    0.0000 C   0  0  0  0  0  0  0  0  0  0  0  0
    1.1306   -2.0659    0.0000 C   0  0  0  0  0  0  0  0  0  0  0  0
   -1.9275   -0.1154    0.0000 C   0  0  0  0  0  0  0  0  0  0  0  0
   -0.2496   -2.4357    0.0000 C   0  0  0  0  0  0  0  0  0  0  0  0
   -1.6726    0.6692    0.0000 C   0  0  0  0  0  0  0  0  0  0  0  0
    1.9275   -2.2794    0.0000 C   0  0  0  0  0  0  0  0  0  0  0  0
   -0.0226    2.0982    0.0000 C   0  0  0  0  0  0  0  0  0  0  0  0
  1  9  1  0  0  0  0
  2  3  1  0  0  0  0
  2  7  1  0  0  0  0
  2 12  1  0  0  0  0
  3  8  2  0  0  0  0
  4 11  2  0  0  0  0
  4 13  1  0  0  0  0
  5  8  1  0  0  0  0
  5 16  2  0  0  0  0
  6  7  1  0  0  0  0
  6 10  1  0  0  0  0
  6 13  2  0  0  0  0
  8 14  1  0  0  0  0
  9 10  2  0  0  0  0
  9 11  1  0  0  0  0
 11 15  1  0  0  0  0
 12 14  2  0  0  0  0
M  END
> <PUBCHEM_COMPOUND_ID_TYPE>
0

> <PUBCHEM_TOTAL_CHARGE>
0

> <PUBCHEM_SUBSTANCE_ID>
310938793

> <PUBCHEM_SUBSTANCE_VERSION>
1

> <PUBCHEM_EXT_DATASOURCE_NAME>
4488

> <PUBCHEM_EXT_DATASOURCE_REGID>
SCHEMBL16116710

> <PUBCHEM_SUBSTANCE_COMMENT>
InChI=1S/C11H11ClN4/c1-8-10(12)5-9(6-14-8)7-16-4-3-11(13-2)15-16/h3-6H,2,7H2,1H3
InChIKey=RASHNVIZEBYQFE-UHFFFAOYSA-N

> <PUBCHEM_SUBSTANCE_SYNONYM>
SCHEMBL16116710

> <PUBCHEM_XREF_EXT_ID>
SCHEMBL16116710

> <PUBCHEM_EXT_DATASOURCE_URL>
https://www.surechembl.org/

> <PUBCHEM_EXT_SUBSTANCE_URL>
https://www.surechembl.org/chemical/SCHEMBL16116710

> <PUBCHEM_CID_ASSOCIATIONS>
117606201  1

> <PUBCHEM_COORDINATE_TYPE>
1
3

$$$$
