310936023
  -OEChem-07211613022D

 38 42  0     0  0  0  0  0  0999 V2000
    0.5684    0.0000    0.0000 F   0  0  0  0  0  0  0  0  0  0  0  0
    3.0168   -2.9730    0.0000 O   0  0  0  0  0  0  0  0  0  0  0  0
    0.5246   -3.1916    0.0000 O   0  0  0  0  0  0  0  0  0  0  0  0
    5.2903   -7.5200    0.0000 O   0  0  0  0  0  0  0  0  0  0  0  0
    4.5470   -8.7442    0.0000 O   0  0  0  0  0  0  0  0  0  0  0  0
    6.7331   -4.1535    0.0000 O   0  0  0  0  0  0  0  0  0  0  0  0
    7.4764   -5.4214    0.0000 O   0  0  0  0  0  0  0  0  0  0  0  0
    3.8912   -4.1973    0.0000 N   0  0  0  0  0  0  0  0  0  0  0  0
    0.7870   -4.5470    0.0000 N   0  0  0  0  0  0  0  0  0  0  0  0
    2.4484   -4.1973    0.0000 C   0  0  0  0  0  0  0  0  0  0  0  0
    1.8363   -3.6289    0.0000 C   0  0  0  0  0  0  0  0  0  0  0  0
    3.1916   -3.7601    0.0000 C   0  0  0  0  0  0  0  0  0  0  0  0
    2.1860   -2.8856    0.0000 C   0  0  0  0  0  0  0  0  0  0  0  0
    3.1479   -5.4214    0.0000 C   0  0  0  0  0  0  0  0  0  0  0  0
    3.8912   -4.9842    0.0000 C   0  0  0  0  0  0  0  0  0  0  0  0
    2.4484   -5.0279    0.0000 C   0  0  0  0  0  0  0  0  0  0  0  0
    1.7926   -2.1424    0.0000 C   0  0  0  0  0  0  0  0  0  0  0  0
    1.0493   -3.8037    0.0000 C   0  0  0  0  0  0  0  0  0  0  0  0
    3.1479   -6.2522    0.0000 C   0  0  0  0  0  0  0  0  0  0  0  0
    4.5907   -5.4214    0.0000 C   0  0  0  0  0  0  0  0  0  0  0  0
    3.8475   -6.6894    0.0000 C   0  0  0  0  0  0  0  0  0  0  0  0
    5.3340   -4.9842    0.0000 C   0  0  0  0  0  0  0  0  0  0  0  0
    0.9619   -2.1424    0.0000 C   0  0  0  0  0  0  0  0  0  0  0  0
    2.1860   -1.4428    0.0000 C   0  0  0  0  0  0  0  0  0  0  0  0
    2.4047   -6.6456    0.0000 C   0  0  0  0  0  0  0  0  0  0  0  0
    4.5907   -6.2084    0.0000 C   0  0  0  0  0  0  0  0  0  0  0  0
    3.8475   -7.4764    0.0000 C   0  0  0  0  0  0  0  0  0  0  0  0
    6.0335   -5.4214    0.0000 C   0  0  0  0  0  0  0  0  0  0  0  0
    0.5246   -1.4428    0.0000 C   0  0  0  0  0  0  0  0  0  0  0  0
    1.7926   -0.6995    0.0000 C   0  0  0  0  0  0  0  0  0  0  0  0
    2.4047   -7.4764    0.0000 C   0  0  0  0  0  0  0  0  0  0  0  0
    5.3340   -6.6456    0.0000 C   0  0  0  0  0  0  0  0  0  0  0  0
    0.9619   -0.6995    0.0000 C   0  0  0  0  0  0  0  0  0  0  0  0
    3.1479   -7.8698    0.0000 C   0  0  0  0  0  0  0  0  0  0  0  0
    6.0335   -6.2084    0.0000 C   0  0  0  0  0  0  0  0  0  0  0  0
    4.5470   -7.9136    0.0000 C   0  0  0  0  0  0  0  0  0  0  0  0
    6.7331   -4.9842    0.0000 C   0  0  0  0  0  0  0  0  0  0  0  0
    0.0000   -4.7219    0.0000 C   0  0  0  0  0  0  0  0  0  0  0  0
  1 33  1  0  0  0  0
  2 12  1  0  0  0  0
  2 13  1  0  0  0  0
  3 18  2  0  0  0  0
  4 36  2  0  0  0  0
  5 36  1  0  0  0  0
  6 37  2  0  0  0  0
  7 37  1  0  0  0  0
  8 12  1  0  0  0  0
  8 15  2  0  0  0  0
  9 18  1  0  0  0  0
  9 38  1  0  0  0  0
 10 11  1  0  0  0  0
 10 12  2  0  0  0  0
 10 16  1  0  0  0  0
 11 13  2  0  0  0  0
 11 18  1  0  0  0  0
 13 17  1  0  0  0  0
 14 15  1  0  0  0  0
 14 16  2  0  0  0  0
 14 19  1  0  0  0  0
 15 20  1  0  0  0  0
 17 23  2  0  0  0  0
 17 24  1  0  0  0  0
 19 21  1  0  0  0  0
 19 25  2  0  0  0  0
 20 22  1  0  0  0  0
 20 26  2  0  0  0  0
 21 27  2  0  0  0  0
 22 28  2  0  0  0  0
 23 29  1  0  0  0  0
 24 30  2  0  0  0  0
 25 31  1  0  0  0  0
 26 32  1  0  0  0  0
 27 34  1  0  0  0  0
 27 36  1  0  0  0  0
 28 35  1  0  0  0  0
 28 37  1  0  0  0  0
 29 33  2  0  0  0  0
 30 33  1  0  0  0  0
 31 34  2  0  0  0  0
 32 35  2  0  0  0  0
M  END
> <PUBCHEM_COMPOUND_ID_TYPE>
0

> <PUBCHEM_TOTAL_CHARGE>
0

> <PUBCHEM_SUBSTANCE_ID>
310936023

> <PUBCHEM_SUBSTANCE_VERSION>
1

> <PUBCHEM_EXT_DATASOURCE_NAME>
4488

> <PUBCHEM_EXT_DATASOURCE_REGID>
SCHEMBL16113626

> <PUBCHEM_SUBSTANCE_COMMENT>
InChI=1S/C29H19FN2O6/c1-31-26(33)23-22-14-21(16-4-2-6-18(12-16)28(34)35)24(17-5-3-7-19(13-17)29(36)37)32-27(22)38-25(23)15-8-10-20(30)11-9-15/h2-14H,1H3,(H,31,33)(H,34,35)(H,36,37)
InChIKey=XDLZZDPQQOGKFK-UHFFFAOYSA-N

> <PUBCHEM_SUBSTANCE_SYNONYM>
SCHEMBL16113626

> <PUBCHEM_XREF_EXT_ID>
SCHEMBL16113626

> <PUBCHEM_EXT_DATASOURCE_URL>
https://www.surechembl.org/

> <PUBCHEM_EXT_SUBSTANCE_URL>
https://www.surechembl.org/chemical/SCHEMBL16113626

> <PUBCHEM_CID_ASSOCIATIONS>
117603992  1

> <PUBCHEM_COORDINATE_TYPE>
1
3

$$$$
