310945892
  -OEChem-07211613022D

  7  6  0     0  0  0  0  0  0999 V2000
    0.2389   -1.0943    0.0000 N   0  0  0  0  0  0  0  0  0  0  0  0
    0.6610   -0.3611    0.0000 N   0  0  0  0  0  0  0  0  0  0  0  0
   -0.5722   -0.8943    0.0000 C   0  0  0  0  0  0  0  0  0  0  0  0
   -0.6610   -0.0611    0.0000 C   0  0  0  0  0  0  0  0  0  0  0  0
    0.0834    0.2945    0.0000 C   0  0  0  0  0  0  0  0  0  0  0  0
    0.0500    0.0834    0.0000 C   0  0  0  0  0  0  0  0  0  0  0  0
    0.2722    1.0943    0.0000 C   0  0  0  0  0  0  0  0  0  0  0  0
  1  2  1  0  0  0  0
  1  3  1  0  0  0  0
  2  6  1  0  0  0  0
  3  4  2  0  0  0  0
  4  5  1  0  0  0  0
  5  7  1  0  0  0  0
M  END
> <PUBCHEM_COMPOUND_ID_TYPE>
0

> <PUBCHEM_TOTAL_CHARGE>
0

> <PUBCHEM_SUBSTANCE_ID>
310945892

> <PUBCHEM_SUBSTANCE_VERSION>
1

> <PUBCHEM_EXT_DATASOURCE_NAME>
4488

> <PUBCHEM_EXT_DATASOURCE_REGID>
SCHEMBL16123997

> <PUBCHEM_SUBSTANCE_COMMENT>
InChI=1S/C5H12N2/c1-3-4-5-7-6-2/h4-7H,3H2,1-2H3/b5-4-
InChIKey=BMWOJAJRGMASNB-PLNGDYQASA-N

> <PUBCHEM_SUBSTANCE_SYNONYM>
SCHEMBL16123997

> <PUBCHEM_XREF_EXT_ID>
SCHEMBL16123997

> <PUBCHEM_EXT_DATASOURCE_URL>
https://www.surechembl.org/

> <PUBCHEM_EXT_SUBSTANCE_URL>
https://www.surechembl.org/chemical/SCHEMBL16123997

> <PUBCHEM_CID_ASSOCIATIONS>
117611876  1

> <PUBCHEM_COORDINATE_TYPE>
1
3

$$$$
