310938854
  -OEChem-07211613022D

 28 32  0     0  0  0  0  0  0999 V2000
   -2.1865    2.8446    0.0000 Br  0  0  0  0  0  0  0  0  0  0  0  0
    0.1902   -2.9465    0.0000 F   0  0  0  0  0  0  0  0  0  0  0  0
   -2.2848   -1.5175    0.0000 F   0  0  0  0  0  0  0  0  0  0  0  0
    0.6020    2.9465    0.0000 O   0  0  0  0  0  0  0  0  0  0  0  0
    1.4063    1.2763    0.0000 N   0  0  0  0  0  0  0  0  0  0  0  0
    1.0152   -1.5175    0.0000 N   0  0  0  0  0  0  0  0  0  0  0  0
    0.5280    0.2710    0.0000 N   0  0  0  0  0  0  0  0  0  0  0  0
    2.2848   -1.1050    0.0000 N   0  0  0  0  0  0  0  0  0  0  0  0
    1.5002   -2.1850    0.0000 N   0  0  0  0  0  0  0  0  0  0  0  0
    0.6020    1.0927    0.0000 C   0  0  0  0  0  0  0  0  0  0  0  0
    1.2866   -0.0532    0.0000 C   0  0  0  0  0  0  0  0  0  0  0  0
    1.5002   -0.8501    0.0000 C   0  0  0  0  0  0  0  0  0  0  0  0
   -0.0430    1.6071    0.0000 C   0  0  0  0  0  0  0  0  0  0  0  0
    1.8294    0.5681    0.0000 C   0  0  0  0  0  0  0  0  0  0  0  0
    0.1902   -1.5175    0.0000 C   0  0  0  0  0  0  0  0  0  0  0  0
   -0.0430    2.4321    0.0000 C   0  0  0  0  0  0  0  0  0  0  0  0
    1.7642    2.0196    0.0000 C   0  0  0  0  0  0  0  0  0  0  0  0
   -0.2223   -2.2320    0.0000 C   0  0  0  0  0  0  0  0  0  0  0  0
   -0.7575    1.1946    0.0000 C   0  0  0  0  0  0  0  0  0  0  0  0
    2.2848   -1.9300    0.0000 C   0  0  0  0  0  0  0  0  0  0  0  0
   -0.7575    2.8446    0.0000 C   0  0  0  0  0  0  0  0  0  0  0  0
   -0.2223   -0.8031    0.0000 C   0  0  0  0  0  0  0  0  0  0  0  0
    1.4063    2.7629    0.0000 C   0  0  0  0  0  0  0  0  0  0  0  0
   -1.4720    2.4321    0.0000 C   0  0  0  0  0  0  0  0  0  0  0  0
   -1.4720    1.6071    0.0000 C   0  0  0  0  0  0  0  0  0  0  0  0
   -1.0473   -2.2320    0.0000 C   0  0  0  0  0  0  0  0  0  0  0  0
   -1.4598   -1.5175    0.0000 C   0  0  0  0  0  0  0  0  0  0  0  0
   -1.0473   -0.8031    0.0000 C   0  0  0  0  0  0  0  0  0  0  0  0
  1 24  1  0  0  0  0
  2 18  1  0  0  0  0
  3 27  1  0  0  0  0
  4 16  1  0  0  0  0
  4 23  1  0  0  0  0
  5 10  1  0  0  0  0
  5 14  1  0  0  0  0
  5 17  1  0  0  0  0
  6  9  1  0  0  0  0
  6 12  1  0  0  0  0
  6 15  1  0  0  0  0
  7 10  2  0  0  0  0
  7 11  1  0  0  0  0
  8 12  2  0  0  0  0
  8 20  1  0  0  0  0
  9 20  2  0  0  0  0
 10 13  1  0  0  0  0
 11 12  1  0  0  0  0
 11 14  2  0  0  0  0
 13 16  1  0  0  0  0
 13 19  2  0  0  0  0
 15 18  1  0  0  0  0
 15 22  2  0  0  0  0
 16 21  2  0  0  0  0
 17 23  1  0  0  0  0
 18 26  2  0  0  0  0
 19 25  1  0  0  0  0
 21 24  1  0  0  0  0
 22 28  1  0  0  0  0
 24 25  2  0  0  0  0
 26 27  1  0  0  0  0
 27 28  2  0  0  0  0
M  END
> <PUBCHEM_COMPOUND_ID_TYPE>
0

> <PUBCHEM_TOTAL_CHARGE>
0

> <PUBCHEM_SUBSTANCE_ID>
310938854

> <PUBCHEM_SUBSTANCE_VERSION>
1

> <PUBCHEM_EXT_DATASOURCE_NAME>
4488

> <PUBCHEM_EXT_DATASOURCE_REGID>
SCHEMBL16116773

> <PUBCHEM_SUBSTANCE_COMMENT>
InChI=1S/C19H12BrF2N5O/c20-11-1-3-13-17(7-11)28-6-5-26-9-15(25-18(13)26)19-23-10-24-27(19)16-4-2-12(21)8-14(16)22/h1-4,7-10H,5-6H2
InChIKey=LRKVCDPZWCBJDG-UHFFFAOYSA-N

> <PUBCHEM_SUBSTANCE_SYNONYM>
SCHEMBL16116773

> <PUBCHEM_XREF_EXT_ID>
SCHEMBL16116773

> <PUBCHEM_EXT_DATASOURCE_URL>
https://www.surechembl.org/

> <PUBCHEM_EXT_SUBSTANCE_URL>
https://www.surechembl.org/chemical/SCHEMBL16116773

> <PUBCHEM_CID_ASSOCIATIONS>
117606253  1

> <PUBCHEM_COORDINATE_TYPE>
1
3

$$$$
