310938870
  -OEChem-07211613022D

 39 44  0     0  0  0  0  0  0999 V2000
    1.9272   -2.9465    0.0000 Cl  0  0  0  0  0  0  0  0  0  0  0  0
    2.3390    2.9465    0.0000 O   0  0  0  0  0  0  0  0  0  0  0  0
   -3.3073    0.3696    0.0000 O   0  0  0  0  0  0  0  0  0  0  0  0
   -2.5929   -0.8679    0.0000 O   0  0  0  0  0  0  0  0  0  0  0  0
    3.0236   -0.0532    0.0000 N   0  0  0  0  0  0  0  0  0  0  0  0
    2.2650    0.2710    0.0000 N   0  0  0  0  0  0  0  0  0  0  0  0
    2.7522   -1.5175    0.0000 N   0  0  0  0  0  0  0  0  0  0  0  0
    4.0218   -1.1050    0.0000 N   0  0  0  0  0  0  0  0  0  0  0  0
    4.0218   -1.9300    0.0000 N   0  0  0  0  0  0  0  0  0  0  0  0
   -1.8784    0.3696    0.0000 N   0  0  0  0  0  0  0  0  0  0  0  0
    2.3390    1.0927    0.0000 C   0  0  0  0  0  0  0  0  0  0  0  0
    1.6940    1.6071    0.0000 C   0  0  0  0  0  0  0  0  0  0  0  0
    3.1433    1.2763    0.0000 C   0  0  0  0  0  0  0  0  0  0  0  0
    3.2372   -0.8501    0.0000 C   0  0  0  0  0  0  0  0  0  0  0  0
    3.5664    0.5681    0.0000 C   0  0  0  0  0  0  0  0  0  0  0  0
    1.6940    2.4321    0.0000 C   0  0  0  0  0  0  0  0  0  0  0  0
    0.9795    1.1946    0.0000 C   0  0  0  0  0  0  0  0  0  0  0  0
    1.9272   -1.5175    0.0000 C   0  0  0  0  0  0  0  0  0  0  0  0
    0.2650    1.6071    0.0000 C   0  0  0  0  0  0  0  0  0  0  0  0
    3.5013    2.0196    0.0000 C   0  0  0  0  0  0  0  0  0  0  0  0
    3.2372   -2.1850    0.0000 C   0  0  0  0  0  0  0  0  0  0  0  0
    0.9795    2.8446    0.0000 C   0  0  0  0  0  0  0  0  0  0  0  0
   -0.4494    1.1946    0.0000 C   0  0  0  0  0  0  0  0  0  0  0  0
    0.2650    2.4321    0.0000 C   0  0  0  0  0  0  0  0  0  0  0  0
    1.5147   -2.2320    0.0000 C   0  0  0  0  0  0  0  0  0  0  0  0
    3.1433    2.7629    0.0000 C   0  0  0  0  0  0  0  0  0  0  0  0
    1.5147   -0.8031    0.0000 C   0  0  0  0  0  0  0  0  0  0  0  0
   -0.4494    0.3696    0.0000 C   0  0  0  0  0  0  0  0  0  0  0  0
   -1.1639    1.6071    0.0000 C   0  0  0  0  0  0  0  0  0  0  0  0
    0.6897   -2.2320    0.0000 C   0  0  0  0  0  0  0  0  0  0  0  0
    0.6897   -0.8031    0.0000 C   0  0  0  0  0  0  0  0  0  0  0  0
   -1.1639   -0.0429    0.0000 C   0  0  0  0  0  0  0  0  0  0  0  0
   -1.8784    1.1946    0.0000 C   0  0  0  0  0  0  0  0  0  0  0  0
    0.2772   -1.5175    0.0000 C   0  0  0  0  0  0  0  0  0  0  0  0
   -2.5929   -0.0429    0.0000 C   0  0  0  0  0  0  0  0  0  0  0  0
   -3.3073    1.1946    0.0000 C   0  0  0  0  0  0  0  0  0  0  0  0
   -4.0218    1.6071    0.0000 C   0  0  0  0  0  0  0  0  0  0  0  0
   -2.5929    1.6071    0.0000 C   0  0  0  0  0  0  0  0  0  0  0  0
   -4.0218    0.7821    0.0000 C   0  0  0  0  0  0  0  0  0  0  0  0
  1 25  1  0  0  0  0
  2 16  1  0  0  0  0
  2 26  1  0  0  0  0
  3 35  1  0  0  0  0
  3 36  1  0  0  0  0
  4 35  2  0  0  0  0
  5  6  1  0  0  0  0
  5 14  1  0  0  0  0
  5 15  1  0  0  0  0
  6 11  2  0  0  0  0
  7 14  1  0  0  0  0
  7 18  1  0  0  0  0
  7 21  1  0  0  0  0
  8  9  1  0  0  0  0
  8 14  2  0  0  0  0
  9 21  2  0  0  0  0
 10 32  1  0  0  0  0
 10 33  1  0  0  0  0
 10 35  1  0  0  0  0
 11 12  1  0  0  0  0
 11 13  1  0  0  0  0
 12 16  1  0  0  0  0
 12 17  2  0  0  0  0
 13 15  2  0  0  0  0
 13 20  1  0  0  0  0
 16 22  2  0  0  0  0
 17 19  1  0  0  0  0
 18 25  1  0  0  0  0
 18 27  2  0  0  0  0
 19 23  1  0  0  0  0
 19 24  2  0  0  0  0
 20 26  1  0  0  0  0
 22 24  1  0  0  0  0
 23 28  2  0  0  0  0
 23 29  1  0  0  0  0
 25 30  2  0  0  0  0
 27 31  1  0  0  0  0
 28 32  1  0  0  0  0
 29 33  1  0  0  0  0
 30 34  1  0  0  0  0
 31 34  2  0  0  0  0
 36 37  1  0  0  0  0
 36 38  1  0  0  0  0
 36 39  1  0  0  0  0
M  END
> <PUBCHEM_COMPOUND_ID_TYPE>
0

> <PUBCHEM_TOTAL_CHARGE>
0

> <PUBCHEM_SUBSTANCE_ID>
310938870

> <PUBCHEM_SUBSTANCE_VERSION>
1

> <PUBCHEM_EXT_DATASOURCE_NAME>
4488

> <PUBCHEM_EXT_DATASOURCE_REGID>
SCHEMBL16116789

> <PUBCHEM_SUBSTANCE_COMMENT>
InChI=1S/C29H29ClN6O3/c1-29(2,3)39-28(37)34-13-10-19(11-14-34)20-8-9-25-22(16-20)26-21(12-15-38-25)17-36(33-26)27-32-31-18-35(27)24-7-5-4-6-23(24)30/h4-10,16-18H,11-15H2,1-3H3
InChIKey=LGLLOXXWJCGUFK-UHFFFAOYSA-N

> <PUBCHEM_SUBSTANCE_SYNONYM>
SCHEMBL16116789

> <PUBCHEM_XREF_EXT_ID>
SCHEMBL16116789

> <PUBCHEM_EXT_DATASOURCE_URL>
https://www.surechembl.org/

> <PUBCHEM_EXT_SUBSTANCE_URL>
https://www.surechembl.org/chemical/SCHEMBL16116789

> <PUBCHEM_CID_ASSOCIATIONS>
117606267  1

> <PUBCHEM_COORDINATE_TYPE>
1
3

$$$$
