310945416
  -OEChem-07211613022D

 25 28  0     0  0  0  0  0  0999 V2000
    2.8653    3.0339    0.0000 F   0  0  0  0  0  0  0  0  0  0  0  0
   -2.3083    1.4510    0.0000 O   0  0  0  0  0  0  0  0  0  0  0  0
   -0.2418   -3.0339    0.0000 O   0  0  0  0  0  0  0  0  0  0  0  0
    0.5203    0.7181    0.0000 N   0  0  0  0  0  0  0  0  0  0  0  0
    2.5576    1.6415    0.0000 N   0  0  0  0  0  0  0  0  0  0  0  0
   -0.2418   -1.3777    0.0000 N   0  0  0  0  0  0  0  0  0  0  0  0
    1.1945    1.2018    0.0000 C   0  0  0  0  0  0  0  0  0  0  0  0
    0.9307    1.9639    0.0000 C   0  0  0  0  0  0  0  0  0  0  0  0
    0.1099    1.9932    0.0000 C   0  0  0  0  0  0  0  0  0  0  0  0
   -0.1539    1.2018    0.0000 C   0  0  0  0  0  0  0  0  0  0  0  0
    2.0005    1.0260    0.0000 C   0  0  0  0  0  0  0  0  0  0  0  0
    1.4876    2.5942    0.0000 C   0  0  0  0  0  0  0  0  0  0  0  0
   -0.9454    1.0406    0.0000 C   0  0  0  0  0  0  0  0  0  0  0  0
   -0.4323    2.5795    0.0000 C   0  0  0  0  0  0  0  0  0  0  0  0
    0.5056   -0.1612    0.0000 C   0  0  0  0  0  0  0  0  0  0  0  0
    2.3083    2.4182    0.0000 C   0  0  0  0  0  0  0  0  0  0  0  0
   -1.5169    1.6415    0.0000 C   0  0  0  0  0  0  0  0  0  0  0  0
   -1.2385    2.4182    0.0000 C   0  0  0  0  0  0  0  0  0  0  0  0
   -0.2125   -0.5423    0.0000 C   0  0  0  0  0  0  0  0  0  0  0  0
    2.3229    0.1758    0.0000 C   0  0  0  0  0  0  0  0  0  0  0  0
   -0.9454   -1.7880    0.0000 C   0  0  0  0  0  0  0  0  0  0  0  0
    0.4910   -1.8027    0.0000 C   0  0  0  0  0  0  0  0  0  0  0  0
   -2.8653    2.0958    0.0000 C   0  0  0  0  0  0  0  0  0  0  0  0
   -0.9454   -2.6089    0.0000 C   0  0  0  0  0  0  0  0  0  0  0  0
    0.4763   -2.6089    0.0000 C   0  0  0  0  0  0  0  0  0  0  0  0
  1 16  1  0  0  0  0
  2 17  1  0  0  0  0
  2 23  1  0  0  0  0
  3 24  1  0  0  0  0
  3 25  1  0  0  0  0
  4  7  1  0  0  0  0
  4 10  1  0  0  0  0
  4 15  1  0  0  0  0
  5 11  2  0  0  0  0
  5 16  1  0  0  0  0
  6 19  1  0  0  0  0
  6 21  1  0  0  0  0
  6 22  1  0  0  0  0
  7  8  2  0  0  0  0
  7 11  1  0  0  0  0
  8  9  1  0  0  0  0
  8 12  1  0  0  0  0
  9 10  2  0  0  0  0
  9 14  1  0  0  0  0
 10 13  1  0  0  0  0
 11 20  1  0  0  0  0
 12 16  2  0  0  0  0
 13 17  2  0  0  0  0
 14 18  2  0  0  0  0
 15 19  1  0  0  0  0
 17 18  1  0  0  0  0
 21 24  1  0  0  0  0
 22 25  1  0  0  0  0
M  END
> <PUBCHEM_COMPOUND_ID_TYPE>
0

> <PUBCHEM_TOTAL_CHARGE>
0

> <PUBCHEM_SUBSTANCE_ID>
310945416

> <PUBCHEM_SUBSTANCE_VERSION>
1

> <PUBCHEM_EXT_DATASOURCE_NAME>
4488

> <PUBCHEM_EXT_DATASOURCE_REGID>
SCHEMBL16123514

> <PUBCHEM_SUBSTANCE_COMMENT>
InChI=1S/C19H22FN3O2/c1-13-19-16(12-18(20)21-13)15-4-3-14(24-2)11-17(15)23(19)6-5-22-7-9-25-10-8-22/h3-4,11-12H,5-10H2,1-2H3
InChIKey=XKBMZXCWPNTOBC-UHFFFAOYSA-N

> <PUBCHEM_SUBSTANCE_SYNONYM>
SCHEMBL16123514

> <PUBCHEM_XREF_EXT_ID>
SCHEMBL16123514

> <PUBCHEM_EXT_DATASOURCE_URL>
https://www.surechembl.org/

> <PUBCHEM_EXT_SUBSTANCE_URL>
https://www.surechembl.org/chemical/SCHEMBL16123514

> <PUBCHEM_CID_ASSOCIATIONS>
117611462  1

> <PUBCHEM_COORDINATE_TYPE>
1
3

$$$$
