310932891
  -OEChem-07211613022D

 33 36  0     0  0  0  0  0  0999 V2000
    4.0736   -2.7569    0.0000 O   0  0  0  0  0  0  0  0  0  0  0  0
    8.5586   -2.8392    0.0000 O   0  0  0  0  0  0  0  0  0  0  0  0
    9.2993   -8.2295    0.0000 O   0  0  0  0  0  0  0  0  0  0  0  0
    4.9788   -1.6047    0.0000 N   0  0  0  0  0  0  0  0  0  0  0  0
    4.8965   -0.7818    0.0000 N   0  0  0  0  0  0  0  0  0  0  0  0
    6.4190   -1.6047    0.0000 N   0  0  0  0  0  0  0  0  0  0  0  0
    7.8592   -4.0736    0.0000 N   0  0  0  0  0  0  0  0  0  0  0  0
    0.0000   -2.4688    0.0000 N   0  0  0  0  0  0  0  0  0  0  0  0
    9.2993   -6.5836    0.0000 N   0  0  0  0  0  0  0  0  0  0  0  0
    3.6210   -1.3579    0.0000 C   0  0  0  0  0  0  0  0  0  0  0  0
    4.1971   -1.9339    0.0000 C   0  0  0  0  0  0  0  0  0  0  0  0
    2.8392   -1.4401    0.0000 C   0  0  0  0  0  0  0  0  0  0  0  0
    5.6784   -2.0162    0.0000 C   0  0  0  0  0  0  0  0  0  0  0  0
    4.0736   -0.6172    0.0000 C   0  0  0  0  0  0  0  0  0  0  0  0
    2.3042   -0.7818    0.0000 C   0  0  0  0  0  0  0  0  0  0  0  0
    2.5100   -2.1808    0.0000 C   0  0  0  0  0  0  0  0  0  0  0  0
    5.6784   -2.8392    0.0000 C   0  0  0  0  0  0  0  0  0  0  0  0
    7.1185   -2.8392    0.0000 C   0  0  0  0  0  0  0  0  0  0  0  0
    1.5225   -0.8641    0.0000 C   0  0  0  0  0  0  0  0  0  0  0  0
    1.1521   -1.6047    0.0000 C   0  0  0  0  0  0  0  0  0  0  0  0
    7.1185   -2.0162    0.0000 C   0  0  0  0  0  0  0  0  0  0  0  0
    6.4190   -3.2506    0.0000 C   0  0  0  0  0  0  0  0  0  0  0  0
    1.6459   -2.2631    0.0000 C   0  0  0  0  0  0  0  0  0  0  0  0
    7.8592   -3.2506    0.0000 C   0  0  0  0  0  0  0  0  0  0  0  0
    2.6746    0.0000    0.0000 C   0  0  0  0  0  0  0  0  0  0  0  0
    0.3292   -1.7282    0.0000 C   0  0  0  0  0  0  0  0  0  0  0  0
    8.5586   -4.4851    0.0000 C   0  0  0  0  0  0  0  0  0  0  0  0
    8.5998   -5.3492    0.0000 C   0  0  0  0  0  0  0  0  0  0  0  0
    9.2993   -5.7195    0.0000 C   0  0  0  0  0  0  0  0  0  0  0  0
   10.0399   -6.9539    0.0000 C   0  0  0  0  0  0  0  0  0  0  0  0
    8.5998   -6.9951    0.0000 C   0  0  0  0  0  0  0  0  0  0  0  0
   10.0399   -7.8180    0.0000 C   0  0  0  0  0  0  0  0  0  0  0  0
    8.5998   -7.8180    0.0000 C   0  0  0  0  0  0  0  0  0  0  0  0
  1 11  1  0  0  0  0
  2 24  2  0  0  0  0
  3 32  1  0  0  0  0
  3 33  1  0  0  0  0
  4  5  1  0  0  0  0
  4 11  1  0  0  0  0
  4 13  1  0  0  0  0
  5 14  2  0  0  0  0
  6 13  2  0  0  0  0
  6 21  1  0  0  0  0
  7 24  1  0  0  0  0
  7 27  1  0  0  0  0
  8 26  3  0  0  0  0
  9 29  1  0  0  0  0
  9 30  1  0  0  0  0
  9 31  1  0  0  0  0
 10 11  2  0  0  0  0
 10 12  1  0  0  0  0
 10 14  1  0  0  0  0
 12 15  1  0  0  0  0
 12 16  2  0  0  0  0
 13 17  1  0  0  0  0
 15 19  2  0  0  0  0
 15 25  1  0  0  0  0
 16 23  1  0  0  0  0
 17 22  2  0  0  0  0
 18 21  2  0  0  0  0
 18 22  1  0  0  0  0
 18 24  1  0  0  0  0
 19 20  1  0  0  0  0
 20 23  2  0  0  0  0
 20 26  1  0  0  0  0
 27 28  1  0  0  0  0
 28 29  1  0  0  0  0
 30 32  1  0  0  0  0
 31 33  1  0  0  0  0
M  END
> <PUBCHEM_COMPOUND_ID_TYPE>
0

> <PUBCHEM_TOTAL_CHARGE>
0

> <PUBCHEM_SUBSTANCE_ID>
310932891

> <PUBCHEM_SUBSTANCE_VERSION>
1

> <PUBCHEM_EXT_DATASOURCE_NAME>
4488

> <PUBCHEM_EXT_DATASOURCE_REGID>
SCHEMBL16110284

> <PUBCHEM_SUBSTANCE_COMMENT>
InChI=1S/C24H26N6O3/c1-17-13-18(14-25)3-5-20(17)21-16-28-30(24(21)32)22-6-4-19(15-27-22)23(31)26-7-2-8-29-9-11-33-12-10-29/h3-6,13,15-16,32H,2,7-12H2,1H3,(H,26,31)
InChIKey=VWPTZDJJCAWLLP-UHFFFAOYSA-N

> <PUBCHEM_SUBSTANCE_SYNONYM>
SCHEMBL16110284

> <PUBCHEM_XREF_EXT_ID>
SCHEMBL16110284

> <PUBCHEM_EXT_DATASOURCE_URL>
https://www.surechembl.org/

> <PUBCHEM_EXT_SUBSTANCE_URL>
https://www.surechembl.org/chemical/SCHEMBL16110284

> <PUBCHEM_CID_ASSOCIATIONS>
117601373  1

> <PUBCHEM_COORDINATE_TYPE>
1
3

$$$$
