310936093
  -OEChem-07211613022D

 46 49  0     1  0  0  0  0  0999 V2000
  -11.1696    1.3481    0.0000 F   0  0  0  0  0  0  0  0  0  0  0  0
   -5.9420   -3.8616    0.0000 O   0  0  0  0  0  0  0  0  0  0  0  0
   -3.7986   -3.4491    0.0000 O   0  0  0  0  0  0  0  0  0  0  0  0
   -4.5130   -4.6866    0.0000 O   0  0  0  0  0  0  0  0  0  0  0  0
   -6.2196    1.3481    0.0000 O   0  0  0  0  0  0  0  0  0  0  0  0
   -8.6946   -0.0809    0.0000 O   0  0  0  0  0  0  0  0  0  0  0  0
   -5.2276   -0.9741    0.0000 N   0  0  0  0  0  0  0  0  0  0  0  0
   -6.6565   -2.6241    0.0000 N   0  0  0  0  0  0  0  0  0  0  0  0
   -5.3990   -0.1671    0.0000 N   0  0  0  0  0  0  0  0  0  0  0  0
   -7.4571    0.6335    0.0000 N   0  0  0  0  0  0  0  0  0  0  0  0
   -5.9420   -2.2116    0.0000 C   0  0  0  0  0  0  0  0  0  0  0  0
   -5.9420   -1.3866    0.0000 C   0  0  0  0  0  0  0  0  0  0  0  0
   -5.2276   -2.6241    0.0000 C   0  0  0  0  0  0  0  0  0  0  0  0
   -4.5130   -2.2116    0.0000 C   0  0  0  0  0  0  0  0  0  0  0  0
   -5.2276   -3.4491    0.0000 C   0  0  3  0  0  0  0  0  0  0  0  0
   -6.5551   -0.8346    0.0000 C   0  0  0  0  0  0  0  0  0  0  0  0
   -6.2196   -0.0809    0.0000 C   0  0  0  0  0  0  0  0  0  0  0  0
   -4.5130   -1.3866    0.0000 C   0  0  0  0  0  0  0  0  0  0  0  0
   -4.5130   -3.8616    0.0000 C   0  0  0  0  0  0  0  0  0  0  0  0
   -6.6565   -3.4491    0.0000 C   0  0  0  0  0  0  0  0  0  0  0  0
   -7.3710   -2.2116    0.0000 C   0  0  0  0  0  0  0  0  0  0  0  0
   -6.6321    0.6335    0.0000 C   0  0  0  0  0  0  0  0  0  0  0  0
   -8.0854   -3.4491    0.0000 C   0  0  0  0  0  0  0  0  0  0  0  0
   -7.3710   -3.8616    0.0000 C   0  0  0  0  0  0  0  0  0  0  0  0
   -8.0854   -2.6241    0.0000 C   0  0  0  0  0  0  0  0  0  0  0  0
   -3.7986   -2.6241    0.0000 C   0  0  0  0  0  0  0  0  0  0  0  0
   -5.9420   -4.6866    0.0000 C   0  0  0  0  0  0  0  0  0  0  0  0
   -8.7999   -3.8616    0.0000 C   0  0  0  0  0  0  0  0  0  0  0  0
   -8.0854   -4.2741    0.0000 C   0  0  0  0  0  0  0  0  0  0  0  0
   -7.8696    1.3481    0.0000 C   0  0  0  0  0  0  0  0  0  0  0  0
   -5.2276   -5.0991    0.0000 C   0  0  0  0  0  0  0  0  0  0  0  0
   -5.9420   -5.5116    0.0000 C   0  0  0  0  0  0  0  0  0  0  0  0
   -6.6565   -5.0991    0.0000 C   0  0  0  0  0  0  0  0  0  0  0  0
   -8.6946    1.3481    0.0000 C   0  0  0  0  0  0  0  0  0  0  0  0
   -9.5144   -3.4491    0.0000 C   0  0  0  0  0  0  0  0  0  0  0  0
   -9.1071    0.6335    0.0000 C   0  0  0  0  0  0  0  0  0  0  0  0
   -3.0841   -3.8616    0.0000 C   0  0  0  0  0  0  0  0  0  0  0  0
   -9.1071    2.0625    0.0000 C   0  0  0  0  0  0  0  0  0  0  0  0
   -9.9321    0.6335    0.0000 C   0  0  0  0  0  0  0  0  0  0  0  0
  -10.3446    1.3481    0.0000 C   0  0  0  0  0  0  0  0  0  0  0  0
   -9.9321    2.0625    0.0000 C   0  0  0  0  0  0  0  0  0  0  0  0
  -10.2288   -3.8616    0.0000 C   0  0  0  0  0  0  0  0  0  0  0  0
   -9.1071   -0.7954    0.0000 C   0  0  0  0  0  0  0  0  0  0  0  0
  -10.9433   -3.4491    0.0000 C   0  0  0  0  0  0  0  0  0  0  0  0
   -8.6946   -1.5099    0.0000 C   0  0  0  0  0  0  0  0  0  0  0  0
   -9.1071   -2.2243    0.0000 C   0  0  0  0  0  0  0  0  0  0  0  0
  1 40  1  0  0  0  0
 15  2  1  1  0  0  0
  2 27  1  0  0  0  0
  3 19  1  0  0  0  0
  3 37  1  0  0  0  0
  4 19  2  0  0  0  0
  5 22  2  0  0  0  0
  6 36  1  0  0  0  0
  6 43  1  0  0  0  0
  7  9  1  0  0  0  0
  7 12  1  0  0  0  0
  7 18  1  0  0  0  0
  8 11  1  0  0  0  0
  8 20  1  0  0  0  0
  8 21  1  0  0  0  0
  9 17  2  0  0  0  0
 10 22  1  0  0  0  0
 10 30  1  0  0  0  0
 11 12  1  0  0  0  0
 11 13  2  0  0  0  0
 12 16  2  0  0  0  0
 13 14  1  0  0  0  0
 13 15  1  0  0  0  0
 14 18  2  0  0  0  0
 14 26  1  0  0  0  0
 15 19  1  0  0  0  0
 16 17  1  0  0  0  0
 17 22  1  0  0  0  0
 20 24  1  0  0  0  0
 21 25  1  0  0  0  0
 23 24  1  0  0  0  0
 23 25  1  0  0  0  0
 23 28  1  0  0  0  0
 23 29  1  0  0  0  0
 27 31  1  0  0  0  0
 27 32  1  0  0  0  0
 27 33  1  0  0  0  0
 28 35  1  0  0  0  0
 30 34  1  0  0  0  0
 34 36  1  0  0  0  0
 34 38  2  0  0  0  0
 35 42  1  0  0  0  0
 36 39  2  0  0  0  0
 38 41  1  0  0  0  0
 39 40  1  0  0  0  0
 40 41  2  0  0  0  0
 42 44  2  0  0  0  0
 43 45  1  0  0  0  0
 45 46  2  0  0  0  0
M  END
> <PUBCHEM_COMPOUND_ID_TYPE>
0

> <PUBCHEM_TOTAL_CHARGE>
0

> <PUBCHEM_SUBSTANCE_ID>
310936093

> <PUBCHEM_SUBSTANCE_VERSION>
1

> <PUBCHEM_EXT_DATASOURCE_NAME>
4488

> <PUBCHEM_EXT_DATASOURCE_REGID>
SCHEMBL16113700

> <PUBCHEM_SUBSTANCE_COMMENT>
InChI=1S/C36H47FN4O5/c1-9-11-14-36(7)15-17-40(18-16-36)31-28-21-27(33(42)38-22-25-12-13-26(37)20-29(25)45-19-10-2)39-41(28)23-24(3)30(31)32(34(43)44-8)46-35(4,5)6/h9-10,12-13,20-21,23,32H,1-2,11,14-19,22H2,3-8H3,(H,38,42)/t32-/m0/s1
InChIKey=LGHXSMCMOIOTNW-YTTGMZPUSA-N

> <PUBCHEM_SUBSTANCE_SYNONYM>
SCHEMBL16113700

> <PUBCHEM_XREF_EXT_ID>
SCHEMBL16113700

> <PUBCHEM_EXT_DATASOURCE_URL>
https://www.surechembl.org/

> <PUBCHEM_EXT_SUBSTANCE_URL>
https://www.surechembl.org/chemical/SCHEMBL16113700

> <PUBCHEM_CID_ASSOCIATIONS>
117604060  1

> <PUBCHEM_COORDINATE_TYPE>
1
3

> <PUBCHEM_BONDANNOTATIONS>
15  2  5

$$$$
