310940962
  -OEChem-07211613022D

 41 44  0     1  0  0  0  0  0999 V2000
    5.1800    0.9780    0.0000 O   0  0  0  0  0  0  0  0  0  0  0  0
    4.0498   -0.9780    0.0000 O   0  0  0  0  0  0  0  0  0  0  0  0
    1.6880    0.9636    0.0000 O   0  0  0  0  0  0  0  0  0  0  0  0
   -0.4564   -1.1084    0.0000 O   0  0  0  0  0  0  0  0  0  0  0  0
   -2.6009    0.9636    0.0000 O   0  0  0  0  0  0  0  0  0  0  0  0
    3.8325   -2.7602    0.0000 O   0  0  0  0  0  0  0  0  0  0  0  0
   -5.4698   -1.5142    0.0000 O   0  0  0  0  0  0  0  0  0  0  0  0
    2.4125   -0.2826    0.0000 N   0  0  0  0  0  0  0  0  0  0  0  0
    0.2681    0.1376    0.0000 N   0  0  0  0  0  0  0  0  0  0  0  0
   -1.8909   -0.2826    0.0000 N   0  0  0  0  0  0  0  0  0  0  0  0
   -4.7598   -0.2826    0.0000 N   0  0  0  0  0  0  0  0  0  0  0  0
    4.7598    0.2971    0.0000 C   0  0  3  0  0  0  0  0  0  0  0  0
    4.0353   -0.1087    0.0000 C   0  0  0  0  0  0  0  0  0  0  0  0
    4.3830    0.9925    0.0000 C   0  0  0  0  0  0  0  0  0  0  0  0
    3.3398    0.2826    0.0000 C   0  0  3  0  0  0  0  0  0  0  0  0
    5.4698   -0.1231    0.0000 C   0  0  0  0  0  0  0  0  0  0  0  0
    3.3398    1.3547    0.0000 C   0  0  0  0  0  0  0  0  0  0  0  0
    1.6735    0.1376    0.0000 C   0  0  0  0  0  0  0  0  0  0  0  0
    0.9925   -0.2391    0.0000 C   0  0  3  0  0  0  0  0  0  0  0  0
    2.6154    1.7894    0.0000 C   0  0  0  0  0  0  0  0  0  0  0  0
    0.9636   -1.1084    0.0000 C   0  0  0  0  0  0  0  0  0  0  0  0
   -0.4419   -0.2246    0.0000 C   0  0  0  0  0  0  0  0  0  0  0  0
    1.7025   -1.4852    0.0000 C   0  0  0  0  0  0  0  0  0  0  0  0
    1.8619    1.4562    0.0000 C   0  0  0  0  0  0  0  0  0  0  0  0
    2.5284    2.6009    0.0000 C   0  0  0  0  0  0  0  0  0  0  0  0
   -1.1809    0.1521    0.0000 C   0  0  3  0  0  0  0  0  0  0  0  0
   -2.5574    0.1376    0.0000 C   0  0  0  0  0  0  0  0  0  0  0  0
   -3.3253   -0.2536    0.0000 C   0  0  3  0  0  0  0  0  0  0  0  0
    1.3258    2.0647    0.0000 C   0  0  0  0  0  0  0  0  0  0  0  0
    1.7315    2.7602    0.0000 C   0  0  0  0  0  0  0  0  0  0  0  0
    1.7025   -2.3255    0.0000 C   0  0  0  0  0  0  0  0  0  0  0  0
    2.3980   -1.0939    0.0000 C   0  0  0  0  0  0  0  0  0  0  0  0
    3.1225   -2.3111    0.0000 C   0  0  0  0  0  0  0  0  0  0  0  0
    2.4125   -2.7312    0.0000 C   0  0  0  0  0  0  0  0  0  0  0  0
    3.1225   -1.4997    0.0000 C   0  0  0  0  0  0  0  0  0  0  0  0
   -4.0643    0.1521    0.0000 C   0  0  0  0  0  0  0  0  0  0  0  0
   -3.3253   -1.0794    0.0000 C   0  0  0  0  0  0  0  0  0  0  0  0
   -1.1664    0.9780    0.0000 C   0  0  0  0  0  0  0  0  0  0  0  0
   -4.7453   -1.0649    0.0000 C   0  0  0  0  0  0  0  0  0  0  0  0
   -4.0063   -1.4852    0.0000 C   0  0  0  0  0  0  0  0  0  0  0  0
    4.5714   -2.3111    0.0000 C   0  0  0  0  0  0  0  0  0  0  0  0
  1 12  1  0  0  0  0
  1 14  1  0  0  0  0
  2 13  2  0  0  0  0
  3 18  2  0  0  0  0
  4 22  2  0  0  0  0
  5 27  2  0  0  0  0
  6 33  1  0  0  0  0
  6 41  1  0  0  0  0
  7 39  2  0  0  0  0
 15  8  1  1  0  0  0
  8 18  1  0  0  0  0
 19  9  1  6  0  0  0
  9 22  1  0  0  0  0
 10 26  1  0  0  0  0
 10 27  1  0  0  0  0
 11 36  1  0  0  0  0
 11 39  1  0  0  0  0
 12 13  1  1  0  0  0
 12 14  1  0  0  0  0
 12 16  1  6  0  0  0
 13 15  1  0  0  0  0
 15 17  1  0  0  0  0
 17 20  1  0  0  0  0
 18 19  1  0  0  0  0
 19 21  1  0  0  0  0
 20 24  1  0  0  0  0
 20 25  1  0  0  0  0
 21 23  1  0  0  0  0
 22 26  1  0  0  0  0
 23 31  2  0  0  0  0
 23 32  1  0  0  0  0
 24 29  1  0  0  0  0
 25 30  1  0  0  0  0
 26 38  1  6  0  0  0
 28 27  1  6  0  0  0
 28 36  1  0  0  0  0
 28 37  1  0  0  0  0
 29 30  1  0  0  0  0
 31 34  1  0  0  0  0
 32 35  2  0  0  0  0
 33 34  2  0  0  0  0
 33 35  1  0  0  0  0
 37 40  1  0  0  0  0
 39 40  1  0  0  0  0
M  END
> <PUBCHEM_COMPOUND_ID_TYPE>
0

> <PUBCHEM_TOTAL_CHARGE>
0

> <PUBCHEM_SUBSTANCE_ID>
310940962

> <PUBCHEM_SUBSTANCE_VERSION>
1

> <PUBCHEM_EXT_DATASOURCE_NAME>
4488

> <PUBCHEM_EXT_DATASOURCE_REGID>
SCHEMBL16118921

> <PUBCHEM_SUBSTANCE_COMMENT>
InChI=1S/C30H42N4O7/c1-18(32-28(38)21-10-13-25(35)31-16-21)27(37)34-24(15-20-8-11-22(40-3)12-9-20)29(39)33-23(14-19-6-4-5-7-19)26(36)30(2)17-41-30/h8-9,11-12,18-19,21,23-24H,4-7,10,13-17H2,1-3H3,(H,31,35)(H,32,38)(H,33,39)(H,34,37)/t18-,21-,23+,24+,30-/m1/s1
InChIKey=RKPFVMJLWKSSON-GUSQGKPTSA-N

> <PUBCHEM_SUBSTANCE_SYNONYM>
SCHEMBL16118921

> <PUBCHEM_XREF_EXT_ID>
SCHEMBL16118921

> <PUBCHEM_EXT_DATASOURCE_URL>
https://www.surechembl.org/

> <PUBCHEM_EXT_SUBSTANCE_URL>
https://www.surechembl.org/chemical/SCHEMBL16118921

> <PUBCHEM_CID_ASSOCIATIONS>
117607870  1

> <PUBCHEM_COORDINATE_TYPE>
1
3

> <PUBCHEM_BONDANNOTATIONS>
12  13  5
12  16  6
26  38  6
28  27  6
15  8  5
19  9  6

$$$$
