310949087
  -OEChem-07211613022D

 24 25  0     0  0  0  0  0  0999 V2000
   -0.6213    1.3587    0.0000 F   0  0  0  0  0  0  0  0  0  0  0  0
    2.3146   -1.1812    0.0000 O   0  0  0  0  0  0  0  0  0  0  0  0
    3.6665   -0.3209    0.0000 O   0  0  0  0  0  0  0  0  0  0  0  0
    0.8262   -0.3618    0.0000 N   0  0  0  0  0  0  0  0  0  0  0  0
    0.8262    2.1780    0.0000 N   0  0  0  0  0  0  0  0  0  0  0  0
    0.0478    0.0341    0.0000 C   0  0  0  0  0  0  0  0  0  0  0  0
    1.5226    0.0341    0.0000 C   0  0  0  0  0  0  0  0  0  0  0  0
    1.5362    0.9217    0.0000 C   0  0  0  0  0  0  0  0  0  0  0  0
    0.0614    0.9217    0.0000 C   0  0  0  0  0  0  0  0  0  0  0  0
    0.8125    1.3177    0.0000 C   0  0  0  0  0  0  0  0  0  0  0  0
   -0.6486   -0.3755    0.0000 C   0  0  0  0  0  0  0  0  0  0  0  0
    2.2873   -0.3618    0.0000 C   0  0  0  0  0  0  0  0  0  0  0  0
    2.2736    1.3177    0.0000 C   0  0  0  0  0  0  0  0  0  0  0  0
   -1.3587    0.0068    0.0000 C   0  0  0  0  0  0  0  0  0  0  0  0
   -0.6623   -1.2085    0.0000 C   0  0  0  0  0  0  0  0  0  0  0  0
   -2.1370   -1.1949    0.0000 C   0  0  0  0  0  0  0  0  0  0  0  0
   -2.1098   -0.3892    0.0000 C   0  0  0  0  0  0  0  0  0  0  0  0
   -1.3451   -1.6181    0.0000 C   0  0  0  0  0  0  0  0  0  0  0  0
    3.0110    0.0614    0.0000 C   0  0  0  0  0  0  0  0  0  0  0  0
    2.6150    1.0583    0.0000 C   0  0  0  0  0  0  0  0  0  0  0  0
   -2.8062   -1.6181    0.0000 C   0  0  0  0  0  0  0  0  0  0  0  0
   -3.3661   -1.7547    0.0000 C   0  0  0  0  0  0  0  0  0  0  0  0
   -3.3797   -2.1780    0.0000 C   0  0  0  0  0  0  0  0  0  0  0  0
   -3.6665   -1.8230    0.0000 C   0  0  0  0  0  0  0  0  0  0  0  0
  1  9  1  0  0  0  0
  2 12  2  0  0  0  0
  3 19  1  0  0  0  0
  4  6  2  0  0  0  0
  4  7  1  0  0  0  0
  5 10  1  0  0  0  0
  6  9  1  0  0  0  0
  6 11  1  0  0  0  0
  7  8  2  0  0  0  0
  7 12  1  0  0  0  0
  8 10  1  0  0  0  0
  8 13  1  0  0  0  0
  9 10  2  0  0  0  0
 11 14  2  0  0  0  0
 11 15  1  0  0  0  0
 12 19  1  0  0  0  0
 13 20  2  0  0  0  0
 14 17  1  0  0  0  0
 15 18  2  0  0  0  0
 16 17  2  0  0  0  0
 16 18  1  0  0  0  0
 16 21  1  0  0  0  0
 21 22  3  0  0  0  0
 22 23  1  0  0  0  0
 23 24  2  0  0  0  0
M  END
> <PUBCHEM_COMPOUND_ID_TYPE>
0

> <PUBCHEM_TOTAL_CHARGE>
0

> <PUBCHEM_SUBSTANCE_ID>
310949087

> <PUBCHEM_SUBSTANCE_VERSION>
1

> <PUBCHEM_EXT_DATASOURCE_NAME>
4488

> <PUBCHEM_EXT_DATASOURCE_REGID>
SCHEMBL16127277

> <PUBCHEM_SUBSTANCE_COMMENT>
InChI=1S/C19H15FN2O2/c1-3-5-6-12-7-9-13(10-8-12)18-16(20)17(21)14(4-2)19(22-18)15(24)11-23/h3-4,7-10,23H,1-2,11H2,(H2,21,22)
InChIKey=PGBYYWGZQVNTIY-UHFFFAOYSA-N

> <PUBCHEM_SUBSTANCE_SYNONYM>
SCHEMBL16127277

> <PUBCHEM_XREF_EXT_ID>
SCHEMBL16127277

> <PUBCHEM_EXT_DATASOURCE_URL>
https://www.surechembl.org/

> <PUBCHEM_EXT_SUBSTANCE_URL>
https://www.surechembl.org/chemical/SCHEMBL16127277

> <PUBCHEM_CID_ASSOCIATIONS>
117614592  1

> <PUBCHEM_COORDINATE_TYPE>
1
3

$$$$
