310945545
  -OEChem-07211613022D

 25 27  0     0  0  0  0  0  0999 V2000
    1.0928    0.9329    0.0000 F   0  0  0  0  0  0  0  0  0  0  0  0
    1.8570    1.8392    0.0000 F   0  0  0  0  0  0  0  0  0  0  0  0
    2.6210    0.9329    0.0000 F   0  0  0  0  0  0  0  0  0  0  0  0
   -3.0653   -1.8392    0.0000 F   0  0  0  0  0  0  0  0  0  0  0  0
   -3.8471   -0.9152    0.0000 F   0  0  0  0  0  0  0  0  0  0  0  0
   -3.0653    0.0089    0.0000 F   0  0  0  0  0  0  0  0  0  0  0  0
    3.1719   -1.8214    0.0000 O   0  0  0  0  0  0  0  0  0  0  0  0
    0.4531   -0.1688    0.0000 N   0  0  0  0  0  0  0  0  0  0  0  0
    0.4531   -1.6437    0.0000 N   0  0  0  0  0  0  0  0  0  0  0  0
    2.5144   -0.4353    0.0000 N   0  0  0  0  0  0  0  0  0  0  0  0
    1.8570   -1.8214    0.0000 N   0  0  0  0  0  0  0  0  0  0  0  0
   -1.9280   -1.6970    0.0000 N   0  0  0  0  0  0  0  0  0  0  0  0
    1.1995   -0.4886    0.0000 C   0  0  0  0  0  0  0  0  0  0  0  0
    1.8392   -0.0267    0.0000 C   0  0  0  0  0  0  0  0  0  0  0  0
    1.1639   -1.3771    0.0000 C   0  0  0  0  0  0  0  0  0  0  0  0
   -0.0089   -0.9507    0.0000 C   0  0  0  0  0  0  0  0  0  0  0  0
    1.8570    0.8974    0.0000 C   0  0  0  0  0  0  0  0  0  0  0  0
   -0.7730   -0.9329    0.0000 C   0  0  0  0  0  0  0  0  0  0  0  0
    2.5144   -1.4127    0.0000 C   0  0  0  0  0  0  0  0  0  0  0  0
   -2.3190   -0.9685    0.0000 C   0  0  0  0  0  0  0  0  0  0  0  0
   -1.1639   -1.7325    0.0000 C   0  0  0  0  0  0  0  0  0  0  0  0
   -1.1462   -0.1688    0.0000 C   0  0  0  0  0  0  0  0  0  0  0  0
   -3.0653   -0.9507    0.0000 C   0  0  0  0  0  0  0  0  0  0  0  0
   -1.9280   -0.1688    0.0000 C   0  0  0  0  0  0  0  0  0  0  0  0
    3.8471   -1.3594    0.0000 C   0  0  0  0  0  0  0  0  0  0  0  0
  1 17  1  0  0  0  0
  2 17  1  0  0  0  0
  3 17  1  0  0  0  0
  4 23  1  0  0  0  0
  5 23  1  0  0  0  0
  6 23  1  0  0  0  0
  7 19  1  0  0  0  0
  7 25  1  0  0  0  0
  8 13  1  0  0  0  0
  8 16  2  0  0  0  0
  9 15  1  0  0  0  0
  9 16  1  0  0  0  0
 10 14  2  0  0  0  0
 10 19  1  0  0  0  0
 11 15  1  0  0  0  0
 11 19  2  0  0  0  0
 12 20  1  0  0  0  0
 12 21  2  0  0  0  0
 13 14  1  0  0  0  0
 13 15  2  0  0  0  0
 14 17  1  0  0  0  0
 16 18  1  0  0  0  0
 18 21  1  0  0  0  0
 18 22  2  0  0  0  0
 20 23  1  0  0  0  0
 20 24  2  0  0  0  0
 22 24  1  0  0  0  0
M  END
> <PUBCHEM_COMPOUND_ID_TYPE>
0

> <PUBCHEM_TOTAL_CHARGE>
0

> <PUBCHEM_SUBSTANCE_ID>
310945545

> <PUBCHEM_SUBSTANCE_VERSION>
1

> <PUBCHEM_EXT_DATASOURCE_NAME>
4488

> <PUBCHEM_EXT_DATASOURCE_REGID>
SCHEMBL16123643

> <PUBCHEM_SUBSTANCE_COMMENT>
InChI=1S/C13H7F6N5O/c1-25-11-22-8(13(17,18)19)7-10(24-11)23-9(21-7)5-2-3-6(20-4-5)12(14,15)16/h2-4H,1H3,(H,21,22,23,24)
InChIKey=ZSLKDTNRQANFGL-UHFFFAOYSA-N

> <PUBCHEM_SUBSTANCE_SYNONYM>
SCHEMBL16123643

> <PUBCHEM_XREF_EXT_ID>
SCHEMBL16123643

> <PUBCHEM_EXT_DATASOURCE_URL>
https://www.surechembl.org/

> <PUBCHEM_EXT_SUBSTANCE_URL>
https://www.surechembl.org/chemical/SCHEMBL16123643

> <PUBCHEM_CID_ASSOCIATIONS>
117611586  1

> <PUBCHEM_COORDINATE_TYPE>
1
3

$$$$
