310940393
  -OEChem-07211613022D

 16 17  0     0  0  0  0  0  0999 V2000
   -3.2347    0.7741    0.0000 F   0  0  0  0  0  0  0  0  0  0  0  0
    1.7556    0.0415    0.0000 O   0  0  0  0  0  0  0  0  0  0  0  0
    0.0553    0.2765    0.0000 N   0  0  0  0  0  0  0  0  0  0  0  0
    3.2347    0.9538    0.0000 N   0  0  0  0  0  0  0  0  0  0  0  0
    1.2164   -0.5668    0.0000 C   0  0  0  0  0  0  0  0  0  0  0  0
    2.5297   -0.2765    0.0000 C   0  0  0  0  0  0  0  0  0  0  0  0
   -0.7603    0.3733    0.0000 C   0  0  0  0  0  0  0  0  0  0  0  0
    1.6450   -1.2717    0.0000 C   0  0  0  0  0  0  0  0  0  0  0  0
    0.3871   -0.4562    0.0000 C   0  0  0  0  0  0  0  0  0  0  0  0
    2.4329   -1.1058    0.0000 C   0  0  0  0  0  0  0  0  0  0  0  0
   -1.0644    1.1335    0.0000 C   0  0  0  0  0  0  0  0  0  0  0  0
   -1.2856   -0.2627    0.0000 C   0  0  0  0  0  0  0  0  0  0  0  0
   -2.4052    0.6221    0.0000 C   0  0  0  0  0  0  0  0  0  0  0  0
    3.2347    0.1244    0.0000 C   0  0  0  0  0  0  0  0  0  0  0  0
   -1.8800    1.2717    0.0000 C   0  0  0  0  0  0  0  0  0  0  0  0
   -2.1011   -0.1244    0.0000 C   0  0  0  0  0  0  0  0  0  0  0  0
  1 13  1  0  0  0  0
  2  5  1  0  0  0  0
  2  6  1  0  0  0  0
  3  7  1  0  0  0  0
  3  9  2  0  0  0  0
  4 14  2  3  0  0  0
  5  8  2  0  0  0  0
  5  9  1  0  0  0  0
  6 10  2  0  0  0  0
  6 14  1  0  0  0  0
  7 11  2  0  0  0  0
  7 12  1  0  0  0  0
  8 10  1  0  0  0  0
 11 15  1  0  0  0  0
 12 16  2  0  0  0  0
 13 15  2  0  0  0  0
 13 16  1  0  0  0  0
M  END
> <PUBCHEM_COMPOUND_ID_TYPE>
0

> <PUBCHEM_TOTAL_CHARGE>
0

> <PUBCHEM_SUBSTANCE_ID>
310940393

> <PUBCHEM_SUBSTANCE_VERSION>
1

> <PUBCHEM_EXT_DATASOURCE_NAME>
4488

> <PUBCHEM_EXT_DATASOURCE_REGID>
SCHEMBL16118339

> <PUBCHEM_SUBSTANCE_COMMENT>
InChI=1S/C12H9FN2O/c13-9-1-3-10(4-2-9)15-8-12-6-5-11(7-14)16-12/h1-8,14H/b14-7?,15-8+
InChIKey=PYPANDKOSAJJPK-QMAYSTCJSA-N

> <PUBCHEM_SUBSTANCE_SYNONYM>
SCHEMBL16118339

> <PUBCHEM_XREF_EXT_ID>
SCHEMBL16118339

> <PUBCHEM_EXT_DATASOURCE_URL>
https://www.surechembl.org/

> <PUBCHEM_EXT_SUBSTANCE_URL>
https://www.surechembl.org/chemical/SCHEMBL16118339

> <PUBCHEM_CID_ASSOCIATIONS>
117607423  1

> <PUBCHEM_COORDINATE_TYPE>
1
3

> <PUBCHEM_BONDANNOTATIONS>
3  7  3

$$$$
