310944646
  -OEChem-07211613022D

 30 32  0     0  0  0  0  0  0999 V2000
   -2.1487   -2.9015    0.0000 F   0  0  0  0  0  0  0  0  0  0  0  0
    2.1318    2.9015    0.0000 F   0  0  0  0  0  0  0  0  0  0  0  0
   -2.1995    1.1759    0.0000 N   0  0  0  0  0  0  0  0  0  0  0  0
    2.1149   -1.1928    0.0000 N   0  0  0  0  0  0  0  0  0  0  0  0
   -4.2974   -2.5294    0.0000 N   0  0  0  0  0  0  0  0  0  0  0  0
    4.2974    2.4278    0.0000 N   0  0  0  0  0  0  0  0  0  0  0  0
   -0.7444   -0.3976    0.0000 C   0  0  0  0  0  0  0  0  0  0  0  0
    0.6937    0.4314    0.0000 C   0  0  0  0  0  0  0  0  0  0  0  0
   -1.4719   -0.8375    0.0000 C   0  0  0  0  0  0  0  0  0  0  0  0
    1.3873    0.8544    0.0000 C   0  0  0  0  0  0  0  0  0  0  0  0
   -0.0169   -0.8037    0.0000 C   0  0  0  0  0  0  0  0  0  0  0  0
   -0.0338    0.8206    0.0000 C   0  0  0  0  0  0  0  0  0  0  0  0
   -0.7106    0.4145    0.0000 C   0  0  0  0  0  0  0  0  0  0  0  0
    0.6937   -0.3806    0.0000 C   0  0  0  0  0  0  0  0  0  0  0  0
   -2.1995   -0.4314    0.0000 C   0  0  0  0  0  0  0  0  0  0  0  0
    2.1318    0.4653    0.0000 C   0  0  0  0  0  0  0  0  0  0  0  0
   -1.4889   -1.6496    0.0000 C   0  0  0  0  0  0  0  0  0  0  0  0
    1.4212    1.6834    0.0000 C   0  0  0  0  0  0  0  0  0  0  0  0
   -2.1656   -2.0388    0.0000 C   0  0  0  0  0  0  0  0  0  0  0  0
   -2.9101   -1.6496    0.0000 C   0  0  0  0  0  0  0  0  0  0  0  0
    2.1149    2.0895    0.0000 C   0  0  0  0  0  0  0  0  0  0  0  0
    2.8424    1.7003    0.0000 C   0  0  0  0  0  0  0  0  0  0  0  0
   -2.8931   -0.8544    0.0000 C   0  0  0  0  0  0  0  0  0  0  0  0
    2.8254    0.8544    0.0000 C   0  0  0  0  0  0  0  0  0  0  0  0
   -2.1995    0.3806    0.0000 C   0  0  0  0  0  0  0  0  0  0  0  0
    2.1149   -0.3806    0.0000 C   0  0  0  0  0  0  0  0  0  0  0  0
   -0.0169   -1.6496    0.0000 C   0  0  0  0  0  0  0  0  0  0  0  0
   -0.0169    1.6496    0.0000 C   0  0  0  0  0  0  0  0  0  0  0  0
   -3.6207   -2.1065    0.0000 C   0  0  0  0  0  0  0  0  0  0  0  0
    3.5699    2.0895    0.0000 C   0  0  0  0  0  0  0  0  0  0  0  0
  1 19  1  0  0  0  0
  2 21  1  0  0  0  0
  3 25  3  0  0  0  0
  4 26  3  0  0  0  0
  5 29  3  0  0  0  0
  6 30  3  0  0  0  0
  7  9  1  0  0  0  0
  7 11  2  0  0  0  0
  7 13  1  0  0  0  0
  8 10  1  0  0  0  0
  8 12  1  0  0  0  0
  8 14  2  0  0  0  0
  9 15  2  0  0  0  0
  9 17  1  0  0  0  0
 10 16  1  0  0  0  0
 10 18  2  0  0  0  0
 11 14  1  0  0  0  0
 11 27  1  0  0  0  0
 12 13  2  0  0  0  0
 12 28  1  0  0  0  0
 15 23  1  0  0  0  0
 15 25  1  0  0  0  0
 16 24  2  0  0  0  0
 16 26  1  0  0  0  0
 17 19  2  0  0  0  0
 18 21  1  0  0  0  0
 19 20  1  0  0  0  0
 20 23  2  0  0  0  0
 20 29  1  0  0  0  0
 21 22  2  0  0  0  0
 22 24  1  0  0  0  0
 22 30  1  0  0  0  0
M  END
> <PUBCHEM_COMPOUND_ID_TYPE>
0

> <PUBCHEM_TOTAL_CHARGE>
0

> <PUBCHEM_SUBSTANCE_ID>
310944646

> <PUBCHEM_SUBSTANCE_VERSION>
1

> <PUBCHEM_EXT_DATASOURCE_NAME>
4488

> <PUBCHEM_EXT_DATASOURCE_REGID>
SCHEMBL16122724

> <PUBCHEM_SUBSTANCE_COMMENT>
InChI=1S/C24H12F2N4/c1-13-3-20(22-8-24(26)18(12-30)6-16(22)10-28)14(2)4-19(13)21-7-23(25)17(11-29)5-15(21)9-27/h3-8H,1-2H3
InChIKey=KEPZAOZLXZNOOU-UHFFFAOYSA-N

> <PUBCHEM_SUBSTANCE_SYNONYM>
SCHEMBL16122724

> <PUBCHEM_XREF_EXT_ID>
SCHEMBL16122724

> <PUBCHEM_EXT_DATASOURCE_URL>
https://www.surechembl.org/

> <PUBCHEM_EXT_SUBSTANCE_URL>
https://www.surechembl.org/chemical/SCHEMBL16122724

> <PUBCHEM_CID_ASSOCIATIONS>
117610876  1

> <PUBCHEM_COORDINATE_TYPE>
1
3

$$$$
