310941475
  -OEChem-07211613022D

 22 23  0     1  0  0  0  0  0999 V2000
    2.6084    2.1959    0.0000 O   0  0  0  0  0  0  0  0  0  0  0  0
    1.8926    1.0434    0.0000 O   0  0  0  0  0  0  0  0  0  0  0  0
    0.4974    1.0434    0.0000 N   0  0  0  0  0  0  0  0  0  0  0  0
    1.8926   -2.1959    0.0000 N   0  0  0  0  0  0  0  0  0  0  0  0
   -0.2063    0.6430    0.0000 C   0  0  0  0  0  0  0  0  0  0  0  0
   -1.1040    1.0312    0.0000 C   0  0  0  0  0  0  0  0  0  0  0  0
   -0.2184   -0.1820    0.0000 C   0  0  0  0  0  0  0  0  0  0  0  0
    1.2011    0.6430    0.0000 C   0  0  3  0  0  0  0  0  0  0  0  0
   -0.9220   -0.5944    0.0000 C   0  0  0  0  0  0  0  0  0  0  0  0
   -1.1889    1.8319    0.0000 C   0  0  0  0  0  0  0  0  0  0  0  0
    0.4974   -0.5944    0.0000 C   0  0  0  0  0  0  0  0  0  0  0  0
   -1.7470    0.5460    0.0000 C   0  0  0  0  0  0  0  0  0  0  0  0
    1.9047    1.8441    0.0000 C   0  0  0  0  0  0  0  0  0  0  0  0
    1.2011   -0.1820    0.0000 C   0  0  0  0  0  0  0  0  0  0  0  0
   -0.9220   -1.4316    0.0000 C   0  0  0  0  0  0  0  0  0  0  0  0
   -1.9412    2.1595    0.0000 C   0  0  0  0  0  0  0  0  0  0  0  0
    0.4974   -1.4316    0.0000 C   0  0  0  0  0  0  0  0  0  0  0  0
   -2.5114    0.8735    0.0000 C   0  0  0  0  0  0  0  0  0  0  0  0
   -0.2184   -1.8562    0.0000 C   0  0  0  0  0  0  0  0  0  0  0  0
   -2.6084    1.6742    0.0000 C   0  0  0  0  0  0  0  0  0  0  0  0
    1.8926   -0.5702    0.0000 C   0  0  0  0  0  0  0  0  0  0  0  0
    1.8926   -1.3831    0.0000 C   0  0  0  0  0  0  0  0  0  0  0  0
  1 13  2  0  0  0  0
  2 13  1  0  0  0  0
  3  5  2  0  0  0  0
  8  3  1  6  0  0  0
  4 22  3  0  0  0  0
  5  6  1  0  0  0  0
  5  7  1  0  0  0  0
  6 10  2  0  0  0  0
  6 12  1  0  0  0  0
  7  9  2  0  0  0  0
  7 11  1  0  0  0  0
  8 13  1  0  0  0  0
  8 14  1  0  0  0  0
  9 15  1  0  0  0  0
 10 16  1  0  0  0  0
 11 17  2  0  0  0  0
 12 18  2  0  0  0  0
 14 21  1  0  0  0  0
 15 19  2  0  0  0  0
 16 20  2  0  0  0  0
 17 19  1  0  0  0  0
 18 20  1  0  0  0  0
 21 22  1  0  0  0  0
M  END
> <PUBCHEM_COMPOUND_ID_TYPE>
0

> <PUBCHEM_TOTAL_CHARGE>
0

> <PUBCHEM_SUBSTANCE_ID>
310941475

> <PUBCHEM_SUBSTANCE_VERSION>
1

> <PUBCHEM_EXT_DATASOURCE_NAME>
4488

> <PUBCHEM_EXT_DATASOURCE_REGID>
SCHEMBL16119506

> <PUBCHEM_SUBSTANCE_COMMENT>
InChI=1S/C18H16N2O2/c19-13-7-12-16(18(21)22)20-17(14-8-3-1-4-9-14)15-10-5-2-6-11-15/h1-6,8-11,16H,7,12H2,(H,21,22)/t16-/m0/s1
InChIKey=FYQHXQVDFLNLFR-INIZCTEOSA-N

> <PUBCHEM_SUBSTANCE_SYNONYM>
SCHEMBL16119506

> <PUBCHEM_XREF_EXT_ID>
SCHEMBL16119506

> <PUBCHEM_EXT_DATASOURCE_URL>
https://www.surechembl.org/

> <PUBCHEM_EXT_SUBSTANCE_URL>
https://www.surechembl.org/chemical/SCHEMBL16119506

> <PUBCHEM_CID_ASSOCIATIONS>
117608297  1

> <PUBCHEM_COORDINATE_TYPE>
1
3

> <PUBCHEM_BONDANNOTATIONS>
8  3  6

$$$$
