310949644
  -OEChem-07211613022D

 23 24  0     0  0  0  0  0  0999 V2000
    0.1650   -1.0656    0.0000 Cl  0  0  0  0  0  0  0  0  0  0  0  0
    1.6775    1.0519    0.0000 O   0  0  0  0  0  0  0  0  0  0  0  0
    2.5025    1.0519    0.0000 O   0  0  0  0  0  0  0  0  0  0  0  0
    3.7537    0.3506    0.0000 O   0  0  0  0  0  0  0  0  0  0  0  0
   -3.7537    1.7669    0.0000 O   0  0  0  0  0  0  0  0  0  0  0  0
   -3.7537    0.3506    0.0000 O   0  0  0  0  0  0  0  0  0  0  0  0
    0.4262    0.3506    0.0000 N   0  0  0  0  0  0  0  0  0  0  0  0
    1.6775   -0.3506    0.0000 C   0  0  0  0  0  0  0  0  0  0  0  0
    2.4887   -0.3506    0.0000 C   0  0  0  0  0  0  0  0  0  0  0  0
    1.2650   -1.0519    0.0000 C   0  0  0  0  0  0  0  0  0  0  0  0
    1.2375    0.3368    0.0000 C   0  0  0  0  0  0  0  0  0  0  0  0
    2.9287    0.3368    0.0000 C   0  0  0  0  0  0  0  0  0  0  0  0
    2.9150   -1.0656    0.0000 C   0  0  0  0  0  0  0  0  0  0  0  0
    1.6775   -1.7669    0.0000 C   0  0  0  0  0  0  0  0  0  0  0  0
    2.5025   -1.7669    0.0000 C   0  0  0  0  0  0  0  0  0  0  0  0
   -0.8387    1.0519    0.0000 C   0  0  0  0  0  0  0  0  0  0  0  0
    0.0137    1.0381    0.0000 C   0  0  0  0  0  0  0  0  0  0  0  0
   -2.5025    1.0519    0.0000 C   0  0  0  0  0  0  0  0  0  0  0  0
   -1.2512    1.7669    0.0000 C   0  0  0  0  0  0  0  0  0  0  0  0
   -1.2512    0.3643    0.0000 C   0  0  0  0  0  0  0  0  0  0  0  0
   -2.0762    1.7669    0.0000 C   0  0  0  0  0  0  0  0  0  0  0  0
   -2.0762    0.3506    0.0000 C   0  0  0  0  0  0  0  0  0  0  0  0
   -3.3275    1.0519    0.0000 C   0  0  0  0  0  0  0  0  0  0  0  0
  1 10  1  0  0  0  0
  2 11  2  0  0  0  0
  3 12  2  0  0  0  0
  4 12  1  0  0  0  0
  5 23  2  0  0  0  0
  6 23  1  0  0  0  0
  7 11  1  0  0  0  0
  7 17  1  0  0  0  0
  8  9  2  0  0  0  0
  8 10  1  0  0  0  0
  8 11  1  0  0  0  0
  9 12  1  0  0  0  0
  9 13  1  0  0  0  0
 10 14  2  0  0  0  0
 13 15  2  0  0  0  0
 14 15  1  0  0  0  0
 16 17  1  0  0  0  0
 16 19  2  0  0  0  0
 16 20  1  0  0  0  0
 18 21  2  0  0  0  0
 18 22  1  0  0  0  0
 18 23  1  0  0  0  0
 19 21  1  0  0  0  0
 20 22  2  0  0  0  0
M  END
> <PUBCHEM_COMPOUND_ID_TYPE>
0

> <PUBCHEM_TOTAL_CHARGE>
0

> <PUBCHEM_SUBSTANCE_ID>
310949644

> <PUBCHEM_SUBSTANCE_VERSION>
1

> <PUBCHEM_EXT_DATASOURCE_NAME>
4488

> <PUBCHEM_EXT_DATASOURCE_REGID>
SCHEMBL16127842

> <PUBCHEM_SUBSTANCE_COMMENT>
InChI=1S/C16H12ClNO5/c17-12-3-1-2-11(16(22)23)13(12)14(19)18-8-9-4-6-10(7-5-9)15(20)21/h1-7H,8H2,(H,18,19)(H,20,21)(H,22,23)
InChIKey=XPFRSDIYSCPQNQ-UHFFFAOYSA-N

> <PUBCHEM_SUBSTANCE_SYNONYM>
SCHEMBL16127842

> <PUBCHEM_XREF_EXT_ID>
SCHEMBL16127842

> <PUBCHEM_EXT_DATASOURCE_URL>
https://www.surechembl.org/

> <PUBCHEM_EXT_SUBSTANCE_URL>
https://www.surechembl.org/chemical/SCHEMBL16127842

> <PUBCHEM_CID_ASSOCIATIONS>
117615023  1

> <PUBCHEM_COORDINATE_TYPE>
1
3

$$$$
