310944776
  -OEChem-07211613022D

 36 40  0     1  0  0  0  0  0999 V2000
    2.1955    2.4076    0.0000 S   0  0  0  0  0  0  0  0  0  0  0  0
    3.8559    2.4814    0.0000 O   0  0  0  0  0  0  0  0  0  0  0  0
   -4.4648   -0.9317    0.0000 O   0  0  0  0  0  0  0  0  0  0  0  0
   -4.3726    1.5589    0.0000 O   0  0  0  0  0  0  0  0  0  0  0  0
   -0.7934    1.0424    0.0000 N   0  0  0  0  0  0  0  0  0  0  0  0
    2.3431    0.2859    0.0000 N   0  0  0  0  0  0  0  0  0  0  0  0
    4.0219    1.1162    0.0000 N   0  0  0  0  0  0  0  0  0  0  0  0
   -3.7083    0.3044    0.0000 N   0  0  0  0  0  0  0  0  0  0  0  0
   -3.7821   -2.1678    0.0000 N   0  0  0  0  0  0  0  0  0  0  0  0
    1.3652    1.3929    0.0000 C   0  0  0  0  0  0  0  0  0  0  0  0
    2.1586    1.0609    0.0000 C   0  0  0  0  0  0  0  0  0  0  0  0
    0.6458    0.9870    0.0000 C   0  0  0  0  0  0  0  0  0  0  0  0
    1.4206    2.2047    0.0000 C   0  0  0  0  0  0  0  0  0  0  0  0
    2.6751    1.7619    0.0000 C   0  0  0  0  0  0  0  0  0  0  0  0
   -0.0553    1.4298    0.0000 C   0  0  0  0  0  0  0  0  0  0  0  0
    0.7195    2.6106    0.0000 C   0  0  0  0  0  0  0  0  0  0  0  0
    3.4869    1.7435    0.0000 C   0  0  0  0  0  0  0  0  0  0  0  0
    0.6088    0.1384    0.0000 C   0  0  0  0  0  0  0  0  0  0  0  0
   -0.8303    0.2122    0.0000 C   0  0  0  0  0  0  0  0  0  0  0  0
   -0.0184    2.2416    0.0000 C   0  0  0  0  0  0  0  0  0  0  0  0
   -1.5497   -0.1752    0.0000 C   0  0  0  0  0  0  0  0  0  0  0  0
   -0.1107   -0.2306    0.0000 C   0  0  0  0  0  0  0  0  0  0  0  0
    3.1180   -0.0645    0.0000 C   0  0  0  0  0  0  0  0  0  0  0  0
    3.8375    0.2859    0.0000 C   0  0  3  0  0  0  0  0  0  0  0  0
   -2.9704   -0.1384    0.0000 C   0  0  0  0  0  0  0  0  0  0  0  0
   -2.2508    0.2306    0.0000 C   0  0  0  0  0  0  0  0  0  0  0  0
   -3.0258   -0.9686    0.0000 C   0  0  0  0  0  0  0  0  0  0  0  0
   -1.5866   -1.0055    0.0000 C   0  0  0  0  0  0  0  0  0  0  0  0
   -2.3246   -1.3929    0.0000 C   0  0  0  0  0  0  0  0  0  0  0  0
   -3.7268   -1.3560    0.0000 C   0  0  0  0  0  0  0  0  0  0  0  0
    4.5017   -0.2122    0.0000 C   0  0  0  0  0  0  0  0  0  0  0  0
   -3.6529    1.1346    0.0000 C   0  0  0  0  0  0  0  0  0  0  0  0
   -2.9334    1.5036    0.0000 C   0  0  0  0  0  0  0  0  0  0  0  0
   -3.0626   -2.6106    0.0000 C   0  0  0  0  0  0  0  0  0  0  0  0
   -4.5017   -2.5921    0.0000 C   0  0  0  0  0  0  0  0  0  0  0  0
   -2.9889    2.3523    0.0000 C   0  0  0  0  0  0  0  0  0  0  0  0
  1 13  1  0  0  0  0
  1 14  1  0  0  0  0
  2 17  2  0  0  0  0
  3 30  2  0  0  0  0
  4 32  2  0  0  0  0
  5 15  1  0  0  0  0
  5 19  2  0  0  0  0
  6 11  1  0  0  0  0
  6 23  1  0  0  0  0
  7 17  1  0  0  0  0
  7 24  1  0  0  0  0
  8 25  1  0  0  0  0
  8 32  1  0  0  0  0
  9 30  1  0  0  0  0
  9 34  1  0  0  0  0
  9 35  1  0  0  0  0
 10 11  1  0  0  0  0
 10 12  1  0  0  0  0
 10 13  2  0  0  0  0
 11 14  2  0  0  0  0
 12 15  2  0  0  0  0
 12 18  1  0  0  0  0
 13 16  1  0  0  0  0
 14 17  1  0  0  0  0
 15 20  1  0  0  0  0
 16 20  2  0  0  0  0
 18 22  2  0  0  0  0
 19 21  1  0  0  0  0
 19 22  1  0  0  0  0
 21 26  2  0  0  0  0
 21 28  1  0  0  0  0
 23 24  1  0  0  0  0
 24 31  1  6  0  0  0
 25 26  1  0  0  0  0
 25 27  2  0  0  0  0
 27 29  1  0  0  0  0
 27 30  1  0  0  0  0
 28 29  2  0  0  0  0
 32 33  1  0  0  0  0
 33 36  2  0  0  0  0
M  END
> <PUBCHEM_COMPOUND_ID_TYPE>
0

> <PUBCHEM_TOTAL_CHARGE>
0

> <PUBCHEM_SUBSTANCE_ID>
310944776

> <PUBCHEM_SUBSTANCE_VERSION>
1

> <PUBCHEM_EXT_DATASOURCE_NAME>
4488

> <PUBCHEM_EXT_DATASOURCE_REGID>
SCHEMBL16122855

> <PUBCHEM_SUBSTANCE_COMMENT>
InChI=1S/C27H25N5O3S/c1-5-22(33)31-20-12-15(6-7-17(20)27(35)32(3)4)18-9-8-16-19(30-18)10-11-21-23(16)24-25(36-21)26(34)29-14(2)13-28-24/h5-12,14,28H,1,13H2,2-4H3,(H,29,34)(H,31,33)/t14-/m1/s1
InChIKey=SFBWCXUASZMWON-CQSZACIVSA-N

> <PUBCHEM_SUBSTANCE_SYNONYM>
SCHEMBL16122855

> <PUBCHEM_XREF_EXT_ID>
SCHEMBL16122855

> <PUBCHEM_EXT_DATASOURCE_URL>
https://www.surechembl.org/

> <PUBCHEM_EXT_SUBSTANCE_URL>
https://www.surechembl.org/chemical/SCHEMBL16122855

> <PUBCHEM_CID_ASSOCIATIONS>
117610992  1

> <PUBCHEM_COORDINATE_TYPE>
1
3

> <PUBCHEM_BONDANNOTATIONS>
24  31  6

$$$$
