310949485
  -OEChem-07211613022D

 31 34  0     1  0  0  0  0  0999 V2000
   -2.3390    2.7702    0.0000 F   0  0  0  0  0  0  0  0  0  0  0  0
   -4.1809    1.2207    0.0000 F   0  0  0  0  0  0  0  0  0  0  0  0
   -4.4879    2.3610    0.0000 F   0  0  0  0  0  0  0  0  0  0  0  0
   -3.3623    2.6679    0.0000 F   0  0  0  0  0  0  0  0  0  0  0  0
   -0.9210    2.7702    0.0000 O   0  0  0  0  0  0  0  0  0  0  0  0
    2.0027    0.4459    0.0000 N   0  0  0  0  0  0  0  0  0  0  0  0
   -0.2046    1.5277    0.0000 N   0  0  0  0  0  0  0  0  0  0  0  0
    2.0027    1.7908    0.0000 N   0  0  0  0  0  0  0  0  0  0  0  0
    2.4852    1.1184    0.0000 N   0  0  0  0  0  0  0  0  0  0  0  0
    3.0407   -0.6066    0.0000 N   0  0  0  0  0  0  0  0  0  0  0  0
    3.0407   -1.4253    0.0000 N   0  0  0  0  0  0  0  0  0  0  0  0
   -3.0699    0.6944    0.0000 N   0  0  0  0  0  0  0  0  0  0  0  0
    1.2134    0.6944    0.0000 C   0  0  0  0  0  0  0  0  0  0  0  0
    1.2280    1.5277    0.0000 C   0  0  0  0  0  0  0  0  0  0  0  0
   -0.9356    1.9223    0.0000 C   0  0  0  0  0  0  0  0  0  0  0  0
   -0.1900    0.6797    0.0000 C   0  0  3  0  0  0  0  0  0  0  0  0
   -1.6227    1.5277    0.0000 C   0  0  0  0  0  0  0  0  0  0  0  0
    0.4970    1.9369    0.0000 C   0  0  0  0  0  0  0  0  0  0  0  0
    2.2660   -0.3435    0.0000 C   0  0  0  0  0  0  0  0  0  0  0  0
    0.5262    0.2851    0.0000 C   0  0  0  0  0  0  0  0  0  0  0  0
   -2.3390    1.9369    0.0000 C   0  0  0  0  0  0  0  0  0  0  0  0
   -3.0553    1.5277    0.0000 C   0  0  0  0  0  0  0  0  0  0  0  0
   -3.7717    1.9369    0.0000 C   0  0  0  0  0  0  0  0  0  0  0  0
   -1.6373    0.6944    0.0000 C   0  0  0  0  0  0  0  0  0  0  0  0
    1.7835   -1.0306    0.0000 C   0  0  0  0  0  0  0  0  0  0  0  0
    2.2806   -1.6885    0.0000 C   0  0  0  0  0  0  0  0  0  0  0  0
   -2.3390    0.2851    0.0000 C   0  0  0  0  0  0  0  0  0  0  0  0
   -0.8771    0.2996    0.0000 C   0  0  0  0  0  0  0  0  0  0  0  0
    3.7278   -1.9223    0.0000 C   0  0  0  0  0  0  0  0  0  0  0  0
    4.4879   -1.5715    0.0000 C   0  0  0  0  0  0  0  0  0  0  0  0
    3.6547   -2.7702    0.0000 C   0  0  0  0  0  0  0  0  0  0  0  0
  1 21  1  0  0  0  0
  2 23  1  0  0  0  0
  3 23  1  0  0  0  0
  4 23  1  0  0  0  0
  5 15  2  0  0  0  0
  6  9  1  0  0  0  0
  6 13  1  0  0  0  0
  6 19  1  0  0  0  0
  7 15  1  0  0  0  0
  7 16  1  0  0  0  0
  7 18  1  0  0  0  0
  8  9  2  0  0  0  0
  8 14  1  0  0  0  0
 10 11  1  0  0  0  0
 10 19  2  0  0  0  0
 11 26  1  0  0  0  0
 11 29  1  0  0  0  0
 12 22  2  0  0  0  0
 12 27  1  0  0  0  0
 13 14  2  0  0  0  0
 13 20  1  0  0  0  0
 14 18  1  0  0  0  0
 15 17  1  0  0  0  0
 16 20  1  0  0  0  0
 16 28  1  6  0  0  0
 17 21  2  0  0  0  0
 17 24  1  0  0  0  0
 19 25  1  0  0  0  0
 21 22  1  0  0  0  0
 22 23  1  0  0  0  0
 24 27  2  0  0  0  0
 25 26  2  0  0  0  0
 29 30  1  0  0  0  0
 29 31  1  0  0  0  0
M  END
> <PUBCHEM_COMPOUND_ID_TYPE>
0

> <PUBCHEM_TOTAL_CHARGE>
0

> <PUBCHEM_SUBSTANCE_ID>
310949485

> <PUBCHEM_SUBSTANCE_VERSION>
1

> <PUBCHEM_EXT_DATASOURCE_NAME>
4488

> <PUBCHEM_EXT_DATASOURCE_REGID>
SCHEMBL16127679

> <PUBCHEM_SUBSTANCE_COMMENT>
InChI=1S/C19H19F4N7O/c1-10(2)29-7-5-15(26-29)30-14-8-11(3)28(9-13(14)25-27-30)18(31)12-4-6-24-17(16(12)20)19(21,22)23/h4-7,10-11H,8-9H2,1-3H3/t11-/m0/s1
InChIKey=KDWXWMCTWWTVFZ-NSHDSACASA-N

> <PUBCHEM_SUBSTANCE_SYNONYM>
SCHEMBL16127679

> <PUBCHEM_XREF_EXT_ID>
SCHEMBL16127679

> <PUBCHEM_EXT_DATASOURCE_URL>
https://www.surechembl.org/

> <PUBCHEM_EXT_SUBSTANCE_URL>
https://www.surechembl.org/chemical/SCHEMBL16127679

> <PUBCHEM_CID_ASSOCIATIONS>
117614927  1

> <PUBCHEM_COORDINATE_TYPE>
1
3

> <PUBCHEM_BONDANNOTATIONS>
16  28  6

$$$$
