310943135
  -OEChem-07211613022D

 35 38  0     0  0  0  0  0  0999 V2000
    2.8714   -2.4785    0.0000 F   0  0  0  0  0  0  0  0  0  0  0  0
    3.3701   -2.8714    0.0000 F   0  0  0  0  0  0  0  0  0  0  0  0
   -2.8563   -0.0151    0.0000 O   0  0  0  0  0  0  0  0  0  0  0  0
    1.4357   -0.0151    0.0000 O   0  0  0  0  0  0  0  0  0  0  0  0
   -4.2920    2.4633    0.0000 O   0  0  0  0  0  0  0  0  0  0  0  0
   -2.8563    1.6322    0.0000 N   0  0  0  0  0  0  0  0  0  0  0  0
   -1.4357   -0.0151    0.0000 N   0  0  0  0  0  0  0  0  0  0  0  0
    2.1460    1.2241    0.0000 N   0  0  0  0  0  0  0  0  0  0  0  0
    4.2920   -0.8463    0.0000 N   0  0  0  0  0  0  0  0  0  0  0  0
   -0.7103    1.2241    0.0000 C   0  0  0  0  0  0  0  0  0  0  0  0
    0.0000    1.6322    0.0000 C   0  0  0  0  0  0  0  0  0  0  0  0
   -2.1460    1.2241    0.0000 C   0  0  0  0  0  0  0  0  0  0  0  0
   -2.1611    0.3929    0.0000 C   0  0  0  0  0  0  0  0  0  0  0  0
   -1.4357    1.6322    0.0000 C   0  0  0  0  0  0  0  0  0  0  0  0
    0.0000    2.4633    0.0000 C   0  0  0  0  0  0  0  0  0  0  0  0
    0.7103    1.2241    0.0000 C   0  0  0  0  0  0  0  0  0  0  0  0
    1.4206    1.6473    0.0000 C   0  0  0  0  0  0  0  0  0  0  0  0
   -0.7254    0.3929    0.0000 C   0  0  0  0  0  0  0  0  0  0  0  0
    2.8714   -0.0151    0.0000 C   0  0  0  0  0  0  0  0  0  0  0  0
    3.5817   -1.2392    0.0000 C   0  0  0  0  0  0  0  0  0  0  0  0
    2.1611    0.4080    0.0000 C   0  0  0  0  0  0  0  0  0  0  0  0
    0.7254    2.8563    0.0000 C   0  0  0  0  0  0  0  0  0  0  0  0
    3.5666   -2.0855    0.0000 C   0  0  0  0  0  0  0  0  0  0  0  0
    1.4206    2.4483    0.0000 C   0  0  0  0  0  0  0  0  0  0  0  0
    2.8714   -0.8312    0.0000 C   0  0  0  0  0  0  0  0  0  0  0  0
   -2.8714    2.4633    0.0000 C   0  0  0  0  0  0  0  0  0  0  0  0
   -3.5666    1.2241    0.0000 C   0  0  0  0  0  0  0  0  0  0  0  0
    3.5666    0.3929    0.0000 C   0  0  0  0  0  0  0  0  0  0  0  0
    4.2920   -0.0151    0.0000 C   0  0  0  0  0  0  0  0  0  0  0  0
   -0.7254    2.8563    0.0000 C   0  0  0  0  0  0  0  0  0  0  0  0
   -3.5817    2.8714    0.0000 C   0  0  0  0  0  0  0  0  0  0  0  0
   -4.2920    1.6322    0.0000 C   0  0  0  0  0  0  0  0  0  0  0  0
   -3.5817    0.3929    0.0000 C   0  0  0  0  0  0  0  0  0  0  0  0
    4.3071   -2.4936    0.0000 C   0  0  0  0  0  0  0  0  0  0  0  0
   -4.3071   -0.0151    0.0000 C   0  0  0  0  0  0  0  0  0  0  0  0
  1 23  1  0  0  0  0
  2 23  1  0  0  0  0
  3 13  1  0  0  0  0
  3 33  1  0  0  0  0
  4 21  2  0  0  0  0
  5 31  1  0  0  0  0
  5 32  1  0  0  0  0
  6 12  1  0  0  0  0
  6 26  1  0  0  0  0
  6 27  1  0  0  0  0
  7 13  2  0  0  0  0
  7 18  1  0  0  0  0
  8 17  1  0  0  0  0
  8 21  1  0  0  0  0
  9 20  2  0  0  0  0
  9 29  1  0  0  0  0
 10 11  1  0  0  0  0
 10 14  1  0  0  0  0
 10 18  2  0  0  0  0
 11 15  2  0  0  0  0
 11 16  1  0  0  0  0
 12 13  1  0  0  0  0
 12 14  2  0  0  0  0
 15 22  1  0  0  0  0
 15 30  1  0  0  0  0
 16 17  2  0  0  0  0
 17 24  1  0  0  0  0
 19 21  1  0  0  0  0
 19 25  2  0  0  0  0
 19 28  1  0  0  0  0
 20 23  1  0  0  0  0
 20 25  1  0  0  0  0
 22 24  2  0  0  0  0
 23 34  1  0  0  0  0
 26 31  1  0  0  0  0
 27 32  1  0  0  0  0
 28 29  2  0  0  0  0
 33 35  1  0  0  0  0
M  END
> <PUBCHEM_COMPOUND_ID_TYPE>
0

> <PUBCHEM_TOTAL_CHARGE>
0

> <PUBCHEM_SUBSTANCE_ID>
310943135

> <PUBCHEM_SUBSTANCE_VERSION>
1

> <PUBCHEM_EXT_DATASOURCE_NAME>
4488

> <PUBCHEM_EXT_DATASOURCE_REGID>
SCHEMBL16121195

> <PUBCHEM_SUBSTANCE_COMMENT>
InChI=1S/C26H28F2N4O3/c1-4-35-25-22(32-9-11-34-12-10-32)13-19(16-30-25)21-15-20(6-5-17(21)2)31-24(33)18-7-8-29-23(14-18)26(3,27)28/h5-8,13-16H,4,9-12H2,1-3H3,(H,31,33)
InChIKey=OLTGUYDIYLEZAH-UHFFFAOYSA-N

> <PUBCHEM_SUBSTANCE_SYNONYM>
SCHEMBL16121195

> <PUBCHEM_XREF_EXT_ID>
SCHEMBL16121195

> <PUBCHEM_EXT_DATASOURCE_URL>
https://www.surechembl.org/

> <PUBCHEM_EXT_SUBSTANCE_URL>
https://www.surechembl.org/chemical/SCHEMBL16121195

> <PUBCHEM_CID_ASSOCIATIONS>
117609565  1

> <PUBCHEM_COORDINATE_TYPE>
1
3

$$$$
