310931774
  -OEChem-07211613022D

 32 35  0     1  0  0  0  0  0999 V2000
    5.9083   -2.0662    0.0000 O   0  0  0  0  0  0  0  0  0  0  0  0
    1.7757   -3.7774    0.0000 O   0  0  0  0  0  0  0  0  0  0  0  0
    5.5208   -3.4868    0.0000 N   0  0  0  0  0  0  0  0  0  0  0  0
    5.9405   -4.1971    0.0000 N   0  0  0  0  0  0  0  0  0  0  0  0
    4.2617   -4.0357    0.0000 N   0  0  0  0  0  0  0  0  0  0  0  0
    1.9371   -2.3569    0.0000 N   0  0  0  0  0  0  0  0  0  0  0  0
    1.2914   -0.8394    0.0000 N   0  0  3  0  0  0  0  0  0  0  0  0
    9.6857   -0.7103    0.0000 N   0  0  0  0  0  0  0  0  0  0  0  0
    6.8445   -3.1963    0.0000 C   0  0  0  0  0  0  0  0  0  0  0  0
    6.0697   -2.8734    0.0000 C   0  0  0  0  0  0  0  0  0  0  0  0
    4.7137   -3.3900    0.0000 C   0  0  0  0  0  0  0  0  0  0  0  0
    7.5549   -2.7766    0.0000 C   0  0  0  0  0  0  0  0  0  0  0  0
    6.7477   -4.0034    0.0000 C   0  0  0  0  0  0  0  0  0  0  0  0
    3.0994   -3.1963    0.0000 C   0  0  0  0  0  0  0  0  0  0  0  0
    7.5549   -1.9694    0.0000 C   0  0  0  0  0  0  0  0  0  0  0  0
    2.2600   -3.0994    0.0000 C   0  0  0  0  0  0  0  0  0  0  0  0
    4.3908   -2.6151    0.0000 C   0  0  0  0  0  0  0  0  0  0  0  0
    8.2651   -3.1963    0.0000 C   0  0  0  0  0  0  0  0  0  0  0  0
    3.4223   -3.9711    0.0000 C   0  0  0  0  0  0  0  0  0  0  0  0
    3.5514   -2.5505    0.0000 C   0  0  0  0  0  0  0  0  0  0  0  0
    8.2651   -1.5497    0.0000 C   0  0  0  0  0  0  0  0  0  0  0  0
    8.9754   -1.9694    0.0000 C   0  0  0  0  0  0  0  0  0  0  0  0
    1.1300   -2.2600    0.0000 C   0  0  0  0  0  0  0  0  0  0  0  0
    8.9754   -2.7766    0.0000 C   0  0  0  0  0  0  0  0  0  0  0  0
    0.8072   -1.5174    0.0000 C   0  0  3  0  0  0  0  0  0  0  0  0
    2.4537   -1.7111    0.0000 C   0  0  0  0  0  0  0  0  0  0  0  0
    2.1308   -0.9363    0.0000 C   0  0  0  0  0  0  0  0  0  0  0  0
    6.8445   -1.5497    0.0000 C   0  0  0  0  0  0  0  0  0  0  0  0
    9.6857   -1.5497    0.0000 C   0  0  0  0  0  0  0  0  0  0  0  0
    0.9685   -0.0968    0.0000 C   0  0  0  0  0  0  0  0  0  0  0  0
    0.0000   -1.4206    0.0000 C   0  0  0  0  0  0  0  0  0  0  0  0
    0.1614    0.0000    0.0000 C   0  0  0  0  0  0  0  0  0  0  0  0
  1 10  1  0  0  0  0
  2 16  2  0  0  0  0
  3  4  1  0  0  0  0
  3 10  1  0  0  0  0
  3 11  1  0  0  0  0
  4 13  2  0  0  0  0
  5 11  1  0  0  0  0
  5 19  2  0  0  0  0
  6 16  1  0  0  0  0
  6 23  1  0  0  0  0
  6 26  1  0  0  0  0
  7 25  1  0  0  0  0
  7 27  1  0  0  0  0
  7 30  1  0  0  0  0
  8 29  3  0  0  0  0
  9 10  2  0  0  0  0
  9 12  1  0  0  0  0
  9 13  1  0  0  0  0
 11 17  2  0  0  0  0
 12 15  2  0  0  0  0
 12 18  1  0  0  0  0
 14 16  1  0  0  0  0
 14 19  1  0  0  0  0
 14 20  2  0  0  0  0
 15 21  1  0  0  0  0
 15 28  1  0  0  0  0
 17 20  1  0  0  0  0
 18 24  2  0  0  0  0
 21 22  2  0  0  0  0
 22 24  1  0  0  0  0
 22 29  1  0  0  0  0
 23 25  1  0  0  0  0
 25 31  1  6  0  0  0
 26 27  1  0  0  0  0
 30 32  1  0  0  0  0
M  END
> <PUBCHEM_COMPOUND_ID_TYPE>
0

> <PUBCHEM_TOTAL_CHARGE>
0

> <PUBCHEM_SUBSTANCE_ID>
310931774

> <PUBCHEM_SUBSTANCE_VERSION>
1

> <PUBCHEM_EXT_DATASOURCE_NAME>
4488

> <PUBCHEM_EXT_DATASOURCE_REGID>
SCHEMBL16109105

> <PUBCHEM_SUBSTANCE_COMMENT>
InChI=1S/C24H26N6O2/c1-4-28-9-10-29(15-17(28)3)23(31)19-6-8-22(26-13-19)30-24(32)21(14-27-30)20-7-5-18(12-25)11-16(20)2/h5-8,11,13-14,17,32H,4,9-10,15H2,1-3H3/t17-/m0/s1
InChIKey=VZDRTKJJJSODLC-KRWDZBQOSA-N

> <PUBCHEM_SUBSTANCE_SYNONYM>
SCHEMBL16109105

> <PUBCHEM_XREF_EXT_ID>
SCHEMBL16109105

> <PUBCHEM_EXT_DATASOURCE_URL>
https://www.surechembl.org/

> <PUBCHEM_EXT_SUBSTANCE_URL>
https://www.surechembl.org/chemical/SCHEMBL16109105

> <PUBCHEM_CID_ASSOCIATIONS>
117600459  1

> <PUBCHEM_COORDINATE_TYPE>
1
3

> <PUBCHEM_BONDANNOTATIONS>
25  31  6

$$$$
