310943989
  -OEChem-07211613022D

 13 13  0     0  0  0  0  0  0999 V2000
   -0.3355    2.0412    0.0000 F   0  0  0  0  0  0  0  0  0  0  0  0
   -1.8056    1.1990    0.0000 O   0  0  0  0  0  0  0  0  0  0  0  0
    1.8199    1.6129    0.0000 N   0  0  0  0  0  0  0  0  0  0  0  0
   -0.3355   -2.0412    0.0000 N   0  0  0  0  0  0  0  0  0  0  0  0
   -0.3497    1.2418    0.0000 C   0  0  0  0  0  0  0  0  0  0  0  0
   -1.0634    0.8279    0.0000 C   0  0  0  0  0  0  0  0  0  0  0  0
    0.3926    0.8422    0.0000 C   0  0  0  0  0  0  0  0  0  0  0  0
   -0.3355   -0.3854    0.0000 C   0  0  0  0  0  0  0  0  0  0  0  0
   -1.0634    0.0143    0.0000 C   0  0  0  0  0  0  0  0  0  0  0  0
    0.3782    0.0143    0.0000 C   0  0  0  0  0  0  0  0  0  0  0  0
    1.1062    1.2418    0.0000 C   0  0  0  0  0  0  0  0  0  0  0  0
   -0.3355   -1.2275    0.0000 C   0  0  0  0  0  0  0  0  0  0  0  0
   -1.8199    2.0268    0.0000 C   0  0  0  0  0  0  0  0  0  0  0  0
  1  5  1  0  0  0  0
  2  6  1  0  0  0  0
  2 13  1  0  0  0  0
  3 11  3  0  0  0  0
  4 12  3  0  0  0  0
  5  6  1  0  0  0  0
  5  7  2  0  0  0  0
  6  9  2  0  0  0  0
  7 10  1  0  0  0  0
  7 11  1  0  0  0  0
  8  9  1  0  0  0  0
  8 10  2  0  0  0  0
  8 12  1  0  0  0  0
M  END
> <PUBCHEM_COMPOUND_ID_TYPE>
0

> <PUBCHEM_TOTAL_CHARGE>
0

> <PUBCHEM_SUBSTANCE_ID>
310943989

> <PUBCHEM_SUBSTANCE_VERSION>
1

> <PUBCHEM_EXT_DATASOURCE_NAME>
4488

> <PUBCHEM_EXT_DATASOURCE_REGID>
SCHEMBL16122060

> <PUBCHEM_SUBSTANCE_COMMENT>
InChI=1S/C9H5FN2O/c1-13-8-3-6(4-11)2-7(5-12)9(8)10/h2-3H,1H3
InChIKey=DCCAEBZANUYVJW-UHFFFAOYSA-N

> <PUBCHEM_SUBSTANCE_SYNONYM>
SCHEMBL16122060

> <PUBCHEM_XREF_EXT_ID>
SCHEMBL16122060

> <PUBCHEM_EXT_DATASOURCE_URL>
https://www.surechembl.org/

> <PUBCHEM_EXT_SUBSTANCE_URL>
https://www.surechembl.org/chemical/SCHEMBL16122060

> <PUBCHEM_CID_ASSOCIATIONS>
117610295  1

> <PUBCHEM_COORDINATE_TYPE>
1
3

$$$$
