310938882
  -OEChem-07211613022D

 16 15  0     0  0  0  0  0  0999 V2000
    0.9730   -1.4110    0.0000 O   0  0  0  0  0  0  0  0  0  0  0  0
   -0.9730   -0.6600    0.0000 O   0  0  0  0  0  0  0  0  0  0  0  0
    0.9730   -2.9131    0.0000 O   0  0  0  0  0  0  0  0  0  0  0  0
    0.1992    0.0910    0.0000 N   0  0  0  0  0  0  0  0  0  0  0  0
   -0.1878   -3.6528    0.0000 N   0  0  0  0  0  0  0  0  0  0  0  0
    0.1992    3.0952    0.0000 N   0  0  0  0  0  0  0  0  0  0  0  0
   -0.2561    3.7438    0.0000 N   0  3  0  0  0  0  0  0  0  0  0  0
   -0.7226    4.4038    0.0000 N   0  5  0  0  0  0  0  0  0  0  0  0
    0.1764   -1.4110    0.0000 C   0  0  0  0  0  0  0  0  0  0  0  0
   -0.1650   -0.6600    0.0000 C   0  0  0  0  0  0  0  0  0  0  0  0
   -0.1878   -2.1621    0.0000 C   0  0  0  0  0  0  0  0  0  0  0  0
    0.1650   -2.9017    0.0000 C   0  0  0  0  0  0  0  0  0  0  0  0
   -0.1878    0.8307    0.0000 C   0  0  0  0  0  0  0  0  0  0  0  0
    0.1992    1.6045    0.0000 C   0  0  0  0  0  0  0  0  0  0  0  0
   -0.1764    2.3214    0.0000 C   0  0  0  0  0  0  0  0  0  0  0  0
   -0.1878   -4.4038    0.0000 C   0  0  0  0  0  0  0  0  0  0  0  0
  1  9  2  0  0  0  0
  2 10  2  0  0  0  0
  3 12  2  0  0  0  0
  4 10  1  0  0  0  0
  4 13  1  0  0  0  0
  5 12  1  0  0  0  0
  5 16  1  0  0  0  0
  6  7  2  0  0  0  0
  6 15  1  0  0  0  0
  7  8  2  0  0  0  0
  9 10  1  0  0  0  0
  9 11  1  0  0  0  0
 11 12  1  0  0  0  0
 13 14  1  0  0  0  0
 14 15  1  0  0  0  0
M  CHG  2   7   1   8  -1
M  END
> <PUBCHEM_COMPOUND_ID_TYPE>
0

> <PUBCHEM_TOTAL_CHARGE>
0

> <PUBCHEM_SUBSTANCE_ID>
310938882

> <PUBCHEM_SUBSTANCE_VERSION>
1

> <PUBCHEM_EXT_DATASOURCE_NAME>
4488

> <PUBCHEM_EXT_DATASOURCE_REGID>
SCHEMBL16116801

> <PUBCHEM_SUBSTANCE_COMMENT>
InChI=1S/C8H13N5O3/c1-10-7(15)5-6(14)8(16)11-3-2-4-12-13-9/h2-5H2,1H3,(H,10,15)(H,11,16)
InChIKey=ZEBCITNCCMMPSG-UHFFFAOYSA-N

> <PUBCHEM_SUBSTANCE_SYNONYM>
SCHEMBL16116801

> <PUBCHEM_XREF_EXT_ID>
SCHEMBL16116801

> <PUBCHEM_EXT_DATASOURCE_URL>
https://www.surechembl.org/

> <PUBCHEM_EXT_SUBSTANCE_URL>
https://www.surechembl.org/chemical/SCHEMBL16116801

> <PUBCHEM_CID_ASSOCIATIONS>
117606280  1

> <PUBCHEM_COORDINATE_TYPE>
1
3

$$$$
