310937765
  -OEChem-07211613022D

 22 24  0     0  0  0  0  0  0999 V2000
    1.2026   -3.2642    0.0000 O   0  0  0  0  0  0  0  0  0  0  0  0
    3.4115   -1.2272    0.0000 O   0  0  0  0  0  0  0  0  0  0  0  0
    4.1233   -2.4543    0.0000 O   0  0  0  0  0  0  0  0  0  0  0  0
    0.5399   -2.1107    0.0000 N   0  0  0  0  0  0  0  0  0  0  0  0
    2.6997   -2.4543    0.0000 C   0  0  0  0  0  0  0  0  0  0  0  0
    2.6997   -3.2642    0.0000 C   0  0  0  0  0  0  0  0  0  0  0  0
    2.6997   -1.6444    0.0000 C   0  0  0  0  0  0  0  0  0  0  0  0
    3.4115   -2.0370    0.0000 C   0  0  0  0  0  0  0  0  0  0  0  0
    1.9880   -2.0370    0.0000 C   0  0  0  0  0  0  0  0  0  0  0  0
    1.2762   -2.4543    0.0000 C   0  0  0  0  0  0  0  0  0  0  0  0
    3.4115   -3.6815    0.0000 C   0  0  0  0  0  0  0  0  0  0  0  0
    1.9880   -1.2272    0.0000 C   0  0  0  0  0  0  0  0  0  0  0  0
    1.9880   -3.6815    0.0000 C   0  0  0  0  0  0  0  0  0  0  0  0
    3.5587   -1.3744    0.0000 C   0  0  0  0  0  0  0  0  0  0  0  0
    3.4115   -4.4914    0.0000 C   0  0  0  0  0  0  0  0  0  0  0  0
    1.9880   -0.4173    0.0000 C   0  0  0  0  0  0  0  0  0  0  0  0
    1.9880   -4.4914    0.0000 C   0  0  0  0  0  0  0  0  0  0  0  0
    3.4115   -0.4173    0.0000 C   0  0  0  0  0  0  0  0  0  0  0  0
    0.3927   -3.4360    0.0000 C   0  0  0  0  0  0  0  0  0  0  0  0
    0.0000   -2.7243    0.0000 C   0  0  0  0  0  0  0  0  0  0  0  0
    2.6997   -4.9086    0.0000 C   0  0  0  0  0  0  0  0  0  0  0  0
    2.6997    0.0000    0.0000 C   0  0  0  0  0  0  0  0  0  0  0  0
  1 10  1  0  0  0  0
  1 19  1  0  0  0  0
  2  8  2  0  0  0  0
  3  8  1  0  0  0  0
  4 10  2  0  0  0  0
  4 20  1  0  0  0  0
  5  6  1  0  0  0  0
  5  7  1  0  0  0  0
  5  8  1  0  0  0  0
  5  9  1  0  0  0  0
  6 11  2  0  0  0  0
  6 13  1  0  0  0  0
  7 12  2  0  0  0  0
  7 14  1  0  0  0  0
  9 10  1  0  0  0  0
 11 15  1  0  0  0  0
 12 16  1  0  0  0  0
 13 17  2  0  0  0  0
 14 18  2  0  0  0  0
 15 21  2  0  0  0  0
 16 22  2  0  0  0  0
 17 21  1  0  0  0  0
 18 22  1  0  0  0  0
 19 20  2  0  0  0  0
M  END
> <PUBCHEM_COMPOUND_ID_TYPE>
0

> <PUBCHEM_TOTAL_CHARGE>
0

> <PUBCHEM_SUBSTANCE_ID>
310937765

> <PUBCHEM_SUBSTANCE_VERSION>
1

> <PUBCHEM_EXT_DATASOURCE_NAME>
4488

> <PUBCHEM_EXT_DATASOURCE_REGID>
SCHEMBL16115573

> <PUBCHEM_SUBSTANCE_COMMENT>
InChI=1S/C18H15NO3/c20-17(21)18(13-16-19-11-12-22-16,14-7-3-1-4-8-14)15-9-5-2-6-10-15/h1-12H,13H2,(H,20,21)
InChIKey=OYSYDMGRNQKRQQ-UHFFFAOYSA-N

> <PUBCHEM_SUBSTANCE_SYNONYM>
SCHEMBL16115573

> <PUBCHEM_XREF_EXT_ID>
SCHEMBL16115573

> <PUBCHEM_EXT_DATASOURCE_URL>
https://www.surechembl.org/

> <PUBCHEM_EXT_SUBSTANCE_URL>
https://www.surechembl.org/chemical/SCHEMBL16115573

> <PUBCHEM_CID_ASSOCIATIONS>
117605421  1

> <PUBCHEM_COORDINATE_TYPE>
1
3

$$$$
