310934829
  -OEChem-07211613022D

 30 33  0     0  0  0  0  0  0999 V2000
    0.0000   -5.7965    0.0000 O   0  0  0  0  0  0  0  0  0  0  0  0
    3.1955   -7.1341    0.0000 O   0  0  0  0  0  0  0  0  0  0  0  0
    3.4928   -4.1244    0.0000 N   0  0  0  0  0  0  0  0  0  0  0  0
    3.4928   -2.7868    0.0000 N   0  0  0  0  0  0  0  0  0  0  0  0
    4.7933   -3.4556    0.0000 N   0  0  0  0  0  0  0  0  0  0  0  0
    2.4152   -1.5606    0.0000 N   0  0  0  0  0  0  0  0  0  0  0  0
    2.7125   -3.8643    0.0000 C   0  0  0  0  0  0  0  0  0  0  0  0
    2.0437   -4.3474    0.0000 C   0  0  0  0  0  0  0  0  0  0  0  0
    2.8239   -4.6818    0.0000 C   0  0  0  0  0  0  0  0  0  0  0  0
    2.7125   -3.0469    0.0000 C   0  0  0  0  0  0  0  0  0  0  0  0
    3.9758   -3.4556    0.0000 C   0  0  0  0  0  0  0  0  0  0  0  0
    2.1179   -5.1648    0.0000 C   0  0  0  0  0  0  0  0  0  0  0  0
    3.6042   -4.9790    0.0000 C   0  0  0  0  0  0  0  0  0  0  0  0
    1.2633   -4.0129    0.0000 C   0  0  0  0  0  0  0  0  0  0  0  0
    2.3409   -5.3506    0.0000 C   0  0  0  0  0  0  0  0  0  0  0  0
    3.7528   -2.0065    0.0000 C   0  0  0  0  0  0  0  0  0  0  0  0
    3.1955   -1.3748    0.0000 C   0  0  0  0  0  0  0  0  0  0  0  0
    1.4491   -5.6479    0.0000 C   0  0  0  0  0  0  0  0  0  0  0  0
    3.7157   -5.7965    0.0000 C   0  0  0  0  0  0  0  0  0  0  0  0
    0.6317   -4.4960    0.0000 C   0  0  0  0  0  0  0  0  0  0  0  0
    2.3037   -6.0195    0.0000 C   0  0  0  0  0  0  0  0  0  0  0  0
    0.7060   -5.3134    0.0000 C   0  0  0  0  0  0  0  0  0  0  0  0
    3.0840   -6.3167    0.0000 C   0  0  0  0  0  0  0  0  0  0  0  0
    3.4556   -0.5945    0.0000 C   0  0  0  0  0  0  0  0  0  0  0  0
    2.8983    0.0000    0.0000 C   0  0  0  0  0  0  0  0  0  0  0  0
    1.8207   -0.9661    0.0000 C   0  0  0  0  0  0  0  0  0  0  0  0
    2.0808   -0.1858    0.0000 C   0  0  0  0  0  0  0  0  0  0  0  0
    4.2731   -0.4459    0.0000 C   0  0  0  0  0  0  0  0  0  0  0  0
    0.1115   -6.6139    0.0000 C   0  0  0  0  0  0  0  0  0  0  0  0
    3.9758   -7.4314    0.0000 C   0  0  0  0  0  0  0  0  0  0  0  0
  1 22  1  0  0  0  0
  1 29  1  0  0  0  0
  2 23  1  0  0  0  0
  2 30  1  0  0  0  0
  3  7  1  0  0  0  0
  3 11  1  0  0  0  0
  4 10  1  0  0  0  0
  4 11  1  0  0  0  0
  4 16  1  0  0  0  0
  5 11  2  3  0  0  0
  6 17  1  0  0  0  0
  6 26  2  0  0  0  0
  7  8  1  0  0  0  0
  7  9  1  0  0  0  0
  7 10  1  0  0  0  0
  8 12  2  0  0  0  0
  8 14  1  0  0  0  0
  9 13  2  0  0  0  0
  9 15  1  0  0  0  0
 12 18  1  0  0  0  0
 13 19  1  0  0  0  0
 14 20  2  0  0  0  0
 15 21  2  0  0  0  0
 16 17  1  0  0  0  0
 17 24  2  0  0  0  0
 18 22  2  0  0  0  0
 19 23  2  0  0  0  0
 20 22  1  0  0  0  0
 21 23  1  0  0  0  0
 24 25  1  0  0  0  0
 24 28  1  0  0  0  0
 25 27  2  0  0  0  0
 26 27  1  0  0  0  0
M  END
> <PUBCHEM_COMPOUND_ID_TYPE>
0

> <PUBCHEM_TOTAL_CHARGE>
0

> <PUBCHEM_SUBSTANCE_ID>
310934829

> <PUBCHEM_SUBSTANCE_VERSION>
1

> <PUBCHEM_EXT_DATASOURCE_NAME>
4488

> <PUBCHEM_EXT_DATASOURCE_REGID>
SCHEMBL16112335

> <PUBCHEM_SUBSTANCE_COMMENT>
InChI=1S/C24H26N4O2/c1-17-5-4-14-26-22(17)15-28-16-24(27-23(28)25,18-6-10-20(29-2)11-7-18)19-8-12-21(30-3)13-9-19/h4-14H,15-16H2,1-3H3,(H2,25,27)
InChIKey=NCJVBRDOZAUWDQ-UHFFFAOYSA-N

> <PUBCHEM_SUBSTANCE_SYNONYM>
SCHEMBL16112335

> <PUBCHEM_XREF_EXT_ID>
SCHEMBL16112335

> <PUBCHEM_EXT_DATASOURCE_URL>
https://www.surechembl.org/

> <PUBCHEM_EXT_SUBSTANCE_URL>
https://www.surechembl.org/chemical/SCHEMBL16112335

> <PUBCHEM_CID_ASSOCIATIONS>
117602972  1

> <PUBCHEM_COORDINATE_TYPE>
1
3

$$$$
