310940303
  -OEChem-07211613022D

 37 41  0     0  0  0  0  0  0999 V2000
   -0.7958   -3.7444    0.0000 S   0  0  0  0  0  0  0  0  0  0  0  0
    1.8848    5.2019    0.0000 F   0  0  0  0  0  0  0  0  0  0  0  0
   -2.8732    0.8293    0.0000 O   0  0  0  0  0  0  0  0  0  0  0  0
   -0.0754   -3.3255    0.0000 O   0  0  0  0  0  0  0  0  0  0  0  0
   -1.5162   -4.1632    0.0000 O   0  0  0  0  0  0  0  0  0  0  0  0
   -0.0922    0.6953    0.0000 N   0  0  0  0  0  0  0  0  0  0  0  0
   -0.4272   -0.0754    0.0000 N   0  0  0  0  0  0  0  0  0  0  0  0
   -1.8177   -0.5947    0.0000 N   0  0  0  0  0  0  0  0  0  0  0  0
   -2.1528    2.0691    0.0000 N   0  0  0  0  0  0  0  0  0  0  0  0
    1.3654    3.2585    0.0000 N   0  0  0  0  0  0  0  0  0  0  0  0
   -0.3769   -4.4647    0.0000 N   0  0  0  0  0  0  0  0  0  0  0  0
    2.8732    0.5780    0.0000 N   0  0  0  0  0  0  0  0  0  0  0  0
    0.6785    0.8963    0.0000 C   0  0  0  0  0  0  0  0  0  0  0  0
   -0.7288    1.2481    0.0000 C   0  0  0  0  0  0  0  0  0  0  0  0
   -1.4157    0.8460    0.0000 C   0  0  0  0  0  0  0  0  0  0  0  0
   -1.2649    0.0419    0.0000 C   0  0  0  0  0  0  0  0  0  0  0  0
   -2.1361    1.2816    0.0000 C   0  0  0  0  0  0  0  0  0  0  0  0
    0.1424    1.4492    0.0000 C   0  0  0  0  0  0  0  0  0  0  0  0
    1.5162    1.0973    0.0000 C   0  0  0  0  0  0  0  0  0  0  0  0
   -0.7121    2.0858    0.0000 C   0  0  0  0  0  0  0  0  0  0  0  0
    1.2649    0.2429    0.0000 C   0  0  0  0  0  0  0  0  0  0  0  0
    1.1476    2.4543    0.0000 C   0  0  0  0  0  0  0  0  0  0  0  0
    0.3602    2.2533    0.0000 C   0  0  0  0  0  0  0  0  0  0  0  0
    1.7172    1.8848    0.0000 C   0  0  0  0  0  0  0  0  0  0  0  0
   -1.5664   -1.3486    0.0000 C   0  0  0  0  0  0  0  0  0  0  0  0
   -1.4492    2.4878    0.0000 C   0  0  0  0  0  0  0  0  0  0  0  0
   -1.0471   -2.9570    0.0000 C   0  0  0  0  0  0  0  0  0  0  0  0
    2.0691    0.4272    0.0000 C   0  0  0  0  0  0  0  0  0  0  0  0
    2.0691    3.6941    0.0000 C   0  0  0  0  0  0  0  0  0  0  0  0
    0.9466    3.9956    0.0000 C   0  0  0  0  0  0  0  0  0  0  0  0
   -2.0858   -1.9852    0.0000 C   0  0  0  0  0  0  0  0  0  0  0  0
   -0.7455   -1.5496    0.0000 C   0  0  0  0  0  0  0  0  0  0  0  0
    1.6670    4.3810    0.0000 C   0  0  0  0  0  0  0  0  0  0  0  0
   -1.8513   -2.7727    0.0000 C   0  0  0  0  0  0  0  0  0  0  0  0
   -0.4943   -2.3371    0.0000 C   0  0  0  0  0  0  0  0  0  0  0  0
   -0.7790   -5.2019    0.0000 C   0  0  0  0  0  0  0  0  0  0  0  0
    0.4775   -4.4647    0.0000 C   0  0  0  0  0  0  0  0  0  0  0  0
  1  4  2  0  0  0  0
  1  5  2  0  0  0  0
  1 11  1  0  0  0  0
  1 27  1  0  0  0  0
  2 33  1  0  0  0  0
  3 17  2  0  0  0  0
  6  7  1  0  0  0  0
  6 13  1  0  0  0  0
  6 14  1  0  0  0  0
  7 16  2  0  0  0  0
  8 16  1  0  0  0  0
  8 25  1  0  0  0  0
  9 17  1  0  0  0  0
  9 26  1  0  0  0  0
 22 10  1  1  0  0  0
 10 29  1  0  0  0  0
 10 30  1  0  0  0  0
 11 36  1  0  0  0  0
 11 37  1  0  0  0  0
 12 28  3  0  0  0  0
 13 18  1  0  0  0  0
 13 19  1  0  0  0  0
 13 21  1  6  0  0  0
 14 15  2  0  0  0  0
 14 20  1  0  0  0  0
 15 16  1  0  0  0  0
 15 17  1  0  0  0  0
 18 23  1  0  0  0  0
 19 24  1  0  0  0  0
 20 26  2  0  0  0  0
 21 28  1  0  0  0  0
 22 23  1  0  0  0  0
 22 24  1  0  0  0  0
 25 31  2  0  0  0  0
 25 32  1  0  0  0  0
 27 34  2  0  0  0  0
 27 35  1  0  0  0  0
 29 33  1  0  0  0  0
 30 33  1  0  0  0  0
 31 34  1  0  0  0  0
 32 35  2  0  0  0  0
M  END
> <PUBCHEM_COMPOUND_ID_TYPE>
0

> <PUBCHEM_TOTAL_CHARGE>
0

> <PUBCHEM_SUBSTANCE_ID>
310940303

> <PUBCHEM_SUBSTANCE_VERSION>
1

> <PUBCHEM_EXT_DATASOURCE_NAME>
4488

> <PUBCHEM_EXT_DATASOURCE_REGID>
SCHEMBL16118246

> <PUBCHEM_SUBSTANCE_COMMENT>
InChI=1S/C25H30FN7O3S/c1-31(2)37(35,36)20-5-3-18(4-6-20)29-23-22-21(9-14-28-24(22)34)33(30-23)25(12-13-27)10-7-19(8-11-25)32-15-17(26)16-32/h3-6,9,14,17,19H,7-8,10-12,15-16H2,1-2H3,(H,28,34)(H,29,30)/t19-,25+
InChIKey=TWNHDYRZRRWJBV-KJDSRRNHSA-N

> <PUBCHEM_SUBSTANCE_SYNONYM>
SCHEMBL16118246

> <PUBCHEM_XREF_EXT_ID>
SCHEMBL16118246

> <PUBCHEM_EXT_DATASOURCE_URL>
https://www.surechembl.org/

> <PUBCHEM_EXT_SUBSTANCE_URL>
https://www.surechembl.org/chemical/SCHEMBL16118246

> <PUBCHEM_CID_ASSOCIATIONS>
117607374  1

> <PUBCHEM_COORDINATE_TYPE>
1
3

> <PUBCHEM_BONDANNOTATIONS>
22  10  5
13  21  6

$$$$
