310933630
  -OEChem-07211613022D

 31 35  0     0  0  0  0  0  0999 V2000
    2.3144   -5.5956    0.0000 O   0  0  0  0  0  0  0  0  0  0  0  0
    5.6835   -1.0547    0.0000 O   0  0  0  0  0  0  0  0  0  0  0  0
    2.6367   -0.9375    0.0000 N   0  0  0  0  0  0  0  0  0  0  0  0
    4.2773   -1.4648    0.0000 N   0  0  0  0  0  0  0  0  0  0  0  0
    5.1562   -2.4316    0.0000 N   0  0  0  0  0  0  0  0  0  0  0  0
    1.9335   -0.4981    0.0000 N   0  0  0  0  0  0  0  0  0  0  0  0
    3.1054   -5.8593    0.0000 N   0  0  0  0  0  0  0  0  0  0  0  0
    3.0175   -2.3437    0.0000 C   0  0  0  0  0  0  0  0  0  0  0  0
    3.8378   -2.1386    0.0000 C   0  0  0  0  0  0  0  0  0  0  0  0
    2.4902   -1.7285    0.0000 C   0  0  0  0  0  0  0  0  0  0  0  0
    4.3945   -2.7832    0.0000 C   0  0  0  0  0  0  0  0  0  0  0  0
    3.3398   -3.7206    0.0000 C   0  0  0  0  0  0  0  0  0  0  0  0
    1.6406   -1.8164    0.0000 C   0  0  0  0  0  0  0  0  0  0  0  0
    2.7832   -3.0761    0.0000 C   0  0  0  0  0  0  0  0  0  0  0  0
    3.1054   -4.5117    0.0000 C   0  0  0  0  0  0  0  0  0  0  0  0
    4.1308   -3.5742    0.0000 C   0  0  0  0  0  0  0  0  0  0  0  0
    5.0683   -1.6113    0.0000 C   0  0  0  0  0  0  0  0  0  0  0  0
    1.2304   -2.5195    0.0000 C   0  0  0  0  0  0  0  0  0  0  0  0
    1.3183   -1.0547    0.0000 C   0  0  0  0  0  0  0  0  0  0  0  0
    2.3144   -4.7753    0.0000 C   0  0  0  0  0  0  0  0  0  0  0  0
    3.5742   -5.1855    0.0000 C   0  0  0  0  0  0  0  0  0  0  0  0
    3.3984   -0.5859    0.0000 C   0  0  0  0  0  0  0  0  0  0  0  0
    1.6406   -3.2519    0.0000 C   0  0  0  0  0  0  0  0  0  0  0  0
    0.4101   -2.5195    0.0000 C   0  0  0  0  0  0  0  0  0  0  0  0
    1.6406   -4.3065    0.0000 C   0  0  0  0  0  0  0  0  0  0  0  0
    4.3945   -5.1855    0.0000 C   0  0  0  0  0  0  0  0  0  0  0  0
    1.2304   -3.9550    0.0000 C   0  0  0  0  0  0  0  0  0  0  0  0
    0.0000   -3.2519    0.0000 C   0  0  0  0  0  0  0  0  0  0  0  0
    5.5370   -0.2637    0.0000 C   0  0  0  0  0  0  0  0  0  0  0  0
    0.4101   -3.9550    0.0000 C   0  0  0  0  0  0  0  0  0  0  0  0
    4.7460    0.0000    0.0000 C   0  0  0  0  0  0  0  0  0  0  0  0
  1  7  1  0  0  0  0
  1 20  1  0  0  0  0
  2 17  1  0  0  0  0
  2 29  1  0  0  0  0
  3  6  1  0  0  0  0
  3 10  1  0  0  0  0
  3 22  1  0  0  0  0
  4  9  1  0  0  0  0
  4 17  2  0  0  0  0
  5 11  1  0  0  0  0
  5 17  1  0  0  0  0
  6 19  2  0  0  0  0
  7 21  2  0  0  0  0
  8  9  1  0  0  0  0
  8 10  1  0  0  0  0
  8 14  2  0  0  0  0
  9 11  2  0  0  0  0
 10 13  2  0  0  0  0
 11 16  1  0  0  0  0
 12 14  1  0  0  0  0
 12 15  1  0  0  0  0
 12 16  2  0  0  0  0
 13 18  1  0  0  0  0
 13 19  1  0  0  0  0
 15 20  2  0  0  0  0
 15 21  1  0  0  0  0
 18 23  2  0  0  0  0
 18 24  1  0  0  0  0
 20 25  1  0  0  0  0
 21 26  1  0  0  0  0
 23 27  1  0  0  0  0
 24 28  2  0  0  0  0
 27 30  2  0  0  0  0
 28 30  1  0  0  0  0
 29 31  1  0  0  0  0
M  END
> <PUBCHEM_COMPOUND_ID_TYPE>
0

> <PUBCHEM_TOTAL_CHARGE>
0

> <PUBCHEM_SUBSTANCE_ID>
310933630

> <PUBCHEM_SUBSTANCE_VERSION>
1

> <PUBCHEM_EXT_DATASOURCE_NAME>
4488

> <PUBCHEM_EXT_DATASOURCE_REGID>
SCHEMBL16111061

> <PUBCHEM_SUBSTANCE_COMMENT>
InChI=1S/C24H23N5O2/c1-5-30-24-26-20-12-17(21-14(2)28-31-15(21)3)11-18(22(20)27-24)23-19(13-25-29(23)4)16-9-7-6-8-10-16/h6-13H,5H2,1-4H3,(H,26,27)
InChIKey=LHLLVZWUIGBEGR-UHFFFAOYSA-N

> <PUBCHEM_SUBSTANCE_SYNONYM>
SCHEMBL16111061

> <PUBCHEM_XREF_EXT_ID>
SCHEMBL16111061

> <PUBCHEM_EXT_DATASOURCE_URL>
https://www.surechembl.org/

> <PUBCHEM_EXT_SUBSTANCE_URL>
https://www.surechembl.org/chemical/SCHEMBL16111061

> <PUBCHEM_CID_ASSOCIATIONS>
117602003  1

> <PUBCHEM_COORDINATE_TYPE>
1
3

$$$$
