310949227
  -OEChem-07211613022D

 41 45  0     0  0  0  0  0  0999 V2000
    1.1712    1.6640    0.0000 F   0  0  0  0  0  0  0  0  0  0  0  0
    2.2719    1.3695    0.0000 F   0  0  0  0  0  0  0  0  0  0  0  0
    1.9648    0.2688    0.0000 F   0  0  0  0  0  0  0  0  0  0  0  0
   -1.7984    0.1536    0.0000 F   0  0  0  0  0  0  0  0  0  0  0  0
   -2.2975    1.1775    0.0000 F   0  0  0  0  0  0  0  0  0  0  0  0
   -1.2608    1.6640    0.0000 F   0  0  0  0  0  0  0  0  0  0  0  0
    1.5936   -1.5104    0.0000 F   0  0  0  0  0  0  0  0  0  0  0  0
   -1.2736   -1.5487    0.0000 F   0  0  0  0  0  0  0  0  0  0  0  0
   -1.2736   -3.2127    0.0000 F   0  0  0  0  0  0  0  0  0  0  0  0
    1.5936   -3.1743    0.0000 F   0  0  0  0  0  0  0  0  0  0  0  0
    0.1600   -4.0319    0.0000 F   0  0  0  0  0  0  0  0  0  0  0  0
    0.1472    1.7920    0.0000 N   0  0  0  0  0  0  0  0  0  0  0  0
    0.1472    0.9856    0.0000 C   0  0  0  0  0  0  0  0  0  0  0  0
    0.8640    2.2272    0.0000 C   0  0  0  0  0  0  0  0  0  0  0  0
   -0.5952    2.2016    0.0000 C   0  0  0  0  0  0  0  0  0  0  0  0
    0.1472    3.4560    0.0000 C   0  0  0  0  0  0  0  0  0  0  0  0
    0.8768    0.5632    0.0000 C   0  0  0  0  0  0  0  0  0  0  0  0
   -0.5824    0.5376    0.0000 C   0  0  0  0  0  0  0  0  0  0  0  0
   -0.5952    3.0207    0.0000 C   0  0  0  0  0  0  0  0  0  0  0  0
    0.8640    3.0463    0.0000 C   0  0  0  0  0  0  0  0  0  0  0  0
    0.1728   -0.6656    0.0000 C   0  0  0  0  0  0  0  0  0  0  0  0
    0.8640   -0.2432    0.0000 C   0  0  0  0  0  0  0  0  0  0  0  0
   -0.5696   -0.2944    0.0000 C   0  0  0  0  0  0  0  0  0  0  0  0
    1.5679    0.9728    0.0000 C   0  0  0  0  0  0  0  0  0  0  0  0
   -1.5423    0.9216    0.0000 C   0  0  0  0  0  0  0  0  0  0  0  0
    0.1472   -1.5104    0.0000 C   0  0  0  0  0  0  0  0  0  0  0  0
    1.5936    1.8304    0.0000 C   0  0  0  0  0  0  0  0  0  0  0  0
   -1.2864    1.7920    0.0000 C   0  0  0  0  0  0  0  0  0  0  0  0
   -1.3248    3.4175    0.0000 C   0  0  0  0  0  0  0  0  0  0  0  0
    1.5807    3.4560    0.0000 C   0  0  0  0  0  0  0  0  0  0  0  0
    0.8768   -1.9199    0.0000 C   0  0  0  0  0  0  0  0  0  0  0  0
   -0.5568   -1.9327    0.0000 C   0  0  0  0  0  0  0  0  0  0  0  0
   -0.6080    3.8655    0.0000 C   0  0  0  0  0  0  0  0  0  0  0  0
    0.7232    4.0319    0.0000 C   0  0  0  0  0  0  0  0  0  0  0  0
   -0.5824   -2.7775    0.0000 C   0  0  0  0  0  0  0  0  0  0  0  0
    0.8640   -2.7520    0.0000 C   0  0  0  0  0  0  0  0  0  0  0  0
    0.1600   -3.1615    0.0000 C   0  0  0  0  0  0  0  0  0  0  0  0
   -2.0160    2.1760    0.0000 C   0  0  0  0  0  0  0  0  0  0  0  0
    2.2847    2.2527    0.0000 C   0  0  0  0  0  0  0  0  0  0  0  0
   -2.0288    2.9951    0.0000 C   0  0  0  0  0  0  0  0  0  0  0  0
    2.2975    3.0719    0.0000 C   0  0  0  0  0  0  0  0  0  0  0  0
  1 24  1  0  0  0  0
  2 24  1  0  0  0  0
  3 24  1  0  0  0  0
  4 25  1  0  0  0  0
  5 25  1  0  0  0  0
  6 25  1  0  0  0  0
  7 31  1  0  0  0  0
  8 32  1  0  0  0  0
  9 35  1  0  0  0  0
 10 36  1  0  0  0  0
 11 37  1  0  0  0  0
 12 13  1  0  0  0  0
 12 14  1  0  0  0  0
 12 15  1  0  0  0  0
 13 17  2  0  0  0  0
 13 18  1  0  0  0  0
 14 20  2  0  0  0  0
 14 27  1  0  0  0  0
 15 19  2  0  0  0  0
 15 28  1  0  0  0  0
 16 19  1  0  0  0  0
 16 20  1  0  0  0  0
 16 33  1  0  0  0  0
 16 34  1  0  0  0  0
 17 22  1  0  0  0  0
 17 24  1  0  0  0  0
 18 23  2  0  0  0  0
 18 25  1  0  0  0  0
 19 29  1  0  0  0  0
 20 30  1  0  0  0  0
 21 22  2  0  0  0  0
 21 23  1  0  0  0  0
 21 26  1  0  0  0  0
 26 31  2  0  0  0  0
 26 32  1  0  0  0  0
 27 39  2  0  0  0  0
 28 38  2  0  0  0  0
 29 40  2  0  0  0  0
 30 41  2  0  0  0  0
 31 36  1  0  0  0  0
 32 35  2  0  0  0  0
 35 37  1  0  0  0  0
 36 37  2  0  0  0  0
 38 40  1  0  0  0  0
 39 41  1  0  0  0  0
M  END
> <PUBCHEM_COMPOUND_ID_TYPE>
0

> <PUBCHEM_TOTAL_CHARGE>
0

> <PUBCHEM_SUBSTANCE_ID>
310949227

> <PUBCHEM_SUBSTANCE_VERSION>
1

> <PUBCHEM_EXT_DATASOURCE_NAME>
4488

> <PUBCHEM_EXT_DATASOURCE_REGID>
SCHEMBL16127417

> <PUBCHEM_SUBSTANCE_COMMENT>
InChI=1S/C29H16F11N/c1-27(2)14-7-3-5-9-18(14)41(19-10-6-4-8-15(19)27)26-16(28(35,36)37)11-13(12-17(26)29(38,39)40)20-21(30)23(32)25(34)24(33)22(20)31/h3-12H,1-2H3
InChIKey=RKBNLKOKBFWXRR-UHFFFAOYSA-N

> <PUBCHEM_SUBSTANCE_SYNONYM>
SCHEMBL16127417

> <PUBCHEM_XREF_EXT_ID>
SCHEMBL16127417

> <PUBCHEM_EXT_DATASOURCE_URL>
https://www.surechembl.org/

> <PUBCHEM_EXT_SUBSTANCE_URL>
https://www.surechembl.org/chemical/SCHEMBL16127417

> <PUBCHEM_CID_ASSOCIATIONS>
117614715  1

> <PUBCHEM_COORDINATE_TYPE>
1
3

$$$$
