310934299
  -OEChem-07211613022D

 37 42  0     1  0  0  0  0  0999 V2000
    0.7846    0.6674    0.0000 S   0  0  0  0  0  0  0  0  0  0  0  0
   -4.1405   -1.6704    0.0000 F   0  0  0  0  0  0  0  0  0  0  0  0
   -5.0924    1.2263    0.0000 O   0  0  0  0  0  0  0  0  0  0  0  0
   -4.3779    2.4638    0.0000 O   0  0  0  0  0  0  0  0  0  0  0  0
   -8.6647   -0.0112    0.0000 O   0  0  0  0  0  0  0  0  0  0  0  0
    0.7846   -0.6674    0.0000 N   0  0  0  0  0  0  0  0  0  0  0  0
   -3.4491    1.1026    0.0000 C   0  0  3  0  0  0  0  0  0  0  0  0
   -4.0222    0.5091    0.0000 C   0  0  0  0  0  0  0  0  0  0  0  0
   -2.1434    0.8250    0.0000 C   0  0  0  0  0  0  0  0  0  0  0  0
   -2.8971    0.4895    0.0000 C   0  0  0  0  0  0  0  0  0  0  0  0
   -4.3779    1.6388    0.0000 C   0  0  0  0  0  0  0  0  0  0  0  0
   -3.0366    1.8170    0.0000 C   0  0  0  0  0  0  0  0  0  0  0  0
   -1.4290    0.4125    0.0000 C   0  0  0  0  0  0  0  0  0  0  0  0
   -3.7948   -0.2840    0.0000 C   0  0  0  0  0  0  0  0  0  0  0  0
   -2.2296    1.6455    0.0000 C   0  0  0  0  0  0  0  0  0  0  0  0
    0.0000    0.4125    0.0000 C   0  0  0  0  0  0  0  0  0  0  0  0
    0.0000   -0.4125    0.0000 C   0  0  0  0  0  0  0  0  0  0  0  0
   -0.7144    0.8250    0.0000 C   0  0  0  0  0  0  0  0  0  0  0  0
    1.2696    0.0000    0.0000 C   0  0  0  0  0  0  0  0  0  0  0  0
   -4.8227    0.7087    0.0000 C   0  0  0  0  0  0  0  0  0  0  0  0
   -1.4290   -0.4125    0.0000 C   0  0  0  0  0  0  0  0  0  0  0  0
   -4.3679   -0.8774    0.0000 C   0  0  0  0  0  0  0  0  0  0  0  0
    2.0946    0.0000    0.0000 C   0  0  0  0  0  0  0  0  0  0  0  0
   -0.7144   -0.8250    0.0000 C   0  0  0  0  0  0  0  0  0  0  0  0
   -5.3958    0.1152    0.0000 C   0  0  0  0  0  0  0  0  0  0  0  0
   -5.1684   -0.6779    0.0000 C   0  0  0  0  0  0  0  0  0  0  0  0
    2.8090    0.4125    0.0000 C   0  0  0  0  0  0  0  0  0  0  0  0
    2.8090   -0.4125    0.0000 C   0  0  0  0  0  0  0  0  0  0  0  0
   -2.9943   -0.4836    0.0000 C   0  0  0  0  0  0  0  0  0  0  0  0
   -5.8069    1.6388    0.0000 C   0  0  0  0  0  0  0  0  0  0  0  0
   -6.5213    1.2263    0.0000 C   0  0  0  0  0  0  0  0  0  0  0  0
   -7.2358    1.6388    0.0000 C   0  0  0  0  0  0  0  0  0  0  0  0
   -6.5213    0.4013    0.0000 C   0  0  0  0  0  0  0  0  0  0  0  0
   -7.9503    0.4013    0.0000 C   0  0  0  0  0  0  0  0  0  0  0  0
   -7.9503    1.2263    0.0000 C   0  0  0  0  0  0  0  0  0  0  0  0
   -7.2358   -0.0112    0.0000 C   0  0  0  0  0  0  0  0  0  0  0  0
   -9.3792    0.4013    0.0000 C   0  0  0  0  0  0  0  0  0  0  0  0
  1 16  1  0  0  0  0
  1 19  1  0  0  0  0
  2 22  1  0  0  0  0
  3 11  1  0  0  0  0
  3 30  1  0  0  0  0
  4 11  2  0  0  0  0
  5 34  1  0  0  0  0
  5 37  1  0  0  0  0
  6 17  1  0  0  0  0
  6 19  2  0  0  0  0
  7  8  1  0  0  0  0
  7 10  1  0  0  0  0
  7 11  1  1  0  0  0
  7 12  1  0  0  0  0
  8 14  1  0  0  0  0
  8 20  2  0  0  0  0
  9 10  2  0  0  0  0
  9 13  1  0  0  0  0
  9 15  1  0  0  0  0
 12 15  1  0  0  0  0
 13 18  1  0  0  0  0
 13 21  2  0  0  0  0
 14 22  2  0  0  0  0
 14 29  1  0  0  0  0
 16 17  1  0  0  0  0
 16 18  2  0  0  0  0
 17 24  2  0  0  0  0
 19 23  1  0  0  0  0
 20 25  1  0  0  0  0
 21 24  1  0  0  0  0
 22 26  1  0  0  0  0
 23 27  1  0  0  0  0
 23 28  1  0  0  0  0
 25 26  2  0  0  0  0
 27 28  1  0  0  0  0
 30 31  1  0  0  0  0
 31 32  2  0  0  0  0
 31 33  1  0  0  0  0
 32 35  1  0  0  0  0
 33 36  2  0  0  0  0
 34 35  2  0  0  0  0
 34 36  1  0  0  0  0
M  END
> <PUBCHEM_COMPOUND_ID_TYPE>
0

> <PUBCHEM_TOTAL_CHARGE>
0

> <PUBCHEM_SUBSTANCE_ID>
310934299

> <PUBCHEM_SUBSTANCE_VERSION>
1

> <PUBCHEM_EXT_DATASOURCE_NAME>
4488

> <PUBCHEM_EXT_DATASOURCE_REGID>
SCHEMBL16111757

> <PUBCHEM_SUBSTANCE_COMMENT>
InChI=1S/C31H28FNO3S/c1-19-25(4-3-5-26(19)32)31(30(34)36-18-20-6-11-24(35-2)12-7-20)15-14-23(17-31)22-10-13-27-28(16-22)37-29(33-27)21-8-9-21/h3-7,10-13,16-17,21H,8-9,14-15,18H2,1-2H3/t31-/m0/s1
InChIKey=YTAHMELFHPBJBX-HKBQPEDESA-N

> <PUBCHEM_SUBSTANCE_SYNONYM>
SCHEMBL16111757

> <PUBCHEM_XREF_EXT_ID>
SCHEMBL16111757

> <PUBCHEM_EXT_DATASOURCE_URL>
https://www.surechembl.org/

> <PUBCHEM_EXT_SUBSTANCE_URL>
https://www.surechembl.org/chemical/SCHEMBL16111757

> <PUBCHEM_CID_ASSOCIATIONS>
117602542  1

> <PUBCHEM_COORDINATE_TYPE>
1
3

> <PUBCHEM_BONDANNOTATIONS>
7  11  5

$$$$
