310940119
  -OEChem-07211613022D

 47 56  0     0  0  0  0  0  0999 V2000
    6.3689  -17.3883    0.0000 O   0  0  0  0  0  0  0  0  0  0  0  0
    4.0453  -15.0642    0.0000 N   0  0  0  0  0  0  0  0  0  0  0  0
   11.2988  -13.3438    0.0000 N   0  0  0  0  0  0  0  0  0  0  0  0
   10.2190  -12.5593    0.0000 N   0  0  0  0  0  0  0  0  0  0  0  0
    4.2169  -14.2574    0.0000 C   0  0  0  0  0  0  0  0  0  0  0  0
    3.2250  -15.1505    0.0000 C   0  0  0  0  0  0  0  0  0  0  0  0
    4.5974  -15.6774    0.0000 C   0  0  0  0  0  0  0  0  0  0  0  0
    3.5025  -13.8448    0.0000 C   0  0  0  0  0  0  0  0  0  0  0  0
    2.8895  -14.3968    0.0000 C   0  0  0  0  0  0  0  0  0  0  0  0
    5.9565  -16.1189    0.0000 C   0  0  0  0  0  0  0  0  0  0  0  0
    6.7815  -16.1189    0.0000 C   0  0  0  0  0  0  0  0  0  0  0  0
    5.7015  -16.9034    0.0000 C   0  0  0  0  0  0  0  0  0  0  0  0
    5.4044  -15.5058    0.0000 C   0  0  0  0  0  0  0  0  0  0  0  0
    7.0364  -16.9034    0.0000 C   0  0  0  0  0  0  0  0  0  0  0  0
   10.4739  -13.3438    0.0000 C   0  0  0  0  0  0  0  0  0  0  0  0
    4.3424  -16.4620    0.0000 C   0  0  0  0  0  0  0  0  0  0  0  0
   11.5537  -12.5593    0.0000 C   0  0  0  0  0  0  0  0  0  0  0  0
    4.8946  -17.0750    0.0000 C   0  0  0  0  0  0  0  0  0  0  0  0
    7.3335  -15.5058    0.0000 C   0  0  0  0  0  0  0  0  0  0  0  0
    4.9314  -13.8448    0.0000 C   0  0  0  0  0  0  0  0  0  0  0  0
    2.7400  -15.8180    0.0000 C   0  0  0  0  0  0  0  0  0  0  0  0
    8.1404  -15.6774    0.0000 C   0  0  0  0  0  0  0  0  0  0  0  0
    3.5025  -13.0198    0.0000 C   0  0  0  0  0  0  0  0  0  0  0  0
    2.0689  -14.3106    0.0000 C   0  0  0  0  0  0  0  0  0  0  0  0
   10.8864  -12.0744    0.0000 C   0  0  0  0  0  0  0  0  0  0  0  0
    9.8904  -13.9273    0.0000 C   0  0  0  0  0  0  0  0  0  0  0  0
    7.8433  -17.0750    0.0000 C   0  0  0  0  0  0  0  0  0  0  0  0
    8.7238  -15.0940    0.0000 C   0  0  0  0  0  0  0  0  0  0  0  0
   11.7113  -14.0584    0.0000 C   0  0  0  0  0  0  0  0  0  0  0  0
    8.3954  -16.4620    0.0000 C   0  0  0  0  0  0  0  0  0  0  0  0
    4.9314  -13.0198    0.0000 C   0  0  0  0  0  0  0  0  0  0  0  0
    1.9196  -15.7317    0.0000 C   0  0  0  0  0  0  0  0  0  0  0  0
    4.2169  -12.6073    0.0000 C   0  0  0  0  0  0  0  0  0  0  0  0
    1.5840  -14.9780    0.0000 C   0  0  0  0  0  0  0  0  0  0  0  0
   10.1040  -14.7242    0.0000 C   0  0  0  0  0  0  0  0  0  0  0  0
    9.0936  -13.7136    0.0000 C   0  0  0  0  0  0  0  0  0  0  0  0
   12.3075  -12.2238    0.0000 C   0  0  0  0  0  0  0  0  0  0  0  0
    9.5206  -15.3075    0.0000 C   0  0  0  0  0  0  0  0  0  0  0  0
    8.5104  -14.2971    0.0000 C   0  0  0  0  0  0  0  0  0  0  0  0
   10.9726  -11.2539    0.0000 C   0  0  0  0  0  0  0  0  0  0  0  0
   11.2988  -14.7728    0.0000 C   0  0  0  0  0  0  0  0  0  0  0  0
   12.5364  -14.0584    0.0000 C   0  0  0  0  0  0  0  0  0  0  0  0
   12.3937  -11.4032    0.0000 C   0  0  0  0  0  0  0  0  0  0  0  0
   11.7262  -10.9183    0.0000 C   0  0  0  0  0  0  0  0  0  0  0  0
   11.7113  -15.4873    0.0000 C   0  0  0  0  0  0  0  0  0  0  0  0
   12.9488  -14.7728    0.0000 C   0  0  0  0  0  0  0  0  0  0  0  0
   12.5364  -15.4873    0.0000 C   0  0  0  0  0  0  0  0  0  0  0  0
  1 12  1  0  0  0  0
  1 14  1  0  0  0  0
  2  5  1  0  0  0  0
  2  6  1  0  0  0  0
  2  7  1  0  0  0  0
  3 15  1  0  0  0  0
  3 17  1  0  0  0  0
  3 29  1  0  0  0  0
  4 15  2  0  0  0  0
  4 25  1  0  0  0  0
  5  8  2  0  0  0  0
  5 20  1  0  0  0  0
  6  9  2  0  0  0  0
  6 21  1  0  0  0  0
  7 13  1  0  0  0  0
  7 16  2  0  0  0  0
  8  9  1  0  0  0  0
  8 23  1  0  0  0  0
  9 24  1  0  0  0  0
 10 11  1  0  0  0  0
 10 12  1  0  0  0  0
 10 13  2  0  0  0  0
 11 14  2  0  0  0  0
 11 19  1  0  0  0  0
 12 18  2  0  0  0  0
 14 27  1  0  0  0  0
 15 26  1  0  0  0  0
 16 18  1  0  0  0  0
 17 25  2  0  0  0  0
 17 37  1  0  0  0  0
 19 22  2  0  0  0  0
 20 31  2  0  0  0  0
 21 32  2  0  0  0  0
 22 28  1  0  0  0  0
 22 30  1  0  0  0  0
 23 33  2  0  0  0  0
 24 34  2  0  0  0  0
 25 40  1  0  0  0  0
 26 35  2  0  0  0  0
 26 36  1  0  0  0  0
 27 30  2  0  0  0  0
 28 38  2  0  0  0  0
 28 39  1  0  0  0  0
 29 41  2  0  0  0  0
 29 42  1  0  0  0  0
 31 33  1  0  0  0  0
 32 34  1  0  0  0  0
 35 38  1  0  0  0  0
 36 39  2  0  0  0  0
 37 43  2  0  0  0  0
 40 44  2  0  0  0  0
 41 45  1  0  0  0  0
 42 46  2  0  0  0  0
 43 44  1  0  0  0  0
 45 47  2  0  0  0  0
 46 47  1  0  0  0  0
M  END
> <PUBCHEM_COMPOUND_ID_TYPE>
0

> <PUBCHEM_TOTAL_CHARGE>
0

> <PUBCHEM_SUBSTANCE_ID>
310940119

> <PUBCHEM_SUBSTANCE_VERSION>
1

> <PUBCHEM_EXT_DATASOURCE_NAME>
4488

> <PUBCHEM_EXT_DATASOURCE_REGID>
SCHEMBL16118051

> <PUBCHEM_SUBSTANCE_COMMENT>
InChI=1S/C43H27N3O/c1-2-10-31(11-3-1)46-40-17-9-6-14-37(40)44-43(46)29-20-18-28(19-21-29)30-22-24-41-35(26-30)36-27-32(23-25-42(36)47-41)45-38-15-7-4-12-33(38)34-13-5-8-16-39(34)45/h1-27H
InChIKey=NQENXAHXZMTICS-UHFFFAOYSA-N

> <PUBCHEM_SUBSTANCE_SYNONYM>
SCHEMBL16118051

> <PUBCHEM_XREF_EXT_ID>
SCHEMBL16118051

> <PUBCHEM_EXT_DATASOURCE_URL>
https://www.surechembl.org/

> <PUBCHEM_EXT_SUBSTANCE_URL>
https://www.surechembl.org/chemical/SCHEMBL16118051

> <PUBCHEM_CID_ASSOCIATIONS>
117607246  1

> <PUBCHEM_COORDINATE_TYPE>
1
3

$$$$
