310947503
  -OEChem-07211613022D

 27 32  0     0  0  0  0  0  0999 V2000
   -2.2839   -1.7951    0.0000 O   0  0  0  0  0  0  0  0  0  0  0  0
   -3.4539   -1.1380    0.0000 O   0  0  0  0  0  0  0  0  0  0  0  0
    3.0052    0.4167    0.0000 O   0  0  0  0  0  0  0  0  0  0  0  0
    3.0052    1.7630    0.0000 O   0  0  0  0  0  0  0  0  0  0  0  0
    1.4825   -0.5930    0.0000 O   0  0  0  0  0  0  0  0  0  0  0  0
    0.0401   -0.5930    0.0000 N   0  3  0  0  0  0  0  0  0  0  0  0
    0.0401    0.2565    0.0000 C   0  0  0  0  0  0  0  0  0  0  0  0
   -0.6972    0.6571    0.0000 C   0  0  0  0  0  0  0  0  0  0  0  0
   -1.4024    0.2404    0.0000 C   0  0  0  0  0  0  0  0  0  0  0  0
    0.7613    0.6571    0.0000 C   0  0  0  0  0  0  0  0  0  0  0  0
   -1.4345   -0.5770    0.0000 C   0  0  0  0  0  0  0  0  0  0  0  0
    0.7774    1.4905    0.0000 C   0  0  0  0  0  0  0  0  0  0  0  0
   -2.1076   -0.9937    0.0000 C   0  0  0  0  0  0  0  0  0  0  0  0
   -0.6812   -0.9937    0.0000 C   0  0  0  0  0  0  0  0  0  0  0  0
   -2.8288   -0.5930    0.0000 C   0  0  0  0  0  0  0  0  0  0  0  0
   -0.6651    1.4905    0.0000 C   0  0  0  0  0  0  0  0  0  0  0  0
    1.4985    0.2565    0.0000 C   0  0  0  0  0  0  0  0  0  0  0  0
    2.1717    0.6732    0.0000 C   0  0  0  0  0  0  0  0  0  0  0  0
   -2.1076    0.6411    0.0000 C   0  0  0  0  0  0  0  0  0  0  0  0
    2.1877    1.4905    0.0000 C   0  0  0  0  0  0  0  0  0  0  0  0
    0.0401    1.8752    0.0000 C   0  0  0  0  0  0  0  0  0  0  0  0
    1.4825    1.8752    0.0000 C   0  0  0  0  0  0  0  0  0  0  0  0
   -2.8288    0.2404    0.0000 C   0  0  0  0  0  0  0  0  0  0  0  0
    0.7774   -0.9937    0.0000 C   0  0  0  0  0  0  0  0  0  0  0  0
   -3.1173   -1.8752    0.0000 C   0  0  0  0  0  0  0  0  0  0  0  0
    3.4539    1.0738    0.0000 C   0  0  0  0  0  0  0  0  0  0  0  0
    2.1877   -1.0257    0.0000 C   0  0  0  0  0  0  0  0  0  0  0  0
  1 13  1  0  0  0  0
  1 25  1  0  0  0  0
  2 15  1  0  0  0  0
  2 25  1  0  0  0  0
  3 18  1  0  0  0  0
  3 26  1  0  0  0  0
  4 20  1  0  0  0  0
  4 26  1  0  0  0  0
  5 24  1  0  0  0  0
  5 27  1  0  0  0  0
  6  7  1  0  0  0  0
  6 14  2  0  0  0  0
  6 24  1  0  0  0  0
  7  8  2  0  0  0  0
  7 10  1  0  0  0  0
  8  9  1  0  0  0  0
  8 16  1  0  0  0  0
  9 11  1  0  0  0  0
  9 19  2  0  0  0  0
 10 12  2  0  0  0  0
 10 17  1  0  0  0  0
 11 13  2  0  0  0  0
 11 14  1  0  0  0  0
 12 21  1  0  0  0  0
 12 22  1  0  0  0  0
 13 15  1  0  0  0  0
 15 23  2  0  0  0  0
 16 21  2  0  0  0  0
 17 18  2  0  0  0  0
 18 20  1  0  0  0  0
 19 23  1  0  0  0  0
 20 22  2  0  0  0  0
M  CHG  1   6   1
M  END
> <PUBCHEM_COMPOUND_ID_TYPE>
0

> <PUBCHEM_TOTAL_CHARGE>
1

> <PUBCHEM_SUBSTANCE_ID>
310947503

> <PUBCHEM_SUBSTANCE_VERSION>
1

> <PUBCHEM_EXT_DATASOURCE_NAME>
4488

> <PUBCHEM_EXT_DATASOURCE_REGID>
SCHEMBL16125665

> <PUBCHEM_SUBSTANCE_COMMENT>
InChI=1S/C21H16NO5/c1-23-9-22-8-16-13(4-5-17-21(16)27-11-24-17)14-3-2-12-6-18-19(26-10-25-18)7-15(12)20(14)22/h2-8H,9-11H2,1H3/q+1
InChIKey=CBIVWBPCZMQRJA-UHFFFAOYSA-N

> <PUBCHEM_SUBSTANCE_SYNONYM>
SCHEMBL16125665

> <PUBCHEM_XREF_EXT_ID>
SCHEMBL16125665

> <PUBCHEM_EXT_DATASOURCE_URL>
https://www.surechembl.org/

> <PUBCHEM_EXT_SUBSTANCE_URL>
https://www.surechembl.org/chemical/SCHEMBL16125665

> <PUBCHEM_CID_ASSOCIATIONS>
117613226  1

> <PUBCHEM_COORDINATE_TYPE>
1
3

$$$$
