310939449
  -OEChem-07211613022D

 20 20  0     0  0  0  0  0  0999 V2000
   -1.0431   -0.5559    0.0000 O   0  0  0  0  0  0  0  0  0  0  0  0
    1.8148   -0.5559    0.0000 O   0  0  0  0  0  0  0  0  0  0  0  0
   -1.7576   -1.7934    0.0000 N   0  0  0  0  0  0  0  0  0  0  0  0
    2.5292   -1.7934    0.0000 N   0  0  0  0  0  0  0  0  0  0  0  0
   -0.3287   -1.7934    0.0000 C   0  0  0  0  0  0  0  0  0  0  0  0
    1.1003   -1.7934    0.0000 C   0  0  0  0  0  0  0  0  0  0  0  0
    0.3858   -1.3809    0.0000 C   0  0  0  0  0  0  0  0  0  0  0  0
   -1.0431   -1.3809    0.0000 C   0  0  0  0  0  0  0  0  0  0  0  0
    1.8148   -1.3809    0.0000 C   0  0  0  0  0  0  0  0  0  0  0  0
   -0.3287   -2.6184    0.0000 C   0  0  0  0  0  0  0  0  0  0  0  0
    1.1003   -2.6184    0.0000 C   0  0  0  0  0  0  0  0  0  0  0  0
    0.3858   -3.0309    0.0000 C   0  0  0  0  0  0  0  0  0  0  0  0
   -2.4721   -1.3809    0.0000 C   0  0  0  0  0  0  0  0  0  0  0  0
    3.2437   -1.3809    0.0000 C   0  0  0  0  0  0  0  0  0  0  0  0
   -3.1865   -1.7934    0.0000 C   0  0  0  0  0  0  0  0  0  0  0  0
    3.9582   -1.7934    0.0000 C   0  0  0  0  0  0  0  0  0  0  0  0
   -3.9010   -1.3809    0.0000 C   0  0  0  0  0  0  0  0  0  0  0  0
    4.6726   -1.3809    0.0000 C   0  0  0  0  0  0  0  0  0  0  0  0
   -4.6155   -1.7934    0.0000 C   0  0  0  0  0  0  0  0  0  0  0  0
    5.3871   -1.7934    0.0000 C   0  0  0  0  0  0  0  0  0  0  0  0
  1  8  2  0  0  0  0
  2  9  2  0  0  0  0
  3  8  1  0  0  0  0
  3 13  1  0  0  0  0
  4  9  1  0  0  0  0
  4 14  1  0  0  0  0
  5  7  1  0  0  0  0
  5  8  1  0  0  0  0
  5 10  2  0  0  0  0
  6  7  2  0  0  0  0
  6  9  1  0  0  0  0
  6 11  1  0  0  0  0
 10 12  1  0  0  0  0
 11 12  2  0  0  0  0
 13 15  1  0  0  0  0
 14 16  1  0  0  0  0
 15 17  1  0  0  0  0
 16 18  1  0  0  0  0
 17 19  1  0  0  0  0
 18 20  1  0  0  0  0
M  END
> <PUBCHEM_COMPOUND_ID_TYPE>
0

> <PUBCHEM_TOTAL_CHARGE>
0

> <PUBCHEM_SUBSTANCE_ID>
310939449

> <PUBCHEM_SUBSTANCE_VERSION>
1

> <PUBCHEM_EXT_DATASOURCE_NAME>
4488

> <PUBCHEM_EXT_DATASOURCE_REGID>
SCHEMBL16117373

> <PUBCHEM_SUBSTANCE_COMMENT>
InChI=1S/C16H24N2O2/c1-3-5-10-17-15(19)13-8-7-9-14(12-13)16(20)18-11-6-4-2/h7-9,12H,3-6,10-11H2,1-2H3,(H,17,19)(H,18,20)
InChIKey=UEUJQJBBZXOQII-UHFFFAOYSA-N

> <PUBCHEM_SUBSTANCE_SYNONYM>
SCHEMBL16117373

> <PUBCHEM_XREF_EXT_ID>
SCHEMBL16117373

> <PUBCHEM_EXT_DATASOURCE_URL>
https://www.surechembl.org/

> <PUBCHEM_EXT_SUBSTANCE_URL>
https://www.surechembl.org/chemical/SCHEMBL16117373

> <PUBCHEM_CID_ASSOCIATIONS>
2164314  1

> <PUBCHEM_COORDINATE_TYPE>
1
3

$$$$
