310948124
  -OEChem-07211613022D

 45 50  0     0  0  0  0  0  0999 V2000
   -3.0780    2.1268    0.0000 Cl  0  0  0  0  0  0  0  0  0  0  0  0
   -1.1136    4.3076    0.0000 F   0  0  0  0  0  0  0  0  0  0  0  0
    0.0000    4.5088    0.0000 F   0  0  0  0  0  0  0  0  0  0  0  0
    0.1856    3.3796    0.0000 F   0  0  0  0  0  0  0  0  0  0  0  0
    3.0780   -3.0703    0.0000 F   0  0  0  0  0  0  0  0  0  0  0  0
    2.5367   -2.0340    0.0000 F   0  0  0  0  0  0  0  0  0  0  0  0
    2.0262   -3.5652    0.0000 F   0  0  0  0  0  0  0  0  0  0  0  0
    1.3611    1.3379    0.0000 O   0  0  0  0  0  0  0  0  0  0  0  0
   -0.3094   -4.5088    0.0000 O   0  0  0  0  0  0  0  0  0  0  0  0
    1.5003   -2.5444    0.0000 O   0  0  0  0  0  0  0  0  0  0  0  0
   -1.3611    1.8793    0.0000 N   0  0  0  0  0  0  0  0  0  0  0  0
   -0.6961    2.3743    0.0000 N   0  0  0  0  0  0  0  0  0  0  0  0
    0.1392    1.8793    0.0000 N   0  0  0  0  0  0  0  0  0  0  0  0
    1.0672   -4.1375    0.0000 N   0  0  0  0  0  0  0  0  0  0  0  0
    0.0619   -3.1012    0.0000 C   0  0  0  0  0  0  0  0  0  0  0  0
   -0.6496    0.6419    0.0000 C   0  0  0  0  0  0  0  0  0  0  0  0
   -1.3766    1.0595    0.0000 C   0  0  0  0  0  0  0  0  0  0  0  0
   -0.6651   -2.6836    0.0000 C   0  0  0  0  0  0  0  0  0  0  0  0
    0.0619    1.0595    0.0000 C   0  0  0  0  0  0  0  0  0  0  0  0
    0.2784   -2.3278    0.0000 C   0  0  0  0  0  0  0  0  0  0  0  0
    0.8352   -2.8846    0.0000 C   0  0  0  0  0  0  0  0  0  0  0  0
   -1.3457   -0.5955    0.0000 C   0  0  0  0  0  0  0  0  0  0  0  0
    0.8197    0.7038    0.0000 C   0  0  0  0  0  0  0  0  0  0  0  0
    0.2939   -3.9055    0.0000 C   0  0  0  0  0  0  0  0  0  0  0  0
   -1.3611   -1.4307    0.0000 C   0  0  0  0  0  0  0  0  0  0  0  0
   -0.6496   -0.1933    0.0000 C   0  0  0  0  0  0  0  0  0  0  0  0
   -0.6496   -1.8638    0.0000 C   0  0  0  0  0  0  0  0  0  0  0  0
   -2.0417    2.3897    0.0000 C   0  0  0  0  0  0  0  0  0  0  0  0
   -0.9590    3.1476    0.0000 C   0  0  0  0  0  0  0  0  0  0  0  0
   -2.0726    0.6419    0.0000 C   0  0  0  0  0  0  0  0  0  0  0  0
   -2.0726   -0.1933    0.0000 C   0  0  0  0  0  0  0  0  0  0  0  0
    0.9899   -0.0696    0.0000 C   0  0  0  0  0  0  0  0  0  0  0  0
   -1.3611   -3.1012    0.0000 C   0  0  0  0  0  0  0  0  0  0  0  0
    0.9435    2.0494    0.0000 C   0  0  0  0  0  0  0  0  0  0  0  0
   -1.7633    3.1631    0.0000 C   0  0  0  0  0  0  0  0  0  0  0  0
   -0.4640    3.8436    0.0000 C   0  0  0  0  0  0  0  0  0  0  0  0
   -2.0726   -1.8638    0.0000 C   0  0  0  0  0  0  0  0  0  0  0  0
   -2.0726   -2.6991    0.0000 C   0  0  0  0  0  0  0  0  0  0  0  0
    1.7633   -0.3635    0.0000 C   0  0  0  0  0  0  0  0  0  0  0  0
    0.4021   -0.6419    0.0000 C   0  0  0  0  0  0  0  0  0  0  0  0
    1.3302   -1.7091    0.0000 C   0  0  0  0  0  0  0  0  0  0  0  0
    1.2838    2.8073    0.0000 C   0  0  0  0  0  0  0  0  0  0  0  0
    1.9334   -1.1678    0.0000 C   0  0  0  0  0  0  0  0  0  0  0  0
    0.5568   -1.4616    0.0000 C   0  0  0  0  0  0  0  0  0  0  0  0
    2.2892   -2.8073    0.0000 C   0  0  0  0  0  0  0  0  0  0  0  0
  1 28  1  0  0  0  0
  2 36  1  0  0  0  0
  3 36  1  0  0  0  0
  4 36  1  0  0  0  0
  5 45  1  0  0  0  0
  6 45  1  0  0  0  0
  7 45  1  0  0  0  0
  8 23  1  0  0  0  0
  8 34  1  0  0  0  0
  9 24  2  0  0  0  0
 10 41  1  0  0  0  0
 10 45  1  0  0  0  0
 11 12  1  0  0  0  0
 11 17  1  0  0  0  0
 11 28  1  0  0  0  0
 12 29  2  0  0  0  0
 13 19  1  0  0  0  0
 13 34  2  0  0  0  0
 14 24  1  0  0  0  0
 15 18  1  0  0  0  0
 15 20  1  0  0  0  0
 15 21  1  0  0  0  0
 15 24  1  0  0  0  0
 16 17  1  0  0  0  0
 16 19  1  0  0  0  0
 16 26  2  0  0  0  0
 17 30  2  0  0  0  0
 18 27  1  0  0  0  0
 18 33  2  0  0  0  0
 19 23  2  0  0  0  0
 20 21  1  0  0  0  0
 22 25  1  0  0  0  0
 22 26  1  0  0  0  0
 22 31  2  0  0  0  0
 23 32  1  0  0  0  0
 25 27  2  0  0  0  0
 25 37  1  0  0  0  0
 28 35  2  0  0  0  0
 29 35  1  0  0  0  0
 29 36  1  0  0  0  0
 30 31  1  0  0  0  0
 32 39  2  0  0  0  0
 32 40  1  0  0  0  0
 33 38  1  0  0  0  0
 34 42  1  0  0  0  0
 37 38  2  0  0  0  0
 39 43  1  0  0  0  0
 40 44  2  0  0  0  0
 41 43  2  0  0  0  0
 41 44  1  0  0  0  0
M  END
> <PUBCHEM_COMPOUND_ID_TYPE>
0

> <PUBCHEM_TOTAL_CHARGE>
0

> <PUBCHEM_SUBSTANCE_ID>
310948124

> <PUBCHEM_SUBSTANCE_VERSION>
1

> <PUBCHEM_EXT_DATASOURCE_NAME>
4488

> <PUBCHEM_EXT_DATASOURCE_REGID>
SCHEMBL16126300

> <PUBCHEM_SUBSTANCE_COMMENT>
InChI=1S/C31H21ClF6N4O3/c1-16-40-26(27(44-16)17-5-8-21(9-6-17)45-31(36,37)38)22-14-19(18-3-2-4-20(13-18)29(11-12-29)28(39)43)7-10-23(22)42-25(32)15-24(41-42)30(33,34)35/h2-10,13-15H,11-12H2,1H3,(H2,39,43)
InChIKey=JGUCCWWYGLEHRX-UHFFFAOYSA-N

> <PUBCHEM_SUBSTANCE_SYNONYM>
SCHEMBL16126300

> <PUBCHEM_XREF_EXT_ID>
SCHEMBL16126300

> <PUBCHEM_EXT_DATASOURCE_URL>
https://www.surechembl.org/

> <PUBCHEM_EXT_SUBSTANCE_URL>
https://www.surechembl.org/chemical/SCHEMBL16126300

> <PUBCHEM_CID_ASSOCIATIONS>
117613741  1

> <PUBCHEM_COORDINATE_TYPE>
1
3

$$$$
