310949055
  -OEChem-07211613022D

 30 35  0     0  0  0  0  0  0999 V2000
    2.3795   -1.3181    0.0000 Br  0  0  0  0  0  0  0  0  0  0  0  0
   -0.7194   -1.3080    0.0000 Br  0  0  0  0  0  0  0  0  0  0  0  0
    0.9709   -0.4829    0.0000 N   0  0  0  0  0  0  0  0  0  0  0  0
    0.2666    0.0402    0.0000 C   0  0  0  0  0  0  0  0  0  0  0  0
   -1.0715    0.4930    0.0000 C   0  0  0  0  0  0  0  0  0  0  0  0
    0.5383    0.8351    0.0000 C   0  0  0  0  0  0  0  0  0  0  0  0
   -0.8099    1.2979    0.0000 C   0  0  0  0  0  0  0  0  0  0  0  0
   -1.8966    0.5132    0.0000 C   0  0  0  0  0  0  0  0  0  0  0  0
    1.3935    0.8250    0.0000 C   0  0  0  0  0  0  0  0  0  0  0  0
    1.6249    0.0503    0.0000 C   0  0  0  0  0  0  0  0  0  0  0  0
   -1.4841    1.7909    0.0000 C   0  0  0  0  0  0  0  0  0  0  0  0
   -2.1482    1.2979    0.0000 C   0  0  0  0  0  0  0  0  0  0  0  0
   -0.5282   -0.1308    0.0000 C   0  0  0  0  0  0  0  0  0  0  0  0
   -0.0050    1.4589    0.0000 C   0  0  0  0  0  0  0  0  0  0  0  0
    0.9508   -1.2979    0.0000 C   0  0  0  0  0  0  0  0  0  0  0  0
    1.9167    1.4187    0.0000 C   0  0  0  0  0  0  0  0  0  0  0  0
    2.4198   -0.1408    0.0000 C   0  0  0  0  0  0  0  0  0  0  0  0
   -1.5746    2.6160    0.0000 C   0  0  0  0  0  0  0  0  0  0  0  0
   -2.8826    1.6400    0.0000 C   0  0  0  0  0  0  0  0  0  0  0  0
    1.6652   -1.7205    0.0000 C   0  0  0  0  0  0  0  0  0  0  0  0
    0.2465   -1.7205    0.0000 C   0  0  0  0  0  0  0  0  0  0  0  0
   -2.7015    0.3119    0.0000 C   0  0  0  0  0  0  0  0  0  0  0  0
   -1.8966   -0.3522    0.0000 C   0  0  0  0  0  0  0  0  0  0  0  0
    2.7115    1.2678    0.0000 C   0  0  0  0  0  0  0  0  0  0  0  0
    2.9732    0.4729    0.0000 C   0  0  0  0  0  0  0  0  0  0  0  0
   -2.3292    2.9480    0.0000 C   0  0  0  0  0  0  0  0  0  0  0  0
   -2.9732    2.4550    0.0000 C   0  0  0  0  0  0  0  0  0  0  0  0
    1.6652   -2.5455    0.0000 C   0  0  0  0  0  0  0  0  0  0  0  0
    0.2465   -2.5455    0.0000 C   0  0  0  0  0  0  0  0  0  0  0  0
    0.9608   -2.9480    0.0000 C   0  0  0  0  0  0  0  0  0  0  0  0
  1 20  1  0  0  0  0
  2 21  1  0  0  0  0
  3  4  1  0  0  0  0
  3 10  1  0  0  0  0
  3 15  1  0  0  0  0
  4  6  2  0  0  0  0
  4 13  1  0  0  0  0
  5  7  1  0  0  0  0
  5  8  1  0  0  0  0
  5 13  2  0  0  0  0
  6  9  1  0  0  0  0
  6 14  1  0  0  0  0
  7 11  1  0  0  0  0
  7 14  2  0  0  0  0
  8 12  1  0  0  0  0
  8 22  1  0  0  0  0
  8 23  1  0  0  0  0
  9 10  2  0  0  0  0
  9 16  1  0  0  0  0
 10 17  1  0  0  0  0
 11 12  2  0  0  0  0
 11 18  1  0  0  0  0
 12 19  1  0  0  0  0
 15 20  2  0  0  0  0
 15 21  1  0  0  0  0
 16 24  2  0  0  0  0
 17 25  2  0  0  0  0
 18 26  2  0  0  0  0
 19 27  2  0  0  0  0
 20 28  1  0  0  0  0
 21 29  2  0  0  0  0
 24 25  1  0  0  0  0
 26 27  1  0  0  0  0
 28 30  2  0  0  0  0
 29 30  1  0  0  0  0
M  END
> <PUBCHEM_COMPOUND_ID_TYPE>
0

> <PUBCHEM_TOTAL_CHARGE>
0

> <PUBCHEM_SUBSTANCE_ID>
310949055

> <PUBCHEM_SUBSTANCE_VERSION>
1

> <PUBCHEM_EXT_DATASOURCE_NAME>
4488

> <PUBCHEM_EXT_DATASOURCE_REGID>
SCHEMBL16127245

> <PUBCHEM_SUBSTANCE_COMMENT>
InChI=1S/C27H19Br2N/c1-27(2)20-10-5-3-8-16(20)18-14-19-17-9-4-6-13-24(17)30(25(19)15-21(18)27)26-22(28)11-7-12-23(26)29/h3-15H,1-2H3
InChIKey=FLMMKKSKGSIVLB-UHFFFAOYSA-N

> <PUBCHEM_SUBSTANCE_SYNONYM>
SCHEMBL16127245

> <PUBCHEM_XREF_EXT_ID>
SCHEMBL16127245

> <PUBCHEM_EXT_DATASOURCE_URL>
https://www.surechembl.org/

> <PUBCHEM_EXT_SUBSTANCE_URL>
https://www.surechembl.org/chemical/SCHEMBL16127245

> <PUBCHEM_CID_ASSOCIATIONS>
117614560  1

> <PUBCHEM_COORDINATE_TYPE>
1
3

$$$$
