310935252
  -OEChem-07211613022D

 20 22  0     1  0  0  0  0  0999 V2000
    4.5221   -2.8915    0.0000 O   0  0  0  0  0  0  0  0  0  0  0  0
    4.5221   -1.4784    0.0000 O   0  0  0  0  0  0  0  0  0  0  0  0
    3.3046   -2.1741    0.0000 C   0  0  3  0  0  0  0  0  0  0  0  0
    3.6959   -1.4566    0.0000 C   0  0  0  0  0  0  0  0  0  0  0  0
    2.8480   -2.8480    0.0000 C   0  0  0  0  0  0  0  0  0  0  0  0
    2.0654   -2.5871    0.0000 C   0  0  0  0  0  0  0  0  0  0  0  0
    2.8480   -1.5218    0.0000 C   0  0  0  0  0  0  0  0  0  0  0  0
    4.1308   -2.1741    0.0000 C   0  0  0  0  0  0  0  0  0  0  0  0
    2.0654   -1.7827    0.0000 C   0  0  0  0  0  0  0  0  0  0  0  0
    1.4132   -3.0655    0.0000 C   0  0  0  0  0  0  0  0  0  0  0  0
    3.2394   -0.7609    0.0000 C   0  0  0  0  0  0  0  0  0  0  0  0
    4.6743   -1.5871    0.0000 C   0  0  0  0  0  0  0  0  0  0  0  0
    1.4784   -3.8916    0.0000 C   0  0  0  0  0  0  0  0  0  0  0  0
    0.6522   -2.7394    0.0000 C   0  0  0  0  0  0  0  0  0  0  0  0
    3.6090   -0.0435    0.0000 C   0  0  0  0  0  0  0  0  0  0  0  0
    4.8700   -0.6957    0.0000 C   0  0  0  0  0  0  0  0  0  0  0  0
    4.4352    0.0000    0.0000 C   0  0  0  0  0  0  0  0  0  0  0  0
    0.8261   -4.3482    0.0000 C   0  0  0  0  0  0  0  0  0  0  0  0
    0.0000   -3.1959    0.0000 C   0  0  0  0  0  0  0  0  0  0  0  0
    0.0652   -4.0220    0.0000 C   0  0  0  0  0  0  0  0  0  0  0  0
  1  8  2  0  0  0  0
  2  8  1  0  0  0  0
  3  4  1  0  0  0  0
  3  5  1  0  0  0  0
  3  7  1  0  0  0  0
  3  8  1  1  0  0  0
  4 11  2  0  0  0  0
  4 12  1  0  0  0  0
  5  6  2  0  0  0  0
  6  9  1  0  0  0  0
  6 10  1  0  0  0  0
  7  9  1  0  0  0  0
 10 13  2  0  0  0  0
 10 14  1  0  0  0  0
 11 15  1  0  0  0  0
 12 16  2  0  0  0  0
 13 18  1  0  0  0  0
 14 19  2  0  0  0  0
 15 17  2  0  0  0  0
 16 17  1  0  0  0  0
 18 20  2  0  0  0  0
 19 20  1  0  0  0  0
M  END
> <PUBCHEM_COMPOUND_ID_TYPE>
0

> <PUBCHEM_TOTAL_CHARGE>
0

> <PUBCHEM_SUBSTANCE_ID>
310935252

> <PUBCHEM_SUBSTANCE_VERSION>
1

> <PUBCHEM_EXT_DATASOURCE_NAME>
4488

> <PUBCHEM_EXT_DATASOURCE_REGID>
SCHEMBL16112782

> <PUBCHEM_SUBSTANCE_COMMENT>
InChI=1S/C18H16O2/c19-17(20)18(16-9-5-2-6-10-16)12-11-15(13-18)14-7-3-1-4-8-14/h1-10,13H,11-12H2,(H,19,20)/t18-/m1/s1
InChIKey=RATZVBVJHVVIHZ-GOSISDBHSA-N

> <PUBCHEM_SUBSTANCE_SYNONYM>
SCHEMBL16112782

> <PUBCHEM_XREF_EXT_ID>
SCHEMBL16112782

> <PUBCHEM_EXT_DATASOURCE_URL>
https://www.surechembl.org/

> <PUBCHEM_EXT_SUBSTANCE_URL>
https://www.surechembl.org/chemical/SCHEMBL16112782

> <PUBCHEM_CID_ASSOCIATIONS>
117603326  1

> <PUBCHEM_COORDINATE_TYPE>
1
3

> <PUBCHEM_BONDANNOTATIONS>
3  8  5

$$$$
