310933283
  -OEChem-07211613022D

 31 35  0     0  0  0  0  0  0999 V2000
    3.7471    0.0000    0.0000 O   0  0  0  0  0  0  0  0  0  0  0  0
    7.5566   -3.1850    0.0000 N   0  0  0  0  0  0  0  0  0  0  0  0
    7.4317   -2.3419    0.0000 N   0  0  0  0  0  0  0  0  0  0  0  0
    4.9961   -2.1858    0.0000 N   0  0  0  0  0  0  0  0  0  0  0  0
    4.9961   -0.7182    0.0000 N   0  0  0  0  0  0  0  0  0  0  0  0
    6.2764   -5.9017    0.0000 N   0  0  0  0  0  0  0  0  0  0  0  0
    3.7471   -1.4364    0.0000 N   0  0  0  0  0  0  0  0  0  0  0  0
    6.2139   -2.9040    0.0000 C   0  0  0  0  0  0  0  0  0  0  0  0
    6.7760   -3.4973    0.0000 C   0  0  0  0  0  0  0  0  0  0  0  0
    6.6511   -2.1546    0.0000 C   0  0  0  0  0  0  0  0  0  0  0  0
    6.6199   -4.3092    0.0000 C   0  0  0  0  0  0  0  0  0  0  0  0
    6.2139   -1.4364    0.0000 C   0  0  0  0  0  0  0  0  0  0  0  0
    5.4021   -2.9040    0.0000 C   0  0  0  0  0  0  0  0  0  0  0  0
    5.4021   -1.4364    0.0000 C   0  0  0  0  0  0  0  0  0  0  0  0
    7.2444   -4.8712    0.0000 C   0  0  0  0  0  0  0  0  0  0  0  0
    5.8392   -4.5590    0.0000 C   0  0  0  0  0  0  0  0  0  0  0  0
    7.0571   -5.6831    0.0000 C   0  0  0  0  0  0  0  0  0  0  0  0
    1.6862   -2.1546    0.0000 C   0  0  0  0  0  0  0  0  0  0  0  0
    2.4980   -2.1546    0.0000 C   0  0  0  0  0  0  0  0  0  0  0  0
    1.2491   -2.8728    0.0000 C   0  0  0  0  0  0  0  0  0  0  0  0
    4.1531   -0.7182    0.0000 C   0  0  0  0  0  0  0  0  0  0  0  0
    5.6519   -5.3709    0.0000 C   0  0  0  0  0  0  0  0  0  0  0  0
    2.9040   -1.4364    0.0000 C   0  0  0  0  0  0  0  0  0  0  0  0
    2.9040   -2.8728    0.0000 C   0  0  0  0  0  0  0  0  0  0  0  0
    1.2802   -1.4364    0.0000 C   0  0  0  0  0  0  0  0  0  0  0  0
    1.6550   -3.5910    0.0000 C   0  0  0  0  0  0  0  0  0  0  0  0
    0.4059   -2.8416    0.0000 C   0  0  0  0  0  0  0  0  0  0  0  0
    2.4668   -3.5910    0.0000 C   0  0  0  0  0  0  0  0  0  0  0  0
    7.6503   -6.2452    0.0000 C   0  0  0  0  0  0  0  0  0  0  0  0
    0.4372   -1.4052    0.0000 C   0  0  0  0  0  0  0  0  0  0  0  0
    0.0000   -2.1234    0.0000 C   0  0  0  0  0  0  0  0  0  0  0  0
  1 21  2  0  0  0  0
  2  3  1  0  0  0  0
  2  9  2  0  0  0  0
  3 10  1  0  0  0  0
  4 13  1  0  0  0  0
  4 14  2  0  0  0  0
  5 14  1  0  0  0  0
  5 21  1  0  0  0  0
  6 17  1  0  0  0  0
  6 22  2  0  0  0  0
  7 21  1  0  0  0  0
  7 23  1  0  0  0  0
  8  9  1  0  0  0  0
  8 10  1  0  0  0  0
  8 13  2  0  0  0  0
  9 11  1  0  0  0  0
 10 12  2  0  0  0  0
 11 15  1  0  0  0  0
 11 16  2  0  0  0  0
 12 14  1  0  0  0  0
 15 17  2  0  0  0  0
 16 22  1  0  0  0  0
 17 29  1  0  0  0  0
 18 19  1  0  0  0  0
 18 20  2  0  0  0  0
 18 25  1  0  0  0  0
 19 23  1  0  0  0  0
 19 24  2  0  0  0  0
 20 26  1  0  0  0  0
 20 27  1  0  0  0  0
 24 28  1  0  0  0  0
 25 30  2  0  0  0  0
 26 28  2  0  0  0  0
 27 31  2  0  0  0  0
 30 31  1  0  0  0  0
M  END
> <PUBCHEM_COMPOUND_ID_TYPE>
0

> <PUBCHEM_TOTAL_CHARGE>
0

> <PUBCHEM_SUBSTANCE_ID>
310933283

> <PUBCHEM_SUBSTANCE_VERSION>
1

> <PUBCHEM_EXT_DATASOURCE_NAME>
4488

> <PUBCHEM_EXT_DATASOURCE_REGID>
SCHEMBL16110694

> <PUBCHEM_SUBSTANCE_COMMENT>
InChI=1S/C24H20N6O/c1-15-11-17(9-10-25-15)23-20-14-26-22(12-21(20)29-30-23)28-24(31)27-13-18-7-4-6-16-5-2-3-8-19(16)18/h2-12,14H,13H2,1H3,(H,29,30)(H2,26,27,28,31)
InChIKey=FNSLWMLVMLKKBC-UHFFFAOYSA-N

> <PUBCHEM_SUBSTANCE_SYNONYM>
SCHEMBL16110694

> <PUBCHEM_XREF_EXT_ID>
SCHEMBL16110694

> <PUBCHEM_EXT_DATASOURCE_URL>
https://www.surechembl.org/

> <PUBCHEM_EXT_SUBSTANCE_URL>
https://www.surechembl.org/chemical/SCHEMBL16110694

> <PUBCHEM_CID_ASSOCIATIONS>
71555535  1

> <PUBCHEM_COORDINATE_TYPE>
1
3

$$$$
