310948133
  -OEChem-07211613022D

 35 38  0     0  0  0  0  0  0999 V2000
    0.9331   -2.1771    0.0000 Br  0  0  0  0  0  0  0  0  0  0  0  0
   -4.6790    0.6842    0.0000 F   0  0  0  0  0  0  0  0  0  0  0  0
   -4.3887    1.4721    0.0000 F   0  0  0  0  0  0  0  0  0  0  0  0
    4.6790    0.7118    0.0000 F   0  0  0  0  0  0  0  0  0  0  0  0
    3.4903    0.8225    0.0000 F   0  0  0  0  0  0  0  0  0  0  0  0
    4.5132   -0.4354    0.0000 F   0  0  0  0  0  0  0  0  0  0  0  0
   -4.0708    2.1771    0.0000 O   0  0  0  0  0  0  0  0  0  0  0  0
   -2.7576    1.7347    0.0000 O   0  0  0  0  0  0  0  0  0  0  0  0
    3.3797   -0.3249    0.0000 O   0  0  0  0  0  0  0  0  0  0  0  0
   -0.4078    0.3524    0.0000 N   0  0  0  0  0  0  0  0  0  0  0  0
   -2.7715   -1.0159    0.0000 N   0  0  0  0  0  0  0  0  0  0  0  0
   -3.4903   -0.6013    0.0000 N   0  0  0  0  0  0  0  0  0  0  0  0
   -1.0574    0.8639    0.0000 N   0  0  0  0  0  0  0  0  0  0  0  0
   -0.7672    1.6380    0.0000 N   0  0  0  0  0  0  0  0  0  0  0  0
   -1.1542   -0.8501    0.0000 C   0  0  0  0  0  0  0  0  0  0  0  0
   -2.1633   -0.4631    0.0000 C   0  0  0  0  0  0  0  0  0  0  0  0
   -0.4354   -0.4769    0.0000 C   0  0  0  0  0  0  0  0  0  0  0  0
   -3.3243    0.2143    0.0000 C   0  0  0  0  0  0  0  0  0  0  0  0
   -3.8635    0.8501    0.0000 C   0  0  0  0  0  0  0  0  0  0  0  0
    0.2696    0.8225    0.0000 C   0  0  0  0  0  0  0  0  0  0  0  0
   -2.4950    0.2972    0.0000 C   0  0  0  0  0  0  0  0  0  0  0  0
    0.2696   -0.9192    0.0000 C   0  0  0  0  0  0  0  0  0  0  0  0
   -1.1819   -1.6933    0.0000 C   0  0  0  0  0  0  0  0  0  0  0  0
    1.0712    0.5322    0.0000 C   0  0  0  0  0  0  0  0  0  0  0  0
    0.2419   -1.7347    0.0000 C   0  0  0  0  0  0  0  0  0  0  0  0
   -3.5732    1.5966    0.0000 C   0  0  0  0  0  0  0  0  0  0  0  0
    0.0622    1.6104    0.0000 C   0  0  0  0  0  0  0  0  0  0  0  0
   -0.4769   -2.1218    0.0000 C   0  0  0  0  0  0  0  0  0  0  0  0
   -2.6885   -1.8315    0.0000 C   0  0  0  0  0  0  0  0  0  0  0  0
    1.2095   -0.2834    0.0000 C   0  0  0  0  0  0  0  0  0  0  0  0
    1.6933    1.0574    0.0000 C   0  0  0  0  0  0  0  0  0  0  0  0
    2.6056   -0.0207    0.0000 C   0  0  0  0  0  0  0  0  0  0  0  0
    1.9835   -0.5598    0.0000 C   0  0  0  0  0  0  0  0  0  0  0  0
    2.4674    0.7810    0.0000 C   0  0  0  0  0  0  0  0  0  0  0  0
    4.0293    0.1866    0.0000 C   0  0  0  0  0  0  0  0  0  0  0  0
  1 25  1  0  0  0  0
  2 19  1  0  0  0  0
  3 19  1  0  0  0  0
  4 35  1  0  0  0  0
  5 35  1  0  0  0  0
  6 35  1  0  0  0  0
  7 26  2  0  0  0  0
  8 26  1  0  0  0  0
  9 32  1  0  0  0  0
  9 35  1  0  0  0  0
 10 13  1  0  0  0  0
 10 17  1  0  0  0  0
 10 20  1  0  0  0  0
 11 12  1  0  0  0  0
 11 16  1  0  0  0  0
 11 29  1  0  0  0  0
 12 18  2  0  0  0  0
 13 14  2  0  0  0  0
 14 27  1  0  0  0  0
 15 16  1  0  0  0  0
 15 17  2  0  0  0  0
 15 23  1  0  0  0  0
 16 21  2  0  0  0  0
 17 22  1  0  0  0  0
 18 19  1  0  0  0  0
 18 21  1  0  0  0  0
 19 26  1  0  0  0  0
 20 24  1  0  0  0  0
 20 27  2  0  0  0  0
 22 25  2  0  0  0  0
 23 28  2  0  0  0  0
 24 30  2  0  0  0  0
 24 31  1  0  0  0  0
 25 28  1  0  0  0  0
 30 33  1  0  0  0  0
 31 34  2  0  0  0  0
 32 33  2  0  0  0  0
 32 34  1  0  0  0  0
M  END
> <PUBCHEM_COMPOUND_ID_TYPE>
0

> <PUBCHEM_TOTAL_CHARGE>
0

> <PUBCHEM_SUBSTANCE_ID>
310948133

> <PUBCHEM_SUBSTANCE_VERSION>
1

> <PUBCHEM_EXT_DATASOURCE_NAME>
4488

> <PUBCHEM_EXT_DATASOURCE_REGID>
SCHEMBL16126309

> <PUBCHEM_SUBSTANCE_COMMENT>
InChI=1S/C21H13BrF5N5O3/c1-31-15(9-18(29-31)20(23,24)19(33)34)14-7-4-12(22)8-16(14)32-17(10-28-30-32)11-2-5-13(6-3-11)35-21(25,26)27/h2-10H,1H3,(H,33,34)
InChIKey=GYBQMGCEPGUTOA-UHFFFAOYSA-N

> <PUBCHEM_SUBSTANCE_SYNONYM>
SCHEMBL16126309

> <PUBCHEM_XREF_EXT_ID>
SCHEMBL16126309

> <PUBCHEM_EXT_DATASOURCE_URL>
https://www.surechembl.org/

> <PUBCHEM_EXT_SUBSTANCE_URL>
https://www.surechembl.org/chemical/SCHEMBL16126309

> <PUBCHEM_CID_ASSOCIATIONS>
117613749  1

> <PUBCHEM_COORDINATE_TYPE>
1
3

$$$$
