310944598
  -OEChem-07211613022D

 26 27  0     0  0  0  0  0  0999 V2000
   -5.0689    0.7727    0.0000 Cl  0  0  0  0  0  0  0  0  0  0  0  0
   -5.0689   -0.8840    0.0000 Cl  0  0  0  0  0  0  0  0  0  0  0  0
    3.6596   -0.8840    0.0000 S   0  0  0  0  0  0  0  0  0  0  0  0
    3.2392   -1.5887    0.0000 O   0  0  0  0  0  0  0  0  0  0  0  0
    4.0675   -0.1669    0.0000 O   0  0  0  0  0  0  0  0  0  0  0  0
   -2.0523   -0.8840    0.0000 O   0  0  0  0  0  0  0  0  0  0  0  0
   -0.6305    1.5887    0.0000 O   0  0  0  0  0  0  0  0  0  0  0  0
    2.9548   -0.4636    0.0000 N   0  0  0  0  0  0  0  0  0  0  0  0
   -2.0399    0.7727    0.0000 N   0  0  0  0  0  0  0  0  0  0  0  0
    0.1113    0.3647    0.0000 N   0  0  0  0  0  0  0  0  0  0  0  0
   -2.7570    0.3647    0.0000 C   0  0  0  0  0  0  0  0  0  0  0  0
   -2.7694   -0.4512    0.0000 C   0  0  0  0  0  0  0  0  0  0  0  0
   -4.1912    0.3647    0.0000 C   0  0  0  0  0  0  0  0  0  0  0  0
   -4.1912   -0.4636    0.0000 C   0  0  0  0  0  0  0  0  0  0  0  0
   -3.4741    0.7604    0.0000 C   0  0  0  0  0  0  0  0  0  0  0  0
    2.2502   -0.8716    0.0000 C   0  0  0  0  0  0  0  0  0  0  0  0
    2.9548    0.3647    0.0000 C   0  0  0  0  0  0  0  0  0  0  0  0
    1.5207    0.3647    0.0000 C   0  0  0  0  0  0  0  0  0  0  0  0
   -3.4617   -0.8716    0.0000 C   0  0  0  0  0  0  0  0  0  0  0  0
    1.5207   -0.4636    0.0000 C   0  0  0  0  0  0  0  0  0  0  0  0
    2.2378    0.7727    0.0000 C   0  0  0  0  0  0  0  0  0  0  0  0
    4.3890   -1.2920    0.0000 C   0  0  0  0  0  0  0  0  0  0  0  0
    0.8160    0.7727    0.0000 C   0  0  0  0  0  0  0  0  0  0  0  0
   -1.3229    0.3647    0.0000 C   0  0  0  0  0  0  0  0  0  0  0  0
   -0.6305    0.7604    0.0000 C   0  0  0  0  0  0  0  0  0  0  0  0
    5.0689   -0.8345    0.0000 C   0  0  0  0  0  0  0  0  0  0  0  0
  1 13  1  0  0  0  0
  2 14  1  0  0  0  0
  3  4  2  0  0  0  0
  3  5  2  0  0  0  0
  3  8  1  0  0  0  0
  3 22  1  0  0  0  0
  6 12  1  0  0  0  0
  7 25  2  0  0  0  0
  8 16  1  0  0  0  0
  8 17  1  0  0  0  0
  9 11  1  0  0  0  0
  9 24  1  0  0  0  0
 10 23  1  0  0  0  0
 10 25  1  0  0  0  0
 11 12  1  0  0  0  0
 11 15  2  0  0  0  0
 12 19  2  0  0  0  0
 13 14  2  0  0  0  0
 13 15  1  0  0  0  0
 14 19  1  0  0  0  0
 16 20  1  0  0  0  0
 17 21  1  0  0  0  0
 18 20  1  0  0  0  0
 18 21  1  0  0  0  0
 18 23  1  0  0  0  0
 22 26  2  0  0  0  0
 24 25  1  0  0  0  0
M  END
> <PUBCHEM_COMPOUND_ID_TYPE>
0

> <PUBCHEM_TOTAL_CHARGE>
0

> <PUBCHEM_SUBSTANCE_ID>
310944598

> <PUBCHEM_SUBSTANCE_VERSION>
1

> <PUBCHEM_EXT_DATASOURCE_NAME>
4488

> <PUBCHEM_EXT_DATASOURCE_REGID>
SCHEMBL16122676

> <PUBCHEM_SUBSTANCE_COMMENT>
InChI=1S/C16H21Cl2N3O4S/c1-2-26(24,25)21-5-3-11(4-6-21)9-20-16(23)10-19-14-7-12(17)13(18)8-15(14)22/h2,7-8,11,19,22H,1,3-6,9-10H2,(H,20,23)
InChIKey=OKQPFWLWOUYQLS-UHFFFAOYSA-N

> <PUBCHEM_SUBSTANCE_SYNONYM>
SCHEMBL16122676

> <PUBCHEM_XREF_EXT_ID>
SCHEMBL16122676

> <PUBCHEM_EXT_DATASOURCE_URL>
https://www.surechembl.org/

> <PUBCHEM_EXT_SUBSTANCE_URL>
https://www.surechembl.org/chemical/SCHEMBL16122676

> <PUBCHEM_CID_ASSOCIATIONS>
117610828  1

> <PUBCHEM_COORDINATE_TYPE>
1
3

$$$$
