310940662
  -OEChem-07211613022D

 35 39  0     0  0  0  0  0  0999 V2000
   -0.2322    3.1476    0.0000 F   0  0  0  0  0  0  0  0  0  0  0  0
   -0.2322    3.9942    0.0000 F   0  0  0  0  0  0  0  0  0  0  0  0
    0.4506    4.3766    0.0000 F   0  0  0  0  0  0  0  0  0  0  0  0
    2.7038   -1.3723    0.0000 O   0  0  0  0  0  0  0  0  0  0  0  0
   -1.4611   -1.5499    0.0000 O   0  0  0  0  0  0  0  0  0  0  0  0
    2.7857    0.0751    0.0000 O   0  0  0  0  0  0  0  0  0  0  0  0
   -2.7857   -3.6392    0.0000 O   0  0  0  0  0  0  0  0  0  0  0  0
    1.1744    3.1476    0.0000 O   0  0  0  0  0  0  0  0  0  0  0  0
    1.5431   -0.6896    0.0000 N   0  0  0  0  0  0  0  0  0  0  0  0
    1.3792   -3.1749    0.0000 N   0  0  0  0  0  0  0  0  0  0  0  0
   -2.2805   -4.2810    0.0000 N   0  0  0  0  0  0  0  0  0  0  0  0
    1.3519   -1.4680    0.0000 C   0  0  0  0  0  0  0  0  0  0  0  0
    0.6555   -1.8777    0.0000 C   0  0  0  0  0  0  0  0  0  0  0  0
    2.0756   -1.8640    0.0000 C   0  0  0  0  0  0  0  0  0  0  0  0
    0.6418   -2.6969    0.0000 C   0  0  0  0  0  0  0  0  0  0  0  0
   -0.7783   -2.7106    0.0000 C   0  0  0  0  0  0  0  0  0  0  0  0
    2.3215   -0.5940    0.0000 C   0  0  0  0  0  0  0  0  0  0  0  0
   -0.7647   -1.8777    0.0000 C   0  0  0  0  0  0  0  0  0  0  0  0
   -0.0683   -1.4816    0.0000 C   0  0  0  0  0  0  0  0  0  0  0  0
   -0.0546   -3.1066    0.0000 C   0  0  0  0  0  0  0  0  0  0  0  0
   -1.4885   -3.1203    0.0000 C   0  0  0  0  0  0  0  0  0  0  0  0
    2.0620   -2.7106    0.0000 C   0  0  0  0  0  0  0  0  0  0  0  0
    0.9696   -0.0751    0.0000 C   0  0  0  0  0  0  0  0  0  0  0  0
   -2.2941   -2.8608    0.0000 C   0  0  0  0  0  0  0  0  0  0  0  0
   -1.5021   -3.9532    0.0000 C   0  0  0  0  0  0  0  0  0  0  0  0
    1.0242    0.7716    0.0000 C   0  0  0  0  0  0  0  0  0  0  0  0
    1.7752    1.1129    0.0000 C   0  0  0  0  0  0  0  0  0  0  0  0
    0.3687    1.2358    0.0000 C   0  0  0  0  0  0  0  0  0  0  0  0
   -2.5400   -2.0551    0.0000 C   0  0  0  0  0  0  0  0  0  0  0  0
   -0.7647   -4.3766    0.0000 C   0  0  0  0  0  0  0  0  0  0  0  0
    1.1880    2.3965    0.0000 C   0  0  0  0  0  0  0  0  0  0  0  0
    1.8298    1.9323    0.0000 C   0  0  0  0  0  0  0  0  0  0  0  0
    0.4370    2.0551    0.0000 C   0  0  0  0  0  0  0  0  0  0  0  0
   -1.4885   -0.6349    0.0000 C   0  0  0  0  0  0  0  0  0  0  0  0
    0.4506    3.6392    0.0000 C   0  0  0  0  0  0  0  0  0  0  0  0
  1 35  1  0  0  0  0
  2 35  1  0  0  0  0
  3 35  1  0  0  0  0
  4 14  1  0  0  0  0
  4 17  1  0  0  0  0
  5 18  1  0  0  0  0
  5 34  1  0  0  0  0
  6 17  2  0  0  0  0
  7 11  1  0  0  0  0
  7 24  1  0  0  0  0
  8 31  1  0  0  0  0
  8 35  1  0  0  0  0
  9 12  1  0  0  0  0
  9 17  1  0  0  0  0
  9 23  1  0  0  0  0
 10 15  1  0  0  0  0
 10 22  2  0  0  0  0
 11 25  2  0  0  0  0
 12 13  1  0  0  0  0
 12 14  2  0  0  0  0
 13 15  2  0  0  0  0
 13 19  1  0  0  0  0
 14 22  1  0  0  0  0
 15 20  1  0  0  0  0
 16 18  1  0  0  0  0
 16 20  2  0  0  0  0
 16 21  1  0  0  0  0
 18 19  2  0  0  0  0
 21 24  2  0  0  0  0
 21 25  1  0  0  0  0
 23 26  1  0  0  0  0
 24 29  1  0  0  0  0
 25 30  1  0  0  0  0
 26 27  2  0  0  0  0
 26 28  1  0  0  0  0
 27 32  1  0  0  0  0
 28 33  2  0  0  0  0
 31 32  2  0  0  0  0
 31 33  1  0  0  0  0
M  END
> <PUBCHEM_COMPOUND_ID_TYPE>
0

> <PUBCHEM_TOTAL_CHARGE>
0

> <PUBCHEM_SUBSTANCE_ID>
310940662

> <PUBCHEM_SUBSTANCE_VERSION>
1

> <PUBCHEM_EXT_DATASOURCE_NAME>
4488

> <PUBCHEM_EXT_DATASOURCE_REGID>
SCHEMBL16118617

> <PUBCHEM_SUBSTANCE_COMMENT>
InChI=1S/C24H18F3N3O5/c1-12-21(13(2)35-29-12)17-8-18-16(9-19(17)32-3)22-20(10-28-18)33-23(31)30(22)11-14-4-6-15(7-5-14)34-24(25,26)27/h4-10H,11H2,1-3H3
InChIKey=FINUFIYULRSMEA-UHFFFAOYSA-N

> <PUBCHEM_SUBSTANCE_SYNONYM>
SCHEMBL16118617

> <PUBCHEM_XREF_EXT_ID>
SCHEMBL16118617

> <PUBCHEM_EXT_DATASOURCE_URL>
https://www.surechembl.org/

> <PUBCHEM_EXT_SUBSTANCE_URL>
https://www.surechembl.org/chemical/SCHEMBL16118617

> <PUBCHEM_CID_ASSOCIATIONS>
117607639  1

> <PUBCHEM_COORDINATE_TYPE>
1
3

$$$$
