310945252
  -OEChem-07211613022D

 22 23  0     1  0  0  0  0  0999 V2000
    0.9034   -1.7674    0.0000 S   0  0  0  0  0  0  0  0  0  0  0  0
    2.6315   -0.3731    0.0000 O   0  0  0  0  0  0  0  0  0  0  0  0
    2.6315   -1.8067    0.0000 O   0  0  0  0  0  0  0  0  0  0  0  0
   -2.7690   -0.6873    0.0000 O   0  0  0  0  0  0  0  0  0  0  0  0
   -2.0620    0.5499    0.0000 O   0  0  0  0  0  0  0  0  0  0  0  0
    1.1586    0.3535    0.0000 N   0  0  0  0  0  0  0  0  0  0  0  0
    1.6300    1.9049    0.0000 N   0  0  0  0  0  0  0  0  0  0  0  0
    0.1178   -0.6677    0.0000 C   0  0  0  0  0  0  0  0  0  0  0  0
    0.8837   -0.4124    0.0000 C   0  0  0  0  0  0  0  0  0  0  0  0
    0.0982   -1.4925    0.0000 C   0  0  0  0  0  0  0  0  0  0  0  0
    1.3747   -1.0801    0.0000 C   0  0  0  0  0  0  0  0  0  0  0  0
   -0.6284   -0.2749    0.0000 C   0  0  0  0  0  0  0  0  0  0  0  0
   -1.3158   -0.6873    0.0000 C   0  0  0  0  0  0  0  0  0  0  0  0
    2.1995   -1.0801    0.0000 C   0  0  0  0  0  0  0  0  0  0  0  0
   -0.5892   -1.9049    0.0000 C   0  0  0  0  0  0  0  0  0  0  0  0
   -1.2961   -1.5121    0.0000 C   0  0  0  0  0  0  0  0  0  0  0  0
   -2.0620   -0.2749    0.0000 C   0  0  0  0  0  0  0  0  0  0  0  0
    1.9638    0.5303    0.0000 C   0  0  0  0  0  0  0  0  0  0  0  0
    2.2191    1.3354    0.0000 C   0  0  3  0  0  0  0  0  0  0  0  0
    3.4956   -0.3731    0.0000 C   0  0  0  0  0  0  0  0  0  0  0  0
   -3.4956   -0.2749    0.0000 C   0  0  0  0  0  0  0  0  0  0  0  0
    3.0243    1.4925    0.0000 C   0  0  0  0  0  0  0  0  0  0  0  0
  1 10  1  0  0  0  0
  1 11  1  0  0  0  0
  2 14  1  0  0  0  0
  2 20  1  0  0  0  0
  3 14  2  0  0  0  0
  4 17  1  0  0  0  0
  4 21  1  0  0  0  0
  5 17  2  0  0  0  0
  6  9  1  0  0  0  0
  6 18  1  0  0  0  0
 19  7  1  6  0  0  0
  8  9  1  0  0  0  0
  8 10  1  0  0  0  0
  8 12  2  0  0  0  0
  9 11  2  0  0  0  0
 10 15  2  0  0  0  0
 11 14  1  0  0  0  0
 12 13  1  0  0  0  0
 13 16  2  0  0  0  0
 13 17  1  0  0  0  0
 15 16  1  0  0  0  0
 18 19  1  0  0  0  0
 19 22  1  0  0  0  0
M  END
> <PUBCHEM_COMPOUND_ID_TYPE>
0

> <PUBCHEM_TOTAL_CHARGE>
0

> <PUBCHEM_SUBSTANCE_ID>
310945252

> <PUBCHEM_SUBSTANCE_VERSION>
1

> <PUBCHEM_EXT_DATASOURCE_NAME>
4488

> <PUBCHEM_EXT_DATASOURCE_REGID>
SCHEMBL16123346

> <PUBCHEM_SUBSTANCE_COMMENT>
InChI=1S/C15H18N2O4S/c1-8(16)7-17-12-10-6-9(14(18)20-2)4-5-11(10)22-13(12)15(19)21-3/h4-6,8,17H,7,16H2,1-3H3/t8-/m1/s1
InChIKey=OYTXKIQRAYXPMX-MRVPVSSYSA-N

> <PUBCHEM_SUBSTANCE_SYNONYM>
SCHEMBL16123346

> <PUBCHEM_XREF_EXT_ID>
SCHEMBL16123346

> <PUBCHEM_EXT_DATASOURCE_URL>
https://www.surechembl.org/

> <PUBCHEM_EXT_SUBSTANCE_URL>
https://www.surechembl.org/chemical/SCHEMBL16123346

> <PUBCHEM_CID_ASSOCIATIONS>
117611319  1

> <PUBCHEM_COORDINATE_TYPE>
1
3

> <PUBCHEM_BONDANNOTATIONS>
19  7  6

$$$$
