310933392
  -OEChem-07211613022D

 26 27  0     1  0  0  0  0  0999 V2000
    1.9637   -1.3883    0.0000 O   0  0  0  0  0  0  0  0  0  0  0  0
    2.5217    1.2375    0.0000 O   0  0  0  0  0  0  0  0  0  0  0  0
    3.2362   -0.8250    0.0000 O   0  0  0  0  0  0  0  0  0  0  0  0
    1.8631   -2.0788    0.0000 O   0  0  0  0  0  0  0  0  0  0  0  0
    1.8073    0.0000    0.0000 N   0  3  3  0  0  0  0  0  0  0  0  0
    0.4614   -1.7312    0.0000 N   0  0  0  0  0  0  0  0  0  0  0  0
    0.0558   -3.3028    0.0000 N   0  0  0  0  0  0  0  0  0  0  0  0
    1.4493   -0.7433    0.0000 C   0  0  0  0  0  0  0  0  0  0  0  0
    0.6450   -0.9269    0.0000 C   0  0  0  0  0  0  0  0  0  0  0  0
    2.5217    0.4125    0.0000 C   0  0  0  0  0  0  0  0  0  0  0  0
    0.0000   -0.4125    0.0000 C   0  0  0  0  0  0  0  0  0  0  0  0
    1.4493    0.7433    0.0000 C   0  0  0  0  0  0  0  0  0  0  0  0
    0.0000    0.4125    0.0000 C   0  0  3  0  0  0  0  0  0  0  0  0
    0.6450    0.9269    0.0000 C   0  0  0  0  0  0  0  0  0  0  0  0
    3.2362    0.0000    0.0000 C   0  0  3  0  0  0  0  0  0  0  0  0
    2.5217   -0.4125    0.0000 C   0  0  0  0  0  0  0  0  0  0  0  0
   -0.7144   -0.8250    0.0000 C   0  0  0  0  0  0  0  0  0  0  0  0
   -0.7144    0.8250    0.0000 C   0  0  0  0  0  0  0  0  0  0  0  0
    1.0662   -2.2923    0.0000 C   0  0  0  0  0  0  0  0  0  0  0  0
    3.9507    0.4125    0.0000 C   0  0  0  0  0  0  0  0  0  0  0  0
   -1.4290   -0.4125    0.0000 C   0  0  0  0  0  0  0  0  0  0  0  0
   -1.4290    0.4125    0.0000 C   0  0  0  0  0  0  0  0  0  0  0  0
    0.8527   -3.0892    0.0000 C   0  0  3  0  0  0  0  0  0  0  0  0
    3.9507    1.2375    0.0000 C   0  0  0  0  0  0  0  0  0  0  0  0
    4.6651    0.0000    0.0000 C   0  0  0  0  0  0  0  0  0  0  0  0
    1.4360   -3.6726    0.0000 C   0  0  0  0  0  0  0  0  0  0  0  0
  1  8  2  0  0  0  0
  2 10  2  0  0  0  0
 15  3  1  6  0  0  0
  4 19  2  0  0  0  0
  5  8  1  0  0  0  0
  5 10  1  6  0  0  0
  5 12  1  0  0  0  0
  5 16  1  1  0  0  0
  6  9  1  0  0  0  0
  6 19  1  0  0  0  0
 23  7  1  6  0  0  0
  8  9  1  0  0  0  0
  9 11  2  0  0  0  0
 10 15  1  0  0  0  0
 11 13  1  0  0  0  0
 11 17  1  0  0  0  0
 12 14  1  0  0  0  0
 13 14  1  0  0  0  0
 13 18  1  0  0  0  0
 15 20  1  0  0  0  0
 17 21  2  0  0  0  0
 18 22  1  0  0  0  0
 19 23  1  0  0  0  0
 20 24  1  0  0  0  0
 20 25  1  0  0  0  0
 21 22  1  0  0  0  0
 23 26  1  0  0  0  0
M  CHG  1   5   1
M  END
> <PUBCHEM_COMPOUND_ID_TYPE>
0

> <PUBCHEM_TOTAL_CHARGE>
1

> <PUBCHEM_SUBSTANCE_ID>
310933392

> <PUBCHEM_SUBSTANCE_VERSION>
1

> <PUBCHEM_EXT_DATASOURCE_NAME>
4488

> <PUBCHEM_EXT_DATASOURCE_REGID>
SCHEMBL16110808

> <PUBCHEM_SUBSTANCE_COMMENT>
InChI=1S/C19H29N3O4/c1-11(2)16(23)19(26)22(4)10-9-13-7-5-6-8-14(13)15(18(22)25)21-17(24)12(3)20/h6,8,11-13,16,23H,5,7,9-10,20H2,1-4H3/p+1/t12-,13?,16-,22-/m0/s1
InChIKey=QPQISZMQNAIAFC-JZGNVBJKSA-O

> <PUBCHEM_SUBSTANCE_SYNONYM>
SCHEMBL16110808

> <PUBCHEM_XREF_EXT_ID>
SCHEMBL16110808

> <PUBCHEM_EXT_DATASOURCE_URL>
https://www.surechembl.org/

> <PUBCHEM_EXT_SUBSTANCE_URL>
https://www.surechembl.org/chemical/SCHEMBL16110808

> <PUBCHEM_CID_ASSOCIATIONS>
117601803  1

> <PUBCHEM_COORDINATE_TYPE>
1
3

> <PUBCHEM_BONDANNOTATIONS>
15  3  6
5  10  6
5  16  5
23  7  6

$$$$
