310943977
  -OEChem-07211613022D

 16 16  0     0  0  0  0  0  0999 V2000
   -1.6943   -0.8398    0.0000 Cl  0  0  0  0  0  0  0  0  0  0  0  0
    1.4094   -0.8201    0.0000 Cl  0  0  0  0  0  0  0  0  0  0  0  0
   -0.0147   -1.6451    0.0000 Cl  0  0  0  0  0  0  0  0  0  0  0  0
   -0.0049    1.6353    0.0000 F   0  0  0  0  0  0  0  0  0  0  0  0
    1.4193    1.6353    0.0000 O   0  0  0  0  0  0  0  0  0  0  0  0
   -2.1362    0.3389    0.0000 O   0  0  0  0  0  0  0  0  0  0  0  0
    2.1362    0.3879    0.0000 O   0  0  0  0  0  0  0  0  0  0  0  0
   -1.5272    1.6451    0.0000 O   0  0  0  0  0  0  0  0  0  0  0  0
    0.6924    0.4469    0.0000 C   0  0  0  0  0  0  0  0  0  0  0  0
   -0.7514    0.4272    0.0000 C   0  0  0  0  0  0  0  0  0  0  0  0
   -0.0147    0.8398    0.0000 C   0  0  0  0  0  0  0  0  0  0  0  0
   -0.7514   -0.3978    0.0000 C   0  0  0  0  0  0  0  0  0  0  0  0
    0.6826   -0.3782    0.0000 C   0  0  0  0  0  0  0  0  0  0  0  0
   -0.0147   -0.7906    0.0000 C   0  0  0  0  0  0  0  0  0  0  0  0
    1.3996    0.8300    0.0000 C   0  0  0  0  0  0  0  0  0  0  0  0
   -1.4683    0.8005    0.0000 C   0  0  0  0  0  0  0  0  0  0  0  0
  1 12  1  0  0  0  0
  2 13  1  0  0  0  0
  3 14  1  0  0  0  0
  4 11  1  0  0  0  0
  5 15  2  0  0  0  0
  6 16  2  0  0  0  0
  7 15  1  0  0  0  0
  8 16  1  0  0  0  0
  9 11  2  0  0  0  0
  9 13  1  0  0  0  0
  9 15  1  0  0  0  0
 10 11  1  0  0  0  0
 10 12  2  0  0  0  0
 10 16  1  0  0  0  0
 12 14  1  0  0  0  0
 13 14  2  0  0  0  0
M  END
> <PUBCHEM_COMPOUND_ID_TYPE>
0

> <PUBCHEM_TOTAL_CHARGE>
0

> <PUBCHEM_SUBSTANCE_ID>
310943977

> <PUBCHEM_SUBSTANCE_VERSION>
1

> <PUBCHEM_EXT_DATASOURCE_NAME>
4488

> <PUBCHEM_EXT_DATASOURCE_REGID>
SCHEMBL16122048

> <PUBCHEM_SUBSTANCE_COMMENT>
InChI=1S/C8H2Cl3FO4/c9-3-1(7(13)14)6(12)2(8(15)16)4(10)5(3)11/h(H,13,14)(H,15,16)
InChIKey=SMPJUVQTXDIHQT-UHFFFAOYSA-N

> <PUBCHEM_SUBSTANCE_SYNONYM>
SCHEMBL16122048

> <PUBCHEM_XREF_EXT_ID>
SCHEMBL16122048

> <PUBCHEM_EXT_DATASOURCE_URL>
https://www.surechembl.org/

> <PUBCHEM_EXT_SUBSTANCE_URL>
https://www.surechembl.org/chemical/SCHEMBL16122048

> <PUBCHEM_CID_ASSOCIATIONS>
12449398  1

> <PUBCHEM_COORDINATE_TYPE>
1
3

$$$$
