310942554
  -OEChem-07211613022D

 78 82  0     1  0  0  0  0  0999 V2000
    9.7599   -1.1801    0.0000 F   0  0  0  0  0  0  0  0  0  0  0  0
   11.1037    1.8693    0.0000 F   0  0  0  0  0  0  0  0  0  0  0  0
    8.1749    1.6970    0.0000 O   0  0  0  0  0  0  0  0  0  0  0  0
    8.1749    3.3509    0.0000 O   0  0  0  0  0  0  0  0  0  0  0  0
    2.4378    1.6970    0.0000 O   0  0  0  0  0  0  0  0  0  0  0  0
    3.1442    2.9375    0.0000 O   0  0  0  0  0  0  0  0  0  0  0  0
   -4.0401   -0.3704    0.0000 O   0  0  0  0  0  0  0  0  0  0  0  0
  -11.2416   -0.5944    0.0000 O   0  0  0  0  0  0  0  0  0  0  0  0
   -8.3300   -0.5944    0.0000 O   0  0  0  0  0  0  0  0  0  0  0  0
   -1.8865    1.6970    0.0000 O   0  0  0  0  0  0  0  0  0  0  0  0
   -6.1936    1.6970    0.0000 O   0  0  0  0  0  0  0  0  0  0  0  0
   -4.7637   -0.7839    0.0000 O   0  0  0  0  0  0  0  0  0  0  0  0
    7.5547   -0.3704    0.0000 N   0  0  0  0  0  0  0  0  0  0  0  0
    6.7450    1.6970    0.0000 N   0  0  0  0  0  0  0  0  0  0  0  0
    8.2266    0.7839    0.0000 N   0  0  0  0  0  0  0  0  0  0  0  0
    3.8678    1.6970    0.0000 N   0  0  0  0  0  0  0  0  0  0  0  0
   -9.7944   -0.3704    0.0000 N   0  0  0  0  0  0  0  0  0  0  0  0
   -3.3165    0.8700    0.0000 N   0  0  0  0  0  0  0  0  0  0  0  0
   -1.1629    0.4566    0.0000 N   0  0  0  0  0  0  0  0  0  0  0  0
   -5.4700    0.4566    0.0000 N   0  0  0  0  0  0  0  0  0  0  0  0
   -4.0401   -2.0416    0.0000 N   0  0  0  0  0  0  0  0  0  0  0  0
   -5.4700   -2.0416    0.0000 N   0  0  0  0  0  0  0  0  0  0  0  0
    7.4858    0.4738    0.0000 C   0  0  0  0  0  0  0  0  0  0  0  0
    6.7277    0.8700    0.0000 C   0  0  3  0  0  0  0  0  0  0  0  0
    8.7779    0.1981    0.0000 C   0  0  0  0  0  0  0  0  0  0  0  0
    6.0214    0.4566    0.0000 C   0  0  0  0  0  0  0  0  0  0  0  0
    8.3644   -0.5427    0.0000 C   0  0  0  0  0  0  0  0  0  0  0  0
    9.6049    0.2670    0.0000 C   0  0  0  0  0  0  0  0  0  0  0  0
    7.4341    2.1449    0.0000 C   0  0  0  0  0  0  0  0  0  0  0  0
    6.9689   -0.9045    0.0000 C   0  0  0  0  0  0  0  0  0  0  0  0
   10.1045   -0.4049    0.0000 C   0  0  0  0  0  0  0  0  0  0  0  0
    6.0214    2.1105    0.0000 C   0  0  0  0  0  0  0  0  0  0  0  0
    9.9667    1.0251    0.0000 C   0  0  0  0  0  0  0  0  0  0  0  0
    7.0895   -1.7487    0.0000 C   0  0  0  0  0  0  0  0  0  0  0  0
    5.2978    0.8700    0.0000 C   0  0  0  0  0  0  0  0  0  0  0  0
    5.2978    0.0431    0.0000 C   0  0  0  0  0  0  0  0  0  0  0  0
    6.0558   -0.3876    0.0000 C   0  0  0  0  0  0  0  0  0  0  0  0
    7.4858    2.9375    0.0000 C   0  0  3  0  0  0  0  0  0  0  0  0
   10.7592    1.1112    0.0000 C   0  0  0  0  0  0  0  0  0  0  0  0
   10.9142   -0.3187    0.0000 C   0  0  0  0  0  0  0  0  0  0  0  0
   11.2416    0.4566    0.0000 C   0  0  0  0  0  0  0  0  0  0  0  0
    5.3150    1.6970    0.0000 C   0  0  0  0  0  0  0  0  0  0  0  0
    6.5210   -2.2828    0.0000 C   0  0  0  0  0  0  0  0  0  0  0  0
    7.8993   -2.0071    0.0000 C   0  0  0  0  0  0  0  0  0  0  0  0
    6.7622    3.3509    0.0000 C   0  0  0  0  0  0  0  0  0  0  0  0
    6.6760   -3.0925    0.0000 C   0  0  0  0  0  0  0  0  0  0  0  0
    8.0543   -2.8169    0.0000 C   0  0  0  0  0  0  0  0  0  0  0  0
    4.5914    2.1105    0.0000 C   0  0  0  0  0  0  0  0  0  0  0  0
    7.4513   -3.3509    0.0000 C   0  0  0  0  0  0  0  0  0  0  0  0
    3.1442    2.0933    0.0000 C   0  0  0  0  0  0  0  0  0  0  0  0
   -2.5929    0.4566    0.0000 C   0  0  3  0  0  0  0  0  0  0  0  0
    1.0079    1.7142    0.0000 C   0  0  0  0  0  0  0  0  0  0  0  0
    1.7142    2.1105    0.0000 C   0  0  0  0  0  0  0  0  0  0  0  0
   -4.7637    0.8700    0.0000 C   0  0  3  0  0  0  0  0  0  0  0  0
   -4.0401    0.4910    0.0000 C   0  0  0  0  0  0  0  0  0  0  0  0
   -1.8865    0.8528    0.0000 C   0  0  0  0  0  0  0  0  0  0  0  0
  -10.4318   -0.8528    0.0000 C   0  0  0  0  0  0  0  0  0  0  0  0
   -9.1397   -0.8528    0.0000 C   0  0  0  0  0  0  0  0  0  0  0  0
   -0.4566    0.8700    0.0000 C   0  0  0  0  0  0  0  0  0  0  0  0
  -10.2079   -1.6281    0.0000 C   0  0  0  0  0  0  0  0  0  0  0  0
   -9.3809   -1.6453    0.0000 C   0  0  0  0  0  0  0  0  0  0  0  0
    0.9906    0.8700    0.0000 C   0  0  0  0  0  0  0  0  0  0  0  0
    0.2843    2.0933    0.0000 C   0  0  0  0  0  0  0  0  0  0  0  0
    0.2670    0.4738    0.0000 C   0  0  0  0  0  0  0  0  0  0  0  0
   -0.4221    1.6970    0.0000 C   0  0  0  0  0  0  0  0  0  0  0  0
   -4.7637    1.7315    0.0000 C   0  0  0  0  0  0  0  0  0  0  0  0
   -9.7772    0.4738    0.0000 C   0  0  0  0  0  0  0  0  0  0  0  0
   -2.5757   -0.3876    0.0000 C   0  0  0  0  0  0  0  0  0  0  0  0
   -6.1936    0.8528    0.0000 C   0  0  0  0  0  0  0  0  0  0  0  0
   -9.0880    0.8700    0.0000 C   0  0  0  0  0  0  0  0  0  0  0  0
   -6.9172    0.4566    0.0000 C   0  0  0  0  0  0  0  0  0  0  0  0
   -3.2993   -0.7839    0.0000 C   0  0  0  0  0  0  0  0  0  0  0  0
   -5.4873    2.0933    0.0000 C   0  0  0  0  0  0  0  0  0  0  0  0
   -4.0228    2.1277    0.0000 C   0  0  0  0  0  0  0  0  0  0  0  0
   -8.3472    0.4738    0.0000 C   0  0  0  0  0  0  0  0  0  0  0  0
   -7.6236    0.8700    0.0000 C   0  0  0  0  0  0  0  0  0  0  0  0
   -3.3165   -1.6281    0.0000 C   0  0  0  0  0  0  0  0  0  0  0  0
   -4.7637   -1.6281    0.0000 C   0  0  0  0  0  0  0  0  0  0  0  0
  1 31  1  0  0  0  0
  2 39  1  0  0  0  0
  3 29  2  0  0  0  0
 38  4  1  6  0  0  0
  5 50  1  0  0  0  0
  5 53  1  0  0  0  0
  6 50  2  0  0  0  0
  7 55  2  0  0  0  0
  8 57  2  0  0  0  0
  9 58  2  0  0  0  0
 10 56  2  0  0  0  0
 11 69  2  0  0  0  0
 12 78  2  0  0  0  0
 13 23  1  0  0  0  0
 13 27  1  0  0  0  0
 13 30  1  0  0  0  0
 24 14  1  1  0  0  0
 14 29  1  0  0  0  0
 14 32  1  0  0  0  0
 15 23  2  0  0  0  0
 15 25  1  0  0  0  0
 16 48  1  0  0  0  0
 16 50  1  0  0  0  0
 17 57  1  0  0  0  0
 17 58  1  0  0  0  0
 17 67  1  0  0  0  0
 51 18  1  6  0  0  0
 18 55  1  0  0  0  0
 19 56  1  0  0  0  0
 19 59  1  0  0  0  0
 54 20  1  1  0  0  0
 20 69  1  0  0  0  0
 21 77  1  0  0  0  0
 21 78  1  0  0  0  0
 22 78  1  0  0  0  0
 23 24  1  0  0  0  0
 24 26  1  0  0  0  0
 25 27  2  0  0  0  0
 25 28  1  0  0  0  0
 26 35  1  0  0  0  0
 26 36  1  0  0  0  0
 26 37  1  0  0  0  0
 28 31  2  0  0  0  0
 28 33  1  0  0  0  0
 29 38  1  0  0  0  0
 30 34  1  0  0  0  0
 31 40  1  0  0  0  0
 32 42  1  0  0  0  0
 33 39  2  0  0  0  0
 34 43  2  0  0  0  0
 34 44  1  0  0  0  0
 38 45  1  0  0  0  0
 39 41  1  0  0  0  0
 40 41  2  0  0  0  0
 42 48  1  0  0  0  0
 43 46  1  0  0  0  0
 44 47  2  0  0  0  0
 46 49  2  0  0  0  0
 47 49  1  0  0  0  0
 51 56  1  0  0  0  0
 51 68  1  0  0  0  0
 52 53  1  0  0  0  0
 52 62  2  0  0  0  0
 52 63  1  0  0  0  0
 54 55  1  0  0  0  0
 54 66  1  0  0  0  0
 57 60  1  0  0  0  0
 58 61  1  0  0  0  0
 59 64  2  0  0  0  0
 59 65  1  0  0  0  0
 60 61  2  0  0  0  0
 62 64  1  0  0  0  0
 63 65  2  0  0  0  0
 66 73  1  0  0  0  0
 66 74  1  0  0  0  0
 67 70  1  0  0  0  0
 68 72  1  0  0  0  0
 69 71  1  0  0  0  0
 70 75  1  0  0  0  0
 71 76  1  0  0  0  0
 72 77  1  0  0  0  0
 75 76  1  0  0  0  0
M  END
> <PUBCHEM_COMPOUND_ID_TYPE>
0

> <PUBCHEM_TOTAL_CHARGE>
0

> <PUBCHEM_SUBSTANCE_ID>
310942554

> <PUBCHEM_SUBSTANCE_VERSION>
1

> <PUBCHEM_EXT_DATASOURCE_NAME>
4488

> <PUBCHEM_EXT_DATASOURCE_REGID>
SCHEMBL16120595

> <PUBCHEM_SUBSTANCE_COMMENT>
InChI=1S/C56H72F2N10O10/c1-35(2)48(65-45(70)18-11-8-12-29-67-46(71)25-26-47(67)72)52(74)64-43(17-13-27-60-54(59)76)51(73)62-40-22-19-38(20-23-40)34-78-55(77)61-28-14-30-68(53(75)36(3)69)49(56(4,5)6)50-63-44(41-31-39(57)21-24-42(41)58)33-66(50)32-37-15-9-7-10-16-37/h7,9-10,15-16,19-26,31,33,35-36,43,48-49,69H,8,11-14,17-18,27-30,32,34H2,1-6H3,(H,61,77)(H,62,73)(H,64,74)(H,65,70)(H3,59,60,76)/t36-,43-,48-,49-/m0/s1
InChIKey=DNZFUDZIXIPERE-XXCNBQAASA-N

> <PUBCHEM_SUBSTANCE_SYNONYM>
SCHEMBL16120595

> <PUBCHEM_XREF_EXT_ID>
SCHEMBL16120595

> <PUBCHEM_EXT_DATASOURCE_URL>
https://www.surechembl.org/

> <PUBCHEM_EXT_SUBSTANCE_URL>
https://www.surechembl.org/chemical/SCHEMBL16120595

> <PUBCHEM_CID_ASSOCIATIONS>
117609110  1

> <PUBCHEM_COORDINATE_TYPE>
1
3

> <PUBCHEM_BONDANNOTATIONS>
24  14  5
51  18  6
54  20  5
38  4  6

$$$$
