310935035
  -OEChem-07211613022D

 26 29  0     1  0  0  0  0  0999 V2000
    6.4937   -0.6692    0.0000 F   0  0  0  0  0  0  0  0  0  0  0  0
    0.0000   -2.8999    0.0000 F   0  0  0  0  0  0  0  0  0  0  0  0
    5.3288   -2.9247    0.0000 O   0  0  0  0  0  0  0  0  0  0  0  0
    5.3288   -1.4871    0.0000 O   0  0  0  0  0  0  0  0  0  0  0  0
    1.5615   -4.4118    0.0000 N   0  0  0  0  0  0  0  0  0  0  0  0
    4.0896   -2.2059    0.0000 C   0  0  3  0  0  0  0  0  0  0  0  0
    4.4614   -1.4623    0.0000 C   0  0  0  0  0  0  0  0  0  0  0  0
    2.8255   -2.6272    0.0000 C   0  0  0  0  0  0  0  0  0  0  0  0
    3.6187   -2.8751    0.0000 C   0  0  0  0  0  0  0  0  0  0  0  0
    2.1563   -3.0982    0.0000 C   0  0  0  0  0  0  0  0  0  0  0  0
    3.6187   -1.5367    0.0000 C   0  0  0  0  0  0  0  0  0  0  0  0
    4.9075   -2.2059    0.0000 C   0  0  0  0  0  0  0  0  0  0  0  0
    2.2059   -3.9409    0.0000 C   0  0  0  0  0  0  0  0  0  0  0  0
    2.8255   -1.8093    0.0000 C   0  0  0  0  0  0  0  0  0  0  0  0
    5.4528   -1.5863    0.0000 C   0  0  0  0  0  0  0  0  0  0  0  0
    2.9494   -4.2879    0.0000 C   0  0  0  0  0  0  0  0  0  0  0  0
    4.0152   -0.7684    0.0000 C   0  0  0  0  0  0  0  0  0  0  0  0
    1.3880   -2.7759    0.0000 C   0  0  0  0  0  0  0  0  0  0  0  0
    5.6758   -0.6940    0.0000 C   0  0  0  0  0  0  0  0  0  0  0  0
    3.7673   -4.2135    0.0000 C   0  0  0  0  0  0  0  0  0  0  0  0
    3.4452   -4.9570    0.0000 C   0  0  0  0  0  0  0  0  0  0  0  0
    0.7436   -3.2469    0.0000 C   0  0  0  0  0  0  0  0  0  0  0  0
    4.3870   -0.0248    0.0000 C   0  0  0  0  0  0  0  0  0  0  0  0
    0.7931   -4.0896    0.0000 C   0  0  0  0  0  0  0  0  0  0  0  0
    5.2297    0.0000    0.0000 C   0  0  0  0  0  0  0  0  0  0  0  0
    5.7502   -2.1068    0.0000 C   0  0  0  0  0  0  0  0  0  0  0  0
  1 19  1  0  0  0  0
  2 22  1  0  0  0  0
  3 12  2  0  0  0  0
  4 12  1  0  0  0  0
  5 13  1  0  0  0  0
  5 24  2  0  0  0  0
  6  7  1  0  0  0  0
  6  9  1  0  0  0  0
  6 11  1  0  0  0  0
  6 12  1  6  0  0  0
  7 15  1  0  0  0  0
  7 17  2  0  0  0  0
  8  9  2  0  0  0  0
  8 10  1  0  0  0  0
  8 14  1  0  0  0  0
 10 13  2  0  0  0  0
 10 18  1  0  0  0  0
 11 14  1  0  0  0  0
 13 16  1  0  0  0  0
 15 19  2  0  0  0  0
 15 26  1  0  0  0  0
 16 20  1  0  0  0  0
 16 21  1  0  0  0  0
 17 23  1  0  0  0  0
 18 22  2  0  0  0  0
 19 25  1  0  0  0  0
 20 21  1  0  0  0  0
 22 24  1  0  0  0  0
 23 25  2  0  0  0  0
M  END
> <PUBCHEM_COMPOUND_ID_TYPE>
0

> <PUBCHEM_TOTAL_CHARGE>
0

> <PUBCHEM_SUBSTANCE_ID>
310935035

> <PUBCHEM_SUBSTANCE_VERSION>
1

> <PUBCHEM_EXT_DATASOURCE_NAME>
4488

> <PUBCHEM_EXT_DATASOURCE_REGID>
SCHEMBL16112554

> <PUBCHEM_SUBSTANCE_COMMENT>
InChI=1S/C21H19F2NO2/c1-12-17(3-2-4-18(12)23)21(20(25)26)8-7-14(10-21)16-9-15(22)11-24-19(16)13-5-6-13/h2-4,9-11,13H,5-8H2,1H3,(H,25,26)/t21-/m0/s1
InChIKey=MOFGMOUEXGXFPU-NRFANRHFSA-N

> <PUBCHEM_SUBSTANCE_SYNONYM>
SCHEMBL16112554

> <PUBCHEM_XREF_EXT_ID>
SCHEMBL16112554

> <PUBCHEM_EXT_DATASOURCE_URL>
https://www.surechembl.org/

> <PUBCHEM_EXT_SUBSTANCE_URL>
https://www.surechembl.org/chemical/SCHEMBL16112554

> <PUBCHEM_CID_ASSOCIATIONS>
117603141  1

> <PUBCHEM_COORDINATE_TYPE>
1
3

> <PUBCHEM_BONDANNOTATIONS>
6  12  6

$$$$
