310947582
  -OEChem-07211613022D

 47 51  0     1  0  0  0  0  0999 V2000
   -1.4235   -3.5939    0.0000 P   0  0  3  0  0  0  0  0  0  0  0  0
    0.3826   -6.0462    0.0000 F   0  0  0  0  0  0  0  0  0  0  0  0
    1.2076   -4.0622    0.0000 O   0  0  0  0  0  0  0  0  0  0  0  0
    2.0326   -6.0462    0.0000 O   0  0  0  0  0  0  0  0  0  0  0  0
   -0.8401   -4.1773    0.0000 O   0  0  0  0  0  0  0  0  0  0  0  0
    3.3741   -1.4047    0.0000 O   0  0  0  0  0  0  0  0  0  0  0  0
   -2.0068   -3.0106    0.0000 O   0  0  0  0  0  0  0  0  0  0  0  0
   -0.8401   -3.0106    0.0000 O   0  0  0  0  0  0  0  0  0  0  0  0
   -2.7213   -6.2398    0.0000 O   0  0  0  0  0  0  0  0  0  0  0  0
   -3.4358   -5.0023    0.0000 O   0  0  0  0  0  0  0  0  0  0  0  0
    1.8750   -3.7221    0.0000 N   0  0  0  0  0  0  0  0  0  0  0  0
    1.8750   -2.3872    0.0000 N   0  0  0  0  0  0  0  0  0  0  0  0
    3.3741   -3.8797    0.0000 N   0  0  0  0  0  0  0  0  0  0  0  0
    4.0886   -2.6422    0.0000 N   0  0  0  0  0  0  0  0  0  0  0  0
   -2.0068   -4.1773    0.0000 N   0  0  0  0  0  0  0  0  0  0  0  0
    1.8750   -4.5471    0.0000 C   0  0  3  0  0  0  0  0  0  0  0  0
    1.6201   -5.3317    0.0000 C   0  0  3  0  0  0  0  0  0  0  0  0
    0.7951   -5.3317    0.0000 C   0  0  3  0  0  0  0  0  0  0  0  0
    2.6597   -3.4672    0.0000 C   0  0  0  0  0  0  0  0  0  0  0  0
    0.5402   -4.5471    0.0000 C   0  0  3  0  0  0  0  0  0  0  0  0
    2.6597   -2.6422    0.0000 C   0  0  0  0  0  0  0  0  0  0  0  0
    1.3901   -3.0547    0.0000 C   0  0  0  0  0  0  0  0  0  0  0  0
    3.3741   -2.2297    0.0000 C   0  0  0  0  0  0  0  0  0  0  0  0
    2.4170   -5.1182    0.0000 C   0  0  0  0  0  0  0  0  0  0  0  0
   -0.0432   -3.9638    0.0000 C   0  0  0  0  0  0  0  0  0  0  0  0
    4.0886   -3.4672    0.0000 C   0  0  0  0  0  0  0  0  0  0  0  0
   -2.0068   -2.1856    0.0000 C   0  0  0  0  0  0  0  0  0  0  0  0
   -2.7213   -1.7731    0.0000 C   0  0  0  0  0  0  0  0  0  0  0  0
    4.8031   -3.8797    0.0000 C   0  0  0  0  0  0  0  0  0  0  0  0
   -2.7213   -0.9481    0.0000 C   0  0  0  0  0  0  0  0  0  0  0  0
   -2.0068   -5.0023    0.0000 C   0  0  3  0  0  0  0  0  0  0  0  0
    4.0886   -0.9922    0.0000 C   0  0  0  0  0  0  0  0  0  0  0  0
   -1.2923   -1.7731    0.0000 C   0  0  0  0  0  0  0  0  0  0  0  0
   -3.4358   -2.1856    0.0000 C   0  0  0  0  0  0  0  0  0  0  0  0
   -2.0068   -0.5356    0.0000 C   0  0  0  0  0  0  0  0  0  0  0  0
   -1.2923   -0.9481    0.0000 C   0  0  0  0  0  0  0  0  0  0  0  0
   -2.7213   -5.4148    0.0000 C   0  0  0  0  0  0  0  0  0  0  0  0
   -3.4358   -0.5356    0.0000 C   0  0  0  0  0  0  0  0  0  0  0  0
   -4.1502   -1.7731    0.0000 C   0  0  0  0  0  0  0  0  0  0  0  0
   -4.1502   -0.9481    0.0000 C   0  0  0  0  0  0  0  0  0  0  0  0
   -1.2923   -5.4148    0.0000 C   0  0  0  0  0  0  0  0  0  0  0  0
    4.8031   -1.4047    0.0000 C   0  0  0  0  0  0  0  0  0  0  0  0
   -3.4358   -6.6523    0.0000 C   0  0  0  0  0  0  0  0  0  0  0  0
   -4.1502   -6.2398    0.0000 C   0  0  0  0  0  0  0  0  0  0  0  0
   -4.8647   -6.6523    0.0000 C   0  0  0  0  0  0  0  0  0  0  0  0
   -4.1502   -5.4148    0.0000 C   0  0  0  0  0  0  0  0  0  0  0  0
   -4.8647   -5.8273    0.0000 C   0  0  0  0  0  0  0  0  0  0  0  0
  1  5  1  0  0  0  0
  1  7  1  0  0  0  0
  1  8  2  0  0  0  0
  1 15  1  0  0  0  0
 18  2  1  6  0  0  0
 16  3  1  6  0  0  0
  3 20  1  0  0  0  0
 17  4  1  6  0  0  0
  5 25  1  0  0  0  0
  6 23  1  0  0  0  0
  6 32  1  0  0  0  0
  7 27  1  0  0  0  0
  9 37  1  0  0  0  0
  9 43  1  0  0  0  0
 10 37  2  0  0  0  0
 11 16  1  0  0  0  0
 11 19  1  0  0  0  0
 11 22  1  0  0  0  0
 12 21  1  0  0  0  0
 12 22  2  0  0  0  0
 13 19  1  0  0  0  0
 13 26  2  0  0  0  0
 14 23  2  0  0  0  0
 14 26  1  0  0  0  0
 15 31  1  0  0  0  0
 16 17  1  0  0  0  0
 17 18  1  0  0  0  0
 17 24  1  1  0  0  0
 18 20  1  0  0  0  0
 19 21  2  0  0  0  0
 20 25  1  1  0  0  0
 21 23  1  0  0  0  0
 26 29  1  0  0  0  0
 27 28  1  0  0  0  0
 27 33  2  0  0  0  0
 28 30  2  0  0  0  0
 28 34  1  0  0  0  0
 30 35  1  0  0  0  0
 30 38  1  0  0  0  0
 31 37  1  0  0  0  0
 31 41  1  1  0  0  0
 32 42  1  0  0  0  0
 33 36  1  0  0  0  0
 34 39  2  0  0  0  0
 35 36  2  0  0  0  0
 38 40  2  0  0  0  0
 39 40  1  0  0  0  0
 43 44  1  0  0  0  0
 44 45  1  0  0  0  0
 44 46  1  0  0  0  0
 44 47  1  0  0  0  0
M  END
> <PUBCHEM_COMPOUND_ID_TYPE>
0

> <PUBCHEM_TOTAL_CHARGE>
0

> <PUBCHEM_SUBSTANCE_ID>
310947582

> <PUBCHEM_SUBSTANCE_VERSION>
1

> <PUBCHEM_EXT_DATASOURCE_NAME>
4488

> <PUBCHEM_EXT_DATASOURCE_REGID>
SCHEMBL16125745

> <PUBCHEM_SUBSTANCE_COMMENT>
InChI=1S/C32H41FN5O8P/c1-8-42-28-25-27(35-20(3)36-28)38(18-34-25)30-32(7,40)26(33)24(45-30)16-44-47(41,37-19(2)29(39)43-17-31(4,5)6)46-23-15-11-13-21-12-9-10-14-22(21)23/h9-15,18-19,24,26,30,40H,8,16-17H2,1-7H3,(H,37,41)/t19-,24+,26+,30+,32+,47?/m0/s1
InChIKey=NRZXTPLXESUBLU-ZQVLZHMNSA-N

> <PUBCHEM_SUBSTANCE_SYNONYM>
SCHEMBL16125745

> <PUBCHEM_XREF_EXT_ID>
SCHEMBL16125745

> <PUBCHEM_EXT_DATASOURCE_URL>
https://www.surechembl.org/

> <PUBCHEM_EXT_SUBSTANCE_URL>
https://www.surechembl.org/chemical/SCHEMBL16125745

> <PUBCHEM_CID_ASSOCIATIONS>
117613304  1

> <PUBCHEM_COORDINATE_TYPE>
1
3

> <PUBCHEM_BONDANNOTATIONS>
17  24  5
18  2  6
20  25  5
16  3  6
31  41  5
17  4  6

$$$$
