310936821
  -OEChem-07211613022D

 10 10  0     0  0  0  0  0  0999 V2000
    0.0000   -1.4228    0.0000 Br  0  0  0  0  0  0  0  0  0  0  0  0
    2.8774   -2.1235    0.0000 O   0  0  0  0  0  0  0  0  0  0  0  0
    1.6776   -1.4122    0.0000 N   0  0  0  0  0  0  0  0  0  0  0  0
    1.2423   -0.7114    0.0000 C   0  0  0  0  0  0  0  0  0  0  0  0
    2.4846   -1.4122    0.0000 C   0  0  0  0  0  0  0  0  0  0  0  0
    1.6776    0.0000    0.0000 C   0  0  0  0  0  0  0  0  0  0  0  0
    2.9199   -0.7114    0.0000 C   0  0  0  0  0  0  0  0  0  0  0  0
    2.4846    0.0000    0.0000 C   0  0  0  0  0  0  0  0  0  0  0  0
    0.4247   -0.7114    0.0000 C   0  0  0  0  0  0  0  0  0  0  0  0
    1.2741   -2.1235    0.0000 C   0  0  0  0  0  0  0  0  0  0  0  0
  1  9  1  0  0  0  0
  2  5  2  0  0  0  0
  3  4  1  0  0  0  0
  3  5  1  0  0  0  0
  3 10  1  0  0  0  0
  4  6  2  0  0  0  0
  4  9  1  0  0  0  0
  5  7  1  0  0  0  0
  6  8  1  0  0  0  0
  7  8  2  0  0  0  0
M  END
> <PUBCHEM_COMPOUND_ID_TYPE>
0

> <PUBCHEM_TOTAL_CHARGE>
0

> <PUBCHEM_SUBSTANCE_ID>
310936821

> <PUBCHEM_SUBSTANCE_VERSION>
1

> <PUBCHEM_EXT_DATASOURCE_NAME>
4488

> <PUBCHEM_EXT_DATASOURCE_REGID>
SCHEMBL16114509

> <PUBCHEM_SUBSTANCE_COMMENT>
InChI=1S/C7H8BrNO/c1-9-6(5-8)3-2-4-7(9)10/h2-4H,5H2,1H3
InChIKey=IBVCRMGGDWUVFB-UHFFFAOYSA-N

> <PUBCHEM_SUBSTANCE_SYNONYM>
SCHEMBL16114509

> <PUBCHEM_XREF_EXT_ID>
SCHEMBL16114509

> <PUBCHEM_EXT_DATASOURCE_URL>
https://www.surechembl.org/

> <PUBCHEM_EXT_SUBSTANCE_URL>
https://www.surechembl.org/chemical/SCHEMBL16114509

> <PUBCHEM_CID_ASSOCIATIONS>
117604715  1

> <PUBCHEM_COORDINATE_TYPE>
1
3

$$$$
