310945153
  -OEChem-07211613022D

 31 36  0     0  0  0  0  0  0999 V2000
    4.2563   -0.1829    0.0000 O   0  0  0  0  0  0  0  0  0  0  0  0
   -3.5353   -1.7972    0.0000 O   0  0  0  0  0  0  0  0  0  0  0  0
   -2.8142    1.1192    0.0000 O   0  0  0  0  0  0  0  0  0  0  0  0
    1.6734   -1.3560    0.0000 N   0  0  0  0  0  0  0  0  0  0  0  0
   -0.6511    0.7103    0.0000 N   0  0  0  0  0  0  0  0  0  0  0  0
   -3.5353   -0.1292    0.0000 N   0  0  0  0  0  0  0  0  0  0  0  0
    1.5013   -0.5381    0.0000 C   0  0  0  0  0  0  0  0  0  0  0  0
    2.2115   -0.1076    0.0000 C   0  0  0  0  0  0  0  0  0  0  0  0
    2.8357   -0.6780    0.0000 C   0  0  0  0  0  0  0  0  0  0  0  0
    0.7802   -0.1076    0.0000 C   0  0  0  0  0  0  0  0  0  0  0  0
    2.5021   -1.4313    0.0000 C   0  0  0  0  0  0  0  0  0  0  0  0
    0.7910    0.7103    0.0000 C   0  0  0  0  0  0  0  0  0  0  0  0
    3.6536   -0.7749    0.0000 C   0  0  0  0  0  0  0  0  0  0  0  0
   -0.6618   -0.1183    0.0000 C   0  0  0  0  0  0  0  0  0  0  0  0
    0.0807   -0.5274    0.0000 C   0  0  0  0  0  0  0  0  0  0  0  0
    2.2115    0.7103    0.0000 C   0  0  0  0  0  0  0  0  0  0  0  0
   -1.3721   -0.5274    0.0000 C   0  0  0  0  0  0  0  0  0  0  0  0
    1.5013    1.1192    0.0000 C   0  0  0  0  0  0  0  0  0  0  0  0
    3.1156   -1.9802    0.0000 C   0  0  0  0  0  0  0  0  0  0  0  0
   -2.8142   -0.5381    0.0000 C   0  0  0  0  0  0  0  0  0  0  0  0
    3.8366   -1.5712    0.0000 C   0  0  0  0  0  0  0  0  0  0  0  0
    0.0592    1.1300    0.0000 C   0  0  0  0  0  0  0  0  0  0  0  0
   -2.8250   -1.3560    0.0000 C   0  0  0  0  0  0  0  0  0  0  0  0
   -2.1039   -0.1292    0.0000 C   0  0  0  0  0  0  0  0  0  0  0  0
   -1.3829   -1.3560    0.0000 C   0  0  0  0  0  0  0  0  0  0  0  0
   -2.0932   -1.7757    0.0000 C   0  0  0  0  0  0  0  0  0  0  0  0
   -3.5460    0.7103    0.0000 C   0  0  0  0  0  0  0  0  0  0  0  0
   -4.2563   -0.5381    0.0000 C   0  0  0  0  0  0  0  0  0  0  0  0
   -4.2563   -1.3560    0.0000 C   0  0  0  0  0  0  0  0  0  0  0  0
   -4.2563    1.1300    0.0000 C   0  0  0  0  0  0  0  0  0  0  0  0
   -4.1917    1.9802    0.0000 C   0  0  0  0  0  0  0  0  0  0  0  0
  1 13  2  0  0  0  0
  2 23  1  0  0  0  0
  2 29  1  0  0  0  0
  3 27  2  0  0  0  0
  4  7  1  0  0  0  0
  4 11  1  0  0  0  0
  5 14  2  0  0  0  0
  5 22  1  0  0  0  0
  6 20  1  0  0  0  0
  6 27  1  0  0  0  0
  6 28  1  0  0  0  0
  7  8  2  0  0  0  0
  7 10  1  0  0  0  0
  8  9  1  0  0  0  0
  8 16  1  0  0  0  0
  9 11  2  0  0  0  0
  9 13  1  0  0  0  0
 10 12  1  0  0  0  0
 10 15  2  0  0  0  0
 11 19  1  0  0  0  0
 12 18  1  0  0  0  0
 12 22  2  0  0  0  0
 13 21  1  0  0  0  0
 14 15  1  0  0  0  0
 14 17  1  0  0  0  0
 16 18  2  0  0  0  0
 17 24  2  0  0  0  0
 17 25  1  0  0  0  0
 19 21  1  0  0  0  0
 20 23  2  0  0  0  0
 20 24  1  0  0  0  0
 23 26  1  0  0  0  0
 25 26  2  0  0  0  0
 27 30  1  0  0  0  0
 28 29  1  0  0  0  0
 30 31  2  0  0  0  0
M  END
> <PUBCHEM_COMPOUND_ID_TYPE>
0

> <PUBCHEM_TOTAL_CHARGE>
0

> <PUBCHEM_SUBSTANCE_ID>
310945153

> <PUBCHEM_SUBSTANCE_VERSION>
1

> <PUBCHEM_EXT_DATASOURCE_NAME>
4488

> <PUBCHEM_EXT_DATASOURCE_REGID>
SCHEMBL16123243

> <PUBCHEM_SUBSTANCE_COMMENT>
InChI=1S/C25H19N3O3/c1-2-23(30)28-9-10-31-22-8-4-14(11-20(22)28)19-12-17-15(13-26-19)3-5-16-24-18(27-25(16)17)6-7-21(24)29/h2-5,8,11-13,27H,1,6-7,9-10H2
InChIKey=AOWRXQNOWCVWSP-UHFFFAOYSA-N

> <PUBCHEM_SUBSTANCE_SYNONYM>
SCHEMBL16123243

> <PUBCHEM_XREF_EXT_ID>
SCHEMBL16123243

> <PUBCHEM_EXT_DATASOURCE_URL>
https://www.surechembl.org/

> <PUBCHEM_EXT_SUBSTANCE_URL>
https://www.surechembl.org/chemical/SCHEMBL16123243

> <PUBCHEM_CID_ASSOCIATIONS>
86300894  1

> <PUBCHEM_COORDINATE_TYPE>
1
3

$$$$
