310932961
  -OEChem-07211613022D

 28 31  0     0  0  0  0  0  0999 V2000
    4.0250   -2.1490    0.0000 O   0  0  0  0  0  0  0  0  0  0  0  0
    8.4935   -2.2172    0.0000 O   0  0  0  0  0  0  0  0  0  0  0  0
    4.9119   -0.9892    0.0000 N   0  0  0  0  0  0  0  0  0  0  0  0
    4.8437   -0.1706    0.0000 N   0  0  0  0  0  0  0  0  0  0  0  0
    6.3446   -0.9892    0.0000 N   0  0  0  0  0  0  0  0  0  0  0  0
    7.7772   -3.4451    0.0000 N   0  0  0  0  0  0  0  0  0  0  0  0
    0.0000   -1.8420    0.0000 N   0  0  0  0  0  0  0  0  0  0  0  0
    3.6157   -0.7163    0.0000 C   0  0  0  0  0  0  0  0  0  0  0  0
    4.1956   -1.3303    0.0000 C   0  0  0  0  0  0  0  0  0  0  0  0
    5.6282   -1.3985    0.0000 C   0  0  0  0  0  0  0  0  0  0  0  0
    2.7970   -0.8187    0.0000 C   0  0  0  0  0  0  0  0  0  0  0  0
    4.0250    0.0000    0.0000 C   0  0  0  0  0  0  0  0  0  0  0  0
    5.6282   -2.2172    0.0000 C   0  0  0  0  0  0  0  0  0  0  0  0
    7.0609   -2.2172    0.0000 C   0  0  0  0  0  0  0  0  0  0  0  0
    2.4900   -1.5691    0.0000 C   0  0  0  0  0  0  0  0  0  0  0  0
    2.3195   -0.1706    0.0000 C   0  0  0  0  0  0  0  0  0  0  0  0
    7.0609   -1.3985    0.0000 C   0  0  0  0  0  0  0  0  0  0  0  0
    6.3446   -2.6265    0.0000 C   0  0  0  0  0  0  0  0  0  0  0  0
    7.7772   -2.6265    0.0000 C   0  0  0  0  0  0  0  0  0  0  0  0
    1.1597   -0.9892    0.0000 C   0  0  0  0  0  0  0  0  0  0  0  0
    1.6373   -1.6714    0.0000 C   0  0  0  0  0  0  0  0  0  0  0  0
    1.5009   -0.2387    0.0000 C   0  0  0  0  0  0  0  0  0  0  0  0
    8.4935   -3.8886    0.0000 C   0  0  0  0  0  0  0  0  0  0  0  0
    0.3411   -1.0915    0.0000 C   0  0  0  0  0  0  0  0  0  0  0  0
    9.2098   -3.4451    0.0000 C   0  0  0  0  0  0  0  0  0  0  0  0
    9.4145   -2.6606    0.0000 C   0  0  0  0  0  0  0  0  0  0  0  0
   10.0284   -3.6839    0.0000 C   0  0  0  0  0  0  0  0  0  0  0  0
   10.2331   -2.8994    0.0000 C   0  0  0  0  0  0  0  0  0  0  0  0
  1  9  1  0  0  0  0
  2 19  2  0  0  0  0
  3  4  1  0  0  0  0
  3  9  1  0  0  0  0
  3 10  1  0  0  0  0
  4 12  2  0  0  0  0
  5 10  2  0  0  0  0
  5 17  1  0  0  0  0
  6 19  1  0  0  0  0
  6 23  1  0  0  0  0
  7 24  3  0  0  0  0
  8  9  2  0  0  0  0
  8 11  1  0  0  0  0
  8 12  1  0  0  0  0
 10 13  1  0  0  0  0
 11 15  2  0  0  0  0
 11 16  1  0  0  0  0
 13 18  2  0  0  0  0
 14 17  2  0  0  0  0
 14 18  1  0  0  0  0
 14 19  1  0  0  0  0
 15 21  1  0  0  0  0
 16 22  2  0  0  0  0
 20 21  2  0  0  0  0
 20 22  1  0  0  0  0
 20 24  1  0  0  0  0
 23 25  1  0  0  0  0
 25 26  1  0  0  0  0
 25 27  1  0  0  0  0
 26 28  1  0  0  0  0
 27 28  1  0  0  0  0
M  END
> <PUBCHEM_COMPOUND_ID_TYPE>
0

> <PUBCHEM_TOTAL_CHARGE>
0

> <PUBCHEM_SUBSTANCE_ID>
310932961

> <PUBCHEM_SUBSTANCE_VERSION>
1

> <PUBCHEM_EXT_DATASOURCE_NAME>
4488

> <PUBCHEM_EXT_DATASOURCE_REGID>
SCHEMBL16110357

> <PUBCHEM_SUBSTANCE_COMMENT>
InChI=1S/C21H19N5O2/c22-10-14-4-6-16(7-5-14)18-13-25-26(21(18)28)19-9-8-17(12-23-19)20(27)24-11-15-2-1-3-15/h4-9,12-13,15,28H,1-3,11H2,(H,24,27)
InChIKey=OMIMWOFVMNYFOO-UHFFFAOYSA-N

> <PUBCHEM_SUBSTANCE_SYNONYM>
SCHEMBL16110357

> <PUBCHEM_XREF_EXT_ID>
SCHEMBL16110357

> <PUBCHEM_EXT_DATASOURCE_URL>
https://www.surechembl.org/

> <PUBCHEM_EXT_SUBSTANCE_URL>
https://www.surechembl.org/chemical/SCHEMBL16110357

> <PUBCHEM_CID_ASSOCIATIONS>
117601438  1

> <PUBCHEM_COORDINATE_TYPE>
1
3

$$$$
