310937572
  -OEChem-07211613022D

 10 10  0     0  0  0  0  0  0999 V2000
    1.4482   -3.6665    0.0000 O   0  0  0  0  0  0  0  0  0  0  0  0
    1.4300   -0.3850    0.0000 N   0  0  0  0  0  0  0  0  0  0  0  0
    0.7333    0.0000    0.0000 N   0  0  0  0  0  0  0  0  0  0  0  0
    0.7333   -1.6132    0.0000 C   0  0  0  0  0  0  0  0  0  0  0  0
    0.7333   -2.4382    0.0000 C   0  0  0  0  0  0  0  0  0  0  0  0
    1.4666   -1.2283    0.0000 C   0  0  0  0  0  0  0  0  0  0  0  0
    0.0366   -1.2283    0.0000 C   0  0  0  0  0  0  0  0  0  0  0  0
    1.4482   -2.8415    0.0000 C   0  0  0  0  0  0  0  0  0  0  0  0
    0.0000   -0.4033    0.0000 C   0  0  0  0  0  0  0  0  0  0  0  0
    2.1633   -2.4382    0.0000 C   0  0  0  0  0  0  0  0  0  0  0  0
  1  8  2  0  0  0  0
  2  3  2  0  0  0  0
  2  6  1  0  0  0  0
  3  9  1  0  0  0  0
  4  5  1  0  0  0  0
  4  6  2  0  0  0  0
  4  7  1  0  0  0  0
  5  8  1  0  0  0  0
  7  9  2  0  0  0  0
  8 10  1  0  0  0  0
M  END
> <PUBCHEM_COMPOUND_ID_TYPE>
0

> <PUBCHEM_TOTAL_CHARGE>
0

> <PUBCHEM_SUBSTANCE_ID>
310937572

> <PUBCHEM_SUBSTANCE_VERSION>
1

> <PUBCHEM_EXT_DATASOURCE_NAME>
4488

> <PUBCHEM_EXT_DATASOURCE_REGID>
SCHEMBL16115351

> <PUBCHEM_SUBSTANCE_COMMENT>
InChI=1S/C7H8N2O/c1-6(10)4-7-2-3-8-9-5-7/h2-3,5H,4H2,1H3
InChIKey=QAKHRNBJPCBSJB-UHFFFAOYSA-N

> <PUBCHEM_SUBSTANCE_SYNONYM>
SCHEMBL16115351

> <PUBCHEM_XREF_EXT_ID>
SCHEMBL16115351

> <PUBCHEM_EXT_DATASOURCE_URL>
https://www.surechembl.org/

> <PUBCHEM_EXT_SUBSTANCE_URL>
https://www.surechembl.org/chemical/SCHEMBL16115351

> <PUBCHEM_CID_ASSOCIATIONS>
45085456  1

> <PUBCHEM_COORDINATE_TYPE>
1
3

$$$$
