310947810
  -OEChem-07211613022D

 25 25  0     1  0  0  0  0  0999 V2000
    3.8841   -1.2968    0.0000 S   0  0  0  0  0  0  0  0  0  0  0  0
    3.0526   -1.2968    0.0000 O   0  0  0  0  0  0  0  0  0  0  0  0
    0.1862   -1.2968    0.0000 O   0  0  0  0  0  0  0  0  0  0  0  0
    0.1862    2.0165    0.0000 O   0  0  0  0  0  0  0  0  0  0  0  0
   -1.2534    1.1851    0.0000 O   0  0  0  0  0  0  0  0  0  0  0  0
    4.2936   -2.0165    0.0000 O   0  0  0  0  0  0  0  0  0  0  0  0
    4.2936   -0.5771    0.0000 O   0  0  0  0  0  0  0  0  0  0  0  0
    4.7030   -1.2968    0.0000 O   0  0  0  0  0  0  0  0  0  0  0  0
    0.9182   -0.0559    0.0000 N   0  0  0  0  0  0  0  0  0  0  0  0
    2.3577   -0.8748    0.0000 N   0  0  0  0  0  0  0  0  0  0  0  0
   -0.5088    0.7756    0.0000 N   0  0  0  0  0  0  0  0  0  0  0  0
   -3.3256    0.4033    0.0000 N   0  0  0  0  0  0  0  0  0  0  0  0
    0.9182    0.7756    0.0000 C   0  0  3  0  0  0  0  0  0  0  0  0
    0.9307   -0.8624    0.0000 C   0  0  0  0  0  0  0  0  0  0  0  0
    0.1489    1.1726    0.0000 C   0  0  0  0  0  0  0  0  0  0  0  0
    1.6380   -0.4653    0.0000 C   0  0  0  0  0  0  0  0  0  0  0  0
    1.6256    1.1851    0.0000 C   0  0  0  0  0  0  0  0  0  0  0  0
    2.3329   -0.0683    0.0000 C   0  0  0  0  0  0  0  0  0  0  0  0
    2.3453    0.7756    0.0000 C   0  0  0  0  0  0  0  0  0  0  0  0
   -1.9606    0.7756    0.0000 C   0  0  0  0  0  0  0  0  0  0  0  0
   -2.7548    0.9989    0.0000 C   0  0  3  0  0  0  0  0  0  0  0  0
   -4.1447    0.6266    0.0000 C   0  0  0  0  0  0  0  0  0  0  0  0
   -2.9658    1.7807    0.0000 C   0  0  0  0  0  0  0  0  0  0  0  0
   -4.3556    1.4085    0.0000 C   0  0  0  0  0  0  0  0  0  0  0  0
   -4.7030    0.0311    0.0000 C   0  0  0  0  0  0  0  0  0  0  0  0
  1  2  1  0  0  0  0
  1  6  2  0  0  0  0
  1  7  2  0  0  0  0
  1  8  1  0  0  0  0
  2 10  1  0  0  0  0
  3 14  2  0  0  0  0
  4 15  2  0  0  0  0
  5 11  1  0  0  0  0
  5 20  1  0  0  0  0
  9 13  1  0  0  0  0
  9 14  1  0  0  0  0
  9 16  1  0  0  0  0
 10 14  1  0  0  0  0
 11 15  1  0  0  0  0
 12 21  1  0  0  0  0
 12 22  1  0  0  0  0
 13 15  1  6  0  0  0
 13 17  1  0  0  0  0
 16 18  1  0  0  0  0
 17 19  1  0  0  0  0
 18 19  1  0  0  0  0
 20 21  1  0  0  0  0
 21 23  1  0  0  0  0
 22 24  1  0  0  0  0
 22 25  1  0  0  0  0
M  END
> <PUBCHEM_COMPOUND_ID_TYPE>
0

> <PUBCHEM_TOTAL_CHARGE>
0

> <PUBCHEM_SUBSTANCE_ID>
310947810

> <PUBCHEM_SUBSTANCE_VERSION>
1

> <PUBCHEM_EXT_DATASOURCE_NAME>
4488

> <PUBCHEM_EXT_DATASOURCE_REGID>
SCHEMBL16125982

> <PUBCHEM_SUBSTANCE_COMMENT>
InChI=1S/C13H26N4O7S/c1-9(2)14-10(3)8-23-15-12(18)11-6-4-5-7-17(11)13(19)16-24-25(20,21)22/h9-11,14H,4-8H2,1-3H3,(H,15,18)(H,16,19)(H,20,21,22)/t10?,11-/m0/s1
InChIKey=XZPNPDSUWOGLCC-DTIOYNMSSA-N

> <PUBCHEM_SUBSTANCE_SYNONYM>
SCHEMBL16125982

> <PUBCHEM_XREF_EXT_ID>
SCHEMBL16125982

> <PUBCHEM_EXT_DATASOURCE_URL>
https://www.surechembl.org/

> <PUBCHEM_EXT_SUBSTANCE_URL>
https://www.surechembl.org/chemical/SCHEMBL16125982

> <PUBCHEM_CID_ASSOCIATIONS>
117613478  1

> <PUBCHEM_COORDINATE_TYPE>
1
3

> <PUBCHEM_BONDANNOTATIONS>
13  15  6

$$$$
