310935788
  -OEChem-07211613022D

 50 54  0     1  0  0  0  0  0999 V2000
    0.0574    2.5559    0.0000 F   0  0  0  0  0  0  0  0  0  0  0  0
    4.7079    2.0625    0.0000 O   0  0  0  0  0  0  0  0  0  0  0  0
    2.7486    4.3445    0.0000 O   0  0  0  0  0  0  0  0  0  0  0  0
    5.4223   -0.0000    0.0000 O   0  0  0  0  0  0  0  0  0  0  0  0
    6.1368    1.2375    0.0000 O   0  0  0  0  0  0  0  0  0  0  0  0
   -2.4176    1.1270    0.0000 O   0  0  0  0  0  0  0  0  0  0  0  0
    2.5645    0.0000    0.0000 N   0  0  0  0  0  0  0  0  0  0  0  0
    3.2789    2.0625    0.0000 N   0  0  0  0  0  0  0  0  0  0  0  0
    1.7798   -0.2549    0.0000 N   0  0  0  0  0  0  0  0  0  0  0  0
    3.2789    1.2375    0.0000 C   0  0  0  0  0  0  0  0  0  0  0  0
    2.5645    0.8250    0.0000 C   0  0  0  0  0  0  0  0  0  0  0  0
    3.9934    0.8250    0.0000 C   0  0  0  0  0  0  0  0  0  0  0  0
    3.9934    0.0000    0.0000 C   0  0  0  0  0  0  0  0  0  0  0  0
    1.2949    0.4125    0.0000 C   0  0  0  0  0  0  0  0  0  0  0  0
    1.7798    1.0799    0.0000 C   0  0  0  0  0  0  0  0  0  0  0  0
    4.7079    1.2375    0.0000 C   0  0  3  0  0  0  0  0  0  0  0  0
    3.2789   -0.4125    0.0000 C   0  0  0  0  0  0  0  0  0  0  0  0
    0.4699    0.4125    0.0000 C   0  0  0  0  0  0  0  0  0  0  0  0
    2.5645    2.4750    0.0000 C   0  0  0  0  0  0  0  0  0  0  0  0
    3.9934    2.4750    0.0000 C   0  0  0  0  0  0  0  0  0  0  0  0
    5.4223    0.8250    0.0000 C   0  0  0  0  0  0  0  0  0  0  0  0
    3.2789    3.7125    0.0000 C   0  0  0  0  0  0  0  0  0  0  0  0
    0.0574    1.1270    0.0000 C   0  0  0  0  0  0  0  0  0  0  0  0
   -0.7676    1.1270    0.0000 C   0  0  0  0  0  0  0  0  0  0  0  0
   -1.1801    1.8414    0.0000 C   0  0  0  0  0  0  0  0  0  0  0  0
    2.5645    3.3000    0.0000 C   0  0  0  0  0  0  0  0  0  0  0  0
    3.9934    3.3000    0.0000 C   0  0  0  0  0  0  0  0  0  0  0  0
    4.7079   -0.4125    0.0000 C   0  0  0  0  0  0  0  0  0  0  0  0
    0.0574   -0.3020    0.0000 C   0  0  0  0  0  0  0  0  0  0  0  0
    5.4223    2.4750    0.0000 C   0  0  0  0  0  0  0  0  0  0  0  0
   -2.0051    1.8414    0.0000 C   0  0  0  0  0  0  0  0  0  0  0  0
   -1.1801    0.4125    0.0000 C   0  0  0  0  0  0  0  0  0  0  0  0
   -0.7676    2.5559    0.0000 C   0  0  0  0  0  0  0  0  0  0  0  0
   -0.7676   -0.3020    0.0000 C   0  0  0  0  0  0  0  0  0  0  0  0
    3.8092    4.3445    0.0000 C   0  0  0  0  0  0  0  0  0  0  0  0
   -2.4176    2.5559    0.0000 C   0  0  0  0  0  0  0  0  0  0  0  0
   -1.1801    3.2704    0.0000 C   0  0  0  0  0  0  0  0  0  0  0  0
   -3.2426    1.1270    0.0000 C   0  0  3  0  0  0  0  0  0  0  0  0
    5.8348    1.7605    0.0000 C   0  0  0  0  0  0  0  0  0  0  0  0
    5.0098    3.1895    0.0000 C   0  0  0  0  0  0  0  0  0  0  0  0
    6.1368    2.8875    0.0000 C   0  0  0  0  0  0  0  0  0  0  0  0
   -2.0051    3.2704    0.0000 C   0  0  0  0  0  0  0  0  0  0  0  0
    3.0308    5.1197    0.0000 C   0  0  0  0  0  0  0  0  0  0  0  0
   -3.6551    0.4125    0.0000 C   0  0  0  0  0  0  0  0  0  0  0  0
   -3.6551    1.8414    0.0000 C   0  0  0  0  0  0  0  0  0  0  0  0
    3.8433    5.2630    0.0000 C   0  0  0  0  0  0  0  0  0  0  0  0
   -4.4801    0.4125    0.0000 C   0  0  0  0  0  0  0  0  0  0  0  0
    4.1254    6.0382    0.0000 C   0  0  0  0  0  0  0  0  0  0  0  0
   -4.8926   -0.3020    0.0000 C   0  0  0  0  0  0  0  0  0  0  0  0
   -2.8301    1.8414    0.0000 H   0  0  0  0  0  0  0  0  0  0  0  0
  1 33  1  0  0  0  0
  2 16  1  0  0  0  0
  2 30  1  0  0  0  0
  3 22  1  0  0  0  0
  3 43  1  0  0  0  0
  4 21  2  0  0  0  0
  5 21  1  0  0  0  0
  6 31  1  0  0  0  0
  6 38  1  0  0  0  0
  7  9  1  0  0  0  0
  7 11  1  0  0  0  0
  7 17  1  0  0  0  0
  8 10  1  0  0  0  0
  8 19  1  0  0  0  0
  8 20  1  0  0  0  0
  9 14  2  0  0  0  0
 10 11  1  0  0  0  0
 10 12  2  0  0  0  0
 11 15  2  0  0  0  0
 12 13  1  0  0  0  0
 12 16  1  0  0  0  0
 13 17  2  0  0  0  0
 13 28  1  0  0  0  0
 14 15  1  0  0  0  0
 14 18  1  0  0  0  0
 16 21  1  0  0  0  0
 18 23  1  0  0  0  0
 18 29  2  0  0  0  0
 19 26  1  0  0  0  0
 20 27  1  0  0  0  0
 22 26  1  0  0  0  0
 22 27  1  0  0  0  0
 22 35  1  0  0  0  0
 23 24  2  0  0  0  0
 24 25  1  0  0  0  0
 24 32  1  0  0  0  0
 25 31  1  0  0  0  0
 25 33  2  0  0  0  0
 29 34  1  0  0  0  0
 30 39  1  0  0  0  0
 30 40  1  0  0  0  0
 30 41  1  0  0  0  0
 31 36  2  0  0  0  0
 32 34  2  0  0  0  0
 33 37  1  0  0  0  0
 36 42  1  0  0  0  0
 37 42  2  0  0  0  0
 38 44  1  0  0  0  0
 38 45  1  6  0  0  0
 38 50  1  1  0  0  0
 43 46  1  0  0  0  0
 44 47  1  0  0  0  0
 46 48  2  0  0  0  0
 47 49  2  0  0  0  0
M  END
> <PUBCHEM_COMPOUND_ID_TYPE>
0

> <PUBCHEM_TOTAL_CHARGE>
0

> <PUBCHEM_SUBSTANCE_ID>
310935788

> <PUBCHEM_SUBSTANCE_VERSION>
1

> <PUBCHEM_EXT_DATASOURCE_NAME>
4488

> <PUBCHEM_EXT_DATASOURCE_REGID>
SCHEMBL16113374

> <PUBCHEM_SUBSTANCE_COMMENT>
InChI=1S/C40H48FN3O5/c1-9-13-27(4)48-33-17-12-16-30(41)35(33)29-15-11-14-28(23-29)31-24-32-36(43-20-18-40(8,19-21-43)47-22-10-2)34(26(3)25-44(32)42-31)37(38(45)46)49-39(5,6)7/h9-12,14-17,23-25,27,37H,1-2,13,18-22H2,3-8H3,(H,45,46)/t27-,37?/m0/s1
InChIKey=LVCLRVQDEONGOY-YTCZSSRZSA-N

> <PUBCHEM_SUBSTANCE_SYNONYM>
SCHEMBL16113374

> <PUBCHEM_XREF_EXT_ID>
SCHEMBL16113374

> <PUBCHEM_EXT_DATASOURCE_URL>
https://www.surechembl.org/

> <PUBCHEM_EXT_SUBSTANCE_URL>
https://www.surechembl.org/chemical/SCHEMBL16113374

> <PUBCHEM_CID_ASSOCIATIONS>
117603782  1

> <PUBCHEM_COORDINATE_TYPE>
1
3

> <PUBCHEM_BONDANNOTATIONS>
38  45  6
38  50  5

$$$$
