310947086
  -OEChem-07211613022D

 23 25  0     1  0  0  0  0  0999 V2000
   -1.1686    6.1668    0.0000 O   0  0  0  0  0  0  0  0  0  0  0  0
   -0.3436    4.1828    0.0000 O   0  0  0  0  0  0  0  0  0  0  0  0
   -1.9936    4.1828    0.0000 O   0  0  0  0  0  0  0  0  0  0  0  0
   -3.2649    5.6819    0.0000 O   0  0  0  0  0  0  0  0  0  0  0  0
    0.2134    6.0944    0.0000 N   0  0  0  0  0  0  0  0  0  0  0  0
    0.6259    7.3640    0.0000 N   0  0  0  0  0  0  0  0  0  0  0  0
    1.5904    5.4813    0.0000 N   0  0  0  0  0  0  0  0  0  0  0  0
    2.3552    7.8352    0.0000 N   0  0  0  0  0  0  0  0  0  0  0  0
   -0.5011    5.6819    0.0000 C   0  0  3  0  0  0  0  0  0  0  0  0
    1.0384    6.0944    0.0000 C   0  0  3  0  0  0  0  0  0  0  0  0
   -0.7561    4.8973    0.0000 C   0  0  3  0  0  0  0  0  0  0  0  0
   -1.8360    5.6819    0.0000 C   0  0  3  0  0  0  0  0  0  0  0  0
   -1.5811    4.8973    0.0000 C   0  0  3  0  0  0  0  0  0  0  0  0
    1.2933    6.8790    0.0000 C   0  0  3  0  0  0  0  0  0  0  0  0
   -0.0416    6.8790    0.0000 C   0  0  0  0  0  0  0  0  0  0  0  0
   -2.5505    6.0944    0.0000 C   0  0  3  0  0  0  0  0  0  0  0  0
    2.1003    7.0506    0.0000 C   0  0  0  0  0  0  0  0  0  0  0  0
    2.6523    6.4375    0.0000 C   0  0  0  0  0  0  0  0  0  0  0  0
    2.3974    5.6528    0.0000 C   0  0  0  0  0  0  0  0  0  0  0  0
   -2.1380    6.8089    0.0000 C   0  0  0  0  0  0  0  0  0  0  0  0
   -3.9794    6.0944    0.0000 C   0  0  0  0  0  0  0  0  0  0  0  0
   -4.3919    5.3799    0.0000 C   0  0  0  0  0  0  0  0  0  0  0  0
   -3.5669    6.8089    0.0000 C   0  0  0  0  0  0  0  0  0  0  0  0
  9  1  1  1  0  0  0
  1 12  1  0  0  0  0
 11  2  1  6  0  0  0
 13  3  1  6  0  0  0
  4 16  1  0  0  0  0
  4 21  1  0  0  0  0
  5  9  1  0  0  0  0
  5 10  1  0  0  0  0
  5 15  1  0  0  0  0
  6 14  1  0  0  0  0
  6 15  2  0  0  0  0
  7 10  1  0  0  0  0
  7 19  2  0  0  0  0
  8 17  1  0  0  0  0
  9 11  1  0  0  0  0
 10 14  1  0  0  0  0
 11 13  1  0  0  0  0
 12 13  1  0  0  0  0
 12 16  1  1  0  0  0
 14 17  1  0  0  0  0
 16 20  1  0  0  0  0
 17 18  2  0  0  0  0
 18 19  1  0  0  0  0
 21 22  1  0  0  0  0
 21 23  1  0  0  0  0
M  END
> <PUBCHEM_COMPOUND_ID_TYPE>
0

> <PUBCHEM_TOTAL_CHARGE>
0

> <PUBCHEM_SUBSTANCE_ID>
310947086

> <PUBCHEM_SUBSTANCE_VERSION>
1

> <PUBCHEM_EXT_DATASOURCE_NAME>
4488

> <PUBCHEM_EXT_DATASOURCE_REGID>
SCHEMBL16125240

> <PUBCHEM_SUBSTANCE_COMMENT>
InChI=1S/C15H24N4O4/c1-7(2)22-8(3)13-11(20)12(21)15(23-13)19-6-18-10-9(16)4-5-17-14(10)19/h4-8,10-15,20-21H,16H2,1-3H3/t8?,10?,11-,12+,13+,14?,15+/m0/s1
InChIKey=HLVIUGYMFHJGOJ-KWHAXWHNSA-N

> <PUBCHEM_SUBSTANCE_SYNONYM>
SCHEMBL16125240

> <PUBCHEM_XREF_EXT_ID>
SCHEMBL16125240

> <PUBCHEM_EXT_DATASOURCE_URL>
https://www.surechembl.org/

> <PUBCHEM_EXT_SUBSTANCE_URL>
https://www.surechembl.org/chemical/SCHEMBL16125240

> <PUBCHEM_CID_ASSOCIATIONS>
117612938  1

> <PUBCHEM_COORDINATE_TYPE>
1
3

> <PUBCHEM_BONDANNOTATIONS>
9  1  5
12  16  5
11  2  6
21  22  3
21  23  3
13  3  6

$$$$
