310936271
  -OEChem-07211613022D

 31 33  0     1  0  0  0  0  0999 V2000
    0.7019   -3.4270    0.0000 P   0  0  3  0  0  0  0  0  0  0  0  0
    2.1264   -3.4064    0.0000 P   0  0  3  0  0  0  0  0  0  0  0  0
    1.9612   -1.3006    0.0000 O   0  0  0  0  0  0  0  0  0  0  0  0
    0.2684   -2.7251    0.0000 O   0  0  0  0  0  0  0  0  0  0  0  0
    1.4038   -2.9935    0.0000 O   0  0  0  0  0  0  0  0  0  0  0  0
    3.4270   -2.8283    0.0000 O   0  0  0  0  0  0  0  0  0  0  0  0
    1.7342   -3.4477    0.0000 O   0  0  0  0  0  0  0  0  0  0  0  0
    5.9456   -0.0826    0.0000 O   0  0  0  0  0  0  0  0  0  0  0  0
    2.5187   -2.7044    0.0000 O   0  0  0  0  0  0  0  0  0  0  0  0
    1.1148   -4.1289    0.0000 O   0  0  0  0  0  0  0  0  0  0  0  0
    0.0000   -3.8606    0.0000 O   0  0  0  0  0  0  0  0  0  0  0  0
    2.8283   -3.8193    0.0000 O   0  0  0  0  0  0  0  0  0  0  0  0
    1.7135   -4.1289    0.0000 O   0  0  0  0  0  0  0  0  0  0  0  0
    3.3858   -1.0735    0.0000 N   0  0  0  0  0  0  0  0  0  0  0  0
    4.1702    0.0000    0.0000 N   0  0  0  0  0  0  0  0  0  0  0  0
    4.5212   -2.0851    0.0000 N   0  0  0  0  0  0  0  0  0  0  0  0
    5.8012   -1.4658    0.0000 N   0  0  0  0  0  0  0  0  0  0  0  0
    5.6566   -2.9109    0.0000 N   0  0  0  0  0  0  0  0  0  0  0  0
    4.5625   -1.9819    0.0000 N   0  0  0  0  0  0  0  0  0  0  0  0
    2.7458   -1.5690    0.0000 C   0  0  3  0  0  0  0  0  0  0  0  0
    4.1702   -1.3419    0.0000 C   0  0  0  0  0  0  0  0  0  0  0  0
    2.7664   -2.3741    0.0000 C   0  0  3  0  0  0  0  0  0  0  0  0
    4.6657   -0.6400    0.0000 C   0  0  0  0  0  0  0  0  0  0  0  0
    1.5071   -1.9819    0.0000 C   0  0  3  0  0  0  0  0  0  0  0  0
    1.9819   -2.6425    0.0000 C   0  0  3  0  0  0  0  0  0  0  0  0
    3.3651   -0.2477    0.0000 C   0  0  0  0  0  0  0  0  0  0  0  0
    5.4708   -0.7432    0.0000 C   0  0  0  0  0  0  0  0  0  0  0  0
    0.6813   -2.0025    0.0000 C   0  0  0  0  0  0  0  0  0  0  0  0
    5.3057   -2.1677    0.0000 C   0  0  0  0  0  0  0  0  0  0  0  0
    3.3444   -2.7044    0.0000 C   0  0  0  0  0  0  0  0  0  0  0  0
    3.7573   -1.9819    0.0000 C   0  0  0  0  0  0  0  0  0  0  0  0
  1  4  1  0  0  0  0
  1  5  1  0  0  0  0
  1 10  2  0  0  0  0
  1 11  1  0  0  0  0
  2  5  1  0  0  0  0
  2  9  1  0  0  0  0
  2 12  2  0  0  0  0
  2 13  1  0  0  0  0
 20  3  1  1  0  0  0
  3 24  1  0  0  0  0
  4 28  1  0  0  0  0
 22  6  1  6  0  0  0
 25  7  1  6  0  0  0
  8 27  2  0  0  0  0
  9 30  1  0  0  0  0
 14 20  1  0  0  0  0
 14 21  1  0  0  0  0
 14 26  1  0  0  0  0
 15 23  1  0  0  0  0
 15 26  2  0  0  0  0
 16 21  1  0  0  0  0
 16 29  2  0  0  0  0
 17 27  1  0  0  0  0
 17 29  1  0  0  0  0
 18 29  1  0  0  0  0
 19 31  1  0  0  0  0
 20 22  1  0  0  0  0
 21 23  2  0  0  0  0
 22 25  1  0  0  0  0
 23 27  1  0  0  0  0
 24 25  1  0  0  0  0
 24 28  1  1  0  0  0
 30 31  1  0  0  0  0
M  END
> <PUBCHEM_COMPOUND_ID_TYPE>
0

> <PUBCHEM_TOTAL_CHARGE>
0

> <PUBCHEM_SUBSTANCE_ID>
310936271

> <PUBCHEM_SUBSTANCE_VERSION>
1

> <PUBCHEM_EXT_DATASOURCE_NAME>
4488

> <PUBCHEM_EXT_DATASOURCE_REGID>
SCHEMBL16113890

> <PUBCHEM_SUBSTANCE_COMMENT>
InChI=1S/C12H20N6O11P2/c13-1-2-26-30(22,23)29-31(24,25)27-3-5-7(19)8(20)11(28-5)18-4-15-6-9(18)16-12(14)17-10(6)21/h4-5,7-8,11,19-20H,1-3,13H2,(H,22,23)(H,24,25)(H3,14,16,17,21)/t5-,7-,8-,11-/m1/s1
InChIKey=RGSKVYPZXKRSTN-IOSLPCCCSA-N

> <PUBCHEM_SUBSTANCE_SYNONYM>
SCHEMBL16113890

> <PUBCHEM_XREF_EXT_ID>
SCHEMBL16113890

> <PUBCHEM_EXT_DATASOURCE_URL>
https://www.surechembl.org/

> <PUBCHEM_EXT_SUBSTANCE_URL>
https://www.surechembl.org/chemical/SCHEMBL16113890

> <PUBCHEM_CID_ASSOCIATIONS>
44296673  1

> <PUBCHEM_COORDINATE_TYPE>
1
3

> <PUBCHEM_BONDANNOTATIONS>
24  28  5
20  3  5
22  6  6
25  7  6

$$$$
