310948439
  -OEChem-07211613022D

 36 40  0     1  0  0  0  0  0999 V2000
    1.9835   -1.0636    0.0000 S   0  0  0  0  0  0  0  0  0  0  0  0
    3.1334   -1.0253    0.0000 F   0  0  0  0  0  0  0  0  0  0  0  0
    4.2450   -1.1595    0.0000 F   0  0  0  0  0  0  0  0  0  0  0  0
    4.1109   -2.2902    0.0000 F   0  0  0  0  0  0  0  0  0  0  0  0
    1.9835   -0.2204    0.0000 O   0  0  0  0  0  0  0  0  0  0  0  0
    2.8268   -1.0636    0.0000 O   0  0  0  0  0  0  0  0  0  0  0  0
   -2.9226   -2.0602    0.0000 O   0  0  0  0  0  0  0  0  0  0  0  0
    2.1944   -1.8494    0.0000 N   0  0  3  0  0  0  0  0  0  0  0  0
   -2.2135    0.6612    0.0000 N   0  0  0  0  0  0  0  0  0  0  0  0
   -1.5428    0.1629    0.0000 N   0  0  0  0  0  0  0  0  0  0  0  0
   -1.3128   -1.3128    0.0000 N   0  0  0  0  0  0  0  0  0  0  0  0
   -3.9958   -1.0828    0.0000 N   0  0  0  0  0  0  0  0  0  0  0  0
   -0.0479    1.1020    0.0000 N   0  0  0  0  0  0  0  0  0  0  0  0
    1.1403   -0.9870    0.0000 C   0  0  0  0  0  0  0  0  0  0  0  0
    0.8336   -1.7535    0.0000 C   0  0  0  0  0  0  0  0  0  0  0  0
    1.4853   -2.2902    0.0000 C   0  0  3  0  0  0  0  0  0  0  0  0
   -2.6352   -0.6037    0.0000 C   0  0  0  0  0  0  0  0  0  0  0  0
   -1.8111   -0.6420    0.0000 C   0  0  0  0  0  0  0  0  0  0  0  0
   -2.8843    0.1437    0.0000 C   0  0  0  0  0  0  0  0  0  0  0  0
    0.0288   -1.8686    0.0000 C   0  0  0  0  0  0  0  0  0  0  0  0
   -0.4696   -1.2361    0.0000 C   0  0  0  0  0  0  0  0  0  0  0  0
    0.6420   -0.3354    0.0000 C   0  0  0  0  0  0  0  0  0  0  0  0
    2.9610   -2.1752    0.0000 C   0  0  0  0  0  0  0  0  0  0  0  0
   -0.1629   -0.4503    0.0000 C   0  0  0  0  0  0  0  0  0  0  0  0
   -2.2135    1.4853    0.0000 C   0  0  3  0  0  0  0  0  0  0  0  0
   -3.2101   -1.2553    0.0000 C   0  0  0  0  0  0  0  0  0  0  0  0
    3.6125   -1.6577    0.0000 C   0  0  0  0  0  0  0  0  0  0  0  0
    1.0253   -3.1334    0.0000 C   0  0  0  0  0  0  0  0  0  0  0  0
   -3.7084    0.3163    0.0000 C   0  0  0  0  0  0  0  0  0  0  0  0
   -1.5044    1.9069    0.0000 C   0  0  3  0  0  0  0  0  0  0  0  0
   -4.2450   -0.2970    0.0000 C   0  0  0  0  0  0  0  0  0  0  0  0
   -2.9226    1.8877    0.0000 C   0  0  0  0  0  0  0  0  0  0  0  0
   -1.5044    2.7118    0.0000 C   0  0  0  0  0  0  0  0  0  0  0  0
   -0.7762    1.4853    0.0000 C   0  0  0  0  0  0  0  0  0  0  0  0
   -2.9034    2.7310    0.0000 C   0  0  0  0  0  0  0  0  0  0  0  0
   -2.2327    3.1334    0.0000 C   0  0  0  0  0  0  0  0  0  0  0  0
  1  5  2  0  0  0  0
  1  6  2  0  0  0  0
  1  8  1  0  0  0  0
  1 14  1  0  0  0  0
  2 27  1  0  0  0  0
  3 27  1  0  0  0  0
  4 27  1  0  0  0  0
  7 26  2  0  0  0  0
  8 16  1  0  0  0  0
  8 23  1  0  0  0  0
  9 10  1  0  0  0  0
  9 19  1  0  0  0  0
 25  9  1  1  0  0  0
 10 18  2  0  0  0  0
 11 18  1  0  0  0  0
 11 21  1  0  0  0  0
 12 26  1  0  0  0  0
 12 31  1  0  0  0  0
 13 34  3  0  0  0  0
 14 15  2  0  0  0  0
 14 22  1  0  0  0  0
 15 16  1  0  0  0  0
 15 20  1  0  0  0  0
 16 28  1  0  0  0  0
 17 18  1  0  0  0  0
 17 19  2  0  0  0  0
 17 26  1  0  0  0  0
 19 29  1  0  0  0  0
 20 21  2  0  0  0  0
 21 24  1  0  0  0  0
 22 24  2  0  0  0  0
 23 27  1  0  0  0  0
 25 30  1  0  0  0  0
 25 32  1  0  0  0  0
 29 31  2  0  0  0  0
 30 33  1  0  0  0  0
 30 34  1  6  0  0  0
 32 35  1  0  0  0  0
 33 36  1  0  0  0  0
 35 36  1  0  0  0  0
M  END
> <PUBCHEM_COMPOUND_ID_TYPE>
0

> <PUBCHEM_TOTAL_CHARGE>
0

> <PUBCHEM_SUBSTANCE_ID>
310948439

> <PUBCHEM_SUBSTANCE_VERSION>
1

> <PUBCHEM_EXT_DATASOURCE_NAME>
4488

> <PUBCHEM_EXT_DATASOURCE_REGID>
SCHEMBL16126620

> <PUBCHEM_SUBSTANCE_COMMENT>
InChI=1S/C23H23F3N6O3S/c1-13-16-10-15(6-7-19(16)36(34,35)31(13)12-23(24,25)26)29-21-20-18(8-9-28-22(20)33)32(30-21)17-5-3-2-4-14(17)11-27/h6-10,13-14,17H,2-5,12H2,1H3,(H,28,33)(H,29,30)/t13?,14-,17+/m1/s1
InChIKey=YHFGQDXJVUKWLI-ROFXEPAZSA-N

> <PUBCHEM_SUBSTANCE_SYNONYM>
SCHEMBL16126620

> <PUBCHEM_XREF_EXT_ID>
SCHEMBL16126620

> <PUBCHEM_EXT_DATASOURCE_URL>
https://www.surechembl.org/

> <PUBCHEM_EXT_SUBSTANCE_URL>
https://www.surechembl.org/chemical/SCHEMBL16126620

> <PUBCHEM_CID_ASSOCIATIONS>
117613997  1

> <PUBCHEM_COORDINATE_TYPE>
1
3

> <PUBCHEM_BONDANNOTATIONS>
30  34  6
25  9  5

$$$$
