310932412
  -OEChem-07211613022D

 39 44  0     1  0  0  0  0  0999 V2000
    1.5349   -5.8327    0.0000 S   0  0  0  0  0  0  0  0  0  0  0  0
    5.7815   -7.3676    0.0000 F   0  0  0  0  0  0  0  0  0  0  0  0
    4.9629   -5.8327    0.0000 O   0  0  0  0  0  0  0  0  0  0  0  0
    2.4559  -10.2327    0.0000 O   0  0  0  0  0  0  0  0  0  0  0  0
    2.0466   -3.6326    0.0000 O   0  0  0  0  0  0  0  0  0  0  0  0
    0.8186    0.0000    0.0000 O   0  0  0  0  0  0  0  0  0  0  0  0
    2.8140   -5.1163    0.0000 N   0  0  0  0  0  0  0  0  0  0  0  0
    4.5024   -8.0327    0.0000 N   0  0  0  0  0  0  0  0  0  0  0  0
    3.3256   -2.9163    0.0000 N   0  0  0  0  0  0  0  0  0  0  0  0
    1.5861   -4.3489    0.0000 N   0  0  0  0  0  0  0  0  0  0  0  0
    1.2279   -2.2000    0.0000 N   0  0  0  0  0  0  0  0  0  0  0  0
    3.2745   -5.8327    0.0000 C   0  0  3  0  0  0  0  0  0  0  0  0
    3.6838   -6.5489    0.0000 C   0  0  0  0  0  0  0  0  0  0  0  0
    3.7350   -5.1163    0.0000 C   0  0  0  0  0  0  0  0  0  0  0  0
    4.5535   -6.6001    0.0000 C   0  0  0  0  0  0  0  0  0  0  0  0
    4.5535   -5.1163    0.0000 C   0  0  0  0  0  0  0  0  0  0  0  0
    2.8140   -6.5489    0.0000 C   0  0  0  0  0  0  0  0  0  0  0  0
    3.2745   -7.3164    0.0000 C   0  0  0  0  0  0  0  0  0  0  0  0
    4.9629   -7.3164    0.0000 C   0  0  0  0  0  0  0  0  0  0  0  0
    3.2745   -4.3489    0.0000 C   0  0  0  0  0  0  0  0  0  0  0  0
    3.6838   -7.9815    0.0000 C   0  0  0  0  0  0  0  0  0  0  0  0
    4.9629   -4.3489    0.0000 C   0  0  0  0  0  0  0  0  0  0  0  0
    1.9954   -5.1163    0.0000 C   0  0  0  0  0  0  0  0  0  0  0  0
    3.7350   -3.6838    0.0000 C   0  0  0  0  0  0  0  0  0  0  0  0
    1.9954   -6.5489    0.0000 C   0  0  0  0  0  0  0  0  0  0  0  0
    4.5535   -3.6838    0.0000 C   0  0  0  0  0  0  0  0  0  0  0  0
    3.2745   -8.7490    0.0000 C   0  0  0  0  0  0  0  0  0  0  0  0
    2.5070   -2.9163    0.0000 C   0  0  0  0  0  0  0  0  0  0  0  0
    2.4047   -8.7490    0.0000 C   0  0  0  0  0  0  0  0  0  0  0  0
    3.6838   -9.4652    0.0000 C   0  0  0  0  0  0  0  0  0  0  0  0
    2.0466   -2.2000    0.0000 C   0  0  0  0  0  0  0  0  0  0  0  0
    2.5070   -1.4838    0.0000 C   0  0  0  0  0  0  0  0  0  0  0  0
    1.9954   -9.4652    0.0000 C   0  0  0  0  0  0  0  0  0  0  0  0
    3.2745  -10.1816    0.0000 C   0  0  0  0  0  0  0  0  0  0  0  0
    2.0466   -0.7674    0.0000 C   0  0  0  0  0  0  0  0  0  0  0  0
    1.2279   -0.7674    0.0000 C   0  0  0  0  0  0  0  0  0  0  0  0
    0.8186   -1.4838    0.0000 C   0  0  0  0  0  0  0  0  0  0  0  0
    3.3768   -1.4838    0.0000 C   0  0  0  0  0  0  0  0  0  0  0  0
    0.0000    0.0000    0.0000 C   0  0  0  0  0  0  0  0  0  0  0  0
  1 23  1  0  0  0  0
  1 25  1  0  0  0  0
  2 19  1  0  0  0  0
  3 15  1  0  0  0  0
  3 16  1  0  0  0  0
  4 33  1  0  0  0  0
  4 34  1  0  0  0  0
  5 28  2  0  0  0  0
  6 36  1  0  0  0  0
  6 39  1  0  0  0  0
 12  7  1  1  0  0  0
  7 23  2  0  0  0  0
  8 19  1  0  0  0  0
  8 21  2  0  0  0  0
  9 24  1  0  0  0  0
  9 28  1  0  0  0  0
 10 23  1  0  0  0  0
 11 31  1  0  0  0  0
 11 37  2  0  0  0  0
 12 13  1  0  0  0  0
 12 14  1  0  0  0  0
 12 17  1  0  0  0  0
 13 15  1  0  0  0  0
 13 18  2  0  0  0  0
 14 16  2  0  0  0  0
 14 20  1  0  0  0  0
 15 19  2  0  0  0  0
 16 22  1  0  0  0  0
 17 25  1  0  0  0  0
 18 21  1  0  0  0  0
 20 24  2  0  0  0  0
 21 27  1  0  0  0  0
 22 26  2  0  0  0  0
 24 26  1  0  0  0  0
 27 29  2  0  0  0  0
 27 30  1  0  0  0  0
 28 31  1  0  0  0  0
 29 33  1  0  0  0  0
 30 34  1  0  0  0  0
 31 32  2  0  0  0  0
 32 35  1  0  0  0  0
 32 38  1  0  0  0  0
 35 36  2  0  0  0  0
 36 37  1  0  0  0  0
M  END
> <PUBCHEM_COMPOUND_ID_TYPE>
0

> <PUBCHEM_TOTAL_CHARGE>
0

> <PUBCHEM_SUBSTANCE_ID>
310932412

> <PUBCHEM_SUBSTANCE_VERSION>
1

> <PUBCHEM_EXT_DATASOURCE_NAME>
4488

> <PUBCHEM_EXT_DATASOURCE_REGID>
SCHEMBL16109780

> <PUBCHEM_SUBSTANCE_COMMENT>
InChI=1S/C28H26FN5O4S/c1-15-11-18(36-2)14-31-23(15)26(35)32-17-3-4-22-19(12-17)28(7-10-39-27(30)34-28)20-13-21(16-5-8-37-9-6-16)33-25(29)24(20)38-22/h3-5,11-14H,6-10H2,1-2H3,(H2,30,34)(H,32,35)/t28-/m0/s1
InChIKey=AINIEOARYIAFKL-NDEPHWFRSA-N

> <PUBCHEM_SUBSTANCE_SYNONYM>
SCHEMBL16109780

> <PUBCHEM_XREF_EXT_ID>
SCHEMBL16109780

> <PUBCHEM_EXT_DATASOURCE_URL>
https://www.surechembl.org/

> <PUBCHEM_EXT_SUBSTANCE_URL>
https://www.surechembl.org/chemical/SCHEMBL16109780

> <PUBCHEM_CID_ASSOCIATIONS>
117600965  1

> <PUBCHEM_COORDINATE_TYPE>
1
3

> <PUBCHEM_BONDANNOTATIONS>
12  7  5

$$$$
