310944628
  -OEChem-07211613022D

 36 41  0     0  0  0  0  0  0999 V2000
    0.8171    4.7501    0.0000 F   0  0  0  0  0  0  0  0  0  0  0  0
   -0.5320   -0.3420    0.0000 N   0  0  0  0  0  0  0  0  0  0  0  0
    2.9641    4.3131    0.0000 N   0  0  0  0  0  0  0  0  0  0  0  0
   -1.3490    4.2371    0.0000 N   0  0  0  0  0  0  0  0  0  0  0  0
    0.0950    0.2470    0.0000 C   0  0  0  0  0  0  0  0  0  0  0  0
   -0.1520   -1.0640    0.0000 C   0  0  0  0  0  0  0  0  0  0  0  0
    0.8171   -0.1520    0.0000 C   0  0  0  0  0  0  0  0  0  0  0  0
    0.6460   -0.9690    0.0000 C   0  0  0  0  0  0  0  0  0  0  0  0
   -1.3680   -0.1520    0.0000 C   0  0  0  0  0  0  0  0  0  0  0  0
    0.1140    1.0451    0.0000 C   0  0  0  0  0  0  0  0  0  0  0  0
    0.8171    1.4820    0.0000 C   0  0  0  0  0  0  0  0  0  0  0  0
   -0.5130   -1.8050    0.0000 C   0  0  0  0  0  0  0  0  0  0  0  0
    1.5391    0.2850    0.0000 C   0  0  0  0  0  0  0  0  0  0  0  0
    1.1210   -1.6530    0.0000 C   0  0  0  0  0  0  0  0  0  0  0  0
   -0.0190   -2.4891    0.0000 C   0  0  0  0  0  0  0  0  0  0  0  0
    1.5391    1.0640    0.0000 C   0  0  0  0  0  0  0  0  0  0  0  0
    0.8550    2.3180    0.0000 C   0  0  0  0  0  0  0  0  0  0  0  0
    0.8171   -2.3940    0.0000 C   0  0  0  0  0  0  0  0  0  0  0  0
   -1.6150    0.5890    0.0000 C   0  0  0  0  0  0  0  0  0  0  0  0
   -1.9000   -0.7600    0.0000 C   0  0  0  0  0  0  0  0  0  0  0  0
   -0.3610   -3.2680    0.0000 C   0  0  0  0  0  0  0  0  0  0  0  0
    1.5201    2.6981    0.0000 C   0  0  0  0  0  0  0  0  0  0  0  0
    0.1140    2.6981    0.0000 C   0  0  0  0  0  0  0  0  0  0  0  0
    1.5580    3.5531    0.0000 C   0  0  0  0  0  0  0  0  0  0  0  0
    0.0950    3.5340    0.0000 C   0  0  0  0  0  0  0  0  0  0  0  0
    0.7980    3.9521    0.0000 C   0  0  0  0  0  0  0  0  0  0  0  0
   -2.4321    0.7600    0.0000 C   0  0  0  0  0  0  0  0  0  0  0  0
   -2.7171   -0.6080    0.0000 C   0  0  0  0  0  0  0  0  0  0  0  0
   -1.1780   -3.3631    0.0000 C   0  0  0  0  0  0  0  0  0  0  0  0
    0.1330   -3.8951    0.0000 C   0  0  0  0  0  0  0  0  0  0  0  0
   -2.9641    0.1330    0.0000 C   0  0  0  0  0  0  0  0  0  0  0  0
    2.2611    3.9521    0.0000 C   0  0  0  0  0  0  0  0  0  0  0  0
   -0.6460    3.9141    0.0000 C   0  0  0  0  0  0  0  0  0  0  0  0
   -1.5201   -4.1041    0.0000 C   0  0  0  0  0  0  0  0  0  0  0  0
   -0.1900   -4.6551    0.0000 C   0  0  0  0  0  0  0  0  0  0  0  0
   -1.0070   -4.7501    0.0000 C   0  0  0  0  0  0  0  0  0  0  0  0
  1 26  1  0  0  0  0
  2  5  1  0  0  0  0
  2  6  1  0  0  0  0
  2  9  1  0  0  0  0
  3 32  3  0  0  0  0
  4 33  3  0  0  0  0
  5  7  2  0  0  0  0
  5 10  1  0  0  0  0
  6  8  2  0  0  0  0
  6 12  1  0  0  0  0
  7  8  1  0  0  0  0
  7 13  1  0  0  0  0
  8 14  1  0  0  0  0
  9 19  2  0  0  0  0
  9 20  1  0  0  0  0
 10 11  2  0  0  0  0
 11 16  1  0  0  0  0
 11 17  1  0  0  0  0
 12 15  2  0  0  0  0
 13 16  2  0  0  0  0
 14 18  2  0  0  0  0
 15 18  1  0  0  0  0
 15 21  1  0  0  0  0
 17 22  2  0  0  0  0
 17 23  1  0  0  0  0
 19 27  1  0  0  0  0
 20 28  2  0  0  0  0
 21 29  2  0  0  0  0
 21 30  1  0  0  0  0
 22 24  1  0  0  0  0
 23 25  2  0  0  0  0
 24 26  2  0  0  0  0
 24 32  1  0  0  0  0
 25 26  1  0  0  0  0
 25 33  1  0  0  0  0
 27 31  2  0  0  0  0
 28 31  1  0  0  0  0
 29 34  1  0  0  0  0
 30 35  2  0  0  0  0
 34 36  2  0  0  0  0
 35 36  1  0  0  0  0
M  END
> <PUBCHEM_COMPOUND_ID_TYPE>
0

> <PUBCHEM_TOTAL_CHARGE>
0

> <PUBCHEM_SUBSTANCE_ID>
310944628

> <PUBCHEM_SUBSTANCE_VERSION>
1

> <PUBCHEM_EXT_DATASOURCE_NAME>
4488

> <PUBCHEM_EXT_DATASOURCE_REGID>
SCHEMBL16122706

> <PUBCHEM_SUBSTANCE_COMMENT>
InChI=1S/C32H18FN3/c33-32-25(19-34)15-24(16-26(32)20-35)23-12-14-29-28-13-11-22(21-7-3-1-4-8-21)17-30(28)36(31(29)18-23)27-9-5-2-6-10-27/h1-18H
InChIKey=GRYZLHQESGSBNN-UHFFFAOYSA-N

> <PUBCHEM_SUBSTANCE_SYNONYM>
SCHEMBL16122706

> <PUBCHEM_XREF_EXT_ID>
SCHEMBL16122706

> <PUBCHEM_EXT_DATASOURCE_URL>
https://www.surechembl.org/

> <PUBCHEM_EXT_SUBSTANCE_URL>
https://www.surechembl.org/chemical/SCHEMBL16122706

> <PUBCHEM_CID_ASSOCIATIONS>
117610858  1

> <PUBCHEM_COORDINATE_TYPE>
1
3

$$$$
