310934959
  -OEChem-07211613022D

 31 34  0     1  0  0  0  0  0999 V2000
    5.8069    4.5263    0.0000 F   0  0  0  0  0  0  0  0  0  0  0  0
    0.0000    1.6500    0.0000 F   0  0  0  0  0  0  0  0  0  0  0  0
    4.5093    0.5410    0.0000 O   0  0  0  0  0  0  0  0  0  0  0  0
    5.5372    1.5337    0.0000 O   0  0  0  0  0  0  0  0  0  0  0  0
    0.0000    0.0000    0.0000 O   0  0  0  0  0  0  0  0  0  0  0  0
    1.4290    0.0000    0.0000 N   0  0  0  0  0  0  0  0  0  0  0  0
   -2.1434    0.4125    0.0000 N   0  0  0  0  0  0  0  0  0  0  0  0
    4.1636    1.9276    0.0000 C   0  0  3  0  0  0  0  0  0  0  0  0
    5.0924    2.4638    0.0000 C   0  0  0  0  0  0  0  0  0  0  0  0
    3.6116    1.3145    0.0000 C   0  0  0  0  0  0  0  0  0  0  0  0
    2.8579    1.6500    0.0000 C   0  0  3  0  0  0  0  0  0  0  0  0
    3.7511    2.6420    0.0000 C   0  0  0  0  0  0  0  0  0  0  0  0
    4.7367    1.3341    0.0000 C   0  0  0  0  0  0  0  0  0  0  0  0
    5.0924    3.2888    0.0000 C   0  0  0  0  0  0  0  0  0  0  0  0
    2.9441    2.4705    0.0000 C   0  0  0  0  0  0  0  0  0  0  0  0
    2.1434    1.2375    0.0000 C   0  0  0  0  0  0  0  0  0  0  0  0
    5.8069    2.0513    0.0000 C   0  0  0  0  0  0  0  0  0  0  0  0
    5.8069    3.7013    0.0000 C   0  0  0  0  0  0  0  0  0  0  0  0
    1.4290    1.6500    0.0000 C   0  0  0  0  0  0  0  0  0  0  0  0
    2.1434    0.4125    0.0000 C   0  0  0  0  0  0  0  0  0  0  0  0
    0.7144    1.2375    0.0000 C   0  0  0  0  0  0  0  0  0  0  0  0
    6.5213    2.4638    0.0000 C   0  0  0  0  0  0  0  0  0  0  0  0
    0.7144    0.4125    0.0000 C   0  0  0  0  0  0  0  0  0  0  0  0
    6.5213    3.2888    0.0000 C   0  0  0  0  0  0  0  0  0  0  0  0
    4.3779    3.7013    0.0000 C   0  0  0  0  0  0  0  0  0  0  0  0
   -0.7144    0.4125    0.0000 C   0  0  0  0  0  0  0  0  0  0  0  0
   -1.4290    0.0000    0.0000 C   0  0  0  0  0  0  0  0  0  0  0  0
   -2.8971    0.0770    0.0000 C   0  0  0  0  0  0  0  0  0  0  0  0
   -2.2296    1.2330    0.0000 C   0  0  0  0  0  0  0  0  0  0  0  0
   -3.4491    0.6901    0.0000 C   0  0  0  0  0  0  0  0  0  0  0  0
   -3.0366    1.4045    0.0000 C   0  0  0  0  0  0  0  0  0  0  0  0
  1 18  1  0  0  0  0
  2 21  1  0  0  0  0
  3 13  2  0  0  0  0
  4 13  1  0  0  0  0
  5 23  1  0  0  0  0
  5 26  1  0  0  0  0
  6 20  2  0  0  0  0
  6 23  1  0  0  0  0
  7 27  1  0  0  0  0
  7 28  1  0  0  0  0
  7 29  1  0  0  0  0
  8  9  1  0  0  0  0
  8 10  1  0  0  0  0
  8 12  1  0  0  0  0
  8 13  1  6  0  0  0
  9 14  1  0  0  0  0
  9 17  2  0  0  0  0
 10 11  1  0  0  0  0
 11 15  1  0  0  0  0
 11 16  1  0  0  0  0
 12 15  1  0  0  0  0
 14 18  2  0  0  0  0
 14 25  1  0  0  0  0
 16 19  2  0  0  0  0
 16 20  1  0  0  0  0
 17 22  1  0  0  0  0
 18 24  1  0  0  0  0
 19 21  1  0  0  0  0
 21 23  2  0  0  0  0
 22 24  2  0  0  0  0
 26 27  1  0  0  0  0
 28 30  1  0  0  0  0
 29 31  1  0  0  0  0
 30 31  1  0  0  0  0
M  END
> <PUBCHEM_COMPOUND_ID_TYPE>
0

> <PUBCHEM_TOTAL_CHARGE>
0

> <PUBCHEM_SUBSTANCE_ID>
310934959

> <PUBCHEM_SUBSTANCE_VERSION>
1

> <PUBCHEM_EXT_DATASOURCE_NAME>
4488

> <PUBCHEM_EXT_DATASOURCE_REGID>
SCHEMBL16112475

> <PUBCHEM_SUBSTANCE_COMMENT>
InChI=1S/C24H28F2N2O3/c1-16-19(5-4-6-20(16)25)24(23(29)30)8-7-17(14-24)18-13-21(26)22(27-15-18)31-12-11-28-9-2-3-10-28/h4-6,13,15,17H,2-3,7-12,14H2,1H3,(H,29,30)/t17?,24-/m0/s1
InChIKey=JHYKZKSNHRCCOW-UCSBTNPJSA-N

> <PUBCHEM_SUBSTANCE_SYNONYM>
SCHEMBL16112475

> <PUBCHEM_XREF_EXT_ID>
SCHEMBL16112475

> <PUBCHEM_EXT_DATASOURCE_URL>
https://www.surechembl.org/

> <PUBCHEM_EXT_SUBSTANCE_URL>
https://www.surechembl.org/chemical/SCHEMBL16112475

> <PUBCHEM_CID_ASSOCIATIONS>
117603079  1

> <PUBCHEM_COORDINATE_TYPE>
1
3

> <PUBCHEM_BONDANNOTATIONS>
8  13  6

$$$$
