310944939
  -OEChem-07211613022D

 19 20  0     0  0  0  0  0  0999 V2000
    1.5767   -1.0202    0.0000 S   0  0  0  0  0  0  0  0  0  0  0  0
    3.0606    0.5432    0.0000 O   0  0  0  0  0  0  0  0  0  0  0  0
   -1.8019    0.3710    0.0000 O   0  0  0  0  0  0  0  0  0  0  0  0
    1.6032    0.3047    0.0000 N   0  0  0  0  0  0  0  0  0  0  0  0
    0.2650   -0.3445    0.0000 N   0  0  0  0  0  0  0  0  0  0  0  0
   -0.5697   -0.3445    0.0000 N   0  0  0  0  0  0  0  0  0  0  0  0
   -2.6499   -2.5041    0.0000 N   0  0  0  0  0  0  0  0  0  0  0  0
    1.1262   -0.2650    0.0000 C   0  0  0  0  0  0  0  0  0  0  0  0
    2.3716    0.1192    0.0000 C   0  0  0  0  0  0  0  0  0  0  0  0
    2.3716   -0.7155    0.0000 C   0  0  0  0  0  0  0  0  0  0  0  0
    1.3515    1.1527    0.0000 C   0  0  0  0  0  0  0  0  0  0  0  0
   -1.3912   -0.2783    0.0000 C   0  0  0  0  0  0  0  0  0  0  0  0
   -1.8152   -0.9805    0.0000 C   0  0  0  0  0  0  0  0  0  0  0  0
   -1.4044   -1.6959    0.0000 C   0  0  0  0  0  0  0  0  0  0  0  0
   -2.6499   -1.0070    0.0000 C   0  0  0  0  0  0  0  0  0  0  0  0
    1.9212    1.8019    0.0000 C   0  0  0  0  0  0  0  0  0  0  0  0
   -1.8152   -2.4114    0.0000 C   0  0  0  0  0  0  0  0  0  0  0  0
   -3.0606   -1.7092    0.0000 C   0  0  0  0  0  0  0  0  0  0  0  0
    1.6032    2.5041    0.0000 C   0  0  0  0  0  0  0  0  0  0  0  0
  1  8  1  0  0  0  0
  1 10  1  0  0  0  0
  2  9  2  0  0  0  0
  3 12  2  0  0  0  0
  4  8  1  0  0  0  0
  4  9  1  0  0  0  0
  4 11  1  0  0  0  0
  5  6  1  0  0  0  0
  5  8  2  0  0  0  0
  6 12  1  0  0  0  0
  7 17  2  0  0  0  0
  7 18  1  0  0  0  0
  9 10  1  0  0  0  0
 11 16  1  0  0  0  0
 12 13  1  0  0  0  0
 13 14  2  0  0  0  0
 13 15  1  0  0  0  0
 14 17  1  0  0  0  0
 15 18  2  0  0  0  0
 16 19  2  0  0  0  0
M  END
> <PUBCHEM_COMPOUND_ID_TYPE>
0

> <PUBCHEM_TOTAL_CHARGE>
0

> <PUBCHEM_SUBSTANCE_ID>
310944939

> <PUBCHEM_SUBSTANCE_VERSION>
1

> <PUBCHEM_EXT_DATASOURCE_NAME>
4488

> <PUBCHEM_EXT_DATASOURCE_REGID>
SCHEMBL16123024

> <PUBCHEM_SUBSTANCE_COMMENT>
InChI=1S/C12H12N4O2S/c1-2-7-16-10(17)8-19-12(16)15-14-11(18)9-3-5-13-6-4-9/h2-6H,1,7-8H2,(H,14,18)/b15-12+
InChIKey=TZQLZALVWYVQPP-NTCAYCPXSA-N

> <PUBCHEM_SUBSTANCE_SYNONYM>
SCHEMBL16123024

> <PUBCHEM_XREF_EXT_ID>
SCHEMBL16123024

> <PUBCHEM_EXT_DATASOURCE_URL>
https://www.surechembl.org/

> <PUBCHEM_EXT_SUBSTANCE_URL>
https://www.surechembl.org/chemical/SCHEMBL16123024

> <PUBCHEM_CID_ASSOCIATIONS>
1515365  1

> <PUBCHEM_COORDINATE_TYPE>
1
3

$$$$
