310938553
  -OEChem-07211613022D

 31 35  0     0  0  0  0  0  0999 V2000
    1.2940   -1.0461    0.0000 Cl  0  0  0  0  0  0  0  0  0  0  0  0
   -0.8006   -0.4125    0.0000 O   0  0  0  0  0  0  0  0  0  0  0  0
    0.6284    2.8875    0.0000 O   0  0  0  0  0  0  0  0  0  0  0  0
   -0.8006   -2.8875    0.0000 N   0  0  0  0  0  0  0  0  0  0  0  0
   -0.0159   -1.8076    0.0000 N   0  0  0  0  0  0  0  0  0  0  0  0
   -1.5150   -3.3000    0.0000 N   0  0  0  0  0  0  0  0  0  0  0  0
   -2.2295   -0.4125    0.0000 N   0  0  0  0  0  0  0  0  0  0  0  0
   -1.5150    0.8250    0.0000 N   0  0  0  0  0  0  0  0  0  0  0  0
   -0.8006    2.0625    0.0000 N   0  0  0  0  0  0  0  0  0  0  0  0
   -0.8006   -2.0625    0.0000 C   0  0  0  0  0  0  0  0  0  0  0  0
   -1.5150   -1.6500    0.0000 C   0  0  0  0  0  0  0  0  0  0  0  0
    0.4690   -2.4750    0.0000 C   0  0  0  0  0  0  0  0  0  0  0  0
   -0.0159   -3.1424    0.0000 C   0  0  0  0  0  0  0  0  0  0  0  0
    1.2940   -2.4750    0.0000 C   0  0  0  0  0  0  0  0  0  0  0  0
   -1.5150   -0.8250    0.0000 C   0  0  0  0  0  0  0  0  0  0  0  0
   -2.2295   -2.0625    0.0000 C   0  0  0  0  0  0  0  0  0  0  0  0
    1.7065   -1.7605    0.0000 C   0  0  0  0  0  0  0  0  0  0  0  0
   -2.2295   -2.8875    0.0000 C   0  0  0  0  0  0  0  0  0  0  0  0
   -2.2295    0.4125    0.0000 C   0  0  0  0  0  0  0  0  0  0  0  0
    1.7065   -3.1895    0.0000 C   0  0  0  0  0  0  0  0  0  0  0  0
   -1.5150    1.6500    0.0000 C   0  0  0  0  0  0  0  0  0  0  0  0
    2.5315   -1.7605    0.0000 C   0  0  0  0  0  0  0  0  0  0  0  0
   -2.9440    0.8250    0.0000 C   0  0  0  0  0  0  0  0  0  0  0  0
    2.5315   -3.1895    0.0000 C   0  0  0  0  0  0  0  0  0  0  0  0
   -2.2295    2.0625    0.0000 C   0  0  0  0  0  0  0  0  0  0  0  0
    2.9440   -2.4750    0.0000 C   0  0  0  0  0  0  0  0  0  0  0  0
   -2.9440    1.6500    0.0000 C   0  0  0  0  0  0  0  0  0  0  0  0
   -0.0861    1.6500    0.0000 C   0  0  0  0  0  0  0  0  0  0  0  0
   -0.8006    2.8875    0.0000 C   0  0  0  0  0  0  0  0  0  0  0  0
    0.6284    2.0625    0.0000 C   0  0  0  0  0  0  0  0  0  0  0  0
   -0.0861    3.3000    0.0000 C   0  0  0  0  0  0  0  0  0  0  0  0
  1 17  1  0  0  0  0
  2 15  2  0  0  0  0
  3 30  1  0  0  0  0
  3 31  1  0  0  0  0
  4  6  1  0  0  0  0
  4 10  1  0  0  0  0
  4 13  1  0  0  0  0
  5 10  2  0  0  0  0
  5 12  1  0  0  0  0
  6 18  2  0  0  0  0
  7 15  1  0  0  0  0
  7 19  1  0  0  0  0
  8 19  1  0  0  0  0
  8 21  2  0  0  0  0
  9 21  1  0  0  0  0
  9 28  1  0  0  0  0
  9 29  1  0  0  0  0
 10 11  1  0  0  0  0
 11 15  1  0  0  0  0
 11 16  2  0  0  0  0
 12 13  2  0  0  0  0
 12 14  1  0  0  0  0
 14 17  1  0  0  0  0
 14 20  2  0  0  0  0
 16 18  1  0  0  0  0
 17 22  2  0  0  0  0
 19 23  2  0  0  0  0
 20 24  1  0  0  0  0
 21 25  1  0  0  0  0
 22 26  1  0  0  0  0
 23 27  1  0  0  0  0
 24 26  2  0  0  0  0
 25 27  2  0  0  0  0
 28 30  1  0  0  0  0
 29 31  1  0  0  0  0
M  END
> <PUBCHEM_COMPOUND_ID_TYPE>
0

> <PUBCHEM_TOTAL_CHARGE>
0

> <PUBCHEM_SUBSTANCE_ID>
310938553

> <PUBCHEM_SUBSTANCE_VERSION>
1

> <PUBCHEM_EXT_DATASOURCE_NAME>
4488

> <PUBCHEM_EXT_DATASOURCE_REGID>
SCHEMBL16116467

> <PUBCHEM_SUBSTANCE_COMMENT>
InChI=1S/C22H19ClN6O2/c23-17-5-2-1-4-15(17)18-14-29-21(25-18)16(8-9-24-29)22(30)27-19-6-3-7-20(26-19)28-10-12-31-13-11-28/h1-9,14H,10-13H2,(H,26,27,30)
InChIKey=BKZOQXIKIXYGCT-UHFFFAOYSA-N

> <PUBCHEM_SUBSTANCE_SYNONYM>
SCHEMBL16116467

> <PUBCHEM_XREF_EXT_ID>
SCHEMBL16116467

> <PUBCHEM_EXT_DATASOURCE_URL>
https://www.surechembl.org/

> <PUBCHEM_EXT_SUBSTANCE_URL>
https://www.surechembl.org/chemical/SCHEMBL16116467

> <PUBCHEM_CID_ASSOCIATIONS>
117605992  1

> <PUBCHEM_COORDINATE_TYPE>
1
3

$$$$
