310934480
  -OEChem-07211613022D

 27 30  0     0  0  0  0  0  0999 V2000
    3.5626    0.0000    0.0000 Cl  0  0  0  0  0  0  0  0  0  0  0  0
    1.4184   -3.6945    0.0000 S   0  0  0  0  0  0  0  0  0  0  0  0
    2.8369   -3.6945    0.0000 S   0  0  0  0  0  0  0  0  0  0  0  0
    0.0000   -2.8699    0.0000 O   0  0  0  0  0  0  0  0  0  0  0  0
    2.1441   -6.5974    0.0000 O   0  0  0  0  0  0  0  0  0  0  0  0
    0.7257   -1.6163    0.0000 N   0  0  0  0  0  0  0  0  0  0  0  0
    2.1441   -4.9480    0.0000 N   0  0  0  0  0  0  0  0  0  0  0  0
    2.1441   -2.4410    0.0000 C   0  0  0  0  0  0  0  0  0  0  0  0
    2.1441   -1.6163    0.0000 C   0  0  0  0  0  0  0  0  0  0  0  0
    1.4184   -2.8699    0.0000 C   0  0  0  0  0  0  0  0  0  0  0  0
    1.4514   -1.2205    0.0000 C   0  0  0  0  0  0  0  0  0  0  0  0
    0.7257   -2.4740    0.0000 C   0  0  0  0  0  0  0  0  0  0  0  0
    2.8699   -2.8699    0.0000 C   0  0  0  0  0  0  0  0  0  0  0  0
    2.8369   -1.2205    0.0000 C   0  0  0  0  0  0  0  0  0  0  0  0
    1.4184   -0.3959    0.0000 C   0  0  0  0  0  0  0  0  0  0  0  0
    2.8699   -0.3959    0.0000 C   0  0  0  0  0  0  0  0  0  0  0  0
    2.1441   -4.1234    0.0000 C   0  0  0  0  0  0  0  0  0  0  0  0
    3.5955   -2.4740    0.0000 C   0  0  0  0  0  0  0  0  0  0  0  0
    3.0348   -3.8595    0.0000 C   0  0  0  0  0  0  0  0  0  0  0  0
    2.1441    0.0000    0.0000 C   0  0  0  0  0  0  0  0  0  0  0  0
    4.2883   -2.8699    0.0000 C   0  0  0  0  0  0  0  0  0  0  0  0
    3.5626   -4.0904    0.0000 C   0  0  0  0  0  0  0  0  0  0  0  0
    2.8369   -5.3439    0.0000 C   0  0  0  0  0  0  0  0  0  0  0  0
    1.4184   -5.3439    0.0000 C   0  0  0  0  0  0  0  0  0  0  0  0
    4.2883   -3.6945    0.0000 C   0  0  0  0  0  0  0  0  0  0  0  0
    1.4184   -6.1686    0.0000 C   0  0  0  0  0  0  0  0  0  0  0  0
    2.8369   -6.1686    0.0000 C   0  0  0  0  0  0  0  0  0  0  0  0
  1 16  1  0  0  0  0
  2 10  1  0  0  0  0
  2 17  1  0  0  0  0
  3 17  2  0  0  0  0
  4 12  2  0  0  0  0
  5 26  1  0  0  0  0
  5 27  1  0  0  0  0
  6 11  1  0  0  0  0
  6 12  1  0  0  0  0
  7 17  1  0  0  0  0
  7 23  1  0  0  0  0
  7 24  1  0  0  0  0
  8  9  1  0  0  0  0
  8 10  2  0  0  0  0
  8 13  1  0  0  0  0
  9 11  2  0  0  0  0
  9 14  1  0  0  0  0
 10 12  1  0  0  0  0
 11 15  1  0  0  0  0
 13 18  2  0  0  0  0
 13 19  1  0  0  0  0
 14 16  2  0  0  0  0
 15 20  2  0  0  0  0
 16 20  1  0  0  0  0
 18 21  1  0  0  0  0
 19 22  2  0  0  0  0
 21 25  2  0  0  0  0
 22 25  1  0  0  0  0
 23 27  1  0  0  0  0
 24 26  1  0  0  0  0
M  END
> <PUBCHEM_COMPOUND_ID_TYPE>
0

> <PUBCHEM_TOTAL_CHARGE>
0

> <PUBCHEM_SUBSTANCE_ID>
310934480

> <PUBCHEM_SUBSTANCE_VERSION>
1

> <PUBCHEM_EXT_DATASOURCE_NAME>
4488

> <PUBCHEM_EXT_DATASOURCE_REGID>
SCHEMBL16111960

> <PUBCHEM_SUBSTANCE_COMMENT>
InChI=1S/C20H17ClN2O2S2/c21-14-6-7-16-15(12-14)17(13-4-2-1-3-5-13)18(19(24)22-16)27-20(26)23-8-10-25-11-9-23/h1-7,12H,8-11H2,(H,22,24)
InChIKey=LNTXOXYPBIGGHW-UHFFFAOYSA-N

> <PUBCHEM_SUBSTANCE_SYNONYM>
SCHEMBL16111960

> <PUBCHEM_XREF_EXT_ID>
SCHEMBL16111960

> <PUBCHEM_EXT_DATASOURCE_URL>
https://www.surechembl.org/

> <PUBCHEM_EXT_SUBSTANCE_URL>
https://www.surechembl.org/chemical/SCHEMBL16111960

> <PUBCHEM_CID_ASSOCIATIONS>
1392072  1

> <PUBCHEM_COORDINATE_TYPE>
1
3

$$$$
