310936156
  -OEChem-07211613022D

 27 29  0     0  0  0  0  0  0999 V2000
    0.0000   -1.3994    0.0000 Cl  0  0  0  0  0  0  0  0  0  0  0  0
    0.8746    0.0000    0.0000 F   0  0  0  0  0  0  0  0  0  0  0  0
    7.4968   -0.0500    0.0000 F   0  0  0  0  0  0  0  0  0  0  0  0
    6.2224   -0.7247    0.0000 F   0  0  0  0  0  0  0  0  0  0  0  0
    4.9229   -4.2982    0.0000 O   0  0  0  0  0  0  0  0  0  0  0  0
    7.4718   -1.4744    0.0000 O   0  0  0  0  0  0  0  0  0  0  0  0
    3.7234   -3.5735    0.0000 N   0  0  0  0  0  0  0  0  0  0  0  0
    7.4218   -2.8738    0.0000 N   0  0  0  0  0  0  0  0  0  0  0  0
    1.2495   -2.1241    0.0000 N   0  0  0  0  0  0  0  0  0  0  0  0
    4.9729   -2.8738    0.0000 C   0  0  0  0  0  0  0  0  0  0  0  0
    5.7975   -2.8738    0.0000 C   0  0  0  0  0  0  0  0  0  0  0  0
    4.5231   -3.5735    0.0000 C   0  0  0  0  0  0  0  0  0  0  0  0
    3.7234   -2.1741    0.0000 C   0  0  0  0  0  0  0  0  0  0  0  0
    4.5231   -2.1741    0.0000 C   0  0  0  0  0  0  0  0  0  0  0  0
    6.1974   -2.1491    0.0000 C   0  0  0  0  0  0  0  0  0  0  0  0
    2.4989   -1.4494    0.0000 C   0  0  0  0  0  0  0  0  0  0  0  0
    3.3236   -1.4494    0.0000 C   0  0  0  0  0  0  0  0  0  0  0  0
    3.2986   -2.8738    0.0000 C   0  0  0  0  0  0  0  0  0  0  0  0
    7.0220   -2.1741    0.0000 C   0  0  0  0  0  0  0  0  0  0  0  0
    6.1974   -3.5735    0.0000 C   0  0  0  0  0  0  0  0  0  0  0  0
    1.2744   -0.6997    0.0000 C   0  0  0  0  0  0  0  0  0  0  0  0
    2.0741   -0.7247    0.0000 C   0  0  0  0  0  0  0  0  0  0  0  0
    0.7996   -1.4244    0.0000 C   0  0  0  0  0  0  0  0  0  0  0  0
    7.0220   -3.5985    0.0000 C   0  0  0  0  0  0  0  0  0  0  0  0
    2.0492   -2.1491    0.0000 C   0  0  0  0  0  0  0  0  0  0  0  0
    7.0470   -0.7497    0.0000 C   0  0  0  0  0  0  0  0  0  0  0  0
    5.7476   -4.2982    0.0000 C   0  0  0  0  0  0  0  0  0  0  0  0
  1 23  1  0  0  0  0
  2 21  1  0  0  0  0
  3 26  1  0  0  0  0
  4 26  1  0  0  0  0
  5 12  1  0  0  0  0
  5 27  1  0  0  0  0
  6 19  1  0  0  0  0
  6 26  1  0  0  0  0
  7 12  1  0  0  0  0
  7 18  2  0  0  0  0
  8 19  1  0  0  0  0
  8 24  2  0  0  0  0
  9 23  2  0  0  0  0
  9 25  1  0  0  0  0
 10 11  1  0  0  0  0
 10 12  2  0  0  0  0
 10 14  1  0  0  0  0
 11 15  1  0  0  0  0
 11 20  2  0  0  0  0
 13 14  2  0  0  0  0
 13 17  1  0  0  0  0
 13 18  1  0  0  0  0
 15 19  2  0  0  0  0
 16 17  1  0  0  0  0
 16 22  1  0  0  0  0
 16 25  2  0  0  0  0
 20 24  1  0  0  0  0
 21 22  2  0  0  0  0
 21 23  1  0  0  0  0
M  END
> <PUBCHEM_COMPOUND_ID_TYPE>
0

> <PUBCHEM_TOTAL_CHARGE>
0

> <PUBCHEM_SUBSTANCE_ID>
310936156

> <PUBCHEM_SUBSTANCE_VERSION>
1

> <PUBCHEM_EXT_DATASOURCE_NAME>
4488

> <PUBCHEM_EXT_DATASOURCE_REGID>
SCHEMBL16113766

> <PUBCHEM_SUBSTANCE_COMMENT>
InChI=1S/C18H13ClF3N3O2/c1-26-17-13(12-2-3-23-15(7-12)27-18(21)22)5-10(9-25-17)4-11-6-14(20)16(19)24-8-11/h2-3,5-9,18H,4H2,1H3
InChIKey=HMRDZNPSEANLBC-UHFFFAOYSA-N

> <PUBCHEM_SUBSTANCE_SYNONYM>
SCHEMBL16113766

> <PUBCHEM_XREF_EXT_ID>
SCHEMBL16113766

> <PUBCHEM_EXT_DATASOURCE_URL>
https://www.surechembl.org/

> <PUBCHEM_EXT_SUBSTANCE_URL>
https://www.surechembl.org/chemical/SCHEMBL16113766

> <PUBCHEM_CID_ASSOCIATIONS>
117604118  1

> <PUBCHEM_COORDINATE_TYPE>
1
3

$$$$
