310949112
  -OEChem-07211613022D

 31 34  0     1  0  0  0  0  0999 V2000
    1.0724    2.7842    0.0000 F   0  0  0  0  0  0  0  0  0  0  0  0
    1.3818    1.7118    0.0000 F   0  0  0  0  0  0  0  0  0  0  0  0
    0.3300    1.4231    0.0000 F   0  0  0  0  0  0  0  0  0  0  0  0
   -1.5880   -2.4543    0.0000 O   0  0  0  0  0  0  0  0  0  0  0  0
    1.9387   -3.7536    0.0000 O   0  0  0  0  0  0  0  0  0  0  0  0
    0.5775   -3.7742    0.0000 O   0  0  0  0  0  0  0  0  0  0  0  0
   -0.8456   -1.2375    0.0000 N   0  0  0  0  0  0  0  0  0  0  0  0
   -0.1443   -2.4956    0.0000 N   0  0  0  0  0  0  0  0  0  0  0  0
    2.0624   -1.2994    0.0000 N   0  0  0  0  0  0  0  0  0  0  0  0
   -0.3918    0.0206    0.0000 C   0  0  3  0  0  0  0  0  0  0  0  0
   -1.2168    0.0619    0.0000 C   0  0  3  0  0  0  0  0  0  0  0  0
   -0.8044    1.2994    0.0000 C   0  0  0  0  0  0  0  0  0  0  0  0
   -0.7425    2.1655    0.0000 C   0  0  0  0  0  0  0  0  0  0  0  0
   -0.1237    0.8044    0.0000 C   0  0  0  0  0  0  0  0  0  0  0  0
   -1.4437    0.8456    0.0000 C   0  0  0  0  0  0  0  0  0  0  0  0
   -0.0413    2.5161    0.0000 C   0  0  0  0  0  0  0  0  0  0  0  0
   -0.1443   -0.7218    0.0000 C   0  0  0  0  0  0  0  0  0  0  0  0
   -1.4850   -0.7012    0.0000 C   0  0  0  0  0  0  0  0  0  0  0  0
   -0.8456   -2.0418    0.0000 C   0  0  0  0  0  0  0  0  0  0  0  0
    0.6806    2.1036    0.0000 C   0  0  0  0  0  0  0  0  0  0  0  0
    0.5775   -2.0830    0.0000 C   0  0  0  0  0  0  0  0  0  0  0  0
   -1.4437    2.5574    0.0000 C   0  0  0  0  0  0  0  0  0  0  0  0
   -0.0206    3.3411    0.0000 C   0  0  0  0  0  0  0  0  0  0  0  0
    1.3199   -2.5161    0.0000 C   0  0  0  0  0  0  0  0  0  0  0  0
    0.6187   -1.2787    0.0000 C   0  0  0  0  0  0  0  0  0  0  0  0
   -1.4437    3.3824    0.0000 C   0  0  0  0  0  0  0  0  0  0  0  0
   -0.6806    3.7742    0.0000 C   0  0  0  0  0  0  0  0  0  0  0  0
    1.2787   -3.3617    0.0000 C   0  0  0  0  0  0  0  0  0  0  0  0
    2.0418   -2.1243    0.0000 C   0  0  0  0  0  0  0  0  0  0  0  0
    1.3199   -0.8868    0.0000 C   0  0  0  0  0  0  0  0  0  0  0  0
    1.3612   -0.0619    0.0000 C   0  0  0  0  0  0  0  0  0  0  0  0
  1 20  1  0  0  0  0
  2 20  1  0  0  0  0
  3 20  1  0  0  0  0
  4 19  2  0  0  0  0
  5 28  2  0  0  0  0
  6 28  1  0  0  0  0
  7 17  1  0  0  0  0
  7 18  1  0  0  0  0
  7 19  1  0  0  0  0
  8 19  1  0  0  0  0
  8 21  1  0  0  0  0
  9 29  2  0  0  0  0
  9 30  1  0  0  0  0
 10 11  1  0  0  0  0
 10 14  1  1  0  0  0
 10 17  1  0  0  0  0
 11 15  1  1  0  0  0
 11 18  1  0  0  0  0
 12 13  1  0  0  0  0
 12 14  1  1  0  0  0
 12 15  1  0  0  0  0
 13 16  2  0  0  0  0
 13 22  1  0  0  0  0
 16 20  1  0  0  0  0
 16 23  1  0  0  0  0
 21 24  2  0  0  0  0
 21 25  1  0  0  0  0
 22 26  2  0  0  0  0
 23 27  2  0  0  0  0
 24 28  1  0  0  0  0
 24 29  1  0  0  0  0
 25 30  2  0  0  0  0
 26 27  1  0  0  0  0
 30 31  1  0  0  0  0
M  END
> <PUBCHEM_COMPOUND_ID_TYPE>
0

> <PUBCHEM_TOTAL_CHARGE>
0

> <PUBCHEM_SUBSTANCE_ID>
310949112

> <PUBCHEM_SUBSTANCE_VERSION>
1

> <PUBCHEM_EXT_DATASOURCE_NAME>
4488

> <PUBCHEM_EXT_DATASOURCE_REGID>
SCHEMBL16127302

> <PUBCHEM_SUBSTANCE_COMMENT>
InChI=1S/C22H22F3N3O3/c1-12-6-19(17(9-26-12)20(29)30)27-21(31)28-10-14-7-13(8-15(14)11-28)16-4-2-3-5-18(16)22(23,24)25/h2-6,9,13-15H,7-8,10-11H2,1H3,(H,29,30)(H,26,27,31)/t13-,14-,15+
InChIKey=KGAYRJHUIIQQLX-QKDCVEJESA-N

> <PUBCHEM_SUBSTANCE_SYNONYM>
SCHEMBL16127302

> <PUBCHEM_XREF_EXT_ID>
SCHEMBL16127302

> <PUBCHEM_EXT_DATASOURCE_URL>
https://www.surechembl.org/

> <PUBCHEM_EXT_SUBSTANCE_URL>
https://www.surechembl.org/chemical/SCHEMBL16127302

> <PUBCHEM_CID_ASSOCIATIONS>
117614609  1

> <PUBCHEM_COORDINATE_TYPE>
1
3

> <PUBCHEM_BONDANNOTATIONS>
10  14  5
11  15  5
12  14  5

$$$$
