310945718
  -OEChem-07211613022D

 14 15  0     0  0  0  0  0  0999 V2000
    2.0500    0.2445    0.0000 O   0  0  0  0  0  0  0  0  0  0  0  0
    0.6395   -0.0188    0.0000 N   0  0  0  0  0  0  0  0  0  0  0  0
   -0.4514   -1.8808    0.0000 N   0  0  0  0  0  0  0  0  0  0  0  0
   -1.2601   -1.6927    0.0000 N   0  0  0  0  0  0  0  0  0  0  0  0
   -0.6207   -0.5643    0.0000 C   0  0  0  0  0  0  0  0  0  0  0  0
   -0.0376   -1.1661    0.0000 C   0  0  0  0  0  0  0  0  0  0  0  0
   -0.1881    0.1505    0.0000 C   0  0  0  0  0  0  0  0  0  0  0  0
   -1.3542   -0.8839    0.0000 C   0  0  0  0  0  0  0  0  0  0  0  0
    0.7147   -0.8275    0.0000 C   0  0  0  0  0  0  0  0  0  0  0  0
    1.2225    0.5454    0.0000 C   0  0  0  0  0  0  0  0  0  0  0  0
    1.0908    1.3354    0.0000 C   0  0  0  0  0  0  0  0  0  0  0  0
   -2.0500   -0.4514    0.0000 C   0  0  0  0  0  0  0  0  0  0  0  0
    0.3010    1.5234    0.0000 C   0  0  0  0  0  0  0  0  0  0  0  0
    1.7115    1.8808    0.0000 C   0  0  0  0  0  0  0  0  0  0  0  0
  1 10  2  0  0  0  0
  2  7  1  0  0  0  0
  2  9  1  0  0  0  0
  2 10  1  0  0  0  0
  3  4  1  0  0  0  0
  3  6  1  0  0  0  0
  4  8  2  0  0  0  0
  5  6  2  0  0  0  0
  5  7  1  0  0  0  0
  5  8  1  0  0  0  0
  6  9  1  0  0  0  0
  8 12  1  0  0  0  0
 10 11  1  0  0  0  0
 11 13  1  0  0  0  0
 11 14  1  0  0  0  0
M  END
> <PUBCHEM_COMPOUND_ID_TYPE>
0

> <PUBCHEM_TOTAL_CHARGE>
0

> <PUBCHEM_SUBSTANCE_ID>
310945718

> <PUBCHEM_SUBSTANCE_VERSION>
1

> <PUBCHEM_EXT_DATASOURCE_NAME>
4488

> <PUBCHEM_EXT_DATASOURCE_REGID>
SCHEMBL16123822

> <PUBCHEM_SUBSTANCE_COMMENT>
InChI=1S/C10H15N3O/c1-6(2)10(14)13-4-8-7(3)11-12-9(8)5-13/h6H,4-5H2,1-3H3,(H,11,12)
InChIKey=JDSPUAXZJHNZGD-UHFFFAOYSA-N

> <PUBCHEM_SUBSTANCE_SYNONYM>
SCHEMBL16123822

> <PUBCHEM_XREF_EXT_ID>
SCHEMBL16123822

> <PUBCHEM_EXT_DATASOURCE_URL>
https://www.surechembl.org/

> <PUBCHEM_EXT_SUBSTANCE_URL>
https://www.surechembl.org/chemical/SCHEMBL16123822

> <PUBCHEM_CID_ASSOCIATIONS>
117611715  1

> <PUBCHEM_COORDINATE_TYPE>
1
3

$$$$
