310943750
  -OEChem-07211613022D

 37 41  0     0  0  0  0  0  0999 V2000
    4.3311    2.3163    0.0000 F   0  0  0  0  0  0  0  0  0  0  0  0
    5.4099    1.9990    0.0000 F   0  0  0  0  0  0  0  0  0  0  0  0
    5.0768    0.9202    0.0000 F   0  0  0  0  0  0  0  0  0  0  0  0
   -2.5226   -2.8716    0.0000 O   0  0  0  0  0  0  0  0  0  0  0  0
   -5.4099    2.4591    0.0000 O   0  0  0  0  0  0  0  0  0  0  0  0
    1.8086    2.4591    0.0000 O   0  0  0  0  0  0  0  0  0  0  0  0
   -2.5226   -0.8567    0.0000 N   0  0  0  0  0  0  0  0  0  0  0  0
   -3.2523    0.3807    0.0000 N   0  0  0  0  0  0  0  0  0  0  0  0
   -3.9663    1.6341    0.0000 N   0  0  0  0  0  0  0  0  0  0  0  0
   -0.3649    2.8716    0.0000 N   0  0  0  0  0  0  0  0  0  0  0  0
    1.0788    1.2216    0.0000 N   0  0  0  0  0  0  0  0  0  0  0  0
   -1.7927    1.2216    0.0000 C   0  0  0  0  0  0  0  0  0  0  0  0
   -2.5226   -0.0317    0.0000 C   0  0  0  0  0  0  0  0  0  0  0  0
   -1.0946    1.6341    0.0000 C   0  0  0  0  0  0  0  0  0  0  0  0
   -3.2365    1.2216    0.0000 C   0  0  0  0  0  0  0  0  0  0  0  0
   -1.8086    0.3807    0.0000 C   0  0  0  0  0  0  0  0  0  0  0  0
   -2.5226    1.6341    0.0000 C   0  0  0  0  0  0  0  0  0  0  0  0
   -1.0788    2.4749    0.0000 C   0  0  0  0  0  0  0  0  0  0  0  0
   -0.3649    1.2216    0.0000 C   0  0  0  0  0  0  0  0  0  0  0  0
   -3.0937   -1.4437    0.0000 C   0  0  0  0  0  0  0  0  0  0  0  0
   -1.9355   -1.4437    0.0000 C   0  0  0  0  0  0  0  0  0  0  0  0
    0.3490    1.6341    0.0000 C   0  0  0  0  0  0  0  0  0  0  0  0
   -2.5226   -2.0148    0.0000 C   0  0  0  0  0  0  0  0  0  0  0  0
    0.3649    2.4591    0.0000 C   0  0  0  0  0  0  0  0  0  0  0  0
    2.5384    1.2216    0.0000 C   0  0  0  0  0  0  0  0  0  0  0  0
    1.7927    1.6182    0.0000 C   0  0  0  0  0  0  0  0  0  0  0  0
    3.9821    1.2216    0.0000 C   0  0  0  0  0  0  0  0  0  0  0  0
   -3.9663    2.4591    0.0000 C   0  0  0  0  0  0  0  0  0  0  0  0
   -4.6802    1.2216    0.0000 C   0  0  0  0  0  0  0  0  0  0  0  0
    4.6960    1.6182    0.0000 C   0  0  0  0  0  0  0  0  0  0  0  0
    3.2523    1.6182    0.0000 C   0  0  0  0  0  0  0  0  0  0  0  0
   -1.8086    2.8557    0.0000 C   0  0  0  0  0  0  0  0  0  0  0  0
    2.5384    0.3966    0.0000 C   0  0  0  0  0  0  0  0  0  0  0  0
    3.9663    0.3966    0.0000 C   0  0  0  0  0  0  0  0  0  0  0  0
    3.2682   -0.0159    0.0000 C   0  0  0  0  0  0  0  0  0  0  0  0
   -4.6960    2.8716    0.0000 C   0  0  0  0  0  0  0  0  0  0  0  0
   -5.4099    1.6341    0.0000 C   0  0  0  0  0  0  0  0  0  0  0  0
  1 30  1  0  0  0  0
  2 30  1  0  0  0  0
  3 30  1  0  0  0  0
  4 23  1  0  0  0  0
  5 36  1  0  0  0  0
  5 37  1  0  0  0  0
  6 26  2  0  0  0  0
  7 13  1  0  0  0  0
  7 20  1  0  0  0  0
  7 21  1  0  0  0  0
  8 13  1  0  0  0  0
  8 15  2  0  0  0  0
  9 15  1  0  0  0  0
  9 28  1  0  0  0  0
  9 29  1  0  0  0  0
 10 18  2  0  0  0  0
 10 24  1  0  0  0  0
 11 22  1  0  0  0  0
 11 26  1  0  0  0  0
 12 14  1  0  0  0  0
 12 16  1  0  0  0  0
 12 17  2  0  0  0  0
 13 16  2  0  0  0  0
 14 18  1  0  0  0  0
 14 19  2  0  0  0  0
 15 17  1  0  0  0  0
 18 32  1  0  0  0  0
 19 22  1  0  0  0  0
 20 23  1  0  0  0  0
 21 23  1  0  0  0  0
 22 24  2  0  0  0  0
 25 26  1  0  0  0  0
 25 31  1  0  0  0  0
 25 33  2  0  0  0  0
 27 30  1  0  0  0  0
 27 31  2  0  0  0  0
 27 34  1  0  0  0  0
 28 36  1  0  0  0  0
 29 37  1  0  0  0  0
 33 35  1  0  0  0  0
 34 35  2  0  0  0  0
M  END
> <PUBCHEM_COMPOUND_ID_TYPE>
0

> <PUBCHEM_TOTAL_CHARGE>
0

> <PUBCHEM_SUBSTANCE_ID>
310943750

> <PUBCHEM_SUBSTANCE_VERSION>
1

> <PUBCHEM_EXT_DATASOURCE_NAME>
4488

> <PUBCHEM_EXT_DATASOURCE_REGID>
SCHEMBL16121819

> <PUBCHEM_SUBSTANCE_COMMENT>
InChI=1S/C26H26F3N5O3/c1-16-22(12-20(13-30-16)31-25(36)17-3-2-4-19(9-17)26(27,28)29)18-10-23(33-5-7-37-8-6-33)32-24(11-18)34-14-21(35)15-34/h2-4,9-13,21,35H,5-8,14-15H2,1H3,(H,31,36)
InChIKey=UXRCCXULWCOSCI-UHFFFAOYSA-N

> <PUBCHEM_SUBSTANCE_SYNONYM>
SCHEMBL16121819

> <PUBCHEM_XREF_EXT_ID>
SCHEMBL16121819

> <PUBCHEM_EXT_DATASOURCE_URL>
https://www.surechembl.org/

> <PUBCHEM_EXT_SUBSTANCE_URL>
https://www.surechembl.org/chemical/SCHEMBL16121819

> <PUBCHEM_CID_ASSOCIATIONS>
117610112  1

> <PUBCHEM_COORDINATE_TYPE>
1
3

$$$$
