310944421
  -OEChem-07211613022D

 18 19  0     1  0  0  0  0  0999 V2000
   -1.8055    0.0357    0.0000 O   0  0  0  0  0  0  0  0  0  0  0  0
   -1.0776    1.3059    0.0000 O   0  0  0  0  0  0  0  0  0  0  0  0
    3.2899   -1.3345    0.0000 O   0  0  0  0  0  0  0  0  0  0  0  0
   -0.3212    0.0357    0.0000 N   0  0  0  0  0  0  0  0  0  0  0  0
   -0.3069   -0.8064    0.0000 C   0  0  3  0  0  0  0  0  0  0  0  0
    0.4496    0.3925    0.0000 C   0  0  3  0  0  0  0  0  0  0  0  0
   -1.0918    0.4639    0.0000 C   0  0  0  0  0  0  0  0  0  0  0  0
    1.0918   -0.8493    0.0000 C   0  0  0  0  0  0  0  0  0  0  0  0
    0.3639   -1.2346    0.0000 C   0  0  0  0  0  0  0  0  0  0  0  0
    1.1347   -0.0214    0.0000 C   0  0  0  0  0  0  0  0  0  0  0  0
    0.4068   -0.8349    0.0000 C   0  0  0  0  0  0  0  0  0  0  0  0
    0.7779   -0.2355    0.0000 C   0  0  0  0  0  0  0  0  0  0  0  0
   -2.5334    0.4924    0.0000 C   0  0  0  0  0  0  0  0  0  0  0  0
    1.8340   -1.3059    0.0000 C   0  0  0  0  0  0  0  0  0  0  0  0
   -2.5477    1.3345    0.0000 C   0  0  0  0  0  0  0  0  0  0  0  0
   -3.2899    0.0357    0.0000 C   0  0  0  0  0  0  0  0  0  0  0  0
   -1.7912    0.9206    0.0000 C   0  0  0  0  0  0  0  0  0  0  0  0
    2.5477   -0.8920    0.0000 C   0  0  0  0  0  0  0  0  0  0  0  0
  1  7  1  0  0  0  0
  1 13  1  0  0  0  0
  2  7  2  0  0  0  0
  3 18  1  0  0  0  0
  4  5  1  0  0  0  0
  6  4  1  6  0  0  0
  4  7  1  0  0  0  0
  5  9  1  6  0  0  0
  5 11  1  0  0  0  0
  6 10  1  0  0  0  0
  6 12  1  0  0  0  0
  8  9  1  0  0  0  0
  8 10  1  0  0  0  0
  8 14  1  1  0  0  0
 11 12  1  0  0  0  0
 13 15  1  0  0  0  0
 13 16  1  0  0  0  0
 13 17  1  0  0  0  0
 14 18  1  0  0  0  0
M  END
> <PUBCHEM_COMPOUND_ID_TYPE>
0

> <PUBCHEM_TOTAL_CHARGE>
0

> <PUBCHEM_SUBSTANCE_ID>
310944421

> <PUBCHEM_SUBSTANCE_VERSION>
1

> <PUBCHEM_EXT_DATASOURCE_NAME>
4488

> <PUBCHEM_EXT_DATASOURCE_REGID>
SCHEMBL16122496

> <PUBCHEM_SUBSTANCE_COMMENT>
InChI=1S/C14H25NO3/c1-14(2,3)18-13(17)15-11-4-5-12(15)9-10(8-11)6-7-16/h10-12,16H,4-9H2,1-3H3/t10-,11+,12-
InChIKey=CBWQOIMZVQPPSY-ZSBIGDGJSA-N

> <PUBCHEM_SUBSTANCE_SYNONYM>
SCHEMBL16122496

> <PUBCHEM_XREF_EXT_ID>
SCHEMBL16122496

> <PUBCHEM_EXT_DATASOURCE_URL>
https://www.surechembl.org/

> <PUBCHEM_EXT_SUBSTANCE_URL>
https://www.surechembl.org/chemical/SCHEMBL16122496

> <PUBCHEM_CID_ASSOCIATIONS>
117610676  1

> <PUBCHEM_COORDINATE_TYPE>
1
3

> <PUBCHEM_BONDANNOTATIONS>
6  4  6
5  9  6
8  14  5

$$$$
