310930823
  -OEChem-07211613022D

 32 35  0     0  0  0  0  0  0999 V2000
   -6.4303    0.8250    0.0000 S   0  0  0  0  0  0  0  0  0  0  0  0
   -7.8593    0.0000    0.0000 F   0  0  0  0  0  0  0  0  0  0  0  0
   -6.0178    1.5395    0.0000 O   0  0  0  0  0  0  0  0  0  0  0  0
   -6.8428    0.1106    0.0000 O   0  0  0  0  0  0  0  0  0  0  0  0
   -9.2883    0.8250    0.0000 O   0  0  0  0  0  0  0  0  0  0  0  0
   -2.1434   -1.6500    0.0000 O   0  0  0  0  0  0  0  0  0  0  0  0
    0.0000   -0.4125    0.0000 N   0  0  0  0  0  0  0  0  0  0  0  0
    0.7846    0.6674    0.0000 N   0  0  0  0  0  0  0  0  0  0  0  0
   -2.8579   -0.4125    0.0000 N   0  0  0  0  0  0  0  0  0  0  0  0
   -7.1448    1.2375    0.0000 C   0  0  0  0  0  0  0  0  0  0  0  0
   -5.7159    0.4125    0.0000 C   0  0  0  0  0  0  0  0  0  0  0  0
   -7.8593    0.8250    0.0000 C   0  0  0  0  0  0  0  0  0  0  0  0
   -8.5738    1.2375    0.0000 C   0  0  0  0  0  0  0  0  0  0  0  0
   -7.1448    2.0625    0.0000 C   0  0  0  0  0  0  0  0  0  0  0  0
   -5.0013    0.8250    0.0000 C   0  0  0  0  0  0  0  0  0  0  0  0
   -5.7159   -0.4125    0.0000 C   0  0  0  0  0  0  0  0  0  0  0  0
   -8.5738    2.0625    0.0000 C   0  0  0  0  0  0  0  0  0  0  0  0
   -4.2869   -0.4125    0.0000 C   0  0  0  0  0  0  0  0  0  0  0  0
   -7.8593    2.4750    0.0000 C   0  0  0  0  0  0  0  0  0  0  0  0
    0.0000    0.4125    0.0000 C   0  0  0  0  0  0  0  0  0  0  0  0
   -4.2869    0.4125    0.0000 C   0  0  0  0  0  0  0  0  0  0  0  0
   -5.0013   -0.8250    0.0000 C   0  0  0  0  0  0  0  0  0  0  0  0
   -1.4290   -0.4125    0.0000 C   0  0  0  0  0  0  0  0  0  0  0  0
   -0.7145   -0.8250    0.0000 C   0  0  0  0  0  0  0  0  0  0  0  0
   -2.1434   -0.8250    0.0000 C   0  0  0  0  0  0  0  0  0  0  0  0
   -0.7145    0.8250    0.0000 C   0  0  0  0  0  0  0  0  0  0  0  0
   -1.4290    0.4125    0.0000 C   0  0  0  0  0  0  0  0  0  0  0  0
   -3.5724   -0.8250    0.0000 C   0  0  0  0  0  0  0  0  0  0  0  0
    0.7846   -0.6674    0.0000 C   0  0  0  0  0  0  0  0  0  0  0  0
    1.2696    0.0000    0.0000 C   0  0  0  0  0  0  0  0  0  0  0  0
  -10.0027    1.2375    0.0000 C   0  0  0  0  0  0  0  0  0  0  0  0
  -10.7172    0.8250    0.0000 C   0  0  0  0  0  0  0  0  0  0  0  0
  1  3  2  0  0  0  0
  1  4  2  0  0  0  0
  1 10  1  0  0  0  0
  1 11  1  0  0  0  0
  2 12  1  0  0  0  0
  5 13  1  0  0  0  0
  5 31  1  0  0  0  0
  6 25  2  0  0  0  0
  7 20  1  0  0  0  0
  7 24  1  0  0  0  0
  7 29  1  0  0  0  0
  8 20  2  0  0  0  0
  8 30  1  0  0  0  0
  9 25  1  0  0  0  0
  9 28  1  0  0  0  0
 10 12  1  0  0  0  0
 10 14  2  0  0  0  0
 11 15  2  0  0  0  0
 11 16  1  0  0  0  0
 12 13  2  0  0  0  0
 13 17  1  0  0  0  0
 14 19  1  0  0  0  0
 15 21  1  0  0  0  0
 16 22  2  0  0  0  0
 17 19  2  0  0  0  0
 18 21  2  0  0  0  0
 18 22  1  0  0  0  0
 18 28  1  0  0  0  0
 20 26  1  0  0  0  0
 23 24  2  0  0  0  0
 23 25  1  0  0  0  0
 23 27  1  0  0  0  0
 26 27  2  0  0  0  0
 29 30  2  0  0  0  0
 31 32  1  0  0  0  0
M  END
> <PUBCHEM_COMPOUND_ID_TYPE>
0

> <PUBCHEM_TOTAL_CHARGE>
0

> <PUBCHEM_SUBSTANCE_ID>
310930823

> <PUBCHEM_SUBSTANCE_VERSION>
1

> <PUBCHEM_EXT_DATASOURCE_NAME>
4488

> <PUBCHEM_EXT_DATASOURCE_REGID>
SCHEMBL16108120

> <PUBCHEM_SUBSTANCE_COMMENT>
InChI=1S/C23H20FN3O4S/c1-2-31-19-4-3-5-20(22(19)24)32(29,30)18-9-6-16(7-10-18)14-26-23(28)17-8-11-21-25-12-13-27(21)15-17/h3-13,15H,2,14H2,1H3,(H,26,28)
InChIKey=LSMYZPRQLHDSFU-UHFFFAOYSA-N

> <PUBCHEM_SUBSTANCE_SYNONYM>
SCHEMBL16108120

> <PUBCHEM_XREF_EXT_ID>
SCHEMBL16108120

> <PUBCHEM_EXT_DATASOURCE_URL>
https://www.surechembl.org/

> <PUBCHEM_EXT_SUBSTANCE_URL>
https://www.surechembl.org/chemical/SCHEMBL16108120

> <PUBCHEM_CID_ASSOCIATIONS>
117599823  1

> <PUBCHEM_COORDINATE_TYPE>
1
3

$$$$
