310949538
  -OEChem-07211613022D

 41 45  0     1  0  0  0  0  0999 V2000
   -1.4820   -0.6787    0.0000 O   0  0  0  0  0  0  0  0  0  0  0  0
    4.5083    0.2180    0.0000 O   0  0  0  0  0  0  0  0  0  0  0  0
    5.8409    0.6289    0.0000 O   0  0  0  0  0  0  0  0  0  0  0  0
    1.4820    0.3051    0.0000 N   0  0  0  0  0  0  0  0  0  0  0  0
    1.9677    0.9776    0.0000 N   0  0  0  0  0  0  0  0  0  0  0  0
   -2.1919    0.5667    0.0000 N   0  0  0  0  0  0  0  0  0  0  0  0
    0.6725    0.5791    0.0000 C   0  0  0  0  0  0  0  0  0  0  0  0
    0.6849    1.4011    0.0000 C   0  0  0  0  0  0  0  0  0  0  0  0
    1.4696    1.6626    0.0000 C   0  0  0  0  0  0  0  0  0  0  0  0
   -0.0249    0.1557    0.0000 C   0  0  0  0  0  0  0  0  0  0  0  0
   -0.7473    0.5667    0.0000 C   0  0  0  0  0  0  0  0  0  0  0  0
   -0.0374    1.7996    0.0000 C   0  0  0  0  0  0  0  0  0  0  0  0
    1.6937   -0.4919    0.0000 C   0  0  0  0  0  0  0  0  0  0  0  0
   -0.7348    1.4011    0.0000 C   0  0  0  0  0  0  0  0  0  0  0  0
   -1.4696    0.1681    0.0000 C   0  0  0  0  0  0  0  0  0  0  0  0
    2.4908   -0.7037    0.0000 C   0  0  0  0  0  0  0  0  0  0  0  0
    4.0973   -1.1270    0.0000 C   0  0  0  0  0  0  0  0  0  0  0  0
    4.9069   -1.3388    0.0000 C   0  0  0  0  0  0  0  0  0  0  0  0
    1.8805    2.3600    0.0000 C   0  0  0  0  0  0  0  0  0  0  0  0
    2.7149   -1.5007    0.0000 C   0  0  0  0  0  0  0  0  0  0  0  0
    3.0761   -0.1308    0.0000 C   0  0  0  0  0  0  0  0  0  0  0  0
    5.4797   -0.7535    0.0000 C   0  0  0  0  0  0  0  0  0  0  0  0
   -2.9017    0.1557    0.0000 C   0  0  3  0  0  0  0  0  0  0  0  0
    3.5120   -1.7249    0.0000 C   0  0  0  0  0  0  0  0  0  0  0  0
    3.8856   -0.3425    0.0000 C   0  0  0  0  0  0  0  0  0  0  0  0
   -3.6366    0.5791    0.0000 C   0  0  0  0  0  0  0  0  0  0  0  0
   -5.0687    0.5667    0.0000 C   0  0  0  0  0  0  0  0  0  0  0  0
   -4.3464    0.1557    0.0000 C   0  0  0  0  0  0  0  0  0  0  0  0
    5.1311   -2.1483    0.0000 C   0  0  0  0  0  0  0  0  0  0  0  0
   -5.7786    0.1557    0.0000 C   0  0  0  0  0  0  0  0  0  0  0  0
    5.2681    0.0312    0.0000 C   0  0  0  0  0  0  0  0  0  0  0  0
    6.2893   -0.9901    0.0000 C   0  0  0  0  0  0  0  0  0  0  0  0
   -3.6241    1.3886    0.0000 C   0  0  0  0  0  0  0  0  0  0  0  0
   -5.0563    1.3886    0.0000 C   0  0  0  0  0  0  0  0  0  0  0  0
    5.9281   -2.3600    0.0000 C   0  0  0  0  0  0  0  0  0  0  0  0
   -4.3589    1.7996    0.0000 C   0  0  0  0  0  0  0  0  0  0  0  0
    6.5009   -1.7871    0.0000 C   0  0  0  0  0  0  0  0  0  0  0  0
   -2.9017   -0.6787    0.0000 C   0  0  0  0  0  0  0  0  0  0  0  0
   -5.0563   -0.2553    0.0000 C   0  0  0  0  0  0  0  0  0  0  0  0
   -5.7662   -0.6787    0.0000 C   0  0  0  0  0  0  0  0  0  0  0  0
   -6.5009    0.5542    0.0000 C   0  0  0  0  0  0  0  0  0  0  0  0
  1 15  2  0  0  0  0
  2 31  2  0  0  0  0
  3 31  1  0  0  0  0
  4  5  1  0  0  0  0
  4  7  1  0  0  0  0
  4 13  1  0  0  0  0
  5  9  2  0  0  0  0
  6 15  1  0  0  0  0
  6 23  1  0  0  0  0
  7  8  1  0  0  0  0
  7 10  2  0  0  0  0
  8  9  1  0  0  0  0
  8 12  2  0  0  0  0
  9 19  1  0  0  0  0
 10 11  1  0  0  0  0
 11 14  2  0  0  0  0
 11 15  1  0  0  0  0
 12 14  1  0  0  0  0
 13 16  1  0  0  0  0
 16 20  2  0  0  0  0
 16 21  1  0  0  0  0
 17 18  1  0  0  0  0
 17 24  2  0  0  0  0
 17 25  1  0  0  0  0
 18 22  1  0  0  0  0
 18 29  2  0  0  0  0
 20 24  1  0  0  0  0
 21 25  2  0  0  0  0
 22 31  1  0  0  0  0
 22 32  2  0  0  0  0
 23 26  1  0  0  0  0
 23 38  1  1  0  0  0
 26 28  2  0  0  0  0
 26 33  1  0  0  0  0
 27 28  1  0  0  0  0
 27 30  1  0  0  0  0
 27 34  2  0  0  0  0
 29 35  1  0  0  0  0
 30 39  1  0  0  0  0
 30 40  1  0  0  0  0
 30 41  1  0  0  0  0
 32 37  1  0  0  0  0
 33 36  2  0  0  0  0
 34 36  1  0  0  0  0
 35 37  2  0  0  0  0
M  END
> <PUBCHEM_COMPOUND_ID_TYPE>
0

> <PUBCHEM_TOTAL_CHARGE>
0

> <PUBCHEM_SUBSTANCE_ID>
310949538

> <PUBCHEM_SUBSTANCE_VERSION>
1

> <PUBCHEM_EXT_DATASOURCE_NAME>
4488

> <PUBCHEM_EXT_DATASOURCE_REGID>
SCHEMBL16127733

> <PUBCHEM_SUBSTANCE_COMMENT>
InChI=1S/C35H35N3O3/c1-22(26-9-8-10-28(19-26)35(3,4)5)36-33(39)27-17-18-29-23(2)37-38(32(29)20-27)21-24-13-15-25(16-14-24)30-11-6-7-12-31(30)34(40)41/h6-20,22H,21H2,1-5H3,(H,36,39)(H,40,41)/t22-/m0/s1
InChIKey=JPNPZTSTACFQRW-QFIPXVFZSA-N

> <PUBCHEM_SUBSTANCE_SYNONYM>
SCHEMBL16127733

> <PUBCHEM_XREF_EXT_ID>
SCHEMBL16127733

> <PUBCHEM_EXT_DATASOURCE_URL>
https://www.surechembl.org/

> <PUBCHEM_EXT_SUBSTANCE_URL>
https://www.surechembl.org/chemical/SCHEMBL16127733

> <PUBCHEM_CID_ASSOCIATIONS>
71577899  1

> <PUBCHEM_COORDINATE_TYPE>
1
3

> <PUBCHEM_BONDANNOTATIONS>
23  38  5

$$$$
