310939735
  -OEChem-07211613022D

 11 10  0     0  0  0  0  0  0999 V2000
   -2.9004  -11.3728    0.0000 O   0  0  0  0  0  0  0  0  0  0  0  0
   -3.6148  -10.1353    0.0000 C   0  0  0  0  0  0  0  0  0  0  0  0
   -2.9004  -10.5478    0.0000 C   0  0  0  0  0  0  0  0  0  0  0  0
   -2.1859  -10.1353    0.0000 C   0  0  0  0  0  0  0  0  0  0  0  0
   -3.2023   -9.4208    0.0000 C   0  0  0  0  0  0  0  0  0  0  0  0
   -4.0273  -10.8497    0.0000 C   0  0  0  0  0  0  0  0  0  0  0  0
   -4.3293   -9.7228    0.0000 C   0  0  0  0  0  0  0  0  0  0  0  0
   -2.1859   -9.3103    0.0000 C   0  0  0  0  0  0  0  0  0  0  0  0
   -1.4714   -8.8978    0.0000 C   0  0  0  0  0  0  0  0  0  0  0  0
   -0.7569   -9.3103    0.0000 C   0  0  0  0  0  0  0  0  0  0  0  0
   -0.7569  -10.1353    0.0000 C   0  0  0  0  0  0  0  0  0  0  0  0
  1  3  2  0  0  0  0
  2  3  1  0  0  0  0
  2  5  1  0  0  0  0
  2  6  1  0  0  0  0
  2  7  1  0  0  0  0
  3  4  1  0  0  0  0
  4  8  2  0  0  0  0
  8  9  1  0  0  0  0
  9 10  1  0  0  0  0
 10 11  1  0  0  0  0
M  END
> <PUBCHEM_COMPOUND_ID_TYPE>
0

> <PUBCHEM_TOTAL_CHARGE>
0

> <PUBCHEM_SUBSTANCE_ID>
310939735

> <PUBCHEM_SUBSTANCE_VERSION>
1

> <PUBCHEM_EXT_DATASOURCE_NAME>
4488

> <PUBCHEM_EXT_DATASOURCE_REGID>
SCHEMBL16117665

> <PUBCHEM_SUBSTANCE_COMMENT>
InChI=1S/C10H18O/c1-5-6-7-8-9(11)10(2,3)4/h7-8H,5-6H2,1-4H3/b8-7+
InChIKey=QVBHSBSOKHBDIZ-BQYQJAHWSA-N

> <PUBCHEM_SUBSTANCE_SYNONYM>
SCHEMBL16117665

> <PUBCHEM_XREF_EXT_ID>
SCHEMBL16117665

> <PUBCHEM_EXT_DATASOURCE_URL>
https://www.surechembl.org/

> <PUBCHEM_EXT_SUBSTANCE_URL>
https://www.surechembl.org/chemical/SCHEMBL16117665

> <PUBCHEM_CID_ASSOCIATIONS>
15040210  1

> <PUBCHEM_COORDINATE_TYPE>
1
3

> <PUBCHEM_BONDANNOTATIONS>
2  5  3
2  6  3

$$$$
