310948244
  -OEChem-07211613022D

 32 36  0     1  0  0  0  0  0999 V2000
   -2.5847    2.0225    0.0000 O   0  0  0  0  0  0  0  0  0  0  0  0
   -0.7062   -3.2154    0.0000 O   0  0  0  0  0  0  0  0  0  0  0  0
    0.1714    1.8854    0.0000 N   0  0  0  0  0  0  0  0  0  0  0  0
   -0.1714    1.1312    0.0000 N   0  0  0  0  0  0  0  0  0  0  0  0
   -1.5426    0.6102    0.0000 N   0  0  0  0  0  0  0  0  0  0  0  0
    0.4319   -2.2968    0.0000 N   0  0  0  0  0  0  0  0  0  0  0  0
   -1.8716    3.2566    0.0000 N   0  0  0  0  0  0  0  0  0  0  0  0
    0.9667   -0.1714    0.0000 N   0  0  0  0  0  0  0  0  0  0  0  0
   -1.1450    2.0225    0.0000 C   0  0  0  0  0  0  0  0  0  0  0  0
   -0.4594    2.4339    0.0000 C   0  0  0  0  0  0  0  0  0  0  0  0
   -0.9941    1.2272    0.0000 C   0  0  0  0  0  0  0  0  0  0  0  0
    0.9667    2.0499    0.0000 C   0  0  3  0  0  0  0  0  0  0  0  0
   -1.8716    2.4475    0.0000 C   0  0  0  0  0  0  0  0  0  0  0  0
   -0.7885   -1.7483    0.0000 C   0  0  0  0  0  0  0  0  0  0  0  0
   -0.2400   -1.1312    0.0000 C   0  0  0  0  0  0  0  0  0  0  0  0
   -1.2957   -0.1714    0.0000 C   0  0  0  0  0  0  0  0  0  0  0  0
   -0.4456    3.2428    0.0000 C   0  0  0  0  0  0  0  0  0  0  0  0
   -0.3771   -2.4339    0.0000 C   0  0  0  0  0  0  0  0  0  0  0  0
    1.5151    1.4466    0.0000 C   0  0  3  0  0  0  0  0  0  0  0  0
   -0.4868   -0.3497    0.0000 C   0  0  0  0  0  0  0  0  0  0  0  0
    0.5142   -1.4740    0.0000 C   0  0  0  0  0  0  0  0  0  0  0  0
   -1.5837   -1.5700    0.0000 C   0  0  0  0  0  0  0  0  0  0  0  0
   -1.8306   -0.7747    0.0000 C   0  0  0  0  0  0  0  0  0  0  0  0
   -1.1860    3.6679    0.0000 C   0  0  0  0  0  0  0  0  0  0  0  0
    1.2272    2.8315    0.0000 C   0  0  0  0  0  0  0  0  0  0  0  0
    1.0489   -2.8315    0.0000 C   0  0  0  0  0  0  0  0  0  0  0  0
    2.3242    1.6112    0.0000 C   0  0  0  0  0  0  0  0  0  0  0  0
    1.2547    0.6788    0.0000 C   0  0  0  0  0  0  0  0  0  0  0  0
    2.0362    2.9960    0.0000 C   0  0  0  0  0  0  0  0  0  0  0  0
    2.5847    2.3790    0.0000 C   0  0  0  0  0  0  0  0  0  0  0  0
    1.8442   -2.6121    0.0000 C   0  0  0  0  0  0  0  0  0  0  0  0
    0.8844   -3.6679    0.0000 C   0  0  0  0  0  0  0  0  0  0  0  0
  1 13  2  0  0  0  0
  2 18  2  0  0  0  0
  3  4  1  0  0  0  0
  3 10  1  0  0  0  0
 12  3  1  1  0  0  0
  4 11  2  0  0  0  0
  5 11  1  0  0  0  0
  5 16  1  0  0  0  0
  6 18  1  0  0  0  0
  6 21  1  0  0  0  0
  6 26  1  0  0  0  0
  7 13  1  0  0  0  0
  7 24  1  0  0  0  0
  8 28  3  0  0  0  0
  9 10  2  0  0  0  0
  9 11  1  0  0  0  0
  9 13  1  0  0  0  0
 10 17  1  0  0  0  0
 12 19  1  0  0  0  0
 12 25  1  0  0  0  0
 14 15  1  0  0  0  0
 14 18  1  0  0  0  0
 14 22  2  0  0  0  0
 15 20  2  0  0  0  0
 15 21  1  0  0  0  0
 16 20  1  0  0  0  0
 16 23  2  0  0  0  0
 17 24  2  0  0  0  0
 19 27  1  0  0  0  0
 19 28  1  6  0  0  0
 22 23  1  0  0  0  0
 25 29  1  0  0  0  0
 26 31  1  0  0  0  0
 26 32  1  0  0  0  0
 27 30  1  0  0  0  0
 29 30  1  0  0  0  0
M  END
> <PUBCHEM_COMPOUND_ID_TYPE>
0

> <PUBCHEM_TOTAL_CHARGE>
0

> <PUBCHEM_SUBSTANCE_ID>
310948244

> <PUBCHEM_SUBSTANCE_VERSION>
1

> <PUBCHEM_EXT_DATASOURCE_NAME>
4488

> <PUBCHEM_EXT_DATASOURCE_REGID>
SCHEMBL16126421

> <PUBCHEM_SUBSTANCE_COMMENT>
InChI=1S/C24H26N6O2/c1-14(2)29-13-16-11-17(7-8-18(16)24(29)32)27-22-21-20(9-10-26-23(21)31)30(28-22)19-6-4-3-5-15(19)12-25/h7-11,14-15,19H,3-6,13H2,1-2H3,(H,26,31)(H,27,28)/t15-,19+/m1/s1
InChIKey=AINQFKKDZHLZCA-BEFAXECRSA-N

> <PUBCHEM_SUBSTANCE_SYNONYM>
SCHEMBL16126421

> <PUBCHEM_XREF_EXT_ID>
SCHEMBL16126421

> <PUBCHEM_EXT_DATASOURCE_URL>
https://www.surechembl.org/

> <PUBCHEM_EXT_SUBSTANCE_URL>
https://www.surechembl.org/chemical/SCHEMBL16126421

> <PUBCHEM_CID_ASSOCIATIONS>
117613824  1

> <PUBCHEM_COORDINATE_TYPE>
1
3

> <PUBCHEM_BONDANNOTATIONS>
19  28  6
12  3  5

$$$$
