310929565
  -OEChem-07211613022D

 24 26  0     1  0  0  0  0  0999 V2000
    4.5043   -0.6741    0.0000 Cl  0  0  0  0  0  0  0  0  0  0  0  0
    1.3482   -0.8886    0.0000 F   0  0  0  0  0  0  0  0  0  0  0  0
    2.8497   -6.1284    0.0000 F   0  0  0  0  0  0  0  0  0  0  0  0
    2.6658   -2.9722    0.0000 O   0  0  0  0  0  0  0  0  0  0  0  0
    2.0837   -2.1449    0.0000 N   0  0  0  0  0  0  0  0  0  0  0  0
    1.2563   -2.9722    0.0000 N   0  0  0  0  0  0  0  0  0  0  0  0
    1.9610   -4.1979    0.0000 N   0  0  0  0  0  0  0  0  0  0  0  0
    3.2787   -1.4095    0.0000 N   0  0  0  0  0  0  0  0  0  0  0  0
    3.2481    0.0000    0.0000 N   0  0  0  0  0  0  0  0  0  0  0  0
    1.2563   -2.1449    0.0000 C   0  0  0  0  0  0  0  0  0  0  0  0
    2.4513   -1.4402    0.0000 C   0  0  0  0  0  0  0  0  0  0  0  0
    1.9610   -3.3706    0.0000 C   0  0  0  0  0  0  0  0  0  0  0  0
    0.4290   -2.1449    0.0000 C   0  0  0  0  0  0  0  0  0  0  0  0
    1.6240   -1.4402    0.0000 C   0  0  0  0  0  0  0  0  0  0  0  0
    2.0224   -0.7354    0.0000 C   0  0  0  0  0  0  0  0  0  0  0  0
    3.7077   -0.7048    0.0000 C   0  0  0  0  0  0  0  0  0  0  0  0
    2.6352   -4.6882    0.0000 C   0  0  0  0  0  0  0  0  0  0  0  0
    1.2869   -4.6882    0.0000 C   0  0  0  0  0  0  0  0  0  0  0  0
    0.0000   -1.4402    0.0000 C   0  0  0  0  0  0  0  0  0  0  0  0
    1.2257   -0.7354    0.0000 C   0  0  0  0  0  0  0  0  0  0  0  0
    2.4513   -0.0307    0.0000 C   0  0  0  0  0  0  0  0  0  0  0  0
    2.3594   -5.4542    0.0000 C   0  0  3  0  0  0  0  0  0  0  0  0
    1.5321   -5.4542    0.0000 C   0  0  0  0  0  0  0  0  0  0  0  0
    0.3984   -0.7354    0.0000 C   0  0  0  0  0  0  0  0  0  0  0  0
  1 16  1  0  0  0  0
  2 15  1  0  0  0  0
 22  3  1  6  0  0  0
  4 12  2  0  0  0  0
  5 10  1  0  0  0  0
  5 11  1  0  0  0  0
  6 10  1  0  0  0  0
  6 12  1  0  0  0  0
  7 12  1  0  0  0  0
  7 17  1  0  0  0  0
  7 18  1  0  0  0  0
  8 11  2  0  0  0  0
  8 16  1  0  0  0  0
  9 16  2  0  0  0  0
  9 21  1  0  0  0  0
 10 13  1  0  0  0  0
 10 14  1  0  0  0  0
 11 15  1  0  0  0  0
 13 19  1  0  0  0  0
 14 20  1  0  0  0  0
 15 21  2  0  0  0  0
 17 22  1  0  0  0  0
 18 23  1  0  0  0  0
 19 24  1  0  0  0  0
 20 24  1  0  0  0  0
 22 23  1  0  0  0  0
M  END
> <PUBCHEM_COMPOUND_ID_TYPE>
0

> <PUBCHEM_TOTAL_CHARGE>
0

> <PUBCHEM_SUBSTANCE_ID>
310929565

> <PUBCHEM_SUBSTANCE_VERSION>
1

> <PUBCHEM_EXT_DATASOURCE_NAME>
4488

> <PUBCHEM_EXT_DATASOURCE_REGID>
SCHEMBL16106748

> <PUBCHEM_SUBSTANCE_COMMENT>
InChI=1S/C15H20ClF2N5O/c16-13-19-8-11(18)12(20-13)21-15(5-2-1-3-6-15)22-14(24)23-7-4-10(17)9-23/h8,10H,1-7,9H2,(H,22,24)(H,19,20,21)/t10-/m1/s1
InChIKey=IUMKVCDLSSIVAO-SNVBAGLBSA-N

> <PUBCHEM_SUBSTANCE_SYNONYM>
SCHEMBL16106748

> <PUBCHEM_XREF_EXT_ID>
SCHEMBL16106748

> <PUBCHEM_EXT_DATASOURCE_URL>
https://www.surechembl.org/

> <PUBCHEM_EXT_SUBSTANCE_URL>
https://www.surechembl.org/chemical/SCHEMBL16106748

> <PUBCHEM_CID_ASSOCIATIONS>
117598878  1

> <PUBCHEM_COORDINATE_TYPE>
1
3

> <PUBCHEM_BONDANNOTATIONS>
22  3  6

$$$$
