310941819
  -OEChem-07211613022D

 27 30  0     0  0  0  0  0  0999 V2000
   -4.4167   -1.3167    0.0000 Cl  0  0  0  0  0  0  0  0  0  0  0  0
   -3.6666    1.4667    0.0000 Cl  0  0  0  0  0  0  0  0  0  0  0  0
    3.8167   -1.0833    0.0000 S   0  0  0  0  0  0  0  0  0  0  0  0
   -1.3500   -0.5667    0.0000 O   0  0  0  0  0  0  0  0  0  0  0  0
    4.4000   -0.5000    0.0000 O   0  0  0  0  0  0  0  0  0  0  0  0
    3.4000   -1.8000    0.0000 O   0  0  0  0  0  0  0  0  0  0  0  0
    1.6500   -0.6167    0.0000 N   0  0  0  0  0  0  0  0  0  0  0  0
    1.4334   -1.9666    0.0000 N   0  0  0  0  0  0  0  0  0  0  0  0
    2.2667   -1.8334    0.0000 N   0  0  0  0  0  0  0  0  0  0  0  0
    3.1167   -0.6334    0.0000 N   0  0  0  0  0  0  0  0  0  0  0  0
    0.6167    0.4167    0.0000 C   0  0  0  0  0  0  0  0  0  0  0  0
    1.0334   -1.2333    0.0000 C   0  0  0  0  0  0  0  0  0  0  0  0
    2.3833   -1.0000    0.0000 C   0  0  0  0  0  0  0  0  0  0  0  0
    0.0333   -0.1834    0.0000 C   0  0  0  0  0  0  0  0  0  0  0  0
    1.4167    0.1667    0.0000 C   0  0  0  0  0  0  0  0  0  0  0  0
    0.4000    1.2333    0.0000 C   0  0  0  0  0  0  0  0  0  0  0  0
    0.2500   -1.0000    0.0000 C   0  0  0  0  0  0  0  0  0  0  0  0
   -0.1500    1.7833    0.0000 C   0  0  0  0  0  0  0  0  0  0  0  0
    0.6167    1.9666    0.0000 C   0  0  0  0  0  0  0  0  0  0  0  0
   -0.7667    0.0167    0.0000 C   0  0  0  0  0  0  0  0  0  0  0  0
   -2.1667   -0.3333    0.0000 C   0  0  0  0  0  0  0  0  0  0  0  0
   -2.3666    0.4500    0.0000 C   0  0  0  0  0  0  0  0  0  0  0  0
   -2.7500   -0.9167    0.0000 C   0  0  0  0  0  0  0  0  0  0  0  0
   -3.5500   -0.7000    0.0000 C   0  0  0  0  0  0  0  0  0  0  0  0
   -3.1667    0.6666    0.0000 C   0  0  0  0  0  0  0  0  0  0  0  0
    4.4167   -1.6833    0.0000 C   0  0  0  0  0  0  0  0  0  0  0  0
   -3.7333    0.1000    0.0000 C   0  0  0  0  0  0  0  0  0  0  0  0
  1 24  1  0  0  0  0
  2 25  1  0  0  0  0
  3  5  2  0  0  0  0
  3  6  2  0  0  0  0
  3 10  1  0  0  0  0
  3 26  1  0  0  0  0
  4 20  1  0  0  0  0
  4 21  1  0  0  0  0
  7 12  1  0  0  0  0
  7 13  1  0  0  0  0
  7 15  1  0  0  0  0
  8  9  1  0  0  0  0
  8 12  2  0  0  0  0
  9 13  2  0  0  0  0
 10 13  1  0  0  0  0
 11 14  1  0  0  0  0
 11 15  2  0  0  0  0
 11 16  1  0  0  0  0
 12 17  1  0  0  0  0
 14 17  2  0  0  0  0
 14 20  1  0  0  0  0
 16 18  1  0  0  0  0
 16 19  1  0  0  0  0
 18 19  1  0  0  0  0
 21 22  2  0  0  0  0
 21 23  1  0  0  0  0
 22 25  1  0  0  0  0
 23 24  2  0  0  0  0
 24 27  1  0  0  0  0
 25 27  2  0  0  0  0
M  END
> <PUBCHEM_COMPOUND_ID_TYPE>
0

> <PUBCHEM_TOTAL_CHARGE>
0

> <PUBCHEM_SUBSTANCE_ID>
310941819

> <PUBCHEM_SUBSTANCE_VERSION>
1

> <PUBCHEM_EXT_DATASOURCE_NAME>
4488

> <PUBCHEM_EXT_DATASOURCE_REGID>
SCHEMBL16119851

> <PUBCHEM_SUBSTANCE_COMMENT>
InChI=1S/C17H16Cl2N4O3S/c1-27(24,25)22-17-21-20-16-4-11(15(8-23(16)17)10-2-3-10)9-26-14-6-12(18)5-13(19)7-14/h4-8,10H,2-3,9H2,1H3,(H,21,22)
InChIKey=DPIPLAYFRAXNRK-UHFFFAOYSA-N

> <PUBCHEM_SUBSTANCE_SYNONYM>
SCHEMBL16119851

> <PUBCHEM_XREF_EXT_ID>
SCHEMBL16119851

> <PUBCHEM_EXT_DATASOURCE_URL>
https://www.surechembl.org/

> <PUBCHEM_EXT_SUBSTANCE_URL>
https://www.surechembl.org/chemical/SCHEMBL16119851

> <PUBCHEM_CID_ASSOCIATIONS>
117608566  1

> <PUBCHEM_COORDINATE_TYPE>
1
3

$$$$
