310943322
  -OEChem-07211613022D

 45 48  0     0  0  0  0  0  0999 V2000
    4.7643    3.1143    0.0000 F   0  0  0  0  0  0  0  0  0  0  0  0
    5.4449    2.6193    0.0000 F   0  0  0  0  0  0  0  0  0  0  0  0
    5.3418    1.7737    0.0000 F   0  0  0  0  0  0  0  0  0  0  0  0
   -4.0012    0.5156    0.0000 O   0  0  0  0  0  0  0  0  0  0  0  0
    1.8975    3.1762    0.0000 O   0  0  0  0  0  0  0  0  0  0  0  0
    4.0218   -2.2687    0.0000 O   0  0  0  0  0  0  0  0  0  0  0  0
   -5.4449    3.1143    0.0000 O   0  0  0  0  0  0  0  0  0  0  0  0
    4.7231   -1.0106    0.0000 O   0  0  0  0  0  0  0  0  0  0  0  0
   -2.5781    0.5156    0.0000 N   0  0  0  0  0  0  0  0  0  0  0  0
   -4.0218    2.2687    0.0000 N   0  0  0  0  0  0  0  0  0  0  0  0
    1.0725    1.8562    0.0000 N   0  0  0  0  0  0  0  0  0  0  0  0
    3.3000   -0.9900    0.0000 N   0  0  0  0  0  0  0  0  0  0  0  0
    3.3000    0.6807    0.0000 C   0  0  0  0  0  0  0  0  0  0  0  0
    3.3000   -0.1650    0.0000 C   0  0  0  0  0  0  0  0  0  0  0  0
    4.0218    1.9387    0.0000 C   0  0  0  0  0  0  0  0  0  0  0  0
    2.5987    1.9387    0.0000 C   0  0  0  0  0  0  0  0  0  0  0  0
   -1.8768    1.7943    0.0000 C   0  0  0  0  0  0  0  0  0  0  0  0
   -1.0518    2.2687    0.0000 C   0  0  0  0  0  0  0  0  0  0  0  0
   -3.3000    1.7943    0.0000 C   0  0  0  0  0  0  0  0  0  0  0  0
    4.0012    1.0932    0.0000 C   0  0  0  0  0  0  0  0  0  0  0  0
    2.6193    1.0932    0.0000 C   0  0  0  0  0  0  0  0  0  0  0  0
    3.3206    2.3306    0.0000 C   0  0  0  0  0  0  0  0  0  0  0  0
    4.6818    2.3100    0.0000 C   0  0  0  0  0  0  0  0  0  0  0  0
    1.8768    2.3306    0.0000 C   0  0  0  0  0  0  0  0  0  0  0  0
   -3.3000    0.9693    0.0000 C   0  0  0  0  0  0  0  0  0  0  0  0
   -2.5987    2.1862    0.0000 C   0  0  0  0  0  0  0  0  0  0  0  0
    0.3713    2.2687    0.0000 C   0  0  0  0  0  0  0  0  0  0  0  0
   -1.0312    3.1143    0.0000 C   0  0  0  0  0  0  0  0  0  0  0  0
   -1.8768    0.9281    0.0000 C   0  0  0  0  0  0  0  0  0  0  0  0
   -0.3506    1.8562    0.0000 C   0  0  0  0  0  0  0  0  0  0  0  0
    0.3713    3.0937    0.0000 C   0  0  0  0  0  0  0  0  0  0  0  0
   -0.3713    3.5062    0.0000 C   0  0  0  0  0  0  0  0  0  0  0  0
    2.5987   -0.5981    0.0000 C   0  0  0  0  0  0  0  0  0  0  0  0
    4.0424   -0.5775    0.0000 C   0  0  0  0  0  0  0  0  0  0  0  0
    4.0012   -1.4231    0.0000 C   0  0  0  0  0  0  0  0  0  0  0  0
   -4.0218    3.1143    0.0000 C   0  0  0  0  0  0  0  0  0  0  0  0
   -4.7231    1.8562    0.0000 C   0  0  0  0  0  0  0  0  0  0  0  0
   -2.5575   -0.3300    0.0000 C   0  0  0  0  0  0  0  0  0  0  0  0
   -1.7737    3.5062    0.0000 C   0  0  0  0  0  0  0  0  0  0  0  0
   -4.7231    3.5268    0.0000 C   0  0  0  0  0  0  0  0  0  0  0  0
   -5.4449    2.2687    0.0000 C   0  0  0  0  0  0  0  0  0  0  0  0
    4.7231   -2.6812    0.0000 C   0  0  0  0  0  0  0  0  0  0  0  0
    5.4449   -2.2687    0.0000 C   0  0  0  0  0  0  0  0  0  0  0  0
    5.4243   -3.1143    0.0000 C   0  0  0  0  0  0  0  0  0  0  0  0
    4.7437   -3.5268    0.0000 C   0  0  0  0  0  0  0  0  0  0  0  0
  1 23  1  0  0  0  0
  2 23  1  0  0  0  0
  3 23  1  0  0  0  0
  4 25  2  0  0  0  0
  5 24  2  0  0  0  0
  6 35  1  0  0  0  0
  6 42  1  0  0  0  0
  7 40  1  0  0  0  0
  7 41  1  0  0  0  0
  8 35  2  0  0  0  0
  9 25  1  0  0  0  0
  9 29  1  0  0  0  0
  9 38  1  0  0  0  0
 10 19  1  0  0  0  0
 10 36  1  0  0  0  0
 10 37  1  0  0  0  0
 11 24  1  0  0  0  0
 11 27  1  0  0  0  0
 12 14  1  0  0  0  0
 12 35  1  0  0  0  0
 13 14  1  0  0  0  0
 13 20  2  0  0  0  0
 13 21  1  0  0  0  0
 14 33  1  0  0  0  0
 14 34  1  0  0  0  0
 15 20  1  0  0  0  0
 15 22  2  0  0  0  0
 15 23  1  0  0  0  0
 16 21  2  0  0  0  0
 16 22  1  0  0  0  0
 16 24  1  0  0  0  0
 17 18  1  0  0  0  0
 17 26  1  0  0  0  0
 17 29  2  0  0  0  0
 18 28  1  0  0  0  0
 18 30  2  0  0  0  0
 19 25  1  0  0  0  0
 19 26  2  0  0  0  0
 27 30  1  0  0  0  0
 27 31  2  0  0  0  0
 28 32  2  0  0  0  0
 28 39  1  0  0  0  0
 31 32  1  0  0  0  0
 36 40  1  0  0  0  0
 37 41  1  0  0  0  0
 42 43  1  0  0  0  0
 42 44  1  0  0  0  0
 42 45  1  0  0  0  0
M  END
> <PUBCHEM_COMPOUND_ID_TYPE>
0

> <PUBCHEM_TOTAL_CHARGE>
0

> <PUBCHEM_SUBSTANCE_ID>
310943322

> <PUBCHEM_SUBSTANCE_VERSION>
1

> <PUBCHEM_EXT_DATASOURCE_NAME>
4488

> <PUBCHEM_EXT_DATASOURCE_REGID>
SCHEMBL16121384

> <PUBCHEM_SUBSTANCE_COMMENT>
InChI=1S/C33H39F3N4O5/c1-20-8-9-25(18-26(20)22-16-27(29(42)39(7)19-22)40-10-12-44-13-11-40)37-28(41)21-14-23(17-24(15-21)33(34,35)36)32(5,6)38-30(43)45-31(2,3)4/h8-9,14-19H,10-13H2,1-7H3,(H,37,41)(H,38,43)
InChIKey=ZAFNLJQGGCKNBD-UHFFFAOYSA-N

> <PUBCHEM_SUBSTANCE_SYNONYM>
SCHEMBL16121384

> <PUBCHEM_XREF_EXT_ID>
SCHEMBL16121384

> <PUBCHEM_EXT_DATASOURCE_URL>
https://www.surechembl.org/

> <PUBCHEM_EXT_SUBSTANCE_URL>
https://www.surechembl.org/chemical/SCHEMBL16121384

> <PUBCHEM_CID_ASSOCIATIONS>
117609747  1

> <PUBCHEM_COORDINATE_TYPE>
1
3

$$$$
