310939759
  -OEChem-07211613022D

 12 12  0     0  0  0  0  0  0999 V2000
    0.4231   15.7138    0.0000 Cl  0  0  0  0  0  0  0  0  0  0  0  0
    3.2810   15.7138    0.0000 O   0  0  0  0  0  0  0  0  0  0  0  0
    1.8521   14.0638    0.0000 C   0  0  0  0  0  0  0  0  0  0  0  0
    1.8521   13.2388    0.0000 C   0  0  0  0  0  0  0  0  0  0  0  0
    1.1376   14.4763    0.0000 C   0  0  0  0  0  0  0  0  0  0  0  0
    2.5665   14.4763    0.0000 C   0  0  0  0  0  0  0  0  0  0  0  0
    1.1376   15.3013    0.0000 C   0  0  0  0  0  0  0  0  0  0  0  0
    2.5665   15.3013    0.0000 C   0  0  0  0  0  0  0  0  0  0  0  0
    1.8521   15.7138    0.0000 C   0  0  0  0  0  0  0  0  0  0  0  0
    2.6771   13.2388    0.0000 C   0  0  0  0  0  0  0  0  0  0  0  0
    1.0271   13.2388    0.0000 C   0  0  0  0  0  0  0  0  0  0  0  0
    1.8521   12.4138    0.0000 C   0  0  0  0  0  0  0  0  0  0  0  0
  1  7  1  0  0  0  0
  2  8  1  0  0  0  0
  3  4  1  0  0  0  0
  3  5  1  0  0  0  0
  3  6  2  0  0  0  0
  4 10  1  0  0  0  0
  4 11  1  0  0  0  0
  4 12  1  0  0  0  0
  5  7  2  0  0  0  0
  6  8  1  0  0  0  0
  7  9  1  0  0  0  0
  8  9  2  0  0  0  0
M  END
> <PUBCHEM_COMPOUND_ID_TYPE>
0

> <PUBCHEM_TOTAL_CHARGE>
0

> <PUBCHEM_SUBSTANCE_ID>
310939759

> <PUBCHEM_SUBSTANCE_VERSION>
1

> <PUBCHEM_EXT_DATASOURCE_NAME>
4488

> <PUBCHEM_EXT_DATASOURCE_REGID>
SCHEMBL16117689

> <PUBCHEM_SUBSTANCE_COMMENT>
InChI=1S/C10H13ClO/c1-10(2,3)7-4-8(11)6-9(12)5-7/h4-6,12H,1-3H3
InChIKey=UHYOKIYPBCFHLU-UHFFFAOYSA-N

> <PUBCHEM_SUBSTANCE_SYNONYM>
SCHEMBL16117689

> <PUBCHEM_XREF_EXT_ID>
SCHEMBL16117689

> <PUBCHEM_EXT_DATASOURCE_URL>
https://www.surechembl.org/

> <PUBCHEM_EXT_SUBSTANCE_URL>
https://www.surechembl.org/chemical/SCHEMBL16117689

> <PUBCHEM_CID_ASSOCIATIONS>
18331555  1

> <PUBCHEM_COORDINATE_TYPE>
1
3

> <PUBCHEM_BONDANNOTATIONS>
4  10  3
4  11  3

$$$$
