310947041
  -OEChem-07211613022D

 32 35  0     0  0  0  0  0  0999 V2000
   -0.7346   -3.2242    0.0000 O   0  0  0  0  0  0  0  0  0  0  0  0
    2.4651    1.9998    0.0000 O   0  0  0  0  0  0  0  0  0  0  0  0
    1.0937    2.4569    0.0000 O   0  0  0  0  0  0  0  0  0  0  0  0
    0.7836   -0.8734    0.0000 N   0  0  0  0  0  0  0  0  0  0  0  0
    1.4039    1.0530    0.0000 N   0  0  0  0  0  0  0  0  0  0  0  0
    1.2734   -1.5427    0.0000 N   0  0  0  0  0  0  0  0  0  0  0  0
    1.0285   -3.0119    0.0000 N   0  0  0  0  0  0  0  0  0  0  0  0
   -1.4530   -1.9671    0.0000 N   0  0  0  0  0  0  0  0  0  0  0  0
    3.1997    0.3346    0.0000 N   0  0  0  0  0  0  0  0  0  0  0  0
    1.0611   -0.0734    0.0000 C   0  0  0  0  0  0  0  0  0  0  0  0
    0.0000   -1.1182    0.0000 C   0  0  0  0  0  0  0  0  0  0  0  0
   -0.0163   -1.9508    0.0000 C   0  0  0  0  0  0  0  0  0  0  0  0
    0.7836   -2.2283    0.0000 C   0  0  0  0  0  0  0  0  0  0  0  0
    0.6857    0.6612    0.0000 C   0  0  0  0  0  0  0  0  0  0  0  0
    1.7631    0.3184    0.0000 C   0  0  0  0  0  0  0  0  0  0  0  0
   -0.7346   -2.3753    0.0000 C   0  0  0  0  0  0  0  0  0  0  0  0
    1.7794   -0.4816    0.0000 C   0  0  0  0  0  0  0  0  0  0  0  0
   -0.7509   -0.7101    0.0000 C   0  0  0  0  0  0  0  0  0  0  0  0
    1.6651    1.8366    0.0000 C   0  0  0  0  0  0  0  0  0  0  0  0
   -1.4366   -1.1182    0.0000 C   0  0  0  0  0  0  0  0  0  0  0  0
    1.9100   -3.0119    0.0000 C   0  0  0  0  0  0  0  0  0  0  0  0
    2.4814   -0.0898    0.0000 C   0  0  0  0  0  0  0  0  0  0  0  0
    2.5630   -2.6201    0.0000 C   0  0  0  0  0  0  0  0  0  0  0  0
    2.5794   -3.4038    0.0000 C   0  0  0  0  0  0  0  0  0  0  0  0
    2.7263    2.8324    0.0000 C   0  0  0  0  0  0  0  0  0  0  0  0
   -1.4203   -3.6160    0.0000 C   0  0  0  0  0  0  0  0  0  0  0  0
    2.9385    3.6160    0.0000 C   0  0  0  0  0  0  0  0  0  0  0  0
    2.1549    3.4201    0.0000 C   0  0  0  0  0  0  0  0  0  0  0  0
    3.5588    2.9956    0.0000 C   0  0  0  0  0  0  0  0  0  0  0  0
   -2.1059   -3.2079    0.0000 C   0  0  0  0  0  0  0  0  0  0  0  0
   -2.8405   -3.5997    0.0000 C   0  0  0  0  0  0  0  0  0  0  0  0
   -3.5588   -3.1915    0.0000 C   0  0  0  0  0  0  0  0  0  0  0  0
  1 16  1  0  0  0  0
  1 26  1  0  0  0  0
  2 19  1  0  0  0  0
  2 25  1  0  0  0  0
  3 19  2  0  0  0  0
  4  6  1  0  0  0  0
  4 10  1  0  0  0  0
  4 11  1  0  0  0  0
  5 14  1  0  0  0  0
  5 15  1  0  0  0  0
  5 19  1  0  0  0  0
  6 13  2  0  0  0  0
  7 13  1  0  0  0  0
  7 21  1  0  0  0  0
  8 16  2  0  0  0  0
  8 20  1  0  0  0  0
  9 22  3  0  0  0  0
 10 14  1  0  0  0  0
 10 15  1  0  0  0  0
 10 17  1  0  0  0  0
 11 12  2  0  0  0  0
 11 18  1  0  0  0  0
 12 13  1  0  0  0  0
 12 16  1  0  0  0  0
 17 22  1  0  0  0  0
 18 20  2  0  0  0  0
 21 23  1  0  0  0  0
 21 24  1  0  0  0  0
 23 24  1  0  0  0  0
 25 27  1  0  0  0  0
 25 28  1  0  0  0  0
 25 29  1  0  0  0  0
 26 30  1  0  0  0  0
 30 31  1  0  0  0  0
 31 32  1  0  0  0  0
M  END
> <PUBCHEM_COMPOUND_ID_TYPE>
0

> <PUBCHEM_TOTAL_CHARGE>
0

> <PUBCHEM_SUBSTANCE_ID>
310947041

> <PUBCHEM_SUBSTANCE_VERSION>
1

> <PUBCHEM_EXT_DATASOURCE_NAME>
4488

> <PUBCHEM_EXT_DATASOURCE_REGID>
SCHEMBL16125194

> <PUBCHEM_SUBSTANCE_COMMENT>
InChI=1S/C23H32N6O3/c1-5-6-13-31-20-18-17(9-12-25-20)29(27-19(18)26-16-7-8-16)23(10-11-24)14-28(15-23)21(30)32-22(2,3)4/h9,12,16H,5-8,10,13-15H2,1-4H3,(H,26,27)
InChIKey=FFBBFEUFTQQCRT-UHFFFAOYSA-N

> <PUBCHEM_SUBSTANCE_SYNONYM>
SCHEMBL16125194

> <PUBCHEM_XREF_EXT_ID>
SCHEMBL16125194

> <PUBCHEM_EXT_DATASOURCE_URL>
https://www.surechembl.org/

> <PUBCHEM_EXT_SUBSTANCE_URL>
https://www.surechembl.org/chemical/SCHEMBL16125194

> <PUBCHEM_CID_ASSOCIATIONS>
117612892  1

> <PUBCHEM_COORDINATE_TYPE>
1
3

$$$$
