310941222
  -OEChem-07211613022D

 34 36  0     1  0  0  0  0  0999 V2000
   -3.4673   -1.8747    0.0000 F   0  0  0  0  0  0  0  0  0  0  0  0
   -4.8775   -0.9622    0.0000 F   0  0  0  0  0  0  0  0  0  0  0  0
   -4.6950   -2.0904    0.0000 F   0  0  0  0  0  0  0  0  0  0  0  0
    4.8443    0.1825    0.0000 O   0  0  0  0  0  0  0  0  0  0  0  0
    3.4175   -1.4765    0.0000 O   0  0  0  0  0  0  0  0  0  0  0  0
    1.1944    0.6138    0.0000 O   0  0  0  0  0  0  0  0  0  0  0  0
   -0.9290   -1.4599    0.0000 O   0  0  0  0  0  0  0  0  0  0  0  0
   -4.0147    0.0000    0.0000 O   0  0  0  0  0  0  0  0  0  0  0  0
    1.9245   -0.6304    0.0000 N   0  0  0  0  0  0  0  0  0  0  0  0
   -0.1991   -0.2157    0.0000 N   0  0  0  0  0  0  0  0  0  0  0  0
   -2.3392   -0.6304    0.0000 N   0  0  0  0  0  0  0  0  0  0  0  0
    4.1474   -0.2157    0.0000 C   0  0  3  0  0  0  0  0  0  0  0  0
    3.4341   -0.6304    0.0000 C   0  0  0  0  0  0  0  0  0  0  0  0
    4.1474    0.5806    0.0000 C   0  0  0  0  0  0  0  0  0  0  0  0
    2.7042   -0.2322    0.0000 C   0  0  3  0  0  0  0  0  0  0  0  0
    4.8775   -0.6470    0.0000 C   0  0  0  0  0  0  0  0  0  0  0  0
    1.1944   -0.2322    0.0000 C   0  0  0  0  0  0  0  0  0  0  0  0
    2.7208    0.5972    0.0000 C   0  0  0  0  0  0  0  0  0  0  0  0
    0.5143   -0.6138    0.0000 C   0  0  3  0  0  0  0  0  0  0  0  0
    3.3014    1.1944    0.0000 C   0  0  0  0  0  0  0  0  0  0  0  0
    0.4811   -1.4599    0.0000 C   0  0  0  0  0  0  0  0  0  0  0  0
    1.2276   -1.8747    0.0000 C   0  0  0  0  0  0  0  0  0  0  0  0
   -0.9124   -0.5972    0.0000 C   0  0  0  0  0  0  0  0  0  0  0  0
   -1.6258   -0.2157    0.0000 C   0  0  3  0  0  0  0  0  0  0  0  0
   -3.6995   -0.6802    0.0000 C   0  0  0  0  0  0  0  0  0  0  0  0
    2.0074   -1.8747    0.0000 C   0  0  0  0  0  0  0  0  0  0  0  0
    1.6258   -2.5549    0.0000 C   0  0  0  0  0  0  0  0  0  0  0  0
   -4.2138   -1.3935    0.0000 C   0  0  0  0  0  0  0  0  0  0  0  0
    4.0977    0.9788    0.0000 C   0  0  0  0  0  0  0  0  0  0  0  0
    3.1023    1.9908    0.0000 C   0  0  0  0  0  0  0  0  0  0  0  0
    4.6618    1.5429    0.0000 C   0  0  0  0  0  0  0  0  0  0  0  0
    3.6663    2.5549    0.0000 C   0  0  0  0  0  0  0  0  0  0  0  0
   -1.6258    0.6138    0.0000 C   0  0  0  0  0  0  0  0  0  0  0  0
    4.4627    2.3558    0.0000 C   0  0  0  0  0  0  0  0  0  0  0  0
  1 28  1  0  0  0  0
  2 28  1  0  0  0  0
  3 28  1  0  0  0  0
  4 12  1  0  0  0  0
  4 14  1  0  0  0  0
  5 13  2  0  0  0  0
  6 17  2  0  0  0  0
  7 23  2  0  0  0  0
  8 25  2  0  0  0  0
 15  9  1  1  0  0  0
  9 17  1  0  0  0  0
 19 10  1  6  0  0  0
 10 23  1  0  0  0  0
 11 24  1  0  0  0  0
 11 25  1  0  0  0  0
 12 13  1  1  0  0  0
 12 14  1  0  0  0  0
 12 16  1  6  0  0  0
 13 15  1  0  0  0  0
 15 18  1  0  0  0  0
 17 19  1  0  0  0  0
 18 20  1  0  0  0  0
 19 21  1  0  0  0  0
 20 29  2  0  0  0  0
 20 30  1  0  0  0  0
 21 22  1  0  0  0  0
 22 26  1  0  0  0  0
 22 27  1  0  0  0  0
 23 24  1  0  0  0  0
 24 33  1  1  0  0  0
 25 28  1  0  0  0  0
 26 27  1  0  0  0  0
 29 31  1  0  0  0  0
 30 32  2  0  0  0  0
 31 34  2  0  0  0  0
 32 34  1  0  0  0  0
M  END
> <PUBCHEM_COMPOUND_ID_TYPE>
0

> <PUBCHEM_TOTAL_CHARGE>
0

> <PUBCHEM_SUBSTANCE_ID>
310941222

> <PUBCHEM_SUBSTANCE_VERSION>
1

> <PUBCHEM_EXT_DATASOURCE_NAME>
4488

> <PUBCHEM_EXT_DATASOURCE_REGID>
SCHEMBL16119182

> <PUBCHEM_SUBSTANCE_COMMENT>
InChI=1S/C23H28F3N3O5/c1-13(27-21(33)23(24,25)26)19(31)29-17(11-15-8-9-15)20(32)28-16(18(30)22(2)12-34-22)10-14-6-4-3-5-7-14/h3-7,13,15-17H,8-12H2,1-2H3,(H,27,33)(H,28,32)(H,29,31)/t13-,16-,17-,22+/m0/s1
InChIKey=YEGDHQOEJCIXEE-ROWOMKEUSA-N

> <PUBCHEM_SUBSTANCE_SYNONYM>
SCHEMBL16119182

> <PUBCHEM_XREF_EXT_ID>
SCHEMBL16119182

> <PUBCHEM_EXT_DATASOURCE_URL>
https://www.surechembl.org/

> <PUBCHEM_EXT_SUBSTANCE_URL>
https://www.surechembl.org/chemical/SCHEMBL16119182

> <PUBCHEM_CID_ASSOCIATIONS>
117608093  1

> <PUBCHEM_COORDINATE_TYPE>
1
3

> <PUBCHEM_BONDANNOTATIONS>
19  10  6
12  13  5
12  16  6
24  33  5
15  9  5

$$$$
