310944471
  -OEChem-07211613022D

 32 36  0     1  0  0  0  0  0999 V2000
    2.4199    0.4274    0.0000 O   0  0  0  0  0  0  0  0  0  0  0  0
    5.0396   -1.1156    0.0000 O   0  0  0  0  0  0  0  0  0  0  0  0
    5.5169    0.2830    0.0000 O   0  0  0  0  0  0  0  0  0  0  0  0
   -1.3098   -0.7382    0.0000 O   0  0  0  0  0  0  0  0  0  0  0  0
    2.8861   -0.9935    0.0000 N   0  0  0  0  0  0  0  0  0  0  0  0
    0.1332    0.0943    0.0000 N   0  0  0  0  0  0  0  0  0  0  0  0
   -2.7529    0.0833    0.0000 N   0  0  0  0  0  0  0  0  0  0  0  0
   -4.2070    0.0943    0.0000 N   0  0  0  0  0  0  0  0  0  0  0  0
   -2.7529    1.7594    0.0000 N   0  0  0  0  0  0  0  0  0  0  0  0
   -4.9618    0.4274    0.0000 N   0  0  0  0  0  0  0  0  0  0  0  0
   -5.5169   -0.1832    0.0000 N   0  0  0  0  0  0  0  0  0  0  0  0
   -5.1062   -0.9158    0.0000 N   0  0  0  0  0  0  0  0  0  0  0  0
    1.5540   -0.7270    0.0000 C   0  0  0  0  0  0  0  0  0  0  0  0
    2.2645   -0.4052    0.0000 C   0  0  0  0  0  0  0  0  0  0  0  0
    3.7186   -0.8825    0.0000 C   0  0  0  0  0  0  0  0  0  0  0  0
    1.6318   -1.5485    0.0000 C   0  0  0  0  0  0  0  0  0  0  0  0
    2.4310   -1.7594    0.0000 C   0  0  0  0  0  0  0  0  0  0  0  0
    0.8548   -1.1378    0.0000 C   0  0  0  0  0  0  0  0  0  0  0  0
    1.5540    0.0943    0.0000 C   0  0  0  0  0  0  0  0  0  0  0  0
    4.1182   -0.1609    0.0000 C   0  0  0  0  0  0  0  0  0  0  0  0
    4.2847   -1.4597    0.0000 C   0  0  0  0  0  0  0  0  0  0  0  0
    4.9175   -0.3163    0.0000 C   0  0  0  0  0  0  0  0  0  0  0  0
    0.1332   -0.7270    0.0000 C   0  0  0  0  0  0  0  0  0  0  0  0
    0.8325    0.4940    0.0000 C   0  0  0  0  0  0  0  0  0  0  0  0
   -0.5994    0.5050    0.0000 C   0  0  0  0  0  0  0  0  0  0  0  0
   -1.2987    0.1054    0.0000 C   0  0  3  0  0  0  0  0  0  0  0  0
   -2.0425    0.5273    0.0000 C   0  0  0  0  0  0  0  0  0  0  0  0
   -3.4966    0.5162    0.0000 C   0  0  0  0  0  0  0  0  0  0  0  0
    3.7631    0.6050    0.0000 C   0  0  0  0  0  0  0  0  0  0  0  0
   -2.0314    1.3487    0.0000 C   0  0  0  0  0  0  0  0  0  0  0  0
   -3.4744    1.3598    0.0000 C   0  0  0  0  0  0  0  0  0  0  0  0
   -4.2959   -0.7270    0.0000 C   0  0  0  0  0  0  0  0  0  0  0  0
  1 14  2  0  0  0  0
  2 21  1  0  0  0  0
  2 22  1  0  0  0  0
  3 22  2  0  0  0  0
 26  4  1  6  0  0  0
  5 14  1  0  0  0  0
  5 15  1  0  0  0  0
  5 17  1  0  0  0  0
  6 23  1  0  0  0  0
  6 24  1  0  0  0  0
  6 25  1  0  0  0  0
  7 27  2  0  0  0  0
  7 28  1  0  0  0  0
  8 10  1  0  0  0  0
  8 28  1  0  0  0  0
  8 32  1  0  0  0  0
  9 30  2  0  0  0  0
  9 31  1  0  0  0  0
 10 11  2  0  0  0  0
 11 12  1  0  0  0  0
 12 32  2  0  0  0  0
 13 14  1  0  0  0  0
 13 16  1  0  0  0  0
 13 18  1  0  0  0  0
 13 19  1  0  0  0  0
 15 20  2  0  0  0  0
 15 21  1  0  0  0  0
 16 17  1  0  0  0  0
 18 23  1  0  0  0  0
 19 24  1  0  0  0  0
 20 22  1  0  0  0  0
 20 29  1  0  0  0  0
 25 26  1  0  0  0  0
 26 27  1  0  0  0  0
 27 30  1  0  0  0  0
 28 31  2  0  0  0  0
M  END
> <PUBCHEM_COMPOUND_ID_TYPE>
0

> <PUBCHEM_TOTAL_CHARGE>
0

> <PUBCHEM_SUBSTANCE_ID>
310944471

> <PUBCHEM_SUBSTANCE_VERSION>
1

> <PUBCHEM_EXT_DATASOURCE_NAME>
4488

> <PUBCHEM_EXT_DATASOURCE_REGID>
SCHEMBL16122546

> <PUBCHEM_SUBSTANCE_COMMENT>
InChI=1S/C20H24N8O4/c1-13-15(11-32-18(13)30)27-7-4-20(19(27)31)2-5-26(6-3-20)10-16(29)14-8-21-9-17(23-14)28-12-22-24-25-28/h8-9,12,16,29H,2-7,10-11H2,1H3/t16-/m0/s1
InChIKey=DDECENKMNLIEAS-INIZCTEOSA-N

> <PUBCHEM_SUBSTANCE_SYNONYM>
SCHEMBL16122546

> <PUBCHEM_XREF_EXT_ID>
SCHEMBL16122546

> <PUBCHEM_EXT_DATASOURCE_URL>
https://www.surechembl.org/

> <PUBCHEM_EXT_SUBSTANCE_URL>
https://www.surechembl.org/chemical/SCHEMBL16122546

> <PUBCHEM_CID_ASSOCIATIONS>
86271731  1

> <PUBCHEM_COORDINATE_TYPE>
1
3

> <PUBCHEM_BONDANNOTATIONS>
26  4  6

$$$$
