310944365
  -OEChem-07211613022D

 30 34  0     0  0  0  0  0  0999 V2000
    0.1413    1.3592    0.0000 F   0  0  0  0  0  0  0  0  0  0  0  0
   -1.4064    0.3903    0.0000 N   0  0  0  0  0  0  0  0  0  0  0  0
    0.1413   -2.7455    0.0000 N   0  0  0  0  0  0  0  0  0  0  0  0
    2.3349    0.9017    0.0000 N   0  0  0  0  0  0  0  0  0  0  0  0
   -0.6258   -0.6595    0.0000 C   0  0  0  0  0  0  0  0  0  0  0  0
   -0.6258    0.1480    0.0000 C   0  0  0  0  0  0  0  0  0  0  0  0
   -1.4064   -0.9152    0.0000 C   0  0  0  0  0  0  0  0  0  0  0  0
   -1.9043   -0.2692    0.0000 C   0  0  0  0  0  0  0  0  0  0  0  0
    0.1144   -1.0901    0.0000 C   0  0  0  0  0  0  0  0  0  0  0  0
    0.1144    0.5518    0.0000 C   0  0  0  0  0  0  0  0  0  0  0  0
    0.8411   -0.6730    0.0000 C   0  0  0  0  0  0  0  0  0  0  0  0
    0.8680    0.1346    0.0000 C   0  0  0  0  0  0  0  0  0  0  0  0
   -1.6755    1.1843    0.0000 C   0  0  0  0  0  0  0  0  0  0  0  0
    1.6083   -1.0901    0.0000 C   0  0  0  0  0  0  0  0  0  0  0  0
   -1.7563   -1.6688    0.0000 C   0  0  0  0  0  0  0  0  0  0  0  0
   -2.7252   -0.3499    0.0000 C   0  0  0  0  0  0  0  0  0  0  0  0
    0.1279   -1.9246    0.0000 C   0  0  0  0  0  0  0  0  0  0  0  0
    1.6083    0.5383    0.0000 C   0  0  0  0  0  0  0  0  0  0  0  0
   -2.5772   -1.7495    0.0000 C   0  0  0  0  0  0  0  0  0  0  0  0
   -1.1103    1.7899    0.0000 C   0  0  0  0  0  0  0  0  0  0  0  0
   -2.4830    1.3727    0.0000 C   0  0  0  0  0  0  0  0  0  0  0  0
   -3.0618   -1.0766    0.0000 C   0  0  0  0  0  0  0  0  0  0  0  0
    1.6083   -1.8977    0.0000 C   0  0  0  0  0  0  0  0  0  0  0  0
    2.3349   -0.6999    0.0000 C   0  0  0  0  0  0  0  0  0  0  0  0
   -1.3660    2.5704    0.0000 C   0  0  0  0  0  0  0  0  0  0  0  0
   -2.7387    2.1265    0.0000 C   0  0  0  0  0  0  0  0  0  0  0  0
    2.3484   -2.3013    0.0000 C   0  0  0  0  0  0  0  0  0  0  0  0
    3.0618   -1.0901    0.0000 C   0  0  0  0  0  0  0  0  0  0  0  0
   -2.1870    2.7455    0.0000 C   0  0  0  0  0  0  0  0  0  0  0  0
    3.0618   -1.8977    0.0000 C   0  0  0  0  0  0  0  0  0  0  0  0
  1 10  1  0  0  0  0
  2  6  1  0  0  0  0
  2  8  1  0  0  0  0
  2 13  1  0  0  0  0
  3 17  3  0  0  0  0
  4 18  3  0  0  0  0
  5  6  2  0  0  0  0
  5  7  1  0  0  0  0
  5  9  1  0  0  0  0
  6 10  1  0  0  0  0
  7  8  2  0  0  0  0
  7 15  1  0  0  0  0
  8 16  1  0  0  0  0
  9 11  2  0  0  0  0
  9 17  1  0  0  0  0
 10 12  2  0  0  0  0
 11 12  1  0  0  0  0
 11 14  1  0  0  0  0
 12 18  1  0  0  0  0
 13 20  2  0  0  0  0
 13 21  1  0  0  0  0
 14 23  2  0  0  0  0
 14 24  1  0  0  0  0
 15 19  2  0  0  0  0
 16 22  2  0  0  0  0
 19 22  1  0  0  0  0
 20 25  1  0  0  0  0
 21 26  2  0  0  0  0
 23 27  1  0  0  0  0
 24 28  2  0  0  0  0
 25 29  2  0  0  0  0
 26 29  1  0  0  0  0
 27 30  2  0  0  0  0
 28 30  1  0  0  0  0
M  END
> <PUBCHEM_COMPOUND_ID_TYPE>
0

> <PUBCHEM_TOTAL_CHARGE>
0

> <PUBCHEM_SUBSTANCE_ID>
310944365

> <PUBCHEM_SUBSTANCE_VERSION>
1

> <PUBCHEM_EXT_DATASOURCE_NAME>
4488

> <PUBCHEM_EXT_DATASOURCE_REGID>
SCHEMBL16122440

> <PUBCHEM_SUBSTANCE_COMMENT>
InChI=1S/C26H14FN3/c27-25-21(16-29)23(17-9-3-1-4-10-17)20(15-28)24-19-13-7-8-14-22(19)30(26(24)25)18-11-5-2-6-12-18/h1-14H
InChIKey=UMIOORUPKHQCGN-UHFFFAOYSA-N

> <PUBCHEM_SUBSTANCE_SYNONYM>
SCHEMBL16122440

> <PUBCHEM_XREF_EXT_ID>
SCHEMBL16122440

> <PUBCHEM_EXT_DATASOURCE_URL>
https://www.surechembl.org/

> <PUBCHEM_EXT_SUBSTANCE_URL>
https://www.surechembl.org/chemical/SCHEMBL16122440

> <PUBCHEM_CID_ASSOCIATIONS>
117610622  1

> <PUBCHEM_COORDINATE_TYPE>
1
3

$$$$
