310933936
  -OEChem-07211613022D

 23 25  0     0  0  0  0  0  0999 V2000
    0.0000   -0.7103    0.0000 Br  0  0  0  0  0  0  0  0  0  0  0  0
    5.0039   -6.4567    0.0000 Br  0  0  0  0  0  0  0  0  0  0  0  0
    4.9717   -2.1630    0.0000 S   0  0  0  0  0  0  0  0  0  0  0  0
    2.4536   -2.1630    0.0000 O   0  0  0  0  0  0  0  0  0  0  0  0
    3.2929   -2.1630    0.0000 C   0  0  0  0  0  0  0  0  0  0  0  0
    3.7449   -2.8732    0.0000 C   0  0  0  0  0  0  0  0  0  0  0  0
    3.7449   -1.4528    0.0000 C   0  0  0  0  0  0  0  0  0  0  0  0
    3.3252   -0.7425    0.0000 C   0  0  0  0  0  0  0  0  0  0  0  0
    3.3252   -3.6157    0.0000 C   0  0  0  0  0  0  0  0  0  0  0  0
    4.5519   -2.8732    0.0000 C   0  0  0  0  0  0  0  0  0  0  0  0
    4.5519   -1.4528    0.0000 C   0  0  0  0  0  0  0  0  0  0  0  0
    2.5181   -0.7425    0.0000 C   0  0  0  0  0  0  0  0  0  0  0  0
    3.7449   -4.3260    0.0000 C   0  0  0  0  0  0  0  0  0  0  0  0
    2.0661   -1.4528    0.0000 C   0  0  0  0  0  0  0  0  0  0  0  0
    4.5843   -4.2937    0.0000 C   0  0  0  0  0  0  0  0  0  0  0  0
    2.0984    0.0000    0.0000 C   0  0  0  0  0  0  0  0  0  0  0  0
    3.3575   -5.0362    0.0000 C   0  0  0  0  0  0  0  0  0  0  0  0
    0.8394   -0.7103    0.0000 C   0  0  0  0  0  0  0  0  0  0  0  0
    4.5843   -5.7464    0.0000 C   0  0  0  0  0  0  0  0  0  0  0  0
    1.2590   -1.4528    0.0000 C   0  0  0  0  0  0  0  0  0  0  0  0
    5.0039   -5.0039    0.0000 C   0  0  0  0  0  0  0  0  0  0  0  0
    1.2590    0.0000    0.0000 C   0  0  0  0  0  0  0  0  0  0  0  0
    3.7771   -5.7464    0.0000 C   0  0  0  0  0  0  0  0  0  0  0  0
  1 18  1  0  0  0  0
  2 19  1  0  0  0  0
  3 10  1  0  0  0  0
  3 11  1  0  0  0  0
  4  5  2  0  0  0  0
  5  6  1  0  0  0  0
  5  7  1  0  0  0  0
  6  9  2  0  0  0  0
  6 10  1  0  0  0  0
  7  8  2  0  0  0  0
  7 11  1  0  0  0  0
  8 12  1  0  0  0  0
  9 13  1  0  0  0  0
 12 14  2  0  0  0  0
 12 16  1  0  0  0  0
 13 15  2  0  0  0  0
 13 17  1  0  0  0  0
 14 20  1  0  0  0  0
 15 21  1  0  0  0  0
 16 22  2  0  0  0  0
 17 23  2  0  0  0  0
 18 20  2  0  0  0  0
 18 22  1  0  0  0  0
 19 21  2  0  0  0  0
 19 23  1  0  0  0  0
M  END
> <PUBCHEM_COMPOUND_ID_TYPE>
0

> <PUBCHEM_TOTAL_CHARGE>
0

> <PUBCHEM_SUBSTANCE_ID>
310933936

> <PUBCHEM_SUBSTANCE_VERSION>
1

> <PUBCHEM_EXT_DATASOURCE_NAME>
4488

> <PUBCHEM_EXT_DATASOURCE_REGID>
SCHEMBL16111375

> <PUBCHEM_SUBSTANCE_COMMENT>
InChI=1S/C19H14Br2OS/c20-17-5-1-13(2-6-17)9-15-11-23-12-16(19(15)22)10-14-3-7-18(21)8-4-14/h1-10H,11-12H2/b15-9-,16-10+
InChIKey=UZNXJOQQIFCUBC-CKOAPEAFSA-N

> <PUBCHEM_SUBSTANCE_SYNONYM>
SCHEMBL16111375

> <PUBCHEM_XREF_EXT_ID>
SCHEMBL16111375

> <PUBCHEM_EXT_DATASOURCE_URL>
https://www.surechembl.org/

> <PUBCHEM_EXT_SUBSTANCE_URL>
https://www.surechembl.org/chemical/SCHEMBL16111375

> <PUBCHEM_CID_ASSOCIATIONS>
117602258  1

> <PUBCHEM_COORDINATE_TYPE>
1
3

$$$$
