310934545
  -OEChem-07211613022D

 23 25  0     0  0  0  0  0  0999 V2000
    0.9189   -1.4843    0.0000 S   0  0  0  0  0  0  0  0  0  0  0  0
    3.7814   -6.3612    0.0000 S   0  0  0  0  0  0  0  0  0  0  0  0
    0.7068   -3.2513    0.0000 O   0  0  0  0  0  0  0  0  0  0  0  0
    0.8481   -5.6191    0.0000 O   0  0  0  0  0  0  0  0  0  0  0  0
    0.0000   -7.0681    0.0000 O   0  0  0  0  0  0  0  0  0  0  0  0
    1.6964   -5.6191    0.0000 N   0  0  0  0  0  0  0  0  0  0  0  0
    0.8481   -4.0995    0.0000 N   0  0  0  0  0  0  0  0  0  0  0  0
    0.8481   -7.0681    0.0000 N   0  0  0  0  0  0  0  0  0  0  0  0
    2.0851   -6.3612    0.0000 C   0  0  0  0  0  0  0  0  0  0  0  0
    1.4489   -2.8625    0.0000 C   0  0  0  0  0  0  0  0  0  0  0  0
    1.2722   -6.3612    0.0000 C   0  0  0  0  0  0  0  0  0  0  0  0
    1.6964   -4.1701    0.0000 C   0  0  0  0  0  0  0  0  0  0  0  0
    1.5197   -2.0497    0.0000 C   0  0  0  0  0  0  0  0  0  0  0  0
    2.5445   -7.0681    0.0000 C   0  0  0  0  0  0  0  0  0  0  0  0
    2.5445   -5.6191    0.0000 C   0  0  0  0  0  0  0  0  0  0  0  0
    2.0497   -3.4280    0.0000 C   0  0  0  0  0  0  0  0  0  0  0  0
    2.1204   -4.9123    0.0000 C   0  0  0  0  0  0  0  0  0  0  0  0
    2.2264   -1.6256    0.0000 C   0  0  0  0  0  0  0  0  0  0  0  0
    1.2369   -0.7068    0.0000 C   0  0  0  0  0  0  0  0  0  0  0  0
    3.3573   -7.0681    0.0000 C   0  0  0  0  0  0  0  0  0  0  0  0
    3.3573   -5.6191    0.0000 C   0  0  0  0  0  0  0  0  0  0  0  0
    2.0851   -0.8128    0.0000 C   0  0  0  0  0  0  0  0  0  0  0  0
    0.8481    0.0000    0.0000 C   0  0  0  0  0  0  0  0  0  0  0  0
  1 13  1  0  0  0  0
  1 19  1  0  0  0  0
  2 20  1  0  0  0  0
  2 21  1  0  0  0  0
  3  7  1  0  0  0  0
  3 10  1  0  0  0  0
  4 11  2  0  0  0  0
  5  8  1  0  0  0  0
  6  9  1  0  0  0  0
  6 17  1  0  0  0  0
  7 12  2  0  0  0  0
  8 11  1  0  0  0  0
  9 11  1  0  0  0  0
  9 14  1  0  0  0  0
  9 15  1  0  0  0  0
 10 13  1  0  0  0  0
 10 16  2  0  0  0  0
 12 16  1  0  0  0  0
 12 17  1  0  0  0  0
 13 18  2  0  0  0  0
 14 20  1  0  0  0  0
 15 21  1  0  0  0  0
 18 22  1  0  0  0  0
 19 22  2  0  0  0  0
 19 23  1  0  0  0  0
M  END
> <PUBCHEM_COMPOUND_ID_TYPE>
0

> <PUBCHEM_TOTAL_CHARGE>
0

> <PUBCHEM_SUBSTANCE_ID>
310934545

> <PUBCHEM_SUBSTANCE_VERSION>
1

> <PUBCHEM_EXT_DATASOURCE_NAME>
4488

> <PUBCHEM_EXT_DATASOURCE_REGID>
SCHEMBL16112036

> <PUBCHEM_SUBSTANCE_COMMENT>
InChI=1S/C15H19N3O3S2/c1-10-2-3-13(23-10)12-8-11(18-21-12)9-16-15(14(19)17-20)4-6-22-7-5-15/h2-3,8,16,20H,4-7,9H2,1H3,(H,17,19)
InChIKey=KJUGAYKAKLPNLI-UHFFFAOYSA-N

> <PUBCHEM_SUBSTANCE_SYNONYM>
SCHEMBL16112036

> <PUBCHEM_XREF_EXT_ID>
SCHEMBL16112036

> <PUBCHEM_EXT_DATASOURCE_URL>
https://www.surechembl.org/

> <PUBCHEM_EXT_SUBSTANCE_URL>
https://www.surechembl.org/chemical/SCHEMBL16112036

> <PUBCHEM_CID_ASSOCIATIONS>
117602739  1

> <PUBCHEM_COORDINATE_TYPE>
1
3

$$$$
