310948484
  -OEChem-07211613022D

 31 35  0     1  0  0  0  0  0999 V2000
   -2.6096    1.9038    0.0000 O   0  0  0  0  0  0  0  0  0  0  0  0
    0.1579    1.7553    0.0000 N   0  0  0  0  0  0  0  0  0  0  0  0
   -0.1765    0.9937    0.0000 N   0  0  0  0  0  0  0  0  0  0  0  0
   -1.5695    0.4923    0.0000 N   0  0  0  0  0  0  0  0  0  0  0  0
   -1.8667    3.1669    0.0000 N   0  0  0  0  0  0  0  0  0  0  0  0
    0.8637   -2.2382    0.0000 N   0  0  0  0  0  0  0  0  0  0  0  0
    1.0494   -0.2879    0.0000 N   0  0  0  0  0  0  0  0  0  0  0  0
    0.9194   -3.5755    0.0000 N   0  0  0  0  0  0  0  0  0  0  0  0
   -1.1609    1.9225    0.0000 C   0  0  0  0  0  0  0  0  0  0  0  0
   -0.4551    2.3311    0.0000 C   0  0  0  0  0  0  0  0  0  0  0  0
   -1.0123    1.1237    0.0000 C   0  0  0  0  0  0  0  0  0  0  0  0
    0.9751    1.9225    0.0000 C   0  0  3  0  0  0  0  0  0  0  0  0
   -1.8853    2.3311    0.0000 C   0  0  0  0  0  0  0  0  0  0  0  0
   -0.4365    3.1484    0.0000 C   0  0  0  0  0  0  0  0  0  0  0  0
    1.5324    1.3095    0.0000 C   0  0  3  0  0  0  0  0  0  0  0  0
   -1.1423    3.5755    0.0000 C   0  0  0  0  0  0  0  0  0  0  0  0
   -1.3095   -0.3065    0.0000 C   0  0  0  0  0  0  0  0  0  0  0  0
    1.2537    2.7026    0.0000 C   0  0  0  0  0  0  0  0  0  0  0  0
    2.3496    1.4767    0.0000 C   0  0  0  0  0  0  0  0  0  0  0  0
   -0.5108   -0.4923    0.0000 C   0  0  0  0  0  0  0  0  0  0  0  0
    1.2724    0.4923    0.0000 C   0  0  0  0  0  0  0  0  0  0  0  0
    2.0525    2.8697    0.0000 C   0  0  0  0  0  0  0  0  0  0  0  0
   -1.8482   -0.9009    0.0000 C   0  0  0  0  0  0  0  0  0  0  0  0
   -0.2693   -1.2724    0.0000 C   0  0  0  0  0  0  0  0  0  0  0  0
    2.6096    2.2753    0.0000 C   0  0  0  0  0  0  0  0  0  0  0  0
   -1.6252   -1.6995    0.0000 C   0  0  0  0  0  0  0  0  0  0  0  0
   -0.8080   -1.8853    0.0000 C   0  0  0  0  0  0  0  0  0  0  0  0
    0.5479   -1.4767    0.0000 C   0  0  0  0  0  0  0  0  0  0  0  0
    0.3993   -2.9069    0.0000 C   0  0  0  0  0  0  0  0  0  0  0  0
    1.6624   -2.4611    0.0000 C   0  0  0  0  0  0  0  0  0  0  0  0
    1.6810   -3.2784    0.0000 C   0  0  0  0  0  0  0  0  0  0  0  0
  1 13  2  0  0  0  0
  2  3  1  0  0  0  0
  2 10  1  0  0  0  0
 12  2  1  1  0  0  0
  3 11  2  0  0  0  0
  4 11  1  0  0  0  0
  4 17  1  0  0  0  0
  5 13  1  0  0  0  0
  5 16  1  0  0  0  0
  6 28  1  0  0  0  0
  6 29  1  0  0  0  0
  6 30  1  0  0  0  0
  7 21  3  0  0  0  0
  8 29  2  0  0  0  0
  8 31  1  0  0  0  0
  9 10  2  0  0  0  0
  9 11  1  0  0  0  0
  9 13  1  0  0  0  0
 10 14  1  0  0  0  0
 12 15  1  0  0  0  0
 12 18  1  0  0  0  0
 14 16  2  0  0  0  0
 15 19  1  0  0  0  0
 15 21  1  6  0  0  0
 17 20  1  0  0  0  0
 17 23  2  0  0  0  0
 18 22  1  0  0  0  0
 19 25  1  0  0  0  0
 20 24  2  0  0  0  0
 22 25  1  0  0  0  0
 23 26  1  0  0  0  0
 24 27  1  0  0  0  0
 24 28  1  0  0  0  0
 26 27  2  0  0  0  0
 30 31  2  0  0  0  0
M  END
> <PUBCHEM_COMPOUND_ID_TYPE>
0

> <PUBCHEM_TOTAL_CHARGE>
0

> <PUBCHEM_SUBSTANCE_ID>
310948484

> <PUBCHEM_SUBSTANCE_VERSION>
1

> <PUBCHEM_EXT_DATASOURCE_NAME>
4488

> <PUBCHEM_EXT_DATASOURCE_REGID>
SCHEMBL16126666

> <PUBCHEM_SUBSTANCE_COMMENT>
InChI=1S/C23H23N7O/c24-13-17-5-1-2-7-19(17)30-20-8-9-26-23(31)21(20)22(28-30)27-18-6-3-4-16(12-18)14-29-11-10-25-15-29/h3-4,6,8-12,15,17,19H,1-2,5,7,14H2,(H,26,31)(H,27,28)/t17-,19+/m1/s1
InChIKey=AGHKZBGURRMENU-MJGOQNOKSA-N

> <PUBCHEM_SUBSTANCE_SYNONYM>
SCHEMBL16126666

> <PUBCHEM_XREF_EXT_ID>
SCHEMBL16126666

> <PUBCHEM_EXT_DATASOURCE_URL>
https://www.surechembl.org/

> <PUBCHEM_EXT_SUBSTANCE_URL>
https://www.surechembl.org/chemical/SCHEMBL16126666

> <PUBCHEM_CID_ASSOCIATIONS>
117614042  1

> <PUBCHEM_COORDINATE_TYPE>
1
3

> <PUBCHEM_BONDANNOTATIONS>
15  21  6
12  2  5

$$$$
