310945439
  -OEChem-07211613022D

 31 34  0     0  0  0  0  0  0999 V2000
   -2.3389    1.5245    0.0000 Cl  0  0  0  0  0  0  0  0  0  0  0  0
   -0.3882    1.7518    0.0000 F   0  0  0  0  0  0  0  0  0  0  0  0
    0.4071    2.6040    0.0000 F   0  0  0  0  0  0  0  0  0  0  0  0
    1.2026    1.7518    0.0000 F   0  0  0  0  0  0  0  0  0  0  0  0
   -4.6115   -1.0511    0.0000 F   0  0  0  0  0  0  0  0  0  0  0  0
   -3.2480   -1.9223    0.0000 F   0  0  0  0  0  0  0  0  0  0  0  0
   -4.3275   -2.2442    0.0000 F   0  0  0  0  0  0  0  0  0  0  0  0
   -1.0700    0.7102    0.0000 N   0  0  0  0  0  0  0  0  0  0  0  0
   -1.0700   -0.6913    0.0000 N   0  0  0  0  0  0  0  0  0  0  0  0
    0.3882   -0.8428    0.0000 N   0  0  0  0  0  0  0  0  0  0  0  0
    1.0700    0.4450    0.0000 N   0  0  0  0  0  0  0  0  0  0  0  0
    2.4904   -2.1684    0.0000 N   0  0  0  0  0  0  0  0  0  0  0  0
   -0.3124    0.4071    0.0000 C   0  0  0  0  0  0  0  0  0  0  0  0
   -0.3314   -0.4640    0.0000 C   0  0  0  0  0  0  0  0  0  0  0  0
    0.3882    0.8428    0.0000 C   0  0  0  0  0  0  0  0  0  0  0  0
   -1.5434   -0.0284    0.0000 C   0  0  0  0  0  0  0  0  0  0  0  0
   -2.3578   -0.0095    0.0000 C   0  0  0  0  0  0  0  0  0  0  0  0
    1.0700   -0.4450    0.0000 C   0  0  0  0  0  0  0  0  0  0  0  0
    0.3882    1.7140    0.0000 C   0  0  0  0  0  0  0  0  0  0  0  0
    1.7708   -0.8617    0.0000 C   0  0  0  0  0  0  0  0  0  0  0  0
   -2.7367    0.7102    0.0000 C   0  0  0  0  0  0  0  0  0  0  0  0
   -2.7367   -0.7671    0.0000 C   0  0  0  0  0  0  0  0  0  0  0  0
   -3.5509   -0.7481    0.0000 C   0  0  0  0  0  0  0  0  0  0  0  0
   -3.9487   -1.5056    0.0000 C   0  0  0  0  0  0  0  0  0  0  0  0
   -3.5131    0.7291    0.0000 C   0  0  0  0  0  0  0  0  0  0  0  0
   -3.9108   -0.0095    0.0000 C   0  0  0  0  0  0  0  0  0  0  0  0
    1.7708   -1.7518    0.0000 C   0  0  0  0  0  0  0  0  0  0  0  0
    2.4904   -0.4640    0.0000 C   0  0  0  0  0  0  0  0  0  0  0  0
    3.1911   -0.8996    0.0000 C   0  0  0  0  0  0  0  0  0  0  0  0
    3.1722   -1.7518    0.0000 C   0  0  0  0  0  0  0  0  0  0  0  0
    4.6115   -2.5094    0.0000 C   0  0  0  0  0  0  0  0  0  0  0  0
  1 21  1  0  0  0  0
  2 19  1  0  0  0  0
  3 19  1  0  0  0  0
  4 19  1  0  0  0  0
  5 24  1  0  0  0  0
  6 24  1  0  0  0  0
  7 24  1  0  0  0  0
  8 13  1  0  0  0  0
  8 16  2  0  0  0  0
  9 14  1  0  0  0  0
  9 16  1  0  0  0  0
 10 14  1  0  0  0  0
 10 18  2  0  0  0  0
 11 15  2  0  0  0  0
 11 18  1  0  0  0  0
 12 27  1  0  0  0  0
 12 30  2  0  0  0  0
 13 14  2  0  0  0  0
 13 15  1  0  0  0  0
 15 19  1  0  0  0  0
 16 17  1  0  0  0  0
 17 21  2  0  0  0  0
 17 22  1  0  0  0  0
 18 20  1  0  0  0  0
 20 27  2  0  0  0  0
 20 28  1  0  0  0  0
 21 25  1  0  0  0  0
 22 23  2  0  0  0  0
 23 24  1  0  0  0  0
 23 26  1  0  0  0  0
 25 26  2  0  0  0  0
 28 29  2  0  0  0  0
 29 30  1  0  0  0  0
 30 31  1  0  0  0  0
M  END
> <PUBCHEM_COMPOUND_ID_TYPE>
0

> <PUBCHEM_TOTAL_CHARGE>
0

> <PUBCHEM_SUBSTANCE_ID>
310945439

> <PUBCHEM_SUBSTANCE_VERSION>
1

> <PUBCHEM_EXT_DATASOURCE_NAME>
4488

> <PUBCHEM_EXT_DATASOURCE_REGID>
SCHEMBL16123537

> <PUBCHEM_SUBSTANCE_COMMENT>
InChI=1S/C19H10ClF6N5/c1-8-2-3-9(7-27-8)15-29-14(19(24,25)26)13-17(30-15)31-16(28-13)11-6-10(18(21,22)23)4-5-12(11)20/h2-7H,1H3,(H,28,29,30,31)
InChIKey=FUZALISBXGEPAA-UHFFFAOYSA-N

> <PUBCHEM_SUBSTANCE_SYNONYM>
SCHEMBL16123537

> <PUBCHEM_XREF_EXT_ID>
SCHEMBL16123537

> <PUBCHEM_EXT_DATASOURCE_URL>
https://www.surechembl.org/

> <PUBCHEM_EXT_SUBSTANCE_URL>
https://www.surechembl.org/chemical/SCHEMBL16123537

> <PUBCHEM_CID_ASSOCIATIONS>
117611484  1

> <PUBCHEM_COORDINATE_TYPE>
1
3

$$$$
