310939349
  -OEChem-07211613022D

 29 31  0     1  0  0  0  0  0999 V2000
    1.0717    1.4437    0.0000 Cl  0  0  0  0  0  0  0  0  0  0  0  0
   -0.3572   -1.0313    0.0000 F   0  0  0  0  0  0  0  0  0  0  0  0
    1.0717   -0.2063    0.0000 O   0  0  0  0  0  0  0  0  0  0  0  0
    3.9296   -0.2063    0.0000 O   0  0  0  0  0  0  0  0  0  0  0  0
    3.9296    1.4437    0.0000 O   0  0  0  0  0  0  0  0  0  0  0  0
   -4.6441   -0.2063    0.0000 O   0  0  0  0  0  0  0  0  0  0  0  0
   -2.5006    0.2062    0.0000 N   0  0  0  0  0  0  0  0  0  0  0  0
   -3.9296    1.0312    0.0000 N   0  0  0  0  0  0  0  0  0  0  0  0
    0.3572    0.2062    0.0000 C   0  0  0  0  0  0  0  0  0  0  0  0
   -0.3572   -0.2063    0.0000 C   0  0  0  0  0  0  0  0  0  0  0  0
   -1.0717    0.2062    0.0000 C   0  0  0  0  0  0  0  0  0  0  0  0
    0.3572    1.0312    0.0000 C   0  0  0  0  0  0  0  0  0  0  0  0
    1.7862    0.2062    0.0000 C   0  0  0  0  0  0  0  0  0  0  0  0
   -1.7862   -0.2063    0.0000 C   0  0  3  0  0  0  0  0  0  0  0  0
    3.2151    0.2062    0.0000 C   0  0  0  0  0  0  0  0  0  0  0  0
   -1.0717    1.0312    0.0000 C   0  0  0  0  0  0  0  0  0  0  0  0
    3.2151    1.0312    0.0000 C   0  0  0  0  0  0  0  0  0  0  0  0
    2.5006   -0.2062    0.0000 C   0  0  0  0  0  0  0  0  0  0  0  0
   -0.3572    1.4438    0.0000 C   0  0  0  0  0  0  0  0  0  0  0  0
    1.7862    1.0312    0.0000 C   0  0  0  0  0  0  0  0  0  0  0  0
    2.5006    1.4437    0.0000 C   0  0  0  0  0  0  0  0  0  0  0  0
   -1.7862   -1.0313    0.0000 C   0  0  0  0  0  0  0  0  0  0  0  0
    4.6441    0.2062    0.0000 C   0  0  0  0  0  0  0  0  0  0  0  0
   -2.5006    1.0312    0.0000 C   0  0  3  0  0  0  0  0  0  0  0  0
    4.6441    1.0312    0.0000 C   0  0  0  0  0  0  0  0  0  0  0  0
   -3.2151    1.4437    0.0000 C   0  0  0  0  0  0  0  0  0  0  0  0
   -1.0717   -1.4438    0.0000 C   0  0  0  0  0  0  0  0  0  0  0  0
   -1.7862    1.4437    0.0000 C   0  0  0  0  0  0  0  0  0  0  0  0
   -3.9296    0.2062    0.0000 C   0  0  0  0  0  0  0  0  0  0  0  0
  1 12  1  0  0  0  0
  2 10  1  0  0  0  0
  3  9  1  0  0  0  0
  3 13  1  0  0  0  0
  4 15  1  0  0  0  0
  4 23  1  0  0  0  0
  5 17  1  0  0  0  0
  5 25  1  0  0  0  0
  6 29  2  0  0  0  0
 14  7  1  1  0  0  0
  7 24  1  0  0  0  0
  8 26  1  0  0  0  0
  8 29  1  0  0  0  0
  9 10  2  0  0  0  0
  9 12  1  0  0  0  0
 10 11  1  0  0  0  0
 11 14  1  0  0  0  0
 11 16  2  0  0  0  0
 12 19  2  0  0  0  0
 13 18  2  0  0  0  0
 13 20  1  0  0  0  0
 14 22  1  0  0  0  0
 15 17  2  0  0  0  0
 15 18  1  0  0  0  0
 16 19  1  0  0  0  0
 17 21  1  0  0  0  0
 20 21  2  0  0  0  0
 22 27  1  0  0  0  0
 23 25  1  0  0  0  0
 24 26  1  0  0  0  0
 24 28  1  6  0  0  0
M  END
> <PUBCHEM_COMPOUND_ID_TYPE>
0

> <PUBCHEM_TOTAL_CHARGE>
0

> <PUBCHEM_SUBSTANCE_ID>
310939349

> <PUBCHEM_SUBSTANCE_VERSION>
1

> <PUBCHEM_EXT_DATASOURCE_NAME>
4488

> <PUBCHEM_EXT_DATASOURCE_REGID>
SCHEMBL16117270

> <PUBCHEM_SUBSTANCE_COMMENT>
InChI=1S/C21H24ClFN2O4/c1-3-17(25-13(2)11-24-12-26)15-5-6-16(22)21(20(15)23)29-14-4-7-18-19(10-14)28-9-8-27-18/h4-7,10,12-13,17,25H,3,8-9,11H2,1-2H3,(H,24,26)/t13-,17+/m0/s1
InChIKey=OUXSLOMVMQGIAQ-SUMWQHHRSA-N

> <PUBCHEM_SUBSTANCE_SYNONYM>
SCHEMBL16117270

> <PUBCHEM_XREF_EXT_ID>
SCHEMBL16117270

> <PUBCHEM_EXT_DATASOURCE_URL>
https://www.surechembl.org/

> <PUBCHEM_EXT_SUBSTANCE_URL>
https://www.surechembl.org/chemical/SCHEMBL16117270

> <PUBCHEM_CID_ASSOCIATIONS>
117606676  1

> <PUBCHEM_COORDINATE_TYPE>
1
3

> <PUBCHEM_BONDANNOTATIONS>
24  28  6
14  7  5

$$$$
