310939401
  -OEChem-07211613022D

 25 28  0     0  0  0  0  0  0999 V2000
    1.0420   -4.4477    0.0000 O   0  0  0  0  0  0  0  0  0  0  0  0
    1.2662   -9.1813    0.0000 O   0  0  0  0  0  0  0  0  0  0  0  0
   -0.3275   -8.7542    0.0000 N   0  0  0  0  0  0  0  0  0  0  0  0
    0.1574   -8.0868    0.0000 N   0  0  0  0  0  0  0  0  0  0  0  0
   -1.8266   -8.9118    0.0000 N   0  0  0  0  0  0  0  0  0  0  0  0
   -2.5411   -7.6743    0.0000 N   0  0  0  0  0  0  0  0  0  0  0  0
    1.8266   -5.5276    0.0000 N   0  0  0  0  0  0  0  0  0  0  0  0
   -1.8266   -6.4368    0.0000 N   0  0  0  0  0  0  0  0  0  0  0  0
   -1.1122   -7.6743    0.0000 C   0  0  0  0  0  0  0  0  0  0  0  0
   -0.3275   -7.4194    0.0000 C   0  0  0  0  0  0  0  0  0  0  0  0
   -1.1122   -8.4993    0.0000 C   0  0  0  0  0  0  0  0  0  0  0  0
   -0.1140   -6.6225    0.0000 C   0  0  0  0  0  0  0  0  0  0  0  0
   -0.1140   -9.5511    0.0000 C   0  0  0  0  0  0  0  0  0  0  0  0
   -1.8266   -7.2618    0.0000 C   0  0  0  0  0  0  0  0  0  0  0  0
    1.0420   -5.7826    0.0000 C   0  0  0  0  0  0  0  0  0  0  0  0
    0.7065   -6.5362    0.0000 C   0  0  0  0  0  0  0  0  0  0  0  0
    0.5571   -5.1151    0.0000 C   0  0  0  0  0  0  0  0  0  0  0  0
   -0.5989   -5.9550    0.0000 C   0  0  0  0  0  0  0  0  0  0  0  0
   -2.5411   -8.4993    0.0000 C   0  0  0  0  0  0  0  0  0  0  0  0
   -0.2634   -5.2014    0.0000 C   0  0  0  0  0  0  0  0  0  0  0  0
    0.6829   -9.7647    0.0000 C   0  0  0  0  0  0  0  0  0  0  0  0
   -0.6974  -10.1345    0.0000 C   0  0  0  0  0  0  0  0  0  0  0  0
   -0.9390   -9.5511    0.0000 C   0  0  0  0  0  0  0  0  0  0  0  0
    1.8266   -4.7026    0.0000 C   0  0  0  0  0  0  0  0  0  0  0  0
    2.5411   -4.2901    0.0000 C   0  0  0  0  0  0  0  0  0  0  0  0
  1 17  1  0  0  0  0
  1 24  1  0  0  0  0
  2 21  1  0  0  0  0
  3  4  1  0  0  0  0
  3 11  1  0  0  0  0
  3 13  1  0  0  0  0
  4 10  2  0  0  0  0
  5 11  1  0  0  0  0
  5 19  2  0  0  0  0
  6 14  2  0  0  0  0
  6 19  1  0  0  0  0
  7 15  1  0  0  0  0
  7 24  2  0  0  0  0
  8 14  1  0  0  0  0
  9 10  1  0  0  0  0
  9 11  2  0  0  0  0
  9 14  1  0  0  0  0
 10 12  1  0  0  0  0
 12 16  2  0  0  0  0
 12 18  1  0  0  0  0
 13 21  1  0  0  0  0
 13 22  1  0  0  0  0
 13 23  1  0  0  0  0
 15 16  1  0  0  0  0
 15 17  2  0  0  0  0
 17 20  1  0  0  0  0
 18 20  2  0  0  0  0
 24 25  1  0  0  0  0
M  END
> <PUBCHEM_COMPOUND_ID_TYPE>
0

> <PUBCHEM_TOTAL_CHARGE>
0

> <PUBCHEM_SUBSTANCE_ID>
310939401

> <PUBCHEM_SUBSTANCE_VERSION>
1

> <PUBCHEM_EXT_DATASOURCE_NAME>
4488

> <PUBCHEM_EXT_DATASOURCE_REGID>
SCHEMBL16117322

> <PUBCHEM_SUBSTANCE_COMMENT>
InChI=1S/C17H18N6O2/c1-9-21-11-6-10(4-5-12(11)25-9)14-13-15(18)19-8-20-16(13)23(22-14)17(2,3)7-24/h4-6,8,24H,7H2,1-3H3,(H2,18,19,20)
InChIKey=DDGHEIRYWWKRND-UHFFFAOYSA-N

> <PUBCHEM_SUBSTANCE_SYNONYM>
SCHEMBL16117322

> <PUBCHEM_XREF_EXT_ID>
SCHEMBL16117322

> <PUBCHEM_EXT_DATASOURCE_URL>
https://www.surechembl.org/

> <PUBCHEM_EXT_SUBSTANCE_URL>
https://www.surechembl.org/chemical/SCHEMBL16117322

> <PUBCHEM_CID_ASSOCIATIONS>
117606728  1

> <PUBCHEM_COORDINATE_TYPE>
1
3

$$$$
