310930060
  -OEChem-07211613022D

 26 29  0     0  0  0  0  0  0999 V2000
    3.0364   -3.3328    0.0000 S   0  0  0  0  0  0  0  0  0  0  0  0
    2.2827   -4.6472    0.0000 O   0  0  0  0  0  0  0  0  0  0  0  0
   -0.2732   -7.9793    0.0000 O   0  0  0  0  0  0  0  0  0  0  0  0
    1.5683   -3.4097    0.0000 N   0  0  0  0  0  0  0  0  0  0  0  0
    3.1759   -2.0052    0.0000 C   0  0  0  0  0  0  0  0  0  0  0  0
    2.2827   -2.9972    0.0000 C   0  0  0  0  0  0  0  0  0  0  0  0
    3.5884   -2.7197    0.0000 C   0  0  0  0  0  0  0  0  0  0  0  0
    2.3690   -2.1767    0.0000 C   0  0  0  0  0  0  0  0  0  0  0  0
    3.5115   -1.2515    0.0000 C   0  0  0  0  0  0  0  0  0  0  0  0
    0.8538   -4.6472    0.0000 C   0  0  0  0  0  0  0  0  0  0  0  0
    1.5683   -4.2347    0.0000 C   0  0  0  0  0  0  0  0  0  0  0  0
    0.1393   -5.8847    0.0000 C   0  0  0  0  0  0  0  0  0  0  0  0
    0.8538   -5.4722    0.0000 C   0  0  0  0  0  0  0  0  0  0  0  0
    0.1393   -6.7097    0.0000 C   0  0  0  0  0  0  0  0  0  0  0  0
    0.1393   -4.2347    0.0000 C   0  0  0  0  0  0  0  0  0  0  0  0
   -0.5752   -5.4722    0.0000 C   0  0  0  0  0  0  0  0  0  0  0  0
    3.0266   -0.5841    0.0000 C   0  0  0  0  0  0  0  0  0  0  0  0
    4.3320   -1.1653    0.0000 C   0  0  0  0  0  0  0  0  0  0  0  0
   -0.5752   -4.6472    0.0000 C   0  0  0  0  0  0  0  0  0  0  0  0
    4.4089   -2.8059    0.0000 C   0  0  0  0  0  0  0  0  0  0  0  0
   -0.5281   -7.1946    0.0000 C   0  0  0  0  0  0  0  0  0  0  0  0
    0.8068   -7.1946    0.0000 C   0  0  0  0  0  0  0  0  0  0  0  0
    3.3621    0.1696    0.0000 C   0  0  0  0  0  0  0  0  0  0  0  0
    4.6675   -0.4116    0.0000 C   0  0  0  0  0  0  0  0  0  0  0  0
    0.5518   -7.9793    0.0000 C   0  0  0  0  0  0  0  0  0  0  0  0
    4.1826    0.2558    0.0000 C   0  0  0  0  0  0  0  0  0  0  0  0
  1  6  1  0  0  0  0
  1  7  1  0  0  0  0
  2 11  2  0  0  0  0
  3 21  1  0  0  0  0
  3 25  1  0  0  0  0
  4  6  1  0  0  0  0
  4 11  1  0  0  0  0
  5  7  2  0  0  0  0
  5  8  1  0  0  0  0
  5  9  1  0  0  0  0
  6  8  2  0  0  0  0
  7 20  1  0  0  0  0
  9 17  2  0  0  0  0
  9 18  1  0  0  0  0
 10 11  1  0  0  0  0
 10 13  2  0  0  0  0
 10 15  1  0  0  0  0
 12 13  1  0  0  0  0
 12 14  1  0  0  0  0
 12 16  2  0  0  0  0
 14 21  2  0  0  0  0
 14 22  1  0  0  0  0
 15 19  2  0  0  0  0
 16 19  1  0  0  0  0
 17 23  1  0  0  0  0
 18 24  2  0  0  0  0
 22 25  2  0  0  0  0
 23 26  2  0  0  0  0
 24 26  1  0  0  0  0
M  END
> <PUBCHEM_COMPOUND_ID_TYPE>
0

> <PUBCHEM_TOTAL_CHARGE>
0

> <PUBCHEM_SUBSTANCE_ID>
310930060

> <PUBCHEM_SUBSTANCE_VERSION>
1

> <PUBCHEM_EXT_DATASOURCE_NAME>
4488

> <PUBCHEM_EXT_DATASOURCE_REGID>
SCHEMBL16107301

> <PUBCHEM_SUBSTANCE_COMMENT>
InChI=1S/C22H17NO2S/c1-15-20(16-6-3-2-4-7-16)13-21(26-15)23-22(24)18-9-5-8-17(12-18)19-10-11-25-14-19/h2-14H,1H3,(H,23,24)
InChIKey=GPIHYGRNZYTJDH-UHFFFAOYSA-N

> <PUBCHEM_SUBSTANCE_SYNONYM>
SCHEMBL16107301

> <PUBCHEM_XREF_EXT_ID>
SCHEMBL16107301

> <PUBCHEM_EXT_DATASOURCE_URL>
https://www.surechembl.org/

> <PUBCHEM_EXT_SUBSTANCE_URL>
https://www.surechembl.org/chemical/SCHEMBL16107301

> <PUBCHEM_CID_ASSOCIATIONS>
117599303  1

> <PUBCHEM_COORDINATE_TYPE>
1
3

$$$$
