310944988
  -OEChem-07211613022D

 35 39  0     0  0  0  0  0  0999 V2000
    3.9932    2.9790    0.0000 O   0  0  0  0  0  0  0  0  0  0  0  0
   -2.1038   -1.7967    0.0000 O   0  0  0  0  0  0  0  0  0  0  0  0
   -2.6254    1.1012    0.0000 O   0  0  0  0  0  0  0  0  0  0  0  0
    2.4864    0.6723    0.0000 N   0  0  0  0  0  0  0  0  0  0  0  0
    0.6897    0.7650    0.0000 N   0  0  0  0  0  0  0  0  0  0  0  0
   -0.4810    1.5996    0.0000 N   0  0  0  0  0  0  0  0  0  0  0  0
    4.7234    1.7503    0.0000 N   0  0  0  0  0  0  0  0  0  0  0  0
   -2.7761   -0.3013    0.0000 N   0  0  0  0  0  0  0  0  0  0  0  0
   -4.2366   -2.2951    0.0000 N   0  0  0  0  0  0  0  0  0  0  0  0
    2.0111    1.3446    0.0000 C   0  0  0  0  0  0  0  0  0  0  0  0
    2.4864    1.9937    0.0000 C   0  0  0  0  0  0  0  0  0  0  0  0
    3.2861    1.7503    0.0000 C   0  0  0  0  0  0  0  0  0  0  0  0
    1.1765    1.4257    0.0000 C   0  0  0  0  0  0  0  0  0  0  0  0
    3.2745    0.9389    0.0000 C   0  0  0  0  0  0  0  0  0  0  0  0
    0.8403    2.1791    0.0000 C   0  0  0  0  0  0  0  0  0  0  0  0
    4.0048    2.1444    0.0000 C   0  0  0  0  0  0  0  0  0  0  0  0
    2.1502    2.7471    0.0000 C   0  0  0  0  0  0  0  0  0  0  0  0
   -0.1449    0.8578    0.0000 C   0  0  0  0  0  0  0  0  0  0  0  0
    1.3388    2.8282    0.0000 C   0  0  0  0  0  0  0  0  0  0  0  0
    4.0164    0.5216    0.0000 C   0  0  0  0  0  0  0  0  0  0  0  0
    0.0174    2.2603    0.0000 C   0  0  0  0  0  0  0  0  0  0  0  0
   -0.6317    0.1855    0.0000 C   0  0  0  0  0  0  0  0  0  0  0  0
    4.7234    0.9273    0.0000 C   0  0  0  0  0  0  0  0  0  0  0  0
   -1.4431    0.2666    0.0000 C   0  0  0  0  0  0  0  0  0  0  0  0
   -1.9415   -0.3941    0.0000 C   0  0  0  0  0  0  0  0  0  0  0  0
   -0.2956   -0.5680    0.0000 C   0  0  0  0  0  0  0  0  0  0  0  0
   -1.6054   -1.1244    0.0000 C   0  0  0  0  0  0  0  0  0  0  0  0
   -0.7708   -1.2170    0.0000 C   0  0  0  0  0  0  0  0  0  0  0  0
   -3.1238    0.4173    0.0000 C   0  0  0  0  0  0  0  0  0  0  0  0
   -2.9152   -1.7155    0.0000 C   0  0  0  0  0  0  0  0  0  0  0  0
   -3.9352    0.5216    0.0000 C   0  0  0  0  0  0  0  0  0  0  0  0
   -3.4136   -2.3762    0.0000 C   0  0  0  0  0  0  0  0  0  0  0  0
   -4.3641   -0.1855    0.0000 C   0  0  0  0  0  0  0  0  0  0  0  0
   -4.5844   -1.5300    0.0000 C   0  0  0  0  0  0  0  0  0  0  0  0
   -4.7234   -2.9790    0.0000 C   0  0  0  0  0  0  0  0  0  0  0  0
  1 16  2  0  0  0  0
  2 27  1  0  0  0  0
  2 30  1  0  0  0  0
  3 29  2  0  0  0  0
  4 10  1  0  0  0  0
  4 14  1  0  0  0  0
  5 13  2  0  0  0  0
  5 18  1  0  0  0  0
  6 18  2  0  0  0  0
  6 21  1  0  0  0  0
  7 16  1  0  0  0  0
  7 23  1  0  0  0  0
  8 25  1  0  0  0  0
  8 29  1  0  0  0  0
  9 32  1  0  0  0  0
  9 34  1  0  0  0  0
  9 35  1  0  0  0  0
 10 11  2  0  0  0  0
 10 13  1  0  0  0  0
 11 12  1  0  0  0  0
 11 17  1  0  0  0  0
 12 14  2  0  0  0  0
 12 16  1  0  0  0  0
 13 15  1  0  0  0  0
 14 20  1  0  0  0  0
 15 19  1  0  0  0  0
 15 21  2  0  0  0  0
 17 19  1  0  0  0  0
 18 22  1  0  0  0  0
 20 23  1  0  0  0  0
 22 24  2  0  0  0  0
 22 26  1  0  0  0  0
 24 25  1  0  0  0  0
 25 27  2  0  0  0  0
 26 28  2  0  0  0  0
 27 28  1  0  0  0  0
 29 31  1  0  0  0  0
 30 32  1  0  0  0  0
 31 33  2  0  0  0  0
M  END
> <PUBCHEM_COMPOUND_ID_TYPE>
0

> <PUBCHEM_TOTAL_CHARGE>
0

> <PUBCHEM_SUBSTANCE_ID>
310944988

> <PUBCHEM_SUBSTANCE_VERSION>
1

> <PUBCHEM_EXT_DATASOURCE_NAME>
4488

> <PUBCHEM_EXT_DATASOURCE_REGID>
SCHEMBL16123076

> <PUBCHEM_SUBSTANCE_COMMENT>
InChI=1S/C26H28N6O3/c1-4-21(33)29-19-13-15(6-8-20(19)35-12-11-32(2)3)25-28-14-16-5-7-17-22-18(9-10-27-26(22)34)30-24(17)23(16)31-25/h4,6,8,13-14,30H,1,5,7,9-12H2,2-3H3,(H,27,34)(H,29,33)
InChIKey=NUOSSRPTBKXEAB-UHFFFAOYSA-N

> <PUBCHEM_SUBSTANCE_SYNONYM>
SCHEMBL16123076

> <PUBCHEM_XREF_EXT_ID>
SCHEMBL16123076

> <PUBCHEM_EXT_DATASOURCE_URL>
https://www.surechembl.org/

> <PUBCHEM_EXT_SUBSTANCE_URL>
https://www.surechembl.org/chemical/SCHEMBL16123076

> <PUBCHEM_CID_ASSOCIATIONS>
117611131  1

> <PUBCHEM_COORDINATE_TYPE>
1
3

$$$$
