310934723
  -OEChem-07211613022D

 27 26  0     0  0  0  0  0  0999 V2000
    0.6947   -7.4682    0.0000 O   0  0  0  0  0  0  0  0  0  0  0  0
    2.1276   -6.6432    0.0000 O   0  0  0  0  0  0  0  0  0  0  0  0
    1.4329   -7.8590    0.0000 N   0  0  0  0  0  0  0  0  0  0  0  0
    2.1276   -7.4682    0.0000 C   0  0  0  0  0  0  0  0  0  0  0  0
    2.8657   -7.8590    0.0000 C   0  0  0  0  0  0  0  0  0  0  0  0
    3.5604   -7.4682    0.0000 C   0  0  0  0  0  0  0  0  0  0  0  0
    1.4329   -8.6840    0.0000 C   0  0  0  0  0  0  0  0  0  0  0  0
    4.2552   -7.8590    0.0000 C   0  0  0  0  0  0  0  0  0  0  0  0
    4.9933   -7.4682    0.0000 C   0  0  0  0  0  0  0  0  0  0  0  0
    4.9933   -6.6432    0.0000 C   0  0  0  0  0  0  0  0  0  0  0  0
    0.0000   -7.8590    0.0000 C   0  0  0  0  0  0  0  0  0  0  0  0
    4.2986   -6.2090    0.0000 C   0  0  0  0  0  0  0  0  0  0  0  0
    4.2986   -5.3841    0.0000 C   0  0  0  0  0  0  0  0  0  0  0  0
    4.9933   -4.9499    0.0000 C   0  0  0  0  0  0  0  0  0  0  0  0
    5.6880   -5.3407    0.0000 C   0  0  0  0  0  0  0  0  0  0  0  0
    6.4262   -4.9499    0.0000 C   0  0  0  0  0  0  0  0  0  0  0  0
    6.4262   -4.0814    0.0000 C   0  0  0  0  0  0  0  0  0  0  0  0
    5.6880   -3.6907    0.0000 C   0  0  0  0  0  0  0  0  0  0  0  0
    5.6880   -2.8657    0.0000 C   0  0  0  0  0  0  0  0  0  0  0  0
    6.4262   -2.4749    0.0000 C   0  0  0  0  0  0  0  0  0  0  0  0
    7.1209   -2.8657    0.0000 C   0  0  0  0  0  0  0  0  0  0  0  0
    7.8590   -2.4749    0.0000 C   0  0  0  0  0  0  0  0  0  0  0  0
    7.8590   -1.6499    0.0000 C   0  0  0  0  0  0  0  0  0  0  0  0
    7.1209   -1.2158    0.0000 C   0  0  0  0  0  0  0  0  0  0  0  0
    7.1643   -0.3908    0.0000 C   0  0  0  0  0  0  0  0  0  0  0  0
    7.9025    0.0000    0.0000 C   0  0  0  0  0  0  0  0  0  0  0  0
    8.5972   -0.4342    0.0000 C   0  0  0  0  0  0  0  0  0  0  0  0
  1  3  1  0  0  0  0
  1 11  1  0  0  0  0
  2  4  2  0  0  0  0
  3  4  1  0  0  0  0
  3  7  1  0  0  0  0
  4  5  1  0  0  0  0
  5  6  1  0  0  0  0
  6  8  1  0  0  0  0
  8  9  2  0  0  0  0
  9 10  1  0  0  0  0
 10 12  1  0  0  0  0
 12 13  2  0  0  0  0
 13 14  1  0  0  0  0
 14 15  1  0  0  0  0
 15 16  2  0  0  0  0
 16 17  1  0  0  0  0
 17 18  1  0  0  0  0
 18 19  2  0  0  0  0
 19 20  1  0  0  0  0
 20 21  1  0  0  0  0
 21 22  2  0  0  0  0
 22 23  1  0  0  0  0
 23 24  1  0  0  0  0
 24 25  2  0  0  0  0
 25 26  1  0  0  0  0
 26 27  1  0  0  0  0
M  END
> <PUBCHEM_COMPOUND_ID_TYPE>
0

> <PUBCHEM_TOTAL_CHARGE>
0

> <PUBCHEM_SUBSTANCE_ID>
310934723

> <PUBCHEM_SUBSTANCE_VERSION>
1

> <PUBCHEM_EXT_DATASOURCE_NAME>
4488

> <PUBCHEM_EXT_DATASOURCE_REGID>
SCHEMBL16112224

> <PUBCHEM_SUBSTANCE_COMMENT>
InChI=1S/C24H37NO2/c1-4-5-6-7-8-9-10-11-12-13-14-15-16-17-18-19-20-21-22-23-24(26)25(2)27-3/h5-6,8-9,11-12,14-15,17-18,20-21H,4,7,10,13,16,19,22-23H2,1-3H3/b6-5-,9-8-,12-11-,15-14-,18-17-,21-20-
InChIKey=QFXKCJHTVZHCCA-YNUSHXQLSA-N

> <PUBCHEM_SUBSTANCE_SYNONYM>
SCHEMBL16112224

> <PUBCHEM_XREF_EXT_ID>
SCHEMBL16112224

> <PUBCHEM_EXT_DATASOURCE_URL>
https://www.surechembl.org/

> <PUBCHEM_EXT_SUBSTANCE_URL>
https://www.surechembl.org/chemical/SCHEMBL16112224

> <PUBCHEM_CID_ASSOCIATIONS>
117602879  1

> <PUBCHEM_COORDINATE_TYPE>
1
3

$$$$
