310943354
  -OEChem-07211613022D

 40 45  0     0  0  0  0  0  0999 V2000
   -3.2133   -0.0172    0.0000 O   0  0  0  0  0  0  0  0  0  0  0  0
    1.0654   -0.0172    0.0000 O   0  0  0  0  0  0  0  0  0  0  0  0
   -4.6396    2.4745    0.0000 O   0  0  0  0  0  0  0  0  0  0  0  0
   -3.2133   -2.5088    0.0000 O   0  0  0  0  0  0  0  0  0  0  0  0
    3.9350   -0.8420    0.0000 N   0  0  0  0  0  0  0  0  0  0  0  0
   -3.2133    1.6496    0.0000 N   0  0  0  0  0  0  0  0  0  0  0  0
   -1.7871    0.0000    0.0000 N   0  0  0  0  0  0  0  0  0  0  0  0
    3.9350    0.0000    0.0000 N   0  0  0  0  0  0  0  0  0  0  0  0
    1.7871    1.2372    0.0000 N   0  0  0  0  0  0  0  0  0  0  0  0
    0.3609    2.9040    0.0000 N   0  0  0  0  0  0  0  0  0  0  0  0
    4.6396   -2.9040    0.0000 N   0  0  0  0  0  0  0  0  0  0  0  0
    3.1962   -2.0792    0.0000 C   0  0  0  0  0  0  0  0  0  0  0  0
    3.2133   -1.2544    0.0000 C   0  0  0  0  0  0  0  0  0  0  0  0
    2.4057   -2.0964    0.0000 C   0  0  0  0  0  0  0  0  0  0  0  0
    2.8009   -2.7665    0.0000 C   0  0  0  0  0  0  0  0  0  0  0  0
    3.9350   -2.5088    0.0000 C   0  0  0  0  0  0  0  0  0  0  0  0
    2.5088   -0.8420    0.0000 C   0  0  0  0  0  0  0  0  0  0  0  0
   -1.0654    1.2544    0.0000 C   0  0  0  0  0  0  0  0  0  0  0  0
   -2.4917    1.2372    0.0000 C   0  0  0  0  0  0  0  0  0  0  0  0
    2.5088    0.0000    0.0000 C   0  0  0  0  0  0  0  0  0  0  0  0
   -0.3781    1.6496    0.0000 C   0  0  0  0  0  0  0  0  0  0  0  0
   -2.5088    0.4124    0.0000 C   0  0  0  0  0  0  0  0  0  0  0  0
   -1.7871    1.6496    0.0000 C   0  0  0  0  0  0  0  0  0  0  0  0
    1.7871    0.4296    0.0000 C   0  0  0  0  0  0  0  0  0  0  0  0
    1.0654    1.6496    0.0000 C   0  0  0  0  0  0  0  0  0  0  0  0
   -0.3609    2.4917    0.0000 C   0  0  0  0  0  0  0  0  0  0  0  0
    0.3781    1.2372    0.0000 C   0  0  0  0  0  0  0  0  0  0  0  0
   -1.0826    0.3953    0.0000 C   0  0  0  0  0  0  0  0  0  0  0  0
    3.2133    0.4124    0.0000 C   0  0  0  0  0  0  0  0  0  0  0  0
    1.0826    2.4745    0.0000 C   0  0  0  0  0  0  0  0  0  0  0  0
   -3.2133    2.4745    0.0000 C   0  0  0  0  0  0  0  0  0  0  0  0
   -3.9006    1.2544    0.0000 C   0  0  0  0  0  0  0  0  0  0  0  0
   -3.2133   -0.8248    0.0000 C   0  0  0  0  0  0  0  0  0  0  0  0
   -1.0826    2.8868    0.0000 C   0  0  0  0  0  0  0  0  0  0  0  0
   -3.9522    2.8868    0.0000 C   0  0  0  0  0  0  0  0  0  0  0  0
   -4.6396    1.6496    0.0000 C   0  0  0  0  0  0  0  0  0  0  0  0
   -2.4917   -1.2716    0.0000 C   0  0  0  0  0  0  0  0  0  0  0  0
   -3.9178   -1.2544    0.0000 C   0  0  0  0  0  0  0  0  0  0  0  0
   -2.5088   -2.0792    0.0000 C   0  0  0  0  0  0  0  0  0  0  0  0
   -3.9350   -2.0792    0.0000 C   0  0  0  0  0  0  0  0  0  0  0  0
  1 22  1  0  0  0  0
  1 33  1  0  0  0  0
  2 24  2  0  0  0  0
  3 35  1  0  0  0  0
  3 36  1  0  0  0  0
  4 39  1  0  0  0  0
  4 40  1  0  0  0  0
  5  8  2  0  0  0  0
  5 13  1  0  0  0  0
  6 19  1  0  0  0  0
  6 31  1  0  0  0  0
  6 32  1  0  0  0  0
  7 22  2  0  0  0  0
  7 28  1  0  0  0  0
  8 29  1  0  0  0  0
  9 24  1  0  0  0  0
  9 25  1  0  0  0  0
 10 26  1  0  0  0  0
 10 30  2  0  0  0  0
 11 16  3  0  0  0  0
 12 13  1  0  0  0  0
 12 14  1  0  0  0  0
 12 15  1  0  0  0  0
 12 16  1  0  0  0  0
 13 17  2  0  0  0  0
 14 15  1  0  0  0  0
 17 20  1  0  0  0  0
 18 21  1  0  0  0  0
 18 23  1  0  0  0  0
 18 28  2  0  0  0  0
 19 22  1  0  0  0  0
 19 23  2  0  0  0  0
 20 24  1  0  0  0  0
 20 29  2  0  0  0  0
 21 26  2  0  0  0  0
 21 27  1  0  0  0  0
 25 27  2  0  0  0  0
 25 30  1  0  0  0  0
 26 34  1  0  0  0  0
 31 35  1  0  0  0  0
 32 36  1  0  0  0  0
 33 37  1  0  0  0  0
 33 38  1  0  0  0  0
 37 39  1  0  0  0  0
 38 40  1  0  0  0  0
M  END
> <PUBCHEM_COMPOUND_ID_TYPE>
0

> <PUBCHEM_TOTAL_CHARGE>
0

> <PUBCHEM_SUBSTANCE_ID>
310943354

> <PUBCHEM_SUBSTANCE_VERSION>
1

> <PUBCHEM_EXT_DATASOURCE_NAME>
4488

> <PUBCHEM_EXT_DATASOURCE_REGID>
SCHEMBL16121417

> <PUBCHEM_SUBSTANCE_COMMENT>
InChI=1S/C29H31N7O4/c1-19-24(14-22(17-31-19)34-27(37)21-13-26(35-33-16-21)29(18-30)4-5-29)20-12-25(36-6-10-39-11-7-36)28(32-15-20)40-23-2-8-38-9-3-23/h12-17,23H,2-11H2,1H3,(H,34,37)
InChIKey=XMFZTENNSQUAOJ-UHFFFAOYSA-N

> <PUBCHEM_SUBSTANCE_SYNONYM>
SCHEMBL16121417

> <PUBCHEM_XREF_EXT_ID>
SCHEMBL16121417

> <PUBCHEM_EXT_DATASOURCE_URL>
https://www.surechembl.org/

> <PUBCHEM_EXT_SUBSTANCE_URL>
https://www.surechembl.org/chemical/SCHEMBL16121417

> <PUBCHEM_CID_ASSOCIATIONS>
117609778  1

> <PUBCHEM_COORDINATE_TYPE>
1
3

$$$$
