310930713
  -OEChem-07211613022D

 35 39  0     0  0  0  0  0  0999 V2000
   -6.4303    0.8250    0.0000 S   0  0  0  0  0  0  0  0  0  0  0  0
   -6.0178    1.5395    0.0000 O   0  0  0  0  0  0  0  0  0  0  0  0
   -6.8428    0.1106    0.0000 O   0  0  0  0  0  0  0  0  0  0  0  0
   -2.1434   -1.6500    0.0000 O   0  0  0  0  0  0  0  0  0  0  0  0
   -9.2883    2.4750    0.0000 N   0  0  0  0  0  0  0  0  0  0  0  0
   -0.7145    0.8250    0.0000 N   0  0  0  0  0  0  0  0  0  0  0  0
    0.7846    0.6674    0.0000 N   0  0  0  0  0  0  0  0  0  0  0  0
   -2.8579   -0.4125    0.0000 N   0  0  0  0  0  0  0  0  0  0  0  0
    1.2696    0.0000    0.0000 N   0  0  0  0  0  0  0  0  0  0  0  0
  -10.7172    3.3001    0.0000 N   0  0  0  0  0  0  0  0  0  0  0  0
   -7.1449    1.2375    0.0000 C   0  0  0  0  0  0  0  0  0  0  0  0
   -5.7159    0.4125    0.0000 C   0  0  0  0  0  0  0  0  0  0  0  0
   -8.5738    2.0625    0.0000 C   0  0  0  0  0  0  0  0  0  0  0  0
   -7.1449    2.0625    0.0000 C   0  0  0  0  0  0  0  0  0  0  0  0
   -7.8593    0.8250    0.0000 C   0  0  0  0  0  0  0  0  0  0  0  0
    0.0000   -0.4125    0.0000 C   0  0  0  0  0  0  0  0  0  0  0  0
   -5.0014    0.8250    0.0000 C   0  0  0  0  0  0  0  0  0  0  0  0
   -5.7159   -0.4125    0.0000 C   0  0  0  0  0  0  0  0  0  0  0  0
    0.0000    0.4125    0.0000 C   0  0  0  0  0  0  0  0  0  0  0  0
   -1.4290   -0.4125    0.0000 C   0  0  0  0  0  0  0  0  0  0  0  0
   -7.8593    2.4750    0.0000 C   0  0  0  0  0  0  0  0  0  0  0  0
   -8.5738    1.2375    0.0000 C   0  0  0  0  0  0  0  0  0  0  0  0
   -4.2869   -0.4125    0.0000 C   0  0  0  0  0  0  0  0  0  0  0  0
   -0.7145   -0.8250    0.0000 C   0  0  0  0  0  0  0  0  0  0  0  0
   -4.2869    0.4125    0.0000 C   0  0  0  0  0  0  0  0  0  0  0  0
   -5.0014   -0.8250    0.0000 C   0  0  0  0  0  0  0  0  0  0  0  0
   -2.1434   -0.8250    0.0000 C   0  0  0  0  0  0  0  0  0  0  0  0
   -1.4290    0.4125    0.0000 C   0  0  0  0  0  0  0  0  0  0  0  0
    0.7846   -0.6674    0.0000 C   0  0  0  0  0  0  0  0  0  0  0  0
   -3.5724   -0.8250    0.0000 C   0  0  0  0  0  0  0  0  0  0  0  0
  -10.0028    2.0625    0.0000 C   0  0  0  0  0  0  0  0  0  0  0  0
   -9.2883    3.3001    0.0000 C   0  0  0  0  0  0  0  0  0  0  0  0
  -10.7172    2.4750    0.0000 C   0  0  0  0  0  0  0  0  0  0  0  0
  -10.0028    3.7126    0.0000 C   0  0  0  0  0  0  0  0  0  0  0  0
  -11.4318    3.7126    0.0000 C   0  0  0  0  0  0  0  0  0  0  0  0
  1  2  2  0  0  0  0
  1  3  2  0  0  0  0
  1 11  1  0  0  0  0
  1 12  1  0  0  0  0
  4 27  2  0  0  0  0
  5 13  1  0  0  0  0
  5 31  1  0  0  0  0
  5 32  1  0  0  0  0
  6 19  2  0  0  0  0
  6 28  1  0  0  0  0
  7  9  1  0  0  0  0
  7 19  1  0  0  0  0
  8 27  1  0  0  0  0
  8 30  1  0  0  0  0
  9 29  2  0  0  0  0
 10 33  1  0  0  0  0
 10 34  1  0  0  0  0
 10 35  1  0  0  0  0
 11 14  2  0  0  0  0
 11 15  1  0  0  0  0
 12 17  2  0  0  0  0
 12 18  1  0  0  0  0
 13 21  2  0  0  0  0
 13 22  1  0  0  0  0
 14 21  1  0  0  0  0
 15 22  2  0  0  0  0
 16 19  1  0  0  0  0
 16 24  2  0  0  0  0
 16 29  1  0  0  0  0
 17 25  1  0  0  0  0
 18 26  2  0  0  0  0
 20 24  1  0  0  0  0
 20 27  1  0  0  0  0
 20 28  2  0  0  0  0
 23 25  2  0  0  0  0
 23 26  1  0  0  0  0
 23 30  1  0  0  0  0
 31 33  1  0  0  0  0
 32 34  1  0  0  0  0
M  END
> <PUBCHEM_COMPOUND_ID_TYPE>
0

> <PUBCHEM_TOTAL_CHARGE>
0

> <PUBCHEM_SUBSTANCE_ID>
310930713

> <PUBCHEM_SUBSTANCE_VERSION>
1

> <PUBCHEM_EXT_DATASOURCE_NAME>
4488

> <PUBCHEM_EXT_DATASOURCE_REGID>
SCHEMBL16108010

> <PUBCHEM_SUBSTANCE_COMMENT>
InChI=1S/C25H26N6O3S/c1-30-10-12-31(13-11-30)21-4-8-23(9-5-21)35(33,34)22-6-2-18(3-7-22)15-27-25(32)20-14-19-17-28-29-24(19)26-16-20/h2-9,14,16-17H,10-13,15H2,1H3,(H,27,32)(H,26,28,29)
InChIKey=DWLUMTQPFMMKHH-UHFFFAOYSA-N

> <PUBCHEM_SUBSTANCE_SYNONYM>
SCHEMBL16108010

> <PUBCHEM_XREF_EXT_ID>
SCHEMBL16108010

> <PUBCHEM_EXT_DATASOURCE_URL>
https://www.surechembl.org/

> <PUBCHEM_EXT_SUBSTANCE_URL>
https://www.surechembl.org/chemical/SCHEMBL16108010

> <PUBCHEM_CID_ASSOCIATIONS>
117599750  1

> <PUBCHEM_COORDINATE_TYPE>
1
3

$$$$
