310929500
  -OEChem-07211613022D

 54 59  0     1  0  0  0  0  0999 V2000
    5.2412   -1.7619    0.0000 O   0  0  0  0  0  0  0  0  0  0  0  0
    1.6245   -0.6608    0.0000 O   0  0  0  0  0  0  0  0  0  0  0  0
    2.4449   -0.7476    0.0000 O   0  0  0  0  0  0  0  0  0  0  0  0
    3.7049    1.5552    0.0000 O   0  0  0  0  0  0  0  0  0  0  0  0
    5.1338    1.5542    0.0000 O   0  0  0  0  0  0  0  0  0  0  0  0
    6.2464   -4.0236    0.0000 O   0  0  0  0  0  0  0  0  0  0  0  0
    0.4690    0.1799    0.0000 O   0  0  0  0  0  0  0  0  0  0  0  0
    3.7507   -0.1673    0.0000 N   0  0  0  0  0  0  0  0  0  0  0  0
    1.7748    0.7602    0.0000 N   0  0  0  0  0  0  0  0  0  0  0  0
    5.1867   -1.4161    0.0000 N   0  0  0  0  0  0  0  0  0  0  0  0
    4.4185    0.3172    0.0000 C   0  0  3  0  0  0  0  0  0  0  0  0
    4.9062   -1.0080    0.0000 C   0  0  3  0  0  0  0  0  0  0  0  0
    2.5953    0.6734    0.0000 C   0  0  3  0  0  0  0  0  0  0  0  0
    2.9303   -0.0805    0.0000 C   0  0  0  0  0  0  0  0  0  0  0  0
    5.0856   -0.1682    0.0000 C   0  0  0  0  0  0  0  0  0  0  0  0
    4.0858   -0.9212    0.0000 C   0  0  0  0  0  0  0  0  0  0  0  0
    3.0806    1.3405    0.0000 C   0  0  0  0  0  0  0  0  0  0  0  0
    4.4190    1.1422    0.0000 C   0  0  0  0  0  0  0  0  0  0  0  0
    1.1391   -1.3279    0.0000 C   0  0  3  0  0  0  0  0  0  0  0  0
    1.4742   -2.0818    0.0000 C   0  0  3  0  0  0  0  0  0  0  0  0
    4.7559   -2.4290    0.0000 C   0  0  0  0  0  0  0  0  0  0  0  0
    1.2895    0.0931    0.0000 C   0  0  0  0  0  0  0  0  0  0  0  0
    5.0909   -3.1829    0.0000 C   0  0  0  0  0  0  0  0  0  0  0  0
    0.8607   -2.6334    0.0000 C   0  0  3  0  0  0  0  0  0  0  0  0
    0.3186   -1.4136    0.0000 C   0  0  0  0  0  0  0  0  0  0  0  0
    5.9113   -3.2697    0.0000 C   0  0  0  0  0  0  0  0  0  0  0  0
    6.3967   -2.6026    0.0000 C   0  0  0  0  0  0  0  0  0  0  0  0
    6.0617   -1.8487    0.0000 C   0  0  0  0  0  0  0  0  0  0  0  0
    0.1465   -2.2205    0.0000 C   0  0  0  0  0  0  0  0  0  0  0  0
    2.2946   -2.1686    0.0000 C   0  0  0  0  0  0  0  0  0  0  0  0
    3.5660    2.0076    0.0000 C   0  0  0  0  0  0  0  0  0  0  0  0
    2.4135    1.8259    0.0000 C   0  0  0  0  0  0  0  0  0  0  0  0
    3.7477    0.8552    0.0000 C   0  0  0  0  0  0  0  0  0  0  0  0
    4.6055   -3.8500    0.0000 C   0  0  0  0  0  0  0  0  0  0  0  0
    7.2171   -2.6893    0.0000 C   0  0  0  0  0  0  0  0  0  0  0  0
    6.5470   -1.1815    0.0000 C   0  0  0  0  0  0  0  0  0  0  0  0
    0.9464   -3.4540    0.0000 C   0  0  0  0  0  0  0  0  0  0  0  0
    2.6297   -2.9225    0.0000 C   0  0  0  0  0  0  0  0  0  0  0  0
    3.7851   -3.7632    0.0000 C   0  0  0  0  0  0  0  0  0  0  0  0
    3.4501   -3.0093    0.0000 C   0  0  0  0  0  0  0  0  0  0  0  0
    7.7025   -2.0222    0.0000 C   0  0  0  0  0  0  0  0  0  0  0  0
    7.3675   -1.2683    0.0000 C   0  0  0  0  0  0  0  0  0  0  0  0
    7.0668   -4.1104    0.0000 C   0  0  0  0  0  0  0  0  0  0  0  0
    7.4019   -4.8643    0.0000 C   0  0  0  0  0  0  0  0  0  0  0  0
    6.9165   -5.5314    0.0000 C   0  0  0  0  0  0  0  0  0  0  0  0
    8.2223   -4.9510    0.0000 C   0  0  0  0  0  0  0  0  0  0  0  0
    7.2515   -6.2853    0.0000 C   0  0  0  0  0  0  0  0  0  0  0  0
    8.5573   -5.7049    0.0000 C   0  0  0  0  0  0  0  0  0  0  0  0
    8.0720   -6.3721    0.0000 C   0  0  0  0  0  0  0  0  0  0  0  0
    5.1538    0.6912    0.0000 H   0  0  0  0  0  0  0  0  0  0  0  0
    5.7267   -0.9224    0.0000 H   0  0  0  0  0  0  0  0  0  0  0  0
    3.4157    0.5866    0.0000 H   0  0  0  0  0  0  0  0  0  0  0  0
    0.7271   -0.6132    0.0000 H   0  0  0  0  0  0  0  0  0  0  0  0
    1.7286   -2.8666    0.0000 H   0  0  0  0  0  0  0  0  0  0  0  0
  1 12  1  0  0  0  0
  1 21  1  0  0  0  0
  2 19  1  0  0  0  0
  2 22  1  0  0  0  0
  3 14  2  0  0  0  0
  4 18  2  0  0  0  0
  5 18  1  0  0  0  0
  6 26  1  0  0  0  0
  6 43  1  0  0  0  0
  7 22  2  0  0  0  0
  8 11  1  0  0  0  0
  8 14  1  0  0  0  0
  8 16  1  0  0  0  0
  9 13  1  0  0  0  0
  9 22  1  0  0  0  0
 10 21  2  0  0  0  0
 10 28  1  0  0  0  0
 11 15  1  0  0  0  0
 11 18  1  0  0  0  0
 11 50  1  1  0  0  0
 12 15  1  0  0  0  0
 12 16  1  0  0  0  0
 12 51  1  6  0  0  0
 13 14  1  0  0  0  0
 13 17  1  0  0  0  0
 13 52  1  6  0  0  0
 17 31  1  0  0  0  0
 17 32  1  0  0  0  0
 17 33  1  0  0  0  0
 19 20  1  0  0  0  0
 19 25  1  0  0  0  0
 19 53  1  6  0  0  0
 20 24  1  0  0  0  0
 20 30  1  0  0  0  0
 20 54  1  6  0  0  0
 21 23  1  0  0  0  0
 23 26  2  0  0  0  0
 23 34  1  0  0  0  0
 24 29  1  0  0  0  0
 24 37  1  0  0  0  0
 25 29  1  0  0  0  0
 26 27  1  0  0  0  0
 27 28  2  0  0  0  0
 27 35  1  0  0  0  0
 28 36  1  0  0  0  0
 30 38  1  0  0  0  0
 34 39  1  0  0  0  0
 35 41  2  0  0  0  0
 36 42  2  0  0  0  0
 38 40  1  0  0  0  0
 39 40  2  0  0  0  0
 41 42  1  0  0  0  0
 43 44  1  0  0  0  0
 44 45  2  0  0  0  0
 44 46  1  0  0  0  0
 45 47  1  0  0  0  0
 46 48  2  0  0  0  0
 47 49  2  0  0  0  0
 48 49  1  0  0  0  0
M  END
> <PUBCHEM_COMPOUND_ID_TYPE>
0

> <PUBCHEM_TOTAL_CHARGE>
0

> <PUBCHEM_SUBSTANCE_ID>
310929500

> <PUBCHEM_SUBSTANCE_VERSION>
1

> <PUBCHEM_EXT_DATASOURCE_NAME>
4488

> <PUBCHEM_EXT_DATASOURCE_REGID>
SCHEMBL16106677

> <PUBCHEM_SUBSTANCE_COMMENT>
InChI=1S/C39H47N3O7/c1-24-19-20-32-27(24)15-9-6-10-17-29-33(47-23-25-13-7-5-8-14-25)28-16-11-12-18-30(28)40-35(29)48-26-21-31(37(44)45)42(22-26)36(43)34(39(2,3)4)41-38(46)49-32/h5-8,10-14,16,18,24,26-27,31-32,34H,9,15,17,19-23H2,1-4H3,(H,41,46)(H,44,45)/t24?,26-,27+,31+,32-,34-/m1/s1
InChIKey=CAHLKAOQZJBMJU-JYRHBEHCSA-N

> <PUBCHEM_SUBSTANCE_SYNONYM>
SCHEMBL16106677

> <PUBCHEM_XREF_EXT_ID>
SCHEMBL16106677

> <PUBCHEM_EXT_DATASOURCE_URL>
https://www.surechembl.org/

> <PUBCHEM_EXT_SUBSTANCE_URL>
https://www.surechembl.org/chemical/SCHEMBL16106677

> <PUBCHEM_CID_ASSOCIATIONS>
117598826  1

> <PUBCHEM_COORDINATE_TYPE>
1
3

> <PUBCHEM_BONDANNOTATIONS>
11  50  5
12  51  6
13  52  6
19  53  6
20  54  6
40  38  3

$$$$
