310942855
  -OEChem-07211613022D

 55 60  0     1  0  0  0  0  0999 V2000
    3.2385    3.1723    0.0000 F   0  0  0  0  0  0  0  0  0  0  0  0
   -0.0442    2.8189    0.0000 F   0  0  0  0  0  0  0  0  0  0  0  0
    2.0756   -3.7464    0.0000 F   0  0  0  0  0  0  0  0  0  0  0  0
    1.3395    0.4931    0.0000 O   0  0  0  0  0  0  0  0  0  0  0  0
   -0.0883   -0.3312    0.0000 O   0  0  0  0  0  0  0  0  0  0  0  0
    5.1374   -1.7150    0.0000 O   0  0  0  0  0  0  0  0  0  0  0  0
    0.6182    0.9053    0.0000 O   0  0  0  0  0  0  0  0  0  0  0  0
   -6.0207   -0.2429    0.0000 O   0  0  0  0  0  0  0  0  0  0  0  0
   -4.5634    2.2890    0.0000 O   0  0  0  0  0  0  0  0  0  0  0  0
   -2.9441    0.4931    0.0000 O   0  0  0  0  0  0  0  0  0  0  0  0
    3.6507    0.8612    0.0000 N   0  0  0  0  0  0  0  0  0  0  0  0
    2.2670   -0.8759    0.0000 N   0  0  0  0  0  0  0  0  0  0  0  0
    2.3111    0.8612    0.0000 N   0  0  0  0  0  0  0  0  0  0  0  0
    0.2356   -2.6276    0.0000 N   0  0  0  0  0  0  0  0  0  0  0  0
   -0.8096    0.9201    0.0000 N   0  0  0  0  0  0  0  0  0  0  0  0
   -5.0933    0.9201    0.0000 N   0  0  0  0  0  0  0  0  0  0  0  0
    2.9883    0.3754    0.0000 C   0  0  0  0  0  0  0  0  0  0  0  0
    2.9735   -0.4489    0.0000 C   0  0  3  0  0  0  0  0  0  0  0  0
    2.5760    1.6708    0.0000 C   0  0  0  0  0  0  0  0  0  0  0  0
    3.7096   -0.8612    0.0000 C   0  0  0  0  0  0  0  0  0  0  0  0
    3.4004    1.6561    0.0000 C   0  0  0  0  0  0  0  0  0  0  0  0
    2.0903    2.3185    0.0000 C   0  0  0  0  0  0  0  0  0  0  0  0
    1.3248   -0.3459    0.0000 C   0  0  0  0  0  0  0  0  0  0  0  0
    4.4309    0.6109    0.0000 C   0  0  0  0  0  0  0  0  0  0  0  0
    2.2522   -1.9651    0.0000 C   0  0  0  0  0  0  0  0  0  0  0  0
    2.4142    3.0987    0.0000 C   0  0  0  0  0  0  0  0  0  0  0  0
    1.5604   -2.3627    0.0000 C   0  0  3  0  0  0  0  0  0  0  0  0
    3.7096   -1.7002    0.0000 C   0  0  0  0  0  0  0  0  0  0  0  0
    4.4161   -0.4637    0.0000 C   0  0  0  0  0  0  0  0  0  0  0  0
    1.2659    2.2449    0.0000 C   0  0  0  0  0  0  0  0  0  0  0  0
    0.6330   -0.7434    0.0000 C   0  0  3  0  0  0  0  0  0  0  0  0
    5.0196    1.1997    0.0000 C   0  0  0  0  0  0  0  0  0  0  0  0
    0.7802    2.9220    0.0000 C   0  0  0  0  0  0  0  0  0  0  0  0
    1.4573   -3.1870    0.0000 C   0  0  3  0  0  0  0  0  0  0  0  0
    1.9283    3.7464    0.0000 C   0  0  0  0  0  0  0  0  0  0  0  0
    5.1374   -0.8759    0.0000 C   0  0  0  0  0  0  0  0  0  0  0  0
    4.4309   -2.1124    0.0000 C   0  0  0  0  0  0  0  0  0  0  0  0
    0.8244   -2.0535    0.0000 C   0  0  0  0  0  0  0  0  0  0  0  0
    1.1040    3.6727    0.0000 C   0  0  0  0  0  0  0  0  0  0  0  0
    5.8146    0.9937    0.0000 C   0  0  0  0  0  0  0  0  0  0  0  0
    4.8135    1.9799    0.0000 C   0  0  0  0  0  0  0  0  0  0  0  0
    0.6330   -3.3489    0.0000 C   0  0  0  0  0  0  0  0  0  0  0  0
    0.6182   -1.5677    0.0000 C   0  0  0  0  0  0  0  0  0  0  0  0
   -0.1031    0.4931    0.0000 C   0  0  0  0  0  0  0  0  0  0  0  0
    6.4034    1.5825    0.0000 C   0  0  0  0  0  0  0  0  0  0  0  0
    5.3729    2.5834    0.0000 C   0  0  0  0  0  0  0  0  0  0  0  0
    6.1972    2.3774    0.0000 C   0  0  0  0  0  0  0  0  0  0  0  0
   -5.8440    0.6109    0.0000 C   0  0  0  0  0  0  0  0  0  0  0  0
   -5.1963    1.7297    0.0000 C   0  0  0  0  0  0  0  0  0  0  0  0
   -1.5015    0.5078    0.0000 C   0  0  0  0  0  0  0  0  0  0  0  0
   -6.4034    1.1850    0.0000 C   0  0  0  0  0  0  0  0  0  0  0  0
   -5.9912    1.9063    0.0000 C   0  0  0  0  0  0  0  0  0  0  0  0
   -4.3720    0.5078    0.0000 C   0  0  0  0  0  0  0  0  0  0  0  0
   -2.2522    0.9053    0.0000 C   0  0  0  0  0  0  0  0  0  0  0  0
   -3.6948    0.9053    0.0000 C   0  0  0  0  0  0  0  0  0  0  0  0
  1 26  1  0  0  0  0
  2 33  1  0  0  0  0
 34  3  1  1  0  0  0
  4 23  2  0  0  0  0
  5 31  1  0  0  0  0
  5 44  1  0  0  0  0
  6 36  1  0  0  0  0
  6 37  1  0  0  0  0
  7 44  2  0  0  0  0
  8 48  2  0  0  0  0
  9 49  2  0  0  0  0
 10 54  1  0  0  0  0
 10 55  1  0  0  0  0
 11 17  1  0  0  0  0
 11 21  1  0  0  0  0
 11 24  1  0  0  0  0
 18 12  1  1  0  0  0
 12 23  1  0  0  0  0
 12 25  1  0  0  0  0
 13 17  2  0  0  0  0
 13 19  1  0  0  0  0
 14 38  1  0  0  0  0
 14 42  1  0  0  0  0
 15 44  1  0  0  0  0
 15 50  1  0  0  0  0
 16 48  1  0  0  0  0
 16 49  1  0  0  0  0
 16 53  1  0  0  0  0
 17 18  1  0  0  0  0
 18 20  1  0  0  0  0
 19 21  2  0  0  0  0
 19 22  1  0  0  0  0
 20 28  1  0  0  0  0
 20 29  1  0  0  0  0
 22 26  1  0  0  0  0
 22 30  2  0  0  0  0
 23 31  1  0  0  0  0
 24 32  1  0  0  0  0
 27 25  1  1  0  0  0
 26 35  2  0  0  0  0
 27 34  1  0  0  0  0
 27 38  1  0  0  0  0
 28 37  1  0  0  0  0
 29 36  1  0  0  0  0
 30 33  1  0  0  0  0
 31 43  1  6  0  0  0
 32 40  2  0  0  0  0
 32 41  1  0  0  0  0
 33 39  2  0  0  0  0
 34 42  1  0  0  0  0
 35 39  1  0  0  0  0
 40 45  1  0  0  0  0
 41 46  2  0  0  0  0
 45 47  2  0  0  0  0
 46 47  1  0  0  0  0
 48 51  1  0  0  0  0
 49 52  1  0  0  0  0
 50 54  1  0  0  0  0
 51 52  2  0  0  0  0
 53 55  1  0  0  0  0
M  END
> <PUBCHEM_COMPOUND_ID_TYPE>
0

> <PUBCHEM_TOTAL_CHARGE>
0

> <PUBCHEM_SUBSTANCE_ID>
310942855

> <PUBCHEM_SUBSTANCE_VERSION>
1

> <PUBCHEM_EXT_DATASOURCE_NAME>
4488

> <PUBCHEM_EXT_DATASOURCE_REGID>
SCHEMBL16120912

> <PUBCHEM_SUBSTANCE_COMMENT>
InChI=1S/C39H45F3N6O7/c1-25(55-39(52)44-13-17-54-18-14-47-34(49)9-10-35(47)50)38(51)48(23-28-20-43-21-32(28)42)36(27-11-15-53-16-12-27)37-45-33(30-19-29(40)7-8-31(30)41)24-46(37)22-26-5-3-2-4-6-26/h2-10,19,24-25,27-28,32,36,43H,11-18,20-23H2,1H3,(H,44,52)/t25-,28-,32-,36+/m0/s1
InChIKey=QGTSUWFKKJEWFE-FHFMSKRVSA-N

> <PUBCHEM_SUBSTANCE_SYNONYM>
SCHEMBL16120912

> <PUBCHEM_XREF_EXT_ID>
SCHEMBL16120912

> <PUBCHEM_EXT_DATASOURCE_URL>
https://www.surechembl.org/

> <PUBCHEM_EXT_SUBSTANCE_URL>
https://www.surechembl.org/chemical/SCHEMBL16120912

> <PUBCHEM_CID_ASSOCIATIONS>
117609345  1

> <PUBCHEM_COORDINATE_TYPE>
1
3

> <PUBCHEM_BONDANNOTATIONS>
18  12  5
27  25  5
34  3  5
31  43  6

$$$$
