310943239
  -OEChem-07211613022D

 36 40  0     0  0  0  0  0  0999 V2000
    1.0998   -0.0153    0.0000 O   0  0  0  0  0  0  0  0  0  0  0  0
   -4.6741    2.4592    0.0000 O   0  0  0  0  0  0  0  0  0  0  0  0
    3.9867   -0.8401    0.0000 N   0  0  0  0  0  0  0  0  0  0  0  0
   -1.0539    0.3818    0.0000 N   0  0  0  0  0  0  0  0  0  0  0  0
   -3.2230    1.6344    0.0000 N   0  0  0  0  0  0  0  0  0  0  0  0
   -2.5051    0.3818    0.0000 N   0  0  0  0  0  0  0  0  0  0  0  0
    1.8177    1.2220    0.0000 N   0  0  0  0  0  0  0  0  0  0  0  0
    0.3818    2.8717    0.0000 N   0  0  0  0  0  0  0  0  0  0  0  0
    4.6741   -1.2831    0.0000 N   0  0  0  0  0  0  0  0  0  0  0  0
   -1.7871   -0.8554    0.0000 N   0  0  0  0  0  0  0  0  0  0  0  0
    3.2535   -2.0774    0.0000 C   0  0  0  0  0  0  0  0  0  0  0  0
    3.2688   -1.2525    0.0000 C   0  0  0  0  0  0  0  0  0  0  0  0
    3.2535   -2.8870    0.0000 C   0  0  0  0  0  0  0  0  0  0  0  0
    2.5662   -2.5051    0.0000 C   0  0  0  0  0  0  0  0  0  0  0  0
    3.9714   -1.6649    0.0000 C   0  0  0  0  0  0  0  0  0  0  0  0
    2.5356   -0.8401    0.0000 C   0  0  0  0  0  0  0  0  0  0  0  0
   -0.3513    1.6344    0.0000 C   0  0  0  0  0  0  0  0  0  0  0  0
   -1.0539    1.2220    0.0000 C   0  0  0  0  0  0  0  0  0  0  0  0
    2.5509   -0.0153    0.0000 C   0  0  0  0  0  0  0  0  0  0  0  0
   -2.4898    1.2220    0.0000 C   0  0  0  0  0  0  0  0  0  0  0  0
   -1.7871    1.6344    0.0000 C   0  0  0  0  0  0  0  0  0  0  0  0
   -0.3360    2.4592    0.0000 C   0  0  0  0  0  0  0  0  0  0  0  0
    1.0845    1.6344    0.0000 C   0  0  0  0  0  0  0  0  0  0  0  0
    1.8177    0.4124    0.0000 C   0  0  0  0  0  0  0  0  0  0  0  0
    0.3971    1.2220    0.0000 C   0  0  0  0  0  0  0  0  0  0  0  0
   -1.7719   -0.0153    0.0000 C   0  0  0  0  0  0  0  0  0  0  0  0
    3.2535    0.3971    0.0000 C   0  0  0  0  0  0  0  0  0  0  0  0
    3.9714   -0.0153    0.0000 C   0  0  0  0  0  0  0  0  0  0  0  0
    1.0998    2.4439    0.0000 C   0  0  0  0  0  0  0  0  0  0  0  0
   -3.2230    2.4592    0.0000 C   0  0  0  0  0  0  0  0  0  0  0  0
   -3.9256    1.2220    0.0000 C   0  0  0  0  0  0  0  0  0  0  0  0
   -1.0539    2.8870    0.0000 C   0  0  0  0  0  0  0  0  0  0  0  0
   -3.9409    2.8717    0.0000 C   0  0  0  0  0  0  0  0  0  0  0  0
   -4.6588    1.6344    0.0000 C   0  0  0  0  0  0  0  0  0  0  0  0
   -1.0539   -1.2678    0.0000 C   0  0  0  0  0  0  0  0  0  0  0  0
   -1.0539   -2.0927    0.0000 C   0  0  0  0  0  0  0  0  0  0  0  0
  1 24  2  0  0  0  0
  2 33  1  0  0  0  0
  2 34  1  0  0  0  0
  3 12  2  0  0  0  0
  3 28  1  0  0  0  0
  4 18  1  0  0  0  0
  4 26  2  0  0  0  0
  5 20  1  0  0  0  0
  5 30  1  0  0  0  0
  5 31  1  0  0  0  0
  6 20  2  0  0  0  0
  6 26  1  0  0  0  0
  7 23  1  0  0  0  0
  7 24  1  0  0  0  0
  8 22  2  0  0  0  0
  8 29  1  0  0  0  0
  9 15  3  0  0  0  0
 10 26  1  0  0  0  0
 10 35  1  0  0  0  0
 11 12  1  0  0  0  0
 11 13  1  0  0  0  0
 11 14  1  0  0  0  0
 11 15  1  0  0  0  0
 12 16  1  0  0  0  0
 13 14  1  0  0  0  0
 16 19  2  0  0  0  0
 17 18  1  0  0  0  0
 17 22  1  0  0  0  0
 17 25  2  0  0  0  0
 18 21  2  0  0  0  0
 19 24  1  0  0  0  0
 19 27  1  0  0  0  0
 20 21  1  0  0  0  0
 22 32  1  0  0  0  0
 23 25  1  0  0  0  0
 23 29  2  0  0  0  0
 27 28  2  0  0  0  0
 30 33  1  0  0  0  0
 31 34  1  0  0  0  0
 35 36  1  0  0  0  0
M  END
> <PUBCHEM_COMPOUND_ID_TYPE>
0

> <PUBCHEM_TOTAL_CHARGE>
0

> <PUBCHEM_SUBSTANCE_ID>
310943239

> <PUBCHEM_SUBSTANCE_VERSION>
1

> <PUBCHEM_EXT_DATASOURCE_NAME>
4488

> <PUBCHEM_EXT_DATASOURCE_REGID>
SCHEMBL16121301

> <PUBCHEM_SUBSTANCE_COMMENT>
InChI=1S/C26H28N8O2/c1-3-28-25-32-21(14-23(33-25)34-8-10-36-11-9-34)20-13-19(15-30-17(20)2)31-24(35)18-4-7-29-22(12-18)26(16-27)5-6-26/h4,7,12-15H,3,5-6,8-11H2,1-2H3,(H,31,35)(H,28,32,33)
InChIKey=JDLDPVRIUGNTGL-UHFFFAOYSA-N

> <PUBCHEM_SUBSTANCE_SYNONYM>
SCHEMBL16121301

> <PUBCHEM_XREF_EXT_ID>
SCHEMBL16121301

> <PUBCHEM_EXT_DATASOURCE_URL>
https://www.surechembl.org/

> <PUBCHEM_EXT_SUBSTANCE_URL>
https://www.surechembl.org/chemical/SCHEMBL16121301

> <PUBCHEM_CID_ASSOCIATIONS>
117609664  1

> <PUBCHEM_COORDINATE_TYPE>
1
3

$$$$
