310948084
  -OEChem-07211613022D

 34 36  0     0  0  0  0  0  0999 V2000
    1.8748   -1.6955    0.0000 Br  0  0  0  0  0  0  0  0  0  0  0  0
   -3.7170   -2.6084    0.0000 Cl  0  0  0  0  0  0  0  0  0  0  0  0
   -3.8474   -1.4673    0.0000 F   0  0  0  0  0  0  0  0  0  0  0  0
   -4.0594   -0.3587    0.0000 F   0  0  0  0  0  0  0  0  0  0  0  0
   -2.9345   -0.1630    0.0000 F   0  0  0  0  0  0  0  0  0  0  0  0
    3.7986    2.6084    0.0000 F   0  0  0  0  0  0  0  0  0  0  0  0
    2.6737    2.2987    0.0000 F   0  0  0  0  0  0  0  0  0  0  0  0
    4.0594    1.4836    0.0000 F   0  0  0  0  0  0  0  0  0  0  0  0
   -1.4510   -0.1793    0.0000 O   0  0  0  0  0  0  0  0  0  0  0  0
    2.9671    1.1901    0.0000 O   0  0  0  0  0  0  0  0  0  0  0  0
   -0.8967    1.0597    0.0000 N   0  0  0  0  0  0  0  0  0  0  0  0
   -1.4510   -1.6955    0.0000 N   0  0  0  0  0  0  0  0  0  0  0  0
   -1.9400   -1.0107    0.0000 N   0  0  0  0  0  0  0  0  0  0  0  0
   -0.6195   -0.2446    0.0000 C   0  0  0  0  0  0  0  0  0  0  0  0
   -0.2771    0.5054    0.0000 C   0  0  0  0  0  0  0  0  0  0  0  0
   -0.2120   -0.9619    0.0000 C   0  0  0  0  0  0  0  0  0  0  0  0
    0.5217    0.6847    0.0000 C   0  0  0  0  0  0  0  0  0  0  0  0
   -0.6195   -1.6955    0.0000 C   0  0  0  0  0  0  0  0  0  0  0  0
   -1.6140    0.6521    0.0000 C   0  0  0  0  0  0  0  0  0  0  0  0
    0.6358   -0.9781    0.0000 C   0  0  0  0  0  0  0  0  0  0  0  0
    1.0434   -1.6792    0.0000 C   0  0  0  0  0  0  0  0  0  0  0  0
   -0.1956   -2.3965    0.0000 C   0  0  0  0  0  0  0  0  0  0  0  0
    1.1086    0.0652    0.0000 C   0  0  0  0  0  0  0  0  0  0  0  0
    0.7988    1.4673    0.0000 C   0  0  0  0  0  0  0  0  0  0  0  0
    2.1520    1.0271    0.0000 C   0  0  0  0  0  0  0  0  0  0  0  0
    0.6358   -2.3965    0.0000 C   0  0  0  0  0  0  0  0  0  0  0  0
    1.8911    0.2446    0.0000 C   0  0  0  0  0  0  0  0  0  0  0  0
    1.6140    1.6303    0.0000 C   0  0  0  0  0  0  0  0  0  0  0  0
   -2.7389   -2.1030    0.0000 C   0  0  0  0  0  0  0  0  0  0  0  0
   -1.9237   -2.3476    0.0000 C   0  0  0  0  0  0  0  0  0  0  0  0
   -2.7226   -1.2716    0.0000 C   0  0  0  0  0  0  0  0  0  0  0  0
   -3.3910   -0.7988    0.0000 C   0  0  0  0  0  0  0  0  0  0  0  0
   -2.3802    0.9619    0.0000 C   0  0  0  0  0  0  0  0  0  0  0  0
    3.3910    1.8911    0.0000 C   0  0  0  0  0  0  0  0  0  0  0  0
  1 21  1  0  0  0  0
  2 29  1  0  0  0  0
  3 32  1  0  0  0  0
  4 32  1  0  0  0  0
  5 32  1  0  0  0  0
  6 34  1  0  0  0  0
  7 34  1  0  0  0  0
  8 34  1  0  0  0  0
  9 14  1  0  0  0  0
  9 19  1  0  0  0  0
 10 25  1  0  0  0  0
 10 34  1  0  0  0  0
 11 15  1  0  0  0  0
 11 19  2  0  0  0  0
 12 18  1  0  0  0  0
 12 30  1  0  0  0  0
 13 31  2  3  0  0  0
 14 15  2  0  0  0  0
 14 16  1  0  0  0  0
 15 17  1  0  0  0  0
 16 18  1  0  0  0  0
 16 20  2  0  0  0  0
 17 23  2  0  0  0  0
 17 24  1  0  0  0  0
 18 22  2  0  0  0  0
 19 33  1  0  0  0  0
 20 21  1  0  0  0  0
 21 26  2  0  0  0  0
 22 26  1  0  0  0  0
 23 27  1  0  0  0  0
 24 28  2  0  0  0  0
 25 27  2  0  0  0  0
 25 28  1  0  0  0  0
 29 30  2  0  0  0  0
 29 31  1  0  0  0  0
 31 32  1  0  0  0  0
M  END
> <PUBCHEM_COMPOUND_ID_TYPE>
0

> <PUBCHEM_TOTAL_CHARGE>
0

> <PUBCHEM_SUBSTANCE_ID>
310948084

> <PUBCHEM_SUBSTANCE_VERSION>
1

> <PUBCHEM_EXT_DATASOURCE_NAME>
4488

> <PUBCHEM_EXT_DATASOURCE_REGID>
SCHEMBL16126260

> <PUBCHEM_SUBSTANCE_COMMENT>
InChI=1S/C21H13BrClF6N3O2/c1-10-32-17(11-2-5-13(6-3-11)34-21(27,28)29)18(33-10)14-8-12(22)4-7-16(14)31-9-15(23)19(30)20(24,25)26/h2-9,30-31H,1H3/b15-9+,30-19?
InChIKey=HZBXJTXINBNDFS-UFMNLRMNSA-N

> <PUBCHEM_SUBSTANCE_SYNONYM>
SCHEMBL16126260

> <PUBCHEM_XREF_EXT_ID>
SCHEMBL16126260

> <PUBCHEM_EXT_DATASOURCE_URL>
https://www.surechembl.org/

> <PUBCHEM_EXT_SUBSTANCE_URL>
https://www.surechembl.org/chemical/SCHEMBL16126260

> <PUBCHEM_CID_ASSOCIATIONS>
117613703  1

> <PUBCHEM_COORDINATE_TYPE>
1
3

$$$$
