310949581
  -OEChem-07211613022D

 42 46  0     1  0  0  0  0  0999 V2000
   -6.5594   -0.1371    0.0000 F   0  0  0  0  0  0  0  0  0  0  0  0
   -6.8460    0.9468    0.0000 F   0  0  0  0  0  0  0  0  0  0  0  0
   -5.7621    1.2334    0.0000 F   0  0  0  0  0  0  0  0  0  0  0  0
   -1.1399   -0.6852    0.0000 O   0  0  0  0  0  0  0  0  0  0  0  0
   -5.4631    0.1495    0.0000 O   0  0  0  0  0  0  0  0  0  0  0  0
    4.8526    0.2243    0.0000 O   0  0  0  0  0  0  0  0  0  0  0  0
    6.1857    0.6354    0.0000 O   0  0  0  0  0  0  0  0  0  0  0  0
    1.8252    0.3115    0.0000 N   0  0  0  0  0  0  0  0  0  0  0  0
    2.3110    0.9843    0.0000 N   0  0  0  0  0  0  0  0  0  0  0  0
   -1.8501    0.5607    0.0000 N   0  0  0  0  0  0  0  0  0  0  0  0
    1.0154    0.5731    0.0000 C   0  0  0  0  0  0  0  0  0  0  0  0
    1.0278    1.3954    0.0000 C   0  0  0  0  0  0  0  0  0  0  0  0
    1.8127    1.6570    0.0000 C   0  0  0  0  0  0  0  0  0  0  0  0
    0.2928    0.1620    0.0000 C   0  0  0  0  0  0  0  0  0  0  0  0
   -0.4174    0.5731    0.0000 C   0  0  0  0  0  0  0  0  0  0  0  0
    0.3052    1.8065    0.0000 C   0  0  0  0  0  0  0  0  0  0  0  0
    2.0370   -0.4859    0.0000 C   0  0  0  0  0  0  0  0  0  0  0  0
   -0.4049    1.3954    0.0000 C   0  0  0  0  0  0  0  0  0  0  0  0
   -1.1275    0.1744    0.0000 C   0  0  0  0  0  0  0  0  0  0  0  0
    2.8343   -0.7101    0.0000 C   0  0  0  0  0  0  0  0  0  0  0  0
    4.4415   -1.1337    0.0000 C   0  0  0  0  0  0  0  0  0  0  0  0
    5.2513   -1.3455    0.0000 C   0  0  0  0  0  0  0  0  0  0  0  0
    2.2363    2.3672    0.0000 C   0  0  0  0  0  0  0  0  0  0  0  0
    3.0586   -1.5075    0.0000 C   0  0  0  0  0  0  0  0  0  0  0  0
    3.4199   -0.1371    0.0000 C   0  0  0  0  0  0  0  0  0  0  0  0
    5.8244   -0.7600    0.0000 C   0  0  0  0  0  0  0  0  0  0  0  0
   -2.5727    0.1495    0.0000 C   0  0  3  0  0  0  0  0  0  0  0  0
    3.8560   -1.7193    0.0000 C   0  0  0  0  0  0  0  0  0  0  0  0
    4.2172   -0.3364    0.0000 C   0  0  0  0  0  0  0  0  0  0  0  0
   -3.2953    0.5731    0.0000 C   0  0  0  0  0  0  0  0  0  0  0  0
    5.4755   -2.1554    0.0000 C   0  0  0  0  0  0  0  0  0  0  0  0
   -4.0179    0.1620    0.0000 C   0  0  0  0  0  0  0  0  0  0  0  0
   -4.7280    0.5731    0.0000 C   0  0  0  0  0  0  0  0  0  0  0  0
    5.6126    0.0374    0.0000 C   0  0  0  0  0  0  0  0  0  0  0  0
    6.6342   -0.9843    0.0000 C   0  0  0  0  0  0  0  0  0  0  0  0
   -3.2953    1.3954    0.0000 C   0  0  0  0  0  0  0  0  0  0  0  0
    6.2604   -2.3672    0.0000 C   0  0  0  0  0  0  0  0  0  0  0  0
   -4.7156    1.3954    0.0000 C   0  0  0  0  0  0  0  0  0  0  0  0
    6.8460   -1.7815    0.0000 C   0  0  0  0  0  0  0  0  0  0  0  0
   -4.0054    1.8065    0.0000 C   0  0  0  0  0  0  0  0  0  0  0  0
   -6.1608    0.5607    0.0000 C   0  0  0  0  0  0  0  0  0  0  0  0
   -2.5727   -0.6728    0.0000 C   0  0  0  0  0  0  0  0  0  0  0  0
  1 41  1  0  0  0  0
  2 41  1  0  0  0  0
  3 41  1  0  0  0  0
  4 19  2  0  0  0  0
  5 33  1  0  0  0  0
  5 41  1  0  0  0  0
  6 34  2  0  0  0  0
  7 34  1  0  0  0  0
  8  9  1  0  0  0  0
  8 11  1  0  0  0  0
  8 17  1  0  0  0  0
  9 13  2  0  0  0  0
 10 19  1  0  0  0  0
 10 27  1  0  0  0  0
 11 12  1  0  0  0  0
 11 14  2  0  0  0  0
 12 13  1  0  0  0  0
 12 16  2  0  0  0  0
 13 23  1  0  0  0  0
 14 15  1  0  0  0  0
 15 18  2  0  0  0  0
 15 19  1  0  0  0  0
 16 18  1  0  0  0  0
 17 20  1  0  0  0  0
 20 24  2  0  0  0  0
 20 25  1  0  0  0  0
 21 22  1  0  0  0  0
 21 28  2  0  0  0  0
 21 29  1  0  0  0  0
 22 26  1  0  0  0  0
 22 31  2  0  0  0  0
 24 28  1  0  0  0  0
 25 29  2  0  0  0  0
 26 34  1  0  0  0  0
 26 35  2  0  0  0  0
 27 30  1  0  0  0  0
 27 42  1  1  0  0  0
 30 32  2  0  0  0  0
 30 36  1  0  0  0  0
 31 37  1  0  0  0  0
 32 33  1  0  0  0  0
 33 38  2  0  0  0  0
 35 39  1  0  0  0  0
 36 40  2  0  0  0  0
 37 39  2  0  0  0  0
 38 40  1  0  0  0  0
M  END
> <PUBCHEM_COMPOUND_ID_TYPE>
0

> <PUBCHEM_TOTAL_CHARGE>
0

> <PUBCHEM_SUBSTANCE_ID>
310949581

> <PUBCHEM_SUBSTANCE_VERSION>
1

> <PUBCHEM_EXT_DATASOURCE_NAME>
4488

> <PUBCHEM_EXT_DATASOURCE_REGID>
SCHEMBL16127778

> <PUBCHEM_SUBSTANCE_COMMENT>
InChI=1S/C32H26F3N3O4/c1-19(23-6-5-7-25(16-23)42-32(33,34)35)36-30(39)24-14-15-26-20(2)37-38(29(26)17-24)18-21-10-12-22(13-11-21)27-8-3-4-9-28(27)31(40)41/h3-17,19H,18H2,1-2H3,(H,36,39)(H,40,41)/t19-/m0/s1
InChIKey=KZVZKRXAIRGPFE-IBGZPJMESA-N

> <PUBCHEM_SUBSTANCE_SYNONYM>
SCHEMBL16127778

> <PUBCHEM_XREF_EXT_ID>
SCHEMBL16127778

> <PUBCHEM_EXT_DATASOURCE_URL>
https://www.surechembl.org/

> <PUBCHEM_EXT_SUBSTANCE_URL>
https://www.surechembl.org/chemical/SCHEMBL16127778

> <PUBCHEM_CID_ASSOCIATIONS>
71577901  1

> <PUBCHEM_COORDINATE_TYPE>
1
3

> <PUBCHEM_BONDANNOTATIONS>
27  42  5

$$$$
