310944893
  -OEChem-07211613022D

 38 43  0     0  0  0  0  0  0999 V2000
   -1.0282    2.5659    0.0000 Cl  0  0  0  0  0  0  0  0  0  0  0  0
    2.1368    2.5659    0.0000 F   0  0  0  0  0  0  0  0  0  0  0  0
   -4.8904   -1.8686    0.0000 N   0  0  0  0  0  0  0  0  0  0  0  0
   -4.4792   -2.5838    0.0000 N   0  0  0  0  0  0  0  0  0  0  0  0
    4.3362   -1.2427    0.0000 N   0  0  0  0  0  0  0  0  0  0  0  0
    3.6746   -2.4228    0.0000 N   0  0  0  0  0  0  0  0  0  0  0  0
    4.8904   -1.8686    0.0000 N   0  0  0  0  0  0  0  0  0  0  0  0
    4.4792   -2.5838    0.0000 N   0  0  0  0  0  0  0  0  0  0  0  0
   -0.7063    0.9387    0.0000 C   0  0  0  0  0  0  0  0  0  0  0  0
   -0.7421    0.1162    0.0000 C   0  0  0  0  0  0  0  0  0  0  0  0
   -0.0089    1.3500    0.0000 C   0  0  0  0  0  0  0  0  0  0  0  0
   -1.4752    1.3679    0.0000 C   0  0  0  0  0  0  0  0  0  0  0  0
   -1.4394   -0.3129    0.0000 C   0  0  0  0  0  0  0  0  0  0  0  0
   -0.0089   -0.3129    0.0000 C   0  0  0  0  0  0  0  0  0  0  0  0
   -0.0089    2.1904    0.0000 C   0  0  0  0  0  0  0  0  0  0  0  0
   -2.2262    1.1533    0.0000 C   0  0  0  0  0  0  0  0  0  0  0  0
   -1.6718    2.1368    0.0000 C   0  0  0  0  0  0  0  0  0  0  0  0
    0.6884    0.9567    0.0000 C   0  0  0  0  0  0  0  0  0  0  0  0
   -2.1726    0.0984    0.0000 C   0  0  0  0  0  0  0  0  0  0  0  0
   -1.4573   -1.1533    0.0000 C   0  0  0  0  0  0  0  0  0  0  0  0
    0.0089   -1.1355    0.0000 C   0  0  0  0  0  0  0  0  0  0  0  0
    0.7063    0.0984    0.0000 C   0  0  0  0  0  0  0  0  0  0  0  0
   -2.8699   -1.1355    0.0000 C   0  0  0  0  0  0  0  0  0  0  0  0
   -2.4408    1.9401    0.0000 C   0  0  0  0  0  0  0  0  0  0  0  0
    0.6884    2.5838    0.0000 C   0  0  0  0  0  0  0  0  0  0  0  0
   -2.8520   -0.3129    0.0000 C   0  0  0  0  0  0  0  0  0  0  0  0
   -2.1547   -1.5467    0.0000 C   0  0  0  0  0  0  0  0  0  0  0  0
    1.4394    2.1904    0.0000 C   0  0  0  0  0  0  0  0  0  0  0  0
    1.4216    1.3500    0.0000 C   0  0  0  0  0  0  0  0  0  0  0  0
    1.4216   -1.1355    0.0000 C   0  0  0  0  0  0  0  0  0  0  0  0
   -3.5851   -1.5467    0.0000 C   0  0  0  0  0  0  0  0  0  0  0  0
    0.7063   -1.5467    0.0000 C   0  0  0  0  0  0  0  0  0  0  0  0
    1.4216   -0.3129    0.0000 C   0  0  0  0  0  0  0  0  0  0  0  0
   -4.3541   -1.2248    0.0000 C   0  0  0  0  0  0  0  0  0  0  0  0
   -3.6924   -2.3871    0.0000 C   0  0  0  0  0  0  0  0  0  0  0  0
    2.1547   -1.5646    0.0000 C   0  0  0  0  0  0  0  0  0  0  0  0
    2.8520   -1.1533    0.0000 C   0  0  0  0  0  0  0  0  0  0  0  0
    3.5851   -1.5467    0.0000 C   0  0  0  0  0  0  0  0  0  0  0  0
  1 15  1  0  0  0  0
  2 28  1  0  0  0  0
  3  4  1  0  0  0  0
  3 34  2  0  0  0  0
  4 35  1  0  0  0  0
  5  7  2  0  0  0  0
  5 38  1  0  0  0  0
  6  8  1  0  0  0  0
  6 38  2  0  0  0  0
  7  8  1  0  0  0  0
  9 10  2  0  0  0  0
  9 11  1  0  0  0  0
  9 12  1  0  0  0  0
 10 13  1  0  0  0  0
 10 14  1  0  0  0  0
 11 15  1  0  0  0  0
 11 18  2  0  0  0  0
 12 16  1  0  0  0  0
 12 17  1  0  0  0  0
 13 19  2  0  0  0  0
 13 20  1  0  0  0  0
 14 21  2  0  0  0  0
 14 22  1  0  0  0  0
 15 25  2  0  0  0  0
 16 24  1  0  0  0  0
 17 24  1  0  0  0  0
 18 29  1  0  0  0  0
 19 26  1  0  0  0  0
 20 27  2  0  0  0  0
 21 32  1  0  0  0  0
 22 33  2  0  0  0  0
 23 26  2  0  0  0  0
 23 27  1  0  0  0  0
 23 31  1  0  0  0  0
 25 28  1  0  0  0  0
 28 29  2  0  0  0  0
 30 32  2  0  0  0  0
 30 33  1  0  0  0  0
 30 36  1  0  0  0  0
 31 34  1  0  0  0  0
 31 35  2  0  0  0  0
 36 37  2  0  0  0  0
 37 38  1  0  0  0  0
M  END
> <PUBCHEM_COMPOUND_ID_TYPE>
0

> <PUBCHEM_TOTAL_CHARGE>
0

> <PUBCHEM_SUBSTANCE_ID>
310944893

> <PUBCHEM_SUBSTANCE_VERSION>
1

> <PUBCHEM_EXT_DATASOURCE_NAME>
4488

> <PUBCHEM_EXT_DATASOURCE_REGID>
SCHEMBL16122977

> <PUBCHEM_SUBSTANCE_COMMENT>
InChI=1S/C30H24ClFN6/c31-27-16-25(32)13-14-26(27)30(21-2-1-3-21)29(23-11-9-20(10-12-23)24-17-33-34-18-24)22-7-4-19(5-8-22)6-15-28-35-37-38-36-28/h4-18,21H,1-3H2,(H,33,34)(H,35,36,37,38)/b15-6+,30-29+
InChIKey=HUGPWRCPJRAPCL-RYSIYLRZSA-N

> <PUBCHEM_SUBSTANCE_SYNONYM>
SCHEMBL16122977

> <PUBCHEM_XREF_EXT_ID>
SCHEMBL16122977

> <PUBCHEM_EXT_DATASOURCE_URL>
https://www.surechembl.org/

> <PUBCHEM_EXT_SUBSTANCE_URL>
https://www.surechembl.org/chemical/SCHEMBL16122977

> <PUBCHEM_CID_ASSOCIATIONS>
86270614  1

> <PUBCHEM_COORDINATE_TYPE>
1
3

$$$$
