310944912
  -OEChem-07211613022D

 15 16  0     0  0  0  0  0  0999 V2000
   -2.8021   -1.2953    0.0000 S   0  0  0  0  0  0  0  0  0  0  0  0
   -2.6964    0.0088    0.0000 N   0  0  0  0  0  0  0  0  0  0  0  0
   -1.1807    0.0969    0.0000 C   0  0  0  0  0  0  0  0  0  0  0  0
   -1.9033   -0.3260    0.0000 C   0  0  0  0  0  0  0  0  0  0  0  0
   -0.4230   -0.2908    0.0000 C   0  0  0  0  0  0  0  0  0  0  0  0
    0.2644    0.1145    0.0000 C   0  0  0  0  0  0  0  0  0  0  0  0
   -1.9914   -1.1367    0.0000 C   0  0  0  0  0  0  0  0  0  0  0  0
   -1.1983    0.8723    0.0000 C   0  0  0  0  0  0  0  0  0  0  0  0
   -3.2427   -0.6080    0.0000 C   0  0  0  0  0  0  0  0  0  0  0  0
    0.2467    0.9076    0.0000 C   0  0  0  0  0  0  0  0  0  0  0  0
   -0.4935    1.2953    0.0000 C   0  0  0  0  0  0  0  0  0  0  0  0
    1.0045   -0.2732    0.0000 C   0  0  0  0  0  0  0  0  0  0  0  0
    1.7623   -0.6608    0.0000 C   0  0  0  0  0  0  0  0  0  0  0  0
    2.5201   -1.0486    0.0000 C   0  0  0  0  0  0  0  0  0  0  0  0
    3.2427   -0.6608    0.0000 C   0  0  0  0  0  0  0  0  0  0  0  0
  1  7  1  0  0  0  0
  1  9  1  0  0  0  0
  2  4  1  0  0  0  0
  2  9  2  0  0  0  0
  3  4  1  0  0  0  0
  3  5  2  0  0  0  0
  3  8  1  0  0  0  0
  4  7  2  0  0  0  0
  5  6  1  0  0  0  0
  6 10  2  0  0  0  0
  6 12  1  0  0  0  0
  8 11  2  0  0  0  0
 10 11  1  0  0  0  0
 12 13  3  0  0  0  0
 13 14  1  0  0  0  0
 14 15  1  0  0  0  0
M  END
> <PUBCHEM_COMPOUND_ID_TYPE>
0

> <PUBCHEM_TOTAL_CHARGE>
0

> <PUBCHEM_SUBSTANCE_ID>
310944912

> <PUBCHEM_SUBSTANCE_VERSION>
1

> <PUBCHEM_EXT_DATASOURCE_NAME>
4488

> <PUBCHEM_EXT_DATASOURCE_REGID>
SCHEMBL16122997

> <PUBCHEM_SUBSTANCE_COMMENT>
InChI=1S/C13H11NS/c1-2-3-5-11-6-4-7-12(8-11)13-9-15-10-14-13/h4,6-10H,2H2,1H3
InChIKey=GKJCJDTVHSCJDW-UHFFFAOYSA-N

> <PUBCHEM_SUBSTANCE_SYNONYM>
SCHEMBL16122997

> <PUBCHEM_XREF_EXT_ID>
SCHEMBL16122997

> <PUBCHEM_EXT_DATASOURCE_URL>
https://www.surechembl.org/

> <PUBCHEM_EXT_SUBSTANCE_URL>
https://www.surechembl.org/chemical/SCHEMBL16122997

> <PUBCHEM_CID_ASSOCIATIONS>
117611087  1

> <PUBCHEM_COORDINATE_TYPE>
1
3

$$$$
