310944083
  -OEChem-07211613022D

 27 31  0     1  0  0  0  0  0999 V2000
    2.7351    1.1946    0.0000 O   0  0  0  0  0  0  0  0  0  0  0  0
    0.6916   -0.2200    0.0000 N   0  0  0  0  0  0  0  0  0  0  0  0
   -2.2792   -0.2672    0.0000 N   0  0  0  0  0  0  0  0  0  0  0  0
   -2.6093    0.4873    0.0000 N   0  0  0  0  0  0  0  0  0  0  0  0
    1.4777   -0.5658    0.0000 C   0  0  3  0  0  0  0  0  0  0  0  0
    0.7702    0.6601    0.0000 C   0  0  3  0  0  0  0  0  0  0  0  0
   -2.9079   -0.8173    0.0000 C   0  0  0  0  0  0  0  0  0  0  0  0
   -3.6310   -0.4088    0.0000 C   0  0  0  0  0  0  0  0  0  0  0  0
    2.1378    0.6287    0.0000 C   0  0  0  0  0  0  0  0  0  0  0  0
    1.4147    1.0217    0.0000 C   0  0  0  0  0  0  0  0  0  0  0  0
    2.1221   -0.2200    0.0000 C   0  0  0  0  0  0  0  0  0  0  0  0
   -0.2358   -0.8488    0.0000 C   0  0  0  0  0  0  0  0  0  0  0  0
    1.9334   -0.0314    0.0000 C   0  0  0  0  0  0  0  0  0  0  0  0
    1.4777    0.7859    0.0000 C   0  0  0  0  0  0  0  0  0  0  0  0
   -0.9746   -0.4402    0.0000 C   0  0  3  0  0  0  0  0  0  0  0  0
   -1.6819   -0.8488    0.0000 C   0  0  0  0  0  0  0  0  0  0  0  0
   -3.4424    0.4088    0.0000 C   0  0  0  0  0  0  0  0  0  0  0  0
   -2.9079   -1.6504    0.0000 C   0  0  0  0  0  0  0  0  0  0  0  0
   -4.3384   -0.8173    0.0000 C   0  0  0  0  0  0  0  0  0  0  0  0
   -4.3699   -1.6662    0.0000 C   0  0  0  0  0  0  0  0  0  0  0  0
   -3.6154   -2.0749    0.0000 C   0  0  0  0  0  0  0  0  0  0  0  0
    4.2756    1.4147    0.0000 C   0  0  0  0  0  0  0  0  0  0  0  0
    3.5682    1.0060    0.0000 C   0  0  0  0  0  0  0  0  0  0  0  0
   -1.0060    0.4716    0.0000 C   0  0  0  0  0  0  0  0  0  0  0  0
    4.6684    2.1064    0.0000 C   0  0  0  0  0  0  0  0  0  0  0  0
    5.0772    1.4462    0.0000 C   0  0  0  0  0  0  0  0  0  0  0  0
   -5.0772   -2.1064    0.0000 C   0  0  0  0  0  0  0  0  0  0  0  0
  9  1  1  1  0  0  0
  1 23  1  0  0  0  0
  5  2  1  6  0  0  0
  6  2  1  6  0  0  0
  2 12  1  0  0  0  0
  3  4  1  0  0  0  0
  3  7  1  0  0  0  0
  3 16  1  0  0  0  0
  4 17  2  0  0  0  0
  5 11  1  0  0  0  0
  5 13  1  0  0  0  0
  6 10  1  0  0  0  0
  6 14  1  0  0  0  0
  7  8  2  0  0  0  0
  7 18  1  0  0  0  0
  8 17  1  0  0  0  0
  8 19  1  0  0  0  0
  9 10  1  0  0  0  0
  9 11  1  0  0  0  0
 12 15  1  0  0  0  0
 13 14  1  0  0  0  0
 15 16  1  0  0  0  0
 15 24  1  6  0  0  0
 18 21  2  0  0  0  0
 19 20  2  0  0  0  0
 20 21  1  0  0  0  0
 20 27  1  0  0  0  0
 22 23  1  0  0  0  0
 22 25  1  0  0  0  0
 22 26  1  0  0  0  0
 25 26  1  0  0  0  0
M  END
> <PUBCHEM_COMPOUND_ID_TYPE>
0

> <PUBCHEM_TOTAL_CHARGE>
0

> <PUBCHEM_SUBSTANCE_ID>
310944083

> <PUBCHEM_SUBSTANCE_VERSION>
1

> <PUBCHEM_EXT_DATASOURCE_NAME>
4488

> <PUBCHEM_EXT_DATASOURCE_REGID>
SCHEMBL16122158

> <PUBCHEM_SUBSTANCE_COMMENT>
InChI=1S/C23H33N3O/c1-16-3-8-23-19(9-16)12-24-26(23)14-17(2)13-25-20-6-7-21(25)11-22(10-20)27-15-18-4-5-18/h3,8-9,12,17-18,20-22H,4-7,10-11,13-15H2,1-2H3/t17-,20-,21+,22+/m1/s1
InChIKey=JRJZHTCPZCYIBW-GFRNBQLOSA-N

> <PUBCHEM_SUBSTANCE_SYNONYM>
SCHEMBL16122158

> <PUBCHEM_XREF_EXT_ID>
SCHEMBL16122158

> <PUBCHEM_EXT_DATASOURCE_URL>
https://www.surechembl.org/

> <PUBCHEM_EXT_SUBSTANCE_URL>
https://www.surechembl.org/chemical/SCHEMBL16122158

> <PUBCHEM_CID_ASSOCIATIONS>
117610375  1

> <PUBCHEM_COORDINATE_TYPE>
1
3

> <PUBCHEM_BONDANNOTATIONS>
9  1  5
15  24  6
5  2  6
6  2  6

$$$$
