310945851
  -OEChem-07211613022D

 39 41  0     1  0  0  0  0  0999 V2000
    5.1312    0.6902    0.0000 O   0  0  0  0  0  0  0  0  0  0  0  0
    3.9879   -1.2898    0.0000 O   0  0  0  0  0  0  0  0  0  0  0  0
    1.8127    0.8018    0.0000 O   0  0  0  0  0  0  0  0  0  0  0  0
   -0.3625   -1.2898    0.0000 O   0  0  0  0  0  0  0  0  0  0  0  0
    3.9879   -2.9630    0.0000 O   0  0  0  0  0  0  0  0  0  0  0  0
   -2.5238    0.8018    0.0000 O   0  0  0  0  0  0  0  0  0  0  0  0
   -3.9739   -0.0349    0.0000 O   0  0  0  0  0  0  0  0  0  0  0  0
    2.5517   -0.4392    0.0000 N   0  0  0  0  0  0  0  0  0  0  0  0
    0.3765   -0.0209    0.0000 N   0  0  0  0  0  0  0  0  0  0  0  0
   -1.7987   -0.4392    0.0000 N   0  0  0  0  0  0  0  0  0  0  0  0
    4.6990   -0.0070    0.0000 C   0  0  3  0  0  0  0  0  0  0  0  0
    3.9739   -0.4253    0.0000 C   0  0  0  0  0  0  0  0  0  0  0  0
    4.3225    0.7041    0.0000 C   0  0  0  0  0  0  0  0  0  0  0  0
    3.2628   -0.0209    0.0000 C   0  0  3  0  0  0  0  0  0  0  0  0
    5.4101   -0.4253    0.0000 C   0  0  0  0  0  0  0  0  0  0  0  0
    3.2768    1.3038    0.0000 C   0  0  0  0  0  0  0  0  0  0  0  0
    1.8127   -0.0349    0.0000 C   0  0  0  0  0  0  0  0  0  0  0  0
    1.1016   -0.4392    0.0000 C   0  0  3  0  0  0  0  0  0  0  0  0
    2.5378    1.7499    0.0000 C   0  0  0  0  0  0  0  0  0  0  0  0
    1.0876   -1.2898    0.0000 C   0  0  0  0  0  0  0  0  0  0  0  0
    1.8266   -1.6942    0.0000 C   0  0  0  0  0  0  0  0  0  0  0  0
   -0.3486   -0.4114    0.0000 C   0  0  0  0  0  0  0  0  0  0  0  0
    1.8406    1.3177    0.0000 C   0  0  0  0  0  0  0  0  0  0  0  0
    2.5378    2.5587    0.0000 C   0  0  0  0  0  0  0  0  0  0  0  0
   -1.0876   -0.0209    0.0000 C   0  0  3  0  0  0  0  0  0  0  0  0
    2.5378   -1.2898    0.0000 C   0  0  0  0  0  0  0  0  0  0  0  0
    1.8266   -2.5168    0.0000 C   0  0  0  0  0  0  0  0  0  0  0  0
    1.1016    1.7359    0.0000 C   0  0  0  0  0  0  0  0  0  0  0  0
    1.8127    2.9630    0.0000 C   0  0  0  0  0  0  0  0  0  0  0  0
    3.2628   -2.5168    0.0000 C   0  0  0  0  0  0  0  0  0  0  0  0
    3.2628   -1.6942    0.0000 C   0  0  0  0  0  0  0  0  0  0  0  0
    2.5657   -2.9352    0.0000 C   0  0  0  0  0  0  0  0  0  0  0  0
    1.1016    2.5587    0.0000 C   0  0  0  0  0  0  0  0  0  0  0  0
   -2.5238   -0.0488    0.0000 C   0  0  0  0  0  0  0  0  0  0  0  0
   -1.0737    0.8018    0.0000 C   0  0  0  0  0  0  0  0  0  0  0  0
   -3.2349   -0.4392    0.0000 C   0  0  0  0  0  0  0  0  0  0  0  0
    4.7130   -2.5168    0.0000 C   0  0  0  0  0  0  0  0  0  0  0  0
   -4.6851   -0.4392    0.0000 C   0  0  0  0  0  0  0  0  0  0  0  0
   -5.4101   -0.0209    0.0000 C   0  0  0  0  0  0  0  0  0  0  0  0
  1 11  1  0  0  0  0
  1 13  1  0  0  0  0
  2 12  2  0  0  0  0
  3 17  2  0  0  0  0
  4 22  2  0  0  0  0
  5 30  1  0  0  0  0
  5 37  1  0  0  0  0
  6 34  2  0  0  0  0
  7 36  1  0  0  0  0
  7 38  1  0  0  0  0
 14  8  1  1  0  0  0
  8 17  1  0  0  0  0
 18  9  1  6  0  0  0
  9 22  1  0  0  0  0
 10 25  1  0  0  0  0
 10 34  1  0  0  0  0
 11 12  1  1  0  0  0
 11 13  1  0  0  0  0
 11 15  1  6  0  0  0
 12 14  1  0  0  0  0
 14 16  1  0  0  0  0
 16 19  1  0  0  0  0
 17 18  1  0  0  0  0
 18 20  1  0  0  0  0
 19 23  2  0  0  0  0
 19 24  1  0  0  0  0
 20 21  1  0  0  0  0
 21 26  2  0  0  0  0
 21 27  1  0  0  0  0
 22 25  1  0  0  0  0
 23 28  1  0  0  0  0
 24 29  2  0  0  0  0
 25 35  1  1  0  0  0
 26 31  1  0  0  0  0
 27 32  2  0  0  0  0
 28 33  2  0  0  0  0
 29 33  1  0  0  0  0
 30 31  2  0  0  0  0
 30 32  1  0  0  0  0
 34 36  1  0  0  0  0
 38 39  1  0  0  0  0
M  END
> <PUBCHEM_COMPOUND_ID_TYPE>
0

> <PUBCHEM_TOTAL_CHARGE>
0

> <PUBCHEM_SUBSTANCE_ID>
310945851

> <PUBCHEM_SUBSTANCE_VERSION>
1

> <PUBCHEM_EXT_DATASOURCE_NAME>
4488

> <PUBCHEM_EXT_DATASOURCE_REGID>
SCHEMBL16123956

> <PUBCHEM_SUBSTANCE_COMMENT>
InChI=1S/C29H37N3O7/c1-5-38-17-25(33)30-19(2)27(35)32-24(16-21-11-13-22(37-4)14-12-21)28(36)31-23(26(34)29(3)18-39-29)15-20-9-7-6-8-10-20/h6-14,19,23-24H,5,15-18H2,1-4H3,(H,30,33)(H,31,36)(H,32,35)/t19-,23-,24-,29+/m0/s1
InChIKey=ANFLBCVDNZWCRE-BWHDGOAMSA-N

> <PUBCHEM_SUBSTANCE_SYNONYM>
SCHEMBL16123956

> <PUBCHEM_XREF_EXT_ID>
SCHEMBL16123956

> <PUBCHEM_EXT_DATASOURCE_URL>
https://www.surechembl.org/

> <PUBCHEM_EXT_SUBSTANCE_URL>
https://www.surechembl.org/chemical/SCHEMBL16123956

> <PUBCHEM_CID_ASSOCIATIONS>
78425861  1

> <PUBCHEM_COORDINATE_TYPE>
1
3

> <PUBCHEM_BONDANNOTATIONS>
11  12  5
11  15  6
25  35  5
14  8  5
18  9  6

$$$$
