310943214
  -OEChem-07211613022D

 38 41  0     1  0  0  0  0  0999 V2000
    1.0573   -0.2030    0.0000 O   0  0  0  0  0  0  0  0  0  0  0  0
   -4.6437    2.2838    0.0000 O   0  0  0  0  0  0  0  0  0  0  0  0
   -0.3806   -2.7067    0.0000 O   0  0  0  0  0  0  0  0  0  0  0  0
   -1.0742    0.2030    0.0000 N   0  0  0  0  0  0  0  0  0  0  0  0
   -3.2226    1.4549    0.0000 N   0  0  0  0  0  0  0  0  0  0  0  0
   -2.5121    0.2030    0.0000 N   0  0  0  0  0  0  0  0  0  0  0  0
    0.3468    2.7067    0.0000 N   0  0  0  0  0  0  0  0  0  0  0  0
    1.7678    1.0319    0.0000 N   0  0  0  0  0  0  0  0  0  0  0  0
   -1.7847   -1.0488    0.0000 N   0  0  0  0  0  0  0  0  0  0  0  0
    3.9163   -1.0488    0.0000 N   0  0  0  0  0  0  0  0  0  0  0  0
    4.6437   -1.5225    0.0000 N   0  0  0  0  0  0  0  0  0  0  0  0
   -1.0742    1.0488    0.0000 C   0  0  0  0  0  0  0  0  0  0  0  0
   -0.3806    1.4549    0.0000 C   0  0  0  0  0  0  0  0  0  0  0  0
   -2.4952    1.0488    0.0000 C   0  0  0  0  0  0  0  0  0  0  0  0
   -1.8017    1.4549    0.0000 C   0  0  0  0  0  0  0  0  0  0  0  0
   -0.3637    2.3007    0.0000 C   0  0  0  0  0  0  0  0  0  0  0  0
   -1.7847   -0.2030    0.0000 C   0  0  0  0  0  0  0  0  0  0  0  0
    0.3637    1.0488    0.0000 C   0  0  0  0  0  0  0  0  0  0  0  0
    1.0404    1.4549    0.0000 C   0  0  0  0  0  0  0  0  0  0  0  0
    2.4952   -0.2030    0.0000 C   0  0  0  0  0  0  0  0  0  0  0  0
    3.2057   -1.4549    0.0000 C   0  0  0  0  0  0  0  0  0  0  0  0
    1.7847    0.2368    0.0000 C   0  0  0  0  0  0  0  0  0  0  0  0
    1.0742    2.2668    0.0000 C   0  0  0  0  0  0  0  0  0  0  0  0
    3.2057   -2.2668    0.0000 C   0  0  0  0  0  0  0  0  0  0  0  0
    2.4952   -1.0488    0.0000 C   0  0  0  0  0  0  0  0  0  0  0  0
   -3.2226    2.2838    0.0000 C   0  0  0  0  0  0  0  0  0  0  0  0
   -3.9163    1.0488    0.0000 C   0  0  0  0  0  0  0  0  0  0  0  0
    3.1888    0.2030    0.0000 C   0  0  0  0  0  0  0  0  0  0  0  0
   -1.0912    2.6898    0.0000 C   0  0  0  0  0  0  0  0  0  0  0  0
    3.8993   -0.2030    0.0000 C   0  0  0  0  0  0  0  0  0  0  0  0
    3.9163   -1.8777    0.0000 C   0  0  0  0  0  0  0  0  0  0  0  0
   -3.9332    2.7067    0.0000 C   0  0  0  0  0  0  0  0  0  0  0  0
   -4.6267    1.4380    0.0000 C   0  0  0  0  0  0  0  0  0  0  0  0
   -1.0742   -1.4718    0.0000 C   0  0  0  0  0  0  0  0  0  0  0  0
    2.4783   -2.6898    0.0000 C   0  0  0  0  0  0  0  0  0  0  0  0
    3.9332   -2.7067    0.0000 C   0  0  0  0  0  0  0  0  0  0  0  0
   -1.0742   -2.2838    0.0000 C   0  0  3  0  0  0  0  0  0  0  0  0
   -1.7847   -2.7067    0.0000 C   0  0  0  0  0  0  0  0  0  0  0  0
  1 22  2  0  0  0  0
  2 32  1  0  0  0  0
  2 33  1  0  0  0  0
 37  3  1  1  0  0  0
  4 12  1  0  0  0  0
  4 17  2  0  0  0  0
  5 14  1  0  0  0  0
  5 26  1  0  0  0  0
  5 27  1  0  0  0  0
  6 14  2  0  0  0  0
  6 17  1  0  0  0  0
  7 16  2  0  0  0  0
  7 23  1  0  0  0  0
  8 19  1  0  0  0  0
  8 22  1  0  0  0  0
  9 17  1  0  0  0  0
  9 34  1  0  0  0  0
 10 21  2  0  0  0  0
 10 30  1  0  0  0  0
 11 31  3  0  0  0  0
 12 13  1  0  0  0  0
 12 15  2  0  0  0  0
 13 16  1  0  0  0  0
 13 18  2  0  0  0  0
 14 15  1  0  0  0  0
 16 29  1  0  0  0  0
 18 19  1  0  0  0  0
 19 23  2  0  0  0  0
 20 22  1  0  0  0  0
 20 25  2  0  0  0  0
 20 28  1  0  0  0  0
 21 24  1  0  0  0  0
 21 25  1  0  0  0  0
 24 31  1  0  0  0  0
 24 35  1  0  0  0  0
 24 36  1  0  0  0  0
 26 32  1  0  0  0  0
 27 33  1  0  0  0  0
 28 30  2  0  0  0  0
 34 37  1  0  0  0  0
 37 38  1  0  0  0  0
M  END
> <PUBCHEM_COMPOUND_ID_TYPE>
0

> <PUBCHEM_TOTAL_CHARGE>
0

> <PUBCHEM_SUBSTANCE_ID>
310943214

> <PUBCHEM_SUBSTANCE_VERSION>
1

> <PUBCHEM_EXT_DATASOURCE_NAME>
4488

> <PUBCHEM_EXT_DATASOURCE_REGID>
SCHEMBL16121275

> <PUBCHEM_SUBSTANCE_COMMENT>
InChI=1S/C27H32N8O3/c1-17(36)14-31-26-33-22(13-24(34-26)35-7-9-38-10-8-35)21-12-20(15-30-18(21)2)32-25(37)19-5-6-29-23(11-19)27(3,4)16-28/h5-6,11-13,15,17,36H,7-10,14H2,1-4H3,(H,32,37)(H,31,33,34)/t17-/m0/s1
InChIKey=DEMGQTZMUXZFMW-KRWDZBQOSA-N

> <PUBCHEM_SUBSTANCE_SYNONYM>
SCHEMBL16121275

> <PUBCHEM_XREF_EXT_ID>
SCHEMBL16121275

> <PUBCHEM_EXT_DATASOURCE_URL>
https://www.surechembl.org/

> <PUBCHEM_EXT_SUBSTANCE_URL>
https://www.surechembl.org/chemical/SCHEMBL16121275

> <PUBCHEM_CID_ASSOCIATIONS>
117609640  1

> <PUBCHEM_COORDINATE_TYPE>
1
3

> <PUBCHEM_BONDANNOTATIONS>
37  3  5

$$$$
