310931951
  -OEChem-07211613022D

 34 37  0     0  0  0  0  0  0999 V2000
    4.0183   -2.7166    0.0000 O   0  0  0  0  0  0  0  0  0  0  0  0
    8.4894   -2.8015    0.0000 O   0  0  0  0  0  0  0  0  0  0  0  0
    4.9239   -1.5847    0.0000 N   0  0  0  0  0  0  0  0  0  0  0  0
    4.8389   -0.7641    0.0000 N   0  0  0  0  0  0  0  0  0  0  0  0
    6.3387   -1.5847    0.0000 N   0  0  0  0  0  0  0  0  0  0  0  0
    7.7819   -4.0466    0.0000 N   0  0  0  0  0  0  0  0  0  0  0  0
    0.0000   -2.4336    0.0000 N   0  0  0  0  0  0  0  0  0  0  0  0
    4.9239   -4.0466    0.0000 N   0  0  0  0  0  0  0  0  0  0  0  0
    3.5939   -1.3017    0.0000 C   0  0  0  0  0  0  0  0  0  0  0  0
    4.1881   -1.9242    0.0000 C   0  0  0  0  0  0  0  0  0  0  0  0
    2.8015   -1.4149    0.0000 C   0  0  0  0  0  0  0  0  0  0  0  0
    5.6313   -1.9809    0.0000 C   0  0  0  0  0  0  0  0  0  0  0  0
    4.0183   -0.5942    0.0000 C   0  0  0  0  0  0  0  0  0  0  0  0
    2.2921   -0.7357    0.0000 C   0  0  0  0  0  0  0  0  0  0  0  0
    2.4619   -2.1506    0.0000 C   0  0  0  0  0  0  0  0  0  0  0  0
    5.6313   -2.8015    0.0000 C   0  0  0  0  0  0  0  0  0  0  0  0
    7.0462   -2.8015    0.0000 C   0  0  0  0  0  0  0  0  0  0  0  0
    1.4715   -0.8489    0.0000 C   0  0  0  0  0  0  0  0  0  0  0  0
    7.0462   -1.9809    0.0000 C   0  0  0  0  0  0  0  0  0  0  0  0
    6.3387   -3.2260    0.0000 C   0  0  0  0  0  0  0  0  0  0  0  0
    1.1602   -1.5847    0.0000 C   0  0  0  0  0  0  0  0  0  0  0  0
    7.7819   -3.2260    0.0000 C   0  0  0  0  0  0  0  0  0  0  0  0
    1.6413   -2.2638    0.0000 C   0  0  0  0  0  0  0  0  0  0  0  0
    2.6317    0.0000    0.0000 C   0  0  0  0  0  0  0  0  0  0  0  0
    0.3396   -1.6979    0.0000 C   0  0  0  0  0  0  0  0  0  0  0  0
    7.0744   -4.4428    0.0000 C   0  0  0  0  0  0  0  0  0  0  0  0
    8.4894   -4.4428    0.0000 C   0  0  0  0  0  0  0  0  0  0  0  0
    6.3387   -4.0466    0.0000 C   0  0  0  0  0  0  0  0  0  0  0  0
    5.6313   -4.4428    0.0000 C   0  0  0  0  0  0  0  0  0  0  0  0
    4.2164   -4.4711    0.0000 C   0  0  0  0  0  0  0  0  0  0  0  0
    4.9239   -3.2260    0.0000 C   0  0  0  0  0  0  0  0  0  0  0  0
    3.5089   -4.0749    0.0000 C   0  0  0  0  0  0  0  0  0  0  0  0
    4.2164   -2.8298    0.0000 C   0  0  0  0  0  0  0  0  0  0  0  0
    3.5089   -3.2260    0.0000 C   0  0  0  0  0  0  0  0  0  0  0  0
  1 10  1  0  0  0  0
  2 22  2  0  0  0  0
  3  4  1  0  0  0  0
  3 10  1  0  0  0  0
  3 12  1  0  0  0  0
  4 13  2  0  0  0  0
  5 12  2  0  0  0  0
  5 19  1  0  0  0  0
  6 22  1  0  0  0  0
  6 26  1  0  0  0  0
  6 27  1  0  0  0  0
  7 25  3  0  0  0  0
  8 29  1  0  0  0  0
  8 30  1  0  0  0  0
  8 31  1  0  0  0  0
  9 10  2  0  0  0  0
  9 11  1  0  0  0  0
  9 13  1  0  0  0  0
 11 14  1  0  0  0  0
 11 15  2  0  0  0  0
 12 16  1  0  0  0  0
 14 18  2  0  0  0  0
 14 24  1  0  0  0  0
 15 23  1  0  0  0  0
 16 20  2  0  0  0  0
 17 19  2  0  0  0  0
 17 20  1  0  0  0  0
 17 22  1  0  0  0  0
 18 21  1  0  0  0  0
 21 23  2  0  0  0  0
 21 25  1  0  0  0  0
 26 28  1  0  0  0  0
 28 29  1  0  0  0  0
 30 32  1  0  0  0  0
 31 33  1  0  0  0  0
 32 34  1  0  0  0  0
 33 34  1  0  0  0  0
M  END
> <PUBCHEM_COMPOUND_ID_TYPE>
0

> <PUBCHEM_TOTAL_CHARGE>
0

> <PUBCHEM_SUBSTANCE_ID>
310931951

> <PUBCHEM_SUBSTANCE_VERSION>
1

> <PUBCHEM_EXT_DATASOURCE_NAME>
4488

> <PUBCHEM_EXT_DATASOURCE_REGID>
SCHEMBL16109288

> <PUBCHEM_SUBSTANCE_COMMENT>
InChI=1S/C26H30N6O2/c1-19-15-20(16-27)7-9-22(19)23-18-29-32(26(23)34)24-10-8-21(17-28-24)25(33)30(2)11-6-14-31-12-4-3-5-13-31/h7-10,15,17-18,34H,3-6,11-14H2,1-2H3
InChIKey=PLCZHRFZPQMUTG-UHFFFAOYSA-N

> <PUBCHEM_SUBSTANCE_SYNONYM>
SCHEMBL16109288

> <PUBCHEM_XREF_EXT_ID>
SCHEMBL16109288

> <PUBCHEM_EXT_DATASOURCE_URL>
https://www.surechembl.org/

> <PUBCHEM_EXT_SUBSTANCE_URL>
https://www.surechembl.org/chemical/SCHEMBL16109288

> <PUBCHEM_CID_ASSOCIATIONS>
117600600  1

> <PUBCHEM_COORDINATE_TYPE>
1
3

$$$$
