310945585
  -OEChem-07211613022D

 27 29  0     1  0  0  0  0  0999 V2000
   -1.7686   -2.8867    0.0000 O   0  0  0  0  0  0  0  0  0  0  0  0
   -1.7686    2.8867    0.0000 O   0  0  0  0  0  0  0  0  0  0  0  0
   -1.7686    0.4124    0.0000 N   0  0  0  0  0  0  0  0  0  0  0  0
   -0.3391    2.0619    0.0000 N   0  0  0  0  0  0  0  0  0  0  0  0
   -1.0538   -0.8156    0.0000 N   0  0  0  0  0  0  0  0  0  0  0  0
    1.0905    0.4124    0.0000 N   0  0  0  0  0  0  0  0  0  0  0  0
   -2.4834    1.6587    0.0000 N   0  0  0  0  0  0  0  0  0  0  0  0
    2.5201   -0.4124    0.0000 N   0  0  0  0  0  0  0  0  0  0  0  0
   -1.0722    0.8339    0.0000 C   0  0  0  0  0  0  0  0  0  0  0  0
   -1.0538    1.6587    0.0000 C   0  0  0  0  0  0  0  0  0  0  0  0
   -1.7870   -0.4124    0.0000 C   0  0  0  0  0  0  0  0  0  0  0  0
    0.3757    0.8339    0.0000 C   0  0  0  0  0  0  0  0  0  0  0  0
   -0.3207    0.4124    0.0000 C   0  0  0  0  0  0  0  0  0  0  0  0
   -1.7686   -2.0619    0.0000 C   0  0  0  0  0  0  0  0  0  0  0  0
   -1.0538   -1.6403    0.0000 C   0  0  0  0  0  0  0  0  0  0  0  0
   -2.5018   -1.6403    0.0000 C   0  0  0  0  0  0  0  0  0  0  0  0
   -2.4651   -0.8156    0.0000 C   0  0  0  0  0  0  0  0  0  0  0  0
   -1.7870    2.0436    0.0000 C   0  0  0  0  0  0  0  0  0  0  0  0
    0.3757    1.6403    0.0000 C   0  0  0  0  0  0  0  0  0  0  0  0
    1.8236    0.8339    0.0000 C   0  0  3  0  0  0  0  0  0  0  0  0
    2.5201    0.4307    0.0000 C   0  0  3  0  0  0  0  0  0  0  0  0
    1.8236    1.6587    0.0000 C   0  0  0  0  0  0  0  0  0  0  0  0
   -0.3207   -2.0436    0.0000 C   0  0  0  0  0  0  0  0  0  0  0  0
   -3.2166   -2.0802    0.0000 C   0  0  0  0  0  0  0  0  0  0  0  0
    3.2166    0.8339    0.0000 C   0  0  0  0  0  0  0  0  0  0  0  0
    2.5018    2.0619    0.0000 C   0  0  0  0  0  0  0  0  0  0  0  0
    3.2166    1.6403    0.0000 C   0  0  0  0  0  0  0  0  0  0  0  0
  1 14  1  0  0  0  0
  2 18  2  0  0  0  0
  3  9  1  0  0  0  0
  3 11  1  0  0  0  0
  4 10  1  0  0  0  0
  4 19  2  0  0  0  0
  5 11  1  0  0  0  0
  5 15  2  0  0  0  0
  6 12  1  0  0  0  0
 20  6  1  6  0  0  0
  7 18  1  0  0  0  0
 21  8  1  6  0  0  0
  9 10  2  0  0  0  0
  9 13  1  0  0  0  0
 10 18  1  0  0  0  0
 11 17  2  0  0  0  0
 12 13  2  0  0  0  0
 12 19  1  0  0  0  0
 14 15  1  0  0  0  0
 14 16  2  0  0  0  0
 15 23  1  0  0  0  0
 16 17  1  0  0  0  0
 16 24  1  0  0  0  0
 20 21  1  0  0  0  0
 20 22  1  0  0  0  0
 21 25  1  0  0  0  0
 22 26  1  0  0  0  0
 25 27  1  0  0  0  0
 26 27  1  0  0  0  0
M  END
> <PUBCHEM_COMPOUND_ID_TYPE>
0

> <PUBCHEM_TOTAL_CHARGE>
0

> <PUBCHEM_SUBSTANCE_ID>
310945585

> <PUBCHEM_SUBSTANCE_VERSION>
1

> <PUBCHEM_EXT_DATASOURCE_NAME>
4488

> <PUBCHEM_EXT_DATASOURCE_REGID>
SCHEMBL16123684

> <PUBCHEM_SUBSTANCE_COMMENT>
InChI=1S/C19H26N6O2/c1-10-7-16(23-11(2)18(10)26)25-15-8-12(9-22-17(15)19(21)27)24-14-6-4-3-5-13(14)20/h7-9,13-14,24,26H,3-6,20H2,1-2H3,(H2,21,27)(H,23,25)/t13-,14+/m0/s1
InChIKey=TXTYYQNXWLYHRA-UONOGXRCSA-N

> <PUBCHEM_SUBSTANCE_SYNONYM>
SCHEMBL16123684

> <PUBCHEM_XREF_EXT_ID>
SCHEMBL16123684

> <PUBCHEM_EXT_DATASOURCE_URL>
https://www.surechembl.org/

> <PUBCHEM_EXT_SUBSTANCE_URL>
https://www.surechembl.org/chemical/SCHEMBL16123684

> <PUBCHEM_CID_ASSOCIATIONS>
86272165  1

> <PUBCHEM_COORDINATE_TYPE>
1
3

> <PUBCHEM_BONDANNOTATIONS>
20  6  6
21  8  6

$$$$
