310931267
  -OEChem-07211613022D

 29 32  0     0  0  0  0  0  0999 V2000
    2.1762   -2.4730    0.0000 S   0  0  0  0  0  0  0  0  0  0  0  0
    2.6378   -3.2313    0.0000 O   0  0  0  0  0  0  0  0  0  0  0  0
    1.8135   -1.7476    0.0000 O   0  0  0  0  0  0  0  0  0  0  0  0
    6.4956    0.0000    0.0000 O   0  0  0  0  0  0  0  0  0  0  0  0
    8.6388   -1.2200    0.0000 N   0  0  0  0  0  0  0  0  0  0  0  0
    7.8805   -2.4730    0.0000 N   0  0  0  0  0  0  0  0  0  0  0  0
    9.3972   -2.3081    0.0000 N   0  0  0  0  0  0  0  0  0  0  0  0
    0.7254   -4.0886    0.0000 N   0  0  0  0  0  0  0  0  0  0  0  0
    5.7702   -1.2200    0.0000 N   0  0  0  0  0  0  0  0  0  0  0  0
    1.4838   -2.8686    0.0000 C   0  0  0  0  0  0  0  0  0  0  0  0
    2.9016   -2.0443    0.0000 C   0  0  0  0  0  0  0  0  0  0  0  0
    0.7254   -2.4730    0.0000 C   0  0  0  0  0  0  0  0  0  0  0  0
    8.6388   -2.0773    0.0000 C   0  0  0  0  0  0  0  0  0  0  0  0
    7.1880   -1.2200    0.0000 C   0  0  0  0  0  0  0  0  0  0  0  0
    3.6270   -2.4730    0.0000 C   0  0  0  0  0  0  0  0  0  0  0  0
    2.9016   -1.2200    0.0000 C   0  0  0  0  0  0  0  0  0  0  0  0
    1.4508   -3.6930    0.0000 C   0  0  0  0  0  0  0  0  0  0  0  0
    7.8805   -0.8243    0.0000 C   0  0  0  0  0  0  0  0  0  0  0  0
    4.3524   -1.2200    0.0000 C   0  0  0  0  0  0  0  0  0  0  0  0
    6.4956   -0.8243    0.0000 C   0  0  0  0  0  0  0  0  0  0  0  0
    4.3524   -2.0443    0.0000 C   0  0  0  0  0  0  0  0  0  0  0  0
    3.6270   -0.8243    0.0000 C   0  0  0  0  0  0  0  0  0  0  0  0
    7.1880   -2.0773    0.0000 C   0  0  0  0  0  0  0  0  0  0  0  0
    0.0330   -2.8686    0.0000 C   0  0  0  0  0  0  0  0  0  0  0  0
    9.3972   -0.9892    0.0000 C   0  0  0  0  0  0  0  0  0  0  0  0
    5.0778   -0.7913    0.0000 C   0  0  0  0  0  0  0  0  0  0  0  0
    9.8918   -1.6486    0.0000 C   0  0  0  0  0  0  0  0  0  0  0  0
    0.0000   -3.6930    0.0000 C   0  0  0  0  0  0  0  0  0  0  0  0
    0.7254   -1.6486    0.0000 C   0  0  0  0  0  0  0  0  0  0  0  0
  1  2  2  0  0  0  0
  1  3  2  0  0  0  0
  1 10  1  0  0  0  0
  1 11  1  0  0  0  0
  4 20  2  0  0  0  0
  5 13  1  0  0  0  0
  5 18  1  0  0  0  0
  5 25  1  0  0  0  0
  6 13  1  0  0  0  0
  6 23  2  0  0  0  0
  7 13  2  0  0  0  0
  7 27  1  0  0  0  0
  8 17  1  0  0  0  0
  8 28  2  0  0  0  0
  9 20  1  0  0  0  0
  9 26  1  0  0  0  0
 10 12  1  0  0  0  0
 10 17  2  0  0  0  0
 11 15  2  0  0  0  0
 11 16  1  0  0  0  0
 12 24  2  0  0  0  0
 12 29  1  0  0  0  0
 14 18  2  0  0  0  0
 14 20  1  0  0  0  0
 14 23  1  0  0  0  0
 15 21  1  0  0  0  0
 16 22  2  0  0  0  0
 19 21  2  0  0  0  0
 19 22  1  0  0  0  0
 19 26  1  0  0  0  0
 24 28  1  0  0  0  0
 25 27  2  0  0  0  0
M  END
> <PUBCHEM_COMPOUND_ID_TYPE>
0

> <PUBCHEM_TOTAL_CHARGE>
0

> <PUBCHEM_SUBSTANCE_ID>
310931267

> <PUBCHEM_SUBSTANCE_VERSION>
1

> <PUBCHEM_EXT_DATASOURCE_NAME>
4488

> <PUBCHEM_EXT_DATASOURCE_REGID>
SCHEMBL16108581

> <PUBCHEM_SUBSTANCE_COMMENT>
InChI=1S/C20H17N5O3S/c1-14-6-7-21-12-18(14)29(27,28)17-4-2-15(3-5-17)10-23-19(26)16-11-24-20-22-8-9-25(20)13-16/h2-9,11-13H,10H2,1H3,(H,23,26)
InChIKey=GCJGZMGTEBRPMS-UHFFFAOYSA-N

> <PUBCHEM_SUBSTANCE_SYNONYM>
SCHEMBL16108581

> <PUBCHEM_XREF_EXT_ID>
SCHEMBL16108581

> <PUBCHEM_EXT_DATASOURCE_URL>
https://www.surechembl.org/

> <PUBCHEM_EXT_SUBSTANCE_URL>
https://www.surechembl.org/chemical/SCHEMBL16108581

> <PUBCHEM_CID_ASSOCIATIONS>
117600096  1

> <PUBCHEM_COORDINATE_TYPE>
1
3

$$$$
