310940973
  -OEChem-07211613022D

 41 44  0     1  0  0  0  0  0999 V2000
    5.2336   -1.4326    0.0000 O   0  0  0  0  0  0  0  0  0  0  0  0
    4.0933    0.5409    0.0000 O   0  0  0  0  0  0  0  0  0  0  0  0
    1.7104   -1.4180    0.0000 O   0  0  0  0  0  0  0  0  0  0  0  0
   -0.4678    0.6578    0.0000 O   0  0  0  0  0  0  0  0  0  0  0  0
    2.4267    3.1723    0.0000 O   0  0  0  0  0  0  0  0  0  0  0  0
    3.8740    2.3244    0.0000 O   0  0  0  0  0  0  0  0  0  0  0  0
   -2.6314   -1.4180    0.0000 O   0  0  0  0  0  0  0  0  0  0  0  0
   -5.5113   -1.4180    0.0000 O   0  0  0  0  0  0  0  0  0  0  0  0
    2.4121   -0.1754    0.0000 N   0  0  0  0  0  0  0  0  0  0  0  0
    0.2485   -0.5848    0.0000 N   0  0  0  0  0  0  0  0  0  0  0  0
   -1.9150   -0.1754    0.0000 N   0  0  0  0  0  0  0  0  0  0  0  0
   -4.0786   -0.5848    0.0000 N   0  0  0  0  0  0  0  0  0  0  0  0
    4.8096   -0.7017    0.0000 C   0  0  3  0  0  0  0  0  0  0  0  0
    4.0201   -0.2778    0.0000 C   0  0  0  0  0  0  0  0  0  0  0  0
    4.4003   -1.3888    0.0000 C   0  0  0  0  0  0  0  0  0  0  0  0
    3.3769   -0.6725    0.0000 C   0  0  3  0  0  0  0  0  0  0  0  0
    5.5113   -0.2778    0.0000 C   0  0  0  0  0  0  0  0  0  0  0  0
    3.3477   -1.7689    0.0000 C   0  0  0  0  0  0  0  0  0  0  0  0
    1.6958   -0.5409    0.0000 C   0  0  0  0  0  0  0  0  0  0  0  0
    0.9795   -0.1462    0.0000 C   0  0  3  0  0  0  0  0  0  0  0  0
    2.6460   -2.1928    0.0000 C   0  0  0  0  0  0  0  0  0  0  0  0
    0.9941    0.6871    0.0000 C   0  0  0  0  0  0  0  0  0  0  0  0
    1.6812    1.1111    0.0000 C   0  0  0  0  0  0  0  0  0  0  0  0
   -0.4824   -0.1608    0.0000 C   0  0  0  0  0  0  0  0  0  0  0  0
    1.8712   -1.8566    0.0000 C   0  0  0  0  0  0  0  0  0  0  0  0
    2.5437   -3.0114    0.0000 C   0  0  0  0  0  0  0  0  0  0  0  0
    1.7104    1.9443    0.0000 C   0  0  0  0  0  0  0  0  0  0  0  0
   -1.1841   -0.5555    0.0000 C   0  0  3  0  0  0  0  0  0  0  0  0
    2.4267    2.3682    0.0000 C   0  0  0  0  0  0  0  0  0  0  0  0
    2.4267    0.7017    0.0000 C   0  0  0  0  0  0  0  0  0  0  0  0
    3.1430    1.9443    0.0000 C   0  0  0  0  0  0  0  0  0  0  0  0
    1.3303   -2.4706    0.0000 C   0  0  0  0  0  0  0  0  0  0  0  0
    1.7250   -3.1723    0.0000 C   0  0  0  0  0  0  0  0  0  0  0  0
    3.1430    1.1111    0.0000 C   0  0  0  0  0  0  0  0  0  0  0  0
   -2.6314   -0.5409    0.0000 C   0  0  0  0  0  0  0  0  0  0  0  0
   -3.3769   -0.1462    0.0000 C   0  0  0  0  0  0  0  0  0  0  0  0
   -1.1841   -1.3742    0.0000 C   0  0  0  0  0  0  0  0  0  0  0  0
   -4.0786   -1.3888    0.0000 C   0  0  0  0  0  0  0  0  0  0  0  0
   -4.8096   -0.1462    0.0000 C   0  0  0  0  0  0  0  0  0  0  0  0
   -4.7950   -1.8128    0.0000 C   0  0  0  0  0  0  0  0  0  0  0  0
   -5.5113   -0.5555    0.0000 C   0  0  0  0  0  0  0  0  0  0  0  0
  1 13  1  0  0  0  0
  1 15  1  0  0  0  0
  2 14  2  0  0  0  0
  3 19  2  0  0  0  0
  4 24  2  0  0  0  0
  5 29  1  0  0  0  0
  6 31  1  0  0  0  0
  7 35  2  0  0  0  0
  8 40  1  0  0  0  0
  8 41  1  0  0  0  0
 16  9  1  6  0  0  0
  9 19  1  0  0  0  0
 20 10  1  1  0  0  0
 10 24  1  0  0  0  0
 11 28  1  0  0  0  0
 11 35  1  0  0  0  0
 12 36  1  0  0  0  0
 12 38  1  0  0  0  0
 12 39  1  0  0  0  0
 13 14  1  6  0  0  0
 13 15  1  0  0  0  0
 13 17  1  1  0  0  0
 14 16  1  0  0  0  0
 16 18  1  0  0  0  0
 18 21  1  0  0  0  0
 19 20  1  0  0  0  0
 20 22  1  0  0  0  0
 21 25  1  0  0  0  0
 21 26  1  0  0  0  0
 22 23  1  0  0  0  0
 23 27  1  0  0  0  0
 23 30  2  0  0  0  0
 24 28  1  0  0  0  0
 25 32  1  0  0  0  0
 26 33  1  0  0  0  0
 27 29  2  0  0  0  0
 28 37  1  6  0  0  0
 29 31  1  0  0  0  0
 30 34  1  0  0  0  0
 31 34  2  0  0  0  0
 32 33  1  0  0  0  0
 35 36  1  0  0  0  0
 38 40  1  0  0  0  0
 39 41  1  0  0  0  0
M  END
> <PUBCHEM_COMPOUND_ID_TYPE>
0

> <PUBCHEM_TOTAL_CHARGE>
0

> <PUBCHEM_SUBSTANCE_ID>
310940973

> <PUBCHEM_SUBSTANCE_VERSION>
1

> <PUBCHEM_EXT_DATASOURCE_NAME>
4488

> <PUBCHEM_EXT_DATASOURCE_REGID>
SCHEMBL16118932

> <PUBCHEM_SUBSTANCE_COMMENT>
InChI=1S/C29H42N4O8/c1-18(30-25(36)16-33-9-11-40-12-10-33)27(38)32-22(14-20-7-8-23(34)24(35)15-20)28(39)31-21(13-19-5-3-4-6-19)26(37)29(2)17-41-29/h7-8,15,18-19,21-22,34-35H,3-6,9-14,16-17H2,1-2H3,(H,30,36)(H,31,39)(H,32,38)/t18-,21-,22-,29+/m0/s1
InChIKey=KJTBONIOPBNOQA-BBORSNQOSA-N

> <PUBCHEM_SUBSTANCE_SYNONYM>
SCHEMBL16118932

> <PUBCHEM_XREF_EXT_ID>
SCHEMBL16118932

> <PUBCHEM_EXT_DATASOURCE_URL>
https://www.surechembl.org/

> <PUBCHEM_EXT_SUBSTANCE_URL>
https://www.surechembl.org/chemical/SCHEMBL16118932

> <PUBCHEM_CID_ASSOCIATIONS>
117607881  1

> <PUBCHEM_COORDINATE_TYPE>
1
3

> <PUBCHEM_BONDANNOTATIONS>
20  10  5
13  14  6
13  17  5
28  37  6
16  9  6

$$$$
