310929168
  -OEChem-07211613022D

 59 64  0     0  0  0  0  0  0999 V2000
  -12.1460   -1.2375    0.0000 S   0  0  0  0  0  0  0  0  0  0  0  0
   -5.7158    0.0000    0.0000 O   0  0  0  0  0  0  0  0  0  0  0  0
  -10.0026    0.0000    0.0000 O   0  0  0  0  0  0  0  0  0  0  0  0
   -9.2881    0.4125    0.0000 O   0  0  0  0  0  0  0  0  0  0  0  0
  -11.7335   -1.9520    0.0000 O   0  0  0  0  0  0  0  0  0  0  0  0
  -12.5585   -0.5231    0.0000 O   0  0  0  0  0  0  0  0  0  0  0  0
    0.0000   -0.8250    0.0000 O   0  0  0  0  0  0  0  0  0  0  0  0
    5.0013    1.2375    0.0000 O   0  0  0  0  0  0  0  0  0  0  0  0
  -10.0026    1.6500    0.0000 N   0  0  0  0  0  0  0  0  0  0  0  0
   -8.5736    1.6500    0.0000 N   0  0  0  0  0  0  0  0  0  0  0  0
  -11.4316   -0.8250    0.0000 N   0  0  0  0  0  0  0  0  0  0  0  0
   -2.8579    0.0000    0.0000 N   0  0  0  0  0  0  0  0  0  0  0  0
   -3.5724    1.2375    0.0000 N   0  0  0  0  0  0  0  0  0  0  0  0
    0.7145    0.4125    0.0000 N   0  0  0  0  0  0  0  0  0  0  0  0
    3.5724    0.4125    0.0000 N   0  0  0  0  0  0  0  0  0  0  0  0
  -10.7170    1.2375    0.0000 C   0  0  0  0  0  0  0  0  0  0  0  0
   -7.8592    0.4125    0.0000 C   0  0  0  0  0  0  0  0  0  0  0  0
  -10.7170    0.4125    0.0000 C   0  0  0  0  0  0  0  0  0  0  0  0
   -7.1447    0.0000    0.0000 C   0  0  0  0  0  0  0  0  0  0  0  0
  -11.4316    0.0000    0.0000 C   0  0  0  0  0  0  0  0  0  0  0  0
  -12.1460    1.2375    0.0000 C   0  0  0  0  0  0  0  0  0  0  0  0
   -7.8592    1.2375    0.0000 C   0  0  0  0  0  0  0  0  0  0  0  0
   -6.4302    0.4125    0.0000 C   0  0  0  0  0  0  0  0  0  0  0  0
  -11.4316    1.6500    0.0000 C   0  0  0  0  0  0  0  0  0  0  0  0
  -12.1460    0.4125    0.0000 C   0  0  0  0  0  0  0  0  0  0  0  0
  -12.8605    1.6500    0.0000 C   0  0  0  0  0  0  0  0  0  0  0  0
   -9.2881    1.2375    0.0000 C   0  0  0  0  0  0  0  0  0  0  0  0
   -7.1447    1.6500    0.0000 C   0  0  0  0  0  0  0  0  0  0  0  0
   -6.4302    1.2375    0.0000 C   0  0  0  0  0  0  0  0  0  0  0  0
   -8.5736    0.0000    0.0000 C   0  0  0  0  0  0  0  0  0  0  0  0
   -7.1447   -0.8250    0.0000 C   0  0  0  0  0  0  0  0  0  0  0  0
   -5.0013    0.4125    0.0000 C   0  0  0  0  0  0  0  0  0  0  0  0
   -8.5736   -0.8250    0.0000 C   0  0  0  0  0  0  0  0  0  0  0  0
   -7.8592   -1.2375    0.0000 C   0  0  0  0  0  0  0  0  0  0  0  0
   -4.2868    0.0000    0.0000 C   0  0  0  0  0  0  0  0  0  0  0  0
   -3.5724    0.4125    0.0000 C   0  0  0  0  0  0  0  0  0  0  0  0
  -12.8605    2.4750    0.0000 C   0  0  0  0  0  0  0  0  0  0  0  0
  -13.5750    2.0625    0.0000 C   0  0  0  0  0  0  0  0  0  0  0  0
  -13.5750    1.2375    0.0000 C   0  0  0  0  0  0  0  0  0  0  0  0
   -5.0013    1.2375    0.0000 C   0  0  0  0  0  0  0  0  0  0  0  0
   -2.1434    0.4125    0.0000 C   0  0  0  0  0  0  0  0  0  0  0  0
   -0.7145    0.4125    0.0000 C   0  0  0  0  0  0  0  0  0  0  0  0
   -1.4290    0.0000    0.0000 C   0  0  0  0  0  0  0  0  0  0  0  0
  -10.0026   -0.8250    0.0000 C   0  0  0  0  0  0  0  0  0  0  0  0
   -4.2868    1.6500    0.0000 C   0  0  0  0  0  0  0  0  0  0  0  0
  -12.8605   -1.6500    0.0000 C   0  0  0  0  0  0  0  0  0  0  0  0
   -1.4290    1.6500    0.0000 C   0  0  0  0  0  0  0  0  0  0  0  0
   -2.1434    1.2375    0.0000 C   0  0  0  0  0  0  0  0  0  0  0  0
   -0.7145    1.2375    0.0000 C   0  0  0  0  0  0  0  0  0  0  0  0
    0.0000    0.0000    0.0000 C   0  0  0  0  0  0  0  0  0  0  0  0
   -1.4290    2.4750    0.0000 C   0  0  0  0  0  0  0  0  0  0  0  0
    1.4290    0.0000    0.0000 C   0  0  0  0  0  0  0  0  0  0  0  0
   -1.4290    3.3000    0.0000 C   0  0  0  0  0  0  0  0  0  0  0  0
    2.1434    0.4125    0.0000 C   0  0  0  0  0  0  0  0  0  0  0  0
    2.8579    0.0000    0.0000 C   0  0  0  0  0  0  0  0  0  0  0  0
    3.5724    1.2375    0.0000 C   0  0  0  0  0  0  0  0  0  0  0  0
    4.2868    0.0000    0.0000 C   0  0  0  0  0  0  0  0  0  0  0  0
    4.2868    1.6500    0.0000 C   0  0  0  0  0  0  0  0  0  0  0  0
    5.0013    0.4125    0.0000 C   0  0  0  0  0  0  0  0  0  0  0  0
  1  5  2  0  0  0  0
  1  6  2  0  0  0  0
  1 11  1  0  0  0  0
  1 46  1  0  0  0  0
  2 23  1  0  0  0  0
  2 32  1  0  0  0  0
  3 18  1  0  0  0  0
  3 44  1  0  0  0  0
  4 27  2  0  0  0  0
  7 50  2  0  0  0  0
  8 58  1  0  0  0  0
  8 59  1  0  0  0  0
  9 16  1  0  0  0  0
  9 27  1  0  0  0  0
 10 22  1  0  0  0  0
 10 27  1  0  0  0  0
 11 20  1  0  0  0  0
 12 36  1  0  0  0  0
 12 41  1  0  0  0  0
 13 36  2  0  0  0  0
 13 45  1  0  0  0  0
 14 50  1  0  0  0  0
 14 52  1  0  0  0  0
 15 55  1  0  0  0  0
 15 56  1  0  0  0  0
 15 57  1  0  0  0  0
 16 18  1  0  0  0  0
 16 24  2  0  0  0  0
 17 19  1  0  0  0  0
 17 22  2  0  0  0  0
 17 30  1  0  0  0  0
 18 20  2  0  0  0  0
 19 23  2  0  0  0  0
 19 31  1  0  0  0  0
 20 25  1  0  0  0  0
 21 24  1  0  0  0  0
 21 25  2  0  0  0  0
 21 26  1  0  0  0  0
 22 28  1  0  0  0  0
 23 29  1  0  0  0  0
 26 37  1  0  0  0  0
 26 38  1  0  0  0  0
 26 39  1  0  0  0  0
 28 29  2  0  0  0  0
 30 33  2  0  0  0  0
 31 34  2  0  0  0  0
 32 35  2  0  0  0  0
 32 40  1  0  0  0  0
 33 34  1  0  0  0  0
 35 36  1  0  0  0  0
 40 45  2  0  0  0  0
 41 43  2  0  0  0  0
 41 48  1  0  0  0  0
 42 43  1  0  0  0  0
 42 49  2  0  0  0  0
 42 50  1  0  0  0  0
 47 48  2  0  0  0  0
 47 49  1  0  0  0  0
 47 51  1  0  0  0  0
 51 53  3  0  0  0  0
 52 54  1  0  0  0  0
 54 55  1  0  0  0  0
 56 58  1  0  0  0  0
 57 59  1  0  0  0  0
M  END
> <PUBCHEM_COMPOUND_ID_TYPE>
0

> <PUBCHEM_TOTAL_CHARGE>
0

> <PUBCHEM_SUBSTANCE_ID>
310929168

> <PUBCHEM_SUBSTANCE_VERSION>
1

> <PUBCHEM_EXT_DATASOURCE_NAME>
4488

> <PUBCHEM_EXT_DATASOURCE_REGID>
SCHEMBL16106331

> <PUBCHEM_SUBSTANCE_COMMENT>
InChI=1S/C44H49N7O7S/c1-7-29-23-30(42(52)46-16-10-18-51-19-21-57-22-20-51)25-32(24-29)47-40-28-33(15-17-45-40)58-39-14-13-36(34-11-8-9-12-35(34)39)48-43(53)49-37-26-31(44(2,3)4)27-38(41(37)56-5)50-59(6,54)55/h1,8-9,11-15,17,23-28,50H,10,16,18-22H2,2-6H3,(H,45,47)(H,46,52)(H2,48,49,53)
InChIKey=RJEDIXUNXORHPX-UHFFFAOYSA-N

> <PUBCHEM_SUBSTANCE_SYNONYM>
SCHEMBL16106331

> <PUBCHEM_XREF_EXT_ID>
SCHEMBL16106331

> <PUBCHEM_EXT_DATASOURCE_URL>
https://www.surechembl.org/

> <PUBCHEM_EXT_SUBSTANCE_URL>
https://www.surechembl.org/chemical/SCHEMBL16106331

> <PUBCHEM_CID_ASSOCIATIONS>
117598628  1

> <PUBCHEM_COORDINATE_TYPE>
1
3

$$$$
