310938266
  -OEChem-07211613022D

 28 30  0     0  0  0  0  0  0999 V2000
    0.6975   -0.6975    0.0000 S   0  0  0  0  0  0  0  0  0  0  0  0
    1.1013    0.0000    0.0000 O   0  0  0  0  0  0  0  0  0  0  0  0
    0.2570   -1.4317    0.0000 O   0  0  0  0  0  0  0  0  0  0  0  0
    1.3951   -3.5977    0.0000 O   0  0  0  0  0  0  0  0  0  0  0  0
    4.2585   -3.6711    0.0000 O   0  0  0  0  0  0  0  0  0  0  0  0
    1.3951   -1.9824    0.0000 N   0  0  0  0  0  0  0  0  0  0  0  0
    2.0926   -0.7342    0.0000 N   0  0  0  0  0  0  0  0  0  0  0  0
    2.7900   -3.5977    0.0000 N   0  0  0  0  0  0  0  0  0  0  0  0
    4.9193   -4.9193    0.0000 N   0  0  0  0  0  0  0  0  0  0  0  0
    2.8268   -1.9824    0.0000 C   0  0  0  0  0  0  0  0  0  0  0  0
    2.0926   -2.3862    0.0000 C   0  0  0  0  0  0  0  0  0  0  0  0
    2.8268   -1.1013    0.0000 C   0  0  0  0  0  0  0  0  0  0  0  0
    1.3951   -1.1013    0.0000 C   0  0  0  0  0  0  0  0  0  0  0  0
    2.0926   -3.1939    0.0000 C   0  0  0  0  0  0  0  0  0  0  0  0
    3.5977   -2.2027    0.0000 C   0  0  0  0  0  0  0  0  0  0  0  0
    3.5977   -0.8811    0.0000 C   0  0  0  0  0  0  0  0  0  0  0  0
    4.1117   -1.5419    0.0000 C   0  0  0  0  0  0  0  0  0  0  0  0
    3.4876   -4.8826    0.0000 C   0  0  0  0  0  0  0  0  0  0  0  0
    3.4876   -5.6902    0.0000 C   0  0  0  0  0  0  0  0  0  0  0  0
    2.7900   -4.4421    0.0000 C   0  0  0  0  0  0  0  0  0  0  0  0
    4.2218   -4.4788    0.0000 C   0  0  0  0  0  0  0  0  0  0  0  0
    0.0000   -0.2937    0.0000 C   0  0  0  0  0  0  0  0  0  0  0  0
    4.1851   -6.1308    0.0000 C   0  0  0  0  0  0  0  0  0  0  0  0
    4.9193   -5.7270    0.0000 C   0  0  0  0  0  0  0  0  0  0  0  0
    2.7534   -6.0941    0.0000 C   0  0  0  0  0  0  0  0  0  0  0  0
    5.6168   -6.1675    0.0000 C   0  0  0  0  0  0  0  0  0  0  0  0
    2.7534   -6.9385    0.0000 C   0  0  0  0  0  0  0  0  0  0  0  0
    3.4509   -7.3423    0.0000 C   0  0  0  0  0  0  0  0  0  0  0  0
  1  2  2  0  0  0  0
  1  3  2  0  0  0  0
  1 13  1  0  0  0  0
  1 22  1  0  0  0  0
  4 14  2  0  0  0  0
  5 21  2  0  0  0  0
  6 11  1  0  0  0  0
  6 13  2  0  0  0  0
  7 12  2  0  0  0  0
  7 13  1  0  0  0  0
  8 14  1  0  0  0  0
  8 20  1  0  0  0  0
  9 21  1  0  0  0  0
  9 24  1  0  0  0  0
 10 11  2  0  0  0  0
 10 12  1  0  0  0  0
 10 15  1  0  0  0  0
 11 14  1  0  0  0  0
 12 16  1  0  0  0  0
 15 17  1  0  0  0  0
 16 17  1  0  0  0  0
 18 19  2  0  0  0  0
 18 20  1  0  0  0  0
 18 21  1  0  0  0  0
 19 23  1  0  0  0  0
 19 25  1  0  0  0  0
 23 24  2  0  0  0  0
 24 26  1  0  0  0  0
 25 27  1  0  0  0  0
 27 28  1  0  0  0  0
M  END
> <PUBCHEM_COMPOUND_ID_TYPE>
0

> <PUBCHEM_TOTAL_CHARGE>
0

> <PUBCHEM_SUBSTANCE_ID>
310938266

> <PUBCHEM_SUBSTANCE_VERSION>
1

> <PUBCHEM_EXT_DATASOURCE_NAME>
4488

> <PUBCHEM_EXT_DATASOURCE_REGID>
SCHEMBL16116134

> <PUBCHEM_SUBSTANCE_COMMENT>
InChI=1S/C19H24N4O4S/c1-4-6-12-9-11(2)21-17(24)14(12)10-20-18(25)16-13-7-5-8-15(13)22-19(23-16)28(3,26)27/h9H,4-8,10H2,1-3H3,(H,20,25)(H,21,24)
InChIKey=OPUDUNLHFKXYBF-UHFFFAOYSA-N

> <PUBCHEM_SUBSTANCE_SYNONYM>
SCHEMBL16116134

> <PUBCHEM_XREF_EXT_ID>
SCHEMBL16116134

> <PUBCHEM_EXT_DATASOURCE_URL>
https://www.surechembl.org/

> <PUBCHEM_EXT_SUBSTANCE_URL>
https://www.surechembl.org/chemical/SCHEMBL16116134

> <PUBCHEM_CID_ASSOCIATIONS>
86272456  1

> <PUBCHEM_COORDINATE_TYPE>
1
3

$$$$
