310948257
  -OEChem-07211613022D

 36 41  0     1  0  0  0  0  0999 V2000
   -1.3978   -2.4100    0.0000 S   0  0  0  0  0  0  0  0  0  0  0  0
   -1.5906   -3.2088    0.0000 O   0  0  0  0  0  0  0  0  0  0  0  0
   -2.1827   -2.6303    0.0000 O   0  0  0  0  0  0  0  0  0  0  0  0
    0.5715   -1.5287    0.0000 O   0  0  0  0  0  0  0  0  0  0  0  0
   -2.5684    2.2723    0.0000 O   0  0  0  0  0  0  0  0  0  0  0  0
    0.1722    2.1346    0.0000 N   0  0  0  0  0  0  0  0  0  0  0  0
   -1.5631    0.8814    0.0000 N   0  0  0  0  0  0  0  0  0  0  0  0
   -0.1583    1.3771    0.0000 N   0  0  0  0  0  0  0  0  0  0  0  0
   -1.8661    3.5117    0.0000 N   0  0  0  0  0  0  0  0  0  0  0  0
    0.7368    0.3305    0.0000 N   0  0  0  0  0  0  0  0  0  0  0  0
   -0.5715   -2.4926    0.0000 C   0  0  0  0  0  0  0  0  0  0  0  0
   -1.5631   -1.6112    0.0000 C   0  0  0  0  0  0  0  0  0  0  0  0
   -0.2272   -1.7352    0.0000 C   0  0  3  0  0  0  0  0  0  0  0  0
   -0.8470   -1.1844    0.0000 C   0  0  0  0  0  0  0  0  0  0  0  0
    0.2547   -2.5064    0.0000 C   0  0  0  0  0  0  0  0  0  0  0  0
   -0.9709   -3.2088    0.0000 C   0  0  0  0  0  0  0  0  0  0  0  0
   -0.8470   -0.3718    0.0000 C   0  0  0  0  0  0  0  0  0  0  0  0
   -2.2654   -1.1844    0.0000 C   0  0  0  0  0  0  0  0  0  0  0  0
   -1.5631    0.0551    0.0000 C   0  0  0  0  0  0  0  0  0  0  0  0
   -1.1361    2.2860    0.0000 C   0  0  0  0  0  0  0  0  0  0  0  0
   -0.9847    1.5011    0.0000 C   0  0  0  0  0  0  0  0  0  0  0  0
   -0.4338    2.6855    0.0000 C   0  0  0  0  0  0  0  0  0  0  0  0
   -2.2654   -0.3718    0.0000 C   0  0  0  0  0  0  0  0  0  0  0  0
    0.6542   -3.2226    0.0000 C   0  0  0  0  0  0  0  0  0  0  0  0
   -0.5853   -3.9249    0.0000 C   0  0  0  0  0  0  0  0  0  0  0  0
    0.9709    2.3412    0.0000 C   0  0  3  0  0  0  0  0  0  0  0  0
   -1.8661    2.6855    0.0000 C   0  0  0  0  0  0  0  0  0  0  0  0
    0.2410   -3.9249    0.0000 C   0  0  0  0  0  0  0  0  0  0  0  0
   -0.4338    3.5117    0.0000 C   0  0  0  0  0  0  0  0  0  0  0  0
    1.5631    1.7628    0.0000 C   0  0  3  0  0  0  0  0  0  0  0  0
   -1.1637    3.9249    0.0000 C   0  0  0  0  0  0  0  0  0  0  0  0
    1.1913    3.1399    0.0000 C   0  0  0  0  0  0  0  0  0  0  0  0
    2.3618    1.9831    0.0000 C   0  0  0  0  0  0  0  0  0  0  0  0
    1.1499    1.0604    0.0000 C   0  0  0  0  0  0  0  0  0  0  0  0
    1.9900    3.3465    0.0000 C   0  0  0  0  0  0  0  0  0  0  0  0
    2.5684    2.7819    0.0000 C   0  0  0  0  0  0  0  0  0  0  0  0
  1  2  2  0  0  0  0
  1  3  2  0  0  0  0
  1 11  1  0  0  0  0
  1 12  1  0  0  0  0
  4 13  1  0  0  0  0
  5 27  2  0  0  0  0
  6  8  1  0  0  0  0
  6 22  1  0  0  0  0
 26  6  1  1  0  0  0
  7 19  1  0  0  0  0
  7 21  1  0  0  0  0
  8 21  2  0  0  0  0
  9 27  1  0  0  0  0
  9 31  1  0  0  0  0
 10 34  3  0  0  0  0
 11 13  1  0  0  0  0
 11 15  1  0  0  0  0
 11 16  1  0  0  0  0
 12 14  1  0  0  0  0
 12 18  2  0  0  0  0
 13 14  1  0  0  0  0
 14 17  2  0  0  0  0
 15 24  1  0  0  0  0
 16 25  1  0  0  0  0
 17 19  1  0  0  0  0
 18 23  1  0  0  0  0
 19 23  2  0  0  0  0
 20 21  1  0  0  0  0
 20 22  2  0  0  0  0
 20 27  1  0  0  0  0
 22 29  1  0  0  0  0
 24 28  1  0  0  0  0
 25 28  1  0  0  0  0
 26 30  1  0  0  0  0
 26 32  1  0  0  0  0
 29 31  2  0  0  0  0
 30 33  1  0  0  0  0
 30 34  1  6  0  0  0
 32 35  1  0  0  0  0
 33 36  1  0  0  0  0
 35 36  1  0  0  0  0
M  END
> <PUBCHEM_COMPOUND_ID_TYPE>
0

> <PUBCHEM_TOTAL_CHARGE>
0

> <PUBCHEM_SUBSTANCE_ID>
310948257

> <PUBCHEM_SUBSTANCE_VERSION>
1

> <PUBCHEM_EXT_DATASOURCE_NAME>
4488

> <PUBCHEM_EXT_DATASOURCE_REGID>
SCHEMBL16126434

> <PUBCHEM_SUBSTANCE_COMMENT>
InChI=1S/C26H29N5O4S/c27-15-16-6-2-3-7-19(16)31-20-10-13-28-25(33)22(20)24(30-31)29-17-8-9-21-18(14-17)23(32)26(36(21,34)35)11-4-1-5-12-26/h8-10,13-14,16,19,23,32H,1-7,11-12H2,(H,28,33)(H,29,30)/t16-,19+,23?/m1/s1
InChIKey=YJHGQSGKTKNECW-LMMMUBRJSA-N

> <PUBCHEM_SUBSTANCE_SYNONYM>
SCHEMBL16126434

> <PUBCHEM_XREF_EXT_ID>
SCHEMBL16126434

> <PUBCHEM_EXT_DATASOURCE_URL>
https://www.surechembl.org/

> <PUBCHEM_EXT_SUBSTANCE_URL>
https://www.surechembl.org/chemical/SCHEMBL16126434

> <PUBCHEM_CID_ASSOCIATIONS>
117613837  1

> <PUBCHEM_COORDINATE_TYPE>
1
3

> <PUBCHEM_BONDANNOTATIONS>
30  34  6
26  6  5

$$$$
