310943033
  -OEChem-07211613022D

 36 40  0     1  0  0  0  0  0999 V2000
   -1.6649   -2.1730    0.0000 S   0  0  0  0  0  0  0  0  0  0  0  0
   -1.2897    0.0938    0.0000 O   0  0  0  0  0  0  0  0  0  0  0  0
   -2.2902   -1.6415    0.0000 O   0  0  0  0  0  0  0  0  0  0  0  0
   -2.1964   -2.7984    0.0000 O   0  0  0  0  0  0  0  0  0  0  0  0
   -0.0078    4.6587    0.0000 O   0  0  0  0  0  0  0  0  0  0  0  0
    0.2423   -3.7676    0.0000 O   0  0  0  0  0  0  0  0  0  0  0  0
    0.1173    2.4700    0.0000 N   0  0  0  0  0  0  0  0  0  0  0  0
    0.6332    1.8291    0.0000 N   0  0  0  0  0  0  0  0  0  0  0  0
    0.4612    0.3596    0.0000 N   0  0  0  0  0  0  0  0  0  0  0  0
   -1.0240   -2.6889    0.0000 N   0  0  0  0  0  0  0  0  0  0  0  0
   -2.0558    1.3132    0.0000 N   0  0  0  0  0  0  0  0  0  0  0  0
    2.2902    2.2825    0.0000 N   0  0  0  0  0  0  0  0  0  0  0  0
   -0.6488    1.3757    0.0000 C   0  0  0  0  0  0  0  0  0  0  0  0
   -0.6488    2.2043    0.0000 C   0  0  0  0  0  0  0  0  0  0  0  0
    0.1641    1.1412    0.0000 C   0  0  0  0  0  0  0  0  0  0  0  0
    0.3361    3.2830    0.0000 C   0  0  3  0  0  0  0  0  0  0  0  0
   -1.3210    0.9380    0.0000 C   0  0  0  0  0  0  0  0  0  0  0  0
   -1.3991    2.5795    0.0000 C   0  0  0  0  0  0  0  0  0  0  0  0
   -1.1334   -1.5164    0.0000 C   0  0  0  0  0  0  0  0  0  0  0  0
   -0.0860   -0.2658    0.0000 C   0  0  0  0  0  0  0  0  0  0  0  0
    1.1334    3.4705    0.0000 C   0  0  3  0  0  0  0  0  0  0  0  0
   -2.0870    2.1261    0.0000 C   0  0  0  0  0  0  0  0  0  0  0  0
   -0.2267    3.8614    0.0000 C   0  0  0  0  0  0  0  0  0  0  0  0
   -1.3991   -0.7347    0.0000 C   0  0  0  0  0  0  0  0  0  0  0  0
   -0.3205   -1.6571    0.0000 C   0  0  0  0  0  0  0  0  0  0  0  0
   -0.8989   -0.1407    0.0000 C   0  0  0  0  0  0  0  0  0  0  0  0
    0.1954   -1.0474    0.0000 C   0  0  0  0  0  0  0  0  0  0  0  0
   -1.1803   -3.5018    0.0000 C   0  0  0  0  0  0  0  0  0  0  0  0
   -0.2736   -2.4075    0.0000 C   0  0  0  0  0  0  0  0  0  0  0  0
    1.3679    4.2678    0.0000 C   0  0  0  0  0  0  0  0  0  0  0  0
   -0.5394   -4.0334    0.0000 C   0  0  3  0  0  0  0  0  0  0  0  0
    0.3674   -2.9390    0.0000 C   0  0  3  0  0  0  0  0  0  0  0  0
    1.7118    2.8765    0.0000 C   0  0  0  0  0  0  0  0  0  0  0  0
    0.8051    4.8463    0.0000 C   0  0  0  0  0  0  0  0  0  0  0  0
   -0.6800   -4.8463    0.0000 C   0  0  0  0  0  0  0  0  0  0  0  0
    1.1334   -2.6576    0.0000 C   0  0  0  0  0  0  0  0  0  0  0  0
  1  3  2  0  0  0  0
  1  4  2  0  0  0  0
  1 10  1  0  0  0  0
  1 19  1  0  0  0  0
  2 17  2  0  0  0  0
  5 23  1  0  0  0  0
  5 34  1  0  0  0  0
  6 31  1  0  0  0  0
  6 32  1  0  0  0  0
  7  8  1  0  0  0  0
  7 14  1  0  0  0  0
 16  7  1  1  0  0  0
  8 15  2  0  0  0  0
  9 15  1  0  0  0  0
  9 20  1  0  0  0  0
 10 28  1  0  0  0  0
 10 29  1  0  0  0  0
 11 17  1  0  0  0  0
 11 22  1  0  0  0  0
 12 33  3  0  0  0  0
 13 14  2  0  0  0  0
 13 15  1  0  0  0  0
 13 17  1  0  0  0  0
 14 18  1  0  0  0  0
 16 21  1  0  0  0  0
 16 23  1  0  0  0  0
 18 22  2  0  0  0  0
 19 24  2  0  0  0  0
 19 25  1  0  0  0  0
 20 26  2  0  0  0  0
 20 27  1  0  0  0  0
 21 30  1  0  0  0  0
 21 33  1  6  0  0  0
 24 26  1  0  0  0  0
 25 27  2  0  0  0  0
 28 31  1  0  0  0  0
 29 32  1  0  0  0  0
 30 34  1  0  0  0  0
 31 35  1  1  0  0  0
 32 36  1  6  0  0  0
M  END
> <PUBCHEM_COMPOUND_ID_TYPE>
0

> <PUBCHEM_TOTAL_CHARGE>
0

> <PUBCHEM_SUBSTANCE_ID>
310943033

> <PUBCHEM_SUBSTANCE_VERSION>
1

> <PUBCHEM_EXT_DATASOURCE_NAME>
4488

> <PUBCHEM_EXT_DATASOURCE_REGID>
SCHEMBL16121092

> <PUBCHEM_SUBSTANCE_COMMENT>
InChI=1S/C24H28N6O5S/c1-15-12-29(13-16(2)35-15)36(32,33)19-5-3-18(4-6-19)27-23-22-20(7-9-26-24(22)31)30(28-23)21-14-34-10-8-17(21)11-25/h3-7,9,15-17,21H,8,10,12-14H2,1-2H3,(H,26,31)(H,27,28)/t15-,16-,17+,21-/m0/s1
InChIKey=FZZHOXMWASTDDC-OPOADAIRSA-N

> <PUBCHEM_SUBSTANCE_SYNONYM>
SCHEMBL16121092

> <PUBCHEM_XREF_EXT_ID>
SCHEMBL16121092

> <PUBCHEM_EXT_DATASOURCE_URL>
https://www.surechembl.org/

> <PUBCHEM_EXT_SUBSTANCE_URL>
https://www.surechembl.org/chemical/SCHEMBL16121092

> <PUBCHEM_CID_ASSOCIATIONS>
117609478  1

> <PUBCHEM_COORDINATE_TYPE>
1
3

> <PUBCHEM_BONDANNOTATIONS>
21  33  6
31  35  5
32  36  6
16  7  5

$$$$
