310937658
  -OEChem-07211613022D

 13 13  0     0  0  0  0  0  0999 V2000
    2.8648    0.0000    0.0000 O   0  0  0  0  0  0  0  0  0  0  0  0
    0.7204   -1.2397    0.0000 O   0  5  0  0  0  0  0  0  0  0  0  0
    0.0000    0.0000    0.0000 O   0  0  0  0  0  0  0  0  0  0  0  0
    0.7036   -0.4188    0.0000 N   0  3  0  0  0  0  0  0  0  0  0  0
    2.8648   -1.6418    0.0000 N   0  0  0  0  0  0  0  0  0  0  0  0
    3.5852   -0.4021    0.0000 C   0  0  0  0  0  0  0  0  0  0  0  0
    3.5852   -1.2397    0.0000 C   0  0  0  0  0  0  0  0  0  0  0  0
    4.3056    0.0000    0.0000 C   0  0  0  0  0  0  0  0  0  0  0  0
    4.3056   -1.6418    0.0000 C   0  0  0  0  0  0  0  0  0  0  0  0
    2.1444   -0.4188    0.0000 C   0  0  0  0  0  0  0  0  0  0  0  0
    5.0260   -0.4021    0.0000 C   0  0  0  0  0  0  0  0  0  0  0  0
    5.0260   -1.2397    0.0000 C   0  0  0  0  0  0  0  0  0  0  0  0
    1.4408    0.0000    0.0000 C   0  0  0  0  0  0  0  0  0  0  0  0
  1  6  1  0  0  0  0
  1 10  1  0  0  0  0
  2  4  1  0  0  0  0
  3  4  2  0  0  0  0
  4 13  1  0  0  0  0
  5  7  1  0  0  0  0
  6  7  2  0  0  0  0
  6  8  1  0  0  0  0
  7  9  1  0  0  0  0
  8 11  2  0  0  0  0
  9 12  2  0  0  0  0
 10 13  1  0  0  0  0
 11 12  1  0  0  0  0
M  CHG  2   2  -1   4   1
M  END
> <PUBCHEM_COMPOUND_ID_TYPE>
0

> <PUBCHEM_TOTAL_CHARGE>
0

> <PUBCHEM_SUBSTANCE_ID>
310937658

> <PUBCHEM_SUBSTANCE_VERSION>
1

> <PUBCHEM_EXT_DATASOURCE_NAME>
4488

> <PUBCHEM_EXT_DATASOURCE_REGID>
SCHEMBL16115448

> <PUBCHEM_SUBSTANCE_COMMENT>
InChI=1S/C8H10N2O3/c9-7-3-1-2-4-8(7)13-6-5-10(11)12/h1-4H,5-6,9H2
InChIKey=HAXLZYZFWHQRJU-UHFFFAOYSA-N

> <PUBCHEM_SUBSTANCE_SYNONYM>
SCHEMBL16115448

> <PUBCHEM_XREF_EXT_ID>
SCHEMBL16115448

> <PUBCHEM_EXT_DATASOURCE_URL>
https://www.surechembl.org/

> <PUBCHEM_EXT_SUBSTANCE_URL>
https://www.surechembl.org/chemical/SCHEMBL16115448

> <PUBCHEM_CID_ASSOCIATIONS>
117605347  1

> <PUBCHEM_COORDINATE_TYPE>
1
3

$$$$
