310944020
  -OEChem-07211613022D

 29 32  0     0  0  0  0  0  0999 V2000
    1.4969    3.0615    0.0000 F   0  0  0  0  0  0  0  0  0  0  0  0
    0.0610   -0.2167    0.0000 N   0  0  0  0  0  0  0  0  0  0  0  0
   -0.6976    0.9889    0.0000 N   0  0  0  0  0  0  0  0  0  0  0  0
    1.5104   -1.0295    0.0000 N   0  0  0  0  0  0  0  0  0  0  0  0
    3.6372    2.6144    0.0000 N   0  0  0  0  0  0  0  0  0  0  0  0
    0.7518    1.0295    0.0000 C   0  0  0  0  0  0  0  0  0  0  0  0
    0.0339    0.6096    0.0000 C   0  0  0  0  0  0  0  0  0  0  0  0
    1.4833    0.6232    0.0000 C   0  0  0  0  0  0  0  0  0  0  0  0
   -0.6841   -0.6232    0.0000 C   0  0  0  0  0  0  0  0  0  0  0  0
   -1.4291    0.5961    0.0000 C   0  0  0  0  0  0  0  0  0  0  0  0
    0.7925    1.8423    0.0000 C   0  0  0  0  0  0  0  0  0  0  0  0
   -1.4291   -0.2167    0.0000 C   0  0  0  0  0  0  0  0  0  0  0  0
    1.4833    2.2487    0.0000 C   0  0  0  0  0  0  0  0  0  0  0  0
    2.2013    1.8423    0.0000 C   0  0  0  0  0  0  0  0  0  0  0  0
    2.1877    1.0430    0.0000 C   0  0  0  0  0  0  0  0  0  0  0  0
   -0.6841   -1.4495    0.0000 C   0  0  0  0  0  0  0  0  0  0  0  0
   -2.1877    0.9889    0.0000 C   0  0  0  0  0  0  0  0  0  0  0  0
    1.4969   -0.2167    0.0000 C   0  0  0  0  0  0  0  0  0  0  0  0
   -1.4020   -1.8694    0.0000 C   0  0  0  0  0  0  0  0  0  0  0  0
    0.0745   -1.8287    0.0000 C   0  0  0  0  0  0  0  0  0  0  0  0
   -2.1877    1.8152    0.0000 C   0  0  0  0  0  0  0  0  0  0  0  0
   -2.8922    0.5825    0.0000 C   0  0  0  0  0  0  0  0  0  0  0  0
    2.9193    2.2487    0.0000 C   0  0  0  0  0  0  0  0  0  0  0  0
   -1.3885   -2.6686    0.0000 C   0  0  0  0  0  0  0  0  0  0  0  0
    0.0745   -2.6415    0.0000 C   0  0  0  0  0  0  0  0  0  0  0  0
   -2.9057    2.1946    0.0000 C   0  0  0  0  0  0  0  0  0  0  0  0
   -3.6237    0.9753    0.0000 C   0  0  0  0  0  0  0  0  0  0  0  0
   -0.6705   -3.0615    0.0000 C   0  0  0  0  0  0  0  0  0  0  0  0
   -3.6372    1.7881    0.0000 C   0  0  0  0  0  0  0  0  0  0  0  0
  1 13  1  0  0  0  0
  2  7  1  0  0  0  0
  2  9  2  0  0  0  0
  3  7  2  0  0  0  0
  3 10  1  0  0  0  0
  4 18  3  0  0  0  0
  5 23  3  0  0  0  0
  6  7  1  0  0  0  0
  6  8  1  0  0  0  0
  6 11  2  0  0  0  0
  8 15  2  0  0  0  0
  8 18  1  0  0  0  0
  9 12  1  0  0  0  0
  9 16  1  0  0  0  0
 10 12  2  0  0  0  0
 10 17  1  0  0  0  0
 11 13  1  0  0  0  0
 13 14  2  0  0  0  0
 14 15  1  0  0  0  0
 14 23  1  0  0  0  0
 16 19  2  0  0  0  0
 16 20  1  0  0  0  0
 17 21  2  0  0  0  0
 17 22  1  0  0  0  0
 19 24  1  0  0  0  0
 20 25  2  0  0  0  0
 21 26  1  0  0  0  0
 22 27  2  0  0  0  0
 24 28  2  0  0  0  0
 25 28  1  0  0  0  0
 26 29  2  0  0  0  0
 27 29  1  0  0  0  0
M  END
> <PUBCHEM_COMPOUND_ID_TYPE>
0

> <PUBCHEM_TOTAL_CHARGE>
0

> <PUBCHEM_SUBSTANCE_ID>
310944020

> <PUBCHEM_SUBSTANCE_VERSION>
1

> <PUBCHEM_EXT_DATASOURCE_NAME>
4488

> <PUBCHEM_EXT_DATASOURCE_REGID>
SCHEMBL16122093

> <PUBCHEM_SUBSTANCE_COMMENT>
InChI=1S/C24H13FN4/c25-21-12-20(18(14-26)11-19(21)15-27)24-28-22(16-7-3-1-4-8-16)13-23(29-24)17-9-5-2-6-10-17/h1-13H
InChIKey=ILAJQEWCLZSOKT-UHFFFAOYSA-N

> <PUBCHEM_SUBSTANCE_SYNONYM>
SCHEMBL16122093

> <PUBCHEM_XREF_EXT_ID>
SCHEMBL16122093

> <PUBCHEM_EXT_DATASOURCE_URL>
https://www.surechembl.org/

> <PUBCHEM_EXT_SUBSTANCE_URL>
https://www.surechembl.org/chemical/SCHEMBL16122093

> <PUBCHEM_CID_ASSOCIATIONS>
117610323  1

> <PUBCHEM_COORDINATE_TYPE>
1
3

$$$$
