310943549
  -OEChem-07211613022D

 40 44  0     0  0  0  0  0  0999 V2000
   -3.2129   -0.0086    0.0000 O   0  0  0  0  0  0  0  0  0  0  0  0
   -4.6390    2.4827    0.0000 O   0  0  0  0  0  0  0  0  0  0  0  0
    1.0653   -0.0086    0.0000 O   0  0  0  0  0  0  0  0  0  0  0  0
   -3.2129   -2.4999    0.0000 O   0  0  0  0  0  0  0  0  0  0  0  0
   -3.2129    1.6580    0.0000 N   0  0  0  0  0  0  0  0  0  0  0  0
   -1.7869   -0.0086    0.0000 N   0  0  0  0  0  0  0  0  0  0  0  0
    0.3608    2.8950    0.0000 N   0  0  0  0  0  0  0  0  0  0  0  0
    1.7869    1.2457    0.0000 N   0  0  0  0  0  0  0  0  0  0  0  0
    3.2129    0.4209    0.0000 N   0  0  0  0  0  0  0  0  0  0  0  0
    4.6390   -2.8950    0.0000 N   0  0  0  0  0  0  0  0  0  0  0  0
   -1.0653    1.2457    0.0000 C   0  0  0  0  0  0  0  0  0  0  0  0
   -2.4913    1.2457    0.0000 C   0  0  0  0  0  0  0  0  0  0  0  0
   -0.3780    1.6580    0.0000 C   0  0  0  0  0  0  0  0  0  0  0  0
   -2.5085    0.4209    0.0000 C   0  0  0  0  0  0  0  0  0  0  0  0
   -1.7869    1.6580    0.0000 C   0  0  0  0  0  0  0  0  0  0  0  0
   -0.3436    2.4827    0.0000 C   0  0  0  0  0  0  0  0  0  0  0  0
   -1.0824    0.4037    0.0000 C   0  0  0  0  0  0  0  0  0  0  0  0
    0.3608    1.2457    0.0000 C   0  0  0  0  0  0  0  0  0  0  0  0
    1.0653    1.6580    0.0000 C   0  0  0  0  0  0  0  0  0  0  0  0
    2.5085    0.0086    0.0000 C   0  0  0  0  0  0  0  0  0  0  0  0
    3.2129   -1.2457    0.0000 C   0  0  0  0  0  0  0  0  0  0  0  0
    1.7869    0.4380    0.0000 C   0  0  0  0  0  0  0  0  0  0  0  0
    1.0824    2.4827    0.0000 C   0  0  0  0  0  0  0  0  0  0  0  0
    3.1958   -2.0875    0.0000 C   0  0  0  0  0  0  0  0  0  0  0  0
   -3.2129    2.4827    0.0000 C   0  0  0  0  0  0  0  0  0  0  0  0
   -3.9173    1.2457    0.0000 C   0  0  0  0  0  0  0  0  0  0  0  0
   -3.2129   -0.8334    0.0000 C   0  0  0  0  0  0  0  0  0  0  0  0
    2.5085   -0.8334    0.0000 C   0  0  0  0  0  0  0  0  0  0  0  0
    3.9173   -0.8334    0.0000 C   0  0  0  0  0  0  0  0  0  0  0  0
   -1.0824    2.8778    0.0000 C   0  0  0  0  0  0  0  0  0  0  0  0
   -3.9517    2.8950    0.0000 C   0  0  0  0  0  0  0  0  0  0  0  0
   -4.6390    1.6580    0.0000 C   0  0  0  0  0  0  0  0  0  0  0  0
    3.9345   -0.0086    0.0000 C   0  0  0  0  0  0  0  0  0  0  0  0
   -2.4913   -1.2628    0.0000 C   0  0  0  0  0  0  0  0  0  0  0  0
   -3.9173   -1.2457    0.0000 C   0  0  0  0  0  0  0  0  0  0  0  0
    3.9345   -2.4999    0.0000 C   0  0  0  0  0  0  0  0  0  0  0  0
    2.3710   -2.0875    0.0000 C   0  0  0  0  0  0  0  0  0  0  0  0
    2.7834   -2.8091    0.0000 C   0  0  0  0  0  0  0  0  0  0  0  0
   -2.5085   -2.0704    0.0000 C   0  0  0  0  0  0  0  0  0  0  0  0
   -3.9345   -2.0704    0.0000 C   0  0  0  0  0  0  0  0  0  0  0  0
  1 14  1  0  0  0  0
  1 27  1  0  0  0  0
  2 31  1  0  0  0  0
  2 32  1  0  0  0  0
  3 22  2  0  0  0  0
  4 39  1  0  0  0  0
  4 40  1  0  0  0  0
  5 12  1  0  0  0  0
  5 25  1  0  0  0  0
  5 26  1  0  0  0  0
  6 14  2  0  0  0  0
  6 17  1  0  0  0  0
  7 16  1  0  0  0  0
  7 23  2  0  0  0  0
  8 19  1  0  0  0  0
  8 22  1  0  0  0  0
  9 20  2  0  0  0  0
  9 33  1  0  0  0  0
 10 36  3  0  0  0  0
 11 13  1  0  0  0  0
 11 15  1  0  0  0  0
 11 17  2  0  0  0  0
 12 14  1  0  0  0  0
 12 15  2  0  0  0  0
 13 16  2  0  0  0  0
 13 18  1  0  0  0  0
 16 30  1  0  0  0  0
 18 19  2  0  0  0  0
 19 23  1  0  0  0  0
 20 22  1  0  0  0  0
 20 28  1  0  0  0  0
 21 24  1  0  0  0  0
 21 28  2  0  0  0  0
 21 29  1  0  0  0  0
 24 36  1  0  0  0  0
 24 37  1  0  0  0  0
 24 38  1  0  0  0  0
 25 31  1  0  0  0  0
 26 32  1  0  0  0  0
 27 34  1  0  0  0  0
 27 35  1  0  0  0  0
 29 33  2  0  0  0  0
 34 39  1  0  0  0  0
 35 40  1  0  0  0  0
M  END
> <PUBCHEM_COMPOUND_ID_TYPE>
0

> <PUBCHEM_TOTAL_CHARGE>
0

> <PUBCHEM_SUBSTANCE_ID>
310943549

> <PUBCHEM_SUBSTANCE_VERSION>
1

> <PUBCHEM_EXT_DATASOURCE_NAME>
4488

> <PUBCHEM_EXT_DATASOURCE_REGID>
SCHEMBL16121616

> <PUBCHEM_SUBSTANCE_COMMENT>
InChI=1S/C30H34N6O4/c1-20-25(16-23(18-33-20)35-28(37)26-15-22(4-7-32-26)30(2,3)19-31)21-14-27(36-8-12-39-13-9-36)29(34-17-21)40-24-5-10-38-11-6-24/h4,7,14-18,24H,5-6,8-13H2,1-3H3,(H,35,37)
InChIKey=BCBHGPKTOXXCOT-UHFFFAOYSA-N

> <PUBCHEM_SUBSTANCE_SYNONYM>
SCHEMBL16121616

> <PUBCHEM_XREF_EXT_ID>
SCHEMBL16121616

> <PUBCHEM_EXT_DATASOURCE_URL>
https://www.surechembl.org/

> <PUBCHEM_EXT_SUBSTANCE_URL>
https://www.surechembl.org/chemical/SCHEMBL16121616

> <PUBCHEM_CID_ASSOCIATIONS>
117609960  1

> <PUBCHEM_COORDINATE_TYPE>
1
3

$$$$
