310935547
  -OEChem-07211613022D

 41 44  0     1  0  0  0  0  0999 V2000
    3.0503    5.5374    0.0000 F   0  0  0  0  0  0  0  0  0  0  0  0
    2.2253    4.1085    0.0000 F   0  0  0  0  0  0  0  0  0  0  0  0
    1.9233    5.2354    0.0000 F   0  0  0  0  0  0  0  0  0  0  0  0
   -0.1712    1.5229    0.0000 O   0  0  0  0  0  0  0  0  0  0  0  0
    6.5402    2.4343    0.0000 O   0  0  0  0  0  0  0  0  0  0  0  0
    4.5538    0.2202    0.0000 O   0  0  0  0  0  0  0  0  0  0  0  0
    4.0668    4.8229    0.0000 O   0  0  0  0  0  0  0  0  0  0  0  0
    6.4904    3.8624    0.0000 O   0  0  0  0  0  0  0  0  0  0  0  0
    5.7656    0.9775    0.0000 O   0  0  0  0  0  0  0  0  0  0  0  0
    3.3523    3.5854    0.0000 N   0  0  0  0  0  0  0  0  0  0  0  0
    1.1387    0.8555    0.0000 C   0  0  3  0  0  0  0  0  0  0  0  0
    1.9233    1.1104    0.0000 C   0  0  0  0  0  0  0  0  0  0  0  0
    1.9233    1.9354    0.0000 C   0  0  0  0  0  0  0  0  0  0  0  0
    2.6378    2.3479    0.0000 C   0  0  3  0  0  0  0  0  0  0  0  0
    3.3523    1.9354    0.0000 C   0  0  3  0  0  0  0  0  0  0  0  0
    0.6538    1.5229    0.0000 C   0  0  3  0  0  0  0  0  0  0  0  0
    4.0668    2.3479    0.0000 C   0  0  3  0  0  0  0  0  0  0  0  0
    1.1387    2.1904    0.0000 C   0  0  0  0  0  0  0  0  0  0  0  0
    1.3018    0.0468    0.0000 C   0  0  0  0  0  0  0  0  0  0  0  0
    2.6378    0.6979    0.0000 C   0  0  0  0  0  0  0  0  0  0  0  0
    3.3523    1.1104    0.0000 C   0  0  0  0  0  0  0  0  0  0  0  0
    4.5039    1.6483    0.0000 C   0  0  3  0  0  0  0  0  0  0  0  0
    0.5314    0.2971    0.0000 C   0  0  0  0  0  0  0  0  0  0  0  0
    2.6378    3.1729    0.0000 C   0  0  0  0  0  0  0  0  0  0  0  0
    4.4541    3.0764    0.0000 C   0  0  0  0  0  0  0  0  0  0  0  0
    2.0837   -0.2164    0.0000 C   0  0  0  0  0  0  0  0  0  0  0  0
    0.6829   -0.4988    0.0000 C   0  0  0  0  0  0  0  0  0  0  0  0
    3.3253    2.7096    0.0000 C   0  0  0  0  0  0  0  0  0  0  0  0
    5.3284    1.6771    0.0000 C   0  0  0  0  0  0  0  0  0  0  0  0
    5.7158    2.4055    0.0000 C   0  0  3  0  0  0  0  0  0  0  0  0
    5.2786    3.1052    0.0000 C   0  0  0  0  0  0  0  0  0  0  0  0
    4.1166    0.9199    0.0000 C   0  0  0  0  0  0  0  0  0  0  0  0
    2.2468   -1.0251    0.0000 C   0  0  0  0  0  0  0  0  0  0  0  0
    0.8460   -1.3075    0.0000 C   0  0  0  0  0  0  0  0  0  0  0  0
    3.3523    4.4104    0.0000 C   0  0  0  0  0  0  0  0  0  0  0  0
    1.6279   -1.5707    0.0000 C   0  0  0  0  0  0  0  0  0  0  0  0
    2.6378    4.8229    0.0000 C   0  0  0  0  0  0  0  0  0  0  0  0
    6.9276    3.1628    0.0000 C   0  0  0  0  0  0  0  0  0  0  0  0
    5.3783    0.2490    0.0000 C   0  0  0  0  0  0  0  0  0  0  0  0
    7.7521    3.1915    0.0000 C   0  0  0  0  0  0  0  0  0  0  0  0
    5.8155   -0.4506    0.0000 C   0  0  0  0  0  0  0  0  0  0  0  0
  1 37  1  0  0  0  0
  2 37  1  0  0  0  0
  3 37  1  0  0  0  0
 16  4  1  6  0  0  0
 30  5  1  6  0  0  0
  5 38  1  0  0  0  0
  6 32  1  0  0  0  0
  6 39  1  0  0  0  0
  7 35  2  0  0  0  0
  8 38  2  0  0  0  0
  9 39  2  0  0  0  0
 10 24  1  0  0  0  0
 10 35  1  0  0  0  0
 11 12  1  0  0  0  0
 11 16  1  0  0  0  0
 11 19  1  0  0  0  0
 11 23  1  1  0  0  0
 12 13  2  0  0  0  0
 12 20  1  0  0  0  0
 13 14  1  0  0  0  0
 13 18  1  0  0  0  0
 14 15  1  0  0  0  0
 14 24  1  6  0  0  0
 15 17  1  0  0  0  0
 15 21  1  1  0  0  0
 16 18  1  0  0  0  0
 17 22  1  0  0  0  0
 17 25  1  0  0  0  0
 17 28  1  6  0  0  0
 19 26  2  0  0  0  0
 19 27  1  0  0  0  0
 20 21  1  0  0  0  0
 22 29  1  0  0  0  0
 22 32  1  6  0  0  0
 25 31  1  0  0  0  0
 26 33  1  0  0  0  0
 27 34  2  0  0  0  0
 29 30  1  0  0  0  0
 30 31  1  0  0  0  0
 33 36  2  0  0  0  0
 34 36  1  0  0  0  0
 35 37  1  0  0  0  0
 38 40  1  0  0  0  0
 39 41  1  0  0  0  0
M  END
> <PUBCHEM_COMPOUND_ID_TYPE>
0

> <PUBCHEM_TOTAL_CHARGE>
0

> <PUBCHEM_SUBSTANCE_ID>
310935547

> <PUBCHEM_SUBSTANCE_VERSION>
1

> <PUBCHEM_EXT_DATASOURCE_NAME>
4488

> <PUBCHEM_EXT_DATASOURCE_REGID>
SCHEMBL16113118

> <PUBCHEM_SUBSTANCE_COMMENT>
InChI=1S/C31H40F3NO6/c1-18(36)40-17-21-14-22(41-19(2)37)12-13-29(21,3)25-10-11-26-23(24(25)16-35-28(39)31(32,33)34)15-27(38)30(26,4)20-8-6-5-7-9-20/h5-9,21-22,24-25,27,38H,10-17H2,1-4H3,(H,35,39)/t21-,22+,24+,25+,27-,29+,30+/m1/s1
InChIKey=ITWXAMSQIQKXRW-VDFVXNDLSA-N

> <PUBCHEM_SUBSTANCE_SYNONYM>
SCHEMBL16113118

> <PUBCHEM_XREF_EXT_ID>
SCHEMBL16113118

> <PUBCHEM_EXT_DATASOURCE_URL>
https://www.surechembl.org/

> <PUBCHEM_EXT_SUBSTANCE_URL>
https://www.surechembl.org/chemical/SCHEMBL16113118

> <PUBCHEM_CID_ASSOCIATIONS>
117603571  1

> <PUBCHEM_COORDINATE_TYPE>
1
3

> <PUBCHEM_BONDANNOTATIONS>
11  23  5
14  24  6
15  21  5
17  28  6
22  32  6
16  4  6
30  5  6

$$$$
