310943246
  -OEChem-07211613022D

 35 39  0     0  0  0  0  0  0999 V2000
   -2.8652    0.1754    0.0000 O   0  0  0  0  0  0  0  0  0  0  0  0
    3.5815   -3.0552    0.0000 O   0  0  0  0  0  0  0  0  0  0  0  0
    1.4325    0.1608    0.0000 O   0  0  0  0  0  0  0  0  0  0  0  0
   -4.2977    2.6313    0.0000 O   0  0  0  0  0  0  0  0  0  0  0  0
   -2.8652    1.8127    0.0000 N   0  0  0  0  0  0  0  0  0  0  0  0
   -1.4325    0.1754    0.0000 N   0  0  0  0  0  0  0  0  0  0  0  0
    0.7163    3.0552    0.0000 N   0  0  0  0  0  0  0  0  0  0  0  0
    2.1489    1.4034    0.0000 N   0  0  0  0  0  0  0  0  0  0  0  0
    4.2977   -0.6432    0.0000 N   0  0  0  0  0  0  0  0  0  0  0  0
   -0.7016    1.4180    0.0000 C   0  0  0  0  0  0  0  0  0  0  0  0
   -0.0146    1.8273    0.0000 C   0  0  0  0  0  0  0  0  0  0  0  0
   -2.1343    1.4180    0.0000 C   0  0  0  0  0  0  0  0  0  0  0  0
   -2.1489    0.5847    0.0000 C   0  0  0  0  0  0  0  0  0  0  0  0
   -1.4472    1.8127    0.0000 C   0  0  0  0  0  0  0  0  0  0  0  0
    0.0000    2.6458    0.0000 C   0  0  0  0  0  0  0  0  0  0  0  0
    0.7309    1.4180    0.0000 C   0  0  0  0  0  0  0  0  0  0  0  0
    1.4180    1.8273    0.0000 C   0  0  0  0  0  0  0  0  0  0  0  0
   -0.7163    0.5847    0.0000 C   0  0  0  0  0  0  0  0  0  0  0  0
    2.8652    0.1754    0.0000 C   0  0  0  0  0  0  0  0  0  0  0  0
    3.5815   -1.0525    0.0000 C   0  0  0  0  0  0  0  0  0  0  0  0
    2.1489    0.5994    0.0000 C   0  0  0  0  0  0  0  0  0  0  0  0
    1.4325    2.6313    0.0000 C   0  0  0  0  0  0  0  0  0  0  0  0
    3.5668   -1.8858    0.0000 C   0  0  0  0  0  0  0  0  0  0  0  0
    2.8652   -0.6432    0.0000 C   0  0  0  0  0  0  0  0  0  0  0  0
   -2.8652    2.6313    0.0000 C   0  0  0  0  0  0  0  0  0  0  0  0
   -3.5668    1.4180    0.0000 C   0  0  0  0  0  0  0  0  0  0  0  0
    3.5815    0.5847    0.0000 C   0  0  0  0  0  0  0  0  0  0  0  0
    4.1662   -2.4705    0.0000 C   0  0  0  0  0  0  0  0  0  0  0  0
    3.0113   -2.4559    0.0000 C   0  0  0  0  0  0  0  0  0  0  0  0
   -0.7309    3.0406    0.0000 C   0  0  0  0  0  0  0  0  0  0  0  0
    4.2977    0.1754    0.0000 C   0  0  0  0  0  0  0  0  0  0  0  0
   -3.5815    3.0552    0.0000 C   0  0  0  0  0  0  0  0  0  0  0  0
   -4.2977    1.8273    0.0000 C   0  0  0  0  0  0  0  0  0  0  0  0
   -3.5961    0.5847    0.0000 C   0  0  0  0  0  0  0  0  0  0  0  0
   -4.2977    0.1901    0.0000 C   0  0  0  0  0  0  0  0  0  0  0  0
  1 13  1  0  0  0  0
  1 34  1  0  0  0  0
  2 28  1  0  0  0  0
  2 29  1  0  0  0  0
  3 21  2  0  0  0  0
  4 32  1  0  0  0  0
  4 33  1  0  0  0  0
  5 12  1  0  0  0  0
  5 25  1  0  0  0  0
  5 26  1  0  0  0  0
  6 13  2  0  0  0  0
  6 18  1  0  0  0  0
  7 15  1  0  0  0  0
  7 22  2  0  0  0  0
  8 17  1  0  0  0  0
  8 21  1  0  0  0  0
  9 20  2  0  0  0  0
  9 31  1  0  0  0  0
 10 11  1  0  0  0  0
 10 14  1  0  0  0  0
 10 18  2  0  0  0  0
 11 15  2  0  0  0  0
 11 16  1  0  0  0  0
 12 13  1  0  0  0  0
 12 14  2  0  0  0  0
 15 30  1  0  0  0  0
 16 17  2  0  0  0  0
 17 22  1  0  0  0  0
 19 21  1  0  0  0  0
 19 24  2  0  0  0  0
 19 27  1  0  0  0  0
 20 23  1  0  0  0  0
 20 24  1  0  0  0  0
 23 28  1  0  0  0  0
 23 29  1  0  0  0  0
 25 32  1  0  0  0  0
 26 33  1  0  0  0  0
 27 31  2  0  0  0  0
 34 35  1  0  0  0  0
M  END
> <PUBCHEM_COMPOUND_ID_TYPE>
0

> <PUBCHEM_TOTAL_CHARGE>
0

> <PUBCHEM_SUBSTANCE_ID>
310943246

> <PUBCHEM_SUBSTANCE_VERSION>
1

> <PUBCHEM_EXT_DATASOURCE_NAME>
4488

> <PUBCHEM_EXT_DATASOURCE_REGID>
SCHEMBL16121308

> <PUBCHEM_SUBSTANCE_COMMENT>
InChI=1S/C26H29N5O4/c1-3-35-26-24(31-6-8-33-9-7-31)11-19(13-29-26)22-12-21(14-28-17(22)2)30-25(32)18-4-5-27-23(10-18)20-15-34-16-20/h4-5,10-14,20H,3,6-9,15-16H2,1-2H3,(H,30,32)
InChIKey=HQENBUABWFWVHO-UHFFFAOYSA-N

> <PUBCHEM_SUBSTANCE_SYNONYM>
SCHEMBL16121308

> <PUBCHEM_XREF_EXT_ID>
SCHEMBL16121308

> <PUBCHEM_EXT_DATASOURCE_URL>
https://www.surechembl.org/

> <PUBCHEM_EXT_SUBSTANCE_URL>
https://www.surechembl.org/chemical/SCHEMBL16121308

> <PUBCHEM_CID_ASSOCIATIONS>
117609671  1

> <PUBCHEM_COORDINATE_TYPE>
1
3

$$$$
