310946806
  -OEChem-07211613022D

 34 38  0     1  0  0  0  0  0999 V2000
    2.0073   -1.9208    0.0000 S   0  0  0  0  0  0  0  0  0  0  0  0
    1.9554   -2.7341    0.0000 O   0  0  0  0  0  0  0  0  0  0  0  0
    2.8206   -2.0592    0.0000 O   0  0  0  0  0  0  0  0  0  0  0  0
   -1.5747    2.7341    0.0000 O   0  0  0  0  0  0  0  0  0  0  0  0
   -3.0456   -1.7824    0.0000 O   0  0  0  0  0  0  0  0  0  0  0  0
   -1.6093    0.6057    0.0000 N   0  0  0  0  0  0  0  0  0  0  0  0
    2.2323   -1.1248    0.0000 N   0  0  3  0  0  0  0  0  0  0  0  0
   -1.1075   -0.0519    0.0000 N   0  0  0  0  0  0  0  0  0  0  0  0
   -1.2805   -1.5055    0.0000 N   0  0  0  0  0  0  0  0  0  0  0  0
   -3.8243   -0.5537    0.0000 N   0  0  0  0  0  0  0  0  0  0  0  0
    0.7441    2.0073    0.0000 N   0  0  0  0  0  0  0  0  0  0  0  0
   -2.3880    0.3461    0.0000 C   0  0  0  0  0  0  0  0  0  0  0  0
   -1.3844    1.4363    0.0000 C   0  0  3  0  0  0  0  0  0  0  0  0
    1.1594   -1.9208    0.0000 C   0  0  0  0  0  0  0  0  0  0  0  0
   -2.3880   -0.4845    0.0000 C   0  0  0  0  0  0  0  0  0  0  0  0
   -1.5747   -0.7268    0.0000 C   0  0  0  0  0  0  0  0  0  0  0  0
    0.8825   -1.1594    0.0000 C   0  0  0  0  0  0  0  0  0  0  0  0
    1.5401   -0.6576    0.0000 C   0  0  0  0  0  0  0  0  0  0  0  0
    3.0283   -0.8133    0.0000 C   0  0  0  0  0  0  0  0  0  0  0  0
   -0.4672   -1.6439    0.0000 C   0  0  0  0  0  0  0  0  0  0  0  0
   -3.0802   -0.9171    0.0000 C   0  0  0  0  0  0  0  0  0  0  0  0
    0.0692   -1.0210    0.0000 C   0  0  0  0  0  0  0  0  0  0  0  0
    0.6403   -2.5611    0.0000 C   0  0  0  0  0  0  0  0  0  0  0  0
   -3.1321    0.7268    0.0000 C   0  0  0  0  0  0  0  0  0  0  0  0
   -1.0037    2.1631    0.0000 C   0  0  0  0  0  0  0  0  0  0  0  0
   -2.1977    1.5747    0.0000 C   0  0  0  0  0  0  0  0  0  0  0  0
   -0.1730   -2.4226    0.0000 C   0  0  0  0  0  0  0  0  0  0  0  0
   -0.6057    1.1075    0.0000 C   0  0  0  0  0  0  0  0  0  0  0  0
   -3.8070    0.3115    0.0000 C   0  0  0  0  0  0  0  0  0  0  0  0
   -2.3015    2.3880    0.0000 C   0  0  0  0  0  0  0  0  0  0  0  0
    2.7514   -0.0346    0.0000 C   0  0  0  0  0  0  0  0  0  0  0  0
    3.8243   -0.5364    0.0000 C   0  0  0  0  0  0  0  0  0  0  0  0
    3.3225   -1.6266    0.0000 C   0  0  0  0  0  0  0  0  0  0  0  0
    0.0692    1.5747    0.0000 C   0  0  0  0  0  0  0  0  0  0  0  0
  1  2  2  0  0  0  0
  1  3  2  0  0  0  0
  1  7  1  0  0  0  0
  1 14  1  0  0  0  0
  4 25  1  0  0  0  0
  4 30  1  0  0  0  0
  5 21  2  0  0  0  0
  6  8  1  0  0  0  0
  6 12  1  0  0  0  0
  6 13  1  0  0  0  0
  7 18  1  0  0  0  0
  7 19  1  0  0  0  0
  8 16  2  0  0  0  0
  9 16  1  0  0  0  0
  9 20  1  0  0  0  0
 10 21  1  0  0  0  0
 10 29  1  0  0  0  0
 11 34  3  0  0  0  0
 12 15  2  0  0  0  0
 12 24  1  0  0  0  0
 13 25  1  0  0  0  0
 13 26  1  0  0  0  0
 13 28  1  1  0  0  0
 14 17  1  0  0  0  0
 14 23  2  0  0  0  0
 15 16  1  0  0  0  0
 15 21  1  0  0  0  0
 17 18  1  0  0  0  0
 17 22  2  0  0  0  0
 19 31  1  0  0  0  0
 19 32  1  0  0  0  0
 19 33  1  0  0  0  0
 20 22  1  0  0  0  0
 20 27  2  0  0  0  0
 23 27  1  0  0  0  0
 24 29  2  0  0  0  0
 26 30  1  0  0  0  0
 28 34  1  0  0  0  0
M  END
> <PUBCHEM_COMPOUND_ID_TYPE>
0

> <PUBCHEM_TOTAL_CHARGE>
0

> <PUBCHEM_SUBSTANCE_ID>
310946806

> <PUBCHEM_SUBSTANCE_VERSION>
1

> <PUBCHEM_EXT_DATASOURCE_NAME>
4488

> <PUBCHEM_EXT_DATASOURCE_REGID>
SCHEMBL16124930

> <PUBCHEM_SUBSTANCE_COMMENT>
InChI=1S/C23H26N6O4S/c1-22(2,3)28-13-15-12-16(4-5-18(15)34(28,31)32)26-20-19-17(6-10-25-21(19)30)29(27-20)23(7-9-24)8-11-33-14-23/h4-6,10,12H,7-8,11,13-14H2,1-3H3,(H,25,30)(H,26,27)/t23-/m1/s1
InChIKey=HSHNFLXETCFKET-HSZRJFAPSA-N

> <PUBCHEM_SUBSTANCE_SYNONYM>
SCHEMBL16124930

> <PUBCHEM_XREF_EXT_ID>
SCHEMBL16124930

> <PUBCHEM_EXT_DATASOURCE_URL>
https://www.surechembl.org/

> <PUBCHEM_EXT_SUBSTANCE_URL>
https://www.surechembl.org/chemical/SCHEMBL16124930

> <PUBCHEM_CID_ASSOCIATIONS>
117612667  1

> <PUBCHEM_COORDINATE_TYPE>
1
3

> <PUBCHEM_BONDANNOTATIONS>
13  28  5

$$$$
