310943330
  -OEChem-07211613022D

 34 37  0     0  0  0  0  0  0999 V2000
   -3.5822   -0.8312    0.0000 O   0  0  0  0  0  0  0  0  0  0  0  0
   -5.0239    1.6550    0.0000 O   0  0  0  0  0  0  0  0  0  0  0  0
    0.7135   -0.8312    0.0000 O   0  0  0  0  0  0  0  0  0  0  0  0
    4.2883   -0.4192    0.0000 O   0  0  0  0  0  0  0  0  0  0  0  0
   -2.1552   -0.8312    0.0000 N   0  0  0  0  0  0  0  0  0  0  0  0
   -3.5969    0.8312    0.0000 N   0  0  0  0  0  0  0  0  0  0  0  0
   -0.0073    2.0670    0.0000 N   0  0  0  0  0  0  0  0  0  0  0  0
    1.4196    0.4192    0.0000 N   0  0  0  0  0  0  0  0  0  0  0  0
   -1.4344    0.4192    0.0000 C   0  0  0  0  0  0  0  0  0  0  0  0
   -2.8613    0.4192    0.0000 C   0  0  0  0  0  0  0  0  0  0  0  0
   -0.7282    0.8312    0.0000 C   0  0  0  0  0  0  0  0  0  0  0  0
   -2.8613   -0.4046    0.0000 C   0  0  0  0  0  0  0  0  0  0  0  0
   -2.1552    0.8312    0.0000 C   0  0  0  0  0  0  0  0  0  0  0  0
   -1.4491   -0.4192    0.0000 C   0  0  0  0  0  0  0  0  0  0  0  0
   -0.7135    1.6550    0.0000 C   0  0  0  0  0  0  0  0  0  0  0  0
    0.0073    0.4192    0.0000 C   0  0  0  0  0  0  0  0  0  0  0  0
    0.6988    0.8312    0.0000 C   0  0  0  0  0  0  0  0  0  0  0  0
    0.7135    1.6550    0.0000 C   0  0  0  0  0  0  0  0  0  0  0  0
   -3.5969    1.6550    0.0000 C   0  0  0  0  0  0  0  0  0  0  0  0
   -4.2883    0.4192    0.0000 C   0  0  0  0  0  0  0  0  0  0  0  0
    1.4344   -0.4046    0.0000 C   0  0  0  0  0  0  0  0  0  0  0  0
    2.1405   -0.8312    0.0000 C   0  0  0  0  0  0  0  0  0  0  0  0
   -2.1552   -1.6697    0.0000 C   0  0  0  0  0  0  0  0  0  0  0  0
   -1.4491    2.0522    0.0000 C   0  0  0  0  0  0  0  0  0  0  0  0
    2.8466   -0.4340    0.0000 C   0  0  0  0  0  0  0  0  0  0  0  0
   -4.3177    2.0670    0.0000 C   0  0  0  0  0  0  0  0  0  0  0  0
   -5.0091    0.8312    0.0000 C   0  0  0  0  0  0  0  0  0  0  0  0
    3.5675   -0.8165    0.0000 C   0  0  0  0  0  0  0  0  0  0  0  0
    2.1405   -1.6550    0.0000 C   0  0  0  0  0  0  0  0  0  0  0  0
    3.5675   -1.6550    0.0000 C   0  0  0  0  0  0  0  0  0  0  0  0
    2.8613   -2.0670    0.0000 C   0  0  0  0  0  0  0  0  0  0  0  0
    4.2883    0.4192    0.0000 C   0  0  0  0  0  0  0  0  0  0  0  0
    5.0239    0.8165    0.0000 C   0  0  0  0  0  0  0  0  0  0  0  0
    3.5527    0.8165    0.0000 C   0  0  0  0  0  0  0  0  0  0  0  0
  1 12  2  0  0  0  0
  2 26  1  0  0  0  0
  2 27  1  0  0  0  0
  3 21  2  0  0  0  0
  4 28  1  0  0  0  0
  4 32  1  0  0  0  0
  5 12  1  0  0  0  0
  5 14  1  0  0  0  0
  5 23  1  0  0  0  0
  6 10  1  0  0  0  0
  6 19  1  0  0  0  0
  6 20  1  0  0  0  0
  7 15  1  0  0  0  0
  7 18  2  0  0  0  0
  8 17  1  0  0  0  0
  8 21  1  0  0  0  0
  9 11  1  0  0  0  0
  9 13  1  0  0  0  0
  9 14  2  0  0  0  0
 10 12  1  0  0  0  0
 10 13  2  0  0  0  0
 11 15  2  0  0  0  0
 11 16  1  0  0  0  0
 15 24  1  0  0  0  0
 16 17  2  0  0  0  0
 17 18  1  0  0  0  0
 19 26  1  0  0  0  0
 20 27  1  0  0  0  0
 21 22  1  0  0  0  0
 22 25  1  0  0  0  0
 22 29  2  0  0  0  0
 25 28  2  0  0  0  0
 28 30  1  0  0  0  0
 29 31  1  0  0  0  0
 30 31  2  0  0  0  0
 32 33  1  0  0  0  0
 32 34  1  0  0  0  0
M  END
> <PUBCHEM_COMPOUND_ID_TYPE>
0

> <PUBCHEM_TOTAL_CHARGE>
0

> <PUBCHEM_SUBSTANCE_ID>
310943330

> <PUBCHEM_SUBSTANCE_VERSION>
1

> <PUBCHEM_EXT_DATASOURCE_NAME>
4488

> <PUBCHEM_EXT_DATASOURCE_REGID>
SCHEMBL16121392

> <PUBCHEM_SUBSTANCE_COMMENT>
InChI=1S/C26H30N4O4/c1-17(2)34-22-7-5-6-19(12-22)25(31)28-21-14-23(18(3)27-15-21)20-13-24(26(32)29(4)16-20)30-8-10-33-11-9-30/h5-7,12-17H,8-11H2,1-4H3,(H,28,31)
InChIKey=AIEBIELPPOUNST-UHFFFAOYSA-N

> <PUBCHEM_SUBSTANCE_SYNONYM>
SCHEMBL16121392

> <PUBCHEM_XREF_EXT_ID>
SCHEMBL16121392

> <PUBCHEM_EXT_DATASOURCE_URL>
https://www.surechembl.org/

> <PUBCHEM_EXT_SUBSTANCE_URL>
https://www.surechembl.org/chemical/SCHEMBL16121392

> <PUBCHEM_CID_ASSOCIATIONS>
117609755  1

> <PUBCHEM_COORDINATE_TYPE>
1
3

$$$$
