310942401
  -OEChem-07211613022D

 31 34  0     0  0  0  0  0  0999 V2000
    4.3132    2.0769    0.0000 O   0  0  0  0  0  0  0  0  0  0  0  0
    1.4259   -0.3941    0.0000 N   0  0  0  0  0  0  0  0  0  0  0  0
   -2.9050    1.2532    0.0000 N   0  0  0  0  0  0  0  0  0  0  0  0
   -0.0177   -0.3941    0.0000 N   0  0  0  0  0  0  0  0  0  0  0  0
    0.7085    0.8370    0.0000 N   0  0  0  0  0  0  0  0  0  0  0  0
    2.8696   -0.3941    0.0000 N   0  0  0  0  0  0  0  0  0  0  0  0
   -4.3487    2.0769    0.0000 N   0  0  0  0  0  0  0  0  0  0  0  0
    2.1522    0.0133    0.0000 C   0  0  0  0  0  0  0  0  0  0  0  0
    0.7085    0.0133    0.0000 C   0  0  0  0  0  0  0  0  0  0  0  0
    2.1610    0.8458    0.0000 C   0  0  0  0  0  0  0  0  0  0  0  0
   -2.1699    0.8370    0.0000 C   0  0  0  0  0  0  0  0  0  0  0  0
   -0.7351    0.0221    0.0000 C   0  0  0  0  0  0  0  0  0  0  0  0
    1.4259    1.2444    0.0000 C   0  0  0  0  0  0  0  0  0  0  0  0
   -2.1699    0.0221    0.0000 C   0  0  0  0  0  0  0  0  0  0  0  0
   -1.4525    1.2444    0.0000 C   0  0  0  0  0  0  0  0  0  0  0  0
   -1.4525   -0.3853    0.0000 C   0  0  0  0  0  0  0  0  0  0  0  0
   -0.7351    0.8370    0.0000 C   0  0  0  0  0  0  0  0  0  0  0  0
    2.8785   -1.2178    0.0000 C   0  0  0  0  0  0  0  0  0  0  0  0
    2.8696    1.2444    0.0000 C   0  0  0  0  0  0  0  0  0  0  0  0
   -3.6047    0.8458    0.0000 C   0  0  0  0  0  0  0  0  0  0  0  0
   -2.8962    2.0681    0.0000 C   0  0  0  0  0  0  0  0  0  0  0  0
   -4.3398    1.2532    0.0000 C   0  0  0  0  0  0  0  0  0  0  0  0
   -3.6313    2.4843    0.0000 C   0  0  0  0  0  0  0  0  0  0  0  0
    2.2141   -1.6961    0.0000 C   0  0  0  0  0  0  0  0  0  0  0  0
    3.5427   -1.7049    0.0000 C   0  0  0  0  0  0  0  0  0  0  0  0
    3.6136    0.8458    0.0000 C   0  0  0  0  0  0  0  0  0  0  0  0
    2.4622   -2.4843    0.0000 C   0  0  0  0  0  0  0  0  0  0  0  0
    3.2947   -2.4754    0.0000 C   0  0  0  0  0  0  0  0  0  0  0  0
    4.3132    1.2355    0.0000 C   0  0  0  0  0  0  0  0  0  0  0  0
   -5.0572    2.4843    0.0000 C   0  0  0  0  0  0  0  0  0  0  0  0
    5.0572    0.8458    0.0000 C   0  0  0  0  0  0  0  0  0  0  0  0
  1 29  2  0  0  0  0
  2  8  2  0  0  0  0
  2  9  1  0  0  0  0
  3 11  1  0  0  0  0
  3 20  1  0  0  0  0
  3 21  1  0  0  0  0
  4  9  1  0  0  0  0
  4 12  1  0  0  0  0
  5  9  2  0  0  0  0
  5 13  1  0  0  0  0
  6  8  1  0  0  0  0
  6 18  1  0  0  0  0
  7 22  1  0  0  0  0
  7 23  1  0  0  0  0
  7 30  1  0  0  0  0
  8 10  1  0  0  0  0
 10 13  2  0  0  0  0
 10 19  1  0  0  0  0
 11 14  2  0  0  0  0
 11 15  1  0  0  0  0
 12 16  2  0  0  0  0
 12 17  1  0  0  0  0
 14 16  1  0  0  0  0
 15 17  2  0  0  0  0
 18 24  1  0  0  0  0
 18 25  1  0  0  0  0
 19 26  2  0  0  0  0
 20 22  1  0  0  0  0
 21 23  1  0  0  0  0
 24 27  1  0  0  0  0
 25 28  1  0  0  0  0
 26 29  1  0  0  0  0
 27 28  1  0  0  0  0
 29 31  1  0  0  0  0
M  END
> <PUBCHEM_COMPOUND_ID_TYPE>
0

> <PUBCHEM_TOTAL_CHARGE>
0

> <PUBCHEM_SUBSTANCE_ID>
310942401

> <PUBCHEM_SUBSTANCE_VERSION>
1

> <PUBCHEM_EXT_DATASOURCE_NAME>
4488

> <PUBCHEM_EXT_DATASOURCE_REGID>
SCHEMBL16120437

> <PUBCHEM_SUBSTANCE_COMMENT>
InChI=1S/C24H32N6O/c1-18(31)7-8-19-17-25-24(28-23(19)26-20-5-3-4-6-20)27-21-9-11-22(12-10-21)30-15-13-29(2)14-16-30/h7-12,17,20H,3-6,13-16H2,1-2H3,(H2,25,26,27,28)/b8-7+
InChIKey=XDTJGQIXJVYUAZ-BQYQJAHWSA-N

> <PUBCHEM_SUBSTANCE_SYNONYM>
SCHEMBL16120437

> <PUBCHEM_XREF_EXT_ID>
SCHEMBL16120437

> <PUBCHEM_EXT_DATASOURCE_URL>
https://www.surechembl.org/

> <PUBCHEM_EXT_SUBSTANCE_URL>
https://www.surechembl.org/chemical/SCHEMBL16120437

> <PUBCHEM_CID_ASSOCIATIONS>
90466344  1

> <PUBCHEM_COORDINATE_TYPE>
1
3

$$$$
