310932741
  -OEChem-07211613022D

 24 27  0     0  0  0  0  0  0999 V2000
    5.6764   -3.4665    0.0000 O   0  0  0  0  0  0  0  0  0  0  0  0
    4.3548   -2.8166    0.0000 N   0  0  0  0  0  0  0  0  0  0  0  0
    3.5532   -3.0332    0.0000 C   0  0  0  0  0  0  0  0  0  0  0  0
    3.5532   -3.8998    0.0000 C   0  0  0  0  0  0  0  0  0  0  0  0
    4.8532   -3.4665    0.0000 C   0  0  0  0  0  0  0  0  0  0  0  0
    4.6148   -2.0149    0.0000 C   0  0  0  0  0  0  0  0  0  0  0  0
    4.3548   -4.1382    0.0000 C   0  0  0  0  0  0  0  0  0  0  0  0
    2.8382   -2.6432    0.0000 C   0  0  0  0  0  0  0  0  0  0  0  0
    2.1449   -3.0332    0.0000 C   0  0  0  0  0  0  0  0  0  0  0  0
    2.8382   -4.2898    0.0000 C   0  0  0  0  0  0  0  0  0  0  0  0
    2.1449   -3.8998    0.0000 C   0  0  0  0  0  0  0  0  0  0  0  0
    4.0515   -1.4083    0.0000 C   0  0  0  0  0  0  0  0  0  0  0  0
    5.4165   -1.8416    0.0000 C   0  0  0  0  0  0  0  0  0  0  0  0
    1.4299   -2.6216    0.0000 C   0  0  0  0  0  0  0  0  0  0  0  0
    4.3115   -0.6066    0.0000 C   0  0  0  0  0  0  0  0  0  0  0  0
    5.6764   -1.0616    0.0000 C   0  0  0  0  0  0  0  0  0  0  0  0
    5.1131   -0.4333    0.0000 C   0  0  0  0  0  0  0  0  0  0  0  0
    0.6933   -3.0332    0.0000 C   0  0  0  0  0  0  0  0  0  0  0  0
    1.4299   -1.7982    0.0000 C   0  0  0  0  0  0  0  0  0  0  0  0
    3.7482    0.0000    0.0000 C   0  0  0  0  0  0  0  0  0  0  0  0
    6.4997   -0.8883    0.0000 C   0  0  0  0  0  0  0  0  0  0  0  0
    0.0000   -2.6216    0.0000 C   0  0  0  0  0  0  0  0  0  0  0  0
    0.7150   -1.3866    0.0000 C   0  0  0  0  0  0  0  0  0  0  0  0
    0.0000   -1.7982    0.0000 C   0  0  0  0  0  0  0  0  0  0  0  0
  1  5  2  0  0  0  0
  2  3  1  0  0  0  0
  2  5  1  0  0  0  0
  2  6  1  0  0  0  0
  3  4  2  0  0  0  0
  3  8  1  0  0  0  0
  4  7  1  0  0  0  0
  4 10  1  0  0  0  0
  5  7  1  0  0  0  0
  6 12  2  0  0  0  0
  6 13  1  0  0  0  0
  8  9  2  0  0  0  0
  9 11  1  0  0  0  0
  9 14  1  0  0  0  0
 10 11  2  0  0  0  0
 12 15  1  0  0  0  0
 13 16  2  0  0  0  0
 14 18  2  0  0  0  0
 14 19  1  0  0  0  0
 15 17  2  0  0  0  0
 15 20  1  0  0  0  0
 16 17  1  0  0  0  0
 16 21  1  0  0  0  0
 18 22  1  0  0  0  0
 19 23  2  0  0  0  0
 22 24  2  0  0  0  0
 23 24  1  0  0  0  0
M  END
> <PUBCHEM_COMPOUND_ID_TYPE>
0

> <PUBCHEM_TOTAL_CHARGE>
0

> <PUBCHEM_SUBSTANCE_ID>
310932741

> <PUBCHEM_SUBSTANCE_VERSION>
1

> <PUBCHEM_EXT_DATASOURCE_NAME>
4488

> <PUBCHEM_EXT_DATASOURCE_REGID>
SCHEMBL16110125

> <PUBCHEM_SUBSTANCE_COMMENT>
InChI=1S/C22H19NO/c1-15-10-16(2)12-20(11-15)23-21-13-18(17-6-4-3-5-7-17)8-9-19(21)14-22(23)24/h3-13H,14H2,1-2H3
InChIKey=YLRBZIKEKPPRTN-UHFFFAOYSA-N

> <PUBCHEM_SUBSTANCE_SYNONYM>
SCHEMBL16110125

> <PUBCHEM_XREF_EXT_ID>
SCHEMBL16110125

> <PUBCHEM_EXT_DATASOURCE_URL>
https://www.surechembl.org/

> <PUBCHEM_EXT_SUBSTANCE_URL>
https://www.surechembl.org/chemical/SCHEMBL16110125

> <PUBCHEM_CID_ASSOCIATIONS>
117601245  1

> <PUBCHEM_COORDINATE_TYPE>
1
3

$$$$
