310945459
  -OEChem-07211613022D

 33 36  0     0  0  0  0  0  0999 V2000
   -1.1138    1.3970    0.0000 Cl  0  0  0  0  0  0  0  0  0  0  0  0
   -1.1327   -1.8501    0.0000 Cl  0  0  0  0  0  0  0  0  0  0  0  0
    0.7552    1.6424    0.0000 F   0  0  0  0  0  0  0  0  0  0  0  0
    1.5292    2.5863    0.0000 F   0  0  0  0  0  0  0  0  0  0  0  0
    2.3221    1.6424    0.0000 F   0  0  0  0  0  0  0  0  0  0  0  0
   -3.4548   -1.1704    0.0000 F   0  0  0  0  0  0  0  0  0  0  0  0
   -4.2287   -0.2266    0.0000 F   0  0  0  0  0  0  0  0  0  0  0  0
   -3.4548    0.6985    0.0000 F   0  0  0  0  0  0  0  0  0  0  0  0
    3.5680    0.2266    0.0000 O   0  0  0  0  0  0  0  0  0  0  0  0
    0.1133    0.5286    0.0000 N   0  0  0  0  0  0  0  0  0  0  0  0
    0.0944   -1.0005    0.0000 N   0  0  0  0  0  0  0  0  0  0  0  0
    1.5102   -1.1704    0.0000 N   0  0  0  0  0  0  0  0  0  0  0  0
    2.2088    0.2454    0.0000 N   0  0  0  0  0  0  0  0  0  0  0  0
    0.8495    0.2077    0.0000 C   0  0  0  0  0  0  0  0  0  0  0  0
    0.8118   -0.7363    0.0000 C   0  0  0  0  0  0  0  0  0  0  0  0
    1.5102    0.6797    0.0000 C   0  0  0  0  0  0  0  0  0  0  0  0
   -0.3587   -0.2643    0.0000 C   0  0  0  0  0  0  0  0  0  0  0  0
   -1.1327   -0.2643    0.0000 C   0  0  0  0  0  0  0  0  0  0  0  0
    2.2088   -0.7363    0.0000 C   0  0  0  0  0  0  0  0  0  0  0  0
    1.5292    1.6235    0.0000 C   0  0  0  0  0  0  0  0  0  0  0  0
   -1.5292    0.5475    0.0000 C   0  0  0  0  0  0  0  0  0  0  0  0
   -1.5292   -1.0761    0.0000 C   0  0  0  0  0  0  0  0  0  0  0  0
    2.8884   -1.1893    0.0000 C   0  0  0  0  0  0  0  0  0  0  0  0
   -2.6807   -0.2643    0.0000 C   0  0  0  0  0  0  0  0  0  0  0  0
   -2.2843    0.5286    0.0000 C   0  0  0  0  0  0  0  0  0  0  0  0
   -2.2843   -1.0571    0.0000 C   0  0  0  0  0  0  0  0  0  0  0  0
   -3.4548   -0.2455    0.0000 C   0  0  0  0  0  0  0  0  0  0  0  0
    3.5491   -0.7363    0.0000 C   0  0  0  0  0  0  0  0  0  0  0  0
    2.9072   -2.1521    0.0000 C   0  0  0  0  0  0  0  0  0  0  0  0
    4.2287   -1.2082    0.0000 C   0  0  0  0  0  0  0  0  0  0  0  0
    3.5680   -2.5863    0.0000 C   0  0  0  0  0  0  0  0  0  0  0  0
    4.2098   -2.1521    0.0000 C   0  0  0  0  0  0  0  0  0  0  0  0
    4.2287    0.6985    0.0000 C   0  0  0  0  0  0  0  0  0  0  0  0
  1 21  1  0  0  0  0
  2 22  1  0  0  0  0
  3 20  1  0  0  0  0
  4 20  1  0  0  0  0
  5 20  1  0  0  0  0
  6 27  1  0  0  0  0
  7 27  1  0  0  0  0
  8 27  1  0  0  0  0
  9 28  1  0  0  0  0
  9 33  1  0  0  0  0
 10 14  1  0  0  0  0
 10 17  2  0  0  0  0
 11 15  1  0  0  0  0
 11 17  1  0  0  0  0
 12 15  1  0  0  0  0
 12 19  2  0  0  0  0
 13 16  2  0  0  0  0
 13 19  1  0  0  0  0
 14 15  2  0  0  0  0
 14 16  1  0  0  0  0
 16 20  1  0  0  0  0
 17 18  1  0  0  0  0
 18 21  2  0  0  0  0
 18 22  1  0  0  0  0
 19 23  1  0  0  0  0
 21 25  1  0  0  0  0
 22 26  2  0  0  0  0
 23 28  1  0  0  0  0
 23 29  2  0  0  0  0
 24 25  2  0  0  0  0
 24 26  1  0  0  0  0
 24 27  1  0  0  0  0
 28 30  2  0  0  0  0
 29 31  1  0  0  0  0
 30 32  1  0  0  0  0
 31 32  2  0  0  0  0
M  END
> <PUBCHEM_COMPOUND_ID_TYPE>
0

> <PUBCHEM_TOTAL_CHARGE>
0

> <PUBCHEM_SUBSTANCE_ID>
310945459

> <PUBCHEM_SUBSTANCE_VERSION>
1

> <PUBCHEM_EXT_DATASOURCE_NAME>
4488

> <PUBCHEM_EXT_DATASOURCE_REGID>
SCHEMBL16123557

> <PUBCHEM_SUBSTANCE_COMMENT>
InChI=1S/C20H10Cl2F6N4O/c1-33-12-5-3-2-4-9(12)16-30-15(20(26,27)28)14-18(31-16)32-17(29-14)13-10(21)6-8(7-11(13)22)19(23,24)25/h2-7H,1H3,(H,29,30,31,32)
InChIKey=ODNGDUPDNREHFY-UHFFFAOYSA-N

> <PUBCHEM_SUBSTANCE_SYNONYM>
SCHEMBL16123557

> <PUBCHEM_XREF_EXT_ID>
SCHEMBL16123557

> <PUBCHEM_EXT_DATASOURCE_URL>
https://www.surechembl.org/

> <PUBCHEM_EXT_SUBSTANCE_URL>
https://www.surechembl.org/chemical/SCHEMBL16123557

> <PUBCHEM_CID_ASSOCIATIONS>
117611504  1

> <PUBCHEM_COORDINATE_TYPE>
1
3

$$$$
