310934064
  -OEChem-07211613022D

 29 32  0     0  0  0  0  0  0999 V2000
    6.4105   -1.6561    0.0000 Cl  0  0  0  0  0  0  0  0  0  0  0  0
    2.1369    0.0000    0.0000 O   0  0  0  0  0  0  0  0  0  0  0  0
    1.4156   -1.2287    0.0000 O   0  0  0  0  0  0  0  0  0  0  0  0
    3.5792    0.0000    0.0000 N   0  0  0  0  0  0  0  0  0  0  0  0
    4.2737   -3.7127    0.0000 N   0  0  0  0  0  0  0  0  0  0  0  0
    3.5792   -1.6561    0.0000 C   0  0  0  0  0  0  0  0  0  0  0  0
    4.3004   -1.2287    0.0000 C   0  0  0  0  0  0  0  0  0  0  0  0
    2.8580   -1.2287    0.0000 C   0  0  0  0  0  0  0  0  0  0  0  0
    4.3004   -0.4274    0.0000 C   0  0  0  0  0  0  0  0  0  0  0  0
    2.8580   -0.4274    0.0000 C   0  0  0  0  0  0  0  0  0  0  0  0
    3.5792   -2.4841    0.0000 C   0  0  0  0  0  0  0  0  0  0  0  0
    2.1369   -1.6561    0.0000 C   0  0  0  0  0  0  0  0  0  0  0  0
    4.9948   -1.6561    0.0000 C   0  0  0  0  0  0  0  0  0  0  0  0
    4.9948    0.0000    0.0000 C   0  0  0  0  0  0  0  0  0  0  0  0
    5.7161   -1.2287    0.0000 C   0  0  0  0  0  0  0  0  0  0  0  0
    4.2737   -2.9114    0.0000 C   0  0  0  0  0  0  0  0  0  0  0  0
    2.8580   -2.9114    0.0000 C   0  0  0  0  0  0  0  0  0  0  0  0
    5.7161   -0.4274    0.0000 C   0  0  0  0  0  0  0  0  0  0  0  0
    2.1369   -2.4574    0.0000 C   0  0  0  0  0  0  0  0  0  0  0  0
    2.8580   -3.7127    0.0000 C   0  0  0  0  0  0  0  0  0  0  0  0
    1.4156   -2.8847    0.0000 C   0  0  0  0  0  0  0  0  0  0  0  0
    3.5792   -4.1401    0.0000 C   0  0  0  0  0  0  0  0  0  0  0  0
    1.4156   -3.7127    0.0000 C   0  0  0  0  0  0  0  0  0  0  0  0
    0.6945   -4.1134    0.0000 C   0  0  0  0  0  0  0  0  0  0  0  0
    2.1102   -4.1134    0.0000 C   0  0  0  0  0  0  0  0  0  0  0  0
    0.6945   -4.9414    0.0000 C   0  0  0  0  0  0  0  0  0  0  0  0
    2.1102   -4.9414    0.0000 C   0  0  0  0  0  0  0  0  0  0  0  0
    1.4156   -5.3421    0.0000 C   0  0  0  0  0  0  0  0  0  0  0  0
    0.0000   -3.7127    0.0000 C   0  0  0  0  0  0  0  0  0  0  0  0
  1 15  1  0  0  0  0
  2 10  2  0  0  0  0
  3 12  2  0  0  0  0
  4  9  1  0  0  0  0
  4 10  1  0  0  0  0
  5 16  1  0  0  0  0
  5 22  2  0  0  0  0
  6  7  1  0  0  0  0
  6  8  2  0  0  0  0
  6 11  1  0  0  0  0
  7  9  2  0  0  0  0
  7 13  1  0  0  0  0
  8 10  1  0  0  0  0
  8 12  1  0  0  0  0
  9 14  1  0  0  0  0
 11 16  2  0  0  0  0
 11 17  1  0  0  0  0
 12 19  1  0  0  0  0
 13 15  2  0  0  0  0
 14 18  2  0  0  0  0
 15 18  1  0  0  0  0
 17 20  2  0  0  0  0
 19 21  2  0  0  0  0
 20 22  1  0  0  0  0
 21 23  1  0  0  0  0
 23 24  2  0  0  0  0
 23 25  1  0  0  0  0
 24 26  1  0  0  0  0
 24 29  1  0  0  0  0
 25 27  2  0  0  0  0
 26 28  2  0  0  0  0
 27 28  1  0  0  0  0
M  END
> <PUBCHEM_COMPOUND_ID_TYPE>
0

> <PUBCHEM_TOTAL_CHARGE>
0

> <PUBCHEM_SUBSTANCE_ID>
310934064

> <PUBCHEM_SUBSTANCE_VERSION>
1

> <PUBCHEM_EXT_DATASOURCE_NAME>
4488

> <PUBCHEM_EXT_DATASOURCE_REGID>
SCHEMBL16111508

> <PUBCHEM_SUBSTANCE_COMMENT>
InChI=1S/C24H17ClN2O2/c1-15-5-2-3-6-16(15)8-11-21(28)23-22(17-7-4-12-26-14-17)19-13-18(25)9-10-20(19)27-24(23)29/h2-14H,1H3,(H,27,29)/b11-8+
InChIKey=IQBIKZIEVYOIEQ-DHZHZOJOSA-N

> <PUBCHEM_SUBSTANCE_SYNONYM>
SCHEMBL16111508

> <PUBCHEM_XREF_EXT_ID>
SCHEMBL16111508

> <PUBCHEM_EXT_DATASOURCE_URL>
https://www.surechembl.org/

> <PUBCHEM_EXT_SUBSTANCE_URL>
https://www.surechembl.org/chemical/SCHEMBL16111508

> <PUBCHEM_CID_ASSOCIATIONS>
86301180  1

> <PUBCHEM_COORDINATE_TYPE>
1
3

$$$$
