310947560
  -OEChem-07211613022D

 18 19  0     1  0  0  0  0  0999 V2000
   -3.4047  -10.3962    0.0000 F   0  0  0  0  0  0  0  0  0  0  0  0
   -2.5797   -8.4122    0.0000 O   0  0  0  0  0  0  0  0  0  0  0  0
   -1.7547  -10.3962    0.0000 O   0  0  0  0  0  0  0  0  0  0  0  0
   -4.6274   -8.5273    0.0000 O   0  0  0  0  0  0  0  0  0  0  0  0
   -1.9122   -8.0721    0.0000 N   0  0  0  0  0  0  0  0  0  0  0  0
   -1.1978   -6.8346    0.0000 N   0  0  0  0  0  0  0  0  0  0  0  0
   -1.9122   -5.5971    0.0000 N   0  0  0  0  0  0  0  0  0  0  0  0
   -2.1672   -9.6817    0.0000 C   0  0  3  0  0  0  0  0  0  0  0  0
   -1.9122   -8.8971    0.0000 C   0  0  3  0  0  0  0  0  0  0  0  0
   -2.9922   -9.6817    0.0000 C   0  0  3  0  0  0  0  0  0  0  0  0
   -3.2471   -8.8971    0.0000 C   0  0  3  0  0  0  0  0  0  0  0  0
   -1.1978   -7.6596    0.0000 C   0  0  0  0  0  0  0  0  0  0  0  0
   -1.3703   -9.4682    0.0000 C   0  0  0  0  0  0  0  0  0  0  0  0
   -2.6267   -7.6596    0.0000 C   0  0  0  0  0  0  0  0  0  0  0  0
   -3.8305   -8.3137    0.0000 C   0  0  0  0  0  0  0  0  0  0  0  0
   -1.9122   -6.4221    0.0000 C   0  0  0  0  0  0  0  0  0  0  0  0
   -2.6267   -6.8346    0.0000 C   0  0  0  0  0  0  0  0  0  0  0  0
   -0.4833   -8.0721    0.0000 C   0  0  0  0  0  0  0  0  0  0  0  0
 10  1  1  6  0  0  0
  9  2  1  6  0  0  0
  2 11  1  0  0  0  0
  8  3  1  6  0  0  0
  4 15  1  0  0  0  0
  5  9  1  0  0  0  0
  5 12  1  0  0  0  0
  5 14  1  0  0  0  0
  6 12  1  0  0  0  0
  6 16  2  0  0  0  0
  7 16  1  0  0  0  0
  8  9  1  0  0  0  0
  8 10  1  0  0  0  0
  8 13  1  1  0  0  0
 10 11  1  0  0  0  0
 11 15  1  1  0  0  0
 12 18  2  0  0  0  0
 14 17  2  0  0  0  0
 16 17  1  0  0  0  0
M  END
> <PUBCHEM_COMPOUND_ID_TYPE>
0

> <PUBCHEM_TOTAL_CHARGE>
0

> <PUBCHEM_SUBSTANCE_ID>
310947560

> <PUBCHEM_SUBSTANCE_VERSION>
1

> <PUBCHEM_EXT_DATASOURCE_NAME>
4488

> <PUBCHEM_EXT_DATASOURCE_REGID>
SCHEMBL16125723

> <PUBCHEM_SUBSTANCE_COMMENT>
InChI=1S/C11H16FN3O3/c1-6-14-8(13)3-4-15(6)10-11(2,17)9(12)7(5-16)18-10/h3-4,7,9-10,16-17H,1,5H2,2H3,(H2,13,14)/t7-,9-,10-,11-/m1/s1
InChIKey=DWPHCGQXGAUFJP-QCNRFFRDSA-N

> <PUBCHEM_SUBSTANCE_SYNONYM>
SCHEMBL16125723

> <PUBCHEM_XREF_EXT_ID>
SCHEMBL16125723

> <PUBCHEM_EXT_DATASOURCE_URL>
https://www.surechembl.org/

> <PUBCHEM_EXT_SUBSTANCE_URL>
https://www.surechembl.org/chemical/SCHEMBL16125723

> <PUBCHEM_CID_ASSOCIATIONS>
117613282  1

> <PUBCHEM_COORDINATE_TYPE>
1
3

> <PUBCHEM_BONDANNOTATIONS>
10  1  6
11  15  5
9  2  6
8  3  6
8  13  5

$$$$
