310939348
  -OEChem-07211613022D

 29 30  0     1  0  0  0  0  0999 V2000
    0.7145    1.4437    0.0000 Cl  0  0  0  0  0  0  0  0  0  0  0  0
   -0.7145   -1.0313    0.0000 F   0  0  0  0  0  0  0  0  0  0  0  0
    0.7145   -0.2063    0.0000 O   0  0  0  0  0  0  0  0  0  0  0  0
    4.2868    0.2063    0.0000 O   0  0  0  0  0  0  0  0  0  0  0  0
   -5.0013   -0.2063    0.0000 O   0  0  0  0  0  0  0  0  0  0  0  0
   -2.8579    0.2062    0.0000 N   0  0  0  0  0  0  0  0  0  0  0  0
    3.5724    1.4437    0.0000 N   0  0  0  0  0  0  0  0  0  0  0  0
   -4.2868    1.0312    0.0000 N   0  0  0  0  0  0  0  0  0  0  0  0
    0.0000    0.2062    0.0000 C   0  0  0  0  0  0  0  0  0  0  0  0
   -0.7145   -0.2063    0.0000 C   0  0  0  0  0  0  0  0  0  0  0  0
   -1.4289    0.2062    0.0000 C   0  0  0  0  0  0  0  0  0  0  0  0
    0.0000    1.0312    0.0000 C   0  0  0  0  0  0  0  0  0  0  0  0
   -2.1434   -0.2063    0.0000 C   0  0  3  0  0  0  0  0  0  0  0  0
   -1.4289    1.0312    0.0000 C   0  0  0  0  0  0  0  0  0  0  0  0
   -0.7145    1.4437    0.0000 C   0  0  0  0  0  0  0  0  0  0  0  0
    1.4289    0.2062    0.0000 C   0  0  0  0  0  0  0  0  0  0  0  0
   -2.1434   -1.0313    0.0000 C   0  0  0  0  0  0  0  0  0  0  0  0
    2.1434   -0.2063    0.0000 C   0  0  0  0  0  0  0  0  0  0  0  0
    1.4289    1.0312    0.0000 C   0  0  0  0  0  0  0  0  0  0  0  0
    2.8579    1.0312    0.0000 C   0  0  0  0  0  0  0  0  0  0  0  0
   -2.8579    1.0312    0.0000 C   0  0  3  0  0  0  0  0  0  0  0  0
    2.8579    0.2062    0.0000 C   0  0  0  0  0  0  0  0  0  0  0  0
    2.1434    1.4437    0.0000 C   0  0  0  0  0  0  0  0  0  0  0  0
   -3.5724    1.4437    0.0000 C   0  0  0  0  0  0  0  0  0  0  0  0
   -1.4289   -1.4438    0.0000 C   0  0  0  0  0  0  0  0  0  0  0  0
    4.2868    1.0313    0.0000 C   0  0  0  0  0  0  0  0  0  0  0  0
   -2.1434    1.4437    0.0000 C   0  0  0  0  0  0  0  0  0  0  0  0
    5.0013    1.4438    0.0000 C   0  0  0  0  0  0  0  0  0  0  0  0
   -4.2868    0.2062    0.0000 C   0  0  0  0  0  0  0  0  0  0  0  0
  1 12  1  0  0  0  0
  2 10  1  0  0  0  0
  3  9  1  0  0  0  0
  3 16  1  0  0  0  0
  4 26  2  0  0  0  0
  5 29  2  0  0  0  0
 13  6  1  1  0  0  0
  6 21  1  0  0  0  0
  7 20  1  0  0  0  0
  7 26  1  0  0  0  0
  8 24  1  0  0  0  0
  8 29  1  0  0  0  0
  9 10  2  0  0  0  0
  9 12  1  0  0  0  0
 10 11  1  0  0  0  0
 11 13  1  0  0  0  0
 11 14  2  0  0  0  0
 12 15  2  0  0  0  0
 13 17  1  0  0  0  0
 14 15  1  0  0  0  0
 16 18  2  0  0  0  0
 16 19  1  0  0  0  0
 17 25  1  0  0  0  0
 18 22  1  0  0  0  0
 19 23  2  0  0  0  0
 20 22  2  0  0  0  0
 20 23  1  0  0  0  0
 21 24  1  0  0  0  0
 21 27  1  6  0  0  0
 26 28  1  0  0  0  0
M  END
> <PUBCHEM_COMPOUND_ID_TYPE>
0

> <PUBCHEM_TOTAL_CHARGE>
0

> <PUBCHEM_SUBSTANCE_ID>
310939348

> <PUBCHEM_SUBSTANCE_VERSION>
1

> <PUBCHEM_EXT_DATASOURCE_NAME>
4488

> <PUBCHEM_EXT_DATASOURCE_REGID>
SCHEMBL16117269

> <PUBCHEM_SUBSTANCE_COMMENT>
InChI=1S/C21H25ClFN3O3/c1-4-19(25-13(2)11-24-12-27)17-9-10-18(22)21(20(17)23)29-16-7-5-15(6-8-16)26-14(3)28/h5-10,12-13,19,25H,4,11H2,1-3H3,(H,24,27)(H,26,28)/t13-,19+/m0/s1
InChIKey=JGBUQIGSABWAQP-ORAYPTAESA-N

> <PUBCHEM_SUBSTANCE_SYNONYM>
SCHEMBL16117269

> <PUBCHEM_XREF_EXT_ID>
SCHEMBL16117269

> <PUBCHEM_EXT_DATASOURCE_URL>
https://www.surechembl.org/

> <PUBCHEM_EXT_SUBSTANCE_URL>
https://www.surechembl.org/chemical/SCHEMBL16117269

> <PUBCHEM_CID_ASSOCIATIONS>
117606675  1

> <PUBCHEM_COORDINATE_TYPE>
1
3

> <PUBCHEM_BONDANNOTATIONS>
21  27  6
13  6  5

$$$$
