310948769
  -OEChem-07211613022D

 31 34  0     1  0  0  0  0  0999 V2000
    0.5271   -3.6251    0.0000 F   0  0  0  0  0  0  0  0  0  0  0  0
    0.8230   -2.2195    0.0000 F   0  0  0  0  0  0  0  0  0  0  0  0
    1.0820   -3.0148    0.0000 F   0  0  0  0  0  0  0  0  0  0  0  0
   -2.5987    1.9605    0.0000 O   0  0  0  0  0  0  0  0  0  0  0  0
    0.1572    1.8126    0.0000 N   0  0  0  0  0  0  0  0  0  0  0  0
   -0.1942    1.0543    0.0000 N   0  0  0  0  0  0  0  0  0  0  0  0
   -1.5629    0.5179    0.0000 N   0  0  0  0  0  0  0  0  0  0  0  0
   -1.8772    3.1997    0.0000 N   0  0  0  0  0  0  0  0  0  0  0  0
   -1.1004   -3.2737    0.0000 N   0  0  0  0  0  0  0  0  0  0  0  0
    1.0265   -0.2405    0.0000 N   0  0  0  0  0  0  0  0  0  0  0  0
   -1.1560    1.9605    0.0000 C   0  0  0  0  0  0  0  0  0  0  0  0
   -0.4716    2.3859    0.0000 C   0  0  0  0  0  0  0  0  0  0  0  0
   -0.9895    1.1652    0.0000 C   0  0  0  0  0  0  0  0  0  0  0  0
    0.9710    1.9790    0.0000 C   0  0  3  0  0  0  0  0  0  0  0  0
   -1.8772    2.3859    0.0000 C   0  0  0  0  0  0  0  0  0  0  0  0
   -0.4347    3.1997    0.0000 C   0  0  0  0  0  0  0  0  0  0  0  0
    1.5444    1.3502    0.0000 C   0  0  3  0  0  0  0  0  0  0  0  0
   -1.3225   -0.2590    0.0000 C   0  0  0  0  0  0  0  0  0  0  0  0
   -1.1560    3.6251    0.0000 C   0  0  0  0  0  0  0  0  0  0  0  0
    1.2485    2.7558    0.0000 C   0  0  0  0  0  0  0  0  0  0  0  0
   -0.8046   -1.8496    0.0000 C   0  0  0  0  0  0  0  0  0  0  0  0
    2.3212    1.5351    0.0000 C   0  0  0  0  0  0  0  0  0  0  0  0
   -1.8404   -0.8693    0.0000 C   0  0  0  0  0  0  0  0  0  0  0  0
   -0.5087   -0.4439    0.0000 C   0  0  0  0  0  0  0  0  0  0  0  0
   -0.5457   -2.6449    0.0000 C   0  0  3  0  0  0  0  0  0  0  0  0
    1.2670    0.5364    0.0000 C   0  0  0  0  0  0  0  0  0  0  0  0
    2.0437    2.9224    0.0000 C   0  0  0  0  0  0  0  0  0  0  0  0
   -1.5999   -1.6646    0.0000 C   0  0  0  0  0  0  0  0  0  0  0  0
   -0.2497   -1.2392    0.0000 C   0  0  0  0  0  0  0  0  0  0  0  0
    0.2867   -2.8298    0.0000 C   0  0  0  0  0  0  0  0  0  0  0  0
    2.5987    2.3119    0.0000 C   0  0  0  0  0  0  0  0  0  0  0  0
  1 30  1  0  0  0  0
  2 30  1  0  0  0  0
  3 30  1  0  0  0  0
  4 15  2  0  0  0  0
  5  6  1  0  0  0  0
  5 12  1  0  0  0  0
 14  5  1  1  0  0  0
  6 13  2  0  0  0  0
  7 13  1  0  0  0  0
  7 18  1  0  0  0  0
  8 15  1  0  0  0  0
  8 19  1  0  0  0  0
 25  9  1  1  0  0  0
 10 26  3  0  0  0  0
 11 12  2  0  0  0  0
 11 13  1  0  0  0  0
 11 15  1  0  0  0  0
 12 16  1  0  0  0  0
 14 17  1  0  0  0  0
 14 20  1  0  0  0  0
 16 19  2  0  0  0  0
 17 22  1  0  0  0  0
 17 26  1  6  0  0  0
 18 23  2  0  0  0  0
 18 24  1  0  0  0  0
 20 27  1  0  0  0  0
 21 25  1  0  0  0  0
 21 28  2  0  0  0  0
 21 29  1  0  0  0  0
 22 31  1  0  0  0  0
 23 28  1  0  0  0  0
 24 29  2  0  0  0  0
 25 30  1  0  0  0  0
 27 31  1  0  0  0  0
M  END
> <PUBCHEM_COMPOUND_ID_TYPE>
0

> <PUBCHEM_TOTAL_CHARGE>
0

> <PUBCHEM_SUBSTANCE_ID>
310948769

> <PUBCHEM_SUBSTANCE_VERSION>
1

> <PUBCHEM_EXT_DATASOURCE_NAME>
4488

> <PUBCHEM_EXT_DATASOURCE_REGID>
SCHEMBL16126953

> <PUBCHEM_SUBSTANCE_COMMENT>
InChI=1S/C21H21F3N6O/c22-21(23,24)18(26)12-5-7-14(8-6-12)28-19-17-16(9-10-27-20(17)31)30(29-19)15-4-2-1-3-13(15)11-25/h5-10,13,15,18H,1-4,26H2,(H,27,31)(H,28,29)/t13-,15+,18+/m1/s1
InChIKey=CTUPBUJYNCQIRR-XUWXXGDYSA-N

> <PUBCHEM_SUBSTANCE_SYNONYM>
SCHEMBL16126953

> <PUBCHEM_XREF_EXT_ID>
SCHEMBL16126953

> <PUBCHEM_EXT_DATASOURCE_URL>
https://www.surechembl.org/

> <PUBCHEM_EXT_SUBSTANCE_URL>
https://www.surechembl.org/chemical/SCHEMBL16126953

> <PUBCHEM_CID_ASSOCIATIONS>
117614311  1

> <PUBCHEM_COORDINATE_TYPE>
1
3

> <PUBCHEM_BONDANNOTATIONS>
17  26  6
14  5  5
25  9  5

$$$$
