310943219
  -OEChem-07211613022D

 16 18  0     0  0  0  0  0  0999 V2000
    1.7027   -2.0537    0.0000 Cl  0  0  0  0  0  0  0  0  0  0  0  0
    0.2633    2.0537    0.0000 O   0  0  0  0  0  0  0  0  0  0  0  0
   -0.4389   -1.6500    0.0000 N   0  0  0  0  0  0  0  0  0  0  0  0
    0.2633    0.4037    0.0000 N   0  0  0  0  0  0  0  0  0  0  0  0
   -1.2287   -0.5793    0.0000 N   0  0  0  0  0  0  0  0  0  0  0  0
   -0.4389   -0.8250    0.0000 C   0  0  0  0  0  0  0  0  0  0  0  0
    0.2809   -0.4213    0.0000 C   0  0  0  0  0  0  0  0  0  0  0  0
    1.0006   -0.8426    0.0000 C   0  0  0  0  0  0  0  0  0  0  0  0
    0.9654   -1.6500    0.0000 C   0  0  0  0  0  0  0  0  0  0  0  0
    0.2809   -2.0537    0.0000 C   0  0  0  0  0  0  0  0  0  0  0  0
   -1.1760   -1.8957    0.0000 C   0  0  0  0  0  0  0  0  0  0  0  0
   -1.7027   -1.2639    0.0000 C   0  0  0  0  0  0  0  0  0  0  0  0
   -0.4389    0.8250    0.0000 C   0  0  0  0  0  0  0  0  0  0  0  0
    0.9830    0.8250    0.0000 C   0  0  0  0  0  0  0  0  0  0  0  0
   -0.4213    1.6500    0.0000 C   0  0  0  0  0  0  0  0  0  0  0  0
    1.0006    1.6324    0.0000 C   0  0  0  0  0  0  0  0  0  0  0  0
  1  9  1  0  0  0  0
  2 15  1  0  0  0  0
  2 16  1  0  0  0  0
  3  6  1  0  0  0  0
  3 10  1  0  0  0  0
  3 11  1  0  0  0  0
  4  7  1  0  0  0  0
  4 13  1  0  0  0  0
  4 14  1  0  0  0  0
  5  6  2  0  0  0  0
  5 12  1  0  0  0  0
  6  7  1  0  0  0  0
  7  8  2  0  0  0  0
  8  9  1  0  0  0  0
  9 10  2  0  0  0  0
 11 12  2  0  0  0  0
 13 15  1  0  0  0  0
 14 16  1  0  0  0  0
M  END
> <PUBCHEM_COMPOUND_ID_TYPE>
0

> <PUBCHEM_TOTAL_CHARGE>
0

> <PUBCHEM_SUBSTANCE_ID>
310943219

> <PUBCHEM_SUBSTANCE_VERSION>
1

> <PUBCHEM_EXT_DATASOURCE_NAME>
4488

> <PUBCHEM_EXT_DATASOURCE_REGID>
SCHEMBL16121280

> <PUBCHEM_SUBSTANCE_COMMENT>
InChI=1S/C11H12ClN3O/c12-9-7-10(14-3-5-16-6-4-14)11-13-1-2-15(11)8-9/h1-2,7-8H,3-6H2
InChIKey=RUXJYDIVJQVBIP-UHFFFAOYSA-N

> <PUBCHEM_SUBSTANCE_SYNONYM>
SCHEMBL16121280

> <PUBCHEM_XREF_EXT_ID>
SCHEMBL16121280

> <PUBCHEM_EXT_DATASOURCE_URL>
https://www.surechembl.org/

> <PUBCHEM_EXT_SUBSTANCE_URL>
https://www.surechembl.org/chemical/SCHEMBL16121280

> <PUBCHEM_CID_ASSOCIATIONS>
117609645  1

> <PUBCHEM_COORDINATE_TYPE>
1
3

$$$$
