310938103
  -OEChem-07211613022D

 18 19  0     0  0  0  0  0  0999 V2000
    2.0310    0.0000    0.0000 Cl  0  0  0  0  0  0  0  0  0  0  0  0
    0.0000   -3.5704    0.0000 O   0  0  0  0  0  0  0  0  0  0  0  0
    1.2614   -4.2759    0.0000 N   0  0  0  0  0  0  0  0  0  0  0  0
    3.7414   -2.8435    0.0000 N   0  0  0  0  0  0  0  0  0  0  0  0
    4.5324   -2.8220    0.0000 N   0  0  0  0  0  0  0  0  0  0  0  0
    2.0738   -2.8648    0.0000 C   0  0  0  0  0  0  0  0  0  0  0  0
    2.4800   -2.1380    0.0000 C   0  0  0  0  0  0  0  0  0  0  0  0
    2.5014   -3.5704    0.0000 C   0  0  0  0  0  0  0  0  0  0  0  0
    3.2924   -2.1165    0.0000 C   0  0  0  0  0  0  0  0  0  0  0  0
    1.2614   -2.8648    0.0000 C   0  0  0  0  0  0  0  0  0  0  0  0
    2.0524   -1.4111    0.0000 C   0  0  0  0  0  0  0  0  0  0  0  0
    0.8338   -3.5704    0.0000 C   0  0  0  0  0  0  0  0  0  0  0  0
    2.0738   -4.2759    0.0000 C   0  0  0  0  0  0  0  0  0  0  0  0
    2.4586   -0.7055    0.0000 C   0  0  0  0  0  0  0  0  0  0  0  0
    3.6986   -1.4111    0.0000 C   0  0  0  0  0  0  0  0  0  0  0  0
    3.2710   -0.7055    0.0000 C   0  0  0  0  0  0  0  0  0  0  0  0
    3.3352   -3.5704    0.0000 C   0  0  0  0  0  0  0  0  0  0  0  0
    3.8911   -2.9931    0.0000 C   0  0  0  0  0  0  0  0  0  0  0  0
  1 14  1  0  0  0  0
  2 12  2  0  0  0  0
  3 12  1  0  0  0  0
  3 13  1  0  0  0  0
  4 17  3  0  0  0  0
  5 18  3  0  0  0  0
  6  7  1  0  0  0  0
  6  8  1  0  0  0  0
  6 10  2  0  0  0  0
  7  9  1  0  0  0  0
  7 11  2  0  0  0  0
  8 13  2  0  0  0  0
  8 17  1  0  0  0  0
  9 15  2  0  0  0  0
  9 18  1  0  0  0  0
 10 12  1  0  0  0  0
 11 14  1  0  0  0  0
 14 16  2  0  0  0  0
 15 16  1  0  0  0  0
M  END
> <PUBCHEM_COMPOUND_ID_TYPE>
0

> <PUBCHEM_TOTAL_CHARGE>
0

> <PUBCHEM_SUBSTANCE_ID>
310938103

> <PUBCHEM_SUBSTANCE_VERSION>
1

> <PUBCHEM_EXT_DATASOURCE_NAME>
4488

> <PUBCHEM_EXT_DATASOURCE_REGID>
SCHEMBL16115949

> <PUBCHEM_SUBSTANCE_COMMENT>
InChI=1S/C13H6ClN3O/c14-10-2-1-8(5-15)11(3-10)12-4-13(18)17-7-9(12)6-16/h1-4,7H,(H,17,18)
InChIKey=SWKLRRZUTDFQGQ-UHFFFAOYSA-N

> <PUBCHEM_SUBSTANCE_SYNONYM>
SCHEMBL16115949

> <PUBCHEM_XREF_EXT_ID>
SCHEMBL16115949

> <PUBCHEM_EXT_DATASOURCE_URL>
https://www.surechembl.org/

> <PUBCHEM_EXT_SUBSTANCE_URL>
https://www.surechembl.org/chemical/SCHEMBL16115949

> <PUBCHEM_CID_ASSOCIATIONS>
117605665  1

> <PUBCHEM_COORDINATE_TYPE>
1
3

$$$$
