310929746
  -OEChem-07211613022D

 55 61  0     1  0  0  0  0  0999 V2000
    1.4616   -0.4972    0.0000 O   0  0  0  0  0  0  0  0  0  0  0  0
    5.1028   -1.5144    0.0000 O   0  0  0  0  0  0  0  0  0  0  0  0
    2.2838   -0.5650    0.0000 O   0  0  0  0  0  0  0  0  0  0  0  0
    0.2870    0.3166    0.0000 O   0  0  0  0  0  0  0  0  0  0  0  0
    3.8614    2.1159    0.0000 O   0  0  0  0  0  0  0  0  0  0  0  0
    4.9188    1.7983    0.0000 O   0  0  0  0  0  0  0  0  0  0  0  0
    6.1599   -3.7523    0.0000 O   0  0  0  0  0  0  0  0  0  0  0  0
    3.5759    0.0454    0.0000 N   0  0  0  0  0  0  0  0  0  0  0  0
    1.5791    0.9270    0.0000 N   0  0  0  0  0  0  0  0  0  0  0  0
    5.0403   -1.1700    0.0000 N   0  0  0  0  0  0  0  0  0  0  0  0
    0.9918   -1.1753    0.0000 C   0  0  3  0  0  0  0  0  0  0  0  0
    1.3442   -1.9213    0.0000 C   0  0  3  0  0  0  0  0  0  0  0  0
    0.5219   -1.8534    0.0000 C   0  0  3  0  0  0  0  0  0  0  0  0
    2.1664   -1.9891    0.0000 C   0  0  0  0  0  0  0  0  0  0  0  0
    2.4013    0.8591    0.0000 C   0  0  3  0  0  0  0  0  0  0  0  0
    4.2323    0.5451    0.0000 C   0  0  3  0  0  0  0  0  0  0  0  0
    1.1092    0.2488    0.0000 C   0  0  0  0  0  0  0  0  0  0  0  0
    2.7537    0.1132    0.0000 C   0  0  0  0  0  0  0  0  0  0  0  0
   -0.2240   -2.2058    0.0000 C   0  0  0  0  0  0  0  0  0  0  0  0
    2.8711    1.5373    0.0000 C   0  0  0  0  0  0  0  0  0  0  0  0
    4.7504   -0.7684    0.0000 C   0  0  3  0  0  0  0  0  0  0  0  0
    3.9282   -0.7006    0.0000 C   0  0  0  0  0  0  0  0  0  0  0  0
    4.9104    0.0753    0.0000 C   0  0  0  0  0  0  0  0  0  0  0  0
    2.5187   -2.7350    0.0000 C   0  0  0  0  0  0  0  0  0  0  0  0
    4.2138    1.3699    0.0000 C   0  0  0  0  0  0  0  0  0  0  0  0
    2.1217    1.8822    0.0000 C   0  0  0  0  0  0  0  0  0  0  0  0
    3.5446    2.0138    0.0000 C   0  0  0  0  0  0  0  0  0  0  0  0
    4.6330   -2.1925    0.0000 C   0  0  0  0  0  0  0  0  0  0  0  0
    3.4574    0.9568    0.0000 C   0  0  0  0  0  0  0  0  0  0  0  0
    4.9854   -2.9385    0.0000 C   0  0  0  0  0  0  0  0  0  0  0  0
    3.3409   -2.8028    0.0000 C   0  0  0  0  0  0  0  0  0  0  0  0
    5.8076   -3.0063    0.0000 C   0  0  0  0  0  0  0  0  0  0  0  0
    6.2774   -2.3281    0.0000 C   0  0  0  0  0  0  0  0  0  0  0  0
    5.9250   -1.5822    0.0000 C   0  0  0  0  0  0  0  0  0  0  0  0
    2.0457    2.7037    0.0000 C   0  0  0  0  0  0  0  0  0  0  0  0
    3.4686    2.8353    0.0000 C   0  0  0  0  0  0  0  0  0  0  0  0
    4.5155   -3.6166    0.0000 C   0  0  0  0  0  0  0  0  0  0  0  0
    3.6933   -3.5488    0.0000 C   0  0  0  0  0  0  0  0  0  0  0  0
    2.7191    3.1803    0.0000 C   0  0  0  0  0  0  0  0  0  0  0  0
    7.0996   -2.3960    0.0000 C   0  0  0  0  0  0  0  0  0  0  0  0
    6.3949   -0.9040    0.0000 C   0  0  0  0  0  0  0  0  0  0  0  0
    7.5694   -1.7178    0.0000 C   0  0  0  0  0  0  0  0  0  0  0  0
    7.2171   -0.9719    0.0000 C   0  0  0  0  0  0  0  0  0  0  0  0
    6.9822   -3.8201    0.0000 C   0  0  0  0  0  0  0  0  0  0  0  0
    7.3345   -4.5660    0.0000 C   0  0  0  0  0  0  0  0  0  0  0  0
    6.8647   -5.2442    0.0000 C   0  0  0  0  0  0  0  0  0  0  0  0
    8.1567   -4.6338    0.0000 C   0  0  0  0  0  0  0  0  0  0  0  0
    7.2171   -5.9901    0.0000 C   0  0  0  0  0  0  0  0  0  0  0  0
    8.5091   -5.3798    0.0000 C   0  0  0  0  0  0  0  0  0  0  0  0
    8.0393   -6.0579    0.0000 C   0  0  0  0  0  0  0  0  0  0  0  0
    0.3136   -0.7055    0.0000 H   0  0  0  0  0  0  0  0  0  0  0  0
    1.2763   -2.7435    0.0000 H   0  0  0  0  0  0  0  0  0  0  0  0
    3.2235    0.7913    0.0000 H   0  0  0  0  0  0  0  0  0  0  0  0
    4.9588    0.9361    0.0000 H   0  0  0  0  0  0  0  0  0  0  0  0
    5.5688   -0.6639    0.0000 H   0  0  0  0  0  0  0  0  0  0  0  0
  1 11  1  0  0  0  0
  1 17  1  0  0  0  0
  2 21  1  0  0  0  0
  2 28  1  0  0  0  0
  3 18  2  0  0  0  0
  4 17  2  0  0  0  0
  5 25  2  0  0  0  0
  6 25  1  0  0  0  0
  7 32  1  0  0  0  0
  7 44  1  0  0  0  0
  8 16  1  0  0  0  0
  8 18  1  0  0  0  0
  8 22  1  0  0  0  0
  9 15  1  0  0  0  0
  9 17  1  0  0  0  0
 10 28  2  0  0  0  0
 10 34  1  0  0  0  0
 11 12  1  0  0  0  0
 11 13  1  0  0  0  0
 11 51  1  6  0  0  0
 12 13  1  0  0  0  0
 12 14  1  0  0  0  0
 12 52  1  1  0  0  0
 13 19  1  0  0  0  0
 14 24  1  0  0  0  0
 15 18  1  0  0  0  0
 15 20  1  0  0  0  0
 15 53  1  6  0  0  0
 16 23  1  0  0  0  0
 16 25  1  0  0  0  0
 16 54  1  1  0  0  0
 20 26  1  0  0  0  0
 20 27  1  0  0  0  0
 20 29  1  0  0  0  0
 21 22  1  0  0  0  0
 21 23  1  0  0  0  0
 21 55  1  6  0  0  0
 24 31  1  0  0  0  0
 26 35  1  0  0  0  0
 27 36  1  0  0  0  0
 28 30  1  0  0  0  0
 30 32  2  0  0  0  0
 30 37  1  0  0  0  0
 31 38  1  0  0  0  0
 32 33  1  0  0  0  0
 33 34  2  0  0  0  0
 33 40  1  0  0  0  0
 34 41  1  0  0  0  0
 35 39  1  0  0  0  0
 36 39  1  0  0  0  0
 37 38  3  0  0  0  0
 40 42  2  0  0  0  0
 41 43  2  0  0  0  0
 42 43  1  0  0  0  0
 44 45  1  0  0  0  0
 45 46  2  0  0  0  0
 45 47  1  0  0  0  0
 46 48  1  0  0  0  0
 47 49  2  0  0  0  0
 48 50  2  0  0  0  0
 49 50  1  0  0  0  0
M  END
> <PUBCHEM_COMPOUND_ID_TYPE>
0

> <PUBCHEM_TOTAL_CHARGE>
0

> <PUBCHEM_SUBSTANCE_ID>
310929746

> <PUBCHEM_SUBSTANCE_VERSION>
1

> <PUBCHEM_EXT_DATASOURCE_NAME>
4488

> <PUBCHEM_EXT_DATASOURCE_REGID>
SCHEMBL16106944

> <PUBCHEM_SUBSTANCE_COMMENT>
InChI=1S/C40H45N3O7/c1-25-28-16-8-4-9-18-30-34(48-24-26-14-6-3-7-15-26)29-17-10-11-19-31(29)41-36(30)49-27-22-32(38(45)46)43(23-27)37(44)35(42-39(47)50-33(25)28)40(2)20-12-5-13-21-40/h3,6-7,10-11,14-15,17,19,25,27-28,32-33,35H,4-5,8,12-13,16,20-24H2,1-2H3,(H,42,47)(H,45,46)/t25?,27-,28-,32+,33-,35-/m1/s1
InChIKey=AXAAMCSDVPHHTL-WNXUKCKWSA-N

> <PUBCHEM_SUBSTANCE_SYNONYM>
SCHEMBL16106944

> <PUBCHEM_XREF_EXT_ID>
SCHEMBL16106944

> <PUBCHEM_EXT_DATASOURCE_URL>
https://www.surechembl.org/

> <PUBCHEM_EXT_SUBSTANCE_URL>
https://www.surechembl.org/chemical/SCHEMBL16106944

> <PUBCHEM_CID_ASSOCIATIONS>
117599037  1

> <PUBCHEM_COORDINATE_TYPE>
1
3

> <PUBCHEM_BONDANNOTATIONS>
11  51  6
12  52  5
15  53  6
16  54  5
21  55  6

$$$$
