310932732
  -OEChem-07211613022D

 31 34  0     0  0  0  0  0  0999 V2000
    2.8338   -2.1164    0.0000 O   0  0  0  0  0  0  0  0  0  0  0  0
    0.1076   -2.3675    0.0000 O   0  0  0  0  0  0  0  0  0  0  0  0
    7.2818   -2.2240    0.0000 O   0  0  0  0  0  0  0  0  0  0  0  0
    3.7306   -0.9685    0.0000 N   0  0  0  0  0  0  0  0  0  0  0  0
    3.6589   -0.1435    0.0000 N   0  0  0  0  0  0  0  0  0  0  0  0
    5.1655   -0.9685    0.0000 N   0  0  0  0  0  0  0  0  0  0  0  0
    0.0000   -0.9685    0.0000 N   0  0  0  0  0  0  0  0  0  0  0  0
    6.6002   -3.4436    0.0000 N   0  0  0  0  0  0  0  0  0  0  0  0
    8.0351   -5.9187    0.0000 N   0  0  0  0  0  0  0  0  0  0  0  0
    7.6047   -7.1742    0.0000 N   0  0  0  0  0  0  0  0  0  0  0  0
    2.4392   -0.7174    0.0000 C   0  0  0  0  0  0  0  0  0  0  0  0
    2.9773   -1.3272    0.0000 C   0  0  0  0  0  0  0  0  0  0  0  0
    4.4480   -1.3990    0.0000 C   0  0  0  0  0  0  0  0  0  0  0  0
    1.6142   -0.7892    0.0000 C   0  0  0  0  0  0  0  0  0  0  0  0
    2.8338    0.0000    0.0000 C   0  0  0  0  0  0  0  0  0  0  0  0
    4.4480   -2.2240    0.0000 C   0  0  0  0  0  0  0  0  0  0  0  0
    1.2913   -1.5783    0.0000 C   0  0  0  0  0  0  0  0  0  0  0  0
    5.8829   -2.2240    0.0000 C   0  0  0  0  0  0  0  0  0  0  0  0
    1.1479   -0.1435    0.0000 C   0  0  0  0  0  0  0  0  0  0  0  0
    0.4663   -1.6142    0.0000 C   0  0  0  0  0  0  0  0  0  0  0  0
    5.8829   -1.3990    0.0000 C   0  0  0  0  0  0  0  0  0  0  0  0
    5.1655   -2.6186    0.0000 C   0  0  0  0  0  0  0  0  0  0  0  0
    6.6002   -2.6186    0.0000 C   0  0  0  0  0  0  0  0  0  0  0  0
    0.3228   -0.2152    0.0000 C   0  0  0  0  0  0  0  0  0  0  0  0
    7.3177   -3.8382    0.0000 C   0  0  0  0  0  0  0  0  0  0  0  0
    0.6098   -3.0491    0.0000 C   0  0  0  0  0  0  0  0  0  0  0  0
    7.3177   -4.6632    0.0000 C   0  0  0  0  0  0  0  0  0  0  0  0
    8.0351   -5.0578    0.0000 C   0  0  0  0  0  0  0  0  0  0  0  0
    7.3536   -6.4209    0.0000 C   0  0  0  0  0  0  0  0  0  0  0  0
    8.7166   -6.3850    0.0000 C   0  0  0  0  0  0  0  0  0  0  0  0
    8.4297   -7.1742    0.0000 C   0  0  0  0  0  0  0  0  0  0  0  0
  1 12  1  0  0  0  0
  2 20  1  0  0  0  0
  2 26  1  0  0  0  0
  3 23  2  0  0  0  0
  4  5  1  0  0  0  0
  4 12  1  0  0  0  0
  4 13  1  0  0  0  0
  5 15  2  0  0  0  0
  6 13  2  0  0  0  0
  6 21  1  0  0  0  0
  7 20  1  0  0  0  0
  7 24  2  0  0  0  0
  8 23  1  0  0  0  0
  8 25  1  0  0  0  0
  9 28  1  0  0  0  0
  9 29  1  0  0  0  0
  9 30  1  0  0  0  0
 10 29  2  0  0  0  0
 10 31  1  0  0  0  0
 11 12  2  0  0  0  0
 11 14  1  0  0  0  0
 11 15  1  0  0  0  0
 13 16  1  0  0  0  0
 14 17  1  0  0  0  0
 14 19  2  0  0  0  0
 16 22  2  0  0  0  0
 17 20  2  0  0  0  0
 18 21  2  0  0  0  0
 18 22  1  0  0  0  0
 18 23  1  0  0  0  0
 19 24  1  0  0  0  0
 25 27  1  0  0  0  0
 27 28  1  0  0  0  0
 30 31  2  0  0  0  0
M  END
> <PUBCHEM_COMPOUND_ID_TYPE>
0

> <PUBCHEM_TOTAL_CHARGE>
0

> <PUBCHEM_SUBSTANCE_ID>
310932732

> <PUBCHEM_SUBSTANCE_VERSION>
1

> <PUBCHEM_EXT_DATASOURCE_NAME>
4488

> <PUBCHEM_EXT_DATASOURCE_REGID>
SCHEMBL16110116

> <PUBCHEM_SUBSTANCE_COMMENT>
InChI=1S/C21H21N7O3/c1-31-19-11-15(5-7-23-19)17-13-26-28(21(17)30)18-4-3-16(12-25-18)20(29)24-6-2-9-27-10-8-22-14-27/h3-5,7-8,10-14,30H,2,6,9H2,1H3,(H,24,29)
InChIKey=AKUFHHYMUDENKS-UHFFFAOYSA-N

> <PUBCHEM_SUBSTANCE_SYNONYM>
SCHEMBL16110116

> <PUBCHEM_XREF_EXT_ID>
SCHEMBL16110116

> <PUBCHEM_EXT_DATASOURCE_URL>
https://www.surechembl.org/

> <PUBCHEM_EXT_SUBSTANCE_URL>
https://www.surechembl.org/chemical/SCHEMBL16110116

> <PUBCHEM_CID_ASSOCIATIONS>
117601238  1

> <PUBCHEM_COORDINATE_TYPE>
1
3

$$$$
