310934562
  -OEChem-07211613022D

 32 35  0     0  0  0  0  0  0999 V2000
    0.9134   -0.2342    0.0000 O   0  0  0  0  0  0  0  0  0  0  0  0
    0.0000   -3.9344    0.0000 O   0  0  0  0  0  0  0  0  0  0  0  0
    3.4426   -4.2155    0.0000 O   0  0  0  0  0  0  0  0  0  0  0  0
    5.8783   -3.0913    0.0000 O   0  0  0  0  0  0  0  0  0  0  0  0
    2.7635   -1.2647    0.0000 N   0  0  0  0  0  0  0  0  0  0  0  0
    2.3654    0.0000    0.0000 N   0  0  0  0  0  0  0  0  0  0  0  0
    3.8174   -0.2342    0.0000 N   0  0  0  0  0  0  0  0  0  0  0  0
    1.9438   -1.2647    0.0000 C   0  0  0  0  0  0  0  0  0  0  0  0
    1.7096   -0.4918    0.0000 C   0  0  0  0  0  0  0  0  0  0  0  0
    1.4754   -1.9438    0.0000 C   0  0  0  0  0  0  0  0  0  0  0  0
    2.3185   -2.0141    0.0000 C   0  0  0  0  0  0  0  0  0  0  0  0
    3.0211   -0.4918    0.0000 C   0  0  0  0  0  0  0  0  0  0  0  0
    3.2553   -1.9438    0.0000 C   0  0  0  0  0  0  0  0  0  0  0  0
    1.8033   -2.6933    0.0000 C   0  0  0  0  0  0  0  0  0  0  0  0
    3.1616   -2.0609    0.0000 C   0  0  0  0  0  0  0  0  0  0  0  0
    0.6558   -1.8502    0.0000 C   0  0  0  0  0  0  0  0  0  0  0  0
    2.0375   -2.8572    0.0000 C   0  0  0  0  0  0  0  0  0  0  0  0
    4.0750   -1.8502    0.0000 C   0  0  0  0  0  0  0  0  0  0  0  0
    1.3115   -3.3724    0.0000 C   0  0  0  0  0  0  0  0  0  0  0  0
    3.5129   -2.7869    0.0000 C   0  0  0  0  0  0  0  0  0  0  0  0
    0.1639   -2.5293    0.0000 C   0  0  0  0  0  0  0  0  0  0  0  0
    2.2482   -3.4192    0.0000 C   0  0  0  0  0  0  0  0  0  0  0  0
    0.4918   -3.2787    0.0000 C   0  0  0  0  0  0  0  0  0  0  0  0
    3.0679   -3.4895    0.0000 C   0  0  0  0  0  0  0  0  0  0  0  0
    4.5668   -2.5059    0.0000 C   0  0  0  0  0  0  0  0  0  0  0  0
    4.4263   -1.1007    0.0000 C   0  0  0  0  0  0  0  0  0  0  0  0
    5.3864   -2.4356    0.0000 C   0  0  0  0  0  0  0  0  0  0  0  0
    5.2460   -1.0070    0.0000 C   0  0  0  0  0  0  0  0  0  0  0  0
    5.7143   -1.6862    0.0000 C   0  0  0  0  0  0  0  0  0  0  0  0
    0.3279   -4.6839    0.0000 C   0  0  0  0  0  0  0  0  0  0  0  0
    4.2623   -4.2623    0.0000 C   0  0  0  0  0  0  0  0  0  0  0  0
    6.6980   -3.0211    0.0000 C   0  0  0  0  0  0  0  0  0  0  0  0
  1  9  2  0  0  0  0
  2 23  1  0  0  0  0
  2 30  1  0  0  0  0
  3 24  1  0  0  0  0
  3 31  1  0  0  0  0
  4 27  1  0  0  0  0
  4 32  1  0  0  0  0
  5  8  1  0  0  0  0
  5 12  1  0  0  0  0
  5 13  1  0  0  0  0
  6  9  1  0  0  0  0
  6 12  1  0  0  0  0
  7 12  2  3  0  0  0
  8  9  1  0  0  0  0
  8 10  1  0  0  0  0
  8 11  1  0  0  0  0
 10 14  2  0  0  0  0
 10 16  1  0  0  0  0
 11 15  2  0  0  0  0
 11 17  1  0  0  0  0
 13 18  1  0  0  0  0
 14 19  1  0  0  0  0
 15 20  1  0  0  0  0
 16 21  2  0  0  0  0
 17 22  2  0  0  0  0
 18 25  1  0  0  0  0
 18 26  2  0  0  0  0
 19 23  2  0  0  0  0
 20 24  2  0  0  0  0
 21 23  1  0  0  0  0
 22 24  1  0  0  0  0
 25 27  2  0  0  0  0
 26 28  1  0  0  0  0
 27 29  1  0  0  0  0
 28 29  2  0  0  0  0
M  END
> <PUBCHEM_COMPOUND_ID_TYPE>
0

> <PUBCHEM_TOTAL_CHARGE>
0

> <PUBCHEM_SUBSTANCE_ID>
310934562

> <PUBCHEM_SUBSTANCE_VERSION>
1

> <PUBCHEM_EXT_DATASOURCE_NAME>
4488

> <PUBCHEM_EXT_DATASOURCE_REGID>
SCHEMBL16112053

> <PUBCHEM_SUBSTANCE_COMMENT>
InChI=1S/C25H25N3O4/c1-30-20-11-7-18(8-12-20)25(19-9-13-21(31-2)14-10-19)23(29)27-24(26)28(25)16-17-5-4-6-22(15-17)32-3/h4-15H,16H2,1-3H3,(H2,26,27,29)
InChIKey=JJPFIDSTWRBAIP-UHFFFAOYSA-N

> <PUBCHEM_SUBSTANCE_SYNONYM>
SCHEMBL16112053

> <PUBCHEM_XREF_EXT_ID>
SCHEMBL16112053

> <PUBCHEM_EXT_DATASOURCE_URL>
https://www.surechembl.org/

> <PUBCHEM_EXT_SUBSTANCE_URL>
https://www.surechembl.org/chemical/SCHEMBL16112053

> <PUBCHEM_CID_ASSOCIATIONS>
117602753  1

> <PUBCHEM_COORDINATE_TYPE>
1
3

$$$$
