310943537
  -OEChem-07211613022D

 36 39  0     0  0  0  0  0  0999 V2000
    4.6329    2.0444    0.0000 F   0  0  0  0  0  0  0  0  0  0  0  0
    5.3524    1.6232    0.0000 F   0  0  0  0  0  0  0  0  0  0  0  0
    5.3524    0.8160    0.0000 F   0  0  0  0  0  0  0  0  0  0  0  0
   -3.9309   -0.4124    0.0000 O   0  0  0  0  0  0  0  0  0  0  0  0
    1.7724    2.0444    0.0000 O   0  0  0  0  0  0  0  0  0  0  0  0
   -5.3524    2.0444    0.0000 O   0  0  0  0  0  0  0  0  0  0  0  0
   -3.2114   -2.4831    0.0000 O   0  0  0  0  0  0  0  0  0  0  0  0
   -3.9134    1.2197    0.0000 N   0  0  0  0  0  0  0  0  0  0  0  0
   -2.4919   -0.4300    0.0000 N   0  0  0  0  0  0  0  0  0  0  0  0
    1.0705    0.8160    0.0000 N   0  0  0  0  0  0  0  0  0  0  0  0
    3.2114   -0.4300    0.0000 N   0  0  0  0  0  0  0  0  0  0  0  0
   -1.7724    0.8335    0.0000 C   0  0  0  0  0  0  0  0  0  0  0  0
   -1.0705    1.2372    0.0000 C   0  0  0  0  0  0  0  0  0  0  0  0
   -3.1939    0.8335    0.0000 C   0  0  0  0  0  0  0  0  0  0  0  0
   -3.2289    0.0088    0.0000 C   0  0  0  0  0  0  0  0  0  0  0  0
   -2.5094    1.2197    0.0000 C   0  0  0  0  0  0  0  0  0  0  0  0
   -1.0529    2.0619    0.0000 C   0  0  0  0  0  0  0  0  0  0  0  0
    0.3685    1.2372    0.0000 C   0  0  0  0  0  0  0  0  0  0  0  0
   -0.3335    0.8335    0.0000 C   0  0  0  0  0  0  0  0  0  0  0  0
   -1.7900   -0.0088    0.0000 C   0  0  0  0  0  0  0  0  0  0  0  0
    2.5094    0.8335    0.0000 C   0  0  0  0  0  0  0  0  0  0  0  0
    3.9309    0.8335    0.0000 C   0  0  0  0  0  0  0  0  0  0  0  0
    1.7724    1.2197    0.0000 C   0  0  0  0  0  0  0  0  0  0  0  0
    4.6504    1.2372    0.0000 C   0  0  0  0  0  0  0  0  0  0  0  0
   -0.3510    2.4481    0.0000 C   0  0  0  0  0  0  0  0  0  0  0  0
    3.1939    1.2197    0.0000 C   0  0  0  0  0  0  0  0  0  0  0  0
    0.3510    2.0444    0.0000 C   0  0  0  0  0  0  0  0  0  0  0  0
   -3.9134    2.0444    0.0000 C   0  0  0  0  0  0  0  0  0  0  0  0
   -4.6153    0.8160    0.0000 C   0  0  0  0  0  0  0  0  0  0  0  0
    2.5094   -0.0088    0.0000 C   0  0  0  0  0  0  0  0  0  0  0  0
    3.9134   -0.0088    0.0000 C   0  0  0  0  0  0  0  0  0  0  0  0
   -1.7724    2.4831    0.0000 C   0  0  0  0  0  0  0  0  0  0  0  0
   -4.6329    2.4656    0.0000 C   0  0  0  0  0  0  0  0  0  0  0  0
   -5.3348    1.2197    0.0000 C   0  0  0  0  0  0  0  0  0  0  0  0
   -3.9134   -1.2372    0.0000 C   0  0  0  0  0  0  0  0  0  0  0  0
   -3.1939   -1.6584    0.0000 C   0  0  0  0  0  0  0  0  0  0  0  0
  1 24  1  0  0  0  0
  2 24  1  0  0  0  0
  3 24  1  0  0  0  0
  4 15  1  0  0  0  0
  4 35  1  0  0  0  0
  5 23  2  0  0  0  0
  6 33  1  0  0  0  0
  6 34  1  0  0  0  0
  7 36  1  0  0  0  0
  8 14  1  0  0  0  0
  8 28  1  0  0  0  0
  8 29  1  0  0  0  0
  9 15  2  0  0  0  0
  9 20  1  0  0  0  0
 10 18  1  0  0  0  0
 10 23  1  0  0  0  0
 11 30  1  0  0  0  0
 11 31  2  0  0  0  0
 12 13  1  0  0  0  0
 12 16  1  0  0  0  0
 12 20  2  0  0  0  0
 13 17  1  0  0  0  0
 13 19  2  0  0  0  0
 14 15  1  0  0  0  0
 14 16  2  0  0  0  0
 17 25  2  0  0  0  0
 17 32  1  0  0  0  0
 18 19  1  0  0  0  0
 18 27  2  0  0  0  0
 21 23  1  0  0  0  0
 21 26  1  0  0  0  0
 21 30  2  0  0  0  0
 22 24  1  0  0  0  0
 22 26  2  0  0  0  0
 22 31  1  0  0  0  0
 25 27  1  0  0  0  0
 28 33  1  0  0  0  0
 29 34  1  0  0  0  0
 35 36  1  0  0  0  0
M  END
> <PUBCHEM_COMPOUND_ID_TYPE>
0

> <PUBCHEM_TOTAL_CHARGE>
0

> <PUBCHEM_SUBSTANCE_ID>
310943537

> <PUBCHEM_SUBSTANCE_VERSION>
1

> <PUBCHEM_EXT_DATASOURCE_NAME>
4488

> <PUBCHEM_EXT_DATASOURCE_REGID>
SCHEMBL16121603

> <PUBCHEM_SUBSTANCE_COMMENT>
InChI=1S/C25H25F3N4O4/c1-16-2-3-20(31-23(34)18-10-19(15-29-13-18)25(26,27)28)12-21(16)17-11-22(32-4-7-35-8-5-32)24(30-14-17)36-9-6-33/h2-3,10-15,33H,4-9H2,1H3,(H,31,34)
InChIKey=UAQQBERPAFEDMA-UHFFFAOYSA-N

> <PUBCHEM_SUBSTANCE_SYNONYM>
SCHEMBL16121603

> <PUBCHEM_XREF_EXT_ID>
SCHEMBL16121603

> <PUBCHEM_EXT_DATASOURCE_URL>
https://www.surechembl.org/

> <PUBCHEM_EXT_SUBSTANCE_URL>
https://www.surechembl.org/chemical/SCHEMBL16121603

> <PUBCHEM_CID_ASSOCIATIONS>
117609950  1

> <PUBCHEM_COORDINATE_TYPE>
1
3

$$$$
