310947179
  -OEChem-07211613022D

 35 36  0     0  0  0  0  0  0999 V2000
   -2.5006   -5.0066    0.0000 S   0  0  0  0  0  0  0  0  0  0  0  0
   -5.3585   -3.3566    0.0000 O   0  0  0  0  0  0  0  0  0  0  0  0
    0.3572   -2.5316    0.0000 O   0  0  0  0  0  0  0  0  0  0  0  0
    1.7862   -5.0066    0.0000 O   0  0  0  0  0  0  0  0  0  0  0  0
   -6.0730   -4.5941    0.0000 O   0  0  0  0  0  0  0  0  0  0  0  0
    2.5006   -3.7691    0.0000 O   0  0  0  0  0  0  0  0  0  0  0  0
    5.3585   -4.5941    0.0000 O   0  0  0  0  0  0  0  0  0  0  0  0
    4.6441   -5.8316    0.0000 O   0  0  0  0  0  0  0  0  0  0  0  0
    1.0717   -4.5941    0.0000 N   0  0  0  0  0  0  0  0  0  0  0  0
   -0.3572   -3.7691    0.0000 C   0  0  0  0  0  0  0  0  0  0  0  0
   -1.7862   -4.5941    0.0000 C   0  0  0  0  0  0  0  0  0  0  0  0
    0.3572   -3.3566    0.0000 C   0  0  0  0  0  0  0  0  0  0  0  0
   -3.2151   -4.5941    0.0000 C   0  0  0  0  0  0  0  0  0  0  0  0
   -1.0717   -3.3566    0.0000 C   0  0  0  0  0  0  0  0  0  0  0  0
   -0.3572   -4.5941    0.0000 C   0  0  0  0  0  0  0  0  0  0  0  0
   -1.7862   -3.7691    0.0000 C   0  0  0  0  0  0  0  0  0  0  0  0
   -1.0717   -5.0066    0.0000 C   0  0  0  0  0  0  0  0  0  0  0  0
    1.0717   -3.7691    0.0000 C   0  0  0  0  0  0  0  0  0  0  0  0
   -4.6441   -3.7691    0.0000 C   0  0  0  0  0  0  0  0  0  0  0  0
   -3.2151   -3.7691    0.0000 C   0  0  0  0  0  0  0  0  0  0  0  0
   -3.9296   -5.0066    0.0000 C   0  0  0  0  0  0  0  0  0  0  0  0
   -3.9296   -3.3566    0.0000 C   0  0  0  0  0  0  0  0  0  0  0  0
   -4.6441   -4.5941    0.0000 C   0  0  0  0  0  0  0  0  0  0  0  0
   -6.0730   -3.7691    0.0000 C   0  0  0  0  0  0  0  0  0  0  0  0
    1.7862   -3.3566    0.0000 C   0  0  0  0  0  0  0  0  0  0  0  0
   -6.7875   -3.3566    0.0000 C   0  0  0  0  0  0  0  0  0  0  0  0
    2.5006   -4.5941    0.0000 C   0  0  0  0  0  0  0  0  0  0  0  0
    3.2151   -5.0066    0.0000 C   0  0  0  0  0  0  0  0  0  0  0  0
    3.9296   -4.5941    0.0000 C   0  0  0  0  0  0  0  0  0  0  0  0
   -7.5019   -3.7691    0.0000 C   0  0  0  0  0  0  0  0  0  0  0  0
   -6.7875   -2.5316    0.0000 C   0  0  0  0  0  0  0  0  0  0  0  0
    4.6441   -5.0066    0.0000 C   0  0  0  0  0  0  0  0  0  0  0  0
    6.0730   -5.0066    0.0000 C   0  0  0  0  0  0  0  0  0  0  0  0
    6.7875   -4.5941    0.0000 C   0  0  0  0  0  0  0  0  0  0  0  0
    7.5019   -5.0066    0.0000 C   0  0  0  0  0  0  0  0  0  0  0  0
  1 11  1  0  0  0  0
  1 13  1  0  0  0  0
  2 19  1  0  0  0  0
  2 24  1  0  0  0  0
  3 12  2  0  0  0  0
  4  9  1  0  0  0  0
  4 27  1  0  0  0  0
  5 24  2  0  0  0  0
  6 27  2  0  0  0  0
  7 32  1  0  0  0  0
  7 33  1  0  0  0  0
  8 32  2  0  0  0  0
  9 18  2  0  0  0  0
 10 12  1  0  0  0  0
 10 14  2  0  0  0  0
 10 15  1  0  0  0  0
 11 16  2  0  0  0  0
 11 17  1  0  0  0  0
 12 18  1  0  0  0  0
 13 20  2  0  0  0  0
 13 21  1  0  0  0  0
 14 16  1  0  0  0  0
 15 17  2  0  0  0  0
 18 25  1  0  0  0  0
 19 22  2  0  0  0  0
 19 23  1  0  0  0  0
 20 22  1  0  0  0  0
 21 23  2  0  0  0  0
 24 26  1  0  0  0  0
 26 30  2  0  0  0  0
 26 31  1  0  0  0  0
 27 28  1  0  0  0  0
 28 29  1  0  0  0  0
 29 32  1  0  0  0  0
 33 34  1  0  0  0  0
 34 35  1  0  0  0  0
M  END
> <PUBCHEM_COMPOUND_ID_TYPE>
0

> <PUBCHEM_TOTAL_CHARGE>
0

> <PUBCHEM_SUBSTANCE_ID>
310947179

> <PUBCHEM_SUBSTANCE_VERSION>
1

> <PUBCHEM_EXT_DATASOURCE_NAME>
4488

> <PUBCHEM_EXT_DATASOURCE_REGID>
SCHEMBL16125333

> <PUBCHEM_SUBSTANCE_COMMENT>
InChI=1S/C26H27NO7S/c1-5-16-32-23(28)14-15-24(29)34-27-18(4)25(30)19-6-10-21(11-7-19)35-22-12-8-20(9-13-22)33-26(31)17(2)3/h6-13H,2,5,14-16H2,1,3-4H3/b27-18+
InChIKey=GNECHBDPOGHUMS-OVVQPSECSA-N

> <PUBCHEM_SUBSTANCE_SYNONYM>
SCHEMBL16125333

> <PUBCHEM_XREF_EXT_ID>
SCHEMBL16125333

> <PUBCHEM_EXT_DATASOURCE_URL>
https://www.surechembl.org/

> <PUBCHEM_EXT_SUBSTANCE_URL>
https://www.surechembl.org/chemical/SCHEMBL16125333

> <PUBCHEM_CID_ASSOCIATIONS>
117613004  1

> <PUBCHEM_COORDINATE_TYPE>
1
3

$$$$
