310943003
  -OEChem-07211613022D

 29 32  0     0  0  0  0  0  0999 V2000
    1.0198   -2.1504    0.0000 O   0  0  0  0  0  0  0  0  0  0  0  0
   -2.6160   -0.3991    0.0000 O   0  0  0  0  0  0  0  0  0  0  0  0
   -3.9018   -2.6603    0.0000 O   0  0  0  0  0  0  0  0  0  0  0  0
    3.2146   -0.2439    0.0000 N   0  0  0  0  0  0  0  0  0  0  0  0
    0.2882   -1.0863    0.0000 N   0  0  0  0  0  0  0  0  0  0  0  0
   -0.4212   -1.4854    0.0000 N   0  0  0  0  0  0  0  0  0  0  0  0
    2.4830   -1.4632    0.0000 C   0  0  0  0  0  0  0  0  0  0  0  0
    1.7292   -1.0420    0.0000 C   0  0  0  0  0  0  0  0  0  0  0  0
    3.1924   -1.0420    0.0000 C   0  0  0  0  0  0  0  0  0  0  0  0
    2.4608    0.2217    0.0000 C   0  0  0  0  0  0  0  0  0  0  0  0
    1.7735   -0.1995    0.0000 C   0  0  0  0  0  0  0  0  0  0  0  0
    1.0198   -1.4410    0.0000 C   0  0  0  0  0  0  0  0  0  0  0  0
    2.4830    1.0641    0.0000 C   0  0  0  0  0  0  0  0  0  0  0  0
    2.5051   -2.3056    0.0000 C   0  0  0  0  0  0  0  0  0  0  0  0
    3.9018   -1.4854    0.0000 C   0  0  0  0  0  0  0  0  0  0  0  0
    3.2146   -2.7047    0.0000 C   0  0  0  0  0  0  0  0  0  0  0  0
    3.9018   -2.3056    0.0000 C   0  0  0  0  0  0  0  0  0  0  0  0
    1.7958    1.4632    0.0000 C   0  0  0  0  0  0  0  0  0  0  0  0
    3.1924    1.4632    0.0000 C   0  0  0  0  0  0  0  0  0  0  0  0
   -1.8844   -1.4632    0.0000 C   0  0  0  0  0  0  0  0  0  0  0  0
   -2.5938   -1.0420    0.0000 C   0  0  0  0  0  0  0  0  0  0  0  0
   -1.1750   -1.0641    0.0000 C   0  0  0  0  0  0  0  0  0  0  0  0
   -1.8844   -2.3056    0.0000 C   0  0  0  0  0  0  0  0  0  0  0  0
   -3.3032   -1.4632    0.0000 C   0  0  0  0  0  0  0  0  0  0  0  0
   -3.3254   -2.3056    0.0000 C   0  0  0  0  0  0  0  0  0  0  0  0
    1.7958    2.3056    0.0000 C   0  0  0  0  0  0  0  0  0  0  0  0
    3.1924    2.3056    0.0000 C   0  0  0  0  0  0  0  0  0  0  0  0
   -2.6160   -2.7047    0.0000 C   0  0  0  0  0  0  0  0  0  0  0  0
    2.4608    2.7047    0.0000 C   0  0  0  0  0  0  0  0  0  0  0  0
  1 12  2  0  0  0  0
  2 21  1  0  0  0  0
  3 25  1  0  0  0  0
  4  9  1  0  0  0  0
  4 10  2  0  0  0  0
  5  6  1  0  0  0  0
  5 12  1  0  0  0  0
  6 22  2  0  0  0  0
  7  8  1  0  0  0  0
  7  9  2  0  0  0  0
  7 14  1  0  0  0  0
  8 11  2  0  0  0  0
  8 12  1  0  0  0  0
  9 15  1  0  0  0  0
 10 11  1  0  0  0  0
 10 13  1  0  0  0  0
 13 18  2  0  0  0  0
 13 19  1  0  0  0  0
 14 16  2  0  0  0  0
 15 17  2  0  0  0  0
 16 17  1  0  0  0  0
 18 26  1  0  0  0  0
 19 27  2  0  0  0  0
 20 21  1  0  0  0  0
 20 22  1  0  0  0  0
 20 23  2  0  0  0  0
 21 24  2  0  0  0  0
 23 28  1  0  0  0  0
 24 25  1  0  0  0  0
 25 28  2  0  0  0  0
 26 29  2  0  0  0  0
 27 29  1  0  0  0  0
M  END
> <PUBCHEM_COMPOUND_ID_TYPE>
0

> <PUBCHEM_TOTAL_CHARGE>
0

> <PUBCHEM_SUBSTANCE_ID>
310943003

> <PUBCHEM_SUBSTANCE_VERSION>
1

> <PUBCHEM_EXT_DATASOURCE_NAME>
4488

> <PUBCHEM_EXT_DATASOURCE_REGID>
SCHEMBL16121062

> <PUBCHEM_SUBSTANCE_COMMENT>
InChI=1S/C23H17N3O3/c27-17-11-10-16(22(28)12-17)14-24-26-23(29)19-13-21(15-6-2-1-3-7-15)25-20-9-5-4-8-18(19)20/h1-14,27-28H,(H,26,29)/b24-14+
InChIKey=HUVLSHSUKBPEMM-ZVHZXABRSA-N

> <PUBCHEM_SUBSTANCE_SYNONYM>
SCHEMBL16121062

> <PUBCHEM_XREF_EXT_ID>
SCHEMBL16121062

> <PUBCHEM_EXT_DATASOURCE_URL>
https://www.surechembl.org/

> <PUBCHEM_EXT_SUBSTANCE_URL>
https://www.surechembl.org/chemical/SCHEMBL16121062

> <PUBCHEM_CID_ASSOCIATIONS>
5535926  1

> <PUBCHEM_COORDINATE_TYPE>
1
3

$$$$
