310934482
  -OEChem-07211613022D

 27 30  0     0  0  0  0  0  0999 V2000
    5.6997   -1.6499    0.0000 Cl  0  0  0  0  0  0  0  0  0  0  0  0
    1.3249   -4.1998    0.0000 S   0  0  0  0  0  0  0  0  0  0  0  0
    1.3999    0.0000    0.0000 O   0  0  0  0  0  0  0  0  0  0  0  0
    0.6750   -1.2499    0.0000 O   0  0  0  0  0  0  0  0  0  0  0  0
    2.8248    0.0000    0.0000 N   0  0  0  0  0  0  0  0  0  0  0  0
    2.8248   -1.6499    0.0000 C   0  0  0  0  0  0  0  0  0  0  0  0
    3.5498   -1.2499    0.0000 C   0  0  0  0  0  0  0  0  0  0  0  0
    2.0999   -1.2499    0.0000 C   0  0  0  0  0  0  0  0  0  0  0  0
    3.5498   -0.4250    0.0000 C   0  0  0  0  0  0  0  0  0  0  0  0
    2.0999   -0.4250    0.0000 C   0  0  0  0  0  0  0  0  0  0  0  0
    2.8248   -2.4749    0.0000 C   0  0  0  0  0  0  0  0  0  0  0  0
    1.3999   -1.6499    0.0000 C   0  0  0  0  0  0  0  0  0  0  0  0
    4.2498   -1.6499    0.0000 C   0  0  0  0  0  0  0  0  0  0  0  0
    4.2498    0.0000    0.0000 C   0  0  0  0  0  0  0  0  0  0  0  0
    4.9748   -1.2499    0.0000 C   0  0  0  0  0  0  0  0  0  0  0  0
    3.5498   -2.8998    0.0000 C   0  0  0  0  0  0  0  0  0  0  0  0
    2.1249   -2.8998    0.0000 C   0  0  0  0  0  0  0  0  0  0  0  0
    4.9748   -0.4250    0.0000 C   0  0  0  0  0  0  0  0  0  0  0  0
    1.3999   -2.4749    0.0000 C   0  0  0  0  0  0  0  0  0  0  0  0
    3.5498   -3.7248    0.0000 C   0  0  0  0  0  0  0  0  0  0  0  0
    2.1249   -3.7248    0.0000 C   0  0  0  0  0  0  0  0  0  0  0  0
    0.6750   -2.8998    0.0000 C   0  0  0  0  0  0  0  0  0  0  0  0
    2.8248   -4.1248    0.0000 C   0  0  0  0  0  0  0  0  0  0  0  0
    0.6750   -3.7248    0.0000 C   0  0  0  0  0  0  0  0  0  0  0  0
    0.0000   -4.2247    0.0000 C   0  0  0  0  0  0  0  0  0  0  0  0
    1.0750   -4.9997    0.0000 C   0  0  0  0  0  0  0  0  0  0  0  0
    0.2500   -4.9997    0.0000 C   0  0  0  0  0  0  0  0  0  0  0  0
  1 15  1  0  0  0  0
  2 24  1  0  0  0  0
  2 26  1  0  0  0  0
  3 10  2  0  0  0  0
  4 12  2  0  0  0  0
  5  9  1  0  0  0  0
  5 10  1  0  0  0  0
  6  7  1  0  0  0  0
  6  8  2  0  0  0  0
  6 11  1  0  0  0  0
  7  9  2  0  0  0  0
  7 13  1  0  0  0  0
  8 10  1  0  0  0  0
  8 12  1  0  0  0  0
  9 14  1  0  0  0  0
 11 16  2  0  0  0  0
 11 17  1  0  0  0  0
 12 19  1  0  0  0  0
 13 15  2  0  0  0  0
 14 18  2  0  0  0  0
 15 18  1  0  0  0  0
 16 20  1  0  0  0  0
 17 21  2  0  0  0  0
 19 22  2  0  0  0  0
 20 23  2  0  0  0  0
 21 23  1  0  0  0  0
 22 24  1  0  0  0  0
 24 25  2  0  0  0  0
 25 27  1  0  0  0  0
 26 27  2  0  0  0  0
M  END
> <PUBCHEM_COMPOUND_ID_TYPE>
0

> <PUBCHEM_TOTAL_CHARGE>
0

> <PUBCHEM_SUBSTANCE_ID>
310934482

> <PUBCHEM_SUBSTANCE_VERSION>
1

> <PUBCHEM_EXT_DATASOURCE_NAME>
4488

> <PUBCHEM_EXT_DATASOURCE_REGID>
SCHEMBL16111962

> <PUBCHEM_SUBSTANCE_COMMENT>
InChI=1S/C22H14ClNO2S/c23-15-8-10-18-17(13-15)20(14-5-2-1-3-6-14)21(22(26)24-18)19(25)11-9-16-7-4-12-27-16/h1-13H,(H,24,26)/b11-9+
InChIKey=DGPFTQCVOYNWGE-PKNBQFBNSA-N

> <PUBCHEM_SUBSTANCE_SYNONYM>
SCHEMBL16111962

> <PUBCHEM_XREF_EXT_ID>
SCHEMBL16111962

> <PUBCHEM_EXT_DATASOURCE_URL>
https://www.surechembl.org/

> <PUBCHEM_EXT_SUBSTANCE_URL>
https://www.surechembl.org/chemical/SCHEMBL16111962

> <PUBCHEM_CID_ASSOCIATIONS>
5348549  1

> <PUBCHEM_COORDINATE_TYPE>
1
3

$$$$
