310940747
  -OEChem-07211613022D

 26 29  0     0  0  0  0  0  0999 V2000
   -0.4969    2.5781    0.0000 O   0  0  0  0  0  0  0  0  0  0  0  0
    1.4537   -1.9941    0.0000 O   0  0  0  0  0  0  0  0  0  0  0  0
    3.4788    0.0435    0.0000 O   0  0  0  0  0  0  0  0  0  0  0  0
    0.7331    0.7889    0.0000 N   0  0  0  0  0  0  0  0  0  0  0  0
   -1.8637    1.8699    0.0000 N   0  0  0  0  0  0  0  0  0  0  0  0
   -0.4722   -0.1926    0.0000 N   0  0  0  0  0  0  0  0  0  0  0  0
   -0.5591    1.1989    0.0000 C   0  0  0  0  0  0  0  0  0  0  0  0
   -0.0622    0.5404    0.0000 C   0  0  0  0  0  0  0  0  0  0  0  0
   -1.3915    1.2113    0.0000 C   0  0  0  0  0  0  0  0  0  0  0  0
   -0.0622    1.8575    0.0000 C   0  0  0  0  0  0  0  0  0  0  0  0
    1.3170    0.2050    0.0000 C   0  0  0  0  0  0  0  0  0  0  0  0
    0.7206    1.6089    0.0000 C   0  0  0  0  0  0  0  0  0  0  0  0
   -2.6464    1.6213    0.0000 C   0  0  0  0  0  0  0  0  0  0  0  0
   -2.6588    0.7889    0.0000 C   0  0  0  0  0  0  0  0  0  0  0  0
   -1.8637    0.5280    0.0000 C   0  0  0  0  0  0  0  0  0  0  0  0
    2.0997    0.4038    0.0000 C   0  0  0  0  0  0  0  0  0  0  0  0
    1.1058   -0.6026    0.0000 C   0  0  0  0  0  0  0  0  0  0  0  0
    1.6773   -1.1866    0.0000 C   0  0  0  0  0  0  0  0  0  0  0  0
    2.6961   -0.1677    0.0000 C   0  0  0  0  0  0  0  0  0  0  0  0
    2.4724   -0.9753    0.0000 C   0  0  0  0  0  0  0  0  0  0  0  0
   -3.3670    2.0190    0.0000 C   0  0  0  0  0  0  0  0  0  0  0  0
   -3.3794    0.3789    0.0000 C   0  0  0  0  0  0  0  0  0  0  0  0
   -4.0752    1.6089    0.0000 C   0  0  0  0  0  0  0  0  0  0  0  0
   -4.0752    0.7889    0.0000 C   0  0  0  0  0  0  0  0  0  0  0  0
    2.0500   -2.5781    0.0000 C   0  0  0  0  0  0  0  0  0  0  0  0
    4.0752   -0.5404    0.0000 C   0  0  0  0  0  0  0  0  0  0  0  0
  1 10  2  0  0  0  0
  2 18  1  0  0  0  0
  2 25  1  0  0  0  0
  3 19  1  0  0  0  0
  3 26  1  0  0  0  0
  4  8  1  0  0  0  0
  4 11  1  0  0  0  0
  4 12  1  0  0  0  0
  5  9  2  0  0  0  0
  5 13  1  0  0  0  0
  6  8  1  0  0  0  0
  7  8  2  0  0  0  0
  7  9  1  0  0  0  0
  7 10  1  0  0  0  0
  9 15  1  0  0  0  0
 10 12  1  0  0  0  0
 11 16  2  0  0  0  0
 11 17  1  0  0  0  0
 13 14  2  0  0  0  0
 13 21  1  0  0  0  0
 14 15  1  0  0  0  0
 14 22  1  0  0  0  0
 16 19  1  0  0  0  0
 17 18  2  0  0  0  0
 18 20  1  0  0  0  0
 19 20  2  0  0  0  0
 21 23  2  0  0  0  0
 22 24  2  0  0  0  0
 23 24  1  0  0  0  0
M  END
> <PUBCHEM_COMPOUND_ID_TYPE>
0

> <PUBCHEM_TOTAL_CHARGE>
0

> <PUBCHEM_SUBSTANCE_ID>
310940747

> <PUBCHEM_SUBSTANCE_VERSION>
1

> <PUBCHEM_EXT_DATASOURCE_NAME>
4488

> <PUBCHEM_EXT_DATASOURCE_REGID>
SCHEMBL16118705

> <PUBCHEM_SUBSTANCE_COMMENT>
InChI=1S/C20H19N3O3/c1-25-14-8-13(9-15(10-14)26-2)23-11-18(24)19(20(23)21)17-7-12-5-3-4-6-16(12)22-17/h3-6,8-10H,7,11,21H2,1-2H3
InChIKey=MBTKPHDHJZEVQU-UHFFFAOYSA-N

> <PUBCHEM_SUBSTANCE_SYNONYM>
SCHEMBL16118705

> <PUBCHEM_XREF_EXT_ID>
SCHEMBL16118705

> <PUBCHEM_EXT_DATASOURCE_URL>
https://www.surechembl.org/

> <PUBCHEM_EXT_SUBSTANCE_URL>
https://www.surechembl.org/chemical/SCHEMBL16118705

> <PUBCHEM_CID_ASSOCIATIONS>
117607703  1

> <PUBCHEM_COORDINATE_TYPE>
1
3

$$$$
