310943437
  -OEChem-07211613022D

 39 43  0     0  0  0  0  0  0999 V2000
    5.0082   -0.2143    0.0000 F   0  0  0  0  0  0  0  0  0  0  0  0
   -3.5796   -0.2143    0.0000 O   0  0  0  0  0  0  0  0  0  0  0  0
   -5.0082    2.2620    0.0000 O   0  0  0  0  0  0  0  0  0  0  0  0
    0.7064   -0.2143    0.0000 O   0  0  0  0  0  0  0  0  0  0  0  0
   -3.5796   -2.6906    0.0000 O   0  0  0  0  0  0  0  0  0  0  0  0
   -3.5796    1.4366    0.0000 N   0  0  0  0  0  0  0  0  0  0  0  0
   -2.1509   -0.2143    0.0000 N   0  0  0  0  0  0  0  0  0  0  0  0
   -0.0079    2.6747    0.0000 N   0  0  0  0  0  0  0  0  0  0  0  0
    1.4207    1.0239    0.0000 N   0  0  0  0  0  0  0  0  0  0  0  0
    3.5637   -1.0397    0.0000 N   0  0  0  0  0  0  0  0  0  0  0  0
   -2.8494    1.0239    0.0000 C   0  0  0  0  0  0  0  0  0  0  0  0
   -1.4207    1.0239    0.0000 C   0  0  0  0  0  0  0  0  0  0  0  0
   -0.7223    1.4366    0.0000 C   0  0  0  0  0  0  0  0  0  0  0  0
   -2.8811    0.2143    0.0000 C   0  0  0  0  0  0  0  0  0  0  0  0
   -2.1509    1.4366    0.0000 C   0  0  0  0  0  0  0  0  0  0  0  0
   -0.7064    2.2620    0.0000 C   0  0  0  0  0  0  0  0  0  0  0  0
   -1.4366    0.2143    0.0000 C   0  0  0  0  0  0  0  0  0  0  0  0
    0.0238    1.0397    0.0000 C   0  0  0  0  0  0  0  0  0  0  0  0
    0.7064    1.4366    0.0000 C   0  0  0  0  0  0  0  0  0  0  0  0
    2.1509   -0.1984    0.0000 C   0  0  0  0  0  0  0  0  0  0  0  0
    0.7223    2.2620    0.0000 C   0  0  0  0  0  0  0  0  0  0  0  0
    1.4366    0.2301    0.0000 C   0  0  0  0  0  0  0  0  0  0  0  0
    3.5796   -0.1984    0.0000 C   0  0  0  0  0  0  0  0  0  0  0  0
   -3.5796    2.2620    0.0000 C   0  0  0  0  0  0  0  0  0  0  0  0
   -4.2780    1.0397    0.0000 C   0  0  0  0  0  0  0  0  0  0  0  0
   -3.5954   -1.0397    0.0000 C   0  0  0  0  0  0  0  0  0  0  0  0
    4.2939    0.2143    0.0000 C   0  0  0  0  0  0  0  0  0  0  0  0
    2.8494    0.1984    0.0000 C   0  0  0  0  0  0  0  0  0  0  0  0
    2.1509   -1.0397    0.0000 C   0  0  0  0  0  0  0  0  0  0  0  0
   -1.4207    2.6906    0.0000 C   0  0  0  0  0  0  0  0  0  0  0  0
   -4.2939    2.6747    0.0000 C   0  0  0  0  0  0  0  0  0  0  0  0
   -5.0082    1.4366    0.0000 C   0  0  0  0  0  0  0  0  0  0  0  0
    2.8811   -1.4366    0.0000 C   0  0  0  0  0  0  0  0  0  0  0  0
   -2.8494   -1.4683    0.0000 C   0  0  0  0  0  0  0  0  0  0  0  0
   -4.2939   -1.4525    0.0000 C   0  0  0  0  0  0  0  0  0  0  0  0
    3.8970    0.9286    0.0000 C   0  0  0  0  0  0  0  0  0  0  0  0
    4.6907    0.9286    0.0000 C   0  0  0  0  0  0  0  0  0  0  0  0
   -2.8652   -2.2620    0.0000 C   0  0  0  0  0  0  0  0  0  0  0  0
   -4.2939   -2.2620    0.0000 C   0  0  0  0  0  0  0  0  0  0  0  0
  1 27  1  0  0  0  0
  2 14  1  0  0  0  0
  2 26  1  0  0  0  0
  3 31  1  0  0  0  0
  3 32  1  0  0  0  0
  4 22  2  0  0  0  0
  5 38  1  0  0  0  0
  5 39  1  0  0  0  0
  6 11  1  0  0  0  0
  6 24  1  0  0  0  0
  6 25  1  0  0  0  0
  7 14  2  0  0  0  0
  7 17  1  0  0  0  0
  8 16  1  0  0  0  0
  8 21  2  0  0  0  0
  9 19  1  0  0  0  0
  9 22  1  0  0  0  0
 10 23  1  0  0  0  0
 10 33  2  0  0  0  0
 11 14  1  0  0  0  0
 11 15  2  0  0  0  0
 12 13  1  0  0  0  0
 12 15  1  0  0  0  0
 12 17  2  0  0  0  0
 13 16  2  0  0  0  0
 13 18  1  0  0  0  0
 16 30  1  0  0  0  0
 18 19  2  0  0  0  0
 19 21  1  0  0  0  0
 20 22  1  0  0  0  0
 20 28  1  0  0  0  0
 20 29  2  0  0  0  0
 23 27  1  0  0  0  0
 23 28  2  0  0  0  0
 24 31  1  0  0  0  0
 25 32  1  0  0  0  0
 26 34  1  0  0  0  0
 26 35  1  0  0  0  0
 27 36  1  0  0  0  0
 27 37  1  0  0  0  0
 29 33  1  0  0  0  0
 34 38  1  0  0  0  0
 35 39  1  0  0  0  0
M  END
> <PUBCHEM_COMPOUND_ID_TYPE>
0

> <PUBCHEM_TOTAL_CHARGE>
0

> <PUBCHEM_SUBSTANCE_ID>
310943437

> <PUBCHEM_SUBSTANCE_VERSION>
1

> <PUBCHEM_EXT_DATASOURCE_NAME>
4488

> <PUBCHEM_EXT_DATASOURCE_REGID>
SCHEMBL16121501

> <PUBCHEM_SUBSTANCE_COMMENT>
InChI=1S/C29H34FN5O4/c1-19-24(16-22(18-32-19)34-27(36)20-4-7-31-26(15-20)29(2,3)30)21-14-25(35-8-12-38-13-9-35)28(33-17-21)39-23-5-10-37-11-6-23/h4,7,14-18,23H,5-6,8-13H2,1-3H3,(H,34,36)
InChIKey=PBYLPDCMJHIFLM-UHFFFAOYSA-N

> <PUBCHEM_SUBSTANCE_SYNONYM>
SCHEMBL16121501

> <PUBCHEM_XREF_EXT_ID>
SCHEMBL16121501

> <PUBCHEM_EXT_DATASOURCE_URL>
https://www.surechembl.org/

> <PUBCHEM_EXT_SUBSTANCE_URL>
https://www.surechembl.org/chemical/SCHEMBL16121501

> <PUBCHEM_CID_ASSOCIATIONS>
117609861  1

> <PUBCHEM_COORDINATE_TYPE>
1
3

$$$$
