310933112
  -OEChem-07211613022D

 34 37  0     0  0  0  0  0  0999 V2000
    0.1689    0.0000    0.0000 F   0  0  0  0  0  0  0  0  0  0  0  0
    0.0000   -1.4192    0.0000 F   0  0  0  0  0  0  0  0  0  0  0  0
    1.0138   -0.1014    0.0000 F   0  0  0  0  0  0  0  0  0  0  0  0
    6.3191   -2.8386    0.0000 O   0  0  0  0  0  0  0  0  0  0  0  0
    2.1627   -4.5957    0.0000 O   0  0  0  0  0  0  0  0  0  0  0  0
    5.9474   -4.2578    0.0000 N   0  0  0  0  0  0  0  0  0  0  0  0
    6.3529   -5.0013    0.0000 N   0  0  0  0  0  0  0  0  0  0  0  0
    4.6633   -4.8323    0.0000 N   0  0  0  0  0  0  0  0  0  0  0  0
    2.3317   -3.1427    0.0000 N   0  0  0  0  0  0  0  0  0  0  0  0
    1.6558   -1.6220    0.0000 N   0  0  0  0  0  0  0  0  0  0  0  0
   10.1377   -1.4869    0.0000 N   0  0  0  0  0  0  0  0  0  0  0  0
    7.2654   -3.9875    0.0000 C   0  0  0  0  0  0  0  0  0  0  0  0
    6.4881   -3.6496    0.0000 C   0  0  0  0  0  0  0  0  0  0  0  0
    7.9749   -3.5820    0.0000 C   0  0  0  0  0  0  0  0  0  0  0  0
    5.1364   -4.1902    0.0000 C   0  0  0  0  0  0  0  0  0  0  0  0
    7.1640   -4.7985    0.0000 C   0  0  0  0  0  0  0  0  0  0  0  0
    7.9749   -2.7372    0.0000 C   0  0  0  0  0  0  0  0  0  0  0  0
    3.4806   -4.0213    0.0000 C   0  0  0  0  0  0  0  0  0  0  0  0
    4.7985   -3.4130    0.0000 C   0  0  0  0  0  0  0  0  0  0  0  0
    2.6358   -3.9199    0.0000 C   0  0  0  0  0  0  0  0  0  0  0  0
    8.7184   -3.9875    0.0000 C   0  0  0  0  0  0  0  0  0  0  0  0
    3.8185   -4.7647    0.0000 C   0  0  0  0  0  0  0  0  0  0  0  0
    3.9537   -3.3454    0.0000 C   0  0  0  0  0  0  0  0  0  0  0  0
    8.7184   -2.3317    0.0000 C   0  0  0  0  0  0  0  0  0  0  0  0
    9.4280   -2.7372    0.0000 C   0  0  0  0  0  0  0  0  0  0  0  0
    9.4280   -3.5820    0.0000 C   0  0  0  0  0  0  0  0  0  0  0  0
    2.8386   -2.5006    0.0000 C   0  0  0  0  0  0  0  0  0  0  0  0
    1.5206   -3.0413    0.0000 C   0  0  0  0  0  0  0  0  0  0  0  0
    1.1827   -2.2978    0.0000 C   0  0  0  0  0  0  0  0  0  0  0  0
    2.5006   -1.7234    0.0000 C   0  0  0  0  0  0  0  0  0  0  0  0
    7.2654   -2.3317    0.0000 C   0  0  0  0  0  0  0  0  0  0  0  0
    1.3179   -0.8448    0.0000 C   0  0  0  0  0  0  0  0  0  0  0  0
    0.5069   -0.7772    0.0000 C   0  0  0  0  0  0  0  0  0  0  0  0
   10.1377   -2.3317    0.0000 C   0  0  0  0  0  0  0  0  0  0  0  0
  1 33  1  0  0  0  0
  2 33  1  0  0  0  0
  3 33  1  0  0  0  0
  4 13  1  0  0  0  0
  5 20  2  0  0  0  0
  6  7  1  0  0  0  0
  6 13  1  0  0  0  0
  6 15  1  0  0  0  0
  7 16  2  0  0  0  0
  8 15  1  0  0  0  0
  8 22  2  0  0  0  0
  9 20  1  0  0  0  0
  9 27  1  0  0  0  0
  9 28  1  0  0  0  0
 10 29  1  0  0  0  0
 10 30  1  0  0  0  0
 10 32  1  0  0  0  0
 11 34  3  0  0  0  0
 12 13  2  0  0  0  0
 12 14  1  0  0  0  0
 12 16  1  0  0  0  0
 14 17  2  0  0  0  0
 14 21  1  0  0  0  0
 15 19  2  0  0  0  0
 17 24  1  0  0  0  0
 17 31  1  0  0  0  0
 18 20  1  0  0  0  0
 18 22  1  0  0  0  0
 18 23  2  0  0  0  0
 19 23  1  0  0  0  0
 21 26  2  0  0  0  0
 24 25  2  0  0  0  0
 25 26  1  0  0  0  0
 25 34  1  0  0  0  0
 27 30  1  0  0  0  0
 28 29  1  0  0  0  0
 32 33  1  0  0  0  0
M  END
> <PUBCHEM_COMPOUND_ID_TYPE>
0

> <PUBCHEM_TOTAL_CHARGE>
0

> <PUBCHEM_SUBSTANCE_ID>
310933112

> <PUBCHEM_SUBSTANCE_VERSION>
1

> <PUBCHEM_EXT_DATASOURCE_NAME>
4488

> <PUBCHEM_EXT_DATASOURCE_REGID>
SCHEMBL16110514

> <PUBCHEM_SUBSTANCE_COMMENT>
InChI=1S/C23H21F3N6O2/c1-15-10-16(11-27)2-4-18(15)19-13-29-32(22(19)34)20-5-3-17(12-28-20)21(33)31-8-6-30(7-9-31)14-23(24,25)26/h2-5,10,12-13,34H,6-9,14H2,1H3
InChIKey=ACDVMPSJGOBICZ-UHFFFAOYSA-N

> <PUBCHEM_SUBSTANCE_SYNONYM>
SCHEMBL16110514

> <PUBCHEM_XREF_EXT_ID>
SCHEMBL16110514

> <PUBCHEM_EXT_DATASOURCE_URL>
https://www.surechembl.org/

> <PUBCHEM_EXT_SUBSTANCE_URL>
https://www.surechembl.org/chemical/SCHEMBL16110514

> <PUBCHEM_CID_ASSOCIATIONS>
117601569  1

> <PUBCHEM_COORDINATE_TYPE>
1
3

$$$$
