310941218
  -OEChem-07211613022D

 38 40  0     1  0  0  0  0  0999 V2000
    3.6253    0.4626    0.0000 O   0  0  0  0  0  0  0  0  0  0  0  0
    2.1785   -1.2028    0.0000 O   0  0  0  0  0  0  0  0  0  0  0  0
   -0.0589    0.8327    0.0000 O   0  0  0  0  0  0  0  0  0  0  0  0
   -2.2122   -1.2532    0.0000 O   0  0  0  0  0  0  0  0  0  0  0  0
    2.0944   -2.9019    0.0000 O   0  0  0  0  0  0  0  0  0  0  0  0
   -2.2122    1.2364    0.0000 O   0  0  0  0  0  0  0  0  0  0  0  0
    0.6645   -0.4121    0.0000 N   0  0  0  0  0  0  0  0  0  0  0  0
   -1.4888   -0.0084    0.0000 N   0  0  0  0  0  0  0  0  0  0  0  0
   -3.6421   -0.4290    0.0000 N   0  0  0  0  0  0  0  0  0  0  0  0
    2.9019    0.0589    0.0000 C   0  0  3  0  0  0  0  0  0  0  0  0
    2.1954   -0.3449    0.0000 C   0  0  0  0  0  0  0  0  0  0  0  0
    2.9187    0.8664    0.0000 C   0  0  0  0  0  0  0  0  0  0  0  0
    1.4551    0.0589    0.0000 C   0  0  3  0  0  0  0  0  0  0  0  0
    3.6421   -0.3449    0.0000 C   0  0  0  0  0  0  0  0  0  0  0  0
    1.4719    0.9000    0.0000 C   0  0  0  0  0  0  0  0  0  0  0  0
   -0.0589   -0.0084    0.0000 C   0  0  0  0  0  0  0  0  0  0  0  0
   -0.7486   -0.3953    0.0000 C   0  0  3  0  0  0  0  0  0  0  0  0
    2.0439    1.4719    0.0000 C   0  0  0  0  0  0  0  0  0  0  0  0
   -0.7822   -1.2532    0.0000 C   0  0  0  0  0  0  0  0  0  0  0  0
   -0.0421   -1.6570    0.0000 C   0  0  0  0  0  0  0  0  0  0  0  0
   -2.2122   -0.3953    0.0000 C   0  0  0  0  0  0  0  0  0  0  0  0
    2.8682    1.2701    0.0000 C   0  0  0  0  0  0  0  0  0  0  0  0
    1.8589    2.2794    0.0000 C   0  0  0  0  0  0  0  0  0  0  0  0
   -0.0421   -2.4813    0.0000 C   0  0  0  0  0  0  0  0  0  0  0  0
    0.6645   -1.2532    0.0000 C   0  0  0  0  0  0  0  0  0  0  0  0
   -2.9355    0.0084    0.0000 C   0  0  3  0  0  0  0  0  0  0  0  0
    1.3710   -2.4813    0.0000 C   0  0  0  0  0  0  0  0  0  0  0  0
    3.4402    1.8421    0.0000 C   0  0  0  0  0  0  0  0  0  0  0  0
    2.4309    2.8514    0.0000 C   0  0  0  0  0  0  0  0  0  0  0  0
    0.6813   -2.9019    0.0000 C   0  0  0  0  0  0  0  0  0  0  0  0
    1.3710   -1.6570    0.0000 C   0  0  0  0  0  0  0  0  0  0  0  0
    3.2215    2.6496    0.0000 C   0  0  0  0  0  0  0  0  0  0  0  0
   -2.9187    0.8327    0.0000 C   0  0  0  0  0  0  0  0  0  0  0  0
    2.1113   -3.7262    0.0000 C   0  0  0  0  0  0  0  0  0  0  0  0
   -2.2122    2.0271    0.0000 C   0  0  0  0  0  0  0  0  0  0  0  0
   -1.5057    2.4645    0.0000 C   0  0  0  0  0  0  0  0  0  0  0  0
   -1.5393    3.2888    0.0000 C   0  0  0  0  0  0  0  0  0  0  0  0
   -0.8327    3.7262    0.0000 C   0  0  0  0  0  0  0  0  0  0  0  0
  1 10  1  0  0  0  0
  1 12  1  0  0  0  0
  2 11  2  0  0  0  0
  3 16  2  0  0  0  0
  4 21  2  0  0  0  0
  5 27  1  0  0  0  0
  5 34  1  0  0  0  0
  6 33  1  0  0  0  0
  6 35  1  0  0  0  0
 13  7  1  1  0  0  0
  7 16  1  0  0  0  0
 17  8  1  6  0  0  0
  8 21  1  0  0  0  0
 26  9  1  1  0  0  0
 10 11  1  1  0  0  0
 10 12  1  0  0  0  0
 10 14  1  6  0  0  0
 11 13  1  0  0  0  0
 13 15  1  0  0  0  0
 15 18  1  0  0  0  0
 16 17  1  0  0  0  0
 17 19  1  0  0  0  0
 18 22  2  0  0  0  0
 18 23  1  0  0  0  0
 19 20  1  0  0  0  0
 20 24  2  0  0  0  0
 20 25  1  0  0  0  0
 21 26  1  0  0  0  0
 22 28  1  0  0  0  0
 23 29  2  0  0  0  0
 24 30  1  0  0  0  0
 25 31  2  0  0  0  0
 26 33  1  0  0  0  0
 27 30  2  0  0  0  0
 27 31  1  0  0  0  0
 28 32  2  0  0  0  0
 29 32  1  0  0  0  0
 35 36  1  0  0  0  0
 36 37  1  0  0  0  0
 37 38  1  0  0  0  0
M  END
> <PUBCHEM_COMPOUND_ID_TYPE>
0

> <PUBCHEM_TOTAL_CHARGE>
0

> <PUBCHEM_SUBSTANCE_ID>
310941218

> <PUBCHEM_SUBSTANCE_VERSION>
1

> <PUBCHEM_EXT_DATASOURCE_NAME>
4488

> <PUBCHEM_EXT_DATASOURCE_REGID>
SCHEMBL16119178

> <PUBCHEM_SUBSTANCE_COMMENT>
InChI=1S/C29H39N3O6/c1-4-5-15-37-18-23(30)27(34)32-25(17-21-11-13-22(36-3)14-12-21)28(35)31-24(26(33)29(2)19-38-29)16-20-9-7-6-8-10-20/h6-14,23-25H,4-5,15-19,30H2,1-3H3,(H,31,35)(H,32,34)/t23-,24-,25-,29+/m0/s1
InChIKey=VYVJRMCKOGHLCW-VVEDBRRQSA-N

> <PUBCHEM_SUBSTANCE_SYNONYM>
SCHEMBL16119178

> <PUBCHEM_XREF_EXT_ID>
SCHEMBL16119178

> <PUBCHEM_EXT_DATASOURCE_URL>
https://www.surechembl.org/

> <PUBCHEM_EXT_SUBSTANCE_URL>
https://www.surechembl.org/chemical/SCHEMBL16119178

> <PUBCHEM_CID_ASSOCIATIONS>
117608089  1

> <PUBCHEM_COORDINATE_TYPE>
1
3

> <PUBCHEM_BONDANNOTATIONS>
10  11  5
10  14  6
13  7  5
17  8  6
26  9  5

$$$$
