310935305
  -OEChem-07211613022D

 17 19  0     0  0  0  0  0  0999 V2000
    0.3826   -1.1653    0.0000 O   0  0  0  0  0  0  0  0  0  0  0  0
    2.4872   -3.4786    0.0000 O   0  0  0  0  0  0  0  0  0  0  0  0
    2.4872   -2.0524    0.0000 O   0  0  0  0  0  0  0  0  0  0  0  0
    1.2697   -2.7481    0.0000 C   0  0  0  0  0  0  0  0  0  0  0  0
    1.6523   -2.0176    0.0000 C   0  0  0  0  0  0  0  0  0  0  0  0
    1.1827   -1.3219    0.0000 C   0  0  0  0  0  0  0  0  0  0  0  0
    1.5827   -0.5740    0.0000 C   0  0  0  0  0  0  0  0  0  0  0  0
    2.0872   -2.7481    0.0000 C   0  0  0  0  0  0  0  0  0  0  0  0
    0.7827   -3.4264    0.0000 C   0  0  0  0  0  0  0  0  0  0  0  0
    0.7827   -2.0872    0.0000 C   0  0  0  0  0  0  0  0  0  0  0  0
    2.6089   -2.1567    0.0000 C   0  0  0  0  0  0  0  0  0  0  0  0
    2.4176   -0.5566    0.0000 C   0  0  0  0  0  0  0  0  0  0  0  0
    1.0088    0.0000    0.0000 C   0  0  0  0  0  0  0  0  0  0  0  0
    0.0000   -3.1655    0.0000 C   0  0  0  0  0  0  0  0  0  0  0  0
    0.0000   -2.3480    0.0000 C   0  0  0  0  0  0  0  0  0  0  0  0
    2.8350   -1.2349    0.0000 C   0  0  0  0  0  0  0  0  0  0  0  0
    0.2609   -0.3479    0.0000 C   0  0  0  0  0  0  0  0  0  0  0  0
  1  6  1  0  0  0  0
  1 17  1  0  0  0  0
  2  8  2  0  0  0  0
  3  8  1  0  0  0  0
  4  5  1  0  0  0  0
  4  8  1  0  0  0  0
  4  9  1  0  0  0  0
  4 10  1  0  0  0  0
  5  6  1  0  0  0  0
  5 11  2  0  0  0  0
  6  7  2  0  0  0  0
  7 12  1  0  0  0  0
  7 13  1  0  0  0  0
  9 14  1  0  0  0  0
 10 15  1  0  0  0  0
 11 16  1  0  0  0  0
 12 16  2  0  0  0  0
 13 17  1  0  0  0  0
 14 15  1  0  0  0  0
M  END
> <PUBCHEM_COMPOUND_ID_TYPE>
0

> <PUBCHEM_TOTAL_CHARGE>
0

> <PUBCHEM_SUBSTANCE_ID>
310935305

> <PUBCHEM_SUBSTANCE_VERSION>
1

> <PUBCHEM_EXT_DATASOURCE_NAME>
4488

> <PUBCHEM_EXT_DATASOURCE_REGID>
SCHEMBL16112838

> <PUBCHEM_SUBSTANCE_COMMENT>
InChI=1S/C14H16O3/c15-13(16)14(7-1-2-8-14)11-5-3-4-10-6-9-17-12(10)11/h3-5H,1-2,6-9H2,(H,15,16)
InChIKey=UOTCHAZKLUKSRQ-UHFFFAOYSA-N

> <PUBCHEM_SUBSTANCE_SYNONYM>
SCHEMBL16112838

> <PUBCHEM_XREF_EXT_ID>
SCHEMBL16112838

> <PUBCHEM_EXT_DATASOURCE_URL>
https://www.surechembl.org/

> <PUBCHEM_EXT_SUBSTANCE_URL>
https://www.surechembl.org/chemical/SCHEMBL16112838

> <PUBCHEM_CID_ASSOCIATIONS>
96806035  1

> <PUBCHEM_COORDINATE_TYPE>
1
3

$$$$
