310943151
  -OEChem-07211613022D

 33 36  0     0  0  0  0  0  0999 V2000
   -3.5633   -0.8217    0.0000 O   0  0  0  0  0  0  0  0  0  0  0  0
   -4.9917    1.6358    0.0000 O   0  0  0  0  0  0  0  0  0  0  0  0
    0.7065   -0.8217    0.0000 O   0  0  0  0  0  0  0  0  0  0  0  0
   -2.1349   -0.8371    0.0000 N   0  0  0  0  0  0  0  0  0  0  0  0
   -3.5633    0.8064    0.0000 N   0  0  0  0  0  0  0  0  0  0  0  0
    0.0000    2.0351    0.0000 N   0  0  0  0  0  0  0  0  0  0  0  0
    1.4284    0.4070    0.0000 N   0  0  0  0  0  0  0  0  0  0  0  0
    3.5633   -1.6511    0.0000 N   0  0  0  0  0  0  0  0  0  0  0  0
   -1.4284    0.4070    0.0000 C   0  0  0  0  0  0  0  0  0  0  0  0
   -2.8415    0.4070    0.0000 C   0  0  0  0  0  0  0  0  0  0  0  0
   -0.7219    0.8217    0.0000 C   0  0  0  0  0  0  0  0  0  0  0  0
   -2.8415   -0.4070    0.0000 C   0  0  0  0  0  0  0  0  0  0  0  0
   -2.1503    0.8064    0.0000 C   0  0  0  0  0  0  0  0  0  0  0  0
   -1.4284   -0.4223    0.0000 C   0  0  0  0  0  0  0  0  0  0  0  0
   -0.7065    1.6358    0.0000 C   0  0  0  0  0  0  0  0  0  0  0  0
    0.0000    0.4070    0.0000 C   0  0  0  0  0  0  0  0  0  0  0  0
    0.6911    0.8217    0.0000 C   0  0  0  0  0  0  0  0  0  0  0  0
    0.7219    1.6204    0.0000 C   0  0  0  0  0  0  0  0  0  0  0  0
    1.4284   -0.3916    0.0000 C   0  0  0  0  0  0  0  0  0  0  0  0
   -3.5633    1.6358    0.0000 C   0  0  0  0  0  0  0  0  0  0  0  0
   -4.2699    0.4070    0.0000 C   0  0  0  0  0  0  0  0  0  0  0  0
    2.1349   -0.8217    0.0000 C   0  0  0  0  0  0  0  0  0  0  0  0
   -2.1196   -1.6665    0.0000 C   0  0  0  0  0  0  0  0  0  0  0  0
   -1.4438    2.0351    0.0000 C   0  0  0  0  0  0  0  0  0  0  0  0
    2.8108   -0.4223    0.0000 C   0  0  0  0  0  0  0  0  0  0  0  0
    3.5633   -0.8217    0.0000 C   0  0  0  0  0  0  0  0  0  0  0  0
   -4.2699    2.0505    0.0000 C   0  0  0  0  0  0  0  0  0  0  0  0
   -4.9764    0.8064    0.0000 C   0  0  0  0  0  0  0  0  0  0  0  0
    2.1349   -1.6511    0.0000 C   0  0  0  0  0  0  0  0  0  0  0  0
    2.8568   -2.0505    0.0000 C   0  0  0  0  0  0  0  0  0  0  0  0
    4.2699   -0.4070    0.0000 C   0  0  0  0  0  0  0  0  0  0  0  0
    4.2545    0.4223    0.0000 C   0  0  0  0  0  0  0  0  0  0  0  0
    4.9917   -0.8217    0.0000 C   0  0  0  0  0  0  0  0  0  0  0  0
  1 12  2  0  0  0  0
  2 27  1  0  0  0  0
  2 28  1  0  0  0  0
  3 19  2  0  0  0  0
  4 12  1  0  0  0  0
  4 14  1  0  0  0  0
  4 23  1  0  0  0  0
  5 10  1  0  0  0  0
  5 20  1  0  0  0  0
  5 21  1  0  0  0  0
  6 15  1  0  0  0  0
  6 18  2  0  0  0  0
  7 17  1  0  0  0  0
  7 19  1  0  0  0  0
  8 26  1  0  0  0  0
  8 30  2  0  0  0  0
  9 11  1  0  0  0  0
  9 13  1  0  0  0  0
  9 14  2  0  0  0  0
 10 12  1  0  0  0  0
 10 13  2  0  0  0  0
 11 15  2  0  0  0  0
 11 16  1  0  0  0  0
 15 24  1  0  0  0  0
 16 17  2  0  0  0  0
 17 18  1  0  0  0  0
 19 22  1  0  0  0  0
 20 27  1  0  0  0  0
 21 28  1  0  0  0  0
 22 25  1  0  0  0  0
 22 29  2  0  0  0  0
 25 26  2  0  0  0  0
 26 31  1  0  0  0  0
 29 30  1  0  0  0  0
 31 32  1  0  0  0  0
 31 33  1  0  0  0  0
M  END
> <PUBCHEM_COMPOUND_ID_TYPE>
0

> <PUBCHEM_TOTAL_CHARGE>
0

> <PUBCHEM_SUBSTANCE_ID>
310943151

> <PUBCHEM_SUBSTANCE_VERSION>
1

> <PUBCHEM_EXT_DATASOURCE_NAME>
4488

> <PUBCHEM_EXT_DATASOURCE_REGID>
SCHEMBL16121211

> <PUBCHEM_SUBSTANCE_COMMENT>
InChI=1S/C25H29N5O3/c1-16(2)22-11-18(5-6-26-22)24(31)28-20-13-21(17(3)27-14-20)19-12-23(25(32)29(4)15-19)30-7-9-33-10-8-30/h5-6,11-16H,7-10H2,1-4H3,(H,28,31)
InChIKey=HYHBGXONJXJIBK-UHFFFAOYSA-N

> <PUBCHEM_SUBSTANCE_SYNONYM>
SCHEMBL16121211

> <PUBCHEM_XREF_EXT_ID>
SCHEMBL16121211

> <PUBCHEM_EXT_DATASOURCE_URL>
https://www.surechembl.org/

> <PUBCHEM_EXT_SUBSTANCE_URL>
https://www.surechembl.org/chemical/SCHEMBL16121211

> <PUBCHEM_CID_ASSOCIATIONS>
117609581  1

> <PUBCHEM_COORDINATE_TYPE>
1
3

$$$$
