310948686
  -OEChem-07211613022D

 35 38  0     1  0  0  0  0  0999 V2000
    2.5516    0.8784    0.0000 F   0  0  0  0  0  0  0  0  0  0  0  0
    3.6391    0.5717    0.0000 F   0  0  0  0  0  0  0  0  0  0  0  0
    3.3045   -0.5159    0.0000 F   0  0  0  0  0  0  0  0  0  0  0  0
   -3.6670    0.1952    0.0000 O   0  0  0  0  0  0  0  0  0  0  0  0
   -4.3782    1.4222    0.0000 O   0  0  0  0  0  0  0  0  0  0  0  0
    0.0558    2.6632    0.0000 O   0  0  0  0  0  0  0  0  0  0  0  0
    3.1233    1.2549    0.0000 O   0  0  0  0  0  0  0  0  0  0  0  0
    0.7669   -0.2092    0.0000 N   0  0  3  0  0  0  0  0  0  0  0  0
    0.7669    1.4362    0.0000 N   0  0  0  0  0  0  0  0  0  0  0  0
    1.4919    2.6771    0.0000 N   0  0  0  0  0  0  0  0  0  0  0  0
    2.3006    1.4362    0.0000 N   0  0  0  0  0  0  0  0  0  0  0  0
   -2.1751    1.4779    0.0000 C   0  0  3  0  0  0  0  0  0  0  0  0
   -2.9002    1.4779    0.0000 C   0  0  3  0  0  0  0  0  0  0  0  0
   -1.3804    1.0179    0.0000 C   0  0  0  0  0  0  0  0  0  0  0  0
   -2.5376    2.1333    0.0000 C   0  0  0  0  0  0  0  0  0  0  0  0
    0.0418    0.2092    0.0000 C   0  0  0  0  0  0  0  0  0  0  0  0
    0.0558    1.0318    0.0000 C   0  0  0  0  0  0  0  0  0  0  0  0
   -0.6692    1.4362    0.0000 C   0  0  0  0  0  0  0  0  0  0  0  0
   -1.3943    0.2092    0.0000 C   0  0  0  0  0  0  0  0  0  0  0  0
   -3.6810    1.0458    0.0000 C   0  0  0  0  0  0  0  0  0  0  0  0
   -0.6692   -0.2092    0.0000 C   0  0  0  0  0  0  0  0  0  0  0  0
    0.7669   -1.0458    0.0000 C   0  0  0  0  0  0  0  0  0  0  0  0
    1.4641    0.1952    0.0000 C   0  0  0  0  0  0  0  0  0  0  0  0
    0.7808    2.2588    0.0000 C   0  0  0  0  0  0  0  0  0  0  0  0
    0.0558   -1.4501    0.0000 C   0  0  0  0  0  0  0  0  0  0  0  0
    1.4919   -1.4641    0.0000 C   0  0  0  0  0  0  0  0  0  0  0  0
    2.2170   -0.2092    0.0000 C   0  0  0  0  0  0  0  0  0  0  0  0
    2.2309    2.2728    0.0000 C   0  0  0  0  0  0  0  0  0  0  0  0
    2.9280    0.1813    0.0000 C   0  0  0  0  0  0  0  0  0  0  0  0
    0.0558   -2.2728    0.0000 C   0  0  0  0  0  0  0  0  0  0  0  0
    1.4919   -2.2728    0.0000 C   0  0  0  0  0  0  0  0  0  0  0  0
    2.9699    2.6074    0.0000 C   0  0  0  0  0  0  0  0  0  0  0  0
    3.5276    1.9938    0.0000 C   0  0  0  0  0  0  0  0  0  0  0  0
    0.7669   -2.6771    0.0000 C   0  0  0  0  0  0  0  0  0  0  0  0
    4.3782    2.0915    0.0000 C   0  0  0  0  0  0  0  0  0  0  0  0
  1 29  1  0  0  0  0
  2 29  1  0  0  0  0
  3 29  1  0  0  0  0
  4 20  2  0  0  0  0
  5 20  1  0  0  0  0
  6 24  2  0  0  0  0
  7 11  1  0  0  0  0
  7 33  1  0  0  0  0
  8 16  1  0  0  0  0
  8 22  1  0  0  0  0
  8 23  1  0  0  0  0
  9 17  1  0  0  0  0
  9 24  1  0  0  0  0
 10 24  1  0  0  0  0
 10 28  1  0  0  0  0
 11 28  2  0  0  0  0
 12 13  1  0  0  0  0
 12 14  1  0  0  0  0
 12 15  1  1  0  0  0
 13 15  1  0  0  0  0
 13 20  1  1  0  0  0
 14 18  1  0  0  0  0
 14 19  2  0  0  0  0
 16 17  1  0  0  0  0
 16 21  2  0  0  0  0
 17 18  2  0  0  0  0
 19 21  1  0  0  0  0
 22 25  1  0  0  0  0
 22 26  1  0  0  0  0
 23 27  1  0  0  0  0
 25 30  1  0  0  0  0
 26 31  1  0  0  0  0
 27 29  1  0  0  0  0
 28 32  1  0  0  0  0
 30 34  1  0  0  0  0
 31 34  1  0  0  0  0
 32 33  2  0  0  0  0
 33 35  1  0  0  0  0
M  END
> <PUBCHEM_COMPOUND_ID_TYPE>
0

> <PUBCHEM_TOTAL_CHARGE>
0

> <PUBCHEM_SUBSTANCE_ID>
310948686

> <PUBCHEM_SUBSTANCE_VERSION>
1

> <PUBCHEM_EXT_DATASOURCE_NAME>
4488

> <PUBCHEM_EXT_DATASOURCE_REGID>
SCHEMBL16126870

> <PUBCHEM_SUBSTANCE_COMMENT>
InChI=1S/C24H29F3N4O4/c1-14-11-21(30-35-14)29-23(34)28-19-12-15(17-13-18(17)22(32)33)7-8-20(19)31(10-9-24(25,26)27)16-5-3-2-4-6-16/h7-8,11-12,16-18H,2-6,9-10,13H2,1H3,(H,32,33)(H2,28,29,30,34)/t17-,18-/m0/s1
InChIKey=SFBRLHLBKLWHDN-ROUUACIJSA-N

> <PUBCHEM_SUBSTANCE_SYNONYM>
SCHEMBL16126870

> <PUBCHEM_XREF_EXT_ID>
SCHEMBL16126870

> <PUBCHEM_EXT_DATASOURCE_URL>
https://www.surechembl.org/

> <PUBCHEM_EXT_SUBSTANCE_URL>
https://www.surechembl.org/chemical/SCHEMBL16126870

> <PUBCHEM_CID_ASSOCIATIONS>
117614227  1

> <PUBCHEM_COORDINATE_TYPE>
1
3

> <PUBCHEM_BONDANNOTATIONS>
12  15  5
13  20  5

$$$$
