310938874
  -OEChem-07211613022D

 14 15  0     1  0  0  0  0  0999 V2000
    2.4962   -0.4056    0.0000 F   0  0  0  0  0  0  0  0  0  0  0  0
    0.3994   -0.8300    0.0000 N   0  0  3  0  0  0  0  0  0  0  0  0
   -1.0484    0.0062    0.0000 N   0  0  0  0  0  0  0  0  0  0  0  0
   -1.0609   -0.8300    0.0000 C   0  0  0  0  0  0  0  0  0  0  0  0
   -0.3245   -1.2419    0.0000 C   0  0  0  0  0  0  0  0  0  0  0  0
    1.1857   -1.0796    0.0000 C   0  0  0  0  0  0  0  0  0  0  0  0
    1.6600   -0.3931    0.0000 C   0  0  3  0  0  0  0  0  0  0  0  0
    0.3994    0.0062    0.0000 C   0  0  0  0  0  0  0  0  0  0  0  0
    1.1857    0.2559    0.0000 C   0  0  0  0  0  0  0  0  0  0  0  0
   -1.7849    0.4306    0.0000 C   0  0  0  0  0  0  0  0  0  0  0  0
   -1.7599   -1.2419    0.0000 C   0  0  0  0  0  0  0  0  0  0  0  0
   -2.4838    0.0062    0.0000 C   0  0  0  0  0  0  0  0  0  0  0  0
   -2.4962   -0.8175    0.0000 C   0  0  0  0  0  0  0  0  0  0  0  0
   -1.7599    1.2419    0.0000 C   0  0  0  0  0  0  0  0  0  0  0  0
  7  1  1  1  0  0  0
  2  5  1  0  0  0  0
  2  6  1  0  0  0  0
  2  8  1  0  0  0  0
  3  4  1  0  0  0  0
  3 10  2  0  0  0  0
  4  5  1  0  0  0  0
  4 11  2  0  0  0  0
  6  7  1  0  0  0  0
  7  9  1  0  0  0  0
  8  9  1  0  0  0  0
 10 12  1  0  0  0  0
 10 14  1  0  0  0  0
 11 13  1  0  0  0  0
 12 13  2  0  0  0  0
M  END
> <PUBCHEM_COMPOUND_ID_TYPE>
0

> <PUBCHEM_TOTAL_CHARGE>
0

> <PUBCHEM_SUBSTANCE_ID>
310938874

> <PUBCHEM_SUBSTANCE_VERSION>
1

> <PUBCHEM_EXT_DATASOURCE_NAME>
4488

> <PUBCHEM_EXT_DATASOURCE_REGID>
SCHEMBL16116793

> <PUBCHEM_SUBSTANCE_COMMENT>
InChI=1S/C11H15FN2/c1-9-3-2-4-11(13-9)8-14-6-5-10(12)7-14/h2-4,10H,5-8H2,1H3/t10-/m1/s1
InChIKey=ZKARJQNJMCFUBE-SNVBAGLBSA-N

> <PUBCHEM_SUBSTANCE_SYNONYM>
SCHEMBL16116793

> <PUBCHEM_XREF_EXT_ID>
SCHEMBL16116793

> <PUBCHEM_EXT_DATASOURCE_URL>
https://www.surechembl.org/

> <PUBCHEM_EXT_SUBSTANCE_URL>
https://www.surechembl.org/chemical/SCHEMBL16116793

> <PUBCHEM_CID_ASSOCIATIONS>
117606271  1

> <PUBCHEM_COORDINATE_TYPE>
1
3

> <PUBCHEM_BONDANNOTATIONS>
7  1  5

$$$$
