310943672
  -OEChem-07211613022D

 37 40  0     0  0  0  0  0  0999 V2000
    5.3637    1.8425    0.0000 F   0  0  0  0  0  0  0  0  0  0  0  0
    5.3637    1.0306    0.0000 F   0  0  0  0  0  0  0  0  0  0  0  0
    1.7879    2.2641    0.0000 O   0  0  0  0  0  0  0  0  0  0  0  0
   -5.3637    2.2641    0.0000 O   0  0  0  0  0  0  0  0  0  0  0  0
   -1.0696   -2.6701    0.0000 O   0  0  0  0  0  0  0  0  0  0  0  0
   -3.9271    1.4365    0.0000 N   0  0  0  0  0  0  0  0  0  0  0  0
   -3.2088    0.2030    0.0000 N   0  0  0  0  0  0  0  0  0  0  0  0
    1.0852    1.0306    0.0000 N   0  0  0  0  0  0  0  0  0  0  0  0
   -0.3513    2.6701    0.0000 N   0  0  0  0  0  0  0  0  0  0  0  0
    3.9427    0.2030    0.0000 N   0  0  0  0  0  0  0  0  0  0  0  0
   -2.5061   -1.0306    0.0000 N   0  0  0  0  0  0  0  0  0  0  0  0
   -1.0852    1.4365    0.0000 C   0  0  0  0  0  0  0  0  0  0  0  0
   -1.7722    1.0306    0.0000 C   0  0  0  0  0  0  0  0  0  0  0  0
   -3.2088    1.0462    0.0000 C   0  0  0  0  0  0  0  0  0  0  0  0
   -2.5218    1.4365    0.0000 C   0  0  0  0  0  0  0  0  0  0  0  0
   -1.0696    2.2641    0.0000 C   0  0  0  0  0  0  0  0  0  0  0  0
    0.3513    1.4365    0.0000 C   0  0  0  0  0  0  0  0  0  0  0  0
   -0.3669    1.0306    0.0000 C   0  0  0  0  0  0  0  0  0  0  0  0
   -1.7879    0.2186    0.0000 C   0  0  0  0  0  0  0  0  0  0  0  0
   -2.4905   -0.1874    0.0000 C   0  0  0  0  0  0  0  0  0  0  0  0
    3.9427    1.0306    0.0000 C   0  0  0  0  0  0  0  0  0  0  0  0
    2.5061    1.0306    0.0000 C   0  0  0  0  0  0  0  0  0  0  0  0
    4.6610    1.4522    0.0000 C   0  0  0  0  0  0  0  0  0  0  0  0
    1.7722    1.4209    0.0000 C   0  0  0  0  0  0  0  0  0  0  0  0
    3.2088    1.4365    0.0000 C   0  0  0  0  0  0  0  0  0  0  0  0
    0.3669    2.2641    0.0000 C   0  0  0  0  0  0  0  0  0  0  0  0
    2.5061    0.2186    0.0000 C   0  0  0  0  0  0  0  0  0  0  0  0
   -3.9427    2.2641    0.0000 C   0  0  0  0  0  0  0  0  0  0  0  0
   -4.6298    1.0306    0.0000 C   0  0  0  0  0  0  0  0  0  0  0  0
    3.2088   -0.2030    0.0000 C   0  0  0  0  0  0  0  0  0  0  0  0
   -1.7879    2.6545    0.0000 C   0  0  0  0  0  0  0  0  0  0  0  0
    4.6610    2.2485    0.0000 C   0  0  0  0  0  0  0  0  0  0  0  0
   -4.6610    2.6701    0.0000 C   0  0  0  0  0  0  0  0  0  0  0  0
   -5.3637    1.4365    0.0000 C   0  0  0  0  0  0  0  0  0  0  0  0
   -1.7879   -1.4365    0.0000 C   0  0  0  0  0  0  0  0  0  0  0  0
    3.9271    2.6545    0.0000 C   0  0  0  0  0  0  0  0  0  0  0  0
   -1.7879   -2.2485    0.0000 C   0  0  0  0  0  0  0  0  0  0  0  0
  1 23  1  0  0  0  0
  2 23  1  0  0  0  0
  3 24  2  0  0  0  0
  4 33  1  0  0  0  0
  4 34  1  0  0  0  0
  5 37  1  0  0  0  0
  6 14  1  0  0  0  0
  6 28  1  0  0  0  0
  6 29  1  0  0  0  0
  7 14  2  0  0  0  0
  7 20  1  0  0  0  0
  8 17  1  0  0  0  0
  8 24  1  0  0  0  0
  9 16  2  0  0  0  0
  9 26  1  0  0  0  0
 10 21  1  0  0  0  0
 10 30  2  0  0  0  0
 11 20  1  0  0  0  0
 11 35  1  0  0  0  0
 12 13  1  0  0  0  0
 12 16  1  0  0  0  0
 12 18  2  0  0  0  0
 13 15  2  0  0  0  0
 13 19  1  0  0  0  0
 14 15  1  0  0  0  0
 16 31  1  0  0  0  0
 17 18  1  0  0  0  0
 17 26  2  0  0  0  0
 19 20  2  0  0  0  0
 21 23  1  0  0  0  0
 21 25  2  0  0  0  0
 22 24  1  0  0  0  0
 22 25  1  0  0  0  0
 22 27  2  0  0  0  0
 23 32  1  0  0  0  0
 27 30  1  0  0  0  0
 28 33  1  0  0  0  0
 29 34  1  0  0  0  0
 32 36  1  0  0  0  0
 35 37  1  0  0  0  0
M  END
> <PUBCHEM_COMPOUND_ID_TYPE>
0

> <PUBCHEM_TOTAL_CHARGE>
0

> <PUBCHEM_SUBSTANCE_ID>
310943672

> <PUBCHEM_SUBSTANCE_VERSION>
1

> <PUBCHEM_EXT_DATASOURCE_NAME>
4488

> <PUBCHEM_EXT_DATASOURCE_REGID>
SCHEMBL16121740

> <PUBCHEM_SUBSTANCE_COMMENT>
InChI=1S/C26H30F2N6O3/c1-3-26(27,28)22-12-18(4-5-29-22)25(36)32-20-15-21(17(2)31-16-20)19-13-23(30-6-9-35)33-24(14-19)34-7-10-37-11-8-34/h4-5,12-16,35H,3,6-11H2,1-2H3,(H,30,33)(H,32,36)
InChIKey=KLZDAZKIRBISQK-UHFFFAOYSA-N

> <PUBCHEM_SUBSTANCE_SYNONYM>
SCHEMBL16121740

> <PUBCHEM_XREF_EXT_ID>
SCHEMBL16121740

> <PUBCHEM_EXT_DATASOURCE_URL>
https://www.surechembl.org/

> <PUBCHEM_EXT_SUBSTANCE_URL>
https://www.surechembl.org/chemical/SCHEMBL16121740

> <PUBCHEM_CID_ASSOCIATIONS>
117610061  1

> <PUBCHEM_COORDINATE_TYPE>
1
3

$$$$
