310931427
  -OEChem-07211613022D

 29 32  0     0  0  0  0  0  0999 V2000
    4.7812    1.1104    0.0000 O   0  0  0  0  0  0  0  0  0  0  0  0
    6.2494    2.0124    0.0000 N   0  0  0  0  0  0  0  0  0  0  0  0
    4.0668    2.3479    0.0000 N   0  0  0  0  0  0  0  0  0  0  0  0
    1.1387    0.8555    0.0000 N   0  0  0  0  0  0  0  0  0  0  0  0
    7.6264    5.4834    0.0000 N   0  0  0  0  0  0  0  0  0  0  0  0
    6.8014    5.4834    0.0000 N   0  0  0  0  0  0  0  0  0  0  0  0
    6.8014    6.9123    0.0000 N   0  0  0  0  0  0  0  0  0  0  0  0
    5.5639    6.1978    0.0000 N   0  0  0  0  0  0  0  0  0  0  0  0
    6.3889    3.3400    0.0000 C   0  0  0  0  0  0  0  0  0  0  0  0
    6.8014    2.6255    0.0000 C   0  0  0  0  0  0  0  0  0  0  0  0
    5.4957    2.3479    0.0000 C   0  0  0  0  0  0  0  0  0  0  0  0
    5.5819    3.1684    0.0000 C   0  0  0  0  0  0  0  0  0  0  0  0
    4.7812    1.9354    0.0000 C   0  0  0  0  0  0  0  0  0  0  0  0
    1.9233    1.9354    0.0000 C   0  0  0  0  0  0  0  0  0  0  0  0
    6.8014    4.0544    0.0000 C   0  0  0  0  0  0  0  0  0  0  0  0
    7.6264    4.0544    0.0000 C   0  0  0  0  0  0  0  0  0  0  0  0
    1.9233    1.1104    0.0000 C   0  0  0  0  0  0  0  0  0  0  0  0
    3.3523    1.9354    0.0000 C   0  0  0  0  0  0  0  0  0  0  0  0
    7.6264    2.6255    0.0000 C   0  0  0  0  0  0  0  0  0  0  0  0
    2.6378    2.3479    0.0000 C   0  0  0  0  0  0  0  0  0  0  0  0
    8.0389    3.3400    0.0000 C   0  0  0  0  0  0  0  0  0  0  0  0
    1.1387    2.1904    0.0000 C   0  0  0  0  0  0  0  0  0  0  0  0
    0.6538    1.5229    0.0000 C   0  0  0  0  0  0  0  0  0  0  0  0
    2.6378    0.6979    0.0000 C   0  0  0  0  0  0  0  0  0  0  0  0
    8.0389    4.7689    0.0000 C   0  0  0  0  0  0  0  0  0  0  0  0
    3.3523    1.1104    0.0000 C   0  0  0  0  0  0  0  0  0  0  0  0
   -0.1712    1.5229    0.0000 C   0  0  0  0  0  0  0  0  0  0  0  0
    8.8639    4.7689    0.0000 C   0  0  0  0  0  0  0  0  0  0  0  0
    6.3889    6.1978    0.0000 C   0  0  0  0  0  0  0  0  0  0  0  0
  1 13  2  0  0  0  0
  2 10  1  0  0  0  0
  2 11  1  0  0  0  0
  3 13  1  0  0  0  0
  3 18  1  0  0  0  0
  4 17  1  0  0  0  0
  4 23  1  0  0  0  0
  5  6  1  0  0  0  0
  5 25  2  0  0  0  0
  6 29  1  0  0  0  0
  7 29  2  3  0  0  0
  8 29  1  0  0  0  0
  9 10  1  0  0  0  0
  9 12  1  0  0  0  0
  9 15  2  0  0  0  0
 10 19  2  0  0  0  0
 11 12  2  0  0  0  0
 11 13  1  0  0  0  0
 14 17  1  0  0  0  0
 14 20  2  0  0  0  0
 14 22  1  0  0  0  0
 15 16  1  0  0  0  0
 16 21  2  0  0  0  0
 16 25  1  0  0  0  0
 17 24  2  0  0  0  0
 18 20  1  0  0  0  0
 18 26  2  0  0  0  0
 19 21  1  0  0  0  0
 22 23  2  0  0  0  0
 23 27  1  0  0  0  0
 24 26  1  0  0  0  0
 25 28  1  0  0  0  0
M  END
> <PUBCHEM_COMPOUND_ID_TYPE>
0

> <PUBCHEM_TOTAL_CHARGE>
0

> <PUBCHEM_SUBSTANCE_ID>
310931427

> <PUBCHEM_SUBSTANCE_VERSION>
1

> <PUBCHEM_EXT_DATASOURCE_NAME>
4488

> <PUBCHEM_EXT_DATASOURCE_REGID>
SCHEMBL16108752

> <PUBCHEM_SUBSTANCE_COMMENT>
InChI=1S/C21H21N7O/c1-11-7-14-9-16(4-6-17(14)24-11)25-20(29)19-10-15-8-13(3-5-18(15)26-19)12(2)27-28-21(22)23/h3-10,24,26H,1-2H3,(H,25,29)(H4,22,23,28)/b27-12-
InChIKey=YOMFHJFJBVUSFB-PPDIBHTLSA-N

> <PUBCHEM_SUBSTANCE_SYNONYM>
SCHEMBL16108752

> <PUBCHEM_XREF_EXT_ID>
SCHEMBL16108752

> <PUBCHEM_EXT_DATASOURCE_URL>
https://www.surechembl.org/

> <PUBCHEM_EXT_SUBSTANCE_URL>
https://www.surechembl.org/chemical/SCHEMBL16108752

> <PUBCHEM_CID_ASSOCIATIONS>
117600205  1

> <PUBCHEM_COORDINATE_TYPE>
1
3

$$$$
