310944161
  -OEChem-07211613022D

 13 12  0     0  0  0  0  0  0999 V2000
   -1.9230    0.3819    0.0000 I   0  0  0  0  0  0  0  0  0  0  0  0
    0.6456    0.7012    0.0000 O   0  0  0  0  0  0  0  0  0  0  0  0
   -0.5901    1.3955    0.0000 O   0  0  0  0  0  0  0  0  0  0  0  0
   -0.7567   -1.3955    0.0000 N   0  0  0  0  0  0  0  0  0  0  0  0
   -0.5484   -0.0625    0.0000 C   0  0  0  0  0  0  0  0  0  0  0  0
   -0.1736    0.6872    0.0000 C   0  0  0  0  0  0  0  0  0  0  0  0
   -1.3677   -0.1875    0.0000 C   0  0  0  0  0  0  0  0  0  0  0  0
   -0.1875   -0.7983    0.0000 C   0  0  0  0  0  0  0  0  0  0  0  0
   -1.3539   -1.1872    0.0000 C   0  0  0  0  0  0  0  0  0  0  0  0
    1.0622    0.0070    0.0000 C   0  0  0  0  0  0  0  0  0  0  0  0
   -1.6315   -0.8539    0.0000 C   0  0  0  0  0  0  0  0  0  0  0  0
    1.9230    0.0070    0.0000 C   0  0  0  0  0  0  0  0  0  0  0  0
   -1.6177   -1.2288    0.0000 C   0  0  0  0  0  0  0  0  0  0  0  0
  1  7  1  0  0  0  0
  2  6  1  0  0  0  0
  2 10  1  0  0  0  0
  3  6  2  0  0  0  0
  4  8  1  0  0  0  0
  5  6  1  0  0  0  0
  5  7  1  0  0  0  0
  5  8  2  0  0  0  0
  7  9  2  0  0  0  0
  9 11  1  0  0  0  0
 10 12  1  0  0  0  0
 11 13  1  0  0  0  0
M  END
> <PUBCHEM_COMPOUND_ID_TYPE>
0

> <PUBCHEM_TOTAL_CHARGE>
0

> <PUBCHEM_SUBSTANCE_ID>
310944161

> <PUBCHEM_SUBSTANCE_VERSION>
1

> <PUBCHEM_EXT_DATASOURCE_NAME>
4488

> <PUBCHEM_EXT_DATASOURCE_REGID>
SCHEMBL16122236

> <PUBCHEM_SUBSTANCE_COMMENT>
InChI=1S/C9H14INO2/c1-3-5-8(10)7(6-11)9(12)13-4-2/h5-6H,3-4,11H2,1-2H3/b7-6+,8-5-
InChIKey=QKCLCXXUIJLZNO-NGWHPUCNSA-N

> <PUBCHEM_SUBSTANCE_SYNONYM>
SCHEMBL16122236

> <PUBCHEM_XREF_EXT_ID>
SCHEMBL16122236

> <PUBCHEM_EXT_DATASOURCE_URL>
https://www.surechembl.org/

> <PUBCHEM_EXT_SUBSTANCE_URL>
https://www.surechembl.org/chemical/SCHEMBL16122236

> <PUBCHEM_CID_ASSOCIATIONS>
117610442  1

> <PUBCHEM_COORDINATE_TYPE>
1
3

$$$$
