310943957
  -OEChem-07211613022D

 30 35  0     0  0  0  0  0  0999 V2000
    0.5138   -1.7384    0.0000 S   0  0  0  0  0  0  0  0  0  0  0  0
    1.3188    3.6567    0.0000 F   0  0  0  0  0  0  0  0  0  0  0  0
   -0.1199    1.1732    0.0000 N   0  0  0  0  0  0  0  0  0  0  0  0
   -0.8221    3.1600    0.0000 N   0  0  0  0  0  0  0  0  0  0  0  0
   -0.2398    0.3683    0.0000 C   0  0  0  0  0  0  0  0  0  0  0  0
   -1.0277    0.2141    0.0000 C   0  0  0  0  0  0  0  0  0  0  0  0
   -0.9077    1.5329    0.0000 C   0  0  0  0  0  0  0  0  0  0  0  0
   -1.4558    0.9163    0.0000 C   0  0  0  0  0  0  0  0  0  0  0  0
   -0.7365   -1.1732    0.0000 C   0  0  0  0  0  0  0  0  0  0  0  0
    0.0857   -1.0191    0.0000 C   0  0  0  0  0  0  0  0  0  0  0  0
    0.5995    1.6186    0.0000 C   0  0  0  0  0  0  0  0  0  0  0  0
   -1.2846   -0.5395    0.0000 C   0  0  0  0  0  0  0  0  0  0  0  0
    0.3254   -0.2141    0.0000 C   0  0  0  0  0  0  0  0  0  0  0  0
   -0.8221   -2.0125    0.0000 C   0  0  0  0  0  0  0  0  0  0  0  0
   -0.0514   -2.3379    0.0000 C   0  0  0  0  0  0  0  0  0  0  0  0
    0.6166    2.4236    0.0000 C   0  0  0  0  0  0  0  0  0  0  0  0
   -1.1818    2.3036    0.0000 C   0  0  0  0  0  0  0  0  0  0  0  0
   -2.2437    1.0876    0.0000 C   0  0  0  0  0  0  0  0  0  0  0  0
    1.3360    1.2075    0.0000 C   0  0  0  0  0  0  0  0  0  0  0  0
    1.3017    2.8346    0.0000 C   0  0  0  0  0  0  0  0  0  0  0  0
   -1.4901   -2.5092    0.0000 C   0  0  0  0  0  0  0  0  0  0  0  0
   -1.9525    2.4578    0.0000 C   0  0  0  0  0  0  0  0  0  0  0  0
   -2.5349    1.8584    0.0000 C   0  0  0  0  0  0  0  0  0  0  0  0
    2.0553    2.4406    0.0000 C   0  0  0  0  0  0  0  0  0  0  0  0
    0.0343   -3.1772    0.0000 C   0  0  0  0  0  0  0  0  0  0  0  0
    2.0553    1.6014    0.0000 C   0  0  0  0  0  0  0  0  0  0  0  0
   -0.1199    2.8175    0.0000 C   0  0  0  0  0  0  0  0  0  0  0  0
   -1.4045   -3.3313    0.0000 C   0  0  0  0  0  0  0  0  0  0  0  0
   -0.6338   -3.6567    0.0000 C   0  0  0  0  0  0  0  0  0  0  0  0
    2.5349    2.7147    0.0000 C   0  0  0  0  0  0  0  0  0  0  0  0
  1 10  1  0  0  0  0
  1 15  1  0  0  0  0
  2 20  1  0  0  0  0
  3  5  1  0  0  0  0
  3  7  1  0  0  0  0
  3 11  1  0  0  0  0
  4 27  3  0  0  0  0
  5  6  2  0  0  0  0
  5 13  1  0  0  0  0
  6  8  1  0  0  0  0
  6 12  1  0  0  0  0
  7  8  2  0  0  0  0
  7 17  1  0  0  0  0
  8 18  1  0  0  0  0
  9 10  1  0  0  0  0
  9 12  2  0  0  0  0
  9 14  1  0  0  0  0
 10 13  2  0  0  0  0
 11 16  2  0  0  0  0
 11 19  1  0  0  0  0
 14 15  2  0  0  0  0
 14 21  1  0  0  0  0
 15 25  1  0  0  0  0
 16 20  1  0  0  0  0
 16 27  1  0  0  0  0
 17 22  2  0  0  0  0
 18 23  2  0  0  0  0
 19 26  2  0  0  0  0
 20 24  2  0  0  0  0
 21 28  2  0  0  0  0
 22 23  1  0  0  0  0
 24 26  1  0  0  0  0
 24 30  1  0  0  0  0
 25 29  2  0  0  0  0
 28 29  1  0  0  0  0
M  END
> <PUBCHEM_COMPOUND_ID_TYPE>
0

> <PUBCHEM_TOTAL_CHARGE>
0

> <PUBCHEM_SUBSTANCE_ID>
310943957

> <PUBCHEM_SUBSTANCE_VERSION>
1

> <PUBCHEM_EXT_DATASOURCE_NAME>
4488

> <PUBCHEM_EXT_DATASOURCE_REGID>
SCHEMBL16122028

> <PUBCHEM_SUBSTANCE_COMMENT>
InChI=1S/C26H15FN2S/c1-15-10-11-22(20(14-28)26(15)27)29-21-8-4-2-6-16(21)18-12-19-17-7-3-5-9-24(17)30-25(19)13-23(18)29/h2-13H,1H3
InChIKey=UGCGRPRIGPWSMS-UHFFFAOYSA-N

> <PUBCHEM_SUBSTANCE_SYNONYM>
SCHEMBL16122028

> <PUBCHEM_XREF_EXT_ID>
SCHEMBL16122028

> <PUBCHEM_EXT_DATASOURCE_URL>
https://www.surechembl.org/

> <PUBCHEM_EXT_SUBSTANCE_URL>
https://www.surechembl.org/chemical/SCHEMBL16122028

> <PUBCHEM_CID_ASSOCIATIONS>
117610265  1

> <PUBCHEM_COORDINATE_TYPE>
1
3

$$$$
