310944023
  -OEChem-07211613022D

 22 22  0     0  0  0  0  0  0999 V2000
    0.0000   -1.6421    0.0000 Cl  0  0  0  0  0  0  0  0  0  0  0  0
    0.0155    1.6421    0.0000 F   0  0  0  0  0  0  0  0  0  0  0  0
   -1.4475   -0.8327    0.0000 O   0  0  0  0  0  0  0  0  0  0  0  0
    1.4475   -0.8327    0.0000 O   0  0  0  0  0  0  0  0  0  0  0  0
   -2.1480    1.1752    0.0000 N   0  0  0  0  0  0  0  0  0  0  0  0
    2.1480    1.1752    0.0000 N   0  0  0  0  0  0  0  0  0  0  0  0
   -0.7316   -0.3969    0.0000 C   0  0  0  0  0  0  0  0  0  0  0  0
    0.7004   -0.3813    0.0000 C   0  0  0  0  0  0  0  0  0  0  0  0
   -0.7160    0.4281    0.0000 C   0  0  0  0  0  0  0  0  0  0  0  0
    0.7160    0.4281    0.0000 C   0  0  0  0  0  0  0  0  0  0  0  0
    0.0000   -0.7860    0.0000 C   0  0  0  0  0  0  0  0  0  0  0  0
   -0.0155    0.8327    0.0000 C   0  0  0  0  0  0  0  0  0  0  0  0
   -1.4475    0.8171    0.0000 C   0  0  0  0  0  0  0  0  0  0  0  0
    1.4320    0.8171    0.0000 C   0  0  0  0  0  0  0  0  0  0  0  0
   -2.1946   -0.4281    0.0000 C   0  0  0  0  0  0  0  0  0  0  0  0
    2.1480   -0.3969    0.0000 C   0  0  0  0  0  0  0  0  0  0  0  0
   -2.8951   -0.8016    0.0000 C   0  0  0  0  0  0  0  0  0  0  0  0
    2.8951   -0.7705    0.0000 C   0  0  0  0  0  0  0  0  0  0  0  0
   -2.8795   -1.6265    0.0000 C   0  0  0  0  0  0  0  0  0  0  0  0
   -3.6111   -0.4281    0.0000 C   0  0  0  0  0  0  0  0  0  0  0  0
    2.8951   -1.6110    0.0000 C   0  0  0  0  0  0  0  0  0  0  0  0
    3.6111   -0.3813    0.0000 C   0  0  0  0  0  0  0  0  0  0  0  0
  1 11  1  0  0  0  0
  2 12  1  0  0  0  0
  3  7  1  0  0  0  0
  3 15  1  0  0  0  0
  4  8  1  0  0  0  0
  4 16  1  0  0  0  0
  5 13  3  0  0  0  0
  6 14  3  0  0  0  0
  7  9  2  0  0  0  0
  7 11  1  0  0  0  0
  8 10  1  0  0  0  0
  8 11  2  0  0  0  0
  9 12  1  0  0  0  0
  9 13  1  0  0  0  0
 10 12  2  0  0  0  0
 10 14  1  0  0  0  0
 15 17  1  0  0  0  0
 16 18  1  0  0  0  0
 17 19  2  0  0  0  0
 17 20  1  0  0  0  0
 18 21  2  0  0  0  0
 18 22  1  0  0  0  0
M  END
> <PUBCHEM_COMPOUND_ID_TYPE>
0

> <PUBCHEM_TOTAL_CHARGE>
0

> <PUBCHEM_SUBSTANCE_ID>
310944023

> <PUBCHEM_SUBSTANCE_VERSION>
1

> <PUBCHEM_EXT_DATASOURCE_NAME>
4488

> <PUBCHEM_EXT_DATASOURCE_REGID>
SCHEMBL16122096

> <PUBCHEM_SUBSTANCE_COMMENT>
InChI=1S/C16H14ClFN2O2/c1-9(2)7-21-15-11(5-19)14(18)12(6-20)16(13(15)17)22-8-10(3)4/h1,3,7-8H2,2,4H3
InChIKey=UCTGBKPXEHQLMP-UHFFFAOYSA-N

> <PUBCHEM_SUBSTANCE_SYNONYM>
SCHEMBL16122096

> <PUBCHEM_XREF_EXT_ID>
SCHEMBL16122096

> <PUBCHEM_EXT_DATASOURCE_URL>
https://www.surechembl.org/

> <PUBCHEM_EXT_SUBSTANCE_URL>
https://www.surechembl.org/chemical/SCHEMBL16122096

> <PUBCHEM_CID_ASSOCIATIONS>
14177542  1

> <PUBCHEM_COORDINATE_TYPE>
1
3

$$$$
