310931262
  -OEChem-07211613022D

 36 40  0     1  0  0  0  0  0999 V2000
    7.1099   -5.8365    0.0000 F   0  0  0  0  0  0  0  0  0  0  0  0
    0.0000   -5.8365    0.0000 F   0  0  0  0  0  0  0  0  0  0  0  0
    0.7428   -7.0745    0.0000 F   0  0  0  0  0  0  0  0  0  0  0  0
    0.0000   -6.6500    0.0000 F   0  0  0  0  0  0  0  0  0  0  0  0
    5.6950   -5.8365    0.0000 O   0  0  0  0  0  0  0  0  0  0  0  0
    2.1577   -6.2610    0.0000 O   0  0  0  0  0  0  0  0  0  0  0  0
    4.9876   -4.5984    0.0000 N   0  0  0  0  0  0  0  0  0  0  0  0
    5.6950   -3.3604    0.0000 N   0  0  0  0  0  0  0  0  0  0  0  0
    4.2801   -2.5468    0.0000 N   0  0  0  0  0  0  0  0  0  0  0  0
    2.9006   -2.5468    0.0000 N   0  0  0  0  0  0  0  0  0  0  0  0
    2.1577   -1.3088    0.0000 N   0  0  0  0  0  0  0  0  0  0  0  0
    3.0421   -0.1061    0.0000 N   0  0  0  0  0  0  0  0  0  0  0  0
    4.9876   -3.7849    0.0000 C   0  0  0  0  0  0  0  0  0  0  0  0
    6.4378   -4.5984    0.0000 C   0  0  0  0  0  0  0  0  0  0  0  0
    5.6950   -5.0229    0.0000 C   0  0  0  0  0  0  0  0  0  0  0  0
    6.4378   -3.7849    0.0000 C   0  0  0  0  0  0  0  0  0  0  0  0
    4.2801   -5.0229    0.0000 C   0  0  0  0  0  0  0  0  0  0  0  0
    4.2801   -3.3604    0.0000 C   0  0  3  0  0  0  0  0  0  0  0  0
    7.1099   -5.0229    0.0000 C   0  0  0  0  0  0  0  0  0  0  0  0
    7.1099   -3.3604    0.0000 C   0  0  0  0  0  0  0  0  0  0  0  0
    3.5726   -2.1577    0.0000 C   0  0  0  0  0  0  0  0  0  0  0  0
    3.6080   -1.3088    0.0000 C   0  0  0  0  0  0  0  0  0  0  0  0
    4.2801   -5.8365    0.0000 C   0  0  0  0  0  0  0  0  0  0  0  0
    3.5726   -4.5984    0.0000 C   0  0  0  0  0  0  0  0  0  0  0  0
    7.8174   -4.5984    0.0000 C   0  0  0  0  0  0  0  0  0  0  0  0
    2.8652   -0.8843    0.0000 C   0  0  0  0  0  0  0  0  0  0  0  0
    7.8174   -3.7849    0.0000 C   0  0  0  0  0  0  0  0  0  0  0  0
    2.8652   -5.8365    0.0000 C   0  0  0  0  0  0  0  0  0  0  0  0
    3.5726   -6.2610    0.0000 C   0  0  0  0  0  0  0  0  0  0  0  0
    2.8652   -5.0229    0.0000 C   0  0  0  0  0  0  0  0  0  0  0  0
    3.5726   -3.7849    0.0000 C   0  0  0  0  0  0  0  0  0  0  0  0
    4.2093   -0.7428    0.0000 C   0  0  0  0  0  0  0  0  0  0  0  0
    2.1577   -2.1223    0.0000 C   0  0  0  0  0  0  0  0  0  0  0  0
    3.8556    0.0000    0.0000 C   0  0  0  0  0  0  0  0  0  0  0  0
    1.4503   -5.8365    0.0000 C   0  0  0  0  0  0  0  0  0  0  0  0
    0.7428   -6.2610    0.0000 C   0  0  0  0  0  0  0  0  0  0  0  0
  1 19  1  0  0  0  0
  2 36  1  0  0  0  0
  3 36  1  0  0  0  0
  4 36  1  0  0  0  0
  5 15  2  0  0  0  0
  6 28  1  0  0  0  0
  6 35  1  0  0  0  0
  7 13  1  0  0  0  0
  7 15  1  0  0  0  0
  7 17  1  0  0  0  0
  8 13  2  0  0  0  0
  8 16  1  0  0  0  0
  9 18  1  0  0  0  0
  9 21  1  0  0  0  0
 10 21  1  0  0  0  0
 10 33  2  0  0  0  0
 11 26  2  0  0  0  0
 11 33  1  0  0  0  0
 12 26  1  0  0  0  0
 12 34  1  0  0  0  0
 13 18  1  0  0  0  0
 14 15  1  0  0  0  0
 14 16  2  0  0  0  0
 14 19  1  0  0  0  0
 16 20  1  0  0  0  0
 17 23  2  0  0  0  0
 17 24  1  0  0  0  0
 18 31  1  6  0  0  0
 19 25  2  0  0  0  0
 20 27  2  0  0  0  0
 21 22  2  0  0  0  0
 22 26  1  0  0  0  0
 22 32  1  0  0  0  0
 23 29  1  0  0  0  0
 24 30  2  0  0  0  0
 25 27  1  0  0  0  0
 28 29  2  0  0  0  0
 28 30  1  0  0  0  0
 32 34  2  0  0  0  0
 35 36  1  0  0  0  0
M  END
> <PUBCHEM_COMPOUND_ID_TYPE>
0

> <PUBCHEM_TOTAL_CHARGE>
0

> <PUBCHEM_SUBSTANCE_ID>
310931262

> <PUBCHEM_SUBSTANCE_VERSION>
1

> <PUBCHEM_EXT_DATASOURCE_NAME>
4488

> <PUBCHEM_EXT_DATASOURCE_REGID>
SCHEMBL16108576

> <PUBCHEM_SUBSTANCE_COMMENT>
InChI=1S/C24H18F4N6O2/c1-13(32-21-16-9-10-29-20(16)30-12-31-21)22-33-18-4-2-3-17(25)19(18)23(35)34(22)14-5-7-15(8-6-14)36-11-24(26,27)28/h2-10,12-13H,11H2,1H3,(H2,29,30,31,32)/t13-/m0/s1
InChIKey=RUXOADZYGRHFHG-ZDUSSCGKSA-N

> <PUBCHEM_SUBSTANCE_SYNONYM>
SCHEMBL16108576

> <PUBCHEM_XREF_EXT_ID>
SCHEMBL16108576

> <PUBCHEM_EXT_DATASOURCE_URL>
https://www.surechembl.org/

> <PUBCHEM_EXT_SUBSTANCE_URL>
https://www.surechembl.org/chemical/SCHEMBL16108576

> <PUBCHEM_CID_ASSOCIATIONS>
86272625  1

> <PUBCHEM_COORDINATE_TYPE>
1
3

> <PUBCHEM_BONDANNOTATIONS>
18  31  6

$$$$
