310938913
  -OEChem-07211613022D

 87 97  0     0  0  0  0  0  0999 V2000
   10.6721    3.8207    0.0000 S   0  0  0  0  0  0  0  0  0  0  0  0
    2.1481    5.2859    0.0000 S   0  0  0  0  0  0  0  0  0  0  0  0
   -3.0828   -3.1670    0.0000 S   0  0  0  0  0  0  0  0  0  0  0  0
   10.6721    4.6457    0.0000 O   0  0  0  0  0  0  0  0  0  0  0  0
   10.6721    2.9957    0.0000 O   0  0  0  0  0  0  0  0  0  0  0  0
   11.4971    3.8207    0.0000 O   0  0  0  0  0  0  0  0  0  0  0  0
    1.4337    5.6984    0.0000 O   0  0  0  0  0  0  0  0  0  0  0  0
    2.8626    4.8734    0.0000 O   0  0  0  0  0  0  0  0  0  0  0  0
    2.5606    6.0004    0.0000 O   0  0  0  0  0  0  0  0  0  0  0  0
   -5.0668   -1.5170    0.0000 O   0  0  0  0  0  0  0  0  0  0  0  0
   -3.8378   -6.0004    0.0000 O   0  0  0  0  0  0  0  0  0  0  0  0
   -2.7136    0.6880    0.0000 O   0  0  0  0  0  0  0  0  0  0  0  0
   -7.9247   -3.9920    0.0000 O   0  0  0  0  0  0  0  0  0  0  0  0
   -1.9991    1.9255    0.0000 O   0  0  0  0  0  0  0  0  0  0  0  0
    8.0575    1.0642    0.0000 N   0  3  0  0  0  0  0  0  0  0  0  0
    2.2877    1.1005    0.0000 N   0  0  0  0  0  0  0  0  0  0  0  0
  -10.0681   -3.5795    0.0000 N   0  0  0  0  0  0  0  0  0  0  0  0
    8.1971    2.3917    0.0000 C   0  0  0  0  0  0  0  0  0  0  0  0
    7.3901    2.2202    0.0000 C   0  0  0  0  0  0  0  0  0  0  0  0
    8.6096    1.6773    0.0000 C   0  0  0  0  0  0  0  0  0  0  0  0
    7.3038    1.3997    0.0000 C   0  0  0  0  0  0  0  0  0  0  0  0
    8.6096    3.1062    0.0000 C   0  0  0  0  0  0  0  0  0  0  0  0
    2.1481    2.4281    0.0000 C   0  0  0  0  0  0  0  0  0  0  0  0
    2.9551    2.2565    0.0000 C   0  0  0  0  0  0  0  0  0  0  0  0
    1.7356    1.7136    0.0000 C   0  0  0  0  0  0  0  0  0  0  0  0
    9.4346    3.1062    0.0000 C   0  0  0  0  0  0  0  0  0  0  0  0
    3.0414    1.4361    0.0000 C   0  0  0  0  0  0  0  0  0  0  0  0
    1.7356    3.1425    0.0000 C   0  0  0  0  0  0  0  0  0  0  0  0
    9.8471    3.8207    0.0000 C   0  0  0  0  0  0  0  0  0  0  0  0
    9.4346    1.6773    0.0000 C   0  0  0  0  0  0  0  0  0  0  0  0
    0.9106    3.1425    0.0000 C   0  0  0  0  0  0  0  0  0  0  0  0
    9.8471    2.3917    0.0000 C   0  0  0  0  0  0  0  0  0  0  0  0
    8.1971    3.8207    0.0000 C   0  0  0  0  0  0  0  0  0  0  0  0
    0.9106    1.7136    0.0000 C   0  0  0  0  0  0  0  0  0  0  0  0
    6.5894    0.9872    0.0000 C   0  0  0  0  0  0  0  0  0  0  0  0
    6.9776    2.9347    0.0000 C   0  0  0  0  0  0  0  0  0  0  0  0
    6.5651    2.2202    0.0000 C   0  0  0  0  0  0  0  0  0  0  0  0
    8.4700    0.3497    0.0000 C   0  0  0  0  0  0  0  0  0  0  0  0
    2.1481    3.8570    0.0000 C   0  0  0  0  0  0  0  0  0  0  0  0
    8.6096    4.5351    0.0000 C   0  0  0  0  0  0  0  0  0  0  0  0
    3.7315    0.9872    0.0000 C   0  0  0  0  0  0  0  0  0  0  0  0
    9.4346    4.5351    0.0000 C   0  0  0  0  0  0  0  0  0  0  0  0
    0.4981    2.4281    0.0000 C   0  0  0  0  0  0  0  0  0  0  0  0
    3.3676    2.9710    0.0000 C   0  0  0  0  0  0  0  0  0  0  0  0
    3.7801    2.2565    0.0000 C   0  0  0  0  0  0  0  0  0  0  0  0
    1.5732    0.6880    0.0000 C   0  0  0  0  0  0  0  0  0  0  0  0
    1.7356    4.5715    0.0000 C   0  0  0  0  0  0  0  0  0  0  0  0
    0.4981    3.8570    0.0000 C   0  0  0  0  0  0  0  0  0  0  0  0
    5.8749    1.3997    0.0000 C   0  0  0  0  0  0  0  0  0  0  0  0
    0.9106    4.5715    0.0000 C   0  0  0  0  0  0  0  0  0  0  0  0
    4.4460    1.3997    0.0000 C   0  0  0  0  0  0  0  0  0  0  0  0
    5.1604    0.9872    0.0000 C   0  0  0  0  0  0  0  0  0  0  0  0
    0.8587    1.1005    0.0000 C   0  0  0  0  0  0  0  0  0  0  0  0
    9.2950    0.3497    0.0000 C   0  0  0  0  0  0  0  0  0  0  0  0
    8.1971    5.2496    0.0000 C   0  0  0  0  0  0  0  0  0  0  0  0
   -4.3523   -2.7545    0.0000 C   0  0  0  0  0  0  0  0  0  0  0  0
   -4.3523   -3.5795    0.0000 C   0  0  0  0  0  0  0  0  0  0  0  0
   -3.5677   -2.4996    0.0000 C   0  0  0  0  0  0  0  0  0  0  0  0
   -3.5677   -3.8344    0.0000 C   0  0  0  0  0  0  0  0  0  0  0  0
   -5.0668   -2.3420    0.0000 C   0  0  0  0  0  0  0  0  0  0  0  0
   -3.3542   -1.7027    0.0000 C   0  0  0  0  0  0  0  0  0  0  0  0
    0.1443    0.6880    0.0000 C   0  0  0  0  0  0  0  0  0  0  0  0
   -4.9654   -4.1315    0.0000 C   0  0  0  0  0  0  0  0  0  0  0  0
   -3.3962   -4.6414    0.0000 C   0  0  0  0  0  0  0  0  0  0  0  0
   -5.7813   -2.7545    0.0000 C   0  0  0  0  0  0  0  0  0  0  0  0
   -4.0093   -5.1934    0.0000 C   0  0  0  0  0  0  0  0  0  0  0  0
   -4.7939   -4.9385    0.0000 C   0  0  0  0  0  0  0  0  0  0  0  0
   -2.5573   -1.4891    0.0000 C   0  0  0  0  0  0  0  0  0  0  0  0
   -3.9376   -1.1193    0.0000 C   0  0  0  0  0  0  0  0  0  0  0  0
   -0.5702    1.1005    0.0000 C   0  0  0  0  0  0  0  0  0  0  0  0
   -5.7813   -3.5795    0.0000 C   0  0  0  0  0  0  0  0  0  0  0  0
   -6.4958   -2.3420    0.0000 C   0  0  0  0  0  0  0  0  0  0  0  0
   -2.9271   -0.1089    0.0000 C   0  0  0  0  0  0  0  0  0  0  0  0
   -2.3438   -0.6923    0.0000 C   0  0  0  0  0  0  0  0  0  0  0  0
   -3.7240   -0.3224    0.0000 C   0  0  0  0  0  0  0  0  0  0  0  0
   -1.2847    0.6880    0.0000 C   0  0  0  0  0  0  0  0  0  0  0  0
   -6.4958   -3.9920    0.0000 C   0  0  0  0  0  0  0  0  0  0  0  0
   -7.2102   -2.7545    0.0000 C   0  0  0  0  0  0  0  0  0  0  0  0
   -7.2102   -3.5795    0.0000 C   0  0  0  0  0  0  0  0  0  0  0  0
   -1.9991    1.1005    0.0000 C   0  0  0  0  0  0  0  0  0  0  0  0
   -8.6392   -3.5795    0.0000 C   0  0  0  0  0  0  0  0  0  0  0  0
   -9.3536   -3.9920    0.0000 C   0  0  0  0  0  0  0  0  0  0  0  0
  -10.0681   -2.7545    0.0000 C   0  0  0  0  0  0  0  0  0  0  0  0
  -10.7826   -3.9920    0.0000 C   0  0  0  0  0  0  0  0  0  0  0  0
  -10.7826   -2.3420    0.0000 C   0  0  0  0  0  0  0  0  0  0  0  0
  -11.4971   -3.5795    0.0000 C   0  0  0  0  0  0  0  0  0  0  0  0
  -11.4971   -2.7545    0.0000 C   0  0  0  0  0  0  0  0  0  0  0  0
  1  4  2  0  0  0  0
  1  5  2  0  0  0  0
  1  6  1  0  0  0  0
  1 29  1  0  0  0  0
  2  7  2  0  0  0  0
  2  8  2  0  0  0  0
  2  9  1  0  0  0  0
  2 47  1  0  0  0  0
  3 58  1  0  0  0  0
  3 59  1  0  0  0  0
 10 60  2  0  0  0  0
 11 66  1  0  0  0  0
 12 73  1  0  0  0  0
 12 80  1  0  0  0  0
 13 79  1  0  0  0  0
 13 81  1  0  0  0  0
 14 80  2  0  0  0  0
 15 20  1  0  0  0  0
 15 21  2  0  0  0  0
 15 38  1  0  0  0  0
 16 25  1  0  0  0  0
 16 27  1  0  0  0  0
 16 46  1  0  0  0  0
 17 82  1  0  0  0  0
 17 83  1  0  0  0  0
 17 84  1  0  0  0  0
 18 19  1  0  0  0  0
 18 20  2  0  0  0  0
 18 22  1  0  0  0  0
 19 21  1  0  0  0  0
 19 36  1  0  0  0  0
 19 37  1  0  0  0  0
 20 30  1  0  0  0  0
 21 35  1  0  0  0  0
 22 26  1  0  0  0  0
 22 33  2  0  0  0  0
 23 24  1  0  0  0  0
 23 25  2  0  0  0  0
 23 28  1  0  0  0  0
 24 27  1  0  0  0  0
 24 44  1  0  0  0  0
 24 45  1  0  0  0  0
 25 34  1  0  0  0  0
 26 29  2  0  0  0  0
 26 32  1  0  0  0  0
 27 41  2  0  0  0  0
 28 31  2  0  0  0  0
 28 39  1  0  0  0  0
 29 42  1  0  0  0  0
 30 32  2  0  0  0  0
 31 43  1  0  0  0  0
 31 48  1  0  0  0  0
 33 40  1  0  0  0  0
 34 43  2  0  0  0  0
 35 49  2  0  0  0  0
 38 54  1  0  0  0  0
 39 47  2  0  0  0  0
 40 42  2  0  0  0  0
 40 55  1  0  0  0  0
 41 51  1  0  0  0  0
 46 53  1  0  0  0  0
 47 50  1  0  0  0  0
 48 50  2  0  0  0  0
 49 52  1  0  0  0  0
 51 52  2  0  0  0  0
 53 62  1  0  0  0  0
 56 57  1  0  0  0  0
 56 58  2  0  0  0  0
 56 60  1  0  0  0  0
 57 59  2  0  0  0  0
 57 63  1  0  0  0  0
 58 61  1  0  0  0  0
 59 64  1  0  0  0  0
 60 65  1  0  0  0  0
 61 68  2  0  0  0  0
 61 69  1  0  0  0  0
 62 70  1  0  0  0  0
 63 67  2  0  0  0  0
 64 66  2  0  0  0  0
 65 71  2  0  0  0  0
 65 72  1  0  0  0  0
 66 67  1  0  0  0  0
 68 74  1  0  0  0  0
 69 75  2  0  0  0  0
 70 76  1  0  0  0  0
 71 77  1  0  0  0  0
 72 78  2  0  0  0  0
 73 74  2  0  0  0  0
 73 75  1  0  0  0  0
 76 80  1  0  0  0  0
 77 79  2  0  0  0  0
 78 79  1  0  0  0  0
 81 82  1  0  0  0  0
 83 85  1  0  0  0  0
 84 86  1  0  0  0  0
 85 87  1  0  0  0  0
 86 87  1  0  0  0  0
M  CHG  1  15   1
M  END
> <PUBCHEM_COMPOUND_ID_TYPE>
0

> <PUBCHEM_TOTAL_CHARGE>
1

> <PUBCHEM_SUBSTANCE_ID>
310938913

> <PUBCHEM_SUBSTANCE_VERSION>
1

> <PUBCHEM_EXT_DATASOURCE_NAME>
4488

> <PUBCHEM_EXT_DATASOURCE_REGID>
SCHEMBL16116832

> <PUBCHEM_SUBSTANCE_COMMENT>
InChI=1S/C70H71N3O11S3/c1-7-72-57-35-33-53-56(41-45(2)42-60(53)87(80,81)82)66(57)69(3,4)61(72)17-11-8-12-18-62-70(5,6)65-55-44-52(86(77,78)79)31-24-46(55)25-34-58(65)73(62)38-16-9-13-19-63(75)84-51-29-22-48(23-30-51)68-64(54-32-26-49(74)43-59(54)85-68)67(76)47-20-27-50(28-21-47)83-40-39-71-36-14-10-15-37-71/h8,11-12,17-18,20-35,41-44H,7,9-10,13-16,19,36-40H2,1-6H3,(H2-,74,77,78,79,80,81,82)/p+1
InChIKey=RCQILHIZELOSNA-UHFFFAOYSA-O

> <PUBCHEM_SUBSTANCE_SYNONYM>
SCHEMBL16116832

> <PUBCHEM_XREF_EXT_ID>
SCHEMBL16116832

> <PUBCHEM_EXT_DATASOURCE_URL>
https://www.surechembl.org/

> <PUBCHEM_EXT_SUBSTANCE_URL>
https://www.surechembl.org/chemical/SCHEMBL16116832

> <PUBCHEM_CID_ASSOCIATIONS>
117606310  1

> <PUBCHEM_COORDINATE_TYPE>
1
3

$$$$
