310945743
  -OEChem-07211613022D

 35 39  0     1  0  0  0  0  0999 V2000
   -0.9218    1.2834    0.0000 F   0  0  0  0  0  0  0  0  0  0  0  0
   -1.2251    2.3569    0.0000 F   0  0  0  0  0  0  0  0  0  0  0  0
   -0.1283    2.6369    0.0000 F   0  0  0  0  0  0  0  0  0  0  0  0
   -2.7419   -2.5669    0.0000 O   0  0  0  0  0  0  0  0  0  0  0  0
    2.2752    0.1167    0.0000 O   0  0  0  0  0  0  0  0  0  0  0  0
   -1.9951   -1.3301    0.0000 N   0  0  0  0  0  0  0  0  0  0  0  0
   -0.4783   -2.2869    0.0000 N   0  0  0  0  0  0  0  0  0  0  0  0
   -1.2718   -3.3836    0.0000 N   0  0  0  0  0  0  0  0  0  0  0  0
   -0.4783   -3.6169    0.0000 N   0  0  0  0  0  0  0  0  0  0  0  0
    1.0617   -0.7234    0.0000 N   0  0  0  0  0  0  0  0  0  0  0  0
    2.3918   -1.2834    0.0000 N   0  0  0  0  0  0  0  0  0  0  0  0
   -1.5751   -0.0700    0.0000 C   0  0  3  0  0  0  0  0  0  0  0  0
   -2.3918   -0.0467    0.0000 C   0  0  3  0  0  0  0  0  0  0  0  0
   -1.2718   -2.5669    0.0000 C   0  0  0  0  0  0  0  0  0  0  0  0
   -1.9951   -2.1235    0.0000 C   0  0  0  0  0  0  0  0  0  0  0  0
   -1.9951    1.1901    0.0000 C   0  0  0  0  0  0  0  0  0  0  0  0
   -1.2951   -0.8634    0.0000 C   0  0  0  0  0  0  0  0  0  0  0  0
   -2.6486   -0.8634    0.0000 C   0  0  0  0  0  0  0  0  0  0  0  0
    0.0117   -2.9402    0.0000 C   0  0  0  0  0  0  0  0  0  0  0  0
   -1.9951    2.0301    0.0000 C   0  0  0  0  0  0  0  0  0  0  0  0
   -1.3185    0.6767    0.0000 C   0  0  0  0  0  0  0  0  0  0  0  0
   -2.6486    0.7000    0.0000 C   0  0  0  0  0  0  0  0  0  0  0  0
   -1.2718    2.4269    0.0000 C   0  0  0  0  0  0  0  0  0  0  0  0
   -0.1283   -1.5401    0.0000 C   0  0  0  0  0  0  0  0  0  0  0  0
    0.6883   -1.4701    0.0000 C   0  0  0  0  0  0  0  0  0  0  0  0
   -0.5250    1.9834    0.0000 C   0  0  0  0  0  0  0  0  0  0  0  0
    0.8751   -2.8469    0.0000 C   0  0  0  0  0  0  0  0  0  0  0  0
   -2.6952    2.4269    0.0000 C   0  0  0  0  0  0  0  0  0  0  0  0
    1.2018   -2.1235    0.0000 C   0  0  0  0  0  0  0  0  0  0  0  0
   -1.2485    3.2202    0.0000 C   0  0  0  0  0  0  0  0  0  0  0  0
   -2.6952    3.2202    0.0000 C   0  0  0  0  0  0  0  0  0  0  0  0
   -1.9718    3.6169    0.0000 C   0  0  0  0  0  0  0  0  0  0  0  0
    1.9018   -0.6767    0.0000 C   0  0  0  0  0  0  0  0  0  0  0  0
    3.2552   -1.1901    0.0000 C   0  0  0  0  0  0  0  0  0  0  0  0
    2.0651   -2.0535    0.0000 C   0  0  0  0  0  0  0  0  0  0  0  0
  1 26  1  0  0  0  0
  2 26  1  0  0  0  0
  3 26  1  0  0  0  0
  4 15  2  0  0  0  0
  5 33  2  0  0  0  0
  6 15  1  0  0  0  0
  6 17  1  0  0  0  0
  6 18  1  0  0  0  0
  7 14  1  0  0  0  0
  7 19  1  0  0  0  0
  7 24  1  0  0  0  0
  8  9  1  0  0  0  0
  8 14  2  0  0  0  0
  9 19  2  0  0  0  0
 10 25  1  0  0  0  0
 10 33  1  0  0  0  0
 11 33  1  0  0  0  0
 11 34  1  0  0  0  0
 11 35  1  0  0  0  0
 12 13  1  0  0  0  0
 12 17  1  0  0  0  0
 12 21  1  1  0  0  0
 13 18  1  0  0  0  0
 13 22  1  1  0  0  0
 14 15  1  0  0  0  0
 16 20  1  0  0  0  0
 16 21  1  1  0  0  0
 16 22  1  0  0  0  0
 19 27  1  0  0  0  0
 20 23  2  0  0  0  0
 20 28  1  0  0  0  0
 23 26  1  0  0  0  0
 23 30  1  0  0  0  0
 24 25  2  0  0  0  0
 25 29  1  0  0  0  0
 27 29  2  0  0  0  0
 28 31  2  0  0  0  0
 30 32  2  0  0  0  0
 31 32  1  0  0  0  0
M  END
> <PUBCHEM_COMPOUND_ID_TYPE>
0

> <PUBCHEM_TOTAL_CHARGE>
0

> <PUBCHEM_SUBSTANCE_ID>
310945743

> <PUBCHEM_SUBSTANCE_VERSION>
1

> <PUBCHEM_EXT_DATASOURCE_NAME>
4488

> <PUBCHEM_EXT_DATASOURCE_REGID>
SCHEMBL16123847

> <PUBCHEM_SUBSTANCE_COMMENT>
InChI=1S/C24H25F3N6O2/c1-31(2)23(35)28-17-7-8-20-29-30-21(33(20)13-17)22(34)32-11-15-9-14(10-16(15)12-32)18-5-3-4-6-19(18)24(25,26)27/h3-8,13-16H,9-12H2,1-2H3,(H,28,35)/t14-,15-,16+
InChIKey=AJHSATJHQYIITK-PHZGNYQRSA-N

> <PUBCHEM_SUBSTANCE_SYNONYM>
SCHEMBL16123847

> <PUBCHEM_XREF_EXT_ID>
SCHEMBL16123847

> <PUBCHEM_EXT_DATASOURCE_URL>
https://www.surechembl.org/

> <PUBCHEM_EXT_SUBSTANCE_URL>
https://www.surechembl.org/chemical/SCHEMBL16123847

> <PUBCHEM_CID_ASSOCIATIONS>
86303671  1

> <PUBCHEM_COORDINATE_TYPE>
1
3

> <PUBCHEM_BONDANNOTATIONS>
12  21  5
13  22  5
16  21  5

$$$$
