310944450
  -OEChem-07211613022D

 23 25  0     0  0  0  0  0  0999 V2000
   -0.0072    1.8294    0.0000 F   0  0  0  0  0  0  0  0  0  0  0  0
    2.1705    1.3502    0.0000 N   0  0  0  0  0  0  0  0  0  0  0  0
   -0.0218   -2.2358    0.0000 N   0  0  0  0  0  0  0  0  0  0  0  0
    0.7041   -0.1742    0.0000 C   0  0  0  0  0  0  0  0  0  0  0  0
    0.7187    0.6243    0.0000 C   0  0  0  0  0  0  0  0  0  0  0  0
   -0.7332    0.6243    0.0000 C   0  0  0  0  0  0  0  0  0  0  0  0
   -0.0072    1.0308    0.0000 C   0  0  0  0  0  0  0  0  0  0  0  0
   -0.0072   -0.5808    0.0000 C   0  0  0  0  0  0  0  0  0  0  0  0
    1.4446   -0.5952    0.0000 C   0  0  0  0  0  0  0  0  0  0  0  0
   -0.7332   -0.1742    0.0000 C   0  0  0  0  0  0  0  0  0  0  0  0
   -1.4446    1.0453    0.0000 C   0  0  0  0  0  0  0  0  0  0  0  0
    1.4446    1.0018    0.0000 C   0  0  0  0  0  0  0  0  0  0  0  0
   -0.0218   -1.4228    0.0000 C   0  0  0  0  0  0  0  0  0  0  0  0
    1.4592   -1.3938    0.0000 C   0  0  0  0  0  0  0  0  0  0  0  0
    2.1851   -0.2032    0.0000 C   0  0  0  0  0  0  0  0  0  0  0  0
   -1.4592    1.8438    0.0000 C   0  0  0  0  0  0  0  0  0  0  0  0
   -2.1705    0.6533    0.0000 C   0  0  0  0  0  0  0  0  0  0  0  0
    2.1996   -1.8003    0.0000 C   0  0  0  0  0  0  0  0  0  0  0  0
    2.8964   -0.6098    0.0000 C   0  0  0  0  0  0  0  0  0  0  0  0
   -2.1851    2.2358    0.0000 C   0  0  0  0  0  0  0  0  0  0  0  0
   -2.8964    1.0453    0.0000 C   0  0  0  0  0  0  0  0  0  0  0  0
    2.8819   -1.4374    0.0000 C   0  0  0  0  0  0  0  0  0  0  0  0
   -2.8819    1.8438    0.0000 C   0  0  0  0  0  0  0  0  0  0  0  0
  1  7  1  0  0  0  0
  2 12  3  0  0  0  0
  3 13  3  0  0  0  0
  4  5  1  0  0  0  0
  4  8  2  0  0  0  0
  4  9  1  0  0  0  0
  5  7  2  0  0  0  0
  5 12  1  0  0  0  0
  6  7  1  0  0  0  0
  6 10  2  0  0  0  0
  6 11  1  0  0  0  0
  8 10  1  0  0  0  0
  8 13  1  0  0  0  0
  9 14  2  0  0  0  0
  9 15  1  0  0  0  0
 11 16  2  0  0  0  0
 11 17  1  0  0  0  0
 14 18  1  0  0  0  0
 15 19  2  0  0  0  0
 16 20  1  0  0  0  0
 17 21  2  0  0  0  0
 18 22  2  0  0  0  0
 19 22  1  0  0  0  0
 20 23  2  0  0  0  0
 21 23  1  0  0  0  0
M  END
> <PUBCHEM_COMPOUND_ID_TYPE>
0

> <PUBCHEM_TOTAL_CHARGE>
0

> <PUBCHEM_SUBSTANCE_ID>
310944450

> <PUBCHEM_SUBSTANCE_VERSION>
1

> <PUBCHEM_EXT_DATASOURCE_NAME>
4488

> <PUBCHEM_EXT_DATASOURCE_REGID>
SCHEMBL16122525

> <PUBCHEM_SUBSTANCE_COMMENT>
InChI=1S/C20H11FN2/c21-20-17(14-7-3-1-4-8-14)11-16(12-22)19(18(20)13-23)15-9-5-2-6-10-15/h1-11H
InChIKey=LPUWXYSJQSZGNY-UHFFFAOYSA-N

> <PUBCHEM_SUBSTANCE_SYNONYM>
SCHEMBL16122525

> <PUBCHEM_XREF_EXT_ID>
SCHEMBL16122525

> <PUBCHEM_EXT_DATASOURCE_URL>
https://www.surechembl.org/

> <PUBCHEM_EXT_SUBSTANCE_URL>
https://www.surechembl.org/chemical/SCHEMBL16122525

> <PUBCHEM_CID_ASSOCIATIONS>
117610704  1

> <PUBCHEM_COORDINATE_TYPE>
1
3

$$$$
