310935041
  -OEChem-07211613022D

 12 12  0     0  0  0  0  0  0999 V2000
    2.1541   -0.8249    0.0000 F   0  0  0  0  0  0  0  0  0  0  0  0
    0.7104    0.0000    0.0000 F   0  0  0  0  0  0  0  0  0  0  0  0
    1.4437   -4.5831    0.0000 N   0  0  0  0  0  0  0  0  0  0  0  0
    1.4207   -2.0853    0.0000 C   0  0  0  0  0  0  0  0  0  0  0  0
    1.4207   -1.2603    0.0000 C   0  0  0  0  0  0  0  0  0  0  0  0
    0.7104   -2.4978    0.0000 C   0  0  0  0  0  0  0  0  0  0  0  0
    0.7104   -0.8249    0.0000 C   0  0  0  0  0  0  0  0  0  0  0  0
    0.0000   -2.0853    0.0000 C   0  0  0  0  0  0  0  0  0  0  0  0
    0.0000   -1.2603    0.0000 C   0  0  0  0  0  0  0  0  0  0  0  0
    0.7104   -3.3228    0.0000 C   0  0  0  0  0  0  0  0  0  0  0  0
    2.1541   -2.4978    0.0000 C   0  0  0  0  0  0  0  0  0  0  0  0
    1.4437   -3.7582    0.0000 C   0  0  0  0  0  0  0  0  0  0  0  0
  1  5  1  0  0  0  0
  2  7  1  0  0  0  0
  3 12  3  0  0  0  0
  4  5  2  0  0  0  0
  4  6  1  0  0  0  0
  4 11  1  0  0  0  0
  5  7  1  0  0  0  0
  6  8  2  0  0  0  0
  6 10  1  0  0  0  0
  7  9  2  0  0  0  0
  8  9  1  0  0  0  0
 10 12  1  0  0  0  0
M  END
> <PUBCHEM_COMPOUND_ID_TYPE>
0

> <PUBCHEM_TOTAL_CHARGE>
0

> <PUBCHEM_SUBSTANCE_ID>
310935041

> <PUBCHEM_SUBSTANCE_VERSION>
1

> <PUBCHEM_EXT_DATASOURCE_NAME>
4488

> <PUBCHEM_EXT_DATASOURCE_REGID>
SCHEMBL16112560

> <PUBCHEM_SUBSTANCE_COMMENT>
InChI=1S/C9H7F2N/c1-6-7(4-5-12)2-3-8(10)9(6)11/h2-3H,4H2,1H3
InChIKey=APVWYBIKAMBEOP-UHFFFAOYSA-N

> <PUBCHEM_SUBSTANCE_SYNONYM>
SCHEMBL16112560

> <PUBCHEM_XREF_EXT_ID>
SCHEMBL16112560

> <PUBCHEM_EXT_DATASOURCE_URL>
https://www.surechembl.org/

> <PUBCHEM_EXT_SUBSTANCE_URL>
https://www.surechembl.org/chemical/SCHEMBL16112560

> <PUBCHEM_CID_ASSOCIATIONS>
55266545  1

> <PUBCHEM_COORDINATE_TYPE>
1
3

$$$$
