310943037
  -OEChem-07211613022D

 28 31  0     1  0  0  0  0  0999 V2000
   -1.5623   -3.3230    0.0000 Cl  0  0  0  0  0  0  0  0  0  0  0  0
    0.3569   -3.3230    0.0000 S   0  0  0  0  0  0  0  0  0  0  0  0
   -1.3878   -0.7376    0.0000 O   0  0  0  0  0  0  0  0  0  0  0  0
   -0.1348    3.8147    0.0000 O   0  0  0  0  0  0  0  0  0  0  0  0
    0.0079    1.6416    0.0000 N   0  0  0  0  0  0  0  0  0  0  0  0
    0.5155    1.0072    0.0000 N   0  0  0  0  0  0  0  0  0  0  0  0
    0.3569   -0.4521    0.0000 N   0  0  0  0  0  0  0  0  0  0  0  0
   -2.1651    0.4679    0.0000 N   0  0  0  0  0  0  0  0  0  0  0  0
    2.1810    1.4830    0.0000 N   0  0  0  0  0  0  0  0  0  0  0  0
   -0.7376    0.5314    0.0000 C   0  0  0  0  0  0  0  0  0  0  0  0
   -0.7535    1.3562    0.0000 C   0  0  0  0  0  0  0  0  0  0  0  0
    0.0714    0.3093    0.0000 C   0  0  0  0  0  0  0  0  0  0  0  0
    0.2459    2.4664    0.0000 C   0  0  3  0  0  0  0  0  0  0  0  0
   -1.4195    0.1031    0.0000 C   0  0  0  0  0  0  0  0  0  0  0  0
   -1.5148    1.7368    0.0000 C   0  0  0  0  0  0  0  0  0  0  0  0
    1.0230    2.6409    0.0000 C   0  0  3  0  0  0  0  0  0  0  0  0
   -0.0714   -1.1658    0.0000 C   0  0  0  0  0  0  0  0  0  0  0  0
   -0.3569    3.0374    0.0000 C   0  0  0  0  0  0  0  0  0  0  0  0
   -2.1810    1.3086    0.0000 C   0  0  0  0  0  0  0  0  0  0  0  0
    1.2451    3.4498    0.0000 C   0  0  0  0  0  0  0  0  0  0  0  0
    0.3569   -1.8796    0.0000 C   0  0  0  0  0  0  0  0  0  0  0  0
   -0.0555   -2.5933    0.0000 C   0  0  0  0  0  0  0  0  0  0  0  0
   -0.8802   -1.1817    0.0000 C   0  0  0  0  0  0  0  0  0  0  0  0
    1.6099    2.0541    0.0000 C   0  0  0  0  0  0  0  0  0  0  0  0
   -0.8802   -2.5774    0.0000 C   0  0  0  0  0  0  0  0  0  0  0  0
    0.6582    4.0366    0.0000 C   0  0  0  0  0  0  0  0  0  0  0  0
   -1.2768   -1.8955    0.0000 C   0  0  0  0  0  0  0  0  0  0  0  0
   -0.0714   -4.0366    0.0000 C   0  0  0  0  0  0  0  0  0  0  0  0
  1 25  1  0  0  0  0
  2 22  1  0  0  0  0
  2 28  1  0  0  0  0
  3 14  2  0  0  0  0
  4 18  1  0  0  0  0
  4 26  1  0  0  0  0
  5  6  1  0  0  0  0
  5 11  1  0  0  0  0
 13  5  1  1  0  0  0
  6 12  2  0  0  0  0
  7 12  1  0  0  0  0
  7 17  1  0  0  0  0
  8 14  1  0  0  0  0
  8 19  1  0  0  0  0
  9 24  3  0  0  0  0
 10 11  2  0  0  0  0
 10 12  1  0  0  0  0
 10 14  1  0  0  0  0
 11 15  1  0  0  0  0
 13 16  1  0  0  0  0
 13 18  1  0  0  0  0
 15 19  2  0  0  0  0
 16 20  1  0  0  0  0
 16 24  1  6  0  0  0
 17 21  1  0  0  0  0
 17 23  2  0  0  0  0
 20 26  1  0  0  0  0
 21 22  2  0  0  0  0
 22 25  1  0  0  0  0
 23 27  1  0  0  0  0
 25 27  2  0  0  0  0
M  END
> <PUBCHEM_COMPOUND_ID_TYPE>
0

> <PUBCHEM_TOTAL_CHARGE>
0

> <PUBCHEM_SUBSTANCE_ID>
310943037

> <PUBCHEM_SUBSTANCE_VERSION>
1

> <PUBCHEM_EXT_DATASOURCE_NAME>
4488

> <PUBCHEM_EXT_DATASOURCE_REGID>
SCHEMBL16121096

> <PUBCHEM_SUBSTANCE_COMMENT>
InChI=1S/C19H18ClN5O2S/c1-28-16-8-12(2-3-13(16)20)23-18-17-14(4-6-22-19(17)26)25(24-18)15-10-27-7-5-11(15)9-21/h2-4,6,8,11,15H,5,7,10H2,1H3,(H,22,26)(H,23,24)/t11-,15+/m1/s1
InChIKey=UTDDCIOFDODNIH-ABAIWWIYSA-N

> <PUBCHEM_SUBSTANCE_SYNONYM>
SCHEMBL16121096

> <PUBCHEM_XREF_EXT_ID>
SCHEMBL16121096

> <PUBCHEM_EXT_DATASOURCE_URL>
https://www.surechembl.org/

> <PUBCHEM_EXT_SUBSTANCE_URL>
https://www.surechembl.org/chemical/SCHEMBL16121096

> <PUBCHEM_CID_ASSOCIATIONS>
117609482  1

> <PUBCHEM_COORDINATE_TYPE>
1
3

> <PUBCHEM_BONDANNOTATIONS>
16  24  6
13  5  5

$$$$
