310945167
  -OEChem-07211613022D

 14 13  0     0  0  0  0  0  0999 V2000
    0.0288    0.4035    0.0000 N   0  0  0  0  0  0  0  0  0  0  0  0
   -1.2393   -0.2652    0.0000 N   0  0  0  0  0  0  0  0  0  0  0  0
    1.2393   -0.3574    0.0000 N   0  0  0  0  0  0  0  0  0  0  0  0
   -0.2018    1.2105    0.0000 N   0  0  0  0  0  0  0  0  0  0  0  0
   -0.4208   -0.2536    0.0000 C   0  0  0  0  0  0  0  0  0  0  0  0
   -0.0404   -0.9799    0.0000 C   0  0  0  0  0  0  0  0  0  0  0  0
    0.8474    0.4150    0.0000 C   0  0  0  0  0  0  0  0  0  0  0  0
    0.7897   -1.0261    0.0000 C   0  0  0  0  0  0  0  0  0  0  0  0
    1.1240    1.1990    0.0000 C   0  0  0  0  0  0  0  0  0  0  0  0
   -0.4554   -1.7063    0.0000 C   0  0  0  0  0  0  0  0  0  0  0  0
    1.1125   -0.0577    0.0000 C   0  0  0  0  0  0  0  0  0  0  0  0
    1.1817   -1.6601    0.0000 C   0  0  0  0  0  0  0  0  0  0  0  0
    0.4669    1.7063    0.0000 C   0  0  0  0  0  0  0  0  0  0  0  0
   -0.0404    0.6917    0.0000 C   0  0  0  0  0  0  0  0  0  0  0  0
  1  5  1  0  0  0  0
  1  7  1  0  0  0  0
  2  5  1  0  0  0  0
  3  8  2  3  0  0  0
  4 13  2  0  0  0  0
  4 14  1  0  0  0  0
  5  6  2  0  0  0  0
  6  8  1  0  0  0  0
  6 10  1  0  0  0  0
  7  9  2  0  0  0  0
  7 11  1  0  0  0  0
  8 12  1  0  0  0  0
  9 13  1  0  0  0  0
M  END
> <PUBCHEM_COMPOUND_ID_TYPE>
0

> <PUBCHEM_TOTAL_CHARGE>
0

> <PUBCHEM_SUBSTANCE_ID>
310945167

> <PUBCHEM_SUBSTANCE_VERSION>
1

> <PUBCHEM_EXT_DATASOURCE_NAME>
4488

> <PUBCHEM_EXT_DATASOURCE_REGID>
SCHEMBL16123257

> <PUBCHEM_SUBSTANCE_COMMENT>
InChI=1S/C10H18N4/c1-7(5-6-13-4)14-10(12)8(2)9(3)11/h5-6,11,14H,12H2,1-4H3/b7-5-,10-8-,11-9?,13-6-
InChIKey=KMJMZFMIDWLBFE-KWDDFULHSA-N

> <PUBCHEM_SUBSTANCE_SYNONYM>
SCHEMBL16123257

> <PUBCHEM_XREF_EXT_ID>
SCHEMBL16123257

> <PUBCHEM_EXT_DATASOURCE_URL>
https://www.surechembl.org/

> <PUBCHEM_EXT_SUBSTANCE_URL>
https://www.surechembl.org/chemical/SCHEMBL16123257

> <PUBCHEM_CID_ASSOCIATIONS>
117611253  1

> <PUBCHEM_COORDINATE_TYPE>
1
3

$$$$
