310930312
  -OEChem-07211613022D

 34 38  0     0  0  0  0  0  0999 V2000
    6.5008   -3.0813    0.0000 S   0  0  0  0  0  0  0  0  0  0  0  0
    7.1772   -1.0522    0.0000 S   0  0  0  0  0  0  0  0  0  0  0  0
    2.2170   -7.3651    0.0000 S   0  0  0  0  0  0  0  0  0  0  0  0
   10.7846   -1.8412    0.0000 F   0  0  0  0  0  0  0  0  0  0  0  0
    5.7117   -2.6304    0.0000 O   0  0  0  0  0  0  0  0  0  0  0  0
    7.1772   -3.4947    0.0000 O   0  0  0  0  0  0  0  0  0  0  0  0
    3.9831   -7.4027    0.0000 O   0  0  0  0  0  0  0  0  0  0  0  0
    7.7409   -2.2922    0.0000 N   0  0  0  0  0  0  0  0  0  0  0  0
    3.9831   -5.9748    0.0000 N   0  0  0  0  0  0  0  0  0  0  0  0
    0.0000   -7.1020    0.0000 N   0  0  0  0  0  0  0  0  0  0  0  0
    6.9142   -2.3673    0.0000 C   0  0  0  0  0  0  0  0  0  0  0  0
    6.0875   -3.7953    0.0000 C   0  0  0  0  0  0  0  0  0  0  0  0
    7.9288   -1.5031    0.0000 C   0  0  0  0  0  0  0  0  0  0  0  0
    6.5759   -1.6158    0.0000 C   0  0  0  0  0  0  0  0  0  0  0  0
    8.6803   -1.1649    0.0000 C   0  0  0  0  0  0  0  0  0  0  0  0
    5.2232   -3.7953    0.0000 C   0  0  0  0  0  0  0  0  0  0  0  0
    6.4632   -4.5468    0.0000 C   0  0  0  0  0  0  0  0  0  0  0  0
    2.7431   -6.6887    0.0000 C   0  0  0  0  0  0  0  0  0  0  0  0
    1.4279   -7.1020    0.0000 C   0  0  0  0  0  0  0  0  0  0  0  0
    1.4279   -6.2378    0.0000 C   0  0  0  0  0  0  0  0  0  0  0  0
    5.2232   -5.2608    0.0000 C   0  0  0  0  0  0  0  0  0  0  0  0
    2.2170   -6.0123    0.0000 C   0  0  0  0  0  0  0  0  0  0  0  0
    4.8099   -4.5092    0.0000 C   0  0  0  0  0  0  0  0  0  0  0  0
    6.0499   -5.2232    0.0000 C   0  0  0  0  0  0  0  0  0  0  0  0
    3.5698   -6.6887    0.0000 C   0  0  0  0  0  0  0  0  0  0  0  0
    9.3567   -1.6534    0.0000 C   0  0  0  0  0  0  0  0  0  0  0  0
    8.7930   -0.3382    0.0000 C   0  0  0  0  0  0  0  0  0  0  0  0
    4.8099   -5.9748    0.0000 C   0  0  0  0  0  0  0  0  0  0  0  0
    0.7140   -7.5154    0.0000 C   0  0  0  0  0  0  0  0  0  0  0  0
    0.7140   -5.8620    0.0000 C   0  0  0  0  0  0  0  0  0  0  0  0
   10.1082   -1.3152    0.0000 C   0  0  0  0  0  0  0  0  0  0  0  0
    9.5446    0.0000    0.0000 C   0  0  0  0  0  0  0  0  0  0  0  0
    0.0000   -6.2378    0.0000 C   0  0  0  0  0  0  0  0  0  0  0  0
   10.2210   -0.5261    0.0000 C   0  0  0  0  0  0  0  0  0  0  0  0
  1  5  2  0  0  0  0
  1  6  2  0  0  0  0
  1 11  1  0  0  0  0
  1 12  1  0  0  0  0
  2 13  1  0  0  0  0
  2 14  1  0  0  0  0
  3 18  1  0  0  0  0
  3 19  1  0  0  0  0
  4 31  1  0  0  0  0
  7 25  2  0  0  0  0
  8 11  1  0  0  0  0
  8 13  2  0  0  0  0
  9 25  1  0  0  0  0
  9 28  1  0  0  0  0
 10 29  1  0  0  0  0
 10 33  2  0  0  0  0
 11 14  2  0  0  0  0
 12 16  2  0  0  0  0
 12 17  1  0  0  0  0
 13 15  1  0  0  0  0
 15 26  1  0  0  0  0
 15 27  2  0  0  0  0
 16 23  1  0  0  0  0
 17 24  2  0  0  0  0
 18 22  2  0  0  0  0
 18 25  1  0  0  0  0
 19 20  1  0  0  0  0
 19 29  2  0  0  0  0
 20 22  1  0  0  0  0
 20 30  2  0  0  0  0
 21 23  2  0  0  0  0
 21 24  1  0  0  0  0
 21 28  1  0  0  0  0
 26 31  2  0  0  0  0
 27 32  1  0  0  0  0
 30 33  1  0  0  0  0
 31 34  1  0  0  0  0
 32 34  2  0  0  0  0
M  END
> <PUBCHEM_COMPOUND_ID_TYPE>
0

> <PUBCHEM_TOTAL_CHARGE>
0

> <PUBCHEM_SUBSTANCE_ID>
310930312

> <PUBCHEM_SUBSTANCE_VERSION>
1

> <PUBCHEM_EXT_DATASOURCE_NAME>
4488

> <PUBCHEM_EXT_DATASOURCE_REGID>
SCHEMBL16107593

> <PUBCHEM_SUBSTANCE_COMMENT>
InChI=1S/C24H16FN3O3S3/c25-18-3-1-2-17(10-18)24-28-22(14-32-24)34(30,31)19-6-4-15(5-7-19)12-27-23(29)20-11-16-8-9-26-13-21(16)33-20/h1-11,13-14H,12H2,(H,27,29)
InChIKey=JEGPVLMMSMAFQR-UHFFFAOYSA-N

> <PUBCHEM_SUBSTANCE_SYNONYM>
SCHEMBL16107593

> <PUBCHEM_XREF_EXT_ID>
SCHEMBL16107593

> <PUBCHEM_EXT_DATASOURCE_URL>
https://www.surechembl.org/

> <PUBCHEM_EXT_SUBSTANCE_URL>
https://www.surechembl.org/chemical/SCHEMBL16107593

> <PUBCHEM_CID_ASSOCIATIONS>
117599488  1

> <PUBCHEM_COORDINATE_TYPE>
1
3

$$$$
