310937955
  -OEChem-07211613022D

 14 14  0     0  0  0  0  0  0999 V2000
    0.0000   -4.9997    0.0000 Br  0  0  0  0  0  0  0  0  0  0  0  0
    1.4249    0.0000    0.0000 O   0  0  0  0  0  0  0  0  0  0  0  0
    2.1499   -1.2499    0.0000 O   0  0  0  0  0  0  0  0  0  0  0  0
    1.4249   -2.4998    0.0000 N   0  0  0  0  0  0  0  0  0  0  0  0
    0.7000   -2.0749    0.0000 N   0  0  0  0  0  0  0  0  0  0  0  0
    1.4249   -3.3248    0.0000 C   0  0  0  0  0  0  0  0  0  0  0  0
    0.7000   -1.2499    0.0000 C   0  0  0  0  0  0  0  0  0  0  0  0
    0.7249   -3.7498    0.0000 C   0  0  0  0  0  0  0  0  0  0  0  0
    0.7249   -4.5748    0.0000 C   0  0  0  0  0  0  0  0  0  0  0  0
    2.1499   -3.7498    0.0000 C   0  0  0  0  0  0  0  0  0  0  0  0
    1.4249   -0.8249    0.0000 C   0  0  0  0  0  0  0  0  0  0  0  0
    1.4249   -4.9997    0.0000 C   0  0  0  0  0  0  0  0  0  0  0  0
    2.1499   -4.5748    0.0000 C   0  0  0  0  0  0  0  0  0  0  0  0
    0.0000   -0.8249    0.0000 C   0  0  0  0  0  0  0  0  0  0  0  0
  1  9  1  0  0  0  0
  2 11  2  0  0  0  0
  3 11  1  0  0  0  0
  4  5  1  0  0  0  0
  4  6  1  0  0  0  0
  5  7  2  0  0  0  0
  6  8  1  0  0  0  0
  6 10  2  0  0  0  0
  7 11  1  0  0  0  0
  7 14  1  0  0  0  0
  8  9  2  0  0  0  0
  9 12  1  0  0  0  0
 10 13  1  0  0  0  0
 12 13  2  0  0  0  0
M  END
> <PUBCHEM_COMPOUND_ID_TYPE>
0

> <PUBCHEM_TOTAL_CHARGE>
0

> <PUBCHEM_SUBSTANCE_ID>
310937955

> <PUBCHEM_SUBSTANCE_VERSION>
1

> <PUBCHEM_EXT_DATASOURCE_NAME>
4488

> <PUBCHEM_EXT_DATASOURCE_REGID>
SCHEMBL16115787

> <PUBCHEM_SUBSTANCE_COMMENT>
InChI=1S/C9H9BrN2O2/c1-6(9(13)14)11-12-8-4-2-3-7(10)5-8/h2-5,12H,1H3,(H,13,14)/b11-6-
InChIKey=DYYKBAPDWAOEKJ-WDZFZDKYSA-N

> <PUBCHEM_SUBSTANCE_SYNONYM>
SCHEMBL16115787

> <PUBCHEM_XREF_EXT_ID>
SCHEMBL16115787

> <PUBCHEM_EXT_DATASOURCE_URL>
https://www.surechembl.org/

> <PUBCHEM_EXT_SUBSTANCE_URL>
https://www.surechembl.org/chemical/SCHEMBL16115787

> <PUBCHEM_CID_ASSOCIATIONS>
117605556  1

> <PUBCHEM_COORDINATE_TYPE>
1
3

$$$$
