310944362
  -OEChem-07211613022D

 48 54  0     0  0  0  0  0  0999 V2000
   -0.0344    3.1018    0.0000 F   0  0  0  0  0  0  0  0  0  0  0  0
   -0.0344   -0.2320    0.0000 N   0  0  0  0  0  0  0  0  0  0  0  0
   -2.1996    2.6206    0.0000 N   0  0  0  0  0  0  0  0  0  0  0  0
    2.1308    2.6206    0.0000 N   0  0  0  0  0  0  0  0  0  0  0  0
   -0.0172    0.6272    0.0000 C   0  0  0  0  0  0  0  0  0  0  0  0
    0.6874    1.0568    0.0000 C   0  0  0  0  0  0  0  0  0  0  0  0
   -0.7561    1.0568    0.0000 C   0  0  0  0  0  0  0  0  0  0  0  0
    0.7045    1.8988    0.0000 C   0  0  0  0  0  0  0  0  0  0  0  0
   -0.7389    1.8816    0.0000 C   0  0  0  0  0  0  0  0  0  0  0  0
   -0.0516    2.2941    0.0000 C   0  0  0  0  0  0  0  0  0  0  0  0
    1.5122    0.8163    0.0000 C   0  0  0  0  0  0  0  0  0  0  0  0
   -1.5809    0.8507    0.0000 C   0  0  0  0  0  0  0  0  0  0  0  0
    0.7045   -0.6272    0.0000 C   0  0  0  0  0  0  0  0  0  0  0  0
   -0.7733   -0.6444    0.0000 C   0  0  0  0  0  0  0  0  0  0  0  0
   -1.4951    2.2769    0.0000 C   0  0  0  0  0  0  0  0  0  0  0  0
    1.4091    2.2769    0.0000 C   0  0  0  0  0  0  0  0  0  0  0  0
    1.7356    0.0258    0.0000 C   0  0  0  0  0  0  0  0  0  0  0  0
    2.0964    1.4005    0.0000 C   0  0  0  0  0  0  0  0  0  0  0  0
   -2.1480    1.4177    0.0000 C   0  0  0  0  0  0  0  0  0  0  0  0
   -1.7872    0.0429    0.0000 C   0  0  0  0  0  0  0  0  0  0  0  0
    0.7217   -1.4520    0.0000 C   0  0  0  0  0  0  0  0  0  0  0  0
   -1.4779   -0.2148    0.0000 C   0  0  0  0  0  0  0  0  0  0  0  0
    1.4263   -0.2148    0.0000 C   0  0  0  0  0  0  0  0  0  0  0  0
   -0.7733   -1.4520    0.0000 C   0  0  0  0  0  0  0  0  0  0  0  0
    2.1308   -1.4349    0.0000 C   0  0  0  0  0  0  0  0  0  0  0  0
   -2.2168   -1.4520    0.0000 C   0  0  0  0  0  0  0  0  0  0  0  0
    1.4435   -1.8473    0.0000 C   0  0  0  0  0  0  0  0  0  0  0  0
   -2.1824   -0.6272    0.0000 C   0  0  0  0  0  0  0  0  0  0  0  0
    2.1480   -0.6272    0.0000 C   0  0  0  0  0  0  0  0  0  0  0  0
   -1.4779   -1.8473    0.0000 C   0  0  0  0  0  0  0  0  0  0  0  0
    2.5260   -0.1632    0.0000 C   0  0  0  0  0  0  0  0  0  0  0  0
    2.8870    1.1943    0.0000 C   0  0  0  0  0  0  0  0  0  0  0  0
   -2.9556    1.2115    0.0000 C   0  0  0  0  0  0  0  0  0  0  0  0
   -2.5948   -0.1632    0.0000 C   0  0  0  0  0  0  0  0  0  0  0  0
    2.8698   -1.8645    0.0000 C   0  0  0  0  0  0  0  0  0  0  0  0
   -2.9213   -1.8645    0.0000 C   0  0  0  0  0  0  0  0  0  0  0  0
    3.0931    0.3867    0.0000 C   0  0  0  0  0  0  0  0  0  0  0  0
   -3.1791    0.4039    0.0000 C   0  0  0  0  0  0  0  0  0  0  0  0
    2.8870   -2.7065    0.0000 C   0  0  0  0  0  0  0  0  0  0  0  0
   -3.6259   -1.4692    0.0000 C   0  0  0  0  0  0  0  0  0  0  0  0
    3.6259   -1.4692    0.0000 C   0  0  0  0  0  0  0  0  0  0  0  0
   -2.9385   -2.6893    0.0000 C   0  0  0  0  0  0  0  0  0  0  0  0
    3.6259   -3.1018    0.0000 C   0  0  0  0  0  0  0  0  0  0  0  0
   -4.3304   -1.8645    0.0000 C   0  0  0  0  0  0  0  0  0  0  0  0
    4.3304   -1.8816    0.0000 C   0  0  0  0  0  0  0  0  0  0  0  0
   -3.6431   -3.0846    0.0000 C   0  0  0  0  0  0  0  0  0  0  0  0
    4.3304   -2.7065    0.0000 C   0  0  0  0  0  0  0  0  0  0  0  0
   -4.3304   -2.6893    0.0000 C   0  0  0  0  0  0  0  0  0  0  0  0
  1 10  1  0  0  0  0
  2  5  1  0  0  0  0
  2 13  1  0  0  0  0
  2 14  1  0  0  0  0
  3 15  3  0  0  0  0
  4 16  3  0  0  0  0
  5  6  2  0  0  0  0
  5  7  1  0  0  0  0
  6  8  1  0  0  0  0
  6 11  1  0  0  0  0
  7  9  2  0  0  0  0
  7 12  1  0  0  0  0
  8 10  2  0  0  0  0
  8 16  1  0  0  0  0
  9 10  1  0  0  0  0
  9 15  1  0  0  0  0
 11 17  2  0  0  0  0
 11 18  1  0  0  0  0
 12 19  2  0  0  0  0
 12 20  1  0  0  0  0
 13 21  2  0  0  0  0
 13 23  1  0  0  0  0
 14 22  2  0  0  0  0
 14 24  1  0  0  0  0
 17 31  1  0  0  0  0
 18 32  2  0  0  0  0
 19 33  1  0  0  0  0
 20 34  2  0  0  0  0
 21 27  1  0  0  0  0
 22 28  1  0  0  0  0
 23 29  2  0  0  0  0
 24 30  2  0  0  0  0
 25 27  2  0  0  0  0
 25 29  1  0  0  0  0
 25 35  1  0  0  0  0
 26 28  2  0  0  0  0
 26 30  1  0  0  0  0
 26 36  1  0  0  0  0
 31 37  2  0  0  0  0
 32 37  1  0  0  0  0
 33 38  2  0  0  0  0
 34 38  1  0  0  0  0
 35 39  2  0  0  0  0
 35 41  1  0  0  0  0
 36 40  2  0  0  0  0
 36 42  1  0  0  0  0
 39 43  1  0  0  0  0
 40 44  1  0  0  0  0
 41 45  2  0  0  0  0
 42 46  2  0  0  0  0
 43 47  2  0  0  0  0
 44 48  2  0  0  0  0
 45 47  1  0  0  0  0
 46 48  1  0  0  0  0
M  END
> <PUBCHEM_COMPOUND_ID_TYPE>
0

> <PUBCHEM_TOTAL_CHARGE>
0

> <PUBCHEM_SUBSTANCE_ID>
310944362

> <PUBCHEM_SUBSTANCE_VERSION>
1

> <PUBCHEM_EXT_DATASOURCE_NAME>
4488

> <PUBCHEM_EXT_DATASOURCE_REGID>
SCHEMBL16122437

> <PUBCHEM_SUBSTANCE_COMMENT>
InChI=1S/C44H28FN3/c45-43-39(29-46)41(35-17-9-3-10-18-35)44(42(40(43)30-47)36-19-11-4-12-20-36)48(37-25-21-33(22-26-37)31-13-5-1-6-14-31)38-27-23-34(24-28-38)32-15-7-2-8-16-32/h1-28H
InChIKey=JGTMGCWFSVYEFH-UHFFFAOYSA-N

> <PUBCHEM_SUBSTANCE_SYNONYM>
SCHEMBL16122437

> <PUBCHEM_XREF_EXT_ID>
SCHEMBL16122437

> <PUBCHEM_EXT_DATASOURCE_URL>
https://www.surechembl.org/

> <PUBCHEM_EXT_SUBSTANCE_URL>
https://www.surechembl.org/chemical/SCHEMBL16122437

> <PUBCHEM_CID_ASSOCIATIONS>
117610619  1

> <PUBCHEM_COORDINATE_TYPE>
1
3

$$$$
