310948411
  -OEChem-07211613022D

 31 35  0     1  0  0  0  0  0999 V2000
   -1.4788   -3.1138    0.0000 Cl  0  0  0  0  0  0  0  0  0  0  0  0
   -0.3766   -1.8830    0.0000 F   0  0  0  0  0  0  0  0  0  0  0  0
   -3.5547    1.4421    0.0000 O   0  0  0  0  0  0  0  0  0  0  0  0
   -0.7991    1.3135    0.0000 N   0  0  0  0  0  0  0  0  0  0  0  0
   -1.1298    0.5603    0.0000 N   0  0  0  0  0  0  0  0  0  0  0  0
   -2.5075    0.0459    0.0000 N   0  0  0  0  0  0  0  0  0  0  0  0
   -2.8382    2.6913    0.0000 N   0  0  0  0  0  0  0  0  0  0  0  0
    2.4341    2.0115    0.0000 N   0  0  0  0  0  0  0  0  0  0  0  0
    0.0827   -0.6889    0.0000 N   0  0  0  0  0  0  0  0  0  0  0  0
   -1.4053    1.8646    0.0000 C   0  0  0  0  0  0  0  0  0  0  0  0
   -2.1218    1.4788    0.0000 C   0  0  0  0  0  0  0  0  0  0  0  0
   -1.9565    0.6705    0.0000 C   0  0  0  0  0  0  0  0  0  0  0  0
    0.0092    1.4971    0.0000 C   0  0  3  0  0  0  0  0  0  0  0  0
   -2.8382    1.8830    0.0000 C   0  0  0  0  0  0  0  0  0  0  0  0
    0.5419    0.8909    0.0000 C   0  0  3  0  0  0  0  0  0  0  0  0
   -1.4053    2.6913    0.0000 C   0  0  0  0  0  0  0  0  0  0  0  0
    0.2664    2.2687    0.0000 C   0  0  0  0  0  0  0  0  0  0  0  0
    1.6074    1.8462    0.0000 C   0  0  3  0  0  0  0  0  0  0  0  0
    1.3686    1.0563    0.0000 C   0  0  0  0  0  0  0  0  0  0  0  0
   -2.2503   -0.7256    0.0000 C   0  0  0  0  0  0  0  0  0  0  0  0
   -2.1218    3.1138    0.0000 C   0  0  0  0  0  0  0  0  0  0  0  0
    1.0746    2.4341    0.0000 C   0  0  0  0  0  0  0  0  0  0  0  0
    0.3031    0.0827    0.0000 C   0  0  0  0  0  0  0  0  0  0  0  0
   -1.4605   -0.9277    0.0000 C   0  0  0  0  0  0  0  0  0  0  0  0
   -2.7831   -1.3502    0.0000 C   0  0  0  0  0  0  0  0  0  0  0  0
   -1.2033   -1.6809    0.0000 C   0  0  0  0  0  0  0  0  0  0  0  0
    3.1322    1.5706    0.0000 C   0  0  0  0  0  0  0  0  0  0  0  0
    2.8750    2.6913    0.0000 C   0  0  0  0  0  0  0  0  0  0  0  0
   -1.7360   -2.3238    0.0000 C   0  0  0  0  0  0  0  0  0  0  0  0
   -2.5443   -2.1401    0.0000 C   0  0  0  0  0  0  0  0  0  0  0  0
    3.5547    2.2320    0.0000 C   0  0  0  0  0  0  0  0  0  0  0  0
  1 29  1  0  0  0  0
  2 26  1  0  0  0  0
  3 14  2  0  0  0  0
  4  5  1  0  0  0  0
  4 10  1  0  0  0  0
 13  4  1  1  0  0  0
  5 12  2  0  0  0  0
  6 12  1  0  0  0  0
  6 20  1  0  0  0  0
  7 14  1  0  0  0  0
  7 21  1  0  0  0  0
  8 18  1  0  0  0  0
  8 27  1  0  0  0  0
  8 28  1  0  0  0  0
  9 23  3  0  0  0  0
 10 11  2  0  0  0  0
 10 16  1  0  0  0  0
 11 12  1  0  0  0  0
 11 14  1  0  0  0  0
 13 15  1  0  0  0  0
 13 17  1  0  0  0  0
 15 19  1  0  0  0  0
 15 23  1  6  0  0  0
 16 21  2  0  0  0  0
 17 22  1  0  0  0  0
 18 19  1  6  0  0  0
 18 22  1  0  0  0  0
 20 24  1  0  0  0  0
 20 25  2  0  0  0  0
 24 26  2  0  0  0  0
 25 30  1  0  0  0  0
 26 29  1  0  0  0  0
 27 31  1  0  0  0  0
 28 31  1  0  0  0  0
 29 30  2  0  0  0  0
M  END
> <PUBCHEM_COMPOUND_ID_TYPE>
0

> <PUBCHEM_TOTAL_CHARGE>
0

> <PUBCHEM_SUBSTANCE_ID>
310948411

> <PUBCHEM_SUBSTANCE_VERSION>
1

> <PUBCHEM_EXT_DATASOURCE_NAME>
4488

> <PUBCHEM_EXT_DATASOURCE_REGID>
SCHEMBL16126592

> <PUBCHEM_SUBSTANCE_COMMENT>
InChI=1S/C22H22ClFN6O/c23-16-4-2-14(11-17(16)24)27-21-20-19(6-7-26-22(20)31)30(28-21)18-5-3-15(10-13(18)12-25)29-8-1-9-29/h2,4,6-7,11,13,15,18H,1,3,5,8-10H2,(H,26,31)(H,27,28)/t13-,15+,18+/m1/s1
InChIKey=KLQLXRUGQFMYPK-XUWXXGDYSA-N

> <PUBCHEM_SUBSTANCE_SYNONYM>
SCHEMBL16126592

> <PUBCHEM_XREF_EXT_ID>
SCHEMBL16126592

> <PUBCHEM_EXT_DATASOURCE_URL>
https://www.surechembl.org/

> <PUBCHEM_EXT_SUBSTANCE_URL>
https://www.surechembl.org/chemical/SCHEMBL16126592

> <PUBCHEM_CID_ASSOCIATIONS>
117613972  1

> <PUBCHEM_COORDINATE_TYPE>
1
3

> <PUBCHEM_BONDANNOTATIONS>
15  23  6
18  19  6
13  4  5

$$$$
