310945441
  -OEChem-07211613022D

 32 35  0     0  0  0  0  0  0999 V2000
   -1.6028    1.3446    0.0000 Cl  0  0  0  0  0  0  0  0  0  0  0  0
    0.3205    1.5940    0.0000 F   0  0  0  0  0  0  0  0  0  0  0  0
    1.1220    2.4666    0.0000 F   0  0  0  0  0  0  0  0  0  0  0  0
    1.9234    1.5940    0.0000 F   0  0  0  0  0  0  0  0  0  0  0  0
   -3.8646   -1.2556    0.0000 F   0  0  0  0  0  0  0  0  0  0  0  0
   -2.4933   -2.1460    0.0000 F   0  0  0  0  0  0  0  0  0  0  0  0
   -3.5797   -2.4666    0.0000 F   0  0  0  0  0  0  0  0  0  0  0  0
    3.1701    0.2582    0.0000 O   0  0  0  0  0  0  0  0  0  0  0  0
   -0.3384    0.5432    0.0000 N   0  0  0  0  0  0  0  0  0  0  0  0
   -0.3562   -0.8816    0.0000 N   0  0  0  0  0  0  0  0  0  0  0  0
    1.1042   -1.0596    0.0000 N   0  0  0  0  0  0  0  0  0  0  0  0
    1.7988    0.2582    0.0000 N   0  0  0  0  0  0  0  0  0  0  0  0
    0.4274    0.2404    0.0000 C   0  0  0  0  0  0  0  0  0  0  0  0
    0.3918   -0.6501    0.0000 C   0  0  0  0  0  0  0  0  0  0  0  0
    1.0864    0.6678    0.0000 C   0  0  0  0  0  0  0  0  0  0  0  0
   -0.8014   -0.2226    0.0000 C   0  0  0  0  0  0  0  0  0  0  0  0
    1.8165   -0.6322    0.0000 C   0  0  0  0  0  0  0  0  0  0  0  0
    1.1042    1.5583    0.0000 C   0  0  0  0  0  0  0  0  0  0  0  0
   -1.6028   -0.2048    0.0000 C   0  0  0  0  0  0  0  0  0  0  0  0
    2.4933   -1.0775    0.0000 C   0  0  0  0  0  0  0  0  0  0  0  0
   -2.0124    0.5432    0.0000 C   0  0  0  0  0  0  0  0  0  0  0  0
   -2.0124   -0.9706    0.0000 C   0  0  0  0  0  0  0  0  0  0  0  0
   -2.7961   -0.9528    0.0000 C   0  0  0  0  0  0  0  0  0  0  0  0
    3.1701   -0.6501    0.0000 C   0  0  0  0  0  0  0  0  0  0  0  0
   -3.1878   -1.7364    0.0000 C   0  0  0  0  0  0  0  0  0  0  0  0
   -2.7961    0.5432    0.0000 C   0  0  0  0  0  0  0  0  0  0  0  0
   -3.1701   -0.2404    0.0000 C   0  0  0  0  0  0  0  0  0  0  0  0
    2.4933   -1.9679    0.0000 C   0  0  0  0  0  0  0  0  0  0  0  0
    3.8646   -1.0952    0.0000 C   0  0  0  0  0  0  0  0  0  0  0  0
    3.2057   -2.3954    0.0000 C   0  0  0  0  0  0  0  0  0  0  0  0
    3.8468   -1.9857    0.0000 C   0  0  0  0  0  0  0  0  0  0  0  0
    3.8646    0.7035    0.0000 C   0  0  0  0  0  0  0  0  0  0  0  0
  1 21  1  0  0  0  0
  2 18  1  0  0  0  0
  3 18  1  0  0  0  0
  4 18  1  0  0  0  0
  5 25  1  0  0  0  0
  6 25  1  0  0  0  0
  7 25  1  0  0  0  0
  8 24  1  0  0  0  0
  8 32  1  0  0  0  0
  9 13  1  0  0  0  0
  9 16  2  0  0  0  0
 10 14  1  0  0  0  0
 10 16  1  0  0  0  0
 11 14  1  0  0  0  0
 11 17  2  0  0  0  0
 12 15  2  0  0  0  0
 12 17  1  0  0  0  0
 13 14  2  0  0  0  0
 13 15  1  0  0  0  0
 15 18  1  0  0  0  0
 16 19  1  0  0  0  0
 17 20  1  0  0  0  0
 19 21  2  0  0  0  0
 19 22  1  0  0  0  0
 20 24  1  0  0  0  0
 20 28  2  0  0  0  0
 21 26  1  0  0  0  0
 22 23  2  0  0  0  0
 23 25  1  0  0  0  0
 23 27  1  0  0  0  0
 24 29  2  0  0  0  0
 26 27  2  0  0  0  0
 28 30  1  0  0  0  0
 29 31  1  0  0  0  0
 30 31  2  0  0  0  0
M  END
> <PUBCHEM_COMPOUND_ID_TYPE>
0

> <PUBCHEM_TOTAL_CHARGE>
0

> <PUBCHEM_SUBSTANCE_ID>
310945441

> <PUBCHEM_SUBSTANCE_VERSION>
1

> <PUBCHEM_EXT_DATASOURCE_NAME>
4488

> <PUBCHEM_EXT_DATASOURCE_REGID>
SCHEMBL16123539

> <PUBCHEM_SUBSTANCE_COMMENT>
InChI=1S/C20H11ClF6N4O/c1-32-13-5-3-2-4-10(13)16-29-15(20(25,26)27)14-18(30-16)31-17(28-14)11-8-9(19(22,23)24)6-7-12(11)21/h2-8H,1H3,(H,28,29,30,31)
InChIKey=RIRSWPKMLHKFRR-UHFFFAOYSA-N

> <PUBCHEM_SUBSTANCE_SYNONYM>
SCHEMBL16123539

> <PUBCHEM_XREF_EXT_ID>
SCHEMBL16123539

> <PUBCHEM_EXT_DATASOURCE_URL>
https://www.surechembl.org/

> <PUBCHEM_EXT_SUBSTANCE_URL>
https://www.surechembl.org/chemical/SCHEMBL16123539

> <PUBCHEM_CID_ASSOCIATIONS>
117611486  1

> <PUBCHEM_COORDINATE_TYPE>
1
3

$$$$
