310943238
  -OEChem-07211613022D

 40 45  0     0  0  0  0  0  0999 V2000
   -3.2290    0.1317    0.0000 O   0  0  0  0  0  0  0  0  0  0  0  0
   -3.2466   -3.0448    0.0000 O   0  0  0  0  0  0  0  0  0  0  0  0
   -4.5979    2.6412    0.0000 O   0  0  0  0  0  0  0  0  0  0  0  0
    2.5446    2.3604    0.0000 O   0  0  0  0  0  0  0  0  0  0  0  0
    4.4399   -1.4829    0.0000 O   0  0  0  0  0  0  0  0  0  0  0  0
   -3.1940    1.7813    0.0000 N   0  0  0  0  0  0  0  0  0  0  0  0
   -1.8076    0.0965    0.0000 N   0  0  0  0  0  0  0  0  0  0  0  0
    0.4563    2.9044    0.0000 N   0  0  0  0  0  0  0  0  0  0  0  0
    1.7724    1.1670    0.0000 N   0  0  0  0  0  0  0  0  0  0  0  0
    3.9135    1.4478    0.0000 N   0  0  0  0  0  0  0  0  0  0  0  0
   -3.1764   -1.8514    0.0000 C   0  0  0  0  0  0  0  0  0  0  0  0
   -3.2466   -0.7108    0.0000 C   0  0  0  0  0  0  0  0  0  0  0  0
   -3.7555   -1.3074    0.0000 C   0  0  0  0  0  0  0  0  0  0  0  0
   -2.6499   -1.2723    0.0000 C   0  0  0  0  0  0  0  0  0  0  0  0
   -2.6499   -2.4657    0.0000 C   0  0  0  0  0  0  0  0  0  0  0  0
   -3.7731   -2.4481    0.0000 C   0  0  0  0  0  0  0  0  0  0  0  0
   -2.5095    0.5353    0.0000 C   0  0  0  0  0  0  0  0  0  0  0  0
   -2.4919    1.3600    0.0000 C   0  0  0  0  0  0  0  0  0  0  0  0
   -1.0705    1.3425    0.0000 C   0  0  0  0  0  0  0  0  0  0  0  0
   -0.3335    1.7110    0.0000 C   0  0  0  0  0  0  0  0  0  0  0  0
   -1.7724    1.7637    0.0000 C   0  0  0  0  0  0  0  0  0  0  0  0
   -1.1056    0.5001    0.0000 C   0  0  0  0  0  0  0  0  0  0  0  0
   -0.2632    2.5534    0.0000 C   0  0  0  0  0  0  0  0  0  0  0  0
    0.3685    1.2723    0.0000 C   0  0  0  0  0  0  0  0  0  0  0  0
    1.0705    1.6233    0.0000 C   0  0  0  0  0  0  0  0  0  0  0  0
   -3.1589    2.6060    0.0000 C   0  0  0  0  0  0  0  0  0  0  0  0
   -3.8784    1.3951    0.0000 C   0  0  0  0  0  0  0  0  0  0  0  0
    1.1407    2.4481    0.0000 C   0  0  0  0  0  0  0  0  0  0  0  0
    2.4919    1.5355    0.0000 C   0  0  0  0  0  0  0  0  0  0  0  0
    3.1940    1.0968    0.0000 C   0  0  0  0  0  0  0  0  0  0  0  0
    3.8257   -0.1842    0.0000 C   0  0  0  0  0  0  0  0  0  0  0  0
    3.1413    0.2545    0.0000 C   0  0  0  0  0  0  0  0  0  0  0  0
    3.7555   -1.0442    0.0000 C   0  0  0  0  0  0  0  0  0  0  0  0
   -3.8608    3.0448    0.0000 C   0  0  0  0  0  0  0  0  0  0  0  0
   -4.5979    1.8163    0.0000 C   0  0  0  0  0  0  0  0  0  0  0  0
   -0.9652    2.9921    0.0000 C   0  0  0  0  0  0  0  0  0  0  0  0
    4.5277    0.1667    0.0000 C   0  0  0  0  0  0  0  0  0  0  0  0
    4.5979    0.9915    0.0000 C   0  0  0  0  0  0  0  0  0  0  0  0
    3.0185   -1.4127    0.0000 C   0  0  0  0  0  0  0  0  0  0  0  0
    3.5625   -1.8514    0.0000 C   0  0  0  0  0  0  0  0  0  0  0  0
  1 12  1  0  0  0  0
  1 17  1  0  0  0  0
  2 15  1  0  0  0  0
  2 16  1  0  0  0  0
  3 34  1  0  0  0  0
  3 35  1  0  0  0  0
  4 29  2  0  0  0  0
  5 33  1  0  0  0  0
  6 18  1  0  0  0  0
  6 26  1  0  0  0  0
  6 27  1  0  0  0  0
  7 17  1  0  0  0  0
  7 22  2  0  0  0  0
  8 23  2  0  0  0  0
  8 28  1  0  0  0  0
  9 25  1  0  0  0  0
  9 29  1  0  0  0  0
 10 30  1  0  0  0  0
 10 38  2  0  0  0  0
 11 13  1  0  0  0  0
 11 14  1  0  0  0  0
 11 15  1  0  0  0  0
 11 16  1  0  0  0  0
 12 13  1  0  0  0  0
 12 14  1  0  0  0  0
 17 18  2  0  0  0  0
 18 21  1  0  0  0  0
 19 20  1  0  0  0  0
 19 21  2  0  0  0  0
 19 22  1  0  0  0  0
 20 23  1  0  0  0  0
 20 24  2  0  0  0  0
 23 36  1  0  0  0  0
 24 25  1  0  0  0  0
 25 28  2  0  0  0  0
 26 34  1  0  0  0  0
 27 35  1  0  0  0  0
 29 30  1  0  0  0  0
 30 32  2  0  0  0  0
 31 32  1  0  0  0  0
 31 33  1  0  0  0  0
 31 37  2  0  0  0  0
 33 39  1  0  0  0  0
 33 40  1  0  0  0  0
 37 38  1  0  0  0  0
M  END
> <PUBCHEM_COMPOUND_ID_TYPE>
0

> <PUBCHEM_TOTAL_CHARGE>
0

> <PUBCHEM_SUBSTANCE_ID>
310943238

> <PUBCHEM_SUBSTANCE_VERSION>
1

> <PUBCHEM_EXT_DATASOURCE_NAME>
4488

> <PUBCHEM_EXT_DATASOURCE_REGID>
SCHEMBL16121300

> <PUBCHEM_SUBSTANCE_COMMENT>
InChI=1S/C30H35N5O5/c1-19-24(12-22(16-32-19)34-27(36)25-11-21(4-5-31-25)29(2,3)37)20-10-26(35-6-8-38-9-7-35)28(33-15-20)40-23-13-30(14-23)17-39-18-30/h4-5,10-12,15-16,23,37H,6-9,13-14,17-18H2,1-3H3,(H,34,36)
InChIKey=CGPFHJZAGKIEFK-UHFFFAOYSA-N

> <PUBCHEM_SUBSTANCE_SYNONYM>
SCHEMBL16121300

> <PUBCHEM_XREF_EXT_ID>
SCHEMBL16121300

> <PUBCHEM_EXT_DATASOURCE_URL>
https://www.surechembl.org/

> <PUBCHEM_EXT_SUBSTANCE_URL>
https://www.surechembl.org/chemical/SCHEMBL16121300

> <PUBCHEM_CID_ASSOCIATIONS>
117609663  1

> <PUBCHEM_COORDINATE_TYPE>
1
3

$$$$
