310949972
  -OEChem-07211613022D

 28 32  0     1  0  0  0  0  0999 V2000
   -3.1883    2.8778    0.0000 F   0  0  0  0  0  0  0  0  0  0  0  0
   -0.2622    1.3871    0.0000 N   0  0  0  0  0  0  0  0  0  0  0  0
   -0.2622    2.7259    0.0000 N   0  0  0  0  0  0  0  0  0  0  0  0
    0.5107   -0.9730    0.0000 N   0  0  0  0  0  0  0  0  0  0  0  0
    2.3187    1.6355    0.0000 N   0  0  0  0  0  0  0  0  0  0  0  0
   -1.0489    1.6493    0.0000 C   0  0  0  0  0  0  0  0  0  0  0  0
    0.2209    2.0634    0.0000 C   0  0  0  0  0  0  0  0  0  0  0  0
   -1.0351    2.4775    0.0000 C   0  0  0  0  0  0  0  0  0  0  0  0
   -0.0138    0.6280    0.0000 C   0  0  0  0  0  0  0  0  0  0  0  0
    1.0628    2.0496    0.0000 C   0  0  3  0  0  0  0  0  0  0  0  0
   -1.7529    1.2353    0.0000 C   0  0  0  0  0  0  0  0  0  0  0  0
   -1.7667    2.8640    0.0000 C   0  0  0  0  0  0  0  0  0  0  0  0
   -2.4706    2.4637    0.0000 C   0  0  0  0  0  0  0  0  0  0  0  0
   -0.5521   -0.0207    0.0000 C   0  0  0  0  0  0  0  0  0  0  0  0
    0.8005    0.4210    0.0000 C   0  0  0  0  0  0  0  0  0  0  0  0
   -2.4706    1.6493    0.0000 C   0  0  0  0  0  0  0  0  0  0  0  0
    1.5458    1.3871    0.0000 C   0  0  0  0  0  0  0  0  0  0  0  0
    1.5320    2.7121    0.0000 C   0  0  0  0  0  0  0  0  0  0  0  0
   -0.3037   -0.7936    0.0000 C   0  0  0  0  0  0  0  0  0  0  0  0
    1.0628   -0.3657    0.0000 C   0  0  0  0  0  0  0  0  0  0  0  0
    2.3187    2.4637    0.0000 C   0  0  0  0  0  0  0  0  0  0  0  0
    0.7729   -1.7460    0.0000 C   0  0  0  0  0  0  0  0  0  0  0  0
    1.5735   -1.9254    0.0000 C   0  0  0  0  0  0  0  0  0  0  0  0
    2.1255   -1.3319    0.0000 C   0  0  0  0  0  0  0  0  0  0  0  0
    1.8357   -2.7121    0.0000 C   0  0  0  0  0  0  0  0  0  0  0  0
    2.9261   -1.4838    0.0000 C   0  0  0  0  0  0  0  0  0  0  0  0
    2.6500   -2.8778    0.0000 C   0  0  0  0  0  0  0  0  0  0  0  0
    3.1883   -2.2705    0.0000 C   0  0  0  0  0  0  0  0  0  0  0  0
  1 13  1  0  0  0  0
  2  6  1  0  0  0  0
  2  7  1  0  0  0  0
  2  9  1  0  0  0  0
  3  7  2  0  0  0  0
  3  8  1  0  0  0  0
  4 19  1  0  0  0  0
  4 20  1  0  0  0  0
  4 22  1  0  0  0  0
  5 17  1  0  0  0  0
  5 21  1  0  0  0  0
  6  8  1  0  0  0  0
  6 11  2  0  0  0  0
 10  7  1  6  0  0  0
  8 12  2  0  0  0  0
  9 14  1  0  0  0  0
  9 15  1  0  0  0  0
 10 17  1  0  0  0  0
 10 18  1  0  0  0  0
 11 16  1  0  0  0  0
 12 13  1  0  0  0  0
 13 16  2  0  0  0  0
 14 19  1  0  0  0  0
 15 20  1  0  0  0  0
 18 21  1  0  0  0  0
 22 23  1  0  0  0  0
 23 24  2  0  0  0  0
 23 25  1  0  0  0  0
 24 26  1  0  0  0  0
 25 27  2  0  0  0  0
 26 28  2  0  0  0  0
 27 28  1  0  0  0  0
M  END
> <PUBCHEM_COMPOUND_ID_TYPE>
0

> <PUBCHEM_TOTAL_CHARGE>
0

> <PUBCHEM_SUBSTANCE_ID>
310949972

> <PUBCHEM_SUBSTANCE_VERSION>
1

> <PUBCHEM_EXT_DATASOURCE_NAME>
4488

> <PUBCHEM_EXT_DATASOURCE_REGID>
SCHEMBL16128201

> <PUBCHEM_SUBSTANCE_COMMENT>
InChI=1S/C23H27FN4/c24-19-6-7-22-21(14-19)26-23(18-8-11-25-15-18)28(22)20-9-12-27(13-10-20)16-17-4-2-1-3-5-17/h1-7,14,18,20,25H,8-13,15-16H2/t18-/m1/s1
InChIKey=DOWSTQIDVNCOHK-GOSISDBHSA-N

> <PUBCHEM_SUBSTANCE_SYNONYM>
SCHEMBL16128201

> <PUBCHEM_XREF_EXT_ID>
SCHEMBL16128201

> <PUBCHEM_EXT_DATASOURCE_URL>
https://www.surechembl.org/

> <PUBCHEM_EXT_SUBSTANCE_URL>
https://www.surechembl.org/chemical/SCHEMBL16128201

> <PUBCHEM_CID_ASSOCIATIONS>
117615215  1

> <PUBCHEM_COORDINATE_TYPE>
1
3

> <PUBCHEM_BONDANNOTATIONS>
10  7  6

$$$$
