310940037
  -OEChem-07211613022D

 13 13  0     0  0  0  0  0  0999 V2000
   -3.9332   12.1353    0.0000 Br  0  0  0  0  0  0  0  0  0  0  0  0
   -3.9332   10.4852    0.0000 Cl  0  0  0  0  0  0  0  0  0  0  0  0
   -1.0752   10.4852    0.0000 O   0  0  0  0  0  0  0  0  0  0  0  0
   -1.0752   12.9603    0.0000 O   0  5  0  0  0  0  0  0  0  0  0  0
   -0.3607   11.7227    0.0000 O   0  0  0  0  0  0  0  0  0  0  0  0
   -1.0752   12.1353    0.0000 N   0  3  0  0  0  0  0  0  0  0  0  0
   -1.7897   11.7227    0.0000 C   0  0  0  0  0  0  0  0  0  0  0  0
   -1.7897   10.8977    0.0000 C   0  0  0  0  0  0  0  0  0  0  0  0
   -3.2187   11.7227    0.0000 C   0  0  0  0  0  0  0  0  0  0  0  0
   -3.2187   10.8977    0.0000 C   0  0  0  0  0  0  0  0  0  0  0  0
   -2.5042   12.1353    0.0000 C   0  0  0  0  0  0  0  0  0  0  0  0
   -2.5042   10.4852    0.0000 C   0  0  0  0  0  0  0  0  0  0  0  0
   -0.2783   10.6988    0.0000 C   0  0  0  0  0  0  0  0  0  0  0  0
  1  9  1  0  0  0  0
  2 10  1  0  0  0  0
  3  8  1  0  0  0  0
  3 13  1  0  0  0  0
  4  6  1  0  0  0  0
  5  6  2  0  0  0  0
  6  7  1  0  0  0  0
  7  8  1  0  0  0  0
  7 11  2  0  0  0  0
  8 12  2  0  0  0  0
  9 10  2  0  0  0  0
  9 11  1  0  0  0  0
 10 12  1  0  0  0  0
M  CHG  2   4  -1   6   1
M  END
> <PUBCHEM_COMPOUND_ID_TYPE>
0

> <PUBCHEM_TOTAL_CHARGE>
0

> <PUBCHEM_SUBSTANCE_ID>
310940037

> <PUBCHEM_SUBSTANCE_VERSION>
1

> <PUBCHEM_EXT_DATASOURCE_NAME>
4488

> <PUBCHEM_EXT_DATASOURCE_REGID>
SCHEMBL16117967

> <PUBCHEM_SUBSTANCE_COMMENT>
InChI=1S/C7H5BrClNO3/c1-13-7-3-5(9)4(8)2-6(7)10(11)12/h2-3H,1H3
InChIKey=CLOMPIIPEQKLRX-UHFFFAOYSA-N

> <PUBCHEM_SUBSTANCE_SYNONYM>
SCHEMBL16117967

> <PUBCHEM_XREF_EXT_ID>
SCHEMBL16117967

> <PUBCHEM_EXT_DATASOURCE_URL>
https://www.surechembl.org/

> <PUBCHEM_EXT_SUBSTANCE_URL>
https://www.surechembl.org/chemical/SCHEMBL16117967

> <PUBCHEM_CID_ASSOCIATIONS>
25306887  1

> <PUBCHEM_COORDINATE_TYPE>
1
3

$$$$
