310940958
  -OEChem-07211613022D

 39 42  0     1  0  0  0  0  0999 V2000
    4.7874    0.9769    0.0000 O   0  0  0  0  0  0  0  0  0  0  0  0
    3.6511   -0.9907    0.0000 O   0  0  0  0  0  0  0  0  0  0  0  0
    1.2678    0.9630    0.0000 O   0  0  0  0  0  0  0  0  0  0  0  0
   -0.8937   -1.1154    0.0000 O   0  0  0  0  0  0  0  0  0  0  0  0
   -4.5379    0.0485    0.0000 O   0  0  0  0  0  0  0  0  0  0  0  0
   -3.0553    0.9630    0.0000 O   0  0  0  0  0  0  0  0  0  0  0  0
    3.4294   -2.7781    0.0000 O   0  0  0  0  0  0  0  0  0  0  0  0
    1.9884   -0.2702    0.0000 N   0  0  0  0  0  0  0  0  0  0  0  0
   -0.1732    0.1455    0.0000 N   0  0  0  0  0  0  0  0  0  0  0  0
   -2.3348   -0.2702    0.0000 N   0  0  0  0  0  0  0  0  0  0  0  0
    4.3578    0.3256    0.0000 C   0  0  3  0  0  0  0  0  0  0  0  0
    3.6511   -0.1178    0.0000 C   0  0  0  0  0  0  0  0  0  0  0  0
    3.9837    1.0046    0.0000 C   0  0  0  0  0  0  0  0  0  0  0  0
    2.9167    0.2979    0.0000 C   0  0  3  0  0  0  0  0  0  0  0  0
    5.0783   -0.1178    0.0000 C   0  0  0  0  0  0  0  0  0  0  0  0
    2.9306    1.3787    0.0000 C   0  0  0  0  0  0  0  0  0  0  0  0
    1.2678    0.1455    0.0000 C   0  0  0  0  0  0  0  0  0  0  0  0
    0.5611   -0.2425    0.0000 C   0  0  3  0  0  0  0  0  0  0  0  0
    2.1962    1.7944    0.0000 C   0  0  0  0  0  0  0  0  0  0  0  0
    0.5473   -1.1016    0.0000 C   0  0  0  0  0  0  0  0  0  0  0  0
   -0.8799   -0.2286    0.0000 C   0  0  0  0  0  0  0  0  0  0  0  0
    1.2956   -1.5034    0.0000 C   0  0  0  0  0  0  0  0  0  0  0  0
    1.4480    1.4618    0.0000 C   0  0  0  0  0  0  0  0  0  0  0  0
    2.1131    2.6119    0.0000 C   0  0  0  0  0  0  0  0  0  0  0  0
   -1.6004    0.1732    0.0000 C   0  0  3  0  0  0  0  0  0  0  0  0
   -3.0415    0.1594    0.0000 C   0  0  0  0  0  0  0  0  0  0  0  0
   -3.7620   -0.2425    0.0000 C   0  0  3  0  0  0  0  0  0  0  0  0
    0.9076    2.0715    0.0000 C   0  0  0  0  0  0  0  0  0  0  0  0
    1.3233    2.7781    0.0000 C   0  0  0  0  0  0  0  0  0  0  0  0
    1.2956   -2.3348    0.0000 C   0  0  0  0  0  0  0  0  0  0  0  0
    1.9884   -1.1016    0.0000 C   0  0  0  0  0  0  0  0  0  0  0  0
    2.7228   -2.3209    0.0000 C   0  0  0  0  0  0  0  0  0  0  0  0
    2.0023   -2.7366    0.0000 C   0  0  0  0  0  0  0  0  0  0  0  0
    2.7228   -1.5173    0.0000 C   0  0  0  0  0  0  0  0  0  0  0  0
   -3.8729   -1.0877    0.0000 C   0  0  0  0  0  0  0  0  0  0  0  0
   -1.6004    0.9769    0.0000 C   0  0  0  0  0  0  0  0  0  0  0  0
   -5.0783   -0.5473    0.0000 C   0  0  0  0  0  0  0  0  0  0  0  0
   -4.6626   -1.2540    0.0000 C   0  0  0  0  0  0  0  0  0  0  0  0
    4.1776   -2.3209    0.0000 C   0  0  0  0  0  0  0  0  0  0  0  0
  1 11  1  0  0  0  0
  1 13  1  0  0  0  0
  2 12  2  0  0  0  0
  3 17  2  0  0  0  0
  4 21  2  0  0  0  0
  5 27  1  0  0  0  0
  5 37  1  0  0  0  0
  6 26  2  0  0  0  0
  7 32  1  0  0  0  0
  7 39  1  0  0  0  0
 14  8  1  1  0  0  0
  8 17  1  0  0  0  0
 18  9  1  6  0  0  0
  9 21  1  0  0  0  0
 10 25  1  0  0  0  0
 10 26  1  0  0  0  0
 11 12  1  1  0  0  0
 11 13  1  0  0  0  0
 11 15  1  6  0  0  0
 12 14  1  0  0  0  0
 14 16  1  0  0  0  0
 16 19  1  0  0  0  0
 17 18  1  0  0  0  0
 18 20  1  0  0  0  0
 19 23  1  0  0  0  0
 19 24  1  0  0  0  0
 20 22  1  0  0  0  0
 21 25  1  0  0  0  0
 22 30  2  0  0  0  0
 22 31  1  0  0  0  0
 23 28  1  0  0  0  0
 24 29  1  0  0  0  0
 25 36  1  6  0  0  0
 27 26  1  1  0  0  0
 27 35  1  0  0  0  0
 28 29  1  0  0  0  0
 30 33  1  0  0  0  0
 31 34  2  0  0  0  0
 32 33  2  0  0  0  0
 32 34  1  0  0  0  0
 35 38  1  0  0  0  0
 37 38  1  0  0  0  0
M  END
> <PUBCHEM_COMPOUND_ID_TYPE>
0

> <PUBCHEM_TOTAL_CHARGE>
0

> <PUBCHEM_SUBSTANCE_ID>
310940958

> <PUBCHEM_SUBSTANCE_VERSION>
1

> <PUBCHEM_EXT_DATASOURCE_NAME>
4488

> <PUBCHEM_EXT_DATASOURCE_REGID>
SCHEMBL16118917

> <PUBCHEM_SUBSTANCE_COMMENT>
InChI=1S/C29H41N3O7/c1-18(30-28(36)24-9-6-14-38-24)26(34)32-23(16-20-10-12-21(37-3)13-11-20)27(35)31-22(15-19-7-4-5-8-19)25(33)29(2)17-39-29/h10-13,18-19,22-24H,4-9,14-17H2,1-3H3,(H,30,36)(H,31,35)(H,32,34)/t18-,22+,23+,24-,29-/m1/s1
InChIKey=TXWJHEADRVGPQX-ZADZHZCXSA-N

> <PUBCHEM_SUBSTANCE_SYNONYM>
SCHEMBL16118917

> <PUBCHEM_XREF_EXT_ID>
SCHEMBL16118917

> <PUBCHEM_EXT_DATASOURCE_URL>
https://www.surechembl.org/

> <PUBCHEM_EXT_SUBSTANCE_URL>
https://www.surechembl.org/chemical/SCHEMBL16118917

> <PUBCHEM_CID_ASSOCIATIONS>
117607866  1

> <PUBCHEM_COORDINATE_TYPE>
1
3

> <PUBCHEM_BONDANNOTATIONS>
11  12  5
11  15  6
25  36  6
27  26  5
14  8  5
18  9  6

$$$$
