310928695
  -OEChem-07211613022D

 10 11  0     0  0  0  0  0  0999 V2000
    0.8643    1.0799    0.0000 S   0  0  0  0  0  0  0  0  0  0  0  0
   -0.6348    1.2375    0.0000 N   0  0  0  0  0  0  0  0  0  0  0  0
   -1.3492    0.0000    0.0000 N   0  0  0  0  0  0  0  0  0  0  0  0
   -0.6348   -1.2375    0.0000 N   0  0  0  0  0  0  0  0  0  0  0  0
    0.0797    0.0000    0.0000 C   0  0  0  0  0  0  0  0  0  0  0  0
    0.0797    0.8250    0.0000 C   0  0  0  0  0  0  0  0  0  0  0  0
   -0.6348   -0.4125    0.0000 C   0  0  0  0  0  0  0  0  0  0  0  0
    0.8643   -0.2549    0.0000 C   0  0  0  0  0  0  0  0  0  0  0  0
    1.3492    0.4125    0.0000 C   0  0  0  0  0  0  0  0  0  0  0  0
   -1.3492    0.8250    0.0000 C   0  0  0  0  0  0  0  0  0  0  0  0
  1  6  1  0  0  0  0
  1  9  1  0  0  0  0
  2  6  1  0  0  0  0
  2 10  2  0  0  0  0
  3  7  2  0  0  0  0
  3 10  1  0  0  0  0
  4  7  1  0  0  0  0
  5  6  2  0  0  0  0
  5  7  1  0  0  0  0
  5  8  1  0  0  0  0
  8  9  2  0  0  0  0
M  END
> <PUBCHEM_COMPOUND_ID_TYPE>
0

> <PUBCHEM_TOTAL_CHARGE>
0

> <PUBCHEM_SUBSTANCE_ID>
310928695

> <PUBCHEM_SUBSTANCE_VERSION>
1

> <PUBCHEM_EXT_DATASOURCE_NAME>
11752

> <PUBCHEM_EXT_DATASOURCE_REGID>
BD153860

> <PUBCHEM_SUBSTANCE_SYNONYM>
14080-56-9
Thieno[2,3-d]pyrimidin-4-amine

> <PUBCHEM_GENERIC_REGISTRY_NAME>
14080-56-9

> <PUBCHEM_XREF_EXT_ID>
BD153860

> <PUBCHEM_EXT_DATASOURCE_URL>
http://www.bidepharmatech.com/en/index.html

> <PUBCHEM_EXT_SUBSTANCE_URL>
http://www.bidepharmatech.com/en/goodsview_goodscode_BD153860.html

> <PUBCHEM_CID_ASSOCIATIONS>
4269486  1

> <PUBCHEM_COORDINATE_TYPE>
1
3

$$$$
