310945045
  -OEChem-07211613022D

 39 43  0     0  0  0  0  0  0999 V2000
   -0.7181    2.2163    0.0000 Cl  0  0  0  0  0  0  0  0  0  0  0  0
   -4.1047   -1.5781    0.0000 S   0  0  0  0  0  0  0  0  0  0  0  0
    2.1188    2.9079    0.0000 F   0  0  0  0  0  0  0  0  0  0  0  0
    3.2004    2.6065    0.0000 F   0  0  0  0  0  0  0  0  0  0  0  0
    2.8813    1.5249    0.0000 F   0  0  0  0  0  0  0  0  0  0  0  0
    3.9274   -2.7483    0.0000 O   0  0  0  0  0  0  0  0  0  0  0  0
    4.6543   -1.5071    0.0000 O   0  0  0  0  0  0  0  0  0  0  0  0
    1.0195    0.5674    0.0000 N   0  0  0  0  0  0  0  0  0  0  0  0
   -4.2466   -2.9079    0.0000 N   0  0  0  0  0  0  0  0  0  0  0  0
   -0.4167    0.5496    0.0000 C   0  0  0  0  0  0  0  0  0  0  0  0
   -0.4344   -0.2837    0.0000 C   0  0  0  0  0  0  0  0  0  0  0  0
    0.2926    0.9575    0.0000 C   0  0  0  0  0  0  0  0  0  0  0  0
   -1.1968    0.9752    0.0000 C   0  0  0  0  0  0  0  0  0  0  0  0
   -1.1436   -0.6915    0.0000 C   0  0  0  0  0  0  0  0  0  0  0  0
    0.3103   -0.6915    0.0000 C   0  0  0  0  0  0  0  0  0  0  0  0
    0.3103    1.7908    0.0000 C   0  0  0  0  0  0  0  0  0  0  0  0
    1.7642    1.7908    0.0000 C   0  0  0  0  0  0  0  0  0  0  0  0
    1.0018    2.1986    0.0000 C   0  0  0  0  0  0  0  0  0  0  0  0
   -1.9593    0.7624    0.0000 C   0  0  0  0  0  0  0  0  0  0  0  0
   -1.3742    1.7376    0.0000 C   0  0  0  0  0  0  0  0  0  0  0  0
    1.7465    0.9575    0.0000 C   0  0  0  0  0  0  0  0  0  0  0  0
    2.4911    2.2163    0.0000 C   0  0  0  0  0  0  0  0  0  0  0  0
   -1.8706   -0.3014    0.0000 C   0  0  0  0  0  0  0  0  0  0  0  0
   -1.1613   -1.5249    0.0000 C   0  0  0  0  0  0  0  0  0  0  0  0
    0.3280   -1.5249    0.0000 C   0  0  0  0  0  0  0  0  0  0  0  0
    1.0372   -0.3014    0.0000 C   0  0  0  0  0  0  0  0  0  0  0  0
   -2.1721    1.5426    0.0000 C   0  0  0  0  0  0  0  0  0  0  0  0
   -2.6153   -1.5249    0.0000 C   0  0  0  0  0  0  0  0  0  0  0  0
   -2.5798   -0.6915    0.0000 C   0  0  0  0  0  0  0  0  0  0  0  0
   -1.8529   -1.9149    0.0000 C   0  0  0  0  0  0  0  0  0  0  0  0
   -3.3245   -1.9326    0.0000 C   0  0  0  0  0  0  0  0  0  0  0  0
    1.0550   -1.9149    0.0000 C   0  0  0  0  0  0  0  0  0  0  0  0
    1.7465   -0.6915    0.0000 C   0  0  0  0  0  0  0  0  0  0  0  0
    1.7465   -1.5249    0.0000 C   0  0  0  0  0  0  0  0  0  0  0  0
   -3.4309   -2.7660    0.0000 C   0  0  0  0  0  0  0  0  0  0  0  0
    2.5089   -1.9326    0.0000 C   0  0  0  0  0  0  0  0  0  0  0  0
   -4.6543   -2.2518    0.0000 C   0  0  0  0  0  0  0  0  0  0  0  0
    3.2004   -1.5249    0.0000 C   0  0  0  0  0  0  0  0  0  0  0  0
    3.9274   -1.9149    0.0000 C   0  0  0  0  0  0  0  0  0  0  0  0
  1 16  1  0  0  0  0
  2 31  1  0  0  0  0
  2 37  1  0  0  0  0
  3 22  1  0  0  0  0
  4 22  1  0  0  0  0
  5 22  1  0  0  0  0
  6 39  2  0  0  0  0
  7 39  1  0  0  0  0
  8 12  2  0  0  0  0
  8 21  1  0  0  0  0
  9 35  1  0  0  0  0
  9 37  2  0  0  0  0
 10 11  2  0  0  0  0
 10 12  1  0  0  0  0
 10 13  1  0  0  0  0
 11 14  1  0  0  0  0
 11 15  1  0  0  0  0
 12 16  1  0  0  0  0
 13 19  1  0  0  0  0
 13 20  1  0  0  0  0
 14 23  2  0  0  0  0
 14 24  1  0  0  0  0
 15 25  2  0  0  0  0
 15 26  1  0  0  0  0
 16 18  2  0  0  0  0
 17 18  1  0  0  0  0
 17 21  2  0  0  0  0
 17 22  1  0  0  0  0
 19 27  1  0  0  0  0
 20 27  1  0  0  0  0
 23 29  1  0  0  0  0
 24 30  2  0  0  0  0
 25 32  1  0  0  0  0
 26 33  2  0  0  0  0
 28 29  2  0  0  0  0
 28 30  1  0  0  0  0
 28 31  1  0  0  0  0
 31 35  2  0  0  0  0
 32 34  2  0  0  0  0
 33 34  1  0  0  0  0
 34 36  1  0  0  0  0
 36 38  2  0  0  0  0
 38 39  1  0  0  0  0
M  END
> <PUBCHEM_COMPOUND_ID_TYPE>
0

> <PUBCHEM_TOTAL_CHARGE>
0

> <PUBCHEM_SUBSTANCE_ID>
310945045

> <PUBCHEM_SUBSTANCE_VERSION>
1

> <PUBCHEM_EXT_DATASOURCE_NAME>
4488

> <PUBCHEM_EXT_DATASOURCE_REGID>
SCHEMBL16123133

> <PUBCHEM_SUBSTANCE_COMMENT>
InChI=1S/C30H22ClF3N2O2S/c31-24-14-23(30(32,33)34)15-36-29(24)28(20-2-1-3-20)27(21-7-4-18(5-8-21)6-13-26(37)38)22-11-9-19(10-12-22)25-16-35-17-39-25/h4-17,20H,1-3H2,(H,37,38)/b13-6+,28-27+
InChIKey=YYRLAWCWYUQHQA-GWYNGDBJSA-N

> <PUBCHEM_SUBSTANCE_SYNONYM>
SCHEMBL16123133

> <PUBCHEM_XREF_EXT_ID>
SCHEMBL16123133

> <PUBCHEM_EXT_DATASOURCE_URL>
https://www.surechembl.org/

> <PUBCHEM_EXT_SUBSTANCE_URL>
https://www.surechembl.org/chemical/SCHEMBL16123133

> <PUBCHEM_CID_ASSOCIATIONS>
86271924  1

> <PUBCHEM_COORDINATE_TYPE>
1
3

$$$$
