310930850
  -OEChem-07211613022D

 32 36  0     0  0  0  0  0  0999 V2000
    2.4853   -7.0581    0.0000 S   0  0  0  0  0  0  0  0  0  0  0  0
    3.2805   -6.6108    0.0000 O   0  0  0  0  0  0  0  0  0  0  0  0
    1.7894   -7.4558    0.0000 O   0  0  0  0  0  0  0  0  0  0  0  0
    0.0000   -2.7835    0.0000 O   0  0  0  0  0  0  0  0  0  0  0  0
    2.4853   -1.3420    0.0000 N   0  0  0  0  0  0  0  0  0  0  0  0
    4.0758   -9.9410    0.0000 N   0  0  0  0  0  0  0  0  0  0  0  0
    2.6344    0.0000    0.0000 N   0  0  0  0  0  0  0  0  0  0  0  0
    1.2426   -3.4793    0.0000 N   0  0  0  0  0  0  0  0  0  0  0  0
    2.8829   -7.7540    0.0000 C   0  0  0  0  0  0  0  0  0  0  0  0
    2.0876   -6.3623    0.0000 C   0  0  0  0  0  0  0  0  0  0  0  0
    4.1255   -8.4996    0.0000 C   0  0  0  0  0  0  0  0  0  0  0  0
    3.7279   -7.8037    0.0000 C   0  0  0  0  0  0  0  0  0  0  0  0
    3.6782   -9.1954    0.0000 C   0  0  0  0  0  0  0  0  0  0  0  0
    2.4853   -8.4996    0.0000 C   0  0  0  0  0  0  0  0  0  0  0  0
    2.4853   -5.6166    0.0000 C   0  0  0  0  0  0  0  0  0  0  0  0
    1.2426   -6.3623    0.0000 C   0  0  0  0  0  0  0  0  0  0  0  0
    2.8829   -9.1954    0.0000 C   0  0  0  0  0  0  0  0  0  0  0  0
    2.0379   -0.6462    0.0000 C   0  0  0  0  0  0  0  0  0  0  0  0
    1.2426   -2.0379    0.0000 C   0  0  0  0  0  0  0  0  0  0  0  0
    1.2426   -4.9208    0.0000 C   0  0  0  0  0  0  0  0  0  0  0  0
    2.0876   -4.9208    0.0000 C   0  0  0  0  0  0  0  0  0  0  0  0
    0.8450   -5.6166    0.0000 C   0  0  0  0  0  0  0  0  0  0  0  0
    2.0379   -2.0379    0.0000 C   0  0  0  0  0  0  0  0  0  0  0  0
    4.9208   -8.4996    0.0000 C   0  0  0  0  0  0  0  0  0  0  0  0
    0.8450   -2.7835    0.0000 C   0  0  0  0  0  0  0  0  0  0  0  0
    1.2426   -0.6462    0.0000 C   0  0  0  0  0  0  0  0  0  0  0  0
    0.8450   -1.3420    0.0000 C   0  0  0  0  0  0  0  0  0  0  0  0
    3.2805   -1.1432    0.0000 C   0  0  0  0  0  0  0  0  0  0  0  0
    0.8450   -4.1752    0.0000 C   0  0  0  0  0  0  0  0  0  0  0  0
    5.3681   -9.2451    0.0000 C   0  0  0  0  0  0  0  0  0  0  0  0
    3.3799   -0.3480    0.0000 C   0  0  0  0  0  0  0  0  0  0  0  0
    4.9208   -9.9410    0.0000 C   0  0  0  0  0  0  0  0  0  0  0  0
  1  2  2  0  0  0  0
  1  3  2  0  0  0  0
  1  9  1  0  0  0  0
  1 10  1  0  0  0  0
  4 25  2  0  0  0  0
  5 18  1  0  0  0  0
  5 23  1  0  0  0  0
  5 28  1  0  0  0  0
  6 13  2  0  0  0  0
  6 32  1  0  0  0  0
  7 18  2  0  0  0  0
  7 31  1  0  0  0  0
  8 25  1  0  0  0  0
  8 29  1  0  0  0  0
  9 12  2  0  0  0  0
  9 14  1  0  0  0  0
 10 15  2  0  0  0  0
 10 16  1  0  0  0  0
 11 12  1  0  0  0  0
 11 13  1  0  0  0  0
 11 24  2  0  0  0  0
 13 17  1  0  0  0  0
 14 17  2  0  0  0  0
 15 21  1  0  0  0  0
 16 22  2  0  0  0  0
 18 26  1  0  0  0  0
 19 23  2  0  0  0  0
 19 25  1  0  0  0  0
 19 27  1  0  0  0  0
 20 21  2  0  0  0  0
 20 22  1  0  0  0  0
 20 29  1  0  0  0  0
 24 30  1  0  0  0  0
 26 27  2  0  0  0  0
 28 31  2  0  0  0  0
 30 32  2  0  0  0  0
M  END
> <PUBCHEM_COMPOUND_ID_TYPE>
0

> <PUBCHEM_TOTAL_CHARGE>
0

> <PUBCHEM_SUBSTANCE_ID>
310930850

> <PUBCHEM_SUBSTANCE_VERSION>
1

> <PUBCHEM_EXT_DATASOURCE_NAME>
4488

> <PUBCHEM_EXT_DATASOURCE_REGID>
SCHEMBL16108148

> <PUBCHEM_SUBSTANCE_COMMENT>
InChI=1S/C24H18N4O3S/c29-24(19-5-10-23-26-12-13-28(23)16-19)27-15-17-3-6-20(7-4-17)32(30,31)21-8-9-22-18(14-21)2-1-11-25-22/h1-14,16H,15H2,(H,27,29)
InChIKey=YWOHYDWUPBIMDX-UHFFFAOYSA-N

> <PUBCHEM_SUBSTANCE_SYNONYM>
SCHEMBL16108148

> <PUBCHEM_XREF_EXT_ID>
SCHEMBL16108148

> <PUBCHEM_EXT_DATASOURCE_URL>
https://www.surechembl.org/

> <PUBCHEM_EXT_SUBSTANCE_URL>
https://www.surechembl.org/chemical/SCHEMBL16108148

> <PUBCHEM_CID_ASSOCIATIONS>
87074777  1

> <PUBCHEM_COORDINATE_TYPE>
1
3

$$$$
