310944760
  -OEChem-07211613022D

 28 29  0     0  0  0  0  0  0999 V2000
   -4.3700    1.6465    0.0000 Cl  0  0  0  0  0  0  0  0  0  0  0  0
   -4.3700    0.0000    0.0000 Cl  0  0  0  0  0  0  0  0  0  0  0  0
   -1.3494    0.0000    0.0000 O   0  0  0  0  0  0  0  0  0  0  0  0
    0.0743    2.4759    0.0000 O   0  0  0  0  0  0  0  0  0  0  0  0
    1.5103   -0.8171    0.0000 O   0  0  0  0  0  0  0  0  0  0  0  0
    4.3700   -2.4759    0.0000 O   0  0  0  0  0  0  0  0  0  0  0  0
    0.8047    1.2380    0.0000 N   0  0  0  0  0  0  0  0  0  0  0  0
   -1.3370    1.6588    0.0000 N   0  0  0  0  0  0  0  0  0  0  0  0
    2.9588   -0.8171    0.0000 N   0  0  0  0  0  0  0  0  0  0  0  0
   -2.0551    1.2504    0.0000 C   0  0  0  0  0  0  0  0  0  0  0  0
   -2.0674    0.4209    0.0000 C   0  0  0  0  0  0  0  0  0  0  0  0
   -3.4787    1.2504    0.0000 C   0  0  0  0  0  0  0  0  0  0  0  0
   -3.4911    0.4209    0.0000 C   0  0  0  0  0  0  0  0  0  0  0  0
   -2.7606    1.6465    0.0000 C   0  0  0  0  0  0  0  0  0  0  0  0
   -2.7606    0.0124    0.0000 C   0  0  0  0  0  0  0  0  0  0  0  0
    0.0743    1.6465    0.0000 C   0  0  0  0  0  0  0  0  0  0  0  0
    2.2283    0.4209    0.0000 C   0  0  0  0  0  0  0  0  0  0  0  0
   -0.6189    1.2504    0.0000 C   0  0  0  0  0  0  0  0  0  0  0  0
    0.8171    0.4085    0.0000 C   0  0  0  0  0  0  0  0  0  0  0  0
    1.5351    1.6588    0.0000 C   0  0  0  0  0  0  0  0  0  0  0  0
    1.5351    0.0124    0.0000 C   0  0  0  0  0  0  0  0  0  0  0  0
    2.2407    1.2380    0.0000 C   0  0  0  0  0  0  0  0  0  0  0  0
    2.9588    0.0000    0.0000 C   0  0  0  0  0  0  0  0  0  0  0  0
    2.2531   -1.2380    0.0000 C   0  0  0  0  0  0  0  0  0  0  0  0
    3.6644   -1.2256    0.0000 C   0  0  0  0  0  0  0  0  0  0  0  0
    2.2407   -2.0674    0.0000 C   0  0  0  0  0  0  0  0  0  0  0  0
    3.6644   -2.0551    0.0000 C   0  0  0  0  0  0  0  0  0  0  0  0
    1.4979   -2.4264    0.0000 C   0  0  0  0  0  0  0  0  0  0  0  0
  1 12  1  0  0  0  0
  2 13  1  0  0  0  0
  3 11  1  0  0  0  0
  4 16  2  0  0  0  0
  5 24  2  0  0  0  0
  6 27  1  0  0  0  0
  7 16  1  0  0  0  0
  7 19  1  0  0  0  0
  7 20  1  0  0  0  0
  8 10  1  0  0  0  0
  8 18  1  0  0  0  0
  9 23  1  0  0  0  0
  9 24  1  0  0  0  0
  9 25  1  0  0  0  0
 10 11  1  0  0  0  0
 10 14  2  0  0  0  0
 11 15  2  0  0  0  0
 12 13  2  0  0  0  0
 12 14  1  0  0  0  0
 13 15  1  0  0  0  0
 16 18  1  0  0  0  0
 17 21  1  0  0  0  0
 17 22  1  0  0  0  0
 17 23  1  0  0  0  0
 19 21  1  0  0  0  0
 20 22  1  0  0  0  0
 24 26  1  0  0  0  0
 25 27  1  0  0  0  0
 26 28  2  0  0  0  0
M  END
> <PUBCHEM_COMPOUND_ID_TYPE>
0

> <PUBCHEM_TOTAL_CHARGE>
0

> <PUBCHEM_SUBSTANCE_ID>
310944760

> <PUBCHEM_SUBSTANCE_VERSION>
1

> <PUBCHEM_EXT_DATASOURCE_NAME>
4488

> <PUBCHEM_EXT_DATASOURCE_REGID>
SCHEMBL16122839

> <PUBCHEM_SUBSTANCE_COMMENT>
InChI=1S/C19H25Cl2N3O4/c1-2-18(27)24(7-8-25)12-13-3-5-23(6-4-13)19(28)11-22-16-9-14(20)15(21)10-17(16)26/h2,9-10,13,22,25-26H,1,3-8,11-12H2
InChIKey=SUGCOOZUELYUMO-UHFFFAOYSA-N

> <PUBCHEM_SUBSTANCE_SYNONYM>
SCHEMBL16122839

> <PUBCHEM_XREF_EXT_ID>
SCHEMBL16122839

> <PUBCHEM_EXT_DATASOURCE_URL>
https://www.surechembl.org/

> <PUBCHEM_EXT_SUBSTANCE_URL>
https://www.surechembl.org/chemical/SCHEMBL16122839

> <PUBCHEM_CID_ASSOCIATIONS>
117610976  1

> <PUBCHEM_COORDINATE_TYPE>
1
3

$$$$
