310938137
  -OEChem-07211613022D

 37 39  0     1  0  0  0  0  0999 V2000
    2.5722    0.7690    0.0000 O   0  0  0  0  0  0  0  0  0  0  0  0
    2.2131   -2.6480    0.0000 O   0  0  0  0  0  0  0  0  0  0  0  0
    3.1692   -1.5861    0.0000 O   0  0  0  0  0  0  0  0  0  0  0  0
    4.7156   -1.2935    0.0000 O   0  0  0  0  0  0  0  0  0  0  0  0
   -1.2747    2.5640    0.0000 O   0  0  0  0  0  0  0  0  0  0  0  0
    6.8590    0.7690    0.0000 O   0  0  0  0  0  0  0  0  0  0  0  0
    1.8578   -0.4685    0.0000 N   0  0  0  0  0  0  0  0  0  0  0  0
   -0.2128    1.6079    0.0000 N   0  0  0  0  0  0  0  0  0  0  0  0
    4.0012   -0.0560    0.0000 N   0  0  0  0  0  0  0  0  0  0  0  0
    6.1446   -0.4685    0.0000 N   0  0  0  0  0  0  0  0  0  0  0  0
    1.1041   -0.1329    0.0000 C   0  0  0  0  0  0  0  0  0  0  0  0
    1.7715   -1.2889    0.0000 C   0  0  3  0  0  0  0  0  0  0  0  0
    0.5520   -0.7460    0.0000 C   0  0  0  0  0  0  0  0  0  0  0  0
    0.9645   -1.4605    0.0000 C   0  0  0  0  0  0  0  0  0  0  0  0
    2.5722   -0.0560    0.0000 C   0  0  0  0  0  0  0  0  0  0  0  0
    0.8492    0.6517    0.0000 C   0  0  0  0  0  0  0  0  0  0  0  0
    2.3846   -1.8410    0.0000 C   0  0  0  0  0  0  0  0  0  0  0  0
   -0.2549   -0.5745    0.0000 C   0  0  0  0  0  0  0  0  0  0  0  0
    0.0422    0.8232    0.0000 C   0  0  0  0  0  0  0  0  0  0  0  0
   -0.5099    0.2101    0.0000 C   0  0  0  0  0  0  0  0  0  0  0  0
    3.2867   -0.4685    0.0000 C   0  0  0  0  0  0  0  0  0  0  0  0
    4.7156   -0.4685    0.0000 C   0  0  0  0  0  0  0  0  0  0  0  0
    5.4301   -0.0560    0.0000 C   0  0  3  0  0  0  0  0  0  0  0  0
   -1.0198    1.7793    0.0000 C   0  0  0  0  0  0  0  0  0  0  0  0
    5.4301    0.7690    0.0000 C   0  0  3  0  0  0  0  0  0  0  0  0
    6.8590   -0.0560    0.0000 C   0  0  0  0  0  0  0  0  0  0  0  0
    6.1446    1.1815    0.0000 C   0  0  0  0  0  0  0  0  0  0  0  0
    7.5735   -0.4685    0.0000 C   0  0  0  0  0  0  0  0  0  0  0  0
   -1.5717    1.1663    0.0000 C   0  0  0  0  0  0  0  0  0  0  0  0
    8.2880   -0.0560    0.0000 C   0  0  0  0  0  0  0  0  0  0  0  0
    4.7156    1.1815    0.0000 C   0  0  0  0  0  0  0  0  0  0  0  0
    9.0025   -0.4685    0.0000 C   0  0  0  0  0  0  0  0  0  0  0  0
    8.2880    0.7690    0.0000 C   0  0  0  0  0  0  0  0  0  0  0  0
    6.1446    2.0065    0.0000 C   0  0  0  0  0  0  0  0  0  0  0  0
    9.7170   -0.0560    0.0000 C   0  0  0  0  0  0  0  0  0  0  0  0
    9.0025    1.1815    0.0000 C   0  0  0  0  0  0  0  0  0  0  0  0
    9.7170    0.7690    0.0000 C   0  0  0  0  0  0  0  0  0  0  0  0
  1 15  2  0  0  0  0
  2 17  2  0  0  0  0
  3 17  1  0  0  0  0
  4 22  2  0  0  0  0
  5 24  2  0  0  0  0
  6 26  2  0  0  0  0
  7 11  1  0  0  0  0
  7 12  1  0  0  0  0
  7 15  1  0  0  0  0
  8 19  1  0  0  0  0
  8 24  1  0  0  0  0
  9 21  1  0  0  0  0
  9 22  1  0  0  0  0
 23 10  1  6  0  0  0
 10 26  1  0  0  0  0
 11 13  2  0  0  0  0
 11 16  1  0  0  0  0
 12 14  1  0  0  0  0
 12 17  1  0  0  0  0
 13 14  1  0  0  0  0
 13 18  1  0  0  0  0
 15 21  1  0  0  0  0
 16 19  2  0  0  0  0
 18 20  2  0  0  0  0
 19 20  1  0  0  0  0
 22 23  1  0  0  0  0
 23 25  1  0  0  0  0
 24 29  1  0  0  0  0
 25 27  1  0  0  0  0
 25 31  1  1  0  0  0
 26 28  1  0  0  0  0
 27 34  1  0  0  0  0
 28 30  1  0  0  0  0
 30 32  2  0  0  0  0
 30 33  1  0  0  0  0
 32 35  1  0  0  0  0
 33 36  2  0  0  0  0
 35 37  2  0  0  0  0
 36 37  1  0  0  0  0
M  END
> <PUBCHEM_COMPOUND_ID_TYPE>
0

> <PUBCHEM_TOTAL_CHARGE>
0

> <PUBCHEM_SUBSTANCE_ID>
310938137

> <PUBCHEM_SUBSTANCE_VERSION>
1

> <PUBCHEM_EXT_DATASOURCE_NAME>
4488

> <PUBCHEM_EXT_DATASOURCE_REGID>
SCHEMBL16115988

> <PUBCHEM_SUBSTANCE_COMMENT>
InChI=1S/C27H32N4O6/c1-4-16(2)25(30-23(33)12-18-8-6-5-7-9-18)26(35)28-15-24(34)31-21-14-20(29-17(3)32)11-10-19(21)13-22(31)27(36)37/h5-11,14,16,22,25H,4,12-13,15H2,1-3H3,(H,28,35)(H,29,32)(H,30,33)(H,36,37)/t16-,22?,25-/m0/s1
InChIKey=WKDCEGLKIFCMLF-DFALHLEKSA-N

> <PUBCHEM_SUBSTANCE_SYNONYM>
SCHEMBL16115988

> <PUBCHEM_XREF_EXT_ID>
SCHEMBL16115988

> <PUBCHEM_EXT_DATASOURCE_URL>
https://www.surechembl.org/

> <PUBCHEM_EXT_SUBSTANCE_URL>
https://www.surechembl.org/chemical/SCHEMBL16115988

> <PUBCHEM_CID_ASSOCIATIONS>
117605691  1

> <PUBCHEM_COORDINATE_TYPE>
1
3

> <PUBCHEM_BONDANNOTATIONS>
23  10  6
25  31  5

$$$$
