310938070
  -OEChem-07211613022D

 25 27  0     1  0  0  0  0  0999 V2000
    0.4796    1.3115    0.0000 O   0  0  0  0  0  0  0  0  0  0  0  0
   -0.7476    0.5795    0.0000 O   0  0  0  0  0  0  0  0  0  0  0  0
    0.4999   -0.1173    0.0000 N   0  0  0  0  0  0  0  0  0  0  0  0
    3.7519   -2.8171    0.0000 N   0  0  0  0  0  0  0  0  0  0  0  0
    1.9176   -2.9957    0.0000 N   0  0  0  0  0  0  0  0  0  0  0  0
    5.6200   -0.5024    0.0000 N   0  0  0  0  0  0  0  0  0  0  0  0
    2.1275   -1.3591    0.0000 C   0  0  0  0  0  0  0  0  0  0  0  0
    0.6396   -0.9304    0.0000 C   0  0  3  0  0  0  0  0  0  0  0  0
    1.0605   -0.5572    0.0000 C   0  0  3  0  0  0  0  0  0  0  0  0
    1.6113   -0.9304    0.0000 C   0  0  0  0  0  0  0  0  0  0  0  0
    1.9893   -0.5417    0.0000 C   0  0  0  0  0  0  0  0  0  0  0  0
    2.8880   -1.6789    0.0000 C   0  0  0  0  0  0  0  0  0  0  0  0
    0.0773    0.5912    0.0000 C   0  0  0  0  0  0  0  0  0  0  0  0
    0.1197   -1.6427    0.0000 C   0  0  0  0  0  0  0  0  0  0  0  0
    0.7400   -1.2658    0.0000 C   0  0  0  0  0  0  0  0  0  0  0  0
    2.0225   -2.1774    0.0000 C   0  0  0  0  0  0  0  0  0  0  0  0
    3.5452   -1.1801    0.0000 C   0  0  0  0  0  0  0  0  0  0  0  0
    2.9914   -2.4974    0.0000 C   0  0  0  0  0  0  0  0  0  0  0  0
    4.3057   -1.4999    0.0000 C   0  0  0  0  0  0  0  0  0  0  0  0
    0.0570    2.0200    0.0000 C   0  0  0  0  0  0  0  0  0  0  0  0
    4.4090   -2.3184    0.0000 C   0  0  0  0  0  0  0  0  0  0  0  0
    4.9629   -1.0011    0.0000 C   0  0  0  0  0  0  0  0  0  0  0  0
   -0.3656    2.7286    0.0000 C   0  0  0  0  0  0  0  0  0  0  0  0
   -0.6515    1.5974    0.0000 C   0  0  0  0  0  0  0  0  0  0  0  0
    0.7655    2.4426    0.0000 C   0  0  0  0  0  0  0  0  0  0  0  0
  1 13  1  0  0  0  0
  1 20  1  0  0  0  0
  2 13  2  0  0  0  0
  8  3  1  1  0  0  0
  9  3  1  6  0  0  0
  3 13  1  0  0  0  0
  4 18  2  0  0  0  0
  4 21  1  0  0  0  0
  5 16  3  0  0  0  0
  6 22  3  0  0  0  0
  7 10  1  0  0  0  0
  7 11  1  0  0  0  0
  7 12  1  0  0  0  0
  7 16  1  1  0  0  0
  8 10  1  0  0  0  0
  8 14  1  0  0  0  0
  9 11  1  0  0  0  0
  9 15  1  0  0  0  0
 12 17  2  0  0  0  0
 12 18  1  0  0  0  0
 14 15  1  0  0  0  0
 17 19  1  0  0  0  0
 19 21  2  0  0  0  0
 19 22  1  0  0  0  0
 20 23  1  0  0  0  0
 20 24  1  0  0  0  0
 20 25  1  0  0  0  0
M  END
> <PUBCHEM_COMPOUND_ID_TYPE>
0

> <PUBCHEM_TOTAL_CHARGE>
0

> <PUBCHEM_SUBSTANCE_ID>
310938070

> <PUBCHEM_SUBSTANCE_VERSION>
1

> <PUBCHEM_EXT_DATASOURCE_NAME>
4488

> <PUBCHEM_EXT_DATASOURCE_REGID>
SCHEMBL16115912

> <PUBCHEM_SUBSTANCE_COMMENT>
InChI=1S/C19H22N4O2/c1-18(2,3)25-17(24)23-15-4-5-16(23)8-19(7-15,12-21)14-6-13(9-20)10-22-11-14/h6,10-11,15-16H,4-5,7-8H2,1-3H3/t15-,16+,19-
InChIKey=WIMRNANKDDDMMD-HGKCTWBKSA-N

> <PUBCHEM_SUBSTANCE_SYNONYM>
SCHEMBL16115912

> <PUBCHEM_XREF_EXT_ID>
SCHEMBL16115912

> <PUBCHEM_EXT_DATASOURCE_URL>
https://www.surechembl.org/

> <PUBCHEM_EXT_SUBSTANCE_URL>
https://www.surechembl.org/chemical/SCHEMBL16115912

> <PUBCHEM_CID_ASSOCIATIONS>
117605641  1

> <PUBCHEM_COORDINATE_TYPE>
1
3

> <PUBCHEM_BONDANNOTATIONS>
8  3  5
9  3  6
7  16  5

$$$$
