310942538
  -OEChem-07211613022D

 66 74  0     1  0  0  0  0  0999 V2000
   -3.1339    2.6727    0.0000 F   0  0  0  0  0  0  0  0  0  0  0  0
   -3.1339   -0.6603    0.0000 F   0  0  0  0  0  0  0  0  0  0  0  0
   -1.8761   -2.4631    0.0000 O   0  0  0  0  0  0  0  0  0  0  0  0
    1.5617   -0.4716    0.0000 O   0  0  0  0  0  0  0  0  0  0  0  0
   -0.3878    0.6603    0.0000 O   0  0  0  0  0  0  0  0  0  0  0  0
    1.6665    4.2658    0.0000 O   0  0  0  0  0  0  0  0  0  0  0  0
   -2.1696   -1.1215    0.0000 O   0  0  0  0  0  0  0  0  0  0  0  0
    3.5741   -1.7084    0.0000 O   0  0  0  0  0  0  0  0  0  0  0  0
    2.1486   -1.8342    0.0000 O   0  0  0  0  0  0  0  0  0  0  0  0
    0.8490    1.3940    0.0000 N   0  0  0  0  0  0  0  0  0  0  0  0
   -0.8070    2.8404    0.0000 N   0  0  0  0  0  0  0  0  0  0  0  0
   -0.9537    1.4988    0.0000 N   0  0  0  0  0  0  0  0  0  0  0  0
    0.1153   -1.2891    0.0000 N   0  0  0  0  0  0  0  0  0  0  0  0
    2.6727   -0.5346    0.0000 N   0  0  0  0  0  0  0  0  0  0  0  0
   -0.4088    2.1277    0.0000 C   0  0  0  0  0  0  0  0  0  0  0  0
    0.4297    2.1067    0.0000 C   0  0  3  0  0  0  0  0  0  0  0  0
   -2.7565   -3.5950    0.0000 C   0  0  0  0  0  0  0  0  0  0  0  0
   -3.5321   -3.8885    0.0000 C   0  0  0  0  0  0  0  0  0  0  0  0
   -2.2325   -4.2029    0.0000 C   0  0  0  0  0  0  0  0  0  0  0  0
   -3.4482   -4.7270    0.0000 C   0  0  0  0  0  0  0  0  0  0  0  0
   -2.6517   -4.9366    0.0000 C   0  0  0  0  0  0  0  0  0  0  0  0
   -1.7084    1.8342    0.0000 C   0  0  0  0  0  0  0  0  0  0  0  0
    0.8280    2.8194    0.0000 C   0  0  0  0  0  0  0  0  0  0  0  0
   -1.6036    2.6517    0.0000 C   0  0  0  0  0  0  0  0  0  0  0  0
    0.4716    0.6603    0.0000 C   0  0  0  0  0  0  0  0  0  0  0  0
   -2.4211    1.4149    0.0000 C   0  0  0  0  0  0  0  0  0  0  0  0
    1.6665    1.3730    0.0000 C   0  0  0  0  0  0  0  0  0  0  0  0
    0.8280   -0.0524    0.0000 C   0  0  3  0  0  0  0  0  0  0  0  0
   -0.3878    3.5531    0.0000 C   0  0  0  0  0  0  0  0  0  0  0  0
   -2.5679   -2.8194    0.0000 C   0  0  0  0  0  0  0  0  0  0  0  0
   -1.3940   -4.2448    0.0000 C   0  0  0  0  0  0  0  0  0  0  0  0
   -4.2658   -3.5112    0.0000 C   0  0  0  0  0  0  0  0  0  0  0  0
   -2.2535   -5.6703    0.0000 C   0  0  0  0  0  0  0  0  0  0  0  0
   -4.1610   -5.1882    0.0000 C   0  0  0  0  0  0  0  0  0  0  0  0
   -3.1339    1.8342    0.0000 C   0  0  0  0  0  0  0  0  0  0  0  0
    2.0857    0.6813    0.0000 C   0  0  3  0  0  0  0  0  0  0  0  0
    0.4297    3.5321    0.0000 C   0  0  0  0  0  0  0  0  0  0  0  0
    1.6665    2.8194    0.0000 C   0  0  0  0  0  0  0  0  0  0  0  0
   -2.4421    0.5765    0.0000 C   0  0  0  0  0  0  0  0  0  0  0  0
    0.1362   -0.4716    0.0000 C   0  0  0  0  0  0  0  0  0  0  0  0
   -0.8070    4.2658    0.0000 C   0  0  0  0  0  0  0  0  0  0  0  0
   -1.7084   -1.7084    0.0000 C   0  0  0  0  0  0  0  0  0  0  0  0
   -1.0167   -4.9785    0.0000 C   0  0  0  0  0  0  0  0  0  0  0  0
   -4.9576   -3.9933    0.0000 C   0  0  0  0  0  0  0  0  0  0  0  0
   -1.4569   -5.6912    0.0000 C   0  0  0  0  0  0  0  0  0  0  0  0
   -4.9156   -4.8318    0.0000 C   0  0  0  0  0  0  0  0  0  0  0  0
   -3.1339    0.1782    0.0000 C   0  0  0  0  0  0  0  0  0  0  0  0
    1.9809   -0.1153    0.0000 C   0  0  0  0  0  0  0  0  0  0  0  0
   -3.8256    1.4149    0.0000 C   0  0  0  0  0  0  0  0  0  0  0  0
    2.8823    0.7861    0.0000 C   0  0  0  0  0  0  0  0  0  0  0  0
    0.8280    4.2658    0.0000 C   0  0  0  0  0  0  0  0  0  0  0  0
    2.0857    3.5531    0.0000 C   0  0  0  0  0  0  0  0  0  0  0  0
    0.8700   -1.7084    0.0000 C   0  0  0  0  0  0  0  0  0  0  0  0
   -3.8256    0.5765    0.0000 C   0  0  0  0  0  0  0  0  0  0  0  0
    1.5408   -1.3102    0.0000 C   0  0  0  0  0  0  0  0  0  0  0  0
    3.2596    0.0524    0.0000 C   0  0  0  0  0  0  0  0  0  0  0  0
   -1.6455    4.3077    0.0000 C   0  0  0  0  0  0  0  0  0  0  0  0
   -0.4088    4.9785    0.0000 C   0  0  0  0  0  0  0  0  0  0  0  0
    2.7985   -1.3521    0.0000 C   0  0  0  0  0  0  0  0  0  0  0  0
   -2.0229    4.9995    0.0000 C   0  0  0  0  0  0  0  0  0  0  0  0
   -0.8070    5.6912    0.0000 C   0  0  0  0  0  0  0  0  0  0  0  0
   -1.6245    5.6912    0.0000 C   0  0  0  0  0  0  0  0  0  0  0  0
    4.2868   -1.2473    0.0000 C   0  0  0  0  0  0  0  0  0  0  0  0
    4.7689   -1.8342    0.0000 C   0  0  0  0  0  0  0  0  0  0  0  0
    3.8256   -0.6184    0.0000 C   0  0  0  0  0  0  0  0  0  0  0  0
    4.9576   -0.7442    0.0000 C   0  0  0  0  0  0  0  0  0  0  0  0
  1 35  1  0  0  0  0
  2 47  1  0  0  0  0
  3 30  1  0  0  0  0
  3 42  1  0  0  0  0
  4 28  1  0  0  0  0
  4 55  1  0  0  0  0
  5 25  2  0  0  0  0
  6 51  1  0  0  0  0
  6 52  1  0  0  0  0
  7 42  2  0  0  0  0
  8 59  1  0  0  0  0
  8 63  1  0  0  0  0
  9 59  2  0  0  0  0
 16 10  1  1  0  0  0
 10 25  1  0  0  0  0
 10 27  1  0  0  0  0
 11 15  1  0  0  0  0
 11 24  1  0  0  0  0
 11 29  1  0  0  0  0
 12 15  2  0  0  0  0
 12 22  1  0  0  0  0
 13 40  1  0  0  0  0
 13 42  1  0  0  0  0
 13 53  1  0  0  0  0
 14 48  1  0  0  0  0
 14 56  1  0  0  0  0
 14 59  1  0  0  0  0
 15 16  1  0  0  0  0
 16 23  1  0  0  0  0
 17 18  1  0  0  0  0
 17 19  1  0  0  0  0
 17 30  1  0  0  0  0
 18 20  2  0  0  0  0
 18 32  1  0  0  0  0
 19 21  2  0  0  0  0
 19 31  1  0  0  0  0
 20 21  1  0  0  0  0
 20 34  1  0  0  0  0
 21 33  1  0  0  0  0
 22 24  2  0  0  0  0
 22 26  1  0  0  0  0
 23 37  1  0  0  0  0
 23 38  1  0  0  0  0
 28 25  1  6  0  0  0
 26 35  1  0  0  0  0
 26 39  2  0  0  0  0
 36 27  1  1  0  0  0
 28 40  1  0  0  0  0
 29 41  1  0  0  0  0
 31 43  2  0  0  0  0
 32 44  2  0  0  0  0
 33 45  2  0  0  0  0
 34 46  2  0  0  0  0
 35 49  2  0  0  0  0
 36 48  1  0  0  0  0
 36 50  1  0  0  0  0
 37 51  1  0  0  0  0
 38 52  1  0  0  0  0
 39 47  1  0  0  0  0
 41 57  2  0  0  0  0
 41 58  1  0  0  0  0
 43 45  1  0  0  0  0
 44 46  1  0  0  0  0
 47 54  2  0  0  0  0
 49 54  1  0  0  0  0
 50 56  1  0  0  0  0
 53 55  1  0  0  0  0
 57 60  1  0  0  0  0
 58 61  2  0  0  0  0
 60 62  2  0  0  0  0
 61 62  1  0  0  0  0
 63 64  1  0  0  0  0
 63 65  1  0  0  0  0
 63 66  1  0  0  0  0
M  END
> <PUBCHEM_COMPOUND_ID_TYPE>
0

> <PUBCHEM_TOTAL_CHARGE>
0

> <PUBCHEM_SUBSTANCE_ID>
310942538

> <PUBCHEM_SUBSTANCE_VERSION>
1

> <PUBCHEM_EXT_DATASOURCE_NAME>
4488

> <PUBCHEM_EXT_DATASOURCE_REGID>
SCHEMBL16120576

> <PUBCHEM_SUBSTANCE_COMMENT>
InChI=1S/C52H57F2N5O7/c1-52(2,3)66-51(62)56-22-19-35(29-56)30-59(49(60)46-32-57(23-26-64-46)50(61)65-33-43-40-15-9-7-13-38(40)39-14-8-10-16-41(39)43)47(36-20-24-63-25-21-36)48-55-45(42-27-37(53)17-18-44(42)54)31-58(48)28-34-11-5-4-6-12-34/h4-18,27,31,35-36,43,46-47H,19-26,28-30,32-33H2,1-3H3/t35-,46+,47+/m0/s1
InChIKey=IOSVFCSWGYUBKV-VEEOEFAPSA-N

> <PUBCHEM_SUBSTANCE_SYNONYM>
SCHEMBL16120576

> <PUBCHEM_XREF_EXT_ID>
SCHEMBL16120576

> <PUBCHEM_EXT_DATASOURCE_URL>
https://www.surechembl.org/

> <PUBCHEM_EXT_SUBSTANCE_URL>
https://www.surechembl.org/chemical/SCHEMBL16120576

> <PUBCHEM_CID_ASSOCIATIONS>
117609096  1

> <PUBCHEM_COORDINATE_TYPE>
1
3

> <PUBCHEM_BONDANNOTATIONS>
16  10  5
28  25  6
36  27  5

$$$$
