310933315
  -OEChem-07211613022D

 44 49  0     1  0  0  0  0  0999 V2000
    4.5648   -5.2978    0.0000 O   0  0  0  0  0  0  0  0  0  0  0  0
    2.4989   -0.7330    0.0000 O   0  0  0  0  0  0  0  0  0  0  0  0
    6.1974   -3.0987    0.0000 N   0  0  0  0  0  0  0  0  0  0  0  0
    6.2974   -3.8984    0.0000 N   0  0  0  0  0  0  0  0  0  0  0  0
    3.7318   -2.9321    0.0000 N   0  0  0  0  0  0  0  0  0  0  0  0
    3.7318   -1.4660    0.0000 N   0  0  0  0  0  0  0  0  0  0  0  0
    2.4989   -2.1657    0.0000 N   0  0  0  0  0  0  0  0  0  0  0  0
    6.7972   -2.5323    0.0000 C   0  0  0  0  0  0  0  0  0  0  0  0
    5.3978   -2.8988    0.0000 C   0  0  0  0  0  0  0  0  0  0  0  0
    7.4302   -1.9659    0.0000 C   0  0  0  0  0  0  0  0  0  0  0  0
    6.2307   -1.8992    0.0000 C   0  0  0  0  0  0  0  0  0  0  0  0
    7.3636   -3.1321    0.0000 C   0  0  0  0  0  0  0  0  0  0  0  0
    4.9646   -3.6318    0.0000 C   0  0  0  0  0  0  0  0  0  0  0  0
    5.5310   -4.2316    0.0000 C   0  0  0  0  0  0  0  0  0  0  0  0
    4.9646   -2.1657    0.0000 C   0  0  0  0  0  0  0  0  0  0  0  0
    4.1316   -3.6318    0.0000 C   0  0  0  0  0  0  0  0  0  0  0  0
    5.4311   -2.0658    0.0000 C   0  0  0  0  0  0  0  0  0  0  0  0
    7.2304   -1.1662    0.0000 C   0  0  0  0  0  0  0  0  0  0  0  0
    8.1632   -2.9654    0.0000 C   0  0  0  0  0  0  0  0  0  0  0  0
    8.1966   -2.2324    0.0000 C   0  0  0  0  0  0  0  0  0  0  0  0
    6.4973   -1.1329    0.0000 C   0  0  0  0  0  0  0  0  0  0  0  0
    7.0970   -3.9317    0.0000 C   0  0  0  0  0  0  0  0  0  0  0  0
    4.1649   -2.1657    0.0000 C   0  0  0  0  0  0  0  0  0  0  0  0
    5.3645   -5.0313    0.0000 C   0  0  0  0  0  0  0  0  0  0  0  0
    4.8646   -1.4660    0.0000 C   0  0  0  0  0  0  0  0  0  0  0  0
    7.8634   -0.5997    0.0000 C   0  0  0  0  0  0  0  0  0  0  0  0
    8.7297   -3.5652    0.0000 C   0  0  0  0  0  0  0  0  0  0  0  0
    8.8297   -1.6660    0.0000 C   0  0  0  0  0  0  0  0  0  0  0  0
    5.9308   -0.4998    0.0000 C   0  0  0  0  0  0  0  0  0  0  0  0
    7.6635   -4.5648    0.0000 C   0  0  0  0  0  0  0  0  0  0  0  0
    5.1312   -0.6664    0.0000 C   0  0  0  0  0  0  0  0  0  0  0  0
    8.6631   -0.8663    0.0000 C   0  0  0  0  0  0  0  0  0  0  0  0
    8.4631   -4.3648    0.0000 C   0  0  0  0  0  0  0  0  0  0  0  0
    2.8988   -1.4660    0.0000 C   0  0  0  0  0  0  0  0  0  0  0  0
    4.3981   -6.0975    0.0000 C   0  0  0  0  0  0  0  0  0  0  0  0
    1.6660   -2.1657    0.0000 C   0  0  3  0  0  0  0  0  0  0  0  0
    1.2328   -1.4327    0.0000 C   0  0  0  0  0  0  0  0  0  0  0  0
    4.9980   -6.6639    0.0000 C   0  0  0  0  0  0  0  0  0  0  0  0
    1.2328   -2.8988    0.0000 C   0  0  0  0  0  0  0  0  0  0  0  0
    0.3998   -1.4327    0.0000 C   0  0  0  0  0  0  0  0  0  0  0  0
    1.6660   -0.7330    0.0000 C   0  0  0  0  0  0  0  0  0  0  0  0
    0.0000   -0.7330    0.0000 C   0  0  0  0  0  0  0  0  0  0  0  0
    1.2328    0.0000    0.0000 C   0  0  0  0  0  0  0  0  0  0  0  0
    0.4332    0.0000    0.0000 C   0  0  0  0  0  0  0  0  0  0  0  0
  1 24  1  0  0  0  0
  1 35  1  0  0  0  0
  2 34  2  0  0  0  0
  3  4  1  0  0  0  0
  3  8  1  0  0  0  0
  3  9  1  0  0  0  0
  4 14  2  0  0  0  0
  5 16  1  0  0  0  0
  5 23  2  0  0  0  0
  6 23  1  0  0  0  0
  6 34  1  0  0  0  0
  7 34  1  0  0  0  0
  7 36  1  0  0  0  0
  8 10  1  0  0  0  0
  8 11  1  0  0  0  0
  8 12  1  0  0  0  0
  9 13  1  0  0  0  0
  9 15  2  0  0  0  0
 10 18  2  0  0  0  0
 10 20  1  0  0  0  0
 11 17  2  0  0  0  0
 11 21  1  0  0  0  0
 12 19  2  0  0  0  0
 12 22  1  0  0  0  0
 13 14  1  0  0  0  0
 13 16  2  0  0  0  0
 14 24  1  0  0  0  0
 15 23  1  0  0  0  0
 17 25  1  0  0  0  0
 18 26  1  0  0  0  0
 19 27  1  0  0  0  0
 20 28  2  0  0  0  0
 21 29  2  0  0  0  0
 22 30  2  0  0  0  0
 25 31  2  0  0  0  0
 26 32  2  0  0  0  0
 27 33  2  0  0  0  0
 28 32  1  0  0  0  0
 29 31  1  0  0  0  0
 30 33  1  0  0  0  0
 35 38  1  0  0  0  0
 36 37  1  0  0  0  0
 36 39  1  6  0  0  0
 37 40  2  0  0  0  0
 37 41  1  0  0  0  0
 40 42  1  0  0  0  0
 41 43  2  0  0  0  0
 42 44  2  0  0  0  0
 43 44  1  0  0  0  0
M  END
> <PUBCHEM_COMPOUND_ID_TYPE>
0

> <PUBCHEM_TOTAL_CHARGE>
0

> <PUBCHEM_SUBSTANCE_ID>
310933315

> <PUBCHEM_SUBSTANCE_VERSION>
1

> <PUBCHEM_EXT_DATASOURCE_NAME>
4488

> <PUBCHEM_EXT_DATASOURCE_REGID>
SCHEMBL16110726

> <PUBCHEM_SUBSTANCE_COMMENT>
InChI=1S/C37H35N5O2/c1-3-44-26-33-32-25-38-35(40-36(43)39-27(2)28-16-8-4-9-17-28)24-34(32)42(41-33)37(29-18-10-5-11-19-29,30-20-12-6-13-21-30)31-22-14-7-15-23-31/h4-25,27H,3,26H2,1-2H3,(H2,38,39,40,43)/t27-/m1/s1
InChIKey=OHWDJLSTQWAFDT-HHHXNRCGSA-N

> <PUBCHEM_SUBSTANCE_SYNONYM>
SCHEMBL16110726

> <PUBCHEM_XREF_EXT_ID>
SCHEMBL16110726

> <PUBCHEM_EXT_DATASOURCE_URL>
https://www.surechembl.org/

> <PUBCHEM_EXT_SUBSTANCE_URL>
https://www.surechembl.org/chemical/SCHEMBL16110726

> <PUBCHEM_CID_ASSOCIATIONS>
117601729  1

> <PUBCHEM_COORDINATE_TYPE>
1
3

> <PUBCHEM_BONDANNOTATIONS>
36  39  6

$$$$
