310934910
  -OEChem-07211613022D

 30 33  0     0  0  0  0  0  0999 V2000
    1.9593   -8.6623    0.0000 O   0  0  0  0  0  0  0  0  0  0  0  0
    0.5672   -8.6623    0.0000 O   0  0  0  0  0  0  0  0  0  0  0  0
    1.2890   -5.8265    0.0000 N   0  0  0  0  0  0  0  0  0  0  0  0
    0.5672   -1.2890    0.0000 N   0  0  0  0  0  0  0  0  0  0  0  0
    1.2890   -7.4765    0.0000 N   0  0  0  0  0  0  0  0  0  0  0  0
    2.0109   -1.2890    0.0000 N   0  0  0  0  0  0  0  0  0  0  0  0
    0.0000   -0.7734    0.0000 N   0  0  0  0  0  0  0  0  0  0  0  0
    3.4031   -4.5890    0.0000 N   0  0  0  0  0  0  0  0  0  0  0  0
    1.2890   -5.0015    0.0000 C   0  0  0  0  0  0  0  0  0  0  0  0
    1.2890   -3.3515    0.0000 C   0  0  0  0  0  0  0  0  0  0  0  0
    1.2890   -2.5265    0.0000 C   0  0  0  0  0  0  0  0  0  0  0  0
    1.9593   -4.5890    0.0000 C   0  0  0  0  0  0  0  0  0  0  0  0
    1.9593   -3.7640    0.0000 C   0  0  0  0  0  0  0  0  0  0  0  0
    1.3406   -0.8766    0.0000 C   0  0  0  0  0  0  0  0  0  0  0  0
    0.5672   -2.1140    0.0000 C   0  0  0  0  0  0  0  0  0  0  0  0
    0.5672   -4.5890    0.0000 C   0  0  0  0  0  0  0  0  0  0  0  0
    0.5672   -3.7640    0.0000 C   0  0  0  0  0  0  0  0  0  0  0  0
    2.0109   -2.1140    0.0000 C   0  0  0  0  0  0  0  0  0  0  0  0
    0.5672   -6.2390    0.0000 C   0  0  0  0  0  0  0  0  0  0  0  0
    2.0109   -6.2390    0.0000 C   0  0  0  0  0  0  0  0  0  0  0  0
    1.1344   -0.1031    0.0000 C   0  0  0  0  0  0  0  0  0  0  0  0
    2.0109   -7.0640    0.0000 C   0  0  0  0  0  0  0  0  0  0  0  0
    0.5672   -7.0640    0.0000 C   0  0  0  0  0  0  0  0  0  0  0  0
    1.2890   -8.3015    0.0000 C   0  0  0  0  0  0  0  0  0  0  0  0
    2.6812   -5.0015    0.0000 C   0  0  0  0  0  0  0  0  0  0  0  0
    0.3094    0.0000    0.0000 C   0  0  0  0  0  0  0  0  0  0  0  0
    1.9593   -9.4873    0.0000 C   0  0  0  0  0  0  0  0  0  0  0  0
    1.1344   -9.4873    0.0000 C   0  0  0  0  0  0  0  0  0  0  0  0
    1.9593  -10.3123    0.0000 C   0  0  0  0  0  0  0  0  0  0  0  0
    2.7843   -9.4873    0.0000 C   0  0  0  0  0  0  0  0  0  0  0  0
  1 24  1  0  0  0  0
  1 27  1  0  0  0  0
  2 24  2  0  0  0  0
  3  9  1  0  0  0  0
  3 19  1  0  0  0  0
  3 20  1  0  0  0  0
  4  7  1  0  0  0  0
  4 14  1  0  0  0  0
  4 15  1  0  0  0  0
  5 22  1  0  0  0  0
  5 23  1  0  0  0  0
  5 24  1  0  0  0  0
  6 14  1  0  0  0  0
  6 18  2  0  0  0  0
  7 26  2  0  0  0  0
  8 25  3  0  0  0  0
  9 12  1  0  0  0  0
  9 16  2  0  0  0  0
 10 11  1  0  0  0  0
 10 13  1  0  0  0  0
 10 17  2  0  0  0  0
 11 15  2  0  0  0  0
 11 18  1  0  0  0  0
 12 13  2  0  0  0  0
 12 25  1  0  0  0  0
 14 21  2  0  0  0  0
 16 17  1  0  0  0  0
 19 23  1  0  0  0  0
 20 22  1  0  0  0  0
 21 26  1  0  0  0  0
 27 28  1  0  0  0  0
 27 29  1  0  0  0  0
 27 30  1  0  0  0  0
M  END
> <PUBCHEM_COMPOUND_ID_TYPE>
0

> <PUBCHEM_TOTAL_CHARGE>
0

> <PUBCHEM_SUBSTANCE_ID>
310934910

> <PUBCHEM_SUBSTANCE_VERSION>
1

> <PUBCHEM_EXT_DATASOURCE_NAME>
4488

> <PUBCHEM_EXT_DATASOURCE_REGID>
SCHEMBL16112423

> <PUBCHEM_SUBSTANCE_COMMENT>
InChI=1S/C22H24N6O2/c1-22(2,3)30-21(29)27-10-8-26(9-11-27)19-5-4-16(12-17(19)13-23)18-14-24-20-6-7-25-28(20)15-18/h4-7,12,14-15H,8-11H2,1-3H3
InChIKey=WVOZEGKJLWLZCD-UHFFFAOYSA-N

> <PUBCHEM_SUBSTANCE_SYNONYM>
SCHEMBL16112423

> <PUBCHEM_XREF_EXT_ID>
SCHEMBL16112423

> <PUBCHEM_EXT_DATASOURCE_URL>
https://www.surechembl.org/

> <PUBCHEM_EXT_SUBSTANCE_URL>
https://www.surechembl.org/chemical/SCHEMBL16112423

> <PUBCHEM_CID_ASSOCIATIONS>
117603036  1

> <PUBCHEM_COORDINATE_TYPE>
1
3

$$$$
