310948522
  -OEChem-07211613022D

 33 38  0     1  0  0  0  0  0999 V2000
   -2.2232    2.5462    0.0000 O   0  0  0  0  0  0  0  0  0  0  0  0
   -2.5236   -0.2179    0.0000 N   0  0  0  0  0  0  0  0  0  0  0  0
   -1.7125   -0.0075    0.0000 N   0  0  0  0  0  0  0  0  0  0  0  0
   -0.9764    1.2843    0.0000 N   0  0  0  0  0  0  0  0  0  0  0  0
   -3.5751    2.0354    0.0000 N   0  0  0  0  0  0  0  0  0  0  0  0
    3.3648   -1.2243    0.0000 N   0  0  0  0  0  0  0  0  0  0  0  0
   -0.6460   -1.3895    0.0000 N   0  0  0  0  0  0  0  0  0  0  0  0
   -2.4635    1.1341    0.0000 C   0  0  0  0  0  0  0  0  0  0  0  0
   -2.9743    0.4732    0.0000 C   0  0  0  0  0  0  0  0  0  0  0  0
   -1.6674    0.8337    0.0000 C   0  0  0  0  0  0  0  0  0  0  0  0
   -2.8241   -1.0139    0.0000 C   0  0  3  0  0  0  0  0  0  0  0  0
   -2.7640    1.8852    0.0000 C   0  0  0  0  0  0  0  0  0  0  0  0
   -3.8005    0.6234    0.0000 C   0  0  0  0  0  0  0  0  0  0  0  0
   -2.2983   -1.6449    0.0000 C   0  0  3  0  0  0  0  0  0  0  0  0
   -0.2403    0.8637    0.0000 C   0  0  0  0  0  0  0  0  0  0  0  0
   -4.1009    1.3745    0.0000 C   0  0  0  0  0  0  0  0  0  0  0  0
   -3.6502   -1.1341    0.0000 C   0  0  0  0  0  0  0  0  0  0  0  0
    1.2017    0.0375    0.0000 C   0  0  0  0  0  0  0  0  0  0  0  0
    1.9378   -0.3831    0.0000 C   0  0  0  0  0  0  0  0  0  0  0  0
   -2.5988   -2.4110    0.0000 C   0  0  0  0  0  0  0  0  0  0  0  0
    0.4656    1.2693    0.0000 C   0  0  0  0  0  0  0  0  0  0  0  0
   -0.2403    0.0375    0.0000 C   0  0  0  0  0  0  0  0  0  0  0  0
   -1.4722   -1.4946    0.0000 C   0  0  0  0  0  0  0  0  0  0  0  0
   -3.9357   -1.9002    0.0000 C   0  0  0  0  0  0  0  0  0  0  0  0
    2.6287   -1.5999    0.0000 C   0  0  3  0  0  0  0  0  0  0  0  0
    3.3347   -0.3831    0.0000 C   0  0  3  0  0  0  0  0  0  0  0  0
    1.2017    0.8487    0.0000 C   0  0  0  0  0  0  0  0  0  0  0  0
    0.4807   -0.3831    0.0000 C   0  0  0  0  0  0  0  0  0  0  0  0
    1.9378   -1.2243    0.0000 C   0  0  0  0  0  0  0  0  0  0  0  0
    2.6438    0.0225    0.0000 C   0  0  0  0  0  0  0  0  0  0  0  0
   -3.4099   -2.5462    0.0000 C   0  0  0  0  0  0  0  0  0  0  0  0
    2.3434   -1.0290    0.0000 C   0  0  0  0  0  0  0  0  0  0  0  0
    2.6739   -0.4281    0.0000 C   0  0  0  0  0  0  0  0  0  0  0  0
  1 12  2  0  0  0  0
  2  3  1  0  0  0  0
  2  9  1  0  0  0  0
 11  2  1  6  0  0  0
  3 10  2  0  0  0  0
  4 10  1  0  0  0  0
  4 15  1  0  0  0  0
  5 12  1  0  0  0  0
  5 16  1  0  0  0  0
  6 25  1  0  0  0  0
  6 26  1  0  0  0  0
  7 23  3  0  0  0  0
  8  9  2  0  0  0  0
  8 10  1  0  0  0  0
  8 12  1  0  0  0  0
  9 13  1  0  0  0  0
 11 14  1  0  0  0  0
 11 17  1  0  0  0  0
 13 16  2  0  0  0  0
 14 20  1  0  0  0  0
 14 23  1  1  0  0  0
 15 21  2  0  0  0  0
 15 22  1  0  0  0  0
 17 24  1  0  0  0  0
 18 19  1  0  0  0  0
 18 27  2  0  0  0  0
 18 28  1  0  0  0  0
 19 29  1  6  0  0  0
 19 30  1  0  0  0  0
 20 31  1  0  0  0  0
 21 27  1  0  0  0  0
 22 28  2  0  0  0  0
 24 31  1  0  0  0  0
 25 29  1  1  0  0  0
 25 32  1  0  0  0  0
 26 30  1  1  0  0  0
 26 33  1  0  0  0  0
 32 33  1  0  0  0  0
M  END
> <PUBCHEM_COMPOUND_ID_TYPE>
0

> <PUBCHEM_TOTAL_CHARGE>
0

> <PUBCHEM_SUBSTANCE_ID>
310948522

> <PUBCHEM_SUBSTANCE_VERSION>
1

> <PUBCHEM_EXT_DATASOURCE_NAME>
4488

> <PUBCHEM_EXT_DATASOURCE_REGID>
SCHEMBL16126704

> <PUBCHEM_SUBSTANCE_COMMENT>
InChI=1S/C26H30N6O/c27-15-17-3-1-2-4-22(17)32-23-11-12-28-26(33)24(23)25(31-32)30-19-7-5-16(6-8-19)18-13-20-9-10-21(14-18)29-20/h5-8,11-12,17-18,20-22,29H,1-4,9-10,13-14H2,(H,28,33)(H,30,31)/t17-,18-,20+,21-,22+/m1/s1
InChIKey=XCRURJVKVSWTAM-MPAQAYSTSA-N

> <PUBCHEM_SUBSTANCE_SYNONYM>
SCHEMBL16126704

> <PUBCHEM_XREF_EXT_ID>
SCHEMBL16126704

> <PUBCHEM_EXT_DATASOURCE_URL>
https://www.surechembl.org/

> <PUBCHEM_EXT_SUBSTANCE_URL>
https://www.surechembl.org/chemical/SCHEMBL16126704

> <PUBCHEM_CID_ASSOCIATIONS>
117614079  1

> <PUBCHEM_COORDINATE_TYPE>
1
3

> <PUBCHEM_BONDANNOTATIONS>
14  23  5
19  29  6
11  2  6
25  29  5
26  30  5

$$$$
