310929225
  -OEChem-07211613022D

 32 34  0     0  0  0  0  0  0999 V2000
   12.0446   -2.9213    0.0000 O   0  0  0  0  0  0  0  0  0  0  0  0
    0.0000   -4.1347    0.0000 O   0  0  0  0  0  0  0  0  0  0  0  0
   10.6963   -3.7302    0.0000 N   0  0  0  0  0  0  0  0  0  0  0  0
   11.3704   -4.1347    0.0000 C   0  0  0  0  0  0  0  0  0  0  0  0
   11.3704   -4.9437    0.0000 C   0  0  0  0  0  0  0  0  0  0  0  0
   12.0895   -3.7302    0.0000 C   0  0  0  0  0  0  0  0  0  0  0  0
    9.9323   -4.1347    0.0000 C   0  0  0  0  0  0  0  0  0  0  0  0
   10.6963   -5.3931    0.0000 C   0  0  0  0  0  0  0  0  0  0  0  0
   12.0895   -5.3931    0.0000 C   0  0  0  0  0  0  0  0  0  0  0  0
   12.8085   -4.1347    0.0000 C   0  0  0  0  0  0  0  0  0  0  0  0
    9.9772   -4.9886    0.0000 C   0  0  0  0  0  0  0  0  0  0  0  0
   12.8085   -4.9437    0.0000 C   0  0  0  0  0  0  0  0  0  0  0  0
    9.2581   -3.7302    0.0000 C   0  0  0  0  0  0  0  0  0  0  0  0
   12.7636   -2.4718    0.0000 C   0  0  0  0  0  0  0  0  0  0  0  0
   12.7636   -1.6628    0.0000 C   0  0  0  0  0  0  0  0  0  0  0  0
    8.5390   -4.1347    0.0000 C   0  0  0  0  0  0  0  0  0  0  0  0
   13.4827   -1.2584    0.0000 C   0  0  0  0  0  0  0  0  0  0  0  0
   12.0446   -1.2584    0.0000 C   0  0  0  0  0  0  0  0  0  0  0  0
   13.4378   -0.4045    0.0000 C   0  0  0  0  0  0  0  0  0  0  0  0
   12.0446   -0.4494    0.0000 C   0  0  0  0  0  0  0  0  0  0  0  0
    7.8200   -3.7302    0.0000 C   0  0  0  0  0  0  0  0  0  0  0  0
   12.7187    0.0000    0.0000 C   0  0  0  0  0  0  0  0  0  0  0  0
    7.1009   -4.1347    0.0000 C   0  0  0  0  0  0  0  0  0  0  0  0
    6.3818   -3.7302    0.0000 C   0  0  0  0  0  0  0  0  0  0  0  0
    5.6628   -4.1347    0.0000 C   0  0  0  0  0  0  0  0  0  0  0  0
    4.9437   -3.7302    0.0000 C   0  0  0  0  0  0  0  0  0  0  0  0
    4.2695   -4.1347    0.0000 C   0  0  0  0  0  0  0  0  0  0  0  0
    3.5504   -3.7302    0.0000 C   0  0  0  0  0  0  0  0  0  0  0  0
    2.8314   -4.1347    0.0000 C   0  0  0  0  0  0  0  0  0  0  0  0
    2.1123   -3.7302    0.0000 C   0  0  0  0  0  0  0  0  0  0  0  0
    1.3932   -4.1347    0.0000 C   0  0  0  0  0  0  0  0  0  0  0  0
    0.7191   -3.7302    0.0000 C   0  0  0  0  0  0  0  0  0  0  0  0
  1  6  1  0  0  0  0
  1 14  1  0  0  0  0
  2 32  1  0  0  0  0
  3  4  2  0  0  0  0
  3  7  1  0  0  0  0
  4  5  1  0  0  0  0
  4  6  1  0  0  0  0
  5  8  2  0  0  0  0
  5  9  1  0  0  0  0
  6 10  2  0  0  0  0
  7 11  2  0  0  0  0
  7 13  1  0  0  0  0
  8 11  1  0  0  0  0
  9 12  2  0  0  0  0
 10 12  1  0  0  0  0
 13 16  1  0  0  0  0
 14 15  1  0  0  0  0
 15 17  2  0  0  0  0
 15 18  1  0  0  0  0
 16 21  1  0  0  0  0
 17 19  1  0  0  0  0
 18 20  2  0  0  0  0
 19 22  2  0  0  0  0
 20 22  1  0  0  0  0
 21 23  1  0  0  0  0
 23 24  1  0  0  0  0
 24 25  1  0  0  0  0
 25 26  1  0  0  0  0
 26 27  1  0  0  0  0
 27 28  1  0  0  0  0
 28 29  1  0  0  0  0
 29 30  1  0  0  0  0
 30 31  1  0  0  0  0
 31 32  1  0  0  0  0
M  END
> <PUBCHEM_COMPOUND_ID_TYPE>
0

> <PUBCHEM_TOTAL_CHARGE>
0

> <PUBCHEM_SUBSTANCE_ID>
310929225

> <PUBCHEM_SUBSTANCE_VERSION>
1

> <PUBCHEM_EXT_DATASOURCE_NAME>
4488

> <PUBCHEM_EXT_DATASOURCE_REGID>
SCHEMBL16106388

> <PUBCHEM_SUBSTANCE_COMMENT>
InChI=1S/C29H39NO2/c31-23-14-9-7-5-3-1-2-4-6-8-13-19-27-22-21-26-18-15-20-28(29(26)30-27)32-24-25-16-11-10-12-17-25/h10-12,15-18,20-22,31H,1-9,13-14,19,23-24H2
InChIKey=ZMKCKFHLLPDEOK-UHFFFAOYSA-N

> <PUBCHEM_SUBSTANCE_SYNONYM>
SCHEMBL16106388

> <PUBCHEM_XREF_EXT_ID>
SCHEMBL16106388

> <PUBCHEM_EXT_DATASOURCE_URL>
https://www.surechembl.org/

> <PUBCHEM_EXT_SUBSTANCE_URL>
https://www.surechembl.org/chemical/SCHEMBL16106388

> <PUBCHEM_CID_ASSOCIATIONS>
85473327  1

> <PUBCHEM_COORDINATE_TYPE>
1
3

$$$$
