310945889
  -OEChem-07211613022D

 32 36  0     1  0  0  0  0  0999 V2000
    0.0518    2.7226    0.0000 F   0  0  0  0  0  0  0  0  0  0  0  0
    0.3623    1.6459    0.0000 F   0  0  0  0  0  0  0  0  0  0  0  0
   -0.6936    1.3561    0.0000 F   0  0  0  0  0  0  0  0  0  0  0  0
   -2.4534   -2.6190    0.0000 O   0  0  0  0  0  0  0  0  0  0  0  0
    1.2940   -0.7350    0.0000 O   0  0  0  0  0  0  0  0  0  0  0  0
   -1.7287   -1.3768    0.0000 N   0  0  0  0  0  0  0  0  0  0  0  0
   -0.2381   -2.3499    0.0000 N   0  0  0  0  0  0  0  0  0  0  0  0
   -1.0041   -3.4472    0.0000 N   0  0  0  0  0  0  0  0  0  0  0  0
   -0.2174   -3.6956    0.0000 N   0  0  0  0  0  0  0  0  0  0  0  0
   -2.1636   -0.0724    0.0000 C   0  0  3  0  0  0  0  0  0  0  0  0
   -1.3561   -0.0518    0.0000 C   0  0  3  0  0  0  0  0  0  0  0  0
   -1.0041   -2.6190    0.0000 C   0  0  0  0  0  0  0  0  0  0  0  0
   -1.7495   -2.2050    0.0000 C   0  0  0  0  0  0  0  0  0  0  0  0
   -1.7495    1.1698    0.0000 C   0  0  0  0  0  0  0  0  0  0  0  0
   -1.7702    2.0808    0.0000 C   0  0  0  0  0  0  0  0  0  0  0  0
   -2.4120   -0.8592    0.0000 C   0  0  0  0  0  0  0  0  0  0  0  0
   -1.0869   -0.8799    0.0000 C   0  0  0  0  0  0  0  0  0  0  0  0
    0.2588   -3.0124    0.0000 C   0  0  0  0  0  0  0  0  0  0  0  0
   -2.4120    0.6936    0.0000 C   0  0  0  0  0  0  0  0  0  0  0  0
   -1.0869    0.6936    0.0000 C   0  0  0  0  0  0  0  0  0  0  0  0
   -1.0869    2.4534    0.0000 C   0  0  0  0  0  0  0  0  0  0  0  0
    0.1139   -1.6045    0.0000 C   0  0  0  0  0  0  0  0  0  0  0  0
   -0.3416    2.0394    0.0000 C   0  0  0  0  0  0  0  0  0  0  0  0
    0.9627   -1.4803    0.0000 C   0  0  0  0  0  0  0  0  0  0  0  0
    1.1077   -2.9296    0.0000 C   0  0  0  0  0  0  0  0  0  0  0  0
   -2.4948    2.4534    0.0000 C   0  0  0  0  0  0  0  0  0  0  0  0
    1.4596   -2.1842    0.0000 C   0  0  0  0  0  0  0  0  0  0  0  0
   -1.0663    3.2609    0.0000 C   0  0  0  0  0  0  0  0  0  0  0  0
   -2.4948    3.2816    0.0000 C   0  0  0  0  0  0  0  0  0  0  0  0
   -1.7909    3.6956    0.0000 C   0  0  0  0  0  0  0  0  0  0  0  0
    2.0808   -0.7350    0.0000 C   0  0  0  0  0  0  0  0  0  0  0  0
    2.4948   -1.4596    0.0000 C   0  0  0  0  0  0  0  0  0  0  0  0
  1 23  1  0  0  0  0
  2 23  1  0  0  0  0
  3 23  1  0  0  0  0
  4 13  2  0  0  0  0
  5 24  1  0  0  0  0
  5 31  1  0  0  0  0
  6 13  1  0  0  0  0
  6 16  1  0  0  0  0
  6 17  1  0  0  0  0
  7 12  1  0  0  0  0
  7 18  1  0  0  0  0
  7 22  1  0  0  0  0
  8  9  1  0  0  0  0
  8 12  2  0  0  0  0
  9 18  2  0  0  0  0
 10 11  1  0  0  0  0
 10 16  1  0  0  0  0
 10 19  1  0  0  0  0
 11 17  1  0  0  0  0
 11 20  1  0  0  0  0
 12 13  1  0  0  0  0
 14 15  1  0  0  0  0
 14 19  1  1  0  0  0
 14 20  1  0  0  0  0
 15 21  2  0  0  0  0
 15 26  1  0  0  0  0
 18 25  1  0  0  0  0
 21 23  1  0  0  0  0
 21 28  1  0  0  0  0
 22 24  2  0  0  0  0
 24 27  1  0  0  0  0
 25 27  2  0  0  0  0
 26 29  2  0  0  0  0
 28 30  2  0  0  0  0
 29 30  1  0  0  0  0
 31 32  1  0  0  0  0
M  END
> <PUBCHEM_COMPOUND_ID_TYPE>
0

> <PUBCHEM_TOTAL_CHARGE>
0

> <PUBCHEM_SUBSTANCE_ID>
310945889

> <PUBCHEM_SUBSTANCE_VERSION>
1

> <PUBCHEM_EXT_DATASOURCE_NAME>
4488

> <PUBCHEM_EXT_DATASOURCE_REGID>
SCHEMBL16123994

> <PUBCHEM_SUBSTANCE_COMMENT>
InChI=1S/C23H23F3N4O2/c1-2-32-17-7-8-20-27-28-21(30(20)13-17)22(31)29-11-15-9-14(10-16(15)12-29)18-5-3-4-6-19(18)23(24,25)26/h3-8,13-16H,2,9-12H2,1H3
InChIKey=IFLISYPDFOMNGZ-UHFFFAOYSA-N

> <PUBCHEM_SUBSTANCE_SYNONYM>
SCHEMBL16123994

> <PUBCHEM_XREF_EXT_ID>
SCHEMBL16123994

> <PUBCHEM_EXT_DATASOURCE_URL>
https://www.surechembl.org/

> <PUBCHEM_EXT_SUBSTANCE_URL>
https://www.surechembl.org/chemical/SCHEMBL16123994

> <PUBCHEM_CID_ASSOCIATIONS>
117611873  1

> <PUBCHEM_COORDINATE_TYPE>
1
3

> <PUBCHEM_BONDANNOTATIONS>
14  19  5

$$$$
