310929629
  -OEChem-07211613022D

 64 72  0     1  0  0  0  0  0999 V2000
    1.5640   -1.4022    0.0000 S   0  0  0  0  0  0  0  0  0  0  0  0
    3.0202   -0.5393    0.0000 O   0  0  0  0  0  0  0  0  0  0  0  0
    5.0696   -2.8045    0.0000 O   0  0  0  0  0  0  0  0  0  0  0  0
    6.1482   -5.2313    0.0000 O   0  0  0  0  0  0  0  0  0  0  0  0
    1.9955   -0.6472    0.0000 O   0  0  0  0  0  0  0  0  0  0  0  0
    1.1865   -2.1033    0.0000 O   0  0  0  0  0  0  0  0  0  0  0  0
    2.0494   -3.6673    0.0000 O   0  0  0  0  0  0  0  0  0  0  0  0
    7.1729   -8.0898    0.0000 O   0  0  0  0  0  0  0  0  0  0  0  0
    1.5640   -7.2808    0.0000 O   0  0  0  0  0  0  0  0  0  0  0  0
    0.6472   -6.3639    0.0000 O   0  0  0  0  0  0  0  0  0  0  0  0
    4.4224  -10.0852    0.0000 O   0  0  0  0  0  0  0  0  0  0  0  0
    4.7460   -8.6291    0.0000 O   0  0  0  0  0  0  0  0  0  0  0  0
    3.6673   -2.6426    0.0000 N   0  0  0  0  0  0  0  0  0  0  0  0
    2.3190   -1.7797    0.0000 N   0  0  0  0  0  0  0  0  0  0  0  0
    3.3438   -3.9370    0.0000 N   0  0  0  0  0  0  0  0  0  0  0  0
    7.1729   -5.6089    0.0000 N   0  0  0  0  0  0  0  0  0  0  0  0
    1.5640   -5.6089    0.0000 N   0  0  0  0  0  0  0  0  0  0  0  0
    5.7168   -9.7616    0.0000 N   0  0  0  0  0  0  0  0  0  0  0  0
    3.7213   -1.7797    0.0000 C   0  0  3  0  0  0  0  0  0  0  0  0
    3.9370   -1.0247    0.0000 C   0  0  3  0  0  0  0  0  0  0  0  0
    4.5842   -1.5640    0.0000 C   0  0  0  0  0  0  0  0  0  0  0  0
    3.0202   -1.4022    0.0000 C   0  0  0  0  0  0  0  0  0  0  0  0
    4.3145   -3.1280    0.0000 C   0  0  0  0  0  0  0  0  0  0  0  0
    3.7213   -0.2157    0.0000 C   0  0  0  0  0  0  0  0  0  0  0  0
    4.2067   -3.9370    0.0000 C   0  0  3  0  0  0  0  0  0  0  0  0
    0.8629   -0.9708    0.0000 C   0  0  0  0  0  0  0  0  0  0  0  0
    5.0156   -4.1527    0.0000 C   0  0  0  0  0  0  0  0  0  0  0  0
    5.6628   -4.5303    0.0000 C   0  0  3  0  0  0  0  0  0  0  0  0
    2.5348   -4.3145    0.0000 C   0  0  0  0  0  0  0  0  0  0  0  0
    4.6381   -3.5595    0.0000 C   0  0  0  0  0  0  0  0  0  0  0  0
    0.0539   -0.9708    0.0000 C   0  0  0  0  0  0  0  0  0  0  0  0
    0.4315   -0.2697    0.0000 C   0  0  0  0  0  0  0  0  0  0  0  0
    2.9123    0.0000    0.0000 C   0  0  0  0  0  0  0  0  0  0  0  0
    1.9415   -4.9078    0.0000 C   0  0  3  0  0  0  0  0  0  0  0  0
    6.4718   -5.9864    0.0000 C   0  0  0  0  0  0  0  0  0  0  0  0
    6.4718   -6.9033    0.0000 C   0  0  0  0  0  0  0  0  0  0  0  0
    7.1729   -7.2808    0.0000 C   0  0  0  0  0  0  0  0  0  0  0  0
    7.8201   -6.9033    0.0000 C   0  0  0  0  0  0  0  0  0  0  0  0
    7.8201   -5.9864    0.0000 C   0  0  0  0  0  0  0  0  0  0  0  0
    1.2943   -4.4224    0.0000 C   0  0  0  0  0  0  0  0  0  0  0  0
    6.1482   -7.6583    0.0000 C   0  0  0  0  0  0  0  0  0  0  0  0
    8.6291   -7.2808    0.0000 C   0  0  0  0  0  0  0  0  0  0  0  0
    8.6291   -5.6089    0.0000 C   0  0  0  0  0  0  0  0  0  0  0  0
    0.4854   -4.6381    0.0000 C   0  0  0  0  0  0  0  0  0  0  0  0
    1.3483   -3.6134    0.0000 C   0  0  0  0  0  0  0  0  0  0  0  0
    1.4562   -6.4178    0.0000 C   0  0  0  0  0  0  0  0  0  0  0  0
    9.2762   -6.9033    0.0000 C   0  0  0  0  0  0  0  0  0  0  0  0
    9.2762   -5.9864    0.0000 C   0  0  0  0  0  0  0  0  0  0  0  0
    0.0000   -3.9910    0.0000 C   0  0  0  0  0  0  0  0  0  0  0  0
    0.5393   -3.2898    0.0000 C   0  0  0  0  0  0  0  0  0  0  0  0
    5.6628   -8.2515    0.0000 C   0  0  0  0  0  0  0  0  0  0  0  0
    6.4178   -8.5212    0.0000 C   0  0  0  0  0  0  0  0  0  0  0  0
    1.9415   -7.9819    0.0000 C   0  0  3  0  0  0  0  0  0  0  0  0
    2.5348   -8.5212    0.0000 C   0  0  3  0  0  0  0  0  0  0  0  0
    6.4178   -9.3301    0.0000 C   0  0  0  0  0  0  0  0  0  0  0  0
    4.8538   -8.4673    0.0000 C   0  0  0  0  0  0  0  0  0  0  0  0
    1.2943   -8.3594    0.0000 C   0  0  0  0  0  0  0  0  0  0  0  0
    3.3438   -8.8448    0.0000 C   0  0  0  0  0  0  0  0  0  0  0  0
    4.2067   -8.9526    0.0000 C   0  0  0  0  0  0  0  0  0  0  0  0
    2.2651   -9.3301    0.0000 C   0  0  0  0  0  0  0  0  0  0  0  0
    1.3483   -9.2223    0.0000 C   0  0  0  0  0  0  0  0  0  0  0  0
    4.9617   -9.4380    0.0000 C   0  0  0  0  0  0  0  0  0  0  0  0
    5.6089  -10.6245    0.0000 C   0  0  0  0  0  0  0  0  0  0  0  0
    4.7999  -10.7863    0.0000 C   0  0  0  0  0  0  0  0  0  0  0  0
  1  5  2  0  0  0  0
  1  6  2  0  0  0  0
  1 14  1  0  0  0  0
  1 26  1  0  0  0  0
  2 22  2  0  0  0  0
  3 23  2  0  0  0  0
  4 28  1  0  0  0  0
  4 35  1  0  0  0  0
  7 29  2  0  0  0  0
  8 37  1  0  0  0  0
  8 52  1  0  0  0  0
  9 46  1  0  0  0  0
  9 53  1  0  0  0  0
 10 46  2  0  0  0  0
 11 62  1  0  0  0  0
 11 64  1  0  0  0  0
 12 62  2  0  0  0  0
 19 13  1  1  0  0  0
 13 23  1  0  0  0  0
 14 22  1  0  0  0  0
 15 25  1  0  0  0  0
 15 29  1  0  0  0  0
 15 30  1  0  0  0  0
 16 35  1  0  0  0  0
 16 39  2  0  0  0  0
 17 34  1  0  0  0  0
 17 46  1  0  0  0  0
 18 55  1  0  0  0  0
 18 62  1  0  0  0  0
 18 63  1  0  0  0  0
 19 20  1  0  0  0  0
 19 21  1  0  0  0  0
 19 22  1  6  0  0  0
 20 21  1  0  0  0  0
 20 24  1  6  0  0  0
 25 23  1  6  0  0  0
 24 33  2  0  0  0  0
 25 27  1  0  0  0  0
 26 31  1  0  0  0  0
 26 32  1  0  0  0  0
 28 27  1  1  0  0  0
 28 30  1  0  0  0  0
 34 29  1  1  0  0  0
 31 32  1  0  0  0  0
 34 40  1  0  0  0  0
 35 36  2  0  0  0  0
 36 37  1  0  0  0  0
 36 41  1  0  0  0  0
 37 38  2  0  0  0  0
 38 39  1  0  0  0  0
 38 42  1  0  0  0  0
 39 43  1  0  0  0  0
 40 44  1  0  0  0  0
 40 45  1  0  0  0  0
 41 51  1  0  0  0  0
 42 47  2  0  0  0  0
 43 48  2  0  0  0  0
 44 49  1  0  0  0  0
 45 50  1  0  0  0  0
 47 48  1  0  0  0  0
 49 50  1  0  0  0  0
 51 56  2  0  0  0  0
 52 55  1  0  0  0  0
 53 54  1  0  0  0  0
 53 57  1  1  0  0  0
 54 58  1  0  0  0  0
 54 60  1  6  0  0  0
 56 59  1  0  0  0  0
 57 61  1  0  0  0  0
 58 59  1  0  0  0  0
 60 61  1  0  0  0  0
 63 64  1  0  0  0  0
M  END
> <PUBCHEM_COMPOUND_ID_TYPE>
0

> <PUBCHEM_TOTAL_CHARGE>
0

> <PUBCHEM_SUBSTANCE_ID>
310929629

> <PUBCHEM_SUBSTANCE_VERSION>
1

> <PUBCHEM_EXT_DATASOURCE_NAME>
4488

> <PUBCHEM_EXT_DATASOURCE_REGID>
SCHEMBL16106817

> <PUBCHEM_SUBSTANCE_COMMENT>
InChI=1S/C46H58N6O11S/c1-2-30-26-46(30,43(55)50-64(58,59)32-19-20-32)49-40(53)36-25-31-27-52(36)42(54)38(29-12-6-7-13-29)48-44(56)63-37-18-10-14-28(37)11-4-3-5-16-34-39(60-23-21-51-22-24-61-45(51)57)33-15-8-9-17-35(33)47-41(34)62-31/h2-3,5,8-9,15,17,28-32,36-38H,1,4,6-7,10-14,16,18-27H2,(H,48,56)(H,49,53)(H,50,55)/b5-3+/t28-,30-,31-,36+,37-,38+,46-/m1/s1
InChIKey=CPILBSVAMOGLEJ-CDAZBQQFSA-N

> <PUBCHEM_SUBSTANCE_SYNONYM>
SCHEMBL16106817

> <PUBCHEM_XREF_EXT_ID>
SCHEMBL16106817

> <PUBCHEM_EXT_DATASOURCE_URL>
https://www.surechembl.org/

> <PUBCHEM_EXT_SUBSTANCE_URL>
https://www.surechembl.org/chemical/SCHEMBL16106817

> <PUBCHEM_CID_ASSOCIATIONS>
117598933  1

> <PUBCHEM_COORDINATE_TYPE>
1
3

> <PUBCHEM_BONDANNOTATIONS>
19  13  5
19  22  6
20  24  6
25  23  6
28  27  5
34  29  5
53  57  5
54  60  6

$$$$
