310943216
  -OEChem-07211613022D

 33 36  0     0  0  0  0  0  0999 V2000
    1.4400    1.0233    0.0000 O   0  0  0  0  0  0  0  0  0  0  0  0
   -5.7234    1.0233    0.0000 O   0  0  0  0  0  0  0  0  0  0  0  0
   -2.8581    0.2047    0.0000 N   0  0  0  0  0  0  0  0  0  0  0  0
   -4.2908    0.2047    0.0000 N   0  0  0  0  0  0  0  0  0  0  0  0
    0.7237   -0.2047    0.0000 N   0  0  0  0  0  0  0  0  0  0  0  0
   -2.8581   -1.4473    0.0000 N   0  0  0  0  0  0  0  0  0  0  0  0
    3.5890   -1.0380    0.0000 N   0  0  0  0  0  0  0  0  0  0  0  0
    5.7234    0.9941    0.0000 N   0  0  0  0  0  0  0  0  0  0  0  0
   -1.4400    0.2047    0.0000 C   0  0  0  0  0  0  0  0  0  0  0  0
   -2.1417   -0.2047    0.0000 C   0  0  0  0  0  0  0  0  0  0  0  0
   -1.4254    1.0380    0.0000 C   0  0  0  0  0  0  0  0  0  0  0  0
   -3.5744   -0.2047    0.0000 C   0  0  0  0  0  0  0  0  0  0  0  0
   -0.0073    0.2193    0.0000 C   0  0  0  0  0  0  0  0  0  0  0  0
   -0.7090   -0.2047    0.0000 C   0  0  0  0  0  0  0  0  0  0  0  0
    3.5890   -0.2047    0.0000 C   0  0  0  0  0  0  0  0  0  0  0  0
    2.1563   -0.2047    0.0000 C   0  0  0  0  0  0  0  0  0  0  0  0
    4.3054    0.2193    0.0000 C   0  0  0  0  0  0  0  0  0  0  0  0
    1.4254    0.1901    0.0000 C   0  0  0  0  0  0  0  0  0  0  0  0
   -2.1563   -1.0380    0.0000 C   0  0  0  0  0  0  0  0  0  0  0  0
    2.8581    0.2047    0.0000 C   0  0  0  0  0  0  0  0  0  0  0  0
   -0.7237    1.4327    0.0000 C   0  0  0  0  0  0  0  0  0  0  0  0
    0.0073    1.0233    0.0000 C   0  0  0  0  0  0  0  0  0  0  0  0
   -3.5744   -1.0233    0.0000 C   0  0  0  0  0  0  0  0  0  0  0  0
    2.1563   -1.0233    0.0000 C   0  0  0  0  0  0  0  0  0  0  0  0
    2.8873   -1.4473    0.0000 C   0  0  0  0  0  0  0  0  0  0  0  0
   -4.3054    1.0380    0.0000 C   0  0  0  0  0  0  0  0  0  0  0  0
   -5.0217   -0.2047    0.0000 C   0  0  0  0  0  0  0  0  0  0  0  0
    5.0071    0.6140    0.0000 C   0  0  0  0  0  0  0  0  0  0  0  0
   -2.1563    1.4327    0.0000 C   0  0  0  0  0  0  0  0  0  0  0  0
    4.2908    1.0380    0.0000 C   0  0  0  0  0  0  0  0  0  0  0  0
    5.0363   -0.1901    0.0000 C   0  0  0  0  0  0  0  0  0  0  0  0
   -5.0217    1.4473    0.0000 C   0  0  0  0  0  0  0  0  0  0  0  0
   -5.7234    0.2047    0.0000 C   0  0  0  0  0  0  0  0  0  0  0  0
  1 18  2  0  0  0  0
  2 32  1  0  0  0  0
  2 33  1  0  0  0  0
  3 10  1  0  0  0  0
  3 12  2  0  0  0  0
  4 12  1  0  0  0  0
  4 26  1  0  0  0  0
  4 27  1  0  0  0  0
  5 13  1  0  0  0  0
  5 18  1  0  0  0  0
  6 19  1  0  0  0  0
  6 23  2  0  0  0  0
  7 15  1  0  0  0  0
  7 25  2  0  0  0  0
  8 28  3  0  0  0  0
  9 10  1  0  0  0  0
  9 11  1  0  0  0  0
  9 14  2  0  0  0  0
 10 19  2  0  0  0  0
 11 21  2  0  0  0  0
 11 29  1  0  0  0  0
 12 23  1  0  0  0  0
 13 14  1  0  0  0  0
 13 22  2  0  0  0  0
 15 17  1  0  0  0  0
 15 20  2  0  0  0  0
 16 18  1  0  0  0  0
 16 20  1  0  0  0  0
 16 24  2  0  0  0  0
 17 28  1  0  0  0  0
 17 30  1  0  0  0  0
 17 31  1  0  0  0  0
 21 22  1  0  0  0  0
 24 25  1  0  0  0  0
 26 32  1  0  0  0  0
 27 33  1  0  0  0  0
M  END
> <PUBCHEM_COMPOUND_ID_TYPE>
0

> <PUBCHEM_TOTAL_CHARGE>
0

> <PUBCHEM_SUBSTANCE_ID>
310943216

> <PUBCHEM_SUBSTANCE_VERSION>
1

> <PUBCHEM_EXT_DATASOURCE_NAME>
4488

> <PUBCHEM_EXT_DATASOURCE_REGID>
SCHEMBL16121277

> <PUBCHEM_SUBSTANCE_COMMENT>
InChI=1S/C25H26N6O2/c1-17-4-5-19(29-24(32)18-6-7-28-22(12-18)25(2,3)16-26)13-20(17)21-14-27-15-23(30-21)31-8-10-33-11-9-31/h4-7,12-15H,8-11H2,1-3H3,(H,29,32)
InChIKey=ORNRTLFGZJPBFD-UHFFFAOYSA-N

> <PUBCHEM_SUBSTANCE_SYNONYM>
SCHEMBL16121277

> <PUBCHEM_XREF_EXT_ID>
SCHEMBL16121277

> <PUBCHEM_EXT_DATASOURCE_URL>
https://www.surechembl.org/

> <PUBCHEM_EXT_SUBSTANCE_URL>
https://www.surechembl.org/chemical/SCHEMBL16121277

> <PUBCHEM_CID_ASSOCIATIONS>
117609642  1

> <PUBCHEM_COORDINATE_TYPE>
1
3

$$$$
