310944946
  -OEChem-07211613022D

 13 13  0     0  0  0  0  0  0999 V2000
    1.1581   -1.5579    0.0000 O   0  0  0  0  0  0  0  0  0  0  0  0
   -1.6405   -0.4825    0.0000 N   0  0  0  0  0  0  0  0  0  0  0  0
   -0.0138   -0.7169    0.0000 C   0  0  0  0  0  0  0  0  0  0  0  0
    0.7996   -0.7858    0.0000 C   0  0  0  0  0  0  0  0  0  0  0  0
   -0.3171    0.0414    0.0000 C   0  0  0  0  0  0  0  0  0  0  0  0
   -1.1305    0.1792    0.0000 C   0  0  0  0  0  0  0  0  0  0  0  0
   -0.5101   -1.3787    0.0000 C   0  0  0  0  0  0  0  0  0  0  0  0
    1.2959   -0.1103    0.0000 C   0  0  0  0  0  0  0  0  0  0  0  0
   -1.3373   -1.2546    0.0000 C   0  0  0  0  0  0  0  0  0  0  0  0
   -1.4338    0.9237    0.0000 C   0  0  0  0  0  0  0  0  0  0  0  0
    0.8823    0.2068    0.0000 C   0  0  0  0  0  0  0  0  0  0  0  0
    1.6405   -0.3722    0.0000 C   0  0  0  0  0  0  0  0  0  0  0  0
   -0.8685    1.5579    0.0000 C   0  0  0  0  0  0  0  0  0  0  0  0
  1  4  2  0  0  0  0
  2  6  2  0  0  0  0
  2  9  1  0  0  0  0
  3  4  1  0  0  0  0
  3  5  2  0  0  0  0
  3  7  1  0  0  0  0
  4  8  1  0  0  0  0
  5  6  1  0  0  0  0
  6 10  1  0  0  0  0
  7  9  2  0  0  0  0
  8 11  1  0  0  0  0
  8 12  1  0  0  0  0
 10 13  2  0  0  0  0
M  END
> <PUBCHEM_COMPOUND_ID_TYPE>
0

> <PUBCHEM_TOTAL_CHARGE>
0

> <PUBCHEM_SUBSTANCE_ID>
310944946

> <PUBCHEM_SUBSTANCE_VERSION>
1

> <PUBCHEM_EXT_DATASOURCE_NAME>
4488

> <PUBCHEM_EXT_DATASOURCE_REGID>
SCHEMBL16123031

> <PUBCHEM_SUBSTANCE_COMMENT>
InChI=1S/C11H13NO/c1-4-10-7-9(5-6-12-10)11(13)8(2)3/h4-8H,1H2,2-3H3
InChIKey=MGPWRVYUSFEGDC-UHFFFAOYSA-N

> <PUBCHEM_SUBSTANCE_SYNONYM>
SCHEMBL16123031

> <PUBCHEM_XREF_EXT_ID>
SCHEMBL16123031

> <PUBCHEM_EXT_DATASOURCE_URL>
https://www.surechembl.org/

> <PUBCHEM_EXT_SUBSTANCE_URL>
https://www.surechembl.org/chemical/SCHEMBL16123031

> <PUBCHEM_CID_ASSOCIATIONS>
117611099  1

> <PUBCHEM_COORDINATE_TYPE>
1
3

$$$$
