310936375
  -OEChem-07211613022D

 34 37  0     1  0  0  0  0  0999 V2000
    0.5314    0.2971    0.0000 O   0  0  0  0  0  0  0  0  0  0  0  0
    1.9233    3.5854    0.0000 O   0  0  0  0  0  0  0  0  0  0  0  0
    6.5402    2.4343    0.0000 O   0  0  0  0  0  0  0  0  0  0  0  0
    3.1924    3.7472    0.0000 O   0  0  0  0  0  0  0  0  0  0  0  0
    1.9233    1.9354    0.0000 C   0  0  3  0  0  0  0  0  0  0  0  0
    2.6378    2.3479    0.0000 C   0  0  3  0  0  0  0  0  0  0  0  0
    1.9233    1.1104    0.0000 C   0  0  3  0  0  0  0  0  0  0  0  0
    3.3523    1.9354    0.0000 C   0  0  3  0  0  0  0  0  0  0  0  0
    1.1387    0.8555    0.0000 C   0  0  3  0  0  0  0  0  0  0  0  0
    4.0668    2.3479    0.0000 C   0  0  3  0  0  0  0  0  0  0  0  0
    2.6378    0.6979    0.0000 C   0  0  0  0  0  0  0  0  0  0  0  0
    1.1387    2.1904    0.0000 C   0  0  0  0  0  0  0  0  0  0  0  0
    3.3523    1.1104    0.0000 C   0  0  0  0  0  0  0  0  0  0  0  0
    4.4541    3.0764    0.0000 C   0  0  3  0  0  0  0  0  0  0  0  0
    0.6538    1.5229    0.0000 C   0  0  0  0  0  0  0  0  0  0  0  0
    2.6378    3.1729    0.0000 C   0  0  0  0  0  0  0  0  0  0  0  0
    1.3018    0.0468    0.0000 C   0  0  0  0  0  0  0  0  0  0  0  0
    4.5039    1.6483    0.0000 C   0  0  0  0  0  0  0  0  0  0  0  0
    1.8371    0.2900    0.0000 C   0  0  0  0  0  0  0  0  0  0  0  0
    5.2786    3.1052    0.0000 C   0  0  0  0  0  0  0  0  0  0  0  0
    3.3253    2.7096    0.0000 C   0  0  0  0  0  0  0  0  0  0  0  0
    5.7158    2.4055    0.0000 C   0  0  3  0  0  0  0  0  0  0  0  0
    4.0169    3.7760    0.0000 C   0  0  0  0  0  0  0  0  0  0  0  0
    5.3284    1.6771    0.0000 C   0  0  0  0  0  0  0  0  0  0  0  0
    0.6829   -0.4988    0.0000 C   0  0  0  0  0  0  0  0  0  0  0  0
    2.0837   -0.2164    0.0000 C   0  0  0  0  0  0  0  0  0  0  0  0
    0.8460   -1.3075    0.0000 C   0  0  0  0  0  0  0  0  0  0  0  0
    2.2468   -1.0251    0.0000 C   0  0  0  0  0  0  0  0  0  0  0  0
    1.6279   -1.5707    0.0000 C   0  0  0  0  0  0  0  0  0  0  0  0
    1.8371    2.7559    0.0000 H   0  0  0  0  0  0  0  0  0  0  0  0
    3.1681    2.9799    0.0000 H   0  0  0  0  0  0  0  0  0  0  0  0
    4.0668    1.5229    0.0000 H   0  0  0  0  0  0  0  0  0  0  0  0
    4.8414    3.8048    0.0000 H   0  0  0  0  0  0  0  0  0  0  0  0
    6.1529    1.7059    0.0000 H   0  0  0  0  0  0  0  0  0  0  0  0
  9  1  1  1  0  0  0
  2 16  1  0  0  0  0
 22  3  1  1  0  0  0
  4 23  1  0  0  0  0
  5  6  1  0  0  0  0
  5  7  1  0  0  0  0
  5 12  1  0  0  0  0
  5 30  1  6  0  0  0
  6  8  1  0  0  0  0
  6 16  1  0  0  0  0
  6 31  1  1  0  0  0
  7  9  1  0  0  0  0
  7 11  1  0  0  0  0
  7 19  1  1  0  0  0
  8 10  1  0  0  0  0
  8 13  1  0  0  0  0
  8 32  1  6  0  0  0
  9 15  1  0  0  0  0
  9 17  1  0  0  0  0
 10 14  1  0  0  0  0
 10 18  1  0  0  0  0
 10 21  1  1  0  0  0
 11 13  1  0  0  0  0
 12 15  1  0  0  0  0
 14 20  1  0  0  0  0
 14 23  1  0  0  0  0
 14 33  1  6  0  0  0
 17 25  2  0  0  0  0
 17 26  1  0  0  0  0
 18 24  1  0  0  0  0
 20 22  1  0  0  0  0
 22 24  1  0  0  0  0
 22 34  1  6  0  0  0
 25 27  1  0  0  0  0
 26 28  2  0  0  0  0
 27 29  2  0  0  0  0
 28 29  1  0  0  0  0
M  END
> <PUBCHEM_COMPOUND_ID_TYPE>
0

> <PUBCHEM_TOTAL_CHARGE>
0

> <PUBCHEM_SUBSTANCE_ID>
310936375

> <PUBCHEM_SUBSTANCE_VERSION>
1

> <PUBCHEM_EXT_DATASOURCE_NAME>
4488

> <PUBCHEM_EXT_DATASOURCE_REGID>
SCHEMBL16114012

> <PUBCHEM_SUBSTANCE_COMMENT>
InChI=1S/C25H38O4/c1-23(11-8-19(28)14-18(23)15-26)21-9-12-24(2)22(20(21)16-27)10-13-25(24,29)17-6-4-3-5-7-17/h3-7,18-22,26-29H,8-16H2,1-2H3/t18-,19+,20-,21+,22+,23+,24+,25-/m1/s1
InChIKey=PGRIIEYAPNUFCF-HOJFQYKESA-N

> <PUBCHEM_SUBSTANCE_SYNONYM>
SCHEMBL16114012

> <PUBCHEM_XREF_EXT_ID>
SCHEMBL16114012

> <PUBCHEM_EXT_DATASOURCE_URL>
https://www.surechembl.org/

> <PUBCHEM_EXT_SUBSTANCE_URL>
https://www.surechembl.org/chemical/SCHEMBL16114012

> <PUBCHEM_CID_ASSOCIATIONS>
117604317  1

> <PUBCHEM_COORDINATE_TYPE>
1
3

> <PUBCHEM_BONDANNOTATIONS>
9  1  5
10  21  5
14  33  6
22  34  6
22  3  5
5  30  6
6  31  5
7  19  5
8  32  6

$$$$
