310941707
  -OEChem-07211613022D

 40 43  0     0  0  0  0  0  0999 V2000
   -2.0726    1.2993    0.0000 S   0  0  0  0  0  0  0  0  0  0  0  0
   -5.3982    1.2219    0.0000 F   0  0  0  0  0  0  0  0  0  0  0  0
   -4.9960    1.9334    0.0000 F   0  0  0  0  0  0  0  0  0  0  0  0
   -4.1763    1.9180    0.0000 F   0  0  0  0  0  0  0  0  0  0  0  0
   -1.8406   -2.1036    0.0000 F   0  0  0  0  0  0  0  0  0  0  0  0
   -1.1136   -2.5367    0.0000 F   0  0  0  0  0  0  0  0  0  0  0  0
   -1.8406   -1.2684    0.0000 F   0  0  0  0  0  0  0  0  0  0  0  0
   -0.4021   -1.2529    0.0000 O   0  0  0  0  0  0  0  0  0  0  0  0
    0.3248    2.5058    0.0000 O   0  0  0  0  0  0  0  0  0  0  0  0
    1.7788    0.8353    0.0000 O   0  0  0  0  0  0  0  0  0  0  0  0
   -3.2173    1.9953    0.0000 N   0  0  0  0  0  0  0  0  0  0  0  0
   -2.5831    2.5367    0.0000 N   0  0  0  0  0  0  0  0  0  0  0  0
   -1.1291    2.4903    0.0000 N   0  0  0  0  0  0  0  0  0  0  0  0
    1.0363   -0.4331    0.0000 N   0  0  0  0  0  0  0  0  0  0  0  0
    3.2327   -0.0155    0.0000 N   0  0  0  0  0  0  0  0  0  0  0  0
    4.6712    0.8198    0.0000 N   0  0  0  0  0  0  0  0  0  0  0  0
   -3.3410    0.5259    0.0000 C   0  0  0  0  0  0  0  0  0  0  0  0
   -4.1917    0.5569    0.0000 C   0  0  0  0  0  0  0  0  0  0  0  0
   -2.9079    1.2529    0.0000 C   0  0  0  0  0  0  0  0  0  0  0  0
   -4.6093    1.2529    0.0000 C   0  0  0  0  0  0  0  0  0  0  0  0
   -1.8715    2.1345    0.0000 C   0  0  0  0  0  0  0  0  0  0  0  0
   -0.4021    1.2529    0.0000 C   0  0  0  0  0  0  0  0  0  0  0  0
    0.3094    0.0155    0.0000 C   0  0  0  0  0  0  0  0  0  0  0  0
   -0.3867   -0.3867    0.0000 C   0  0  0  0  0  0  0  0  0  0  0  0
   -0.4021    2.0881    0.0000 C   0  0  0  0  0  0  0  0  0  0  0  0
   -2.9698   -0.2165    0.0000 C   0  0  0  0  0  0  0  0  0  0  0  0
   -4.6093   -0.1546    0.0000 C   0  0  0  0  0  0  0  0  0  0  0  0
    0.3248    0.8353    0.0000 C   0  0  0  0  0  0  0  0  0  0  0  0
   -1.1136    0.8353    0.0000 C   0  0  0  0  0  0  0  0  0  0  0  0
   -1.1136    0.0000    0.0000 C   0  0  0  0  0  0  0  0  0  0  0  0
   -3.3874   -0.8816    0.0000 C   0  0  0  0  0  0  0  0  0  0  0  0
   -4.2227   -0.8816    0.0000 C   0  0  0  0  0  0  0  0  0  0  0  0
   -1.1446   -1.6550    0.0000 C   0  0  0  0  0  0  0  0  0  0  0  0
    1.7633   -0.0155    0.0000 C   0  0  0  0  0  0  0  0  0  0  0  0
    2.5212   -0.4176    0.0000 C   0  0  0  0  0  0  0  0  0  0  0  0
    3.9752   -0.4176    0.0000 C   0  0  0  0  0  0  0  0  0  0  0  0
    3.2482    0.8353    0.0000 C   0  0  0  0  0  0  0  0  0  0  0  0
    4.6712    0.0000    0.0000 C   0  0  0  0  0  0  0  0  0  0  0  0
    3.9288    1.2374    0.0000 C   0  0  0  0  0  0  0  0  0  0  0  0
    5.3982    1.2374    0.0000 C   0  0  0  0  0  0  0  0  0  0  0  0
  1 19  1  0  0  0  0
  1 21  1  0  0  0  0
  2 20  1  0  0  0  0
  3 20  1  0  0  0  0
  4 20  1  0  0  0  0
  5 33  1  0  0  0  0
  6 33  1  0  0  0  0
  7 33  1  0  0  0  0
  8 24  1  0  0  0  0
  8 33  1  0  0  0  0
  9 25  2  0  0  0  0
 10 34  2  0  0  0  0
 11 12  1  0  0  0  0
 11 19  2  0  0  0  0
 12 21  2  0  0  0  0
 13 21  1  0  0  0  0
 13 25  1  0  0  0  0
 14 23  1  0  0  0  0
 14 34  1  0  0  0  0
 15 35  1  0  0  0  0
 15 36  1  0  0  0  0
 15 37  1  0  0  0  0
 16 38  1  0  0  0  0
 16 39  1  0  0  0  0
 16 40  1  0  0  0  0
 17 18  1  0  0  0  0
 17 19  1  0  0  0  0
 17 26  2  0  0  0  0
 18 20  1  0  0  0  0
 18 27  2  0  0  0  0
 22 25  1  0  0  0  0
 22 28  1  0  0  0  0
 22 29  2  0  0  0  0
 23 24  1  0  0  0  0
 23 28  2  0  0  0  0
 24 30  2  0  0  0  0
 26 31  1  0  0  0  0
 27 32  1  0  0  0  0
 29 30  1  0  0  0  0
 31 32  2  0  0  0  0
 34 35  1  0  0  0  0
 36 38  1  0  0  0  0
 37 39  1  0  0  0  0
M  END
> <PUBCHEM_COMPOUND_ID_TYPE>
0

> <PUBCHEM_TOTAL_CHARGE>
0

> <PUBCHEM_SUBSTANCE_ID>
310941707

> <PUBCHEM_SUBSTANCE_VERSION>
1

> <PUBCHEM_EXT_DATASOURCE_NAME>
4488

> <PUBCHEM_EXT_DATASOURCE_REGID>
SCHEMBL16119738

> <PUBCHEM_SUBSTANCE_COMMENT>
InChI=1S/C24H22F6N6O3S/c1-35-8-10-36(11-9-35)13-19(37)31-17-12-14(6-7-18(17)39-24(28,29)30)20(38)32-22-34-33-21(40-22)15-4-2-3-5-16(15)23(25,26)27/h2-7,12H,8-11,13H2,1H3,(H,31,37)(H,32,34,38)
InChIKey=ZHIHVAKRBQMXJL-UHFFFAOYSA-N

> <PUBCHEM_SUBSTANCE_SYNONYM>
SCHEMBL16119738

> <PUBCHEM_XREF_EXT_ID>
SCHEMBL16119738

> <PUBCHEM_EXT_DATASOURCE_URL>
https://www.surechembl.org/

> <PUBCHEM_EXT_SUBSTANCE_URL>
https://www.surechembl.org/chemical/SCHEMBL16119738

> <PUBCHEM_CID_ASSOCIATIONS>
117608480  1

> <PUBCHEM_COORDINATE_TYPE>
1
3

$$$$
