310942781
  -OEChem-07211613022D

 73 77  0     1  0  0  0  0  0999 V2000
    9.7043   -0.9594    0.0000 F   0  0  0  0  0  0  0  0  0  0  0  0
   11.0341    2.0537    0.0000 F   0  0  0  0  0  0  0  0  0  0  0  0
    2.4324    1.8853    0.0000 O   0  0  0  0  0  0  0  0  0  0  0  0
   -3.9978   -0.1683    0.0000 O   0  0  0  0  0  0  0  0  0  0  0  0
  -11.1687   -0.3872    0.0000 O   0  0  0  0  0  0  0  0  0  0  0  0
   -8.2566   -0.4040    0.0000 O   0  0  0  0  0  0  0  0  0  0  0  0
   -1.8601    1.8853    0.0000 O   0  0  0  0  0  0  0  0  0  0  0  0
    3.1394    3.1141    0.0000 O   0  0  0  0  0  0  0  0  0  0  0  0
   -6.1356    1.8853    0.0000 O   0  0  0  0  0  0  0  0  0  0  0  0
   -4.7217   -0.5892    0.0000 O   0  0  0  0  0  0  0  0  0  0  0  0
    7.5159   -0.1683    0.0000 N   0  0  0  0  0  0  0  0  0  0  0  0
    8.1724    0.9932    0.0000 N   0  0  0  0  0  0  0  0  0  0  0  0
    8.3071   -0.3367    0.0000 N   0  0  0  0  0  0  0  0  0  0  0  0
    6.7080    1.8853    0.0000 N   0  0  0  0  0  0  0  0  0  0  0  0
    3.8464    1.8853    0.0000 N   0  0  0  0  0  0  0  0  0  0  0  0
   -9.7211   -0.1683    0.0000 N   0  0  0  0  0  0  0  0  0  0  0  0
   -3.2909    1.0605    0.0000 N   0  0  0  0  0  0  0  0  0  0  0  0
   -1.1530    0.6565    0.0000 N   0  0  0  0  0  0  0  0  0  0  0  0
   -5.4286    0.6565    0.0000 N   0  0  0  0  0  0  0  0  0  0  0  0
   -3.9978   -1.8180    0.0000 N   0  0  0  0  0  0  0  0  0  0  0  0
   -5.4286   -1.8180    0.0000 N   0  0  0  0  0  0  0  0  0  0  0  0
    7.4317    0.6565    0.0000 C   0  0  0  0  0  0  0  0  0  0  0  0
    8.7279    0.3872    0.0000 C   0  0  0  0  0  0  0  0  0  0  0  0
    6.7080    1.0773    0.0000 C   0  0  3  0  0  0  0  0  0  0  0  0
    9.5528    0.4545    0.0000 C   0  0  0  0  0  0  0  0  0  0  0  0
    5.9841    0.6565    0.0000 C   0  0  0  0  0  0  0  0  0  0  0  0
    6.9268   -0.6901    0.0000 C   0  0  0  0  0  0  0  0  0  0  0  0
   10.0240   -0.1851    0.0000 C   0  0  0  0  0  0  0  0  0  0  0  0
    9.8894    1.2119    0.0000 C   0  0  0  0  0  0  0  0  0  0  0  0
    7.0615   -1.5150    0.0000 C   0  0  0  0  0  0  0  0  0  0  0  0
   10.6974    1.2962    0.0000 C   0  0  0  0  0  0  0  0  0  0  0  0
   10.8489   -0.1010    0.0000 C   0  0  0  0  0  0  0  0  0  0  0  0
    5.2772    1.0436    0.0000 C   0  0  0  0  0  0  0  0  0  0  0  0
    5.2772    0.2525    0.0000 C   0  0  0  0  0  0  0  0  0  0  0  0
    6.0178   -0.1851    0.0000 C   0  0  0  0  0  0  0  0  0  0  0  0
   11.1687    0.6565    0.0000 C   0  0  0  0  0  0  0  0  0  0  0  0
    5.9673    2.2893    0.0000 C   0  0  0  0  0  0  0  0  0  0  0  0
    6.4891   -2.0537    0.0000 C   0  0  0  0  0  0  0  0  0  0  0  0
    7.8358   -1.7843    0.0000 C   0  0  0  0  0  0  0  0  0  0  0  0
    6.6406   -2.8784    0.0000 C   0  0  0  0  0  0  0  0  0  0  0  0
    8.0041   -2.5923    0.0000 C   0  0  0  0  0  0  0  0  0  0  0  0
    5.2940    1.8853    0.0000 C   0  0  0  0  0  0  0  0  0  0  0  0
    7.4317   -3.1141    0.0000 C   0  0  0  0  0  0  0  0  0  0  0  0
    4.5533    2.2893    0.0000 C   0  0  0  0  0  0  0  0  0  0  0  0
   -2.5502    0.6565    0.0000 C   0  0  3  0  0  0  0  0  0  0  0  0
   -4.7385    1.0605    0.0000 C   0  0  3  0  0  0  0  0  0  0  0  0
   -3.9978    0.6733    0.0000 C   0  0  0  0  0  0  0  0  0  0  0  0
  -10.3607   -0.6565    0.0000 C   0  0  0  0  0  0  0  0  0  0  0  0
   -9.0646   -0.6565    0.0000 C   0  0  0  0  0  0  0  0  0  0  0  0
   -1.8769    1.0605    0.0000 C   0  0  0  0  0  0  0  0  0  0  0  0
    3.1394    2.2893    0.0000 C   0  0  0  0  0  0  0  0  0  0  0  0
   -0.4293    1.0773    0.0000 C   0  0  0  0  0  0  0  0  0  0  0  0
  -10.1419   -1.4140    0.0000 C   0  0  0  0  0  0  0  0  0  0  0  0
   -9.3171   -1.4308    0.0000 C   0  0  0  0  0  0  0  0  0  0  0  0
   -4.7048    1.9190    0.0000 C   0  0  0  0  0  0  0  0  0  0  0  0
    1.0015    1.8853    0.0000 C   0  0  0  0  0  0  0  0  0  0  0  0
   -9.7043    0.6733    0.0000 C   0  0  0  0  0  0  0  0  0  0  0  0
   -2.5502   -0.1851    0.0000 C   0  0  0  0  0  0  0  0  0  0  0  0
    0.2946    0.6565    0.0000 C   0  0  0  0  0  0  0  0  0  0  0  0
   -0.4124    1.8853    0.0000 C   0  0  0  0  0  0  0  0  0  0  0  0
    0.9847    1.0605    0.0000 C   0  0  0  0  0  0  0  0  0  0  0  0
    0.2609    2.2893    0.0000 C   0  0  0  0  0  0  0  0  0  0  0  0
   -6.1525    1.0605    0.0000 C   0  0  0  0  0  0  0  0  0  0  0  0
    1.6917    2.2893    0.0000 C   0  0  0  0  0  0  0  0  0  0  0  0
   -9.0141    1.0773    0.0000 C   0  0  0  0  0  0  0  0  0  0  0  0
   -6.8426    0.6565    0.0000 C   0  0  0  0  0  0  0  0  0  0  0  0
   -3.2740   -0.5723    0.0000 C   0  0  0  0  0  0  0  0  0  0  0  0
   -8.2903    0.6565    0.0000 C   0  0  0  0  0  0  0  0  0  0  0  0
   -5.4455    2.2893    0.0000 C   0  0  0  0  0  0  0  0  0  0  0  0
   -3.9810    2.2893    0.0000 C   0  0  0  0  0  0  0  0  0  0  0  0
   -7.5833    1.0605    0.0000 C   0  0  0  0  0  0  0  0  0  0  0  0
   -3.2909   -1.4140    0.0000 C   0  0  0  0  0  0  0  0  0  0  0  0
   -4.7385   -1.4308    0.0000 C   0  0  0  0  0  0  0  0  0  0  0  0
  1 28  1  0  0  0  0
  2 31  1  0  0  0  0
  3 51  1  0  0  0  0
  3 64  1  0  0  0  0
  4 47  2  0  0  0  0
  5 48  2  0  0  0  0
  6 49  2  0  0  0  0
  7 50  2  0  0  0  0
  8 51  2  0  0  0  0
  9 63  2  0  0  0  0
 10 73  2  0  0  0  0
 11 13  1  0  0  0  0
 11 22  1  0  0  0  0
 11 27  1  0  0  0  0
 12 22  2  0  0  0  0
 12 23  1  0  0  0  0
 13 23  2  0  0  0  0
 24 14  1  1  0  0  0
 14 37  1  0  0  0  0
 15 44  1  0  0  0  0
 15 51  1  0  0  0  0
 16 48  1  0  0  0  0
 16 49  1  0  0  0  0
 16 57  1  0  0  0  0
 45 17  1  6  0  0  0
 17 47  1  0  0  0  0
 18 50  1  0  0  0  0
 18 52  1  0  0  0  0
 46 19  1  1  0  0  0
 19 63  1  0  0  0  0
 20 72  1  0  0  0  0
 20 73  1  0  0  0  0
 21 73  1  0  0  0  0
 22 24  1  0  0  0  0
 23 25  1  0  0  0  0
 24 26  1  0  0  0  0
 25 28  2  0  0  0  0
 25 29  1  0  0  0  0
 26 33  1  0  0  0  0
 26 34  1  0  0  0  0
 26 35  1  0  0  0  0
 27 30  1  0  0  0  0
 28 32  1  0  0  0  0
 29 31  2  0  0  0  0
 30 38  2  0  0  0  0
 30 39  1  0  0  0  0
 31 36  1  0  0  0  0
 32 36  2  0  0  0  0
 37 42  1  0  0  0  0
 38 40  1  0  0  0  0
 39 41  2  0  0  0  0
 40 43  2  0  0  0  0
 41 43  1  0  0  0  0
 42 44  1  0  0  0  0
 45 50  1  0  0  0  0
 45 58  1  0  0  0  0
 46 47  1  0  0  0  0
 46 55  1  0  0  0  0
 48 53  1  0  0  0  0
 49 54  1  0  0  0  0
 52 59  2  0  0  0  0
 52 60  1  0  0  0  0
 53 54  2  0  0  0  0
 55 69  1  0  0  0  0
 55 70  1  0  0  0  0
 56 61  2  0  0  0  0
 56 62  1  0  0  0  0
 56 64  1  0  0  0  0
 57 65  1  0  0  0  0
 58 67  1  0  0  0  0
 59 61  1  0  0  0  0
 60 62  2  0  0  0  0
 63 66  1  0  0  0  0
 65 68  1  0  0  0  0
 66 71  1  0  0  0  0
 67 72  1  0  0  0  0
 68 71  1  0  0  0  0
M  END
> <PUBCHEM_COMPOUND_ID_TYPE>
0

> <PUBCHEM_TOTAL_CHARGE>
0

> <PUBCHEM_SUBSTANCE_ID>
310942781

> <PUBCHEM_SUBSTANCE_VERSION>
1

> <PUBCHEM_EXT_DATASOURCE_NAME>
4488

> <PUBCHEM_EXT_DATASOURCE_REGID>
SCHEMBL16120834

> <PUBCHEM_SUBSTANCE_COMMENT>
InChI=1S/C52H67F2N11O8/c1-33(2)44(61-41(66)17-10-7-11-29-64-42(67)24-25-43(64)68)49(70)60-40(16-12-26-57-50(55)71)48(69)59-37-21-18-35(19-22-37)32-73-51(72)58-28-13-27-56-45(52(3,4)5)47-62-46(38-30-36(53)20-23-39(38)54)63-65(47)31-34-14-8-6-9-15-34/h6,8-9,14-15,18-25,30,33,40,44-45,56H,7,10-13,16-17,26-29,31-32H2,1-5H3,(H,58,72)(H,59,69)(H,60,70)(H,61,66)(H3,55,57,71)/t40-,44-,45-/m0/s1
InChIKey=JSHJRTKKDFKFMC-REVWPIDQSA-N

> <PUBCHEM_SUBSTANCE_SYNONYM>
SCHEMBL16120834

> <PUBCHEM_XREF_EXT_ID>
SCHEMBL16120834

> <PUBCHEM_EXT_DATASOURCE_URL>
https://www.surechembl.org/

> <PUBCHEM_EXT_SUBSTANCE_URL>
https://www.surechembl.org/chemical/SCHEMBL16120834

> <PUBCHEM_CID_ASSOCIATIONS>
117609287  1

> <PUBCHEM_COORDINATE_TYPE>
1
3

> <PUBCHEM_BONDANNOTATIONS>
24  14  5
45  17  6
46  19  5

$$$$
