310928882
  -OEChem-07211613022D

 11 12  0     0  0  0  0  0  0999 V2000
    1.7617    0.3135    0.0000 Cl  0  0  0  0  0  0  0  0  0  0  0  0
    0.4518   -0.3539    0.0000 N   0  0  0  0  0  0  0  0  0  0  0  0
    0.4518    0.9810    0.0000 N   0  0  0  0  0  0  0  0  0  0  0  0
   -1.0473   -0.5115    0.0000 N   0  0  0  0  0  0  0  0  0  0  0  0
   -0.3328   -0.0990    0.0000 C   0  0  0  0  0  0  0  0  0  0  0  0
   -0.3328    0.7260    0.0000 C   0  0  0  0  0  0  0  0  0  0  0  0
    0.9367    0.3135    0.0000 C   0  0  0  0  0  0  0  0  0  0  0  0
   -1.0473    1.1385    0.0000 C   0  0  0  0  0  0  0  0  0  0  0  0
   -1.7617   -0.0990    0.0000 C   0  0  0  0  0  0  0  0  0  0  0  0
    0.7068   -1.1385    0.0000 C   0  0  0  0  0  0  0  0  0  0  0  0
   -1.7617    0.7260    0.0000 C   0  0  0  0  0  0  0  0  0  0  0  0
  1  7  1  0  0  0  0
  2  5  1  0  0  0  0
  2  7  1  0  0  0  0
  2 10  1  0  0  0  0
  3  6  1  0  0  0  0
  3  7  2  0  0  0  0
  4  5  2  0  0  0  0
  4  9  1  0  0  0  0
  5  6  1  0  0  0  0
  6  8  2  0  0  0  0
  8 11  1  0  0  0  0
  9 11  2  0  0  0  0
M  END
> <PUBCHEM_COMPOUND_ID_TYPE>
0

> <PUBCHEM_TOTAL_CHARGE>
0

> <PUBCHEM_SUBSTANCE_ID>
310928882

> <PUBCHEM_SUBSTANCE_VERSION>
1

> <PUBCHEM_EXT_DATASOURCE_NAME>
11752

> <PUBCHEM_EXT_DATASOURCE_REGID>
BD266412

> <PUBCHEM_SUBSTANCE_SYNONYM>
2-Chloro-3-methyl-3H-imidazo[4,5-b]pyridine
30458-68-5

> <PUBCHEM_GENERIC_REGISTRY_NAME>
30458-68-5

> <PUBCHEM_XREF_EXT_ID>
BD266412

> <PUBCHEM_EXT_DATASOURCE_URL>
http://www.bidepharmatech.com/en/index.html

> <PUBCHEM_EXT_SUBSTANCE_URL>
http://www.bidepharmatech.com/en/goodsview_goodscode_BD266412.html

> <PUBCHEM_CID_ASSOCIATIONS>
10820986  1

> <PUBCHEM_COORDINATE_TYPE>
1
3

$$$$
