310944437
  -OEChem-07211613022D

 37 43  0     0  0  0  0  0  0999 V2000
    0.0306    2.4396    0.0000 F   0  0  0  0  0  0  0  0  0  0  0  0
   -1.4378   -0.0536    0.0000 N   0  0  0  0  0  0  0  0  0  0  0  0
    1.4684   -0.0536    0.0000 N   0  0  0  0  0  0  0  0  0  0  0  0
   -2.1567    1.9502    0.0000 N   0  0  0  0  0  0  0  0  0  0  0  0
    2.1720    1.9655    0.0000 N   0  0  0  0  0  0  0  0  0  0  0  0
   -0.7342    0.3747    0.0000 C   0  0  0  0  0  0  0  0  0  0  0  0
    0.7189    0.3747    0.0000 C   0  0  0  0  0  0  0  0  0  0  0  0
   -1.5448   -0.8642    0.0000 C   0  0  0  0  0  0  0  0  0  0  0  0
   -2.2484    0.2982    0.0000 C   0  0  0  0  0  0  0  0  0  0  0  0
    2.2025    0.2982    0.0000 C   0  0  0  0  0  0  0  0  0  0  0  0
    1.5448   -0.8795    0.0000 C   0  0  0  0  0  0  0  0  0  0  0  0
   -0.7189    1.2160    0.0000 C   0  0  0  0  0  0  0  0  0  0  0  0
    0.7495    1.2160    0.0000 C   0  0  0  0  0  0  0  0  0  0  0  0
   -2.3708   -1.0324    0.0000 C   0  0  0  0  0  0  0  0  0  0  0  0
   -2.7991   -0.3135    0.0000 C   0  0  0  0  0  0  0  0  0  0  0  0
    2.7838   -0.3135    0.0000 C   0  0  0  0  0  0  0  0  0  0  0  0
    2.3555   -1.0630    0.0000 C   0  0  0  0  0  0  0  0  0  0  0  0
    0.0153   -0.0229    0.0000 C   0  0  0  0  0  0  0  0  0  0  0  0
    0.0000    1.6289    0.0000 C   0  0  0  0  0  0  0  0  0  0  0  0
   -2.4931    1.0783    0.0000 C   0  0  0  0  0  0  0  0  0  0  0  0
   -1.0095   -1.4760    0.0000 C   0  0  0  0  0  0  0  0  0  0  0  0
    2.4931    1.0783    0.0000 C   0  0  0  0  0  0  0  0  0  0  0  0
    1.0095   -1.5066    0.0000 C   0  0  0  0  0  0  0  0  0  0  0  0
   -3.6097   -0.1300    0.0000 C   0  0  0  0  0  0  0  0  0  0  0  0
   -2.6308   -1.8125    0.0000 C   0  0  0  0  0  0  0  0  0  0  0  0
    3.5944   -0.1453    0.0000 C   0  0  0  0  0  0  0  0  0  0  0  0
    2.6155   -1.8278    0.0000 C   0  0  0  0  0  0  0  0  0  0  0  0
   -1.4530    1.5984    0.0000 C   0  0  0  0  0  0  0  0  0  0  0  0
    1.4530    1.5984    0.0000 C   0  0  0  0  0  0  0  0  0  0  0  0
   -3.2885    1.2618    0.0000 C   0  0  0  0  0  0  0  0  0  0  0  0
   -1.2695   -2.2714    0.0000 C   0  0  0  0  0  0  0  0  0  0  0  0
    3.3191    1.2313    0.0000 C   0  0  0  0  0  0  0  0  0  0  0  0
    1.2695   -2.2714    0.0000 C   0  0  0  0  0  0  0  0  0  0  0  0
   -3.8545    0.6501    0.0000 C   0  0  0  0  0  0  0  0  0  0  0  0
   -2.0802   -2.4244    0.0000 C   0  0  0  0  0  0  0  0  0  0  0  0
    3.8545    0.6348    0.0000 C   0  0  0  0  0  0  0  0  0  0  0  0
    2.0649   -2.4396    0.0000 C   0  0  0  0  0  0  0  0  0  0  0  0
  1 19  1  0  0  0  0
  2  6  1  0  0  0  0
  2  8  1  0  0  0  0
  2  9  1  0  0  0  0
  3  7  1  0  0  0  0
  3 10  1  0  0  0  0
  3 11  1  0  0  0  0
  4 28  3  0  0  0  0
  5 29  3  0  0  0  0
  6 12  2  0  0  0  0
  6 18  1  0  0  0  0
  7 13  1  0  0  0  0
  7 18  2  0  0  0  0
  8 14  2  0  0  0  0
  8 21  1  0  0  0  0
  9 15  2  0  0  0  0
  9 20  1  0  0  0  0
 10 16  2  0  0  0  0
 10 22  1  0  0  0  0
 11 17  2  0  0  0  0
 11 23  1  0  0  0  0
 12 19  1  0  0  0  0
 12 28  1  0  0  0  0
 13 19  2  0  0  0  0
 13 29  1  0  0  0  0
 14 15  1  0  0  0  0
 14 25  1  0  0  0  0
 15 24  1  0  0  0  0
 16 17  1  0  0  0  0
 16 26  1  0  0  0  0
 17 27  1  0  0  0  0
 20 30  2  0  0  0  0
 21 31  2  0  0  0  0
 22 32  2  0  0  0  0
 23 33  2  0  0  0  0
 24 34  2  0  0  0  0
 25 35  2  0  0  0  0
 26 36  2  0  0  0  0
 27 37  2  0  0  0  0
 30 34  1  0  0  0  0
 31 35  1  0  0  0  0
 32 36  1  0  0  0  0
 33 37  1  0  0  0  0
M  END
> <PUBCHEM_COMPOUND_ID_TYPE>
0

> <PUBCHEM_TOTAL_CHARGE>
0

> <PUBCHEM_SUBSTANCE_ID>
310944437

> <PUBCHEM_SUBSTANCE_VERSION>
1

> <PUBCHEM_EXT_DATASOURCE_NAME>
4488

> <PUBCHEM_EXT_DATASOURCE_REGID>
SCHEMBL16122512

> <PUBCHEM_SUBSTANCE_COMMENT>
InChI=1S/C32H17FN4/c33-32-24(18-34)30(36-26-13-5-1-9-20(26)21-10-2-6-14-27(21)36)17-31(25(32)19-35)37-28-15-7-3-11-22(28)23-12-4-8-16-29(23)37/h1-17H
InChIKey=GAKIGZGIROHYLW-UHFFFAOYSA-N

> <PUBCHEM_SUBSTANCE_SYNONYM>
SCHEMBL16122512

> <PUBCHEM_XREF_EXT_ID>
SCHEMBL16122512

> <PUBCHEM_EXT_DATASOURCE_URL>
https://www.surechembl.org/

> <PUBCHEM_EXT_SUBSTANCE_URL>
https://www.surechembl.org/chemical/SCHEMBL16122512

> <PUBCHEM_CID_ASSOCIATIONS>
117610691  1

> <PUBCHEM_COORDINATE_TYPE>
1
3

$$$$
