310943913
  -OEChem-07211613022D

 33 37  0     1  0  0  0  0  0999 V2000
    2.3440    0.7777    0.0000 O   0  0  0  0  0  0  0  0  0  0  0  0
    5.3223    0.6343    0.0000 O   0  0  0  0  0  0  0  0  0  0  0  0
    5.0907    2.0903    0.0000 O   0  0  0  0  0  0  0  0  0  0  0  0
   -0.3585   -2.0903    0.0000 O   0  0  0  0  0  0  0  0  0  0  0  0
    3.3809   -0.2482    0.0000 N   0  0  0  0  0  0  0  0  0  0  0  0
    0.4688   -0.6673    0.0000 N   0  0  0  0  0  0  0  0  0  0  0  0
   -4.0649   -1.3843    0.0000 N   0  0  0  0  0  0  0  0  0  0  0  0
   -2.0021   -0.6673    0.0000 N   0  0  0  0  0  0  0  0  0  0  0  0
   -2.8294   -0.6673    0.0000 N   0  0  0  0  0  0  0  0  0  0  0  0
   -4.5502   -0.7115    0.0000 N   0  0  0  0  0  0  0  0  0  0  0  0
   -5.3223   -0.9652    0.0000 N   0  0  0  0  0  0  0  0  0  0  0  0
   -5.3223   -1.7925    0.0000 N   0  0  0  0  0  0  0  0  0  0  0  0
    2.1234   -0.6563    0.0000 C   0  0  0  0  0  0  0  0  0  0  0  0
    3.3809   -1.0755    0.0000 C   0  0  0  0  0  0  0  0  0  0  0  0
    2.6088   -0.0055    0.0000 C   0  0  0  0  0  0  0  0  0  0  0  0
    2.6088   -1.3181    0.0000 C   0  0  0  0  0  0  0  0  0  0  0  0
    4.0538    0.2371    0.0000 C   0  0  0  0  0  0  0  0  0  0  0  0
    1.7042   -1.3734    0.0000 C   0  0  0  0  0  0  0  0  0  0  0  0
    1.7153    0.0497    0.0000 C   0  0  0  0  0  0  0  0  0  0  0  0
    4.1972   -1.2851    0.0000 C   0  0  0  0  0  0  0  0  0  0  0  0
    3.6236   -1.8808    0.0000 C   0  0  0  0  0  0  0  0  0  0  0  0
    4.0649    1.0645    0.0000 C   0  0  0  0  0  0  0  0  0  0  0  0
    0.8769   -1.3623    0.0000 C   0  0  0  0  0  0  0  0  0  0  0  0
    0.8769    0.0607    0.0000 C   0  0  0  0  0  0  0  0  0  0  0  0
    4.8370   -0.0165    0.0000 C   0  0  0  0  0  0  0  0  0  0  0  0
    4.8149    1.2851    0.0000 C   0  0  0  0  0  0  0  0  0  0  0  0
   -0.3585   -0.6673    0.0000 C   0  0  0  0  0  0  0  0  0  0  0  0
   -0.7666   -1.3734    0.0000 C   0  0  3  0  0  0  0  0  0  0  0  0
   -1.5940   -1.3623    0.0000 C   0  0  0  0  0  0  0  0  0  0  0  0
   -3.2486   -1.3734    0.0000 C   0  0  0  0  0  0  0  0  0  0  0  0
   -2.0021   -2.0793    0.0000 C   0  0  0  0  0  0  0  0  0  0  0  0
   -2.8294   -2.0793    0.0000 C   0  0  0  0  0  0  0  0  0  0  0  0
   -4.5392   -2.0351    0.0000 C   0  0  0  0  0  0  0  0  0  0  0  0
  1 15  2  0  0  0  0
  2 25  1  0  0  0  0
  2 26  1  0  0  0  0
  3 26  2  0  0  0  0
 28  4  1  1  0  0  0
  5 14  1  0  0  0  0
  5 15  1  0  0  0  0
  5 17  1  0  0  0  0
  6 23  1  0  0  0  0
  6 24  1  0  0  0  0
  6 27  1  0  0  0  0
  7 10  1  0  0  0  0
  7 30  1  0  0  0  0
  7 33  1  0  0  0  0
  8  9  1  0  0  0  0
  8 29  2  0  0  0  0
  9 30  2  0  0  0  0
 10 11  2  0  0  0  0
 11 12  1  0  0  0  0
 12 33  2  0  0  0  0
 13 15  1  0  0  0  0
 13 16  1  0  0  0  0
 13 18  1  0  0  0  0
 13 19  1  0  0  0  0
 14 16  1  0  0  0  0
 14 20  1  0  0  0  0
 14 21  1  0  0  0  0
 17 22  2  0  0  0  0
 17 25  1  0  0  0  0
 18 23  1  0  0  0  0
 19 24  1  0  0  0  0
 22 26  1  0  0  0  0
 27 28  1  0  0  0  0
 28 29  1  0  0  0  0
 29 31  1  0  0  0  0
 30 32  1  0  0  0  0
 31 32  2  0  0  0  0
M  END
> <PUBCHEM_COMPOUND_ID_TYPE>
0

> <PUBCHEM_TOTAL_CHARGE>
0

> <PUBCHEM_SUBSTANCE_ID>
310943913

> <PUBCHEM_SUBSTANCE_VERSION>
1

> <PUBCHEM_EXT_DATASOURCE_NAME>
4488

> <PUBCHEM_EXT_DATASOURCE_REGID>
SCHEMBL16121984

> <PUBCHEM_SUBSTANCE_COMMENT>
InChI=1S/C21H26N8O4/c1-20(2)12-21(19(32)29(20)14-9-18(31)33-11-14)5-7-27(8-6-21)10-16(30)15-3-4-17(24-23-15)28-13-22-25-26-28/h3-4,9,13,16,30H,5-8,10-12H2,1-2H3/t16-/m1/s1
InChIKey=HEYFWJWMGHCTRR-MRXNPFEDSA-N

> <PUBCHEM_SUBSTANCE_SYNONYM>
SCHEMBL16121984

> <PUBCHEM_XREF_EXT_ID>
SCHEMBL16121984

> <PUBCHEM_EXT_DATASOURCE_URL>
https://www.surechembl.org/

> <PUBCHEM_EXT_SUBSTANCE_URL>
https://www.surechembl.org/chemical/SCHEMBL16121984

> <PUBCHEM_CID_ASSOCIATIONS>
117610228  1

> <PUBCHEM_COORDINATE_TYPE>
1
3

> <PUBCHEM_BONDANNOTATIONS>
28  4  5

$$$$
