310945670
  -OEChem-07211613022D

 83 91  0     1  0  0  0  0  0999 V2000
    0.5856   -0.5856    0.0000 O   0  0  0  0  0  0  0  0  0  0  0  0
   10.0791   -0.5856    0.0000 O   0  0  0  0  0  0  0  0  0  0  0  0
    3.1770    1.9810    0.0000 O   0  0  0  0  0  0  0  0  0  0  0  0
    7.4877    1.9810    0.0000 O   0  0  0  0  0  0  0  0  0  0  0  0
    3.1770    0.3239    0.0000 O   0  0  0  0  0  0  0  0  0  0  0  0
    7.4877    0.3239    0.0000 O   0  0  0  0  0  0  0  0  0  0  0  0
   15.6482   -0.6354    0.0000 O   0  0  0  0  0  0  0  0  0  0  0  0
   -6.3415   -1.6694    0.0000 O   0  0  0  0  0  0  0  0  0  0  0  0
   -8.4969    0.4111    0.0000 O   0  0  0  0  0  0  0  0  0  0  0  0
  -16.1715    0.1371    0.0000 O   0  0  0  0  0  0  0  0  0  0  0  0
  -14.2528   -2.0807    0.0000 O   0  0  0  0  0  0  0  0  0  0  0  0
  -10.6523   -1.6694    0.0000 O   0  0  0  0  0  0  0  0  0  0  0  0
   -0.4236    0.4111    0.0000 N   0  0  0  0  0  0  0  0  0  0  0  0
   11.1257    0.4111    0.0000 N   0  0  0  0  0  0  0  0  0  0  0  0
    0.3862    2.0931    0.0000 N   0  0  0  0  0  0  0  0  0  0  0  0
   10.3159    2.0931    0.0000 N   0  0  0  0  0  0  0  0  0  0  0  0
   -5.6065   -0.3987    0.0000 N   0  0  0  0  0  0  0  0  0  0  0  0
   -7.7493   -0.8347    0.0000 N   0  0  0  0  0  0  0  0  0  0  0  0
  -14.9506   -0.8347    0.0000 N   0  0  0  0  0  0  0  0  0  0  0  0
   -9.9172   -0.3987    0.0000 N   0  0  0  0  0  0  0  0  0  0  0  0
    1.0341    0.7475    0.0000 C   0  0  0  0  0  0  0  0  0  0  0  0
    9.6555    0.7475    0.0000 C   0  0  0  0  0  0  0  0  0  0  0  0
    0.3737    0.2243    0.0000 C   0  0  0  0  0  0  0  0  0  0  0  0
   10.3284    0.2367    0.0000 C   0  0  0  0  0  0  0  0  0  0  0  0
   -0.7973    1.1587    0.0000 C   0  0  3  0  0  0  0  0  0  0  0  0
   11.4994    1.1711    0.0000 C   0  0  3  0  0  0  0  0  0  0  0  0
    1.0466    1.5823    0.0000 C   0  0  0  0  0  0  0  0  0  0  0  0
    9.6680    1.5698    0.0000 C   0  0  0  0  0  0  0  0  0  0  0  0
   -1.7691    0.2367    0.0000 C   0  0  0  0  0  0  0  0  0  0  0  0
   12.4338    0.2243    0.0000 C   0  0  0  0  0  0  0  0  0  0  0  0
   -1.0216   -0.1620    0.0000 C   0  0  0  0  0  0  0  0  0  0  0  0
   11.7362   -0.1620    0.0000 C   0  0  0  0  0  0  0  0  0  0  0  0
   -1.6072    1.0466    0.0000 C   0  0  0  0  0  0  0  0  0  0  0  0
   12.3093    1.0341    0.0000 C   0  0  0  0  0  0  0  0  0  0  0  0
    1.7567    0.3239    0.0000 C   0  0  0  0  0  0  0  0  0  0  0  0
    8.9330    0.3364    0.0000 C   0  0  0  0  0  0  0  0  0  0  0  0
   -0.4236    1.9062    0.0000 C   0  0  0  0  0  0  0  0  0  0  0  0
   11.1257    1.8937    0.0000 C   0  0  0  0  0  0  0  0  0  0  0  0
    2.4544    0.7475    0.0000 C   0  0  0  0  0  0  0  0  0  0  0  0
    8.2228    0.7475    0.0000 C   0  0  0  0  0  0  0  0  0  0  0  0
    2.4669    1.5823    0.0000 C   0  0  0  0  0  0  0  0  0  0  0  0
    8.2352    1.5698    0.0000 C   0  0  0  0  0  0  0  0  0  0  0  0
    1.7567    1.9810    0.0000 C   0  0  0  0  0  0  0  0  0  0  0  0
    8.9454    1.9685    0.0000 C   0  0  0  0  0  0  0  0  0  0  0  0
   -2.5665    0.0125    0.0000 C   0  0  0  0  0  0  0  0  0  0  0  0
   13.2562    0.0125    0.0000 C   0  0  0  0  0  0  0  0  0  0  0  0
   -3.1521    0.5856    0.0000 C   0  0  0  0  0  0  0  0  0  0  0  0
   -2.7783   -0.7849    0.0000 C   0  0  0  0  0  0  0  0  0  0  0  0
   13.4804   -0.7849    0.0000 C   0  0  0  0  0  0  0  0  0  0  0  0
   13.8417    0.5856    0.0000 C   0  0  0  0  0  0  0  0  0  0  0  0
   -4.1737   -0.4236    0.0000 C   0  0  0  0  0  0  0  0  0  0  0  0
   -3.9370    0.3737    0.0000 C   0  0  0  0  0  0  0  0  0  0  0  0
   -3.5756   -0.9967    0.0000 C   0  0  0  0  0  0  0  0  0  0  0  0
   14.2777   -0.9967    0.0000 C   0  0  0  0  0  0  0  0  0  0  0  0
   14.6391    0.3737    0.0000 C   0  0  0  0  0  0  0  0  0  0  0  0
   14.8509   -0.4111    0.0000 C   0  0  0  0  0  0  0  0  0  0  0  0
    3.9246    1.5698    0.0000 C   0  0  0  0  0  0  0  0  0  0  0  0
    6.7900    1.5698    0.0000 C   0  0  0  0  0  0  0  0  0  0  0  0
    3.9121    0.7350    0.0000 C   0  0  0  0  0  0  0  0  0  0  0  0
    6.7900    0.7226    0.0000 C   0  0  0  0  0  0  0  0  0  0  0  0
   -4.8714   -0.8347    0.0000 C   0  0  0  0  0  0  0  0  0  0  0  0
    4.6222    1.9810    0.0000 C   0  0  0  0  0  0  0  0  0  0  0  0
    6.0550    1.9810    0.0000 C   0  0  0  0  0  0  0  0  0  0  0  0
    5.3573    1.5698    0.0000 C   0  0  0  0  0  0  0  0  0  0  0  0
   -6.3290   -0.8223    0.0000 C   0  0  0  0  0  0  0  0  0  0  0  0
   16.2213   -0.0623    0.0000 C   0  0  0  0  0  0  0  0  0  0  0  0
   -7.0517   -0.4111    0.0000 C   0  0  3  0  0  0  0  0  0  0  0  0
   -8.4845   -0.4361    0.0000 C   0  0  0  0  0  0  0  0  0  0  0  0
   -9.1946   -0.8347    0.0000 C   0  0  3  0  0  0  0  0  0  0  0  0
  -14.9755   -1.6570    0.0000 C   0  0  0  0  0  0  0  0  0  0  0  0
  -15.7354   -0.5856    0.0000 C   0  0  0  0  0  0  0  0  0  0  0  0
   -7.0392    0.3987    0.0000 C   0  0  0  0  0  0  0  0  0  0  0  0
   -9.2070   -1.6694    0.0000 C   0  0  0  0  0  0  0  0  0  0  0  0
  -15.7479   -1.9187    0.0000 C   0  0  0  0  0  0  0  0  0  0  0  0
  -16.2213   -1.2583    0.0000 C   0  0  0  0  0  0  0  0  0  0  0  0
  -14.2404   -0.4236    0.0000 C   0  0  0  0  0  0  0  0  0  0  0  0
  -10.6398   -0.8098    0.0000 C   0  0  0  0  0  0  0  0  0  0  0  0
  -13.5053   -0.8347    0.0000 C   0  0  0  0  0  0  0  0  0  0  0  0
  -11.3624   -0.4236    0.0000 C   0  0  0  0  0  0  0  0  0  0  0  0
   -9.9048   -2.0931    0.0000 C   0  0  0  0  0  0  0  0  0  0  0  0
   -8.4845   -2.0807    0.0000 C   0  0  0  0  0  0  0  0  0  0  0  0
  -12.8077   -0.4236    0.0000 C   0  0  0  0  0  0  0  0  0  0  0  0
  -12.0726   -0.8347    0.0000 C   0  0  0  0  0  0  0  0  0  0  0  0
  1 23  2  0  0  0  0
  2 24  2  0  0  0  0
  3 41  1  0  0  0  0
  3 57  1  0  0  0  0
  4 42  1  0  0  0  0
  4 58  1  0  0  0  0
  5 39  1  0  0  0  0
  5 59  1  0  0  0  0
  6 40  1  0  0  0  0
  6 60  1  0  0  0  0
  7 56  1  0  0  0  0
  7 66  1  0  0  0  0
  8 65  2  0  0  0  0
  9 68  2  0  0  0  0
 10 71  2  0  0  0  0
 11 70  2  0  0  0  0
 12 77  2  0  0  0  0
 13 23  1  0  0  0  0
 25 13  1  1  0  0  0
 13 31  1  0  0  0  0
 14 24  1  0  0  0  0
 26 14  1  6  0  0  0
 14 32  1  0  0  0  0
 15 27  1  0  0  0  0
 15 37  2  0  0  0  0
 16 28  1  0  0  0  0
 16 38  2  0  0  0  0
 17 61  1  0  0  0  0
 17 65  1  0  0  0  0
 18 67  1  0  0  0  0
 18 68  1  0  0  0  0
 19 70  1  0  0  0  0
 19 71  1  0  0  0  0
 19 76  1  0  0  0  0
 69 20  1  6  0  0  0
 20 77  1  0  0  0  0
 21 23  1  0  0  0  0
 21 27  1  0  0  0  0
 21 35  2  0  0  0  0
 22 24  1  0  0  0  0
 22 28  2  0  0  0  0
 22 36  1  0  0  0  0
 25 33  1  0  0  0  0
 25 37  1  0  0  0  0
 26 34  1  0  0  0  0
 26 38  1  0  0  0  0
 27 43  2  0  0  0  0
 28 44  1  0  0  0  0
 29 31  2  0  0  0  0
 29 33  1  0  0  0  0
 29 45  1  0  0  0  0
 30 32  2  0  0  0  0
 30 34  1  0  0  0  0
 30 46  1  0  0  0  0
 35 39  1  0  0  0  0
 36 40  2  0  0  0  0
 39 41  2  0  0  0  0
 40 42  1  0  0  0  0
 41 43  1  0  0  0  0
 42 44  2  0  0  0  0
 45 47  2  0  0  0  0
 45 48  1  0  0  0  0
 46 49  2  0  0  0  0
 46 50  1  0  0  0  0
 47 52  1  0  0  0  0
 48 53  2  0  0  0  0
 49 54  1  0  0  0  0
 50 55  2  0  0  0  0
 51 52  2  0  0  0  0
 51 53  1  0  0  0  0
 51 61  1  0  0  0  0
 54 56  2  0  0  0  0
 55 56  1  0  0  0  0
 57 62  1  0  0  0  0
 58 63  1  0  0  0  0
 62 64  1  0  0  0  0
 63 64  1  0  0  0  0
 65 67  1  0  0  0  0
 67 72  1  1  0  0  0
 68 69  1  0  0  0  0
 69 73  1  0  0  0  0
 70 74  1  0  0  0  0
 71 75  1  0  0  0  0
 73 80  1  0  0  0  0
 73 81  1  0  0  0  0
 74 75  2  0  0  0  0
 76 78  1  0  0  0  0
 77 79  1  0  0  0  0
 78 82  1  0  0  0  0
 79 83  1  0  0  0  0
 82 83  1  0  0  0  0
M  END
> <PUBCHEM_COMPOUND_ID_TYPE>
0

> <PUBCHEM_TOTAL_CHARGE>
0

> <PUBCHEM_SUBSTANCE_ID>
310945670

> <PUBCHEM_SUBSTANCE_VERSION>
1

> <PUBCHEM_EXT_DATASOURCE_NAME>
4488

> <PUBCHEM_EXT_DATASOURCE_REGID>
SCHEMBL16123771

> <PUBCHEM_SUBSTANCE_COMMENT>
InChI=1S/C63H70N8O12/c1-38(2)59(68-56(72)13-9-7-10-24-69-57(73)22-23-58(69)74)61(76)67-39(3)60(75)66-33-40-14-16-41(17-15-40)43-27-45-34-64-50-31-54(52(80-5)29-48(50)62(77)70(45)36-43)82-25-11-8-12-26-83-55-32-51-49(30-53(55)81-6)63(78)71-37-44(28-46(71)35-65-51)42-18-20-47(79-4)21-19-42/h14-23,29-32,34-39,45-46,59H,7-13,24-28,33H2,1-6H3,(H,66,75)(H,67,76)(H,68,72)/t39-,45-,46-,59-/m0/s1
InChIKey=ZFZBCEZVHPBIDL-CSEPLDKQSA-N

> <PUBCHEM_SUBSTANCE_SYNONYM>
SCHEMBL16123771

> <PUBCHEM_XREF_EXT_ID>
SCHEMBL16123771

> <PUBCHEM_EXT_DATASOURCE_URL>
https://www.surechembl.org/

> <PUBCHEM_EXT_SUBSTANCE_URL>
https://www.surechembl.org/chemical/SCHEMBL16123771

> <PUBCHEM_CID_ASSOCIATIONS>
117611671  1

> <PUBCHEM_COORDINATE_TYPE>
1
3

> <PUBCHEM_BONDANNOTATIONS>
25  13  5
26  14  6
69  20  6
67  72  5

$$$$
