310942601
  -OEChem-07211613022D

 64 69  0     1  0  0  0  0  0999 V2000
    1.8346    1.6666    0.0000 F   0  0  0  0  0  0  0  0  0  0  0  0
    2.9750   -3.2892    0.0000 F   0  0  0  0  0  0  0  0  0  0  0  0
    3.1942    4.6635    0.0000 F   0  0  0  0  0  0  0  0  0  0  0  0
    2.4486    0.5555    0.0000 O   0  0  0  0  0  0  0  0  0  0  0  0
    6.0157   -1.5204    0.0000 O   0  0  0  0  0  0  0  0  0  0  0  0
   -0.4751   -3.4355    0.0000 O   0  0  0  0  0  0  0  0  0  0  0  0
   -0.7675   -2.0174    0.0000 O   0  0  0  0  0  0  0  0  0  0  0  0
   -0.4167   -0.2632    0.0000 O   0  0  0  0  0  0  0  0  0  0  0  0
   -1.1330   -1.5057    0.0000 O   0  0  0  0  0  0  0  0  0  0  0  0
   -5.6064    1.0964    0.0000 O   0  0  0  0  0  0  0  0  0  0  0  0
   -7.0536   -1.4034    0.0000 O   0  0  0  0  0  0  0  0  0  0  0  0
   -3.9836   -0.6871    0.0000 O   0  0  0  0  0  0  0  0  0  0  0  0
    4.5392    1.0379    0.0000 N   0  0  0  0  0  0  0  0  0  0  0  0
    3.1504   -0.6725    0.0000 N   0  0  0  0  0  0  0  0  0  0  0  0
    3.2089    1.0379    0.0000 N   0  0  0  0  0  0  0  0  0  0  0  0
    1.1330   -2.1928    0.0000 N   0  0  0  0  0  0  0  0  0  0  0  0
    1.7323   -0.6725    0.0000 N   0  0  0  0  0  0  0  0  0  0  0  0
   -6.1326   -0.2632    0.0000 N   0  0  0  0  0  0  0  0  0  0  0  0
   -1.8493   -0.2632    0.0000 N   0  0  0  0  0  0  0  0  0  0  0  0
    3.8813    0.5555    0.0000 C   0  0  0  0  0  0  0  0  0  0  0  0
    3.8667   -0.2632    0.0000 C   0  0  3  0  0  0  0  0  0  0  0  0
    3.4720    1.8274    0.0000 C   0  0  0  0  0  0  0  0  0  0  0  0
    4.5830   -0.6725    0.0000 C   0  0  0  0  0  0  0  0  0  0  0  0
    4.3053    1.8127    0.0000 C   0  0  0  0  0  0  0  0  0  0  0  0
    2.9896    2.4998    0.0000 C   0  0  0  0  0  0  0  0  0  0  0  0
    3.1504   -1.5057    0.0000 C   0  0  0  0  0  0  0  0  0  0  0  0
    2.4341   -0.2777    0.0000 C   0  0  0  0  0  0  0  0  0  0  0  0
    2.4486   -1.9005    0.0000 C   0  0  3  0  0  0  0  0  0  0  0  0
    5.2701    0.6286    0.0000 C   0  0  0  0  0  0  0  0  0  0  0  0
    2.1709    2.4267    0.0000 C   0  0  0  0  0  0  0  0  0  0  0  0
    2.3610   -2.7337    0.0000 C   0  0  3  0  0  0  0  0  0  0  0  0
    4.5830   -1.5057    0.0000 C   0  0  0  0  0  0  0  0  0  0  0  0
    5.2847   -0.2777    0.0000 C   0  0  0  0  0  0  0  0  0  0  0  0
    3.3258    3.2600    0.0000 C   0  0  0  0  0  0  0  0  0  0  0  0
    1.6885   -1.5788    0.0000 C   0  0  0  0  0  0  0  0  0  0  0  0
    5.9865    1.0379    0.0000 C   0  0  0  0  0  0  0  0  0  0  0  0
    1.5423   -2.8946    0.0000 C   0  0  0  0  0  0  0  0  0  0  0  0
    2.8434    3.9032    0.0000 C   0  0  0  0  0  0  0  0  0  0  0  0
    1.7031    3.0846    0.0000 C   0  0  0  0  0  0  0  0  0  0  0  0
   -0.2266   -2.6021    0.0000 C   0  0  0  0  0  0  0  0  0  0  0  0
    6.0010   -0.6871    0.0000 C   0  0  0  0  0  0  0  0  0  0  0  0
    5.2994   -1.9151    0.0000 C   0  0  0  0  0  0  0  0  0  0  0  0
    2.0393    3.8301    0.0000 C   0  0  0  0  0  0  0  0  0  0  0  0
    1.0160   -0.2632    0.0000 C   0  0  3  0  0  0  0  0  0  0  0  0
    6.6882    0.6286    0.0000 C   0  0  0  0  0  0  0  0  0  0  0  0
    5.9865    1.8420    0.0000 C   0  0  0  0  0  0  0  0  0  0  0  0
    0.0804   -4.0640    0.0000 C   0  0  0  0  0  0  0  0  0  0  0  0
    7.4191    1.0379    0.0000 C   0  0  0  0  0  0  0  0  0  0  0  0
    6.7028    2.2659    0.0000 C   0  0  0  0  0  0  0  0  0  0  0  0
    0.3143   -0.6725    0.0000 C   0  0  0  0  0  0  0  0  0  0  0  0
    7.4337    1.8566    0.0000 C   0  0  0  0  0  0  0  0  0  0  0  0
    1.0160    0.5409    0.0000 C   0  0  0  0  0  0  0  0  0  0  0  0
   -0.4459   -4.6195    0.0000 C   0  0  0  0  0  0  0  0  0  0  0  0
    0.6359   -3.5378    0.0000 C   0  0  0  0  0  0  0  0  0  0  0  0
    0.6652   -4.6635    0.0000 C   0  0  0  0  0  0  0  0  0  0  0  0
   -1.1183   -0.6432    0.0000 C   0  0  0  0  0  0  0  0  0  0  0  0
   -6.8636   -0.5702    0.0000 C   0  0  0  0  0  0  0  0  0  0  0  0
   -6.2349    0.5409    0.0000 C   0  0  0  0  0  0  0  0  0  0  0  0
   -7.4337    0.0146    0.0000 C   0  0  0  0  0  0  0  0  0  0  0  0
   -6.9952    0.7309    0.0000 C   0  0  0  0  0  0  0  0  0  0  0  0
   -5.4017   -0.6725    0.0000 C   0  0  0  0  0  0  0  0  0  0  0  0
   -4.7000   -0.2632    0.0000 C   0  0  0  0  0  0  0  0  0  0  0  0
   -2.5510   -0.6725    0.0000 C   0  0  0  0  0  0  0  0  0  0  0  0
   -3.2673   -0.2632    0.0000 C   0  0  0  0  0  0  0  0  0  0  0  0
  1 30  1  0  0  0  0
 31  2  1  1  0  0  0
  3 38  1  0  0  0  0
  4 27  2  0  0  0  0
  5 41  1  0  0  0  0
  5 42  1  0  0  0  0
  6 40  1  0  0  0  0
  6 47  1  0  0  0  0
  7 40  2  0  0  0  0
  8 50  1  0  0  0  0
  8 56  1  0  0  0  0
  9 56  2  0  0  0  0
 10 58  2  0  0  0  0
 11 57  2  0  0  0  0
 12 62  1  0  0  0  0
 12 64  1  0  0  0  0
 13 20  1  0  0  0  0
 13 24  1  0  0  0  0
 13 29  1  0  0  0  0
 21 14  1  1  0  0  0
 14 26  1  0  0  0  0
 14 27  1  0  0  0  0
 15 20  2  0  0  0  0
 15 22  1  0  0  0  0
 16 35  1  0  0  0  0
 16 37  1  0  0  0  0
 16 40  1  0  0  0  0
 17 27  1  0  0  0  0
 17 44  1  0  0  0  0
 18 57  1  0  0  0  0
 18 58  1  0  0  0  0
 18 61  1  0  0  0  0
 19 56  1  0  0  0  0
 19 63  1  0  0  0  0
 20 21  1  0  0  0  0
 21 23  1  0  0  0  0
 22 24  2  0  0  0  0
 22 25  1  0  0  0  0
 23 32  1  0  0  0  0
 23 33  1  0  0  0  0
 25 30  2  0  0  0  0
 25 34  1  0  0  0  0
 28 26  1  1  0  0  0
 28 31  1  0  0  0  0
 28 35  1  0  0  0  0
 29 36  1  0  0  0  0
 30 39  1  0  0  0  0
 31 37  1  0  0  0  0
 32 42  1  0  0  0  0
 33 41  1  0  0  0  0
 34 38  2  0  0  0  0
 36 45  2  0  0  0  0
 36 46  1  0  0  0  0
 38 43  1  0  0  0  0
 39 43  2  0  0  0  0
 44 50  1  0  0  0  0
 44 52  1  6  0  0  0
 45 48  1  0  0  0  0
 46 49  2  0  0  0  0
 47 53  1  0  0  0  0
 47 54  1  0  0  0  0
 47 55  1  0  0  0  0
 48 51  2  0  0  0  0
 49 51  1  0  0  0  0
 57 59  1  0  0  0  0
 58 60  1  0  0  0  0
 59 60  2  0  0  0  0
 61 62  1  0  0  0  0
 63 64  1  0  0  0  0
M  END
> <PUBCHEM_COMPOUND_ID_TYPE>
0

> <PUBCHEM_TOTAL_CHARGE>
0

> <PUBCHEM_SUBSTANCE_ID>
310942601

> <PUBCHEM_SUBSTANCE_VERSION>
1

> <PUBCHEM_EXT_DATASOURCE_NAME>
4488

> <PUBCHEM_EXT_DATASOURCE_REGID>
SCHEMBL16120647

> <PUBCHEM_SUBSTANCE_COMMENT>
InChI=1S/C45H56F3N7O9/c1-29(28-63-43(59)49-16-20-62-21-17-54-38(56)12-13-39(54)57)50-42(58)55(25-32-24-53(26-36(32)48)44(60)64-45(2,3)4)40(31-14-18-61-19-15-31)41-51-37(34-22-33(46)10-11-35(34)47)27-52(41)23-30-8-6-5-7-9-30/h5-13,22,27,29,31-32,36,40H,14-21,23-26,28H2,1-4H3,(H,49,59)(H,50,58)/t29-,32-,36-,40+/m0/s1
InChIKey=QOJAPQPVYKZKOH-BIFDPIMUSA-N

> <PUBCHEM_SUBSTANCE_SYNONYM>
SCHEMBL16120647

> <PUBCHEM_XREF_EXT_ID>
SCHEMBL16120647

> <PUBCHEM_EXT_DATASOURCE_URL>
https://www.surechembl.org/

> <PUBCHEM_EXT_SUBSTANCE_URL>
https://www.surechembl.org/chemical/SCHEMBL16120647

> <PUBCHEM_CID_ASSOCIATIONS>
117609140  1

> <PUBCHEM_COORDINATE_TYPE>
1
3

> <PUBCHEM_BONDANNOTATIONS>
21  14  5
31  2  5
28  26  5
44  52  6

$$$$
