310937993
  -OEChem-07211613022D

 45 49  0     1  0  0  0  0  0999 V2000
    4.5583   -3.5833    0.0000 F   0  0  0  0  0  0  0  0  0  0  0  0
    4.0734   -2.9158    0.0000 F   0  0  0  0  0  0  0  0  0  0  0  0
    4.2228   -4.3370    0.0000 F   0  0  0  0  0  0  0  0  0  0  0  0
    1.0901   -6.1030    0.0000 F   0  0  0  0  0  0  0  0  0  0  0  0
    1.9107   -6.0168    0.0000 F   0  0  0  0  0  0  0  0  0  0  0  0
    0.6052   -5.4356    0.0000 F   0  0  0  0  0  0  0  0  0  0  0  0
    0.3020   -2.5071    0.0000 O   0  0  0  0  0  0  0  0  0  0  0  0
   -0.7376   -1.4675    0.0000 O   0  0  0  0  0  0  0  0  0  0  0  0
   -3.8533    0.9850    0.0000 O   0  0  0  0  0  0  0  0  0  0  0  0
   -2.4555    1.2821    0.0000 O   0  0  0  0  0  0  0  0  0  0  0  0
    0.7145   -1.2375    0.0000 N   0  0  0  0  0  0  0  0  0  0  0  0
    0.7145    1.2375    0.0000 N   0  0  3  0  0  0  0  0  0  0  0  0
   -0.7145    1.2375    0.0000 N   0  0  0  0  0  0  0  0  0  0  0  0
   -2.8971   -0.0770    0.0000 N   0  0  0  0  0  0  0  0  0  0  0  0
    1.1270   -2.5071    0.0000 C   0  0  3  0  0  0  0  0  0  0  0  0
    1.3820   -1.7224    0.0000 C   0  0  3  0  0  0  0  0  0  0  0  0
    1.6119   -3.1745    0.0000 C   0  0  0  0  0  0  0  0  0  0  0  0
    0.0470   -1.7224    0.0000 C   0  0  0  0  0  0  0  0  0  0  0  0
    0.0000    0.0000    0.0000 C   0  0  0  0  0  0  0  0  0  0  0  0
    0.7145   -0.4125    0.0000 C   0  0  0  0  0  0  0  0  0  0  0  0
    2.9174   -3.7557    0.0000 C   0  0  0  0  0  0  0  0  0  0  0  0
    1.7613   -4.5957    0.0000 C   0  0  0  0  0  0  0  0  0  0  0  0
    0.0000    0.8250    0.0000 C   0  0  0  0  0  0  0  0  0  0  0  0
    1.2764   -3.9282    0.0000 C   0  0  0  0  0  0  0  0  0  0  0  0
    2.4324   -3.0883    0.0000 C   0  0  0  0  0  0  0  0  0  0  0  0
   -1.4290    0.0000    0.0000 C   0  0  0  0  0  0  0  0  0  0  0  0
    2.5818   -4.5094    0.0000 C   0  0  0  0  0  0  0  0  0  0  0  0
   -0.7145   -0.4125    0.0000 C   0  0  0  0  0  0  0  0  0  0  0  0
    3.7378   -3.6695    0.0000 C   0  0  0  0  0  0  0  0  0  0  0  0
    1.4257   -5.3494    0.0000 C   0  0  0  0  0  0  0  0  0  0  0  0
   -2.1434   -0.4125    0.0000 C   0  0  0  0  0  0  0  0  0  0  0  0
   -1.4290    0.8250    0.0000 C   0  0  0  0  0  0  0  0  0  0  0  0
    2.1665   -1.4675    0.0000 C   0  0  0  0  0  0  0  0  0  0  0  0
    0.7145    2.0625    0.0000 C   0  0  0  0  0  0  0  0  0  0  0  0
   -2.2297   -1.2330    0.0000 C   0  0  0  0  0  0  0  0  0  0  0  0
   -3.4492   -0.6901    0.0000 C   0  0  0  0  0  0  0  0  0  0  0  0
    1.4290    0.8250    0.0000 C   0  0  0  0  0  0  0  0  0  0  0  0
   -3.0686    0.7300    0.0000 C   0  0  0  0  0  0  0  0  0  0  0  0
   -3.0367   -1.4045    0.0000 C   0  0  0  0  0  0  0  0  0  0  0  0
    0.0000    2.4750    0.0000 C   0  0  0  0  0  0  0  0  0  0  0  0
    1.4290    2.4750    0.0000 C   0  0  0  0  0  0  0  0  0  0  0  0
    0.0000    3.3000    0.0000 C   0  0  0  0  0  0  0  0  0  0  0  0
    1.4290    3.3000    0.0000 C   0  0  0  0  0  0  0  0  0  0  0  0
    2.1434    1.2375    0.0000 C   0  0  0  0  0  0  0  0  0  0  0  0
    0.7145    3.7126    0.0000 C   0  0  0  0  0  0  0  0  0  0  0  0
  1 29  1  0  0  0  0
  2 29  1  0  0  0  0
  3 29  1  0  0  0  0
  4 30  1  0  0  0  0
  5 30  1  0  0  0  0
  6 30  1  0  0  0  0
 15  7  1  6  0  0  0
  7 18  1  0  0  0  0
  8 18  2  0  0  0  0
  9 38  2  0  0  0  0
 10 38  1  0  0  0  0
 11 16  1  0  0  0  0
 11 18  1  0  0  0  0
 11 20  1  0  0  0  0
 12 23  1  0  0  0  0
 12 34  1  0  0  0  0
 12 37  1  0  0  0  0
 13 23  1  0  0  0  0
 13 32  2  0  0  0  0
 14 31  1  0  0  0  0
 14 36  1  0  0  0  0
 14 38  1  0  0  0  0
 15 16  1  0  0  0  0
 15 17  1  0  0  0  0
 16 33  1  1  0  0  0
 17 24  2  0  0  0  0
 17 25  1  0  0  0  0
 19 20  1  0  0  0  0
 19 23  2  0  0  0  0
 19 28  1  0  0  0  0
 21 25  2  0  0  0  0
 21 27  1  0  0  0  0
 21 29  1  0  0  0  0
 22 24  1  0  0  0  0
 22 27  2  0  0  0  0
 22 30  1  0  0  0  0
 26 28  2  0  0  0  0
 26 31  1  0  0  0  0
 26 32  1  0  0  0  0
 31 35  2  0  0  0  0
 34 40  1  0  0  0  0
 34 41  1  0  0  0  0
 35 39  1  0  0  0  0
 36 39  2  0  0  0  0
 37 44  1  0  0  0  0
 40 42  1  0  0  0  0
 41 43  1  0  0  0  0
 42 45  1  0  0  0  0
 43 45  1  0  0  0  0
M  END
> <PUBCHEM_COMPOUND_ID_TYPE>
0

> <PUBCHEM_TOTAL_CHARGE>
0

> <PUBCHEM_SUBSTANCE_ID>
310937993

> <PUBCHEM_SUBSTANCE_VERSION>
1

> <PUBCHEM_EXT_DATASOURCE_NAME>
4488

> <PUBCHEM_EXT_DATASOURCE_REGID>
SCHEMBL16115830

> <PUBCHEM_SUBSTANCE_COMMENT>
InChI=1S/C31H32F6N4O4/c1-3-39(24-8-5-4-6-9-24)27-21(12-20(16-38-27)25-10-7-11-40(25)28(42)43)17-41-18(2)26(45-29(41)44)19-13-22(30(32,33)34)15-23(14-19)31(35,36)37/h7,10-16,18,24,26H,3-6,8-9,17H2,1-2H3,(H,42,43)/t18-,26+/m0/s1
InChIKey=VNGGGYYBXYHNOJ-HFJWLAOPSA-N

> <PUBCHEM_SUBSTANCE_SYNONYM>
SCHEMBL16115830

> <PUBCHEM_XREF_EXT_ID>
SCHEMBL16115830

> <PUBCHEM_EXT_DATASOURCE_URL>
https://www.surechembl.org/

> <PUBCHEM_EXT_SUBSTANCE_URL>
https://www.surechembl.org/chemical/SCHEMBL16115830

> <PUBCHEM_CID_ASSOCIATIONS>
117605590  1

> <PUBCHEM_COORDINATE_TYPE>
1
3

> <PUBCHEM_BONDANNOTATIONS>
16  33  5
15  7  6

$$$$
