310939368
  -OEChem-07211613022D

 26 27  0     1  0  0  0  0  0999 V2000
    1.4289    1.4437    0.0000 Cl  0  0  0  0  0  0  0  0  0  0  0  0
    0.0000   -1.0313    0.0000 F   0  0  0  0  0  0  0  0  0  0  0  0
    1.4289   -0.2063    0.0000 O   0  0  0  0  0  0  0  0  0  0  0  0
   -4.2868   -0.2063    0.0000 O   0  0  0  0  0  0  0  0  0  0  0  0
   -2.1434    0.2062    0.0000 N   0  0  0  0  0  0  0  0  0  0  0  0
    2.8579   -0.2062    0.0000 N   0  0  0  0  0  0  0  0  0  0  0  0
    2.1434    1.0312    0.0000 N   0  0  0  0  0  0  0  0  0  0  0  0
    4.2868    1.4437    0.0000 N   0  0  0  0  0  0  0  0  0  0  0  0
   -3.5724    1.0312    0.0000 N   0  0  0  0  0  0  0  0  0  0  0  0
    0.7145    0.2062    0.0000 C   0  0  0  0  0  0  0  0  0  0  0  0
    0.0000   -0.2063    0.0000 C   0  0  0  0  0  0  0  0  0  0  0  0
   -0.7145    0.2062    0.0000 C   0  0  0  0  0  0  0  0  0  0  0  0
    0.7145    1.0312    0.0000 C   0  0  0  0  0  0  0  0  0  0  0  0
   -1.4289   -0.2063    0.0000 C   0  0  3  0  0  0  0  0  0  0  0  0
   -0.7145    1.0312    0.0000 C   0  0  0  0  0  0  0  0  0  0  0  0
    0.0000    1.4438    0.0000 C   0  0  0  0  0  0  0  0  0  0  0  0
    2.1434    0.2062    0.0000 C   0  0  0  0  0  0  0  0  0  0  0  0
   -1.4289   -1.0313    0.0000 C   0  0  0  0  0  0  0  0  0  0  0  0
   -2.1434    1.0312    0.0000 C   0  0  3  0  0  0  0  0  0  0  0  0
    3.5724    1.0312    0.0000 C   0  0  0  0  0  0  0  0  0  0  0  0
    3.5724    0.2062    0.0000 C   0  0  0  0  0  0  0  0  0  0  0  0
    2.8579    1.4437    0.0000 C   0  0  0  0  0  0  0  0  0  0  0  0
   -2.8579    1.4437    0.0000 C   0  0  0  0  0  0  0  0  0  0  0  0
   -0.7145   -1.4438    0.0000 C   0  0  0  0  0  0  0  0  0  0  0  0
   -1.4289    1.4437    0.0000 C   0  0  0  0  0  0  0  0  0  0  0  0
   -3.5724    0.2062    0.0000 C   0  0  0  0  0  0  0  0  0  0  0  0
  1 13  1  0  0  0  0
  2 11  1  0  0  0  0
  3 10  1  0  0  0  0
  3 17  1  0  0  0  0
  4 26  2  0  0  0  0
 14  5  1  1  0  0  0
  5 19  1  0  0  0  0
  6 17  2  0  0  0  0
  6 21  1  0  0  0  0
  7 17  1  0  0  0  0
  7 22  2  0  0  0  0
  8 20  1  0  0  0  0
  9 23  1  0  0  0  0
  9 26  1  0  0  0  0
 10 11  2  0  0  0  0
 10 13  1  0  0  0  0
 11 12  1  0  0  0  0
 12 14  1  0  0  0  0
 12 15  2  0  0  0  0
 13 16  2  0  0  0  0
 14 18  1  0  0  0  0
 15 16  1  0  0  0  0
 18 24  1  0  0  0  0
 19 23  1  0  0  0  0
 19 25  1  1  0  0  0
 20 21  2  0  0  0  0
 20 22  1  0  0  0  0
M  END
> <PUBCHEM_COMPOUND_ID_TYPE>
0

> <PUBCHEM_TOTAL_CHARGE>
0

> <PUBCHEM_SUBSTANCE_ID>
310939368

> <PUBCHEM_SUBSTANCE_VERSION>
1

> <PUBCHEM_EXT_DATASOURCE_NAME>
4488

> <PUBCHEM_EXT_DATASOURCE_REGID>
SCHEMBL16117289

> <PUBCHEM_SUBSTANCE_COMMENT>
InChI=1S/C17H21ClFN5O2/c1-3-14(24-10(2)6-21-9-25)12-4-5-13(18)16(15(12)19)26-17-22-7-11(20)8-23-17/h4-5,7-10,14,24H,3,6,20H2,1-2H3,(H,21,25)/t10-,14-/m1/s1
InChIKey=TXJJJGYJWAQWKK-QMTHXVAHSA-N

> <PUBCHEM_SUBSTANCE_SYNONYM>
SCHEMBL16117289

> <PUBCHEM_XREF_EXT_ID>
SCHEMBL16117289

> <PUBCHEM_EXT_DATASOURCE_URL>
https://www.surechembl.org/

> <PUBCHEM_EXT_SUBSTANCE_URL>
https://www.surechembl.org/chemical/SCHEMBL16117289

> <PUBCHEM_CID_ASSOCIATIONS>
117606695  1

> <PUBCHEM_COORDINATE_TYPE>
1
3

> <PUBCHEM_BONDANNOTATIONS>
19  25  5
14  5  5

$$$$
