310937108
  -OEChem-07211613022D

 23 26  0     0  0  0  0  0  0999 V2000
    1.6068   -2.9238    0.0000 O   0  0  0  0  0  0  0  0  0  0  0  0
    5.6896   -2.2126    0.0000 O   0  0  0  0  0  0  0  0  0  0  0  0
    0.0000   -4.1091    0.0000 O   0  0  0  0  0  0  0  0  0  0  0  0
    4.4253   -1.8175    0.0000 N   0  0  0  0  0  0  0  0  0  0  0  0
    3.8457   -3.8984    0.0000 N   0  0  0  0  0  0  0  0  0  0  0  0
    5.2155   -2.8974    0.0000 N   0  0  0  0  0  0  0  0  0  0  0  0
    2.4497   -4.0565    0.0000 C   0  0  0  0  0  0  0  0  0  0  0  0
    3.7667   -3.1082    0.0000 C   0  0  0  0  0  0  0  0  0  0  0  0
    2.3443   -3.2663    0.0000 C   0  0  0  0  0  0  0  0  0  0  0  0
    4.4253   -2.6340    0.0000 C   0  0  0  0  0  0  0  0  0  0  0  0
    1.7649   -4.5306    0.0000 C   0  0  0  0  0  0  0  0  0  0  0  0
    5.2155   -1.5541    0.0000 C   0  0  0  0  0  0  0  0  0  0  0  0
    3.0028   -2.7394    0.0000 C   0  0  0  0  0  0  0  0  0  0  0  0
    5.4525   -0.7639    0.0000 C   0  0  0  0  0  0  0  0  0  0  0  0
    3.1872   -4.3989    0.0000 C   0  0  0  0  0  0  0  0  0  0  0  0
    1.4487   -5.2682    0.0000 C   0  0  0  0  0  0  0  0  0  0  0  0
    0.9483   -4.6096    0.0000 C   0  0  0  0  0  0  0  0  0  0  0  0
    0.9483   -3.4243    0.0000 C   0  0  0  0  0  0  0  0  0  0  0  0
    0.1053   -3.3189    0.0000 C   0  0  0  0  0  0  0  0  0  0  0  0
    0.8166   -4.2408    0.0000 C   0  0  0  0  0  0  0  0  0  0  0  0
    6.2427   -1.0273    0.0000 C   0  0  0  0  0  0  0  0  0  0  0  0
    5.7159    0.0000    0.0000 C   0  0  0  0  0  0  0  0  0  0  0  0
    4.6887   -0.5268    0.0000 C   0  0  0  0  0  0  0  0  0  0  0  0
  1  9  1  0  0  0  0
  1 18  1  0  0  0  0
  2  6  1  0  0  0  0
  2 12  1  0  0  0  0
  3 19  1  0  0  0  0
  3 20  1  0  0  0  0
  4 10  1  0  0  0  0
  4 12  2  0  0  0  0
  5  8  1  0  0  0  0
  5 15  2  0  0  0  0
  6 10  2  0  0  0  0
  7  9  2  0  0  0  0
  7 11  1  0  0  0  0
  7 15  1  0  0  0  0
  8 10  1  0  0  0  0
  8 13  2  0  0  0  0
  9 13  1  0  0  0  0
 11 16  1  0  0  0  0
 11 17  1  0  0  0  0
 12 14  1  0  0  0  0
 14 21  1  0  0  0  0
 14 22  1  0  0  0  0
 14 23  1  0  0  0  0
 16 17  1  0  0  0  0
 18 19  1  0  0  0  0
 18 20  1  0  0  0  0
M  END
> <PUBCHEM_COMPOUND_ID_TYPE>
0

> <PUBCHEM_TOTAL_CHARGE>
0

> <PUBCHEM_SUBSTANCE_ID>
310937108

> <PUBCHEM_SUBSTANCE_VERSION>
1

> <PUBCHEM_EXT_DATASOURCE_NAME>
4488

> <PUBCHEM_EXT_DATASOURCE_REGID>
SCHEMBL16114825

> <PUBCHEM_SUBSTANCE_COMMENT>
InChI=1S/C17H21N3O3/c1-17(2,3)16-19-15(20-23-16)13-6-14(22-11-8-21-9-11)12(7-18-13)10-4-5-10/h6-7,10-11H,4-5,8-9H2,1-3H3
InChIKey=UQCMEDIOQVHRHB-UHFFFAOYSA-N

> <PUBCHEM_SUBSTANCE_SYNONYM>
SCHEMBL16114825

> <PUBCHEM_XREF_EXT_ID>
SCHEMBL16114825

> <PUBCHEM_EXT_DATASOURCE_URL>
https://www.surechembl.org/

> <PUBCHEM_EXT_SUBSTANCE_URL>
https://www.surechembl.org/chemical/SCHEMBL16114825

> <PUBCHEM_CID_ASSOCIATIONS>
86275978  1

> <PUBCHEM_COORDINATE_TYPE>
1
3

$$$$
