310948905
  -OEChem-07211613022D

 52 54  0     1  0  0  0  0  0999 V2000
    3.0096    1.2385    0.0000 P   0  0  3  0  0  0  0  0  0  0  0  0
    5.9449   -1.0775    0.0000 F   0  0  0  0  0  0  0  0  0  0  0  0
    5.9325    1.0775    0.0000 O   0  0  0  0  0  0  0  0  0  0  0  0
    4.7312   -0.7183    0.0000 O   0  0  0  0  0  0  0  0  0  0  0  0
    3.7156    0.8174    0.0000 O   0  0  0  0  0  0  0  0  0  0  0  0
    7.2330    1.8330    0.0000 O   0  0  0  0  0  0  0  0  0  0  0  0
    2.9972    0.4087    0.0000 O   0  0  0  0  0  0  0  0  0  0  0  0
    2.9972    2.0559    0.0000 O   0  0  0  0  0  0  0  0  0  0  0  0
   -0.5821    0.0000    0.0000 O   0  0  0  0  0  0  0  0  0  0  0  0
    7.2577    0.4087    0.0000 N   0  0  0  0  0  0  0  0  0  0  0  0
    8.4962    1.1270    0.0000 N   0  0  0  0  0  0  0  0  0  0  0  0
    2.3036    0.8298    0.0000 N   0  0  0  0  0  0  0  0  0  0  0  0
    9.8586    0.4087    0.0000 N   0  0  0  0  0  0  0  0  0  0  0  0
    0.1486    1.2385    0.0000 N   0  0  0  0  0  0  0  0  0  0  0  0
    5.9449   -0.2477    0.0000 C   0  0  3  0  0  0  0  0  0  0  0  0
    6.4279    0.4211    0.0000 C   0  0  3  0  0  0  0  0  0  0  0  0
    5.1522    0.0000    0.0000 C   0  0  3  0  0  0  0  0  0  0  0  0
    5.1646    0.8298    0.0000 C   0  0  3  0  0  0  0  0  0  0  0  0
    7.6664    1.1270    0.0000 C   0  0  0  0  0  0  0  0  0  0  0  0
    6.6509   -0.6688    0.0000 C   0  0  0  0  0  0  0  0  0  0  0  0
    4.4463    1.2385    0.0000 C   0  0  0  0  0  0  0  0  0  0  0  0
    7.6664   -0.2973    0.0000 C   0  0  0  0  0  0  0  0  0  0  0  0
    8.9049    0.4087    0.0000 C   0  0  0  0  0  0  0  0  0  0  0  0
    8.4962   -0.2973    0.0000 C   0  0  0  0  0  0  0  0  0  0  0  0
    3.0096   -0.4211    0.0000 C   0  0  0  0  0  0  0  0  0  0  0  0
    1.5729    1.2385    0.0000 C   0  0  0  0  0  0  0  0  0  0  0  0
    2.3036   -0.8298    0.0000 C   0  0  0  0  0  0  0  0  0  0  0  0
    3.7279   -0.8298    0.0000 C   0  0  0  0  0  0  0  0  0  0  0  0
    0.8794    0.8298    0.0000 C   0  0  0  0  0  0  0  0  0  0  0  0
    2.3036   -1.6472    0.0000 C   0  0  0  0  0  0  0  0  0  0  0  0
    3.7279   -1.6472    0.0000 C   0  0  0  0  0  0  0  0  0  0  0  0
    3.0096   -2.0559    0.0000 C   0  0  0  0  0  0  0  0  0  0  0  0
   -0.5697    0.8422    0.0000 C   0  0  0  0  0  0  0  0  0  0  0  0
   -1.2881    1.2385    0.0000 C   0  0  0  0  0  0  0  0  0  0  0  0
   -1.9816    0.8298    0.0000 C   0  0  0  0  0  0  0  0  0  0  0  0
   -1.9940   -0.0124    0.0000 C   0  0  0  0  0  0  0  0  0  0  0  0
   -2.6999   -0.4087    0.0000 C   0  0  0  0  0  0  0  0  0  0  0  0
   -3.4307    0.0000    0.0000 C   0  0  0  0  0  0  0  0  0  0  0  0
   -3.4307    0.8298    0.0000 C   0  0  0  0  0  0  0  0  0  0  0  0
   -4.1366    1.2385    0.0000 C   0  0  0  0  0  0  0  0  0  0  0  0
   -4.8426    0.8298    0.0000 C   0  0  0  0  0  0  0  0  0  0  0  0
   -4.8550   -0.0124    0.0000 C   0  0  0  0  0  0  0  0  0  0  0  0
   -5.5609   -0.4087    0.0000 C   0  0  0  0  0  0  0  0  0  0  0  0
   -6.2917    0.0000    0.0000 C   0  0  0  0  0  0  0  0  0  0  0  0
   -6.2917    0.8298    0.0000 C   0  0  0  0  0  0  0  0  0  0  0  0
   -6.9976    1.2385    0.0000 C   0  0  0  0  0  0  0  0  0  0  0  0
   -7.7036    0.8298    0.0000 C   0  0  0  0  0  0  0  0  0  0  0  0
   -7.7159   -0.0124    0.0000 C   0  0  0  0  0  0  0  0  0  0  0  0
   -8.4219   -0.4087    0.0000 C   0  0  0  0  0  0  0  0  0  0  0  0
   -9.1402    0.0000    0.0000 C   0  0  0  0  0  0  0  0  0  0  0  0
   -9.1402    0.8174    0.0000 C   0  0  0  0  0  0  0  0  0  0  0  0
   -9.8586    1.2261    0.0000 C   0  0  0  0  0  0  0  0  0  0  0  0
  1  5  1  0  0  0  0
  1  7  1  0  0  0  0
  1  8  2  0  0  0  0
  1 12  1  0  0  0  0
 15  2  1  6  0  0  0
 16  3  1  1  0  0  0
  3 18  1  0  0  0  0
 17  4  1  6  0  0  0
  5 21  1  0  0  0  0
  6 19  2  0  0  0  0
  7 25  1  0  0  0  0
  9 33  2  0  0  0  0
 10 16  1  0  0  0  0
 10 19  1  0  0  0  0
 10 22  1  0  0  0  0
 11 19  1  0  0  0  0
 11 23  2  0  0  0  0
 12 26  1  0  0  0  0
 13 23  1  0  0  0  0
 14 29  1  0  0  0  0
 14 33  1  0  0  0  0
 15 16  1  0  0  0  0
 15 17  1  0  0  0  0
 15 20  1  1  0  0  0
 17 18  1  0  0  0  0
 18 21  1  1  0  0  0
 22 24  2  0  0  0  0
 23 24  1  0  0  0  0
 25 27  2  0  0  0  0
 25 28  1  0  0  0  0
 26 29  1  0  0  0  0
 27 30  1  0  0  0  0
 28 31  2  0  0  0  0
 30 32  2  0  0  0  0
 31 32  1  0  0  0  0
 33 34  1  0  0  0  0
 34 35  1  0  0  0  0
 35 36  1  0  0  0  0
 36 37  1  0  0  0  0
 37 38  2  0  0  0  0
 38 39  1  0  0  0  0
 39 40  1  0  0  0  0
 40 41  2  0  0  0  0
 41 42  1  0  0  0  0
 42 43  1  0  0  0  0
 43 44  2  0  0  0  0
 44 45  1  0  0  0  0
 45 46  1  0  0  0  0
 46 47  2  0  0  0  0
 47 48  1  0  0  0  0
 48 49  1  0  0  0  0
 49 50  2  0  0  0  0
 50 51  1  0  0  0  0
 51 52  1  0  0  0  0
M  END
> <PUBCHEM_COMPOUND_ID_TYPE>
0

> <PUBCHEM_TOTAL_CHARGE>
0

> <PUBCHEM_SUBSTANCE_ID>
310948905

> <PUBCHEM_SUBSTANCE_VERSION>
1

> <PUBCHEM_EXT_DATASOURCE_NAME>
4488

> <PUBCHEM_EXT_DATASOURCE_REGID>
SCHEMBL16127090

> <PUBCHEM_SUBSTANCE_COMMENT>
InChI=1S/C38H53FN5O7P/c1-3-4-5-6-7-8-9-10-11-12-13-14-15-16-17-18-22-25-34(45)41-27-28-42-52(48,51-31-23-20-19-21-24-31)49-30-32-35(46)38(2,39)36(50-32)44-29-26-33(40)43-37(44)47/h4-5,7-8,10-11,13-14,16-17,19-21,23-24,26,29,32,35-36,46H,3,6,9,12,15,18,22,25,27-28,30H2,1-2H3,(H,41,45)(H,42,48)(H2,40,43,47)/b5-4-,8-7-,11-10-,14-13-,17-16-/t32-,35-,36-,38-,52?/m1/s1
InChIKey=IITGCSRWDFLXMF-CZCHVDAFSA-N

> <PUBCHEM_SUBSTANCE_SYNONYM>
SCHEMBL16127090

> <PUBCHEM_XREF_EXT_ID>
SCHEMBL16127090

> <PUBCHEM_EXT_DATASOURCE_URL>
https://www.surechembl.org/

> <PUBCHEM_EXT_SUBSTANCE_URL>
https://www.surechembl.org/chemical/SCHEMBL16127090

> <PUBCHEM_CID_ASSOCIATIONS>
86270513  1

> <PUBCHEM_COORDINATE_TYPE>
1
3

> <PUBCHEM_BONDANNOTATIONS>
15  20  5
18  21  5
15  2  6
16  3  5
17  4  6

$$$$
