310939861
  -OEChem-07211613022D

 30 32  0     0  0  0  0  0  0999 V2000
   -3.5724   -1.0313    0.0000 Cl  0  0  0  0  0  0  0  0  0  0  0  0
   -2.8579    1.8562    0.0000 Cl  0  0  0  0  0  0  0  0  0  0  0  0
   -0.7145   -1.0313    0.0000 O   0  0  0  0  0  0  0  0  0  0  0  0
    0.7145    1.4437    0.0000 O   0  0  0  0  0  0  0  0  0  0  0  0
    3.5724   -1.8563    0.0000 O   0  0  0  0  0  0  0  0  0  0  0  0
    0.0000    0.2062    0.0000 N   0  0  0  0  0  0  0  0  0  0  0  0
    2.8579   -0.6188    0.0000 N   0  0  0  0  0  0  0  0  0  0  0  0
   -2.8579    0.2062    0.0000 C   0  0  0  0  0  0  0  0  0  0  0  0
   -3.5724    0.6187    0.0000 C   0  0  0  0  0  0  0  0  0  0  0  0
   -1.4289    0.2062    0.0000 C   0  0  0  0  0  0  0  0  0  0  0  0
   -2.8579   -0.6188    0.0000 C   0  0  0  0  0  0  0  0  0  0  0  0
   -1.4289   -0.6188    0.0000 C   0  0  0  0  0  0  0  0  0  0  0  0
   -2.1434    0.6187    0.0000 C   0  0  0  0  0  0  0  0  0  0  0  0
   -2.1434   -1.0313    0.0000 C   0  0  0  0  0  0  0  0  0  0  0  0
   -3.5724    1.4437    0.0000 C   0  0  0  0  0  0  0  0  0  0  0  0
   -0.7145    0.6187    0.0000 C   0  0  0  0  0  0  0  0  0  0  0  0
   -4.2868    0.2062    0.0000 C   0  0  0  0  0  0  0  0  0  0  0  0
    1.4289    0.2062    0.0000 C   0  0  0  0  0  0  0  0  0  0  0  0
    0.7145    0.6187    0.0000 C   0  0  0  0  0  0  0  0  0  0  0  0
   -4.2868    1.8563    0.0000 C   0  0  0  0  0  0  0  0  0  0  0  0
   -5.0013    0.6187    0.0000 C   0  0  0  0  0  0  0  0  0  0  0  0
   -5.0013    1.4437    0.0000 C   0  0  0  0  0  0  0  0  0  0  0  0
    1.4289   -0.6188    0.0000 C   0  0  0  0  0  0  0  0  0  0  0  0
    2.1434    0.6187    0.0000 C   0  0  0  0  0  0  0  0  0  0  0  0
    2.1434   -1.0313    0.0000 C   0  0  0  0  0  0  0  0  0  0  0  0
    2.8579    0.2062    0.0000 C   0  0  0  0  0  0  0  0  0  0  0  0
    3.5724   -1.0313    0.0000 C   0  0  0  0  0  0  0  0  0  0  0  0
    0.0000   -0.6188    0.0000 C   0  0  0  0  0  0  0  0  0  0  0  0
    4.2868   -0.6188    0.0000 C   0  0  0  0  0  0  0  0  0  0  0  0
    5.0013   -1.0313    0.0000 C   0  0  0  0  0  0  0  0  0  0  0  0
  1 11  1  0  0  0  0
  2 15  1  0  0  0  0
  3 12  1  0  0  0  0
  3 28  1  0  0  0  0
  4 19  2  0  0  0  0
  5 27  2  0  0  0  0
  6 16  1  0  0  0  0
  6 19  1  0  0  0  0
  7 25  1  0  0  0  0
  7 26  1  0  0  0  0
  7 27  1  0  0  0  0
  8  9  1  0  0  0  0
  8 11  2  0  0  0  0
  8 13  1  0  0  0  0
  9 15  2  0  0  0  0
  9 17  1  0  0  0  0
 10 12  1  0  0  0  0
 10 13  2  0  0  0  0
 10 16  1  0  0  0  0
 11 14  1  0  0  0  0
 12 14  2  0  0  0  0
 15 20  1  0  0  0  0
 17 21  2  0  0  0  0
 18 19  1  0  0  0  0
 18 23  1  0  0  0  0
 18 24  1  0  0  0  0
 20 22  2  0  0  0  0
 21 22  1  0  0  0  0
 23 25  1  0  0  0  0
 24 26  1  0  0  0  0
 27 29  1  0  0  0  0
 29 30  2  0  0  0  0
M  END
> <PUBCHEM_COMPOUND_ID_TYPE>
0

> <PUBCHEM_TOTAL_CHARGE>
0

> <PUBCHEM_SUBSTANCE_ID>
310939861

> <PUBCHEM_SUBSTANCE_VERSION>
1

> <PUBCHEM_EXT_DATASOURCE_NAME>
4488

> <PUBCHEM_EXT_DATASOURCE_REGID>
SCHEMBL16117791

> <PUBCHEM_SUBSTANCE_COMMENT>
InChI=1S/C23H24Cl2N2O3/c1-3-22(28)27-10-8-15(9-11-27)23(29)26-14-16-12-18(20(25)13-21(16)30-2)17-6-4-5-7-19(17)24/h3-7,12-13,15H,1,8-11,14H2,2H3,(H,26,29)
InChIKey=PLNBBPBCCTXBDU-UHFFFAOYSA-N

> <PUBCHEM_SUBSTANCE_SYNONYM>
SCHEMBL16117791

> <PUBCHEM_XREF_EXT_ID>
SCHEMBL16117791

> <PUBCHEM_EXT_DATASOURCE_URL>
https://www.surechembl.org/

> <PUBCHEM_EXT_SUBSTANCE_URL>
https://www.surechembl.org/chemical/SCHEMBL16117791

> <PUBCHEM_CID_ASSOCIATIONS>
117607076  1

> <PUBCHEM_COORDINATE_TYPE>
1
3

$$$$
