310936794
  -OEChem-07211613022D

 24 26  0     1  0  0  0  0  0999 V2000
    0.4243   -1.7779    0.0000 O   0  0  0  0  0  0  0  0  0  0  0  0
    6.5042   -0.3027    0.0000 O   0  0  0  0  0  0  0  0  0  0  0  0
    3.5024    1.6776    0.0000 O   0  0  0  0  0  0  0  0  0  0  0  0
    1.9233    1.3646    0.0000 N   0  0  0  0  0  0  0  0  0  0  0  0
    1.9233   -1.1104    0.0000 C   0  0  3  0  0  0  0  0  0  0  0  0
    1.9233   -0.2854    0.0000 C   0  0  3  0  0  0  0  0  0  0  0  0
    1.1387   -1.3654    0.0000 C   0  0  3  0  0  0  0  0  0  0  0  0
    3.3523   -0.2854    0.0000 C   0  0  3  0  0  0  0  0  0  0  0  0
    2.6378    0.1271    0.0000 C   0  0  3  0  0  0  0  0  0  0  0  0
    4.0668    0.1271    0.0000 C   0  0  3  0  0  0  0  0  0  0  0  0
    2.6378   -1.5229    0.0000 C   0  0  0  0  0  0  0  0  0  0  0  0
    1.1387   -0.0305    0.0000 C   0  0  0  0  0  0  0  0  0  0  0  0
    3.3523   -1.1104    0.0000 C   0  0  0  0  0  0  0  0  0  0  0  0
    0.6538   -0.6979    0.0000 C   0  0  0  0  0  0  0  0  0  0  0  0
    4.5971    0.7590    0.0000 C   0  0  3  0  0  0  0  0  0  0  0  0
    1.8371   -1.9309    0.0000 C   0  0  0  0  0  0  0  0  0  0  0  0
    4.3489   -0.6482    0.0000 C   0  0  0  0  0  0  0  0  0  0  0  0
    2.6378    0.9521    0.0000 C   0  0  0  0  0  0  0  0  0  0  0  0
    1.4743   -2.1191    0.0000 C   0  0  0  0  0  0  0  0  0  0  0  0
    3.5365    0.7590    0.0000 C   0  0  0  0  0  0  0  0  0  0  0  0
    5.4095    0.6158    0.0000 C   0  0  0  0  0  0  0  0  0  0  0  0
    5.1614   -0.7914    0.0000 C   0  0  0  0  0  0  0  0  0  0  0  0
    5.6917   -0.1595    0.0000 C   0  0  3  0  0  0  0  0  0  0  0  0
    4.3149    1.5343    0.0000 C   0  0  0  0  0  0  0  0  0  0  0  0
  7  1  1  1  0  0  0
 23  2  1  1  0  0  0
  3 24  1  0  0  0  0
  4 18  1  0  0  0  0
  5  6  1  0  0  0  0
  5  7  1  0  0  0  0
  5 11  1  0  0  0  0
  5 16  1  1  0  0  0
  6  9  1  0  0  0  0
  6 12  1  1  0  0  0
  7 14  1  0  0  0  0
  7 19  1  6  0  0  0
  8  9  1  0  0  0  0
  8 10  1  0  0  0  0
  8 13  1  1  0  0  0
  9 18  1  6  0  0  0
 10 15  1  0  0  0  0
 10 17  1  0  0  0  0
 10 20  1  6  0  0  0
 11 13  1  0  0  0  0
 12 14  1  0  0  0  0
 15 21  1  0  0  0  0
 15 24  1  1  0  0  0
 17 22  1  0  0  0  0
 21 23  1  0  0  0  0
 22 23  1  0  0  0  0
M  END
> <PUBCHEM_COMPOUND_ID_TYPE>
0

> <PUBCHEM_TOTAL_CHARGE>
0

> <PUBCHEM_SUBSTANCE_ID>
310936794

> <PUBCHEM_SUBSTANCE_VERSION>
1

> <PUBCHEM_EXT_DATASOURCE_NAME>
4488

> <PUBCHEM_EXT_DATASOURCE_REGID>
SCHEMBL16114480

> <PUBCHEM_SUBSTANCE_COMMENT>
InChI=1S/C20H37NO3/c1-18(7-4-14(23)10-13(18)12-22)16-5-8-19(2)17(15(16)11-21)6-9-20(19,3)24/h13-17,22-24H,4-12,21H2,1-3H3/t13-,14+,15-,16+,17+,18-,19+,20+/m1/s1
InChIKey=JJUZAZGMMZOWLH-RJPQRGTGSA-N

> <PUBCHEM_SUBSTANCE_SYNONYM>
SCHEMBL16114480

> <PUBCHEM_XREF_EXT_ID>
SCHEMBL16114480

> <PUBCHEM_EXT_DATASOURCE_URL>
https://www.surechembl.org/

> <PUBCHEM_EXT_SUBSTANCE_URL>
https://www.surechembl.org/chemical/SCHEMBL16114480

> <PUBCHEM_CID_ASSOCIATIONS>
117604689  1

> <PUBCHEM_COORDINATE_TYPE>
1
3

> <PUBCHEM_BONDANNOTATIONS>
7  1  5
10  20  6
15  24  5
23  2  5
5  16  5
6  12  5
7  19  6
8  13  5
9  18  6

$$$$
