310946828
  -OEChem-07211613022D

 32 35  0     1  0  0  0  0  0999 V2000
   -2.3032   -3.6594    0.0000 Cl  0  0  0  0  0  0  0  0  0  0  0  0
    1.0834    0.5457    0.0000 O   0  0  0  0  0  0  0  0  0  0  0  0
   -3.5551    0.9469    0.0000 O   0  0  0  0  0  0  0  0  0  0  0  0
    2.9773    1.6853    0.0000 O   0  0  0  0  0  0  0  0  0  0  0  0
   -0.7945    1.2038    0.0000 N   0  0  0  0  0  0  0  0  0  0  0  0
   -1.0192    0.4012    0.0000 N   0  0  0  0  0  0  0  0  0  0  0  0
   -2.3192   -0.3210    0.0000 N   0  0  0  0  0  0  0  0  0  0  0  0
   -3.0254    2.2791    0.0000 N   0  0  0  0  0  0  0  0  0  0  0  0
    2.7205    0.2729    0.0000 N   0  0  0  0  0  0  0  0  0  0  0  0
   -0.4574    3.6594    0.0000 N   0  0  0  0  0  0  0  0  0  0  0  0
   -0.0241    1.4927    0.0000 C   0  0  3  0  0  0  0  0  0  0  0  0
   -1.4846    1.6532    0.0000 C   0  0  0  0  0  0  0  0  0  0  0  0
   -2.1427    1.1556    0.0000 C   0  0  0  0  0  0  0  0  0  0  0  0
   -1.8538    0.3691    0.0000 C   0  0  0  0  0  0  0  0  0  0  0  0
   -2.8970    1.4766    0.0000 C   0  0  0  0  0  0  0  0  0  0  0  0
    0.2648    0.7062    0.0000 C   0  0  0  0  0  0  0  0  0  0  0  0
    0.5216    2.1186    0.0000 C   0  0  0  0  0  0  0  0  0  0  0  0
   -1.5970    2.4877    0.0000 C   0  0  0  0  0  0  0  0  0  0  0  0
   -0.6500    2.0223    0.0000 C   0  0  0  0  0  0  0  0  0  0  0  0
    1.5970    1.2198    0.0000 C   0  0  3  0  0  0  0  0  0  0  0  0
    1.3402    1.9741    0.0000 C   0  0  0  0  0  0  0  0  0  0  0  0
   -2.3834    2.7927    0.0000 C   0  0  0  0  0  0  0  0  0  0  0  0
   -2.3192   -1.1556    0.0000 C   0  0  0  0  0  0  0  0  0  0  0  0
    2.4315    1.0433    0.0000 C   0  0  0  0  0  0  0  0  0  0  0  0
   -0.5377    2.8248    0.0000 C   0  0  0  0  0  0  0  0  0  0  0  0
   -3.0254   -1.5729    0.0000 C   0  0  0  0  0  0  0  0  0  0  0  0
   -1.6130   -1.5729    0.0000 C   0  0  0  0  0  0  0  0  0  0  0  0
   -3.0094   -2.4075    0.0000 C   0  0  0  0  0  0  0  0  0  0  0  0
   -1.6130   -2.3915    0.0000 C   0  0  0  0  0  0  0  0  0  0  0  0
   -2.3032   -2.8088    0.0000 C   0  0  0  0  0  0  0  0  0  0  0  0
    2.2069   -0.3852    0.0000 C   0  0  0  0  0  0  0  0  0  0  0  0
    3.5551    0.1124    0.0000 C   0  0  0  0  0  0  0  0  0  0  0  0
  1 30  1  0  0  0  0
  2 16  1  0  0  0  0
  2 20  1  0  0  0  0
  3 15  2  0  0  0  0
  4 24  2  0  0  0  0
  5  6  1  0  0  0  0
  5 11  1  0  0  0  0
  5 12  1  0  0  0  0
  6 14  2  0  0  0  0
  7 14  1  0  0  0  0
  7 23  1  0  0  0  0
  8 15  1  0  0  0  0
  8 22  1  0  0  0  0
  9 24  1  0  0  0  0
  9 31  1  0  0  0  0
  9 32  1  0  0  0  0
 10 25  3  0  0  0  0
 11 16  1  0  0  0  0
 11 17  1  0  0  0  0
 11 19  1  1  0  0  0
 12 13  2  0  0  0  0
 12 18  1  0  0  0  0
 13 14  1  0  0  0  0
 13 15  1  0  0  0  0
 17 21  1  0  0  0  0
 18 22  2  0  0  0  0
 19 25  1  0  0  0  0
 20 21  1  0  0  0  0
 20 24  1  1  0  0  0
 23 26  2  0  0  0  0
 23 27  1  0  0  0  0
 26 28  1  0  0  0  0
 27 29  2  0  0  0  0
 28 30  2  0  0  0  0
 29 30  1  0  0  0  0
M  END
> <PUBCHEM_COMPOUND_ID_TYPE>
0

> <PUBCHEM_TOTAL_CHARGE>
0

> <PUBCHEM_SUBSTANCE_ID>
310946828

> <PUBCHEM_SUBSTANCE_VERSION>
1

> <PUBCHEM_EXT_DATASOURCE_NAME>
4488

> <PUBCHEM_EXT_DATASOURCE_REGID>
SCHEMBL16124952

> <PUBCHEM_SUBSTANCE_COMMENT>
InChI=1S/C22H23ClN6O3/c1-28(2)21(31)17-7-9-22(10-11-24,13-32-17)29-16-8-12-25-20(30)18(16)19(27-29)26-15-5-3-14(23)4-6-15/h3-6,8,12,17H,7,9-10,13H2,1-2H3,(H,25,30)(H,26,27)/t17-,22-/m0/s1
InChIKey=LGZCWUKVDGDCQT-JTSKRJEESA-N

> <PUBCHEM_SUBSTANCE_SYNONYM>
SCHEMBL16124952

> <PUBCHEM_XREF_EXT_ID>
SCHEMBL16124952

> <PUBCHEM_EXT_DATASOURCE_URL>
https://www.surechembl.org/

> <PUBCHEM_EXT_SUBSTANCE_URL>
https://www.surechembl.org/chemical/SCHEMBL16124952

> <PUBCHEM_CID_ASSOCIATIONS>
117612688  1

> <PUBCHEM_COORDINATE_TYPE>
1
3

> <PUBCHEM_BONDANNOTATIONS>
11  19  5
20  24  5

$$$$
