310934534
  -OEChem-07211613022D

 30 33  0     0  0  0  0  0  0999 V2000
    6.9188   -8.8702    0.0000 Br  0  0  0  0  0  0  0  0  0  0  0  0
    1.5523   -5.3665    0.0000 O   0  0  0  0  0  0  0  0  0  0  0  0
    0.8426   -1.6410    0.0000 O   0  0  0  0  0  0  0  0  0  0  0  0
    2.2619   -1.6410    0.0000 O   0  0  0  0  0  0  0  0  0  0  0  0
    5.8544   -7.0075    0.0000 N   0  0  0  0  0  0  0  0  0  0  0  0
    5.1448   -8.2493    0.0000 N   0  0  0  0  0  0  0  0  0  0  0  0
    6.6527   -6.7857    0.0000 N   0  0  0  0  0  0  0  0  0  0  0  0
    3.7255   -5.7657    0.0000 N   0  0  0  0  0  0  0  0  0  0  0  0
    1.5523   -2.8828    0.0000 N   0  0  0  0  0  0  0  0  0  0  0  0
    5.8987   -7.8502    0.0000 C   0  0  0  0  0  0  0  0  0  0  0  0
    4.4351   -7.0075    0.0000 C   0  0  0  0  0  0  0  0  0  0  0  0
    6.6527   -8.0719    0.0000 C   0  0  0  0  0  0  0  0  0  0  0  0
    5.1448   -6.6083    0.0000 C   0  0  0  0  0  0  0  0  0  0  0  0
    3.7255   -6.6083    0.0000 C   0  0  0  0  0  0  0  0  0  0  0  0
    4.4351   -7.8502    0.0000 C   0  0  0  0  0  0  0  0  0  0  0  0
    7.1406   -7.4510    0.0000 C   0  0  0  0  0  0  0  0  0  0  0  0
    2.2619   -5.7657    0.0000 C   0  0  0  0  0  0  0  0  0  0  0  0
    2.9715   -7.0075    0.0000 C   0  0  0  0  0  0  0  0  0  0  0  0
    1.5523   -4.5238    0.0000 C   0  0  0  0  0  0  0  0  0  0  0  0
    3.0159   -5.3665    0.0000 C   0  0  0  0  0  0  0  0  0  0  0  0
    2.3063   -6.6083    0.0000 C   0  0  0  0  0  0  0  0  0  0  0  0
    1.5523   -2.0401    0.0000 C   0  0  0  0  0  0  0  0  0  0  0  0
    2.2619   -4.1246    0.0000 C   0  0  0  0  0  0  0  0  0  0  0  0
    0.8426   -4.1246    0.0000 C   0  0  0  0  0  0  0  0  0  0  0  0
    2.2619   -3.2820    0.0000 C   0  0  0  0  0  0  0  0  0  0  0  0
    0.8426   -3.2820    0.0000 C   0  0  0  0  0  0  0  0  0  0  0  0
    0.8426   -0.7983    0.0000 C   0  0  0  0  0  0  0  0  0  0  0  0
    1.6854   -0.7983    0.0000 C   0  0  0  0  0  0  0  0  0  0  0  0
    0.8426    0.0000    0.0000 C   0  0  0  0  0  0  0  0  0  0  0  0
    0.0000   -0.7983    0.0000 C   0  0  0  0  0  0  0  0  0  0  0  0
  1 12  1  0  0  0  0
  2 17  1  0  0  0  0
  2 19  1  0  0  0  0
  3 22  1  0  0  0  0
  3 27  1  0  0  0  0
  4 22  2  0  0  0  0
  5  7  1  0  0  0  0
  5 10  1  0  0  0  0
  5 13  1  0  0  0  0
  6 10  1  0  0  0  0
  6 15  2  0  0  0  0
  7 16  2  0  0  0  0
  8 14  2  0  0  0  0
  8 20  1  0  0  0  0
  9 22  1  0  0  0  0
  9 25  1  0  0  0  0
  9 26  1  0  0  0  0
 10 12  2  0  0  0  0
 11 13  2  0  0  0  0
 11 14  1  0  0  0  0
 11 15  1  0  0  0  0
 12 16  1  0  0  0  0
 14 18  1  0  0  0  0
 17 20  2  0  0  0  0
 17 21  1  0  0  0  0
 18 21  2  0  0  0  0
 19 23  1  0  0  0  0
 19 24  1  0  0  0  0
 23 25  1  0  0  0  0
 24 26  1  0  0  0  0
 27 28  1  0  0  0  0
 27 29  1  0  0  0  0
 27 30  1  0  0  0  0
M  END
> <PUBCHEM_COMPOUND_ID_TYPE>
0

> <PUBCHEM_TOTAL_CHARGE>
0

> <PUBCHEM_SUBSTANCE_ID>
310934534

> <PUBCHEM_SUBSTANCE_VERSION>
1

> <PUBCHEM_EXT_DATASOURCE_NAME>
4488

> <PUBCHEM_EXT_DATASOURCE_REGID>
SCHEMBL16112023

> <PUBCHEM_SUBSTANCE_COMMENT>
InChI=1S/C21H24BrN5O3/c1-21(2,3)30-20(28)26-8-6-15(7-9-26)29-16-4-5-18(23-11-16)14-10-24-19-17(22)12-25-27(19)13-14/h4-5,10-13,15H,6-9H2,1-3H3
InChIKey=KWLVRFZIWUSYNB-UHFFFAOYSA-N

> <PUBCHEM_SUBSTANCE_SYNONYM>
SCHEMBL16112023

> <PUBCHEM_XREF_EXT_ID>
SCHEMBL16112023

> <PUBCHEM_EXT_DATASOURCE_URL>
https://www.surechembl.org/

> <PUBCHEM_EXT_SUBSTANCE_URL>
https://www.surechembl.org/chemical/SCHEMBL16112023

> <PUBCHEM_CID_ASSOCIATIONS>
117602731  1

> <PUBCHEM_COORDINATE_TYPE>
1
3

$$$$
