310948246
  -OEChem-07211613022D

 35 40  0     1  0  0  0  0  0999 V2000
    2.9491   -0.3855    0.0000 F   0  0  0  0  0  0  0  0  0  0  0  0
    3.9129   -0.9445    0.0000 F   0  0  0  0  0  0  0  0  0  0  0  0
    3.3346   -1.9275    0.0000 F   0  0  0  0  0  0  0  0  0  0  0  0
    2.2938   -0.5783    0.0000 O   0  0  0  0  0  0  0  0  0  0  0  0
   -2.6021   -2.3901    0.0000 O   0  0  0  0  0  0  0  0  0  0  0  0
   -0.9637   -1.6384    0.0000 N   0  0  0  0  0  0  0  0  0  0  0  0
   -1.8697    0.3276    0.0000 N   0  0  0  0  0  0  0  0  0  0  0  0
   -1.1951   -0.1542    0.0000 N   0  0  0  0  0  0  0  0  0  0  0  0
   -3.6623   -1.4071    0.0000 N   0  0  0  0  0  0  0  0  0  0  0  0
    0.2891    0.7903    0.0000 N   0  0  0  0  0  0  0  0  0  0  0  0
    2.5443   -2.1781    0.0000 C   0  0  0  0  0  0  0  0  0  0  0  0
    2.3323   -1.3686    0.0000 C   0  0  3  0  0  0  0  0  0  0  0  0
    1.5035   -1.3300    0.0000 C   0  0  0  0  0  0  0  0  0  0  0  0
    3.1419   -1.1565    0.0000 C   0  0  0  0  0  0  0  0  0  0  0  0
    1.1758   -2.0818    0.0000 C   0  0  0  0  0  0  0  0  0  0  0  0
    1.8504   -2.6214    0.0000 C   0  0  0  0  0  0  0  0  0  0  0  0
    3.3346   -2.1010    0.0000 C   0  0  0  0  0  0  0  0  0  0  0  0
    3.0455   -2.8335    0.0000 C   0  0  0  0  0  0  0  0  0  0  0  0
    0.9830   -0.6554    0.0000 C   0  0  0  0  0  0  0  0  0  0  0  0
    0.3662   -2.1974    0.0000 C   0  0  0  0  0  0  0  0  0  0  0  0
   -0.1349   -1.5420    0.0000 C   0  0  0  0  0  0  0  0  0  0  0  0
    0.1735   -0.7903    0.0000 C   0  0  0  0  0  0  0  0  0  0  0  0
   -1.4649   -0.9637    0.0000 C   0  0  0  0  0  0  0  0  0  0  0  0
   -2.2938   -0.9252    0.0000 C   0  0  0  0  0  0  0  0  0  0  0  0
   -2.5636   -0.1542    0.0000 C   0  0  0  0  0  0  0  0  0  0  0  0
   -1.8697    1.1951    0.0000 C   0  0  3  0  0  0  0  0  0  0  0  0
   -2.8721   -1.5806    0.0000 C   0  0  0  0  0  0  0  0  0  0  0  0
   -3.3732    0.0000    0.0000 C   0  0  0  0  0  0  0  0  0  0  0  0
   -1.1565    1.5998    0.0000 C   0  0  3  0  0  0  0  0  0  0  0  0
   -3.9129   -0.6168    0.0000 C   0  0  0  0  0  0  0  0  0  0  0  0
   -2.5829    1.5806    0.0000 C   0  0  0  0  0  0  0  0  0  0  0  0
   -1.1565    2.4287    0.0000 C   0  0  0  0  0  0  0  0  0  0  0  0
   -0.4241    1.1758    0.0000 C   0  0  0  0  0  0  0  0  0  0  0  0
   -2.5829    2.4287    0.0000 C   0  0  0  0  0  0  0  0  0  0  0  0
   -1.9082    2.8335    0.0000 C   0  0  0  0  0  0  0  0  0  0  0  0
  1 14  1  0  0  0  0
  2 14  1  0  0  0  0
  3 14  1  0  0  0  0
  4 12  1  0  0  0  0
  5 27  2  0  0  0  0
  6 21  1  0  0  0  0
  6 23  1  0  0  0  0
  7  8  1  0  0  0  0
  7 25  1  0  0  0  0
 26  7  1  1  0  0  0
  8 23  2  0  0  0  0
  9 27  1  0  0  0  0
  9 30  1  0  0  0  0
 10 33  3  0  0  0  0
 11 12  1  0  0  0  0
 11 16  1  0  0  0  0
 11 17  1  0  0  0  0
 11 18  1  0  0  0  0
 12 13  1  0  0  0  0
 12 14  1  0  0  0  0
 13 15  2  0  0  0  0
 13 19  1  0  0  0  0
 15 16  1  0  0  0  0
 15 20  1  0  0  0  0
 17 18  1  0  0  0  0
 19 22  2  0  0  0  0
 20 21  2  0  0  0  0
 21 22  1  0  0  0  0
 23 24  1  0  0  0  0
 24 25  2  0  0  0  0
 24 27  1  0  0  0  0
 25 28  1  0  0  0  0
 26 29  1  0  0  0  0
 26 31  1  0  0  0  0
 28 30  2  0  0  0  0
 29 32  1  0  0  0  0
 29 33  1  6  0  0  0
 31 34  1  0  0  0  0
 32 35  1  0  0  0  0
 34 35  1  0  0  0  0
M  END
> <PUBCHEM_COMPOUND_ID_TYPE>
0

> <PUBCHEM_TOTAL_CHARGE>
0

> <PUBCHEM_SUBSTANCE_ID>
310948246

> <PUBCHEM_SUBSTANCE_VERSION>
1

> <PUBCHEM_EXT_DATASOURCE_NAME>
4488

> <PUBCHEM_EXT_DATASOURCE_REGID>
SCHEMBL16126423

> <PUBCHEM_SUBSTANCE_COMMENT>
InChI=1S/C25H24F3N5O2/c26-25(27,28)24(35)17-6-5-16(11-15(17)12-23(24)8-9-23)31-21-20-19(7-10-30-22(20)34)33(32-21)18-4-2-1-3-14(18)13-29/h5-7,10-11,14,18,35H,1-4,8-9,12H2,(H,30,34)(H,31,32)/t14-,18+,24?/m1/s1
InChIKey=LGYANGVIADNXKN-JNTRDFSQSA-N

> <PUBCHEM_SUBSTANCE_SYNONYM>
SCHEMBL16126423

> <PUBCHEM_XREF_EXT_ID>
SCHEMBL16126423

> <PUBCHEM_EXT_DATASOURCE_URL>
https://www.surechembl.org/

> <PUBCHEM_EXT_SUBSTANCE_URL>
https://www.surechembl.org/chemical/SCHEMBL16126423

> <PUBCHEM_CID_ASSOCIATIONS>
117613826  1

> <PUBCHEM_COORDINATE_TYPE>
1
3

> <PUBCHEM_BONDANNOTATIONS>
29  33  6
26  7  5

$$$$
