310949543
  -OEChem-07211613022D

 31 34  0     1  0  0  0  0  0999 V2000
   -2.1577    2.7236    0.0000 Cl  0  0  0  0  0  0  0  0  0  0  0  0
   -3.9608    1.1892    0.0000 F   0  0  0  0  0  0  0  0  0  0  0  0
   -4.2484    2.3208    0.0000 F   0  0  0  0  0  0  0  0  0  0  0  0
   -3.1552    2.6277    0.0000 F   0  0  0  0  0  0  0  0  0  0  0  0
    3.1360   -2.7428    0.0000 F   0  0  0  0  0  0  0  0  0  0  0  0
   -0.7576    2.7428    0.0000 O   0  0  0  0  0  0  0  0  0  0  0  0
   -0.0480    1.4961    0.0000 N   0  0  0  0  0  0  0  0  0  0  0  0
    2.1195    0.4028    0.0000 N   0  0  0  0  0  0  0  0  0  0  0  0
    2.1195    1.7454    0.0000 N   0  0  0  0  0  0  0  0  0  0  0  0
    2.5989    1.0741    0.0000 N   0  0  0  0  0  0  0  0  0  0  0  0
   -2.8482    0.6521    0.0000 N   0  0  0  0  0  0  0  0  0  0  0  0
    1.8317   -0.9973    0.0000 N   0  0  0  0  0  0  0  0  0  0  0  0
    1.3714    1.4961    0.0000 C   0  0  0  0  0  0  0  0  0  0  0  0
    1.3522    0.6713    0.0000 C   0  0  0  0  0  0  0  0  0  0  0  0
    0.6425    1.9180    0.0000 C   0  0  3  0  0  0  0  0  0  0  0  0
   -0.7576    1.8797    0.0000 C   0  0  0  0  0  0  0  0  0  0  0  0
   -1.4481    1.4961    0.0000 C   0  0  0  0  0  0  0  0  0  0  0  0
    2.3879   -0.3452    0.0000 C   0  0  0  0  0  0  0  0  0  0  0  0
   -2.1577    1.9180    0.0000 C   0  0  0  0  0  0  0  0  0  0  0  0
    0.6809    0.2494    0.0000 C   0  0  0  0  0  0  0  0  0  0  0  0
   -0.0288    0.6713    0.0000 C   0  0  0  0  0  0  0  0  0  0  0  0
   -2.8291    1.4961    0.0000 C   0  0  0  0  0  0  0  0  0  0  0  0
   -3.5579    1.8989    0.0000 C   0  0  0  0  0  0  0  0  0  0  0  0
   -1.4481    0.6713    0.0000 C   0  0  0  0  0  0  0  0  0  0  0  0
    3.1935   -0.5754    0.0000 C   0  0  0  0  0  0  0  0  0  0  0  0
    0.6617    2.7236    0.0000 C   0  0  0  0  0  0  0  0  0  0  0  0
   -2.1577    0.2494    0.0000 C   0  0  0  0  0  0  0  0  0  0  0  0
    3.4236   -1.3043    0.0000 C   0  0  0  0  0  0  0  0  0  0  0  0
    2.8866   -1.9564    0.0000 C   0  0  0  0  0  0  0  0  0  0  0  0
    2.1003   -1.7646    0.0000 C   0  0  0  0  0  0  0  0  0  0  0  0
    4.2484   -1.4961    0.0000 C   0  0  0  0  0  0  0  0  0  0  0  0
  1 19  1  0  0  0  0
  2 23  1  0  0  0  0
  3 23  1  0  0  0  0
  4 23  1  0  0  0  0
  5 29  1  0  0  0  0
  6 16  2  0  0  0  0
  7 15  1  0  0  0  0
  7 16  1  0  0  0  0
  7 21  1  0  0  0  0
  8 10  1  0  0  0  0
  8 14  1  0  0  0  0
  8 18  1  0  0  0  0
  9 10  2  0  0  0  0
  9 13  1  0  0  0  0
 11 22  1  0  0  0  0
 11 27  2  0  0  0  0
 12 18  2  0  0  0  0
 12 30  1  0  0  0  0
 13 14  2  0  0  0  0
 13 15  1  0  0  0  0
 14 20  1  0  0  0  0
 15 26  1  1  0  0  0
 16 17  1  0  0  0  0
 17 19  1  0  0  0  0
 17 24  2  0  0  0  0
 18 25  1  0  0  0  0
 19 22  2  0  0  0  0
 20 21  1  0  0  0  0
 22 23  1  0  0  0  0
 24 27  1  0  0  0  0
 25 28  2  0  0  0  0
 28 29  1  0  0  0  0
 28 31  1  0  0  0  0
 29 30  2  0  0  0  0
M  END
> <PUBCHEM_COMPOUND_ID_TYPE>
0

> <PUBCHEM_TOTAL_CHARGE>
0

> <PUBCHEM_SUBSTANCE_ID>
310949543

> <PUBCHEM_SUBSTANCE_VERSION>
1

> <PUBCHEM_EXT_DATASOURCE_NAME>
4488

> <PUBCHEM_EXT_DATASOURCE_REGID>
SCHEMBL16127738

> <PUBCHEM_SUBSTANCE_COMMENT>
InChI=1S/C19H15ClF4N6O/c1-9-7-14(26-8-12(9)21)30-13-4-6-29(10(2)16(13)27-28-30)18(31)11-3-5-25-17(15(11)20)19(22,23)24/h3,5,7-8,10H,4,6H2,1-2H3/t10-/m0/s1
InChIKey=ZQVDWIMDHGKSMD-JTQLQIEISA-N

> <PUBCHEM_SUBSTANCE_SYNONYM>
SCHEMBL16127738

> <PUBCHEM_XREF_EXT_ID>
SCHEMBL16127738

> <PUBCHEM_EXT_DATASOURCE_URL>
https://www.surechembl.org/

> <PUBCHEM_EXT_SUBSTANCE_URL>
https://www.surechembl.org/chemical/SCHEMBL16127738

> <PUBCHEM_CID_ASSOCIATIONS>
117614966  1

> <PUBCHEM_COORDINATE_TYPE>
1
3

> <PUBCHEM_BONDANNOTATIONS>
15  26  5

$$$$
