310940435
  -OEChem-07211613022D

 18 19  0     0  0  0  0  0  0999 V2000
    0.1366    2.6748    0.0000 S   0  0  0  0  0  0  0  0  0  0  0  0
    1.0178   -0.7136    0.0000 O   0  0  0  0  0  0  0  0  0  0  0  0
   -1.7377   -0.6268    0.0000 N   0  0  0  0  0  0  0  0  0  0  0  0
   -1.0674   -0.1427    0.0000 N   0  0  0  0  0  0  0  0  0  0  0  0
   -0.3475   -1.0861    0.0000 N   0  0  0  0  0  0  0  0  0  0  0  0
   -0.9061    1.3591    0.0000 N   0  0  0  0  0  0  0  0  0  0  0  0
   -0.9433   -1.6694    0.0000 C   0  0  0  0  0  0  0  0  0  0  0  0
   -1.3281    0.6392    0.0000 C   0  0  0  0  0  0  0  0  0  0  0  0
   -1.7500   -1.4460    0.0000 C   0  0  0  0  0  0  0  0  0  0  0  0
   -2.4079   -0.1427    0.0000 C   0  0  0  0  0  0  0  0  0  0  0  0
   -2.1472    0.6516    0.0000 C   0  0  0  0  0  0  0  0  0  0  0  0
    0.4344   -1.3094    0.0000 C   0  0  0  0  0  0  0  0  0  0  0  0
   -0.7323   -2.4637    0.0000 C   0  0  0  0  0  0  0  0  0  0  0  0
    0.6454   -2.1038    0.0000 C   0  0  0  0  0  0  0  0  0  0  0  0
    0.0744   -2.6748    0.0000 C   0  0  0  0  0  0  0  0  0  0  0  0
   -0.4716    2.1162    0.0000 C   0  0  0  0  0  0  0  0  0  0  0  0
    1.8246   -0.9247    0.0000 C   0  0  0  0  0  0  0  0  0  0  0  0
    2.4079   -0.3413    0.0000 C   0  0  0  0  0  0  0  0  0  0  0  0
  1 16  2  0  0  0  0
  2 12  1  0  0  0  0
  2 17  1  0  0  0  0
  3  4  1  0  0  0  0
  3  9  1  0  0  0  0
  3 10  1  0  0  0  0
  4  8  2  0  0  0  0
  5  7  1  0  0  0  0
  5 12  2  0  0  0  0
  6  8  1  0  0  0  0
  6 16  2  0  0  0  0
  7  9  1  0  0  0  0
  7 13  2  0  0  0  0
  8 11  1  0  0  0  0
 10 11  2  0  0  0  0
 12 14  1  0  0  0  0
 13 15  1  0  0  0  0
 14 15  2  0  0  0  0
 17 18  1  0  0  0  0
M  END
> <PUBCHEM_COMPOUND_ID_TYPE>
0

> <PUBCHEM_TOTAL_CHARGE>
0

> <PUBCHEM_SUBSTANCE_ID>
310940435

> <PUBCHEM_SUBSTANCE_VERSION>
1

> <PUBCHEM_EXT_DATASOURCE_NAME>
4488

> <PUBCHEM_EXT_DATASOURCE_REGID>
SCHEMBL16118388

> <PUBCHEM_SUBSTANCE_COMMENT>
InChI=1S/C12H12N4OS/c1-2-17-12-5-3-4-10(14-12)8-16-7-6-11(15-16)13-9-18/h3-7H,2,8H2,1H3
InChIKey=WBXJMYUIKWWRSM-UHFFFAOYSA-N

> <PUBCHEM_SUBSTANCE_SYNONYM>
SCHEMBL16118388

> <PUBCHEM_XREF_EXT_ID>
SCHEMBL16118388

> <PUBCHEM_EXT_DATASOURCE_URL>
https://www.surechembl.org/

> <PUBCHEM_EXT_SUBSTANCE_URL>
https://www.surechembl.org/chemical/SCHEMBL16118388

> <PUBCHEM_CID_ASSOCIATIONS>
117607458  1

> <PUBCHEM_COORDINATE_TYPE>
1
3

$$$$
