310929697
  -OEChem-07211613022D

 70 77  0     1  0  0  0  0  0999 V2000
    2.3848   -5.1547    0.0000 S   0  0  0  0  0  0  0  0  0  0  0  0
   -4.2868   -0.8250    0.0000 O   0  0  0  0  0  0  0  0  0  0  0  0
    1.5598   -3.7257    0.0000 O   0  0  0  0  0  0  0  0  0  0  0  0
   -1.4290   -0.8250    0.0000 O   0  0  0  0  0  0  0  0  0  0  0  0
    2.3848   -5.9797    0.0000 O   0  0  0  0  0  0  0  0  0  0  0  0
    2.3848   -4.3297    0.0000 O   0  0  0  0  0  0  0  0  0  0  0  0
   -1.3277   -4.4402    0.0000 O   0  0  0  0  0  0  0  0  0  0  0  0
   -2.8579   -4.1250    0.0000 O   0  0  0  0  0  0  0  0  0  0  0  0
   -5.0013   -2.0625    0.0000 O   0  0  0  0  0  0  0  0  0  0  0  0
    0.0000    1.6500    0.0000 O   0  0  0  0  0  0  0  0  0  0  0  0
    2.4324    4.7383    0.0000 O   0  0  0  0  0  0  0  0  0  0  0  0
    1.2763    5.5782    0.0000 O   0  0  0  0  0  0  0  0  0  0  0  0
   -0.0902   -3.7257    0.0000 N   0  0  0  0  0  0  0  0  0  0  0  0
    1.5598   -5.1547    0.0000 N   0  0  0  0  0  0  0  0  0  0  0  0
   -2.1434   -2.8875    0.0000 N   0  0  0  0  0  0  0  0  0  0  0  0
   -3.5724   -2.0625    0.0000 N   0  0  0  0  0  0  0  0  0  0  0  0
    0.0000   -0.8250    0.0000 N   0  0  0  0  0  0  0  0  0  0  0  0
    1.1270    4.1571    0.0000 N   0  0  0  0  0  0  0  0  0  0  0  0
    0.3223   -4.4402    0.0000 C   0  0  3  0  0  0  0  0  0  0  0  0
    0.3223   -5.2651    0.0000 C   0  0  3  0  0  0  0  0  0  0  0  0
   -5.0013   -0.4125    0.0000 C   0  0  3  0  0  0  0  0  0  0  0  0
   -5.0013    0.4125    0.0000 C   0  0  3  0  0  0  0  0  0  0  0  0
   -0.3922   -4.8526    0.0000 C   0  0  0  0  0  0  0  0  0  0  0  0
    1.1473   -4.4402    0.0000 C   0  0  0  0  0  0  0  0  0  0  0  0
   -5.7158    0.0000    0.0000 C   0  0  0  0  0  0  0  0  0  0  0  0
    3.2098   -5.1547    0.0000 C   0  0  0  0  0  0  0  0  0  0  0  0
   -0.9152   -3.7257    0.0000 C   0  0  0  0  0  0  0  0  0  0  0  0
   -1.3277   -3.0112    0.0000 C   0  0  3  0  0  0  0  0  0  0  0  0
   -1.4290   -1.6500    0.0000 C   0  0  3  0  0  0  0  0  0  0  0  0
   -4.2868    0.8250    0.0000 C   0  0  0  0  0  0  0  0  0  0  0  0
    0.7348   -5.9797    0.0000 C   0  0  0  0  0  0  0  0  0  0  0  0
    3.6223   -4.4402    0.0000 C   0  0  0  0  0  0  0  0  0  0  0  0
    4.0348   -5.1547    0.0000 C   0  0  0  0  0  0  0  0  0  0  0  0
   -0.9152   -2.2967    0.0000 C   0  0  0  0  0  0  0  0  0  0  0  0
   -2.1434   -2.0625    0.0000 C   0  0  0  0  0  0  0  0  0  0  0  0
   -2.8579   -3.3000    0.0000 C   0  0  0  0  0  0  0  0  0  0  0  0
   -4.2868   -1.6500    0.0000 C   0  0  0  0  0  0  0  0  0  0  0  0
   -3.5724   -2.8875    0.0000 C   0  0  3  0  0  0  0  0  0  0  0  0
    2.7973   -5.8691    0.0000 C   0  0  0  0  0  0  0  0  0  0  0  0
   -0.7144   -0.4125    0.0000 C   0  0  0  0  0  0  0  0  0  0  0  0
   -3.5724    0.4125    0.0000 C   0  0  0  0  0  0  0  0  0  0  0  0
   -4.2868   -3.3000    0.0000 C   0  0  0  0  0  0  0  0  0  0  0  0
   -0.7144    0.4125    0.0000 C   0  0  0  0  0  0  0  0  0  0  0  0
    1.5598   -5.9797    0.0000 C   0  0  0  0  0  0  0  0  0  0  0  0
    0.0000    0.8250    0.0000 C   0  0  0  0  0  0  0  0  0  0  0  0
    0.7144    0.4125    0.0000 C   0  0  0  0  0  0  0  0  0  0  0  0
    0.7144   -0.4125    0.0000 C   0  0  0  0  0  0  0  0  0  0  0  0
   -2.8579    0.8250    0.0000 C   0  0  0  0  0  0  0  0  0  0  0  0
   -1.4290    0.8250    0.0000 C   0  0  0  0  0  0  0  0  0  0  0  0
   -2.1434    0.4125    0.0000 C   0  0  0  0  0  0  0  0  0  0  0  0
   -4.2868   -4.1250    0.0000 C   0  0  0  0  0  0  0  0  0  0  0  0
   -5.0013   -3.7125    0.0000 C   0  0  0  0  0  0  0  0  0  0  0  0
   -5.0013   -2.8875    0.0000 C   0  0  0  0  0  0  0  0  0  0  0  0
    1.4290    0.8250    0.0000 C   0  0  0  0  0  0  0  0  0  0  0  0
    1.4290   -0.8250    0.0000 C   0  0  0  0  0  0  0  0  0  0  0  0
    2.1434    0.4125    0.0000 C   0  0  0  0  0  0  0  0  0  0  0  0
    2.1434   -0.4125    0.0000 C   0  0  0  0  0  0  0  0  0  0  0  0
    0.7144    2.0625    0.0000 C   0  0  0  0  0  0  0  0  0  0  0  0
    0.7144    2.8875    0.0000 C   0  0  3  0  0  0  0  0  0  0  0  0
    1.3819    3.3724    0.0000 C   0  0  0  0  0  0  0  0  0  0  0  0
    0.0470    3.3724    0.0000 C   0  0  0  0  0  0  0  0  0  0  0  0
    0.3020    4.1571    0.0000 C   0  0  0  0  0  0  0  0  0  0  0  0
    1.6119    4.8245    0.0000 C   0  0  0  0  0  0  0  0  0  0  0  0
    2.9173    5.4057    0.0000 C   0  0  0  0  0  0  0  0  0  0  0  0
    2.5817    6.1593    0.0000 C   0  0  0  0  0  0  0  0  0  0  0  0
    3.4022    6.0731    0.0000 C   0  0  0  0  0  0  0  0  0  0  0  0
    3.7378    5.3194    0.0000 C   0  0  0  0  0  0  0  0  0  0  0  0
   -5.4138   -1.1270    0.0000 H   0  0  0  0  0  0  0  0  0  0  0  0
   -5.4138    1.1270    0.0000 H   0  0  0  0  0  0  0  0  0  0  0  0
   -0.6500   -1.3783    0.0000 H   0  0  0  0  0  0  0  0  0  0  0  0
  1  5  2  0  0  0  0
  1  6  2  0  0  0  0
  1 14  1  0  0  0  0
  1 26  1  0  0  0  0
  2 21  1  0  0  0  0
  2 37  1  0  0  0  0
  3 24  2  0  0  0  0
  4 29  1  0  0  0  0
  4 40  1  0  0  0  0
  7 27  2  0  0  0  0
  8 36  2  0  0  0  0
  9 37  2  0  0  0  0
 10 45  1  0  0  0  0
 10 58  1  0  0  0  0
 11 63  1  0  0  0  0
 11 64  1  0  0  0  0
 12 63  2  0  0  0  0
 19 13  1  1  0  0  0
 13 27  1  0  0  0  0
 14 24  1  0  0  0  0
 15 28  1  0  0  0  0
 15 35  1  0  0  0  0
 15 36  1  0  0  0  0
 16 37  1  0  0  0  0
 16 38  1  0  0  0  0
 17 40  2  0  0  0  0
 17 47  1  0  0  0  0
 18 60  1  0  0  0  0
 18 62  1  0  0  0  0
 18 63  1  0  0  0  0
 19 20  1  0  0  0  0
 19 23  1  0  0  0  0
 19 24  1  6  0  0  0
 20 23  1  0  0  0  0
 20 31  1  6  0  0  0
 21 22  1  0  0  0  0
 21 25  1  0  0  0  0
 21 68  1  1  0  0  0
 22 25  1  0  0  0  0
 22 30  1  0  0  0  0
 22 69  1  6  0  0  0
 26 32  1  0  0  0  0
 26 33  1  0  0  0  0
 26 39  1  0  0  0  0
 28 27  1  1  0  0  0
 28 34  1  0  0  0  0
 29 34  1  0  0  0  0
 29 35  1  0  0  0  0
 29 70  1  1  0  0  0
 30 41  1  0  0  0  0
 31 44  2  0  0  0  0
 32 33  1  0  0  0  0
 36 38  1  0  0  0  0
 38 42  1  6  0  0  0
 40 43  1  0  0  0  0
 41 48  1  0  0  0  0
 42 51  1  0  0  0  0
 42 52  1  0  0  0  0
 42 53  1  0  0  0  0
 43 45  2  0  0  0  0
 43 49  1  0  0  0  0
 45 46  1  0  0  0  0
 46 47  1  0  0  0  0
 46 54  2  0  0  0  0
 47 55  2  0  0  0  0
 48 50  1  0  0  0  0
 49 50  1  0  0  0  0
 54 56  1  0  0  0  0
 55 57  1  0  0  0  0
 56 57  2  0  0  0  0
 59 58  1  1  0  0  0
 59 60  1  0  0  0  0
 59 61  1  0  0  0  0
 61 62  1  0  0  0  0
 64 65  1  0  0  0  0
 64 66  1  0  0  0  0
 64 67  1  0  0  0  0
M  END
> <PUBCHEM_COMPOUND_ID_TYPE>
0

> <PUBCHEM_TOTAL_CHARGE>
0

> <PUBCHEM_SUBSTANCE_ID>
310929697

> <PUBCHEM_SUBSTANCE_VERSION>
1

> <PUBCHEM_EXT_DATASOURCE_NAME>
4488

> <PUBCHEM_EXT_DATASOURCE_REGID>
SCHEMBL16106889

> <PUBCHEM_SUBSTANCE_COMMENT>
InChI=1S/C49H68N6O11S/c1-9-31-25-49(31,43(58)53-67(61,62)48(8)20-21-48)52-40(56)36-24-32-27-55(36)42(57)39(46(2,3)4)51-44(59)65-37-23-30(37)15-11-10-12-17-34-38(33-16-13-14-18-35(33)50-41(34)64-32)63-28-29-19-22-54(26-29)45(60)66-47(5,6)7/h9,13-14,16,18,29-32,36-37,39H,1,10-12,15,17,19-28H2,2-8H3,(H,51,59)(H,52,56)(H,53,58)/t29-,30+,31+,32+,36-,37+,39+,49+/m0/s1
InChIKey=AQBIQPPPKFBCPV-AFKFHIQOSA-N

> <PUBCHEM_SUBSTANCE_SYNONYM>
SCHEMBL16106889

> <PUBCHEM_XREF_EXT_ID>
SCHEMBL16106889

> <PUBCHEM_EXT_DATASOURCE_URL>
https://www.surechembl.org/

> <PUBCHEM_EXT_SUBSTANCE_URL>
https://www.surechembl.org/chemical/SCHEMBL16106889

> <PUBCHEM_CID_ASSOCIATIONS>
117598995  1

> <PUBCHEM_COORDINATE_TYPE>
1
3

> <PUBCHEM_BONDANNOTATIONS>
19  13  5
19  24  6
20  31  6
21  68  5
22  69  6
28  27  5
29  70  5
38  42  6
59  58  5

$$$$
