310929345
  -OEChem-07211613022D

 17 19  0     0  0  0  0  0  0999 V2000
    2.8128   -5.2576    0.0000 Cl  0  0  0  0  0  0  0  0  0  0  0  0
    2.8128   -1.9716    0.0000 O   0  0  0  0  0  0  0  0  0  0  0  0
    1.4195   -2.7865    0.0000 N   0  0  0  0  0  0  0  0  0  0  0  0
    2.1293   -3.2071    0.0000 C   0  0  0  0  0  0  0  0  0  0  0  0
    2.1293   -4.0220    0.0000 C   0  0  0  0  0  0  0  0  0  0  0  0
    2.8391   -2.7865    0.0000 C   0  0  0  0  0  0  0  0  0  0  0  0
    2.8391   -4.4426    0.0000 C   0  0  0  0  0  0  0  0  0  0  0  0
    1.4195   -4.4426    0.0000 C   0  0  0  0  0  0  0  0  0  0  0  0
    3.5488   -3.2071    0.0000 C   0  0  0  0  0  0  0  0  0  0  0  0
    0.7097   -3.2071    0.0000 C   0  0  0  0  0  0  0  0  0  0  0  0
    3.5488   -4.0220    0.0000 C   0  0  0  0  0  0  0  0  0  0  0  0
    0.7097   -4.0220    0.0000 C   0  0  0  0  0  0  0  0  0  0  0  0
    2.1030   -0.7361    0.0000 C   0  0  0  0  0  0  0  0  0  0  0  0
    2.1030   -1.5510    0.0000 C   0  0  0  0  0  0  0  0  0  0  0  0
    1.6824   -0.0263    0.0000 C   0  0  0  0  0  0  0  0  0  0  0  0
    2.4973    0.0000    0.0000 C   0  0  0  0  0  0  0  0  0  0  0  0
    0.0000   -2.7865    0.0000 C   0  0  0  0  0  0  0  0  0  0  0  0
  1  7  1  0  0  0  0
  2  6  1  0  0  0  0
  2 14  1  0  0  0  0
  3  4  2  0  0  0  0
  3 10  1  0  0  0  0
  4  5  1  0  0  0  0
  4  6  1  0  0  0  0
  5  7  1  0  0  0  0
  5  8  2  0  0  0  0
  6  9  2  0  0  0  0
  7 11  2  0  0  0  0
  8 12  1  0  0  0  0
  9 11  1  0  0  0  0
 10 12  2  0  0  0  0
 10 17  1  0  0  0  0
 13 14  1  0  0  0  0
 13 15  1  0  0  0  0
 13 16  1  0  0  0  0
 15 16  1  0  0  0  0
M  END
> <PUBCHEM_COMPOUND_ID_TYPE>
0

> <PUBCHEM_TOTAL_CHARGE>
0

> <PUBCHEM_SUBSTANCE_ID>
310929345

> <PUBCHEM_SUBSTANCE_VERSION>
1

> <PUBCHEM_EXT_DATASOURCE_NAME>
4488

> <PUBCHEM_EXT_DATASOURCE_REGID>
SCHEMBL16106512

> <PUBCHEM_SUBSTANCE_COMMENT>
InChI=1S/C14H14ClNO/c1-9-2-5-11-12(15)6-7-13(14(11)16-9)17-8-10-3-4-10/h2,5-7,10H,3-4,8H2,1H3
InChIKey=JXLQDBFQVQYUSL-UHFFFAOYSA-N

> <PUBCHEM_SUBSTANCE_SYNONYM>
SCHEMBL16106512

> <PUBCHEM_XREF_EXT_ID>
SCHEMBL16106512

> <PUBCHEM_EXT_DATASOURCE_URL>
https://www.surechembl.org/

> <PUBCHEM_EXT_SUBSTANCE_URL>
https://www.surechembl.org/chemical/SCHEMBL16106512

> <PUBCHEM_CID_ASSOCIATIONS>
117598728  1

> <PUBCHEM_COORDINATE_TYPE>
1
3

$$$$
