310946155
  -OEChem-07211613022D

 41 48  0     0  0  0  0  0  0999 V2000
    3.0633   -1.0762    0.0000 O   0  0  0  0  0  0  0  0  0  0  0  0
    0.0689    0.0899    0.0000 N   0  0  0  0  0  0  0  0  0  0  0  0
   -2.3889   -1.5043    0.0000 C   0  0  0  0  0  0  0  0  0  0  0  0
   -1.5813   -1.3358    0.0000 C   0  0  0  0  0  0  0  0  0  0  0  0
   -1.1715   -2.0518    0.0000 C   0  0  0  0  0  0  0  0  0  0  0  0
   -2.4783   -2.3244    0.0000 C   0  0  0  0  0  0  0  0  0  0  0  0
   -1.7259   -2.6628    0.0000 C   0  0  0  0  0  0  0  0  0  0  0  0
   -0.3411   -0.6260    0.0000 C   0  0  0  0  0  0  0  0  0  0  0  0
   -1.1661   -0.6229    0.0000 C   0  0  0  0  0  0  0  0  0  0  0  0
   -0.3465   -2.0549    0.0000 C   0  0  0  0  0  0  0  0  0  0  0  0
    0.8939    0.0899    0.0000 C   0  0  0  0  0  0  0  0  0  0  0  0
    1.7285   -1.0701    0.0000 C   0  0  0  0  0  0  0  0  0  0  0  0
    0.0687   -1.3420    0.0000 C   0  0  0  0  0  0  0  0  0  0  0  0
   -3.1475   -2.8069    0.0000 C   0  0  0  0  0  0  0  0  0  0  0  0
   -1.6427   -3.4836    0.0000 C   0  0  0  0  0  0  0  0  0  0  0  0
    2.3981   -0.5882    0.0000 C   0  0  0  0  0  0  0  0  0  0  0  0
    1.9798   -1.8559    0.0000 C   0  0  0  0  0  0  0  0  0  0  0  0
   -0.3460    0.8029    0.0000 C   0  0  0  0  0  0  0  0  0  0  0  0
    0.9764   -0.7310    0.0000 C   0  0  0  0  0  0  0  0  0  0  0  0
   -2.3889   -0.6793    0.0000 C   0  0  0  0  0  0  0  0  0  0  0  0
   -3.2139   -1.5043    0.0000 C   0  0  0  0  0  0  0  0  0  0  0  0
    2.8048   -1.8597    0.0000 C   0  0  0  0  0  0  0  0  0  0  0  0
    1.5636    0.5717    0.0000 C   0  0  0  0  0  0  0  0  0  0  0  0
    2.3157    0.2326    0.0000 C   0  0  0  0  0  0  0  0  0  0  0  0
   -3.0644   -3.6277    0.0000 C   0  0  0  0  0  0  0  0  0  0  0  0
   -2.3120   -3.9660    0.0000 C   0  0  0  0  0  0  0  0  0  0  0  0
    1.5640   -2.5684    0.0000 C   0  0  0  0  0  0  0  0  0  0  0  0
   -1.1710    0.8041    0.0000 C   0  0  0  0  0  0  0  0  0  0  0  0
    0.0675    1.5168    0.0000 C   0  0  0  0  0  0  0  0  0  0  0  0
    3.2139   -2.5761    0.0000 C   0  0  0  0  0  0  0  0  0  0  0  0
   -1.1689    2.2331    0.0000 C   0  0  0  0  0  0  0  0  0  0  0  0
   -1.5825    1.5192    0.0000 C   0  0  0  0  0  0  0  0  0  0  0  0
   -0.3439    2.2319    0.0000 C   0  0  0  0  0  0  0  0  0  0  0  0
    1.9731   -3.2848    0.0000 C   0  0  0  0  0  0  0  0  0  0  0  0
    2.7981   -3.2886    0.0000 C   0  0  0  0  0  0  0  0  0  0  0  0
   -1.5804    2.9481    0.0000 C   0  0  0  0  0  0  0  0  0  0  0  0
   -2.4054    2.9493    0.0000 C   0  0  0  0  0  0  0  0  0  0  0  0
   -1.1669    3.6620    0.0000 C   0  0  0  0  0  0  0  0  0  0  0  0
   -2.8169    3.6644    0.0000 C   0  0  0  0  0  0  0  0  0  0  0  0
   -1.5783    4.3771    0.0000 C   0  0  0  0  0  0  0  0  0  0  0  0
   -2.4033    4.3783    0.0000 C   0  0  0  0  0  0  0  0  0  0  0  0
  1 16  1  0  0  0  0
  1 22  1  0  0  0  0
  2  8  1  0  0  0  0
  2 11  1  0  0  0  0
  2 18  1  0  0  0  0
  3  4  1  0  0  0  0
  3  6  1  0  0  0  0
  3 20  1  0  0  0  0
  3 21  1  0  0  0  0
  4  5  2  0  0  0  0
  4  9  1  0  0  0  0
  5  7  1  0  0  0  0
  5 10  1  0  0  0  0
  6  7  2  0  0  0  0
  6 14  1  0  0  0  0
  7 15  1  0  0  0  0
  8  9  2  0  0  0  0
  8 13  1  0  0  0  0
 10 13  2  0  0  0  0
 11 19  2  0  0  0  0
 11 23  1  0  0  0  0
 12 16  2  0  0  0  0
 12 17  1  0  0  0  0
 12 19  1  0  0  0  0
 14 25  2  0  0  0  0
 15 26  2  0  0  0  0
 16 24  1  0  0  0  0
 17 22  2  0  0  0  0
 17 27  1  0  0  0  0
 18 28  2  0  0  0  0
 18 29  1  0  0  0  0
 22 30  1  0  0  0  0
 23 24  2  0  0  0  0
 25 26  1  0  0  0  0
 27 34  2  0  0  0  0
 28 32  1  0  0  0  0
 29 33  2  0  0  0  0
 30 35  2  0  0  0  0
 31 32  2  0  0  0  0
 31 33  1  0  0  0  0
 31 36  1  0  0  0  0
 34 35  1  0  0  0  0
 36 37  2  0  0  0  0
 36 38  1  0  0  0  0
 37 39  1  0  0  0  0
 38 40  2  0  0  0  0
 39 41  2  0  0  0  0
 40 41  1  0  0  0  0
M  END
> <PUBCHEM_COMPOUND_ID_TYPE>
0

> <PUBCHEM_TOTAL_CHARGE>
0

> <PUBCHEM_SUBSTANCE_ID>
310946155

> <PUBCHEM_SUBSTANCE_VERSION>
1

> <PUBCHEM_EXT_DATASOURCE_NAME>
4488

> <PUBCHEM_EXT_DATASOURCE_REGID>
SCHEMBL16124264

> <PUBCHEM_SUBSTANCE_COMMENT>
InChI=1S/C39H29NO/c1-39(2)35-14-8-6-12-31(35)32-22-20-30(25-36(32)39)40(28-18-16-27(17-19-28)26-10-4-3-5-11-26)29-21-23-38-34(24-29)33-13-7-9-15-37(33)41-38/h3-25H,1-2H3
InChIKey=JUFXRSJDRISBSW-UHFFFAOYSA-N

> <PUBCHEM_SUBSTANCE_SYNONYM>
SCHEMBL16124264

> <PUBCHEM_XREF_EXT_ID>
SCHEMBL16124264

> <PUBCHEM_EXT_DATASOURCE_URL>
https://www.surechembl.org/

> <PUBCHEM_EXT_SUBSTANCE_URL>
https://www.surechembl.org/chemical/SCHEMBL16124264

> <PUBCHEM_CID_ASSOCIATIONS>
117612112  1

> <PUBCHEM_COORDINATE_TYPE>
1
3

$$$$
