310929157
  -OEChem-07211613022D

 59 64  0     0  0  0  0  0  0999 V2000
    5.5273  -12.3744    0.0000 O   0  0  0  0  0  0  0  0  0  0  0  0
    2.6399   -9.8996    0.0000 O   0  0  0  0  0  0  0  0  0  0  0  0
    6.9297  -12.3744    0.0000 O   0  0  0  0  0  0  0  0  0  0  0  0
    3.3823  -14.4368    0.0000 O   0  0  0  0  0  0  0  0  0  0  0  0
    2.8049   -4.9498    0.0000 O   0  0  0  0  0  0  0  0  0  0  0  0
    4.1248   -7.5071    0.0000 O   0  0  0  0  0  0  0  0  0  0  0  0
    0.6600   -4.5373    0.0000 O   0  0  0  0  0  0  0  0  0  0  0  0
    0.0000   -2.4749    0.0000 O   0  0  0  0  0  0  0  0  0  0  0  0
    1.4849   -0.8249    0.0000 O   0  0  0  0  0  0  0  0  0  0  0  0
    4.0423  -13.1994    0.0000 N   0  0  0  0  0  0  0  0  0  0  0  0
    2.6399  -13.1994    0.0000 N   0  0  0  0  0  0  0  0  0  0  0  0
    7.6722  -13.6119    0.0000 N   0  0  0  0  0  0  0  0  0  0  0  0
    1.9799   -8.6621    0.0000 N   0  0  0  0  0  0  0  0  0  0  0  0
    1.3200   -7.4247    0.0000 N   0  0  0  0  0  0  0  0  0  0  0  0
    0.5775   -8.6621    0.0000 N   0  0  0  0  0  0  0  0  0  0  0  0
    6.1872  -13.6119    0.0000 C   0  0  0  0  0  0  0  0  0  0  0  0
    5.5273  -13.1994    0.0000 C   0  0  0  0  0  0  0  0  0  0  0  0
    4.7848  -13.6119    0.0000 C   0  0  0  0  0  0  0  0  0  0  0  0
    5.5273  -14.8493    0.0000 C   0  0  0  0  0  0  0  0  0  0  0  0
    3.2999  -11.9619    0.0000 C   0  0  0  0  0  0  0  0  0  0  0  0
    3.3823  -11.1370    0.0000 C   0  0  0  0  0  0  0  0  0  0  0  0
    2.6399  -12.3744    0.0000 C   0  0  0  0  0  0  0  0  0  0  0  0
    6.1872  -14.4368    0.0000 C   0  0  0  0  0  0  0  0  0  0  0  0
    4.7848  -14.4368    0.0000 C   0  0  0  0  0  0  0  0  0  0  0  0
    2.6399  -10.7245    0.0000 C   0  0  0  0  0  0  0  0  0  0  0  0
    5.5273  -15.6743    0.0000 C   0  0  0  0  0  0  0  0  0  0  0  0
    6.9297  -13.1994    0.0000 C   0  0  0  0  0  0  0  0  0  0  0  0
    3.3823  -13.6119    0.0000 C   0  0  0  0  0  0  0  0  0  0  0  0
    1.8974  -11.9619    0.0000 C   0  0  0  0  0  0  0  0  0  0  0  0
    1.9799  -11.1370    0.0000 C   0  0  0  0  0  0  0  0  0  0  0  0
    4.0423  -12.3744    0.0000 C   0  0  0  0  0  0  0  0  0  0  0  0
    4.0423  -10.8070    0.0000 C   0  0  0  0  0  0  0  0  0  0  0  0
    8.3321  -13.1994    0.0000 C   0  0  0  0  0  0  0  0  0  0  0  0
    1.9799   -9.4871    0.0000 C   0  0  0  0  0  0  0  0  0  0  0  0
    4.9498  -12.2094    0.0000 C   0  0  0  0  0  0  0  0  0  0  0  0
    4.7848  -11.2195    0.0000 C   0  0  0  0  0  0  0  0  0  0  0  0
    4.6198  -15.6743    0.0000 C   0  0  0  0  0  0  0  0  0  0  0  0
    5.5273  -16.4993    0.0000 C   0  0  0  0  0  0  0  0  0  0  0  0
    6.3522  -15.6743    0.0000 C   0  0  0  0  0  0  0  0  0  0  0  0
    8.7446  -12.5394    0.0000 C   0  0  0  0  0  0  0  0  0  0  0  0
    9.1571  -13.1994    0.0000 C   0  0  0  0  0  0  0  0  0  0  0  0
    1.3200   -8.2496    0.0000 C   0  0  0  0  0  0  0  0  0  0  0  0
    1.2374   -9.8996    0.0000 C   0  0  0  0  0  0  0  0  0  0  0  0
    2.0624   -7.0122    0.0000 C   0  0  0  0  0  0  0  0  0  0  0  0
    4.7848  -11.9619    0.0000 C   0  0  0  0  0  0  0  0  0  0  0  0
    0.5775   -9.4871    0.0000 C   0  0  0  0  0  0  0  0  0  0  0  0
    2.0624   -6.1872    0.0000 C   0  0  0  0  0  0  0  0  0  0  0  0
    2.8049   -5.7748    0.0000 C   0  0  0  0  0  0  0  0  0  0  0  0
    2.7224   -7.4247    0.0000 C   0  0  0  0  0  0  0  0  0  0  0  0
    3.4648   -7.0947    0.0000 C   0  0  0  0  0  0  0  0  0  0  0  0
    3.4648   -6.2697    0.0000 C   0  0  0  0  0  0  0  0  0  0  0  0
    2.1449   -4.5373    0.0000 C   0  0  0  0  0  0  0  0  0  0  0  0
    4.8673   -7.0947    0.0000 C   0  0  0  0  0  0  0  0  0  0  0  0
    1.4025   -4.9498    0.0000 C   0  0  0  0  0  0  0  0  0  0  0  0
    0.7425   -3.7123    0.0000 C   0  0  0  0  0  0  0  0  0  0  0  0
    0.0000   -3.2999    0.0000 C   0  0  0  0  0  0  0  0  0  0  0  0
    0.7425   -2.0624    0.0000 C   0  0  0  0  0  0  0  0  0  0  0  0
    0.7425   -1.2374    0.0000 C   0  0  0  0  0  0  0  0  0  0  0  0
    1.4849    0.0000    0.0000 C   0  0  0  0  0  0  0  0  0  0  0  0
  1 17  1  0  0  0  0
  1 45  1  0  0  0  0
  2 25  1  0  0  0  0
  2 34  1  0  0  0  0
  3 27  2  0  0  0  0
  4 28  2  0  0  0  0
  5 48  1  0  0  0  0
  5 52  1  0  0  0  0
  6 50  1  0  0  0  0
  6 53  1  0  0  0  0
  7 54  1  0  0  0  0
  7 55  1  0  0  0  0
  8 56  1  0  0  0  0
  8 57  1  0  0  0  0
  9 58  1  0  0  0  0
  9 59  1  0  0  0  0
 10 18  1  0  0  0  0
 10 28  1  0  0  0  0
 11 22  1  0  0  0  0
 11 28  1  0  0  0  0
 12 27  1  0  0  0  0
 12 33  1  0  0  0  0
 13 34  2  0  0  0  0
 13 42  1  0  0  0  0
 14 42  1  0  0  0  0
 14 44  1  0  0  0  0
 15 42  2  0  0  0  0
 15 46  1  0  0  0  0
 16 17  2  0  0  0  0
 16 23  1  0  0  0  0
 16 27  1  0  0  0  0
 17 18  1  0  0  0  0
 18 24  2  0  0  0  0
 19 23  2  0  0  0  0
 19 24  1  0  0  0  0
 19 26  1  0  0  0  0
 20 21  2  0  0  0  0
 20 22  1  0  0  0  0
 20 31  1  0  0  0  0
 21 25  1  0  0  0  0
 21 32  1  0  0  0  0
 22 29  2  0  0  0  0
 25 30  2  0  0  0  0
 26 37  1  0  0  0  0
 26 38  1  0  0  0  0
 26 39  1  0  0  0  0
 29 30  1  0  0  0  0
 31 35  2  0  0  0  0
 32 36  2  0  0  0  0
 33 40  1  0  0  0  0
 33 41  1  0  0  0  0
 34 43  1  0  0  0  0
 35 36  1  0  0  0  0
 40 41  1  0  0  0  0
 43 46  2  0  0  0  0
 44 47  2  0  0  0  0
 44 49  1  0  0  0  0
 47 48  1  0  0  0  0
 48 51  2  0  0  0  0
 49 50  2  0  0  0  0
 50 51  1  0  0  0  0
 52 54  1  0  0  0  0
 55 56  1  0  0  0  0
 57 58  1  0  0  0  0
M  END
> <PUBCHEM_COMPOUND_ID_TYPE>
0

> <PUBCHEM_TOTAL_CHARGE>
0

> <PUBCHEM_SUBSTANCE_ID>
310929157

> <PUBCHEM_SUBSTANCE_VERSION>
1

> <PUBCHEM_EXT_DATASOURCE_NAME>
4488

> <PUBCHEM_EXT_DATASOURCE_REGID>
SCHEMBL16106320

> <PUBCHEM_SUBSTANCE_COMMENT>
InChI=1S/C44H52N6O9/c1-44(2,3)28-23-35(41(51)46-29-11-12-29)40(55-6)37(24-28)49-43(52)48-36-13-14-38(34-10-8-7-9-33(34)36)59-39-15-16-45-42(50-39)47-30-25-31(54-5)27-32(26-30)58-22-21-57-20-19-56-18-17-53-4/h7-10,13-16,23-27,29H,11-12,17-22H2,1-6H3,(H,46,51)(H,45,47,50)(H2,48,49,52)
InChIKey=CGELEDQBCPRRSA-UHFFFAOYSA-N

> <PUBCHEM_SUBSTANCE_SYNONYM>
SCHEMBL16106320

> <PUBCHEM_XREF_EXT_ID>
SCHEMBL16106320

> <PUBCHEM_EXT_DATASOURCE_URL>
https://www.surechembl.org/

> <PUBCHEM_EXT_SUBSTANCE_URL>
https://www.surechembl.org/chemical/SCHEMBL16106320

> <PUBCHEM_CID_ASSOCIATIONS>
86272354  1

> <PUBCHEM_COORDINATE_TYPE>
1
3

$$$$
