310935626
  -OEChem-07211613022D

 26 28  0     0  0  0  0  0  0999 V2000
    6.2657   -0.0651    0.0000 F   0  0  0  0  0  0  0  0  0  0  0  0
    5.0082   -0.7371    0.0000 F   0  0  0  0  0  0  0  0  0  0  0  0
    3.7290   -4.3361    0.0000 O   0  0  0  0  0  0  0  0  0  0  0  0
    6.2440   -1.4959    0.0000 O   0  0  0  0  0  0  0  0  0  0  0  0
    1.2792   -1.4743    0.0000 N   0  0  0  0  0  0  0  0  0  0  0  0
    2.5149   -3.6206    0.0000 N   0  0  0  0  0  0  0  0  0  0  0  0
    0.7805   -2.1247    0.0000 N   0  0  0  0  0  0  0  0  0  0  0  0
    6.2223   -2.9051    0.0000 N   0  0  0  0  0  0  0  0  0  0  0  0
    0.0217   -1.0406    0.0000 N   0  0  0  0  0  0  0  0  0  0  0  0
    0.0000   -1.8645    0.0000 N   0  0  0  0  0  0  0  0  0  0  0  0
    3.7507   -2.9051    0.0000 C   0  0  0  0  0  0  0  0  0  0  0  0
    4.5746   -2.9051    0.0000 C   0  0  0  0  0  0  0  0  0  0  0  0
    3.3171   -3.6206    0.0000 C   0  0  0  0  0  0  0  0  0  0  0  0
    2.5149   -2.1897    0.0000 C   0  0  0  0  0  0  0  0  0  0  0  0
    3.3171   -2.1897    0.0000 C   0  0  0  0  0  0  0  0  0  0  0  0
    2.1030   -1.4743    0.0000 C   0  0  0  0  0  0  0  0  0  0  0  0
    4.9865   -2.1680    0.0000 C   0  0  0  0  0  0  0  0  0  0  0  0
    2.0596   -2.9051    0.0000 C   0  0  0  0  0  0  0  0  0  0  0  0
    5.8104   -2.2114    0.0000 C   0  0  0  0  0  0  0  0  0  0  0  0
    4.9865   -3.5990    0.0000 C   0  0  0  0  0  0  0  0  0  0  0  0
    0.8022   -0.7805    0.0000 C   0  0  0  0  0  0  0  0  0  0  0  0
    5.8104   -3.6423    0.0000 C   0  0  0  0  0  0  0  0  0  0  0  0
    4.5312   -4.3361    0.0000 C   0  0  0  0  0  0  0  0  0  0  0  0
    1.0624    0.0000    0.0000 C   0  0  0  0  0  0  0  0  0  0  0  0
    5.8537   -0.7805    0.0000 C   0  0  0  0  0  0  0  0  0  0  0  0
    5.1383   -3.7941    0.0000 C   0  0  0  0  0  0  0  0  0  0  0  0
  1 25  1  0  0  0  0
  2 25  1  0  0  0  0
  3 13  1  0  0  0  0
  3 23  1  0  0  0  0
  4 19  1  0  0  0  0
  4 25  1  0  0  0  0
  5  7  1  0  0  0  0
  5 16  1  0  0  0  0
  5 21  1  0  0  0  0
  6 13  1  0  0  0  0
  6 18  2  0  0  0  0
  7 10  2  0  0  0  0
  8 19  1  0  0  0  0
  8 22  2  0  0  0  0
  9 10  1  0  0  0  0
  9 21  2  0  0  0  0
 11 12  1  0  0  0  0
 11 13  2  0  0  0  0
 11 15  1  0  0  0  0
 12 17  1  0  0  0  0
 12 20  2  0  0  0  0
 14 15  2  0  0  0  0
 14 16  1  0  0  0  0
 14 18  1  0  0  0  0
 17 19  2  0  0  0  0
 20 22  1  0  0  0  0
 21 24  1  0  0  0  0
 23 26  1  0  0  0  0
M  END
> <PUBCHEM_COMPOUND_ID_TYPE>
0

> <PUBCHEM_TOTAL_CHARGE>
0

> <PUBCHEM_SUBSTANCE_ID>
310935626

> <PUBCHEM_SUBSTANCE_VERSION>
1

> <PUBCHEM_EXT_DATASOURCE_NAME>
4488

> <PUBCHEM_EXT_DATASOURCE_REGID>
SCHEMBL16113204

> <PUBCHEM_SUBSTANCE_COMMENT>
InChI=1S/C16H16F2N6O2/c1-3-25-15-13(12-4-5-19-14(7-12)26-16(17)18)6-11(8-20-15)9-24-10(2)21-22-23-24/h4-8,16H,3,9H2,1-2H3
InChIKey=SQWYBWKXNIZMLT-UHFFFAOYSA-N

> <PUBCHEM_SUBSTANCE_SYNONYM>
SCHEMBL16113204

> <PUBCHEM_XREF_EXT_ID>
SCHEMBL16113204

> <PUBCHEM_EXT_DATASOURCE_URL>
https://www.surechembl.org/

> <PUBCHEM_EXT_SUBSTANCE_URL>
https://www.surechembl.org/chemical/SCHEMBL16113204

> <PUBCHEM_CID_ASSOCIATIONS>
117603643  1

> <PUBCHEM_COORDINATE_TYPE>
1
3

$$$$
