310936291
  -OEChem-07211613022D

 16 18  0     0  0  0  0  0  0999 V2000
    3.6516   -1.5319    0.0000 S   0  0  0  0  0  0  0  0  0  0  0  0
    3.6516   -0.1603    0.0000 N   0  0  0  0  0  0  0  0  0  0  0  0
    0.0000   -2.8678    0.0000 N   0  0  0  0  0  0  0  0  0  0  0  0
    5.3438   -0.1247    0.0000 N   0  0  0  0  0  0  0  0  0  0  0  0
    2.8678   -1.2647    0.0000 C   0  0  0  0  0  0  0  0  0  0  0  0
    2.1375   -1.6744    0.0000 C   0  0  0  0  0  0  0  0  0  0  0  0
    2.8678   -0.4275    0.0000 C   0  0  0  0  0  0  0  0  0  0  0  0
    1.4428   -1.2647    0.0000 C   0  0  0  0  0  0  0  0  0  0  0  0
    4.1147   -0.8372    0.0000 C   0  0  0  0  0  0  0  0  0  0  0  0
    2.1375    0.0000    0.0000 C   0  0  0  0  0  0  0  0  0  0  0  0
    1.4428   -0.4275    0.0000 C   0  0  0  0  0  0  0  0  0  0  0  0
    2.1375   -2.4581    0.0000 C   0  0  0  0  0  0  0  0  0  0  0  0
    0.7125   -1.6744    0.0000 C   0  0  0  0  0  0  0  0  0  0  0  0
    0.7125   -2.4581    0.0000 C   0  0  0  0  0  0  0  0  0  0  0  0
    1.4428   -2.8856    0.0000 C   0  0  0  0  0  0  0  0  0  0  0  0
    4.9340   -0.8372    0.0000 C   0  0  0  0  0  0  0  0  0  0  0  0
  1  5  1  0  0  0  0
  1  9  1  0  0  0  0
  2  7  1  0  0  0  0
  2  9  2  0  0  0  0
  3 14  1  0  0  0  0
  4 16  3  0  0  0  0
  5  6  1  0  0  0  0
  5  7  2  0  0  0  0
  6  8  2  0  0  0  0
  6 12  1  0  0  0  0
  7 10  1  0  0  0  0
  8 11  1  0  0  0  0
  8 13  1  0  0  0  0
  9 16  1  0  0  0  0
 10 11  2  0  0  0  0
 12 15  2  0  0  0  0
 13 14  2  0  0  0  0
 14 15  1  0  0  0  0
M  END
> <PUBCHEM_COMPOUND_ID_TYPE>
0

> <PUBCHEM_TOTAL_CHARGE>
0

> <PUBCHEM_SUBSTANCE_ID>
310936291

> <PUBCHEM_SUBSTANCE_VERSION>
1

> <PUBCHEM_EXT_DATASOURCE_NAME>
4488

> <PUBCHEM_EXT_DATASOURCE_REGID>
SCHEMBL16113912

> <PUBCHEM_SUBSTANCE_COMMENT>
InChI=1S/C12H7N3S/c13-6-11-15-10-4-1-7-5-8(14)2-3-9(7)12(10)16-11/h1-5H,14H2
InChIKey=SHGXJEPXSHUONK-UHFFFAOYSA-N

> <PUBCHEM_SUBSTANCE_SYNONYM>
SCHEMBL16113912

> <PUBCHEM_XREF_EXT_ID>
SCHEMBL16113912

> <PUBCHEM_EXT_DATASOURCE_URL>
https://www.surechembl.org/

> <PUBCHEM_EXT_SUBSTANCE_URL>
https://www.surechembl.org/chemical/SCHEMBL16113912

> <PUBCHEM_CID_ASSOCIATIONS>
117604234  1

> <PUBCHEM_COORDINATE_TYPE>
1
3

$$$$
