310933868
  -OEChem-07211613022D

 25 27  0     0  0  0  0  0  0999 V2000
    7.3600   -0.7097    0.0000 S   0  0  0  0  0  0  0  0  0  0  0  0
    3.7851   -3.4697    0.0000 O   0  0  0  0  0  0  0  0  0  0  0  0
    4.4423    0.0000    0.0000 O   0  0  0  0  0  0  0  0  0  0  0  0
    3.6011   -1.4194    0.0000 O   0  0  0  0  0  0  0  0  0  0  0  0
    5.2834   -1.4457    0.0000 N   0  0  0  0  0  0  0  0  0  0  0  0
    4.3897   -2.9177    0.0000 N   0  0  0  0  0  0  0  0  0  0  0  0
    4.4423   -1.4194    0.0000 N   0  0  0  0  0  0  0  0  0  0  0  0
    0.0000   -5.2572    0.0000 N   0  0  0  0  0  0  0  0  0  0  0  0
    5.6777   -0.7097    0.0000 C   0  0  0  0  0  0  0  0  0  0  0  0
    4.8366   -0.7097    0.0000 C   0  0  0  0  0  0  0  0  0  0  0  0
    4.0480   -2.1554    0.0000 C   0  0  0  0  0  0  0  0  0  0  0  0
    6.1245   -1.4194    0.0000 C   0  0  0  0  0  0  0  0  0  0  0  0
    6.1245    0.0000    0.0000 C   0  0  0  0  0  0  0  0  0  0  0  0
    3.0754   -3.0491    0.0000 C   0  0  0  0  0  0  0  0  0  0  0  0
    4.6263   -1.6034    0.0000 C   0  0  0  0  0  0  0  0  0  0  0  0
    2.3131   -3.3908    0.0000 C   0  0  0  0  0  0  0  0  0  0  0  0
    3.2068   -2.2606    0.0000 C   0  0  0  0  0  0  0  0  0  0  0  0
    6.9131   -1.4194    0.0000 C   0  0  0  0  0  0  0  0  0  0  0  0
    6.9131    0.0000    0.0000 C   0  0  0  0  0  0  0  0  0  0  0  0
    2.2343   -4.2320    0.0000 C   0  0  0  0  0  0  0  0  0  0  0  0
    1.6560   -2.9440    0.0000 C   0  0  0  0  0  0  0  0  0  0  0  0
    0.8149   -4.0743    0.0000 C   0  0  0  0  0  0  0  0  0  0  0  0
    1.4983   -4.5737    0.0000 C   0  0  0  0  0  0  0  0  0  0  0  0
    0.8937   -3.2857    0.0000 C   0  0  0  0  0  0  0  0  0  0  0  0
    0.0789   -4.4423    0.0000 C   0  0  0  0  0  0  0  0  0  0  0  0
  1 18  1  0  0  0  0
  1 19  1  0  0  0  0
  2  6  1  0  0  0  0
  2 14  1  0  0  0  0
  3 10  2  0  0  0  0
  4  7  1  0  0  0  0
  5  9  1  0  0  0  0
  5 15  1  0  0  0  0
  6 11  2  0  0  0  0
  7 10  1  0  0  0  0
  8 25  3  0  0  0  0
  9 10  1  0  0  0  0
  9 12  1  0  0  0  0
  9 13  1  0  0  0  0
 11 15  1  0  0  0  0
 11 17  1  0  0  0  0
 12 18  1  0  0  0  0
 13 19  1  0  0  0  0
 14 16  1  0  0  0  0
 14 17  2  0  0  0  0
 16 20  2  0  0  0  0
 16 21  1  0  0  0  0
 20 23  1  0  0  0  0
 21 24  2  0  0  0  0
 22 23  2  0  0  0  0
 22 24  1  0  0  0  0
 22 25  1  0  0  0  0
M  END
> <PUBCHEM_COMPOUND_ID_TYPE>
0

> <PUBCHEM_TOTAL_CHARGE>
0

> <PUBCHEM_SUBSTANCE_ID>
310933868

> <PUBCHEM_SUBSTANCE_VERSION>
1

> <PUBCHEM_EXT_DATASOURCE_NAME>
4488

> <PUBCHEM_EXT_DATASOURCE_REGID>
SCHEMBL16111307

> <PUBCHEM_SUBSTANCE_COMMENT>
InChI=1S/C17H18N4O3S/c18-10-12-1-3-13(4-2-12)15-9-14(21-24-15)11-19-17(16(22)20-23)5-7-25-8-6-17/h1-4,9,19,23H,5-8,11H2,(H,20,22)
InChIKey=RPXUYQYTIVSGEK-UHFFFAOYSA-N

> <PUBCHEM_SUBSTANCE_SYNONYM>
SCHEMBL16111307

> <PUBCHEM_XREF_EXT_ID>
SCHEMBL16111307

> <PUBCHEM_EXT_DATASOURCE_URL>
https://www.surechembl.org/

> <PUBCHEM_EXT_SUBSTANCE_URL>
https://www.surechembl.org/chemical/SCHEMBL16111307

> <PUBCHEM_CID_ASSOCIATIONS>
117602205  1

> <PUBCHEM_COORDINATE_TYPE>
1
3

$$$$
