310944873
  -OEChem-07211613022D

 15 16  0     0  0  0  0  0  0999 V2000
   -0.3422   -1.4076    0.0000 O   0  0  0  0  0  0  0  0  0  0  0  0
    1.1043   -1.4387    0.0000 O   0  0  0  0  0  0  0  0  0  0  0  0
    0.3889   -0.1633    0.0000 N   0  0  0  0  0  0  0  0  0  0  0  0
    0.3889    1.0654    0.0000 C   0  0  0  0  0  0  0  0  0  0  0  0
   -0.1867    0.4744    0.0000 C   0  0  0  0  0  0  0  0  0  0  0  0
    0.9799    0.4744    0.0000 C   0  0  0  0  0  0  0  0  0  0  0  0
   -0.1711    1.6565    0.0000 C   0  0  0  0  0  0  0  0  0  0  0  0
    0.9799    1.6720    0.0000 C   0  0  0  0  0  0  0  0  0  0  0  0
    0.4044    2.2475    0.0000 C   0  0  0  0  0  0  0  0  0  0  0  0
    0.3577   -0.9565    0.0000 C   0  0  0  0  0  0  0  0  0  0  0  0
   -0.3577   -2.2475    0.0000 C   0  0  0  0  0  0  0  0  0  0  0  0
    0.4044    2.7918    0.0000 C   0  0  0  0  0  0  0  0  0  0  0  0
   -1.1043   -2.6363    0.0000 C   0  0  0  0  0  0  0  0  0  0  0  0
   -0.3422   -3.0718    0.0000 C   0  0  0  0  0  0  0  0  0  0  0  0
    0.3577   -2.6829    0.0000 C   0  0  0  0  0  0  0  0  0  0  0  0
  1 10  1  0  0  0  0
  1 11  1  0  0  0  0
  2 10  2  0  0  0  0
  3  5  1  0  0  0  0
  3  6  1  0  0  0  0
  3 10  1  0  0  0  0
  4  5  1  0  0  0  0
  4  6  1  0  0  0  0
  4  7  1  0  0  0  0
  4  8  1  0  0  0  0
  7  9  1  0  0  0  0
  8  9  1  0  0  0  0
  9 12  1  0  0  0  0
 11 13  1  0  0  0  0
 11 14  1  0  0  0  0
 11 15  1  0  0  0  0
M  END
> <PUBCHEM_COMPOUND_ID_TYPE>
0

> <PUBCHEM_TOTAL_CHARGE>
0

> <PUBCHEM_SUBSTANCE_ID>
310944873

> <PUBCHEM_SUBSTANCE_VERSION>
1

> <PUBCHEM_EXT_DATASOURCE_NAME>
4488

> <PUBCHEM_EXT_DATASOURCE_REGID>
SCHEMBL16122957

> <PUBCHEM_SUBSTANCE_COMMENT>
InChI=1S/C12H21NO2/c1-9-5-12(6-9)7-13(8-12)10(14)15-11(2,3)4/h9H,5-8H2,1-4H3
InChIKey=ZPQAESVSEZTXGM-UHFFFAOYSA-N

> <PUBCHEM_SUBSTANCE_SYNONYM>
SCHEMBL16122957

> <PUBCHEM_XREF_EXT_ID>
SCHEMBL16122957

> <PUBCHEM_EXT_DATASOURCE_URL>
https://www.surechembl.org/

> <PUBCHEM_EXT_SUBSTANCE_URL>
https://www.surechembl.org/chemical/SCHEMBL16122957

> <PUBCHEM_CID_ASSOCIATIONS>
117611067  1

> <PUBCHEM_COORDINATE_TYPE>
1
3

$$$$
