310940738
  -OEChem-07211613022D

 34 37  0     0  0  0  0  0  0999 V2000
   -1.0017    1.3919    0.0000 Br  0  0  0  0  0  0  0  0  0  0  0  0
    2.5630    2.0843    0.0000 F   0  0  0  0  0  0  0  0  0  0  0  0
   -1.1489   -0.1252    0.0000 O   0  0  0  0  0  0  0  0  0  0  0  0
    4.7578   -0.9648    0.0000 O   0  0  0  0  0  0  0  0  0  0  0  0
    4.7578   -2.4083    0.0000 O   0  0  0  0  0  0  0  0  0  0  0  0
    1.7823   -0.2872    0.0000 N   0  0  0  0  0  0  0  0  0  0  0  0
    1.7823   -1.6276    0.0000 N   0  0  0  0  0  0  0  0  0  0  0  0
   -2.5924    0.6997    0.0000 N   0  0  0  0  0  0  0  0  0  0  0  0
    1.0017   -0.5376    0.0000 C   0  0  0  0  0  0  0  0  0  0  0  0
    2.2684   -0.9501    0.0000 C   0  0  0  0  0  0  0  0  0  0  0  0
    0.9869   -1.3625    0.0000 C   0  0  0  0  0  0  0  0  0  0  0  0
    0.2652   -0.1399    0.0000 C   0  0  0  0  0  0  0  0  0  0  0  0
    2.0327    0.5082    0.0000 C   0  0  0  0  0  0  0  0  0  0  0  0
    3.1080   -0.9648    0.0000 C   0  0  0  0  0  0  0  0  0  0  0  0
    0.2946   -1.7749    0.0000 C   0  0  0  0  0  0  0  0  0  0  0  0
    3.5057   -1.6865    0.0000 C   0  0  0  0  0  0  0  0  0  0  0  0
   -0.4271   -0.5376    0.0000 C   0  0  0  0  0  0  0  0  0  0  0  0
    1.4582    1.1269    0.0000 C   0  0  0  0  0  0  0  0  0  0  0  0
   -0.4271   -1.3625    0.0000 C   0  0  0  0  0  0  0  0  0  0  0  0
    1.7528    1.9223    0.0000 C   0  0  0  0  0  0  0  0  0  0  0  0
    4.3306   -1.6865    0.0000 C   0  0  0  0  0  0  0  0  0  0  0  0
    0.6776    0.9648    0.0000 C   0  0  0  0  0  0  0  0  0  0  0  0
    0.1325    1.5834    0.0000 C   0  0  0  0  0  0  0  0  0  0  0  0
    2.7839   -2.0843    0.0000 C   0  0  0  0  0  0  0  0  0  0  0  0
    3.5352   -2.5261    0.0000 C   0  0  0  0  0  0  0  0  0  0  0  0
    1.1931    2.5261    0.0000 C   0  0  0  0  0  0  0  0  0  0  0  0
    0.3829    2.3494    0.0000 C   0  0  0  0  0  0  0  0  0  0  0  0
   -1.8560   -0.5376    0.0000 C   0  0  0  0  0  0  0  0  0  0  0  0
   -2.5924   -0.1105    0.0000 C   0  0  0  0  0  0  0  0  0  0  0  0
   -3.3143   -0.5376    0.0000 C   0  0  0  0  0  0  0  0  0  0  0  0
   -4.0212    0.7144    0.0000 C   0  0  0  0  0  0  0  0  0  0  0  0
   -3.3143    1.1269    0.0000 C   0  0  0  0  0  0  0  0  0  0  0  0
   -4.0359   -0.1105    0.0000 C   0  0  0  0  0  0  0  0  0  0  0  0
   -4.7578    1.1269    0.0000 C   0  0  0  0  0  0  0  0  0  0  0  0
  1 23  1  0  0  0  0
  2 20  1  0  0  0  0
  3 17  1  0  0  0  0
  3 28  1  0  0  0  0
  4 21  2  0  0  0  0
  5 21  1  0  0  0  0
  6  9  1  0  0  0  0
  6 10  1  0  0  0  0
  6 13  1  0  0  0  0
  7 10  2  0  0  0  0
  7 11  1  0  0  0  0
  8 29  1  0  0  0  0
  8 32  2  0  0  0  0
  9 11  1  0  0  0  0
  9 12  2  0  0  0  0
 10 14  1  0  0  0  0
 11 15  2  0  0  0  0
 12 17  1  0  0  0  0
 13 18  1  0  0  0  0
 14 16  1  0  0  0  0
 15 19  1  0  0  0  0
 16 21  1  0  0  0  0
 16 24  1  0  0  0  0
 16 25  1  0  0  0  0
 17 19  2  0  0  0  0
 18 20  1  0  0  0  0
 18 22  2  0  0  0  0
 20 26  2  0  0  0  0
 22 23  1  0  0  0  0
 23 27  2  0  0  0  0
 26 27  1  0  0  0  0
 28 29  1  0  0  0  0
 29 30  2  0  0  0  0
 30 33  1  0  0  0  0
 31 32  1  0  0  0  0
 31 33  2  0  0  0  0
 31 34  1  0  0  0  0
M  END
> <PUBCHEM_COMPOUND_ID_TYPE>
0

> <PUBCHEM_TOTAL_CHARGE>
0

> <PUBCHEM_SUBSTANCE_ID>
310940738

> <PUBCHEM_SUBSTANCE_VERSION>
1

> <PUBCHEM_EXT_DATASOURCE_NAME>
4488

> <PUBCHEM_EXT_DATASOURCE_REGID>
SCHEMBL16118696

> <PUBCHEM_SUBSTANCE_COMMENT>
InChI=1S/C26H25BrFN3O3/c1-16-4-6-19(29-13-16)15-34-20-7-9-22-23(11-20)31(14-17-10-18(27)5-8-21(17)28)24(30-22)12-26(2,3)25(32)33/h4-11,13H,12,14-15H2,1-3H3,(H,32,33)
InChIKey=CCSZTRLRQPJTCP-UHFFFAOYSA-N

> <PUBCHEM_SUBSTANCE_SYNONYM>
SCHEMBL16118696

> <PUBCHEM_XREF_EXT_ID>
SCHEMBL16118696

> <PUBCHEM_EXT_DATASOURCE_URL>
https://www.surechembl.org/

> <PUBCHEM_EXT_SUBSTANCE_URL>
https://www.surechembl.org/chemical/SCHEMBL16118696

> <PUBCHEM_CID_ASSOCIATIONS>
117607695  1

> <PUBCHEM_COORDINATE_TYPE>
1
3

$$$$
