310939400
  -OEChem-07211613022D

 26 30  0     0  0  0  0  0  0999 V2000
    1.0420   16.5318    0.0000 O   0  0  0  0  0  0  0  0  0  0  0  0
    0.3130    9.8346    0.0000 O   0  0  0  0  0  0  0  0  0  0  0  0
   -0.3275   12.2253    0.0000 N   0  0  0  0  0  0  0  0  0  0  0  0
    0.1574   12.8927    0.0000 N   0  0  0  0  0  0  0  0  0  0  0  0
   -1.8266   12.0677    0.0000 N   0  0  0  0  0  0  0  0  0  0  0  0
   -2.5411   13.3052    0.0000 N   0  0  0  0  0  0  0  0  0  0  0  0
    1.8266   15.4519    0.0000 N   0  0  0  0  0  0  0  0  0  0  0  0
   -1.8266   14.5427    0.0000 N   0  0  0  0  0  0  0  0  0  0  0  0
   -1.1122   13.3052    0.0000 C   0  0  0  0  0  0  0  0  0  0  0  0
   -0.3275   13.5601    0.0000 C   0  0  0  0  0  0  0  0  0  0  0  0
   -1.1122   12.4802    0.0000 C   0  0  0  0  0  0  0  0  0  0  0  0
   -0.1140   14.3570    0.0000 C   0  0  0  0  0  0  0  0  0  0  0  0
   -1.8266   13.7177    0.0000 C   0  0  0  0  0  0  0  0  0  0  0  0
   -0.1140   11.4284    0.0000 C   0  0  0  0  0  0  0  0  0  0  0  0
    1.0420   15.1969    0.0000 C   0  0  0  0  0  0  0  0  0  0  0  0
    0.7065   14.4433    0.0000 C   0  0  0  0  0  0  0  0  0  0  0  0
    0.5571   15.8644    0.0000 C   0  0  0  0  0  0  0  0  0  0  0  0
   -0.5989   15.0245    0.0000 C   0  0  0  0  0  0  0  0  0  0  0  0
   -0.2634   15.7781    0.0000 C   0  0  0  0  0  0  0  0  0  0  0  0
   -2.5411   12.4802    0.0000 C   0  0  0  0  0  0  0  0  0  0  0  0
    1.8266   16.2769    0.0000 C   0  0  0  0  0  0  0  0  0  0  0  0
   -0.6974   10.8450    0.0000 C   0  0  0  0  0  0  0  0  0  0  0  0
    0.6829   11.2148    0.0000 C   0  0  0  0  0  0  0  0  0  0  0  0
   -0.4839   10.0481    0.0000 C   0  0  0  0  0  0  0  0  0  0  0  0
    0.8964   10.4180    0.0000 C   0  0  0  0  0  0  0  0  0  0  0  0
    2.5411   16.6894    0.0000 C   0  0  0  0  0  0  0  0  0  0  0  0
  1 17  1  0  0  0  0
  1 21  1  0  0  0  0
  2 24  1  0  0  0  0
  2 25  1  0  0  0  0
  3  4  1  0  0  0  0
  3 11  1  0  0  0  0
  3 14  1  0  0  0  0
  4 10  2  0  0  0  0
  5 11  1  0  0  0  0
  5 20  2  0  0  0  0
  6 13  2  0  0  0  0
  6 20  1  0  0  0  0
  7 15  1  0  0  0  0
  7 21  2  0  0  0  0
  8 13  1  0  0  0  0
  9 10  1  0  0  0  0
  9 11  2  0  0  0  0
  9 13  1  0  0  0  0
 10 12  1  0  0  0  0
 12 16  2  0  0  0  0
 12 18  1  0  0  0  0
 14 22  1  0  0  0  0
 14 23  1  0  0  0  0
 15 16  1  0  0  0  0
 15 17  2  0  0  0  0
 17 19  1  0  0  0  0
 18 19  2  0  0  0  0
 21 26  1  0  0  0  0
 22 24  1  0  0  0  0
 23 25  1  0  0  0  0
M  END
> <PUBCHEM_COMPOUND_ID_TYPE>
0

> <PUBCHEM_TOTAL_CHARGE>
0

> <PUBCHEM_SUBSTANCE_ID>
310939400

> <PUBCHEM_SUBSTANCE_VERSION>
1

> <PUBCHEM_EXT_DATASOURCE_NAME>
4488

> <PUBCHEM_EXT_DATASOURCE_REGID>
SCHEMBL16117321

> <PUBCHEM_SUBSTANCE_COMMENT>
InChI=1S/C18H18N6O2/c1-10-22-13-8-11(2-3-14(13)26-10)16-15-17(19)20-9-21-18(15)24(23-16)12-4-6-25-7-5-12/h2-3,8-9,12H,4-7H2,1H3,(H2,19,20,21)
InChIKey=IBMCZHKFISIKMZ-UHFFFAOYSA-N

> <PUBCHEM_SUBSTANCE_SYNONYM>
SCHEMBL16117321

> <PUBCHEM_XREF_EXT_ID>
SCHEMBL16117321

> <PUBCHEM_EXT_DATASOURCE_URL>
https://www.surechembl.org/

> <PUBCHEM_EXT_SUBSTANCE_URL>
https://www.surechembl.org/chemical/SCHEMBL16117321

> <PUBCHEM_CID_ASSOCIATIONS>
117606727  1

> <PUBCHEM_COORDINATE_TYPE>
1
3

$$$$
