310944156
  -OEChem-07211613022D

 19 21  0     1  0  0  0  0  0999 V2000
   -0.7539   -2.0965    0.0000 F   0  0  0  0  0  0  0  0  0  0  0  0
   -0.4426    0.7442    0.0000 O   0  0  0  0  0  0  0  0  0  0  0  0
    2.4369    0.6858    0.0000 O   0  0  0  0  0  0  0  0  0  0  0  0
    2.1353    2.0965    0.0000 O   0  0  0  0  0  0  0  0  0  0  0  0
    0.5691   -0.2578    0.0000 N   0  0  0  0  0  0  0  0  0  0  0  0
   -2.4369   -0.6663    0.0000 N   0  0  0  0  0  0  0  0  0  0  0  0
   -0.7344   -0.6858    0.0000 C   0  0  3  0  0  0  0  0  0  0  0  0
   -0.1897   -0.0049    0.0000 C   0  0  0  0  0  0  0  0  0  0  0  0
    1.2112    0.2189    0.0000 C   0  0  0  0  0  0  0  0  0  0  0  0
   -1.1625   -1.3960    0.0000 C   0  0  3  0  0  0  0  0  0  0  0  0
   -0.1800   -1.3474    0.0000 C   0  0  0  0  0  0  0  0  0  0  0  0
    0.5886   -1.1431    0.0000 C   0  0  0  0  0  0  0  0  0  0  0  0
   -1.1625    0.0535    0.0000 C   0  0  0  0  0  0  0  0  0  0  0  0
    1.1819    1.0361    0.0000 C   0  0  0  0  0  0  0  0  0  0  0  0
    1.9991    0.0146    0.0000 C   0  0  0  0  0  0  0  0  0  0  0  0
    1.9213    1.3085    0.0000 C   0  0  0  0  0  0  0  0  0  0  0  0
   -2.0089   -1.3862    0.0000 C   0  0  0  0  0  0  0  0  0  0  0  0
   -1.9991    0.0632    0.0000 C   0  0  0  0  0  0  0  0  0  0  0  0
    0.4816    1.4641    0.0000 C   0  0  0  0  0  0  0  0  0  0  0  0
  1 10  1  0  0  0  0
  2  8  2  0  0  0  0
  3 15  1  0  0  0  0
  3 16  1  0  0  0  0
  4 16  2  0  0  0  0
  5  8  1  0  0  0  0
  5  9  1  0  0  0  0
  5 12  1  0  0  0  0
  6 17  1  0  0  0  0
  6 18  1  0  0  0  0
  7  8  1  6  0  0  0
  7 10  1  0  0  0  0
  7 11  1  0  0  0  0
  7 13  1  0  0  0  0
  9 14  2  0  0  0  0
  9 15  1  0  0  0  0
 10 17  1  0  0  0  0
 11 12  1  0  0  0  0
 13 18  1  0  0  0  0
 14 16  1  0  0  0  0
 14 19  1  0  0  0  0
M  END
> <PUBCHEM_COMPOUND_ID_TYPE>
0

> <PUBCHEM_TOTAL_CHARGE>
0

> <PUBCHEM_SUBSTANCE_ID>
310944156

> <PUBCHEM_SUBSTANCE_VERSION>
1

> <PUBCHEM_EXT_DATASOURCE_NAME>
4488

> <PUBCHEM_EXT_DATASOURCE_REGID>
SCHEMBL16122231

> <PUBCHEM_SUBSTANCE_COMMENT>
InChI=1S/C13H17FN2O3/c1-8-9(7-19-11(8)17)16-5-3-13(12(16)18)2-4-15-6-10(13)14/h10,15H,2-7H2,1H3/t10?,13-/m1/s1
InChIKey=QSZXCHWTEAOLBA-JLOHTSLTSA-N

> <PUBCHEM_SUBSTANCE_SYNONYM>
SCHEMBL16122231

> <PUBCHEM_XREF_EXT_ID>
SCHEMBL16122231

> <PUBCHEM_EXT_DATASOURCE_URL>
https://www.surechembl.org/

> <PUBCHEM_EXT_SUBSTANCE_URL>
https://www.surechembl.org/chemical/SCHEMBL16122231

> <PUBCHEM_CID_ASSOCIATIONS>
117610437  1

> <PUBCHEM_COORDINATE_TYPE>
1
3

> <PUBCHEM_BONDANNOTATIONS>
7  8  6

$$$$
