310943756
  -OEChem-07211613022D

 40 44  0     0  0  0  0  0  0999 V2000
    5.0101    1.2144    0.0000 S   0  0  0  0  0  0  0  0  0  0  0  0
    5.7127    0.7866    0.0000 O   0  0  0  0  0  0  0  0  0  0  0  0
    5.7127    1.6267    0.0000 O   0  0  0  0  0  0  0  0  0  0  0  0
   -2.8411   -2.8793    0.0000 O   0  0  0  0  0  0  0  0  0  0  0  0
    1.4359    2.4516    0.0000 O   0  0  0  0  0  0  0  0  0  0  0  0
   -5.7127    2.4516    0.0000 O   0  0  0  0  0  0  0  0  0  0  0  0
   -2.8411   -0.8630    0.0000 N   0  0  0  0  0  0  0  0  0  0  0  0
   -3.5590    0.3742    0.0000 N   0  0  0  0  0  0  0  0  0  0  0  0
   -4.2769    1.6267    0.0000 N   0  0  0  0  0  0  0  0  0  0  0  0
    0.7332    1.2144    0.0000 N   0  0  0  0  0  0  0  0  0  0  0  0
   -0.7027    2.8793    0.0000 N   0  0  0  0  0  0  0  0  0  0  0  0
   -2.1232    1.2144    0.0000 C   0  0  0  0  0  0  0  0  0  0  0  0
    4.2922    1.6420    0.0000 C   0  0  0  0  0  0  0  0  0  0  0  0
   -2.8411   -0.0382    0.0000 C   0  0  0  0  0  0  0  0  0  0  0  0
   -1.4206    1.6267    0.0000 C   0  0  0  0  0  0  0  0  0  0  0  0
   -3.5590    1.2144    0.0000 C   0  0  0  0  0  0  0  0  0  0  0  0
    3.5895    1.2144    0.0000 C   0  0  0  0  0  0  0  0  0  0  0  0
   -2.1384    0.3742    0.0000 C   0  0  0  0  0  0  0  0  0  0  0  0
   -2.8411    1.6267    0.0000 C   0  0  0  0  0  0  0  0  0  0  0  0
   -1.4052    2.4516    0.0000 C   0  0  0  0  0  0  0  0  0  0  0  0
   -0.7027    1.2144    0.0000 C   0  0  0  0  0  0  0  0  0  0  0  0
    0.0000    1.6267    0.0000 C   0  0  0  0  0  0  0  0  0  0  0  0
    2.1537    1.2144    0.0000 C   0  0  0  0  0  0  0  0  0  0  0  0
    2.8564    1.6115    0.0000 C   0  0  0  0  0  0  0  0  0  0  0  0
   -3.4216   -1.4587    0.0000 C   0  0  0  0  0  0  0  0  0  0  0  0
   -2.2606   -1.4587    0.0000 C   0  0  0  0  0  0  0  0  0  0  0  0
   -2.8411   -2.0239    0.0000 C   0  0  0  0  0  0  0  0  0  0  0  0
    1.4359    1.6115    0.0000 C   0  0  0  0  0  0  0  0  0  0  0  0
    3.5743    0.3742    0.0000 C   0  0  0  0  0  0  0  0  0  0  0  0
    0.0153    2.4516    0.0000 C   0  0  0  0  0  0  0  0  0  0  0  0
    3.8951    2.3599    0.0000 C   0  0  0  0  0  0  0  0  0  0  0  0
    4.7046    2.3599    0.0000 C   0  0  0  0  0  0  0  0  0  0  0  0
    2.1537    0.3895    0.0000 C   0  0  0  0  0  0  0  0  0  0  0  0
    2.8564   -0.0229    0.0000 C   0  0  0  0  0  0  0  0  0  0  0  0
   -4.2769    2.4516    0.0000 C   0  0  0  0  0  0  0  0  0  0  0  0
   -4.9795    1.2144    0.0000 C   0  0  0  0  0  0  0  0  0  0  0  0
    5.0101    0.3742    0.0000 C   0  0  0  0  0  0  0  0  0  0  0  0
   -2.1384    2.8487    0.0000 C   0  0  0  0  0  0  0  0  0  0  0  0
   -4.9948    2.8640    0.0000 C   0  0  0  0  0  0  0  0  0  0  0  0
   -5.6975    1.6267    0.0000 C   0  0  0  0  0  0  0  0  0  0  0  0
  1  2  2  0  0  0  0
  1  3  2  0  0  0  0
  1 13  1  0  0  0  0
  1 37  1  0  0  0  0
  4 27  1  0  0  0  0
  5 28  2  0  0  0  0
  6 39  1  0  0  0  0
  6 40  1  0  0  0  0
  7 14  1  0  0  0  0
  7 25  1  0  0  0  0
  7 26  1  0  0  0  0
  8 14  1  0  0  0  0
  8 16  2  0  0  0  0
  9 16  1  0  0  0  0
  9 35  1  0  0  0  0
  9 36  1  0  0  0  0
 10 22  1  0  0  0  0
 10 28  1  0  0  0  0
 11 20  2  0  0  0  0
 11 30  1  0  0  0  0
 12 15  1  0  0  0  0
 12 18  1  0  0  0  0
 12 19  2  0  0  0  0
 13 17  1  0  0  0  0
 13 31  1  0  0  0  0
 13 32  1  0  0  0  0
 14 18  2  0  0  0  0
 15 20  1  0  0  0  0
 15 21  2  0  0  0  0
 16 19  1  0  0  0  0
 17 24  2  0  0  0  0
 17 29  1  0  0  0  0
 20 38  1  0  0  0  0
 21 22  1  0  0  0  0
 22 30  2  0  0  0  0
 23 24  1  0  0  0  0
 23 28  1  0  0  0  0
 23 33  2  0  0  0  0
 25 27  1  0  0  0  0
 26 27  1  0  0  0  0
 29 34  2  0  0  0  0
 33 34  1  0  0  0  0
 35 39  1  0  0  0  0
 36 40  1  0  0  0  0
M  END
> <PUBCHEM_COMPOUND_ID_TYPE>
0

> <PUBCHEM_TOTAL_CHARGE>
0

> <PUBCHEM_SUBSTANCE_ID>
310943756

> <PUBCHEM_SUBSTANCE_VERSION>
1

> <PUBCHEM_EXT_DATASOURCE_NAME>
4488

> <PUBCHEM_EXT_DATASOURCE_REGID>
SCHEMBL16121825

> <PUBCHEM_SUBSTANCE_COMMENT>
InChI=1S/C29H35N5O5S/c1-19-25(21-13-26(33-8-10-39-11-9-33)32-27(14-21)34-17-24(35)18-34)15-23(16-30-19)31-28(36)20-6-5-7-22(12-20)29(2,3)40(4,37)38/h5-7,12-16,24,35H,8-11,17-18H2,1-4H3,(H,31,36)
InChIKey=VCHCOTIFDALUPC-UHFFFAOYSA-N

> <PUBCHEM_SUBSTANCE_SYNONYM>
SCHEMBL16121825

> <PUBCHEM_XREF_EXT_ID>
SCHEMBL16121825

> <PUBCHEM_EXT_DATASOURCE_URL>
https://www.surechembl.org/

> <PUBCHEM_EXT_SUBSTANCE_URL>
https://www.surechembl.org/chemical/SCHEMBL16121825

> <PUBCHEM_CID_ASSOCIATIONS>
117610118  1

> <PUBCHEM_COORDINATE_TYPE>
1
3

$$$$
