310940420
  -OEChem-07211613022D

 40 41  0     1  0  0  0  0  0999 V2000
   -3.3459    2.6807    0.0000 S   0  0  0  0  0  0  0  0  0  0  0  0
    1.7627   -0.9113    0.0000 O   0  0  0  0  0  0  0  0  0  0  0  0
    3.1995   -0.9113    0.0000 O   0  0  0  0  0  0  0  0  0  0  0  0
   -0.4057    0.3393    0.0000 O   0  0  0  0  0  0  0  0  0  0  0  0
    4.6363    1.5898    0.0000 O   0  0  0  0  0  0  0  0  0  0  0  0
    0.3259   -0.9113    0.0000 O   0  0  0  0  0  0  0  0  0  0  0  0
    1.3902   -2.2949    0.0000 O   0  0  0  0  0  0  0  0  0  0  0  0
   -3.3326    1.3370    0.0000 N   0  0  0  0  0  0  0  0  0  0  0  0
    2.4811    0.3525    0.0000 C   0  0  0  0  0  0  0  0  0  0  0  0
    3.2129   -0.0466    0.0000 C   0  0  0  0  0  0  0  0  0  0  0  0
    1.7761   -0.0599    0.0000 C   0  0  3  0  0  0  0  0  0  0  0  0
    3.9179    0.3525    0.0000 C   0  0  3  0  0  0  0  0  0  0  0  0
    1.0443    0.3393    0.0000 C   0  0  0  0  0  0  0  0  0  0  0  0
    3.9312    1.1774    0.0000 C   0  0  3  0  0  0  0  0  0  0  0  0
    2.0820    1.0576    0.0000 C   0  0  0  0  0  0  0  0  0  0  0  0
    2.9068    1.0576    0.0000 C   0  0  0  0  0  0  0  0  0  0  0  0
    0.3393   -0.0466    0.0000 C   0  0  0  0  0  0  0  0  0  0  0  0
    3.1995    1.6031    0.0000 C   0  0  3  0  0  0  0  0  0  0  0  0
    1.9490   -1.7228    0.0000 C   0  0  0  0  0  0  0  0  0  0  0  0
   -0.3792    1.1774    0.0000 C   0  0  3  0  0  0  0  0  0  0  0  0
    4.6497   -0.0731    0.0000 C   0  0  0  0  0  0  0  0  0  0  0  0
   -1.1109    1.5765    0.0000 C   0  0  0  0  0  0  0  0  0  0  0  0
   -2.5610    1.6031    0.0000 C   0  0  0  0  0  0  0  0  0  0  0  0
   -1.8160    1.1774    0.0000 C   0  0  0  0  0  0  0  0  0  0  0  0
    3.2129    2.4280    0.0000 C   0  0  0  0  0  0  0  0  0  0  0  0
    0.3393    1.5898    0.0000 C   0  0  0  0  0  0  0  0  0  0  0  0
    2.7339   -1.9623    0.0000 C   0  0  0  0  0  0  0  0  0  0  0  0
   -3.8248    2.0155    0.0000 C   0  0  0  0  0  0  0  0  0  0  0  0
   -2.5477    2.4146    0.0000 C   0  0  0  0  0  0  0  0  0  0  0  0
    2.5078    1.1774    0.0000 C   0  0  0  0  0  0  0  0  0  0  0  0
    0.3525    2.4412    0.0000 C   0  0  0  0  0  0  0  0  0  0  0  0
    2.4944    2.8404    0.0000 C   0  0  0  0  0  0  0  0  0  0  0  0
   -1.1109    2.4146    0.0000 C   0  0  0  0  0  0  0  0  0  0  0  0
    1.0443    2.8404    0.0000 C   0  0  0  0  0  0  0  0  0  0  0  0
    1.7893    2.4280    0.0000 C   0  0  0  0  0  0  0  0  0  0  0  0
    2.9601   -2.7605    0.0000 C   0  0  0  0  0  0  0  0  0  0  0  0
   -4.6497    2.0022    0.0000 C   0  0  0  0  0  0  0  0  0  0  0  0
    1.4700    3.5454    0.0000 C   0  0  0  0  0  0  0  0  0  0  0  0
    3.7583   -2.9866    0.0000 C   0  0  0  0  0  0  0  0  0  0  0  0
    3.9179   -3.5454    0.0000 C   0  0  0  0  0  0  0  0  0  0  0  0
  1 28  1  0  0  0  0
  1 29  1  0  0  0  0
 11  2  1  1  0  0  0
  2 19  1  0  0  0  0
  3 10  2  0  0  0  0
  4 17  1  0  0  0  0
  4 20  1  0  0  0  0
 14  5  1  6  0  0  0
  6 17  2  0  0  0  0
  7 19  2  0  0  0  0
  8 23  1  0  0  0  0
  8 28  2  0  0  0  0
  9 10  1  0  0  0  0
  9 11  1  0  0  0  0
  9 15  1  0  0  0  0
  9 16  1  0  0  0  0
 10 12  1  0  0  0  0
 11 13  1  0  0  0  0
 12 14  1  0  0  0  0
 12 21  1  1  0  0  0
 13 17  1  0  0  0  0
 14 18  1  0  0  0  0
 18 25  1  0  0  0  0
 18 30  1  1  0  0  0
 19 27  1  0  0  0  0
 20 22  1  6  0  0  0
 20 26  1  0  0  0  0
 22 24  2  0  0  0  0
 22 33  1  0  0  0  0
 23 24  1  0  0  0  0
 23 29  2  0  0  0  0
 25 32  2  0  0  0  0
 26 31  1  0  0  0  0
 27 36  1  0  0  0  0
 28 37  1  0  0  0  0
 31 34  2  0  0  0  0
 32 35  1  0  0  0  0
 34 35  1  0  0  0  0
 34 38  1  0  0  0  0
 36 39  1  0  0  0  0
 39 40  1  0  0  0  0
M  END
> <PUBCHEM_COMPOUND_ID_TYPE>
0

> <PUBCHEM_TOTAL_CHARGE>
0

> <PUBCHEM_SUBSTANCE_ID>
310940420

> <PUBCHEM_SUBSTANCE_VERSION>
1

> <PUBCHEM_EXT_DATASOURCE_NAME>
4488

> <PUBCHEM_EXT_DATASOURCE_REGID>
SCHEMBL16118368

> <PUBCHEM_SUBSTANCE_COMMENT>
InChI=1S/C32H47NO6S/c1-9-10-14-28(34)39-27-18-29(35)38-26(22(4)17-25-19-40-24(6)33-25)16-15-20(2)12-11-13-21(3)30(36)23(5)31(37)32(27,7)8/h11,13,15,17,19,21,23,26-27,30,36H,9-10,12,14,16,18H2,1-8H3/b13-11-,20-15-,22-17+/t21-,23+,26-,27-,30-/m0/s1
InChIKey=PYAKBMRSHACRFO-NTLQJMHRSA-N

> <PUBCHEM_SUBSTANCE_SYNONYM>
SCHEMBL16118368

> <PUBCHEM_XREF_EXT_ID>
SCHEMBL16118368

> <PUBCHEM_EXT_DATASOURCE_URL>
https://www.surechembl.org/

> <PUBCHEM_EXT_SUBSTANCE_URL>
https://www.surechembl.org/chemical/SCHEMBL16118368

> <PUBCHEM_CID_ASSOCIATIONS>
117607445  1

> <PUBCHEM_COORDINATE_TYPE>
1
3

> <PUBCHEM_BONDANNOTATIONS>
12  21  5
18  30  5
11  2  5
20  22  6
14  5  6

$$$$
