310932588
  -OEChem-07211613022D

 18 19  0     0  0  0  0  0  0999 V2000
    5.3760   -4.3180    0.0000 Cl  0  0  0  0  0  0  0  0  0  0  0  0
    2.5045    0.0000    0.0000 O   0  0  0  0  0  0  0  0  0  0  0  0
    0.4102   -2.1590    0.0000 O   0  0  0  0  0  0  0  0  0  0  0  0
    6.1964   -2.3534    0.0000 N   0  0  0  0  0  0  0  0  0  0  0  0
    6.3043   -3.1737    0.0000 N   0  0  0  0  0  0  0  0  0  0  0  0
    3.7351   -2.2022    0.0000 N   0  0  0  0  0  0  0  0  0  0  0  0
    3.7351   -0.7340    0.0000 N   0  0  0  0  0  0  0  0  0  0  0  0
    2.5045   -1.4466    0.0000 N   0  0  0  0  0  0  0  0  0  0  0  0
    4.9657   -2.9147    0.0000 C   0  0  0  0  0  0  0  0  0  0  0  0
    5.3976   -2.1590    0.0000 C   0  0  0  0  0  0  0  0  0  0  0  0
    5.5271   -3.5192    0.0000 C   0  0  0  0  0  0  0  0  0  0  0  0
    4.1669   -1.4466    0.0000 C   0  0  0  0  0  0  0  0  0  0  0  0
    4.9657   -1.4466    0.0000 C   0  0  0  0  0  0  0  0  0  0  0  0
    4.1454   -2.8931    0.0000 C   0  0  0  0  0  0  0  0  0  0  0  0
    2.9147   -0.7340    0.0000 C   0  0  0  0  0  0  0  0  0  0  0  0
    1.6625   -1.4466    0.0000 C   0  0  0  0  0  0  0  0  0  0  0  0
    1.2523   -2.1590    0.0000 C   0  0  0  0  0  0  0  0  0  0  0  0
    0.0000   -2.8931    0.0000 C   0  0  0  0  0  0  0  0  0  0  0  0
  1 11  1  0  0  0  0
  2 15  2  0  0  0  0
  3 17  1  0  0  0  0
  3 18  1  0  0  0  0
  4  5  1  0  0  0  0
  4 10  1  0  0  0  0
  5 11  2  0  0  0  0
  6 12  2  0  0  0  0
  6 14  1  0  0  0  0
  7 12  1  0  0  0  0
  7 15  1  0  0  0  0
  8 15  1  0  0  0  0
  8 16  1  0  0  0  0
  9 10  1  0  0  0  0
  9 11  1  0  0  0  0
  9 14  2  0  0  0  0
 10 13  2  0  0  0  0
 12 13  1  0  0  0  0
 16 17  1  0  0  0  0
M  END
> <PUBCHEM_COMPOUND_ID_TYPE>
0

> <PUBCHEM_TOTAL_CHARGE>
0

> <PUBCHEM_SUBSTANCE_ID>
310932588

> <PUBCHEM_SUBSTANCE_VERSION>
1

> <PUBCHEM_EXT_DATASOURCE_NAME>
4488

> <PUBCHEM_EXT_DATASOURCE_REGID>
SCHEMBL16109965

> <PUBCHEM_SUBSTANCE_COMMENT>
InChI=1S/C10H12ClN5O2/c1-18-3-2-12-10(17)14-8-4-7-6(5-13-8)9(11)16-15-7/h4-5H,2-3H2,1H3,(H,15,16)(H2,12,13,14,17)
InChIKey=HHIOKQPJKKGELL-UHFFFAOYSA-N

> <PUBCHEM_SUBSTANCE_SYNONYM>
SCHEMBL16109965

> <PUBCHEM_XREF_EXT_ID>
SCHEMBL16109965

> <PUBCHEM_EXT_DATASOURCE_URL>
https://www.surechembl.org/

> <PUBCHEM_EXT_SUBSTANCE_URL>
https://www.surechembl.org/chemical/SCHEMBL16109965

> <PUBCHEM_CID_ASSOCIATIONS>
117601110  1

> <PUBCHEM_COORDINATE_TYPE>
1
3

$$$$
