310930470
  -OEChem-07211613022D

 23 25  0     0  0  0  0  0  0999 V2000
    6.1857   -0.6804    0.0000 F   0  0  0  0  0  0  0  0  0  0  0  0
    3.7527   -2.1856    0.0000 O   0  0  0  0  0  0  0  0  0  0  0  0
    1.2371   -0.8247    0.0000 N   0  0  0  0  0  0  0  0  0  0  0  0
    2.5155   -2.9485    0.0000 N   0  0  0  0  0  0  0  0  0  0  0  0
    0.0413   -1.5258    0.0000 N   0  0  0  0  0  0  0  0  0  0  0  0
    1.2578   -2.2475    0.0000 C   0  0  0  0  0  0  0  0  0  0  0  0
    1.6701   -1.5258    0.0000 C   0  0  0  0  0  0  0  0  0  0  0  0
    2.8867   -0.7835    0.0000 C   0  0  0  0  0  0  0  0  0  0  0  0
    3.6908   -0.7629    0.0000 C   0  0  0  0  0  0  0  0  0  0  0  0
    2.4949   -1.5258    0.0000 C   0  0  0  0  0  0  0  0  0  0  0  0
    4.1444   -1.4639    0.0000 C   0  0  0  0  0  0  0  0  0  0  0  0
    1.6907   -2.9485    0.0000 C   0  0  0  0  0  0  0  0  0  0  0  0
    0.4536   -2.2475    0.0000 C   0  0  0  0  0  0  0  0  0  0  0  0
    2.4536   -0.0824    0.0000 C   0  0  0  0  0  0  0  0  0  0  0  0
    4.1032   -0.0206    0.0000 C   0  0  0  0  0  0  0  0  0  0  0  0
    4.9692   -1.4227    0.0000 C   0  0  0  0  0  0  0  0  0  0  0  0
    1.6289   -0.0824    0.0000 C   0  0  0  0  0  0  0  0  0  0  0  0
    5.3610   -0.7010    0.0000 C   0  0  0  0  0  0  0  0  0  0  0  0
    1.2578   -3.6701    0.0000 C   0  0  0  0  0  0  0  0  0  0  0  0
    0.0000   -2.9485    0.0000 C   0  0  0  0  0  0  0  0  0  0  0  0
    4.9279    0.0000    0.0000 C   0  0  0  0  0  0  0  0  0  0  0  0
    0.4536   -3.6701    0.0000 C   0  0  0  0  0  0  0  0  0  0  0  0
    4.2063   -2.8867    0.0000 C   0  0  0  0  0  0  0  0  0  0  0  0
  1 18  1  0  0  0  0
  2 11  1  0  0  0  0
  2 23  1  0  0  0  0
  3  7  1  0  0  0  0
  3 17  2  0  0  0  0
  4 12  1  0  0  0  0
  5 13  1  0  0  0  0
  6  7  1  0  0  0  0
  6 12  1  0  0  0  0
  6 13  2  0  0  0  0
  7 10  2  0  0  0  0
  8  9  1  0  0  0  0
  8 10  1  0  0  0  0
  8 14  2  0  0  0  0
  9 11  1  0  0  0  0
  9 15  2  0  0  0  0
 11 16  2  0  0  0  0
 12 19  2  0  0  0  0
 13 20  1  0  0  0  0
 14 17  1  0  0  0  0
 15 21  1  0  0  0  0
 16 18  1  0  0  0  0
 18 21  2  0  0  0  0
 19 22  1  0  0  0  0
 20 22  2  0  0  0  0
M  END
> <PUBCHEM_COMPOUND_ID_TYPE>
0

> <PUBCHEM_TOTAL_CHARGE>
0

> <PUBCHEM_SUBSTANCE_ID>
310930470

> <PUBCHEM_SUBSTANCE_VERSION>
1

> <PUBCHEM_EXT_DATASOURCE_NAME>
4488

> <PUBCHEM_EXT_DATASOURCE_REGID>
SCHEMBL16107760

> <PUBCHEM_SUBSTANCE_COMMENT>
InChI=1S/C18H16FN3O/c1-23-17-10-12(19)5-6-13(17)11-7-8-22-16(9-11)18-14(20)3-2-4-15(18)21/h2-10H,20-21H2,1H3
InChIKey=KCKBCIBINXLIGA-UHFFFAOYSA-N

> <PUBCHEM_SUBSTANCE_SYNONYM>
SCHEMBL16107760

> <PUBCHEM_XREF_EXT_ID>
SCHEMBL16107760

> <PUBCHEM_EXT_DATASOURCE_URL>
https://www.surechembl.org/

> <PUBCHEM_EXT_SUBSTANCE_URL>
https://www.surechembl.org/chemical/SCHEMBL16107760

> <PUBCHEM_CID_ASSOCIATIONS>
117599590  1

> <PUBCHEM_COORDINATE_TYPE>
1
3

$$$$
