310934423
  -OEChem-07211613022D

 42 47  0     1  0  0  0  0  0999 V2000
    2.1434    0.8250    0.0000 O   0  0  0  0  0  0  0  0  0  0  0  0
    5.7282   -7.4812    0.0000 O   0  0  0  0  0  0  0  0  0  0  0  0
    4.6663   -8.4374    0.0000 O   0  0  0  0  0  0  0  0  0  0  0  0
   -0.3020   -2.9196    0.0000 N   0  0  0  0  0  0  0  0  0  0  0  0
   -1.1270   -2.9196    0.0000 N   0  0  0  0  0  0  0  0  0  0  0  0
    0.7599   -1.9634    0.0000 N   0  0  0  0  0  0  0  0  0  0  0  0
    3.2652   -5.8135    0.0000 N   0  0  0  0  0  0  0  0  0  0  0  0
    0.7144    0.8250    0.0000 N   0  0  0  0  0  0  0  0  0  0  0  0
    4.3693   -7.0397    0.0000 N   0  0  0  0  0  0  0  0  0  0  0  0
   -0.7144   -1.6500    0.0000 C   0  0  0  0  0  0  0  0  0  0  0  0
   -0.0470   -2.1349    0.0000 C   0  0  0  0  0  0  0  0  0  0  0  0
   -0.7144   -0.8250    0.0000 C   0  0  0  0  0  0  0  0  0  0  0  0
    0.0000   -0.4125    0.0000 C   0  0  0  0  0  0  0  0  0  0  0  0
    1.0571   -3.3611    0.0000 C   0  0  0  0  0  0  0  0  0  0  0  0
   -1.3819   -2.1349    0.0000 C   0  0  0  0  0  0  0  0  0  0  0  0
    0.0000    0.4125    0.0000 C   0  0  0  0  0  0  0  0  0  0  0  0
    0.2500   -3.5327    0.0000 C   0  0  0  0  0  0  0  0  0  0  0  0
    1.6090   -3.9742    0.0000 C   0  0  0  0  0  0  0  0  0  0  0  0
   -1.4290   -0.4125    0.0000 C   0  0  0  0  0  0  0  0  0  0  0  0
    1.3120   -2.5765    0.0000 C   0  0  0  0  0  0  0  0  0  0  0  0
    2.7131   -5.2004    0.0000 C   0  0  0  0  0  0  0  0  0  0  0  0
    0.7144   -0.8250    0.0000 C   0  0  0  0  0  0  0  0  0  0  0  0
    3.0102   -6.5981    0.0000 C   0  0  3  0  0  0  0  0  0  0  0  0
    4.0721   -5.6419    0.0000 C   0  0  3  0  0  0  0  0  0  0  0  0
   -0.7144    0.8250    0.0000 C   0  0  0  0  0  0  0  0  0  0  0  0
    2.4160   -3.8027    0.0000 C   0  0  0  0  0  0  0  0  0  0  0  0
    1.3541   -4.7588    0.0000 C   0  0  0  0  0  0  0  0  0  0  0  0
   -1.4290    0.4125    0.0000 C   0  0  0  0  0  0  0  0  0  0  0  0
    2.9681   -4.4158    0.0000 C   0  0  0  0  0  0  0  0  0  0  0  0
    1.9062   -5.3719    0.0000 C   0  0  0  0  0  0  0  0  0  0  0  0
    1.4290    0.4125    0.0000 C   0  0  0  0  0  0  0  0  0  0  0  0
    3.5622   -7.2112    0.0000 C   0  0  0  0  0  0  0  0  0  0  0  0
    4.6242   -6.2550    0.0000 C   0  0  0  0  0  0  0  0  0  0  0  0
    1.4290   -0.4125    0.0000 C   0  0  0  0  0  0  0  0  0  0  0  0
    4.9212   -7.6528    0.0000 C   0  0  0  0  0  0  0  0  0  0  0  0
    4.3271   -4.8574    0.0000 C   0  0  0  0  0  0  0  0  0  0  0  0
    2.2033   -6.7697    0.0000 C   0  0  0  0  0  0  0  0  0  0  0  0
    6.2803   -8.0944    0.0000 C   0  0  0  0  0  0  0  0  0  0  0  0
    2.8579    0.4125    0.0000 C   0  0  0  0  0  0  0  0  0  0  0  0
    6.8323   -8.7075    0.0000 C   0  0  0  0  0  0  0  0  0  0  0  0
    6.0253   -8.8789    0.0000 C   0  0  0  0  0  0  0  0  0  0  0  0
    7.0872   -7.9228    0.0000 C   0  0  0  0  0  0  0  0  0  0  0  0
  1 31  1  0  0  0  0
  1 39  1  0  0  0  0
  2 35  1  0  0  0  0
  2 38  1  0  0  0  0
  3 35  2  0  0  0  0
  4  5  1  0  0  0  0
  4 11  1  0  0  0  0
  4 17  1  0  0  0  0
  5 15  2  0  0  0  0
  6 11  1  0  0  0  0
  6 20  2  0  0  0  0
  7 21  1  0  0  0  0
  7 23  1  0  0  0  0
  7 24  1  0  0  0  0
  8 16  1  0  0  0  0
  8 31  2  0  0  0  0
  9 32  1  0  0  0  0
  9 33  1  0  0  0  0
  9 35  1  0  0  0  0
 10 11  2  0  0  0  0
 10 12  1  0  0  0  0
 10 15  1  0  0  0  0
 12 13  2  0  0  0  0
 12 19  1  0  0  0  0
 13 16  1  0  0  0  0
 13 22  1  0  0  0  0
 14 17  2  0  0  0  0
 14 18  1  0  0  0  0
 14 20  1  0  0  0  0
 16 25  2  0  0  0  0
 18 26  2  0  0  0  0
 18 27  1  0  0  0  0
 19 28  2  0  0  0  0
 21 29  2  0  0  0  0
 21 30  1  0  0  0  0
 22 34  2  0  0  0  0
 23 32  1  0  0  0  0
 23 37  1  6  0  0  0
 24 33  1  0  0  0  0
 24 36  1  6  0  0  0
 25 28  1  0  0  0  0
 26 29  1  0  0  0  0
 27 30  2  0  0  0  0
 31 34  1  0  0  0  0
 38 40  1  0  0  0  0
 38 41  1  0  0  0  0
 38 42  1  0  0  0  0
M  END
> <PUBCHEM_COMPOUND_ID_TYPE>
0

> <PUBCHEM_TOTAL_CHARGE>
0

> <PUBCHEM_SUBSTANCE_ID>
310934423

> <PUBCHEM_SUBSTANCE_VERSION>
1

> <PUBCHEM_EXT_DATASOURCE_NAME>
4488

> <PUBCHEM_EXT_DATASOURCE_REGID>
SCHEMBL16111899

> <PUBCHEM_SUBSTANCE_COMMENT>
InChI=1S/C33H36N6O3/c1-21-18-37(32(40)42-33(3,4)5)19-22(2)39(21)25-12-10-23(11-13-25)24-16-34-31-28(17-35-38(31)20-24)26-8-7-9-29-27(26)14-15-30(36-29)41-6/h7-17,20-22H,18-19H2,1-6H3/t21-,22+
InChIKey=WHTRTJMUOUKVNP-SZPZYZBQSA-N

> <PUBCHEM_SUBSTANCE_SYNONYM>
SCHEMBL16111899

> <PUBCHEM_XREF_EXT_ID>
SCHEMBL16111899

> <PUBCHEM_EXT_DATASOURCE_URL>
https://www.surechembl.org/

> <PUBCHEM_EXT_SUBSTANCE_URL>
https://www.surechembl.org/chemical/SCHEMBL16111899

> <PUBCHEM_CID_ASSOCIATIONS>
117602639  1

> <PUBCHEM_COORDINATE_TYPE>
1
3

> <PUBCHEM_BONDANNOTATIONS>
23  37  6
24  36  6

$$$$
