310946886
  -OEChem-07211613022D

 35 39  0     0  0  0  0  0  0999 V2000
   -0.5922    2.0326    0.0000 S   0  0  0  0  0  0  0  0  0  0  0  0
    2.4007   -2.0006    0.0000 O   0  0  0  0  0  0  0  0  0  0  0  0
    0.1280    2.4486    0.0000 O   0  0  0  0  0  0  0  0  0  0  0  0
   -1.3124    1.6164    0.0000 O   0  0  0  0  0  0  0  0  0  0  0  0
   -1.8406    4.1772    0.0000 O   0  0  0  0  0  0  0  0  0  0  0  0
   -0.3362   -2.4327    0.0000 N   0  0  0  0  0  0  0  0  0  0  0  0
   -0.1761   -1.6164    0.0000 N   0  0  0  0  0  0  0  0  0  0  0  0
    1.0723   -0.8162    0.0000 N   0  0  0  0  0  0  0  0  0  0  0  0
    1.9526   -3.3610    0.0000 N   0  0  0  0  0  0  0  0  0  0  0  0
   -1.0083    2.7528    0.0000 N   0  0  0  0  0  0  0  0  0  0  0  0
   -2.0806   -4.0972    0.0000 N   0  0  0  0  0  0  0  0  0  0  0  0
   -2.3366   -1.0243    0.0000 N   0  0  0  0  0  0  0  0  0  0  0  0
    0.3841   -2.8328    0.0000 C   0  0  0  0  0  0  0  0  0  0  0  0
    0.9923   -2.2727    0.0000 C   0  0  0  0  0  0  0  0  0  0  0  0
   -1.1043   -2.7528    0.0000 C   0  0  0  0  0  0  0  0  0  0  0  0
    0.6562   -1.5525    0.0000 C   0  0  0  0  0  0  0  0  0  0  0  0
    1.7605   -2.5607    0.0000 C   0  0  0  0  0  0  0  0  0  0  0  0
    0.5602   -3.6491    0.0000 C   0  0  0  0  0  0  0  0  0  0  0  0
   -0.7681   -3.4890    0.0000 C   0  0  0  0  0  0  0  0  0  0  0  0
   -1.9206   -2.6728    0.0000 C   0  0  0  0  0  0  0  0  0  0  0  0
   -1.0083   -1.9366    0.0000 C   0  0  0  0  0  0  0  0  0  0  0  0
    0.6562   -0.1120    0.0000 C   0  0  0  0  0  0  0  0  0  0  0  0
   -0.1761    1.3283    0.0000 C   0  0  0  0  0  0  0  0  0  0  0  0
    1.3444   -3.9051    0.0000 C   0  0  0  0  0  0  0  0  0  0  0  0
   -1.2483   -4.1772    0.0000 C   0  0  0  0  0  0  0  0  0  0  0  0
   -2.4007   -3.3770    0.0000 C   0  0  0  0  0  0  0  0  0  0  0  0
   -0.1761   -0.0960    0.0000 C   0  0  0  0  0  0  0  0  0  0  0  0
    1.0562    0.6243    0.0000 C   0  0  0  0  0  0  0  0  0  0  0  0
   -0.5762    0.5922    0.0000 C   0  0  0  0  0  0  0  0  0  0  0  0
    0.6562    1.3124    0.0000 C   0  0  0  0  0  0  0  0  0  0  0  0
   -1.6805   -1.4724    0.0000 C   0  0  0  0  0  0  0  0  0  0  0  0
   -1.8406    2.7688    0.0000 C   0  0  0  0  0  0  0  0  0  0  0  0
   -0.5922    3.4730    0.0000 C   0  0  0  0  0  0  0  0  0  0  0  0
   -2.2407    3.4410    0.0000 C   0  0  0  0  0  0  0  0  0  0  0  0
   -0.9923    4.1772    0.0000 C   0  0  0  0  0  0  0  0  0  0  0  0
  1  3  2  0  0  0  0
  1  4  2  0  0  0  0
  1 10  1  0  0  0  0
  1 23  1  0  0  0  0
  2 17  2  0  0  0  0
  5 34  1  0  0  0  0
  5 35  1  0  0  0  0
  6  7  1  0  0  0  0
  6 13  1  0  0  0  0
  6 15  1  0  0  0  0
  7 16  2  0  0  0  0
  8 16  1  0  0  0  0
  8 22  1  0  0  0  0
  9 17  1  0  0  0  0
  9 24  1  0  0  0  0
 10 32  1  0  0  0  0
 10 33  1  0  0  0  0
 11 25  1  0  0  0  0
 11 26  1  0  0  0  0
 12 31  3  0  0  0  0
 13 14  2  0  0  0  0
 13 18  1  0  0  0  0
 14 16  1  0  0  0  0
 14 17  1  0  0  0  0
 15 19  1  0  0  0  0
 15 20  1  0  0  0  0
 15 21  1  0  0  0  0
 18 24  2  0  0  0  0
 19 25  1  0  0  0  0
 20 26  1  0  0  0  0
 21 31  1  0  0  0  0
 22 27  2  0  0  0  0
 22 28  1  0  0  0  0
 23 29  2  0  0  0  0
 23 30  1  0  0  0  0
 27 29  1  0  0  0  0
 28 30  2  0  0  0  0
 32 34  1  0  0  0  0
 33 35  1  0  0  0  0
M  END
> <PUBCHEM_COMPOUND_ID_TYPE>
0

> <PUBCHEM_TOTAL_CHARGE>
0

> <PUBCHEM_SUBSTANCE_ID>
310946886

> <PUBCHEM_SUBSTANCE_VERSION>
1

> <PUBCHEM_EXT_DATASOURCE_NAME>
4488

> <PUBCHEM_EXT_DATASOURCE_REGID>
SCHEMBL16125010

> <PUBCHEM_SUBSTANCE_COMMENT>
InChI=1S/C23H27N7O4S/c24-9-6-23(7-11-25-12-8-23)30-19-5-10-26-22(31)20(19)21(28-30)27-17-1-3-18(4-2-17)35(32,33)29-13-15-34-16-14-29/h1-5,10,25H,6-8,11-16H2,(H,26,31)(H,27,28)
InChIKey=DTXKTNFQDOXJGQ-UHFFFAOYSA-N

> <PUBCHEM_SUBSTANCE_SYNONYM>
SCHEMBL16125010

> <PUBCHEM_XREF_EXT_ID>
SCHEMBL16125010

> <PUBCHEM_EXT_DATASOURCE_URL>
https://www.surechembl.org/

> <PUBCHEM_EXT_SUBSTANCE_URL>
https://www.surechembl.org/chemical/SCHEMBL16125010

> <PUBCHEM_CID_ASSOCIATIONS>
117612744  1

> <PUBCHEM_COORDINATE_TYPE>
1
3

$$$$
