310941591
  -OEChem-07211613022D

 36 39  0     0  0  0  0  0  0999 V2000
    3.2800    1.7516    0.0000 S   0  0  0  0  0  0  0  0  0  0  0  0
    0.9445   -0.9102    0.0000 O   0  0  0  0  0  0  0  0  0  0  0  0
    2.3870   -0.9102    0.0000 O   0  0  0  0  0  0  0  0  0  0  0  0
   -1.9234   -0.9102    0.0000 O   0  0  0  0  0  0  0  0  0  0  0  0
    6.1650    0.7728    0.0000 O   0  0  0  0  0  0  0  0  0  0  0  0
   -5.5296   -0.4808    0.0000 O   0  0  0  0  0  0  0  0  0  0  0  0
   -4.8083   -1.7345    0.0000 O   0  0  0  0  0  0  0  0  0  0  0  0
    3.1597    0.4122    0.0000 N   0  0  0  0  0  0  0  0  0  0  0  0
    4.5336    0.9445    0.0000 N   0  0  0  0  0  0  0  0  0  0  0  0
   -4.0699   -0.4980    0.0000 N   0  0  0  0  0  0  0  0  0  0  0  0
    1.6829    0.3606    0.0000 C   0  0  0  0  0  0  0  0  0  0  0  0
    2.3699    0.7728    0.0000 C   0  0  0  0  0  0  0  0  0  0  0  0
    0.2232    0.3606    0.0000 C   0  0  0  0  0  0  0  0  0  0  0  0
    0.2232   -0.4637    0.0000 C   0  0  0  0  0  0  0  0  0  0  0  0
    1.6486   -0.4637    0.0000 C   0  0  0  0  0  0  0  0  0  0  0  0
    0.9445    0.7556    0.0000 C   0  0  0  0  0  0  0  0  0  0  0  0
    3.6922    1.0475    0.0000 C   0  0  0  0  0  0  0  0  0  0  0  0
    2.4729    1.5799    0.0000 C   0  0  0  0  0  0  0  0  0  0  0  0
   -0.4808   -0.8758    0.0000 C   0  0  0  0  0  0  0  0  0  0  0  0
   -0.4808    0.7556    0.0000 C   0  0  0  0  0  0  0  0  0  0  0  0
   -1.2192   -0.4808    0.0000 C   0  0  0  0  0  0  0  0  0  0  0  0
   -1.1849    0.3606    0.0000 C   0  0  0  0  0  0  0  0  0  0  0  0
    4.8599    0.2061    0.0000 C   0  0  0  0  0  0  0  0  0  0  0  0
    5.6842    0.1202    0.0000 C   0  0  0  0  0  0  0  0  0  0  0  0
    4.3962   -0.4808    0.0000 C   0  0  0  0  0  0  0  0  0  0  0  0
    6.0105   -0.6526    0.0000 C   0  0  0  0  0  0  0  0  0  0  0  0
    4.7225   -1.2192    0.0000 C   0  0  0  0  0  0  0  0  0  0  0  0
   -2.6446   -0.4980    0.0000 C   0  0  0  0  0  0  0  0  0  0  0  0
    5.5468   -1.3051    0.0000 C   0  0  0  0  0  0  0  0  0  0  0  0
   -3.3315   -0.8758    0.0000 C   0  0  0  0  0  0  0  0  0  0  0  0
   -4.7912   -0.8586    0.0000 C   0  0  0  0  0  0  0  0  0  0  0  0
   -6.2508   -0.9102    0.0000 C   0  0  0  0  0  0  0  0  0  0  0  0
    6.9721    0.6869    0.0000 C   0  0  0  0  0  0  0  0  0  0  0  0
   -6.9721   -0.4980    0.0000 C   0  0  0  0  0  0  0  0  0  0  0  0
   -6.9721   -1.3051    0.0000 C   0  0  0  0  0  0  0  0  0  0  0  0
   -6.2165   -1.7516    0.0000 C   0  0  0  0  0  0  0  0  0  0  0  0
  1 17  1  0  0  0  0
  1 18  1  0  0  0  0
  2 14  1  0  0  0  0
  2 15  1  0  0  0  0
  3 15  2  0  0  0  0
  4 21  1  0  0  0  0
  4 28  1  0  0  0  0
  5 24  1  0  0  0  0
  5 33  1  0  0  0  0
  6 31  1  0  0  0  0
  6 32  1  0  0  0  0
  7 31  2  0  0  0  0
  8 12  1  0  0  0  0
  8 17  2  0  0  0  0
  9 17  1  0  0  0  0
  9 23  1  0  0  0  0
 10 30  1  0  0  0  0
 10 31  1  0  0  0  0
 11 12  1  0  0  0  0
 11 15  1  0  0  0  0
 11 16  2  0  0  0  0
 12 18  2  0  0  0  0
 13 14  1  0  0  0  0
 13 16  1  0  0  0  0
 13 20  2  0  0  0  0
 14 19  2  0  0  0  0
 19 21  1  0  0  0  0
 20 22  1  0  0  0  0
 21 22  2  0  0  0  0
 23 24  1  0  0  0  0
 23 25  2  0  0  0  0
 24 26  2  0  0  0  0
 25 27  1  0  0  0  0
 26 29  1  0  0  0  0
 27 29  2  0  0  0  0
 28 30  1  0  0  0  0
 32 34  1  0  0  0  0
 32 35  1  0  0  0  0
 32 36  1  0  0  0  0
M  END
> <PUBCHEM_COMPOUND_ID_TYPE>
0

> <PUBCHEM_TOTAL_CHARGE>
0

> <PUBCHEM_SUBSTANCE_ID>
310941591

> <PUBCHEM_SUBSTANCE_VERSION>
1

> <PUBCHEM_EXT_DATASOURCE_NAME>
4488

> <PUBCHEM_EXT_DATASOURCE_REGID>
SCHEMBL16119622

> <PUBCHEM_SUBSTANCE_COMMENT>
InChI=1S/C26H27N3O6S/c1-26(2,3)35-25(31)27-11-12-33-17-10-9-16-13-18(23(30)34-22(16)14-17)20-15-36-24(29-20)28-19-7-5-6-8-21(19)32-4/h5-10,13-15H,11-12H2,1-4H3,(H,27,31)(H,28,29)
InChIKey=BSYDMEKZZBRCNB-UHFFFAOYSA-N

> <PUBCHEM_SUBSTANCE_SYNONYM>
SCHEMBL16119622

> <PUBCHEM_XREF_EXT_ID>
SCHEMBL16119622

> <PUBCHEM_EXT_DATASOURCE_URL>
https://www.surechembl.org/

> <PUBCHEM_EXT_SUBSTANCE_URL>
https://www.surechembl.org/chemical/SCHEMBL16119622

> <PUBCHEM_CID_ASSOCIATIONS>
117608392  1

> <PUBCHEM_COORDINATE_TYPE>
1
3

$$$$
