310934357
  -OEChem-07211613022D

 25 27  0     0  0  0  0  0  0999 V2000
    0.0000   -2.4016    0.0000 F   0  0  0  0  0  0  0  0  0  0  0  0
    1.4322   -1.1677    0.0000 O   0  0  0  0  0  0  0  0  0  0  0  0
    2.2695    0.0000    0.0000 O   0  0  0  0  0  0  0  0  0  0  0  0
    2.8643   -2.1372    0.0000 N   0  0  0  0  0  0  0  0  0  0  0  0
    3.6575   -2.4016    0.0000 N   0  0  0  0  0  0  0  0  0  0  0  0
    2.8643   -1.3000    0.0000 C   0  0  0  0  0  0  0  0  0  0  0  0
    4.1202   -1.7186    0.0000 C   0  0  0  0  0  0  0  0  0  0  0  0
    2.1813   -2.5999    0.0000 C   0  0  0  0  0  0  0  0  0  0  0  0
    3.6575   -1.0356    0.0000 C   0  0  0  0  0  0  0  0  0  0  0  0
    4.9575   -1.7186    0.0000 C   0  0  0  0  0  0  0  0  0  0  0  0
    1.4322   -2.2695    0.0000 C   0  0  0  0  0  0  0  0  0  0  0  0
    2.1813   -0.8153    0.0000 C   0  0  0  0  0  0  0  0  0  0  0  0
    2.2695   -3.4372    0.0000 C   0  0  0  0  0  0  0  0  0  0  0  0
    0.7712   -2.7542    0.0000 C   0  0  0  0  0  0  0  0  0  0  0  0
    5.3762   -2.4237    0.0000 C   0  0  0  0  0  0  0  0  0  0  0  0
    5.3762   -0.9915    0.0000 C   0  0  0  0  0  0  0  0  0  0  0  0
    1.6084   -3.9220    0.0000 C   0  0  0  0  0  0  0  0  0  0  0  0
    0.8373   -3.5694    0.0000 C   0  0  0  0  0  0  0  0  0  0  0  0
    1.3440   -1.4542    0.0000 C   0  0  0  0  0  0  0  0  0  0  0  0
    6.1914   -2.4237    0.0000 C   0  0  0  0  0  0  0  0  0  0  0  0
    6.1914   -0.9915    0.0000 C   0  0  0  0  0  0  0  0  0  0  0  0
    6.6100   -1.7186    0.0000 C   0  0  0  0  0  0  0  0  0  0  0  0
    4.9575   -3.1508    0.0000 C   0  0  0  0  0  0  0  0  0  0  0  0
    0.7712   -0.6830    0.0000 C   0  0  0  0  0  0  0  0  0  0  0  0
    0.0000   -1.0136    0.0000 C   0  0  0  0  0  0  0  0  0  0  0  0
  1 14  1  0  0  0  0
  2 12  1  0  0  0  0
  2 24  1  0  0  0  0
  3 12  2  0  0  0  0
  4  5  1  0  0  0  0
  4  6  1  0  0  0  0
  4  8  1  0  0  0  0
  5  7  2  0  0  0  0
  6  9  2  0  0  0  0
  6 12  1  0  0  0  0
  7  9  1  0  0  0  0
  7 10  1  0  0  0  0
  8 11  1  0  0  0  0
  8 13  2  0  0  0  0
 10 15  1  0  0  0  0
 10 16  2  0  0  0  0
 11 14  2  0  0  0  0
 11 19  1  0  0  0  0
 13 17  1  0  0  0  0
 14 18  1  0  0  0  0
 15 20  2  0  0  0  0
 15 23  1  0  0  0  0
 16 21  1  0  0  0  0
 17 18  2  0  0  0  0
 20 22  1  0  0  0  0
 21 22  2  0  0  0  0
 24 25  1  0  0  0  0
M  END
> <PUBCHEM_COMPOUND_ID_TYPE>
0

> <PUBCHEM_TOTAL_CHARGE>
0

> <PUBCHEM_SUBSTANCE_ID>
310934357

> <PUBCHEM_SUBSTANCE_VERSION>
1

> <PUBCHEM_EXT_DATASOURCE_NAME>
4488

> <PUBCHEM_EXT_DATASOURCE_REGID>
SCHEMBL16111822

> <PUBCHEM_SUBSTANCE_COMMENT>
InChI=1S/C20H19FN2O2/c1-4-25-20(24)19-12-17(15-9-6-5-8-13(15)2)22-23(19)18-11-7-10-16(21)14(18)3/h5-12H,4H2,1-3H3
InChIKey=IWRUUYXSUCENIZ-UHFFFAOYSA-N

> <PUBCHEM_SUBSTANCE_SYNONYM>
SCHEMBL16111822

> <PUBCHEM_XREF_EXT_ID>
SCHEMBL16111822

> <PUBCHEM_EXT_DATASOURCE_URL>
https://www.surechembl.org/

> <PUBCHEM_EXT_SUBSTANCE_URL>
https://www.surechembl.org/chemical/SCHEMBL16111822

> <PUBCHEM_CID_ASSOCIATIONS>
117602586  1

> <PUBCHEM_COORDINATE_TYPE>
1
3

$$$$
