310930631
  -OEChem-07211613022D

 25 27  0     0  0  0  0  0  0999 V2000
    2.8642   -2.8642    0.0000 O   0  0  0  0  0  0  0  0  0  0  0  0
    3.5885   -4.1152    0.0000 O   0  0  0  0  0  0  0  0  0  0  0  0
    2.1399   -6.5843    0.0000 O   0  5  0  0  0  0  0  0  0  0  0  0
    0.7243   -6.5843    0.0000 O   0  0  0  0  0  0  0  0  0  0  0  0
    1.4485   -2.8642    0.0000 N   0  0  0  0  0  0  0  0  0  0  0  0
    1.4485   -6.1893    0.0000 N   0  3  0  0  0  0  0  0  0  0  0  0
    1.4485   -3.7201    0.0000 C   0  0  0  0  0  0  0  0  0  0  0  0
    2.1399   -4.1152    0.0000 C   0  0  0  0  0  0  0  0  0  0  0  0
    2.1399   -2.4691    0.0000 C   0  0  0  0  0  0  0  0  0  0  0  0
    2.1399   -1.6461    0.0000 C   0  0  0  0  0  0  0  0  0  0  0  0
    1.4485   -5.3662    0.0000 C   0  0  0  0  0  0  0  0  0  0  0  0
    2.1399   -4.9383    0.0000 C   0  0  0  0  0  0  0  0  0  0  0  0
    0.7243   -4.1152    0.0000 C   0  0  0  0  0  0  0  0  0  0  0  0
    1.4485   -1.2181    0.0000 C   0  0  0  0  0  0  0  0  0  0  0  0
    2.8642   -3.7201    0.0000 C   0  0  0  0  0  0  0  0  0  0  0  0
    0.7243   -4.9383    0.0000 C   0  0  0  0  0  0  0  0  0  0  0  0
    3.0288   -3.0617    0.0000 C   0  0  0  0  0  0  0  0  0  0  0  0
    2.8642   -1.2181    0.0000 C   0  0  0  0  0  0  0  0  0  0  0  0
    0.7243   -1.6461    0.0000 C   0  0  0  0  0  0  0  0  0  0  0  0
    1.4485   -0.3950    0.0000 C   0  0  0  0  0  0  0  0  0  0  0  0
    3.5555   -2.4691    0.0000 C   0  0  0  0  0  0  0  0  0  0  0  0
    3.5885   -1.6461    0.0000 C   0  0  0  0  0  0  0  0  0  0  0  0
    0.0000   -1.2181    0.0000 C   0  0  0  0  0  0  0  0  0  0  0  0
    0.7243    0.0000    0.0000 C   0  0  0  0  0  0  0  0  0  0  0  0
    0.0000   -0.3950    0.0000 C   0  0  0  0  0  0  0  0  0  0  0  0
  1 15  2  0  0  0  0
  2 15  1  0  0  0  0
  3  6  1  0  0  0  0
  4  6  2  0  0  0  0
  5  7  1  0  0  0  0
  5  9  1  0  0  0  0
  6 11  1  0  0  0  0
  7  8  2  0  0  0  0
  7 13  1  0  0  0  0
  8 12  1  0  0  0  0
  8 15  1  0  0  0  0
  9 10  1  0  0  0  0
  9 17  2  0  0  0  0
 10 14  1  0  0  0  0
 10 18  2  0  0  0  0
 11 12  2  0  0  0  0
 11 16  1  0  0  0  0
 13 16  2  0  0  0  0
 14 19  2  0  0  0  0
 14 20  1  0  0  0  0
 17 21  1  0  0  0  0
 18 22  1  0  0  0  0
 19 23  1  0  0  0  0
 20 24  2  0  0  0  0
 21 22  2  0  0  0  0
 23 25  2  0  0  0  0
 24 25  1  0  0  0  0
M  CHG  2   3  -1   6   1
M  END
> <PUBCHEM_COMPOUND_ID_TYPE>
0

> <PUBCHEM_TOTAL_CHARGE>
0

> <PUBCHEM_SUBSTANCE_ID>
310930631

> <PUBCHEM_SUBSTANCE_VERSION>
1

> <PUBCHEM_EXT_DATASOURCE_NAME>
4488

> <PUBCHEM_EXT_DATASOURCE_REGID>
SCHEMBL16107928

> <PUBCHEM_SUBSTANCE_COMMENT>
InChI=1S/C19H14N2O4/c22-19(23)16-12-14(21(24)25)10-11-18(16)20-17-9-5-4-8-15(17)13-6-2-1-3-7-13/h1-12,20H,(H,22,23)
InChIKey=WPTXFHUHVFTGQE-UHFFFAOYSA-N

> <PUBCHEM_SUBSTANCE_SYNONYM>
SCHEMBL16107928

> <PUBCHEM_XREF_EXT_ID>
SCHEMBL16107928

> <PUBCHEM_EXT_DATASOURCE_URL>
https://www.surechembl.org/

> <PUBCHEM_EXT_SUBSTANCE_URL>
https://www.surechembl.org/chemical/SCHEMBL16107928

> <PUBCHEM_CID_ASSOCIATIONS>
117599695  1

> <PUBCHEM_COORDINATE_TYPE>
1
3

$$$$
