310930750
  -OEChem-07211613022D

 40 44  0     1  0  0  0  0  0999 V2000
    4.8747   -1.4686    0.0000 F   0  0  0  0  0  0  0  0  0  0  0  0
    4.4373   -0.1250    0.0000 F   0  0  0  0  0  0  0  0  0  0  0  0
    4.1247   -1.7187    0.0000 F   0  0  0  0  0  0  0  0  0  0  0  0
    6.4058   -5.8434    0.0000 F   0  0  0  0  0  0  0  0  0  0  0  0
    0.7187   -2.5624    0.0000 F   0  0  0  0  0  0  0  0  0  0  0  0
    0.0313   -3.8123    0.0000 F   0  0  0  0  0  0  0  0  0  0  0  0
    0.0000   -2.9686    0.0000 F   0  0  0  0  0  0  0  0  0  0  0  0
    4.9997   -5.8434    0.0000 O   0  0  0  0  0  0  0  0  0  0  0  0
    1.4374   -4.6248    0.0000 O   0  0  0  0  0  0  0  0  0  0  0  0
    4.2810   -4.5935    0.0000 N   0  0  0  0  0  0  0  0  0  0  0  0
    4.9997   -3.3748    0.0000 N   0  0  0  0  0  0  0  0  0  0  0  0
    3.5935   -2.5624    0.0000 N   0  0  0  0  0  0  0  0  0  0  0  0
    2.3436   -0.0937    0.0000 N   0  0  0  0  0  0  0  0  0  0  0  0
    2.1874   -2.5624    0.0000 N   0  0  0  0  0  0  0  0  0  0  0  0
    1.4686   -1.3124    0.0000 N   0  0  0  0  0  0  0  0  0  0  0  0
    4.2810   -3.7810    0.0000 C   0  0  0  0  0  0  0  0  0  0  0  0
    2.9061   -1.3124    0.0000 C   0  0  0  0  0  0  0  0  0  0  0  0
    5.7184   -4.5935    0.0000 C   0  0  0  0  0  0  0  0  0  0  0  0
    4.9997   -4.9997    0.0000 C   0  0  0  0  0  0  0  0  0  0  0  0
    3.4998   -0.7500    0.0000 C   0  0  0  0  0  0  0  0  0  0  0  0
    5.7184   -3.7810    0.0000 C   0  0  0  0  0  0  0  0  0  0  0  0
    2.8748   -2.1561    0.0000 C   0  0  0  0  0  0  0  0  0  0  0  0
    2.1561   -0.9062    0.0000 C   0  0  0  0  0  0  0  0  0  0  0  0
    3.5623   -3.3748    0.0000 C   0  0  3  0  0  0  0  0  0  0  0  0
    3.5623   -4.9997    0.0000 C   0  0  0  0  0  0  0  0  0  0  0  0
    4.2810   -0.9062    0.0000 C   0  0  0  0  0  0  0  0  0  0  0  0
    6.4058   -4.9997    0.0000 C   0  0  0  0  0  0  0  0  0  0  0  0
    3.1560    0.0000    0.0000 C   0  0  0  0  0  0  0  0  0  0  0  0
    6.4058   -3.3748    0.0000 C   0  0  0  0  0  0  0  0  0  0  0  0
    2.8748   -4.6248    0.0000 C   0  0  0  0  0  0  0  0  0  0  0  0
    3.5623   -5.8434    0.0000 C   0  0  0  0  0  0  0  0  0  0  0  0
    7.1246   -4.5935    0.0000 C   0  0  0  0  0  0  0  0  0  0  0  0
    1.4374   -2.1249    0.0000 C   0  0  0  0  0  0  0  0  0  0  0  0
    7.1246   -3.7810    0.0000 C   0  0  0  0  0  0  0  0  0  0  0  0
    2.1561   -5.0310    0.0000 C   0  0  0  0  0  0  0  0  0  0  0  0
    2.8748   -3.7810    0.0000 C   0  0  0  0  0  0  0  0  0  0  0  0
    2.8748   -6.2496    0.0000 C   0  0  0  0  0  0  0  0  0  0  0  0
    2.1561   -5.8434    0.0000 C   0  0  0  0  0  0  0  0  0  0  0  0
    1.4374   -3.8123    0.0000 C   0  0  0  0  0  0  0  0  0  0  0  0
    0.7187   -3.3748    0.0000 C   0  0  0  0  0  0  0  0  0  0  0  0
  1 26  1  0  0  0  0
  2 26  1  0  0  0  0
  3 26  1  0  0  0  0
  4 27  1  0  0  0  0
  5 40  1  0  0  0  0
  6 40  1  0  0  0  0
  7 40  1  0  0  0  0
  8 19  2  0  0  0  0
  9 35  1  0  0  0  0
  9 39  1  0  0  0  0
 10 16  1  0  0  0  0
 10 19  1  0  0  0  0
 10 25  1  0  0  0  0
 11 16  2  0  0  0  0
 11 21  1  0  0  0  0
 12 22  1  0  0  0  0
 12 24  1  0  0  0  0
 13 23  1  0  0  0  0
 13 28  1  0  0  0  0
 14 22  1  0  0  0  0
 14 33  2  0  0  0  0
 15 23  2  0  0  0  0
 15 33  1  0  0  0  0
 16 24  1  0  0  0  0
 17 20  1  0  0  0  0
 17 22  2  0  0  0  0
 17 23  1  0  0  0  0
 18 19  1  0  0  0  0
 18 21  2  0  0  0  0
 18 27  1  0  0  0  0
 20 26  1  0  0  0  0
 20 28  2  0  0  0  0
 21 29  1  0  0  0  0
 24 36  1  6  0  0  0
 25 30  1  0  0  0  0
 25 31  2  0  0  0  0
 27 32  2  0  0  0  0
 29 34  2  0  0  0  0
 30 35  2  0  0  0  0
 31 37  1  0  0  0  0
 32 34  1  0  0  0  0
 35 38  1  0  0  0  0
 37 38  2  0  0  0  0
 39 40  1  0  0  0  0
M  END
> <PUBCHEM_COMPOUND_ID_TYPE>
0

> <PUBCHEM_TOTAL_CHARGE>
0

> <PUBCHEM_SUBSTANCE_ID>
310930750

> <PUBCHEM_SUBSTANCE_VERSION>
1

> <PUBCHEM_EXT_DATASOURCE_NAME>
4488

> <PUBCHEM_EXT_DATASOURCE_REGID>
SCHEMBL16108047

> <PUBCHEM_SUBSTANCE_COMMENT>
InChI=1S/C25H17F7N6O2/c1-12(36-21-18-15(25(30,31)32)9-33-20(18)34-11-35-21)22-37-17-7-3-6-16(26)19(17)23(39)38(22)13-4-2-5-14(8-13)40-10-24(27,28)29/h2-9,11-12H,10H2,1H3,(H2,33,34,35,36)/t12-/m0/s1
InChIKey=QJGRAQLAZAWQBB-LBPRGKRZSA-N

> <PUBCHEM_SUBSTANCE_SYNONYM>
SCHEMBL16108047

> <PUBCHEM_XREF_EXT_ID>
SCHEMBL16108047

> <PUBCHEM_EXT_DATASOURCE_URL>
https://www.surechembl.org/

> <PUBCHEM_EXT_SUBSTANCE_URL>
https://www.surechembl.org/chemical/SCHEMBL16108047

> <PUBCHEM_CID_ASSOCIATIONS>
86272860  1

> <PUBCHEM_COORDINATE_TYPE>
1
3

> <PUBCHEM_BONDANNOTATIONS>
24  36  6

$$$$
