310934926
  -OEChem-07211613022D

 33 38  0     0  0  0  0  0  0999 V2000
    2.6045   -2.4134    0.0000 N   0  0  0  0  0  0  0  0  0  0  0  0
    1.8198   -2.6683    0.0000 N   0  0  0  0  0  0  0  0  0  0  0  0
    3.3189   -1.1759    0.0000 N   0  0  0  0  0  0  0  0  0  0  0  0
    1.0550    1.0204    0.0000 N   0  0  0  0  0  0  0  0  0  0  0  0
    6.8913   -4.0634    0.0000 N   0  0  0  0  0  0  0  0  0  0  0  0
    8.3202   -4.8884    0.0000 N   0  0  0  0  0  0  0  0  0  0  0  0
    7.6058   -2.0009    0.0000 N   0  0  0  0  0  0  0  0  0  0  0  0
    1.8198   -1.3335    0.0000 C   0  0  0  0  0  0  0  0  0  0  0  0
    2.6045   -1.5884    0.0000 C   0  0  0  0  0  0  0  0  0  0  0  0
    1.5649   -0.5488    0.0000 C   0  0  0  0  0  0  0  0  0  0  0  0
    2.1169    0.0643    0.0000 C   0  0  0  0  0  0  0  0  0  0  0  0
    4.0334   -2.4134    0.0000 C   0  0  0  0  0  0  0  0  0  0  0  0
    1.3349   -2.0009    0.0000 C   0  0  0  0  0  0  0  0  0  0  0  0
    3.3189   -2.8259    0.0000 C   0  0  0  0  0  0  0  0  0  0  0  0
    4.7479   -2.8259    0.0000 C   0  0  0  0  0  0  0  0  0  0  0  0
    1.8620    0.8489    0.0000 C   0  0  0  0  0  0  0  0  0  0  0  0
    4.0334   -1.5884    0.0000 C   0  0  0  0  0  0  0  0  0  0  0  0
    0.7579   -0.3773    0.0000 C   0  0  0  0  0  0  0  0  0  0  0  0
    6.1768   -3.6509    0.0000 C   0  0  0  0  0  0  0  0  0  0  0  0
    6.1768   -2.8259    0.0000 C   0  0  0  0  0  0  0  0  0  0  0  0
    5.4623   -2.4134    0.0000 C   0  0  0  0  0  0  0  0  0  0  0  0
    2.9239   -0.1073    0.0000 C   0  0  0  0  0  0  0  0  0  0  0  0
    4.7479   -3.6509    0.0000 C   0  0  0  0  0  0  0  0  0  0  0  0
    0.5030    0.4073    0.0000 C   0  0  0  0  0  0  0  0  0  0  0  0
    5.4623   -4.0634    0.0000 C   0  0  0  0  0  0  0  0  0  0  0  0
    2.4140    1.4620    0.0000 C   0  0  0  0  0  0  0  0  0  0  0  0
    3.4759    0.5058    0.0000 C   0  0  0  0  0  0  0  0  0  0  0  0
    3.2210    1.2905    0.0000 C   0  0  0  0  0  0  0  0  0  0  0  0
    6.8913   -2.4134    0.0000 C   0  0  0  0  0  0  0  0  0  0  0  0
    7.6058   -3.6509    0.0000 C   0  0  0  0  0  0  0  0  0  0  0  0
    6.8913   -4.8884    0.0000 C   0  0  0  0  0  0  0  0  0  0  0  0
    8.3202   -4.0634    0.0000 C   0  0  0  0  0  0  0  0  0  0  0  0
    7.6058   -5.3009    0.0000 C   0  0  0  0  0  0  0  0  0  0  0  0
  1  2  1  0  0  0  0
  1  9  1  0  0  0  0
  1 14  1  0  0  0  0
  2 13  2  0  0  0  0
  3  9  1  0  0  0  0
  3 17  2  0  0  0  0
  4 16  1  0  0  0  0
  4 24  2  0  0  0  0
  5 19  1  0  0  0  0
  5 30  1  0  0  0  0
  5 31  1  0  0  0  0
  6 32  1  0  0  0  0
  6 33  1  0  0  0  0
  7 29  3  0  0  0  0
  8  9  2  0  0  0  0
  8 10  1  0  0  0  0
  8 13  1  0  0  0  0
 10 11  1  0  0  0  0
 10 18  2  0  0  0  0
 11 16  2  0  0  0  0
 11 22  1  0  0  0  0
 12 14  2  0  0  0  0
 12 15  1  0  0  0  0
 12 17  1  0  0  0  0
 15 21  2  0  0  0  0
 15 23  1  0  0  0  0
 16 26  1  0  0  0  0
 18 24  1  0  0  0  0
 19 20  2  0  0  0  0
 19 25  1  0  0  0  0
 20 21  1  0  0  0  0
 20 29  1  0  0  0  0
 22 27  2  0  0  0  0
 23 25  2  0  0  0  0
 26 28  2  0  0  0  0
 27 28  1  0  0  0  0
 30 32  1  0  0  0  0
 31 33  1  0  0  0  0
M  END
> <PUBCHEM_COMPOUND_ID_TYPE>
0

> <PUBCHEM_TOTAL_CHARGE>
0

> <PUBCHEM_SUBSTANCE_ID>
310934926

> <PUBCHEM_SUBSTANCE_VERSION>
1

> <PUBCHEM_EXT_DATASOURCE_NAME>
4488

> <PUBCHEM_EXT_DATASOURCE_REGID>
SCHEMBL16112439

> <PUBCHEM_SUBSTANCE_COMMENT>
InChI=1S/C26H21N7/c27-14-19-13-18(5-6-25(19)32-11-9-28-10-12-32)20-15-30-26-23(16-31-33(26)17-20)21-7-8-29-24-4-2-1-3-22(21)24/h1-8,13,15-17,28H,9-12H2
InChIKey=UTCHZVUDAGSGMY-UHFFFAOYSA-N

> <PUBCHEM_SUBSTANCE_SYNONYM>
SCHEMBL16112439

> <PUBCHEM_XREF_EXT_ID>
SCHEMBL16112439

> <PUBCHEM_EXT_DATASOURCE_URL>
https://www.surechembl.org/

> <PUBCHEM_EXT_SUBSTANCE_URL>
https://www.surechembl.org/chemical/SCHEMBL16112439

> <PUBCHEM_CID_ASSOCIATIONS>
117603049  1

> <PUBCHEM_COORDINATE_TYPE>
1
3

$$$$
