310938822
  -OEChem-07211613022D

 22 23  0     0  0  0  0  0  0999 V2000
   -1.1119   13.7020    0.0000 O   0  0  0  0  0  0  0  0  0  0  0  0
   -1.1119   16.4658    0.0000 O   0  0  0  0  0  0  0  0  0  0  0  0
   -2.4218   15.7984    0.0000 O   0  0  0  0  0  0  0  0  0  0  0  0
   -2.4218   14.3694    0.0000 O   0  0  0  0  0  0  0  0  0  0  0  0
    1.5142   12.1964    0.0000 O   0  0  0  0  0  0  0  0  0  0  0  0
    2.9431   14.6714    0.0000 O   0  0  0  0  0  0  0  0  0  0  0  0
    0.0852   14.6714    0.0000 N   0  0  0  0  0  0  0  0  0  0  0  0
   -1.1843   15.0839    0.0000 C   0  0  0  0  0  0  0  0  0  0  0  0
   -0.6994   14.4165    0.0000 C   0  0  0  0  0  0  0  0  0  0  0  0
    0.7997   14.2589    0.0000 C   0  0  0  0  0  0  0  0  0  0  0  0
   -0.6994   15.7513    0.0000 C   0  0  0  0  0  0  0  0  0  0  0  0
    0.0852   15.4964    0.0000 C   0  0  0  0  0  0  0  0  0  0  0  0
   -2.0093   15.0839    0.0000 C   0  0  0  0  0  0  0  0  0  0  0  0
    1.5142   14.6714    0.0000 C   0  0  0  0  0  0  0  0  0  0  0  0
    0.7997   13.4339    0.0000 C   0  0  0  0  0  0  0  0  0  0  0  0
    1.5142   13.0214    0.0000 C   0  0  0  0  0  0  0  0  0  0  0  0
    2.2286   14.2589    0.0000 C   0  0  0  0  0  0  0  0  0  0  0  0
    2.2286   13.4339    0.0000 C   0  0  0  0  0  0  0  0  0  0  0  0
   -3.2468   15.7984    0.0000 C   0  0  0  0  0  0  0  0  0  0  0  0
    0.7997   11.7839    0.0000 C   0  0  0  0  0  0  0  0  0  0  0  0
    3.6576   14.2589    0.0000 C   0  0  0  0  0  0  0  0  0  0  0  0
   -3.6593   15.0839    0.0000 C   0  0  0  0  0  0  0  0  0  0  0  0
  1  9  1  0  0  0  0
  2 11  2  0  0  0  0
  3 13  1  0  0  0  0
  3 19  1  0  0  0  0
  4 13  2  0  0  0  0
  5 16  1  0  0  0  0
  5 20  1  0  0  0  0
  6 17  1  0  0  0  0
  6 21  1  0  0  0  0
  7  9  1  0  0  0  0
  7 10  1  0  0  0  0
  7 12  1  0  0  0  0
  8  9  2  0  0  0  0
  8 11  1  0  0  0  0
  8 13  1  0  0  0  0
 10 14  2  0  0  0  0
 10 15  1  0  0  0  0
 11 12  1  0  0  0  0
 14 17  1  0  0  0  0
 15 16  2  0  0  0  0
 16 18  1  0  0  0  0
 17 18  2  0  0  0  0
 19 22  1  0  0  0  0
M  END
> <PUBCHEM_COMPOUND_ID_TYPE>
0

> <PUBCHEM_TOTAL_CHARGE>
0

> <PUBCHEM_SUBSTANCE_ID>
310938822

> <PUBCHEM_SUBSTANCE_VERSION>
1

> <PUBCHEM_EXT_DATASOURCE_NAME>
4488

> <PUBCHEM_EXT_DATASOURCE_REGID>
SCHEMBL16116740

> <PUBCHEM_SUBSTANCE_COMMENT>
InChI=1S/C15H17NO6/c1-4-22-15(19)13-12(17)8-16(14(13)18)9-5-10(20-2)7-11(6-9)21-3/h5-7,18H,4,8H2,1-3H3
InChIKey=QRQLTECLCHJWSW-UHFFFAOYSA-N

> <PUBCHEM_SUBSTANCE_SYNONYM>
SCHEMBL16116740

> <PUBCHEM_XREF_EXT_ID>
SCHEMBL16116740

> <PUBCHEM_EXT_DATASOURCE_URL>
https://www.surechembl.org/

> <PUBCHEM_EXT_SUBSTANCE_URL>
https://www.surechembl.org/chemical/SCHEMBL16116740

> <PUBCHEM_CID_ASSOCIATIONS>
117606222  1

> <PUBCHEM_COORDINATE_TYPE>
1
3

$$$$
