310931256
  -OEChem-07211613022D

 26 28  0     1  0  0  0  0  0999 V2000
    6.4599   -3.3256    0.0000 F   0  0  0  0  0  0  0  0  0  0  0  0
    0.7178    0.0000    0.0000 F   0  0  0  0  0  0  0  0  0  0  0  0
    0.0000   -1.2681    0.0000 F   0  0  0  0  0  0  0  0  0  0  0  0
    5.0483   -3.3256    0.0000 O   0  0  0  0  0  0  0  0  0  0  0  0
    1.4355   -2.0815    0.0000 O   0  0  0  0  0  0  0  0  0  0  0  0
    4.3066   -2.0815    0.0000 N   0  0  0  0  0  0  0  0  0  0  0  0
    5.0483   -0.8374    0.0000 N   0  0  0  0  0  0  0  0  0  0  0  0
    3.6128    0.0000    0.0000 N   0  0  0  0  0  0  0  0  0  0  0  0
    5.7660   -2.0815    0.0000 C   0  0  0  0  0  0  0  0  0  0  0  0
    5.0483   -2.4883    0.0000 C   0  0  0  0  0  0  0  0  0  0  0  0
    4.3066   -1.2441    0.0000 C   0  0  0  0  0  0  0  0  0  0  0  0
    5.7660   -1.2441    0.0000 C   0  0  0  0  0  0  0  0  0  0  0  0
    3.6128   -2.4883    0.0000 C   0  0  0  0  0  0  0  0  0  0  0  0
    6.4599   -2.4883    0.0000 C   0  0  0  0  0  0  0  0  0  0  0  0
    3.6128   -0.8374    0.0000 C   0  0  3  0  0  0  0  0  0  0  0  0
    6.4599   -0.8374    0.0000 C   0  0  0  0  0  0  0  0  0  0  0  0
    2.8710   -2.0815    0.0000 C   0  0  0  0  0  0  0  0  0  0  0  0
    3.6128   -3.3256    0.0000 C   0  0  0  0  0  0  0  0  0  0  0  0
    7.1776   -2.0815    0.0000 C   0  0  0  0  0  0  0  0  0  0  0  0
    2.1772   -2.4883    0.0000 C   0  0  0  0  0  0  0  0  0  0  0  0
    7.1776   -1.2441    0.0000 C   0  0  0  0  0  0  0  0  0  0  0  0
    2.8950   -3.7324    0.0000 C   0  0  0  0  0  0  0  0  0  0  0  0
    2.1772   -3.3256    0.0000 C   0  0  0  0  0  0  0  0  0  0  0  0
    2.8710   -1.2441    0.0000 C   0  0  0  0  0  0  0  0  0  0  0  0
    1.4355   -1.2681    0.0000 C   0  0  0  0  0  0  0  0  0  0  0  0
    0.7178   -0.8374    0.0000 C   0  0  0  0  0  0  0  0  0  0  0  0
  1 14  1  0  0  0  0
  2 26  1  0  0  0  0
  3 26  1  0  0  0  0
  4 10  2  0  0  0  0
  5 20  1  0  0  0  0
  5 25  1  0  0  0  0
  6 10  1  0  0  0  0
  6 11  1  0  0  0  0
  6 13  1  0  0  0  0
  7 11  2  0  0  0  0
  7 12  1  0  0  0  0
 15  8  1  6  0  0  0
  9 10  1  0  0  0  0
  9 12  2  0  0  0  0
  9 14  1  0  0  0  0
 11 15  1  0  0  0  0
 12 16  1  0  0  0  0
 13 17  1  0  0  0  0
 13 18  2  0  0  0  0
 14 19  2  0  0  0  0
 15 24  1  0  0  0  0
 16 21  2  0  0  0  0
 17 20  2  0  0  0  0
 18 22  1  0  0  0  0
 19 21  1  0  0  0  0
 20 23  1  0  0  0  0
 22 23  2  0  0  0  0
 25 26  1  0  0  0  0
M  END
> <PUBCHEM_COMPOUND_ID_TYPE>
0

> <PUBCHEM_TOTAL_CHARGE>
0

> <PUBCHEM_SUBSTANCE_ID>
310931256

> <PUBCHEM_SUBSTANCE_VERSION>
1

> <PUBCHEM_EXT_DATASOURCE_NAME>
4488

> <PUBCHEM_EXT_DATASOURCE_REGID>
SCHEMBL16108570

> <PUBCHEM_SUBSTANCE_COMMENT>
InChI=1S/C18H16F3N3O2/c1-10(22)17-23-14-7-3-6-13(19)16(14)18(25)24(17)11-4-2-5-12(8-11)26-9-15(20)21/h2-8,10,15H,9,22H2,1H3/t10-/m0/s1
InChIKey=HLRFOZSOBZVUBL-JTQLQIEISA-N

> <PUBCHEM_SUBSTANCE_SYNONYM>
SCHEMBL16108570

> <PUBCHEM_XREF_EXT_ID>
SCHEMBL16108570

> <PUBCHEM_EXT_DATASOURCE_URL>
https://www.surechembl.org/

> <PUBCHEM_EXT_SUBSTANCE_URL>
https://www.surechembl.org/chemical/SCHEMBL16108570

> <PUBCHEM_CID_ASSOCIATIONS>
117600089  1

> <PUBCHEM_COORDINATE_TYPE>
1
3

> <PUBCHEM_BONDANNOTATIONS>
15  8  6

$$$$
