310944011
  -OEChem-07211613022D

 31 35  0     0  0  0  0  0  0999 V2000
    0.0137    3.6664    0.0000 F   0  0  0  0  0  0  0  0  0  0  0  0
    2.1848    3.2294    0.0000 N   0  0  0  0  0  0  0  0  0  0  0  0
   -2.1985    3.1748    0.0000 N   0  0  0  0  0  0  0  0  0  0  0  0
    0.0000    0.3892    0.0000 C   0  0  0  0  0  0  0  0  0  0  0  0
   -0.7237   -0.0068    0.0000 C   0  0  0  0  0  0  0  0  0  0  0  0
    0.7374   -0.0068    0.0000 C   0  0  0  0  0  0  0  0  0  0  0  0
    0.0273   -1.2221    0.0000 C   0  0  0  0  0  0  0  0  0  0  0  0
   -0.7237   -0.8125    0.0000 C   0  0  0  0  0  0  0  0  0  0  0  0
    0.7374   -0.8125    0.0000 C   0  0  0  0  0  0  0  0  0  0  0  0
    0.0137    1.2358    0.0000 C   0  0  0  0  0  0  0  0  0  0  0  0
    0.0137   -2.0551    0.0000 C   0  0  0  0  0  0  0  0  0  0  0  0
   -1.4475    0.3756    0.0000 C   0  0  0  0  0  0  0  0  0  0  0  0
    1.4611    0.4029    0.0000 C   0  0  0  0  0  0  0  0  0  0  0  0
   -1.4475   -1.2085    0.0000 C   0  0  0  0  0  0  0  0  0  0  0  0
    1.4748   -1.1948    0.0000 C   0  0  0  0  0  0  0  0  0  0  0  0
    0.7237    1.6318    0.0000 C   0  0  0  0  0  0  0  0  0  0  0  0
   -0.7101    1.6318    0.0000 C   0  0  0  0  0  0  0  0  0  0  0  0
    0.7374    2.4648    0.0000 C   0  0  0  0  0  0  0  0  0  0  0  0
   -0.7237    2.4648    0.0000 C   0  0  0  0  0  0  0  0  0  0  0  0
    0.0000    2.8608    0.0000 C   0  0  0  0  0  0  0  0  0  0  0  0
    2.1985   -0.0068    0.0000 C   0  0  0  0  0  0  0  0  0  0  0  0
   -2.1712   -0.0205    0.0000 C   0  0  0  0  0  0  0  0  0  0  0  0
    2.1985   -0.8125    0.0000 C   0  0  0  0  0  0  0  0  0  0  0  0
   -2.1712   -0.8125    0.0000 C   0  0  0  0  0  0  0  0  0  0  0  0
   -0.7101   -2.4648    0.0000 C   0  0  0  0  0  0  0  0  0  0  0  0
    0.7647   -2.4511    0.0000 C   0  0  0  0  0  0  0  0  0  0  0  0
    1.4611    2.8608    0.0000 C   0  0  0  0  0  0  0  0  0  0  0  0
   -1.4748    2.8334    0.0000 C   0  0  0  0  0  0  0  0  0  0  0  0
   -0.6964   -3.2567    0.0000 C   0  0  0  0  0  0  0  0  0  0  0  0
    0.7510   -3.2567    0.0000 C   0  0  0  0  0  0  0  0  0  0  0  0
    0.0410   -3.6664    0.0000 C   0  0  0  0  0  0  0  0  0  0  0  0
  1 20  1  0  0  0  0
  2 27  3  0  0  0  0
  3 28  3  0  0  0  0
  4  5  2  0  0  0  0
  4  6  1  0  0  0  0
  4 10  1  0  0  0  0
  5  8  1  0  0  0  0
  5 12  1  0  0  0  0
  6  9  1  0  0  0  0
  6 13  2  0  0  0  0
  7  8  2  0  0  0  0
  7  9  1  0  0  0  0
  7 11  1  0  0  0  0
  8 14  1  0  0  0  0
  9 15  2  0  0  0  0
 10 16  2  0  0  0  0
 10 17  1  0  0  0  0
 11 25  2  0  0  0  0
 11 26  1  0  0  0  0
 12 22  2  0  0  0  0
 13 21  1  0  0  0  0
 14 24  2  0  0  0  0
 15 23  1  0  0  0  0
 16 18  1  0  0  0  0
 17 19  2  0  0  0  0
 18 20  2  0  0  0  0
 18 27  1  0  0  0  0
 19 20  1  0  0  0  0
 19 28  1  0  0  0  0
 21 23  2  0  0  0  0
 22 24  1  0  0  0  0
 25 29  1  0  0  0  0
 26 30  2  0  0  0  0
 29 31  2  0  0  0  0
 30 31  1  0  0  0  0
M  END
> <PUBCHEM_COMPOUND_ID_TYPE>
0

> <PUBCHEM_TOTAL_CHARGE>
0

> <PUBCHEM_SUBSTANCE_ID>
310944011

> <PUBCHEM_SUBSTANCE_VERSION>
1

> <PUBCHEM_EXT_DATASOURCE_NAME>
4488

> <PUBCHEM_EXT_DATASOURCE_REGID>
SCHEMBL16122082

> <PUBCHEM_SUBSTANCE_COMMENT>
InChI=1S/C28H15FN2/c29-28-20(16-30)14-19(15-21(28)17-31)27-24-12-6-4-10-22(24)26(18-8-2-1-3-9-18)23-11-5-7-13-25(23)27/h1-15H
InChIKey=SQJMFHRFFCTLBZ-UHFFFAOYSA-N

> <PUBCHEM_SUBSTANCE_SYNONYM>
SCHEMBL16122082

> <PUBCHEM_XREF_EXT_ID>
SCHEMBL16122082

> <PUBCHEM_EXT_DATASOURCE_URL>
https://www.surechembl.org/

> <PUBCHEM_EXT_SUBSTANCE_URL>
https://www.surechembl.org/chemical/SCHEMBL16122082

> <PUBCHEM_CID_ASSOCIATIONS>
117610315  1

> <PUBCHEM_COORDINATE_TYPE>
1
3

$$$$
