310947700
  -OEChem-07211613022D

 32 35  0     0  0  0  0  0  0999 V2000
   -0.2370   -0.2954    0.0000 S   0  0  0  0  0  0  0  0  0  0  0  0
    1.0729    1.8010    0.0000 O   0  0  0  0  0  0  0  0  0  0  0  0
   -5.3084   -2.5155    0.0000 O   0  0  0  0  0  0  0  0  0  0  0  0
   -6.0229   -1.2780    0.0000 O   0  0  0  0  0  0  0  0  0  0  0  0
    4.7854    2.5155    0.0000 O   0  0  0  0  0  0  0  0  0  0  0  0
    6.0229    1.8010    0.0000 O   0  0  0  0  0  0  0  0  0  0  0  0
   -0.2370    1.0395    0.0000 N   0  0  0  0  0  0  0  0  0  0  0  0
    2.3104    1.0865    0.0000 N   0  0  0  0  0  0  0  0  0  0  0  0
   -1.0216   -0.0405    0.0000 C   0  0  0  0  0  0  0  0  0  0  0  0
   -1.0216    0.7845    0.0000 C   0  0  0  0  0  0  0  0  0  0  0  0
   -2.4506   -0.0405    0.0000 C   0  0  0  0  0  0  0  0  0  0  0  0
    0.2479    0.3720    0.0000 C   0  0  0  0  0  0  0  0  0  0  0  0
   -1.7361   -0.4530    0.0000 C   0  0  0  0  0  0  0  0  0  0  0  0
   -3.1650   -0.4530    0.0000 C   0  0  0  0  0  0  0  0  0  0  0  0
   -1.7361    1.1970    0.0000 C   0  0  0  0  0  0  0  0  0  0  0  0
   -2.4506    0.7845    0.0000 C   0  0  0  0  0  0  0  0  0  0  0  0
    1.0729    0.3720    0.0000 C   0  0  0  0  0  0  0  0  0  0  0  0
   -3.8795   -0.0405    0.0000 C   0  0  0  0  0  0  0  0  0  0  0  0
   -3.1650   -1.2780    0.0000 C   0  0  0  0  0  0  0  0  0  0  0  0
   -4.5940   -1.2780    0.0000 C   0  0  0  0  0  0  0  0  0  0  0  0
    1.4854    1.0865    0.0000 C   0  0  0  0  0  0  0  0  0  0  0  0
   -4.5940   -0.4530    0.0000 C   0  0  0  0  0  0  0  0  0  0  0  0
   -3.8795   -1.6905    0.0000 C   0  0  0  0  0  0  0  0  0  0  0  0
    3.5479    0.3720    0.0000 C   0  0  0  0  0  0  0  0  0  0  0  0
   -5.3084   -1.6905    0.0000 C   0  0  0  0  0  0  0  0  0  0  0  0
    4.7854    1.0865    0.0000 C   0  0  0  0  0  0  0  0  0  0  0  0
    2.7229    0.3720    0.0000 C   0  0  0  0  0  0  0  0  0  0  0  0
    3.9604    1.0865    0.0000 C   0  0  0  0  0  0  0  0  0  0  0  0
    3.9604   -0.3424    0.0000 C   0  0  0  0  0  0  0  0  0  0  0  0
    5.1979    0.3721    0.0000 C   0  0  0  0  0  0  0  0  0  0  0  0
    5.1979    1.8010    0.0000 C   0  0  0  0  0  0  0  0  0  0  0  0
    4.7854   -0.3424    0.0000 C   0  0  0  0  0  0  0  0  0  0  0  0
  1  9  1  0  0  0  0
  1 12  1  0  0  0  0
  2 21  2  0  0  0  0
  3 25  2  0  0  0  0
  4 25  1  0  0  0  0
  5 31  2  0  0  0  0
  6 31  1  0  0  0  0
  7 10  1  0  0  0  0
  7 12  2  0  0  0  0
  8 21  1  0  0  0  0
  8 27  1  0  0  0  0
  9 10  2  0  0  0  0
  9 13  1  0  0  0  0
 10 15  1  0  0  0  0
 11 13  2  0  0  0  0
 11 14  1  0  0  0  0
 11 16  1  0  0  0  0
 12 17  1  0  0  0  0
 14 18  2  0  0  0  0
 14 19  1  0  0  0  0
 15 16  2  0  0  0  0
 17 21  1  0  0  0  0
 18 22  1  0  0  0  0
 19 23  2  0  0  0  0
 20 22  2  0  0  0  0
 20 23  1  0  0  0  0
 20 25  1  0  0  0  0
 24 27  1  0  0  0  0
 24 28  1  0  0  0  0
 24 29  2  0  0  0  0
 26 28  2  0  0  0  0
 26 30  1  0  0  0  0
 26 31  1  0  0  0  0
 29 32  1  0  0  0  0
 30 32  2  0  0  0  0
M  END
> <PUBCHEM_COMPOUND_ID_TYPE>
0

> <PUBCHEM_TOTAL_CHARGE>
0

> <PUBCHEM_SUBSTANCE_ID>
310947700

> <PUBCHEM_SUBSTANCE_VERSION>
1

> <PUBCHEM_EXT_DATASOURCE_NAME>
4488

> <PUBCHEM_EXT_DATASOURCE_REGID>
SCHEMBL16125871

> <PUBCHEM_SUBSTANCE_COMMENT>
InChI=1S/C24H18N2O5S/c27-21(25-13-14-2-1-3-18(10-14)24(30)31)12-22-26-19-9-8-17(11-20(19)32-22)15-4-6-16(7-5-15)23(28)29/h1-11H,12-13H2,(H,25,27)(H,28,29)(H,30,31)
InChIKey=KHSODIWJWVFIAN-UHFFFAOYSA-N

> <PUBCHEM_SUBSTANCE_SYNONYM>
SCHEMBL16125871

> <PUBCHEM_XREF_EXT_ID>
SCHEMBL16125871

> <PUBCHEM_EXT_DATASOURCE_URL>
https://www.surechembl.org/

> <PUBCHEM_EXT_SUBSTANCE_URL>
https://www.surechembl.org/chemical/SCHEMBL16125871

> <PUBCHEM_CID_ASSOCIATIONS>
117613412  1

> <PUBCHEM_COORDINATE_TYPE>
1
3

$$$$
