310940001
  -OEChem-07211613022D

 16 17  0     0  0  0  0  0  0999 V2000
   -1.7722    8.8350    0.0000 I   0  0  0  0  0  0  0  0  0  0  0  0
   -4.6301    7.1849    0.0000 Cl  0  0  0  0  0  0  0  0  0  0  0  0
   -4.6301    8.8350    0.0000 Cl  0  0  0  0  0  0  0  0  0  0  0  0
    0.3713    7.5974    0.0000 O   0  0  0  0  0  0  0  0  0  0  0  0
   -2.4866    7.5974    0.0000 C   0  0  0  0  0  0  0  0  0  0  0  0
   -2.4866    8.4224    0.0000 C   0  0  0  0  0  0  0  0  0  0  0  0
   -1.7722    7.1849    0.0000 C   0  0  0  0  0  0  0  0  0  0  0  0
   -3.9156    7.5974    0.0000 C   0  0  0  0  0  0  0  0  0  0  0  0
   -3.2012    7.1849    0.0000 C   0  0  0  0  0  0  0  0  0  0  0  0
   -3.9156    8.4224    0.0000 C   0  0  0  0  0  0  0  0  0  0  0  0
   -3.2012    8.8350    0.0000 C   0  0  0  0  0  0  0  0  0  0  0  0
   -1.0576    7.5974    0.0000 C   0  0  0  0  0  0  0  0  0  0  0  0
   -1.7722    6.3599    0.0000 C   0  0  0  0  0  0  0  0  0  0  0  0
   -0.3432    7.1849    0.0000 C   0  0  0  0  0  0  0  0  0  0  0  0
   -1.0576    5.9474    0.0000 C   0  0  0  0  0  0  0  0  0  0  0  0
   -0.3432    6.3599    0.0000 C   0  0  0  0  0  0  0  0  0  0  0  0
  1  6  1  0  0  0  0
  2  8  1  0  0  0  0
  3 10  1  0  0  0  0
  4 14  1  0  0  0  0
  5  6  1  0  0  0  0
  5  7  1  0  0  0  0
  5  9  2  0  0  0  0
  6 11  2  0  0  0  0
  7 12  2  0  0  0  0
  7 13  1  0  0  0  0
  8  9  1  0  0  0  0
  8 10  2  0  0  0  0
 10 11  1  0  0  0  0
 12 14  1  0  0  0  0
 13 15  2  0  0  0  0
 14 16  2  0  0  0  0
 15 16  1  0  0  0  0
M  END
> <PUBCHEM_COMPOUND_ID_TYPE>
0

> <PUBCHEM_TOTAL_CHARGE>
0

> <PUBCHEM_SUBSTANCE_ID>
310940001

> <PUBCHEM_SUBSTANCE_VERSION>
1

> <PUBCHEM_EXT_DATASOURCE_NAME>
4488

> <PUBCHEM_EXT_DATASOURCE_REGID>
SCHEMBL16117931

> <PUBCHEM_SUBSTANCE_COMMENT>
InChI=1S/C12H7Cl2IO/c13-10-5-9(12(15)6-11(10)14)7-2-1-3-8(16)4-7/h1-6,16H
InChIKey=ALNQNKCHCHVIPV-UHFFFAOYSA-N

> <PUBCHEM_SUBSTANCE_SYNONYM>
SCHEMBL16117931

> <PUBCHEM_XREF_EXT_ID>
SCHEMBL16117931

> <PUBCHEM_EXT_DATASOURCE_URL>
https://www.surechembl.org/

> <PUBCHEM_EXT_SUBSTANCE_URL>
https://www.surechembl.org/chemical/SCHEMBL16117931

> <PUBCHEM_CID_ASSOCIATIONS>
117607164  1

> <PUBCHEM_COORDINATE_TYPE>
1
3

$$$$
