310929291
  -OEChem-07211613022D

 26 27  0     1  0  0  0  0  0999 V2000
    0.7260   -1.6829    0.0000 O   0  0  0  0  0  0  0  0  0  0  0  0
    2.1449   -0.0330    0.0000 O   0  0  0  0  0  0  0  0  0  0  0  0
    4.2898   -0.4290    0.0000 O   0  0  0  0  0  0  0  0  0  0  0  0
    1.4519   -3.7288    0.0000 N   0  0  0  0  0  0  0  0  0  0  0  0
    1.4519   -2.9038    0.0000 C   0  0  3  0  0  0  0  0  0  0  0  0
    0.7260   -4.1248    0.0000 C   0  0  0  0  0  0  0  0  0  0  0  0
    2.1449   -4.1248    0.0000 C   0  0  0  0  0  0  0  0  0  0  0  0
    0.7260   -4.9498    0.0000 C   0  0  0  0  0  0  0  0  0  0  0  0
    2.8708   -3.7288    0.0000 C   0  0  0  0  0  0  0  0  0  0  0  0
    0.7260   -2.5079    0.0000 C   0  0  0  0  0  0  0  0  0  0  0  0
    0.0000   -5.3787    0.0000 C   0  0  0  0  0  0  0  0  0  0  0  0
    3.5638   -4.1248    0.0000 C   0  0  0  0  0  0  0  0  0  0  0  0
    1.4189   -5.3787    0.0000 C   0  0  0  0  0  0  0  0  0  0  0  0
    2.8708   -2.9038    0.0000 C   0  0  0  0  0  0  0  0  0  0  0  0
    2.1449   -2.5079    0.0000 C   0  0  0  0  0  0  0  0  0  0  0  0
    0.0000   -6.2037    0.0000 C   0  0  0  0  0  0  0  0  0  0  0  0
    4.2898   -3.7288    0.0000 C   0  0  0  0  0  0  0  0  0  0  0  0
    1.4189   -6.2037    0.0000 C   0  0  0  0  0  0  0  0  0  0  0  0
    3.5638   -2.5079    0.0000 C   0  0  0  0  0  0  0  0  0  0  0  0
    0.7260   -6.5997    0.0000 C   0  0  0  0  0  0  0  0  0  0  0  0
    4.2898   -2.9038    0.0000 C   0  0  0  0  0  0  0  0  0  0  0  0
    1.4189   -1.2540    0.0000 C   0  0  0  0  0  0  0  0  0  0  0  0
    1.4189   -0.4290    0.0000 C   0  0  0  0  0  0  0  0  0  0  0  0
    2.8378   -0.4290    0.0000 C   0  0  0  0  0  0  0  0  0  0  0  0
    3.5638    0.0000    0.0000 C   0  0  0  0  0  0  0  0  0  0  0  0
    4.9828    0.0000    0.0000 C   0  0  0  0  0  0  0  0  0  0  0  0
  1 10  1  0  0  0  0
  1 22  1  0  0  0  0
  2 23  1  0  0  0  0
  2 24  1  0  0  0  0
  3 25  1  0  0  0  0
  3 26  1  0  0  0  0
  4  5  1  0  0  0  0
  4  6  1  0  0  0  0
  4  7  1  0  0  0  0
  5 10  1  0  0  0  0
  5 15  1  6  0  0  0
  6  8  1  0  0  0  0
  7  9  1  0  0  0  0
  8 11  2  0  0  0  0
  8 13  1  0  0  0  0
  9 12  2  0  0  0  0
  9 14  1  0  0  0  0
 11 16  1  0  0  0  0
 12 17  1  0  0  0  0
 13 18  2  0  0  0  0
 14 19  2  0  0  0  0
 16 20  2  0  0  0  0
 17 21  2  0  0  0  0
 18 20  1  0  0  0  0
 19 21  1  0  0  0  0
 22 23  1  0  0  0  0
 24 25  1  0  0  0  0
M  END
> <PUBCHEM_COMPOUND_ID_TYPE>
0

> <PUBCHEM_TOTAL_CHARGE>
0

> <PUBCHEM_SUBSTANCE_ID>
310929291

> <PUBCHEM_SUBSTANCE_VERSION>
1

> <PUBCHEM_EXT_DATASOURCE_NAME>
4488

> <PUBCHEM_EXT_DATASOURCE_REGID>
SCHEMBL16106455

> <PUBCHEM_SUBSTANCE_COMMENT>
InChI=1S/C22H31NO3/c1-20(19-26-16-15-25-14-13-24-2)23(17-21-9-5-3-6-10-21)18-22-11-7-4-8-12-22/h3-12,20H,13-19H2,1-2H3/t20-/m0/s1
InChIKey=VZMGENREKZAHLM-FQEVSTJZSA-N

> <PUBCHEM_SUBSTANCE_SYNONYM>
SCHEMBL16106455

> <PUBCHEM_XREF_EXT_ID>
SCHEMBL16106455

> <PUBCHEM_EXT_DATASOURCE_URL>
https://www.surechembl.org/

> <PUBCHEM_EXT_SUBSTANCE_URL>
https://www.surechembl.org/chemical/SCHEMBL16106455

> <PUBCHEM_CID_ASSOCIATIONS>
117598702  1

> <PUBCHEM_COORDINATE_TYPE>
1
3

> <PUBCHEM_BONDANNOTATIONS>
5  15  6

$$$$
