310941537
  -OEChem-07211613022D

 34 38  0     0  0  0  0  0  0999 V2000
    0.7580    3.6179    0.0000 S   0  0  0  0  0  0  0  0  0  0  0  0
   -3.7558   -3.6179    0.0000 F   0  0  0  0  0  0  0  0  0  0  0  0
   -1.5850    0.9648    0.0000 O   0  0  0  0  0  0  0  0  0  0  0  0
   -3.0322    0.1378    0.0000 O   0  0  0  0  0  0  0  0  0  0  0  0
   -0.1550    0.9648    0.0000 O   0  0  0  0  0  0  0  0  0  0  0  0
    3.6524    2.6360    0.0000 O   0  0  0  0  0  0  0  0  0  0  0  0
    0.6202    2.2914    0.0000 N   0  0  0  0  0  0  0  0  0  0  0  0
    1.9985    2.8082    0.0000 N   0  0  0  0  0  0  0  0  0  0  0  0
   -0.8614    2.2224    0.0000 C   0  0  0  0  0  0  0  0  0  0  0  0
   -2.3258    1.3955    0.0000 C   0  0  0  0  0  0  0  0  0  0  0  0
   -2.3086    2.2224    0.0000 C   0  0  0  0  0  0  0  0  0  0  0  0
   -0.1550    2.6187    0.0000 C   0  0  0  0  0  0  0  0  0  0  0  0
   -0.8959    1.3955    0.0000 C   0  0  0  0  0  0  0  0  0  0  0  0
   -1.6022    2.6187    0.0000 C   0  0  0  0  0  0  0  0  0  0  0  0
   -2.9977    0.9648    0.0000 C   0  0  0  0  0  0  0  0  0  0  0  0
    1.1543    2.9116    0.0000 C   0  0  0  0  0  0  0  0  0  0  0  0
   -0.0517    3.4629    0.0000 C   0  0  0  0  0  0  0  0  0  0  0  0
   -2.9977    2.6015    0.0000 C   0  0  0  0  0  0  0  0  0  0  0  0
   -3.7213    1.3610    0.0000 C   0  0  0  0  0  0  0  0  0  0  0  0
   -3.7385    2.2052    0.0000 C   0  0  0  0  0  0  0  0  0  0  0  0
    2.3086    2.0846    0.0000 C   0  0  0  0  0  0  0  0  0  0  0  0
    3.1355    1.9641    0.0000 C   0  0  0  0  0  0  0  0  0  0  0  0
   -3.7213   -0.2756    0.0000 C   0  0  0  0  0  0  0  0  0  0  0  0
    1.8607    1.3955    0.0000 C   0  0  0  0  0  0  0  0  0  0  0  0
   -3.7558   -1.1026    0.0000 C   0  0  0  0  0  0  0  0  0  0  0  0
    3.4801    1.2060    0.0000 C   0  0  0  0  0  0  0  0  0  0  0  0
    2.1708    0.6375    0.0000 C   0  0  0  0  0  0  0  0  0  0  0  0
    2.9805    0.5513    0.0000 C   0  0  0  0  0  0  0  0  0  0  0  0
   -4.4449   -1.5333    0.0000 C   0  0  0  0  0  0  0  0  0  0  0  0
   -3.0322   -1.5505    0.0000 C   0  0  0  0  0  0  0  0  0  0  0  0
   -3.7385   -2.7565    0.0000 C   0  0  0  0  0  0  0  0  0  0  0  0
   -4.4621   -2.3603    0.0000 C   0  0  0  0  0  0  0  0  0  0  0  0
   -3.0322   -2.3603    0.0000 C   0  0  0  0  0  0  0  0  0  0  0  0
    4.4621    2.5325    0.0000 C   0  0  0  0  0  0  0  0  0  0  0  0
  1 16  1  0  0  0  0
  1 17  1  0  0  0  0
  2 31  1  0  0  0  0
  3 10  1  0  0  0  0
  3 13  1  0  0  0  0
  4 15  1  0  0  0  0
  4 23  1  0  0  0  0
  5 13  2  0  0  0  0
  6 22  1  0  0  0  0
  6 34  1  0  0  0  0
  7 12  1  0  0  0  0
  7 16  2  0  0  0  0
  8 16  1  0  0  0  0
  8 21  1  0  0  0  0
  9 12  1  0  0  0  0
  9 13  1  0  0  0  0
  9 14  2  0  0  0  0
 10 11  1  0  0  0  0
 10 15  2  0  0  0  0
 11 14  1  0  0  0  0
 11 18  2  0  0  0  0
 12 17  2  0  0  0  0
 15 19  1  0  0  0  0
 18 20  1  0  0  0  0
 19 20  2  0  0  0  0
 21 22  1  0  0  0  0
 21 24  2  0  0  0  0
 22 26  2  0  0  0  0
 23 25  1  0  0  0  0
 24 27  1  0  0  0  0
 25 29  2  0  0  0  0
 25 30  1  0  0  0  0
 26 28  1  0  0  0  0
 27 28  2  0  0  0  0
 29 32  1  0  0  0  0
 30 33  2  0  0  0  0
 31 32  2  0  0  0  0
 31 33  1  0  0  0  0
M  END
> <PUBCHEM_COMPOUND_ID_TYPE>
0

> <PUBCHEM_TOTAL_CHARGE>
0

> <PUBCHEM_SUBSTANCE_ID>
310941537

> <PUBCHEM_SUBSTANCE_VERSION>
1

> <PUBCHEM_EXT_DATASOURCE_NAME>
4488

> <PUBCHEM_EXT_DATASOURCE_REGID>
SCHEMBL16119568

> <PUBCHEM_SUBSTANCE_COMMENT>
InChI=1S/C26H19FN2O4S/c1-31-22-7-3-2-6-20(22)28-26-29-21(15-34-26)19-13-17-5-4-8-23(24(17)33-25(19)30)32-14-16-9-11-18(27)12-10-16/h2-13,15H,14H2,1H3,(H,28,29)
InChIKey=WHSSEECCYZUTPI-UHFFFAOYSA-N

> <PUBCHEM_SUBSTANCE_SYNONYM>
SCHEMBL16119568

> <PUBCHEM_XREF_EXT_ID>
SCHEMBL16119568

> <PUBCHEM_EXT_DATASOURCE_URL>
https://www.surechembl.org/

> <PUBCHEM_EXT_SUBSTANCE_URL>
https://www.surechembl.org/chemical/SCHEMBL16119568

> <PUBCHEM_CID_ASSOCIATIONS>
117608345  1

> <PUBCHEM_COORDINATE_TYPE>
1
3

$$$$
