310943554
  -OEChem-07211613022D

 36 39  0     0  0  0  0  0  0999 V2000
    3.5900   -2.1233    0.0000 S   0  0  0  0  0  0  0  0  0  0  0  0
   -2.8907   -0.0597    0.0000 O   0  0  0  0  0  0  0  0  0  0  0  0
    1.4240   -0.0597    0.0000 O   0  0  0  0  0  0  0  0  0  0  0  0
   -4.3233    2.3961    0.0000 O   0  0  0  0  0  0  0  0  0  0  0  0
    3.1806   -2.8395    0.0000 O   0  0  0  0  0  0  0  0  0  0  0  0
    2.7543   -2.1233    0.0000 O   0  0  0  0  0  0  0  0  0  0  0  0
   -2.8907    1.5946    0.0000 N   0  0  0  0  0  0  0  0  0  0  0  0
   -1.4411   -0.0597    0.0000 N   0  0  0  0  0  0  0  0  0  0  0  0
    2.1574    1.1682    0.0000 N   0  0  0  0  0  0  0  0  0  0  0  0
    4.3233   -0.8783    0.0000 N   0  0  0  0  0  0  0  0  0  0  0  0
   -0.7248    1.1853    0.0000 C   0  0  0  0  0  0  0  0  0  0  0  0
   -2.1574    1.1853    0.0000 C   0  0  0  0  0  0  0  0  0  0  0  0
   -0.0085    1.5946    0.0000 C   0  0  0  0  0  0  0  0  0  0  0  0
   -2.1744    0.3496    0.0000 C   0  0  0  0  0  0  0  0  0  0  0  0
   -1.4581    1.5775    0.0000 C   0  0  0  0  0  0  0  0  0  0  0  0
   -0.0085    2.4132    0.0000 C   0  0  0  0  0  0  0  0  0  0  0  0
    0.7078    1.1853    0.0000 C   0  0  0  0  0  0  0  0  0  0  0  0
    1.4411    1.5946    0.0000 C   0  0  0  0  0  0  0  0  0  0  0  0
   -0.7419    0.3326    0.0000 C   0  0  0  0  0  0  0  0  0  0  0  0
    2.8736   -0.0597    0.0000 C   0  0  0  0  0  0  0  0  0  0  0  0
    3.5900   -1.2876    0.0000 C   0  0  0  0  0  0  0  0  0  0  0  0
    2.1574    0.3667    0.0000 C   0  0  0  0  0  0  0  0  0  0  0  0
    0.7078    2.8054    0.0000 C   0  0  0  0  0  0  0  0  0  0  0  0
    1.4240    2.3961    0.0000 C   0  0  0  0  0  0  0  0  0  0  0  0
    2.8736   -0.8783    0.0000 C   0  0  0  0  0  0  0  0  0  0  0  0
   -2.8907    2.4132    0.0000 C   0  0  0  0  0  0  0  0  0  0  0  0
   -3.5900    1.1853    0.0000 C   0  0  0  0  0  0  0  0  0  0  0  0
    3.5900    0.3496    0.0000 C   0  0  0  0  0  0  0  0  0  0  0  0
    4.3063   -0.0597    0.0000 C   0  0  0  0  0  0  0  0  0  0  0  0
   -0.7078    2.8395    0.0000 C   0  0  0  0  0  0  0  0  0  0  0  0
   -2.8907   -0.8783    0.0000 C   0  0  0  0  0  0  0  0  0  0  0  0
   -3.6070    2.8225    0.0000 C   0  0  0  0  0  0  0  0  0  0  0  0
   -4.3233    1.5946    0.0000 C   0  0  0  0  0  0  0  0  0  0  0  0
    4.3233   -2.5326    0.0000 C   0  0  0  0  0  0  0  0  0  0  0  0
   -3.6070   -1.3217    0.0000 C   0  0  0  0  0  0  0  0  0  0  0  0
   -2.1574   -1.3217    0.0000 C   0  0  0  0  0  0  0  0  0  0  0  0
  1  5  2  0  0  0  0
  1  6  2  0  0  0  0
  1 21  1  0  0  0  0
  1 34  1  0  0  0  0
  2 14  1  0  0  0  0
  2 31  1  0  0  0  0
  3 22  2  0  0  0  0
  4 32  1  0  0  0  0
  4 33  1  0  0  0  0
  7 12  1  0  0  0  0
  7 26  1  0  0  0  0
  7 27  1  0  0  0  0
  8 14  2  0  0  0  0
  8 19  1  0  0  0  0
  9 18  1  0  0  0  0
  9 22  1  0  0  0  0
 10 21  2  0  0  0  0
 10 29  1  0  0  0  0
 11 13  1  0  0  0  0
 11 15  1  0  0  0  0
 11 19  2  0  0  0  0
 12 14  1  0  0  0  0
 12 15  2  0  0  0  0
 13 16  2  0  0  0  0
 13 17  1  0  0  0  0
 16 23  1  0  0  0  0
 16 30  1  0  0  0  0
 17 18  2  0  0  0  0
 18 24  1  0  0  0  0
 20 22  1  0  0  0  0
 20 25  2  0  0  0  0
 20 28  1  0  0  0  0
 21 25  1  0  0  0  0
 23 24  2  0  0  0  0
 26 32  1  0  0  0  0
 27 33  1  0  0  0  0
 28 29  2  0  0  0  0
 31 35  1  0  0  0  0
 31 36  1  0  0  0  0
M  END
> <PUBCHEM_COMPOUND_ID_TYPE>
0

> <PUBCHEM_TOTAL_CHARGE>
0

> <PUBCHEM_SUBSTANCE_ID>
310943554

> <PUBCHEM_SUBSTANCE_VERSION>
1

> <PUBCHEM_EXT_DATASOURCE_NAME>
4488

> <PUBCHEM_EXT_DATASOURCE_REGID>
SCHEMBL16121621

> <PUBCHEM_SUBSTANCE_COMMENT>
InChI=1S/C26H30N4O5S/c1-17(2)35-26-23(30-9-11-34-12-10-30)13-20(16-28-26)22-15-21(6-5-18(22)3)29-25(31)19-7-8-27-24(14-19)36(4,32)33/h5-8,13-17H,9-12H2,1-4H3,(H,29,31)
InChIKey=ZJLHDNUYXKAUGC-UHFFFAOYSA-N

> <PUBCHEM_SUBSTANCE_SYNONYM>
SCHEMBL16121621

> <PUBCHEM_XREF_EXT_ID>
SCHEMBL16121621

> <PUBCHEM_EXT_DATASOURCE_URL>
https://www.surechembl.org/

> <PUBCHEM_EXT_SUBSTANCE_URL>
https://www.surechembl.org/chemical/SCHEMBL16121621

> <PUBCHEM_CID_ASSOCIATIONS>
117609965  1

> <PUBCHEM_COORDINATE_TYPE>
1
3

$$$$
