310940724
  -OEChem-07211613022D

 32 34  0     1  0  0  0  0  0999 V2000
    1.3879    0.2833    0.0000 S   0  0  0  0  0  0  0  0  0  0  0  0
    3.6539   -0.7790    0.0000 S   0  0  0  0  0  0  0  0  0  0  0  0
   -3.7955   -0.8780    0.0000 S   0  0  0  0  0  0  0  0  0  0  0  0
   -0.7790   -1.5296    0.0000 O   0  0  0  0  0  0  0  0  0  0  0  0
    2.0818   -2.5634    0.0000 O   0  0  0  0  0  0  0  0  0  0  0  0
    0.6939   -2.6342    0.0000 O   0  0  0  0  0  0  0  0  0  0  0  0
   -1.5154   -0.6514    0.0000 O   0  0  0  0  0  0  0  0  0  0  0  0
   -1.5154    1.7845    0.0000 O   0  0  0  0  0  0  0  0  0  0  0  0
    0.6657   -0.9489    0.0000 N   0  0  0  0  0  0  0  0  0  0  0  0
   -0.5806    0.5806    0.0000 N   0  0  0  0  0  0  0  0  0  0  0  0
   -2.2235    1.3738    0.0000 N   0  0  0  0  0  0  0  0  0  0  0  0
   -3.7389    0.4532    0.0000 N   0  0  0  0  0  0  0  0  0  0  0  0
    4.3762   -2.0252    0.0000 N   0  0  0  0  0  0  0  0  0  0  0  0
   -5.0985   -0.1700    0.0000 N   0  0  0  0  0  0  0  0  0  0  0  0
    5.0985   -0.7790    0.0000 N   0  0  0  0  0  0  0  0  0  0  0  0
    5.0985   -2.4218    0.0000 N   0  0  0  0  0  0  0  0  0  0  0  0
    0.6514   -0.1274    0.0000 C   0  0  3  0  0  0  0  0  0  0  0  0
   -0.1700   -0.1133    0.0000 C   0  0  3  0  0  0  0  0  0  0  0  0
   -0.1558   -0.9206    0.0000 C   0  0  0  0  0  0  0  0  0  0  0  0
    1.3879   -1.3455    0.0000 C   0  0  0  0  0  0  0  0  0  0  0  0
    2.0961   -0.9347    0.0000 C   0  0  0  0  0  0  0  0  0  0  0  0
    1.3879   -2.1810    0.0000 C   0  0  0  0  0  0  0  0  0  0  0  0
    2.1102   -0.1274    0.0000 C   0  0  0  0  0  0  0  0  0  0  0  0
   -1.5154    0.1982    0.0000 C   0  0  0  0  0  0  0  0  0  0  0  0
   -2.2518    0.5948    0.0000 C   0  0  0  0  0  0  0  0  0  0  0  0
    2.9316   -1.1897    0.0000 C   0  0  0  0  0  0  0  0  0  0  0  0
   -2.9600    0.1841    0.0000 C   0  0  0  0  0  0  0  0  0  0  0  0
   -3.0025   -0.6514    0.0000 C   0  0  0  0  0  0  0  0  0  0  0  0
   -4.2629   -0.1982    0.0000 C   0  0  0  0  0  0  0  0  0  0  0  0
    4.3762   -1.1897    0.0000 C   0  0  0  0  0  0  0  0  0  0  0  0
   -1.4871    2.6342    0.0000 C   0  0  0  0  0  0  0  0  0  0  0  0
    3.6256   -2.4501    0.0000 C   0  0  0  0  0  0  0  0  0  0  0  0
  1 17  1  0  0  0  0
  1 23  1  0  0  0  0
  2 26  1  0  0  0  0
  2 30  1  0  0  0  0
  3 28  1  0  0  0  0
  3 29  1  0  0  0  0
  4 19  2  0  0  0  0
  5 22  2  0  0  0  0
  6 22  1  0  0  0  0
  7 24  2  0  0  0  0
  8 11  1  0  0  0  0
  8 31  1  0  0  0  0
 17  9  1  1  0  0  0
  9 19  1  0  0  0  0
  9 20  1  0  0  0  0
 18 10  1  1  0  0  0
 10 24  1  0  0  0  0
 11 25  2  0  0  0  0
 12 27  1  0  0  0  0
 12 29  2  0  0  0  0
 13 16  1  0  0  0  0
 13 30  1  0  0  0  0
 13 32  1  0  0  0  0
 14 29  1  0  0  0  0
 15 30  2  3  0  0  0
 17 18  1  0  0  0  0
 18 19  1  0  0  0  0
 20 21  2  0  0  0  0
 20 22  1  0  0  0  0
 21 23  1  0  0  0  0
 21 26  1  0  0  0  0
 24 25  1  0  0  0  0
 25 27  1  0  0  0  0
 27 28  2  0  0  0  0
M  END
> <PUBCHEM_COMPOUND_ID_TYPE>
0

> <PUBCHEM_TOTAL_CHARGE>
0

> <PUBCHEM_SUBSTANCE_ID>
310940724

> <PUBCHEM_SUBSTANCE_VERSION>
1

> <PUBCHEM_EXT_DATASOURCE_NAME>
4488

> <PUBCHEM_EXT_DATASOURCE_REGID>
SCHEMBL16118682

> <PUBCHEM_SUBSTANCE_COMMENT>
InChI=1S/C16H20N8O5S3/c1-23(19)16(18)32-4-6-3-30-13-9(12(26)24(13)10(6)14(27)28)21-11(25)8(22-29-2)7-5-31-15(17)20-7/h5,9,13,18H,3-4,19H2,1-2H3,(H2,17,20)(H,21,25)(H,27,28)/b18-16?,22-8-/t9-,13-/m1/s1
InChIKey=OZTCIRHWHHZMOZ-VCAAXVARSA-N

> <PUBCHEM_SUBSTANCE_SYNONYM>
SCHEMBL16118682

> <PUBCHEM_XREF_EXT_ID>
SCHEMBL16118682

> <PUBCHEM_EXT_DATASOURCE_URL>
https://www.surechembl.org/

> <PUBCHEM_EXT_SUBSTANCE_URL>
https://www.surechembl.org/chemical/SCHEMBL16118682

> <PUBCHEM_CID_ASSOCIATIONS>
117607681  1

> <PUBCHEM_COORDINATE_TYPE>
1
3

> <PUBCHEM_BONDANNOTATIONS>
18  10  5
17  9  5

$$$$
