310946057
  -OEChem-07211613022D

 36 39  0     1  0  0  0  0  0999 V2000
    3.6512    1.5659    0.0000 O   0  0  0  0  0  0  0  0  0  0  0  0
    1.3787    1.5659    0.0000 O   0  0  0  0  0  0  0  0  0  0  0  0
    0.6720    1.1501    0.0000 O   0  0  0  0  0  0  0  0  0  0  0  0
   -0.0485    1.5659    0.0000 O   0  0  0  0  0  0  0  0  0  0  0  0
   -2.4181    0.4157    0.0000 O   0  0  0  0  0  0  0  0  0  0  0  0
   -2.9307   -2.5773    0.0000 O   0  0  0  0  0  0  0  0  0  0  0  0
    1.3926   -0.0831    0.0000 N   0  0  0  0  0  0  0  0  0  0  0  0
   -0.7691    0.3326    0.0000 N   0  0  0  0  0  0  0  0  0  0  0  0
   -1.5728    2.4111    0.0000 N   0  0  0  0  0  0  0  0  0  0  0  0
    2.8476    1.5796    0.0000 C   0  0  3  0  0  0  0  0  0  0  0  0
    2.0855    1.1086    0.0000 C   0  0  0  0  0  0  0  0  0  0  0  0
    3.2494    0.8730    0.0000 C   0  0  0  0  0  0  0  0  0  0  0  0
    2.0993    0.3326    0.0000 C   0  0  3  0  0  0  0  0  0  0  0  0
    2.8337    2.4111    0.0000 C   0  0  0  0  0  0  0  0  0  0  0  0
    0.6720    0.3187    0.0000 C   0  0  0  0  0  0  0  0  0  0  0  0
    2.8198   -0.0693    0.0000 C   0  0  0  0  0  0  0  0  0  0  0  0
   -0.0347   -0.0693    0.0000 C   0  0  3  0  0  0  0  0  0  0  0  0
    2.8337   -0.9145    0.0000 C   0  0  0  0  0  0  0  0  0  0  0  0
   -1.4896    1.5796    0.0000 C   0  0  3  0  0  0  0  0  0  0  0  0
   -0.7552    1.1086    0.0000 C   0  0  0  0  0  0  0  0  0  0  0  0
   -0.0208   -0.9145    0.0000 C   0  0  0  0  0  0  0  0  0  0  0  0
   -2.2379    1.2471    0.0000 C   0  0  3  0  0  0  0  0  0  0  0  0
   -0.7691   -1.3164    0.0000 C   0  0  0  0  0  0  0  0  0  0  0  0
    3.5404   -1.3303    0.0000 C   0  0  0  0  0  0  0  0  0  0  0  0
    2.1131   -1.3303    0.0000 C   0  0  0  0  0  0  0  0  0  0  0  0
   -2.7922    1.8568    0.0000 C   0  0  0  0  0  0  0  0  0  0  0  0
   -2.3903    2.5773    0.0000 C   0  0  0  0  0  0  0  0  0  0  0  0
   -1.5034   -0.9284    0.0000 C   0  0  0  0  0  0  0  0  0  0  0  0
   -0.7691   -2.1478    0.0000 C   0  0  0  0  0  0  0  0  0  0  0  0
   -2.2101   -2.1478    0.0000 C   0  0  0  0  0  0  0  0  0  0  0  0
   -2.1963   -1.3303    0.0000 C   0  0  0  0  0  0  0  0  0  0  0  0
   -1.4758   -2.5635    0.0000 C   0  0  0  0  0  0  0  0  0  0  0  0
    3.5404   -2.1478    0.0000 C   0  0  0  0  0  0  0  0  0  0  0  0
    2.1131   -2.1478    0.0000 C   0  0  0  0  0  0  0  0  0  0  0  0
    2.8476   -2.5635    0.0000 C   0  0  0  0  0  0  0  0  0  0  0  0
   -3.6512   -2.1755    0.0000 C   0  0  0  0  0  0  0  0  0  0  0  0
  1 10  1  0  0  0  0
  1 12  1  0  0  0  0
  2 11  2  0  0  0  0
  3 15  2  0  0  0  0
  4 20  2  0  0  0  0
 22  5  1  6  0  0  0
  6 30  1  0  0  0  0
  6 36  1  0  0  0  0
 13  7  1  6  0  0  0
  7 15  1  0  0  0  0
 17  8  1  6  0  0  0
  8 20  1  0  0  0  0
  9 19  1  0  0  0  0
  9 27  1  0  0  0  0
 10 11  1  6  0  0  0
 10 12  1  0  0  0  0
 10 14  1  1  0  0  0
 11 13  1  0  0  0  0
 13 16  1  0  0  0  0
 15 17  1  0  0  0  0
 16 18  1  0  0  0  0
 17 21  1  0  0  0  0
 18 24  2  0  0  0  0
 18 25  1  0  0  0  0
 19 20  1  6  0  0  0
 19 22  1  0  0  0  0
 21 23  1  0  0  0  0
 22 26  1  0  0  0  0
 23 28  2  0  0  0  0
 23 29  1  0  0  0  0
 24 33  1  0  0  0  0
 25 34  2  0  0  0  0
 26 27  1  0  0  0  0
 28 31  1  0  0  0  0
 29 32  2  0  0  0  0
 30 31  2  0  0  0  0
 30 32  1  0  0  0  0
 33 35  2  0  0  0  0
 34 35  1  0  0  0  0
M  END
> <PUBCHEM_COMPOUND_ID_TYPE>
0

> <PUBCHEM_TOTAL_CHARGE>
0

> <PUBCHEM_SUBSTANCE_ID>
310946057

> <PUBCHEM_SUBSTANCE_VERSION>
1

> <PUBCHEM_EXT_DATASOURCE_NAME>
4488

> <PUBCHEM_EXT_DATASOURCE_REGID>
SCHEMBL16124163

> <PUBCHEM_SUBSTANCE_COMMENT>
InChI=1S/C27H33N3O6/c1-27(16-36-27)24(32)20(14-17-6-4-3-5-7-17)29-25(33)21(15-18-8-10-19(35-2)11-9-18)30-26(34)23-22(31)12-13-28-23/h3-11,20-23,28,31H,12-16H2,1-2H3,(H,29,33)(H,30,34)/t20-,21-,22+,23-,27+/m0/s1
InChIKey=WVVZQAGKUGKQJD-XJYXAJQWSA-N

> <PUBCHEM_SUBSTANCE_SYNONYM>
SCHEMBL16124163

> <PUBCHEM_XREF_EXT_ID>
SCHEMBL16124163

> <PUBCHEM_EXT_DATASOURCE_URL>
https://www.surechembl.org/

> <PUBCHEM_EXT_SUBSTANCE_URL>
https://www.surechembl.org/chemical/SCHEMBL16124163

> <PUBCHEM_CID_ASSOCIATIONS>
117612028  1

> <PUBCHEM_COORDINATE_TYPE>
1
3

> <PUBCHEM_BONDANNOTATIONS>
10  11  6
10  14  5
19  20  6
22  5  6
13  7  6
17  8  6

$$$$
