310934099
  -OEChem-07211613022D

 54 60  0     0  0  0  0  0  0999 V2000
    1.6077    3.0545    0.0000 S   0  0  0  0  0  0  0  0  0  0  0  0
    3.8685    4.1407    0.0000 S   0  0  0  0  0  0  0  0  0  0  0  0
    9.4045    1.5639    0.0000 O   0  0  0  0  0  0  0  0  0  0  0  0
    9.5539    2.9850    0.0000 O   0  0  0  0  0  0  0  0  0  0  0  0
    3.1540    3.7282    0.0000 N   0  0  0  0  0  0  0  0  0  0  0  0
    4.4816    3.5887    0.0000 N   0  0  0  0  0  0  0  0  0  0  0  0
   -1.6517    5.0911    0.0000 N   0  0  0  0  0  0  0  0  0  0  0  0
    7.5773    3.9112    0.0000 N   0  0  0  0  0  0  0  0  0  0  0  0
    2.8407    2.2538    0.0000 C   0  0  0  0  0  0  0  0  0  0  0  0
    3.3256    2.9213    0.0000 C   0  0  0  0  0  0  0  0  0  0  0  0
    4.1460    2.8350    0.0000 C   0  0  0  0  0  0  0  0  0  0  0  0
    2.0202    2.3401    0.0000 C   0  0  0  0  0  0  0  0  0  0  0  0
    4.4816    2.0814    0.0000 C   0  0  0  0  0  0  0  0  0  0  0  0
    0.8007    2.8830    0.0000 C   0  0  0  0  0  0  0  0  0  0  0  0
    0.7145    2.0625    0.0000 C   0  0  0  0  0  0  0  0  0  0  0  0
    1.4681    1.7270    0.0000 C   0  0  0  0  0  0  0  0  0  0  0  0
    3.1762    1.5001    0.0000 C   0  0  0  0  0  0  0  0  0  0  0  0
    3.9967    1.4139    0.0000 C   0  0  0  0  0  0  0  0  0  0  0  0
    0.1876    3.4350    0.0000 C   0  0  0  0  0  0  0  0  0  0  0  0
    5.3021    1.9951    0.0000 C   0  0  0  0  0  0  0  0  0  0  0  0
   -1.0386    4.5391    0.0000 C   0  0  0  0  0  0  0  0  0  0  0  0
    0.0000    1.6500    0.0000 C   0  0  0  0  0  0  0  0  0  0  0  0
    0.3591    4.2420    0.0000 C   0  0  0  0  0  0  0  0  0  0  0  0
   -0.5970    3.1801    0.0000 C   0  0  0  0  0  0  0  0  0  0  0  0
    5.7870    2.6625    0.0000 C   0  0  0  0  0  0  0  0  0  0  0  0
    5.6376    1.2414    0.0000 C   0  0  0  0  0  0  0  0  0  0  0  0
   -0.2540    4.7940    0.0000 C   0  0  0  0  0  0  0  0  0  0  0  0
   -1.2101    3.7321    0.0000 C   0  0  0  0  0  0  0  0  0  0  0  0
   -1.4802    5.8981    0.0000 C   0  0  0  0  0  0  0  0  0  0  0  0
   -2.4363    4.8362    0.0000 C   0  0  0  0  0  0  0  0  0  0  0  0
    6.9431    1.8226    0.0000 C   0  0  0  0  0  0  0  0  0  0  0  0
    6.6075    2.5763    0.0000 C   0  0  0  0  0  0  0  0  0  0  0  0
    6.4582    1.1552    0.0000 C   0  0  0  0  0  0  0  0  0  0  0  0
   -0.7145    2.0625    0.0000 C   0  0  0  0  0  0  0  0  0  0  0  0
   -0.6955    6.1530    0.0000 C   0  0  0  0  0  0  0  0  0  0  0  0
   -3.0494    5.3882    0.0000 C   0  0  0  0  0  0  0  0  0  0  0  0
   -2.0933    6.4502    0.0000 C   0  0  0  0  0  0  0  0  0  0  0  0
   -2.6078    4.0292    0.0000 C   0  0  0  0  0  0  0  0  0  0  0  0
    7.7636    1.7364    0.0000 C   0  0  0  0  0  0  0  0  0  0  0  0
   -1.4290    1.6500    0.0000 C   0  0  0  0  0  0  0  0  0  0  0  0
    8.2485    2.4038    0.0000 C   0  0  0  0  0  0  0  0  0  0  0  0
   -0.5240    6.9600    0.0000 C   0  0  0  0  0  0  0  0  0  0  0  0
   -3.8340    5.1333    0.0000 C   0  0  0  0  0  0  0  0  0  0  0  0
   -1.9217    7.2571    0.0000 C   0  0  0  0  0  0  0  0  0  0  0  0
   -3.3925    3.7743    0.0000 C   0  0  0  0  0  0  0  0  0  0  0  0
   -1.1371    7.5120    0.0000 C   0  0  0  0  0  0  0  0  0  0  0  0
   -4.0056    4.3263    0.0000 C   0  0  0  0  0  0  0  0  0  0  0  0
    9.0689    2.3176    0.0000 C   0  0  0  0  0  0  0  0  0  0  0  0
   -2.1434    2.0625    0.0000 C   0  0  0  0  0  0  0  0  0  0  0  0
    7.9129    3.1575    0.0000 C   0  0  0  0  0  0  0  0  0  0  0  0
   -2.8579    1.6500    0.0000 C   0  0  0  0  0  0  0  0  0  0  0  0
   -3.5724    2.0625    0.0000 C   0  0  0  0  0  0  0  0  0  0  0  0
   -4.2868    1.6500    0.0000 C   0  0  0  0  0  0  0  0  0  0  0  0
   -5.0013    2.0625    0.0000 C   0  0  0  0  0  0  0  0  0  0  0  0
  1 12  1  0  0  0  0
  1 14  1  0  0  0  0
  2  5  1  0  0  0  0
  2  6  1  0  0  0  0
  3 48  2  0  0  0  0
  4 48  1  0  0  0  0
  5 10  2  0  0  0  0
  6 11  2  0  0  0  0
  7 21  1  0  0  0  0
  7 29  1  0  0  0  0
  7 30  1  0  0  0  0
  8 50  3  0  0  0  0
  9 10  1  0  0  0  0
  9 12  1  0  0  0  0
  9 17  2  0  0  0  0
 10 11  1  0  0  0  0
 11 13  1  0  0  0  0
 12 16  2  0  0  0  0
 13 18  2  0  0  0  0
 13 20  1  0  0  0  0
 14 15  2  0  0  0  0
 14 19  1  0  0  0  0
 15 16  1  0  0  0  0
 15 22  1  0  0  0  0
 17 18  1  0  0  0  0
 19 23  2  0  0  0  0
 19 24  1  0  0  0  0
 20 25  2  0  0  0  0
 20 26  1  0  0  0  0
 21 27  2  0  0  0  0
 21 28  1  0  0  0  0
 22 34  1  0  0  0  0
 23 27  1  0  0  0  0
 24 28  2  0  0  0  0
 25 32  1  0  0  0  0
 26 33  2  0  0  0  0
 29 35  2  0  0  0  0
 29 37  1  0  0  0  0
 30 36  2  0  0  0  0
 30 38  1  0  0  0  0
 31 32  2  0  0  0  0
 31 33  1  0  0  0  0
 31 39  1  0  0  0  0
 34 40  1  0  0  0  0
 35 42  1  0  0  0  0
 36 43  1  0  0  0  0
 37 44  2  0  0  0  0
 38 45  2  0  0  0  0
 39 41  2  3  0  0  0
 40 49  1  0  0  0  0
 41 48  1  0  0  0  0
 41 50  1  0  0  0  0
 42 46  2  0  0  0  0
 43 47  2  0  0  0  0
 44 46  1  0  0  0  0
 45 47  1  0  0  0  0
 49 51  1  0  0  0  0
 51 52  1  0  0  0  0
 52 53  1  0  0  0  0
 53 54  1  0  0  0  0
M  END
> <PUBCHEM_COMPOUND_ID_TYPE>
0

> <PUBCHEM_TOTAL_CHARGE>
0

> <PUBCHEM_SUBSTANCE_ID>
310934099

> <PUBCHEM_SUBSTANCE_VERSION>
1

> <PUBCHEM_EXT_DATASOURCE_NAME>
4488

> <PUBCHEM_EXT_DATASOURCE_REGID>
SCHEMBL16111545

> <PUBCHEM_SUBSTANCE_COMMENT>
InChI=1S/C46H40N4O2S2/c1-2-3-4-5-6-9-14-35-30-42(41-28-27-40(43-44(41)49-54-48-43)33-21-19-32(20-22-33)29-36(31-47)46(51)52)53-45(35)34-23-25-39(26-24-34)50(37-15-10-7-11-16-37)38-17-12-8-13-18-38/h7-8,10-13,15-30H,2-6,9,14H2,1H3,(H,51,52)/b36-29+
InChIKey=MEMLSWBPSUCWAA-ZONNCAFXSA-N

> <PUBCHEM_SUBSTANCE_SYNONYM>
SCHEMBL16111545

> <PUBCHEM_XREF_EXT_ID>
SCHEMBL16111545

> <PUBCHEM_EXT_DATASOURCE_URL>
https://www.surechembl.org/

> <PUBCHEM_EXT_SUBSTANCE_URL>
https://www.surechembl.org/chemical/SCHEMBL16111545

> <PUBCHEM_CID_ASSOCIATIONS>
117602381  1

> <PUBCHEM_COORDINATE_TYPE>
1
3

> <PUBCHEM_BONDANNOTATIONS>
39  41  1

$$$$
