310946926
  -OEChem-07211613022D

 36 40  0     1  0  0  0  0  0999 V2000
   -2.7137    2.6292    0.0000 O   0  0  0  0  0  0  0  0  0  0  0  0
   -2.6949   -2.1222    0.0000 O   0  0  0  0  0  0  0  0  0  0  0  0
    2.4883   -0.1878    0.0000 O   0  0  0  0  0  0  0  0  0  0  0  0
   -2.0001    0.5634    0.0000 N   0  0  0  0  0  0  0  0  0  0  0  0
   -1.3240    0.0751    0.0000 N   0  0  0  0  0  0  0  0  0  0  0  0
   -1.0986   -1.3897    0.0000 N   0  0  0  0  0  0  0  0  0  0  0  0
   -3.7654   -1.1644    0.0000 N   0  0  0  0  0  0  0  0  0  0  0  0
    2.6949   -1.6151    0.0000 N   0  0  0  0  0  0  0  0  0  0  0  0
    0.1596    1.7466    0.0000 N   0  0  0  0  0  0  0  0  0  0  0  0
   -2.6574    0.0751    0.0000 C   0  0  0  0  0  0  0  0  0  0  0  0
   -2.0001    1.3897    0.0000 C   0  0  3  0  0  0  0  0  0  0  0  0
   -2.4133   -0.6949    0.0000 C   0  0  0  0  0  0  0  0  0  0  0  0
   -1.5869   -0.7137    0.0000 C   0  0  0  0  0  0  0  0  0  0  0  0
   -2.9578   -1.3334    0.0000 C   0  0  0  0  0  0  0  0  0  0  0  0
   -3.4649    0.2441    0.0000 C   0  0  0  0  0  0  0  0  0  0  0  0
   -2.7137    1.8029    0.0000 C   0  0  0  0  0  0  0  0  0  0  0  0
   -1.2864    1.8029    0.0000 C   0  0  0  0  0  0  0  0  0  0  0  0
   -1.2864    0.9766    0.0000 C   0  0  0  0  0  0  0  0  0  0  0  0
   -0.2536   -1.2958    0.0000 C   0  0  0  0  0  0  0  0  0  0  0  0
   -4.0095   -0.3756    0.0000 C   0  0  0  0  0  0  0  0  0  0  0  0
   -1.2677    2.6292    0.0000 C   0  0  0  0  0  0  0  0  0  0  0  0
    1.3615   -1.0516    0.0000 C   0  0  0  0  0  0  0  0  0  0  0  0
    0.0470   -0.5446    0.0000 C   0  0  0  0  0  0  0  0  0  0  0  0
    0.8545   -0.4319    0.0000 C   0  0  0  0  0  0  0  0  0  0  0  0
    0.2348   -1.9344    0.0000 C   0  0  0  0  0  0  0  0  0  0  0  0
   -0.5540    1.3897    0.0000 C   0  0  0  0  0  0  0  0  0  0  0  0
   -1.9813    3.0423    0.0000 C   0  0  0  0  0  0  0  0  0  0  0  0
    2.1691   -0.9578    0.0000 C   0  0  0  0  0  0  0  0  0  0  0  0
    1.0611   -1.8216    0.0000 C   0  0  0  0  0  0  0  0  0  0  0  0
    3.5024   -1.5024    0.0000 C   0  0  3  0  0  0  0  0  0  0  0  0
    1.1737    0.3568    0.0000 C   0  0  0  0  0  0  0  0  0  0  0  0
    2.3945   -2.4038    0.0000 C   0  0  0  0  0  0  0  0  0  0  0  0
    4.0095   -2.1409    0.0000 C   0  0  0  0  0  0  0  0  0  0  0  0
    2.9015   -3.0423    0.0000 C   0  0  0  0  0  0  0  0  0  0  0  0
    3.7090   -2.9297    0.0000 C   0  0  0  0  0  0  0  0  0  0  0  0
    3.8217   -0.7324    0.0000 C   0  0  0  0  0  0  0  0  0  0  0  0
  1 16  1  0  0  0  0
  1 27  1  0  0  0  0
  2 14  2  0  0  0  0
  3 28  2  0  0  0  0
  4  5  1  0  0  0  0
  4 10  1  0  0  0  0
  4 11  1  0  0  0  0
  5 13  2  0  0  0  0
  6 13  1  0  0  0  0
  6 19  1  0  0  0  0
  7 14  1  0  0  0  0
  7 20  1  0  0  0  0
  8 28  1  0  0  0  0
  8 30  1  0  0  0  0
  8 32  1  0  0  0  0
  9 26  3  0  0  0  0
 10 12  2  0  0  0  0
 10 15  1  0  0  0  0
 11 16  1  0  0  0  0
 11 17  1  0  0  0  0
 11 18  1  6  0  0  0
 12 13  1  0  0  0  0
 12 14  1  0  0  0  0
 15 20  2  0  0  0  0
 17 21  1  0  0  0  0
 18 26  1  0  0  0  0
 19 23  1  0  0  0  0
 19 25  2  0  0  0  0
 21 27  1  0  0  0  0
 22 24  1  0  0  0  0
 22 28  1  0  0  0  0
 22 29  2  0  0  0  0
 23 24  2  0  0  0  0
 24 31  1  0  0  0  0
 25 29  1  0  0  0  0
 30 33  1  0  0  0  0
 30 36  1  6  0  0  0
 32 34  1  0  0  0  0
 33 35  1  0  0  0  0
 34 35  1  0  0  0  0
M  END
> <PUBCHEM_COMPOUND_ID_TYPE>
0

> <PUBCHEM_TOTAL_CHARGE>
0

> <PUBCHEM_SUBSTANCE_ID>
310946926

> <PUBCHEM_SUBSTANCE_VERSION>
1

> <PUBCHEM_EXT_DATASOURCE_NAME>
4488

> <PUBCHEM_EXT_DATASOURCE_REGID>
SCHEMBL16125050

> <PUBCHEM_SUBSTANCE_COMMENT>
InChI=1S/C27H32N6O3/c1-18-16-20(7-8-21(18)26(35)32-14-4-3-6-19(32)2)30-24-23-22(9-13-29-25(23)34)33(31-24)27(11-12-28)10-5-15-36-17-27/h7-9,13,16,19H,3-6,10-11,14-15,17H2,1-2H3,(H,29,34)(H,30,31)/t19-,27+/m1/s1
InChIKey=ULWWEPNVLQCJFW-WINIVTDRSA-N

> <PUBCHEM_SUBSTANCE_SYNONYM>
SCHEMBL16125050

> <PUBCHEM_XREF_EXT_ID>
SCHEMBL16125050

> <PUBCHEM_EXT_DATASOURCE_URL>
https://www.surechembl.org/

> <PUBCHEM_EXT_SUBSTANCE_URL>
https://www.surechembl.org/chemical/SCHEMBL16125050

> <PUBCHEM_CID_ASSOCIATIONS>
117612781  1

> <PUBCHEM_COORDINATE_TYPE>
1
3

> <PUBCHEM_BONDANNOTATIONS>
11  18  6
30  36  6

$$$$
