310944509
  -OEChem-07211613022D

 14 14  0     0  0  0  0  0  0999 V2000
    1.3988   -1.2368    0.0000 Br  0  0  0  0  0  0  0  0  0  0  0  0
   -0.0344    1.2368    0.0000 F   0  0  0  0  0  0  0  0  0  0  0  0
    1.3791    1.2269    0.0000 O   0  0  0  0  0  0  0  0  0  0  0  0
   -2.1055   -0.0687    0.0000 O   0  0  0  0  0  0  0  0  0  0  0  0
    2.1055    0.0000    0.0000 N   0  0  0  0  0  0  0  0  0  0  0  0
   -1.5067    1.2269    0.0000 N   0  0  0  0  0  0  0  0  0  0  0  0
    0.6822    0.0295    0.0000 C   0  0  0  0  0  0  0  0  0  0  0  0
   -0.0344    0.4417    0.0000 C   0  0  0  0  0  0  0  0  0  0  0  0
   -0.7509    0.0196    0.0000 C   0  0  0  0  0  0  0  0  0  0  0  0
    0.6822   -0.8049    0.0000 C   0  0  0  0  0  0  0  0  0  0  0  0
    1.3889    0.4319    0.0000 C   0  0  0  0  0  0  0  0  0  0  0  0
   -0.7411   -0.8049    0.0000 C   0  0  0  0  0  0  0  0  0  0  0  0
   -0.0147   -1.2074    0.0000 C   0  0  0  0  0  0  0  0  0  0  0  0
   -1.4674    0.4024    0.0000 C   0  0  0  0  0  0  0  0  0  0  0  0
  1 10  1  0  0  0  0
  2  8  1  0  0  0  0
  3 11  2  0  0  0  0
  4 14  2  0  0  0  0
  5 11  1  0  0  0  0
  6 14  1  0  0  0  0
  7  8  2  0  0  0  0
  7 10  1  0  0  0  0
  7 11  1  0  0  0  0
  8  9  1  0  0  0  0
  9 12  2  0  0  0  0
  9 14  1  0  0  0  0
 10 13  2  0  0  0  0
 12 13  1  0  0  0  0
M  END
> <PUBCHEM_COMPOUND_ID_TYPE>
0

> <PUBCHEM_TOTAL_CHARGE>
0

> <PUBCHEM_SUBSTANCE_ID>
310944509

> <PUBCHEM_SUBSTANCE_VERSION>
1

> <PUBCHEM_EXT_DATASOURCE_NAME>
4488

> <PUBCHEM_EXT_DATASOURCE_REGID>
SCHEMBL16122584

> <PUBCHEM_SUBSTANCE_COMMENT>
InChI=1S/C8H6BrFN2O2/c9-4-2-1-3(7(11)13)6(10)5(4)8(12)14/h1-2H,(H2,11,13)(H2,12,14)
InChIKey=PYKNUCHIAGNSNE-UHFFFAOYSA-N

> <PUBCHEM_SUBSTANCE_SYNONYM>
SCHEMBL16122584

> <PUBCHEM_XREF_EXT_ID>
SCHEMBL16122584

> <PUBCHEM_EXT_DATASOURCE_URL>
https://www.surechembl.org/

> <PUBCHEM_EXT_SUBSTANCE_URL>
https://www.surechembl.org/chemical/SCHEMBL16122584

> <PUBCHEM_CID_ASSOCIATIONS>
117610745  1

> <PUBCHEM_COORDINATE_TYPE>
1
3

$$$$
