310934530
  -OEChem-07211613022D

 25 27  0     0  0  0  0  0  0999 V2000
    6.5311   -0.7094    0.0000 S   0  0  0  0  0  0  0  0  0  0  0  0
    3.6203   -1.4188    0.0000 O   0  0  0  0  0  0  0  0  0  0  0  0
    2.9598   -3.4490    0.0000 O   0  0  0  0  0  0  0  0  0  0  0  0
    3.6203    0.0000    0.0000 O   0  0  0  0  0  0  0  0  0  0  0  0
    7.3384   -0.7094    0.0000 O   0  0  0  0  0  0  0  0  0  0  0  0
    6.9225    0.0000    0.0000 O   0  0  0  0  0  0  0  0  0  0  0  0
    4.4520   -1.4188    0.0000 N   0  0  0  0  0  0  0  0  0  0  0  0
    3.5713   -2.8865    0.0000 N   0  0  0  0  0  0  0  0  0  0  0  0
    4.8433   -0.7094    0.0000 C   0  0  0  0  0  0  0  0  0  0  0  0
    4.0117   -0.7094    0.0000 C   0  0  0  0  0  0  0  0  0  0  0  0
    5.2836   -1.4188    0.0000 C   0  0  0  0  0  0  0  0  0  0  0  0
    5.2836    0.0000    0.0000 C   0  0  0  0  0  0  0  0  0  0  0  0
    6.0909   -1.4188    0.0000 C   0  0  0  0  0  0  0  0  0  0  0  0
    6.0909    0.0000    0.0000 C   0  0  0  0  0  0  0  0  0  0  0  0
    3.2289   -2.1526    0.0000 C   0  0  0  0  0  0  0  0  0  0  0  0
    3.7915   -1.5900    0.0000 C   0  0  0  0  0  0  0  0  0  0  0  0
    2.2504   -3.0332    0.0000 C   0  0  0  0  0  0  0  0  0  0  0  0
    2.3972   -2.2260    0.0000 C   0  0  0  0  0  0  0  0  0  0  0  0
    1.4921   -3.3757    0.0000 C   0  0  0  0  0  0  0  0  0  0  0  0
    1.4188   -4.2318    0.0000 C   0  0  0  0  0  0  0  0  0  0  0  0
    0.8317   -2.9354    0.0000 C   0  0  0  0  0  0  0  0  0  0  0  0
    2.7886   -1.4188    0.0000 C   0  0  0  0  0  0  0  0  0  0  0  0
    0.6849   -4.5498    0.0000 C   0  0  0  0  0  0  0  0  0  0  0  0
    0.0978   -3.2534    0.0000 C   0  0  0  0  0  0  0  0  0  0  0  0
    0.0000   -4.0850    0.0000 C   0  0  0  0  0  0  0  0  0  0  0  0
  1  5  2  0  0  0  0
  1  6  2  0  0  0  0
  1 13  1  0  0  0  0
  1 14  1  0  0  0  0
  2 10  1  0  0  0  0
  2 22  1  0  0  0  0
  3  8  1  0  0  0  0
  3 17  1  0  0  0  0
  4 10  2  0  0  0  0
  7  9  1  0  0  0  0
  7 16  1  0  0  0  0
  8 15  2  0  0  0  0
  9 10  1  0  0  0  0
  9 11  1  0  0  0  0
  9 12  1  0  0  0  0
 11 13  1  0  0  0  0
 12 14  1  0  0  0  0
 15 16  1  0  0  0  0
 15 18  1  0  0  0  0
 17 18  2  0  0  0  0
 17 19  1  0  0  0  0
 19 20  2  0  0  0  0
 19 21  1  0  0  0  0
 20 23  1  0  0  0  0
 21 24  2  0  0  0  0
 23 25  2  0  0  0  0
 24 25  1  0  0  0  0
M  END
> <PUBCHEM_COMPOUND_ID_TYPE>
0

> <PUBCHEM_TOTAL_CHARGE>
0

> <PUBCHEM_SUBSTANCE_ID>
310934530

> <PUBCHEM_SUBSTANCE_VERSION>
1

> <PUBCHEM_EXT_DATASOURCE_NAME>
4488

> <PUBCHEM_EXT_DATASOURCE_REGID>
SCHEMBL16112019

> <PUBCHEM_SUBSTANCE_COMMENT>
InChI=1S/C17H20N2O5S/c1-23-16(20)17(7-9-25(21,22)10-8-17)18-12-14-11-15(24-19-14)13-5-3-2-4-6-13/h2-6,11,18H,7-10,12H2,1H3
InChIKey=VHUHBRAJZOOOKJ-UHFFFAOYSA-N

> <PUBCHEM_SUBSTANCE_SYNONYM>
SCHEMBL16112019

> <PUBCHEM_XREF_EXT_ID>
SCHEMBL16112019

> <PUBCHEM_EXT_DATASOURCE_URL>
https://www.surechembl.org/

> <PUBCHEM_EXT_SUBSTANCE_URL>
https://www.surechembl.org/chemical/SCHEMBL16112019

> <PUBCHEM_CID_ASSOCIATIONS>
117602728  1

> <PUBCHEM_COORDINATE_TYPE>
1
3

$$$$
