310945530
  -OEChem-07211613022D

 26 29  0     0  0  0  0  0  0999 V2000
    2.9828    0.4419    0.0000 F   0  0  0  0  0  0  0  0  0  0  0  0
    2.4967   -0.5892    0.0000 F   0  0  0  0  0  0  0  0  0  0  0  0
    1.4509   -0.1031    0.0000 F   0  0  0  0  0  0  0  0  0  0  0  0
   -2.4083    1.5024    0.0000 O   0  0  0  0  0  0  0  0  0  0  0  0
    0.4198    0.7512    0.0000 N   0  0  0  0  0  0  0  0  0  0  0  0
    2.4525    1.6792    0.0000 N   0  0  0  0  0  0  0  0  0  0  0  0
   -0.3461   -1.3552    0.0000 N   0  0  0  0  0  0  0  0  0  0  0  0
    0.3314   -1.8560    0.0000 N   0  0  0  0  0  0  0  0  0  0  0  0
   -0.7586   -2.6366    0.0000 N   0  0  0  0  0  0  0  0  0  0  0  0
    1.0827    1.2520    0.0000 C   0  0  0  0  0  0  0  0  0  0  0  0
    0.8322    2.0180    0.0000 C   0  0  0  0  0  0  0  0  0  0  0  0
   -0.2578    1.2373    0.0000 C   0  0  0  0  0  0  0  0  0  0  0  0
    0.0074    2.0327    0.0000 C   0  0  0  0  0  0  0  0  0  0  0  0
    1.8928    1.0458    0.0000 C   0  0  0  0  0  0  0  0  0  0  0  0
    2.2021    0.1768    0.0000 C   0  0  0  0  0  0  0  0  0  0  0  0
    1.3919    2.6366    0.0000 C   0  0  0  0  0  0  0  0  0  0  0  0
   -1.0532    1.0753    0.0000 C   0  0  0  0  0  0  0  0  0  0  0  0
   -0.5377    2.6219    0.0000 C   0  0  0  0  0  0  0  0  0  0  0  0
    0.4051   -0.1179    0.0000 C   0  0  0  0  0  0  0  0  0  0  0  0
   -1.5982    1.6792    0.0000 C   0  0  0  0  0  0  0  0  0  0  0  0
    2.1874    2.4746    0.0000 C   0  0  0  0  0  0  0  0  0  0  0  0
   -1.3478    2.4599    0.0000 C   0  0  0  0  0  0  0  0  0  0  0  0
   -0.3314   -0.5303    0.0000 C   0  0  0  0  0  0  0  0  0  0  0  0
   -1.0090   -1.8560    0.0000 C   0  0  0  0  0  0  0  0  0  0  0  0
    0.0663   -2.6366    0.0000 C   0  0  0  0  0  0  0  0  0  0  0  0
   -2.9828    2.1064    0.0000 C   0  0  0  0  0  0  0  0  0  0  0  0
  1 15  1  0  0  0  0
  2 15  1  0  0  0  0
  3 15  1  0  0  0  0
  4 20  1  0  0  0  0
  4 26  1  0  0  0  0
  5 10  1  0  0  0  0
  5 12  1  0  0  0  0
  5 19  1  0  0  0  0
  6 14  2  0  0  0  0
  6 21  1  0  0  0  0
  7  8  1  0  0  0  0
  7 23  1  0  0  0  0
  7 24  1  0  0  0  0
  8 25  2  0  0  0  0
  9 24  2  0  0  0  0
  9 25  1  0  0  0  0
 10 11  2  0  0  0  0
 10 14  1  0  0  0  0
 11 13  1  0  0  0  0
 11 16  1  0  0  0  0
 12 13  2  0  0  0  0
 12 17  1  0  0  0  0
 13 18  1  0  0  0  0
 14 15  1  0  0  0  0
 16 21  2  0  0  0  0
 17 20  2  0  0  0  0
 18 22  2  0  0  0  0
 19 23  1  0  0  0  0
 20 22  1  0  0  0  0
M  END
> <PUBCHEM_COMPOUND_ID_TYPE>
0

> <PUBCHEM_TOTAL_CHARGE>
0

> <PUBCHEM_SUBSTANCE_ID>
310945530

> <PUBCHEM_SUBSTANCE_VERSION>
1

> <PUBCHEM_EXT_DATASOURCE_NAME>
4488

> <PUBCHEM_EXT_DATASOURCE_REGID>
SCHEMBL16123628

> <PUBCHEM_SUBSTANCE_COMMENT>
InChI=1S/C17H14F3N5O/c1-26-11-2-3-12-13-4-5-22-16(17(18,19)20)15(13)25(14(12)8-11)7-6-24-10-21-9-23-24/h2-5,8-10H,6-7H2,1H3
InChIKey=MMKVKKXWWORAIQ-UHFFFAOYSA-N

> <PUBCHEM_SUBSTANCE_SYNONYM>
SCHEMBL16123628

> <PUBCHEM_XREF_EXT_ID>
SCHEMBL16123628

> <PUBCHEM_EXT_DATASOURCE_URL>
https://www.surechembl.org/

> <PUBCHEM_EXT_SUBSTANCE_URL>
https://www.surechembl.org/chemical/SCHEMBL16123628

> <PUBCHEM_CID_ASSOCIATIONS>
117611571  1

> <PUBCHEM_COORDINATE_TYPE>
1
3

$$$$
