310935334
  -OEChem-07211613022D

 39 44  0     0  0  0  0  0  0999 V2000
    2.0094  -11.3432    0.0000 O   0  0  0  0  0  0  0  0  0  0  0  0
    0.5834  -11.3432    0.0000 O   0  0  0  0  0  0  0  0  0  0  0  0
    0.5834   -4.0187    0.0000 N   0  0  0  0  0  0  0  0  0  0  0  0
    0.0000   -3.4354    0.0000 N   0  0  0  0  0  0  0  0  0  0  0  0
    2.0742   -3.9539    0.0000 N   0  0  0  0  0  0  0  0  0  0  0  0
    2.7872   -0.9075    0.0000 N   0  0  0  0  0  0  0  0  0  0  0  0
    1.2964   -8.4912    0.0000 N   0  0  0  0  0  0  0  0  0  0  0  0
    0.6482   -7.2597    0.0000 N   0  0  0  0  0  0  0  0  0  0  0  0
    1.2964  -10.1117    0.0000 N   0  0  0  0  0  0  0  0  0  0  0  0
    1.1667   -2.7872    0.0000 C   0  0  0  0  0  0  0  0  0  0  0  0
    1.3612   -3.5650    0.0000 C   0  0  0  0  0  0  0  0  0  0  0  0
    1.6853   -2.1390    0.0000 C   0  0  0  0  0  0  0  0  0  0  0  0
    2.5279   -2.3335    0.0000 C   0  0  0  0  0  0  0  0  0  0  0  0
    0.3241   -2.6576    0.0000 C   0  0  0  0  0  0  0  0  0  0  0  0
    1.2964   -5.1854    0.0000 C   0  0  0  0  0  0  0  0  0  0  0  0
    3.0465   -1.6853    0.0000 C   0  0  0  0  0  0  0  0  0  0  0  0
    0.6482   -4.7965    0.0000 C   0  0  0  0  0  0  0  0  0  0  0  0
    1.4260   -1.3612    0.0000 C   0  0  0  0  0  0  0  0  0  0  0  0
    1.2964   -6.0281    0.0000 C   0  0  0  0  0  0  0  0  0  0  0  0
    2.0742   -4.7965    0.0000 C   0  0  0  0  0  0  0  0  0  0  0  0
    1.9445   -0.7778    0.0000 C   0  0  0  0  0  0  0  0  0  0  0  0
    2.7224   -3.1113    0.0000 C   0  0  0  0  0  0  0  0  0  0  0  0
    3.8243   -1.8798    0.0000 C   0  0  0  0  0  0  0  0  0  0  0  0
    1.2964   -7.6486    0.0000 C   0  0  0  0  0  0  0  0  0  0  0  0
    0.5834   -6.4170    0.0000 C   0  0  0  0  0  0  0  0  0  0  0  0
    2.0094   -6.4170    0.0000 C   0  0  0  0  0  0  0  0  0  0  0  0
    3.5650   -3.2409    0.0000 C   0  0  0  0  0  0  0  0  0  0  0  0
    2.0094   -7.2597    0.0000 C   0  0  0  0  0  0  0  0  0  0  0  0
    4.0836   -2.6576    0.0000 C   0  0  0  0  0  0  0  0  0  0  0  0
    1.7501    0.0000    0.0000 C   0  0  0  0  0  0  0  0  0  0  0  0
    0.5834   -8.8801    0.0000 C   0  0  0  0  0  0  0  0  0  0  0  0
    2.0094   -8.8801    0.0000 C   0  0  0  0  0  0  0  0  0  0  0  0
    2.0094   -9.7228    0.0000 C   0  0  0  0  0  0  0  0  0  0  0  0
    0.5834   -9.7228    0.0000 C   0  0  0  0  0  0  0  0  0  0  0  0
    1.2964  -10.9543    0.0000 C   0  0  0  0  0  0  0  0  0  0  0  0
    2.0094  -12.1210    0.0000 C   0  0  0  0  0  0  0  0  0  0  0  0
    1.1667  -12.1210    0.0000 C   0  0  0  0  0  0  0  0  0  0  0  0
    2.0094  -12.9637    0.0000 C   0  0  0  0  0  0  0  0  0  0  0  0
    2.8520  -12.1210    0.0000 C   0  0  0  0  0  0  0  0  0  0  0  0
  1 35  1  0  0  0  0
  1 36  1  0  0  0  0
  2 35  2  0  0  0  0
  3  4  1  0  0  0  0
  3 11  1  0  0  0  0
  3 17  1  0  0  0  0
  4 14  2  0  0  0  0
  5 11  1  0  0  0  0
  5 20  2  0  0  0  0
  6 16  2  0  0  0  0
  6 21  1  0  0  0  0
  7 24  1  0  0  0  0
  7 31  1  0  0  0  0
  7 32  1  0  0  0  0
  8 24  1  0  0  0  0
  8 25  2  0  0  0  0
  9 33  1  0  0  0  0
  9 34  1  0  0  0  0
  9 35  1  0  0  0  0
 10 11  2  0  0  0  0
 10 12  1  0  0  0  0
 10 14  1  0  0  0  0
 12 13  2  0  0  0  0
 12 18  1  0  0  0  0
 13 16  1  0  0  0  0
 13 22  1  0  0  0  0
 15 17  2  0  0  0  0
 15 19  1  0  0  0  0
 15 20  1  0  0  0  0
 16 23  1  0  0  0  0
 18 21  2  0  0  0  0
 19 25  1  0  0  0  0
 19 26  2  0  0  0  0
 21 30  1  0  0  0  0
 22 27  2  0  0  0  0
 23 29  2  0  0  0  0
 24 28  2  0  0  0  0
 26 28  1  0  0  0  0
 27 29  1  0  0  0  0
 31 34  1  0  0  0  0
 32 33  1  0  0  0  0
 36 37  1  0  0  0  0
 36 38  1  0  0  0  0
 36 39  1  0  0  0  0
M  END
> <PUBCHEM_COMPOUND_ID_TYPE>
0

> <PUBCHEM_TOTAL_CHARGE>
0

> <PUBCHEM_SUBSTANCE_ID>
310935334

> <PUBCHEM_SUBSTANCE_VERSION>
1

> <PUBCHEM_EXT_DATASOURCE_NAME>
4488

> <PUBCHEM_EXT_DATASOURCE_REGID>
SCHEMBL16112868

> <PUBCHEM_SUBSTANCE_COMMENT>
InChI=1S/C30H31N7O2/c1-20-15-24(23-7-5-6-8-26(23)34-20)25-18-33-37-19-22(17-32-28(25)37)21-9-10-27(31-16-21)35-11-13-36(14-12-35)29(38)39-30(2,3)4/h5-10,15-19H,11-14H2,1-4H3
InChIKey=OZLIXNWHZQVVMU-UHFFFAOYSA-N

> <PUBCHEM_SUBSTANCE_SYNONYM>
SCHEMBL16112868

> <PUBCHEM_XREF_EXT_ID>
SCHEMBL16112868

> <PUBCHEM_EXT_DATASOURCE_URL>
https://www.surechembl.org/

> <PUBCHEM_EXT_SUBSTANCE_URL>
https://www.surechembl.org/chemical/SCHEMBL16112868

> <PUBCHEM_CID_ASSOCIATIONS>
117603390  1

> <PUBCHEM_COORDINATE_TYPE>
1
3

$$$$
