310945911
  -OEChem-07211613022D

 30 33  0     1  0  0  0  0  0999 V2000
    1.0220    3.4067    0.0000 F   0  0  0  0  0  0  0  0  0  0  0  0
    1.3335    2.3166    0.0000 F   0  0  0  0  0  0  0  0  0  0  0  0
    0.2238    2.0440    0.0000 F   0  0  0  0  0  0  0  0  0  0  0  0
   -1.5476   -1.9078    0.0000 O   0  0  0  0  0  0  0  0  0  0  0  0
    1.3140   -1.9078    0.0000 O   0  0  0  0  0  0  0  0  0  0  0  0
    2.0538   -3.1537    0.0000 O   0  0  0  0  0  0  0  0  0  0  0  0
   -0.8274   -0.6813    0.0000 N   0  0  0  0  0  0  0  0  0  0  0  0
   -0.1070   -1.9078    0.0000 N   0  0  0  0  0  0  0  0  0  0  0  0
   -0.8468   -3.1731    0.0000 N   0  0  0  0  0  0  0  0  0  0  0  0
    0.5938   -3.9907    0.0000 N   0  0  0  0  0  0  0  0  0  0  0  0
   -1.2557    0.6424    0.0000 C   0  0  3  0  0  0  0  0  0  0  0  0
   -0.4185    0.6229    0.0000 C   0  0  3  0  0  0  0  0  0  0  0  0
   -0.8079    1.9078    0.0000 C   0  0  0  0  0  0  0  0  0  0  0  0
   -0.8079    2.7838    0.0000 C   0  0  0  0  0  0  0  0  0  0  0  0
   -1.4697    1.4211    0.0000 C   0  0  0  0  0  0  0  0  0  0  0  0
   -0.1460    1.4016    0.0000 C   0  0  0  0  0  0  0  0  0  0  0  0
   -0.1070    3.1537    0.0000 C   0  0  0  0  0  0  0  0  0  0  0  0
   -1.5087   -0.1557    0.0000 C   0  0  0  0  0  0  0  0  0  0  0  0
   -0.1849   -0.1947    0.0000 C   0  0  0  0  0  0  0  0  0  0  0  0
   -0.8468   -1.4795    0.0000 C   0  0  0  0  0  0  0  0  0  0  0  0
    0.6132    2.7254    0.0000 C   0  0  0  0  0  0  0  0  0  0  0  0
   -1.5282    3.1342    0.0000 C   0  0  0  0  0  0  0  0  0  0  0  0
   -0.1460   -2.7643    0.0000 C   0  0  0  0  0  0  0  0  0  0  0  0
   -0.1070    3.9518    0.0000 C   0  0  0  0  0  0  0  0  0  0  0  0
    0.6132   -3.1537    0.0000 C   0  0  0  0  0  0  0  0  0  0  0  0
   -1.5476    3.9518    0.0000 C   0  0  0  0  0  0  0  0  0  0  0  0
   -0.7884    4.3996    0.0000 C   0  0  0  0  0  0  0  0  0  0  0  0
    1.3140   -2.7643    0.0000 C   0  0  0  0  0  0  0  0  0  0  0  0
   -0.8468   -3.9907    0.0000 C   0  0  0  0  0  0  0  0  0  0  0  0
   -0.1070   -4.3996    0.0000 C   0  0  0  0  0  0  0  0  0  0  0  0
  1 21  1  0  0  0  0
  2 21  1  0  0  0  0
  3 21  1  0  0  0  0
  4 20  2  0  0  0  0
  5 28  2  0  0  0  0
  6 28  1  0  0  0  0
  7 18  1  0  0  0  0
  7 19  1  0  0  0  0
  7 20  1  0  0  0  0
  8 20  1  0  0  0  0
  8 23  1  0  0  0  0
  9 23  2  0  0  0  0
  9 29  1  0  0  0  0
 10 25  2  0  0  0  0
 10 30  1  0  0  0  0
 11 12  1  0  0  0  0
 11 15  1  1  0  0  0
 11 18  1  0  0  0  0
 12 16  1  1  0  0  0
 12 19  1  0  0  0  0
 13 14  1  0  0  0  0
 13 15  1  1  0  0  0
 13 16  1  0  0  0  0
 14 17  2  0  0  0  0
 14 22  1  0  0  0  0
 17 21  1  0  0  0  0
 17 24  1  0  0  0  0
 22 26  2  0  0  0  0
 23 25  1  0  0  0  0
 24 27  2  0  0  0  0
 25 28  1  0  0  0  0
 26 27  1  0  0  0  0
 29 30  2  0  0  0  0
M  END
> <PUBCHEM_COMPOUND_ID_TYPE>
0

> <PUBCHEM_TOTAL_CHARGE>
0

> <PUBCHEM_SUBSTANCE_ID>
310945911

> <PUBCHEM_SUBSTANCE_VERSION>
1

> <PUBCHEM_EXT_DATASOURCE_NAME>
4488

> <PUBCHEM_EXT_DATASOURCE_REGID>
SCHEMBL16124016

> <PUBCHEM_SUBSTANCE_COMMENT>
InChI=1S/C20H19F3N4O3/c21-20(22,23)15-4-2-1-3-14(15)11-7-12-9-27(10-13(12)8-11)19(30)26-17-16(18(28)29)24-5-6-25-17/h1-6,11-13H,7-10H2,(H,28,29)(H,25,26,30)/t11-,12-,13+
InChIKey=ZHNPSHDDKPJORV-XYYAHUGASA-N

> <PUBCHEM_SUBSTANCE_SYNONYM>
SCHEMBL16124016

> <PUBCHEM_XREF_EXT_ID>
SCHEMBL16124016

> <PUBCHEM_EXT_DATASOURCE_URL>
https://www.surechembl.org/

> <PUBCHEM_EXT_SUBSTANCE_URL>
https://www.surechembl.org/chemical/SCHEMBL16124016

> <PUBCHEM_CID_ASSOCIATIONS>
86304763  1

> <PUBCHEM_COORDINATE_TYPE>
1
3

> <PUBCHEM_BONDANNOTATIONS>
11  15  5
12  16  5
13  15  5

$$$$
