310932268
  -OEChem-07211613022D

 38 43  0     1  0  0  0  0  0999 V2000
    5.7404   -7.2511    0.0000 F   0  0  0  0  0  0  0  0  0  0  0  0
    4.9348   -5.7908    0.0000 O   0  0  0  0  0  0  0  0  0  0  0  0
    1.5610   -5.7404    0.0000 O   0  0  0  0  0  0  0  0  0  0  0  0
    3.2731  -10.0710    0.0000 O   0  0  0  0  0  0  0  0  0  0  0  0
    2.0142   -3.5752    0.0000 O   0  0  0  0  0  0  0  0  0  0  0  0
    2.8199   -5.0355    0.0000 N   0  0  0  0  0  0  0  0  0  0  0  0
    4.4816   -7.9057    0.0000 N   0  0  0  0  0  0  0  0  0  0  0  0
    3.2731   -2.8702    0.0000 N   0  0  0  0  0  0  0  0  0  0  0  0
    1.5610   -4.2802    0.0000 N   0  0  0  0  0  0  0  0  0  0  0  0
    1.2589   -2.1652    0.0000 N   0  0  0  0  0  0  0  0  0  0  0  0
    0.0000    0.0000    0.0000 N   0  0  0  0  0  0  0  0  0  0  0  0
    3.2227   -5.7404    0.0000 C   0  0  3  0  0  0  0  0  0  0  0  0
    3.6759   -6.4958    0.0000 C   0  0  0  0  0  0  0  0  0  0  0  0
    3.6759   -5.0355    0.0000 C   0  0  0  0  0  0  0  0  0  0  0  0
    4.4816   -6.4958    0.0000 C   0  0  0  0  0  0  0  0  0  0  0  0
    4.4816   -5.0355    0.0000 C   0  0  0  0  0  0  0  0  0  0  0  0
    2.7695   -6.4454    0.0000 C   0  0  0  0  0  0  0  0  0  0  0  0
    3.2227   -7.2511    0.0000 C   0  0  0  0  0  0  0  0  0  0  0  0
    4.8844   -7.2511    0.0000 C   0  0  0  0  0  0  0  0  0  0  0  0
    3.2227   -4.2802    0.0000 C   0  0  0  0  0  0  0  0  0  0  0  0
    3.6256   -7.9057    0.0000 C   0  0  0  0  0  0  0  0  0  0  0  0
    4.9348   -4.2802    0.0000 C   0  0  0  0  0  0  0  0  0  0  0  0
    1.9639   -5.0355    0.0000 C   0  0  0  0  0  0  0  0  0  0  0  0
    3.6759   -3.6256    0.0000 C   0  0  0  0  0  0  0  0  0  0  0  0
    1.9639   -6.4454    0.0000 C   0  0  0  0  0  0  0  0  0  0  0  0
    4.5319   -3.6256    0.0000 C   0  0  0  0  0  0  0  0  0  0  0  0
    3.2227   -8.6107    0.0000 C   0  0  0  0  0  0  0  0  0  0  0  0
    3.6759   -9.3156    0.0000 C   0  0  0  0  0  0  0  0  0  0  0  0
    2.4170   -8.6107    0.0000 C   0  0  0  0  0  0  0  0  0  0  0  0
    2.4674   -2.8702    0.0000 C   0  0  0  0  0  0  0  0  0  0  0  0
    2.0645   -2.1652    0.0000 C   0  0  0  0  0  0  0  0  0  0  0  0
    2.0142   -9.3660    0.0000 C   0  0  0  0  0  0  0  0  0  0  0  0
    2.4170  -10.0710    0.0000 C   0  0  0  0  0  0  0  0  0  0  0  0
    2.4674   -1.4603    0.0000 C   0  0  0  0  0  0  0  0  0  0  0  0
    1.2589   -0.7553    0.0000 C   0  0  0  0  0  0  0  0  0  0  0  0
    0.8057   -1.4603    0.0000 C   0  0  0  0  0  0  0  0  0  0  0  0
    2.0645   -0.7553    0.0000 C   0  0  0  0  0  0  0  0  0  0  0  0
    0.8057    0.0000    0.0000 C   0  0  0  0  0  0  0  0  0  0  0  0
  1 19  1  0  0  0  0
  2 15  1  0  0  0  0
  2 16  1  0  0  0  0
  3 23  1  0  0  0  0
  3 25  1  0  0  0  0
  4 28  1  0  0  0  0
  4 33  1  0  0  0  0
  5 30  2  0  0  0  0
 12  6  1  1  0  0  0
  6 23  2  0  0  0  0
  7 19  1  0  0  0  0
  7 21  2  0  0  0  0
  8 24  1  0  0  0  0
  8 30  1  0  0  0  0
  9 23  1  0  0  0  0
 10 31  1  0  0  0  0
 10 36  2  0  0  0  0
 11 38  3  0  0  0  0
 12 13  1  0  0  0  0
 12 14  1  0  0  0  0
 12 17  1  0  0  0  0
 13 15  1  0  0  0  0
 13 18  2  0  0  0  0
 14 16  2  0  0  0  0
 14 20  1  0  0  0  0
 15 19  2  0  0  0  0
 16 22  1  0  0  0  0
 17 25  1  0  0  0  0
 18 21  1  0  0  0  0
 20 24  2  0  0  0  0
 21 27  1  0  0  0  0
 22 26  2  0  0  0  0
 24 26  1  0  0  0  0
 27 28  1  0  0  0  0
 27 29  2  0  0  0  0
 29 32  1  0  0  0  0
 30 31  1  0  0  0  0
 31 34  2  0  0  0  0
 32 33  1  0  0  0  0
 34 37  1  0  0  0  0
 35 36  1  0  0  0  0
 35 37  2  0  0  0  0
 35 38  1  0  0  0  0
M  END
> <PUBCHEM_COMPOUND_ID_TYPE>
0

> <PUBCHEM_TOTAL_CHARGE>
0

> <PUBCHEM_SUBSTANCE_ID>
310932268

> <PUBCHEM_SUBSTANCE_VERSION>
1

> <PUBCHEM_EXT_DATASOURCE_NAME>
4488

> <PUBCHEM_EXT_DATASOURCE_REGID>
SCHEMBL16109627

> <PUBCHEM_SUBSTANCE_COMMENT>
InChI=1S/C27H21FN6O4/c28-24-23-19(11-21(33-24)16-2-1-8-36-14-16)27(7-9-37-26(30)34-27)18-10-17(4-6-22(18)38-23)32-25(35)20-5-3-15(12-29)13-31-20/h2-6,10-11,13H,1,7-9,14H2,(H2,30,34)(H,32,35)/t27-/m0/s1
InChIKey=JDRQGSSEECRIHA-MHZLTWQESA-N

> <PUBCHEM_SUBSTANCE_SYNONYM>
SCHEMBL16109627

> <PUBCHEM_XREF_EXT_ID>
SCHEMBL16109627

> <PUBCHEM_EXT_DATASOURCE_URL>
https://www.surechembl.org/

> <PUBCHEM_EXT_SUBSTANCE_URL>
https://www.surechembl.org/chemical/SCHEMBL16109627

> <PUBCHEM_CID_ASSOCIATIONS>
71542702  1

> <PUBCHEM_COORDINATE_TYPE>
1
3

> <PUBCHEM_BONDANNOTATIONS>
12  6  5

$$$$
