310932090
  -OEChem-07211613022D

 30 34  0     1  0  0  0  0  0999 V2000
    1.4384   -1.6506    0.0000 I   0  0  0  0  0  0  0  0  0  0  0  0
    7.0742   -1.6035    0.0000 Br  0  0  0  0  0  0  0  0  0  0  0  0
    4.2445    0.0000    0.0000 O   0  0  0  0  0  0  0  0  0  0  0  0
    4.2681   -3.3249    0.0000 O   0  0  0  0  0  0  0  0  0  0  0  0
    2.1458   -2.0751    0.0000 O   0  0  0  0  0  0  0  0  0  0  0  0
    3.5607   -2.0987    0.0000 N   0  0  0  0  0  0  0  0  0  0  0  0
    5.6829    0.0000    0.0000 N   0  0  0  0  0  0  0  0  0  0  0  0
    2.8533   -3.3013    0.0000 N   0  0  0  0  0  0  0  0  0  0  0  0
    4.2445   -1.6506    0.0000 C   0  0  3  0  0  0  0  0  0  0  0  0
    4.9755   -1.2262    0.0000 C   0  0  0  0  0  0  0  0  0  0  0  0
    3.5135   -1.2498    0.0000 C   0  0  0  0  0  0  0  0  0  0  0  0
    4.9520   -0.4245    0.0000 C   0  0  0  0  0  0  0  0  0  0  0  0
    3.5135   -0.4245    0.0000 C   0  0  0  0  0  0  0  0  0  0  0  0
    4.9520   -2.0751    0.0000 C   0  0  0  0  0  0  0  0  0  0  0  0
    5.7065   -1.6506    0.0000 C   0  0  0  0  0  0  0  0  0  0  0  0
    2.8061   -1.6742    0.0000 C   0  0  0  0  0  0  0  0  0  0  0  0
    3.5607   -2.9004    0.0000 C   0  0  0  0  0  0  0  0  0  0  0  0
    2.8061   -0.0236    0.0000 C   0  0  0  0  0  0  0  0  0  0  0  0
    6.3432   -1.2262    0.0000 C   0  0  0  0  0  0  0  0  0  0  0  0
    4.9755   -2.8769    0.0000 C   0  0  0  0  0  0  0  0  0  0  0  0
    2.1458   -1.2498    0.0000 C   0  0  0  0  0  0  0  0  0  0  0  0
    6.3432   -0.4009    0.0000 C   0  0  0  0  0  0  0  0  0  0  0  0
    2.1222   -0.4481    0.0000 C   0  0  0  0  0  0  0  0  0  0  0  0
    2.1458   -2.9004    0.0000 C   0  0  0  0  0  0  0  0  0  0  0  0
    1.4149   -3.3013    0.0000 C   0  0  0  0  0  0  0  0  0  0  0  0
    0.7310   -2.9004    0.0000 C   0  0  0  0  0  0  0  0  0  0  0  0
    1.4149   -4.1266    0.0000 C   0  0  0  0  0  0  0  0  0  0  0  0
    0.0000   -3.3013    0.0000 C   0  0  0  0  0  0  0  0  0  0  0  0
    0.7310   -4.5275    0.0000 C   0  0  0  0  0  0  0  0  0  0  0  0
    0.0000   -4.1266    0.0000 C   0  0  0  0  0  0  0  0  0  0  0  0
  1 21  1  0  0  0  0
  2 19  1  0  0  0  0
  3 12  1  0  0  0  0
  3 13  1  0  0  0  0
  4 17  1  0  0  0  0
  4 20  1  0  0  0  0
  5 24  2  0  0  0  0
  9  6  1  6  0  0  0
  6 17  2  0  0  0  0
  7 12  1  0  0  0  0
  7 22  2  0  0  0  0
  8 17  1  0  0  0  0
  8 24  1  0  0  0  0
  9 10  1  0  0  0  0
  9 11  1  0  0  0  0
  9 14  1  0  0  0  0
 10 12  2  0  0  0  0
 10 15  1  0  0  0  0
 11 13  2  0  0  0  0
 11 16  1  0  0  0  0
 13 18  1  0  0  0  0
 14 20  1  0  0  0  0
 15 19  2  0  0  0  0
 16 21  2  0  0  0  0
 18 23  2  0  0  0  0
 19 22  1  0  0  0  0
 21 23  1  0  0  0  0
 24 25  1  0  0  0  0
 25 26  2  0  0  0  0
 25 27  1  0  0  0  0
 26 28  1  0  0  0  0
 27 29  2  0  0  0  0
 28 30  2  0  0  0  0
 29 30  1  0  0  0  0
M  END
> <PUBCHEM_COMPOUND_ID_TYPE>
0

> <PUBCHEM_TOTAL_CHARGE>
0

> <PUBCHEM_SUBSTANCE_ID>
310932090

> <PUBCHEM_SUBSTANCE_VERSION>
1

> <PUBCHEM_EXT_DATASOURCE_NAME>
4488

> <PUBCHEM_EXT_DATASOURCE_REGID>
SCHEMBL16109438

> <PUBCHEM_SUBSTANCE_COMMENT>
InChI=1S/C22H15BrIN3O3/c23-14-10-17-20(25-12-14)30-18-7-6-15(24)11-16(18)22(17)8-9-29-21(27-22)26-19(28)13-4-2-1-3-5-13/h1-7,10-12H,8-9H2,(H,26,27,28)/t22-/m1/s1
InChIKey=JEBJGRZVOHOEGE-JOCHJYFZSA-N

> <PUBCHEM_SUBSTANCE_SYNONYM>
SCHEMBL16109438

> <PUBCHEM_XREF_EXT_ID>
SCHEMBL16109438

> <PUBCHEM_EXT_DATASOURCE_URL>
https://www.surechembl.org/

> <PUBCHEM_EXT_SUBSTANCE_URL>
https://www.surechembl.org/chemical/SCHEMBL16109438

> <PUBCHEM_CID_ASSOCIATIONS>
117600713  1

> <PUBCHEM_COORDINATE_TYPE>
1
3

> <PUBCHEM_BONDANNOTATIONS>
9  6  6

$$$$
