310932701
  -OEChem-07211613022D

 28 32  0     0  0  0  0  0  0999 V2000
    0.0000   -4.3988    0.0000 O   0  0  0  0  0  0  0  0  0  0  0  0
    5.5260   -3.2991    0.0000 O   0  0  0  0  0  0  0  0  0  0  0  0
    4.2063   -2.6393    0.0000 N   0  0  0  0  0  0  0  0  0  0  0  0
    4.2063   -3.9589    0.0000 N   0  0  0  0  0  0  0  0  0  0  0  0
    0.4124   -5.1411    0.0000 N   0  0  0  0  0  0  0  0  0  0  0  0
    1.2371   -0.0275    0.0000 N   0  0  0  0  0  0  0  0  0  0  0  0
    2.6943   -2.4743    0.0000 C   0  0  0  0  0  0  0  0  0  0  0  0
    3.4091   -2.8592    0.0000 C   0  0  0  0  0  0  0  0  0  0  0  0
    2.6943   -1.6496    0.0000 C   0  0  0  0  0  0  0  0  0  0  0  0
    3.4091   -3.7115    0.0000 C   0  0  0  0  0  0  0  0  0  0  0  0
    2.0069   -3.7115    0.0000 C   0  0  0  0  0  0  0  0  0  0  0  0
    2.0069   -2.8592    0.0000 C   0  0  0  0  0  0  0  0  0  0  0  0
    1.2921   -4.1239    0.0000 C   0  0  0  0  0  0  0  0  0  0  0  0
    1.9795   -1.2647    0.0000 C   0  0  0  0  0  0  0  0  0  0  0  0
    2.6943   -4.1239    0.0000 C   0  0  0  0  0  0  0  0  0  0  0  0
    3.4091   -1.2097    0.0000 C   0  0  0  0  0  0  0  0  0  0  0  0
    1.9795   -0.4399    0.0000 C   0  0  0  0  0  0  0  0  0  0  0  0
    4.7012   -3.2991    0.0000 C   0  0  0  0  0  0  0  0  0  0  0  0
    0.5499   -3.8214    0.0000 C   0  0  0  0  0  0  0  0  0  0  0  0
    1.2097   -4.9486    0.0000 C   0  0  0  0  0  0  0  0  0  0  0  0
    3.3816   -0.3849    0.0000 C   0  0  0  0  0  0  0  0  0  0  0  0
    1.2921   -1.6770    0.0000 C   0  0  0  0  0  0  0  0  0  0  0  0
    2.6668    0.0000    0.0000 C   0  0  0  0  0  0  0  0  0  0  0  0
    4.1239   -1.6220    0.0000 C   0  0  0  0  0  0  0  0  0  0  0  0
    0.5499   -1.2647    0.0000 C   0  0  0  0  0  0  0  0  0  0  0  0
    0.5223   -0.4399    0.0000 C   0  0  0  0  0  0  0  0  0  0  0  0
    0.3574   -2.9967    0.0000 C   0  0  0  0  0  0  0  0  0  0  0  0
    1.8145   -5.4985    0.0000 C   0  0  0  0  0  0  0  0  0  0  0  0
  1  5  1  0  0  0  0
  1 19  1  0  0  0  0
  2 18  2  0  0  0  0
  3  8  1  0  0  0  0
  3 18  1  0  0  0  0
  4 10  1  0  0  0  0
  4 18  1  0  0  0  0
  5 20  2  0  0  0  0
  6 17  2  0  0  0  0
  6 26  1  0  0  0  0
  7  8  1  0  0  0  0
  7  9  1  0  0  0  0
  7 12  2  0  0  0  0
  8 10  2  0  0  0  0
  9 14  1  0  0  0  0
  9 16  2  0  0  0  0
 10 15  1  0  0  0  0
 11 12  1  0  0  0  0
 11 13  1  0  0  0  0
 11 15  2  0  0  0  0
 13 19  2  0  0  0  0
 13 20  1  0  0  0  0
 14 17  1  0  0  0  0
 14 22  2  0  0  0  0
 16 21  1  0  0  0  0
 16 24  1  0  0  0  0
 17 23  1  0  0  0  0
 19 27  1  0  0  0  0
 20 28  1  0  0  0  0
 21 23  2  0  0  0  0
 22 25  1  0  0  0  0
 25 26  2  0  0  0  0
M  END
> <PUBCHEM_COMPOUND_ID_TYPE>
0

> <PUBCHEM_TOTAL_CHARGE>
0

> <PUBCHEM_SUBSTANCE_ID>
310932701

> <PUBCHEM_SUBSTANCE_VERSION>
1

> <PUBCHEM_EXT_DATASOURCE_NAME>
4488

> <PUBCHEM_EXT_DATASOURCE_REGID>
SCHEMBL16110083

> <PUBCHEM_SUBSTANCE_COMMENT>
InChI=1S/C22H18N4O2/c1-11-6-7-17-15(5-4-8-23-17)19(11)16-9-14(20-12(2)26-28-13(20)3)10-18-21(16)25-22(27)24-18/h4-10H,1-3H3,(H2,24,25,27)
InChIKey=VRLSARGDMZKGFM-UHFFFAOYSA-N

> <PUBCHEM_SUBSTANCE_SYNONYM>
SCHEMBL16110083

> <PUBCHEM_XREF_EXT_ID>
SCHEMBL16110083

> <PUBCHEM_EXT_DATASOURCE_URL>
https://www.surechembl.org/

> <PUBCHEM_EXT_SUBSTANCE_URL>
https://www.surechembl.org/chemical/SCHEMBL16110083

> <PUBCHEM_CID_ASSOCIATIONS>
86296389  1

> <PUBCHEM_COORDINATE_TYPE>
1
3

$$$$
