310929589
  -OEChem-07211613022D

 59 63  0     1  0  0  0  0  0999 V2000
   -8.6843    1.2375    0.0000 O   0  0  0  0  0  0  0  0  0  0  0  0
   -7.2553   -1.2375    0.0000 O   0  0  0  0  0  0  0  0  0  0  0  0
   -5.3587    2.5088    0.0000 O   0  0  0  0  0  0  0  0  0  0  0  0
   -2.1434    0.4125    0.0000 O   0  0  0  0  0  0  0  0  0  0  0  0
   -5.9205    3.4820    0.0000 O   0  0  0  0  0  0  0  0  0  0  0  0
   -5.5080    1.0877    0.0000 O   0  0  0  0  0  0  0  0  0  0  0  0
   -7.2260    4.0632    0.0000 O   0  0  0  0  0  0  0  0  0  0  0  0
    1.4290    0.0000    0.0000 O   0  0  0  0  0  0  0  0  0  0  0  0
   -1.4290   -0.8250    0.0000 O   0  0  0  0  0  0  0  0  0  0  0  0
    0.7145    1.2375    0.0000 O   0  0  0  0  0  0  0  0  0  0  0  0
   -9.3988    0.0000    0.0000 N   0  0  0  0  0  0  0  0  0  0  0  0
   -6.6641    1.9276    0.0000 N   0  0  0  0  0  0  0  0  0  0  0  0
   -9.3988   -2.4750    0.0000 N   0  0  0  0  0  0  0  0  0  0  0  0
   -0.7145    0.4125    0.0000 N   0  0  0  0  0  0  0  0  0  0  0  0
   -7.9698    0.0000    0.0000 C   0  0  0  0  0  0  0  0  0  0  0  0
   -7.9698   -0.8250    0.0000 C   0  0  0  0  0  0  0  0  0  0  0  0
   -8.6843    0.4125    0.0000 C   0  0  0  0  0  0  0  0  0  0  0  0
   -8.6843   -1.2375    0.0000 C   0  0  0  0  0  0  0  0  0  0  0  0
   -9.3988   -0.8250    0.0000 C   0  0  0  0  0  0  0  0  0  0  0  0
   -7.9698    1.6500    0.0000 C   0  0  3  0  0  0  0  0  0  0  0  0
   -7.0766    2.6420    0.0000 C   0  0  3  0  0  0  0  0  0  0  0  0
   -7.2161    1.3145    0.0000 C   0  0  0  0  0  0  0  0  0  0  0  0
   -7.8836    2.4705    0.0000 C   0  0  0  0  0  0  0  0  0  0  0  0
   -8.6843   -2.0625    0.0000 C   0  0  0  0  0  0  0  0  0  0  0  0
   -7.2553    0.4125    0.0000 C   0  0  0  0  0  0  0  0  0  0  0  0
   -5.8436    1.8413    0.0000 C   0  0  0  0  0  0  0  0  0  0  0  0
  -10.1133   -1.2375    0.0000 C   0  0  0  0  0  0  0  0  0  0  0  0
   -6.7410    3.3957    0.0000 C   0  0  0  0  0  0  0  0  0  0  0  0
   -2.8579    0.0000    0.0000 C   0  0  3  0  0  0  0  0  0  0  0  0
   -3.6829    0.0000    0.0000 C   0  0  3  0  0  0  0  0  0  0  0  0
  -10.1133   -2.0625    0.0000 C   0  0  0  0  0  0  0  0  0  0  0  0
   -7.2553   -2.0625    0.0000 C   0  0  0  0  0  0  0  0  0  0  0  0
   -3.2704   -0.7145    0.0000 C   0  0  0  0  0  0  0  0  0  0  0  0
   -6.5409    0.0000    0.0000 C   0  0  0  0  0  0  0  0  0  0  0  0
   -4.5382    2.4225    0.0000 C   0  0  0  0  0  0  0  0  0  0  0  0
    0.0000    0.0000    0.0000 C   0  0  3  0  0  0  0  0  0  0  0  0
   -4.3974    0.4125    0.0000 C   0  0  0  0  0  0  0  0  0  0  0  0
   -6.5409   -2.4750    0.0000 C   0  0  0  0  0  0  0  0  0  0  0  0
   -1.4290    0.0000    0.0000 C   0  0  0  0  0  0  0  0  0  0  0  0
    0.0000   -0.8250    0.0000 C   0  0  0  0  0  0  0  0  0  0  0  0
   -5.8263    0.4125    0.0000 C   0  0  0  0  0  0  0  0  0  0  0  0
    0.7145    0.4125    0.0000 C   0  0  0  0  0  0  0  0  0  0  0  0
   -5.1119    0.0000    0.0000 C   0  0  0  0  0  0  0  0  0  0  0  0
   -6.5409   -3.3000    0.0000 C   0  0  0  0  0  0  0  0  0  0  0  0
   -5.8263   -2.0625    0.0000 C   0  0  0  0  0  0  0  0  0  0  0  0
   -3.7177    2.3363    0.0000 C   0  0  0  0  0  0  0  0  0  0  0  0
   -4.2026    1.6689    0.0000 C   0  0  0  0  0  0  0  0  0  0  0  0
   -4.0532    3.0900    0.0000 C   0  0  0  0  0  0  0  0  0  0  0  0
   -5.5850    4.2357    0.0000 C   0  0  0  0  0  0  0  0  0  0  0  0
    2.1434    0.4125    0.0000 C   0  0  0  0  0  0  0  0  0  0  0  0
    0.7145   -1.2375    0.0000 C   0  0  0  0  0  0  0  0  0  0  0  0
    0.0000   -1.6500    0.0000 C   0  0  0  0  0  0  0  0  0  0  0  0
   -0.7145   -1.2375    0.0000 C   0  0  0  0  0  0  0  0  0  0  0  0
   -5.8263   -3.7126    0.0000 C   0  0  0  0  0  0  0  0  0  0  0  0
   -5.1119   -2.4750    0.0000 C   0  0  0  0  0  0  0  0  0  0  0  0
   -5.1119   -3.3000    0.0000 C   0  0  0  0  0  0  0  0  0  0  0  0
    2.1434    1.2375    0.0000 C   0  0  0  0  0  0  0  0  0  0  0  0
    2.8579    0.8250    0.0000 C   0  0  0  0  0  0  0  0  0  0  0  0
    2.8579    0.0000    0.0000 C   0  0  0  0  0  0  0  0  0  0  0  0
  1 17  1  0  0  0  0
 20  1  1  6  0  0  0
  2 16  1  0  0  0  0
  2 32  1  0  0  0  0
  3 26  1  0  0  0  0
  3 35  1  0  0  0  0
 29  4  1  6  0  0  0
  4 39  1  0  0  0  0
  5 28  1  0  0  0  0
  5 49  1  0  0  0  0
  6 26  2  0  0  0  0
  7 28  2  0  0  0  0
  8 42  1  0  0  0  0
  8 50  1  0  0  0  0
  9 39  2  0  0  0  0
 10 42  2  0  0  0  0
 11 17  2  0  0  0  0
 11 19  1  0  0  0  0
 12 21  1  0  0  0  0
 12 22  1  0  0  0  0
 12 26  1  0  0  0  0
 13 24  1  0  0  0  0
 13 31  2  0  0  0  0
 36 14  1  6  0  0  0
 14 39  1  0  0  0  0
 15 16  2  0  0  0  0
 15 17  1  0  0  0  0
 15 25  1  0  0  0  0
 16 18  1  0  0  0  0
 18 19  1  0  0  0  0
 18 24  2  0  0  0  0
 19 27  2  0  0  0  0
 20 22  1  0  0  0  0
 20 23  1  0  0  0  0
 21 23  1  0  0  0  0
 21 28  1  1  0  0  0
 25 34  2  0  0  0  0
 27 31  1  0  0  0  0
 29 30  1  0  0  0  0
 29 33  1  0  0  0  0
 30 33  1  0  0  0  0
 30 37  1  1  0  0  0
 32 38  1  0  0  0  0
 34 41  1  0  0  0  0
 35 46  1  0  0  0  0
 35 47  1  0  0  0  0
 35 48  1  0  0  0  0
 36 40  1  0  0  0  0
 36 42  1  0  0  0  0
 37 43  1  0  0  0  0
 38 44  2  0  0  0  0
 38 45  1  0  0  0  0
 40 51  1  0  0  0  0
 40 52  1  0  0  0  0
 40 53  1  0  0  0  0
 41 43  1  0  0  0  0
 44 54  1  0  0  0  0
 45 55  2  0  0  0  0
 50 57  1  0  0  0  0
 50 58  1  0  0  0  0
 50 59  1  0  0  0  0
 54 56  2  0  0  0  0
 55 56  1  0  0  0  0
M  END
> <PUBCHEM_COMPOUND_ID_TYPE>
0

> <PUBCHEM_TOTAL_CHARGE>
0

> <PUBCHEM_SUBSTANCE_ID>
310929589

> <PUBCHEM_SUBSTANCE_VERSION>
1

> <PUBCHEM_EXT_DATASOURCE_NAME>
4488

> <PUBCHEM_EXT_DATASOURCE_REGID>
SCHEMBL16106775

> <PUBCHEM_SUBSTANCE_COMMENT>
InChI=1S/C45H60N4O10/c1-43(2,3)37(40(51)58-44(4,5)6)48-41(52)57-35-23-29(35)19-15-12-16-20-31-36(55-27-28-17-13-11-14-18-28)32-25-46-22-21-33(32)47-38(31)56-30-24-34(39(50)54-10)49(26-30)42(53)59-45(7,8)9/h11,13-14,16-18,20-22,25,29-30,34-35,37H,12,15,19,23-24,26-27H2,1-10H3,(H,48,52)/b20-16+/t29-,30-,34+,35-,37-/m1/s1
InChIKey=PWJDVIIFPPHYSU-SYBHMULYSA-N

> <PUBCHEM_SUBSTANCE_SYNONYM>
SCHEMBL16106775

> <PUBCHEM_XREF_EXT_ID>
SCHEMBL16106775

> <PUBCHEM_EXT_DATASOURCE_URL>
https://www.surechembl.org/

> <PUBCHEM_EXT_SUBSTANCE_URL>
https://www.surechembl.org/chemical/SCHEMBL16106775

> <PUBCHEM_CID_ASSOCIATIONS>
117598899  1

> <PUBCHEM_COORDINATE_TYPE>
1
3

> <PUBCHEM_BONDANNOTATIONS>
20  1  6
36  14  6
21  28  5
30  37  5
29  4  6

$$$$
