310942478
  -OEChem-07211613022D

 58 63  0     1  0  0  0  0  0999 V2000
   -2.5976   -2.1861    0.0000 S   0  0  0  0  0  0  0  0  0  0  0  0
   -2.8923    1.9896    0.0000 F   0  0  0  0  0  0  0  0  0  0  0  0
   -2.8923   -1.3633    0.0000 F   0  0  0  0  0  0  0  0  0  0  0  0
    3.6047    0.8474    0.0000 F   0  0  0  0  0  0  0  0  0  0  0  0
   -0.1167   -0.0246    0.0000 O   0  0  0  0  0  0  0  0  0  0  0  0
    1.9467    3.5863    0.0000 O   0  0  0  0  0  0  0  0  0  0  0  0
   -3.0766   -2.6652    0.0000 O   0  0  0  0  0  0  0  0  0  0  0  0
   -2.1309   -1.6826    0.0000 O   0  0  0  0  0  0  0  0  0  0  0  0
   -3.2731   -1.9896    0.0000 O   0  0  0  0  0  0  0  0  0  0  0  0
   -3.2117   -4.7408    0.0000 O   0  0  0  0  0  0  0  0  0  0  0  0
   -1.1115   -3.5248    0.0000 O   0  0  0  0  0  0  0  0  0  0  0  0
   -1.5536   -1.5843    0.0000 O   0  0  0  0  0  0  0  0  0  0  0  0
   -0.5465    2.1493    0.0000 N   0  0  0  0  0  0  0  0  0  0  0  0
    1.1115    0.7123    0.0000 N   0  0  0  0  0  0  0  0  0  0  0  0
   -0.6694    0.8106    0.0000 N   0  0  0  0  0  0  0  0  0  0  0  0
    1.1115   -0.7246    0.0000 N   0  0  0  0  0  0  0  0  0  0  0  0
   -2.2660   -3.9670    0.0000 N   0  0  0  0  0  0  0  0  0  0  0  0
    2.9906   -1.2282    0.0000 N   0  0  0  0  0  0  0  0  0  0  0  0
   -0.5465   -2.1493    0.0000 N   0  0  0  0  0  0  0  0  0  0  0  0
   -0.1413    1.4492    0.0000 C   0  0  0  0  0  0  0  0  0  0  0  0
    0.6940    1.4370    0.0000 C   0  0  3  0  0  0  0  0  0  0  0  0
   -1.4554    1.1667    0.0000 C   0  0  0  0  0  0  0  0  0  0  0  0
    1.1115    2.1616    0.0000 C   0  0  0  0  0  0  0  0  0  0  0  0
   -1.3571    1.9896    0.0000 C   0  0  0  0  0  0  0  0  0  0  0  0
   -2.1678    0.7492    0.0000 C   0  0  0  0  0  0  0  0  0  0  0  0
    0.7185   -0.0123    0.0000 C   0  0  0  0  0  0  0  0  0  0  0  0
   -0.1413    2.8985    0.0000 C   0  0  0  0  0  0  0  0  0  0  0  0
    1.9467    0.7123    0.0000 C   0  0  0  0  0  0  0  0  0  0  0  0
   -2.8923    1.1545    0.0000 C   0  0  0  0  0  0  0  0  0  0  0  0
   -2.1800   -0.0860    0.0000 C   0  0  0  0  0  0  0  0  0  0  0  0
    2.3643    0.0000    0.0000 C   0  0  3  0  0  0  0  0  0  0  0  0
    0.7062    2.8617    0.0000 C   0  0  0  0  0  0  0  0  0  0  0  0
    1.9467    2.1493    0.0000 C   0  0  0  0  0  0  0  0  0  0  0  0
   -0.5465    3.5986    0.0000 C   0  0  0  0  0  0  0  0  0  0  0  0
   -2.8801   -0.5036    0.0000 C   0  0  0  0  0  0  0  0  0  0  0  0
   -3.6047    0.7369    0.0000 C   0  0  0  0  0  0  0  0  0  0  0  0
    3.1748    0.1228    0.0000 C   0  0  3  0  0  0  0  0  0  0  0  0
   -3.6047   -0.0982    0.0000 C   0  0  0  0  0  0  0  0  0  0  0  0
    1.1238    3.5986    0.0000 C   0  0  0  0  0  0  0  0  0  0  0  0
    2.3520    2.8985    0.0000 C   0  0  0  0  0  0  0  0  0  0  0  0
    2.2537   -0.7860    0.0000 C   0  0  0  0  0  0  0  0  0  0  0  0
    0.7062   -1.4492    0.0000 C   0  0  3  0  0  0  0  0  0  0  0  0
   -1.3817    3.6108    0.0000 C   0  0  0  0  0  0  0  0  0  0  0  0
   -0.1413    4.3109    0.0000 C   0  0  0  0  0  0  0  0  0  0  0  0
    3.5556   -0.6141    0.0000 C   0  0  0  0  0  0  0  0  0  0  0  0
   -2.2660   -2.7511    0.0000 C   0  0  3  0  0  0  0  0  0  0  0  0
   -2.6099   -3.3530    0.0000 C   0  0  0  0  0  0  0  0  0  0  0  0
   -2.5362   -4.5811    0.0000 C   0  0  0  0  0  0  0  0  0  0  0  0
   -1.5905   -4.0407    0.0000 C   0  0  0  0  0  0  0  0  0  0  0  0
   -0.1289   -1.4492    0.0000 C   0  0  0  0  0  0  0  0  0  0  0  0
   -1.7747    4.3232    0.0000 C   0  0  0  0  0  0  0  0  0  0  0  0
   -0.5589    5.0355    0.0000 C   0  0  0  0  0  0  0  0  0  0  0  0
   -1.5782   -2.7634    0.0000 C   0  0  0  0  0  0  0  0  0  0  0  0
   -2.0203   -5.0355    0.0000 C   0  0  0  0  0  0  0  0  0  0  0  0
   -1.4309   -4.6917    0.0000 C   0  0  0  0  0  0  0  0  0  0  0  0
   -1.2220   -2.1616    0.0000 C   0  0  0  0  0  0  0  0  0  0  0  0
   -1.3694    5.0355    0.0000 C   0  0  0  0  0  0  0  0  0  0  0  0
    1.1238   -2.1493    0.0000 C   0  0  0  0  0  0  0  0  0  0  0  0
  1  7  2  0  0  0  0
  1  8  2  0  0  0  0
  1  9  1  0  0  0  0
  1 46  1  0  0  0  0
  2 29  1  0  0  0  0
  3 35  1  0  0  0  0
 37  4  1  1  0  0  0
  5 26  2  0  0  0  0
  6 39  1  0  0  0  0
  6 40  1  0  0  0  0
 10 48  2  0  0  0  0
 11 49  2  0  0  0  0
 12 56  2  0  0  0  0
 13 20  1  0  0  0  0
 13 24  1  0  0  0  0
 13 27  1  0  0  0  0
 21 14  1  1  0  0  0
 14 26  1  0  0  0  0
 14 28  1  0  0  0  0
 15 20  2  0  0  0  0
 15 22  1  0  0  0  0
 16 26  1  0  0  0  0
 16 42  1  0  0  0  0
 17 47  1  0  0  0  0
 17 48  1  0  0  0  0
 17 49  1  0  0  0  0
 18 41  1  0  0  0  0
 18 45  1  0  0  0  0
 19 50  1  0  0  0  0
 19 56  1  0  0  0  0
 20 21  1  0  0  0  0
 21 23  1  0  0  0  0
 22 24  2  0  0  0  0
 22 25  1  0  0  0  0
 23 32  1  0  0  0  0
 23 33  1  0  0  0  0
 25 29  1  0  0  0  0
 25 30  2  0  0  0  0
 27 34  1  0  0  0  0
 31 28  1  1  0  0  0
 29 36  2  0  0  0  0
 30 35  1  0  0  0  0
 31 37  1  0  0  0  0
 31 41  1  0  0  0  0
 32 39  1  0  0  0  0
 33 40  1  0  0  0  0
 34 43  2  0  0  0  0
 34 44  1  0  0  0  0
 35 38  2  0  0  0  0
 36 38  1  0  0  0  0
 37 45  1  0  0  0  0
 42 50  1  0  0  0  0
 42 58  1  1  0  0  0
 43 51  1  0  0  0  0
 44 52  2  0  0  0  0
 46 47  1  1  0  0  0
 46 53  1  0  0  0  0
 48 54  1  0  0  0  0
 49 55  1  0  0  0  0
 51 57  2  0  0  0  0
 52 57  1  0  0  0  0
 53 56  1  0  0  0  0
 54 55  2  0  0  0  0
M  END
> <PUBCHEM_COMPOUND_ID_TYPE>
0

> <PUBCHEM_TOTAL_CHARGE>
0

> <PUBCHEM_SUBSTANCE_ID>
310942478

> <PUBCHEM_SUBSTANCE_VERSION>
1

> <PUBCHEM_EXT_DATASOURCE_NAME>
4488

> <PUBCHEM_EXT_DATASOURCE_REGID>
SCHEMBL16120514

> <PUBCHEM_SUBSTANCE_COMMENT>
InChI=1S/C39H46F3N7O8S/c1-24(17-44-34(50)16-29(58(54,55)56)22-48-35(51)9-10-36(48)52)45-39(53)49(21-27-18-43-19-32(27)42)37(26-11-13-57-14-12-26)38-46-33(30-15-28(40)7-8-31(30)41)23-47(38)20-25-5-3-2-4-6-25/h2-10,15,23-24,26-27,29,32,37,43H,11-14,16-22H2,1H3,(H,44,50)(H,45,53)(H,54,55,56)/t24-,27-,29-,32-,37+/m0/s1
InChIKey=MQCHJRGMNYETTG-JHHJURISSA-N

> <PUBCHEM_SUBSTANCE_SYNONYM>
SCHEMBL16120514

> <PUBCHEM_XREF_EXT_ID>
SCHEMBL16120514

> <PUBCHEM_EXT_DATASOURCE_URL>
https://www.surechembl.org/

> <PUBCHEM_EXT_SUBSTANCE_URL>
https://www.surechembl.org/chemical/SCHEMBL16120514

> <PUBCHEM_CID_ASSOCIATIONS>
117609049  1

> <PUBCHEM_COORDINATE_TYPE>
1
3

> <PUBCHEM_BONDANNOTATIONS>
21  14  5
31  28  5
37  4  5
42  58  5
46  47  5

$$$$
