310931007
  -OEChem-07211613022D

 32 36  0     0  0  0  0  0  0999 V2000
    1.9325   -4.0448    0.0000 S   0  0  0  0  0  0  0  0  0  0  0  0
    1.3033   -2.6965    0.0000 S   0  0  0  0  0  0  0  0  0  0  0  0
    1.0337   -3.9998    0.0000 O   0  0  0  0  0  0  0  0  0  0  0  0
    2.7414   -4.0448    0.0000 O   0  0  0  0  0  0  0  0  0  0  0  0
    3.3706   -6.5165    0.0000 O   0  0  0  0  0  0  0  0  0  0  0  0
    1.0337   -1.2584    0.0000 N   0  0  0  0  0  0  0  0  0  0  0  0
    2.3370   -1.9325    0.0000 N   0  0  0  0  0  0  0  0  0  0  0  0
    4.7638   -8.9883    0.0000 N   0  0  0  0  0  0  0  0  0  0  0  0
    6.2469   -8.8086    0.0000 N   0  0  0  0  0  0  0  0  0  0  0  0
    2.6516   -7.7300    0.0000 N   0  0  0  0  0  0  0  0  0  0  0  0
    6.7412   -8.1794    0.0000 N   0  0  0  0  0  0  0  0  0  0  0  0
    1.9325   -3.1909    0.0000 C   0  0  0  0  0  0  0  0  0  0  0  0
    1.9325   -4.8537    0.0000 C   0  0  0  0  0  0  0  0  0  0  0  0
    1.5280   -1.9325    0.0000 C   0  0  0  0  0  0  0  0  0  0  0  0
    2.6066   -2.6965    0.0000 C   0  0  0  0  0  0  0  0  0  0  0  0
    1.2134   -5.2582    0.0000 C   0  0  0  0  0  0  0  0  0  0  0  0
    2.6516   -5.2582    0.0000 C   0  0  0  0  0  0  0  0  0  0  0  0
    5.4829   -7.7300    0.0000 C   0  0  0  0  0  0  0  0  0  0  0  0
    1.9325   -6.5165    0.0000 C   0  0  0  0  0  0  0  0  0  0  0  0
    5.4829   -8.5839    0.0000 C   0  0  0  0  0  0  0  0  0  0  0  0
    4.0448   -7.7300    0.0000 C   0  0  0  0  0  0  0  0  0  0  0  0
    1.2134   -6.0672    0.0000 C   0  0  0  0  0  0  0  0  0  0  0  0
    2.6516   -6.0672    0.0000 C   0  0  0  0  0  0  0  0  0  0  0  0
    4.7638   -7.3255    0.0000 C   0  0  0  0  0  0  0  0  0  0  0  0
    0.2247   -1.2584    0.0000 C   0  0  0  0  0  0  0  0  0  0  0  0
    1.3033   -0.4944    0.0000 C   0  0  0  0  0  0  0  0  0  0  0  0
    3.3257   -7.3255    0.0000 C   0  0  0  0  0  0  0  0  0  0  0  0
    4.0448   -8.5839    0.0000 C   0  0  0  0  0  0  0  0  0  0  0  0
    6.2469   -7.5052    0.0000 C   0  0  0  0  0  0  0  0  0  0  0  0
    1.9325   -7.3255    0.0000 C   0  0  0  0  0  0  0  0  0  0  0  0
    0.0000   -0.4944    0.0000 C   0  0  0  0  0  0  0  0  0  0  0  0
    0.6292    0.0000    0.0000 C   0  0  0  0  0  0  0  0  0  0  0  0
  1  3  2  0  0  0  0
  1  4  2  0  0  0  0
  1 12  1  0  0  0  0
  1 13  1  0  0  0  0
  2 12  1  0  0  0  0
  2 14  1  0  0  0  0
  5 27  2  0  0  0  0
  6 14  1  0  0  0  0
  6 25  1  0  0  0  0
  6 26  1  0  0  0  0
  7 14  2  0  0  0  0
  7 15  1  0  0  0  0
  8 20  1  0  0  0  0
  8 28  2  0  0  0  0
  9 11  1  0  0  0  0
  9 20  1  0  0  0  0
 10 27  1  0  0  0  0
 10 30  1  0  0  0  0
 11 29  2  0  0  0  0
 12 15  2  0  0  0  0
 13 16  2  0  0  0  0
 13 17  1  0  0  0  0
 16 22  1  0  0  0  0
 17 23  2  0  0  0  0
 18 20  2  0  0  0  0
 18 24  1  0  0  0  0
 18 29  1  0  0  0  0
 19 22  2  0  0  0  0
 19 23  1  0  0  0  0
 19 30  1  0  0  0  0
 21 24  2  0  0  0  0
 21 27  1  0  0  0  0
 21 28  1  0  0  0  0
 25 31  1  0  0  0  0
 26 32  1  0  0  0  0
 31 32  1  0  0  0  0
M  END
> <PUBCHEM_COMPOUND_ID_TYPE>
0

> <PUBCHEM_TOTAL_CHARGE>
0

> <PUBCHEM_SUBSTANCE_ID>
310931007

> <PUBCHEM_SUBSTANCE_VERSION>
1

> <PUBCHEM_EXT_DATASOURCE_NAME>
4488

> <PUBCHEM_EXT_DATASOURCE_REGID>
SCHEMBL16108307

> <PUBCHEM_SUBSTANCE_COMMENT>
InChI=1S/C21H20N6O3S2/c28-20(16-9-15-12-25-26-19(15)22-11-16)23-10-14-3-5-17(6-4-14)32(29,30)18-13-24-21(31-18)27-7-1-2-8-27/h3-6,9,11-13H,1-2,7-8,10H2,(H,23,28)(H,22,25,26)
InChIKey=HONUCECQBQKOCJ-UHFFFAOYSA-N

> <PUBCHEM_SUBSTANCE_SYNONYM>
SCHEMBL16108307

> <PUBCHEM_XREF_EXT_ID>
SCHEMBL16108307

> <PUBCHEM_EXT_DATASOURCE_URL>
https://www.surechembl.org/

> <PUBCHEM_EXT_SUBSTANCE_URL>
https://www.surechembl.org/chemical/SCHEMBL16108307

> <PUBCHEM_CID_ASSOCIATIONS>
117599935  1

> <PUBCHEM_COORDINATE_TYPE>
1
3

$$$$
