310937971
  -OEChem-07211613022D

 34 39  0     0  0  0  0  0  0999 V2000
    2.8334    0.1223    0.0000 N   0  0  0  0  0  0  0  0  0  0  0  0
    0.6674    0.3923    0.0000 C   0  0  0  0  0  0  0  0  0  0  0  0
    0.0000    0.8772    0.0000 C   0  0  0  0  0  0  0  0  0  0  0  0
    0.4125   -0.3923    0.0000 C   0  0  0  0  0  0  0  0  0  0  0  0
   -0.6674    0.3923    0.0000 C   0  0  0  0  0  0  0  0  0  0  0  0
   -0.4125   -0.3923    0.0000 C   0  0  0  0  0  0  0  0  0  0  0  0
    1.4744    0.5638    0.0000 C   0  0  0  0  0  0  0  0  0  0  0  0
    2.0264   -0.0493    0.0000 C   0  0  0  0  0  0  0  0  0  0  0  0
    1.7294    1.3485    0.0000 C   0  0  0  0  0  0  0  0  0  0  0  0
    0.9645   -1.0054    0.0000 C   0  0  0  0  0  0  0  0  0  0  0  0
   -1.4744    0.5638    0.0000 C   0  0  0  0  0  0  0  0  0  0  0  0
   -0.9645   -1.0054    0.0000 C   0  0  0  0  0  0  0  0  0  0  0  0
    1.7715   -0.8339    0.0000 C   0  0  0  0  0  0  0  0  0  0  0  0
   -0.4125    1.5917    0.0000 C   0  0  0  0  0  0  0  0  0  0  0  0
    0.4125    1.5917    0.0000 C   0  0  0  0  0  0  0  0  0  0  0  0
    1.1773    1.9615    0.0000 C   0  0  0  0  0  0  0  0  0  0  0  0
    2.5363    1.5200    0.0000 C   0  0  0  0  0  0  0  0  0  0  0  0
   -2.0264   -0.0493    0.0000 C   0  0  0  0  0  0  0  0  0  0  0  0
   -1.7715   -0.8339    0.0000 C   0  0  0  0  0  0  0  0  0  0  0  0
    3.3854   -0.4908    0.0000 C   0  0  0  0  0  0  0  0  0  0  0  0
    2.2392    2.9177    0.0000 C   0  0  0  0  0  0  0  0  0  0  0  0
    1.4322    2.7462    0.0000 C   0  0  0  0  0  0  0  0  0  0  0  0
    2.7913    2.3046    0.0000 C   0  0  0  0  0  0  0  0  0  0  0  0
    2.4941    3.7023    0.0000 C   0  0  0  0  0  0  0  0  0  0  0  0
    3.1305   -1.2754    0.0000 C   0  0  0  0  0  0  0  0  0  0  0  0
    4.1924   -0.3193    0.0000 C   0  0  0  0  0  0  0  0  0  0  0  0
    3.3011    3.8738    0.0000 C   0  0  0  0  0  0  0  0  0  0  0  0
    1.9421    4.3154    0.0000 C   0  0  0  0  0  0  0  0  0  0  0  0
    3.6825   -1.8885    0.0000 C   0  0  0  0  0  0  0  0  0  0  0  0
    4.7444   -0.9324    0.0000 C   0  0  0  0  0  0  0  0  0  0  0  0
    4.4895   -1.7170    0.0000 C   0  0  0  0  0  0  0  0  0  0  0  0
    3.5561    4.6584    0.0000 C   0  0  0  0  0  0  0  0  0  0  0  0
    2.1971    5.1000    0.0000 C   0  0  0  0  0  0  0  0  0  0  0  0
    3.0040    5.2715    0.0000 C   0  0  0  0  0  0  0  0  0  0  0  0
  1  8  1  0  0  0  0
  1 20  1  0  0  0  0
  2  3  1  0  0  0  0
  2  4  2  0  0  0  0
  2  7  1  0  0  0  0
  3  5  1  0  0  0  0
  3 14  1  0  0  0  0
  3 15  1  0  0  0  0
  4  6  1  0  0  0  0
  4 10  1  0  0  0  0
  5  6  2  0  0  0  0
  5 11  1  0  0  0  0
  6 12  1  0  0  0  0
  7  8  2  0  0  0  0
  7  9  1  0  0  0  0
  8 13  1  0  0  0  0
  9 16  2  0  0  0  0
  9 17  1  0  0  0  0
 10 13  2  0  0  0  0
 11 18  2  0  0  0  0
 12 19  2  0  0  0  0
 16 22  1  0  0  0  0
 17 23  2  0  0  0  0
 18 19  1  0  0  0  0
 20 25  2  0  0  0  0
 20 26  1  0  0  0  0
 21 22  2  0  0  0  0
 21 23  1  0  0  0  0
 21 24  1  0  0  0  0
 24 27  2  0  0  0  0
 24 28  1  0  0  0  0
 25 29  1  0  0  0  0
 26 30  2  0  0  0  0
 27 32  1  0  0  0  0
 28 33  2  0  0  0  0
 29 31  2  0  0  0  0
 30 31  1  0  0  0  0
 32 34  2  0  0  0  0
 33 34  1  0  0  0  0
M  END
> <PUBCHEM_COMPOUND_ID_TYPE>
0

> <PUBCHEM_TOTAL_CHARGE>
0

> <PUBCHEM_SUBSTANCE_ID>
310937971

> <PUBCHEM_SUBSTANCE_VERSION>
1

> <PUBCHEM_EXT_DATASOURCE_NAME>
4488

> <PUBCHEM_EXT_DATASOURCE_REGID>
SCHEMBL16115803

> <PUBCHEM_SUBSTANCE_COMMENT>
InChI=1S/C33H27N/c1-33(2)29-16-10-9-15-27(29)28-21-22-30(34-26-13-7-4-8-14-26)31(32(28)33)25-19-17-24(18-20-25)23-11-5-3-6-12-23/h3-22,34H,1-2H3
InChIKey=SMCLCDWNMPVWMT-UHFFFAOYSA-N

> <PUBCHEM_SUBSTANCE_SYNONYM>
SCHEMBL16115803

> <PUBCHEM_XREF_EXT_ID>
SCHEMBL16115803

> <PUBCHEM_EXT_DATASOURCE_URL>
https://www.surechembl.org/

> <PUBCHEM_EXT_SUBSTANCE_URL>
https://www.surechembl.org/chemical/SCHEMBL16115803

> <PUBCHEM_CID_ASSOCIATIONS>
117605572  1

> <PUBCHEM_COORDINATE_TYPE>
1
3

$$$$
