310940885
  -OEChem-07211613022D

 29 30  0     1  0  0  0  0  0999 V2000
    0.7752   -0.8730    0.0000 O   0  0  0  0  0  0  0  0  0  0  0  0
    0.0350   -0.4400    0.0000 O   0  0  0  0  0  0  0  0  0  0  0  0
    2.2419    1.6692    0.0000 O   0  0  0  0  0  0  0  0  0  0  0  0
    2.9823    0.3981    0.0000 O   0  0  0  0  0  0  0  0  0  0  0  0
    4.3931   -2.1022    0.0000 O   0  0  0  0  0  0  0  0  0  0  0  0
   -2.1581    1.6692    0.0000 O   0  0  0  0  0  0  0  0  0  0  0  0
   -5.1055    1.6692    0.0000 O   0  0  0  0  0  0  0  0  0  0  0  0
    0.7752    0.8311    0.0000 N   0  0  0  0  0  0  0  0  0  0  0  0
   -1.4318    0.4120    0.0000 N   0  0  0  0  0  0  0  0  0  0  0  0
   -3.6388    0.8311    0.0000 N   0  0  0  0  0  0  0  0  0  0  0  0
    1.5156    0.4120    0.0000 C   0  0  3  0  0  0  0  0  0  0  0  0
    1.5016   -0.4260    0.0000 C   0  0  3  0  0  0  0  0  0  0  0  0
    2.2559   -0.8590    0.0000 C   0  0  0  0  0  0  0  0  0  0  0  0
    0.0350    0.4400    0.0000 C   0  0  0  0  0  0  0  0  0  0  0  0
    2.2419    0.8032    0.0000 C   0  0  0  0  0  0  0  0  0  0  0  0
   -0.6914    0.8311    0.0000 C   0  0  3  0  0  0  0  0  0  0  0  0
    2.9543   -0.4680    0.0000 C   0  0  0  0  0  0  0  0  0  0  0  0
    2.2559   -1.6692    0.0000 C   0  0  0  0  0  0  0  0  0  0  0  0
    3.6388   -1.6692    0.0000 C   0  0  0  0  0  0  0  0  0  0  0  0
    3.6528   -0.8730    0.0000 C   0  0  0  0  0  0  0  0  0  0  0  0
    2.9683   -2.0743    0.0000 C   0  0  0  0  0  0  0  0  0  0  0  0
   -2.1721    0.8171    0.0000 C   0  0  0  0  0  0  0  0  0  0  0  0
   -2.8705    0.4120    0.0000 C   0  0  0  0  0  0  0  0  0  0  0  0
   -0.6914    1.6692    0.0000 C   0  0  0  0  0  0  0  0  0  0  0  0
   -3.6248    1.6832    0.0000 C   0  0  0  0  0  0  0  0  0  0  0  0
   -4.3512    0.4120    0.0000 C   0  0  0  0  0  0  0  0  0  0  0  0
   -4.3791    2.1022    0.0000 C   0  0  0  0  0  0  0  0  0  0  0  0
   -5.0915    0.8311    0.0000 C   0  0  0  0  0  0  0  0  0  0  0  0
    5.1055   -1.6971    0.0000 C   0  0  0  0  0  0  0  0  0  0  0  0
 12  1  1  1  0  0  0
  2 14  2  0  0  0  0
  3 15  2  0  0  0  0
  4 15  1  0  0  0  0
  5 19  1  0  0  0  0
  5 29  1  0  0  0  0
  6 22  2  0  0  0  0
  7 27  1  0  0  0  0
  7 28  1  0  0  0  0
 11  8  1  6  0  0  0
  8 14  1  0  0  0  0
  9 16  1  0  0  0  0
  9 22  1  0  0  0  0
 10 23  1  0  0  0  0
 10 25  1  0  0  0  0
 10 26  1  0  0  0  0
 11 12  1  0  0  0  0
 11 15  1  0  0  0  0
 12 13  1  0  0  0  0
 13 17  2  0  0  0  0
 13 18  1  0  0  0  0
 14 16  1  0  0  0  0
 16 24  1  1  0  0  0
 17 20  1  0  0  0  0
 18 21  2  0  0  0  0
 19 20  2  0  0  0  0
 19 21  1  0  0  0  0
 22 23  1  0  0  0  0
 25 27  1  0  0  0  0
 26 28  1  0  0  0  0
M  END
> <PUBCHEM_COMPOUND_ID_TYPE>
0

> <PUBCHEM_TOTAL_CHARGE>
0

> <PUBCHEM_SUBSTANCE_ID>
310940885

> <PUBCHEM_SUBSTANCE_VERSION>
1

> <PUBCHEM_EXT_DATASOURCE_NAME>
4488

> <PUBCHEM_EXT_DATASOURCE_REGID>
SCHEMBL16118844

> <PUBCHEM_SUBSTANCE_COMMENT>
InChI=1S/C19H27N3O7/c1-12(20-15(23)11-22-7-9-29-10-8-22)18(25)21-16(19(26)27)17(24)13-3-5-14(28-2)6-4-13/h3-6,12,16-17,24H,7-11H2,1-2H3,(H,20,23)(H,21,25)(H,26,27)/t12-,16-,17+/m0/s1
InChIKey=ZCANDMMZIHRQCE-AFAVFJNCSA-N

> <PUBCHEM_SUBSTANCE_SYNONYM>
SCHEMBL16118844

> <PUBCHEM_XREF_EXT_ID>
SCHEMBL16118844

> <PUBCHEM_EXT_DATASOURCE_URL>
https://www.surechembl.org/

> <PUBCHEM_EXT_SUBSTANCE_URL>
https://www.surechembl.org/chemical/SCHEMBL16118844

> <PUBCHEM_CID_ASSOCIATIONS>
117607802  1

> <PUBCHEM_COORDINATE_TYPE>
1
3

> <PUBCHEM_BONDANNOTATIONS>
12  1  5
16  24  5
11  8  6

$$$$
