310940869
  -OEChem-07211613022D

 43 46  0     1  0  0  0  0  0999 V2000
    5.0955    0.6708    0.0000 O   0  0  0  0  0  0  0  0  0  0  0  0
    3.9679   -1.2988    0.0000 O   0  0  0  0  0  0  0  0  0  0  0  0
    1.8127    0.7850    0.0000 O   0  0  0  0  0  0  0  0  0  0  0  0
   -0.3425   -1.2988    0.0000 O   0  0  0  0  0  0  0  0  0  0  0  0
    3.9679   -2.9545    0.0000 O   0  0  0  0  0  0  0  0  0  0  0  0
   -2.5121    0.7850    0.0000 O   0  0  0  0  0  0  0  0  0  0  0  0
   -5.3810    0.7850    0.0000 O   0  0  0  0  0  0  0  0  0  0  0  0
    2.5263   -0.4568    0.0000 N   0  0  0  0  0  0  0  0  0  0  0  0
    0.3711   -0.0428    0.0000 N   0  0  0  0  0  0  0  0  0  0  0  0
   -1.7842   -0.4568    0.0000 N   0  0  0  0  0  0  0  0  0  0  0  0
   -3.9394   -0.0428    0.0000 N   0  0  0  0  0  0  0  0  0  0  0  0
    0.3711    2.9545    0.0000 N   0  0  0  0  0  0  0  0  0  0  0  0
    4.6816   -0.0286    0.0000 C   0  0  3  0  0  0  0  0  0  0  0  0
    3.9537   -0.4425    0.0000 C   0  0  0  0  0  0  0  0  0  0  0  0
    4.2962    0.6708    0.0000 C   0  0  0  0  0  0  0  0  0  0  0  0
    3.2400   -0.0428    0.0000 C   0  0  3  0  0  0  0  0  0  0  0  0
    5.3810   -0.4425    0.0000 C   0  0  0  0  0  0  0  0  0  0  0  0
    3.2543    1.2846    0.0000 C   0  0  0  0  0  0  0  0  0  0  0  0
    1.8127   -0.0713    0.0000 C   0  0  0  0  0  0  0  0  0  0  0  0
    1.0990   -0.4568    0.0000 C   0  0  3  0  0  0  0  0  0  0  0  0
    2.5263    1.7128    0.0000 C   0  0  0  0  0  0  0  0  0  0  0  0
    1.0990   -1.2703    0.0000 C   0  0  0  0  0  0  0  0  0  0  0  0
    1.8127    1.2988    0.0000 C   0  0  0  0  0  0  0  0  0  0  0  0
    2.5263    2.5263    0.0000 C   0  0  0  0  0  0  0  0  0  0  0  0
    1.8127   -1.6985    0.0000 C   0  0  0  0  0  0  0  0  0  0  0  0
   -0.3425   -0.4282    0.0000 C   0  0  0  0  0  0  0  0  0  0  0  0
   -1.0705   -0.0428    0.0000 C   0  0  3  0  0  0  0  0  0  0  0  0
    1.0990    1.7128    0.0000 C   0  0  0  0  0  0  0  0  0  0  0  0
    1.8269    2.9403    0.0000 C   0  0  0  0  0  0  0  0  0  0  0  0
    1.0990    2.5263    0.0000 C   0  0  0  0  0  0  0  0  0  0  0  0
    2.5406   -1.2988    0.0000 C   0  0  0  0  0  0  0  0  0  0  0  0
    1.8127   -2.5263    0.0000 C   0  0  0  0  0  0  0  0  0  0  0  0
    3.2400   -2.5263    0.0000 C   0  0  0  0  0  0  0  0  0  0  0  0
    3.2400   -1.7128    0.0000 C   0  0  0  0  0  0  0  0  0  0  0  0
    2.5406   -2.9403    0.0000 C   0  0  0  0  0  0  0  0  0  0  0  0
   -2.5121   -0.0571    0.0000 C   0  0  0  0  0  0  0  0  0  0  0  0
   -1.0562    0.7850    0.0000 C   0  0  0  0  0  0  0  0  0  0  0  0
   -3.2115   -0.4568    0.0000 C   0  0  0  0  0  0  0  0  0  0  0  0
   -3.9394    0.7707    0.0000 C   0  0  0  0  0  0  0  0  0  0  0  0
   -4.6530   -0.4568    0.0000 C   0  0  0  0  0  0  0  0  0  0  0  0
   -4.6673    1.1989    0.0000 C   0  0  0  0  0  0  0  0  0  0  0  0
   -5.3667   -0.0428    0.0000 C   0  0  0  0  0  0  0  0  0  0  0  0
    4.7102   -2.5263    0.0000 C   0  0  0  0  0  0  0  0  0  0  0  0
  1 13  1  0  0  0  0
  1 15  1  0  0  0  0
  2 14  2  0  0  0  0
  3 19  2  0  0  0  0
  4 26  2  0  0  0  0
  5 33  1  0  0  0  0
  5 43  1  0  0  0  0
  6 36  2  0  0  0  0
  7 41  1  0  0  0  0
  7 42  1  0  0  0  0
 16  8  1  1  0  0  0
  8 19  1  0  0  0  0
 20  9  1  6  0  0  0
  9 26  1  0  0  0  0
 10 27  1  0  0  0  0
 10 36  1  0  0  0  0
 11 38  1  0  0  0  0
 11 39  1  0  0  0  0
 11 40  1  0  0  0  0
 30 12  1  6  0  0  0
 13 14  1  1  0  0  0
 13 15  1  0  0  0  0
 13 17  1  6  0  0  0
 14 16  1  0  0  0  0
 16 18  1  0  0  0  0
 21 18  1  1  0  0  0
 19 20  1  0  0  0  0
 20 22  1  0  0  0  0
 21 23  1  0  0  0  0
 21 24  1  0  0  0  0
 22 25  1  0  0  0  0
 23 28  1  0  0  0  0
 24 29  1  0  0  0  0
 25 31  2  0  0  0  0
 25 32  1  0  0  0  0
 26 27  1  0  0  0  0
 27 37  1  1  0  0  0
 28 30  1  0  0  0  0
 29 30  1  0  0  0  0
 31 34  1  0  0  0  0
 32 35  2  0  0  0  0
 33 34  2  0  0  0  0
 33 35  1  0  0  0  0
 36 38  1  0  0  0  0
 39 41  1  0  0  0  0
 40 42  1  0  0  0  0
M  END
> <PUBCHEM_COMPOUND_ID_TYPE>
0

> <PUBCHEM_TOTAL_CHARGE>
0

> <PUBCHEM_SUBSTANCE_ID>
310940869

> <PUBCHEM_SUBSTANCE_VERSION>
1

> <PUBCHEM_EXT_DATASOURCE_NAME>
4488

> <PUBCHEM_EXT_DATASOURCE_REGID>
SCHEMBL16118828

> <PUBCHEM_SUBSTANCE_COMMENT>
InChI=1S/C31H47N5O7/c1-20(33-27(37)18-36-12-14-42-15-13-36)29(39)35-26(17-22-6-10-24(41-3)11-7-22)30(40)34-25(28(38)31(2)19-43-31)16-21-4-8-23(32)9-5-21/h6-7,10-11,20-21,23,25-26H,4-5,8-9,12-19,32H2,1-3H3,(H,33,37)(H,34,40)(H,35,39)/t20-,21-,23-,25-,26-,31+/m0/s1
InChIKey=DKTBJBXODHIMQB-JSOSGXKBSA-N

> <PUBCHEM_SUBSTANCE_SYNONYM>
SCHEMBL16118828

> <PUBCHEM_XREF_EXT_ID>
SCHEMBL16118828

> <PUBCHEM_EXT_DATASOURCE_URL>
https://www.surechembl.org/

> <PUBCHEM_EXT_SUBSTANCE_URL>
https://www.surechembl.org/chemical/SCHEMBL16118828

> <PUBCHEM_CID_ASSOCIATIONS>
117607786  1

> <PUBCHEM_COORDINATE_TYPE>
1
3

> <PUBCHEM_BONDANNOTATIONS>
30  12  6
13  14  5
13  17  6
21  18  5
27  37  5
16  8  5
20  9  6

$$$$
