310931852
  -OEChem-07211613022D

 25 26  0     0  0  0  0  0  0999 V2000
    0.7178   -0.4067    0.0000 Cl  0  0  0  0  0  0  0  0  0  0  0  0
    6.4598   -3.7324    0.0000 F   0  0  0  0  0  0  0  0  0  0  0  0
    7.1776   -2.4882    0.0000 F   0  0  0  0  0  0  0  0  0  0  0  0
    7.1776   -3.3256    0.0000 F   0  0  0  0  0  0  0  0  0  0  0  0
    2.1533   -0.4067    0.0000 O   0  0  0  0  0  0  0  0  0  0  0  0
    5.7421   -1.6509    0.0000 O   0  0  0  0  0  0  0  0  0  0  0  0
    2.8711   -2.4882    0.0000 O   0  5  0  0  0  0  0  0  0  0  0  0
    2.1533   -3.7324    0.0000 O   0  0  0  0  0  0  0  0  0  0  0  0
    2.8711   -1.6509    0.0000 N   0  0  0  0  0  0  0  0  0  0  0  0
    2.1533   -2.8950    0.0000 N   0  3  0  0  0  0  0  0  0  0  0  0
    1.4355   -1.6509    0.0000 C   0  0  0  0  0  0  0  0  0  0  0  0
    1.4355   -2.4882    0.0000 C   0  0  0  0  0  0  0  0  0  0  0  0
    2.1533   -1.2442    0.0000 C   0  0  0  0  0  0  0  0  0  0  0  0
    0.7178   -1.2442    0.0000 C   0  0  0  0  0  0  0  0  0  0  0  0
    3.6127   -1.2442    0.0000 C   0  0  0  0  0  0  0  0  0  0  0  0
    0.7178   -2.8950    0.0000 C   0  0  0  0  0  0  0  0  0  0  0  0
    0.0000   -1.6509    0.0000 C   0  0  0  0  0  0  0  0  0  0  0  0
    5.0243   -1.2442    0.0000 C   0  0  0  0  0  0  0  0  0  0  0  0
    0.0000   -2.4882    0.0000 C   0  0  0  0  0  0  0  0  0  0  0  0
    4.3305   -1.6509    0.0000 C   0  0  0  0  0  0  0  0  0  0  0  0
    3.6127   -0.4067    0.0000 C   0  0  0  0  0  0  0  0  0  0  0  0
    5.0483   -0.4067    0.0000 C   0  0  0  0  0  0  0  0  0  0  0  0
    6.4598   -2.8950    0.0000 C   0  0  0  0  0  0  0  0  0  0  0  0
    4.3305    0.0000    0.0000 C   0  0  0  0  0  0  0  0  0  0  0  0
    5.7421   -2.4882    0.0000 C   0  0  0  0  0  0  0  0  0  0  0  0
  1 14  1  0  0  0  0
  2 23  1  0  0  0  0
  3 23  1  0  0  0  0
  4 23  1  0  0  0  0
  5 13  2  0  0  0  0
  6 18  1  0  0  0  0
  6 25  1  0  0  0  0
  7 10  1  0  0  0  0
  8 10  2  0  0  0  0
  9 13  1  0  0  0  0
  9 15  1  0  0  0  0
 10 12  1  0  0  0  0
 11 12  1  0  0  0  0
 11 13  1  0  0  0  0
 11 14  2  0  0  0  0
 12 16  2  0  0  0  0
 14 17  1  0  0  0  0
 15 20  1  0  0  0  0
 15 21  2  0  0  0  0
 16 19  1  0  0  0  0
 17 19  2  0  0  0  0
 18 20  2  0  0  0  0
 18 22  1  0  0  0  0
 21 24  1  0  0  0  0
 22 24  2  0  0  0  0
 23 25  1  0  0  0  0
M  CHG  2   7  -1  10   1
M  END
> <PUBCHEM_COMPOUND_ID_TYPE>
0

> <PUBCHEM_TOTAL_CHARGE>
0

> <PUBCHEM_SUBSTANCE_ID>
310931852

> <PUBCHEM_SUBSTANCE_VERSION>
1

> <PUBCHEM_EXT_DATASOURCE_NAME>
4488

> <PUBCHEM_EXT_DATASOURCE_REGID>
SCHEMBL16109186

> <PUBCHEM_SUBSTANCE_COMMENT>
InChI=1S/C15H10ClF3N2O4/c16-11-5-2-6-12(21(23)24)13(11)14(22)20-9-3-1-4-10(7-9)25-8-15(17,18)19/h1-7H,8H2,(H,20,22)
InChIKey=FOPCOTSLJOAYMJ-UHFFFAOYSA-N

> <PUBCHEM_SUBSTANCE_SYNONYM>
SCHEMBL16109186

> <PUBCHEM_XREF_EXT_ID>
SCHEMBL16109186

> <PUBCHEM_EXT_DATASOURCE_URL>
https://www.surechembl.org/

> <PUBCHEM_EXT_SUBSTANCE_URL>
https://www.surechembl.org/chemical/SCHEMBL16109186

> <PUBCHEM_CID_ASSOCIATIONS>
117600520  1

> <PUBCHEM_COORDINATE_TYPE>
1
3

$$$$
