310933787
  -OEChem-07211613022D

 24 26  0     0  0  0  0  0  0999 V2000
    4.4877   -0.7103    0.0000 O   0  0  0  0  0  0  0  0  0  0  0  0
    1.5820    0.0000    0.0000 O   0  0  0  0  0  0  0  0  0  0  0  0
    0.7425   -1.4205    0.0000 O   0  0  0  0  0  0  0  0  0  0  0  0
    2.4214   -1.4205    0.0000 N   0  0  0  0  0  0  0  0  0  0  0  0
    1.5820   -1.4205    0.0000 N   0  0  0  0  0  0  0  0  0  0  0  0
    2.8088   -0.7103    0.0000 C   0  0  0  0  0  0  0  0  0  0  0  0
    2.0017   -0.7103    0.0000 C   0  0  0  0  0  0  0  0  0  0  0  0
    3.2608   -1.4205    0.0000 C   0  0  0  0  0  0  0  0  0  0  0  0
    3.2608    0.0000    0.0000 C   0  0  0  0  0  0  0  0  0  0  0  0
    2.8411   -2.1308    0.0000 C   0  0  0  0  0  0  0  0  0  0  0  0
    2.4214   -2.8734    0.0000 C   0  0  0  0  0  0  0  0  0  0  0  0
    4.0679   -1.4205    0.0000 C   0  0  0  0  0  0  0  0  0  0  0  0
    4.0679    0.0000    0.0000 C   0  0  0  0  0  0  0  0  0  0  0  0
    1.6142   -4.2939    0.0000 C   0  0  0  0  0  0  0  0  0  0  0  0
    1.2268   -5.0042    0.0000 C   0  0  0  0  0  0  0  0  0  0  0  0
    1.6142   -2.8734    0.0000 C   0  0  0  0  0  0  0  0  0  0  0  0
    2.8411   -3.5513    0.0000 C   0  0  0  0  0  0  0  0  0  0  0  0
    1.1946   -3.5837    0.0000 C   0  0  0  0  0  0  0  0  0  0  0  0
    2.4537   -4.2939    0.0000 C   0  0  0  0  0  0  0  0  0  0  0  0
    1.6465   -5.7467    0.0000 C   0  0  0  0  0  0  0  0  0  0  0  0
    0.3874   -5.0365    0.0000 C   0  0  0  0  0  0  0  0  0  0  0  0
    1.2591   -6.4570    0.0000 C   0  0  0  0  0  0  0  0  0  0  0  0
    0.0000   -5.7467    0.0000 C   0  0  0  0  0  0  0  0  0  0  0  0
    0.4197   -6.4570    0.0000 C   0  0  0  0  0  0  0  0  0  0  0  0
  1 12  1  0  0  0  0
  1 13  1  0  0  0  0
  2  7  2  0  0  0  0
  3  5  1  0  0  0  0
  4  6  1  0  0  0  0
  4 10  1  0  0  0  0
  5  7  1  0  0  0  0
  6  7  1  0  0  0  0
  6  8  1  0  0  0  0
  6  9  1  0  0  0  0
  8 12  1  0  0  0  0
  9 13  1  0  0  0  0
 10 11  1  0  0  0  0
 11 16  2  0  0  0  0
 11 17  1  0  0  0  0
 14 15  1  0  0  0  0
 14 18  2  0  0  0  0
 14 19  1  0  0  0  0
 15 20  2  0  0  0  0
 15 21  1  0  0  0  0
 16 18  1  0  0  0  0
 17 19  2  0  0  0  0
 20 22  1  0  0  0  0
 21 23  2  0  0  0  0
 22 24  2  0  0  0  0
 23 24  1  0  0  0  0
M  END
> <PUBCHEM_COMPOUND_ID_TYPE>
0

> <PUBCHEM_TOTAL_CHARGE>
0

> <PUBCHEM_SUBSTANCE_ID>
310933787

> <PUBCHEM_SUBSTANCE_VERSION>
1

> <PUBCHEM_EXT_DATASOURCE_NAME>
4488

> <PUBCHEM_EXT_DATASOURCE_REGID>
SCHEMBL16111224

> <PUBCHEM_SUBSTANCE_COMMENT>
InChI=1S/C19H22N2O3/c22-18(21-23)19(10-12-24-13-11-19)20-14-15-6-8-17(9-7-15)16-4-2-1-3-5-16/h1-9,20,23H,10-14H2,(H,21,22)
InChIKey=CCXFUASKVYUBCM-UHFFFAOYSA-N

> <PUBCHEM_SUBSTANCE_SYNONYM>
SCHEMBL16111224

> <PUBCHEM_XREF_EXT_ID>
SCHEMBL16111224

> <PUBCHEM_EXT_DATASOURCE_URL>
https://www.surechembl.org/

> <PUBCHEM_EXT_SUBSTANCE_URL>
https://www.surechembl.org/chemical/SCHEMBL16111224

> <PUBCHEM_CID_ASSOCIATIONS>
117602138  1

> <PUBCHEM_COORDINATE_TYPE>
1
3

$$$$
