310940536
  -OEChem-07211613022D

 33 37  0     0  0  0  0  0  0999 V2000
    1.9789   -0.1649    0.0000 O   0  0  0  0  0  0  0  0  0  0  0  0
   -2.2125   -0.3298    0.0000 O   0  0  0  0  0  0  0  0  0  0  0  0
    2.0338    1.3192    0.0000 O   0  0  0  0  0  0  0  0  0  0  0  0
   -3.5317   -2.2674    0.0000 O   0  0  0  0  0  0  0  0  0  0  0  0
    2.8034   -1.5666    0.0000 O   0  0  0  0  0  0  0  0  0  0  0  0
    0.8108    0.4947    0.0000 N   0  0  0  0  0  0  0  0  0  0  0  0
    0.6597   -1.9789    0.0000 N   0  0  0  0  0  0  0  0  0  0  0  0
   -3.1194   -2.9820    0.0000 N   0  0  0  0  0  0  0  0  0  0  0  0
    0.6459   -0.3435    0.0000 C   0  0  0  0  0  0  0  0  0  0  0  0
   -0.0550   -0.7696    0.0000 C   0  0  0  0  0  0  0  0  0  0  0  0
    1.3880   -0.7558    0.0000 C   0  0  0  0  0  0  0  0  0  0  0  0
   -0.0687   -1.5804    0.0000 C   0  0  0  0  0  0  0  0  0  0  0  0
    1.3742   -1.5941    0.0000 C   0  0  0  0  0  0  0  0  0  0  0  0
   -1.4979   -1.6079    0.0000 C   0  0  0  0  0  0  0  0  0  0  0  0
    1.6216    0.5497    0.0000 C   0  0  0  0  0  0  0  0  0  0  0  0
   -0.7833   -0.3710    0.0000 C   0  0  0  0  0  0  0  0  0  0  0  0
   -1.4842   -0.7696    0.0000 C   0  0  0  0  0  0  0  0  0  0  0  0
   -0.7833   -2.0064    0.0000 C   0  0  0  0  0  0  0  0  0  0  0  0
   -2.2125   -2.0201    0.0000 C   0  0  0  0  0  0  0  0  0  0  0  0
    0.1374    0.9344    0.0000 C   0  0  0  0  0  0  0  0  0  0  0  0
   -2.9683   -1.6628    0.0000 C   0  0  0  0  0  0  0  0  0  0  0  0
   -2.3087   -2.8309    0.0000 C   0  0  0  0  0  0  0  0  0  0  0  0
    2.1163   -1.9927    0.0000 C   0  0  0  0  0  0  0  0  0  0  0  0
    0.1924    1.7727    0.0000 C   0  0  0  0  0  0  0  0  0  0  0  0
   -3.1332   -0.8520    0.0000 C   0  0  0  0  0  0  0  0  0  0  0  0
   -1.6765   -3.3943    0.0000 C   0  0  0  0  0  0  0  0  0  0  0  0
    0.9344    2.1300    0.0000 C   0  0  0  0  0  0  0  0  0  0  0  0
   -0.4810    2.2263    0.0000 C   0  0  0  0  0  0  0  0  0  0  0  0
   -2.2125    0.4810    0.0000 C   0  0  0  0  0  0  0  0  0  0  0  0
    0.9895    2.9409    0.0000 C   0  0  0  0  0  0  0  0  0  0  0  0
   -0.4123    3.0508    0.0000 C   0  0  0  0  0  0  0  0  0  0  0  0
    3.5317   -2.0064    0.0000 C   0  0  0  0  0  0  0  0  0  0  0  0
    0.3298    3.3943    0.0000 C   0  0  0  0  0  0  0  0  0  0  0  0
  1 11  1  0  0  0  0
  1 15  1  0  0  0  0
  2 17  1  0  0  0  0
  2 29  1  0  0  0  0
  3 15  2  0  0  0  0
  4  8  1  0  0  0  0
  4 21  1  0  0  0  0
  5 23  1  0  0  0  0
  5 32  1  0  0  0  0
  6  9  1  0  0  0  0
  6 15  1  0  0  0  0
  6 20  1  0  0  0  0
  7 12  1  0  0  0  0
  7 13  2  0  0  0  0
  8 22  2  0  0  0  0
  9 10  1  0  0  0  0
  9 11  2  0  0  0  0
 10 12  1  0  0  0  0
 10 16  2  0  0  0  0
 11 13  1  0  0  0  0
 12 18  2  0  0  0  0
 13 23  1  0  0  0  0
 14 17  2  0  0  0  0
 14 18  1  0  0  0  0
 14 19  1  0  0  0  0
 16 17  1  0  0  0  0
 19 21  2  0  0  0  0
 19 22  1  0  0  0  0
 20 24  1  0  0  0  0
 21 25  1  0  0  0  0
 22 26  1  0  0  0  0
 24 27  2  0  0  0  0
 24 28  1  0  0  0  0
 27 30  1  0  0  0  0
 28 31  2  0  0  0  0
 30 33  2  0  0  0  0
 31 33  1  0  0  0  0
M  END
> <PUBCHEM_COMPOUND_ID_TYPE>
0

> <PUBCHEM_TOTAL_CHARGE>
0

> <PUBCHEM_SUBSTANCE_ID>
310940536

> <PUBCHEM_SUBSTANCE_VERSION>
1

> <PUBCHEM_EXT_DATASOURCE_NAME>
4488

> <PUBCHEM_EXT_DATASOURCE_REGID>
SCHEMBL16118490

> <PUBCHEM_SUBSTANCE_COMMENT>
InChI=1S/C25H23N3O5/c1-14-22(15(2)33-27-14)18-10-19-17(11-21(18)31-4)23-24(20(26-19)13-30-3)32-25(29)28(23)12-16-8-6-5-7-9-16/h5-11H,12-13H2,1-4H3
InChIKey=NHIIHOXUYHTLKO-UHFFFAOYSA-N

> <PUBCHEM_SUBSTANCE_SYNONYM>
SCHEMBL16118490

> <PUBCHEM_XREF_EXT_ID>
SCHEMBL16118490

> <PUBCHEM_EXT_DATASOURCE_URL>
https://www.surechembl.org/

> <PUBCHEM_EXT_SUBSTANCE_URL>
https://www.surechembl.org/chemical/SCHEMBL16118490

> <PUBCHEM_CID_ASSOCIATIONS>
86303266  1

> <PUBCHEM_COORDINATE_TYPE>
1
3

$$$$
