310930652
  -OEChem-07211613022D

 34 38  0     0  0  0  0  0  0999 V2000
    4.3270   -2.4840    0.0000 S   0  0  0  0  0  0  0  0  0  0  0  0
    4.7677   -3.2453    0.0000 O   0  0  0  0  0  0  0  0  0  0  0  0
    3.9664   -1.7629    0.0000 O   0  0  0  0  0  0  0  0  0  0  0  0
    8.6139    0.0000    0.0000 O   0  0  0  0  0  0  0  0  0  0  0  0
    0.0000   -4.9279    0.0000 O   0  0  0  0  0  0  0  0  0  0  0  0
   10.7373   -1.2420    0.0000 N   0  0  0  0  0  0  0  0  0  0  0  0
    2.8846   -4.1267    0.0000 N   0  0  0  0  0  0  0  0  0  0  0  0
    1.4423   -4.1267    0.0000 N   0  0  0  0  0  0  0  0  0  0  0  0
   10.0162   -2.4840    0.0000 N   0  0  0  0  0  0  0  0  0  0  0  0
   11.5387   -2.3238    0.0000 N   0  0  0  0  0  0  0  0  0  0  0  0
    7.8927   -1.2420    0.0000 N   0  0  0  0  0  0  0  0  0  0  0  0
    3.6058   -2.8846    0.0000 C   0  0  0  0  0  0  0  0  0  0  0  0
    5.0482   -2.0834    0.0000 C   0  0  0  0  0  0  0  0  0  0  0  0
    3.5658   -3.7260    0.0000 C   0  0  0  0  0  0  0  0  0  0  0  0
    2.8846   -2.4840    0.0000 C   0  0  0  0  0  0  0  0  0  0  0  0
    2.1635   -3.7260    0.0000 C   0  0  0  0  0  0  0  0  0  0  0  0
    5.7693   -2.4840    0.0000 C   0  0  0  0  0  0  0  0  0  0  0  0
    5.0482   -1.2420    0.0000 C   0  0  0  0  0  0  0  0  0  0  0  0
   10.7373   -2.1234    0.0000 C   0  0  0  0  0  0  0  0  0  0  0  0
    9.3351   -1.2420    0.0000 C   0  0  0  0  0  0  0  0  0  0  0  0
    2.2036   -2.8846    0.0000 C   0  0  0  0  0  0  0  0  0  0  0  0
    6.4905   -1.2420    0.0000 C   0  0  0  0  0  0  0  0  0  0  0  0
   10.0162   -0.8414    0.0000 C   0  0  0  0  0  0  0  0  0  0  0  0
    6.4905   -2.0834    0.0000 C   0  0  0  0  0  0  0  0  0  0  0  0
    5.7693   -0.8414    0.0000 C   0  0  0  0  0  0  0  0  0  0  0  0
    8.6139   -0.8414    0.0000 C   0  0  0  0  0  0  0  0  0  0  0  0
    9.3351   -2.1234    0.0000 C   0  0  0  0  0  0  0  0  0  0  0  0
   11.5387   -1.0016    0.0000 C   0  0  0  0  0  0  0  0  0  0  0  0
    7.2116   -0.8414    0.0000 C   0  0  0  0  0  0  0  0  0  0  0  0
   12.0194   -1.6827    0.0000 C   0  0  0  0  0  0  0  0  0  0  0  0
    1.4423   -4.9680    0.0000 C   0  0  0  0  0  0  0  0  0  0  0  0
    0.7212   -3.7260    0.0000 C   0  0  0  0  0  0  0  0  0  0  0  0
    0.0000   -4.1267    0.0000 C   0  0  0  0  0  0  0  0  0  0  0  0
    0.7212   -5.3687    0.0000 C   0  0  0  0  0  0  0  0  0  0  0  0
  1  2  2  0  0  0  0
  1  3  2  0  0  0  0
  1 12  1  0  0  0  0
  1 13  1  0  0  0  0
  4 26  2  0  0  0  0
  5 33  1  0  0  0  0
  5 34  1  0  0  0  0
  6 19  1  0  0  0  0
  6 23  1  0  0  0  0
  6 28  1  0  0  0  0
  7 14  1  0  0  0  0
  7 16  2  0  0  0  0
  8 16  1  0  0  0  0
  8 31  1  0  0  0  0
  8 32  1  0  0  0  0
  9 19  1  0  0  0  0
  9 27  2  0  0  0  0
 10 19  2  0  0  0  0
 10 30  1  0  0  0  0
 11 26  1  0  0  0  0
 11 29  1  0  0  0  0
 12 14  2  0  0  0  0
 12 15  1  0  0  0  0
 13 17  2  0  0  0  0
 13 18  1  0  0  0  0
 15 21  2  0  0  0  0
 16 21  1  0  0  0  0
 17 24  1  0  0  0  0
 18 25  2  0  0  0  0
 20 23  2  0  0  0  0
 20 26  1  0  0  0  0
 20 27  1  0  0  0  0
 22 24  2  0  0  0  0
 22 25  1  0  0  0  0
 22 29  1  0  0  0  0
 28 30  2  0  0  0  0
 31 34  1  0  0  0  0
 32 33  1  0  0  0  0
M  END
> <PUBCHEM_COMPOUND_ID_TYPE>
0

> <PUBCHEM_TOTAL_CHARGE>
0

> <PUBCHEM_SUBSTANCE_ID>
310930652

> <PUBCHEM_SUBSTANCE_VERSION>
1

> <PUBCHEM_EXT_DATASOURCE_NAME>
4488

> <PUBCHEM_EXT_DATASOURCE_REGID>
SCHEMBL16107949

> <PUBCHEM_SUBSTANCE_COMMENT>
InChI=1S/C23H22N6O4S/c30-22(18-14-27-23-24-7-8-29(23)16-18)26-13-17-1-3-19(4-2-17)34(31,32)20-5-6-21(25-15-20)28-9-11-33-12-10-28/h1-8,14-16H,9-13H2,(H,26,30)
InChIKey=DXFBPTYMBKBYAP-UHFFFAOYSA-N

> <PUBCHEM_SUBSTANCE_SYNONYM>
SCHEMBL16107949

> <PUBCHEM_XREF_EXT_ID>
SCHEMBL16107949

> <PUBCHEM_EXT_DATASOURCE_URL>
https://www.surechembl.org/

> <PUBCHEM_EXT_SUBSTANCE_URL>
https://www.surechembl.org/chemical/SCHEMBL16107949

> <PUBCHEM_CID_ASSOCIATIONS>
71819152  1

> <PUBCHEM_COORDINATE_TYPE>
1
3

$$$$
