310939701
  -OEChem-07211613022D

 33 36  0     1  0  0  0  0  0999 V2000
   -0.0081   -0.7970    0.0000 Cl  0  0  0  0  0  0  0  0  0  0  0  0
   -1.4370   -3.2720    0.0000 O   0  0  0  0  0  0  0  0  0  0  0  0
    3.6344   -6.8271    0.0000 O   0  0  0  0  0  0  0  0  0  0  0  0
   -2.8660   -4.0971    0.0000 O   0  0  0  0  0  0  0  0  0  0  0  0
    2.1353   -2.8595    0.0000 N   0  0  0  0  0  0  0  0  0  0  0  0
    1.4209   -4.0971    0.0000 N   0  0  0  0  0  0  0  0  0  0  0  0
    2.1353   -5.3346    0.0000 N   0  0  0  0  0  0  0  0  0  0  0  0
   -4.2950   -3.2720    0.0000 N   0  0  0  0  0  0  0  0  0  0  0  0
    2.8498   -3.2720    0.0000 C   0  0  0  0  0  0  0  0  0  0  0  0
    1.4209   -3.2720    0.0000 C   0  0  0  0  0  0  0  0  0  0  0  0
    2.8498   -4.0971    0.0000 C   0  0  0  0  0  0  0  0  0  0  0  0
    2.1353   -4.5095    0.0000 C   0  0  0  0  0  0  0  0  0  0  0  0
    0.7064   -2.8595    0.0000 C   0  0  0  0  0  0  0  0  0  0  0  0
    3.5644   -2.8595    0.0000 C   0  0  0  0  0  0  0  0  0  0  0  0
   -0.0081   -3.2720    0.0000 C   0  0  0  0  0  0  0  0  0  0  0  0
    0.7064   -2.0345    0.0000 C   0  0  0  0  0  0  0  0  0  0  0  0
   -0.7226   -2.8595    0.0000 C   0  0  0  0  0  0  0  0  0  0  0  0
   -0.0081   -1.6220    0.0000 C   0  0  0  0  0  0  0  0  0  0  0  0
    2.8498   -5.7470    0.0000 C   0  0  3  0  0  0  0  0  0  0  0  0
   -0.7226   -2.0345    0.0000 C   0  0  0  0  0  0  0  0  0  0  0  0
    3.5644   -2.0345    0.0000 C   0  0  0  0  0  0  0  0  0  0  0  0
    4.2789   -3.2720    0.0000 C   0  0  0  0  0  0  0  0  0  0  0  0
    3.5644   -4.5095    0.0000 C   0  0  0  0  0  0  0  0  0  0  0  0
    2.8498   -6.5721    0.0000 C   0  0  0  0  0  0  0  0  0  0  0  0
    3.6344   -5.4922    0.0000 C   0  0  0  0  0  0  0  0  0  0  0  0
    4.2789   -1.6220    0.0000 C   0  0  0  0  0  0  0  0  0  0  0  0
    4.9933   -2.8595    0.0000 C   0  0  0  0  0  0  0  0  0  0  0  0
    4.9933   -2.0345    0.0000 C   0  0  0  0  0  0  0  0  0  0  0  0
    4.1195   -6.1596    0.0000 C   0  0  0  0  0  0  0  0  0  0  0  0
   -2.1515   -2.8595    0.0000 C   0  0  0  0  0  0  0  0  0  0  0  0
   -2.8660   -3.2720    0.0000 C   0  0  3  0  0  0  0  0  0  0  0  0
   -3.5804   -2.8595    0.0000 C   0  0  0  0  0  0  0  0  0  0  0  0
   -5.0095   -2.8595    0.0000 C   0  0  0  0  0  0  0  0  0  0  0  0
  1 18  1  0  0  0  0
  2 17  1  0  0  0  0
  2 30  1  0  0  0  0
  3 24  1  0  0  0  0
  3 29  1  0  0  0  0
  4 31  1  0  0  0  0
  5  9  1  0  0  0  0
  5 10  2  0  0  0  0
  6 10  1  0  0  0  0
  6 12  2  0  0  0  0
  7 12  1  0  0  0  0
 19  7  1  6  0  0  0
  8 32  1  0  0  0  0
  8 33  1  0  0  0  0
  9 11  2  0  0  0  0
  9 14  1  0  0  0  0
 10 13  1  0  0  0  0
 11 12  1  0  0  0  0
 11 23  1  0  0  0  0
 13 15  2  0  0  0  0
 13 16  1  0  0  0  0
 14 21  2  0  0  0  0
 14 22  1  0  0  0  0
 15 17  1  0  0  0  0
 16 18  2  0  0  0  0
 17 20  2  0  0  0  0
 18 20  1  0  0  0  0
 19 24  1  0  0  0  0
 19 25  1  0  0  0  0
 21 26  1  0  0  0  0
 22 27  1  0  0  0  0
 25 29  1  0  0  0  0
 26 28  1  0  0  0  0
 27 28  1  0  0  0  0
 30 31  1  0  0  0  0
 31 32  1  0  0  0  0
M  END
> <PUBCHEM_COMPOUND_ID_TYPE>
0

> <PUBCHEM_TOTAL_CHARGE>
0

> <PUBCHEM_SUBSTANCE_ID>
310939701

> <PUBCHEM_SUBSTANCE_VERSION>
1

> <PUBCHEM_EXT_DATASOURCE_NAME>
4488

> <PUBCHEM_EXT_DATASOURCE_REGID>
SCHEMBL16117631

> <PUBCHEM_SUBSTANCE_COMMENT>
InChI=1S/C25H33ClN4O3/c1-16-23(17-6-4-3-5-7-17)29-25(30-24(16)28-20-8-9-32-14-20)18-10-19(26)12-22(11-18)33-15-21(31)13-27-2/h6,10-12,20-21,27,31H,3-5,7-9,13-15H2,1-2H3,(H,28,29,30)/t20-,21?/m1/s1
InChIKey=IEBVOSIWMKJKHY-VQCQRNETSA-N

> <PUBCHEM_SUBSTANCE_SYNONYM>
SCHEMBL16117631

> <PUBCHEM_XREF_EXT_ID>
SCHEMBL16117631

> <PUBCHEM_EXT_DATASOURCE_URL>
https://www.surechembl.org/

> <PUBCHEM_EXT_SUBSTANCE_URL>
https://www.surechembl.org/chemical/SCHEMBL16117631

> <PUBCHEM_CID_ASSOCIATIONS>
117606931  1

> <PUBCHEM_COORDINATE_TYPE>
1
3

> <PUBCHEM_BONDANNOTATIONS>
19  7  6

$$$$
