310936179
  -OEChem-07211613022D

 26 28  0     0  0  0  0  0  0999 V2000
    0.8250   -0.6875    0.0000 F   0  0  0  0  0  0  0  0  0  0  0  0
    0.0000   -2.0900    0.0000 F   0  0  0  0  0  0  0  0  0  0  0  0
    3.2450   -3.5750    0.0000 O   0  0  0  0  0  0  0  0  0  0  0  0
    4.5100   -2.8600    0.0000 N   0  0  0  0  0  0  0  0  0  0  0  0
    6.9851    0.0000    0.0000 N   0  0  0  0  0  0  0  0  0  0  0  0
    6.9851   -1.4025    0.0000 N   0  0  0  0  0  0  0  0  0  0  0  0
    8.2501   -0.7150    0.0000 N   0  0  0  0  0  0  0  0  0  0  0  0
    3.2725   -2.1450    0.0000 C   0  0  0  0  0  0  0  0  0  0  0  0
    2.4475   -2.1175    0.0000 C   0  0  0  0  0  0  0  0  0  0  0  0
    3.6575   -2.8600    0.0000 C   0  0  0  0  0  0  0  0  0  0  0  0
    4.5100   -1.4300    0.0000 C   0  0  0  0  0  0  0  0  0  0  0  0
    3.6850   -1.4300    0.0000 C   0  0  0  0  0  0  0  0  0  0  0  0
    2.0625   -1.4025    0.0000 C   0  0  0  0  0  0  0  0  0  0  0  0
    2.0350   -2.8325    0.0000 C   0  0  0  0  0  0  0  0  0  0  0  0
    1.2375   -1.4025    0.0000 C   0  0  0  0  0  0  0  0  0  0  0  0
    4.8950   -2.1450    0.0000 C   0  0  0  0  0  0  0  0  0  0  0  0
    0.8250   -2.1175    0.0000 C   0  0  0  0  0  0  0  0  0  0  0  0
    4.9226   -0.7150    0.0000 C   0  0  0  0  0  0  0  0  0  0  0  0
    5.7476   -0.7150    0.0000 C   0  0  0  0  0  0  0  0  0  0  0  0
    1.2100   -2.8325    0.0000 C   0  0  0  0  0  0  0  0  0  0  0  0
    6.1876    0.0000    0.0000 C   0  0  0  0  0  0  0  0  0  0  0  0
    6.1876   -1.4025    0.0000 C   0  0  0  0  0  0  0  0  0  0  0  0
    2.4475   -3.5750    0.0000 C   0  0  0  0  0  0  0  0  0  0  0  0
    7.4251   -0.7150    0.0000 C   0  0  0  0  0  0  0  0  0  0  0  0
    2.0350   -4.2901    0.0000 C   0  0  0  0  0  0  0  0  0  0  0  0
    1.2100   -4.2901    0.0000 C   0  0  0  0  0  0  0  0  0  0  0  0
  1 15  1  0  0  0  0
  2 17  1  0  0  0  0
  3 10  1  0  0  0  0
  3 23  1  0  0  0  0
  4 10  2  0  0  0  0
  4 16  1  0  0  0  0
  5 21  1  0  0  0  0
  5 24  2  0  0  0  0
  6 22  2  0  0  0  0
  6 24  1  0  0  0  0
  7 24  1  0  0  0  0
  8  9  1  0  0  0  0
  8 10  1  0  0  0  0
  8 12  2  0  0  0  0
  9 13  1  0  0  0  0
  9 14  2  0  0  0  0
 11 12  1  0  0  0  0
 11 16  2  0  0  0  0
 11 18  1  0  0  0  0
 13 15  2  0  0  0  0
 14 20  1  0  0  0  0
 15 17  1  0  0  0  0
 17 20  2  0  0  0  0
 18 19  1  0  0  0  0
 19 21  2  0  0  0  0
 19 22  1  0  0  0  0
 23 25  1  0  0  0  0
 25 26  1  0  0  0  0
M  END
> <PUBCHEM_COMPOUND_ID_TYPE>
0

> <PUBCHEM_TOTAL_CHARGE>
0

> <PUBCHEM_SUBSTANCE_ID>
310936179

> <PUBCHEM_SUBSTANCE_VERSION>
1

> <PUBCHEM_EXT_DATASOURCE_NAME>
4488

> <PUBCHEM_EXT_DATASOURCE_REGID>
SCHEMBL16113789

> <PUBCHEM_SUBSTANCE_COMMENT>
InChI=1S/C19H18F2N4O/c1-2-5-26-18-15(14-3-4-16(20)17(21)8-14)7-12(9-23-18)6-13-10-24-19(22)25-11-13/h3-4,7-11H,2,5-6H2,1H3,(H2,22,24,25)
InChIKey=YGUIYFSQNPZXFL-UHFFFAOYSA-N

> <PUBCHEM_SUBSTANCE_SYNONYM>
SCHEMBL16113789

> <PUBCHEM_XREF_EXT_ID>
SCHEMBL16113789

> <PUBCHEM_EXT_DATASOURCE_URL>
https://www.surechembl.org/

> <PUBCHEM_EXT_SUBSTANCE_URL>
https://www.surechembl.org/chemical/SCHEMBL16113789

> <PUBCHEM_CID_ASSOCIATIONS>
117604136  1

> <PUBCHEM_COORDINATE_TYPE>
1
3

$$$$
