310945734
  -OEChem-07211613022D

 33 37  0     1  0  0  0  0  0999 V2000
    0.7058    2.6540    0.0000 F   0  0  0  0  0  0  0  0  0  0  0  0
    1.0258    1.6000    0.0000 F   0  0  0  0  0  0  0  0  0  0  0  0
   -0.0659    1.2799    0.0000 F   0  0  0  0  0  0  0  0  0  0  0  0
   -1.8917   -2.6352    0.0000 O   0  0  0  0  0  0  0  0  0  0  0  0
    2.3999   -0.3576    0.0000 O   0  0  0  0  0  0  0  0  0  0  0  0
   -1.1764   -1.3741    0.0000 N   0  0  0  0  0  0  0  0  0  0  0  0
    0.2917   -2.2964    0.0000 N   0  0  0  0  0  0  0  0  0  0  0  0
   -1.1388    1.1670    0.0000 N   0  0  0  0  0  0  0  0  0  0  0  0
   -0.4047   -3.4446    0.0000 N   0  0  0  0  0  0  0  0  0  0  0  0
    0.4047   -3.6140    0.0000 N   0  0  0  0  0  0  0  0  0  0  0  0
    1.0070    0.0376    0.0000 N   0  0  0  0  0  0  0  0  0  0  0  0
   -0.7623   -0.1318    0.0000 C   0  0  3  0  0  0  0  0  0  0  0  0
   -1.5906   -0.1129    0.0000 C   0  0  3  0  0  0  0  0  0  0  0  0
   -0.4611   -2.6352    0.0000 C   0  0  0  0  0  0  0  0  0  0  0  0
   -1.1764   -2.2023    0.0000 C   0  0  0  0  0  0  0  0  0  0  0  0
   -1.1199    1.9764    0.0000 C   0  0  0  0  0  0  0  0  0  0  0  0
   -0.4988   -0.9035    0.0000 C   0  0  0  0  0  0  0  0  0  0  0  0
   -1.8541   -0.8658    0.0000 C   0  0  0  0  0  0  0  0  0  0  0  0
    0.8376   -2.8987    0.0000 C   0  0  0  0  0  0  0  0  0  0  0  0
   -1.8164    0.6776    0.0000 C   0  0  0  0  0  0  0  0  0  0  0  0
   -0.4988    0.6588    0.0000 C   0  0  0  0  0  0  0  0  0  0  0  0
   -0.4423    2.4282    0.0000 C   0  0  0  0  0  0  0  0  0  0  0  0
    0.5364   -1.5058    0.0000 C   0  0  0  0  0  0  0  0  0  0  0  0
    1.3647   -1.3364    0.0000 C   0  0  0  0  0  0  0  0  0  0  0  0
    0.3106    1.9764    0.0000 C   0  0  0  0  0  0  0  0  0  0  0  0
    1.6470   -2.7481    0.0000 C   0  0  0  0  0  0  0  0  0  0  0  0
   -1.8353    2.4093    0.0000 C   0  0  0  0  0  0  0  0  0  0  0  0
    1.9106   -1.9576    0.0000 C   0  0  0  0  0  0  0  0  0  0  0  0
   -0.4423    3.2187    0.0000 C   0  0  0  0  0  0  0  0  0  0  0  0
    1.5529   -0.5458    0.0000 C   0  0  0  0  0  0  0  0  0  0  0  0
   -1.8353    3.2375    0.0000 C   0  0  0  0  0  0  0  0  0  0  0  0
   -1.1199    3.6140    0.0000 C   0  0  0  0  0  0  0  0  0  0  0  0
    1.3835    0.7717    0.0000 C   0  0  0  0  0  0  0  0  0  0  0  0
  1 25  1  0  0  0  0
  2 25  1  0  0  0  0
  3 25  1  0  0  0  0
  4 15  2  0  0  0  0
  5 30  2  0  0  0  0
  6 15  1  0  0  0  0
  6 17  1  0  0  0  0
  6 18  1  0  0  0  0
  7 14  1  0  0  0  0
  7 19  1  0  0  0  0
  7 23  1  0  0  0  0
  8 16  1  0  0  0  0
  8 20  1  0  0  0  0
  8 21  1  0  0  0  0
  9 10  1  0  0  0  0
  9 14  2  0  0  0  0
 10 19  2  0  0  0  0
 11 30  1  0  0  0  0
 11 33  1  0  0  0  0
 12 13  1  0  0  0  0
 12 17  1  1  0  0  0
 12 21  1  0  0  0  0
 13 18  1  1  0  0  0
 13 20  1  0  0  0  0
 14 15  1  0  0  0  0
 16 22  2  0  0  0  0
 16 27  1  0  0  0  0
 19 26  1  0  0  0  0
 22 25  1  0  0  0  0
 22 29  1  0  0  0  0
 23 24  2  0  0  0  0
 24 28  1  0  0  0  0
 24 30  1  0  0  0  0
 26 28  2  0  0  0  0
 27 31  2  0  0  0  0
 29 32  2  0  0  0  0
 31 32  1  0  0  0  0
M  END
> <PUBCHEM_COMPOUND_ID_TYPE>
0

> <PUBCHEM_TOTAL_CHARGE>
0

> <PUBCHEM_SUBSTANCE_ID>
310945734

> <PUBCHEM_SUBSTANCE_VERSION>
1

> <PUBCHEM_EXT_DATASOURCE_NAME>
4488

> <PUBCHEM_EXT_DATASOURCE_REGID>
SCHEMBL16123838

> <PUBCHEM_SUBSTANCE_COMMENT>
InChI=1S/C22H21F3N6O2/c1-26-20(32)13-6-7-18-27-28-19(31(18)12-13)21(33)30-10-14-8-29(9-15(14)11-30)17-5-3-2-4-16(17)22(23,24)25/h2-7,12,14-15H,8-11H2,1H3,(H,26,32)/t14-,15+
InChIKey=LKSHYMLGXRRWCK-GASCZTMLSA-N

> <PUBCHEM_SUBSTANCE_SYNONYM>
SCHEMBL16123838

> <PUBCHEM_XREF_EXT_ID>
SCHEMBL16123838

> <PUBCHEM_EXT_DATASOURCE_URL>
https://www.surechembl.org/

> <PUBCHEM_EXT_SUBSTANCE_URL>
https://www.surechembl.org/chemical/SCHEMBL16123838

> <PUBCHEM_CID_ASSOCIATIONS>
86296630  1

> <PUBCHEM_COORDINATE_TYPE>
1
3

> <PUBCHEM_BONDANNOTATIONS>
12  17  5
13  18  5

$$$$
