310932983
  -OEChem-07211613022D

 18 19  0     0  0  0  0  0  0999 V2000
    1.6415    0.0000    0.0000 Cl  0  0  0  0  0  0  0  0  0  0  0  0
    2.4911   -1.4290    0.0000 S   0  0  0  0  0  0  0  0  0  0  0  0
    2.4911   -2.3367    0.0000 O   0  0  0  0  0  0  0  0  0  0  0  0
    2.4911   -0.6180    0.0000 O   0  0  0  0  0  0  0  0  0  0  0  0
    3.3022   -1.4290    0.0000 N   0  0  0  0  0  0  0  0  0  0  0  0
    4.5189   -2.1243    0.0000 N   0  0  0  0  0  0  0  0  0  0  0  0
    1.6608   -1.4290    0.0000 C   0  0  0  0  0  0  0  0  0  0  0  0
    1.2360   -0.7145    0.0000 C   0  0  0  0  0  0  0  0  0  0  0  0
    3.7078   -2.1436    0.0000 C   0  0  0  0  0  0  0  0  0  0  0  0
    1.2360   -2.1243    0.0000 C   0  0  0  0  0  0  0  0  0  0  0  0
    0.4249   -0.7145    0.0000 C   0  0  0  0  0  0  0  0  0  0  0  0
    3.2829   -2.8581    0.0000 C   0  0  0  0  0  0  0  0  0  0  0  0
    0.4249   -2.1243    0.0000 C   0  0  0  0  0  0  0  0  0  0  0  0
    4.9630   -2.8388    0.0000 C   0  0  0  0  0  0  0  0  0  0  0  0
    0.0000   -1.4290    0.0000 C   0  0  0  0  0  0  0  0  0  0  0  0
    3.7271   -3.5533    0.0000 C   0  0  0  0  0  0  0  0  0  0  0  0
    4.5189   -3.5533    0.0000 C   0  0  0  0  0  0  0  0  0  0  0  0
    5.7934   -2.8388    0.0000 C   0  0  0  0  0  0  0  0  0  0  0  0
  1  8  1  0  0  0  0
  2  3  2  0  0  0  0
  2  4  2  0  0  0  0
  2  5  1  0  0  0  0
  2  7  1  0  0  0  0
  5  9  1  0  0  0  0
  6  9  1  0  0  0  0
  6 14  2  0  0  0  0
  7  8  1  0  0  0  0
  7 10  2  0  0  0  0
  8 11  2  0  0  0  0
  9 12  2  0  0  0  0
 10 13  1  0  0  0  0
 11 15  1  0  0  0  0
 12 16  1  0  0  0  0
 13 15  2  0  0  0  0
 14 17  1  0  0  0  0
 14 18  1  0  0  0  0
 16 17  2  0  0  0  0
M  END
> <PUBCHEM_COMPOUND_ID_TYPE>
0

> <PUBCHEM_TOTAL_CHARGE>
0

> <PUBCHEM_SUBSTANCE_ID>
310932983

> <PUBCHEM_SUBSTANCE_VERSION>
1

> <PUBCHEM_EXT_DATASOURCE_NAME>
4488

> <PUBCHEM_EXT_DATASOURCE_REGID>
SCHEMBL16110380

> <PUBCHEM_SUBSTANCE_COMMENT>
InChI=1S/C12H11ClN2O2S/c1-9-5-4-8-12(14-9)15-18(16,17)11-7-3-2-6-10(11)13/h2-8H,1H3,(H,14,15)
InChIKey=YLMLCCUWXHEWOU-UHFFFAOYSA-N

> <PUBCHEM_SUBSTANCE_SYNONYM>
SCHEMBL16110380

> <PUBCHEM_XREF_EXT_ID>
SCHEMBL16110380

> <PUBCHEM_EXT_DATASOURCE_URL>
https://www.surechembl.org/

> <PUBCHEM_EXT_SUBSTANCE_URL>
https://www.surechembl.org/chemical/SCHEMBL16110380

> <PUBCHEM_CID_ASSOCIATIONS>
5169200  1

> <PUBCHEM_COORDINATE_TYPE>
1
3

$$$$
