310931718
  -OEChem-07211613022D

 10 10  0     1  0  0  0  0  0999 V2000
    1.4329   -1.6500    0.0000 N   0  0  3  0  0  0  0  0  0  0  0  0
    1.4329    0.0000    0.0000 N   0  0  0  0  0  0  0  0  0  0  0  0
    0.7092   -1.2447    0.0000 C   0  0  3  0  0  0  0  0  0  0  0  0
    1.4329   -2.4750    0.0000 C   0  0  0  0  0  0  0  0  0  0  0  0
    2.1421   -1.2447    0.0000 C   0  0  0  0  0  0  0  0  0  0  0  0
    0.7092   -0.4197    0.0000 C   0  0  0  0  0  0  0  0  0  0  0  0
    2.1421   -0.4197    0.0000 C   0  0  0  0  0  0  0  0  0  0  0  0
    0.0000   -1.6645    0.0000 C   0  0  0  0  0  0  0  0  0  0  0  0
    2.1421   -2.8947    0.0000 C   0  0  0  0  0  0  0  0  0  0  0  0
    0.7092   -2.8947    0.0000 C   0  0  0  0  0  0  0  0  0  0  0  0
  1  3  1  0  0  0  0
  1  4  1  0  0  0  0
  1  5  1  0  0  0  0
  2  6  1  0  0  0  0
  2  7  1  0  0  0  0
  3  6  1  0  0  0  0
  3  8  1  6  0  0  0
  4  9  1  0  0  0  0
  4 10  1  0  0  0  0
  5  7  1  0  0  0  0
M  END
> <PUBCHEM_COMPOUND_ID_TYPE>
0

> <PUBCHEM_TOTAL_CHARGE>
0

> <PUBCHEM_SUBSTANCE_ID>
310931718

> <PUBCHEM_SUBSTANCE_VERSION>
1

> <PUBCHEM_EXT_DATASOURCE_NAME>
4488

> <PUBCHEM_EXT_DATASOURCE_REGID>
SCHEMBL16109047

> <PUBCHEM_SUBSTANCE_COMMENT>
InChI=1S/C8H18N2/c1-7(2)10-5-4-9-6-8(10)3/h7-9H,4-6H2,1-3H3/t8-/m1/s1
InChIKey=GGROKFCODOVWLX-MRVPVSSYSA-N

> <PUBCHEM_SUBSTANCE_SYNONYM>
SCHEMBL16109047

> <PUBCHEM_XREF_EXT_ID>
SCHEMBL16109047

> <PUBCHEM_EXT_DATASOURCE_URL>
https://www.surechembl.org/

> <PUBCHEM_EXT_SUBSTANCE_URL>
https://www.surechembl.org/chemical/SCHEMBL16109047

> <PUBCHEM_CID_ASSOCIATIONS>
29892937  1

> <PUBCHEM_COORDINATE_TYPE>
1
3

> <PUBCHEM_BONDANNOTATIONS>
3  8  6

$$$$
