310945201
  -OEChem-07211613022D

 32 37  0     0  0  0  0  0  0999 V2000
   -3.0162   -1.9462    0.0000 O   0  0  0  0  0  0  0  0  0  0  0  0
    3.8832    1.5220    0.0000 O   0  0  0  0  0  0  0  0  0  0  0  0
   -4.3260    0.7103    0.0000 O   0  0  0  0  0  0  0  0  0  0  0  0
    1.9278   -0.4335    0.0000 N   0  0  0  0  0  0  0  0  0  0  0  0
   -0.7471    1.0976    0.0000 N   0  0  0  0  0  0  0  0  0  0  0  0
   -3.3667   -0.3044    0.0000 N   0  0  0  0  0  0  0  0  0  0  0  0
    4.3260    0.1753    0.0000 N   0  0  0  0  0  0  0  0  0  0  0  0
    1.5957    0.3228    0.0000 C   0  0  0  0  0  0  0  0  0  0  0  0
    2.2045    0.8947    0.0000 C   0  0  0  0  0  0  0  0  0  0  0  0
    2.9239    0.4704    0.0000 C   0  0  0  0  0  0  0  0  0  0  0  0
    0.8209    0.5995    0.0000 C   0  0  0  0  0  0  0  0  0  0  0  0
    2.7579   -0.3413    0.0000 C   0  0  0  0  0  0  0  0  0  0  0  0
    0.6364    1.3928    0.0000 C   0  0  0  0  0  0  0  0  0  0  0  0
   -0.5995    0.2859    0.0000 C   0  0  0  0  0  0  0  0  0  0  0  0
    0.2122    0.0277    0.0000 C   0  0  0  0  0  0  0  0  0  0  0  0
    3.6803    0.7103    0.0000 C   0  0  0  0  0  0  0  0  0  0  0  0
    2.0385    1.6880    0.0000 C   0  0  0  0  0  0  0  0  0  0  0  0
   -1.1899   -0.2859    0.0000 C   0  0  0  0  0  0  0  0  0  0  0  0
    1.2636    1.9462    0.0000 C   0  0  0  0  0  0  0  0  0  0  0  0
   -2.5734   -0.5811    0.0000 C   0  0  0  0  0  0  0  0  0  0  0  0
   -0.1199    1.6511    0.0000 C   0  0  0  0  0  0  0  0  0  0  0  0
    3.3851   -0.8947    0.0000 C   0  0  0  0  0  0  0  0  0  0  0  0
   -2.4074   -1.3559    0.0000 C   0  0  0  0  0  0  0  0  0  0  0  0
   -1.9831   -0.0277    0.0000 C   0  0  0  0  0  0  0  0  0  0  0  0
   -1.0239   -1.0976    0.0000 C   0  0  0  0  0  0  0  0  0  0  0  0
    4.1415   -0.6549    0.0000 C   0  0  0  0  0  0  0  0  0  0  0  0
   -1.6142   -1.6326    0.0000 C   0  0  0  0  0  0  0  0  0  0  0  0
   -3.5327    0.4889    0.0000 C   0  0  0  0  0  0  0  0  0  0  0  0
   -3.9570   -0.8578    0.0000 C   0  0  0  0  0  0  0  0  0  0  0  0
   -3.8095   -1.6695    0.0000 C   0  0  0  0  0  0  0  0  0  0  0  0
   -2.9609    1.0792    0.0000 C   0  0  0  0  0  0  0  0  0  0  0  0
   -3.2191    1.8909    0.0000 C   0  0  0  0  0  0  0  0  0  0  0  0
  1 23  1  0  0  0  0
  1 30  1  0  0  0  0
  2 16  2  0  0  0  0
  3 28  2  0  0  0  0
  4  8  1  0  0  0  0
  4 12  1  0  0  0  0
  5 14  2  0  0  0  0
  5 21  1  0  0  0  0
  6 20  1  0  0  0  0
  6 28  1  0  0  0  0
  6 29  1  0  0  0  0
  7 16  1  0  0  0  0
  7 26  1  0  0  0  0
  8  9  2  0  0  0  0
  8 11  1  0  0  0  0
  9 10  1  0  0  0  0
  9 17  1  0  0  0  0
 10 12  2  0  0  0  0
 10 16  1  0  0  0  0
 11 13  1  0  0  0  0
 11 15  2  0  0  0  0
 12 22  1  0  0  0  0
 13 19  1  0  0  0  0
 13 21  2  0  0  0  0
 14 15  1  0  0  0  0
 14 18  1  0  0  0  0
 17 19  1  0  0  0  0
 18 24  2  0  0  0  0
 18 25  1  0  0  0  0
 20 23  2  0  0  0  0
 20 24  1  0  0  0  0
 22 26  1  0  0  0  0
 23 27  1  0  0  0  0
 25 27  2  0  0  0  0
 28 31  1  0  0  0  0
 29 30  1  0  0  0  0
 31 32  2  0  0  0  0
M  END
> <PUBCHEM_COMPOUND_ID_TYPE>
0

> <PUBCHEM_TOTAL_CHARGE>
0

> <PUBCHEM_SUBSTANCE_ID>
310945201

> <PUBCHEM_SUBSTANCE_VERSION>
1

> <PUBCHEM_EXT_DATASOURCE_NAME>
4488

> <PUBCHEM_EXT_DATASOURCE_REGID>
SCHEMBL16123291

> <PUBCHEM_SUBSTANCE_COMMENT>
InChI=1S/C25H22N4O3/c1-2-22(30)29-9-10-32-21-6-4-14(11-20(21)29)19-12-17-15(13-27-19)3-5-16-23-18(28-24(16)17)7-8-26-25(23)31/h2,4,6,11-13,28H,1,3,5,7-10H2,(H,26,31)
InChIKey=TUJDUVAGRHSLCQ-UHFFFAOYSA-N

> <PUBCHEM_SUBSTANCE_SYNONYM>
SCHEMBL16123291

> <PUBCHEM_XREF_EXT_ID>
SCHEMBL16123291

> <PUBCHEM_EXT_DATASOURCE_URL>
https://www.surechembl.org/

> <PUBCHEM_EXT_SUBSTANCE_URL>
https://www.surechembl.org/chemical/SCHEMBL16123291

> <PUBCHEM_CID_ASSOCIATIONS>
86300317  1

> <PUBCHEM_COORDINATE_TYPE>
1
3

$$$$
