310943424
  -OEChem-07211613022D

 21 22  0     0  0  0  0  0  0999 V2000
   -2.3834    1.4362    0.0000 I   0  0  0  0  0  0  0  0  0  0  0  0
   -1.0847   -1.0389    0.0000 O   0  0  0  0  0  0  0  0  0  0  0  0
    0.3514   -2.6889    0.0000 O   0  0  0  0  0  0  0  0  0  0  0  0
   -1.8028    0.1986    0.0000 N   0  0  0  0  0  0  0  0  0  0  0  0
   -0.3667    1.0389    0.0000 C   0  0  0  0  0  0  0  0  0  0  0  0
    0.3514    1.4514    0.0000 C   0  0  0  0  0  0  0  0  0  0  0  0
    0.3514    2.2764    0.0000 C   0  0  0  0  0  0  0  0  0  0  0  0
   -0.3820    0.1986    0.0000 C   0  0  0  0  0  0  0  0  0  0  0  0
   -1.0847   -0.1986    0.0000 C   0  0  0  0  0  0  0  0  0  0  0  0
   -1.0847    1.4514    0.0000 C   0  0  0  0  0  0  0  0  0  0  0  0
   -1.8028    1.0389    0.0000 C   0  0  0  0  0  0  0  0  0  0  0  0
    1.0695    1.0389    0.0000 C   0  0  0  0  0  0  0  0  0  0  0  0
    1.7722    1.4667    0.0000 C   0  0  0  0  0  0  0  0  0  0  0  0
    1.0542    2.6889    0.0000 C   0  0  0  0  0  0  0  0  0  0  0  0
    1.7722    2.2764    0.0000 C   0  0  0  0  0  0  0  0  0  0  0  0
   -0.3820    2.6889    0.0000 C   0  0  0  0  0  0  0  0  0  0  0  0
    2.2917    1.2222    0.0000 C   0  0  0  0  0  0  0  0  0  0  0  0
   -0.3667   -1.4514    0.0000 C   0  0  0  0  0  0  0  0  0  0  0  0
    2.3681    0.7945    0.0000 C   0  0  0  0  0  0  0  0  0  0  0  0
   -0.3667   -2.2764    0.0000 C   0  0  0  0  0  0  0  0  0  0  0  0
    2.3834    0.3514    0.0000 C   0  0  0  0  0  0  0  0  0  0  0  0
  1 11  1  0  0  0  0
  2  9  1  0  0  0  0
  2 18  1  0  0  0  0
  3 20  1  0  0  0  0
  4  9  2  0  0  0  0
  4 11  1  0  0  0  0
  5  6  1  0  0  0  0
  5  8  2  0  0  0  0
  5 10  1  0  0  0  0
  6  7  1  0  0  0  0
  6 12  2  0  0  0  0
  7 14  2  0  0  0  0
  7 16  1  0  0  0  0
  8  9  1  0  0  0  0
 10 11  2  0  0  0  0
 12 13  1  0  0  0  0
 13 15  2  0  0  0  0
 13 17  1  0  0  0  0
 14 15  1  0  0  0  0
 17 19  1  0  0  0  0
 18 20  1  0  0  0  0
 19 21  1  0  0  0  0
M  END
> <PUBCHEM_COMPOUND_ID_TYPE>
0

> <PUBCHEM_TOTAL_CHARGE>
0

> <PUBCHEM_SUBSTANCE_ID>
310943424

> <PUBCHEM_SUBSTANCE_VERSION>
1

> <PUBCHEM_EXT_DATASOURCE_NAME>
4488

> <PUBCHEM_EXT_DATASOURCE_REGID>
SCHEMBL16121488

> <PUBCHEM_SUBSTANCE_COMMENT>
InChI=1S/C17H20INO2/c1-3-4-13-6-5-12(2)15(9-13)14-10-16(18)19-17(11-14)21-8-7-20/h5-6,9-11,20H,3-4,7-8H2,1-2H3
InChIKey=SDZRCTXQEDJUEU-UHFFFAOYSA-N

> <PUBCHEM_SUBSTANCE_SYNONYM>
SCHEMBL16121488

> <PUBCHEM_XREF_EXT_ID>
SCHEMBL16121488

> <PUBCHEM_EXT_DATASOURCE_URL>
https://www.surechembl.org/

> <PUBCHEM_EXT_SUBSTANCE_URL>
https://www.surechembl.org/chemical/SCHEMBL16121488

> <PUBCHEM_CID_ASSOCIATIONS>
117609848  1

> <PUBCHEM_COORDINATE_TYPE>
1
3

$$$$
