310933425
  -OEChem-07211613022D

 31 35  0     0  0  0  0  0  0999 V2000
    1.2692    0.0000    0.0000 F   0  0  0  0  0  0  0  0  0  0  0  0
    0.5394   -1.2375    0.0000 F   0  0  0  0  0  0  0  0  0  0  0  0
    0.0000   -5.2671    0.0000 O   0  0  0  0  0  0  0  0  0  0  0  0
    5.5845   -4.1249    0.0000 O   0  0  0  0  0  0  0  0  0  0  0  0
    4.2518   -3.4586    0.0000 N   0  0  0  0  0  0  0  0  0  0  0  0
    4.2518   -4.7912    0.0000 N   0  0  0  0  0  0  0  0  0  0  0  0
    2.6970   -0.8250    0.0000 N   0  0  0  0  0  0  0  0  0  0  0  0
    0.4125   -5.9970    0.0000 N   0  0  0  0  0  0  0  0  0  0  0  0
    2.7288   -3.2999    0.0000 C   0  0  0  0  0  0  0  0  0  0  0  0
    2.7288   -2.4749    0.0000 C   0  0  0  0  0  0  0  0  0  0  0  0
    3.4586   -3.6807    0.0000 C   0  0  0  0  0  0  0  0  0  0  0  0
    3.4268   -2.0307    0.0000 C   0  0  0  0  0  0  0  0  0  0  0  0
    3.4586   -4.5691    0.0000 C   0  0  0  0  0  0  0  0  0  0  0  0
    2.0307   -4.5691    0.0000 C   0  0  0  0  0  0  0  0  0  0  0  0
    1.9990   -2.0625    0.0000 C   0  0  0  0  0  0  0  0  0  0  0  0
    2.0307   -3.6807    0.0000 C   0  0  0  0  0  0  0  0  0  0  0  0
    3.4268   -1.2057    0.0000 C   0  0  0  0  0  0  0  0  0  0  0  0
    1.3009   -4.9816    0.0000 C   0  0  0  0  0  0  0  0  0  0  0  0
    1.9673   -1.2375    0.0000 C   0  0  0  0  0  0  0  0  0  0  0  0
    2.7288   -4.9499    0.0000 C   0  0  0  0  0  0  0  0  0  0  0  0
    4.7595   -4.1249    0.0000 C   0  0  0  0  0  0  0  0  0  0  0  0
    0.5394   -4.6325    0.0000 C   0  0  0  0  0  0  0  0  0  0  0  0
    1.2375   -5.8066    0.0000 C   0  0  0  0  0  0  0  0  0  0  0  0
    4.1566   -2.4432    0.0000 C   0  0  0  0  0  0  0  0  0  0  0  0
    1.2692   -0.8250    0.0000 C   0  0  0  0  0  0  0  0  0  0  0  0
    4.1249   -0.7932    0.0000 C   0  0  0  0  0  0  0  0  0  0  0  0
    1.2692   -2.4749    0.0000 C   0  0  0  0  0  0  0  0  0  0  0  0
    4.8547   -2.0307    0.0000 C   0  0  0  0  0  0  0  0  0  0  0  0
    4.8547   -1.2057    0.0000 C   0  0  0  0  0  0  0  0  0  0  0  0
    0.3808   -3.8393    0.0000 C   0  0  0  0  0  0  0  0  0  0  0  0
    1.8403   -6.3460    0.0000 C   0  0  0  0  0  0  0  0  0  0  0  0
  1 25  1  0  0  0  0
  2 25  1  0  0  0  0
  3  8  1  0  0  0  0
  3 22  1  0  0  0  0
  4 21  2  0  0  0  0
  5 11  1  0  0  0  0
  5 21  1  0  0  0  0
  6 13  1  0  0  0  0
  6 21  1  0  0  0  0
  7 17  2  0  0  0  0
  7 19  1  0  0  0  0
  8 23  2  0  0  0  0
  9 10  1  0  0  0  0
  9 11  1  0  0  0  0
  9 16  2  0  0  0  0
 10 12  2  0  0  0  0
 10 15  1  0  0  0  0
 11 13  2  0  0  0  0
 12 17  1  0  0  0  0
 12 24  1  0  0  0  0
 13 20  1  0  0  0  0
 14 16  1  0  0  0  0
 14 18  1  0  0  0  0
 14 20  2  0  0  0  0
 15 19  2  0  0  0  0
 15 27  1  0  0  0  0
 17 26  1  0  0  0  0
 18 22  2  0  0  0  0
 18 23  1  0  0  0  0
 19 25  1  0  0  0  0
 22 30  1  0  0  0  0
 23 31  1  0  0  0  0
 24 28  2  0  0  0  0
 26 29  2  0  0  0  0
 28 29  1  0  0  0  0
M  END
> <PUBCHEM_COMPOUND_ID_TYPE>
0

> <PUBCHEM_TOTAL_CHARGE>
0

> <PUBCHEM_SUBSTANCE_ID>
310933425

> <PUBCHEM_SUBSTANCE_VERSION>
1

> <PUBCHEM_EXT_DATASOURCE_NAME>
4488

> <PUBCHEM_EXT_DATASOURCE_REGID>
SCHEMBL16110842

> <PUBCHEM_SUBSTANCE_COMMENT>
InChI=1S/C23H18F2N4O2/c1-10-18(14-6-4-5-7-16(14)26-20(10)22(24)25)15-8-13(19-11(2)29-31-12(19)3)9-17-21(15)28-23(30)27-17/h4-9,22H,1-3H3,(H2,27,28,30)
InChIKey=MDZUOZILHZTOAI-UHFFFAOYSA-N

> <PUBCHEM_SUBSTANCE_SYNONYM>
SCHEMBL16110842

> <PUBCHEM_XREF_EXT_ID>
SCHEMBL16110842

> <PUBCHEM_EXT_DATASOURCE_URL>
https://www.surechembl.org/

> <PUBCHEM_EXT_SUBSTANCE_URL>
https://www.surechembl.org/chemical/SCHEMBL16110842

> <PUBCHEM_CID_ASSOCIATIONS>
117601829  1

> <PUBCHEM_COORDINATE_TYPE>
1
3

$$$$
