310944820
  -OEChem-07211613022D

 25 28  0     0  0  0  0  0  0999 V2000
    1.3126   -2.7315    0.0000 Cl  0  0  0  0  0  0  0  0  0  0  0  0
    2.6943    2.2851    0.0000 O   0  0  0  0  0  0  0  0  0  0  0  0
   -0.7068    0.6377    0.0000 N   0  0  0  0  0  0  0  0  0  0  0  0
   -0.2179   -0.0425    0.0000 N   0  0  0  0  0  0  0  0  0  0  0  0
    0.3029   -1.7218    0.0000 N   0  0  0  0  0  0  0  0  0  0  0  0
   -1.0788   -2.0939    0.0000 N   0  0  0  0  0  0  0  0  0  0  0  0
   -1.4933   -0.4251    0.0000 C   0  0  0  0  0  0  0  0  0  0  0  0
   -0.7174   -0.6908    0.0000 C   0  0  0  0  0  0  0  0  0  0  0  0
   -1.4827    0.4039    0.0000 C   0  0  0  0  0  0  0  0  0  0  0  0
   -0.5048   -1.4667    0.0000 C   0  0  0  0  0  0  0  0  0  0  0  0
   -2.1948   -0.8396    0.0000 C   0  0  0  0  0  0  0  0  0  0  0  0
   -2.2161    0.7971    0.0000 C   0  0  0  0  0  0  0  0  0  0  0  0
   -0.4942    1.4455    0.0000 C   0  0  0  0  0  0  0  0  0  0  0  0
    0.2923    1.6687    0.0000 C   0  0  0  0  0  0  0  0  0  0  0  0
   -2.9069   -0.4358    0.0000 C   0  0  0  0  0  0  0  0  0  0  0  0
   -2.9069    0.3933    0.0000 C   0  0  0  0  0  0  0  0  0  0  0  0
    0.5048   -2.4765    0.0000 C   0  0  0  0  0  0  0  0  0  0  0  0
   -0.8556   -2.8697    0.0000 C   0  0  0  0  0  0  0  0  0  0  0  0
   -0.0691   -3.0823    0.0000 C   0  0  0  0  0  0  0  0  0  0  0  0
    0.5155    2.4658    0.0000 C   0  0  0  0  0  0  0  0  0  0  0  0
    0.8769    1.0841    0.0000 C   0  0  0  0  0  0  0  0  0  0  0  0
    1.8866    2.0939    0.0000 C   0  0  0  0  0  0  0  0  0  0  0  0
    1.3233    2.6677    0.0000 C   0  0  0  0  0  0  0  0  0  0  0  0
    1.6740    1.2967    0.0000 C   0  0  0  0  0  0  0  0  0  0  0  0
    2.9069    3.0823    0.0000 C   0  0  0  0  0  0  0  0  0  0  0  0
  1 17  1  0  0  0  0
  2 22  1  0  0  0  0
  2 25  1  0  0  0  0
  3  4  1  0  0  0  0
  3  9  1  0  0  0  0
  3 13  1  0  0  0  0
  4  8  2  0  0  0  0
  5 10  2  0  0  0  0
  5 17  1  0  0  0  0
  6 10  1  0  0  0  0
  6 18  2  0  0  0  0
  7  8  1  0  0  0  0
  7  9  2  0  0  0  0
  7 11  1  0  0  0  0
  8 10  1  0  0  0  0
  9 12  1  0  0  0  0
 11 15  2  0  0  0  0
 12 16  2  0  0  0  0
 13 14  1  0  0  0  0
 14 20  2  0  0  0  0
 14 21  1  0  0  0  0
 15 16  1  0  0  0  0
 17 19  2  0  0  0  0
 18 19  1  0  0  0  0
 20 23  1  0  0  0  0
 21 24  2  0  0  0  0
 22 23  2  0  0  0  0
 22 24  1  0  0  0  0
M  END
> <PUBCHEM_COMPOUND_ID_TYPE>
0

> <PUBCHEM_TOTAL_CHARGE>
0

> <PUBCHEM_SUBSTANCE_ID>
310944820

> <PUBCHEM_SUBSTANCE_VERSION>
1

> <PUBCHEM_EXT_DATASOURCE_NAME>
4488

> <PUBCHEM_EXT_DATASOURCE_REGID>
SCHEMBL16122899

> <PUBCHEM_SUBSTANCE_COMMENT>
InChI=1S/C19H15ClN4O/c1-25-14-8-6-13(7-9-14)12-24-16-5-3-2-4-15(16)18(23-24)19-21-11-10-17(20)22-19/h2-11H,12H2,1H3
InChIKey=HKEIRGZERDIUSW-UHFFFAOYSA-N

> <PUBCHEM_SUBSTANCE_SYNONYM>
SCHEMBL16122899

> <PUBCHEM_XREF_EXT_ID>
SCHEMBL16122899

> <PUBCHEM_EXT_DATASOURCE_URL>
https://www.surechembl.org/

> <PUBCHEM_EXT_SUBSTANCE_URL>
https://www.surechembl.org/chemical/SCHEMBL16122899

> <PUBCHEM_CID_ASSOCIATIONS>
117611028  1

> <PUBCHEM_COORDINATE_TYPE>
1
3

$$$$
