310948536
  -OEChem-07211613022D

 37 42  0     1  0  0  0  0  0999 V2000
   -2.7021    2.7986    0.0000 O   0  0  0  0  0  0  0  0  0  0  0  0
    1.7509   -1.7922    0.0000 O   0  0  0  0  0  0  0  0  0  0  0  0
    0.0551    2.6746    0.0000 N   0  0  0  0  0  0  0  0  0  0  0  0
   -0.2757    1.9301    0.0000 N   0  0  0  0  0  0  0  0  0  0  0  0
   -1.6406    1.3924    0.0000 N   0  0  0  0  0  0  0  0  0  0  0  0
    0.3584   -1.5027    0.0000 N   0  0  0  0  0  0  0  0  0  0  0  0
   -1.9990    4.0532    0.0000 N   0  0  0  0  0  0  0  0  0  0  0  0
    0.7996   -2.8538    0.0000 N   0  0  0  0  0  0  0  0  0  0  0  0
    1.0340    0.7858    0.0000 N   0  0  0  0  0  0  0  0  0  0  0  0
   -1.2546    2.8124    0.0000 C   0  0  0  0  0  0  0  0  0  0  0  0
   -0.5653    3.2261    0.0000 C   0  0  0  0  0  0  0  0  0  0  0  0
   -1.1029    2.0266    0.0000 C   0  0  0  0  0  0  0  0  0  0  0  0
    0.8824    2.8538    0.0000 C   0  0  3  0  0  0  0  0  0  0  0  0
   -1.9990    3.2261    0.0000 C   0  0  0  0  0  0  0  0  0  0  0  0
   -0.5653    4.0532    0.0000 C   0  0  0  0  0  0  0  0  0  0  0  0
   -1.3924    0.6204    0.0000 C   0  0  0  0  0  0  0  0  0  0  0  0
   -0.3309   -0.3447    0.0000 C   0  0  0  0  0  0  0  0  0  0  0  0
   -0.8824   -0.9513    0.0000 C   0  0  0  0  0  0  0  0  0  0  0  0
    1.5027    2.3161    0.0000 C   0  0  3  0  0  0  0  0  0  0  0  0
   -0.5790    0.4274    0.0000 C   0  0  0  0  0  0  0  0  0  0  0  0
   -1.2959    4.4668    0.0000 C   0  0  0  0  0  0  0  0  0  0  0  0
    0.4274   -0.6756    0.0000 C   0  0  0  0  0  0  0  0  0  0  0  0
   -0.4412   -1.6681    0.0000 C   0  0  0  0  0  0  0  0  0  0  0  0
    0.9237    3.6810    0.0000 C   0  0  0  0  0  0  0  0  0  0  0  0
   -1.9163    0.0138    0.0000 C   0  0  0  0  0  0  0  0  0  0  0  0
   -1.6681   -0.7721    0.0000 C   0  0  0  0  0  0  0  0  0  0  0  0
    0.9650   -2.0404    0.0000 C   0  0  0  0  0  0  0  0  0  0  0  0
    2.3161    2.4540    0.0000 C   0  0  0  0  0  0  0  0  0  0  0  0
    1.2684    1.5165    0.0000 C   0  0  0  0  0  0  0  0  0  0  0  0
    1.6130    4.1497    0.0000 C   0  0  0  0  0  0  0  0  0  0  0  0
    2.7021    3.1709    0.0000 C   0  0  0  0  0  0  0  0  0  0  0  0
    2.3851    3.9292    0.0000 C   0  0  0  0  0  0  0  0  0  0  0  0
    0.0276   -3.1158    0.0000 C   0  0  0  0  0  0  0  0  0  0  0  0
    1.4200   -3.4052    0.0000 C   0  0  0  0  0  0  0  0  0  0  0  0
   -0.1516   -3.9292    0.0000 C   0  0  0  0  0  0  0  0  0  0  0  0
    1.2408   -4.2186    0.0000 C   0  0  0  0  0  0  0  0  0  0  0  0
    0.4825   -4.4668    0.0000 C   0  0  0  0  0  0  0  0  0  0  0  0
  1 14  2  0  0  0  0
  2 27  2  0  0  0  0
  3  4  1  0  0  0  0
  3 11  1  0  0  0  0
 13  3  1  6  0  0  0
  4 12  2  0  0  0  0
  5 12  1  0  0  0  0
  5 16  1  0  0  0  0
  6 22  1  0  0  0  0
  6 23  1  0  0  0  0
  6 27  1  0  0  0  0
  7 14  1  0  0  0  0
  7 21  1  0  0  0  0
  8 27  1  0  0  0  0
  8 33  1  0  0  0  0
  8 34  1  0  0  0  0
  9 29  3  0  0  0  0
 10 11  2  0  0  0  0
 10 12  1  0  0  0  0
 10 14  1  0  0  0  0
 11 15  1  0  0  0  0
 13 19  1  0  0  0  0
 13 24  1  0  0  0  0
 15 21  2  0  0  0  0
 16 20  1  0  0  0  0
 16 25  2  0  0  0  0
 17 18  1  0  0  0  0
 17 20  2  0  0  0  0
 17 22  1  0  0  0  0
 18 23  1  0  0  0  0
 18 26  2  0  0  0  0
 19 28  1  0  0  0  0
 19 29  1  1  0  0  0
 24 30  1  0  0  0  0
 25 26  1  0  0  0  0
 28 31  1  0  0  0  0
 30 32  1  0  0  0  0
 31 32  1  0  0  0  0
 33 35  1  0  0  0  0
 34 36  1  0  0  0  0
 35 37  1  0  0  0  0
 36 37  1  0  0  0  0
M  END
> <PUBCHEM_COMPOUND_ID_TYPE>
0

> <PUBCHEM_TOTAL_CHARGE>
0

> <PUBCHEM_SUBSTANCE_ID>
310948536

> <PUBCHEM_SUBSTANCE_VERSION>
1

> <PUBCHEM_EXT_DATASOURCE_NAME>
4488

> <PUBCHEM_EXT_DATASOURCE_REGID>
SCHEMBL16126718

> <PUBCHEM_SUBSTANCE_COMMENT>
InChI=1S/C28H33N7O2/c29-16-19-7-3-1-4-8-23(19)35-24-11-12-30-27(36)25(24)26(32-35)31-22-10-9-20-17-34(18-21(20)15-22)28(37)33-13-5-2-6-14-33/h9-12,15,19,23H,1-8,13-14,17-18H2,(H,30,36)(H,31,32)/t19-,23+/m0/s1
InChIKey=ISIFEXGMBZXFJC-WMZHIEFXSA-N

> <PUBCHEM_SUBSTANCE_SYNONYM>
SCHEMBL16126718

> <PUBCHEM_XREF_EXT_ID>
SCHEMBL16126718

> <PUBCHEM_EXT_DATASOURCE_URL>
https://www.surechembl.org/

> <PUBCHEM_EXT_SUBSTANCE_URL>
https://www.surechembl.org/chemical/SCHEMBL16126718

> <PUBCHEM_CID_ASSOCIATIONS>
117614093  1

> <PUBCHEM_COORDINATE_TYPE>
1
3

> <PUBCHEM_BONDANNOTATIONS>
19  29  5
13  3  6

$$$$
