310949214
  -OEChem-07211613022D

 64 74  0     0  0  0  0  0  0999 V2000
    2.1161    0.1755    0.0000 N   0  0  0  0  0  0  0  0  0  0  0  0
   -2.1780    0.1961    0.0000 N   0  0  0  0  0  0  0  0  0  0  0  0
    0.3200    1.9097    0.0000 N   0  0  0  0  0  0  0  0  0  0  0  0
   -0.4026    1.9097    0.0000 N   0  0  0  0  0  0  0  0  0  0  0  0
    4.2838   -0.3407    0.0000 N   0  0  0  0  0  0  0  0  0  0  0  0
   -4.3044   -0.2994    0.0000 N   0  0  0  0  0  0  0  0  0  0  0  0
    2.0748   -3.9534    0.0000 N   0  0  0  0  0  0  0  0  0  0  0  0
   -2.2193   -3.9534    0.0000 N   0  0  0  0  0  0  0  0  0  0  0  0
    2.7767    0.7123    0.0000 C   0  0  0  0  0  0  0  0  0  0  0  0
   -2.8593    0.7329    0.0000 C   0  0  0  0  0  0  0  0  0  0  0  0
    2.1161   -0.6503    0.0000 C   0  0  0  0  0  0  0  0  0  0  0  0
   -2.1780   -0.6296    0.0000 C   0  0  0  0  0  0  0  0  0  0  0  0
    1.4555    0.6709    0.0000 C   0  0  0  0  0  0  0  0  0  0  0  0
   -1.5174    0.7123    0.0000 C   0  0  0  0  0  0  0  0  0  0  0  0
    2.5496    1.4761    0.0000 C   0  0  0  0  0  0  0  0  0  0  0  0
   -2.5703    1.4968    0.0000 C   0  0  0  0  0  0  0  0  0  0  0  0
    1.7032    1.4761    0.0000 C   0  0  0  0  0  0  0  0  0  0  0  0
   -1.7651    1.4555    0.0000 C   0  0  0  0  0  0  0  0  0  0  0  0
    1.3935   -1.0632    0.0000 C   0  0  0  0  0  0  0  0  0  0  0  0
   -1.4555   -1.0425    0.0000 C   0  0  0  0  0  0  0  0  0  0  0  0
    2.8593   -1.0425    0.0000 C   0  0  0  0  0  0  0  0  0  0  0  0
   -2.8800   -1.0219    0.0000 C   0  0  0  0  0  0  0  0  0  0  0  0
    0.6916   -0.6296    0.0000 C   0  0  0  0  0  0  0  0  0  0  0  0
   -0.7535   -0.6090    0.0000 C   0  0  0  0  0  0  0  0  0  0  0  0
    3.1277    2.0955    0.0000 C   0  0  0  0  0  0  0  0  0  0  0  0
   -3.1070    2.0748    0.0000 C   0  0  0  0  0  0  0  0  0  0  0  0
    3.6232    0.5471    0.0000 C   0  0  0  0  0  0  0  0  0  0  0  0
   -3.6232    0.5471    0.0000 C   0  0  0  0  0  0  0  0  0  0  0  0
    0.6090    0.5471    0.0000 C   0  0  0  0  0  0  0  0  0  0  0  0
   -0.7329    0.5265    0.0000 C   0  0  0  0  0  0  0  0  0  0  0  0
   -0.0103   -1.0219    0.0000 C   0  0  0  0  0  0  0  0  0  0  0  0
    1.1045    2.0955    0.0000 C   0  0  0  0  0  0  0  0  0  0  0  0
   -1.2077    2.0748    0.0000 C   0  0  0  0  0  0  0  0  0  0  0  0
    3.8915    1.9303    0.0000 C   0  0  0  0  0  0  0  0  0  0  0  0
   -3.9328    1.9509    0.0000 C   0  0  0  0  0  0  0  0  0  0  0  0
    1.4348   -1.8890    0.0000 C   0  0  0  0  0  0  0  0  0  0  0  0
   -1.4555   -1.8270    0.0000 C   0  0  0  0  0  0  0  0  0  0  0  0
    2.8387   -1.8890    0.0000 C   0  0  0  0  0  0  0  0  0  0  0  0
   -2.8593   -1.8684    0.0000 C   0  0  0  0  0  0  0  0  0  0  0  0
    2.1367   -2.2813    0.0000 C   0  0  0  0  0  0  0  0  0  0  0  0
   -2.1574   -2.2813    0.0000 C   0  0  0  0  0  0  0  0  0  0  0  0
    4.1599    1.1252    0.0000 C   0  0  0  0  0  0  0  0  0  0  0  0
   -4.1393    1.1252    0.0000 C   0  0  0  0  0  0  0  0  0  0  0  0
    0.6916    0.1755    0.0000 C   0  0  0  0  0  0  0  0  0  0  0  0
   -0.7123    0.2168    0.0000 C   0  0  0  0  0  0  0  0  0  0  0  0
    0.0929    1.1252    0.0000 C   0  0  0  0  0  0  0  0  0  0  0  0
   -0.1342    1.1252    0.0000 C   0  0  0  0  0  0  0  0  0  0  0  0
    3.5612   -0.6709    0.0000 C   0  0  0  0  0  0  0  0  0  0  0  0
   -3.6026   -0.6503    0.0000 C   0  0  0  0  0  0  0  0  0  0  0  0
    4.4696    2.5703    0.0000 C   0  0  0  0  0  0  0  0  0  0  0  0
   -4.5315    2.5703    0.0000 C   0  0  0  0  0  0  0  0  0  0  0  0
   -0.0103    0.5884    0.0000 C   0  0  0  0  0  0  0  0  0  0  0  0
    2.0955   -3.1483    0.0000 C   0  0  0  0  0  0  0  0  0  0  0  0
   -2.1986   -3.1483    0.0000 C   0  0  0  0  0  0  0  0  0  0  0  0
    5.2335    2.4051    0.0000 C   0  0  0  0  0  0  0  0  0  0  0  0
    4.2012    3.3341    0.0000 C   0  0  0  0  0  0  0  0  0  0  0  0
   -4.2219    3.3548    0.0000 C   0  0  0  0  0  0  0  0  0  0  0  0
   -5.2747    2.4051    0.0000 C   0  0  0  0  0  0  0  0  0  0  0  0
    5.8115    3.0039    0.0000 C   0  0  0  0  0  0  0  0  0  0  0  0
    4.7379    3.9328    0.0000 C   0  0  0  0  0  0  0  0  0  0  0  0
   -4.7999    3.9534    0.0000 C   0  0  0  0  0  0  0  0  0  0  0  0
   -5.8115    3.0039    0.0000 C   0  0  0  0  0  0  0  0  0  0  0  0
    5.5638    3.7884    0.0000 C   0  0  0  0  0  0  0  0  0  0  0  0
   -5.5432    3.7884    0.0000 C   0  0  0  0  0  0  0  0  0  0  0  0
  1  9  1  0  0  0  0
  1 11  1  0  0  0  0
  1 13  1  0  0  0  0
  2 10  1  0  0  0  0
  2 12  1  0  0  0  0
  2 14  1  0  0  0  0
  3 32  2  0  0  0  0
  3 46  1  0  0  0  0
  4 33  2  0  0  0  0
  4 47  1  0  0  0  0
  5 48  3  0  0  0  0
  6 49  3  0  0  0  0
  7 53  3  0  0  0  0
  8 54  3  0  0  0  0
  9 15  2  0  0  0  0
  9 27  1  0  0  0  0
 10 16  2  0  0  0  0
 10 28  1  0  0  0  0
 11 19  1  0  0  0  0
 11 21  2  0  0  0  0
 12 20  2  0  0  0  0
 12 22  1  0  0  0  0
 13 17  2  0  0  0  0
 13 29  1  0  0  0  0
 14 18  2  0  0  0  0
 14 30  1  0  0  0  0
 15 17  1  0  0  0  0
 15 25  1  0  0  0  0
 16 18  1  0  0  0  0
 16 26  1  0  0  0  0
 17 32  1  0  0  0  0
 18 33  1  0  0  0  0
 19 23  1  0  0  0  0
 19 36  2  0  0  0  0
 20 24  1  0  0  0  0
 20 37  1  0  0  0  0
 21 38  1  0  0  0  0
 21 48  1  0  0  0  0
 22 39  2  0  0  0  0
 22 49  1  0  0  0  0
 23 31  1  0  0  0  0
 23 44  2  0  0  0  0
 24 31  2  0  0  0  0
 24 45  1  0  0  0  0
 25 34  2  0  0  0  0
 26 35  2  0  0  0  0
 27 42  2  0  0  0  0
 28 43  2  0  0  0  0
 29 46  2  0  0  0  0
 30 47  2  0  0  0  0
 34 42  1  0  0  0  0
 34 50  1  0  0  0  0
 35 43  1  0  0  0  0
 35 51  1  0  0  0  0
 36 40  1  0  0  0  0
 37 41  2  0  0  0  0
 38 40  2  0  0  0  0
 39 41  1  0  0  0  0
 40 53  1  0  0  0  0
 41 54  1  0  0  0  0
 44 52  1  0  0  0  0
 45 52  2  0  0  0  0
 50 55  2  0  0  0  0
 50 56  1  0  0  0  0
 51 57  2  0  0  0  0
 51 58  1  0  0  0  0
 55 59  1  0  0  0  0
 56 60  2  0  0  0  0
 57 61  1  0  0  0  0
 58 62  2  0  0  0  0
 59 63  2  0  0  0  0
 60 63  1  0  0  0  0
 61 64  2  0  0  0  0
 62 64  1  0  0  0  0
M  END
> <PUBCHEM_COMPOUND_ID_TYPE>
0

> <PUBCHEM_TOTAL_CHARGE>
0

> <PUBCHEM_SUBSTANCE_ID>
310949214

> <PUBCHEM_SUBSTANCE_VERSION>
1

> <PUBCHEM_EXT_DATASOURCE_NAME>
4488

> <PUBCHEM_EXT_DATASOURCE_REGID>
SCHEMBL16127404

> <PUBCHEM_SUBSTANCE_COMMENT>
InChI=1S/C56H30N8/c57-29-35-22-43(31-59)55(63-51-16-14-39(37-8-3-1-4-9-37)27-47(51)49-33-61-20-18-53(49)63)45(24-35)41-12-7-13-42(26-41)46-25-36(30-58)23-44(32-60)56(46)64-52-17-15-40(38-10-5-2-6-11-38)28-48(52)50-34-62-21-19-54(50)64/h1-28,33-34H
InChIKey=MKFLRFKZCZQFRX-UHFFFAOYSA-N

> <PUBCHEM_SUBSTANCE_SYNONYM>
SCHEMBL16127404

> <PUBCHEM_XREF_EXT_ID>
SCHEMBL16127404

> <PUBCHEM_EXT_DATASOURCE_URL>
https://www.surechembl.org/

> <PUBCHEM_EXT_SUBSTANCE_URL>
https://www.surechembl.org/chemical/SCHEMBL16127404

> <PUBCHEM_CID_ASSOCIATIONS>
117614702  1

> <PUBCHEM_COORDINATE_TYPE>
1
3

$$$$
