310937105
  -OEChem-07211613022D

 24 26  0     0  0  0  0  0  0999 V2000
    4.8109   -2.9814    0.0000 F   0  0  0  0  0  0  0  0  0  0  0  0
    4.4721   -1.6262    0.0000 F   0  0  0  0  0  0  0  0  0  0  0  0
    5.0480   -2.2022    0.0000 F   0  0  0  0  0  0  0  0  0  0  0  0
    1.2535   -4.5738    0.0000 O   0  0  0  0  0  0  0  0  0  0  0  0
    2.8797   -1.9650    0.0000 O   0  0  0  0  0  0  0  0  0  0  0  0
    0.5082   -2.5410    0.0000 N   0  0  0  0  0  0  0  0  0  0  0  0
    0.0000   -4.1672    0.0000 N   0  0  0  0  0  0  0  0  0  0  0  0
    0.0000   -4.9803    0.0000 N   0  0  0  0  0  0  0  0  0  0  0  0
    1.5246   -1.5923    0.0000 C   0  0  0  0  0  0  0  0  0  0  0  0
    1.0503   -3.1169    0.0000 C   0  0  0  0  0  0  0  0  0  0  0  0
    0.7792   -3.8962    0.0000 C   0  0  0  0  0  0  0  0  0  0  0  0
    2.0667   -2.1683    0.0000 C   0  0  0  0  0  0  0  0  0  0  0  0
    1.7956   -0.8131    0.0000 C   0  0  0  0  0  0  0  0  0  0  0  0
    0.7792   -5.2174    0.0000 C   0  0  0  0  0  0  0  0  0  0  0  0
    1.8634   -2.9475    0.0000 C   0  0  0  0  0  0  0  0  0  0  0  0
    1.0503   -5.9967    0.0000 C   0  0  0  0  0  0  0  0  0  0  0  0
    0.7114   -1.7279    0.0000 C   0  0  0  0  0  0  0  0  0  0  0  0
    1.6262    0.0000    0.0000 C   0  0  0  0  0  0  0  0  0  0  0  0
    2.4055   -0.2372    0.0000 C   0  0  0  0  0  0  0  0  0  0  0  0
    3.4218   -2.5749    0.0000 C   0  0  0  0  0  0  0  0  0  0  0  0
    4.2350   -2.4055    0.0000 C   0  0  0  0  0  0  0  0  0  0  0  0
    0.2372   -6.2677    0.0000 C   0  0  0  0  0  0  0  0  0  0  0  0
    1.2874   -6.7759    0.0000 C   0  0  0  0  0  0  0  0  0  0  0  0
    1.7956   -5.7595    0.0000 C   0  0  0  0  0  0  0  0  0  0  0  0
  1 21  1  0  0  0  0
  2 21  1  0  0  0  0
  3 21  1  0  0  0  0
  4 11  1  0  0  0  0
  4 14  1  0  0  0  0
  5 12  1  0  0  0  0
  5 20  1  0  0  0  0
  6 10  1  0  0  0  0
  6 17  2  0  0  0  0
  7  8  1  0  0  0  0
  7 11  2  0  0  0  0
  8 14  2  0  0  0  0
  9 12  2  0  0  0  0
  9 13  1  0  0  0  0
  9 17  1  0  0  0  0
 10 11  1  0  0  0  0
 10 15  2  0  0  0  0
 12 15  1  0  0  0  0
 13 18  1  0  0  0  0
 13 19  1  0  0  0  0
 14 16  1  0  0  0  0
 16 22  1  0  0  0  0
 16 23  1  0  0  0  0
 16 24  1  0  0  0  0
 18 19  1  0  0  0  0
 20 21  1  0  0  0  0
M  END
> <PUBCHEM_COMPOUND_ID_TYPE>
0

> <PUBCHEM_TOTAL_CHARGE>
0

> <PUBCHEM_SUBSTANCE_ID>
310937105

> <PUBCHEM_SUBSTANCE_VERSION>
1

> <PUBCHEM_EXT_DATASOURCE_NAME>
4488

> <PUBCHEM_EXT_DATASOURCE_REGID>
SCHEMBL16114821

> <PUBCHEM_SUBSTANCE_COMMENT>
InChI=1S/C16H18F3N3O2/c1-15(2,3)14-22-21-13(24-14)11-6-12(23-8-16(17,18)19)10(7-20-11)9-4-5-9/h6-7,9H,4-5,8H2,1-3H3
InChIKey=RJAVWJXYLHZJBO-UHFFFAOYSA-N

> <PUBCHEM_SUBSTANCE_SYNONYM>
SCHEMBL16114821

> <PUBCHEM_XREF_EXT_ID>
SCHEMBL16114821

> <PUBCHEM_EXT_DATASOURCE_URL>
https://www.surechembl.org/

> <PUBCHEM_EXT_SUBSTANCE_URL>
https://www.surechembl.org/chemical/SCHEMBL16114821

> <PUBCHEM_CID_ASSOCIATIONS>
117604939  1

> <PUBCHEM_COORDINATE_TYPE>
1
3

$$$$
