310946729
  -OEChem-07211613022D

 34 37  0     1  0  0  0  0  0999 V2000
   -1.0833    2.3794    0.0000 F   0  0  0  0  0  0  0  0  0  0  0  0
   -1.9906   -4.1941    0.0000 F   0  0  0  0  0  0  0  0  0  0  0  0
   -0.6389   -3.6941    0.0000 F   0  0  0  0  0  0  0  0  0  0  0  0
   -1.1758   -4.3422    0.0000 F   0  0  0  0  0  0  0  0  0  0  0  0
   -1.3610   -0.4722    0.0000 O   0  0  0  0  0  0  0  0  0  0  0  0
   -2.5090   -3.0460    0.0000 O   0  0  0  0  0  0  0  0  0  0  0  0
    0.0833    1.9165    0.0000 N   0  0  0  0  0  0  0  0  0  0  0  0
    0.6018    1.2684    0.0000 N   0  0  0  0  0  0  0  0  0  0  0  0
    0.4166   -0.2130    0.0000 N   0  0  0  0  0  0  0  0  0  0  0  0
   -2.1202    0.7499    0.0000 N   0  0  0  0  0  0  0  0  0  0  0  0
    2.5090    2.5275    0.0000 N   0  0  0  0  0  0  0  0  0  0  0  0
    0.3426    2.7313    0.0000 C   0  0  3  0  0  0  0  0  0  0  0  0
   -0.6759    1.6573    0.0000 C   0  0  0  0  0  0  0  0  0  0  0  0
   -0.6759    0.8240    0.0000 C   0  0  0  0  0  0  0  0  0  0  0  0
    0.1203    0.5832    0.0000 C   0  0  0  0  0  0  0  0  0  0  0  0
   -0.4722    2.9719    0.0000 C   0  0  3  0  0  0  0  0  0  0  0  0
   -1.3795    0.3981    0.0000 C   0  0  0  0  0  0  0  0  0  0  0  0
    0.9166    3.3238    0.0000 C   0  0  0  0  0  0  0  0  0  0  0  0
   -1.4536    2.0276    0.0000 C   0  0  0  0  0  0  0  0  0  0  0  0
    0.9166    2.1387    0.0000 C   0  0  0  0  0  0  0  0  0  0  0  0
   -1.7498   -2.7683    0.0000 C   0  0  3  0  0  0  0  0  0  0  0  0
   -0.1389   -0.8425    0.0000 C   0  0  0  0  0  0  0  0  0  0  0  0
   -0.6574    3.7867    0.0000 C   0  0  0  0  0  0  0  0  0  0  0  0
   -1.1943   -2.1017    0.0000 C   0  0  0  0  0  0  0  0  0  0  0  0
   -2.1387    1.6017    0.0000 C   0  0  0  0  0  0  0  0  0  0  0  0
   -1.4536   -3.5645    0.0000 C   0  0  0  0  0  0  0  0  0  0  0  0
    0.7129    4.1200    0.0000 C   0  0  0  0  0  0  0  0  0  0  0  0
   -0.0648    4.3422    0.0000 C   0  0  0  0  0  0  0  0  0  0  0  0
   -0.9536   -0.7129    0.0000 C   0  0  0  0  0  0  0  0  0  0  0  0
    0.1389   -1.6387    0.0000 C   0  0  0  0  0  0  0  0  0  0  0  0
   -1.4721   -1.3610    0.0000 C   0  0  0  0  0  0  0  0  0  0  0  0
   -0.3796   -2.2683    0.0000 C   0  0  0  0  0  0  0  0  0  0  0  0
    1.6943    2.3054    0.0000 C   0  0  0  0  0  0  0  0  0  0  0  0
   -2.3794   -2.2498    0.0000 C   0  0  0  0  0  0  0  0  0  0  0  0
 16  1  1  6  0  0  0
  2 26  1  0  0  0  0
  3 26  1  0  0  0  0
  4 26  1  0  0  0  0
  5 17  2  0  0  0  0
  6 21  1  0  0  0  0
  7  8  1  0  0  0  0
  7 12  1  0  0  0  0
  7 13  1  0  0  0  0
  8 15  2  0  0  0  0
  9 15  1  0  0  0  0
  9 22  1  0  0  0  0
 10 17  1  0  0  0  0
 10 25  1  0  0  0  0
 11 33  3  0  0  0  0
 12 16  1  0  0  0  0
 12 18  1  0  0  0  0
 12 20  1  1  0  0  0
 13 14  2  0  0  0  0
 13 19  1  0  0  0  0
 14 15  1  0  0  0  0
 14 17  1  0  0  0  0
 16 23  1  0  0  0  0
 18 27  1  0  0  0  0
 19 25  2  0  0  0  0
 20 33  1  0  0  0  0
 21 24  1  0  0  0  0
 21 26  1  0  0  0  0
 21 34  1  0  0  0  0
 22 29  2  0  0  0  0
 22 30  1  0  0  0  0
 23 28  1  0  0  0  0
 24 31  2  0  0  0  0
 24 32  1  0  0  0  0
 27 28  1  0  0  0  0
 29 31  1  0  0  0  0
 30 32  2  0  0  0  0
M  END
> <PUBCHEM_COMPOUND_ID_TYPE>
0

> <PUBCHEM_TOTAL_CHARGE>
0

> <PUBCHEM_SUBSTANCE_ID>
310946729

> <PUBCHEM_SUBSTANCE_VERSION>
1

> <PUBCHEM_EXT_DATASOURCE_NAME>
4488

> <PUBCHEM_EXT_DATASOURCE_REGID>
SCHEMBL16124853

> <PUBCHEM_SUBSTANCE_COMMENT>
InChI=1S/C23H23F4N5O2/c1-21(34,23(25,26)27)14-5-7-15(8-6-14)30-19-18-16(9-13-29-20(18)33)32(31-19)22(11-12-28)10-3-2-4-17(22)24/h5-9,13,17,34H,2-4,10-11H2,1H3,(H,29,33)(H,30,31)/t17-,21?,22-/m1/s1
InChIKey=RSHOQZPUWNYQDO-PNWAUMQTSA-N

> <PUBCHEM_SUBSTANCE_SYNONYM>
SCHEMBL16124853

> <PUBCHEM_XREF_EXT_ID>
SCHEMBL16124853

> <PUBCHEM_EXT_DATASOURCE_URL>
https://www.surechembl.org/

> <PUBCHEM_EXT_SUBSTANCE_URL>
https://www.surechembl.org/chemical/SCHEMBL16124853

> <PUBCHEM_CID_ASSOCIATIONS>
117612619  1

> <PUBCHEM_COORDINATE_TYPE>
1
3

> <PUBCHEM_BONDANNOTATIONS>
16  1  6
12  20  5

$$$$
