310937854
  -OEChem-07211613022D

 29 32  0     1  0  0  0  0  0999 V2000
    2.7910    0.0000    0.0000 F   0  0  0  0  0  0  0  0  0  0  0  0
    1.6447   -0.8473    0.0000 F   0  0  0  0  0  0  0  0  0  0  0  0
    3.2894   -0.6479    0.0000 F   0  0  0  0  0  0  0  0  0  0  0  0
    2.4920   -9.9678    0.0000 F   0  0  0  0  0  0  0  0  0  0  0  0
    1.6945   -3.1398    0.0000 O   0  0  0  0  0  0  0  0  0  0  0  0
    0.0000   -7.0772    0.0000 O   0  0  0  0  0  0  0  0  0  0  0  0
    2.0434   -4.9341    0.0000 N   0  0  0  0  0  0  0  0  0  0  0  0
    1.2460   -6.3794    0.0000 N   0  0  0  0  0  0  0  0  0  0  0  0
    3.2894   -5.4823    0.0000 N   0  0  0  0  0  0  0  0  0  0  0  0
    3.3891   -4.6350    0.0000 N   0  0  0  0  0  0  0  0  0  0  0  0
    2.9903   -2.8907    0.0000 N   0  0  0  0  0  0  0  0  0  0  0  0
    1.7942   -2.3424    0.0000 N   0  0  0  0  0  0  0  0  0  0  0  0
    2.4920   -5.6318    0.0000 C   0  0  0  0  0  0  0  0  0  0  0  0
    2.6415   -4.3360    0.0000 C   0  0  0  0  0  0  0  0  0  0  0  0
    2.0434   -6.3794    0.0000 C   0  0  3  0  0  0  0  0  0  0  0  0
    2.4421   -3.4887    0.0000 C   0  0  0  0  0  0  0  0  0  0  0  0
    1.2460   -4.9341    0.0000 C   0  0  0  0  0  0  0  0  0  0  0  0
    0.8473   -5.6318    0.0000 C   0  0  0  0  0  0  0  0  0  0  0  0
    0.8473   -7.0772    0.0000 C   0  0  0  0  0  0  0  0  0  0  0  0
    2.5916   -2.1929    0.0000 C   0  0  0  0  0  0  0  0  0  0  0  0
    1.2460   -7.8247    0.0000 C   0  0  0  0  0  0  0  0  0  0  0  0
    2.4421   -7.0772    0.0000 C   0  0  0  0  0  0  0  0  0  0  0  0
    2.9405   -1.4453    0.0000 C   0  0  0  0  0  0  0  0  0  0  0  0
    2.4421   -0.7476    0.0000 C   0  0  0  0  0  0  0  0  0  0  0  0
    2.0932   -7.8247    0.0000 C   0  0  0  0  0  0  0  0  0  0  0  0
    0.8473   -8.5225    0.0000 C   0  0  0  0  0  0  0  0  0  0  0  0
    2.4920   -8.5225    0.0000 C   0  0  0  0  0  0  0  0  0  0  0  0
    1.2460   -9.2202    0.0000 C   0  0  0  0  0  0  0  0  0  0  0  0
    2.0932   -9.2701    0.0000 C   0  0  0  0  0  0  0  0  0  0  0  0
  1 24  1  0  0  0  0
  2 24  1  0  0  0  0
  3 24  1  0  0  0  0
  4 29  1  0  0  0  0
  5 12  1  0  0  0  0
  5 16  1  0  0  0  0
  6 19  2  0  0  0  0
  7 13  1  0  0  0  0
  7 14  1  0  0  0  0
  7 17  1  0  0  0  0
  8 15  1  0  0  0  0
  8 18  1  0  0  0  0
  8 19  1  0  0  0  0
  9 10  1  0  0  0  0
  9 13  2  0  0  0  0
 10 14  2  0  0  0  0
 11 16  2  0  0  0  0
 11 20  1  0  0  0  0
 12 20  2  0  0  0  0
 13 15  1  0  0  0  0
 14 16  1  0  0  0  0
 15 22  1  1  0  0  0
 17 18  1  0  0  0  0
 19 21  1  0  0  0  0
 20 23  1  0  0  0  0
 21 25  2  0  0  0  0
 21 26  1  0  0  0  0
 23 24  1  0  0  0  0
 25 27  1  0  0  0  0
 26 28  2  0  0  0  0
 27 29  2  0  0  0  0
 28 29  1  0  0  0  0
M  END
> <PUBCHEM_COMPOUND_ID_TYPE>
0

> <PUBCHEM_TOTAL_CHARGE>
0

> <PUBCHEM_SUBSTANCE_ID>
310937854

> <PUBCHEM_SUBSTANCE_VERSION>
1

> <PUBCHEM_EXT_DATASOURCE_NAME>
4488

> <PUBCHEM_EXT_DATASOURCE_REGID>
SCHEMBL16115678

> <PUBCHEM_SUBSTANCE_COMMENT>
InChI=1S/C17H14F4N6O2/c1-9-13-23-24-14(15-22-12(25-29-15)8-17(19,20)21)27(13)7-6-26(9)16(28)10-2-4-11(18)5-3-10/h2-5,9H,6-8H2,1H3/t9-/m1/s1
InChIKey=BGZYIPYUGYCEIV-SECBINFHSA-N

> <PUBCHEM_SUBSTANCE_SYNONYM>
SCHEMBL16115678

> <PUBCHEM_XREF_EXT_ID>
SCHEMBL16115678

> <PUBCHEM_EXT_DATASOURCE_URL>
https://www.surechembl.org/

> <PUBCHEM_EXT_SUBSTANCE_URL>
https://www.surechembl.org/chemical/SCHEMBL16115678

> <PUBCHEM_CID_ASSOCIATIONS>
86272105  1

> <PUBCHEM_COORDINATE_TYPE>
1
3

> <PUBCHEM_BONDANNOTATIONS>
15  22  5

$$$$
