310947169
  -OEChem-07211613022D

 28 33  0     0  0  0  0  0  0999 V2000
   -2.3004   -1.8324    0.0000 O   0  0  0  0  0  0  0  0  0  0  0  0
   -3.4427   -1.1660    0.0000 O   0  0  0  0  0  0  0  0  0  0  0  0
    2.9667    0.3728    0.0000 O   0  0  0  0  0  0  0  0  0  0  0  0
    2.9667    1.7214    0.0000 O   0  0  0  0  0  0  0  0  0  0  0  0
    0.0000   -0.5949    0.0000 N   0  3  0  0  0  0  0  0  0  0  0  0
    0.0000    0.2459    0.0000 C   0  0  0  0  0  0  0  0  0  0  0  0
   -0.6822    0.6584    0.0000 C   0  0  0  0  0  0  0  0  0  0  0  0
   -1.3961    0.2459    0.0000 C   0  0  0  0  0  0  0  0  0  0  0  0
    0.7298    0.6584    0.0000 C   0  0  0  0  0  0  0  0  0  0  0  0
   -1.4119   -0.5791    0.0000 C   0  0  0  0  0  0  0  0  0  0  0  0
    0.7298    1.4834    0.0000 C   0  0  0  0  0  0  0  0  0  0  0  0
   -2.1259   -0.9915    0.0000 C   0  0  0  0  0  0  0  0  0  0  0  0
   -0.6663   -0.9915    0.0000 C   0  0  0  0  0  0  0  0  0  0  0  0
   -2.8398   -0.5791    0.0000 C   0  0  0  0  0  0  0  0  0  0  0  0
   -0.6663    1.4834    0.0000 C   0  0  0  0  0  0  0  0  0  0  0  0
    1.4596    0.2459    0.0000 C   0  0  0  0  0  0  0  0  0  0  0  0
    2.1576    0.6584    0.0000 C   0  0  0  0  0  0  0  0  0  0  0  0
   -2.1418    0.6426    0.0000 C   0  0  0  0  0  0  0  0  0  0  0  0
    0.0158    1.8800    0.0000 C   0  0  0  0  0  0  0  0  0  0  0  0
    2.1735    1.4834    0.0000 C   0  0  0  0  0  0  0  0  0  0  0  0
    1.4437    1.8800    0.0000 C   0  0  0  0  0  0  0  0  0  0  0  0
   -2.8240    0.2459    0.0000 C   0  0  0  0  0  0  0  0  0  0  0  0
    0.7456   -0.9915    0.0000 C   0  0  0  0  0  0  0  0  0  0  0  0
   -3.1254   -1.8800    0.0000 C   0  0  0  0  0  0  0  0  0  0  0  0
    3.4427    1.0551    0.0000 C   0  0  0  0  0  0  0  0  0  0  0  0
    1.4437   -0.5949    0.0000 C   0  0  0  0  0  0  0  0  0  0  0  0
    2.1893   -0.9915    0.0000 C   0  0  0  0  0  0  0  0  0  0  0  0
    2.8874   -0.5949    0.0000 C   0  0  0  0  0  0  0  0  0  0  0  0
  1 12  1  0  0  0  0
  1 24  1  0  0  0  0
  2 14  1  0  0  0  0
  2 24  1  0  0  0  0
  3 17  1  0  0  0  0
  3 25  1  0  0  0  0
  4 20  1  0  0  0  0
  4 25  1  0  0  0  0
  5  6  1  0  0  0  0
  5 13  2  0  0  0  0
  5 23  1  0  0  0  0
  6  7  2  0  0  0  0
  6  9  1  0  0  0  0
  7  8  1  0  0  0  0
  7 15  1  0  0  0  0
  8 10  1  0  0  0  0
  8 18  2  0  0  0  0
  9 11  2  0  0  0  0
  9 16  1  0  0  0  0
 10 12  2  0  0  0  0
 10 13  1  0  0  0  0
 11 19  1  0  0  0  0
 11 21  1  0  0  0  0
 12 14  1  0  0  0  0
 14 22  2  0  0  0  0
 15 19  1  0  0  0  0
 16 17  2  0  0  0  0
 17 20  1  0  0  0  0
 18 22  1  0  0  0  0
 20 21  2  0  0  0  0
 23 26  1  0  0  0  0
 26 27  1  0  0  0  0
 27 28  1  0  0  0  0
M  CHG  1   5   1
M  END
> <PUBCHEM_COMPOUND_ID_TYPE>
0

> <PUBCHEM_TOTAL_CHARGE>
1

> <PUBCHEM_SUBSTANCE_ID>
310947169

> <PUBCHEM_SUBSTANCE_VERSION>
1

> <PUBCHEM_EXT_DATASOURCE_NAME>
4488

> <PUBCHEM_EXT_DATASOURCE_REGID>
SCHEMBL16125323

> <PUBCHEM_SUBSTANCE_COMMENT>
InChI=1S/C23H22NO4/c1-2-3-8-24-11-18-15(6-7-19-23(18)28-13-25-19)16-5-4-14-9-20-21(27-12-26-20)10-17(14)22(16)24/h6-7,9-11H,2-5,8,12-13H2,1H3/q+1
InChIKey=YBKOZLODMLCSQD-UHFFFAOYSA-N

> <PUBCHEM_SUBSTANCE_SYNONYM>
SCHEMBL16125323

> <PUBCHEM_XREF_EXT_ID>
SCHEMBL16125323

> <PUBCHEM_EXT_DATASOURCE_URL>
https://www.surechembl.org/

> <PUBCHEM_EXT_SUBSTANCE_URL>
https://www.surechembl.org/chemical/SCHEMBL16125323

> <PUBCHEM_CID_ASSOCIATIONS>
117612995  1

> <PUBCHEM_COORDINATE_TYPE>
1
3

$$$$
