310949294
  -OEChem-07211613022D

 27 30  0     0  0  0  0  0  0999 V2000
   -0.0214    0.8721    0.0000 N   0  0  0  0  0  0  0  0  0  0  0  0
    2.1660    0.4003    0.0000 N   0  0  0  0  0  0  0  0  0  0  0  0
   -2.1803    0.4003    0.0000 N   0  0  0  0  0  0  0  0  0  0  0  0
   -0.0357   -3.2169    0.0000 N   0  0  0  0  0  0  0  0  0  0  0  0
   -0.7077    1.3868    0.0000 C   0  0  0  0  0  0  0  0  0  0  0  0
    0.6505    1.3868    0.0000 C   0  0  0  0  0  0  0  0  0  0  0  0
   -0.4504    2.1589    0.0000 C   0  0  0  0  0  0  0  0  0  0  0  0
    0.4217    2.1589    0.0000 C   0  0  0  0  0  0  0  0  0  0  0  0
   -0.0214    0.0715    0.0000 C   0  0  0  0  0  0  0  0  0  0  0  0
    0.7077   -0.3288    0.0000 C   0  0  0  0  0  0  0  0  0  0  0  0
   -0.7363   -0.3145    0.0000 C   0  0  0  0  0  0  0  0  0  0  0  0
   -1.5084    1.2152    0.0000 C   0  0  0  0  0  0  0  0  0  0  0  0
    1.4941    1.2152    0.0000 C   0  0  0  0  0  0  0  0  0  0  0  0
   -0.9794    2.7593    0.0000 C   0  0  0  0  0  0  0  0  0  0  0  0
    0.9651    2.7307    0.0000 C   0  0  0  0  0  0  0  0  0  0  0  0
   -1.7943    2.5878    0.0000 C   0  0  0  0  0  0  0  0  0  0  0  0
    1.7800    2.5735    0.0000 C   0  0  0  0  0  0  0  0  0  0  0  0
    0.7077   -1.1581    0.0000 C   0  0  0  0  0  0  0  0  0  0  0  0
   -0.7220   -1.1581    0.0000 C   0  0  0  0  0  0  0  0  0  0  0  0
   -0.0214   -1.5441    0.0000 C   0  0  0  0  0  0  0  0  0  0  0  0
   -2.0516    1.8158    0.0000 C   0  0  0  0  0  0  0  0  0  0  0  0
    2.0373    1.7872    0.0000 C   0  0  0  0  0  0  0  0  0  0  0  0
    1.4369    0.0572    0.0000 C   0  0  0  0  0  0  0  0  0  0  0  0
   -1.4655    0.0572    0.0000 C   0  0  0  0  0  0  0  0  0  0  0  0
   -0.0357   -2.4019    0.0000 C   0  0  0  0  0  0  0  0  0  0  0  0
   -2.3805    3.2169    0.0000 C   0  0  0  0  0  0  0  0  0  0  0  0
    2.3805    3.1740    0.0000 C   0  0  0  0  0  0  0  0  0  0  0  0
  1  5  1  0  0  0  0
  1  6  1  0  0  0  0
  1  9  1  0  0  0  0
  2 23  3  0  0  0  0
  3 24  3  0  0  0  0
  4 25  3  0  0  0  0
  5  7  2  0  0  0  0
  5 12  1  0  0  0  0
  6  8  2  0  0  0  0
  6 13  1  0  0  0  0
  7  8  1  0  0  0  0
  7 14  1  0  0  0  0
  8 15  1  0  0  0  0
  9 10  2  0  0  0  0
  9 11  1  0  0  0  0
 10 18  1  0  0  0  0
 10 23  1  0  0  0  0
 11 19  2  0  0  0  0
 11 24  1  0  0  0  0
 12 21  2  0  0  0  0
 13 22  2  0  0  0  0
 14 16  2  0  0  0  0
 15 17  2  0  0  0  0
 16 21  1  0  0  0  0
 16 26  1  0  0  0  0
 17 22  1  0  0  0  0
 17 27  1  0  0  0  0
 18 20  2  0  0  0  0
 19 20  1  0  0  0  0
 20 25  1  0  0  0  0
M  END
> <PUBCHEM_COMPOUND_ID_TYPE>
0

> <PUBCHEM_TOTAL_CHARGE>
0

> <PUBCHEM_SUBSTANCE_ID>
310949294

> <PUBCHEM_SUBSTANCE_VERSION>
1

> <PUBCHEM_EXT_DATASOURCE_NAME>
4488

> <PUBCHEM_EXT_DATASOURCE_REGID>
SCHEMBL16127484

> <PUBCHEM_SUBSTANCE_COMMENT>
InChI=1S/C23H14N4/c1-14-3-5-21-19(7-14)20-8-15(2)4-6-22(20)27(21)23-17(12-25)9-16(11-24)10-18(23)13-26/h3-10H,1-2H3
InChIKey=GLSLNYBHKDYZJF-UHFFFAOYSA-N

> <PUBCHEM_SUBSTANCE_SYNONYM>
SCHEMBL16127484

> <PUBCHEM_XREF_EXT_ID>
SCHEMBL16127484

> <PUBCHEM_EXT_DATASOURCE_URL>
https://www.surechembl.org/

> <PUBCHEM_EXT_SUBSTANCE_URL>
https://www.surechembl.org/chemical/SCHEMBL16127484

> <PUBCHEM_CID_ASSOCIATIONS>
117614778  1

> <PUBCHEM_COORDINATE_TYPE>
1
3

$$$$
