310948547
  -OEChem-07211613022D

 19 20  0     0  0  0  0  0  0999 V2000
    2.8941    1.1136    0.0000 Br  0  0  0  0  0  0  0  0  0  0  0  0
   -2.0967   -1.5536    0.0000 F   0  0  0  0  0  0  0  0  0  0  0  0
   -2.8941   -0.7562    0.0000 F   0  0  0  0  0  0  0  0  0  0  0  0
   -2.0967    0.0412    0.0000 F   0  0  0  0  0  0  0  0  0  0  0  0
   -0.6806    0.6875    0.0000 O   0  0  0  0  0  0  0  0  0  0  0  0
   -0.0481   -1.3749    0.0000 N   0  0  0  0  0  0  0  0  0  0  0  0
   -0.8593   -1.5536    0.0000 N   0  0  0  0  0  0  0  0  0  0  0  0
    0.0343   -0.5361    0.0000 C   0  0  0  0  0  0  0  0  0  0  0  0
   -1.2717   -0.8250    0.0000 C   0  0  0  0  0  0  0  0  0  0  0  0
    0.7356   -0.1237    0.0000 C   0  0  0  0  0  0  0  0  0  0  0  0
   -0.7219   -0.2062    0.0000 C   0  0  0  0  0  0  0  0  0  0  0  0
   -2.0967   -0.7425    0.0000 C   0  0  0  0  0  0  0  0  0  0  0  0
    0.7494    0.7012    0.0000 C   0  0  0  0  0  0  0  0  0  0  0  0
    1.4780   -0.5361    0.0000 C   0  0  0  0  0  0  0  0  0  0  0  0
    1.4367    1.0999    0.0000 C   0  0  0  0  0  0  0  0  0  0  0  0
    2.1792    0.7012    0.0000 C   0  0  0  0  0  0  0  0  0  0  0  0
    2.1655   -0.1237    0.0000 C   0  0  0  0  0  0  0  0  0  0  0  0
    0.5843   -1.9385    0.0000 C   0  0  0  0  0  0  0  0  0  0  0  0
    0.0343    1.1274    0.0000 C   0  0  0  0  0  0  0  0  0  0  0  0
  1 16  1  0  0  0  0
  2 12  1  0  0  0  0
  3 12  1  0  0  0  0
  4 12  1  0  0  0  0
  5 19  2  0  0  0  0
  6  7  1  0  0  0  0
  6  8  1  0  0  0  0
  6 18  1  0  0  0  0
  7  9  2  0  0  0  0
  8 10  1  0  0  0  0
  8 11  2  0  0  0  0
  9 11  1  0  0  0  0
  9 12  1  0  0  0  0
 10 13  2  0  0  0  0
 10 14  1  0  0  0  0
 13 15  1  0  0  0  0
 13 19  1  0  0  0  0
 14 17  2  0  0  0  0
 15 16  2  0  0  0  0
 16 17  1  0  0  0  0
M  END
> <PUBCHEM_COMPOUND_ID_TYPE>
0

> <PUBCHEM_TOTAL_CHARGE>
0

> <PUBCHEM_SUBSTANCE_ID>
310948547

> <PUBCHEM_SUBSTANCE_VERSION>
1

> <PUBCHEM_EXT_DATASOURCE_NAME>
4488

> <PUBCHEM_EXT_DATASOURCE_REGID>
SCHEMBL16126729

> <PUBCHEM_SUBSTANCE_COMMENT>
InChI=1S/C12H8BrF3N2O/c1-18-10(5-11(17-18)12(14,15)16)9-3-2-8(13)4-7(9)6-19/h2-6H,1H3
InChIKey=MLPNDLLJSHJAIU-UHFFFAOYSA-N

> <PUBCHEM_SUBSTANCE_SYNONYM>
SCHEMBL16126729

> <PUBCHEM_XREF_EXT_ID>
SCHEMBL16126729

> <PUBCHEM_EXT_DATASOURCE_URL>
https://www.surechembl.org/

> <PUBCHEM_EXT_SUBSTANCE_URL>
https://www.surechembl.org/chemical/SCHEMBL16126729

> <PUBCHEM_CID_ASSOCIATIONS>
117614101  1

> <PUBCHEM_COORDINATE_TYPE>
1
3

$$$$
