310942900
  -OEChem-07211613022D

 35 39  0     0  0  0  0  0  0999 V2000
    7.1498   -0.7798    0.0000 F   0  0  0  0  0  0  0  0  0  0  0  0
   -5.6723   -0.8947    0.0000 O   0  0  0  0  0  0  0  0  0  0  0  0
    4.8350    1.0589    0.0000 O   0  0  0  0  0  0  0  0  0  0  0  0
   -5.6723    1.5843    0.0000 O   0  0  0  0  0  0  0  0  0  0  0  0
   -2.7828   -0.8947    0.0000 O   0  0  0  0  0  0  0  0  0  0  0  0
   -0.6321   -0.4843    0.0000 O   0  0  0  0  0  0  0  0  0  0  0  0
    4.0305    0.8947    0.0000 N   0  0  0  0  0  0  0  0  0  0  0  0
    1.7813   -1.1739    0.0000 N   0  0  0  0  0  0  0  0  0  0  0  0
    4.7036   -0.2544    0.0000 C   0  0  0  0  0  0  0  0  0  0  0  0
    3.9320    0.0903    0.0000 C   0  0  0  0  0  0  0  0  0  0  0  0
    5.2618    0.3530    0.0000 C   0  0  0  0  0  0  0  0  0  0  0  0
   -4.9335    0.3694    0.0000 C   0  0  0  0  0  0  0  0  0  0  0  0
   -4.9499   -0.4679    0.0000 C   0  0  0  0  0  0  0  0  0  0  0  0
   -6.3947   -0.4679    0.0000 C   0  0  0  0  0  0  0  0  0  0  0  0
    3.2260   -0.3365    0.0000 C   0  0  0  0  0  0  0  0  0  0  0  0
   -5.6723    0.7798    0.0000 C   0  0  0  0  0  0  0  0  0  0  0  0
   -6.3618    0.3694    0.0000 C   0  0  0  0  0  0  0  0  0  0  0  0
    4.9663   -1.0425    0.0000 C   0  0  0  0  0  0  0  0  0  0  0  0
    6.0663    0.1724    0.0000 C   0  0  0  0  0  0  0  0  0  0  0  0
   -4.2439   -0.8783    0.0000 C   0  0  0  0  0  0  0  0  0  0  0  0
   -4.2439    0.7634    0.0000 C   0  0  0  0  0  0  0  0  0  0  0  0
   -3.5216   -0.4679    0.0000 C   0  0  0  0  0  0  0  0  0  0  0  0
    6.3126   -0.5993    0.0000 C   0  0  0  0  0  0  0  0  0  0  0  0
    5.7872   -1.2067    0.0000 C   0  0  0  0  0  0  0  0  0  0  0  0
    3.2260   -1.1739    0.0000 C   0  0  0  0  0  0  0  0  0  0  0  0
    2.5037    0.0739    0.0000 C   0  0  0  0  0  0  0  0  0  0  0  0
   -3.5052    0.3530    0.0000 C   0  0  0  0  0  0  0  0  0  0  0  0
   -7.1498   -0.1396    0.0000 C   0  0  0  0  0  0  0  0  0  0  0  0
   -6.4767   -1.3052    0.0000 C   0  0  0  0  0  0  0  0  0  0  0  0
    2.5201   -1.5843    0.0000 C   0  0  0  0  0  0  0  0  0  0  0  0
    1.7977   -0.3365    0.0000 C   0  0  0  0  0  0  0  0  0  0  0  0
    0.7962   -0.4843    0.0000 C   0  0  0  0  0  0  0  0  0  0  0  0
   -2.0933   -0.4843    0.0000 C   0  0  0  0  0  0  0  0  0  0  0  0
    0.1067   -0.8783    0.0000 C   0  0  0  0  0  0  0  0  0  0  0  0
   -1.3380   -0.8947    0.0000 C   0  0  0  0  0  0  0  0  0  0  0  0
  1 23  1  0  0  0  0
  2 13  1  0  0  0  0
  2 14  1  0  0  0  0
  3  7  1  0  0  0  0
  3 11  1  0  0  0  0
  4 16  2  0  0  0  0
  5 22  1  0  0  0  0
  5 33  1  0  0  0  0
  6 34  1  0  0  0  0
  6 35  1  0  0  0  0
  7 10  2  0  0  0  0
  8 30  1  0  0  0  0
  8 31  1  0  0  0  0
  8 32  1  0  0  0  0
  9 10  1  0  0  0  0
  9 11  2  0  0  0  0
  9 18  1  0  0  0  0
 10 15  1  0  0  0  0
 11 19  1  0  0  0  0
 12 13  2  0  0  0  0
 12 16  1  0  0  0  0
 12 21  1  0  0  0  0
 13 20  1  0  0  0  0
 14 17  1  0  0  0  0
 14 28  1  0  0  0  0
 14 29  1  0  0  0  0
 15 25  1  0  0  0  0
 15 26  1  0  0  0  0
 16 17  1  0  0  0  0
 18 24  2  0  0  0  0
 19 23  2  0  0  0  0
 20 22  2  0  0  0  0
 21 27  2  0  0  0  0
 22 27  1  0  0  0  0
 23 24  1  0  0  0  0
 25 30  1  0  0  0  0
 26 31  1  0  0  0  0
 32 34  1  0  0  0  0
 33 35  1  0  0  0  0
M  END
> <PUBCHEM_COMPOUND_ID_TYPE>
0

> <PUBCHEM_TOTAL_CHARGE>
0

> <PUBCHEM_SUBSTANCE_ID>
310942900

> <PUBCHEM_SUBSTANCE_VERSION>
1

> <PUBCHEM_EXT_DATASOURCE_NAME>
4488

> <PUBCHEM_EXT_DATASOURCE_REGID>
SCHEMBL16120958

> <PUBCHEM_SUBSTANCE_COMMENT>
InChI=1S/C27H31FN2O5/c1-27(2)17-23(31)21-6-4-20(16-24(21)34-27)33-14-13-32-12-11-30-9-7-18(8-10-30)26-22-5-3-19(28)15-25(22)35-29-26/h3-6,15-16,18H,7-14,17H2,1-2H3
InChIKey=SCFUJSASPMRHRP-UHFFFAOYSA-N

> <PUBCHEM_SUBSTANCE_SYNONYM>
SCHEMBL16120958

> <PUBCHEM_XREF_EXT_ID>
SCHEMBL16120958

> <PUBCHEM_EXT_DATASOURCE_URL>
https://www.surechembl.org/

> <PUBCHEM_EXT_SUBSTANCE_URL>
https://www.surechembl.org/chemical/SCHEMBL16120958

> <PUBCHEM_CID_ASSOCIATIONS>
86275673  1

> <PUBCHEM_COORDINATE_TYPE>
1
3

$$$$
