310944436
  -OEChem-07211613022D

 37 41  0     0  0  0  0  0  0999 V2000
    0.0000    2.4609    0.0000 F   0  0  0  0  0  0  0  0  0  0  0  0
   -1.4652   -0.0284    0.0000 N   0  0  0  0  0  0  0  0  0  0  0  0
    1.4368   -0.0427    0.0000 N   0  0  0  0  0  0  0  0  0  0  0  0
   -2.1480    1.9915    0.0000 N   0  0  0  0  0  0  0  0  0  0  0  0
    2.1480    1.9915    0.0000 N   0  0  0  0  0  0  0  0  0  0  0  0
   -0.7254    0.3983    0.0000 C   0  0  0  0  0  0  0  0  0  0  0  0
    0.7112    0.3841    0.0000 C   0  0  0  0  0  0  0  0  0  0  0  0
   -0.7112    1.2234    0.0000 C   0  0  0  0  0  0  0  0  0  0  0  0
    0.7254    1.2234    0.0000 C   0  0  0  0  0  0  0  0  0  0  0  0
    0.0000    1.6359    0.0000 C   0  0  0  0  0  0  0  0  0  0  0  0
    0.0000   -0.0142    0.0000 C   0  0  0  0  0  0  0  0  0  0  0  0
   -1.4652   -0.8393    0.0000 C   0  0  0  0  0  0  0  0  0  0  0  0
   -2.1907    0.3983    0.0000 C   0  0  0  0  0  0  0  0  0  0  0  0
    1.4225   -0.8535    0.0000 C   0  0  0  0  0  0  0  0  0  0  0  0
    2.1622    0.3841    0.0000 C   0  0  0  0  0  0  0  0  0  0  0  0
   -1.4510    1.6217    0.0000 C   0  0  0  0  0  0  0  0  0  0  0  0
    1.4368    1.6217    0.0000 C   0  0  0  0  0  0  0  0  0  0  0  0
   -2.1907   -1.2660    0.0000 C   0  0  0  0  0  0  0  0  0  0  0  0
   -2.1907    1.2234    0.0000 C   0  0  0  0  0  0  0  0  0  0  0  0
   -0.7397   -1.2518    0.0000 C   0  0  0  0  0  0  0  0  0  0  0  0
   -2.8877    0.0000    0.0000 C   0  0  0  0  0  0  0  0  0  0  0  0
    0.7254   -1.2660    0.0000 C   0  0  0  0  0  0  0  0  0  0  0  0
    2.9162    0.0000    0.0000 C   0  0  0  0  0  0  0  0  0  0  0  0
    2.1480   -1.2518    0.0000 C   0  0  0  0  0  0  0  0  0  0  0  0
    2.1622    1.1949    0.0000 C   0  0  0  0  0  0  0  0  0  0  0  0
   -2.1765   -2.0627    0.0000 C   0  0  0  0  0  0  0  0  0  0  0  0
   -2.9020    1.6359    0.0000 C   0  0  0  0  0  0  0  0  0  0  0  0
   -0.7682   -2.0769    0.0000 C   0  0  0  0  0  0  0  0  0  0  0  0
   -3.5990    0.3983    0.0000 C   0  0  0  0  0  0  0  0  0  0  0  0
    0.7254   -2.0627    0.0000 C   0  0  0  0  0  0  0  0  0  0  0  0
    3.5847    0.3983    0.0000 C   0  0  0  0  0  0  0  0  0  0  0  0
    2.1480   -2.0769    0.0000 C   0  0  0  0  0  0  0  0  0  0  0  0
    2.8735    1.6217    0.0000 C   0  0  0  0  0  0  0  0  0  0  0  0
   -1.4510   -2.4609    0.0000 C   0  0  0  0  0  0  0  0  0  0  0  0
   -3.5990    1.2234    0.0000 C   0  0  0  0  0  0  0  0  0  0  0  0
    1.4368   -2.4609    0.0000 C   0  0  0  0  0  0  0  0  0  0  0  0
    3.5990    1.1949    0.0000 C   0  0  0  0  0  0  0  0  0  0  0  0
  1 10  1  0  0  0  0
  2  6  1  0  0  0  0
  2 12  1  0  0  0  0
  2 13  1  0  0  0  0
  3  7  1  0  0  0  0
  3 14  1  0  0  0  0
  3 15  1  0  0  0  0
  4 16  3  0  0  0  0
  5 17  3  0  0  0  0
  6  8  2  0  0  0  0
  6 11  1  0  0  0  0
  7  9  1  0  0  0  0
  7 11  2  0  0  0  0
  8 10  1  0  0  0  0
  8 16  1  0  0  0  0
  9 10  2  0  0  0  0
  9 17  1  0  0  0  0
 12 18  2  0  0  0  0
 12 20  1  0  0  0  0
 13 19  2  0  0  0  0
 13 21  1  0  0  0  0
 14 22  2  0  0  0  0
 14 24  1  0  0  0  0
 15 23  2  0  0  0  0
 15 25  1  0  0  0  0
 18 26  1  0  0  0  0
 19 27  1  0  0  0  0
 20 28  2  0  0  0  0
 21 29  2  0  0  0  0
 22 30  1  0  0  0  0
 23 31  1  0  0  0  0
 24 32  2  0  0  0  0
 25 33  2  0  0  0  0
 26 34  2  0  0  0  0
 27 35  2  0  0  0  0
 28 34  1  0  0  0  0
 29 35  1  0  0  0  0
 30 36  2  0  0  0  0
 31 37  2  0  0  0  0
 32 36  1  0  0  0  0
 33 37  1  0  0  0  0
M  END
> <PUBCHEM_COMPOUND_ID_TYPE>
0

> <PUBCHEM_TOTAL_CHARGE>
0

> <PUBCHEM_SUBSTANCE_ID>
310944436

> <PUBCHEM_SUBSTANCE_VERSION>
1

> <PUBCHEM_EXT_DATASOURCE_NAME>
4488

> <PUBCHEM_EXT_DATASOURCE_REGID>
SCHEMBL16122511

> <PUBCHEM_SUBSTANCE_COMMENT>
InChI=1S/C32H21FN4/c33-32-28(22-34)30(36(24-13-5-1-6-14-24)25-15-7-2-8-16-25)21-31(29(32)23-35)37(26-17-9-3-10-18-26)27-19-11-4-12-20-27/h1-21H
InChIKey=MVAZJTZDQQMTTF-UHFFFAOYSA-N

> <PUBCHEM_SUBSTANCE_SYNONYM>
SCHEMBL16122511

> <PUBCHEM_XREF_EXT_ID>
SCHEMBL16122511

> <PUBCHEM_EXT_DATASOURCE_URL>
https://www.surechembl.org/

> <PUBCHEM_EXT_SUBSTANCE_URL>
https://www.surechembl.org/chemical/SCHEMBL16122511

> <PUBCHEM_CID_ASSOCIATIONS>
117610690  1

> <PUBCHEM_COORDINATE_TYPE>
1
3

$$$$
