310929714
  -OEChem-07211613022D

 26 28  0     1  0  0  0  0  0999 V2000
    2.9164   -1.5861    0.0000 S   0  0  0  0  0  0  0  0  0  0  0  0
    3.6839   -1.2791    0.0000 O   0  0  0  0  0  0  0  0  0  0  0  0
    2.1489   -1.8931    0.0000 O   0  0  0  0  0  0  0  0  0  0  0  0
    4.5793   -1.8164    0.0000 O   0  0  0  0  0  0  0  0  0  0  0  0
    5.1933   -1.7908    0.0000 O   0  0  0  0  0  0  0  0  0  0  0  0
    6.4468   -2.5071    0.0000 O   0  0  0  0  0  0  0  0  0  0  0  0
    0.0768   -3.6583    0.0000 O   0  0  0  0  0  0  0  0  0  0  0  0
    3.2490   -2.3536    0.0000 N   0  0  0  0  0  0  0  0  0  0  0  0
    5.1933   -3.2234    0.0000 N   0  0  0  0  0  0  0  0  0  0  0  0
    1.4071   -2.6606    0.0000 N   0  0  0  0  0  0  0  0  0  0  0  0
    4.3746   -3.2234    0.0000 C   0  0  3  0  0  0  0  0  0  0  0  0
    2.6094   -0.8186    0.0000 C   0  0  0  0  0  0  0  0  0  0  0  0
    4.0677   -3.9909    0.0000 C   0  0  3  0  0  0  0  0  0  0  0  0
    4.0677   -2.4560    0.0000 C   0  0  0  0  0  0  0  0  0  0  0  0
    3.5560   -3.3514    0.0000 C   0  0  0  0  0  0  0  0  0  0  0  0
    1.9699   -0.3070    0.0000 C   0  0  0  0  0  0  0  0  0  0  0  0
    2.7118    0.0000    0.0000 C   0  0  0  0  0  0  0  0  0  0  0  0
    1.9699   -1.3559    0.0000 C   0  0  0  0  0  0  0  0  0  0  0  0
    4.1700   -4.8095    0.0000 C   0  0  0  0  0  0  0  0  0  0  0  0
    5.6282   -2.5071    0.0000 C   0  0  0  0  0  0  0  0  0  0  0  0
    2.0722   -2.1489    0.0000 C   0  0  0  0  0  0  0  0  0  0  0  0
    4.9375   -5.1165    0.0000 C   0  0  0  0  0  0  0  0  0  0  0  0
    1.5094   -3.4792    0.0000 C   0  0  0  0  0  0  0  0  0  0  0  0
    0.6395   -2.3536    0.0000 C   0  0  0  0  0  0  0  0  0  0  0  0
    0.0000   -2.8652    0.0000 C   0  0  0  0  0  0  0  0  0  0  0  0
    0.8698   -3.9909    0.0000 C   0  0  0  0  0  0  0  0  0  0  0  0
  1  2  2  0  0  0  0
  1  3  2  0  0  0  0
  1  8  1  0  0  0  0
  1 12  1  0  0  0  0
  4 14  2  0  0  0  0
  5 20  2  0  0  0  0
  6 20  1  0  0  0  0
  7 25  1  0  0  0  0
  7 26  1  0  0  0  0
  8 14  1  0  0  0  0
 11  9  1  1  0  0  0
  9 20  1  0  0  0  0
 10 21  1  0  0  0  0
 10 23  1  0  0  0  0
 10 24  1  0  0  0  0
 11 13  1  0  0  0  0
 11 14  1  6  0  0  0
 11 15  1  0  0  0  0
 12 16  1  0  0  0  0
 12 17  1  0  0  0  0
 12 18  1  0  0  0  0
 13 15  1  0  0  0  0
 13 19  1  6  0  0  0
 16 17  1  0  0  0  0
 18 21  1  0  0  0  0
 19 22  2  0  0  0  0
 23 26  1  0  0  0  0
 24 25  1  0  0  0  0
M  END
> <PUBCHEM_COMPOUND_ID_TYPE>
0

> <PUBCHEM_TOTAL_CHARGE>
0

> <PUBCHEM_SUBSTANCE_ID>
310929714

> <PUBCHEM_SUBSTANCE_VERSION>
1

> <PUBCHEM_EXT_DATASOURCE_NAME>
4488

> <PUBCHEM_EXT_DATASOURCE_REGID>
SCHEMBL16106907

> <PUBCHEM_SUBSTANCE_COMMENT>
InChI=1S/C16H25N3O6S/c1-2-12-11-16(12,17-14(21)22)13(20)18-26(23,24)15(3-4-15)5-6-19-7-9-25-10-8-19/h2,12,17H,1,3-11H2,(H,18,20)(H,21,22)/t12-,16-/m1/s1
InChIKey=YMNBHUAXDNQBRK-MLGOLLRUSA-N

> <PUBCHEM_SUBSTANCE_SYNONYM>
SCHEMBL16106907

> <PUBCHEM_XREF_EXT_ID>
SCHEMBL16106907

> <PUBCHEM_EXT_DATASOURCE_URL>
https://www.surechembl.org/

> <PUBCHEM_EXT_SUBSTANCE_URL>
https://www.surechembl.org/chemical/SCHEMBL16106907

> <PUBCHEM_CID_ASSOCIATIONS>
117599010  1

> <PUBCHEM_COORDINATE_TYPE>
1
3

> <PUBCHEM_BONDANNOTATIONS>
11  14  6
13  19  6
11  9  5

$$$$
