310947422
  -OEChem-07211613022D

 23 24  0     0  0  0  0  0  0999 V2000
   -0.9752   15.7055    0.0000 O   0  0  0  0  0  0  0  0  0  0  0  0
    2.5971   16.9430    0.0000 O   0  0  0  0  0  0  0  0  0  0  0  0
   -3.1186   16.1180    0.0000 O   0  0  0  0  0  0  0  0  0  0  0  0
   -1.6897   14.4680    0.0000 N   0  0  0  0  0  0  0  0  0  0  0  0
    3.3116   15.7055    0.0000 N   0  0  0  0  0  0  0  0  0  0  0  0
   -0.9752   14.8805    0.0000 C   0  0  0  0  0  0  0  0  0  0  0  0
   -1.6897   13.6430    0.0000 C   0  0  0  0  0  0  0  0  0  0  0  0
    0.4537   14.8805    0.0000 C   0  0  0  0  0  0  0  0  0  0  0  0
   -0.2608   14.4680    0.0000 C   0  0  0  0  0  0  0  0  0  0  0  0
    1.8827   15.7055    0.0000 C   0  0  0  0  0  0  0  0  0  0  0  0
    1.1682   14.4680    0.0000 C   0  0  0  0  0  0  0  0  0  0  0  0
    0.4537   15.7055    0.0000 C   0  0  0  0  0  0  0  0  0  0  0  0
    1.8827   14.8805    0.0000 C   0  0  0  0  0  0  0  0  0  0  0  0
    1.1682   16.1180    0.0000 C   0  0  0  0  0  0  0  0  0  0  0  0
   -2.4042   14.8805    0.0000 C   0  0  0  0  0  0  0  0  0  0  0  0
    2.5971   16.1180    0.0000 C   0  0  0  0  0  0  0  0  0  0  0  0
   -0.9752   13.2305    0.0000 C   0  0  0  0  0  0  0  0  0  0  0  0
   -2.4042   13.2305    0.0000 C   0  0  0  0  0  0  0  0  0  0  0  0
   -0.9752   12.4055    0.0000 C   0  0  0  0  0  0  0  0  0  0  0  0
   -2.4042   12.4055    0.0000 C   0  0  0  0  0  0  0  0  0  0  0  0
   -1.6897   11.9930    0.0000 C   0  0  0  0  0  0  0  0  0  0  0  0
   -2.4042   15.7055    0.0000 C   0  0  0  0  0  0  0  0  0  0  0  0
    4.0261   16.1180    0.0000 C   0  0  0  0  0  0  0  0  0  0  0  0
  1  6  2  0  0  0  0
  2 16  2  0  0  0  0
  3 22  1  0  0  0  0
  4  6  1  0  0  0  0
  4  7  1  0  0  0  0
  4 15  1  0  0  0  0
  5 16  1  0  0  0  0
  5 23  1  0  0  0  0
  6  9  1  0  0  0  0
  7 17  2  0  0  0  0
  7 18  1  0  0  0  0
  8  9  1  0  0  0  0
  8 11  2  0  0  0  0
  8 12  1  0  0  0  0
 10 13  2  0  0  0  0
 10 14  1  0  0  0  0
 10 16  1  0  0  0  0
 11 13  1  0  0  0  0
 12 14  2  0  0  0  0
 15 22  1  0  0  0  0
 17 19  1  0  0  0  0
 18 20  2  0  0  0  0
 19 21  2  0  0  0  0
 20 21  1  0  0  0  0
M  END
> <PUBCHEM_COMPOUND_ID_TYPE>
0

> <PUBCHEM_TOTAL_CHARGE>
0

> <PUBCHEM_SUBSTANCE_ID>
310947422

> <PUBCHEM_SUBSTANCE_VERSION>
1

> <PUBCHEM_EXT_DATASOURCE_NAME>
4488

> <PUBCHEM_EXT_DATASOURCE_REGID>
SCHEMBL16125583

> <PUBCHEM_SUBSTANCE_COMMENT>
InChI=1S/C18H20N2O3/c1-19-18(23)15-9-7-14(8-10-15)13-17(22)20(11-12-21)16-5-3-2-4-6-16/h2-10,21H,11-13H2,1H3,(H,19,23)
InChIKey=AMEVVQXEMLDOFW-UHFFFAOYSA-N

> <PUBCHEM_SUBSTANCE_SYNONYM>
SCHEMBL16125583

> <PUBCHEM_XREF_EXT_ID>
SCHEMBL16125583

> <PUBCHEM_EXT_DATASOURCE_URL>
https://www.surechembl.org/

> <PUBCHEM_EXT_SUBSTANCE_URL>
https://www.surechembl.org/chemical/SCHEMBL16125583

> <PUBCHEM_CID_ASSOCIATIONS>
117613155  1

> <PUBCHEM_COORDINATE_TYPE>
1
3

$$$$
