310936420
  -OEChem-07211613022D

 22 23  0     1  0  0  0  0  0999 V2000
    0.8250   -0.7250    0.0000 Cl  0  0  0  0  0  0  0  0  0  0  0  0
    0.0000   -2.1500    0.0000 Cl  0  0  0  0  0  0  0  0  0  0  0  0
    4.5250   -2.8500    0.0000 O   0  0  0  0  0  0  0  0  0  0  0  0
    4.5250    0.0000    0.0000 O   0  0  0  0  0  0  0  0  0  0  0  0
    5.7750   -0.7250    0.0000 O   0  0  0  0  0  0  0  0  0  0  0  0
    4.5250   -1.4250    0.0000 N   0  0  0  0  0  0  0  0  0  0  0  0
    3.3000   -2.1500    0.0000 C   0  0  3  0  0  0  0  0  0  0  0  0
    2.4750   -2.1500    0.0000 C   0  0  0  0  0  0  0  0  0  0  0  0
    3.7000   -2.8500    0.0000 C   0  0  3  0  0  0  0  0  0  0  0  0
    2.0500   -1.4250    0.0000 C   0  0  0  0  0  0  0  0  0  0  0  0
    3.3000   -3.5750    0.0000 C   0  0  0  0  0  0  0  0  0  0  0  0
    1.2500   -1.4250    0.0000 C   0  0  0  0  0  0  0  0  0  0  0  0
    2.0500   -2.8500    0.0000 C   0  0  0  0  0  0  0  0  0  0  0  0
    0.8250   -2.1500    0.0000 C   0  0  0  0  0  0  0  0  0  0  0  0
    3.7000   -1.4250    0.0000 C   0  0  0  0  0  0  0  0  0  0  0  0
    1.2500   -2.8500    0.0000 C   0  0  0  0  0  0  0  0  0  0  0  0
    3.7000   -4.3000    0.0000 C   0  0  0  0  0  0  0  0  0  0  0  0
    2.4750   -3.5750    0.0000 C   0  0  0  0  0  0  0  0  0  0  0  0
    3.3000   -5.0000    0.0000 C   0  0  0  0  0  0  0  0  0  0  0  0
    2.0750   -4.2750    0.0000 C   0  0  0  0  0  0  0  0  0  0  0  0
    4.9500   -0.7250    0.0000 C   0  0  0  0  0  0  0  0  0  0  0  0
    2.4750   -5.0000    0.0000 C   0  0  0  0  0  0  0  0  0  0  0  0
  1 12  1  0  0  0  0
  2 14  1  0  0  0  0
  9  3  1  6  0  0  0
  4 21  2  0  0  0  0
  5 21  1  0  0  0  0
  6 15  1  0  0  0  0
  6 21  1  0  0  0  0
  7  8  1  0  0  0  0
  7  9  1  0  0  0  0
  7 15  1  1  0  0  0
  8 10  1  0  0  0  0
  8 13  2  0  0  0  0
  9 11  1  0  0  0  0
 10 12  2  0  0  0  0
 11 17  2  0  0  0  0
 11 18  1  0  0  0  0
 12 14  1  0  0  0  0
 13 16  1  0  0  0  0
 14 16  2  0  0  0  0
 17 19  1  0  0  0  0
 18 20  2  0  0  0  0
 19 22  2  0  0  0  0
 20 22  1  0  0  0  0
M  END
> <PUBCHEM_COMPOUND_ID_TYPE>
0

> <PUBCHEM_TOTAL_CHARGE>
0

> <PUBCHEM_SUBSTANCE_ID>
310936420

> <PUBCHEM_SUBSTANCE_VERSION>
1

> <PUBCHEM_EXT_DATASOURCE_NAME>
4488

> <PUBCHEM_EXT_DATASOURCE_REGID>
SCHEMBL16114061

> <PUBCHEM_SUBSTANCE_COMMENT>
InChI=1S/C16H15Cl2NO3/c17-13-7-6-11(8-14(13)18)12(9-19-16(21)22)15(20)10-4-2-1-3-5-10/h1-8,12,15,19-20H,9H2,(H,21,22)/t12-,15-/m1/s1
InChIKey=XMOCMDJLPANCEB-IUODEOHRSA-N

> <PUBCHEM_SUBSTANCE_SYNONYM>
SCHEMBL16114061

> <PUBCHEM_XREF_EXT_ID>
SCHEMBL16114061

> <PUBCHEM_EXT_DATASOURCE_URL>
https://www.surechembl.org/

> <PUBCHEM_EXT_SUBSTANCE_URL>
https://www.surechembl.org/chemical/SCHEMBL16114061

> <PUBCHEM_CID_ASSOCIATIONS>
117604355  1

> <PUBCHEM_COORDINATE_TYPE>
1
3

> <PUBCHEM_BONDANNOTATIONS>
9  3  6
7  15  5

$$$$
