310944524
  -OEChem-07211613022D

 29 31  0     0  0  0  0  0  0999 V2000
   -3.4058   -1.2640    0.0000 Cl  0  0  0  0  0  0  0  0  0  0  0  0
   -3.9538    2.4719    0.0000 F   0  0  0  0  0  0  0  0  0  0  0  0
   -0.3673   -1.2640    0.0000 O   0  0  0  0  0  0  0  0  0  0  0  0
    1.0647    1.2266    0.0000 O   0  0  0  0  0  0  0  0  0  0  0  0
    4.6635   -0.8529    0.0000 O   0  0  0  0  0  0  0  0  0  0  0  0
   -0.3549    0.3923    0.0000 N   0  0  0  0  0  0  0  0  0  0  0  0
    1.8118   -0.0187    0.0000 N   0  0  0  0  0  0  0  0  0  0  0  0
    3.2439   -0.8529    0.0000 N   0  0  0  0  0  0  0  0  0  0  0  0
   -2.5092   -0.0187    0.0000 C   0  0  0  0  0  0  0  0  0  0  0  0
   -1.0771   -0.0063    0.0000 C   0  0  0  0  0  0  0  0  0  0  0  0
   -2.5217   -0.8529    0.0000 C   0  0  0  0  0  0  0  0  0  0  0  0
   -3.2439    0.4048    0.0000 C   0  0  0  0  0  0  0  0  0  0  0  0
   -1.7994    0.3923    0.0000 C   0  0  0  0  0  0  0  0  0  0  0  0
   -1.0896   -0.8405    0.0000 C   0  0  0  0  0  0  0  0  0  0  0  0
   -1.7869   -1.2515    0.0000 C   0  0  0  0  0  0  0  0  0  0  0  0
    1.0771    0.3799    0.0000 C   0  0  0  0  0  0  0  0  0  0  0  0
   -3.2315    1.2266    0.0000 C   0  0  0  0  0  0  0  0  0  0  0  0
   -3.9662   -0.0063    0.0000 C   0  0  0  0  0  0  0  0  0  0  0  0
    0.3673   -0.0187    0.0000 C   0  0  0  0  0  0  0  0  0  0  0  0
   -3.9538    1.6376    0.0000 C   0  0  0  0  0  0  0  0  0  0  0  0
    1.8118   -0.8529    0.0000 C   0  0  0  0  0  0  0  0  0  0  0  0
    2.5092    0.3923    0.0000 C   0  0  0  0  0  0  0  0  0  0  0  0
    2.5217   -1.2640    0.0000 C   0  0  0  0  0  0  0  0  0  0  0  0
    3.2315   -0.0187    0.0000 C   0  0  0  0  0  0  0  0  0  0  0  0
    3.9538   -1.2640    0.0000 C   0  0  0  0  0  0  0  0  0  0  0  0
   -4.6635    0.4048    0.0000 C   0  0  0  0  0  0  0  0  0  0  0  0
   -4.6635    1.2266    0.0000 C   0  0  0  0  0  0  0  0  0  0  0  0
    3.9538   -2.0983    0.0000 C   0  0  0  0  0  0  0  0  0  0  0  0
    3.2190   -2.4719    0.0000 C   0  0  0  0  0  0  0  0  0  0  0  0
  1 11  1  0  0  0  0
  2 20  1  0  0  0  0
  3 14  1  0  0  0  0
  4 16  2  0  0  0  0
  5 25  2  0  0  0  0
  6 10  1  0  0  0  0
  6 19  1  0  0  0  0
  7 16  1  0  0  0  0
  7 21  1  0  0  0  0
  7 22  1  0  0  0  0
  8 23  1  0  0  0  0
  8 24  1  0  0  0  0
  8 25  1  0  0  0  0
  9 11  1  0  0  0  0
  9 12  1  0  0  0  0
  9 13  2  0  0  0  0
 10 13  1  0  0  0  0
 10 14  2  0  0  0  0
 11 15  2  0  0  0  0
 12 17  1  0  0  0  0
 12 18  2  0  0  0  0
 14 15  1  0  0  0  0
 16 19  1  0  0  0  0
 17 20  2  0  0  0  0
 18 26  1  0  0  0  0
 20 27  1  0  0  0  0
 21 23  1  0  0  0  0
 22 24  1  0  0  0  0
 25 28  1  0  0  0  0
 26 27  2  0  0  0  0
 28 29  2  0  0  0  0
M  END
> <PUBCHEM_COMPOUND_ID_TYPE>
0

> <PUBCHEM_TOTAL_CHARGE>
0

> <PUBCHEM_SUBSTANCE_ID>
310944524

> <PUBCHEM_SUBSTANCE_VERSION>
1

> <PUBCHEM_EXT_DATASOURCE_NAME>
4488

> <PUBCHEM_EXT_DATASOURCE_REGID>
SCHEMBL16122599

> <PUBCHEM_SUBSTANCE_COMMENT>
InChI=1S/C21H21ClFN3O3/c1-2-20(28)25-6-8-26(9-7-25)21(29)13-24-18-11-16(17(22)12-19(18)27)14-4-3-5-15(23)10-14/h2-5,10-12,24,27H,1,6-9,13H2
InChIKey=FCFMTMDPMGWISG-UHFFFAOYSA-N

> <PUBCHEM_SUBSTANCE_SYNONYM>
SCHEMBL16122599

> <PUBCHEM_XREF_EXT_ID>
SCHEMBL16122599

> <PUBCHEM_EXT_DATASOURCE_URL>
https://www.surechembl.org/

> <PUBCHEM_EXT_SUBSTANCE_URL>
https://www.surechembl.org/chemical/SCHEMBL16122599

> <PUBCHEM_CID_ASSOCIATIONS>
117610759  1

> <PUBCHEM_COORDINATE_TYPE>
1
3

$$$$
