310939782
  -OEChem-07211613022D

 30 32  0     0  0  0  0  0  0999 V2000
    2.1434   -2.6812    0.0000 Cl  0  0  0  0  0  0  0  0  0  0  0  0
   -0.7145    3.9187    0.0000 S   0  0  0  0  0  0  0  0  0  0  0  0
   -2.1434   -0.2062    0.0000 O   0  0  0  0  0  0  0  0  0  0  0  0
   -1.1270    4.6332    0.0000 O   0  0  0  0  0  0  0  0  0  0  0  0
   -0.3020    3.2043    0.0000 O   0  0  0  0  0  0  0  0  0  0  0  0
   -1.4289    1.0313    0.0000 N   0  0  0  0  0  0  0  0  0  0  0  0
   -0.7145   -1.0313    0.0000 N   0  0  0  0  0  0  0  0  0  0  0  0
   -1.4289    3.5062    0.0000 N   0  0  0  0  0  0  0  0  0  0  0  0
    0.7145   -2.6812    0.0000 C   0  0  0  0  0  0  0  0  0  0  0  0
    0.0000   -1.4437    0.0000 C   0  0  0  0  0  0  0  0  0  0  0  0
    1.4289   -2.2687    0.0000 C   0  0  0  0  0  0  0  0  0  0  0  0
    0.7145   -1.0312    0.0000 C   0  0  0  0  0  0  0  0  0  0  0  0
    0.0000   -2.2687    0.0000 C   0  0  0  0  0  0  0  0  0  0  0  0
    0.7145   -3.5062    0.0000 C   0  0  0  0  0  0  0  0  0  0  0  0
    1.4289   -1.4437    0.0000 C   0  0  0  0  0  0  0  0  0  0  0  0
   -1.4289    0.2062    0.0000 C   0  0  0  0  0  0  0  0  0  0  0  0
   -1.4289    2.6812    0.0000 C   0  0  0  0  0  0  0  0  0  0  0  0
   -0.7145   -0.2062    0.0000 C   0  0  0  0  0  0  0  0  0  0  0  0
   -2.1434    1.4437    0.0000 C   0  0  0  0  0  0  0  0  0  0  0  0
   -0.7145    1.4437    0.0000 C   0  0  0  0  0  0  0  0  0  0  0  0
    0.0000   -3.9187    0.0000 C   0  0  0  0  0  0  0  0  0  0  0  0
    1.4289   -3.9187    0.0000 C   0  0  0  0  0  0  0  0  0  0  0  0
   -2.1434    2.2687    0.0000 C   0  0  0  0  0  0  0  0  0  0  0  0
   -0.7145    2.2687    0.0000 C   0  0  0  0  0  0  0  0  0  0  0  0
    0.7145   -0.2062    0.0000 C   0  0  0  0  0  0  0  0  0  0  0  0
    0.0000   -4.7437    0.0000 C   0  0  0  0  0  0  0  0  0  0  0  0
    1.4289   -4.7437    0.0000 C   0  0  0  0  0  0  0  0  0  0  0  0
    0.0000    4.3312    0.0000 C   0  0  0  0  0  0  0  0  0  0  0  0
    0.7145   -5.1563    0.0000 C   0  0  0  0  0  0  0  0  0  0  0  0
    0.0000    5.1563    0.0000 C   0  0  0  0  0  0  0  0  0  0  0  0
  1 11  1  0  0  0  0
  2  4  2  0  0  0  0
  2  5  2  0  0  0  0
  2  8  1  0  0  0  0
  2 28  1  0  0  0  0
  3 16  2  0  0  0  0
  6 16  1  0  0  0  0
  6 19  1  0  0  0  0
  6 20  1  0  0  0  0
  7 10  1  0  0  0  0
  7 18  1  0  0  0  0
  8 17  1  0  0  0  0
  9 11  2  0  0  0  0
  9 13  1  0  0  0  0
  9 14  1  0  0  0  0
 10 12  1  0  0  0  0
 10 13  2  0  0  0  0
 11 15  1  0  0  0  0
 12 15  2  0  0  0  0
 12 25  1  0  0  0  0
 14 21  2  0  0  0  0
 14 22  1  0  0  0  0
 16 18  1  0  0  0  0
 17 23  1  0  0  0  0
 17 24  1  0  0  0  0
 19 23  1  0  0  0  0
 20 24  1  0  0  0  0
 21 26  1  0  0  0  0
 22 27  2  0  0  0  0
 26 29  2  0  0  0  0
 27 29  1  0  0  0  0
 28 30  2  0  0  0  0
M  END
> <PUBCHEM_COMPOUND_ID_TYPE>
0

> <PUBCHEM_TOTAL_CHARGE>
0

> <PUBCHEM_SUBSTANCE_ID>
310939782

> <PUBCHEM_SUBSTANCE_VERSION>
1

> <PUBCHEM_EXT_DATASOURCE_NAME>
4488

> <PUBCHEM_EXT_DATASOURCE_REGID>
SCHEMBL16117712

> <PUBCHEM_SUBSTANCE_COMMENT>
InChI=1S/C22H26ClN3O3S/c1-3-30(28,29)25-18-9-11-26(12-10-18)22(27)15-24-21-14-19(20(23)13-16(21)2)17-7-5-4-6-8-17/h3-8,13-14,18,24-25H,1,9-12,15H2,2H3
InChIKey=QZQODDGWKUYPEL-UHFFFAOYSA-N

> <PUBCHEM_SUBSTANCE_SYNONYM>
SCHEMBL16117712

> <PUBCHEM_XREF_EXT_ID>
SCHEMBL16117712

> <PUBCHEM_EXT_DATASOURCE_URL>
https://www.surechembl.org/

> <PUBCHEM_EXT_SUBSTANCE_URL>
https://www.surechembl.org/chemical/SCHEMBL16117712

> <PUBCHEM_CID_ASSOCIATIONS>
117607002  1

> <PUBCHEM_COORDINATE_TYPE>
1
3

$$$$
