310931323
  -OEChem-07211613022D

 28 30  0     1  0  0  0  0  0999 V2000
    0.0000   -5.3785    0.0000 Br  0  0  0  0  0  0  0  0  0  0  0  0
    2.8552   -2.9216    0.0000 O   0  0  0  0  0  0  0  0  0  0  0  0
    3.5524   -2.4901    0.0000 O   0  0  0  0  0  0  0  0  0  0  0  0
    3.5524   -4.1501    0.0000 N   0  0  0  0  0  0  0  0  0  0  0  0
    4.9801   -2.4901    0.0000 N   0  0  0  0  0  0  0  0  0  0  0  0
    2.8552   -3.7517    0.0000 C   0  0  0  0  0  0  0  0  0  0  0  0
    3.5524   -4.9801    0.0000 C   0  0  3  0  0  0  0  0  0  0  0  0
    2.1248   -4.1501    0.0000 C   0  0  0  0  0  0  0  0  0  0  0  0
    2.8552   -5.3785    0.0000 C   0  0  0  0  0  0  0  0  0  0  0  0
    4.2829   -3.7517    0.0000 C   0  0  0  0  0  0  0  0  0  0  0  0
    4.2829   -2.9216    0.0000 C   0  0  0  0  0  0  0  0  0  0  0  0
    1.4277   -3.7517    0.0000 C   0  0  0  0  0  0  0  0  0  0  0  0
    2.1248   -4.9801    0.0000 C   0  0  0  0  0  0  0  0  0  0  0  0
    2.8220   -6.2085    0.0000 C   0  0  0  0  0  0  0  0  0  0  0  0
    2.2908   -5.1461    0.0000 C   0  0  0  0  0  0  0  0  0  0  0  0
    0.6972   -4.9801    0.0000 C   0  0  0  0  0  0  0  0  0  0  0  0
    4.2829   -5.3785    0.0000 C   0  0  0  0  0  0  0  0  0  0  0  0
    0.6972   -4.1501    0.0000 C   0  0  0  0  0  0  0  0  0  0  0  0
    1.4277   -5.3785    0.0000 C   0  0  0  0  0  0  0  0  0  0  0  0
    4.9801   -1.6932    0.0000 C   0  0  0  0  0  0  0  0  0  0  0  0
    2.1248   -6.6401    0.0000 C   0  0  0  0  0  0  0  0  0  0  0  0
    1.5936   -5.5445    0.0000 C   0  0  0  0  0  0  0  0  0  0  0  0
    1.4277   -6.2085    0.0000 C   0  0  0  0  0  0  0  0  0  0  0  0
    4.2829   -1.2284    0.0000 C   0  0  0  0  0  0  0  0  0  0  0  0
    5.7105   -1.2284    0.0000 C   0  0  0  0  0  0  0  0  0  0  0  0
    4.2829   -0.4316    0.0000 C   0  0  0  0  0  0  0  0  0  0  0  0
    5.7105   -0.4316    0.0000 C   0  0  0  0  0  0  0  0  0  0  0  0
    4.9801    0.0000    0.0000 C   0  0  0  0  0  0  0  0  0  0  0  0
  1 16  1  0  0  0  0
  2  6  2  0  0  0  0
  3 11  2  0  0  0  0
  4  6  1  0  0  0  0
  4  7  1  0  0  0  0
  4 10  1  0  0  0  0
  5 11  1  0  0  0  0
  5 20  1  0  0  0  0
  6  8  1  0  0  0  0
  7  9  1  0  0  0  0
  7 17  1  6  0  0  0
  8 12  2  0  0  0  0
  8 13  1  0  0  0  0
  9 14  2  0  0  0  0
  9 15  1  0  0  0  0
 10 11  1  0  0  0  0
 12 18  1  0  0  0  0
 13 19  2  0  0  0  0
 14 21  1  0  0  0  0
 15 22  2  0  0  0  0
 16 18  2  0  0  0  0
 16 19  1  0  0  0  0
 20 24  1  0  0  0  0
 20 25  1  0  0  0  0
 21 23  2  0  0  0  0
 22 23  1  0  0  0  0
 24 26  1  0  0  0  0
 25 27  1  0  0  0  0
 26 28  1  0  0  0  0
 27 28  1  0  0  0  0
M  END
> <PUBCHEM_COMPOUND_ID_TYPE>
0

> <PUBCHEM_TOTAL_CHARGE>
0

> <PUBCHEM_SUBSTANCE_ID>
310931323

> <PUBCHEM_SUBSTANCE_VERSION>
1

> <PUBCHEM_EXT_DATASOURCE_NAME>
4488

> <PUBCHEM_EXT_DATASOURCE_REGID>
SCHEMBL16108641

> <PUBCHEM_SUBSTANCE_COMMENT>
InChI=1S/C23H27BrN2O2/c1-17(18-8-4-2-5-9-18)26(23(28)19-12-14-20(24)15-13-19)16-22(27)25-21-10-6-3-7-11-21/h2,4-5,8-9,12-15,17,21H,3,6-7,10-11,16H2,1H3,(H,25,27)/t17-/m1/s1
InChIKey=YTVCJWBSOVQHBF-QGZVFWFLSA-N

> <PUBCHEM_SUBSTANCE_SYNONYM>
SCHEMBL16108641

> <PUBCHEM_XREF_EXT_ID>
SCHEMBL16108641

> <PUBCHEM_EXT_DATASOURCE_URL>
https://www.surechembl.org/

> <PUBCHEM_EXT_SUBSTANCE_URL>
https://www.surechembl.org/chemical/SCHEMBL16108641

> <PUBCHEM_CID_ASSOCIATIONS>
117600136  1

> <PUBCHEM_COORDINATE_TYPE>
1
3

> <PUBCHEM_BONDANNOTATIONS>
7  17  6

$$$$
