310944333
  -OEChem-07211613022D

 33 37  0     1  0  0  0  0  0999 V2000
    1.7420   -1.8750    0.0000 F   0  0  0  0  0  0  0  0  0  0  0  0
    2.4632    0.9098    0.0000 O   0  0  0  0  0  0  0  0  0  0  0  0
    5.4589    0.4105    0.0000 O   0  0  0  0  0  0  0  0  0  0  0  0
    5.4589    1.8750    0.0000 O   0  0  0  0  0  0  0  0  0  0  0  0
   -0.6657   -1.2759    0.0000 O   0  0  0  0  0  0  0  0  0  0  0  0
    3.4173   -0.2108    0.0000 N   0  0  0  0  0  0  0  0  0  0  0  0
    0.4882   -0.0999    0.0000 N   0  0  3  0  0  0  0  0  0  0  0  0
   -4.1052    0.3107    0.0000 N   0  0  0  0  0  0  0  0  0  0  0  0
   -2.2745   -0.8765    0.0000 N   0  0  0  0  0  0  0  0  0  0  0  0
   -2.7294    0.6990    0.0000 N   0  0  0  0  0  0  0  0  0  0  0  0
   -4.4159    1.0762    0.0000 N   0  0  0  0  0  0  0  0  0  0  0  0
   -5.2480    1.0208    0.0000 N   0  0  0  0  0  0  0  0  0  0  0  0
   -5.4589    0.2219    0.0000 N   0  0  0  0  0  0  0  0  0  0  0  0
    2.1081   -0.4882    0.0000 C   0  0  3  0  0  0  0  0  0  0  0  0
    2.6517    0.0999    0.0000 C   0  0  0  0  0  0  0  0  0  0  0  0
    1.5200   -1.0874    0.0000 C   0  0  3  0  0  0  0  0  0  0  0  0
    2.5519   -1.1983    0.0000 C   0  0  0  0  0  0  0  0  0  0  0  0
    4.1274    0.2219    0.0000 C   0  0  0  0  0  0  0  0  0  0  0  0
    1.8862    0.2884    0.0000 C   0  0  0  0  0  0  0  0  0  0  0  0
    3.3396   -1.0208    0.0000 C   0  0  0  0  0  0  0  0  0  0  0  0
    0.7212   -0.8765    0.0000 C   0  0  0  0  0  0  0  0  0  0  0  0
    4.2716    1.0319    0.0000 C   0  0  0  0  0  0  0  0  0  0  0  0
    1.0651    0.4882    0.0000 C   0  0  0  0  0  0  0  0  0  0  0  0
    4.8707   -0.1554    0.0000 C   0  0  0  0  0  0  0  0  0  0  0  0
    5.0705    1.1317    0.0000 C   0  0  0  0  0  0  0  0  0  0  0  0
   -0.3217    0.0999    0.0000 C   0  0  0  0  0  0  0  0  0  0  0  0
   -0.8876   -0.4771    0.0000 C   0  0  3  0  0  0  0  0  0  0  0  0
   -1.6975   -0.2774    0.0000 C   0  0  0  0  0  0  0  0  0  0  0  0
    3.6614    1.6088    0.0000 C   0  0  0  0  0  0  0  0  0  0  0  0
   -3.3064    0.1109    0.0000 C   0  0  0  0  0  0  0  0  0  0  0  0
   -1.9195    0.4993    0.0000 C   0  0  0  0  0  0  0  0  0  0  0  0
   -3.0845   -0.6657    0.0000 C   0  0  0  0  0  0  0  0  0  0  0  0
   -4.7377   -0.1997    0.0000 C   0  0  0  0  0  0  0  0  0  0  0  0
  1 16  1  0  0  0  0
  2 15  2  0  0  0  0
  3 24  1  0  0  0  0
  3 25  1  0  0  0  0
  4 25  2  0  0  0  0
 27  5  1  6  0  0  0
  6 15  1  0  0  0  0
  6 18  1  0  0  0  0
  6 20  1  0  0  0  0
  7 21  1  0  0  0  0
  7 23  1  0  0  0  0
  7 26  1  0  0  0  0
  8 11  1  0  0  0  0
  8 30  1  0  0  0  0
  8 33  1  0  0  0  0
  9 28  1  0  0  0  0
  9 32  2  0  0  0  0
 10 30  2  0  0  0  0
 10 31  1  0  0  0  0
 11 12  2  0  0  0  0
 12 13  1  0  0  0  0
 13 33  2  0  0  0  0
 14 15  1  6  0  0  0
 14 16  1  0  0  0  0
 14 17  1  0  0  0  0
 14 19  1  0  0  0  0
 16 21  1  0  0  0  0
 17 20  1  0  0  0  0
 18 22  2  0  0  0  0
 18 24  1  0  0  0  0
 19 23  1  0  0  0  0
 22 25  1  0  0  0  0
 22 29  1  0  0  0  0
 26 27  1  0  0  0  0
 27 28  1  0  0  0  0
 28 31  2  0  0  0  0
 30 32  1  0  0  0  0
M  END
> <PUBCHEM_COMPOUND_ID_TYPE>
0

> <PUBCHEM_TOTAL_CHARGE>
0

> <PUBCHEM_SUBSTANCE_ID>
310944333

> <PUBCHEM_SUBSTANCE_VERSION>
1

> <PUBCHEM_EXT_DATASOURCE_NAME>
4488

> <PUBCHEM_EXT_DATASOURCE_REGID>
SCHEMBL16122408

> <PUBCHEM_SUBSTANCE_COMMENT>
InChI=1S/C20H23FN8O4/c1-12-14(10-33-18(12)31)28-5-3-20(19(28)32)2-4-27(9-16(20)21)8-15(30)13-6-23-17(7-22-13)29-11-24-25-26-29/h6-7,11,15-16,30H,2-5,8-10H2,1H3/t15-,16?,20+/m0/s1
InChIKey=ILHAQXHWKNEFAU-XNKIQEMOSA-N

> <PUBCHEM_SUBSTANCE_SYNONYM>
SCHEMBL16122408

> <PUBCHEM_XREF_EXT_ID>
SCHEMBL16122408

> <PUBCHEM_EXT_DATASOURCE_URL>
https://www.surechembl.org/

> <PUBCHEM_EXT_SUBSTANCE_URL>
https://www.surechembl.org/chemical/SCHEMBL16122408

> <PUBCHEM_CID_ASSOCIATIONS>
117610590  1

> <PUBCHEM_COORDINATE_TYPE>
1
3

> <PUBCHEM_BONDANNOTATIONS>
14  15  6
27  5  6

$$$$
