310941206
  -OEChem-07211613022D

 22 23  0     1  0  0  0  0  0999 V2000
    2.1045    0.4346    0.0000 O   0  0  0  0  0  0  0  0  0  0  0  0
    0.6526   -1.2457    0.0000 O   0  0  0  0  0  0  0  0  0  0  0  0
    1.2363   -2.2217    0.0000 O   0  0  0  0  0  0  0  0  0  0  0  0
    0.7357   -3.0449    0.0000 O   0  0  0  0  0  0  0  0  0  0  0  0
   -0.7994   -0.3974    0.0000 N   0  0  0  0  0  0  0  0  0  0  0  0
    1.3867    0.0268    0.0000 C   0  0  3  0  0  0  0  0  0  0  0  0
    0.6526   -0.3810    0.0000 C   0  0  0  0  0  0  0  0  0  0  0  0
    2.0882   -0.3974    0.0000 C   0  0  0  0  0  0  0  0  0  0  0  0
   -0.0815    0.0105    0.0000 C   0  0  3  0  0  0  0  0  0  0  0  0
    0.7830    0.5977    0.0000 C   0  0  0  0  0  0  0  0  0  0  0  0
   -0.0653    0.8424    0.0000 C   0  0  0  0  0  0  0  0  0  0  0  0
   -0.8157    1.2830    0.0000 C   0  0  0  0  0  0  0  0  0  0  0  0
    0.7357   -2.5110    0.0000 C   0  0  0  0  0  0  0  0  0  0  0  0
   -0.8973    2.0986    0.0000 C   0  0  0  0  0  0  0  0  0  0  0  0
   -1.5662    0.9403    0.0000 C   0  0  0  0  0  0  0  0  0  0  0  0
    1.2474   -1.6655    0.0000 C   0  0  0  0  0  0  0  0  0  0  0  0
   -1.7130    2.2944    0.0000 C   0  0  3  0  0  0  0  0  0  0  0  0
   -2.1045    1.5439    0.0000 C   0  0  0  0  0  0  0  0  0  0  0  0
    1.7480   -1.6433    0.0000 C   0  0  0  0  0  0  0  0  0  0  0  0
    0.7357   -1.6655    0.0000 C   0  0  0  0  0  0  0  0  0  0  0  0
    1.2363   -1.1204    0.0000 C   0  0  0  0  0  0  0  0  0  0  0  0
   -2.0556    3.0449    0.0000 C   0  0  0  0  0  0  0  0  0  0  0  0
  1  6  1  0  0  0  0
  1  8  1  0  0  0  0
  2  7  2  0  0  0  0
  3 13  1  0  0  0  0
  3 16  1  0  0  0  0
  4 13  2  0  0  0  0
  9  5  1  1  0  0  0
  5 13  1  0  0  0  0
  6  7  1  6  0  0  0
  6  8  1  0  0  0  0
  6 10  1  1  0  0  0
  7  9  1  0  0  0  0
  9 11  1  0  0  0  0
 11 12  1  0  0  0  0
 12 14  2  0  0  0  0
 12 15  1  0  0  0  0
 14 17  1  0  0  0  0
 15 18  1  0  0  0  0
 16 19  1  0  0  0  0
 16 20  1  0  0  0  0
 16 21  1  0  0  0  0
 17 18  1  0  0  0  0
 17 22  1  0  0  0  0
M  END
> <PUBCHEM_COMPOUND_ID_TYPE>
0

> <PUBCHEM_TOTAL_CHARGE>
0

> <PUBCHEM_SUBSTANCE_ID>
310941206

> <PUBCHEM_SUBSTANCE_VERSION>
1

> <PUBCHEM_EXT_DATASOURCE_NAME>
4488

> <PUBCHEM_EXT_DATASOURCE_REGID>
SCHEMBL16119166

> <PUBCHEM_SUBSTANCE_COMMENT>
InChI=1S/C17H27NO4/c1-11-6-7-12(8-11)9-13(14(19)17(5)10-21-17)18-15(20)22-16(2,3)4/h8,11,13H,6-7,9-10H2,1-5H3,(H,18,20)/t11?,13-,17+/m0/s1
InChIKey=VCRLJOYXJMAZNY-OAQWYYJWSA-N

> <PUBCHEM_SUBSTANCE_SYNONYM>
SCHEMBL16119166

> <PUBCHEM_XREF_EXT_ID>
SCHEMBL16119166

> <PUBCHEM_EXT_DATASOURCE_URL>
https://www.surechembl.org/

> <PUBCHEM_EXT_SUBSTANCE_URL>
https://www.surechembl.org/chemical/SCHEMBL16119166

> <PUBCHEM_CID_ASSOCIATIONS>
117608077  1

> <PUBCHEM_COORDINATE_TYPE>
1
3

> <PUBCHEM_BONDANNOTATIONS>
9  5  5
6  10  5
6  7  6

$$$$
