310943304
  -OEChem-07211613022D

 35 38  0     0  0  0  0  0  0999 V2000
    4.5951    2.0471    0.0000 F   0  0  0  0  0  0  0  0  0  0  0  0
    5.3065    1.6405    0.0000 F   0  0  0  0  0  0  0  0  0  0  0  0
   -2.4899   -1.2196    0.0000 O   0  0  0  0  0  0  0  0  0  0  0  0
    1.7640    2.0471    0.0000 O   0  0  0  0  0  0  0  0  0  0  0  0
   -5.3210    2.0471    0.0000 O   0  0  0  0  0  0  0  0  0  0  0  0
   -3.9127    1.2341    0.0000 N   0  0  0  0  0  0  0  0  0  0  0  0
   -3.2013    0.0000    0.0000 N   0  0  0  0  0  0  0  0  0  0  0  0
    1.0526    0.8275    0.0000 N   0  0  0  0  0  0  0  0  0  0  0  0
   -0.3702    2.4681    0.0000 N   0  0  0  0  0  0  0  0  0  0  0  0
    3.8837    0.0000    0.0000 N   0  0  0  0  0  0  0  0  0  0  0  0
   -1.7785    0.8275    0.0000 C   0  0  0  0  0  0  0  0  0  0  0  0
   -1.0816    1.2486    0.0000 C   0  0  0  0  0  0  0  0  0  0  0  0
   -3.2013    0.8421    0.0000 C   0  0  0  0  0  0  0  0  0  0  0  0
   -2.5044    1.2341    0.0000 C   0  0  0  0  0  0  0  0  0  0  0  0
   -1.0671    2.0616    0.0000 C   0  0  0  0  0  0  0  0  0  0  0  0
    0.3412    1.2486    0.0000 C   0  0  0  0  0  0  0  0  0  0  0  0
   -0.3412    0.8275    0.0000 C   0  0  0  0  0  0  0  0  0  0  0  0
   -1.7930    0.0000    0.0000 C   0  0  0  0  0  0  0  0  0  0  0  0
   -2.4899   -0.3920    0.0000 C   0  0  0  0  0  0  0  0  0  0  0  0
    2.4754    0.8275    0.0000 C   0  0  0  0  0  0  0  0  0  0  0  0
    3.8982    0.8421    0.0000 C   0  0  0  0  0  0  0  0  0  0  0  0
    1.7495    1.2196    0.0000 C   0  0  0  0  0  0  0  0  0  0  0  0
    0.3557    2.0471    0.0000 C   0  0  0  0  0  0  0  0  0  0  0  0
    4.5951    1.2486    0.0000 C   0  0  0  0  0  0  0  0  0  0  0  0
    3.1577    1.2341    0.0000 C   0  0  0  0  0  0  0  0  0  0  0  0
    2.4754    0.0145    0.0000 C   0  0  0  0  0  0  0  0  0  0  0  0
   -3.8982    2.0471    0.0000 C   0  0  0  0  0  0  0  0  0  0  0  0
   -4.5951    0.8275    0.0000 C   0  0  0  0  0  0  0  0  0  0  0  0
   -1.7930    2.4536    0.0000 C   0  0  0  0  0  0  0  0  0  0  0  0
    3.2013   -0.3920    0.0000 C   0  0  0  0  0  0  0  0  0  0  0  0
   -4.6096    2.4681    0.0000 C   0  0  0  0  0  0  0  0  0  0  0  0
   -5.3210    1.2341    0.0000 C   0  0  0  0  0  0  0  0  0  0  0  0
    5.3210    0.8421    0.0000 C   0  0  0  0  0  0  0  0  0  0  0  0
   -1.7930   -1.6260    0.0000 C   0  0  0  0  0  0  0  0  0  0  0  0
   -1.7640   -2.4681    0.0000 C   0  0  0  0  0  0  0  0  0  0  0  0
  1 24  1  0  0  0  0
  2 24  1  0  0  0  0
  3 19  1  0  0  0  0
  3 34  1  0  0  0  0
  4 22  2  0  0  0  0
  5 31  1  0  0  0  0
  5 32  1  0  0  0  0
  6 13  1  0  0  0  0
  6 27  1  0  0  0  0
  6 28  1  0  0  0  0
  7 13  1  0  0  0  0
  7 19  2  0  0  0  0
  8 16  1  0  0  0  0
  8 22  1  0  0  0  0
  9 15  2  0  0  0  0
  9 23  1  0  0  0  0
 10 21  1  0  0  0  0
 10 30  2  0  0  0  0
 11 12  1  0  0  0  0
 11 14  1  0  0  0  0
 11 18  2  0  0  0  0
 12 15  1  0  0  0  0
 12 17  2  0  0  0  0
 13 14  2  0  0  0  0
 15 29  1  0  0  0  0
 16 17  1  0  0  0  0
 16 23  2  0  0  0  0
 18 19  1  0  0  0  0
 20 22  1  0  0  0  0
 20 25  1  0  0  0  0
 20 26  2  0  0  0  0
 21 24  1  0  0  0  0
 21 25  2  0  0  0  0
 24 33  1  0  0  0  0
 26 30  1  0  0  0  0
 27 31  1  0  0  0  0
 28 32  1  0  0  0  0
 34 35  1  0  0  0  0
M  END
> <PUBCHEM_COMPOUND_ID_TYPE>
0

> <PUBCHEM_TOTAL_CHARGE>
0

> <PUBCHEM_SUBSTANCE_ID>
310943304

> <PUBCHEM_SUBSTANCE_VERSION>
1

> <PUBCHEM_EXT_DATASOURCE_NAME>
4488

> <PUBCHEM_EXT_DATASOURCE_REGID>
SCHEMBL16121366

> <PUBCHEM_SUBSTANCE_COMMENT>
InChI=1S/C25H27F2N5O3/c1-4-35-23-13-18(12-22(31-23)32-7-9-34-10-8-32)20-14-19(15-29-16(20)2)30-24(33)17-5-6-28-21(11-17)25(3,26)27/h5-6,11-15H,4,7-10H2,1-3H3,(H,30,33)
InChIKey=FOLVBVJHOLIIRE-UHFFFAOYSA-N

> <PUBCHEM_SUBSTANCE_SYNONYM>
SCHEMBL16121366

> <PUBCHEM_XREF_EXT_ID>
SCHEMBL16121366

> <PUBCHEM_EXT_DATASOURCE_URL>
https://www.surechembl.org/

> <PUBCHEM_EXT_SUBSTANCE_URL>
https://www.surechembl.org/chemical/SCHEMBL16121366

> <PUBCHEM_CID_ASSOCIATIONS>
117609729  1

> <PUBCHEM_COORDINATE_TYPE>
1
3

$$$$
