310929646
  -OEChem-07211613022D

 57 64  0     1  0  0  0  0  0999 V2000
    1.5754   -1.3901    0.0000 S   0  0  0  0  0  0  0  0  0  0  0  0
    3.0118   -0.5560    0.0000 O   0  0  0  0  0  0  0  0  0  0  0  0
    5.0042   -2.7801    0.0000 O   0  0  0  0  0  0  0  0  0  0  0  0
    6.1162   -5.1895    0.0000 O   0  0  0  0  0  0  0  0  0  0  0  0
    1.9461   -0.6487    0.0000 O   0  0  0  0  0  0  0  0  0  0  0  0
    1.1584   -2.0851    0.0000 O   0  0  0  0  0  0  0  0  0  0  0  0
    2.0388   -3.6605    0.0000 O   0  0  0  0  0  0  0  0  0  0  0  0
    1.5290   -7.2283    0.0000 O   0  0  0  0  0  0  0  0  0  0  0  0
    7.0892   -8.0623    0.0000 O   0  0  0  0  0  0  0  0  0  0  0  0
    0.6023   -6.3479    0.0000 O   0  0  0  0  0  0  0  0  0  0  0  0
    3.6141   -2.5948    0.0000 N   0  0  0  0  0  0  0  0  0  0  0  0
    2.2704   -1.8071    0.0000 N   0  0  0  0  0  0  0  0  0  0  0  0
    3.2898   -3.9385    0.0000 N   0  0  0  0  0  0  0  0  0  0  0  0
    7.0892   -5.5602    0.0000 N   0  0  0  0  0  0  0  0  0  0  0  0
    1.5290   -5.5602    0.0000 N   0  0  0  0  0  0  0  0  0  0  0  0
    3.7068   -1.8071    0.0000 C   0  0  3  0  0  0  0  0  0  0  0  0
    3.8921   -1.0194    0.0000 C   0  0  3  0  0  0  0  0  0  0  0  0
    4.5408   -1.5754    0.0000 C   0  0  0  0  0  0  0  0  0  0  0  0
    3.0118   -1.3901    0.0000 C   0  0  0  0  0  0  0  0  0  0  0  0
    4.2628   -3.1044    0.0000 C   0  0  0  0  0  0  0  0  0  0  0  0
    4.1701   -3.9385    0.0000 C   0  0  3  0  0  0  0  0  0  0  0  0
    3.7068   -0.1853    0.0000 C   0  0  0  0  0  0  0  0  0  0  0  0
    0.8340   -0.9730    0.0000 C   0  0  0  0  0  0  0  0  0  0  0  0
    4.9579   -4.1238    0.0000 C   0  0  0  0  0  0  0  0  0  0  0  0
    5.6066   -4.4945    0.0000 C   0  0  3  0  0  0  0  0  0  0  0  0
    2.5021   -4.3092    0.0000 C   0  0  0  0  0  0  0  0  0  0  0  0
    4.6335   -3.5678    0.0000 C   0  0  0  0  0  0  0  0  0  0  0  0
    0.0463   -0.9730    0.0000 C   0  0  0  0  0  0  0  0  0  0  0  0
    0.4170   -0.2780    0.0000 C   0  0  0  0  0  0  0  0  0  0  0  0
    1.9461   -4.9115    0.0000 C   0  0  3  0  0  0  0  0  0  0  0  0
    2.8728    0.0000    0.0000 C   0  0  0  0  0  0  0  0  0  0  0  0
    6.3942   -5.9772    0.0000 C   0  0  0  0  0  0  0  0  0  0  0  0
    6.3942   -6.8576    0.0000 C   0  0  0  0  0  0  0  0  0  0  0  0
    1.2974   -4.4018    0.0000 C   0  0  0  0  0  0  0  0  0  0  0  0
    7.0892   -7.2283    0.0000 C   0  0  0  0  0  0  0  0  0  0  0  0
    7.7843   -6.8576    0.0000 C   0  0  0  0  0  0  0  0  0  0  0  0
    7.7843   -5.9772    0.0000 C   0  0  0  0  0  0  0  0  0  0  0  0
    1.9461   -7.9233    0.0000 C   0  0  3  0  0  0  0  0  0  0  0  0
    1.4364   -6.3479    0.0000 C   0  0  0  0  0  0  0  0  0  0  0  0
    6.1162   -7.5990    0.0000 C   0  0  0  0  0  0  0  0  0  0  0  0
    0.4634   -4.6335    0.0000 C   0  0  0  0  0  0  0  0  0  0  0  0
    1.2974   -3.5678    0.0000 C   0  0  0  0  0  0  0  0  0  0  0  0
    2.5021   -8.4793    0.0000 C   0  0  3  0  0  0  0  0  0  0  0  0
    8.5257   -7.2283    0.0000 C   0  0  0  0  0  0  0  0  0  0  0  0
    8.5257   -5.5602    0.0000 C   0  0  0  0  0  0  0  0  0  0  0  0
    1.2510   -8.2940    0.0000 C   0  0  0  0  0  0  0  0  0  0  0  0
    0.0000   -3.9385    0.0000 C   0  0  0  0  0  0  0  0  0  0  0  0
    0.5097   -3.2898    0.0000 C   0  0  0  0  0  0  0  0  0  0  0  0
    9.2207   -6.8576    0.0000 C   0  0  0  0  0  0  0  0  0  0  0  0
    9.2207   -5.9772    0.0000 C   0  0  0  0  0  0  0  0  0  0  0  0
    2.2241   -9.2670    0.0000 C   0  0  0  0  0  0  0  0  0  0  0  0
    5.6066   -8.2013    0.0000 C   0  0  0  0  0  0  0  0  0  0  0  0
    1.3437   -9.1744    0.0000 C   0  0  0  0  0  0  0  0  0  0  0  0
    3.2898   -8.8037    0.0000 C   0  0  0  0  0  0  0  0  0  0  0  0
    2.5948   -7.4136    0.0000 C   0  0  0  0  0  0  0  0  0  0  0  0
    4.9579   -8.7110    0.0000 C   0  0  0  0  0  0  0  0  0  0  0  0
    4.1701   -8.8964    0.0000 C   0  0  0  0  0  0  0  0  0  0  0  0
  1  5  2  0  0  0  0
  1  6  2  0  0  0  0
  1 12  1  0  0  0  0
  1 23  1  0  0  0  0
  2 19  2  0  0  0  0
  3 20  2  0  0  0  0
  4 25  1  0  0  0  0
  4 32  1  0  0  0  0
  7 26  2  0  0  0  0
  8 38  1  0  0  0  0
  8 39  1  0  0  0  0
  9 35  1  0  0  0  0
 10 39  2  0  0  0  0
 16 11  1  1  0  0  0
 11 20  1  0  0  0  0
 12 19  1  0  0  0  0
 13 21  1  0  0  0  0
 13 26  1  0  0  0  0
 13 27  1  0  0  0  0
 14 32  1  0  0  0  0
 14 37  2  0  0  0  0
 15 30  1  0  0  0  0
 15 39  1  0  0  0  0
 16 17  1  0  0  0  0
 16 18  1  0  0  0  0
 16 19  1  6  0  0  0
 17 18  1  0  0  0  0
 17 22  1  6  0  0  0
 21 20  1  6  0  0  0
 21 24  1  0  0  0  0
 22 31  2  0  0  0  0
 23 28  1  0  0  0  0
 23 29  1  0  0  0  0
 25 24  1  1  0  0  0
 25 27  1  0  0  0  0
 30 26  1  1  0  0  0
 28 29  1  0  0  0  0
 30 34  1  0  0  0  0
 32 33  2  0  0  0  0
 33 35  1  0  0  0  0
 33 40  1  0  0  0  0
 34 41  1  0  0  0  0
 34 42  1  0  0  0  0
 35 36  2  0  0  0  0
 36 37  1  0  0  0  0
 36 44  1  0  0  0  0
 37 45  1  0  0  0  0
 38 43  1  0  0  0  0
 38 46  1  0  0  0  0
 38 55  1  6  0  0  0
 40 52  1  0  0  0  0
 41 47  1  0  0  0  0
 42 48  1  0  0  0  0
 43 51  1  6  0  0  0
 43 54  1  0  0  0  0
 44 49  2  0  0  0  0
 45 50  2  0  0  0  0
 46 53  1  0  0  0  0
 47 48  1  0  0  0  0
 49 50  1  0  0  0  0
 51 53  1  0  0  0  0
 52 56  1  0  0  0  0
 54 57  1  0  0  0  0
 56 57  1  0  0  0  0
M  END
> <PUBCHEM_COMPOUND_ID_TYPE>
0

> <PUBCHEM_TOTAL_CHARGE>
0

> <PUBCHEM_SUBSTANCE_ID>
310929646

> <PUBCHEM_SUBSTANCE_VERSION>
1

> <PUBCHEM_EXT_DATASOURCE_NAME>
4488

> <PUBCHEM_EXT_DATASOURCE_REGID>
SCHEMBL16106836

> <PUBCHEM_SUBSTANCE_COMMENT>
InChI=1S/C42H55N5O9S/c1-3-26-23-42(26,39(51)46-57(53,54)29-19-20-29)45-36(49)33-22-28-24-47(33)38(50)34(25-12-7-8-13-25)44-40(52)56-41(2)21-11-15-27(41)14-5-4-6-17-31-35(48)30-16-9-10-18-32(30)43-37(31)55-28/h3,9-10,16,18,25-29,33-34H,1,4-8,11-15,17,19-24H2,2H3,(H,43,48)(H,44,52)(H,45,49)(H,46,51)/t26-,27-,28-,33+,34+,41-,42-/m1/s1
InChIKey=VFCOYTRQMXUBHS-OAGDYQFNSA-N

> <PUBCHEM_SUBSTANCE_SYNONYM>
SCHEMBL16106836

> <PUBCHEM_XREF_EXT_ID>
SCHEMBL16106836

> <PUBCHEM_EXT_DATASOURCE_URL>
https://www.surechembl.org/

> <PUBCHEM_EXT_SUBSTANCE_URL>
https://www.surechembl.org/chemical/SCHEMBL16106836

> <PUBCHEM_CID_ASSOCIATIONS>
56947522  1

> <PUBCHEM_COORDINATE_TYPE>
1
3

> <PUBCHEM_BONDANNOTATIONS>
16  11  5
16  19  6
17  22  6
21  20  6
25  24  5
30  26  5
38  55  6
43  51  6

$$$$
