310948748
  -OEChem-07211613022D

 32 35  0     1  0  0  0  0  0999 V2000
   -0.5067   -2.7362    0.0000 S   0  0  0  0  0  0  0  0  0  0  0  0
   -2.5888    1.8518    0.0000 O   0  0  0  0  0  0  0  0  0  0  0  0
    0.2856   -2.4598    0.0000 O   0  0  0  0  0  0  0  0  0  0  0  0
   -0.2487   -3.5101    0.0000 O   0  0  0  0  0  0  0  0  0  0  0  0
    0.1751    1.7228    0.0000 N   0  0  0  0  0  0  0  0  0  0  0  0
   -0.1566    0.9674    0.0000 N   0  0  0  0  0  0  0  0  0  0  0  0
   -1.5386    0.4329    0.0000 N   0  0  0  0  0  0  0  0  0  0  0  0
   -1.8887    3.1048    0.0000 N   0  0  0  0  0  0  0  0  0  0  0  0
   -1.2806   -2.9758    0.0000 N   0  0  0  0  0  0  0  0  0  0  0  0
    1.0226   -0.3224    0.0000 N   0  0  0  0  0  0  0  0  0  0  0  0
   -1.1332    1.8703    0.0000 C   0  0  0  0  0  0  0  0  0  0  0  0
   -0.4514    2.2756    0.0000 C   0  0  0  0  0  0  0  0  0  0  0  0
   -0.9858    1.0779    0.0000 C   0  0  0  0  0  0  0  0  0  0  0  0
    0.9858    1.8887    0.0000 C   0  0  3  0  0  0  0  0  0  0  0  0
   -1.8703    2.2756    0.0000 C   0  0  0  0  0  0  0  0  0  0  0  0
   -0.4514    3.1048    0.0000 C   0  0  0  0  0  0  0  0  0  0  0  0
   -1.2806   -0.3409    0.0000 C   0  0  0  0  0  0  0  0  0  0  0  0
    1.5570    1.2806    0.0000 C   0  0  3  0  0  0  0  0  0  0  0  0
   -0.7647   -1.9256    0.0000 C   0  0  0  0  0  0  0  0  0  0  0  0
   -0.2303   -1.2990    0.0000 C   0  0  0  0  0  0  0  0  0  0  0  0
   -1.1700    3.5101    0.0000 C   0  0  0  0  0  0  0  0  0  0  0  0
    1.2437    2.6625    0.0000 C   0  0  0  0  0  0  0  0  0  0  0  0
   -0.4698   -0.5251    0.0000 C   0  0  0  0  0  0  0  0  0  0  0  0
   -1.7965   -0.9305    0.0000 C   0  0  0  0  0  0  0  0  0  0  0  0
   -1.5570   -1.7412    0.0000 C   0  0  0  0  0  0  0  0  0  0  0  0
    2.3309    1.4464    0.0000 C   0  0  0  0  0  0  0  0  0  0  0  0
    1.2806    0.4698    0.0000 C   0  0  0  0  0  0  0  0  0  0  0  0
    2.0361    2.8467    0.0000 C   0  0  0  0  0  0  0  0  0  0  0  0
    0.5989   -1.4833    0.0000 C   0  0  0  0  0  0  0  0  0  0  0  0
    2.5888    2.2572    0.0000 C   0  0  0  0  0  0  0  0  0  0  0  0
    1.9992   -1.0042    0.0000 C   0  0  0  0  0  0  0  0  0  0  0  0
    2.5151   -0.3961    0.0000 C   0  0  0  0  0  0  0  0  0  0  0  0
  1  3  2  0  0  0  0
  1  4  2  0  0  0  0
  1  9  1  0  0  0  0
  1 19  1  0  0  0  0
  2 15  2  0  0  0  0
  5  6  1  0  0  0  0
  5 12  1  0  0  0  0
 14  5  1  1  0  0  0
  6 13  2  0  0  0  0
  7 13  1  0  0  0  0
  7 17  1  0  0  0  0
  8 15  1  0  0  0  0
  8 21  1  0  0  0  0
 10 27  3  0  0  0  0
 11 12  2  0  0  0  0
 11 13  1  0  0  0  0
 11 15  1  0  0  0  0
 12 16  1  0  0  0  0
 14 18  1  0  0  0  0
 14 22  1  0  0  0  0
 16 21  2  0  0  0  0
 17 23  1  0  0  0  0
 17 24  2  0  0  0  0
 18 26  1  0  0  0  0
 18 27  1  6  0  0  0
 19 20  1  0  0  0  0
 19 25  2  0  0  0  0
 20 23  2  0  0  0  0
 20 29  1  0  0  0  0
 22 28  1  0  0  0  0
 24 25  1  0  0  0  0
 26 30  1  0  0  0  0
 28 30  1  0  0  0  0
 29 31  1  0  0  0  0
 31 32  1  0  0  0  0
M  END
> <PUBCHEM_COMPOUND_ID_TYPE>
0

> <PUBCHEM_TOTAL_CHARGE>
0

> <PUBCHEM_SUBSTANCE_ID>
310948748

> <PUBCHEM_SUBSTANCE_VERSION>
1

> <PUBCHEM_EXT_DATASOURCE_NAME>
4488

> <PUBCHEM_EXT_DATASOURCE_REGID>
SCHEMBL16126932

> <PUBCHEM_SUBSTANCE_COMMENT>
InChI=1S/C22H26N6O3S/c1-2-5-14-12-16(8-9-19(14)32(24,30)31)26-21-20-18(10-11-25-22(20)29)28(27-21)17-7-4-3-6-15(17)13-23/h8-12,15,17H,2-7H2,1H3,(H,25,29)(H,26,27)(H2,24,30,31)/t15-,17+/m1/s1
InChIKey=KNNRBXHWDXBXKZ-WBVHZDCISA-N

> <PUBCHEM_SUBSTANCE_SYNONYM>
SCHEMBL16126932

> <PUBCHEM_XREF_EXT_ID>
SCHEMBL16126932

> <PUBCHEM_EXT_DATASOURCE_URL>
https://www.surechembl.org/

> <PUBCHEM_EXT_SUBSTANCE_URL>
https://www.surechembl.org/chemical/SCHEMBL16126932

> <PUBCHEM_CID_ASSOCIATIONS>
117614290  1

> <PUBCHEM_COORDINATE_TYPE>
1
3

> <PUBCHEM_BONDANNOTATIONS>
18  27  6
29  31  3
14  5  5

$$$$
