310938901
  -OEChem-07211613022D

 29 32  0     0  0  0  0  0  0999 V2000
   -3.6679   -0.4344    0.0000 Cl  0  0  0  0  0  0  0  0  0  0  0  0
    0.0806   -0.8564    0.0000 O   0  0  0  0  0  0  0  0  0  0  0  0
    0.7882   -2.0977    0.0000 O   0  0  0  0  0  0  0  0  0  0  0  0
   -3.5065   -2.0977    0.0000 O   0  0  0  0  0  0  0  0  0  0  0  0
    1.5330    1.6385    0.0000 N   0  0  0  0  0  0  0  0  0  0  0  0
    0.8130    0.3972    0.0000 N   0  0  0  0  0  0  0  0  0  0  0  0
    2.2529    0.3972    0.0000 N   0  0  0  0  0  0  0  0  0  0  0  0
    2.2529   -2.0853    0.0000 N   0  0  0  0  0  0  0  0  0  0  0  0
    2.1908    2.1225    0.0000 C   0  0  0  0  0  0  0  0  0  0  0  0
    2.9852    2.3335    0.0000 C   0  0  0  0  0  0  0  0  0  0  0  0
    2.7741    1.5391    0.0000 C   0  0  0  0  0  0  0  0  0  0  0  0
    1.5205    0.8068    0.0000 C   0  0  0  0  0  0  0  0  0  0  0  0
    1.9425    2.8921    0.0000 C   0  0  0  0  0  0  0  0  0  0  0  0
    0.8502    2.1225    0.0000 C   0  0  0  0  0  0  0  0  0  0  0  0
    1.1109    2.9045    0.0000 C   0  0  0  0  0  0  0  0  0  0  0  0
    0.8006   -0.4344    0.0000 C   0  0  0  0  0  0  0  0  0  0  0  0
    1.5205   -0.8441    0.0000 C   0  0  0  0  0  0  0  0  0  0  0  0
    2.2405   -0.4344    0.0000 C   0  0  0  0  0  0  0  0  0  0  0  0
    1.5205   -1.6633    0.0000 C   0  0  0  0  0  0  0  0  0  0  0  0
   -0.6269   -0.4344    0.0000 C   0  0  0  0  0  0  0  0  0  0  0  0
   -1.3467   -0.8441    0.0000 C   0  0  0  0  0  0  0  0  0  0  0  0
   -2.7741   -0.8441    0.0000 C   0  0  0  0  0  0  0  0  0  0  0  0
   -2.0666   -0.4469    0.0000 C   0  0  0  0  0  0  0  0  0  0  0  0
   -2.7741   -1.6757    0.0000 C   0  0  0  0  0  0  0  0  0  0  0  0
   -1.3467   -1.6757    0.0000 C   0  0  0  0  0  0  0  0  0  0  0  0
   -2.0543   -2.0853    0.0000 C   0  0  0  0  0  0  0  0  0  0  0  0
    2.9604   -1.6757    0.0000 C   0  0  0  0  0  0  0  0  0  0  0  0
    3.6679   -2.0977    0.0000 C   0  0  0  0  0  0  0  0  0  0  0  0
   -3.5065   -2.9045    0.0000 C   0  0  0  0  0  0  0  0  0  0  0  0
  1 22  1  0  0  0  0
  2 16  1  0  0  0  0
  2 20  1  0  0  0  0
  3 19  2  0  0  0  0
  4 24  1  0  0  0  0
  4 29  1  0  0  0  0
  5  9  1  0  0  0  0
  5 12  1  0  0  0  0
  5 14  1  0  0  0  0
  6 12  1  0  0  0  0
  6 16  2  0  0  0  0
  7 12  2  0  0  0  0
  7 18  1  0  0  0  0
  8 19  1  0  0  0  0
  8 27  1  0  0  0  0
  9 10  1  0  0  0  0
  9 11  1  0  0  0  0
  9 13  1  0  0  0  0
 10 11  1  0  0  0  0
 13 15  1  0  0  0  0
 14 15  1  0  0  0  0
 16 17  1  0  0  0  0
 17 18  2  0  0  0  0
 17 19  1  0  0  0  0
 20 21  1  0  0  0  0
 21 23  2  0  0  0  0
 21 25  1  0  0  0  0
 22 23  1  0  0  0  0
 22 24  2  0  0  0  0
 24 26  1  0  0  0  0
 25 26  2  0  0  0  0
 27 28  1  0  0  0  0
M  END
> <PUBCHEM_COMPOUND_ID_TYPE>
0

> <PUBCHEM_TOTAL_CHARGE>
0

> <PUBCHEM_SUBSTANCE_ID>
310938901

> <PUBCHEM_SUBSTANCE_VERSION>
1

> <PUBCHEM_EXT_DATASOURCE_NAME>
4488

> <PUBCHEM_EXT_DATASOURCE_REGID>
SCHEMBL16116820

> <PUBCHEM_SUBSTANCE_COMMENT>
InChI=1S/C21H25ClN4O3/c1-3-23-18(27)15-12-24-20(26-10-4-7-21(26)8-9-21)25-19(15)29-13-14-5-6-17(28-2)16(22)11-14/h5-6,11-12H,3-4,7-10,13H2,1-2H3,(H,23,27)
InChIKey=NHRBUNZFRWKNFO-UHFFFAOYSA-N

> <PUBCHEM_SUBSTANCE_SYNONYM>
SCHEMBL16116820

> <PUBCHEM_XREF_EXT_ID>
SCHEMBL16116820

> <PUBCHEM_EXT_DATASOURCE_URL>
https://www.surechembl.org/

> <PUBCHEM_EXT_SUBSTANCE_URL>
https://www.surechembl.org/chemical/SCHEMBL16116820

> <PUBCHEM_CID_ASSOCIATIONS>
117606298  1

> <PUBCHEM_COORDINATE_TYPE>
1
3

$$$$
