310948400
  -OEChem-07211613022D

 33 37  0     1  0  0  0  0  0999 V2000
   -1.8370   -3.3140    0.0000 Cl  0  0  0  0  0  0  0  0  0  0  0  0
   -0.7293   -2.0770    0.0000 F   0  0  0  0  0  0  0  0  0  0  0  0
   -3.9232    1.2647    0.0000 O   0  0  0  0  0  0  0  0  0  0  0  0
   -1.1539    1.1354    0.0000 N   0  0  0  0  0  0  0  0  0  0  0  0
   -1.4862    0.3785    0.0000 N   0  0  0  0  0  0  0  0  0  0  0  0
   -2.8708   -0.1569    0.0000 N   0  0  0  0  0  0  0  0  0  0  0  0
   -3.2032    2.5200    0.0000 N   0  0  0  0  0  0  0  0  0  0  0  0
    2.0770    1.8185    0.0000 N   0  0  0  0  0  0  0  0  0  0  0  0
   -0.2677   -0.8769    0.0000 N   0  0  0  0  0  0  0  0  0  0  0  0
   -2.4647    1.2831    0.0000 C   0  0  0  0  0  0  0  0  0  0  0  0
   -1.7816    1.6893    0.0000 C   0  0  0  0  0  0  0  0  0  0  0  0
   -2.3169    0.4892    0.0000 C   0  0  0  0  0  0  0  0  0  0  0  0
   -0.3600    1.3016    0.0000 C   0  0  3  0  0  0  0  0  0  0  0  0
   -3.2032    1.7078    0.0000 C   0  0  0  0  0  0  0  0  0  0  0  0
    0.2124    0.7108    0.0000 C   0  0  3  0  0  0  0  0  0  0  0  0
   -1.7632    2.5200    0.0000 C   0  0  0  0  0  0  0  0  0  0  0  0
   -0.0831    2.0954    0.0000 C   0  0  0  0  0  0  0  0  0  0  0  0
   -2.4832    2.9262    0.0000 C   0  0  0  0  0  0  0  0  0  0  0  0
   -2.6124   -0.9324    0.0000 C   0  0  0  0  0  0  0  0  0  0  0  0
    1.0062    0.8769    0.0000 C   0  0  0  0  0  0  0  0  0  0  0  0
    1.2462    1.6708    0.0000 C   0  0  3  0  0  0  0  0  0  0  0  0
    0.7108    2.2616    0.0000 C   0  0  0  0  0  0  0  0  0  0  0  0
   -0.0461   -0.1015    0.0000 C   0  0  0  0  0  0  0  0  0  0  0  0
   -1.8185   -1.1169    0.0000 C   0  0  0  0  0  0  0  0  0  0  0  0
   -3.1478   -1.5415    0.0000 C   0  0  0  0  0  0  0  0  0  0  0  0
   -1.5601   -1.8923    0.0000 C   0  0  0  0  0  0  0  0  0  0  0  0
    2.3539    2.6124    0.0000 C   0  0  3  0  0  0  0  0  0  0  0  0
   -2.0954   -2.5200    0.0000 C   0  0  0  0  0  0  0  0  0  0  0  0
    3.1663    2.7970    0.0000 C   0  0  0  0  0  0  0  0  0  0  0  0
   -2.9078   -2.3355    0.0000 C   0  0  0  0  0  0  0  0  0  0  0  0
    3.7386    3.3140    0.0000 C   0  0  0  0  0  0  0  0  0  0  0  0
    3.9232    2.5386    0.0000 C   0  0  0  0  0  0  0  0  0  0  0  0
    1.7816    3.2216    0.0000 C   0  0  0  0  0  0  0  0  0  0  0  0
  1 28  1  0  0  0  0
  2 26  1  0  0  0  0
  3 14  2  0  0  0  0
  4  5  1  0  0  0  0
  4 11  1  0  0  0  0
 13  4  1  1  0  0  0
  5 12  2  0  0  0  0
  6 12  1  0  0  0  0
  6 19  1  0  0  0  0
  7 14  1  0  0  0  0
  7 18  1  0  0  0  0
 21  8  1  6  0  0  0
  8 27  1  0  0  0  0
  9 23  3  0  0  0  0
 10 11  2  0  0  0  0
 10 12  1  0  0  0  0
 10 14  1  0  0  0  0
 11 16  1  0  0  0  0
 13 15  1  0  0  0  0
 13 17  1  0  0  0  0
 15 20  1  0  0  0  0
 15 23  1  6  0  0  0
 16 18  2  0  0  0  0
 17 22  1  0  0  0  0
 19 24  1  0  0  0  0
 19 25  2  0  0  0  0
 20 21  1  0  0  0  0
 21 22  1  0  0  0  0
 24 26  2  0  0  0  0
 25 30  1  0  0  0  0
 26 28  1  0  0  0  0
 27 29  1  0  0  0  0
 27 33  1  1  0  0  0
 28 30  2  0  0  0  0
 29 31  1  0  0  0  0
 29 32  1  0  0  0  0
 31 32  1  0  0  0  0
M  END
> <PUBCHEM_COMPOUND_ID_TYPE>
0

> <PUBCHEM_TOTAL_CHARGE>
0

> <PUBCHEM_SUBSTANCE_ID>
310948400

> <PUBCHEM_SUBSTANCE_VERSION>
1

> <PUBCHEM_EXT_DATASOURCE_NAME>
4488

> <PUBCHEM_EXT_DATASOURCE_REGID>
SCHEMBL16126581

> <PUBCHEM_SUBSTANCE_COMMENT>
InChI=1S/C24H26ClFN6O/c1-13(14-2-3-14)29-16-5-7-20(15(10-16)12-27)32-21-8-9-28-24(33)22(21)23(31-32)30-17-4-6-18(25)19(26)11-17/h4,6,8-9,11,13-16,20,29H,2-3,5,7,10H2,1H3,(H,28,33)(H,30,31)/t13-,15+,16-,20-/m0/s1
InChIKey=UKIPVDAJUNAYOH-YEOLMYPVSA-N

> <PUBCHEM_SUBSTANCE_SYNONYM>
SCHEMBL16126581

> <PUBCHEM_XREF_EXT_ID>
SCHEMBL16126581

> <PUBCHEM_EXT_DATASOURCE_URL>
https://www.surechembl.org/

> <PUBCHEM_EXT_SUBSTANCE_URL>
https://www.surechembl.org/chemical/SCHEMBL16126581

> <PUBCHEM_CID_ASSOCIATIONS>
117613961  1

> <PUBCHEM_COORDINATE_TYPE>
1
3

> <PUBCHEM_BONDANNOTATIONS>
15  23  6
27  33  5
13  4  5
21  8  6

$$$$
