310939969
  -OEChem-07211613022D

 25 27  0     0  0  0  0  0  0999 V2000
   -2.3671    1.5938    0.0000 Cl  0  0  0  0  0  0  0  0  0  0  0  0
   -0.6705   -0.4125    0.0000 S   0  0  0  0  0  0  0  0  0  0  0  0
    0.0439    1.6500    0.0000 O   0  0  0  0  0  0  0  0  0  0  0  0
    2.9018   -1.6500    0.0000 O   0  0  0  0  0  0  0  0  0  0  0  0
   -1.4552    0.6674    0.0000 N   0  0  0  0  0  0  0  0  0  0  0  0
    0.7584    0.4125    0.0000 N   0  0  0  0  0  0  0  0  0  0  0  0
    2.1873   -0.4125    0.0000 N   0  0  0  0  0  0  0  0  0  0  0  0
   -1.9401    0.0000    0.0000 C   0  0  0  0  0  0  0  0  0  0  0  0
   -0.6705    0.4125    0.0000 C   0  0  0  0  0  0  0  0  0  0  0  0
   -1.4552   -0.6674    0.0000 C   0  0  0  0  0  0  0  0  0  0  0  0
   -2.7370    0.2135    0.0000 C   0  0  0  0  0  0  0  0  0  0  0  0
    0.0439    0.8250    0.0000 C   0  0  0  0  0  0  0  0  0  0  0  0
   -2.9505    1.0104    0.0000 C   0  0  0  0  0  0  0  0  0  0  0  0
   -3.3203   -0.3698    0.0000 C   0  0  0  0  0  0  0  0  0  0  0  0
    0.7584   -0.4125    0.0000 C   0  0  0  0  0  0  0  0  0  0  0  0
    1.4729    0.8250    0.0000 C   0  0  0  0  0  0  0  0  0  0  0  0
    1.4729   -0.8250    0.0000 C   0  0  0  0  0  0  0  0  0  0  0  0
    2.1873    0.4125    0.0000 C   0  0  0  0  0  0  0  0  0  0  0  0
   -1.8677   -1.3819    0.0000 C   0  0  0  0  0  0  0  0  0  0  0  0
   -3.7474    1.2239    0.0000 C   0  0  0  0  0  0  0  0  0  0  0  0
    2.9018   -0.8250    0.0000 C   0  0  0  0  0  0  0  0  0  0  0  0
   -4.1172   -0.1563    0.0000 C   0  0  0  0  0  0  0  0  0  0  0  0
   -4.3308    0.6406    0.0000 C   0  0  0  0  0  0  0  0  0  0  0  0
    3.6163   -0.4125    0.0000 C   0  0  0  0  0  0  0  0  0  0  0  0
    4.3308   -0.8250    0.0000 C   0  0  0  0  0  0  0  0  0  0  0  0
  1 13  1  0  0  0  0
  2  9  1  0  0  0  0
  2 10  1  0  0  0  0
  3 12  2  0  0  0  0
  4 21  2  0  0  0  0
  5  8  1  0  0  0  0
  5  9  2  0  0  0  0
  6 12  1  0  0  0  0
  6 15  1  0  0  0  0
  6 16  1  0  0  0  0
  7 17  1  0  0  0  0
  7 18  1  0  0  0  0
  7 21  1  0  0  0  0
  8 10  2  0  0  0  0
  8 11  1  0  0  0  0
  9 12  1  0  0  0  0
 10 19  1  0  0  0  0
 11 13  2  0  0  0  0
 11 14  1  0  0  0  0
 13 20  1  0  0  0  0
 14 22  2  0  0  0  0
 15 17  1  0  0  0  0
 16 18  1  0  0  0  0
 20 23  2  0  0  0  0
 21 24  1  0  0  0  0
 22 23  1  0  0  0  0
 24 25  2  0  0  0  0
M  END
> <PUBCHEM_COMPOUND_ID_TYPE>
0

> <PUBCHEM_TOTAL_CHARGE>
0

> <PUBCHEM_SUBSTANCE_ID>
310939969

> <PUBCHEM_SUBSTANCE_VERSION>
1

> <PUBCHEM_EXT_DATASOURCE_NAME>
4488

> <PUBCHEM_EXT_DATASOURCE_REGID>
SCHEMBL16117899

> <PUBCHEM_SUBSTANCE_COMMENT>
InChI=1S/C18H18ClN3O2S/c1-3-15(23)21-8-10-22(11-9-21)18(24)17-20-16(12(2)25-17)13-6-4-5-7-14(13)19/h3-7H,1,8-11H2,2H3
InChIKey=ACRDKPRKGFCLGS-UHFFFAOYSA-N

> <PUBCHEM_SUBSTANCE_SYNONYM>
SCHEMBL16117899

> <PUBCHEM_XREF_EXT_ID>
SCHEMBL16117899

> <PUBCHEM_EXT_DATASOURCE_URL>
https://www.surechembl.org/

> <PUBCHEM_EXT_SUBSTANCE_URL>
https://www.surechembl.org/chemical/SCHEMBL16117899

> <PUBCHEM_CID_ASSOCIATIONS>
117607135  1

> <PUBCHEM_COORDINATE_TYPE>
1
3

$$$$
