310943758
  -OEChem-07211613022D

 21 22  0     0  0  0  0  0  0999 V2000
   -0.4333   -1.2002    0.0000 O   0  0  0  0  0  0  0  0  0  0  0  0
    2.4488   -0.1091    0.0000 O   0  0  0  0  0  0  0  0  0  0  0  0
   -0.9320   -2.0203    0.0000 O   0  0  0  0  0  0  0  0  0  0  0  0
   -0.7954    0.6174    0.0000 N   0  0  0  0  0  0  0  0  0  0  0  0
    1.2213    0.6174    0.0000 N   0  0  0  0  0  0  0  0  0  0  0  0
   -2.4614    0.6174    0.0000 N   0  0  0  0  0  0  0  0  0  0  0  0
    0.0313    0.6174    0.0000 C   0  0  0  0  0  0  0  0  0  0  0  0
    0.6326    0.0287    0.0000 C   0  0  0  0  0  0  0  0  0  0  0  0
    0.6200    1.1935    0.0000 C   0  0  0  0  0  0  0  0  0  0  0  0
   -1.2087    1.3314    0.0000 C   0  0  0  0  0  0  0  0  0  0  0  0
   -1.2213   -0.1091    0.0000 C   0  0  0  0  0  0  0  0  0  0  0  0
    2.0355    0.6174    0.0000 C   0  0  0  0  0  0  0  0  0  0  0  0
   -0.9320   -1.4883    0.0000 C   0  0  0  0  0  0  0  0  0  0  0  0
   -2.0480    1.3439    0.0000 C   0  0  0  0  0  0  0  0  0  0  0  0
   -2.0480   -0.1091    0.0000 C   0  0  0  0  0  0  0  0  0  0  0  0
   -0.4222   -0.6461    0.0000 C   0  0  0  0  0  0  0  0  0  0  0  0
    2.4614    1.3439    0.0000 C   0  0  0  0  0  0  0  0  0  0  0  0
    0.0766   -0.6239    0.0000 C   0  0  0  0  0  0  0  0  0  0  0  0
   -0.9320   -0.6461    0.0000 C   0  0  0  0  0  0  0  0  0  0  0  0
   -0.4333   -0.1030    0.0000 C   0  0  0  0  0  0  0  0  0  0  0  0
    1.9979    2.0203    0.0000 C   0  0  0  0  0  0  0  0  0  0  0  0
  1 13  1  0  0  0  0
  1 16  1  0  0  0  0
  2 12  2  0  0  0  0
  3 13  2  0  0  0  0
  4  7  1  0  0  0  0
  4 10  1  0  0  0  0
  4 11  1  0  0  0  0
  5  8  1  0  0  0  0
  5  9  1  0  0  0  0
  5 12  1  0  0  0  0
  6 13  1  0  0  0  0
  6 14  1  0  0  0  0
  6 15  1  0  0  0  0
  7  8  1  0  0  0  0
  7  9  1  0  0  0  0
 10 14  1  0  0  0  0
 11 15  1  0  0  0  0
 12 17  1  0  0  0  0
 16 18  1  0  0  0  0
 16 19  1  0  0  0  0
 16 20  1  0  0  0  0
 17 21  2  0  0  0  0
M  END
> <PUBCHEM_COMPOUND_ID_TYPE>
0

> <PUBCHEM_TOTAL_CHARGE>
0

> <PUBCHEM_SUBSTANCE_ID>
310943758

> <PUBCHEM_SUBSTANCE_VERSION>
1

> <PUBCHEM_EXT_DATASOURCE_NAME>
4488

> <PUBCHEM_EXT_DATASOURCE_REGID>
SCHEMBL16121827

> <PUBCHEM_SUBSTANCE_COMMENT>
InChI=1S/C15H25N3O3/c1-5-13(19)18-10-12(11-18)16-6-8-17(9-7-16)14(20)21-15(2,3)4/h5,12H,1,6-11H2,2-4H3
InChIKey=FQSFGZCTDMXYAM-UHFFFAOYSA-N

> <PUBCHEM_SUBSTANCE_SYNONYM>
SCHEMBL16121827

> <PUBCHEM_XREF_EXT_ID>
SCHEMBL16121827

> <PUBCHEM_EXT_DATASOURCE_URL>
https://www.surechembl.org/

> <PUBCHEM_EXT_SUBSTANCE_URL>
https://www.surechembl.org/chemical/SCHEMBL16121827

> <PUBCHEM_CID_ASSOCIATIONS>
117610120  1

> <PUBCHEM_COORDINATE_TYPE>
1
3

$$$$
