310938322
  -OEChem-07211613022D

 18 19  0     0  0  0  0  0  0999 V2000
    1.7349    0.0000    0.0000 Cl  0  0  0  0  0  0  0  0  0  0  0  0
    0.3965   -3.5442    0.0000 F   0  0  0  0  0  0  0  0  0  0  0  0
    0.0000   -2.8254    0.0000 F   0  0  0  0  0  0  0  0  0  0  0  0
    1.2640   -4.9569    0.0000 F   0  0  0  0  0  0  0  0  0  0  0  0
    1.6854   -1.4375    0.0000 N   0  0  0  0  0  0  0  0  0  0  0  0
    0.4709   -0.6940    0.0000 N   0  0  0  0  0  0  0  0  0  0  0  0
    2.8502   -2.1067    0.0000 N   0  0  0  0  0  0  0  0  0  0  0  0
    3.7177   -3.5442    0.0000 N   0  0  0  0  0  0  0  0  0  0  0  0
    1.6605   -2.8254    0.0000 C   0  0  0  0  0  0  0  0  0  0  0  0
    1.2640   -2.1067    0.0000 C   0  0  0  0  0  0  0  0  0  0  0  0
    1.2144   -3.5442    0.0000 C   0  0  0  0  0  0  0  0  0  0  0  0
    2.4537   -2.8254    0.0000 C   0  0  0  0  0  0  0  0  0  0  0  0
    0.4214   -2.1315    0.0000 C   0  0  0  0  0  0  0  0  0  0  0  0
    1.6605   -4.2382    0.0000 C   0  0  0  0  0  0  0  0  0  0  0  0
    2.8998   -3.5442    0.0000 C   0  0  0  0  0  0  0  0  0  0  0  0
    2.4537   -4.2382    0.0000 C   0  0  0  0  0  0  0  0  0  0  0  0
    1.2888   -0.6940    0.0000 C   0  0  0  0  0  0  0  0  0  0  0  0
    0.0496   -1.3879    0.0000 C   0  0  0  0  0  0  0  0  0  0  0  0
  1 17  1  0  0  0  0
  2 11  1  0  0  0  0
  3 13  1  0  0  0  0
  4 14  1  0  0  0  0
  5 10  2  0  0  0  0
  5 17  1  0  0  0  0
  6 17  2  0  0  0  0
  6 18  1  0  0  0  0
  7 12  1  0  0  0  0
  8 15  1  0  0  0  0
  9 10  1  0  0  0  0
  9 11  1  0  0  0  0
  9 12  2  0  0  0  0
 10 13  1  0  0  0  0
 11 14  2  0  0  0  0
 12 15  1  0  0  0  0
 13 18  2  0  0  0  0
 14 16  1  0  0  0  0
 15 16  2  0  0  0  0
M  END
> <PUBCHEM_COMPOUND_ID_TYPE>
0

> <PUBCHEM_TOTAL_CHARGE>
0

> <PUBCHEM_SUBSTANCE_ID>
310938322

> <PUBCHEM_SUBSTANCE_VERSION>
1

> <PUBCHEM_EXT_DATASOURCE_NAME>
4488

> <PUBCHEM_EXT_DATASOURCE_REGID>
SCHEMBL16116200

> <PUBCHEM_SUBSTANCE_COMMENT>
InChI=1S/C10H6ClF3N4/c11-10-17-2-4(13)9(18-10)6-7(14)3(12)1-5(15)8(6)16/h1-2H,15-16H2
InChIKey=PCEOXJJTMMXIAO-UHFFFAOYSA-N

> <PUBCHEM_SUBSTANCE_SYNONYM>
SCHEMBL16116200

> <PUBCHEM_XREF_EXT_ID>
SCHEMBL16116200

> <PUBCHEM_EXT_DATASOURCE_URL>
https://www.surechembl.org/

> <PUBCHEM_EXT_SUBSTANCE_URL>
https://www.surechembl.org/chemical/SCHEMBL16116200

> <PUBCHEM_CID_ASSOCIATIONS>
117605819  1

> <PUBCHEM_COORDINATE_TYPE>
1
3

$$$$
