310940995
  -OEChem-07211613022D

 41 44  0     1  0  0  0  0  0999 V2000
    5.1655   -0.9997    0.0000 O   0  0  0  0  0  0  0  0  0  0  0  0
    4.0353    0.9418    0.0000 O   0  0  0  0  0  0  0  0  0  0  0  0
    1.6736   -0.9853    0.0000 O   0  0  0  0  0  0  0  0  0  0  0  0
   -0.4709    1.0722    0.0000 O   0  0  0  0  0  0  0  0  0  0  0  0
    3.8180    2.7240    0.0000 O   0  0  0  0  0  0  0  0  0  0  0  0
   -2.6154   -0.9853    0.0000 O   0  0  0  0  0  0  0  0  0  0  0  0
   -5.4843   -0.9853    0.0000 O   0  0  0  0  0  0  0  0  0  0  0  0
    2.3980    0.2463    0.0000 N   0  0  0  0  0  0  0  0  0  0  0  0
    0.2535   -0.1739    0.0000 N   0  0  0  0  0  0  0  0  0  0  0  0
   -1.9054    0.2463    0.0000 N   0  0  0  0  0  0  0  0  0  0  0  0
   -4.0498   -0.1739    0.0000 N   0  0  0  0  0  0  0  0  0  0  0  0
    4.7743   -0.2753    0.0000 C   0  0  3  0  0  0  0  0  0  0  0  0
    3.9919    0.1159    0.0000 C   0  0  0  0  0  0  0  0  0  0  0  0
    4.3686   -0.9708    0.0000 C   0  0  0  0  0  0  0  0  0  0  0  0
    3.3398   -0.2608    0.0000 C   0  0  3  0  0  0  0  0  0  0  0  0
    5.4843    0.1449    0.0000 C   0  0  0  0  0  0  0  0  0  0  0  0
    3.3398   -1.3331    0.0000 C   0  0  0  0  0  0  0  0  0  0  0  0
    1.6880   -0.1159    0.0000 C   0  0  0  0  0  0  0  0  0  0  0  0
    0.9491    0.2753    0.0000 C   0  0  3  0  0  0  0  0  0  0  0  0
    2.6154   -1.7387    0.0000 C   0  0  0  0  0  0  0  0  0  0  0  0
    0.9780    1.1012    0.0000 C   0  0  0  0  0  0  0  0  0  0  0  0
    1.6880    1.5069    0.0000 C   0  0  0  0  0  0  0  0  0  0  0  0
   -0.4709    0.2463    0.0000 C   0  0  0  0  0  0  0  0  0  0  0  0
    1.8764   -1.4199    0.0000 C   0  0  0  0  0  0  0  0  0  0  0  0
    2.5140   -2.5646    0.0000 C   0  0  0  0  0  0  0  0  0  0  0  0
   -1.1664   -0.1304    0.0000 C   0  0  3  0  0  0  0  0  0  0  0  0
    1.3258   -2.0430    0.0000 C   0  0  0  0  0  0  0  0  0  0  0  0
    1.7170   -2.7241    0.0000 C   0  0  0  0  0  0  0  0  0  0  0  0
    2.4125    1.1012    0.0000 C   0  0  0  0  0  0  0  0  0  0  0  0
    1.7025    2.3473    0.0000 C   0  0  0  0  0  0  0  0  0  0  0  0
    3.1225    2.3328    0.0000 C   0  0  0  0  0  0  0  0  0  0  0  0
    3.1225    1.5069    0.0000 C   0  0  0  0  0  0  0  0  0  0  0  0
    2.3980    2.7240    0.0000 C   0  0  0  0  0  0  0  0  0  0  0  0
   -2.6009   -0.1159    0.0000 C   0  0  0  0  0  0  0  0  0  0  0  0
   -3.3398    0.2608    0.0000 C   0  0  0  0  0  0  0  0  0  0  0  0
   -1.1809   -0.9418    0.0000 C   0  0  0  0  0  0  0  0  0  0  0  0
   -4.0353   -0.9563    0.0000 C   0  0  0  0  0  0  0  0  0  0  0  0
   -4.7888    0.2608    0.0000 C   0  0  0  0  0  0  0  0  0  0  0  0
   -4.7308   -1.3620    0.0000 C   0  0  0  0  0  0  0  0  0  0  0  0
   -5.4553   -0.1304    0.0000 C   0  0  0  0  0  0  0  0  0  0  0  0
    4.5714    2.3183    0.0000 C   0  0  0  0  0  0  0  0  0  0  0  0
  1 12  1  0  0  0  0
  1 14  1  0  0  0  0
  2 13  2  0  0  0  0
  3 18  2  0  0  0  0
  4 23  2  0  0  0  0
  5 31  1  0  0  0  0
  5 41  1  0  0  0  0
  6 34  2  0  0  0  0
  7 39  1  0  0  0  0
  7 40  1  0  0  0  0
 15  8  1  6  0  0  0
  8 18  1  0  0  0  0
 19  9  1  1  0  0  0
  9 23  1  0  0  0  0
 10 26  1  0  0  0  0
 10 34  1  0  0  0  0
 11 35  1  0  0  0  0
 11 37  1  0  0  0  0
 11 38  1  0  0  0  0
 12 13  1  6  0  0  0
 12 14  1  0  0  0  0
 12 16  1  1  0  0  0
 13 15  1  0  0  0  0
 15 17  1  0  0  0  0
 17 20  1  0  0  0  0
 18 19  1  0  0  0  0
 19 21  1  0  0  0  0
 20 24  2  0  0  0  0
 20 25  1  0  0  0  0
 21 22  1  0  0  0  0
 22 29  2  0  0  0  0
 22 30  1  0  0  0  0
 23 26  1  0  0  0  0
 24 27  1  0  0  0  0
 25 28  1  0  0  0  0
 26 36  1  6  0  0  0
 27 28  1  0  0  0  0
 29 32  1  0  0  0  0
 30 33  2  0  0  0  0
 31 32  2  0  0  0  0
 31 33  1  0  0  0  0
 34 35  1  0  0  0  0
 37 39  1  0  0  0  0
 38 40  1  0  0  0  0
M  END
> <PUBCHEM_COMPOUND_ID_TYPE>
0

> <PUBCHEM_TOTAL_CHARGE>
0

> <PUBCHEM_SUBSTANCE_ID>
310940995

> <PUBCHEM_SUBSTANCE_VERSION>
1

> <PUBCHEM_EXT_DATASOURCE_NAME>
4488

> <PUBCHEM_EXT_DATASOURCE_REGID>
SCHEMBL16118954

> <PUBCHEM_SUBSTANCE_COMMENT>
InChI=1S/C30H42N4O7/c1-20(31-26(35)18-34-12-14-40-15-13-34)28(37)33-25(17-22-8-10-23(39-3)11-9-22)29(38)32-24(16-21-6-4-5-7-21)27(36)30(2)19-41-30/h6,8-11,20,24-25H,4-5,7,12-19H2,1-3H3,(H,31,35)(H,32,38)(H,33,37)/t20-,24-,25-,30+/m0/s1
InChIKey=CLZRGXQPCQFFTL-NHPFZIKMSA-N

> <PUBCHEM_SUBSTANCE_SYNONYM>
SCHEMBL16118954

> <PUBCHEM_XREF_EXT_ID>
SCHEMBL16118954

> <PUBCHEM_EXT_DATASOURCE_URL>
https://www.surechembl.org/

> <PUBCHEM_EXT_SUBSTANCE_URL>
https://www.surechembl.org/chemical/SCHEMBL16118954

> <PUBCHEM_CID_ASSOCIATIONS>
117607901  1

> <PUBCHEM_COORDINATE_TYPE>
1
3

> <PUBCHEM_BONDANNOTATIONS>
12  13  6
12  16  5
26  36  6
15  8  6
19  9  5

$$$$
