310949000
  -OEChem-07211613022D

 14 14  0     0  0  0  0  0  0999 V2000
   -2.5150   -0.4191    0.0000 I   0  0  0  0  0  0  0  0  0  0  0  0
   -1.8140    0.8315    0.0000 F   0  0  0  0  0  0  0  0  0  0  0  0
    1.7728   -0.4191    0.0000 O   0  0  0  0  0  0  0  0  0  0  0  0
    1.0582   -1.6560    0.0000 O   0  0  0  0  0  0  0  0  0  0  0  0
   -0.3848   -0.8177    0.0000 N   0  0  0  0  0  0  0  0  0  0  0  0
   -0.3848    1.6560    0.0000 N   0  0  0  0  0  0  0  0  0  0  0  0
    0.3298   -0.4054    0.0000 C   0  0  0  0  0  0  0  0  0  0  0  0
   -1.1132   -0.4054    0.0000 C   0  0  0  0  0  0  0  0  0  0  0  0
   -1.0995    0.4191    0.0000 C   0  0  0  0  0  0  0  0  0  0  0  0
   -0.3848    0.8315    0.0000 C   0  0  0  0  0  0  0  0  0  0  0  0
    0.3436    0.4191    0.0000 C   0  0  0  0  0  0  0  0  0  0  0  0
    1.0582   -0.8040    0.0000 C   0  0  0  0  0  0  0  0  0  0  0  0
   -1.8140   -0.8177    0.0000 C   0  0  0  0  0  0  0  0  0  0  0  0
    2.5150   -0.8453    0.0000 C   0  0  0  0  0  0  0  0  0  0  0  0
  1 13  1  0  0  0  0
  2  9  1  0  0  0  0
  3 12  1  0  0  0  0
  3 14  1  0  0  0  0
  4 12  2  0  0  0  0
  5  7  2  0  0  0  0
  5  8  1  0  0  0  0
  6 10  1  0  0  0  0
  7 11  1  0  0  0  0
  7 12  1  0  0  0  0
  8  9  2  0  0  0  0
  8 13  1  0  0  0  0
  9 10  1  0  0  0  0
 10 11  2  0  0  0  0
M  END
> <PUBCHEM_COMPOUND_ID_TYPE>
0

> <PUBCHEM_TOTAL_CHARGE>
0

> <PUBCHEM_SUBSTANCE_ID>
310949000

> <PUBCHEM_SUBSTANCE_VERSION>
1

> <PUBCHEM_EXT_DATASOURCE_NAME>
4488

> <PUBCHEM_EXT_DATASOURCE_REGID>
SCHEMBL16127188

> <PUBCHEM_SUBSTANCE_COMMENT>
InChI=1S/C8H8FIN2O2/c1-14-8(13)5-2-4(11)7(9)6(3-10)12-5/h2H,3H2,1H3,(H2,11,12)
InChIKey=PGWLBJJHBUDMBE-UHFFFAOYSA-N

> <PUBCHEM_SUBSTANCE_SYNONYM>
SCHEMBL16127188

> <PUBCHEM_XREF_EXT_ID>
SCHEMBL16127188

> <PUBCHEM_EXT_DATASOURCE_URL>
https://www.surechembl.org/

> <PUBCHEM_EXT_SUBSTANCE_URL>
https://www.surechembl.org/chemical/SCHEMBL16127188

> <PUBCHEM_CID_ASSOCIATIONS>
117614509  1

> <PUBCHEM_COORDINATE_TYPE>
1
3

$$$$
