310932483
  -OEChem-07211613022D

 39 44  0     1  0  0  0  0  0999 V2000
    2.0604   -4.2706    0.0000 F   0  0  0  0  0  0  0  0  0  0  0  0
    0.0000   -0.7867    0.0000 F   0  0  0  0  0  0  0  0  0  0  0  0
    3.7836   -4.3081    0.0000 O   0  0  0  0  0  0  0  0  0  0  0  0
    5.4319   -1.3486    0.0000 O   0  0  0  0  0  0  0  0  0  0  0  0
    7.0802   -2.8096    0.0000 O   0  0  0  0  0  0  0  0  0  0  0  0
   10.8263   -3.5213    0.0000 O   0  0  0  0  0  0  0  0  0  0  0  0
    5.4319   -2.8096    0.0000 N   0  0  0  0  0  0  0  0  0  0  0  0
    2.1353   -2.8845    0.0000 N   0  0  0  0  0  0  0  0  0  0  0  0
    7.0802   -4.2331    0.0000 N   0  0  0  0  0  0  0  0  0  0  0  0
    6.6681   -2.0978    0.0000 N   0  0  0  0  0  0  0  0  0  0  0  0
    1.2362   -0.0375    0.0000 N   0  0  0  0  0  0  0  0  0  0  0  0
    8.7660   -4.2331    0.0000 N   0  0  0  0  0  0  0  0  0  0  0  0
    9.5526   -2.8096    0.0000 N   0  0  0  0  0  0  0  0  0  0  0  0
    4.6078   -2.8471    0.0000 C   0  0  3  0  0  0  0  0  0  0  0  0
    3.7461   -2.8471    0.0000 C   0  0  0  0  0  0  0  0  0  0  0  0
    5.0198   -3.5588    0.0000 C   0  0  0  0  0  0  0  0  0  0  0  0
    3.3341   -3.5588    0.0000 C   0  0  0  0  0  0  0  0  0  0  0  0
    4.6078   -4.2706    0.0000 C   0  0  0  0  0  0  0  0  0  0  0  0
    4.1957   -2.0978    0.0000 C   0  0  0  0  0  0  0  0  0  0  0  0
    3.3341   -2.0978    0.0000 C   0  0  0  0  0  0  0  0  0  0  0  0
    2.5099   -3.5588    0.0000 C   0  0  0  0  0  0  0  0  0  0  0  0
    5.8814   -3.5588    0.0000 C   0  0  0  0  0  0  0  0  0  0  0  0
    2.5099   -2.1353    0.0000 C   0  0  0  0  0  0  0  0  0  0  0  0
    5.0573   -5.0198    0.0000 C   0  0  0  0  0  0  0  0  0  0  0  0
    5.8440   -2.0978    0.0000 C   0  0  0  0  0  0  0  0  0  0  0  0
    6.2560   -4.2331    0.0000 C   0  0  0  0  0  0  0  0  0  0  0  0
    4.5703   -1.3861    0.0000 C   0  0  0  0  0  0  0  0  0  0  0  0
    2.0978   -1.4610    0.0000 C   0  0  0  0  0  0  0  0  0  0  0  0
    5.8440   -4.9824    0.0000 C   0  0  0  0  0  0  0  0  0  0  0  0
    1.2737   -1.4984    0.0000 C   0  0  0  0  0  0  0  0  0  0  0  0
    2.4724   -0.7492    0.0000 C   0  0  0  0  0  0  0  0  0  0  0  0
    7.4923   -3.5213    0.0000 C   0  0  0  0  0  0  0  0  0  0  0  0
    0.8241   -0.7492    0.0000 C   0  0  0  0  0  0  0  0  0  0  0  0
    8.3164   -3.5213    0.0000 C   0  0  0  0  0  0  0  0  0  0  0  0
    2.0604    0.0000    0.0000 C   0  0  0  0  0  0  0  0  0  0  0  0
    8.7660   -2.8096    0.0000 C   0  0  0  0  0  0  0  0  0  0  0  0
   10.0022   -3.5213    0.0000 C   0  0  0  0  0  0  0  0  0  0  0  0
    9.5526   -4.2331    0.0000 C   0  0  0  0  0  0  0  0  0  0  0  0
   11.2384   -2.8096    0.0000 C   0  0  0  0  0  0  0  0  0  0  0  0
  1 21  1  0  0  0  0
  2 33  1  0  0  0  0
  3 17  1  0  0  0  0
  3 18  1  0  0  0  0
  4 25  1  0  0  0  0
  4 27  1  0  0  0  0
  5 32  2  0  0  0  0
  6 37  1  0  0  0  0
  6 39  1  0  0  0  0
 14  7  1  1  0  0  0
  7 25  2  0  0  0  0
  8 21  1  0  0  0  0
  8 23  2  0  0  0  0
  9 26  1  0  0  0  0
  9 32  1  0  0  0  0
 10 25  1  0  0  0  0
 11 33  1  0  0  0  0
 11 35  2  0  0  0  0
 12 34  2  0  0  0  0
 12 38  1  0  0  0  0
 13 36  2  0  0  0  0
 13 37  1  0  0  0  0
 14 15  1  0  0  0  0
 14 16  1  0  0  0  0
 14 19  1  0  0  0  0
 15 17  1  0  0  0  0
 15 20  2  0  0  0  0
 16 18  2  0  0  0  0
 16 22  1  0  0  0  0
 17 21  2  0  0  0  0
 18 24  1  0  0  0  0
 19 27  1  0  0  0  0
 20 23  1  0  0  0  0
 22 26  2  0  0  0  0
 23 28  1  0  0  0  0
 24 29  2  0  0  0  0
 26 29  1  0  0  0  0
 28 30  1  0  0  0  0
 28 31  2  0  0  0  0
 30 33  2  0  0  0  0
 31 35  1  0  0  0  0
 32 34  1  0  0  0  0
 34 36  1  0  0  0  0
 37 38  2  0  0  0  0
M  END
> <PUBCHEM_COMPOUND_ID_TYPE>
0

> <PUBCHEM_TOTAL_CHARGE>
0

> <PUBCHEM_SUBSTANCE_ID>
310932483

> <PUBCHEM_SUBSTANCE_VERSION>
1

> <PUBCHEM_EXT_DATASOURCE_NAME>
4488

> <PUBCHEM_EXT_DATASOURCE_REGID>
SCHEMBL16109855

> <PUBCHEM_SUBSTANCE_COMMENT>
InChI=1S/C26H19F2N7O4/c1-37-21-12-31-18(11-32-21)24(36)33-14-2-3-19-15(9-14)26(5-7-38-25(29)35-26)16-10-17(34-23(28)22(16)39-19)13-4-6-30-20(27)8-13/h2-4,6,8-12H,5,7H2,1H3,(H2,29,35)(H,33,36)/t26-/m0/s1
InChIKey=NCXCGCLQXXRRPD-SANMLTNESA-N

> <PUBCHEM_SUBSTANCE_SYNONYM>
SCHEMBL16109855

> <PUBCHEM_XREF_EXT_ID>
SCHEMBL16109855

> <PUBCHEM_EXT_DATASOURCE_URL>
https://www.surechembl.org/

> <PUBCHEM_EXT_SUBSTANCE_URL>
https://www.surechembl.org/chemical/SCHEMBL16109855

> <PUBCHEM_CID_ASSOCIATIONS>
117601022  1

> <PUBCHEM_COORDINATE_TYPE>
1
3

> <PUBCHEM_BONDANNOTATIONS>
14  7  5

$$$$
