310939174
  -OEChem-07211613022D

 27 28  0     1  0  0  0  0  0999 V2000
    0.9760    0.6336    0.0000 Cl  0  0  0  0  0  0  0  0  0  0  0  0
   -0.4530   -1.8414    0.0000 F   0  0  0  0  0  0  0  0  0  0  0  0
    0.9760   -1.0164    0.0000 O   0  0  0  0  0  0  0  0  0  0  0  0
    3.8339   -1.8414    0.0000 O   0  0  0  0  0  0  0  0  0  0  0  0
   -3.8339    1.5395    0.0000 O   0  0  0  0  0  0  0  0  0  0  0  0
   -2.5964   -0.6039    0.0000 N   0  0  0  0  0  0  0  0  0  0  0  0
   -2.5964    2.2539    0.0000 N   0  0  0  0  0  0  0  0  0  0  0  0
    0.2615   -0.6039    0.0000 C   0  0  0  0  0  0  0  0  0  0  0  0
   -0.4530   -1.0164    0.0000 C   0  0  0  0  0  0  0  0  0  0  0  0
   -1.1674   -0.6039    0.0000 C   0  0  0  0  0  0  0  0  0  0  0  0
    0.2615    0.2211    0.0000 C   0  0  0  0  0  0  0  0  0  0  0  0
   -1.8819   -1.0164    0.0000 C   0  0  3  0  0  0  0  0  0  0  0  0
   -1.1674    0.2211    0.0000 C   0  0  0  0  0  0  0  0  0  0  0  0
   -0.4530    0.6336    0.0000 C   0  0  0  0  0  0  0  0  0  0  0  0
    1.6905   -0.6039    0.0000 C   0  0  0  0  0  0  0  0  0  0  0  0
   -1.8819   -1.8414    0.0000 C   0  0  0  0  0  0  0  0  0  0  0  0
    2.4049   -1.0164    0.0000 C   0  0  0  0  0  0  0  0  0  0  0  0
    1.6905    0.2211    0.0000 C   0  0  0  0  0  0  0  0  0  0  0  0
    3.1194   -0.6039    0.0000 C   0  0  0  0  0  0  0  0  0  0  0  0
   -3.0089    0.1105    0.0000 C   0  0  3  0  0  0  0  0  0  0  0  0
    2.4049    0.6336    0.0000 C   0  0  0  0  0  0  0  0  0  0  0  0
    3.1194    0.2211    0.0000 C   0  0  0  0  0  0  0  0  0  0  0  0
   -2.5964    0.8250    0.0000 C   0  0  0  0  0  0  0  0  0  0  0  0
    3.8339   -1.0164    0.0000 C   0  0  0  0  0  0  0  0  0  0  0  0
   -2.5964   -2.2539    0.0000 C   0  0  0  0  0  0  0  0  0  0  0  0
   -3.8339    0.1105    0.0000 C   0  0  0  0  0  0  0  0  0  0  0  0
   -3.0089    1.5395    0.0000 C   0  0  0  0  0  0  0  0  0  0  0  0
  1 11  1  0  0  0  0
  2  9  1  0  0  0  0
  3  8  1  0  0  0  0
  3 15  1  0  0  0  0
  4 24  1  0  0  0  0
  5 27  2  0  0  0  0
 12  6  1  1  0  0  0
  6 20  1  0  0  0  0
  7 27  1  0  0  0  0
  8  9  2  0  0  0  0
  8 11  1  0  0  0  0
  9 10  1  0  0  0  0
 10 12  1  0  0  0  0
 10 13  2  0  0  0  0
 11 14  2  0  0  0  0
 12 16  1  0  0  0  0
 13 14  1  0  0  0  0
 15 17  2  0  0  0  0
 15 18  1  0  0  0  0
 16 25  1  0  0  0  0
 17 19  1  0  0  0  0
 18 21  2  0  0  0  0
 19 22  2  0  0  0  0
 19 24  1  0  0  0  0
 20 23  1  0  0  0  0
 20 26  1  6  0  0  0
 21 22  1  0  0  0  0
 23 27  1  0  0  0  0
M  END
> <PUBCHEM_COMPOUND_ID_TYPE>
0

> <PUBCHEM_TOTAL_CHARGE>
0

> <PUBCHEM_SUBSTANCE_ID>
310939174

> <PUBCHEM_SUBSTANCE_VERSION>
1

> <PUBCHEM_EXT_DATASOURCE_NAME>
4488

> <PUBCHEM_EXT_DATASOURCE_REGID>
SCHEMBL16117095

> <PUBCHEM_SUBSTANCE_COMMENT>
InChI=1S/C20H24ClFN2O3/c1-3-17(24-12(2)9-18(23)26)15-7-8-16(21)20(19(15)22)27-14-6-4-5-13(10-14)11-25/h4-8,10,12,17,24-25H,3,9,11H2,1-2H3,(H2,23,26)/t12-,17-/m1/s1
InChIKey=HTFIENGOWCUZTJ-SJKOYZFVSA-N

> <PUBCHEM_SUBSTANCE_SYNONYM>
SCHEMBL16117095

> <PUBCHEM_XREF_EXT_ID>
SCHEMBL16117095

> <PUBCHEM_EXT_DATASOURCE_URL>
https://www.surechembl.org/

> <PUBCHEM_EXT_SUBSTANCE_URL>
https://www.surechembl.org/chemical/SCHEMBL16117095

> <PUBCHEM_CID_ASSOCIATIONS>
117606524  1

> <PUBCHEM_COORDINATE_TYPE>
1
3

> <PUBCHEM_BONDANNOTATIONS>
20  26  6
12  6  5

$$$$
