310942666
  -OEChem-07211613022D

 54 57  0     1  0  0  0  0  0999 V2000
    0.4602   -1.0531    0.0000 F   0  0  0  0  0  0  0  0  0  0  0  0
   -2.0672    1.2559    0.0000 F   0  0  0  0  0  0  0  0  0  0  0  0
    5.9050   -2.1140    0.0000 F   0  0  0  0  0  0  0  0  0  0  0  0
    1.6927   -0.5694    0.0000 O   0  0  0  0  0  0  0  0  0  0  0  0
   -3.8457   -2.5508    0.0000 O   0  0  0  0  0  0  0  0  0  0  0  0
    2.5508   -3.2216    0.0000 O   0  0  0  0  0  0  0  0  0  0  0  0
   -4.2044   -4.3136    0.0000 O   0  0  0  0  0  0  0  0  0  0  0  0
   -5.4057   -1.6615    0.0000 O   0  0  0  0  0  0  0  0  0  0  0  0
   -3.2528   -3.8612    0.0000 O   0  0  0  0  0  0  0  0  0  0  0  0
    1.7551    1.3027    0.0000 N   0  0  0  0  0  0  0  0  0  0  0  0
    1.4118    0.0234    0.0000 N   0  0  0  0  0  0  0  0  0  0  0  0
    3.0499   -0.4602    0.0000 N   0  0  0  0  0  0  0  0  0  0  0  0
    1.5991   -2.1140    0.0000 N   0  0  0  0  0  0  0  0  0  0  0  0
   -4.5945   -2.9096    0.0000 N   0  0  0  0  0  0  0  0  0  0  0  0
    5.9206   -0.4602    0.0000 N   0  0  0  0  0  0  0  0  0  0  0  0
    2.0360    0.5694    0.0000 C   0  0  0  0  0  0  0  0  0  0  0  0
    2.8472    0.3510    0.0000 C   0  0  3  0  0  0  0  0  0  0  0  0
    0.6943    0.4914    0.0000 C   0  0  0  0  0  0  0  0  0  0  0  0
    3.5648    0.7411    0.0000 C   0  0  0  0  0  0  0  0  0  0  0  0
    0.9283    1.2870    0.0000 C   0  0  0  0  0  0  0  0  0  0  0  0
   -0.0858    0.2886    0.0000 C   0  0  0  0  0  0  0  0  0  0  0  0
    2.3324    1.9267    0.0000 C   0  0  0  0  0  0  0  0  0  0  0  0
    2.3479   -0.8658    0.0000 C   0  0  0  0  0  0  0  0  0  0  0  0
   -0.3354   -0.5070    0.0000 C   0  0  0  0  0  0  0  0  0  0  0  0
    3.7521   -0.8658    0.0000 C   0  0  0  0  0  0  0  0  0  0  0  0
   -0.6787    0.8815    0.0000 C   0  0  0  0  0  0  0  0  0  0  0  0
    2.1140    2.7224    0.0000 C   0  0  0  0  0  0  0  0  0  0  0  0
    3.5493    1.5835    0.0000 C   0  0  0  0  0  0  0  0  0  0  0  0
    4.2824    0.3354    0.0000 C   0  0  0  0  0  0  0  0  0  0  0  0
    3.7833   -0.0546    0.0000 C   0  0  0  0  0  0  0  0  0  0  0  0
   -1.4743    0.6631    0.0000 C   0  0  0  0  0  0  0  0  0  0  0  0
   -1.1155   -0.7099    0.0000 C   0  0  0  0  0  0  0  0  0  0  0  0
    2.3167   -1.6927    0.0000 C   0  0  0  0  0  0  0  0  0  0  0  0
   -1.6927   -0.1326    0.0000 C   0  0  0  0  0  0  0  0  0  0  0  0
    4.4853   -0.4446    0.0000 C   0  0  0  0  0  0  0  0  0  0  0  0
    2.6912    3.3152    0.0000 C   0  0  0  0  0  0  0  0  0  0  0  0
    1.3339    2.9408    0.0000 C   0  0  0  0  0  0  0  0  0  0  0  0
    5.2029   -0.8503    0.0000 C   0  0  3  0  0  0  0  0  0  0  0  0
    2.4727    4.0952    0.0000 C   0  0  0  0  0  0  0  0  0  0  0  0
    1.1155    3.7364    0.0000 C   0  0  0  0  0  0  0  0  0  0  0  0
    1.6771    4.3136    0.0000 C   0  0  0  0  0  0  0  0  0  0  0  0
    1.7551   -2.8627    0.0000 C   0  0  0  0  0  0  0  0  0  0  0  0
   -4.7973   -3.6896    0.0000 C   0  0  0  0  0  0  0  0  0  0  0  0
   -5.3277   -2.5196    0.0000 C   0  0  0  0  0  0  0  0  0  0  0  0
    5.1873   -1.7083    0.0000 C   0  0  0  0  0  0  0  0  0  0  0  0
   -5.5773   -3.7988    0.0000 C   0  0  0  0  0  0  0  0  0  0  0  0
   -5.9206   -3.0811    0.0000 C   0  0  0  0  0  0  0  0  0  0  0  0
    1.1311   -3.3621    0.0000 C   0  0  0  0  0  0  0  0  0  0  0  0
   -3.1591   -3.0032    0.0000 C   0  0  0  0  0  0  0  0  0  0  0  0
    0.4290   -2.9408    0.0000 C   0  0  0  0  0  0  0  0  0  0  0  0
   -2.4260   -2.6912    0.0000 C   0  0  0  0  0  0  0  0  0  0  0  0
   -1.7239   -3.1591    0.0000 C   0  0  0  0  0  0  0  0  0  0  0  0
   -0.3042   -3.2997    0.0000 C   0  0  0  0  0  0  0  0  0  0  0  0
   -0.9907   -2.8315    0.0000 C   0  0  0  0  0  0  0  0  0  0  0  0
  1 24  1  0  0  0  0
  2 31  1  0  0  0  0
  3 45  1  0  0  0  0
  4 23  2  0  0  0  0
  5 14  1  0  0  0  0
  5 49  1  0  0  0  0
  6 42  2  0  0  0  0
  7 43  2  0  0  0  0
  8 44  2  0  0  0  0
  9 49  2  0  0  0  0
 10 16  1  0  0  0  0
 10 20  1  0  0  0  0
 10 22  1  0  0  0  0
 11 16  2  0  0  0  0
 11 18  1  0  0  0  0
 17 12  1  1  0  0  0
 12 23  1  0  0  0  0
 12 25  1  0  0  0  0
 13 33  1  0  0  0  0
 13 42  1  0  0  0  0
 14 43  1  0  0  0  0
 14 44  1  0  0  0  0
 38 15  1  6  0  0  0
 16 17  1  0  0  0  0
 17 19  1  0  0  0  0
 18 20  2  0  0  0  0
 18 21  1  0  0  0  0
 19 28  1  0  0  0  0
 19 29  1  0  0  0  0
 19 30  1  0  0  0  0
 21 24  1  0  0  0  0
 21 26  2  0  0  0  0
 22 27  1  0  0  0  0
 23 33  1  0  0  0  0
 24 32  2  0  0  0  0
 25 35  1  0  0  0  0
 26 31  1  0  0  0  0
 27 36  2  0  0  0  0
 27 37  1  0  0  0  0
 31 34  2  0  0  0  0
 32 34  1  0  0  0  0
 35 38  1  0  0  0  0
 36 39  1  0  0  0  0
 37 40  2  0  0  0  0
 38 45  1  0  0  0  0
 39 41  2  0  0  0  0
 40 41  1  0  0  0  0
 42 48  1  0  0  0  0
 43 46  1  0  0  0  0
 44 47  1  0  0  0  0
 46 47  1  0  0  0  0
 48 50  1  0  0  0  0
 49 51  1  0  0  0  0
 50 53  1  0  0  0  0
 51 52  1  0  0  0  0
 52 54  1  0  0  0  0
 53 54  1  0  0  0  0
M  END
> <PUBCHEM_COMPOUND_ID_TYPE>
0

> <PUBCHEM_TOTAL_CHARGE>
0

> <PUBCHEM_SUBSTANCE_ID>
310942666

> <PUBCHEM_SUBSTANCE_VERSION>
1

> <PUBCHEM_EXT_DATASOURCE_NAME>
4488

> <PUBCHEM_EXT_DATASOURCE_REGID>
SCHEMBL16120712

> <PUBCHEM_SUBSTANCE_COMMENT>
InChI=1S/C39H49F3N6O6/c1-39(2,3)37(38-45-31(29-21-27(41)15-16-30(29)42)25-46(38)24-26-11-7-6-8-12-26)47(20-19-28(43)22-40)35(52)23-44-32(49)13-9-4-5-10-14-36(53)54-48-33(50)17-18-34(48)51/h6-8,11-12,15-16,21,25,28,37H,4-5,9-10,13-14,17-20,22-24,43H2,1-3H3,(H,44,49)/t28-,37-/m0/s1
InChIKey=NLVNTVNYWNWKKT-AIJWEMPKSA-N

> <PUBCHEM_SUBSTANCE_SYNONYM>
SCHEMBL16120712

> <PUBCHEM_XREF_EXT_ID>
SCHEMBL16120712

> <PUBCHEM_EXT_DATASOURCE_URL>
https://www.surechembl.org/

> <PUBCHEM_EXT_SUBSTANCE_URL>
https://www.surechembl.org/chemical/SCHEMBL16120712

> <PUBCHEM_CID_ASSOCIATIONS>
117609195  1

> <PUBCHEM_COORDINATE_TYPE>
1
3

> <PUBCHEM_BONDANNOTATIONS>
17  12  5
38  15  6

$$$$
