310949675
  -OEChem-07211613022D

 25 26  0     0  0  0  0  0  0999 V2000
   -3.6481    0.5979    0.0000 F   0  0  0  0  0  0  0  0  0  0  0  0
   -3.6481   -0.2217    0.0000 F   0  0  0  0  0  0  0  0  0  0  0  0
   -2.9090   -0.6382    0.0000 F   0  0  0  0  0  0  0  0  0  0  0  0
   -2.1969    0.6114    0.0000 O   0  0  0  0  0  0  0  0  0  0  0  0
    1.4579    0.2082    0.0000 O   0  0  0  0  0  0  0  0  0  0  0  0
    2.1835    0.6248    0.0000 O   0  0  0  0  0  0  0  0  0  0  0  0
    3.6481    0.6382    0.0000 O   0  0  0  0  0  0  0  0  0  0  0  0
    0.7323   -1.0280    0.0000 N   0  0  0  0  0  0  0  0  0  0  0  0
   -0.7323    2.2507    0.0000 N   0  0  0  0  0  0  0  0  0  0  0  0
   -1.4579    0.1814    0.0000 C   0  0  0  0  0  0  0  0  0  0  0  0
   -0.7458    0.5979    0.0000 C   0  0  0  0  0  0  0  0  0  0  0  0
    2.1969   -1.0413    0.0000 C   0  0  0  0  0  0  0  0  0  0  0  0
   -0.0202   -0.6114    0.0000 C   0  0  0  0  0  0  0  0  0  0  0  0
    1.4444   -0.6382    0.0000 C   0  0  0  0  0  0  0  0  0  0  0  0
    2.9090   -0.6248    0.0000 C   0  0  0  0  0  0  0  0  0  0  0  0
   -0.0202    0.1949    0.0000 C   0  0  0  0  0  0  0  0  0  0  0  0
   -1.4579   -0.6382    0.0000 C   0  0  0  0  0  0  0  0  0  0  0  0
   -0.7055   -1.0280    0.0000 C   0  0  0  0  0  0  0  0  0  0  0  0
   -2.9360    0.1679    0.0000 C   0  0  0  0  0  0  0  0  0  0  0  0
    2.1969   -1.8610    0.0000 C   0  0  0  0  0  0  0  0  0  0  0  0
    2.9360    0.1949    0.0000 C   0  0  0  0  0  0  0  0  0  0  0  0
    3.6481   -1.0145    0.0000 C   0  0  0  0  0  0  0  0  0  0  0  0
   -0.7323    1.4041    0.0000 C   0  0  0  0  0  0  0  0  0  0  0  0
    2.9494   -2.2507    0.0000 C   0  0  0  0  0  0  0  0  0  0  0  0
    3.6481   -1.8476    0.0000 C   0  0  0  0  0  0  0  0  0  0  0  0
  1 19  1  0  0  0  0
  2 19  1  0  0  0  0
  3 19  1  0  0  0  0
  4 10  1  0  0  0  0
  4 19  1  0  0  0  0
  5 14  2  0  0  0  0
  6 21  2  0  0  0  0
  7 21  1  0  0  0  0
  8 13  1  0  0  0  0
  8 14  1  0  0  0  0
  9 23  3  0  0  0  0
 10 11  1  0  0  0  0
 10 17  2  0  0  0  0
 11 16  2  0  0  0  0
 11 23  1  0  0  0  0
 12 14  1  0  0  0  0
 12 15  1  0  0  0  0
 12 20  2  0  0  0  0
 13 16  1  0  0  0  0
 13 18  2  0  0  0  0
 15 21  1  0  0  0  0
 15 22  2  0  0  0  0
 17 18  1  0  0  0  0
 20 24  1  0  0  0  0
 22 25  1  0  0  0  0
 24 25  2  0  0  0  0
M  END
> <PUBCHEM_COMPOUND_ID_TYPE>
0

> <PUBCHEM_TOTAL_CHARGE>
0

> <PUBCHEM_SUBSTANCE_ID>
310949675

> <PUBCHEM_SUBSTANCE_VERSION>
1

> <PUBCHEM_EXT_DATASOURCE_NAME>
4488

> <PUBCHEM_EXT_DATASOURCE_REGID>
SCHEMBL16127873

> <PUBCHEM_SUBSTANCE_COMMENT>
InChI=1S/C16H9F3N2O4/c17-16(18,19)25-13-6-5-10(7-9(13)8-20)21-14(22)11-3-1-2-4-12(11)15(23)24/h1-7H,(H,21,22)(H,23,24)
InChIKey=GXIPSHQGJMFVTK-UHFFFAOYSA-N

> <PUBCHEM_SUBSTANCE_SYNONYM>
SCHEMBL16127873

> <PUBCHEM_XREF_EXT_ID>
SCHEMBL16127873

> <PUBCHEM_EXT_DATASOURCE_URL>
https://www.surechembl.org/

> <PUBCHEM_EXT_SUBSTANCE_URL>
https://www.surechembl.org/chemical/SCHEMBL16127873

> <PUBCHEM_CID_ASSOCIATIONS>
85473205  1

> <PUBCHEM_COORDINATE_TYPE>
1
3

$$$$
