310949384
  -OEChem-07211613022D

 33 37  0     0  0  0  0  0  0999 V2000
    3.7846   -0.6793    0.0000 S   0  0  0  0  0  0  0  0  0  0  0  0
   -4.5055    2.7726    0.0000 F   0  0  0  0  0  0  0  0  0  0  0  0
   -4.1866    1.6497    0.0000 F   0  0  0  0  0  0  0  0  0  0  0  0
   -3.3548    3.0221    0.0000 F   0  0  0  0  0  0  0  0  0  0  0  0
   -3.0776    1.9408    0.0000 O   0  0  0  0  0  0  0  0  0  0  0  0
    0.6932   -0.3743    0.0000 N   0  0  0  0  0  0  0  0  0  0  0  0
    1.1090   -1.0952    0.0000 N   0  0  0  0  0  0  0  0  0  0  0  0
   -0.9288   -2.6201    0.0000 N   0  0  0  0  0  0  0  0  0  0  0  0
    4.3391    0.5545    0.0000 N   0  0  0  0  0  0  0  0  0  0  0  0
   -3.0776   -1.3725    0.0000 N   0  0  0  0  0  0  0  0  0  0  0  0
    4.5055   -0.2634    0.0000 N   0  0  0  0  0  0  0  0  0  0  0  0
   -2.3567   -2.6201    0.0000 N   0  0  0  0  0  0  0  0  0  0  0  0
   -0.2079   -1.3586    0.0000 C   0  0  0  0  0  0  0  0  0  0  0  0
   -0.9149   -1.7745    0.0000 C   0  0  0  0  0  0  0  0  0  0  0  0
    3.1746   -0.1109    0.0000 C   0  0  0  0  0  0  0  0  0  0  0  0
    1.8576    0.4713    0.0000 C   0  0  0  0  0  0  0  0  0  0  0  0
    3.5073    0.6516    0.0000 C   0  0  0  0  0  0  0  0  0  0  0  0
   -0.1109   -0.5407    0.0000 C   0  0  0  0  0  0  0  0  0  0  0  0
    1.0397    0.3882    0.0000 C   0  0  0  0  0  0  0  0  0  0  0  0
    2.3429   -0.1941    0.0000 C   0  0  0  0  0  0  0  0  0  0  0  0
    0.5545   -1.7051    0.0000 C   0  0  0  0  0  0  0  0  0  0  0  0
   -2.3567   -1.7745    0.0000 C   0  0  0  0  0  0  0  0  0  0  0  0
   -1.6636   -1.3725    0.0000 C   0  0  0  0  0  0  0  0  0  0  0  0
    2.2042    1.2200    0.0000 C   0  0  0  0  0  0  0  0  0  0  0  0
    3.0221    1.3031    0.0000 C   0  0  0  0  0  0  0  0  0  0  0  0
   -3.0776   -0.5407    0.0000 C   0  0  0  0  0  0  0  0  0  0  0  0
   -1.6219   -3.0221    0.0000 C   0  0  0  0  0  0  0  0  0  0  0  0
   -3.0914    1.1229    0.0000 C   0  0  0  0  0  0  0  0  0  0  0  0
   -2.3706   -0.1248    0.0000 C   0  0  0  0  0  0  0  0  0  0  0  0
   -3.7985   -0.1248    0.0000 C   0  0  0  0  0  0  0  0  0  0  0  0
   -2.3706    0.7070    0.0000 C   0  0  0  0  0  0  0  0  0  0  0  0
   -3.7985    0.6932    0.0000 C   0  0  0  0  0  0  0  0  0  0  0  0
   -3.7846    2.3567    0.0000 C   0  0  0  0  0  0  0  0  0  0  0  0
  1 11  1  0  0  0  0
  1 15  1  0  0  0  0
  2 33  1  0  0  0  0
  3 33  1  0  0  0  0
  4 33  1  0  0  0  0
  5 28  1  0  0  0  0
  5 33  1  0  0  0  0
  6  7  1  0  0  0  0
  6 18  1  0  0  0  0
  6 19  1  0  0  0  0
  7 21  2  0  0  0  0
  8 14  1  0  0  0  0
  8 27  2  0  0  0  0
  9 11  2  0  0  0  0
  9 17  1  0  0  0  0
 10 22  1  0  0  0  0
 10 26  1  0  0  0  0
 12 22  2  0  0  0  0
 12 27  1  0  0  0  0
 13 14  1  0  0  0  0
 13 18  2  0  0  0  0
 13 21  1  0  0  0  0
 14 23  2  0  0  0  0
 15 17  2  0  0  0  0
 15 20  1  0  0  0  0
 16 19  1  0  0  0  0
 16 20  2  0  0  0  0
 16 24  1  0  0  0  0
 17 25  1  0  0  0  0
 22 23  1  0  0  0  0
 24 25  2  0  0  0  0
 26 29  2  0  0  0  0
 26 30  1  0  0  0  0
 28 31  2  0  0  0  0
 28 32  1  0  0  0  0
 29 31  1  0  0  0  0
 30 32  2  0  0  0  0
M  END
> <PUBCHEM_COMPOUND_ID_TYPE>
0

> <PUBCHEM_TOTAL_CHARGE>
0

> <PUBCHEM_SUBSTANCE_ID>
310949384

> <PUBCHEM_SUBSTANCE_VERSION>
1

> <PUBCHEM_EXT_DATASOURCE_NAME>
4488

> <PUBCHEM_EXT_DATASOURCE_REGID>
SCHEMBL16127576

> <PUBCHEM_SUBSTANCE_COMMENT>
InChI=1S/C21H14F3N7OS/c22-21(23,24)32-16-4-2-15(3-5-16)28-20-8-18(25-12-26-20)14-9-27-31(11-14)10-13-1-6-17-19(7-13)33-30-29-17/h1-9,11-12H,10H2,(H,25,26,28)
InChIKey=UBAABXJVLFPELZ-UHFFFAOYSA-N

> <PUBCHEM_SUBSTANCE_SYNONYM>
SCHEMBL16127576

> <PUBCHEM_XREF_EXT_ID>
SCHEMBL16127576

> <PUBCHEM_EXT_DATASOURCE_URL>
https://www.surechembl.org/

> <PUBCHEM_EXT_SUBSTANCE_URL>
https://www.surechembl.org/chemical/SCHEMBL16127576

> <PUBCHEM_CID_ASSOCIATIONS>
86267866  1

> <PUBCHEM_COORDINATE_TYPE>
1
3

$$$$
