310934202
  -OEChem-07211613022D

 28 30  0     0  0  0  0  0  0999 V2000
    6.9737   -5.7469    0.0000 S   0  0  0  0  0  0  0  0  0  0  0  0
    4.0357   -5.0366    0.0000 O   0  0  0  0  0  0  0  0  0  0  0  0
    7.7809   -5.7469    0.0000 O   0  0  0  0  0  0  0  0  0  0  0  0
    7.3611   -5.0366    0.0000 O   0  0  0  0  0  0  0  0  0  0  0  0
    3.2286   -6.4572    0.0000 O   0  0  0  0  0  0  0  0  0  0  0  0
    4.8752   -5.0366    0.0000 N   0  0  0  0  0  0  0  0  0  0  0  0
    4.0357   -6.4572    0.0000 N   0  0  0  0  0  0  0  0  0  0  0  0
    5.2626   -5.7469    0.0000 C   0  0  0  0  0  0  0  0  0  0  0  0
    4.4554   -5.7469    0.0000 C   0  0  0  0  0  0  0  0  0  0  0  0
    5.7146   -6.4572    0.0000 C   0  0  0  0  0  0  0  0  0  0  0  0
    5.7146   -5.0366    0.0000 C   0  0  0  0  0  0  0  0  0  0  0  0
    6.5217   -6.4572    0.0000 C   0  0  0  0  0  0  0  0  0  0  0  0
    6.5217   -5.0366    0.0000 C   0  0  0  0  0  0  0  0  0  0  0  0
    4.2294   -5.1657    0.0000 C   0  0  0  0  0  0  0  0  0  0  0  0
    3.6483   -4.2940    0.0000 C   0  0  0  0  0  0  0  0  0  0  0  0
    4.0680   -3.5837    0.0000 C   0  0  0  0  0  0  0  0  0  0  0  0
    2.8411   -4.2940    0.0000 C   0  0  0  0  0  0  0  0  0  0  0  0
    2.8411   -2.8734    0.0000 C   0  0  0  0  0  0  0  0  0  0  0  0
    3.6806   -2.8734    0.0000 C   0  0  0  0  0  0  0  0  0  0  0  0
    2.4215   -3.5837    0.0000 C   0  0  0  0  0  0  0  0  0  0  0  0
    2.4537   -2.1632    0.0000 C   0  0  0  0  0  0  0  0  0  0  0  0
    1.6143   -2.1308    0.0000 C   0  0  0  0  0  0  0  0  0  0  0  0
    1.2269   -1.4206    0.0000 C   0  0  0  0  0  0  0  0  0  0  0  0
    0.3874   -1.4206    0.0000 C   0  0  0  0  0  0  0  0  0  0  0  0
    1.6466   -0.7103    0.0000 C   0  0  0  0  0  0  0  0  0  0  0  0
    0.0000   -0.7103    0.0000 C   0  0  0  0  0  0  0  0  0  0  0  0
    1.2269    0.0000    0.0000 C   0  0  0  0  0  0  0  0  0  0  0  0
    0.4197    0.0000    0.0000 C   0  0  0  0  0  0  0  0  0  0  0  0
  1  3  2  0  0  0  0
  1  4  2  0  0  0  0
  1 12  1  0  0  0  0
  1 13  1  0  0  0  0
  2  9  2  0  0  0  0
  5  7  1  0  0  0  0
  6  8  1  0  0  0  0
  6 14  1  0  0  0  0
  7  9  1  0  0  0  0
  8  9  1  0  0  0  0
  8 10  1  0  0  0  0
  8 11  1  0  0  0  0
 10 12  1  0  0  0  0
 11 13  1  0  0  0  0
 14 15  1  0  0  0  0
 15 16  2  0  0  0  0
 15 17  1  0  0  0  0
 16 19  1  0  0  0  0
 17 20  2  0  0  0  0
 18 19  2  0  0  0  0
 18 20  1  0  0  0  0
 18 21  1  0  0  0  0
 21 22  3  0  0  0  0
 22 23  1  0  0  0  0
 23 24  2  0  0  0  0
 23 25  1  0  0  0  0
 24 26  1  0  0  0  0
 25 27  2  0  0  0  0
 26 28  2  0  0  0  0
 27 28  1  0  0  0  0
M  END
> <PUBCHEM_COMPOUND_ID_TYPE>
0

> <PUBCHEM_TOTAL_CHARGE>
0

> <PUBCHEM_SUBSTANCE_ID>
310934202

> <PUBCHEM_SUBSTANCE_VERSION>
1

> <PUBCHEM_EXT_DATASOURCE_NAME>
4488

> <PUBCHEM_EXT_DATASOURCE_REGID>
SCHEMBL16111657

> <PUBCHEM_SUBSTANCE_COMMENT>
InChI=1S/C21H22N2O4S/c24-20(23-25)21(12-14-28(26,27)15-13-21)22-16-19-10-8-18(9-11-19)7-6-17-4-2-1-3-5-17/h1-5,8-11,22,25H,12-16H2,(H,23,24)
InChIKey=BHPSUYPKNUMMDW-UHFFFAOYSA-N

> <PUBCHEM_SUBSTANCE_SYNONYM>
SCHEMBL16111657

> <PUBCHEM_XREF_EXT_ID>
SCHEMBL16111657

> <PUBCHEM_EXT_DATASOURCE_URL>
https://www.surechembl.org/

> <PUBCHEM_EXT_SUBSTANCE_URL>
https://www.surechembl.org/chemical/SCHEMBL16111657

> <PUBCHEM_CID_ASSOCIATIONS>
117602471  1

> <PUBCHEM_COORDINATE_TYPE>
1
3

$$$$
