310948906
  -OEChem-07211613022D

 56 59  0     1  0  0  0  0  0999 V2000
    3.0191    1.2424    0.0000 P   0  0  3  0  0  0  0  0  0  0  0  0
    5.9637   -1.0809    0.0000 F   0  0  0  0  0  0  0  0  0  0  0  0
    5.9512    1.0809    0.0000 O   0  0  0  0  0  0  0  0  0  0  0  0
    4.7460   -0.7206    0.0000 O   0  0  0  0  0  0  0  0  0  0  0  0
    3.7273    0.8200    0.0000 O   0  0  0  0  0  0  0  0  0  0  0  0
    3.0067    0.4100    0.0000 O   0  0  0  0  0  0  0  0  0  0  0  0
    7.2557    1.8388    0.0000 O   0  0  0  0  0  0  0  0  0  0  0  0
    3.0067    2.0624    0.0000 O   0  0  0  0  0  0  0  0  0  0  0  0
   -0.5839    0.0000    0.0000 O   0  0  0  0  0  0  0  0  0  0  0  0
    7.2806    0.4100    0.0000 N   0  0  0  0  0  0  0  0  0  0  0  0
    8.5230    1.1306    0.0000 N   0  0  0  0  0  0  0  0  0  0  0  0
    2.3109    0.8324    0.0000 N   0  0  0  0  0  0  0  0  0  0  0  0
    9.8897    0.4100    0.0000 N   0  0  0  0  0  0  0  0  0  0  0  0
    0.1491    1.2424    0.0000 N   0  0  0  0  0  0  0  0  0  0  0  0
    5.9637   -0.2485    0.0000 C   0  0  3  0  0  0  0  0  0  0  0  0
    6.4482    0.4224    0.0000 C   0  0  3  0  0  0  0  0  0  0  0  0
    5.1685    0.0000    0.0000 C   0  0  3  0  0  0  0  0  0  0  0  0
    5.1809    0.8324    0.0000 C   0  0  3  0  0  0  0  0  0  0  0  0
    7.6906    1.1306    0.0000 C   0  0  0  0  0  0  0  0  0  0  0  0
    4.4603    1.2424    0.0000 C   0  0  0  0  0  0  0  0  0  0  0  0
    6.6718   -0.6709    0.0000 C   0  0  0  0  0  0  0  0  0  0  0  0
    7.6906   -0.2982    0.0000 C   0  0  0  0  0  0  0  0  0  0  0  0
    8.5230   -0.2982    0.0000 C   0  0  0  0  0  0  0  0  0  0  0  0
    8.9331    0.4100    0.0000 C   0  0  0  0  0  0  0  0  0  0  0  0
    3.0191   -0.4224    0.0000 C   0  0  0  0  0  0  0  0  0  0  0  0
    2.2985   -0.8325    0.0000 C   0  0  0  0  0  0  0  0  0  0  0  0
    2.2861   -1.6525    0.0000 C   0  0  0  0  0  0  0  0  0  0  0  0
    3.7397   -0.8325    0.0000 C   0  0  0  0  0  0  0  0  0  0  0  0
    1.5903   -0.4224    0.0000 C   0  0  0  0  0  0  0  0  0  0  0  0
    3.0191   -2.0624    0.0000 C   0  0  0  0  0  0  0  0  0  0  0  0
    3.7397   -1.6525    0.0000 C   0  0  0  0  0  0  0  0  0  0  0  0
    1.5779   -2.0624    0.0000 C   0  0  0  0  0  0  0  0  0  0  0  0
    1.5779    1.2424    0.0000 C   0  0  0  0  0  0  0  0  0  0  0  0
    0.8821   -0.8325    0.0000 C   0  0  0  0  0  0  0  0  0  0  0  0
    0.8821   -1.6525    0.0000 C   0  0  0  0  0  0  0  0  0  0  0  0
    0.8821    0.8324    0.0000 C   0  0  0  0  0  0  0  0  0  0  0  0
   -0.5716    0.8449    0.0000 C   0  0  0  0  0  0  0  0  0  0  0  0
   -1.2922    1.2424    0.0000 C   0  0  0  0  0  0  0  0  0  0  0  0
   -1.9879    0.8324    0.0000 C   0  0  0  0  0  0  0  0  0  0  0  0
   -2.0003   -0.0124    0.0000 C   0  0  0  0  0  0  0  0  0  0  0  0
   -2.7085   -0.4100    0.0000 C   0  0  0  0  0  0  0  0  0  0  0  0
   -3.4415    0.0000    0.0000 C   0  0  0  0  0  0  0  0  0  0  0  0
   -3.4415    0.8324    0.0000 C   0  0  0  0  0  0  0  0  0  0  0  0
   -4.1497    1.2424    0.0000 C   0  0  0  0  0  0  0  0  0  0  0  0
   -4.8579    0.8324    0.0000 C   0  0  0  0  0  0  0  0  0  0  0  0
   -4.8703   -0.0124    0.0000 C   0  0  0  0  0  0  0  0  0  0  0  0
   -5.5785   -0.4100    0.0000 C   0  0  0  0  0  0  0  0  0  0  0  0
   -6.3115    0.0000    0.0000 C   0  0  0  0  0  0  0  0  0  0  0  0
   -6.3115    0.8324    0.0000 C   0  0  0  0  0  0  0  0  0  0  0  0
   -7.0197    1.2424    0.0000 C   0  0  0  0  0  0  0  0  0  0  0  0
   -7.7279    0.8324    0.0000 C   0  0  0  0  0  0  0  0  0  0  0  0
   -7.7403   -0.0124    0.0000 C   0  0  0  0  0  0  0  0  0  0  0  0
   -8.4485   -0.4100    0.0000 C   0  0  0  0  0  0  0  0  0  0  0  0
   -9.1691    0.0000    0.0000 C   0  0  0  0  0  0  0  0  0  0  0  0
   -9.1691    0.8200    0.0000 C   0  0  0  0  0  0  0  0  0  0  0  0
   -9.8897    1.2300    0.0000 C   0  0  0  0  0  0  0  0  0  0  0  0
  1  5  1  0  0  0  0
  1  6  1  0  0  0  0
  1  8  2  0  0  0  0
  1 12  1  0  0  0  0
 15  2  1  6  0  0  0
 16  3  1  1  0  0  0
  3 18  1  0  0  0  0
 17  4  1  6  0  0  0
  5 20  1  0  0  0  0
  6 25  1  0  0  0  0
  7 19  2  0  0  0  0
  9 37  2  0  0  0  0
 10 16  1  0  0  0  0
 10 19  1  0  0  0  0
 10 22  1  0  0  0  0
 11 19  1  0  0  0  0
 11 24  2  0  0  0  0
 12 33  1  0  0  0  0
 13 24  1  0  0  0  0
 14 36  1  0  0  0  0
 14 37  1  0  0  0  0
 15 16  1  0  0  0  0
 15 17  1  0  0  0  0
 15 21  1  1  0  0  0
 17 18  1  0  0  0  0
 18 20  1  1  0  0  0
 22 23  2  0  0  0  0
 23 24  1  0  0  0  0
 25 26  2  0  0  0  0
 25 28  1  0  0  0  0
 26 27  1  0  0  0  0
 26 29  1  0  0  0  0
 27 30  2  0  0  0  0
 27 32  1  0  0  0  0
 28 31  2  0  0  0  0
 29 34  2  0  0  0  0
 30 31  1  0  0  0  0
 32 35  2  0  0  0  0
 33 36  1  0  0  0  0
 34 35  1  0  0  0  0
 37 38  1  0  0  0  0
 38 39  1  0  0  0  0
 39 40  1  0  0  0  0
 40 41  1  0  0  0  0
 41 42  2  0  0  0  0
 42 43  1  0  0  0  0
 43 44  1  0  0  0  0
 44 45  2  0  0  0  0
 45 46  1  0  0  0  0
 46 47  1  0  0  0  0
 47 48  2  0  0  0  0
 48 49  1  0  0  0  0
 49 50  1  0  0  0  0
 50 51  2  0  0  0  0
 51 52  1  0  0  0  0
 52 53  1  0  0  0  0
 53 54  2  0  0  0  0
 54 55  1  0  0  0  0
 55 56  1  0  0  0  0
M  END
> <PUBCHEM_COMPOUND_ID_TYPE>
0

> <PUBCHEM_TOTAL_CHARGE>
0

> <PUBCHEM_SUBSTANCE_ID>
310948906

> <PUBCHEM_SUBSTANCE_VERSION>
1

> <PUBCHEM_EXT_DATASOURCE_NAME>
4488

> <PUBCHEM_EXT_DATASOURCE_REGID>
SCHEMBL16127091

> <PUBCHEM_SUBSTANCE_COMMENT>
InChI=1S/C42H55FN5O7P/c1-3-4-5-6-7-8-9-10-11-12-13-14-15-16-17-18-19-27-38(49)45-29-30-46-56(52,55-35-26-22-24-33-23-20-21-25-34(33)35)53-32-36-39(50)42(2,43)40(54-36)48-31-28-37(44)47-41(48)51/h4-5,7-8,10-11,13-14,16-17,20-26,28,31,36,39-40,50H,3,6,9,12,15,18-19,27,29-30,32H2,1-2H3,(H,45,49)(H,46,52)(H2,44,47,51)/b5-4-,8-7-,11-10-,14-13-,17-16-/t36-,39-,40-,42-,56?/m1/s1
InChIKey=JXMSCATVOYZRBN-JZFAAEFLSA-N

> <PUBCHEM_SUBSTANCE_SYNONYM>
SCHEMBL16127091

> <PUBCHEM_XREF_EXT_ID>
SCHEMBL16127091

> <PUBCHEM_EXT_DATASOURCE_URL>
https://www.surechembl.org/

> <PUBCHEM_EXT_SUBSTANCE_URL>
https://www.surechembl.org/chemical/SCHEMBL16127091

> <PUBCHEM_CID_ASSOCIATIONS>
86270598  1

> <PUBCHEM_COORDINATE_TYPE>
1
3

> <PUBCHEM_BONDANNOTATIONS>
15  21  5
18  20  5
15  2  6
16  3  5
17  4  6

$$$$
