310947985
  -OEChem-07211613022D

 36 40  0     1  0  0  0  0  0999 V2000
    0.7292   -0.6482    0.0000 S   0  0  0  0  0  0  0  0  0  0  0  0
    3.6755   -0.4567    0.0000 S   0  0  0  0  0  0  0  0  0  0  0  0
   -3.3367   -0.1178    0.0000 O   0  0  0  0  0  0  0  0  0  0  0  0
   -3.6313   -2.0625    0.0000 O   0  0  0  0  0  0  0  0  0  0  0  0
   -3.6313    2.0625    0.0000 O   0  0  0  0  0  0  0  0  0  0  0  0
    0.7439    0.1768    0.0000 O   0  0  0  0  0  0  0  0  0  0  0  0
    0.7439   -1.4731    0.0000 O   0  0  0  0  0  0  0  0  0  0  0  0
   -4.3532   -0.8250    0.0000 O   0  0  0  0  0  0  0  0  0  0  0  0
   -4.3532    0.8250    0.0000 O   0  0  0  0  0  0  0  0  0  0  0  0
    4.4121   -1.6942    0.0000 O   0  0  0  0  0  0  0  0  0  0  0  0
   -0.0663   -0.8692    0.0000 N   0  0  3  0  0  0  0  0  0  0  0  0
   -2.2171   -0.3830    0.0000 C   0  0  3  0  0  0  0  0  0  0  0  0
   -2.2171    0.4420    0.0000 C   0  0  0  0  0  0  0  0  0  0  0  0
   -1.4952   -0.8102    0.0000 C   0  0  3  0  0  0  0  0  0  0  0  0
   -2.9389   -0.8102    0.0000 C   0  0  3  0  0  0  0  0  0  0  0  0
   -2.9389    0.8397    0.0000 C   0  0  0  0  0  0  0  0  0  0  0  0
   -0.8029   -0.3977    0.0000 C   0  0  3  0  0  0  0  0  0  0  0  0
   -1.5100    0.8544    0.0000 C   0  0  0  0  0  0  0  0  0  0  0  0
   -1.6278    0.0590    0.0000 C   0  0  0  0  0  0  0  0  0  0  0  0
   -2.9389   -1.6352    0.0000 C   0  0  3  0  0  0  0  0  0  0  0  0
   -0.7882    0.4272    0.0000 C   0  0  0  0  0  0  0  0  0  0  0  0
   -1.5100   -1.6205    0.0000 C   0  0  0  0  0  0  0  0  0  0  0  0
   -2.9389    1.6794    0.0000 C   0  0  0  0  0  0  0  0  0  0  0  0
   -0.3315    0.0590    0.0000 C   0  0  0  0  0  0  0  0  0  0  0  0
   -2.2171   -2.0329    0.0000 C   0  0  0  0  0  0  0  0  0  0  0  0
   -1.5100    1.6646    0.0000 C   0  0  0  0  0  0  0  0  0  0  0  0
   -2.2171    2.0625    0.0000 C   0  0  0  0  0  0  0  0  0  0  0  0
    1.5395   -0.8397    0.0000 C   0  0  0  0  0  0  0  0  0  0  0  0
   -4.3826   -1.6499    0.0000 C   0  0  0  0  0  0  0  0  0  0  0  0
   -4.3679    1.6942    0.0000 C   0  0  0  0  0  0  0  0  0  0  0  0
    2.2171   -0.4420    0.0000 C   0  0  0  0  0  0  0  0  0  0  0  0
   -5.0898   -2.0772    0.0000 C   0  0  0  0  0  0  0  0  0  0  0  0
   -5.1192    2.0772    0.0000 C   0  0  0  0  0  0  0  0  0  0  0  0
    2.9684   -0.8397    0.0000 C   0  0  0  0  0  0  0  0  0  0  0  0
    4.3973   -0.8250    0.0000 C   0  0  0  0  0  0  0  0  0  0  0  0
    5.1192   -0.4272    0.0000 C   0  0  0  0  0  0  0  0  0  0  0  0
  1  6  2  0  0  0  0
  1  7  2  0  0  0  0
  1 11  1  0  0  0  0
  1 28  1  0  0  0  0
  2 34  1  0  0  0  0
  2 35  1  0  0  0  0
 15  3  1  6  0  0  0
  3 16  1  0  0  0  0
 20  4  1  6  0  0  0
  4 29  1  0  0  0  0
  5 23  1  0  0  0  0
  5 30  1  0  0  0  0
  8 29  2  0  0  0  0
  9 30  2  0  0  0  0
 10 35  2  0  0  0  0
 17 11  1  1  0  0  0
 11 24  1  0  0  0  0
 12 13  1  6  0  0  0
 12 14  1  0  0  0  0
 12 15  1  0  0  0  0
 12 19  1  0  0  0  0
 13 16  1  0  0  0  0
 13 18  2  0  0  0  0
 14 17  1  0  0  0  0
 14 22  1  0  0  0  0
 15 20  1  0  0  0  0
 16 23  2  0  0  0  0
 17 21  1  0  0  0  0
 18 21  1  0  0  0  0
 18 26  1  0  0  0  0
 19 24  1  0  0  0  0
 20 25  1  0  0  0  0
 22 25  2  0  0  0  0
 23 27  1  0  0  0  0
 26 27  2  0  0  0  0
 28 31  1  0  0  0  0
 29 32  1  0  0  0  0
 30 33  1  0  0  0  0
 31 34  1  0  0  0  0
 35 36  1  0  0  0  0
M  END
> <PUBCHEM_COMPOUND_ID_TYPE>
0

> <PUBCHEM_TOTAL_CHARGE>
0

> <PUBCHEM_SUBSTANCE_ID>
310947985

> <PUBCHEM_SUBSTANCE_VERSION>
1

> <PUBCHEM_EXT_DATASOURCE_NAME>
4488

> <PUBCHEM_EXT_DATASOURCE_REGID>
SCHEMBL16126159

> <PUBCHEM_SUBSTANCE_COMMENT>
InChI=1S/C25H29NO8S2/c1-14(27)32-20-7-5-17-13-19-18-6-8-21(33-15(2)28)24-25(18,22(17)23(20)34-24)9-10-26(19)36(30,31)12-4-11-35-16(3)29/h5-8,18-19,21,24H,4,9-13H2,1-3H3/t18?,19-,21+,24+,25+/m1/s1
InChIKey=QEDWAYQCXDPILH-QEBGYEMMSA-N

> <PUBCHEM_SUBSTANCE_SYNONYM>
SCHEMBL16126159

> <PUBCHEM_XREF_EXT_ID>
SCHEMBL16126159

> <PUBCHEM_EXT_DATASOURCE_URL>
https://www.surechembl.org/

> <PUBCHEM_EXT_SUBSTANCE_URL>
https://www.surechembl.org/chemical/SCHEMBL16126159

> <PUBCHEM_CID_ASSOCIATIONS>
117613631  1

> <PUBCHEM_COORDINATE_TYPE>
1
3

> <PUBCHEM_BONDANNOTATIONS>
17  11  5
12  13  6
15  3  6
20  4  6

$$$$
