310932278
  -OEChem-07211613022D

 64 71  0     0  0  0  0  0  0999 V2000
   -1.2861    3.2175    0.0000 P   0  0  0  0  0  0  0  0  0  0  0  0
    2.0005   -1.1550    0.0000 P   0  0  0  0  0  0  0  0  0  0  0  0
   -1.8091    1.1440    0.0000 O   0  0  0  0  0  0  0  0  0  0  0  0
    2.5236    0.9185    0.0000 O   0  0  0  0  0  0  0  0  0  0  0  0
   -2.0573    2.5513    0.0000 O   0  0  0  0  0  0  0  0  0  0  0  0
    2.7717   -0.4888    0.0000 O   0  0  0  0  0  0  0  0  0  0  0  0
    0.0000    0.8250    0.0000 C   0  0  0  0  0  0  0  0  0  0  0  0
    0.7144    1.2375    0.0000 C   0  0  0  0  0  0  0  0  0  0  0  0
   -0.7144    1.2375    0.0000 C   0  0  0  0  0  0  0  0  0  0  0  0
    1.4290    0.8250    0.0000 C   0  0  0  0  0  0  0  0  0  0  0  0
   -0.7144    2.0625    0.0000 C   0  0  0  0  0  0  0  0  0  0  0  0
    1.4290    0.0000    0.0000 C   0  0  0  0  0  0  0  0  0  0  0  0
    0.0000    0.0000    0.0000 C   0  0  0  0  0  0  0  0  0  0  0  0
    0.7144    2.0625    0.0000 C   0  0  0  0  0  0  0  0  0  0  0  0
   -1.4290    0.8250    0.0000 C   0  0  0  0  0  0  0  0  0  0  0  0
    2.1434    1.2375    0.0000 C   0  0  0  0  0  0  0  0  0  0  0  0
   -0.7144   -0.4125    0.0000 C   0  0  0  0  0  0  0  0  0  0  0  0
    1.4290    2.4750    0.0000 C   0  0  0  0  0  0  0  0  0  0  0  0
   -1.5270    1.9192    0.0000 C   0  0  0  0  0  0  0  0  0  0  0  0
    2.2414    0.1433    0.0000 C   0  0  0  0  0  0  0  0  0  0  0  0
    0.0980    1.9192    0.0000 C   0  0  0  0  0  0  0  0  0  0  0  0
   -0.9967    2.8378    0.0000 C   0  0  0  0  0  0  0  0  0  0  0  0
    0.6165    0.1433    0.0000 C   0  0  0  0  0  0  0  0  0  0  0  0
    1.7111   -0.7753    0.0000 C   0  0  0  0  0  0  0  0  0  0  0  0
   -1.2142    4.0394    0.0000 C   0  0  0  0  0  0  0  0  0  0  0  0
   -2.5264    2.7660    0.0000 C   0  0  0  0  0  0  0  0  0  0  0  0
    1.9286   -1.9769    0.0000 C   0  0  0  0  0  0  0  0  0  0  0  0
    3.2409   -0.7035    0.0000 C   0  0  0  0  0  0  0  0  0  0  0  0
   -1.4290    0.0000    0.0000 C   0  0  0  0  0  0  0  0  0  0  0  0
    2.1434    2.0625    0.0000 C   0  0  0  0  0  0  0  0  0  0  0  0
    0.6283    2.5513    0.0000 C   0  0  0  0  0  0  0  0  0  0  0  0
   -0.4664    3.4697    0.0000 C   0  0  0  0  0  0  0  0  0  0  0  0
    0.0862   -0.4888    0.0000 C   0  0  0  0  0  0  0  0  0  0  0  0
    1.1808   -1.4072    0.0000 C   0  0  0  0  0  0  0  0  0  0  0  0
   -0.4664    4.3880    0.0000 C   0  0  0  0  0  0  0  0  0  0  0  0
   -2.6697    1.9535    0.0000 C   0  0  0  0  0  0  0  0  0  0  0  0
    1.1809   -2.3255    0.0000 C   0  0  0  0  0  0  0  0  0  0  0  0
    3.3842    0.1090    0.0000 C   0  0  0  0  0  0  0  0  0  0  0  0
   -1.8900    4.5126    0.0000 C   0  0  0  0  0  0  0  0  0  0  0  0
   -3.1585    3.2963    0.0000 C   0  0  0  0  0  0  0  0  0  0  0  0
    2.6044   -2.4501    0.0000 C   0  0  0  0  0  0  0  0  0  0  0  0
    3.8729   -1.2338    0.0000 C   0  0  0  0  0  0  0  0  0  0  0  0
    0.3461    3.3265    0.0000 C   0  0  0  0  0  0  0  0  0  0  0  0
    0.3684   -1.2640    0.0000 C   0  0  0  0  0  0  0  0  0  0  0  0
   -0.3945    5.2099    0.0000 C   0  0  0  0  0  0  0  0  0  0  0  0
   -3.4450    1.6714    0.0000 C   0  0  0  0  0  0  0  0  0  0  0  0
    1.1090   -3.1474    0.0000 C   0  0  0  0  0  0  0  0  0  0  0  0
    4.1594    0.3911    0.0000 C   0  0  0  0  0  0  0  0  0  0  0  0
   -1.8181    5.3345    0.0000 C   0  0  0  0  0  0  0  0  0  0  0  0
   -3.9337    3.0141    0.0000 C   0  0  0  0  0  0  0  0  0  0  0  0
    2.5325   -3.2719    0.0000 C   0  0  0  0  0  0  0  0  0  0  0  0
    4.6482   -0.9516    0.0000 C   0  0  0  0  0  0  0  0  0  0  0  0
   -1.0703    5.6831    0.0000 C   0  0  0  0  0  0  0  0  0  0  0  0
   -4.0769    2.2017    0.0000 C   0  0  0  0  0  0  0  0  0  0  0  0
    1.7848   -3.6206    0.0000 C   0  0  0  0  0  0  0  0  0  0  0  0
    4.7914   -0.1392    0.0000 C   0  0  0  0  0  0  0  0  0  0  0  0
    0.3532    5.5586    0.0000 C   0  0  0  0  0  0  0  0  0  0  0  0
   -3.5882    0.8589    0.0000 C   0  0  0  0  0  0  0  0  0  0  0  0
    0.3613   -3.4961    0.0000 C   0  0  0  0  0  0  0  0  0  0  0  0
    4.3027    1.2036    0.0000 C   0  0  0  0  0  0  0  0  0  0  0  0
   -2.4939    5.8076    0.0000 C   0  0  0  0  0  0  0  0  0  0  0  0
   -4.5657    3.5445    0.0000 C   0  0  0  0  0  0  0  0  0  0  0  0
    3.2083   -3.7451    0.0000 C   0  0  0  0  0  0  0  0  0  0  0  0
    5.2801   -1.4820    0.0000 C   0  0  0  0  0  0  0  0  0  0  0  0
  1 14  1  0  0  0  0
  1 25  1  0  0  0  0
  1 26  1  0  0  0  0
  2 13  1  0  0  0  0
  2 27  1  0  0  0  0
  2 28  1  0  0  0  0
  3 19  2  0  0  0  0
  4 20  2  0  0  0  0
  5 19  1  0  0  0  0
  6 20  1  0  0  0  0
  7  8  1  0  0  0  0
  7  9  1  0  0  0  0
  7 13  2  0  0  0  0
  8 10  1  0  0  0  0
  8 14  2  0  0  0  0
  9 11  1  0  0  0  0
  9 15  2  0  0  0  0
 10 12  1  0  0  0  0
 10 16  2  0  0  0  0
 11 19  1  0  0  0  0
 11 21  1  0  0  0  0
 11 22  1  0  0  0  0
 12 20  1  0  0  0  0
 12 23  1  0  0  0  0
 12 24  1  0  0  0  0
 13 17  1  0  0  0  0
 14 18  1  0  0  0  0
 15 29  1  0  0  0  0
 16 30  1  0  0  0  0
 17 29  2  0  0  0  0
 18 30  2  0  0  0  0
 21 31  1  0  0  0  0
 22 32  1  0  0  0  0
 23 33  1  0  0  0  0
 24 34  1  0  0  0  0
 25 35  2  0  0  0  0
 25 39  1  0  0  0  0
 26 36  2  0  0  0  0
 26 40  1  0  0  0  0
 27 37  2  0  0  0  0
 27 41  1  0  0  0  0
 28 38  2  0  0  0  0
 28 42  1  0  0  0  0
 31 43  1  0  0  0  0
 32 43  1  0  0  0  0
 33 44  1  0  0  0  0
 34 44  1  0  0  0  0
 35 45  1  0  0  0  0
 36 46  1  0  0  0  0
 37 47  1  0  0  0  0
 38 48  1  0  0  0  0
 39 49  2  0  0  0  0
 40 50  2  0  0  0  0
 41 51  2  0  0  0  0
 42 52  2  0  0  0  0
 45 53  2  0  0  0  0
 45 57  1  0  0  0  0
 46 54  2  0  0  0  0
 46 58  1  0  0  0  0
 47 55  2  0  0  0  0
 47 59  1  0  0  0  0
 48 56  2  0  0  0  0
 48 60  1  0  0  0  0
 49 53  1  0  0  0  0
 49 61  1  0  0  0  0
 50 54  1  0  0  0  0
 50 62  1  0  0  0  0
 51 55  1  0  0  0  0
 51 63  1  0  0  0  0
 52 56  1  0  0  0  0
 52 64  1  0  0  0  0
M  END
> <PUBCHEM_COMPOUND_ID_TYPE>
0

> <PUBCHEM_TOTAL_CHARGE>
0

> <PUBCHEM_SUBSTANCE_ID>
310932278

> <PUBCHEM_SUBSTANCE_VERSION>
1

> <PUBCHEM_EXT_DATASOURCE_NAME>
4488

> <PUBCHEM_EXT_DATASOURCE_REGID>
SCHEMBL16109638

> <PUBCHEM_SUBSTANCE_COMMENT>
InChI=1S/C58H64O4P2/c1-37-25-38(2)30-45(29-37)63(46-31-39(3)26-40(4)32-46)51-19-15-17-49(57(55(59)60)21-11-9-12-22-57)53(51)54-50(58(56(61)62)23-13-10-14-24-58)18-16-20-52(54)64(47-33-41(5)27-42(6)34-47)48-35-43(7)28-44(8)36-48/h15-20,25-36H,9-14,21-24H2,1-8H3,(H,59,60)(H,61,62)
InChIKey=OEQIXQCOILWSCW-UHFFFAOYSA-N

> <PUBCHEM_SUBSTANCE_SYNONYM>
SCHEMBL16109638

> <PUBCHEM_XREF_EXT_ID>
SCHEMBL16109638

> <PUBCHEM_EXT_DATASOURCE_URL>
https://www.surechembl.org/

> <PUBCHEM_EXT_SUBSTANCE_URL>
https://www.surechembl.org/chemical/SCHEMBL16109638

> <PUBCHEM_CID_ASSOCIATIONS>
117600842  1

> <PUBCHEM_COORDINATE_TYPE>
1
3

$$$$
