310944957
  -OEChem-07211613022D

 17 18  0     0  0  0  0  0  0999 V2000
    1.4272   -0.7922    0.0000 S   0  0  0  0  0  0  0  0  0  0  0  0
   -2.7104   -0.9100    0.0000 O   0  0  0  0  0  0  0  0  0  0  0  0
    2.8806    0.7529    0.0000 O   0  0  0  0  0  0  0  0  0  0  0  0
   -1.8855    0.6089    0.0000 O   0  0  0  0  0  0  0  0  0  0  0  0
    1.4403    0.5565    0.0000 N   0  0  0  0  0  0  0  0  0  0  0  0
    0.1310   -0.0851    0.0000 N   0  0  0  0  0  0  0  0  0  0  0  0
   -0.6808   -0.0851    0.0000 N   0  0  0  0  0  0  0  0  0  0  0  0
    0.9689   -0.0327    0.0000 C   0  0  0  0  0  0  0  0  0  0  0  0
    2.1867    0.3732    0.0000 C   0  0  0  0  0  0  0  0  0  0  0  0
    2.1997   -0.4517    0.0000 C   0  0  0  0  0  0  0  0  0  0  0  0
   -1.4927   -0.0327    0.0000 C   0  0  0  0  0  0  0  0  0  0  0  0
   -1.8986   -0.7529    0.0000 C   0  0  0  0  0  0  0  0  0  0  0  0
    1.2046    1.3945    0.0000 C   0  0  0  0  0  0  0  0  0  0  0  0
   -1.5712   -1.4731    0.0000 C   0  0  0  0  0  0  0  0  0  0  0  0
   -2.8806   -1.6301    0.0000 C   0  0  0  0  0  0  0  0  0  0  0  0
   -2.1604   -2.0360    0.0000 C   0  0  0  0  0  0  0  0  0  0  0  0
    1.7545    2.0360    0.0000 C   0  0  0  0  0  0  0  0  0  0  0  0
  1  8  1  0  0  0  0
  1 10  1  0  0  0  0
  2 12  1  0  0  0  0
  2 15  1  0  0  0  0
  3  9  2  0  0  0  0
  4 11  2  0  0  0  0
  5  8  1  0  0  0  0
  5  9  1  0  0  0  0
  5 13  1  0  0  0  0
  6  7  1  0  0  0  0
  6  8  2  3  0  0  0
  7 11  1  0  0  0  0
  9 10  1  0  0  0  0
 11 12  1  0  0  0  0
 12 14  2  0  0  0  0
 13 17  1  0  0  0  0
 14 16  1  0  0  0  0
 15 16  2  0  0  0  0
M  END
> <PUBCHEM_COMPOUND_ID_TYPE>
0

> <PUBCHEM_TOTAL_CHARGE>
0

> <PUBCHEM_SUBSTANCE_ID>
310944957

> <PUBCHEM_SUBSTANCE_VERSION>
1

> <PUBCHEM_EXT_DATASOURCE_NAME>
4488

> <PUBCHEM_EXT_DATASOURCE_REGID>
SCHEMBL16123043

> <PUBCHEM_SUBSTANCE_COMMENT>
InChI=1S/C10H11N3O3S/c1-2-13-8(14)6-17-10(13)12-11-9(15)7-4-3-5-16-7/h3-5H,2,6H2,1H3,(H,11,15)/b12-10+
InChIKey=UQDTYAGGUCBKCC-ZRDIBKRKSA-N

> <PUBCHEM_SUBSTANCE_SYNONYM>
SCHEMBL16123043

> <PUBCHEM_XREF_EXT_ID>
SCHEMBL16123043

> <PUBCHEM_EXT_DATASOURCE_URL>
https://www.surechembl.org/

> <PUBCHEM_EXT_SUBSTANCE_URL>
https://www.surechembl.org/chemical/SCHEMBL16123043

> <PUBCHEM_CID_ASSOCIATIONS>
117611109  1

> <PUBCHEM_COORDINATE_TYPE>
1
3

$$$$
