310943876
  -OEChem-07211613022D

 14 15  0     0  0  0  0  0  0999 V2000
   -1.1131   -0.3235    0.0000 N   0  0  0  0  0  0  0  0  0  0  0  0
   -0.4003    0.9047    0.0000 N   0  0  0  0  0  0  0  0  0  0  0  0
   -1.8696    0.0055    0.0000 N   0  0  0  0  0  0  0  0  0  0  0  0
    0.3125    1.3214    0.0000 N   0  0  0  0  0  0  0  0  0  0  0  0
   -2.4180   -0.5976    0.0000 N   0  0  0  0  0  0  0  0  0  0  0  0
   -2.0013   -1.3214    0.0000 N   0  0  0  0  0  0  0  0  0  0  0  0
   -0.4003    0.0932    0.0000 C   0  0  0  0  0  0  0  0  0  0  0  0
    0.3235   -0.3125    0.0000 C   0  0  0  0  0  0  0  0  0  0  0  0
    1.0144    0.0932    0.0000 C   0  0  0  0  0  0  0  0  0  0  0  0
    1.0254    0.9157    0.0000 C   0  0  0  0  0  0  0  0  0  0  0  0
   -1.2008   -1.1460    0.0000 C   0  0  0  0  0  0  0  0  0  0  0  0
    1.7161    1.3214    0.0000 C   0  0  0  0  0  0  0  0  0  0  0  0
    1.6175   -0.4880    0.0000 C   0  0  0  0  0  0  0  0  0  0  0  0
    2.4180    0.8499    0.0000 C   0  0  0  0  0  0  0  0  0  0  0  0
  1  3  1  0  0  0  0
  1  7  1  0  0  0  0
  1 11  1  0  0  0  0
  2  4  1  0  0  0  0
  2  7  2  0  0  0  0
  3  5  2  0  0  0  0
  4 10  2  0  0  0  0
  5  6  1  0  0  0  0
  6 11  2  0  0  0  0
  7  8  1  0  0  0  0
  8  9  2  0  0  0  0
  9 10  1  0  0  0  0
  9 13  1  0  0  0  0
 10 12  1  0  0  0  0
 12 14  2  0  0  0  0
M  END
> <PUBCHEM_COMPOUND_ID_TYPE>
0

> <PUBCHEM_TOTAL_CHARGE>
0

> <PUBCHEM_SUBSTANCE_ID>
310943876

> <PUBCHEM_SUBSTANCE_VERSION>
1

> <PUBCHEM_EXT_DATASOURCE_NAME>
4488

> <PUBCHEM_EXT_DATASOURCE_REGID>
SCHEMBL16121947

> <PUBCHEM_SUBSTANCE_COMMENT>
InChI=1S/C8H8N6/c1-3-7-6(2)4-8(11-10-7)14-5-9-12-13-14/h3-5H,1H2,2H3
InChIKey=AWRMSMGRFQGRBX-UHFFFAOYSA-N

> <PUBCHEM_SUBSTANCE_SYNONYM>
SCHEMBL16121947

> <PUBCHEM_XREF_EXT_ID>
SCHEMBL16121947

> <PUBCHEM_EXT_DATASOURCE_URL>
https://www.surechembl.org/

> <PUBCHEM_EXT_SUBSTANCE_URL>
https://www.surechembl.org/chemical/SCHEMBL16121947

> <PUBCHEM_CID_ASSOCIATIONS>
117610202  1

> <PUBCHEM_COORDINATE_TYPE>
1
3

$$$$
