310946650
  -OEChem-07211613022D

 35 41  0     1  0  0  0  0  0999 V2000
    3.5381    0.1738    0.0000 O   0  0  0  0  0  0  0  0  0  0  0  0
    3.3175    0.9928    0.0000 O   0  0  0  0  0  0  0  0  0  0  0  0
   -1.5333   -1.2213    0.0000 O   0  0  0  0  0  0  0  0  0  0  0  0
   -2.3583   -1.2213    0.0000 O   0  0  0  0  0  0  0  0  0  0  0  0
   -3.9497   -0.3963    0.0000 O   0  0  0  0  0  0  0  0  0  0  0  0
   -4.9174   -2.3056    0.0000 O   0  0  0  0  0  0  0  0  0  0  0  0
    2.7535    0.4287    0.0000 C   0  0  3  0  0  0  0  0  0  0  0  0
    2.7535    1.2537    0.0000 C   0  0  3  0  0  0  0  0  0  0  0  0
    3.5381    1.5087    0.0000 C   0  0  3  0  0  0  0  0  0  0  0  0
    2.0390    0.0162    0.0000 C   0  0  3  0  0  0  0  0  0  0  0  0
    4.0230    0.8412    0.0000 C   0  0  3  0  0  0  0  0  0  0  0  0
    1.3245    0.4287    0.0000 C   0  0  3  0  0  0  0  0  0  0  0  0
    3.9506    2.2232    0.0000 C   0  0  3  0  0  0  0  0  0  0  0  0
    2.0390    1.6662    0.0000 C   0  0  0  0  0  0  0  0  0  0  0  0
    0.6101    0.0162    0.0000 C   0  0  3  0  0  0  0  0  0  0  0  0
    1.3245    1.2537    0.0000 C   0  0  0  0  0  0  0  0  0  0  0  0
    4.0749    1.7308    0.0000 C   0  0  0  0  0  0  0  0  0  0  0  0
    2.0390   -0.8088    0.0000 C   0  0  0  0  0  0  0  0  0  0  0  0
    2.7535    2.0787    0.0000 C   0  0  0  0  0  0  0  0  0  0  0  0
    4.7039    1.0644    0.0000 C   0  0  0  0  0  0  0  0  0  0  0  0
    0.6101   -0.8088    0.0000 C   0  0  0  0  0  0  0  0  0  0  0  0
    4.9174    1.8613    0.0000 C   0  0  0  0  0  0  0  0  0  0  0  0
    1.3245   -1.2213    0.0000 C   0  0  0  0  0  0  0  0  0  0  0  0
   -0.1044    0.4287    0.0000 C   0  0  0  0  0  0  0  0  0  0  0  0
    0.6101    0.8412    0.0000 C   0  0  0  0  0  0  0  0  0  0  0  0
   -0.1044   -1.2213    0.0000 C   0  0  0  0  0  0  0  0  0  0  0  0
   -0.8189   -0.8088    0.0000 C   0  0  3  0  0  0  0  0  0  0  0  0
   -0.8189    0.0162    0.0000 C   0  0  0  0  0  0  0  0  0  0  0  0
   -1.9458   -1.9357    0.0000 C   0  0  3  0  0  0  0  0  0  0  0  0
   -2.7391   -1.7266    0.0000 C   0  0  0  0  0  0  0  0  0  0  0  0
   -3.5372   -1.9357    0.0000 C   0  0  3  0  0  0  0  0  0  0  0  0
   -3.1564   -1.4303    0.0000 C   0  0  3  0  0  0  0  0  0  0  0  0
   -3.9497   -1.2213    0.0000 C   0  0  3  0  0  0  0  0  0  0  0  0
   -4.3341   -1.7222    0.0000 C   0  0  0  0  0  0  0  0  0  0  0  0
   -3.5689   -0.7158    0.0000 C   0  0  0  0  0  0  0  0  0  0  0  0
  7  1  1  6  0  0  0
 11  1  1  1  0  0  0
  2  7  1  0  0  0  0
  2 17  1  0  0  0  0
 27  3  1  1  0  0  0
  3 29  1  0  0  0  0
  4 29  1  0  0  0  0
  4 32  1  0  0  0  0
  5 33  1  0  0  0  0
  6 34  1  0  0  0  0
  7  8  1  0  0  0  0
  7 10  1  0  0  0  0
  9  8  1  1  0  0  0
  8 14  1  0  0  0  0
  8 19  1  1  0  0  0
  9 11  1  0  0  0  0
  9 13  1  0  0  0  0
 10 12  1  0  0  0  0
 10 18  1  6  0  0  0
 11 20  1  0  0  0  0
 12 15  1  0  0  0  0
 12 16  1  1  0  0  0
 13 17  1  0  0  0  0
 13 22  1  6  0  0  0
 14 16  1  0  0  0  0
 15 21  1  0  0  0  0
 15 24  1  0  0  0  0
 15 25  1  1  0  0  0
 18 23  1  0  0  0  0
 20 22  1  0  0  0  0
 21 23  2  0  0  0  0
 21 26  1  0  0  0  0
 24 28  1  0  0  0  0
 26 27  1  0  0  0  0
 27 28  1  0  0  0  0
 29 30  1  0  0  0  0
 30 31  1  0  0  0  0
 31 33  1  0  0  0  0
 31 34  1  0  0  0  0
 32 33  1  0  0  0  0
 32 35  1  0  0  0  0
M  END
> <PUBCHEM_COMPOUND_ID_TYPE>
0

> <PUBCHEM_TOTAL_CHARGE>
0

> <PUBCHEM_SUBSTANCE_ID>
310946650

> <PUBCHEM_SUBSTANCE_VERSION>
1

> <PUBCHEM_EXT_DATASOURCE_NAME>
4488

> <PUBCHEM_EXT_DATASOURCE_REGID>
SCHEMBL16124771

> <PUBCHEM_SUBSTANCE_COMMENT>
InChI=1S/C29H44O6/c1-16-26(31)18(14-30)12-24(33-16)34-20-8-10-27(2)19(13-20)5-6-22-21(27)9-11-28(3)25-17-4-7-23(25)35-29(22,28)32-15-17/h5,16-18,20-26,30-31H,4,6-15H2,1-3H3/t16?,17-,18?,20+,21+,22-,23-,24?,25+,26?,27+,28-,29-/m1/s1
InChIKey=GYNJVSJDRZGOLU-GDSBGPDPSA-N

> <PUBCHEM_SUBSTANCE_SYNONYM>
SCHEMBL16124771

> <PUBCHEM_XREF_EXT_ID>
SCHEMBL16124771

> <PUBCHEM_EXT_DATASOURCE_URL>
https://www.surechembl.org/

> <PUBCHEM_EXT_SUBSTANCE_URL>
https://www.surechembl.org/chemical/SCHEMBL16124771

> <PUBCHEM_CID_ASSOCIATIONS>
117612550  1

> <PUBCHEM_COORDINATE_TYPE>
1
3

> <PUBCHEM_BONDANNOTATIONS>
11  1  5
7  1  6
10  18  6
12  16  5
13  22  6
15  25  5
27  3  5
8  19  5
9  8  5

$$$$
