310941968
  -OEChem-07211613022D

 19 21  0     0  0  0  0  0  0999 V2000
    2.5949    1.6616    0.0000 O   0  0  0  0  0  0  0  0  0  0  0  0
   -0.5539   -0.5415    0.0000 N   0  0  0  0  0  0  0  0  0  0  0  0
   -2.3336    1.1761    0.0000 N   0  0  0  0  0  0  0  0  0  0  0  0
   -0.1307    0.7406    0.0000 C   0  0  0  0  0  0  0  0  0  0  0  0
    0.1058   -0.0187    0.0000 C   0  0  0  0  0  0  0  0  0  0  0  0
   -0.9770    0.7530    0.0000 C   0  0  0  0  0  0  0  0  0  0  0  0
   -1.2508   -0.0311    0.0000 C   0  0  0  0  0  0  0  0  0  0  0  0
    0.4169    1.3628    0.0000 C   0  0  0  0  0  0  0  0  0  0  0  0
    0.9397   -0.1929    0.0000 C   0  0  0  0  0  0  0  0  0  0  0  0
    1.2259    1.2010    0.0000 C   0  0  0  0  0  0  0  0  0  0  0  0
   -1.5122    1.3504    0.0000 C   0  0  0  0  0  0  0  0  0  0  0  0
   -2.0474   -0.2054    0.0000 C   0  0  0  0  0  0  0  0  0  0  0  0
   -0.5664   -1.3504    0.0000 C   0  0  0  0  0  0  0  0  0  0  0  0
    1.4748    0.4045    0.0000 C   0  0  0  0  0  0  0  0  0  0  0  0
   -2.5949    0.4045    0.0000 C   0  0  0  0  0  0  0  0  0  0  0  0
    1.7487    1.8483    0.0000 C   0  0  0  0  0  0  0  0  0  0  0  0
   -1.2632   -1.7611    0.0000 C   0  0  0  0  0  0  0  0  0  0  0  0
    1.4873    2.6074    0.0000 C   0  0  0  0  0  0  0  0  0  0  0  0
   -1.2508   -2.6074    0.0000 C   0  0  0  0  0  0  0  0  0  0  0  0
  1 16  2  0  0  0  0
  2  5  1  0  0  0  0
  2  7  1  0  0  0  0
  2 13  1  0  0  0  0
  3 11  1  0  0  0  0
  3 15  2  0  0  0  0
  4  5  2  0  0  0  0
  4  6  1  0  0  0  0
  4  8  1  0  0  0  0
  5  9  1  0  0  0  0
  6  7  1  0  0  0  0
  6 11  2  0  0  0  0
  7 12  2  0  0  0  0
  8 10  2  0  0  0  0
  9 14  2  0  0  0  0
 10 14  1  0  0  0  0
 10 16  1  0  0  0  0
 12 15  1  0  0  0  0
 13 17  1  0  0  0  0
 16 18  1  0  0  0  0
 17 19  1  0  0  0  0
M  END
> <PUBCHEM_COMPOUND_ID_TYPE>
0

> <PUBCHEM_TOTAL_CHARGE>
0

> <PUBCHEM_SUBSTANCE_ID>
310941968

> <PUBCHEM_SUBSTANCE_VERSION>
1

> <PUBCHEM_EXT_DATASOURCE_NAME>
4488

> <PUBCHEM_EXT_DATASOURCE_REGID>
SCHEMBL16120002

> <PUBCHEM_SUBSTANCE_COMMENT>
InChI=1S/C16H16N2O/c1-3-8-18-15-5-4-12(11(2)19)9-13(15)14-10-17-7-6-16(14)18/h4-7,9-10H,3,8H2,1-2H3
InChIKey=ZVVBJRMUVNNBIJ-UHFFFAOYSA-N

> <PUBCHEM_SUBSTANCE_SYNONYM>
SCHEMBL16120002

> <PUBCHEM_XREF_EXT_ID>
SCHEMBL16120002

> <PUBCHEM_EXT_DATASOURCE_URL>
https://www.surechembl.org/

> <PUBCHEM_EXT_SUBSTANCE_URL>
https://www.surechembl.org/chemical/SCHEMBL16120002

> <PUBCHEM_CID_ASSOCIATIONS>
86271246  1

> <PUBCHEM_COORDINATE_TYPE>
1
3

$$$$
