310942647
  -OEChem-07211613022D

 56 60  0     1  0  0  0  0  0999 V2000
   -7.1888   -1.2027    0.0000 I   0  0  0  0  0  0  0  0  0  0  0  0
    4.3643    2.9156    0.0000 F   0  0  0  0  0  0  0  0  0  0  0  0
    1.0478    2.8245    0.0000 F   0  0  0  0  0  0  0  0  0  0  0  0
    3.3803   -3.5898    0.0000 F   0  0  0  0  0  0  0  0  0  0  0  0
    2.4509    0.0911    0.0000 O   0  0  0  0  0  0  0  0  0  0  0  0
    6.0954   -1.8951    0.0000 O   0  0  0  0  0  0  0  0  0  0  0  0
    0.2825    0.4556    0.0000 O   0  0  0  0  0  0  0  0  0  0  0  0
   -0.4100   -0.8018    0.0000 O   0  0  0  0  0  0  0  0  0  0  0  0
   -7.1159    1.0022    0.0000 O   0  0  0  0  0  0  0  0  0  0  0  0
    4.5829    0.5831    0.0000 N   0  0  0  0  0  0  0  0  0  0  0  0
    3.1981   -1.1116    0.0000 N   0  0  0  0  0  0  0  0  0  0  0  0
    3.2527    0.6925    0.0000 N   0  0  0  0  0  0  0  0  0  0  0  0
    1.7584   -1.1480    0.0000 N   0  0  0  0  0  0  0  0  0  0  0  0
    1.3211   -3.0249    0.0000 N   0  0  0  0  0  0  0  0  0  0  0  0
   -1.1571    0.4373    0.0000 N   0  0  0  0  0  0  0  0  0  0  0  0
   -6.1683   -0.1093    0.0000 N   0  0  0  0  0  0  0  0  0  0  0  0
    3.8905    0.1458    0.0000 C   0  0  0  0  0  0  0  0  0  0  0  0
    3.8905   -0.6925    0.0000 C   0  0  3  0  0  0  0  0  0  0  0  0
    3.5625    1.4578    0.0000 C   0  0  0  0  0  0  0  0  0  0  0  0
    4.6376   -1.0751    0.0000 C   0  0  0  0  0  0  0  0  0  0  0  0
    4.4007    1.3667    0.0000 C   0  0  0  0  0  0  0  0  0  0  0  0
    3.1251    2.1503    0.0000 C   0  0  0  0  0  0  0  0  0  0  0  0
    2.4509   -0.7471    0.0000 C   0  0  0  0  0  0  0  0  0  0  0  0
    5.3483    0.1822    0.0000 C   0  0  0  0  0  0  0  0  0  0  0  0
    3.1981   -1.9681    0.0000 C   0  0  0  0  0  0  0  0  0  0  0  0
    3.5261    2.8792    0.0000 C   0  0  0  0  0  0  0  0  0  0  0  0
    2.3052    2.1503    0.0000 C   0  0  0  0  0  0  0  0  0  0  0  0
    2.5056   -2.3872    0.0000 C   0  0  3  0  0  0  0  0  0  0  0  0
    4.6559   -1.9134    0.0000 C   0  0  0  0  0  0  0  0  0  0  0  0
    5.3301   -0.6560    0.0000 C   0  0  0  0  0  0  0  0  0  0  0  0
    6.0226    0.6014    0.0000 C   0  0  0  0  0  0  0  0  0  0  0  0
    1.8860    2.8245    0.0000 C   0  0  0  0  0  0  0  0  0  0  0  0
    3.1070    3.5898    0.0000 C   0  0  0  0  0  0  0  0  0  0  0  0
    2.6332   -3.2072    0.0000 C   0  0  3  0  0  0  0  0  0  0  0  0
    2.2687    3.5534    0.0000 C   0  0  0  0  0  0  0  0  0  0  0  0
    6.0772   -1.0569    0.0000 C   0  0  0  0  0  0  0  0  0  0  0  0
    5.4030   -2.3142    0.0000 C   0  0  0  0  0  0  0  0  0  0  0  0
    1.7220   -2.3142    0.0000 C   0  0  0  0  0  0  0  0  0  0  0  0
    6.0226    1.4396    0.0000 C   0  0  0  0  0  0  0  0  0  0  0  0
    6.7697    0.2187    0.0000 C   0  0  0  0  0  0  0  0  0  0  0  0
    1.0113   -0.7653    0.0000 C   0  0  3  0  0  0  0  0  0  0  0  0
    1.9407   -3.5898    0.0000 C   0  0  0  0  0  0  0  0  0  0  0  0
    6.7150    1.8405    0.0000 C   0  0  0  0  0  0  0  0  0  0  0  0
    7.4621    0.6378    0.0000 C   0  0  0  0  0  0  0  0  0  0  0  0
    1.0113    0.0547    0.0000 C   0  0  0  0  0  0  0  0  0  0  0  0
    7.4439    1.4578    0.0000 C   0  0  0  0  0  0  0  0  0  0  0  0
    0.3371   -1.2027    0.0000 C   0  0  0  0  0  0  0  0  0  0  0  0
   -0.4100    0.0547    0.0000 C   0  0  0  0  0  0  0  0  0  0  0  0
   -1.8496    0.0000    0.0000 C   0  0  0  0  0  0  0  0  0  0  0  0
   -2.5967    0.3827    0.0000 C   0  0  0  0  0  0  0  0  0  0  0  0
   -3.2892   -0.0365    0.0000 C   0  0  0  0  0  0  0  0  0  0  0  0
   -4.0363    0.3462    0.0000 C   0  0  0  0  0  0  0  0  0  0  0  0
   -4.7105   -0.0729    0.0000 C   0  0  0  0  0  0  0  0  0  0  0  0
   -5.4577    0.3098    0.0000 C   0  0  0  0  0  0  0  0  0  0  0  0
   -6.9337    0.2187    0.0000 C   0  0  0  0  0  0  0  0  0  0  0  0
   -7.4621   -0.4191    0.0000 C   0  0  0  0  0  0  0  0  0  0  0  0
  1 56  1  0  0  0  0
  2 26  1  0  0  0  0
  3 32  1  0  0  0  0
 34  4  1  1  0  0  0
  5 23  2  0  0  0  0
  6 36  1  0  0  0  0
  6 37  1  0  0  0  0
  7 45  1  0  0  0  0
  7 48  1  0  0  0  0
  8 48  2  0  0  0  0
  9 55  2  0  0  0  0
 10 17  1  0  0  0  0
 10 21  1  0  0  0  0
 10 24  1  0  0  0  0
 18 11  1  1  0  0  0
 11 23  1  0  0  0  0
 11 25  1  0  0  0  0
 12 17  2  0  0  0  0
 12 19  1  0  0  0  0
 13 23  1  0  0  0  0
 13 41  1  0  0  0  0
 14 38  1  0  0  0  0
 14 42  1  0  0  0  0
 15 48  1  0  0  0  0
 15 49  1  0  0  0  0
 16 54  1  0  0  0  0
 16 55  1  0  0  0  0
 17 18  1  0  0  0  0
 18 20  1  0  0  0  0
 19 21  2  0  0  0  0
 19 22  1  0  0  0  0
 20 29  1  0  0  0  0
 20 30  1  0  0  0  0
 22 26  1  0  0  0  0
 22 27  2  0  0  0  0
 24 31  1  0  0  0  0
 28 25  1  1  0  0  0
 26 33  2  0  0  0  0
 27 32  1  0  0  0  0
 28 34  1  0  0  0  0
 28 38  1  0  0  0  0
 29 37  1  0  0  0  0
 30 36  1  0  0  0  0
 31 39  2  0  0  0  0
 31 40  1  0  0  0  0
 32 35  2  0  0  0  0
 33 35  1  0  0  0  0
 34 42  1  0  0  0  0
 39 43  1  0  0  0  0
 40 44  2  0  0  0  0
 41 45  1  0  0  0  0
 41 47  1  1  0  0  0
 43 46  2  0  0  0  0
 44 46  1  0  0  0  0
 49 50  1  0  0  0  0
 50 51  1  0  0  0  0
 51 52  1  0  0  0  0
 52 53  1  0  0  0  0
 53 54  1  0  0  0  0
 55 56  1  0  0  0  0
M  END
> <PUBCHEM_COMPOUND_ID_TYPE>
0

> <PUBCHEM_TOTAL_CHARGE>
0

> <PUBCHEM_SUBSTANCE_ID>
310942647

> <PUBCHEM_SUBSTANCE_VERSION>
1

> <PUBCHEM_EXT_DATASOURCE_NAME>
4488

> <PUBCHEM_EXT_DATASOURCE_REGID>
SCHEMBL16120693

> <PUBCHEM_SUBSTANCE_COMMENT>
InChI=1S/C40H53F3IN7O5/c1-27(26-56-40(54)47-16-8-3-2-7-15-46-36(52)20-44)48-39(53)51(24-30-21-45-22-34(30)43)37(29-13-17-55-18-14-29)38-49-35(32-19-31(41)11-12-33(32)42)25-50(38)23-28-9-5-4-6-10-28/h4-6,9-12,19,25,27,29-30,34,37,45H,2-3,7-8,13-18,20-24,26H2,1H3,(H,46,52)(H,47,54)(H,48,53)/t27-,30-,34-,37+/m0/s1
InChIKey=KYIWXTMYCLPZLG-SVYQTLNTSA-N

> <PUBCHEM_SUBSTANCE_SYNONYM>
SCHEMBL16120693

> <PUBCHEM_XREF_EXT_ID>
SCHEMBL16120693

> <PUBCHEM_EXT_DATASOURCE_URL>
https://www.surechembl.org/

> <PUBCHEM_EXT_SUBSTANCE_URL>
https://www.surechembl.org/chemical/SCHEMBL16120693

> <PUBCHEM_CID_ASSOCIATIONS>
117609178  1

> <PUBCHEM_COORDINATE_TYPE>
1
3

> <PUBCHEM_BONDANNOTATIONS>
18  11  5
28  25  5
34  4  5
41  47  5

$$$$
