310945128
  -OEChem-07211613022D

 33 36  0     1  0  0  0  0  0999 V2000
    0.4067    1.4317    0.0000 O   0  0  0  0  0  0  0  0  0  0  0  0
    2.4242    1.4317    0.0000 O   0  0  0  0  0  0  0  0  0  0  0  0
   -5.3093    0.9761    0.0000 O   0  0  0  0  0  0  0  0  0  0  0  0
    0.4067   -0.5966    0.0000 N   0  0  0  0  0  0  0  0  0  0  0  0
    2.4242   -0.5966    0.0000 N   0  0  0  0  0  0  0  0  0  0  0  0
   -1.7626    0.6616    0.0000 N   0  0  0  0  0  0  0  0  0  0  0  0
   -4.5826   -0.2820    0.0000 N   0  0  0  0  0  0  0  0  0  0  0  0
    1.0033    0.0108    0.0000 C   0  0  0  0  0  0  0  0  0  0  0  0
    1.8276    0.0108    0.0000 C   0  0  0  0  0  0  0  0  0  0  0  0
    1.0141    0.8135    0.0000 C   0  0  0  0  0  0  0  0  0  0  0  0
    1.8168    0.8244    0.0000 C   0  0  0  0  0  0  0  0  0  0  0  0
   -0.3200   -0.1627    0.0000 C   0  0  0  0  0  0  0  0  0  0  0  0
    3.1400   -0.1736    0.0000 C   0  0  3  0  0  0  0  0  0  0  0  0
   -1.7626   -0.1627    0.0000 C   0  0  0  0  0  0  0  0  0  0  0  0
   -1.0359   -0.5857    0.0000 C   0  0  0  0  0  0  0  0  0  0  0  0
   -2.4676   -0.5749    0.0000 C   0  0  0  0  0  0  0  0  0  0  0  0
   -0.3092    0.6616    0.0000 C   0  0  0  0  0  0  0  0  0  0  0  0
    3.8667   -0.5966    0.0000 C   0  0  0  0  0  0  0  0  0  0  0  0
   -1.0359    1.0846    0.0000 C   0  0  0  0  0  0  0  0  0  0  0  0
   -3.2051   -0.1952    0.0000 C   0  0  0  0  0  0  0  0  0  0  0  0
   -3.9102   -0.6182    0.0000 C   0  0  0  0  0  0  0  0  0  0  0  0
   -2.4567   -1.4100    0.0000 C   0  0  0  0  0  0  0  0  0  0  0  0
    3.1509    0.6400    0.0000 C   0  0  0  0  0  0  0  0  0  0  0  0
    3.8776   -1.4209    0.0000 C   0  0  0  0  0  0  0  0  0  0  0  0
    4.5934   -0.2061    0.0000 C   0  0  0  0  0  0  0  0  0  0  0  0
   -3.8884   -1.4534    0.0000 C   0  0  0  0  0  0  0  0  0  0  0  0
   -3.1617   -1.8439    0.0000 C   0  0  0  0  0  0  0  0  0  0  0  0
    4.5934   -1.8439    0.0000 C   0  0  0  0  0  0  0  0  0  0  0  0
    5.3093   -0.6182    0.0000 C   0  0  0  0  0  0  0  0  0  0  0  0
    5.3093   -1.4426    0.0000 C   0  0  0  0  0  0  0  0  0  0  0  0
   -4.5718    0.5640    0.0000 C   0  0  0  0  0  0  0  0  0  0  0  0
   -3.8776    0.9870    0.0000 C   0  0  0  0  0  0  0  0  0  0  0  0
   -3.9318    1.8439    0.0000 C   0  0  0  0  0  0  0  0  0  0  0  0
  1 10  2  0  0  0  0
  2 11  2  0  0  0  0
  3 31  2  0  0  0  0
  4  8  1  0  0  0  0
  4 12  1  0  0  0  0
  5  9  1  0  0  0  0
  5 13  1  0  0  0  0
  6 14  1  0  0  0  0
  6 19  2  0  0  0  0
  7 21  1  0  0  0  0
  7 31  1  0  0  0  0
  8  9  2  0  0  0  0
  8 10  1  0  0  0  0
  9 11  1  0  0  0  0
 10 11  1  0  0  0  0
 12 15  1  0  0  0  0
 12 17  2  0  0  0  0
 13 18  1  0  0  0  0
 13 23  1  6  0  0  0
 14 15  2  0  0  0  0
 14 16  1  0  0  0  0
 16 20  2  0  0  0  0
 16 22  1  0  0  0  0
 17 19  1  0  0  0  0
 18 24  2  0  0  0  0
 18 25  1  0  0  0  0
 20 21  1  0  0  0  0
 21 26  2  0  0  0  0
 22 27  2  0  0  0  0
 24 28  1  0  0  0  0
 25 29  2  0  0  0  0
 26 27  1  0  0  0  0
 28 30  2  0  0  0  0
 29 30  1  0  0  0  0
 31 32  1  0  0  0  0
 32 33  2  0  0  0  0
M  END
> <PUBCHEM_COMPOUND_ID_TYPE>
0

> <PUBCHEM_TOTAL_CHARGE>
0

> <PUBCHEM_SUBSTANCE_ID>
310945128

> <PUBCHEM_SUBSTANCE_VERSION>
1

> <PUBCHEM_EXT_DATASOURCE_NAME>
4488

> <PUBCHEM_EXT_DATASOURCE_REGID>
SCHEMBL16123218

> <PUBCHEM_SUBSTANCE_COMMENT>
InChI=1S/C26H22N4O3/c1-3-22(31)29-19-11-7-10-18(14-19)21-15-20(12-13-27-21)30-24-23(25(32)26(24)33)28-16(2)17-8-5-4-6-9-17/h3-16,28H,1H2,2H3,(H,27,30)(H,29,31)/t16-/m1/s1
InChIKey=PTFQFDZSMBYLCX-MRXNPFEDSA-N

> <PUBCHEM_SUBSTANCE_SYNONYM>
SCHEMBL16123218

> <PUBCHEM_XREF_EXT_ID>
SCHEMBL16123218

> <PUBCHEM_EXT_DATASOURCE_URL>
https://www.surechembl.org/

> <PUBCHEM_EXT_SUBSTANCE_URL>
https://www.surechembl.org/chemical/SCHEMBL16123218

> <PUBCHEM_CID_ASSOCIATIONS>
117611223  1

> <PUBCHEM_COORDINATE_TYPE>
1
3

> <PUBCHEM_BONDANNOTATIONS>
13  23  6

$$$$
