310931157
  -OEChem-07211613022D

 33 36  0     0  0  0  0  0  0999 V2000
    2.0807   -2.7495    0.0000 O   0  0  0  0  0  0  0  0  0  0  0  0
    0.4830   -4.9788    0.0000 O   0  0  0  0  0  0  0  0  0  0  0  0
    2.9725   -6.6880    0.0000 O   0  0  0  0  0  0  0  0  0  0  0  0
    1.1518   -6.5023    0.0000 O   0  0  0  0  0  0  0  0  0  0  0  0
    4.6073   -6.7624    0.0000 O   0  0  0  0  0  0  0  0  0  0  0  0
    3.5298   -2.5266    0.0000 N   0  0  0  0  0  0  0  0  0  0  0  0
    3.9385   -3.7899    0.0000 N   0  0  0  0  0  0  0  0  0  0  0  0
    4.9788   -2.7495    0.0000 N   0  0  0  0  0  0  0  0  0  0  0  0
    3.1211   -3.7899    0.0000 C   0  0  0  0  0  0  0  0  0  0  0  0
    2.8610   -3.0096    0.0000 C   0  0  0  0  0  0  0  0  0  0  0  0
    2.6380   -4.4958    0.0000 C   0  0  0  0  0  0  0  0  0  0  0  0
    3.4926   -4.5330    0.0000 C   0  0  0  0  0  0  0  0  0  0  0  0
    4.1986   -3.0096    0.0000 C   0  0  0  0  0  0  0  0  0  0  0  0
    3.5298   -1.7092    0.0000 C   0  0  0  0  0  0  0  0  0  0  0  0
    1.8206   -4.3844    0.0000 C   0  0  0  0  0  0  0  0  0  0  0  0
    3.1954   -5.4247    0.0000 C   0  0  0  0  0  0  0  0  0  0  0  0
    2.9725   -5.2389    0.0000 C   0  0  0  0  0  0  0  0  0  0  0  0
    4.3101   -4.6073    0.0000 C   0  0  0  0  0  0  0  0  0  0  0  0
    1.3005   -5.0532    0.0000 C   0  0  0  0  0  0  0  0  0  0  0  0
    3.4183   -5.9821    0.0000 C   0  0  0  0  0  0  0  0  0  0  0  0
    1.6348   -5.8334    0.0000 C   0  0  0  0  0  0  0  0  0  0  0  0
    4.2358   -6.0192    0.0000 C   0  0  0  0  0  0  0  0  0  0  0  0
    2.4894   -5.9077    0.0000 C   0  0  0  0  0  0  0  0  0  0  0  0
    4.6816   -5.3504    0.0000 C   0  0  0  0  0  0  0  0  0  0  0  0
    2.8238   -1.2633    0.0000 C   0  0  0  0  0  0  0  0  0  0  0  0
    4.2358   -1.2633    0.0000 C   0  0  0  0  0  0  0  0  0  0  0  0
    2.8238   -0.4459    0.0000 C   0  0  0  0  0  0  0  0  0  0  0  0
    4.2358   -0.4459    0.0000 C   0  0  0  0  0  0  0  0  0  0  0  0
    3.5298    0.0000    0.0000 C   0  0  0  0  0  0  0  0  0  0  0  0
    0.0000   -5.6476    0.0000 C   0  0  0  0  0  0  0  0  0  0  0  0
    3.3440   -7.4312    0.0000 C   0  0  0  0  0  0  0  0  0  0  0  0
    1.4862   -7.2454    0.0000 C   0  0  0  0  0  0  0  0  0  0  0  0
    5.4247   -6.8367    0.0000 C   0  0  0  0  0  0  0  0  0  0  0  0
  1 10  2  0  0  0  0
  2 19  1  0  0  0  0
  2 30  1  0  0  0  0
  3 20  1  0  0  0  0
  3 31  1  0  0  0  0
  4 21  1  0  0  0  0
  4 32  1  0  0  0  0
  5 22  1  0  0  0  0
  5 33  1  0  0  0  0
  6 10  1  0  0  0  0
  6 13  1  0  0  0  0
  6 14  1  0  0  0  0
  7  9  1  0  0  0  0
  7 13  1  0  0  0  0
  8 13  2  3  0  0  0
  9 10  1  0  0  0  0
  9 11  1  0  0  0  0
  9 12  1  0  0  0  0
 11 15  1  0  0  0  0
 11 17  2  0  0  0  0
 12 16  1  0  0  0  0
 12 18  2  0  0  0  0
 14 25  1  0  0  0  0
 14 26  1  0  0  0  0
 15 19  2  0  0  0  0
 16 20  2  0  0  0  0
 17 23  1  0  0  0  0
 18 24  1  0  0  0  0
 19 21  1  0  0  0  0
 20 22  1  0  0  0  0
 21 23  2  0  0  0  0
 22 24  2  0  0  0  0
 25 27  1  0  0  0  0
 26 28  1  0  0  0  0
 27 29  1  0  0  0  0
 28 29  1  0  0  0  0
M  END
> <PUBCHEM_COMPOUND_ID_TYPE>
0

> <PUBCHEM_TOTAL_CHARGE>
0

> <PUBCHEM_SUBSTANCE_ID>
310931157

> <PUBCHEM_SUBSTANCE_VERSION>
1

> <PUBCHEM_EXT_DATASOURCE_NAME>
4488

> <PUBCHEM_EXT_DATASOURCE_REGID>
SCHEMBL16108465

> <PUBCHEM_SUBSTANCE_COMMENT>
InChI=1S/C25H31N3O5/c1-30-19-12-10-16(14-21(19)32-3)25(17-11-13-20(31-2)22(15-17)33-4)23(29)28(24(26)27-25)18-8-6-5-7-9-18/h10-15,18H,5-9H2,1-4H3,(H2,26,27)
InChIKey=NKEFLXWPNWSOQS-UHFFFAOYSA-N

> <PUBCHEM_SUBSTANCE_SYNONYM>
SCHEMBL16108465

> <PUBCHEM_XREF_EXT_ID>
SCHEMBL16108465

> <PUBCHEM_EXT_DATASOURCE_URL>
https://www.surechembl.org/

> <PUBCHEM_EXT_SUBSTANCE_URL>
https://www.surechembl.org/chemical/SCHEMBL16108465

> <PUBCHEM_CID_ASSOCIATIONS>
86272176  1

> <PUBCHEM_COORDINATE_TYPE>
1
3

$$$$
