310944829
  -OEChem-07211613022D

 22 24  0     0  0  0  0  0  0999 V2000
   -1.0796   -2.2720    0.0000 Br  0  0  0  0  0  0  0  0  0  0  0  0
   -0.6280    2.2720    0.0000 F   0  0  0  0  0  0  0  0  0  0  0  0
    0.1200   -0.5080    0.0000 F   0  0  0  0  0  0  0  0  0  0  0  0
    2.1380    1.5241    0.0000 O   0  0  0  0  0  0  0  0  0  0  0  0
   -1.3054   -0.1270    0.0000 N   0  0  0  0  0  0  0  0  0  0  0  0
   -0.8114   -0.8044    0.0000 N   0  0  0  0  0  0  0  0  0  0  0  0
   -3.5351   -1.2136    0.0000 N   0  0  0  0  0  0  0  0  0  0  0  0
   -2.0957   -0.3669    0.0000 C   0  0  0  0  0  0  0  0  0  0  0  0
   -2.1097   -1.1854    0.0000 C   0  0  0  0  0  0  0  0  0  0  0  0
   -1.3054   -1.4676    0.0000 C   0  0  0  0  0  0  0  0  0  0  0  0
   -0.3034    0.9031    0.0000 C   0  0  0  0  0  0  0  0  0  0  0  0
   -1.0796    0.6915    0.0000 C   0  0  0  0  0  0  0  0  0  0  0  0
   -0.0494    1.7076    0.0000 C   0  0  0  0  0  0  0  0  0  0  0  0
    0.3175    0.3246    0.0000 C   0  0  0  0  0  0  0  0  0  0  0  0
   -2.8295    0.0423    0.0000 C   0  0  0  0  0  0  0  0  0  0  0  0
   -2.8013   -1.6088    0.0000 C   0  0  0  0  0  0  0  0  0  0  0  0
    1.3336    1.3266    0.0000 C   0  0  0  0  0  0  0  0  0  0  0  0
    0.7550    1.8910    0.0000 C   0  0  0  0  0  0  0  0  0  0  0  0
    1.1078    0.5363    0.0000 C   0  0  0  0  0  0  0  0  0  0  0  0
   -3.5351   -0.3669    0.0000 C   0  0  0  0  0  0  0  0  0  0  0  0
    2.7307    0.9596    0.0000 C   0  0  0  0  0  0  0  0  0  0  0  0
    3.5351    1.1572    0.0000 C   0  0  0  0  0  0  0  0  0  0  0  0
  1 10  1  0  0  0  0
  2 13  1  0  0  0  0
  3 14  1  0  0  0  0
  4 17  1  0  0  0  0
  4 21  1  0  0  0  0
  5  6  1  0  0  0  0
  5  8  1  0  0  0  0
  5 12  1  0  0  0  0
  6 10  2  0  0  0  0
  7 16  2  0  0  0  0
  7 20  1  0  0  0  0
  8  9  2  0  0  0  0
  8 15  1  0  0  0  0
  9 10  1  0  0  0  0
  9 16  1  0  0  0  0
 11 12  1  0  0  0  0
 11 13  2  0  0  0  0
 11 14  1  0  0  0  0
 13 18  1  0  0  0  0
 14 19  2  0  0  0  0
 15 20  2  0  0  0  0
 17 18  2  0  0  0  0
 17 19  1  0  0  0  0
 21 22  1  0  0  0  0
M  END
> <PUBCHEM_COMPOUND_ID_TYPE>
0

> <PUBCHEM_TOTAL_CHARGE>
0

> <PUBCHEM_SUBSTANCE_ID>
310944829

> <PUBCHEM_SUBSTANCE_VERSION>
1

> <PUBCHEM_EXT_DATASOURCE_NAME>
4488

> <PUBCHEM_EXT_DATASOURCE_REGID>
SCHEMBL16122908

> <PUBCHEM_SUBSTANCE_COMMENT>
InChI=1S/C15H12BrF2N3O/c1-2-22-9-5-12(17)11(13(18)6-9)8-21-14-3-4-19-7-10(14)15(16)20-21/h3-7H,2,8H2,1H3
InChIKey=VQOKFHFWMILKAG-UHFFFAOYSA-N

> <PUBCHEM_SUBSTANCE_SYNONYM>
SCHEMBL16122908

> <PUBCHEM_XREF_EXT_ID>
SCHEMBL16122908

> <PUBCHEM_EXT_DATASOURCE_URL>
https://www.surechembl.org/

> <PUBCHEM_EXT_SUBSTANCE_URL>
https://www.surechembl.org/chemical/SCHEMBL16122908

> <PUBCHEM_CID_ASSOCIATIONS>
117611036  1

> <PUBCHEM_COORDINATE_TYPE>
1
3

$$$$
