310940979
  -OEChem-07211613022D

 41 44  0     1  0  0  0  0  0999 V2000
    5.1897    0.9795    0.0000 O   0  0  0  0  0  0  0  0  0  0  0  0
    4.0641   -0.9795    0.0000 O   0  0  0  0  0  0  0  0  0  0  0  0
    1.6958    0.9648    0.0000 O   0  0  0  0  0  0  0  0  0  0  0  0
   -0.4678   -1.0964    0.0000 O   0  0  0  0  0  0  0  0  0  0  0  0
   -2.6168    0.9648    0.0000 O   0  0  0  0  0  0  0  0  0  0  0  0
    3.8448   -2.7629    0.0000 O   0  0  0  0  0  0  0  0  0  0  0  0
   -5.4820   -1.5204    0.0000 O   0  0  0  0  0  0  0  0  0  0  0  0
    2.3975   -0.2778    0.0000 N   0  0  0  0  0  0  0  0  0  0  0  0
    0.2485    0.1462    0.0000 N   0  0  0  0  0  0  0  0  0  0  0  0
   -1.9151   -0.2778    0.0000 N   0  0  0  0  0  0  0  0  0  0  0  0
    4.7512    0.3070    0.0000 C   0  0  3  0  0  0  0  0  0  0  0  0
    4.0495   -0.1170    0.0000 C   0  0  0  0  0  0  0  0  0  0  0  0
    4.3857    0.9941    0.0000 C   0  0  0  0  0  0  0  0  0  0  0  0
    3.3185    0.2924    0.0000 C   0  0  3  0  0  0  0  0  0  0  0  0
    5.4820   -0.1170    0.0000 C   0  0  0  0  0  0  0  0  0  0  0  0
    3.3331    1.3741    0.0000 C   0  0  0  0  0  0  0  0  0  0  0  0
    1.6666    0.1462    0.0000 C   0  0  0  0  0  0  0  0  0  0  0  0
    0.9795   -0.2485    0.0000 C   0  0  3  0  0  0  0  0  0  0  0  0
    2.6021    1.7835    0.0000 C   0  0  0  0  0  0  0  0  0  0  0  0
    0.9502   -1.0964    0.0000 C   0  0  0  0  0  0  0  0  0  0  0  0
   -0.4678   -0.2339    0.0000 C   0  0  0  0  0  0  0  0  0  0  0  0
    1.6958   -1.4911    0.0000 C   0  0  0  0  0  0  0  0  0  0  0  0
    2.5144    2.6021    0.0000 C   0  0  0  0  0  0  0  0  0  0  0  0
    1.8566    1.4473    0.0000 C   0  0  0  0  0  0  0  0  0  0  0  0
   -1.1987    0.1608    0.0000 C   0  0  3  0  0  0  0  0  0  0  0  0
   -2.6168    0.1462    0.0000 C   0  0  0  0  0  0  0  0  0  0  0  0
    1.7250    2.7629    0.0000 C   0  0  0  0  0  0  0  0  0  0  0  0
    1.3157    2.0612    0.0000 C   0  0  0  0  0  0  0  0  0  0  0  0
   -3.3331   -0.2485    0.0000 C   0  0  0  0  0  0  0  0  0  0  0  0
    1.6958   -2.3244    0.0000 C   0  0  0  0  0  0  0  0  0  0  0  0
    2.3975   -1.0964    0.0000 C   0  0  0  0  0  0  0  0  0  0  0  0
    3.1284   -2.3098    0.0000 C   0  0  0  0  0  0  0  0  0  0  0  0
    2.4121   -2.7338    0.0000 C   0  0  0  0  0  0  0  0  0  0  0  0
    3.1284   -1.5058    0.0000 C   0  0  0  0  0  0  0  0  0  0  0  0
   -4.0786    0.1462    0.0000 C   0  0  0  0  0  0  0  0  0  0  0  0
   -3.3331   -1.0818    0.0000 C   0  0  0  0  0  0  0  0  0  0  0  0
   -1.1841    0.9795    0.0000 C   0  0  0  0  0  0  0  0  0  0  0  0
   -4.7658   -1.0818    0.0000 C   0  0  0  0  0  0  0  0  0  0  0  0
   -4.7658   -0.2631    0.0000 C   0  0  0  0  0  0  0  0  0  0  0  0
   -4.0495   -1.4911    0.0000 C   0  0  0  0  0  0  0  0  0  0  0  0
    4.5465   -2.3098    0.0000 C   0  0  0  0  0  0  0  0  0  0  0  0
  1 11  1  0  0  0  0
  1 13  1  0  0  0  0
  2 12  2  0  0  0  0
  3 17  2  0  0  0  0
  4 21  2  0  0  0  0
  5 26  2  0  0  0  0
  6 32  1  0  0  0  0
  6 41  1  0  0  0  0
 38  7  1  6  0  0  0
 14  8  1  1  0  0  0
  8 17  1  0  0  0  0
 18  9  1  6  0  0  0
  9 21  1  0  0  0  0
 10 25  1  0  0  0  0
 10 26  1  0  0  0  0
 11 12  1  1  0  0  0
 11 13  1  0  0  0  0
 11 15  1  6  0  0  0
 12 14  1  0  0  0  0
 14 16  1  0  0  0  0
 16 19  1  0  0  0  0
 17 18  1  0  0  0  0
 18 20  1  0  0  0  0
 19 23  2  0  0  0  0
 19 24  1  0  0  0  0
 20 22  1  0  0  0  0
 21 25  1  0  0  0  0
 22 30  2  0  0  0  0
 22 31  1  0  0  0  0
 23 27  1  0  0  0  0
 24 28  1  0  0  0  0
 25 37  1  6  0  0  0
 29 26  1  1  0  0  0
 27 28  1  0  0  0  0
 29 35  1  0  0  0  0
 29 36  1  0  0  0  0
 30 33  1  0  0  0  0
 31 34  2  0  0  0  0
 32 33  2  0  0  0  0
 32 34  1  0  0  0  0
 35 39  1  0  0  0  0
 36 40  1  0  0  0  0
 38 39  1  0  0  0  0
 38 40  1  0  0  0  0
M  END
> <PUBCHEM_COMPOUND_ID_TYPE>
0

> <PUBCHEM_TOTAL_CHARGE>
0

> <PUBCHEM_SUBSTANCE_ID>
310940979

> <PUBCHEM_SUBSTANCE_VERSION>
1

> <PUBCHEM_EXT_DATASOURCE_NAME>
4488

> <PUBCHEM_EXT_DATASOURCE_REGID>
SCHEMBL16118938

> <PUBCHEM_SUBSTANCE_COMMENT>
InChI=1S/C31H43N3O7/c1-19(32-29(38)22-10-12-23(35)13-11-22)28(37)34-26(17-21-8-14-24(40-3)15-9-21)30(39)33-25(16-20-6-4-5-7-20)27(36)31(2)18-41-31/h6,8-9,14-15,19,22-23,25-26,35H,4-5,7,10-13,16-18H2,1-3H3,(H,32,38)(H,33,39)(H,34,37)/t19-,22-,23-,25+,26+,31-/m1/s1
InChIKey=ONVNUBAXWAHVEF-WNVKXBHVSA-N

> <PUBCHEM_SUBSTANCE_SYNONYM>
SCHEMBL16118938

> <PUBCHEM_XREF_EXT_ID>
SCHEMBL16118938

> <PUBCHEM_EXT_DATASOURCE_URL>
https://www.surechembl.org/

> <PUBCHEM_EXT_SUBSTANCE_URL>
https://www.surechembl.org/chemical/SCHEMBL16118938

> <PUBCHEM_CID_ASSOCIATIONS>
78425867  1

> <PUBCHEM_COORDINATE_TYPE>
1
3

> <PUBCHEM_BONDANNOTATIONS>
11  12  5
11  15  6
25  37  6
29  26  5
38  7  6
14  8  5
18  9  6

$$$$
