310940215
  -OEChem-07211613022D

 34 38  0     0  0  0  0  0  0999 V2000
   -0.7904   -4.5593    0.0000 Cl  0  0  0  0  0  0  0  0  0  0  0  0
    0.3244   -3.3447    0.0000 F   0  0  0  0  0  0  0  0  0  0  0  0
   -2.8704    0.0000    0.0000 O   0  0  0  0  0  0  0  0  0  0  0  0
    1.8720    4.3597    0.0000 O   0  0  0  0  0  0  0  0  0  0  0  0
   -0.0915   -0.1497    0.0000 N   0  0  0  0  0  0  0  0  0  0  0  0
   -0.4243   -0.8986    0.0000 N   0  0  0  0  0  0  0  0  0  0  0  0
   -1.8055   -1.4311    0.0000 N   0  0  0  0  0  0  0  0  0  0  0  0
   -2.1549    1.2480    0.0000 N   0  0  0  0  0  0  0  0  0  0  0  0
    1.3561    2.4294    0.0000 N   0  0  0  0  0  0  0  0  0  0  0  0
    2.8704   -0.2496    0.0000 N   0  0  0  0  0  0  0  0  0  0  0  0
    0.6906    0.0499    0.0000 C   0  0  0  0  0  0  0  0  0  0  0  0
   -0.7238    0.4160    0.0000 C   0  0  0  0  0  0  0  0  0  0  0  0
   -1.4393    0.0000    0.0000 C   0  0  0  0  0  0  0  0  0  0  0  0
   -1.2564   -0.7821    0.0000 C   0  0  0  0  0  0  0  0  0  0  0  0
   -2.1382    0.4327    0.0000 C   0  0  0  0  0  0  0  0  0  0  0  0
    0.1415    0.6157    0.0000 C   0  0  0  0  0  0  0  0  0  0  0  0
    1.5059    0.2663    0.0000 C   0  0  0  0  0  0  0  0  0  0  0  0
   -0.7072    1.2480    0.0000 C   0  0  0  0  0  0  0  0  0  0  0  0
    1.2564   -0.5990    0.0000 C   0  0  0  0  0  0  0  0  0  0  0  0
    1.1398    1.6307    0.0000 C   0  0  0  0  0  0  0  0  0  0  0  0
    0.3411    1.3977    0.0000 C   0  0  0  0  0  0  0  0  0  0  0  0
    1.7223    1.0483    0.0000 C   0  0  0  0  0  0  0  0  0  0  0  0
   -1.4393    1.6473    0.0000 C   0  0  0  0  0  0  0  0  0  0  0  0
   -1.5559   -2.1965    0.0000 C   0  0  0  0  0  0  0  0  0  0  0  0
    2.0717    2.8454    0.0000 C   0  0  0  0  0  0  0  0  0  0  0  0
    0.9734    3.1449    0.0000 C   0  0  0  0  0  0  0  0  0  0  0  0
    2.0717   -0.3994    0.0000 C   0  0  0  0  0  0  0  0  0  0  0  0
    1.6557    3.5610    0.0000 C   0  0  0  0  0  0  0  0  0  0  0  0
   -0.7405   -2.3795    0.0000 C   0  0  0  0  0  0  0  0  0  0  0  0
   -2.0883   -2.8122    0.0000 C   0  0  0  0  0  0  0  0  0  0  0  0
   -0.4909   -3.1616    0.0000 C   0  0  0  0  0  0  0  0  0  0  0  0
   -1.0400   -3.7773    0.0000 C   0  0  0  0  0  0  0  0  0  0  0  0
   -1.8387   -3.6109    0.0000 C   0  0  0  0  0  0  0  0  0  0  0  0
    2.7040    4.5593    0.0000 C   0  0  0  0  0  0  0  0  0  0  0  0
  1 32  1  0  0  0  0
  2 31  1  0  0  0  0
  3 15  2  0  0  0  0
  4 28  1  0  0  0  0
  4 34  1  0  0  0  0
  5  6  1  0  0  0  0
  5 11  1  0  0  0  0
  5 12  1  0  0  0  0
  6 14  2  0  0  0  0
  7 14  1  0  0  0  0
  7 24  1  0  0  0  0
  8 15  1  0  0  0  0
  8 23  1  0  0  0  0
 20  9  1  1  0  0  0
  9 25  1  0  0  0  0
  9 26  1  0  0  0  0
 10 27  3  0  0  0  0
 11 16  1  0  0  0  0
 11 17  1  0  0  0  0
 11 19  1  6  0  0  0
 12 13  2  0  0  0  0
 12 18  1  0  0  0  0
 13 14  1  0  0  0  0
 13 15  1  0  0  0  0
 16 21  1  0  0  0  0
 17 22  1  0  0  0  0
 18 23  2  0  0  0  0
 19 27  1  0  0  0  0
 20 21  1  0  0  0  0
 20 22  1  0  0  0  0
 24 29  1  0  0  0  0
 24 30  2  0  0  0  0
 25 28  1  0  0  0  0
 26 28  1  0  0  0  0
 29 31  2  0  0  0  0
 30 33  1  0  0  0  0
 31 32  1  0  0  0  0
 32 33  2  0  0  0  0
M  END
> <PUBCHEM_COMPOUND_ID_TYPE>
0

> <PUBCHEM_TOTAL_CHARGE>
0

> <PUBCHEM_SUBSTANCE_ID>
310940215

> <PUBCHEM_SUBSTANCE_VERSION>
1

> <PUBCHEM_EXT_DATASOURCE_NAME>
4488

> <PUBCHEM_EXT_DATASOURCE_REGID>
SCHEMBL16118149

> <PUBCHEM_SUBSTANCE_COMMENT>
InChI=1S/C24H26ClFN6O2/c1-34-17-13-31(14-17)16-4-7-24(8-5-16,9-10-27)32-20-6-11-28-23(33)21(20)22(30-32)29-15-2-3-18(25)19(26)12-15/h2-3,6,11-12,16-17H,4-5,7-9,13-14H2,1H3,(H,28,33)(H,29,30)/t16-,24+
InChIKey=SSSAOGAUOMGVOS-ONEIWYMKSA-N

> <PUBCHEM_SUBSTANCE_SYNONYM>
SCHEMBL16118149

> <PUBCHEM_XREF_EXT_ID>
SCHEMBL16118149

> <PUBCHEM_EXT_DATASOURCE_URL>
https://www.surechembl.org/

> <PUBCHEM_EXT_SUBSTANCE_URL>
https://www.surechembl.org/chemical/SCHEMBL16118149

> <PUBCHEM_CID_ASSOCIATIONS>
86275050  1

> <PUBCHEM_COORDINATE_TYPE>
1
3

> <PUBCHEM_BONDANNOTATIONS>
11  19  6
20  9  5

$$$$
