310942279
  -OEChem-07211613022D

 13 13  0     0  0  0  0  0  0999 V2000
   -1.8730    0.2062    0.0000 S   0  0  0  0  0  0  0  0  0  0  0  0
    1.7699    0.2577    0.0000 O   0  0  0  0  0  0  0  0  0  0  0  0
   -1.8730   -1.1341    0.0000 N   0  0  0  0  0  0  0  0  0  0  0  0
   -3.1446   -0.7217    0.0000 N   0  0  0  0  0  0  0  0  0  0  0  0
   -1.0654   -0.0343    0.0000 C   0  0  0  0  0  0  0  0  0  0  0  0
   -2.3541   -0.4811    0.0000 C   0  0  0  0  0  0  0  0  0  0  0  0
   -1.0825   -0.8763    0.0000 C   0  0  0  0  0  0  0  0  0  0  0  0
   -0.3952    0.4468    0.0000 C   0  0  0  0  0  0  0  0  0  0  0  0
    0.3780    0.1203    0.0000 C   0  0  0  0  0  0  0  0  0  0  0  0
    1.0139    0.6014    0.0000 C   0  0  0  0  0  0  0  0  0  0  0  0
    0.9107    1.1341    0.0000 C   0  0  0  0  0  0  0  0  0  0  0  0
    2.4229    0.7045    0.0000 C   0  0  0  0  0  0  0  0  0  0  0  0
    3.1446    0.3608    0.0000 C   0  0  0  0  0  0  0  0  0  0  0  0
  1  5  1  0  0  0  0
  1  6  1  0  0  0  0
  2 10  1  0  0  0  0
  2 12  1  0  0  0  0
  3  6  2  0  0  0  0
  3  7  1  0  0  0  0
  4  6  1  0  0  0  0
  5  7  2  0  0  0  0
  5  8  1  0  0  0  0
  8  9  2  0  0  0  0
  9 10  1  0  0  0  0
 10 11  2  0  0  0  0
 12 13  1  0  0  0  0
M  END
> <PUBCHEM_COMPOUND_ID_TYPE>
0

> <PUBCHEM_TOTAL_CHARGE>
0

> <PUBCHEM_SUBSTANCE_ID>
310942279

> <PUBCHEM_SUBSTANCE_VERSION>
1

> <PUBCHEM_EXT_DATASOURCE_NAME>
4488

> <PUBCHEM_EXT_DATASOURCE_REGID>
SCHEMBL16120314

> <PUBCHEM_SUBSTANCE_COMMENT>
InChI=1S/C9H12N2OS/c1-3-12-7(2)4-5-8-6-11-9(10)13-8/h4-6H,2-3H2,1H3,(H2,10,11)/b5-4+
InChIKey=LTXNNFHROWBWII-SNAWJCMRSA-N

> <PUBCHEM_SUBSTANCE_SYNONYM>
SCHEMBL16120314

> <PUBCHEM_XREF_EXT_ID>
SCHEMBL16120314

> <PUBCHEM_EXT_DATASOURCE_URL>
https://www.surechembl.org/

> <PUBCHEM_EXT_SUBSTANCE_URL>
https://www.surechembl.org/chemical/SCHEMBL16120314

> <PUBCHEM_CID_ASSOCIATIONS>
117608928  1

> <PUBCHEM_COORDINATE_TYPE>
1
3

$$$$
