310941583
  -OEChem-07211613022D

 17 17  0     1  0  0  0  0  0999 V2000
    0.0000    2.7203    0.0000 I   0  0  0  0  0  0  0  0  0  0  0  0
    2.5189    2.7203    0.0000 I   0  0  0  0  0  0  0  0  0  0  0  0
   -2.1158   -2.7203    0.0000 I   0  0  0  0  0  0  0  0  0  0  0  0
    0.4030    1.8640    0.0000 C   0  0  3  0  0  0  0  0  0  0  0  0
    0.1763    1.2090    0.0000 C   0  0  0  0  0  0  0  0  0  0  0  0
   -0.2519    0.5038    0.0000 C   0  0  0  0  0  0  0  0  0  0  0  0
    2.0654    1.9899    0.0000 C   0  0  0  0  0  0  0  0  0  0  0  0
    0.9824    1.0579    0.0000 C   0  0  0  0  0  0  0  0  0  0  0  0
    0.5290   -0.7053    0.0000 C   0  0  0  0  0  0  0  0  0  0  0  0
   -1.5869    0.4534    0.0000 C   0  0  0  0  0  0  0  0  0  0  0  0
    0.2267   -1.2342    0.0000 C   0  0  0  0  0  0  0  0  0  0  0  0
   -2.5189   -0.7808    0.0000 C   0  0  0  0  0  0  0  0  0  0  0  0
   -1.6624   -2.0654    0.0000 C   0  0  0  0  0  0  0  0  0  0  0  0
   -0.9067   -1.7883    0.0000 C   0  0  0  0  0  0  0  0  0  0  0  0
   -2.2418   -1.1587    0.0000 C   0  0  0  0  0  0  0  0  0  0  0  0
   -2.0150   -1.7128    0.0000 C   0  0  0  0  0  0  0  0  0  0  0  0
    1.2090    0.5290    0.0000 C   0  0  0  0  0  0  0  0  0  0  0  0
  4  1  1  1  0  0  0
  2  7  1  0  0  0  0
  3 13  1  0  0  0  0
  4  5  1  0  0  0  0
  4  7  1  0  0  0  0
  4  8  1  1  0  0  0
  5  6  1  0  0  0  0
  6  9  2  0  0  0  0
  6 10  1  0  0  0  0
  8 17  1  0  0  0  0
  9 11  1  0  0  0  0
 10 12  2  0  0  0  0
 11 14  1  0  0  0  0
 12 15  1  0  0  0  0
 13 14  2  0  0  0  0
 13 16  1  0  0  0  0
 15 16  1  0  0  0  0
M  END
> <PUBCHEM_COMPOUND_ID_TYPE>
0

> <PUBCHEM_TOTAL_CHARGE>
0

> <PUBCHEM_SUBSTANCE_ID>
310941583

> <PUBCHEM_SUBSTANCE_VERSION>
1

> <PUBCHEM_EXT_DATASOURCE_NAME>
4488

> <PUBCHEM_EXT_DATASOURCE_REGID>
SCHEMBL16119614

> <PUBCHEM_SUBSTANCE_COMMENT>
InChI=1S/C14H19I3/c1-2-14(17,11-15)10-12-6-3-4-8-13(16)9-5-7-12/h3,6-7,9H,2,4-5,8,10-11H2,1H3/b6-3-,12-7+,13-9+/t14-/m0/s1
InChIKey=RASHEYDNKCOHOH-UBGLVKDJSA-N

> <PUBCHEM_SUBSTANCE_SYNONYM>
SCHEMBL16119614

> <PUBCHEM_XREF_EXT_ID>
SCHEMBL16119614

> <PUBCHEM_EXT_DATASOURCE_URL>
https://www.surechembl.org/

> <PUBCHEM_EXT_SUBSTANCE_URL>
https://www.surechembl.org/chemical/SCHEMBL16119614

> <PUBCHEM_CID_ASSOCIATIONS>
117608385  1

> <PUBCHEM_COORDINATE_TYPE>
1
3

> <PUBCHEM_BONDANNOTATIONS>
4  1  5
4  8  5

$$$$
