310942792
  -OEChem-07211613022D

 76 81  0     1  0  0  0  0  0999 V2000
    5.5431   -0.8148    0.0000 F   0  0  0  0  0  0  0  0  0  0  0  0
    1.5117    4.8247    0.0000 F   0  0  0  0  0  0  0  0  0  0  0  0
    2.3909   -1.8441    0.0000 F   0  0  0  0  0  0  0  0  0  0  0  0
    1.3831    2.0157    0.0000 O   0  0  0  0  0  0  0  0  0  0  0  0
    5.2858    4.3959    0.0000 O   0  0  0  0  0  0  0  0  0  0  0  0
    2.9056    0.4289    0.0000 O   0  0  0  0  0  0  0  0  0  0  0  0
   -0.4396    1.8227    0.0000 O   0  0  0  0  0  0  0  0  0  0  0  0
   -1.1687    3.0664    0.0000 O   0  0  0  0  0  0  0  0  0  0  0  0
   -2.6054   -1.9085    0.0000 O   0  0  0  0  0  0  0  0  0  0  0  0
   -3.3130   -2.3159    0.0000 O   0  0  0  0  0  0  0  0  0  0  0  0
   -5.4787   -4.3959    0.0000 O   0  0  0  0  0  0  0  0  0  0  0  0
    1.7048   -4.3959    0.0000 O   0  0  0  0  0  0  0  0  0  0  0  0
    4.9856    1.4582    0.0000 N   0  0  0  0  0  0  0  0  0  0  0  0
    2.7554    2.5089    0.0000 N   0  0  0  0  0  0  0  0  0  0  0  0
    3.7633    0.9221    0.0000 N   0  0  0  0  0  0  0  0  0  0  0  0
    0.2895    3.0664    0.0000 N   0  0  0  0  0  0  0  0  0  0  0  0
   -1.1472   -1.9085    0.0000 N   0  0  0  0  0  0  0  0  0  0  0  0
   -2.6054   -3.5596    0.0000 N   0  0  0  0  0  0  0  0  0  0  0  0
   -4.7497   -3.1522    0.0000 N   0  0  0  0  0  0  0  0  0  0  0  0
    0.9971   -3.1522    0.0000 N   0  0  0  0  0  0  0  0  0  0  0  0
    2.4338   -3.1522    0.0000 N   0  0  0  0  0  0  0  0  0  0  0  0
    4.1707    1.6726    0.0000 C   0  0  0  0  0  0  0  0  0  0  0  0
    3.8491    2.3802    0.0000 C   0  0  3  0  0  0  0  0  0  0  0  0
    4.3209    0.3002    0.0000 C   0  0  0  0  0  0  0  0  0  0  0  0
    4.3209    3.0878    0.0000 C   0  0  0  0  0  0  0  0  0  0  0  0
    5.0499    0.6433    0.0000 C   0  0  0  0  0  0  0  0  0  0  0  0
    4.1278   -0.4932    0.0000 C   0  0  0  0  0  0  0  0  0  0  0  0
    2.1336    1.6726    0.0000 C   0  0  0  0  0  0  0  0  0  0  0  0
    2.4338    3.2809    0.0000 C   0  0  0  0  0  0  0  0  0  0  0  0
    5.6289    2.0157    0.0000 C   0  0  0  0  0  0  0  0  0  0  0  0
    1.5975    3.3666    0.0000 C   0  0  3  0  0  0  0  0  0  0  0  0
    4.7497   -1.0508    0.0000 C   0  0  0  0  0  0  0  0  0  0  0  0
    3.9992    3.7955    0.0000 C   0  0  0  0  0  0  0  0  0  0  0  0
    5.1571    2.9806    0.0000 C   0  0  0  0  0  0  0  0  0  0  0  0
    3.3559   -0.7719    0.0000 C   0  0  0  0  0  0  0  0  0  0  0  0
    1.2116    4.0314    0.0000 C   0  0  3  0  0  0  0  0  0  0  0  0
    6.4008    1.7583    0.0000 C   0  0  0  0  0  0  0  0  0  0  0  0
    2.1551    0.8148    0.0000 C   0  0  3  0  0  0  0  0  0  0  0  0
    1.0614    2.7448    0.0000 C   0  0  0  0  0  0  0  0  0  0  0  0
    3.1629   -1.5654    0.0000 C   0  0  0  0  0  0  0  0  0  0  0  0
    0.3753    3.8812    0.0000 C   0  0  0  0  0  0  0  0  0  0  0  0
    4.5781   -1.8656    0.0000 C   0  0  0  0  0  0  0  0  0  0  0  0
    4.4710    4.4817    0.0000 C   0  0  0  0  0  0  0  0  0  0  0  0
    5.6289    3.6668    0.0000 C   0  0  0  0  0  0  0  0  0  0  0  0
    3.8062   -2.1014    0.0000 C   0  0  0  0  0  0  0  0  0  0  0  0
   -0.4182    2.6590    0.0000 C   0  0  0  0  0  0  0  0  0  0  0  0
    7.0013    2.3159    0.0000 C   0  0  0  0  0  0  0  0  0  0  0  0
    6.5724    0.9650    0.0000 C   0  0  0  0  0  0  0  0  0  0  0  0
    1.4688    0.3860    0.0000 C   0  0  0  0  0  0  0  0  0  0  0  0
    7.7732    2.0585    0.0000 C   0  0  0  0  0  0  0  0  0  0  0  0
    7.3443    0.7076    0.0000 C   0  0  0  0  0  0  0  0  0  0  0  0
    7.9448    1.2437    0.0000 C   0  0  0  0  0  0  0  0  0  0  0  0
   -1.1258    1.4367    0.0000 C   0  0  0  0  0  0  0  0  0  0  0  0
   -1.1687    0.5790    0.0000 C   0  0  0  0  0  0  0  0  0  0  0  0
   -1.8548    0.1716    0.0000 C   0  0  0  0  0  0  0  0  0  0  0  0
   -0.4396    0.1716    0.0000 C   0  0  0  0  0  0  0  0  0  0  0  0
   -1.1687   -1.0508    0.0000 C   0  0  0  0  0  0  0  0  0  0  0  0
   -1.8548   -0.6648    0.0000 C   0  0  0  0  0  0  0  0  0  0  0  0
   -0.4396   -0.6648    0.0000 C   0  0  0  0  0  0  0  0  0  0  0  0
   -1.8548   -2.2945    0.0000 C   0  0  0  0  0  0  0  0  0  0  0  0
   -1.8763   -3.1522    0.0000 C   0  0  3  0  0  0  0  0  0  0  0  0
   -3.3344   -3.1522    0.0000 C   0  0  0  0  0  0  0  0  0  0  0  0
   -3.9992   -3.5596    0.0000 C   0  0  3  0  0  0  0  0  0  0  0  0
   -1.1258   -3.5596    0.0000 C   0  0  0  0  0  0  0  0  0  0  0  0
   -4.0207   -4.3959    0.0000 C   0  0  0  0  0  0  0  0  0  0  0  0
   -5.4787   -3.5381    0.0000 C   0  0  0  0  0  0  0  0  0  0  0  0
   -0.4396   -3.1522    0.0000 C   0  0  0  0  0  0  0  0  0  0  0  0
   -4.7497   -4.8247    0.0000 C   0  0  0  0  0  0  0  0  0  0  0  0
   -3.2915   -4.8033    0.0000 C   0  0  0  0  0  0  0  0  0  0  0  0
   -6.1864   -3.1522    0.0000 C   0  0  0  0  0  0  0  0  0  0  0  0
    0.3110   -3.5596    0.0000 C   0  0  0  0  0  0  0  0  0  0  0  0
   -6.8082   -3.7955    0.0000 C   0  0  0  0  0  0  0  0  0  0  0  0
   -7.5374   -3.5381    0.0000 C   0  0  0  0  0  0  0  0  0  0  0  0
    1.7262   -3.5381    0.0000 C   0  0  0  0  0  0  0  0  0  0  0  0
   -7.4945   -2.9377    0.0000 C   0  0  0  0  0  0  0  0  0  0  0  0
   -7.9448   -4.1815    0.0000 C   0  0  0  0  0  0  0  0  0  0  0  0
  1 32  1  0  0  0  0
 36  2  1  6  0  0  0
  3 40  1  0  0  0  0
  4 28  2  0  0  0  0
  5 43  1  0  0  0  0
  5 44  1  0  0  0  0
 38  6  1  1  0  0  0
  7 46  1  0  0  0  0
  7 53  1  0  0  0  0
  8 46  2  0  0  0  0
  9 60  2  0  0  0  0
 10 62  2  0  0  0  0
 11 66  2  0  0  0  0
 12 74  2  0  0  0  0
 13 22  1  0  0  0  0
 13 26  1  0  0  0  0
 13 30  1  0  0  0  0
 23 14  1  6  0  0  0
 14 28  1  0  0  0  0
 14 29  1  0  0  0  0
 15 22  2  0  0  0  0
 15 24  1  0  0  0  0
 16 39  1  0  0  0  0
 16 41  1  0  0  0  0
 16 46  1  0  0  0  0
 17 57  1  0  0  0  0
 17 60  1  0  0  0  0
 61 18  1  6  0  0  0
 18 62  1  0  0  0  0
 63 19  1  6  0  0  0
 19 66  1  0  0  0  0
 20 71  1  0  0  0  0
 20 74  1  0  0  0  0
 21 74  1  0  0  0  0
 22 23  1  0  0  0  0
 23 25  1  0  0  0  0
 24 26  2  0  0  0  0
 24 27  1  0  0  0  0
 25 33  1  0  0  0  0
 25 34  1  0  0  0  0
 27 32  1  0  0  0  0
 27 35  2  0  0  0  0
 28 38  1  0  0  0  0
 31 29  1  6  0  0  0
 30 37  1  0  0  0  0
 31 36  1  0  0  0  0
 31 39  1  0  0  0  0
 32 42  2  0  0  0  0
 33 43  1  0  0  0  0
 34 44  1  0  0  0  0
 35 40  1  0  0  0  0
 36 41  1  0  0  0  0
 37 47  2  0  0  0  0
 37 48  1  0  0  0  0
 38 49  1  0  0  0  0
 40 45  2  0  0  0  0
 42 45  1  0  0  0  0
 47 50  1  0  0  0  0
 48 51  2  0  0  0  0
 50 52  2  0  0  0  0
 51 52  1  0  0  0  0
 53 54  1  0  0  0  0
 54 55  2  0  0  0  0
 54 56  1  0  0  0  0
 55 58  1  0  0  0  0
 56 59  2  0  0  0  0
 57 58  2  0  0  0  0
 57 59  1  0  0  0  0
 60 61  1  0  0  0  0
 61 64  1  0  0  0  0
 62 63  1  0  0  0  0
 63 65  1  0  0  0  0
 64 67  1  0  0  0  0
 65 68  1  0  0  0  0
 65 69  1  0  0  0  0
 66 70  1  0  0  0  0
 67 71  1  0  0  0  0
 70 72  1  0  0  0  0
 72 73  1  0  0  0  0
 73 75  1  0  0  0  0
 73 76  1  0  0  0  0
M  END
> <PUBCHEM_COMPOUND_ID_TYPE>
0

> <PUBCHEM_TOTAL_CHARGE>
0

> <PUBCHEM_SUBSTANCE_ID>
310942792

> <PUBCHEM_SUBSTANCE_VERSION>
1

> <PUBCHEM_EXT_DATASOURCE_NAME>
4488

> <PUBCHEM_EXT_DATASOURCE_REGID>
SCHEMBL16120845

> <PUBCHEM_SUBSTANCE_COMMENT>
InChI=1S/C55H72F3N9O9/c1-33(2)13-20-47(69)64-48(34(3)4)52(71)63-45(12-9-23-60-54(59)73)51(70)61-41-17-14-37(15-18-41)32-76-55(74)66-28-39(44(58)30-66)29-67(53(72)35(5)68)49(38-21-24-75-25-22-38)50-62-46(42-26-40(56)16-19-43(42)57)31-65(50)27-36-10-7-6-8-11-36/h6-8,10-11,14-19,26,31,33-35,38-39,44-45,48-49,68H,9,12-13,20-25,27-30,32H2,1-5H3,(H,61,70)(H,63,71)(H,64,69)(H3,59,60,73)/t35-,39-,44-,45-,48-,49+/m0/s1
InChIKey=AOZVEMNKDDAVFG-OWMVKHGSSA-N

> <PUBCHEM_SUBSTANCE_SYNONYM>
SCHEMBL16120845

> <PUBCHEM_XREF_EXT_ID>
SCHEMBL16120845

> <PUBCHEM_EXT_DATASOURCE_URL>
https://www.surechembl.org/

> <PUBCHEM_EXT_SUBSTANCE_URL>
https://www.surechembl.org/chemical/SCHEMBL16120845

> <PUBCHEM_CID_ASSOCIATIONS>
117609298  1

> <PUBCHEM_COORDINATE_TYPE>
1
3

> <PUBCHEM_BONDANNOTATIONS>
23  14  6
61  18  6
63  19  6
36  2  6
31  29  6
38  6  5

$$$$
