310940431
  -OEChem-07211613022D

 12 13  0     0  0  0  0  0  0999 V2000
   -0.5124    0.0525    0.0000 S   0  0  0  0  0  0  0  0  0  0  0  0
    0.2759   -1.0247    0.0000 N   0  0  0  0  0  0  0  0  0  0  0  0
    0.2759    0.3284    0.0000 C   0  0  0  0  0  0  0  0  0  0  0  0
    0.7751   -0.3284    0.0000 C   0  0  0  0  0  0  0  0  0  0  0  0
   -0.5124   -0.7488    0.0000 C   0  0  0  0  0  0  0  0  0  0  0  0
    0.6174    1.0772    0.0000 C   0  0  0  0  0  0  0  0  0  0  0  0
    1.6027   -0.2365    0.0000 C   0  0  0  0  0  0  0  0  0  0  0  0
   -1.2349   -1.1692    0.0000 C   0  0  0  0  0  0  0  0  0  0  0  0
    1.4582    1.1692    0.0000 C   0  0  0  0  0  0  0  0  0  0  0  0
    1.9311    0.5254    0.0000 C   0  0  0  0  0  0  0  0  0  0  0  0
   -1.9180   -0.7225    0.0000 C   0  0  0  0  0  0  0  0  0  0  0  0
   -1.9311    0.0920    0.0000 C   0  0  0  0  0  0  0  0  0  0  0  0
  1  3  1  0  0  0  0
  1  5  1  0  0  0  0
  2  4  1  0  0  0  0
  2  5  2  0  0  0  0
  3  4  2  0  0  0  0
  3  6  1  0  0  0  0
  4  7  1  0  0  0  0
  5  8  1  0  0  0  0
  6  9  2  0  0  0  0
  7 10  2  0  0  0  0
  8 11  2  0  0  0  0
  9 10  1  0  0  0  0
 11 12  1  0  0  0  0
M  END
> <PUBCHEM_COMPOUND_ID_TYPE>
0

> <PUBCHEM_TOTAL_CHARGE>
0

> <PUBCHEM_SUBSTANCE_ID>
310940431

> <PUBCHEM_SUBSTANCE_VERSION>
1

> <PUBCHEM_EXT_DATASOURCE_NAME>
4488

> <PUBCHEM_EXT_DATASOURCE_REGID>
SCHEMBL16118383

> <PUBCHEM_SUBSTANCE_COMMENT>
InChI=1S/C10H9NS/c1-2-5-10-11-8-6-3-4-7-9(8)12-10/h2-7H,1H3/b5-2-
InChIKey=QLIMKQNGGOYBRL-DJWKRKHSSA-N

> <PUBCHEM_SUBSTANCE_SYNONYM>
SCHEMBL16118383

> <PUBCHEM_XREF_EXT_ID>
SCHEMBL16118383

> <PUBCHEM_EXT_DATASOURCE_URL>
https://www.surechembl.org/

> <PUBCHEM_EXT_SUBSTANCE_URL>
https://www.surechembl.org/chemical/SCHEMBL16118383

> <PUBCHEM_CID_ASSOCIATIONS>
12399398  1

> <PUBCHEM_COORDINATE_TYPE>
1
3

$$$$
