310945008
  -OEChem-07211613022D

 16 17  0     0  0  0  0  0  0999 V2000
   -1.8690    0.0175    0.0000 N   0  0  0  0  0  0  0  0  0  0  0  0
   -1.0442    0.0000    0.0000 C   0  0  0  0  0  0  0  0  0  0  0  0
   -0.6230    0.6845    0.0000 C   0  0  0  0  0  0  0  0  0  0  0  0
   -0.6054   -0.7020    0.0000 C   0  0  0  0  0  0  0  0  0  0  0  0
    0.6230    0.0000    0.0000 C   0  0  0  0  0  0  0  0  0  0  0  0
    0.2194    0.6845    0.0000 C   0  0  0  0  0  0  0  0  0  0  0  0
    0.2194   -0.7020    0.0000 C   0  0  0  0  0  0  0  0  0  0  0  0
   -2.2727    0.7020    0.0000 C   0  0  0  0  0  0  0  0  0  0  0  0
   -2.2902   -0.7196    0.0000 C   0  0  0  0  0  0  0  0  0  0  0  0
   -3.1151    0.7020    0.0000 C   0  0  0  0  0  0  0  0  0  0  0  0
   -3.1326   -0.7020    0.0000 C   0  0  0  0  0  0  0  0  0  0  0  0
    1.4654   -0.0175    0.0000 C   0  0  0  0  0  0  0  0  0  0  0  0
   -3.5362    0.0000    0.0000 C   0  0  0  0  0  0  0  0  0  0  0  0
    2.3253    0.0175    0.0000 C   0  0  0  0  0  0  0  0  0  0  0  0
    3.1326    0.0000    0.0000 C   0  0  0  0  0  0  0  0  0  0  0  0
    3.5362    0.7196    0.0000 C   0  0  0  0  0  0  0  0  0  0  0  0
  1  2  1  0  0  0  0
  1  8  1  0  0  0  0
  1  9  1  0  0  0  0
  2  3  2  0  0  0  0
  2  4  1  0  0  0  0
  3  6  1  0  0  0  0
  4  7  2  0  0  0  0
  5  6  2  0  0  0  0
  5  7  1  0  0  0  0
  5 12  1  0  0  0  0
  8 10  1  0  0  0  0
  9 11  1  0  0  0  0
 10 13  1  0  0  0  0
 11 13  1  0  0  0  0
 12 14  3  0  0  0  0
 14 15  1  0  0  0  0
 15 16  1  0  0  0  0
M  END
> <PUBCHEM_COMPOUND_ID_TYPE>
0

> <PUBCHEM_TOTAL_CHARGE>
0

> <PUBCHEM_SUBSTANCE_ID>
310945008

> <PUBCHEM_SUBSTANCE_VERSION>
1

> <PUBCHEM_EXT_DATASOURCE_NAME>
4488

> <PUBCHEM_EXT_DATASOURCE_REGID>
SCHEMBL16123096

> <PUBCHEM_SUBSTANCE_COMMENT>
InChI=1S/C15H19N/c1-2-3-7-14-8-10-15(11-9-14)16-12-5-4-6-13-16/h8-11H,2,4-6,12-13H2,1H3
InChIKey=ZIBWLNJHJHXUAN-UHFFFAOYSA-N

> <PUBCHEM_SUBSTANCE_SYNONYM>
SCHEMBL16123096

> <PUBCHEM_XREF_EXT_ID>
SCHEMBL16123096

> <PUBCHEM_EXT_DATASOURCE_URL>
https://www.surechembl.org/

> <PUBCHEM_EXT_SUBSTANCE_URL>
https://www.surechembl.org/chemical/SCHEMBL16123096

> <PUBCHEM_CID_ASSOCIATIONS>
117611146  1

> <PUBCHEM_COORDINATE_TYPE>
1
3

$$$$
