310933596
  -OEChem-07211613022D

 38 42  0     0  0  0  0  0  0999 V2000
    2.1434   -3.3000    0.0000 Cl  0  0  0  0  0  0  0  0  0  0  0  0
    0.7144    1.6500    0.0000 O   0  0  0  0  0  0  0  0  0  0  0  0
    6.5004    0.6674    0.0000 O   0  0  0  0  0  0  0  0  0  0  0  0
    2.8579   -0.4125    0.0000 O   0  0  0  0  0  0  0  0  0  0  0  0
   -2.8579    0.4125    0.0000 O   0  0  0  0  0  0  0  0  0  0  0  0
   -2.1434    1.6500    0.0000 O   0  0  0  0  0  0  0  0  0  0  0  0
    1.4290    0.4125    0.0000 N   0  0  0  0  0  0  0  0  0  0  0  0
    1.4290   -0.4125    0.0000 N   0  0  0  0  0  0  0  0  0  0  0  0
    3.5724    0.8250    0.0000 N   0  0  0  0  0  0  0  0  0  0  0  0
    6.5004   -0.6674    0.0000 N   0  0  0  0  0  0  0  0  0  0  0  0
    0.0000   -0.4125    0.0000 C   0  0  0  0  0  0  0  0  0  0  0  0
    0.0000    0.4125    0.0000 C   0  0  0  0  0  0  0  0  0  0  0  0
    0.7144   -0.8250    0.0000 C   0  0  0  0  0  0  0  0  0  0  0  0
    0.7144    0.8250    0.0000 C   0  0  0  0  0  0  0  0  0  0  0  0
    0.7144   -1.6500    0.0000 C   0  0  0  0  0  0  0  0  0  0  0  0
   -0.7144    0.8250    0.0000 C   0  0  0  0  0  0  0  0  0  0  0  0
   -0.7144   -0.8250    0.0000 C   0  0  0  0  0  0  0  0  0  0  0  0
   -1.4290    0.4125    0.0000 C   0  0  0  0  0  0  0  0  0  0  0  0
    2.1434    0.8250    0.0000 C   0  0  0  0  0  0  0  0  0  0  0  0
   -1.4290   -0.4125    0.0000 C   0  0  0  0  0  0  0  0  0  0  0  0
    2.8579    0.4125    0.0000 C   0  0  0  0  0  0  0  0  0  0  0  0
    4.2868    0.4125    0.0000 C   0  0  0  0  0  0  0  0  0  0  0  0
    5.7158    0.4125    0.0000 C   0  0  0  0  0  0  0  0  0  0  0  0
    5.7158   -0.4125    0.0000 C   0  0  0  0  0  0  0  0  0  0  0  0
    1.4290   -2.0625    0.0000 C   0  0  0  0  0  0  0  0  0  0  0  0
    5.0013    0.8250    0.0000 C   0  0  0  0  0  0  0  0  0  0  0  0
   -2.1434    0.8250    0.0000 C   0  0  0  0  0  0  0  0  0  0  0  0
    0.0000   -2.0625    0.0000 C   0  0  0  0  0  0  0  0  0  0  0  0
    4.2868   -0.4125    0.0000 C   0  0  0  0  0  0  0  0  0  0  0  0
    5.0013   -0.8250    0.0000 C   0  0  0  0  0  0  0  0  0  0  0  0
    6.9853    0.0000    0.0000 C   0  0  0  0  0  0  0  0  0  0  0  0
    1.4290   -2.8875    0.0000 C   0  0  0  0  0  0  0  0  0  0  0  0
    0.0000   -2.8875    0.0000 C   0  0  0  0  0  0  0  0  0  0  0  0
    0.7144   -3.3000    0.0000 C   0  0  0  0  0  0  0  0  0  0  0  0
    3.5724    1.6500    0.0000 C   0  0  0  0  0  0  0  0  0  0  0  0
    7.8103    0.0000    0.0000 C   0  0  0  0  0  0  0  0  0  0  0  0
   -3.5724    0.8250    0.0000 C   0  0  0  0  0  0  0  0  0  0  0  0
   -4.2868    0.4125    0.0000 C   0  0  0  0  0  0  0  0  0  0  0  0
  1 32  1  0  0  0  0
  2 14  2  0  0  0  0
  3 23  1  0  0  0  0
  3 31  1  0  0  0  0
  4 21  2  0  0  0  0
  5 27  1  0  0  0  0
  5 37  1  0  0  0  0
  6 27  2  0  0  0  0
  7  8  1  0  0  0  0
  7 14  1  0  0  0  0
  7 19  1  0  0  0  0
  8 13  2  0  0  0  0
  9 21  1  0  0  0  0
  9 22  1  0  0  0  0
  9 35  1  0  0  0  0
 10 24  1  0  0  0  0
 10 31  2  0  0  0  0
 11 12  2  0  0  0  0
 11 13  1  0  0  0  0
 11 17  1  0  0  0  0
 12 14  1  0  0  0  0
 12 16  1  0  0  0  0
 13 15  1  0  0  0  0
 15 25  1  0  0  0  0
 15 28  2  0  0  0  0
 16 18  2  0  0  0  0
 17 20  2  0  0  0  0
 18 20  1  0  0  0  0
 18 27  1  0  0  0  0
 19 21  1  0  0  0  0
 22 26  1  0  0  0  0
 22 29  2  0  0  0  0
 23 24  1  0  0  0  0
 23 26  2  0  0  0  0
 24 30  2  0  0  0  0
 25 32  2  0  0  0  0
 28 33  1  0  0  0  0
 29 30  1  0  0  0  0
 31 36  1  0  0  0  0
 32 34  1  0  0  0  0
 33 34  2  0  0  0  0
 37 38  1  0  0  0  0
M  END
> <PUBCHEM_COMPOUND_ID_TYPE>
0

> <PUBCHEM_TOTAL_CHARGE>
0

> <PUBCHEM_SUBSTANCE_ID>
310933596

> <PUBCHEM_SUBSTANCE_VERSION>
1

> <PUBCHEM_EXT_DATASOURCE_NAME>
4488

> <PUBCHEM_EXT_DATASOURCE_REGID>
SCHEMBL16111024

> <PUBCHEM_SUBSTANCE_COMMENT>
InChI=1S/C28H23ClN4O5/c1-4-37-28(36)18-8-10-21-22(13-18)27(35)33(31-26(21)17-6-5-7-19(29)12-17)15-25(34)32(3)20-9-11-23-24(14-20)38-16(2)30-23/h5-14H,4,15H2,1-3H3
InChIKey=XLFRYQGBYSCPQH-UHFFFAOYSA-N

> <PUBCHEM_SUBSTANCE_SYNONYM>
SCHEMBL16111024

> <PUBCHEM_XREF_EXT_ID>
SCHEMBL16111024

> <PUBCHEM_EXT_DATASOURCE_URL>
https://www.surechembl.org/

> <PUBCHEM_EXT_SUBSTANCE_URL>
https://www.surechembl.org/chemical/SCHEMBL16111024

> <PUBCHEM_CID_ASSOCIATIONS>
87056015  1

> <PUBCHEM_COORDINATE_TYPE>
1
3

$$$$
