310942524
  -OEChem-07211613022D

 44 49  0     1  0  0  0  0  0999 V2000
    1.7890    0.6829    0.0000 O   0  0  0  0  0  0  0  0  0  0  0  0
    2.2789   -1.4698    0.0000 O   0  0  0  0  0  0  0  0  0  0  0  0
    1.0615   -1.3807    0.0000 O   0  0  0  0  0  0  0  0  0  0  0  0
    3.1845    0.3414    0.0000 N   0  0  0  0  0  0  0  0  0  0  0  0
    3.8526   -1.0392    0.0000 N   0  0  0  0  0  0  0  0  0  0  0  0
   -0.3341    0.2376    0.0000 N   0  0  3  0  0  0  0  0  0  0  0  0
    5.2482   -0.9353    0.0000 N   0  0  0  0  0  0  0  0  0  0  0  0
    5.8866    0.3712    0.0000 N   0  0  0  0  0  0  0  0  0  0  0  0
   -2.6500   -1.3065    0.0000 N   0  0  0  0  0  0  0  0  0  0  0  0
   -3.3033   -2.4942    0.0000 N   0  0  0  0  0  0  0  0  0  0  0  0
    3.8229   -0.1633    0.0000 C   0  0  0  0  0  0  0  0  0  0  0  0
    4.4910    0.2672    0.0000 C   0  0  0  0  0  0  0  0  0  0  0  0
    2.3977    0.1188    0.0000 C   0  0  3  0  0  0  0  0  0  0  0  0
    4.2535    1.0838    0.0000 C   0  0  0  0  0  0  0  0  0  0  0  0
    2.0562   -0.6532    0.0000 C   0  0  3  0  0  0  0  0  0  0  0  0
    3.4666    1.1283    0.0000 C   0  0  0  0  0  0  0  0  0  0  0  0
    1.0912    0.2672    0.0000 C   0  0  3  0  0  0  0  0  0  0  0  0
    1.2545   -0.5642    0.0000 C   0  0  3  0  0  0  0  0  0  0  0  0
    5.2184   -0.0742    0.0000 C   0  0  0  0  0  0  0  0  0  0  0  0
    4.7434    1.7667    0.0000 C   0  0  0  0  0  0  0  0  0  0  0  0
    0.3637    0.6384    0.0000 C   0  0  0  0  0  0  0  0  0  0  0  0
    4.5949   -1.4104    0.0000 C   0  0  0  0  0  0  0  0  0  0  0  0
   -0.5567   -0.5938    0.0000 C   0  0  0  0  0  0  0  0  0  0  0  0
   -0.8388   -1.7073    0.0000 C   0  0  0  0  0  0  0  0  0  0  0  0
   -1.2248   -1.0244    0.0000 C   0  0  0  0  0  0  0  0  0  0  0  0
   -0.1559   -1.3213    0.0000 C   0  0  0  0  0  0  0  0  0  0  0  0
   -1.0615    0.6532    0.0000 C   0  0  0  0  0  0  0  0  0  0  0  0
   -3.4517   -1.1283    0.0000 C   0  0  0  0  0  0  0  0  0  0  0  0
   -3.8526   -1.8707    0.0000 C   0  0  0  0  0  0  0  0  0  0  0  0
    5.5600    1.6479    0.0000 C   0  0  0  0  0  0  0  0  0  0  0  0
    4.4761    2.5387    0.0000 C   0  0  0  0  0  0  0  0  0  0  0  0
   -2.5758   -2.1230    0.0000 C   0  0  0  0  0  0  0  0  0  0  0  0
   -4.6840   -0.4008    0.0000 C   0  0  0  0  0  0  0  0  0  0  0  0
   -1.0467   -2.5387    0.0000 C   0  0  0  0  0  0  0  0  0  0  0  0
   -3.8675   -0.4157    0.0000 C   0  0  0  0  0  0  0  0  0  0  0  0
   -1.8780   -2.5387    0.0000 C   0  0  0  0  0  0  0  0  0  0  0  0
   -5.0848    0.3266    0.0000 C   0  0  0  0  0  0  0  0  0  0  0  0
   -4.6543   -1.8707    0.0000 C   0  0  0  0  0  0  0  0  0  0  0  0
   -5.0552   -1.1580    0.0000 C   0  0  0  0  0  0  0  0  0  0  0  0
   -1.0764    1.4847    0.0000 C   0  0  0  0  0  0  0  0  0  0  0  0
   -1.7296    0.2227    0.0000 C   0  0  0  0  0  0  0  0  0  0  0  0
   -5.8866    0.3266    0.0000 C   0  0  0  0  0  0  0  0  0  0  0  0
   -5.5154    1.0392    0.0000 C   0  0  0  0  0  0  0  0  0  0  0  0
   -4.6840    1.0541    0.0000 C   0  0  0  0  0  0  0  0  0  0  0  0
 13  1  1  1  0  0  0
  1 17  1  0  0  0  0
 15  2  1  6  0  0  0
 18  3  1  6  0  0  0
  4 11  1  0  0  0  0
  4 13  1  0  0  0  0
  4 16  1  0  0  0  0
  5 11  1  0  0  0  0
  5 22  2  0  0  0  0
  6 21  1  0  0  0  0
 23  6  1  1  0  0  0
  6 27  1  0  0  0  0
  7 19  2  0  0  0  0
  7 22  1  0  0  0  0
  8 19  1  0  0  0  0
  9 28  1  0  0  0  0
  9 32  2  0  0  0  0
 10 29  1  0  0  0  0
 10 32  1  0  0  0  0
 11 12  2  0  0  0  0
 12 14  1  0  0  0  0
 12 19  1  0  0  0  0
 13 15  1  0  0  0  0
 14 16  2  0  0  0  0
 14 20  1  0  0  0  0
 15 18  1  0  0  0  0
 17 18  1  0  0  0  0
 17 21  1  1  0  0  0
 20 30  2  0  0  0  0
 20 31  1  0  0  0  0
 23 25  1  0  0  0  0
 23 26  1  0  0  0  0
 24 25  1  0  0  0  0
 24 26  1  0  0  0  0
 24 34  1  6  0  0  0
 27 40  1  0  0  0  0
 27 41  1  0  0  0  0
 28 29  2  0  0  0  0
 28 35  1  0  0  0  0
 29 38  1  0  0  0  0
 32 36  1  0  0  0  0
 33 35  2  0  0  0  0
 33 37  1  0  0  0  0
 33 39  1  0  0  0  0
 34 36  1  0  0  0  0
 37 42  1  0  0  0  0
 37 43  1  0  0  0  0
 37 44  1  0  0  0  0
 38 39  2  0  0  0  0
M  END
> <PUBCHEM_COMPOUND_ID_TYPE>
0

> <PUBCHEM_TOTAL_CHARGE>
0

> <PUBCHEM_SUBSTANCE_ID>
310942524

> <PUBCHEM_SUBSTANCE_VERSION>
1

> <PUBCHEM_EXT_DATASOURCE_NAME>
4488

> <PUBCHEM_EXT_DATASOURCE_REGID>
SCHEMBL16120560

> <PUBCHEM_SUBSTANCE_COMMENT>
InChI=1S/C34H47N7O3/c1-18(2)23-15-41(32-28(23)31(35)36-17-37-32)33-30(43)29(42)26(44-33)16-40(19(3)4)22-12-20(13-22)8-11-27-38-24-10-9-21(34(5,6)7)14-25(24)39-27/h9-10,14-15,17,19-20,22,26,29-30,33,42-43H,1,8,11-13,16H2,2-7H3,(H,38,39)(H2,35,36,37)/t20-,22-,26-,29-,30-,33-/m1/s1
InChIKey=IGGNFAYLWQSHKS-BUYZVADRSA-N

> <PUBCHEM_SUBSTANCE_SYNONYM>
SCHEMBL16120560

> <PUBCHEM_XREF_EXT_ID>
SCHEMBL16120560

> <PUBCHEM_EXT_DATASOURCE_URL>
https://www.surechembl.org/

> <PUBCHEM_EXT_SUBSTANCE_URL>
https://www.surechembl.org/chemical/SCHEMBL16120560

> <PUBCHEM_CID_ASSOCIATIONS>
86272810  1

> <PUBCHEM_COORDINATE_TYPE>
1
3

> <PUBCHEM_BONDANNOTATIONS>
13  1  5
17  21  5
15  2  6
24  34  6
18  3  6
23  6  5

$$$$
