310938429
  -OEChem-07211613022D

 30 33  0     0  0  0  0  0  0999 V2000
    7.8510   -3.2734    0.0000 O   0  0  0  0  0  0  0  0  0  0  0  0
    4.3114   -5.3227    0.0000 O   0  0  0  0  0  0  0  0  0  0  0  0
    5.7485   -5.3227    0.0000 O   0  0  0  0  0  0  0  0  0  0  0  0
    0.0000   -0.3992    0.0000 O   0  0  0  0  0  0  0  0  0  0  0  0
    6.5470   -2.6081    0.0000 N   0  0  0  0  0  0  0  0  0  0  0  0
    1.4371   -1.2243    0.0000 N   0  0  0  0  0  0  0  0  0  0  0  0
    5.7485   -3.6727    0.0000 C   0  0  0  0  0  0  0  0  0  0  0  0
    6.5470   -3.9388    0.0000 C   0  0  0  0  0  0  0  0  0  0  0  0
    5.7485   -2.8476    0.0000 C   0  0  0  0  0  0  0  0  0  0  0  0
    7.0260   -3.2734    0.0000 C   0  0  0  0  0  0  0  0  0  0  0  0
    5.0300   -4.0985    0.0000 C   0  0  0  0  0  0  0  0  0  0  0  0
    5.0300   -2.4218    0.0000 C   0  0  0  0  0  0  0  0  0  0  0  0
    4.3380   -2.8476    0.0000 C   0  0  0  0  0  0  0  0  0  0  0  0
    4.3380   -3.6727    0.0000 C   0  0  0  0  0  0  0  0  0  0  0  0
    6.7864   -1.8097    0.0000 C   0  0  0  0  0  0  0  0  0  0  0  0
    5.0300   -4.9235    0.0000 C   0  0  0  0  0  0  0  0  0  0  0  0
    6.7864   -4.7106    0.0000 C   0  0  0  0  0  0  0  0  0  0  0  0
    7.3720   -4.0453    0.0000 C   0  0  0  0  0  0  0  0  0  0  0  0
    3.6195   -2.4484    0.0000 C   0  0  0  0  0  0  0  0  0  0  0  0
    2.8743   -2.8743    0.0000 C   0  0  0  0  0  0  0  0  0  0  0  0
    3.5928   -1.6234    0.0000 C   0  0  0  0  0  0  0  0  0  0  0  0
    6.2542   -1.1976    0.0000 C   0  0  0  0  0  0  0  0  0  0  0  0
    7.6115   -1.6234    0.0000 C   0  0  0  0  0  0  0  0  0  0  0  0
    2.1557   -1.6501    0.0000 C   0  0  0  0  0  0  0  0  0  0  0  0
    2.1557   -2.4751    0.0000 C   0  0  0  0  0  0  0  0  0  0  0  0
    2.8743   -1.2243    0.0000 C   0  0  0  0  0  0  0  0  0  0  0  0
    0.7186   -1.6501    0.0000 C   0  0  0  0  0  0  0  0  0  0  0  0
    1.4371   -0.4258    0.0000 C   0  0  0  0  0  0  0  0  0  0  0  0
    0.0000   -1.2508    0.0000 C   0  0  0  0  0  0  0  0  0  0  0  0
    0.7186    0.0000    0.0000 C   0  0  0  0  0  0  0  0  0  0  0  0
  1 10  2  0  0  0  0
  2 16  2  0  0  0  0
  3 16  1  0  0  0  0
  4 29  1  0  0  0  0
  4 30  1  0  0  0  0
  5  9  1  0  0  0  0
  5 10  1  0  0  0  0
  5 15  1  0  0  0  0
  6 24  1  0  0  0  0
  6 27  1  0  0  0  0
  6 28  1  0  0  0  0
  7  8  1  0  0  0  0
  7  9  2  0  0  0  0
  7 11  1  0  0  0  0
  8 10  1  0  0  0  0
  8 17  1  0  0  0  0
  8 18  1  0  0  0  0
  9 12  1  0  0  0  0
 11 14  2  0  0  0  0
 11 16  1  0  0  0  0
 12 13  2  0  0  0  0
 13 14  1  0  0  0  0
 13 19  1  0  0  0  0
 15 22  1  0  0  0  0
 15 23  1  0  0  0  0
 19 20  2  0  0  0  0
 19 21  1  0  0  0  0
 20 25  1  0  0  0  0
 21 26  2  0  0  0  0
 24 25  2  0  0  0  0
 24 26  1  0  0  0  0
 27 29  1  0  0  0  0
 28 30  1  0  0  0  0
M  END
> <PUBCHEM_COMPOUND_ID_TYPE>
0

> <PUBCHEM_TOTAL_CHARGE>
0

> <PUBCHEM_SUBSTANCE_ID>
310938429

> <PUBCHEM_SUBSTANCE_VERSION>
1

> <PUBCHEM_EXT_DATASOURCE_NAME>
4488

> <PUBCHEM_EXT_DATASOURCE_REGID>
SCHEMBL16116323

> <PUBCHEM_SUBSTANCE_COMMENT>
InChI=1S/C24H28N2O4/c1-15(2)26-20-14-17(13-19(22(27)28)21(20)24(3,4)23(26)29)16-5-7-18(8-6-16)25-9-11-30-12-10-25/h5-8,13-15H,9-12H2,1-4H3,(H,27,28)
InChIKey=RABSPMVUOKGQIK-UHFFFAOYSA-N

> <PUBCHEM_SUBSTANCE_SYNONYM>
SCHEMBL16116323

> <PUBCHEM_XREF_EXT_ID>
SCHEMBL16116323

> <PUBCHEM_EXT_DATASOURCE_URL>
https://www.surechembl.org/

> <PUBCHEM_EXT_SUBSTANCE_URL>
https://www.surechembl.org/chemical/SCHEMBL16116323

> <PUBCHEM_CID_ASSOCIATIONS>
117605895  1

> <PUBCHEM_COORDINATE_TYPE>
1
3

$$$$
