310949482
  -OEChem-07211613022D

 16 17  0     0  0  0  0  0  0999 V2000
   -0.2816   -1.1267    0.0000 O   0  0  0  0  0  0  0  0  0  0  0  0
    0.6103   -0.0117    0.0000 N   0  0  0  0  0  0  0  0  0  0  0  0
    2.8284    0.7042    0.0000 N   0  0  0  0  0  0  0  0  0  0  0  0
   -2.9927    0.1409    0.0000 N   0  0  0  0  0  0  0  0  0  0  0  0
    1.7018    0.4342    0.0000 C   0  0  0  0  0  0  0  0  0  0  0  0
    1.3614   -0.3169    0.0000 C   0  0  0  0  0  0  0  0  0  0  0  0
    0.9389    0.7629    0.0000 C   0  0  0  0  0  0  0  0  0  0  0  0
    2.1126    1.1267    0.0000 C   0  0  0  0  0  0  0  0  0  0  0  0
    2.4177    0.0235    0.0000 C   0  0  0  0  0  0  0  0  0  0  0  0
   -0.1526   -0.2582    0.0000 C   0  0  0  0  0  0  0  0  0  0  0  0
   -0.8098    0.2347    0.0000 C   0  0  0  0  0  0  0  0  0  0  0  0
    3.6382    0.9507    0.0000 C   0  0  0  0  0  0  0  0  0  0  0  0
   -1.5844   -0.0587    0.0000 C   0  0  0  0  0  0  0  0  0  0  0  0
   -2.2181    0.4460    0.0000 C   0  0  0  0  0  0  0  0  0  0  0  0
   -3.1101   -0.6807    0.0000 C   0  0  0  0  0  0  0  0  0  0  0  0
   -3.6382    0.6807    0.0000 C   0  0  0  0  0  0  0  0  0  0  0  0
  1 10  2  0  0  0  0
  2  6  1  0  0  0  0
  2  7  1  0  0  0  0
  2 10  1  0  0  0  0
  3  8  1  0  0  0  0
  3  9  1  0  0  0  0
  3 12  1  0  0  0  0
  4 14  1  0  0  0  0
  4 15  1  0  0  0  0
  4 16  1  0  0  0  0
  5  6  1  0  0  0  0
  5  7  1  0  0  0  0
  5  8  1  0  0  0  0
  5  9  1  0  0  0  0
 10 11  1  0  0  0  0
 11 13  2  0  0  0  0
 13 14  1  0  0  0  0
M  END
> <PUBCHEM_COMPOUND_ID_TYPE>
0

> <PUBCHEM_TOTAL_CHARGE>
0

> <PUBCHEM_SUBSTANCE_ID>
310949482

> <PUBCHEM_SUBSTANCE_VERSION>
1

> <PUBCHEM_EXT_DATASOURCE_NAME>
4488

> <PUBCHEM_EXT_DATASOURCE_REGID>
SCHEMBL16127676

> <PUBCHEM_SUBSTANCE_COMMENT>
InChI=1S/C12H21N3O/c1-13(2)6-4-5-11(16)15-9-12(10-15)7-14(3)8-12/h4-5H,6-10H2,1-3H3/b5-4+
InChIKey=FXICNNYNPDOOFY-SNAWJCMRSA-N

> <PUBCHEM_SUBSTANCE_SYNONYM>
SCHEMBL16127676

> <PUBCHEM_XREF_EXT_ID>
SCHEMBL16127676

> <PUBCHEM_EXT_DATASOURCE_URL>
https://www.surechembl.org/

> <PUBCHEM_EXT_SUBSTANCE_URL>
https://www.surechembl.org/chemical/SCHEMBL16127676

> <PUBCHEM_CID_ASSOCIATIONS>
117614924  1

> <PUBCHEM_COORDINATE_TYPE>
1
3

$$$$
