310946833
  -OEChem-07211613022D

 26 26  0     0  0  0  0  0  0999 V2000
   -1.5109    1.3843    0.0000 N   0  0  0  0  0  0  0  0  0  0  0  0
   -1.0010   -0.5996    0.0000 N   0  0  0  0  0  0  0  0  0  0  0  0
    1.7890    1.3843    0.0000 N   0  0  0  0  0  0  0  0  0  0  0  0
   -2.3359   -0.5996    0.0000 N   0  0  0  0  0  0  0  0  0  0  0  0
   -2.0809   -1.3843    0.0000 N   0  0  0  0  0  0  0  0  0  0  0  0
   -3.0033   -0.1148    0.0000 N   0  0  0  0  0  0  0  0  0  0  0  0
   -0.6859    1.3843    0.0000 C   0  0  0  0  0  0  0  0  0  0  0  0
   -1.9233    0.6699    0.0000 C   0  0  0  0  0  0  0  0  0  0  0  0
   -0.2734    2.0988    0.0000 C   0  0  0  0  0  0  0  0  0  0  0  0
   -1.6685   -0.1148    0.0000 C   0  0  0  0  0  0  0  0  0  0  0  0
    0.9641    1.3843    0.0000 C   0  0  0  0  0  0  0  0  0  0  0  0
    0.5516    2.0988    0.0000 C   0  0  0  0  0  0  0  0  0  0  0  0
   -0.2734    0.6699    0.0000 C   0  0  0  0  0  0  0  0  0  0  0  0
   -1.2559   -1.3843    0.0000 C   0  0  0  0  0  0  0  0  0  0  0  0
   -2.7483    0.6699    0.0000 C   0  0  0  0  0  0  0  0  0  0  0  0
    0.5516    0.6699    0.0000 C   0  0  0  0  0  0  0  0  0  0  0  0
   -0.8435   -2.0988    0.0000 C   0  0  0  0  0  0  0  0  0  0  0  0
   -0.6859    2.8132    0.0000 C   0  0  0  0  0  0  0  0  0  0  0  0
    2.2016    2.0988    0.0000 C   0  0  0  0  0  0  0  0  0  0  0  0
    2.2016    0.6699    0.0000 C   0  0  0  0  0  0  0  0  0  0  0  0
   -3.1609    1.3843    0.0000 C   0  0  0  0  0  0  0  0  0  0  0  0
   -0.0127   -1.6192    0.0000 C   0  0  0  0  0  0  0  0  0  0  0  0
   -0.3638   -2.9295    0.0000 C   0  0  0  0  0  0  0  0  0  0  0  0
   -1.6742   -2.5785    0.0000 C   0  0  0  0  0  0  0  0  0  0  0  0
    1.7220    2.9295    0.0000 C   0  0  0  0  0  0  0  0  0  0  0  0
    3.1609    0.6699    0.0000 C   0  0  0  0  0  0  0  0  0  0  0  0
  1  7  1  0  0  0  0
  1  8  2  0  0  0  0
  2 10  2  0  0  0  0
  2 14  1  0  0  0  0
  3 11  1  0  0  0  0
  3 19  1  0  0  0  0
  3 20  1  0  0  0  0
  4 10  1  0  0  0  0
  5 14  2  3  0  0  0
  6 15  2  3  0  0  0
  7  9  2  0  0  0  0
  7 13  1  0  0  0  0
  8 10  1  0  0  0  0
  8 15  1  0  0  0  0
  9 12  1  0  0  0  0
  9 18  1  0  0  0  0
 11 12  2  0  0  0  0
 11 16  1  0  0  0  0
 13 16  2  0  0  0  0
 14 17  1  0  0  0  0
 15 21  1  0  0  0  0
 17 22  1  0  0  0  0
 17 23  1  0  0  0  0
 17 24  1  0  0  0  0
 19 25  1  0  0  0  0
 20 26  1  0  0  0  0
M  END
> <PUBCHEM_COMPOUND_ID_TYPE>
0

> <PUBCHEM_TOTAL_CHARGE>
0

> <PUBCHEM_SUBSTANCE_ID>
310946833

> <PUBCHEM_SUBSTANCE_VERSION>
1

> <PUBCHEM_EXT_DATASOURCE_NAME>
4488

> <PUBCHEM_EXT_DATASOURCE_REGID>
SCHEMBL16124957

> <PUBCHEM_SUBSTANCE_COMMENT>
InChI=1S/C20H32N6/c1-8-26(9-2)15-10-11-16(13(3)12-15)24-17(14(4)21)18(22)25-19(23)20(5,6)7/h10-12,21H,8-9H2,1-7H3,(H3,22,23,25)/b21-14?,24-17-
InChIKey=MFYYBHGUTICCCI-QDFMDSQWSA-N

> <PUBCHEM_SUBSTANCE_SYNONYM>
SCHEMBL16124957

> <PUBCHEM_XREF_EXT_ID>
SCHEMBL16124957

> <PUBCHEM_EXT_DATASOURCE_URL>
https://www.surechembl.org/

> <PUBCHEM_EXT_SUBSTANCE_URL>
https://www.surechembl.org/chemical/SCHEMBL16124957

> <PUBCHEM_CID_ASSOCIATIONS>
117612692  1

> <PUBCHEM_COORDINATE_TYPE>
1
3

$$$$
