310932897
  -OEChem-07211613022D

 19 19  0     0  0  0  0  0  0999 V2000
    2.1493   -4.5674    0.0000 S   0  0  0  0  0  0  0  0  0  0  0  0
    1.3165   -4.5405    0.0000 O   0  0  0  0  0  0  0  0  0  0  0  0
    2.9822   -4.5674    0.0000 O   0  0  0  0  0  0  0  0  0  0  0  0
    3.5464   -1.2359    0.0000 O   0  0  0  0  0  0  0  0  0  0  0  0
    2.8479    0.0000    0.0000 O   0  0  0  0  0  0  0  0  0  0  0  0
    0.6985   -1.2359    0.0000 N   0  0  0  0  0  0  0  0  0  0  0  0
    2.1493   -2.0687    0.0000 C   0  0  0  0  0  0  0  0  0  0  0  0
    2.1493   -3.7076    0.0000 C   0  0  0  0  0  0  0  0  0  0  0  0
    2.1493   -1.2359    0.0000 C   0  0  0  0  0  0  0  0  0  0  0  0
    2.8479   -2.4986    0.0000 C   0  0  0  0  0  0  0  0  0  0  0  0
    1.4240   -2.4986    0.0000 C   0  0  0  0  0  0  0  0  0  0  0  0
    2.8479   -3.3047    0.0000 C   0  0  0  0  0  0  0  0  0  0  0  0
    1.4240   -3.3047    0.0000 C   0  0  0  0  0  0  0  0  0  0  0  0
    2.8479   -0.8329    0.0000 C   0  0  0  0  0  0  0  0  0  0  0  0
    1.4240   -0.8060    0.0000 C   0  0  0  0  0  0  0  0  0  0  0  0
    2.1225   -5.3734    0.0000 C   0  0  0  0  0  0  0  0  0  0  0  0
    0.0000   -0.8060    0.0000 C   0  0  0  0  0  0  0  0  0  0  0  0
    0.6985   -2.0687    0.0000 C   0  0  0  0  0  0  0  0  0  0  0  0
    4.2718   -0.8329    0.0000 C   0  0  0  0  0  0  0  0  0  0  0  0
  1  2  2  0  0  0  0
  1  3  2  0  0  0  0
  1  8  1  0  0  0  0
  1 16  1  0  0  0  0
  4 14  1  0  0  0  0
  4 19  1  0  0  0  0
  5 14  2  0  0  0  0
  6 15  1  0  0  0  0
  6 17  1  0  0  0  0
  6 18  1  0  0  0  0
  7  9  1  0  0  0  0
  7 10  2  0  0  0  0
  7 11  1  0  0  0  0
  8 12  2  0  0  0  0
  8 13  1  0  0  0  0
  9 14  1  0  0  0  0
  9 15  2  0  0  0  0
 10 12  1  0  0  0  0
 11 13  2  0  0  0  0
M  END
> <PUBCHEM_COMPOUND_ID_TYPE>
0

> <PUBCHEM_TOTAL_CHARGE>
0

> <PUBCHEM_SUBSTANCE_ID>
310932897

> <PUBCHEM_SUBSTANCE_VERSION>
1

> <PUBCHEM_EXT_DATASOURCE_NAME>
4488

> <PUBCHEM_EXT_DATASOURCE_REGID>
SCHEMBL16110290

> <PUBCHEM_SUBSTANCE_COMMENT>
InChI=1S/C13H17NO4S/c1-14(2)9-12(13(15)18-3)10-5-7-11(8-6-10)19(4,16)17/h5-9H,1-4H3/b12-9+
InChIKey=DXPSMKUWUGKKEM-FMIVXFBMSA-N

> <PUBCHEM_SUBSTANCE_SYNONYM>
SCHEMBL16110290

> <PUBCHEM_XREF_EXT_ID>
SCHEMBL16110290

> <PUBCHEM_EXT_DATASOURCE_URL>
https://www.surechembl.org/

> <PUBCHEM_EXT_SUBSTANCE_URL>
https://www.surechembl.org/chemical/SCHEMBL16110290

> <PUBCHEM_CID_ASSOCIATIONS>
117601379  1

> <PUBCHEM_COORDINATE_TYPE>
1
3

$$$$
