310943343
  -OEChem-07211613022D

 33 36  0     0  0  0  0  0  0999 V2000
   -1.5613    2.0694    0.0000 Cl  0  0  0  0  0  0  0  0  0  0  0  0
    4.0505    0.3020    0.0000 F   0  0  0  0  0  0  0  0  0  0  0  0
    4.8901    0.3020    0.0000 F   0  0  0  0  0  0  0  0  0  0  0  0
   -3.4466   -0.8469    0.0000 O   0  0  0  0  0  0  0  0  0  0  0  0
   -4.8901    1.6571    0.0000 O   0  0  0  0  0  0  0  0  0  0  0  0
    0.8690   -0.8322    0.0000 O   0  0  0  0  0  0  0  0  0  0  0  0
   -2.0179   -0.8322    0.0000 N   0  0  0  0  0  0  0  0  0  0  0  0
   -3.4613    0.8322    0.0000 N   0  0  0  0  0  0  0  0  0  0  0  0
    0.1473    2.0694    0.0000 N   0  0  0  0  0  0  0  0  0  0  0  0
    1.5760    0.4197    0.0000 N   0  0  0  0  0  0  0  0  0  0  0  0
   -1.2814    0.4197    0.0000 C   0  0  0  0  0  0  0  0  0  0  0  0
   -0.5744    0.8322    0.0000 C   0  0  0  0  0  0  0  0  0  0  0  0
   -2.7249    0.4197    0.0000 C   0  0  0  0  0  0  0  0  0  0  0  0
   -2.7249   -0.4050    0.0000 C   0  0  0  0  0  0  0  0  0  0  0  0
   -2.0032    0.8322    0.0000 C   0  0  0  0  0  0  0  0  0  0  0  0
   -1.2962   -0.4197    0.0000 C   0  0  0  0  0  0  0  0  0  0  0  0
   -0.5597    1.6571    0.0000 C   0  0  0  0  0  0  0  0  0  0  0  0
    0.1620    0.4197    0.0000 C   0  0  0  0  0  0  0  0  0  0  0  0
    0.8543    0.8322    0.0000 C   0  0  0  0  0  0  0  0  0  0  0  0
    0.8690    1.6571    0.0000 C   0  0  0  0  0  0  0  0  0  0  0  0
    1.5908   -0.4050    0.0000 C   0  0  0  0  0  0  0  0  0  0  0  0
   -3.4613    1.6571    0.0000 C   0  0  0  0  0  0  0  0  0  0  0  0
   -4.1683    0.4197    0.0000 C   0  0  0  0  0  0  0  0  0  0  0  0
    2.3125   -0.8322    0.0000 C   0  0  0  0  0  0  0  0  0  0  0  0
   -2.0032   -1.6718    0.0000 C   0  0  0  0  0  0  0  0  0  0  0  0
    3.0195   -0.4345    0.0000 C   0  0  0  0  0  0  0  0  0  0  0  0
    3.7559   -0.8322    0.0000 C   0  0  0  0  0  0  0  0  0  0  0  0
   -4.1978    2.0694    0.0000 C   0  0  0  0  0  0  0  0  0  0  0  0
   -4.8901    0.8175    0.0000 C   0  0  0  0  0  0  0  0  0  0  0  0
    2.3125   -1.6571    0.0000 C   0  0  0  0  0  0  0  0  0  0  0  0
    3.7412   -1.6571    0.0000 C   0  0  0  0  0  0  0  0  0  0  0  0
    3.0342   -2.0694    0.0000 C   0  0  0  0  0  0  0  0  0  0  0  0
    4.4482   -0.3903    0.0000 C   0  0  0  0  0  0  0  0  0  0  0  0
  1 17  1  0  0  0  0
  2 33  1  0  0  0  0
  3 33  1  0  0  0  0
  4 14  2  0  0  0  0
  5 28  1  0  0  0  0
  5 29  1  0  0  0  0
  6 21  2  0  0  0  0
  7 14  1  0  0  0  0
  7 16  1  0  0  0  0
  7 25  1  0  0  0  0
  8 13  1  0  0  0  0
  8 22  1  0  0  0  0
  8 23  1  0  0  0  0
  9 17  1  0  0  0  0
  9 20  2  0  0  0  0
 10 19  1  0  0  0  0
 10 21  1  0  0  0  0
 11 12  1  0  0  0  0
 11 15  1  0  0  0  0
 11 16  2  0  0  0  0
 12 17  2  0  0  0  0
 12 18  1  0  0  0  0
 13 14  1  0  0  0  0
 13 15  2  0  0  0  0
 18 19  2  0  0  0  0
 19 20  1  0  0  0  0
 21 24  1  0  0  0  0
 22 28  1  0  0  0  0
 23 29  1  0  0  0  0
 24 26  1  0  0  0  0
 24 30  2  0  0  0  0
 26 27  2  0  0  0  0
 27 31  1  0  0  0  0
 27 33  1  0  0  0  0
 30 32  1  0  0  0  0
 31 32  2  0  0  0  0
M  END
> <PUBCHEM_COMPOUND_ID_TYPE>
0

> <PUBCHEM_TOTAL_CHARGE>
0

> <PUBCHEM_SUBSTANCE_ID>
310943343

> <PUBCHEM_SUBSTANCE_VERSION>
1

> <PUBCHEM_EXT_DATASOURCE_NAME>
4488

> <PUBCHEM_EXT_DATASOURCE_REGID>
SCHEMBL16121406

> <PUBCHEM_SUBSTANCE_COMMENT>
InChI=1S/C23H21ClF2N4O3/c1-29-13-16(10-19(23(29)32)30-5-7-33-8-6-30)18-11-17(12-27-20(18)24)28-22(31)15-4-2-3-14(9-15)21(25)26/h2-4,9-13,21H,5-8H2,1H3,(H,28,31)
InChIKey=DZVUMQLQVYBRHR-UHFFFAOYSA-N

> <PUBCHEM_SUBSTANCE_SYNONYM>
SCHEMBL16121406

> <PUBCHEM_XREF_EXT_ID>
SCHEMBL16121406

> <PUBCHEM_EXT_DATASOURCE_URL>
https://www.surechembl.org/

> <PUBCHEM_EXT_SUBSTANCE_URL>
https://www.surechembl.org/chemical/SCHEMBL16121406

> <PUBCHEM_CID_ASSOCIATIONS>
117609767  1

> <PUBCHEM_COORDINATE_TYPE>
1
3

$$$$
