310945290
  -OEChem-07211613022D

 30 34  0     1  0  0  0  0  0999 V2000
    2.2239    2.2239    0.0000 S   0  0  0  0  0  0  0  0  0  0  0  0
   -1.1911    0.5853    0.0000 O   0  0  0  0  0  0  0  0  0  0  0  0
    3.8351    2.1551    0.0000 O   0  0  0  0  0  0  0  0  0  0  0  0
   -2.8712   -1.4390    0.0000 O   0  0  0  0  0  0  0  0  0  0  0  0
   -1.6043    1.8660    0.0000 N   0  0  0  0  0  0  0  0  0  0  0  0
    2.1689    0.0895    0.0000 N   0  0  0  0  0  0  0  0  0  0  0  0
    3.9178    0.7230    0.0000 N   0  0  0  0  0  0  0  0  0  0  0  0
   -3.9315   -0.4751    0.0000 N   0  0  0  0  0  0  0  0  0  0  0  0
    1.2738    1.2875    0.0000 C   0  0  0  0  0  0  0  0  0  0  0  0
    2.0312    0.9020    0.0000 C   0  0  0  0  0  0  0  0  0  0  0  0
    1.4115    2.1000    0.0000 C   0  0  0  0  0  0  0  0  0  0  0  0
    2.6095    1.5217    0.0000 C   0  0  0  0  0  0  0  0  0  0  0  0
   -0.1721    1.6456    0.0000 C   0  0  0  0  0  0  0  0  0  0  0  0
   -0.9296    1.3839    0.0000 C   0  0  0  0  0  0  0  0  0  0  0  0
    0.4751    1.0810    0.0000 C   0  0  0  0  0  0  0  0  0  0  0  0
    3.4633    1.4115    0.0000 C   0  0  0  0  0  0  0  0  0  0  0  0
   -2.0312    0.5853    0.0000 C   0  0  0  0  0  0  0  0  0  0  0  0
    0.8332    2.6509    0.0000 C   0  0  0  0  0  0  0  0  0  0  0  0
   -2.2790    1.3702    0.0000 C   0  0  0  0  0  0  0  0  0  0  0  0
    0.0344    2.4443    0.0000 C   0  0  0  0  0  0  0  0  0  0  0  0
   -2.5682   -0.0206    0.0000 C   0  0  0  0  0  0  0  0  0  0  0  0
   -3.0915    1.5354    0.0000 C   0  0  0  0  0  0  0  0  0  0  0  0
    2.8850   -0.3374    0.0000 C   0  0  0  0  0  0  0  0  0  0  0  0
    3.6561   -0.0619    0.0000 C   0  0  3  0  0  0  0  0  0  0  0  0
   -3.3807    0.1583    0.0000 C   0  0  0  0  0  0  0  0  0  0  0  0
   -3.6286    0.9296    0.0000 C   0  0  0  0  0  0  0  0  0  0  0  0
    4.2345   -0.6266    0.0000 C   0  0  0  0  0  0  0  0  0  0  0  0
   -3.6974   -1.2462    0.0000 C   0  0  0  0  0  0  0  0  0  0  0  0
   -4.2345   -1.8797    0.0000 C   0  0  0  0  0  0  0  0  0  0  0  0
   -3.8902   -2.6509    0.0000 C   0  0  0  0  0  0  0  0  0  0  0  0
  1 11  1  0  0  0  0
  1 12  1  0  0  0  0
  2 14  1  0  0  0  0
  2 17  1  0  0  0  0
  3 16  2  0  0  0  0
  4 28  2  0  0  0  0
  5 14  2  0  0  0  0
  5 19  1  0  0  0  0
  6 10  1  0  0  0  0
  6 23  1  0  0  0  0
  7 16  1  0  0  0  0
  7 24  1  0  0  0  0
  8 25  1  0  0  0  0
  8 28  1  0  0  0  0
  9 10  1  0  0  0  0
  9 11  2  0  0  0  0
  9 15  1  0  0  0  0
 10 12  2  0  0  0  0
 11 18  1  0  0  0  0
 12 16  1  0  0  0  0
 13 14  1  0  0  0  0
 13 15  2  0  0  0  0
 13 20  1  0  0  0  0
 17 19  2  0  0  0  0
 17 21  1  0  0  0  0
 18 20  2  0  0  0  0
 19 22  1  0  0  0  0
 21 25  2  0  0  0  0
 22 26  2  0  0  0  0
 23 24  1  0  0  0  0
 24 27  1  6  0  0  0
 25 26  1  0  0  0  0
 28 29  1  0  0  0  0
 29 30  2  0  0  0  0
M  END
> <PUBCHEM_COMPOUND_ID_TYPE>
0

> <PUBCHEM_TOTAL_CHARGE>
0

> <PUBCHEM_SUBSTANCE_ID>
310945290

> <PUBCHEM_SUBSTANCE_VERSION>
1

> <PUBCHEM_EXT_DATASOURCE_NAME>
4488

> <PUBCHEM_EXT_DATASOURCE_REGID>
SCHEMBL16123388

> <PUBCHEM_SUBSTANCE_COMMENT>
InChI=1S/C22H18N4O3S/c1-3-18(27)25-13-5-6-15-16(9-13)29-22(26-15)12-4-7-17-14(8-12)19-20(30-17)21(28)24-11(2)10-23-19/h3-9,11,23H,1,10H2,2H3,(H,24,28)(H,25,27)/t11-/m1/s1
InChIKey=VUIQUMJKZFJREC-LLVKDONJSA-N

> <PUBCHEM_SUBSTANCE_SYNONYM>
SCHEMBL16123388

> <PUBCHEM_XREF_EXT_ID>
SCHEMBL16123388

> <PUBCHEM_EXT_DATASOURCE_URL>
https://www.surechembl.org/

> <PUBCHEM_EXT_SUBSTANCE_URL>
https://www.surechembl.org/chemical/SCHEMBL16123388

> <PUBCHEM_CID_ASSOCIATIONS>
117611350  1

> <PUBCHEM_COORDINATE_TYPE>
1
3

> <PUBCHEM_BONDANNOTATIONS>
24  27  6

$$$$
