310943640
  -OEChem-07211613022D

 38 42  0     0  0  0  0  0  0999 V2000
   -2.8695   -2.8695    0.0000 O   0  0  0  0  0  0  0  0  0  0  0  0
   -5.7224    2.4548    0.0000 O   0  0  0  0  0  0  0  0  0  0  0  0
    1.4265    2.4548    0.0000 O   0  0  0  0  0  0  0  0  0  0  0  0
   -2.8529   -0.8791    0.0000 N   0  0  0  0  0  0  0  0  0  0  0  0
   -3.5661    0.3649    0.0000 N   0  0  0  0  0  0  0  0  0  0  0  0
   -4.2794    1.6089    0.0000 N   0  0  0  0  0  0  0  0  0  0  0  0
   -0.7132    2.8529    0.0000 N   0  0  0  0  0  0  0  0  0  0  0  0
    0.7132    1.1942    0.0000 N   0  0  0  0  0  0  0  0  0  0  0  0
    3.5827    0.3649    0.0000 N   0  0  0  0  0  0  0  0  0  0  0  0
    5.7224    0.8128    0.0000 N   0  0  0  0  0  0  0  0  0  0  0  0
   -2.1397    1.2108    0.0000 C   0  0  0  0  0  0  0  0  0  0  0  0
   -2.8529   -0.0332    0.0000 C   0  0  0  0  0  0  0  0  0  0  0  0
   -1.4430    1.6255    0.0000 C   0  0  0  0  0  0  0  0  0  0  0  0
   -3.5661    1.2108    0.0000 C   0  0  0  0  0  0  0  0  0  0  0  0
   -2.1563    0.3649    0.0000 C   0  0  0  0  0  0  0  0  0  0  0  0
   -2.8529    1.6255    0.0000 C   0  0  0  0  0  0  0  0  0  0  0  0
   -1.4265    2.4548    0.0000 C   0  0  0  0  0  0  0  0  0  0  0  0
   -0.7132    1.2108    0.0000 C   0  0  0  0  0  0  0  0  0  0  0  0
   -3.4334   -1.4596    0.0000 C   0  0  0  0  0  0  0  0  0  0  0  0
   -2.2724   -1.4430    0.0000 C   0  0  0  0  0  0  0  0  0  0  0  0
    0.0166    1.6255    0.0000 C   0  0  0  0  0  0  0  0  0  0  0  0
   -2.8529   -2.0236    0.0000 C   0  0  0  0  0  0  0  0  0  0  0  0
    0.0166    2.4382    0.0000 C   0  0  0  0  0  0  0  0  0  0  0  0
    2.1563    1.2108    0.0000 C   0  0  0  0  0  0  0  0  0  0  0  0
    1.4265    1.6089    0.0000 C   0  0  0  0  0  0  0  0  0  0  0  0
    3.5827    1.2108    0.0000 C   0  0  0  0  0  0  0  0  0  0  0  0
    4.3125    1.6255    0.0000 C   0  0  0  0  0  0  0  0  0  0  0  0
   -4.2960    2.4548    0.0000 C   0  0  0  0  0  0  0  0  0  0  0  0
   -4.9926    1.2108    0.0000 C   0  0  0  0  0  0  0  0  0  0  0  0
    2.8529    1.6255    0.0000 C   0  0  0  0  0  0  0  0  0  0  0  0
   -2.1563    2.8529    0.0000 C   0  0  0  0  0  0  0  0  0  0  0  0
    2.1563    0.3815    0.0000 C   0  0  0  0  0  0  0  0  0  0  0  0
    2.8695   -0.0332    0.0000 C   0  0  0  0  0  0  0  0  0  0  0  0
   -5.0092    2.8695    0.0000 C   0  0  0  0  0  0  0  0  0  0  0  0
   -5.7058    1.6089    0.0000 C   0  0  0  0  0  0  0  0  0  0  0  0
    5.0092    1.2108    0.0000 C   0  0  0  0  0  0  0  0  0  0  0  0
    4.2794    2.4548    0.0000 C   0  0  0  0  0  0  0  0  0  0  0  0
    4.9926    2.0401    0.0000 C   0  0  0  0  0  0  0  0  0  0  0  0
  1 22  1  0  0  0  0
  2 34  1  0  0  0  0
  2 35  1  0  0  0  0
  3 25  2  0  0  0  0
  4 12  1  0  0  0  0
  4 19  1  0  0  0  0
  4 20  1  0  0  0  0
  5 12  1  0  0  0  0
  5 14  2  0  0  0  0
  6 14  1  0  0  0  0
  6 28  1  0  0  0  0
  6 29  1  0  0  0  0
  7 17  2  0  0  0  0
  7 23  1  0  0  0  0
  8 21  1  0  0  0  0
  8 25  1  0  0  0  0
  9 26  1  0  0  0  0
  9 33  2  0  0  0  0
 10 36  3  0  0  0  0
 11 13  1  0  0  0  0
 11 15  1  0  0  0  0
 11 16  2  0  0  0  0
 12 15  2  0  0  0  0
 13 17  1  0  0  0  0
 13 18  2  0  0  0  0
 14 16  1  0  0  0  0
 17 31  1  0  0  0  0
 18 21  1  0  0  0  0
 19 22  1  0  0  0  0
 20 22  1  0  0  0  0
 21 23  2  0  0  0  0
 24 25  1  0  0  0  0
 24 30  1  0  0  0  0
 24 32  2  0  0  0  0
 26 27  1  0  0  0  0
 26 30  2  0  0  0  0
 27 36  1  0  0  0  0
 27 37  1  0  0  0  0
 27 38  1  0  0  0  0
 28 34  1  0  0  0  0
 29 35  1  0  0  0  0
 32 33  1  0  0  0  0
M  END
> <PUBCHEM_COMPOUND_ID_TYPE>
0

> <PUBCHEM_TOTAL_CHARGE>
0

> <PUBCHEM_SUBSTANCE_ID>
310943640

> <PUBCHEM_SUBSTANCE_VERSION>
1

> <PUBCHEM_EXT_DATASOURCE_NAME>
4488

> <PUBCHEM_EXT_DATASOURCE_REGID>
SCHEMBL16121708

> <PUBCHEM_SUBSTANCE_COMMENT>
InChI=1S/C28H31N7O3/c1-18-23(13-21(14-31-18)32-27(37)19-4-5-30-24(10-19)28(2,3)17-29)20-11-25(34-6-8-38-9-7-34)33-26(12-20)35-15-22(36)16-35/h4-5,10-14,22,36H,6-9,15-16H2,1-3H3,(H,32,37)
InChIKey=KOBZPEFNTFUTAU-UHFFFAOYSA-N

> <PUBCHEM_SUBSTANCE_SYNONYM>
SCHEMBL16121708

> <PUBCHEM_XREF_EXT_ID>
SCHEMBL16121708

> <PUBCHEM_EXT_DATASOURCE_URL>
https://www.surechembl.org/

> <PUBCHEM_EXT_SUBSTANCE_URL>
https://www.surechembl.org/chemical/SCHEMBL16121708

> <PUBCHEM_CID_ASSOCIATIONS>
117610031  1

> <PUBCHEM_COORDINATE_TYPE>
1
3

$$$$
