310943148
  -OEChem-07211613022D

 39 42  0     0  0  0  0  0  0999 V2000
    3.8739    1.3376    0.0000 F   0  0  0  0  0  0  0  0  0  0  0  0
    4.6925    1.3376    0.0000 F   0  0  0  0  0  0  0  0  0  0  0  0
    4.9995    0.2120    0.0000 F   0  0  0  0  0  0  0  0  0  0  0  0
    0.7163    0.2120    0.0000 O   0  0  0  0  0  0  0  0  0  0  0  0
   -4.9995    2.6825    0.0000 O   0  0  0  0  0  0  0  0  0  0  0  0
   -3.5815    1.8639    0.0000 N   0  0  0  0  0  0  0  0  0  0  0  0
   -2.1489    0.2120    0.0000 N   0  0  0  0  0  0  0  0  0  0  0  0
   -3.5815    0.2120    0.0000 N   0  0  0  0  0  0  0  0  0  0  0  0
    1.4180    1.4545    0.0000 N   0  0  0  0  0  0  0  0  0  0  0  0
   -0.0146    3.1064    0.0000 N   0  0  0  0  0  0  0  0  0  0  0  0
    3.5669   -2.2585    0.0000 N   0  0  0  0  0  0  0  0  0  0  0  0
   -1.4326    1.4545    0.0000 C   0  0  0  0  0  0  0  0  0  0  0  0
   -2.8652    1.4545    0.0000 C   0  0  0  0  0  0  0  0  0  0  0  0
   -0.7309    1.8639    0.0000 C   0  0  0  0  0  0  0  0  0  0  0  0
   -2.8798    0.6359    0.0000 C   0  0  0  0  0  0  0  0  0  0  0  0
   -2.1635    1.8639    0.0000 C   0  0  0  0  0  0  0  0  0  0  0  0
   -0.7163    2.6971    0.0000 C   0  0  0  0  0  0  0  0  0  0  0  0
    0.7017    1.8785    0.0000 C   0  0  0  0  0  0  0  0  0  0  0  0
    2.1343    0.2120    0.0000 C   0  0  0  0  0  0  0  0  0  0  0  0
    0.0146    1.4545    0.0000 C   0  0  0  0  0  0  0  0  0  0  0  0
    3.5669    0.2266    0.0000 C   0  0  0  0  0  0  0  0  0  0  0  0
   -1.4472    0.6213    0.0000 C   0  0  0  0  0  0  0  0  0  0  0  0
    1.4180    0.6359    0.0000 C   0  0  0  0  0  0  0  0  0  0  0  0
    4.2832    0.6506    0.0000 C   0  0  0  0  0  0  0  0  0  0  0  0
    2.8506    0.6067    0.0000 C   0  0  0  0  0  0  0  0  0  0  0  0
    2.8506   -1.0160    0.0000 C   0  0  0  0  0  0  0  0  0  0  0  0
    2.1343   -0.6067    0.0000 C   0  0  0  0  0  0  0  0  0  0  0  0
    3.5523   -0.6067    0.0000 C   0  0  0  0  0  0  0  0  0  0  0  0
    0.7163    2.6825    0.0000 C   0  0  0  0  0  0  0  0  0  0  0  0
   -3.5669    2.6825    0.0000 C   0  0  0  0  0  0  0  0  0  0  0  0
   -4.2686    1.4692    0.0000 C   0  0  0  0  0  0  0  0  0  0  0  0
    2.8506   -1.8346    0.0000 C   0  0  0  0  0  0  0  0  0  0  0  0
   -1.4472    3.0918    0.0000 C   0  0  0  0  0  0  0  0  0  0  0  0
   -4.2978    3.1064    0.0000 C   0  0  0  0  0  0  0  0  0  0  0  0
   -4.9995    1.8639    0.0000 C   0  0  0  0  0  0  0  0  0  0  0  0
   -3.5669   -0.6213    0.0000 C   0  0  0  0  0  0  0  0  0  0  0  0
   -4.2978    0.6067    0.0000 C   0  0  0  0  0  0  0  0  0  0  0  0
    3.5815   -3.1064    0.0000 C   0  0  0  0  0  0  0  0  0  0  0  0
    4.2978   -1.8639    0.0000 C   0  0  0  0  0  0  0  0  0  0  0  0
  1 24  1  0  0  0  0
  2 24  1  0  0  0  0
  3 24  1  0  0  0  0
  4 23  2  0  0  0  0
  5 34  1  0  0  0  0
  5 35  1  0  0  0  0
  6 13  1  0  0  0  0
  6 30  1  0  0  0  0
  6 31  1  0  0  0  0
  7 15  2  0  0  0  0
  7 22  1  0  0  0  0
  8 15  1  0  0  0  0
  8 36  1  0  0  0  0
  8 37  1  0  0  0  0
  9 18  1  0  0  0  0
  9 23  1  0  0  0  0
 10 17  1  0  0  0  0
 10 29  2  0  0  0  0
 11 32  1  0  0  0  0
 11 38  1  0  0  0  0
 11 39  1  0  0  0  0
 12 14  1  0  0  0  0
 12 16  1  0  0  0  0
 12 22  2  0  0  0  0
 13 15  1  0  0  0  0
 13 16  2  0  0  0  0
 14 17  2  0  0  0  0
 14 20  1  0  0  0  0
 17 33  1  0  0  0  0
 18 20  2  0  0  0  0
 18 29  1  0  0  0  0
 19 23  1  0  0  0  0
 19 25  1  0  0  0  0
 19 27  2  0  0  0  0
 21 24  1  0  0  0  0
 21 25  2  0  0  0  0
 21 28  1  0  0  0  0
 26 27  1  0  0  0  0
 26 28  2  0  0  0  0
 26 32  1  0  0  0  0
 30 34  1  0  0  0  0
 31 35  1  0  0  0  0
M  END
> <PUBCHEM_COMPOUND_ID_TYPE>
0

> <PUBCHEM_TOTAL_CHARGE>
0

> <PUBCHEM_SUBSTANCE_ID>
310943148

> <PUBCHEM_SUBSTANCE_VERSION>
1

> <PUBCHEM_EXT_DATASOURCE_NAME>
4488

> <PUBCHEM_EXT_DATASOURCE_REGID>
SCHEMBL16121208

> <PUBCHEM_SUBSTANCE_COMMENT>
InChI=1S/C28H33F3N6O2/c1-18-24(21-13-25(26(33-15-21)36(4)5)37-6-8-39-9-7-37)14-23(16-32-18)34-27(38)20-10-19(17-35(2)3)11-22(12-20)28(29,30)31/h10-16H,6-9,17H2,1-5H3,(H,34,38)
InChIKey=BHRMRRQALOPXNK-UHFFFAOYSA-N

> <PUBCHEM_SUBSTANCE_SYNONYM>
SCHEMBL16121208

> <PUBCHEM_XREF_EXT_ID>
SCHEMBL16121208

> <PUBCHEM_EXT_DATASOURCE_URL>
https://www.surechembl.org/

> <PUBCHEM_EXT_SUBSTANCE_URL>
https://www.surechembl.org/chemical/SCHEMBL16121208

> <PUBCHEM_CID_ASSOCIATIONS>
117609578  1

> <PUBCHEM_COORDINATE_TYPE>
1
3

$$$$
