310940863
  -OEChem-07211613022D

 40 43  0     1  0  0  0  0  0999 V2000
    5.1896    0.9794    0.0000 O   0  0  0  0  0  0  0  0  0  0  0  0
    4.0494   -0.9794    0.0000 O   0  0  0  0  0  0  0  0  0  0  0  0
    1.6812    0.9648    0.0000 O   0  0  0  0  0  0  0  0  0  0  0  0
   -0.4824   -1.0964    0.0000 O   0  0  0  0  0  0  0  0  0  0  0  0
   -2.6460    0.9648    0.0000 O   0  0  0  0  0  0  0  0  0  0  0  0
    3.8447   -2.7630    0.0000 O   0  0  0  0  0  0  0  0  0  0  0  0
   -5.4966   -0.4678    0.0000 O   0  0  0  0  0  0  0  0  0  0  0  0
    2.3975   -0.2777    0.0000 N   0  0  0  0  0  0  0  0  0  0  0  0
    0.2485    0.1462    0.0000 N   0  0  0  0  0  0  0  0  0  0  0  0
   -1.9151   -0.2777    0.0000 N   0  0  0  0  0  0  0  0  0  0  0  0
    4.7657    0.3070    0.0000 C   0  0  3  0  0  0  0  0  0  0  0  0
    4.0494   -0.1170    0.0000 C   0  0  0  0  0  0  0  0  0  0  0  0
    4.3856    0.9940    0.0000 C   0  0  0  0  0  0  0  0  0  0  0  0
    3.3477    0.2924    0.0000 C   0  0  3  0  0  0  0  0  0  0  0  0
    5.4966   -0.1170    0.0000 C   0  0  0  0  0  0  0  0  0  0  0  0
    3.3477    1.3595    0.0000 C   0  0  0  0  0  0  0  0  0  0  0  0
    1.6666    0.1462    0.0000 C   0  0  0  0  0  0  0  0  0  0  0  0
    0.9794   -0.2485    0.0000 C   0  0  3  0  0  0  0  0  0  0  0  0
    2.6167    1.7981    0.0000 C   0  0  0  0  0  0  0  0  0  0  0  0
    0.9502   -1.0964    0.0000 C   0  0  0  0  0  0  0  0  0  0  0  0
   -0.4678   -0.2339    0.0000 C   0  0  0  0  0  0  0  0  0  0  0  0
    1.6958   -1.4911    0.0000 C   0  0  0  0  0  0  0  0  0  0  0  0
    1.8712    1.4472    0.0000 C   0  0  0  0  0  0  0  0  0  0  0  0
    2.5290    2.6021    0.0000 C   0  0  0  0  0  0  0  0  0  0  0  0
   -1.1988    0.1608    0.0000 C   0  0  3  0  0  0  0  0  0  0  0  0
   -3.3477   -0.2485    0.0000 C   0  0  3  0  0  0  0  0  0  0  0  0
   -2.6314    0.1608    0.0000 C   0  0  0  0  0  0  0  0  0  0  0  0
    1.3303    2.0466    0.0000 C   0  0  0  0  0  0  0  0  0  0  0  0
    1.7396    2.7630    0.0000 C   0  0  0  0  0  0  0  0  0  0  0  0
    1.7104   -2.3244    0.0000 C   0  0  0  0  0  0  0  0  0  0  0  0
    2.3975   -1.0964    0.0000 C   0  0  0  0  0  0  0  0  0  0  0  0
   -4.1079    0.0731    0.0000 C   0  0  0  0  0  0  0  0  0  0  0  0
   -3.4500   -1.0672    0.0000 C   0  0  0  0  0  0  0  0  0  0  0  0
   -4.6488   -0.5409    0.0000 C   0  0  3  0  0  0  0  0  0  0  0  0
    3.1284   -2.3098    0.0000 C   0  0  0  0  0  0  0  0  0  0  0  0
   -4.2541   -1.2280    0.0000 C   0  0  0  0  0  0  0  0  0  0  0  0
    2.4121   -2.7337    0.0000 C   0  0  0  0  0  0  0  0  0  0  0  0
    3.1284   -1.5057    0.0000 C   0  0  0  0  0  0  0  0  0  0  0  0
   -1.1841    0.9794    0.0000 C   0  0  0  0  0  0  0  0  0  0  0  0
    4.5903   -2.3098    0.0000 C   0  0  0  0  0  0  0  0  0  0  0  0
  1 11  1  0  0  0  0
  1 13  1  0  0  0  0
  2 12  2  0  0  0  0
  3 17  2  0  0  0  0
  4 21  2  0  0  0  0
  5 27  2  0  0  0  0
  6 35  1  0  0  0  0
  6 40  1  0  0  0  0
 34  7  1  6  0  0  0
 14  8  1  1  0  0  0
  8 17  1  0  0  0  0
 18  9  1  6  0  0  0
  9 21  1  0  0  0  0
 10 25  1  0  0  0  0
 10 27  1  0  0  0  0
 11 12  1  1  0  0  0
 11 13  1  0  0  0  0
 11 15  1  6  0  0  0
 12 14  1  0  0  0  0
 14 16  1  0  0  0  0
 16 19  1  0  0  0  0
 17 18  1  0  0  0  0
 18 20  1  0  0  0  0
 19 23  1  0  0  0  0
 19 24  1  0  0  0  0
 20 22  1  0  0  0  0
 21 25  1  0  0  0  0
 22 30  2  0  0  0  0
 22 31  1  0  0  0  0
 23 28  1  0  0  0  0
 24 29  1  0  0  0  0
 25 39  1  6  0  0  0
 26 27  1  1  0  0  0
 26 32  1  0  0  0  0
 26 33  1  0  0  0  0
 28 29  1  0  0  0  0
 30 37  1  0  0  0  0
 31 38  2  0  0  0  0
 32 34  1  0  0  0  0
 33 36  1  0  0  0  0
 34 36  1  0  0  0  0
 35 37  2  0  0  0  0
 35 38  1  0  0  0  0
M  END
> <PUBCHEM_COMPOUND_ID_TYPE>
0

> <PUBCHEM_TOTAL_CHARGE>
0

> <PUBCHEM_SUBSTANCE_ID>
310940863

> <PUBCHEM_SUBSTANCE_VERSION>
1

> <PUBCHEM_EXT_DATASOURCE_NAME>
4488

> <PUBCHEM_EXT_DATASOURCE_REGID>
SCHEMBL16118822

> <PUBCHEM_SUBSTANCE_COMMENT>
InChI=1S/C30H43N3O7/c1-18(31-28(37)21-10-11-22(34)16-21)27(36)33-25(15-20-8-12-23(39-3)13-9-20)29(38)32-24(14-19-6-4-5-7-19)26(35)30(2)17-40-30/h8-9,12-13,18-19,21-22,24-25,34H,4-7,10-11,14-17H2,1-3H3,(H,31,37)(H,32,38)(H,33,36)/t18-,21+,22+,24+,25+,30-/m1/s1
InChIKey=BVCQVLJZWSBKHP-PPTMOBDSSA-N

> <PUBCHEM_SUBSTANCE_SYNONYM>
SCHEMBL16118822

> <PUBCHEM_XREF_EXT_ID>
SCHEMBL16118822

> <PUBCHEM_EXT_DATASOURCE_URL>
https://www.surechembl.org/

> <PUBCHEM_EXT_SUBSTANCE_URL>
https://www.surechembl.org/chemical/SCHEMBL16118822

> <PUBCHEM_CID_ASSOCIATIONS>
117607780  1

> <PUBCHEM_COORDINATE_TYPE>
1
3

> <PUBCHEM_BONDANNOTATIONS>
11  12  5
11  15  6
25  39  6
26  27  5
34  7  6
14  8  5
18  9  6

$$$$
