310937898
  -OEChem-07211613022D

 19 20  0     0  0  0  0  0  0999 V2000
    2.0311    0.0000    0.0000 Cl  0  0  0  0  0  0  0  0  0  0  0  0
    3.4849   -3.7201    0.0000 F   0  0  0  0  0  0  0  0  0  0  0  0
    4.5324   -2.8221    0.0000 F   0  0  0  0  0  0  0  0  0  0  0  0
    0.0000   -3.5704    0.0000 O   0  0  0  0  0  0  0  0  0  0  0  0
    1.2614   -4.2759    0.0000 N   0  0  0  0  0  0  0  0  0  0  0  0
    3.7414   -2.8435    0.0000 N   0  0  0  0  0  0  0  0  0  0  0  0
    2.4800   -2.1380    0.0000 C   0  0  0  0  0  0  0  0  0  0  0  0
    2.0738   -2.8648    0.0000 C   0  0  0  0  0  0  0  0  0  0  0  0
    3.2924   -2.1166    0.0000 C   0  0  0  0  0  0  0  0  0  0  0  0
    2.5014   -3.5704    0.0000 C   0  0  0  0  0  0  0  0  0  0  0  0
    2.0524   -1.4110    0.0000 C   0  0  0  0  0  0  0  0  0  0  0  0
    1.2614   -2.8648    0.0000 C   0  0  0  0  0  0  0  0  0  0  0  0
    3.8910   -2.9931    0.0000 C   0  0  0  0  0  0  0  0  0  0  0  0
    3.6986   -1.4110    0.0000 C   0  0  0  0  0  0  0  0  0  0  0  0
    2.4586   -0.7055    0.0000 C   0  0  0  0  0  0  0  0  0  0  0  0
    0.8338   -3.5704    0.0000 C   0  0  0  0  0  0  0  0  0  0  0  0
    2.0738   -4.2759    0.0000 C   0  0  0  0  0  0  0  0  0  0  0  0
    3.2711   -0.7055    0.0000 C   0  0  0  0  0  0  0  0  0  0  0  0
    3.3352   -3.5704    0.0000 C   0  0  0  0  0  0  0  0  0  0  0  0
  1 15  1  0  0  0  0
  2 13  1  0  0  0  0
  3 13  1  0  0  0  0
  4 16  2  0  0  0  0
  5 16  1  0  0  0  0
  5 17  1  0  0  0  0
  6 19  3  0  0  0  0
  7  8  1  0  0  0  0
  7  9  1  0  0  0  0
  7 11  2  0  0  0  0
  8 10  1  0  0  0  0
  8 12  2  0  0  0  0
  9 13  1  0  0  0  0
  9 14  2  0  0  0  0
 10 17  2  0  0  0  0
 10 19  1  0  0  0  0
 11 15  1  0  0  0  0
 12 16  1  0  0  0  0
 14 18  1  0  0  0  0
 15 18  2  0  0  0  0
M  END
> <PUBCHEM_COMPOUND_ID_TYPE>
0

> <PUBCHEM_TOTAL_CHARGE>
0

> <PUBCHEM_SUBSTANCE_ID>
310937898

> <PUBCHEM_SUBSTANCE_VERSION>
1

> <PUBCHEM_EXT_DATASOURCE_NAME>
4488

> <PUBCHEM_EXT_DATASOURCE_REGID>
SCHEMBL16115727

> <PUBCHEM_SUBSTANCE_COMMENT>
InChI=1S/C13H7ClF2N2O/c14-8-1-2-9(13(15)16)11(3-8)10-4-12(19)18-6-7(10)5-17/h1-4,6,13H,(H,18,19)
InChIKey=JXLNYOHLLCKTKB-UHFFFAOYSA-N

> <PUBCHEM_SUBSTANCE_SYNONYM>
SCHEMBL16115727

> <PUBCHEM_XREF_EXT_ID>
SCHEMBL16115727

> <PUBCHEM_EXT_DATASOURCE_URL>
https://www.surechembl.org/

> <PUBCHEM_EXT_SUBSTANCE_URL>
https://www.surechembl.org/chemical/SCHEMBL16115727

> <PUBCHEM_CID_ASSOCIATIONS>
117605519  1

> <PUBCHEM_COORDINATE_TYPE>
1
3

$$$$
