310937533
  -OEChem-07211613022D

 24 25  0     0  0  0  0  0  0999 V2000
    4.3816    0.0000    0.0000 F   0  0  0  0  0  0  0  0  0  0  0  0
    2.9415   -0.0307    0.0000 F   0  0  0  0  0  0  0  0  0  0  0  0
    4.3816   -0.8273    0.0000 F   0  0  0  0  0  0  0  0  0  0  0  0
    0.8580   -2.5739    0.0000 O   0  0  0  0  0  0  0  0  0  0  0  0
    0.0000   -3.9833    0.0000 O   0  0  0  0  0  0  0  0  0  0  0  0
    4.5349   -3.2786    0.0000 O   0  0  0  0  0  0  0  0  0  0  0  0
    0.8273   -3.9833    0.0000 N   0  0  0  0  0  0  0  0  0  0  0  0
    3.7075   -1.8384    0.0000 N   0  0  0  0  0  0  0  0  0  0  0  0
    2.4819   -3.9833    0.0000 N   0  0  0  0  0  0  0  0  0  0  0  0
    2.0529   -4.6881    0.0000 N   0  0  0  0  0  0  0  0  0  0  0  0
    2.0529   -3.2786    0.0000 C   0  0  0  0  0  0  0  0  0  0  0  0
    2.4513   -2.5739    0.0000 C   0  0  0  0  0  0  0  0  0  0  0  0
    1.2563   -3.2786    0.0000 C   0  0  0  0  0  0  0  0  0  0  0  0
    3.2786   -2.5739    0.0000 C   0  0  0  0  0  0  0  0  0  0  0  0
    3.2786   -1.1337    0.0000 C   0  0  0  0  0  0  0  0  0  0  0  0
    1.2563   -4.6881    0.0000 C   0  0  0  0  0  0  0  0  0  0  0  0
    2.0529   -1.8691    0.0000 C   0  0  0  0  0  0  0  0  0  0  0  0
    3.6463   -0.4290    0.0000 C   0  0  0  0  0  0  0  0  0  0  0  0
    2.4513   -1.1644    0.0000 C   0  0  0  0  0  0  0  0  0  0  0  0
    0.8580   -5.4234    0.0000 C   0  0  0  0  0  0  0  0  0  0  0  0
    3.7075   -3.2786    0.0000 C   0  0  0  0  0  0  0  0  0  0  0  0
    1.2563   -6.1282    0.0000 C   0  0  0  0  0  0  0  0  0  0  0  0
    0.0307   -5.4234    0.0000 C   0  0  0  0  0  0  0  0  0  0  0  0
    4.9332   -2.5739    0.0000 C   0  0  0  0  0  0  0  0  0  0  0  0
  1 18  1  0  0  0  0
  2 18  1  0  0  0  0
  3 18  1  0  0  0  0
  4 13  2  0  0  0  0
  5  7  1  0  0  0  0
  6 21  1  0  0  0  0
  6 24  1  0  0  0  0
  7 13  1  0  0  0  0
  7 16  1  0  0  0  0
  8 14  2  0  0  0  0
  8 15  1  0  0  0  0
  9 10  1  0  0  0  0
  9 11  2  0  0  0  0
 10 16  2  0  0  0  0
 11 12  1  0  0  0  0
 11 13  1  0  0  0  0
 12 14  1  0  0  0  0
 12 17  2  0  0  0  0
 14 21  1  0  0  0  0
 15 18  1  0  0  0  0
 15 19  2  0  0  0  0
 16 20  1  0  0  0  0
 17 19  1  0  0  0  0
 20 22  1  0  0  0  0
 20 23  1  0  0  0  0
M  END
> <PUBCHEM_COMPOUND_ID_TYPE>
0

> <PUBCHEM_TOTAL_CHARGE>
0

> <PUBCHEM_SUBSTANCE_ID>
310937533

> <PUBCHEM_SUBSTANCE_VERSION>
1

> <PUBCHEM_EXT_DATASOURCE_NAME>
4488

> <PUBCHEM_EXT_DATASOURCE_REGID>
SCHEMBL16115310

> <PUBCHEM_SUBSTANCE_COMMENT>
InChI=1S/C14H15F3N4O3/c1-7(2)12-20-19-11(13(22)21(12)23)8-4-5-10(14(15,16)17)18-9(8)6-24-3/h4-5,7,23H,6H2,1-3H3
InChIKey=CXCNKACGKPZZMC-UHFFFAOYSA-N

> <PUBCHEM_SUBSTANCE_SYNONYM>
SCHEMBL16115310

> <PUBCHEM_XREF_EXT_ID>
SCHEMBL16115310

> <PUBCHEM_EXT_DATASOURCE_URL>
https://www.surechembl.org/

> <PUBCHEM_EXT_SUBSTANCE_URL>
https://www.surechembl.org/chemical/SCHEMBL16115310

> <PUBCHEM_CID_ASSOCIATIONS>
117605260  1

> <PUBCHEM_COORDINATE_TYPE>
1
3

$$$$
