310946316
  -OEChem-07211613022D

 24 25  0     0  0  0  0  0  0999 V2000
   -0.7518    9.9302    0.0000 I   0  0  0  0  0  0  0  0  0  0  0  0
   -2.1807    7.4553    0.0000 I   0  0  0  0  0  0  0  0  0  0  0  0
   -2.1807    9.1052    0.0000 O   0  0  0  0  0  0  0  0  0  0  0  0
   -5.0384    7.4553    0.0000 O   0  0  0  0  0  0  0  0  0  0  0  0
    2.1060    9.9302    0.0000 O   0  0  0  0  0  0  0  0  0  0  0  0
    4.9639    9.1052    0.0000 O   0  0  0  0  0  0  0  0  0  0  0  0
    2.8204    8.6927    0.0000 N   0  0  0  0  0  0  0  0  0  0  0  0
   -1.4663    8.6927    0.0000 C   0  0  0  0  0  0  0  0  0  0  0  0
   -0.7518    9.1052    0.0000 C   0  0  0  0  0  0  0  0  0  0  0  0
   -0.0373    8.6927    0.0000 C   0  0  0  0  0  0  0  0  0  0  0  0
   -1.4663    7.8677    0.0000 C   0  0  0  0  0  0  0  0  0  0  0  0
   -2.8951    8.6927    0.0000 C   0  0  0  0  0  0  0  0  0  0  0  0
   -0.0373    7.8677    0.0000 C   0  0  0  0  0  0  0  0  0  0  0  0
   -0.7518    7.4553    0.0000 C   0  0  0  0  0  0  0  0  0  0  0  0
    0.6771    9.1052    0.0000 C   0  0  0  0  0  0  0  0  0  0  0  0
   -3.6096    9.1052    0.0000 C   0  0  0  0  0  0  0  0  0  0  0  0
   -2.8951    7.8677    0.0000 C   0  0  0  0  0  0  0  0  0  0  0  0
    1.3915    8.6927    0.0000 C   0  0  0  0  0  0  0  0  0  0  0  0
   -4.3240    7.8677    0.0000 C   0  0  0  0  0  0  0  0  0  0  0  0
   -4.3240    8.6927    0.0000 C   0  0  0  0  0  0  0  0  0  0  0  0
   -3.6096    7.4553    0.0000 C   0  0  0  0  0  0  0  0  0  0  0  0
    2.1060    9.1052    0.0000 C   0  0  0  0  0  0  0  0  0  0  0  0
    3.5349    9.1052    0.0000 C   0  0  0  0  0  0  0  0  0  0  0  0
    4.2493    8.6927    0.0000 C   0  0  0  0  0  0  0  0  0  0  0  0
  1  9  1  0  0  0  0
  2 11  1  0  0  0  0
  3  8  1  0  0  0  0
  3 12  1  0  0  0  0
  4 19  1  0  0  0  0
  5 22  2  0  0  0  0
  6 24  1  0  0  0  0
  7 22  1  0  0  0  0
  7 23  1  0  0  0  0
  8  9  1  0  0  0  0
  8 11  2  0  0  0  0
  9 10  2  0  0  0  0
 10 13  1  0  0  0  0
 10 15  1  0  0  0  0
 11 14  1  0  0  0  0
 12 16  2  0  0  0  0
 12 17  1  0  0  0  0
 13 14  2  0  0  0  0
 15 18  1  0  0  0  0
 16 20  1  0  0  0  0
 17 21  2  0  0  0  0
 18 22  1  0  0  0  0
 19 20  2  0  0  0  0
 19 21  1  0  0  0  0
 23 24  1  0  0  0  0
M  END
> <PUBCHEM_COMPOUND_ID_TYPE>
0

> <PUBCHEM_TOTAL_CHARGE>
0

> <PUBCHEM_SUBSTANCE_ID>
310946316

> <PUBCHEM_SUBSTANCE_VERSION>
1

> <PUBCHEM_EXT_DATASOURCE_NAME>
4488

> <PUBCHEM_EXT_DATASOURCE_REGID>
SCHEMBL16124435

> <PUBCHEM_SUBSTANCE_COMMENT>
InChI=1S/C17H17I2NO4/c18-14-7-1-11(2-8-15(23)20-9-10-21)16(19)17(14)24-13-5-3-12(22)4-6-13/h1,3-7,21-22H,2,8-10H2,(H,20,23)
InChIKey=HNPIQRVPAGPFHR-UHFFFAOYSA-N

> <PUBCHEM_SUBSTANCE_SYNONYM>
SCHEMBL16124435

> <PUBCHEM_XREF_EXT_ID>
SCHEMBL16124435

> <PUBCHEM_EXT_DATASOURCE_URL>
https://www.surechembl.org/

> <PUBCHEM_EXT_SUBSTANCE_URL>
https://www.surechembl.org/chemical/SCHEMBL16124435

> <PUBCHEM_CID_ASSOCIATIONS>
117612251  1

> <PUBCHEM_COORDINATE_TYPE>
1
3

$$$$
