310949948
  -OEChem-07211613022D

 29 34  0     1  0  0  0  0  0999 V2000
   -0.6248    1.3955    0.0000 N   0  0  0  0  0  0  0  0  0  0  0  0
    0.1528   -0.9789    0.0000 N   0  0  0  0  0  0  0  0  0  0  0  0
   -0.6248    2.7424    0.0000 N   0  0  0  0  0  0  0  0  0  0  0  0
    1.8745    2.0759    0.0000 N   0  0  0  0  0  0  0  0  0  0  0  0
   -0.1388    2.0759    0.0000 C   0  0  0  0  0  0  0  0  0  0  0  0
   -0.3610    0.6179    0.0000 C   0  0  0  0  0  0  0  0  0  0  0  0
   -1.4164    1.6732    0.0000 C   0  0  0  0  0  0  0  0  0  0  0  0
   -1.4024    2.4925    0.0000 C   0  0  0  0  0  0  0  0  0  0  0  0
   -0.6526   -0.7568    0.0000 C   0  0  3  0  0  0  0  0  0  0  0  0
    0.6804   -0.3402    0.0000 C   0  0  3  0  0  0  0  0  0  0  0  0
   -0.9025   -0.0069    0.0000 C   0  0  0  0  0  0  0  0  0  0  0  0
    0.4444    0.4374    0.0000 C   0  0  0  0  0  0  0  0  0  0  0  0
    0.7081    2.0620    0.0000 C   0  0  0  0  0  0  0  0  0  0  0  0
    0.4027   -1.7427    0.0000 C   0  0  3  0  0  0  0  0  0  0  0  0
    0.2083   -0.1736    0.0000 C   0  0  0  0  0  0  0  0  0  0  0  0
   -0.4444   -0.3819    0.0000 C   0  0  0  0  0  0  0  0  0  0  0  0
   -2.1245    1.2428    0.0000 C   0  0  0  0  0  0  0  0  0  0  0  0
   -2.1384    2.8952    0.0000 C   0  0  0  0  0  0  0  0  0  0  0  0
    1.2775    2.6452    0.0000 C   0  0  0  0  0  0  0  0  0  0  0  0
    1.3052    1.4927    0.0000 C   0  0  0  0  0  0  0  0  0  0  0  0
    1.2220   -1.9371    0.0000 C   0  0  0  0  0  0  0  0  0  0  0  0
   -2.8465    1.6593    0.0000 C   0  0  0  0  0  0  0  0  0  0  0  0
   -2.8465    2.4925    0.0000 C   0  0  0  0  0  0  0  0  0  0  0  0
   -0.1249   -2.3953    0.0000 C   0  0  0  0  0  0  0  0  0  0  0  0
    1.4857   -2.7147    0.0000 C   0  0  0  0  0  0  0  0  0  0  0  0
    1.7912   -1.3261    0.0000 C   0  0  0  0  0  0  0  0  0  0  0  0
    2.5966   -1.4927    0.0000 C   0  0  0  0  0  0  0  0  0  0  0  0
    2.3050   -2.8952    0.0000 C   0  0  0  0  0  0  0  0  0  0  0  0
    2.8465   -2.2842    0.0000 C   0  0  0  0  0  0  0  0  0  0  0  0
  1  5  1  0  0  0  0
  1  6  1  0  0  0  0
  1  7  1  0  0  0  0
  2  9  1  0  0  0  0
  2 10  1  0  0  0  0
  2 14  1  0  0  0  0
  3  5  2  0  0  0  0
  3  8  1  0  0  0  0
  4 19  1  0  0  0  0
  4 20  1  0  0  0  0
  5 13  1  0  0  0  0
  6 11  1  0  0  0  0
  6 12  1  0  0  0  0
  7  8  1  0  0  0  0
  7 17  2  0  0  0  0
  8 18  2  0  0  0  0
  9 11  1  0  0  0  0
  9 16  1  0  0  0  0
 10 12  1  0  0  0  0
 10 15  1  0  0  0  0
 13 19  1  0  0  0  0
 13 20  1  0  0  0  0
 14 21  1  0  0  0  0
 14 24  1  1  0  0  0
 15 16  1  0  0  0  0
 17 22  1  0  0  0  0
 18 23  1  0  0  0  0
 21 25  1  0  0  0  0
 21 26  1  0  0  0  0
 22 23  2  0  0  0  0
 25 28  1  0  0  0  0
 26 27  1  0  0  0  0
 27 29  1  0  0  0  0
 28 29  1  0  0  0  0
M  END
> <PUBCHEM_COMPOUND_ID_TYPE>
0

> <PUBCHEM_TOTAL_CHARGE>
0

> <PUBCHEM_SUBSTANCE_ID>
310949948

> <PUBCHEM_SUBSTANCE_VERSION>
1

> <PUBCHEM_EXT_DATASOURCE_NAME>
4488

> <PUBCHEM_EXT_DATASOURCE_REGID>
SCHEMBL16128177

> <PUBCHEM_SUBSTANCE_COMMENT>
InChI=1S/C25H36N4/c1-17(18-7-3-2-4-8-18)28-20-11-12-21(28)14-22(13-20)29-24-10-6-5-9-23(24)27-25(29)19-15-26-16-19/h5-6,9-10,17-22,26H,2-4,7-8,11-16H2,1H3/t17-,20?,21?,22?/m1/s1
InChIKey=CXMOQKLBNZPMMT-LAQKFSSHSA-N

> <PUBCHEM_SUBSTANCE_SYNONYM>
SCHEMBL16128177

> <PUBCHEM_XREF_EXT_ID>
SCHEMBL16128177

> <PUBCHEM_EXT_DATASOURCE_URL>
https://www.surechembl.org/

> <PUBCHEM_EXT_SUBSTANCE_URL>
https://www.surechembl.org/chemical/SCHEMBL16128177

> <PUBCHEM_CID_ASSOCIATIONS>
117615207  1

> <PUBCHEM_COORDINATE_TYPE>
1
3

> <PUBCHEM_BONDANNOTATIONS>
14  24  5

$$$$
