310941657
  -OEChem-07211613022D

 27 30  0     0  0  0  0  0  0999 V2000
   -3.5566   -1.7517    0.0000 Br  0  0  0  0  0  0  0  0  0  0  0  0
    0.2490    1.7517    0.0000 S   0  0  0  0  0  0  0  0  0  0  0  0
   -2.0984   -0.9159    0.0000 O   0  0  0  0  0  0  0  0  0  0  0  0
   -0.6580   -0.9159    0.0000 O   0  0  0  0  0  0  0  0  0  0  0  0
    4.2323    0.0089    0.0000 O   0  0  0  0  0  0  0  0  0  0  0  0
    4.2502   -1.3782    0.0000 O   0  0  0  0  0  0  0  0  0  0  0  0
    0.1067    0.4001    0.0000 N   0  0  0  0  0  0  0  0  0  0  0  0
    1.4938    0.9336    0.0000 N   0  0  0  0  0  0  0  0  0  0  0  0
   -1.3871    0.3289    0.0000 C   0  0  0  0  0  0  0  0  0  0  0  0
   -0.6758    0.7558    0.0000 C   0  0  0  0  0  0  0  0  0  0  0  0
   -2.8453   -0.5069    0.0000 C   0  0  0  0  0  0  0  0  0  0  0  0
   -2.8275    0.3468    0.0000 C   0  0  0  0  0  0  0  0  0  0  0  0
   -1.4226   -0.4890    0.0000 C   0  0  0  0  0  0  0  0  0  0  0  0
   -2.1162    0.7380    0.0000 C   0  0  0  0  0  0  0  0  0  0  0  0
    0.6580    1.0403    0.0000 C   0  0  0  0  0  0  0  0  0  0  0  0
   -3.5566   -0.9159    0.0000 C   0  0  0  0  0  0  0  0  0  0  0  0
   -0.5513    1.5738    0.0000 C   0  0  0  0  0  0  0  0  0  0  0  0
   -3.5566    0.7202    0.0000 C   0  0  0  0  0  0  0  0  0  0  0  0
   -4.2502   -0.5069    0.0000 C   0  0  0  0  0  0  0  0  0  0  0  0
    1.8316    0.1867    0.0000 C   0  0  0  0  0  0  0  0  0  0  0  0
   -4.2502    0.3289    0.0000 C   0  0  0  0  0  0  0  0  0  0  0  0
    2.6497    0.0801    0.0000 C   0  0  0  0  0  0  0  0  0  0  0  0
    2.9697   -0.6491    0.0000 C   0  0  0  0  0  0  0  0  0  0  0  0
    1.3515   -0.4890    0.0000 C   0  0  0  0  0  0  0  0  0  0  0  0
    2.5074   -1.3248    0.0000 C   0  0  0  0  0  0  0  0  0  0  0  0
    1.6716   -1.2359    0.0000 C   0  0  0  0  0  0  0  0  0  0  0  0
    3.8233   -0.6669    0.0000 C   0  0  0  0  0  0  0  0  0  0  0  0
  1 16  1  0  0  0  0
  2 15  1  0  0  0  0
  2 17  1  0  0  0  0
  3 11  1  0  0  0  0
  3 13  1  0  0  0  0
  4 13  2  0  0  0  0
  5 27  2  0  0  0  0
  6 27  1  0  0  0  0
  7 10  1  0  0  0  0
  7 15  2  0  0  0  0
  8 15  1  0  0  0  0
  8 20  1  0  0  0  0
  9 10  1  0  0  0  0
  9 13  1  0  0  0  0
  9 14  2  0  0  0  0
 10 17  2  0  0  0  0
 11 12  1  0  0  0  0
 11 16  2  0  0  0  0
 12 14  1  0  0  0  0
 12 18  2  0  0  0  0
 16 19  1  0  0  0  0
 18 21  1  0  0  0  0
 19 21  2  0  0  0  0
 20 22  1  0  0  0  0
 20 24  2  0  0  0  0
 22 23  2  0  0  0  0
 23 25  1  0  0  0  0
 23 27  1  0  0  0  0
 24 26  1  0  0  0  0
 25 26  2  0  0  0  0
M  END
> <PUBCHEM_COMPOUND_ID_TYPE>
0

> <PUBCHEM_TOTAL_CHARGE>
0

> <PUBCHEM_SUBSTANCE_ID>
310941657

> <PUBCHEM_SUBSTANCE_VERSION>
1

> <PUBCHEM_EXT_DATASOURCE_NAME>
4488

> <PUBCHEM_EXT_DATASOURCE_REGID>
SCHEMBL16119688

> <PUBCHEM_SUBSTANCE_COMMENT>
InChI=1S/C19H11BrN2O4S/c20-14-6-2-3-10-8-13(18(25)26-16(10)14)15-9-27-19(22-15)21-12-5-1-4-11(7-12)17(23)24/h1-9H,(H,21,22)(H,23,24)
InChIKey=GQNSWTQGKWJIRL-UHFFFAOYSA-N

> <PUBCHEM_SUBSTANCE_SYNONYM>
SCHEMBL16119688

> <PUBCHEM_XREF_EXT_ID>
SCHEMBL16119688

> <PUBCHEM_EXT_DATASOURCE_URL>
https://www.surechembl.org/

> <PUBCHEM_EXT_SUBSTANCE_URL>
https://www.surechembl.org/chemical/SCHEMBL16119688

> <PUBCHEM_CID_ASSOCIATIONS>
117608439  1

> <PUBCHEM_COORDINATE_TYPE>
1
3

$$$$
