310948003
  -OEChem-07211613022D

 36 40  0     1  0  0  0  0  0999 V2000
   -2.1918   -0.5516    0.0000 O   0  0  0  0  0  0  0  0  0  0  0  0
   -2.4860    1.6255    0.0000 O   0  0  0  0  0  0  0  0  0  0  0  0
   -3.2068   -1.2724    0.0000 O   0  0  0  0  0  0  0  0  0  0  0  0
   -3.2068    0.3899    0.0000 O   0  0  0  0  0  0  0  0  0  0  0  0
    2.5302    1.2136    0.0000 O   0  0  0  0  0  0  0  0  0  0  0  0
    1.8094    2.4640    0.0000 O   0  0  0  0  0  0  0  0  0  0  0  0
    1.0739   -1.3018    0.0000 N   0  0  3  0  0  0  0  0  0  0  0  0
   -2.5007   -2.5081    0.0000 N   0  0  0  0  0  0  0  0  0  0  0  0
   -1.0592   -0.8164    0.0000 C   0  0  3  0  0  0  0  0  0  0  0  0
   -1.0592    0.0073    0.0000 C   0  0  0  0  0  0  0  0  0  0  0  0
   -1.7800   -1.2430    0.0000 C   0  0  3  0  0  0  0  0  0  0  0  0
   -0.3384   -1.2430    0.0000 C   0  0  3  0  0  0  0  0  0  0  0  0
   -1.7800    0.4046    0.0000 C   0  0  0  0  0  0  0  0  0  0  0  0
   -0.3531    0.4339    0.0000 C   0  0  0  0  0  0  0  0  0  0  0  0
    0.3531   -0.8311    0.0000 C   0  0  3  0  0  0  0  0  0  0  0  0
   -0.4854   -0.3752    0.0000 C   0  0  0  0  0  0  0  0  0  0  0  0
   -1.7800   -2.0667    0.0000 C   0  0  3  0  0  0  0  0  0  0  0  0
    0.3531    0.0073    0.0000 C   0  0  0  0  0  0  0  0  0  0  0  0
   -1.7800    1.2577    0.0000 C   0  0  0  0  0  0  0  0  0  0  0  0
   -0.3384    1.2430    0.0000 C   0  0  0  0  0  0  0  0  0  0  0  0
   -0.3531   -2.0667    0.0000 C   0  0  0  0  0  0  0  0  0  0  0  0
    0.8237   -0.3752    0.0000 C   0  0  0  0  0  0  0  0  0  0  0  0
   -1.0592   -2.4787    0.0000 C   0  0  0  0  0  0  0  0  0  0  0  0
   -1.0739    1.6402    0.0000 C   0  0  0  0  0  0  0  0  0  0  0  0
    0.3531    1.6549    0.0000 C   0  0  0  0  0  0  0  0  0  0  0  0
    1.8976   -1.0518    0.0000 C   0  0  0  0  0  0  0  0  0  0  0  0
   -3.2362   -2.0814    0.0000 C   0  0  0  0  0  0  0  0  0  0  0  0
   -3.2215    1.2724    0.0000 C   0  0  0  0  0  0  0  0  0  0  0  0
    1.0886    1.2577    0.0000 C   0  0  0  0  0  0  0  0  0  0  0  0
    1.7800    1.6402    0.0000 C   0  0  0  0  0  0  0  0  0  0  0  0
   -3.9570   -2.4787    0.0000 C   0  0  0  0  0  0  0  0  0  0  0  0
   -3.9423    1.6696    0.0000 C   0  0  0  0  0  0  0  0  0  0  0  0
    3.2362    1.6696    0.0000 C   0  0  0  0  0  0  0  0  0  0  0  0
    3.2362    2.5081    0.0000 C   0  0  0  0  0  0  0  0  0  0  0  0
    3.9570    2.0961    0.0000 C   0  0  0  0  0  0  0  0  0  0  0  0
    3.9570    1.2136    0.0000 C   0  0  0  0  0  0  0  0  0  0  0  0
 11  1  1  6  0  0  0
  1 13  1  0  0  0  0
  2 19  1  0  0  0  0
  2 28  1  0  0  0  0
  3 27  2  0  0  0  0
  4 28  2  0  0  0  0
  5 30  1  0  0  0  0
  5 33  1  0  0  0  0
  6 30  2  0  0  0  0
 15  7  1  1  0  0  0
  7 22  1  0  0  0  0
  7 26  1  0  0  0  0
 17  8  1  6  0  0  0
  8 27  1  0  0  0  0
  9 10  1  6  0  0  0
  9 11  1  0  0  0  0
  9 12  1  0  0  0  0
  9 16  1  0  0  0  0
 10 13  1  0  0  0  0
 10 14  2  0  0  0  0
 11 17  1  0  0  0  0
 12 15  1  0  0  0  0
 12 21  1  0  0  0  0
 13 19  2  0  0  0  0
 14 18  1  0  0  0  0
 14 20  1  0  0  0  0
 15 18  1  0  0  0  0
 16 22  1  0  0  0  0
 17 23  1  0  0  0  0
 19 24  1  0  0  0  0
 20 24  2  0  0  0  0
 20 25  1  0  0  0  0
 21 23  1  0  0  0  0
 25 29  2  0  0  0  0
 27 31  1  0  0  0  0
 28 32  1  0  0  0  0
 29 30  1  0  0  0  0
 33 34  1  0  0  0  0
 33 35  1  0  0  0  0
 33 36  1  0  0  0  0
M  END
> <PUBCHEM_COMPOUND_ID_TYPE>
0

> <PUBCHEM_TOTAL_CHARGE>
0

> <PUBCHEM_SUBSTANCE_ID>
310948003

> <PUBCHEM_SUBSTANCE_VERSION>
1

> <PUBCHEM_EXT_DATASOURCE_NAME>
4488

> <PUBCHEM_EXT_DATASOURCE_REGID>
SCHEMBL16126177

> <PUBCHEM_SUBSTANCE_COMMENT>
InChI=1S/C28H36N2O6/c1-15(31)29-20-9-8-19-21-14-18-17(7-10-23(33)36-27(3,4)5)13-22(34-16(2)32)25-24(18)28(19,26(20)35-25)11-12-30(21)6/h7,10,13,19-21,26H,8-9,11-12,14H2,1-6H3,(H,29,31)/b10-7+/t19?,20-,21+,26-,28-/m0/s1
InChIKey=RQAKKPJKHYKTHV-SHVVKJLCSA-N

> <PUBCHEM_SUBSTANCE_SYNONYM>
SCHEMBL16126177

> <PUBCHEM_XREF_EXT_ID>
SCHEMBL16126177

> <PUBCHEM_EXT_DATASOURCE_URL>
https://www.surechembl.org/

> <PUBCHEM_EXT_SUBSTANCE_URL>
https://www.surechembl.org/chemical/SCHEMBL16126177

> <PUBCHEM_CID_ASSOCIATIONS>
117613648  1

> <PUBCHEM_COORDINATE_TYPE>
1
3

> <PUBCHEM_BONDANNOTATIONS>
11  1  6
15  7  5
17  8  6
9  10  6

$$$$
