310946072
  -OEChem-07211613022D

 25 28  0     1  0  0  0  0  0999 V2000
    1.3702    2.6837    0.0000 F   0  0  0  0  0  0  0  0  0  0  0  0
    1.7292    1.6254    0.0000 F   0  0  0  0  0  0  0  0  0  0  0  0
    0.6520    1.2851    0.0000 F   0  0  0  0  0  0  0  0  0  0  0  0
   -1.2189   -2.6270    0.0000 O   0  0  0  0  0  0  0  0  0  0  0  0
   -0.4441    1.1906    0.0000 N   0  0  0  0  0  0  0  0  0  0  0  0
   -0.4820   -1.3797    0.0000 N   0  0  0  0  0  0  0  0  0  0  0  0
    0.3307   -3.4585    0.0000 N   0  0  0  0  0  0  0  0  0  0  0  0
    1.0111   -2.2868    0.0000 N   0  0  0  0  0  0  0  0  0  0  0  0
    1.1434   -3.6475    0.0000 N   0  0  0  0  0  0  0  0  0  0  0  0
   -0.0661   -0.1134    0.0000 C   0  0  3  0  0  0  0  0  0  0  0  0
   -0.8788   -0.0567    0.0000 C   0  0  3  0  0  0  0  0  0  0  0  0
   -0.4631    2.0222    0.0000 C   0  0  0  0  0  0  0  0  0  0  0  0
   -1.1434    0.6804    0.0000 C   0  0  0  0  0  0  0  0  0  0  0  0
    0.1984    0.6993    0.0000 C   0  0  0  0  0  0  0  0  0  0  0  0
    0.2551    2.4002    0.0000 C   0  0  0  0  0  0  0  0  0  0  0  0
    0.2173   -0.8882    0.0000 C   0  0  0  0  0  0  0  0  0  0  0  0
   -1.1434   -0.9071    0.0000 C   0  0  0  0  0  0  0  0  0  0  0  0
   -0.4631   -2.2111    0.0000 C   0  0  0  0  0  0  0  0  0  0  0  0
    0.9922    1.9844    0.0000 C   0  0  0  0  0  0  0  0  0  0  0  0
    0.2362   -2.6081    0.0000 C   0  0  0  0  0  0  0  0  0  0  0  0
   -1.1434    2.4002    0.0000 C   0  0  0  0  0  0  0  0  0  0  0  0
    0.2551    3.2507    0.0000 C   0  0  0  0  0  0  0  0  0  0  0  0
   -1.1434    3.2507    0.0000 C   0  0  0  0  0  0  0  0  0  0  0  0
   -0.4631    3.6475    0.0000 C   0  0  0  0  0  0  0  0  0  0  0  0
    1.5592   -2.9104    0.0000 C   0  0  0  0  0  0  0  0  0  0  0  0
  1 19  1  0  0  0  0
  2 19  1  0  0  0  0
  3 19  1  0  0  0  0
  4 18  2  0  0  0  0
  5 12  1  0  0  0  0
  5 13  1  0  0  0  0
  5 14  1  0  0  0  0
  6 16  1  0  0  0  0
  6 17  1  0  0  0  0
  6 18  1  0  0  0  0
  7  9  1  0  0  0  0
  7 20  2  0  0  0  0
  8 20  1  0  0  0  0
  8 25  1  0  0  0  0
  9 25  1  0  0  0  0
 10 11  1  0  0  0  0
 10 14  1  0  0  0  0
 10 16  1  1  0  0  0
 11 13  1  0  0  0  0
 11 17  1  1  0  0  0
 12 15  2  0  0  0  0
 12 21  1  0  0  0  0
 15 19  1  0  0  0  0
 15 22  1  0  0  0  0
 18 20  1  0  0  0  0
 21 23  2  0  0  0  0
 22 24  2  0  0  0  0
 23 24  1  0  0  0  0
M  END
> <PUBCHEM_COMPOUND_ID_TYPE>
0

> <PUBCHEM_TOTAL_CHARGE>
0

> <PUBCHEM_SUBSTANCE_ID>
310946072

> <PUBCHEM_SUBSTANCE_VERSION>
1

> <PUBCHEM_EXT_DATASOURCE_NAME>
4488

> <PUBCHEM_EXT_DATASOURCE_REGID>
SCHEMBL16124179

> <PUBCHEM_SUBSTANCE_COMMENT>
InChI=1S/C16H18F3N5O/c17-16(18,19)12-3-1-2-4-13(12)23-5-10-7-24(8-11(10)6-23)15(25)14-20-9-21-22-14/h1-4,10-11,21H,5-9H2,(H,20,22)/t10-,11+
InChIKey=FPKCCBATFLTJRX-PHIMTYICSA-N

> <PUBCHEM_SUBSTANCE_SYNONYM>
SCHEMBL16124179

> <PUBCHEM_XREF_EXT_ID>
SCHEMBL16124179

> <PUBCHEM_EXT_DATASOURCE_URL>
https://www.surechembl.org/

> <PUBCHEM_EXT_SUBSTANCE_URL>
https://www.surechembl.org/chemical/SCHEMBL16124179

> <PUBCHEM_CID_ASSOCIATIONS>
117612043  1

> <PUBCHEM_COORDINATE_TYPE>
1
3

> <PUBCHEM_BONDANNOTATIONS>
10  16  5
11  17  5

$$$$
