310947073
  -OEChem-07211613022D

 28 31  0     1  0  0  0  0  0999 V2000
    1.2777    1.5203    0.0000 F   0  0  0  0  0  0  0  0  0  0  0  0
    2.6039   -0.8086    0.0000 F   0  0  0  0  0  0  0  0  0  0  0  0
   -1.8923   -1.8923    0.0000 O   0  0  0  0  0  0  0  0  0  0  0  0
   -0.3881    0.4366    0.0000 N   0  0  0  0  0  0  0  0  0  0  0  0
    0.0970   -0.2265    0.0000 N   0  0  0  0  0  0  0  0  0  0  0  0
   -0.1293   -1.6982    0.0000 N   0  0  0  0  0  0  0  0  0  0  0  0
   -2.6039   -0.6469    0.0000 N   0  0  0  0  0  0  0  0  0  0  0  0
    2.0216    0.9219    0.0000 N   0  0  0  0  0  0  0  0  0  0  0  0
    2.2966   -2.2157    0.0000 N   0  0  0  0  0  0  0  0  0  0  0  0
   -0.1455    1.2130    0.0000 C   0  0  3  0  0  0  0  0  0  0  0  0
   -1.1644    0.1779    0.0000 C   0  0  0  0  0  0  0  0  0  0  0  0
   -1.1806   -0.6469    0.0000 C   0  0  0  0  0  0  0  0  0  0  0  0
   -0.3881   -0.9057    0.0000 C   0  0  0  0  0  0  0  0  0  0  0  0
    0.4528    1.7790    0.0000 C   0  0  3  0  0  0  0  0  0  0  0  0
   -1.8923   -1.0351    0.0000 C   0  0  0  0  0  0  0  0  0  0  0  0
   -0.9057    1.4879    0.0000 C   0  0  0  0  0  0  0  0  0  0  0  0
   -1.8923    0.5984    0.0000 C   0  0  0  0  0  0  0  0  0  0  0  0
    0.4366    0.6146    0.0000 C   0  0  0  0  0  0  0  0  0  0  0  0
    0.3073    2.5877    0.0000 C   0  0  0  0  0  0  0  0  0  0  0  0
   -2.6039    0.1779    0.0000 C   0  0  0  0  0  0  0  0  0  0  0  0
   -1.0674    2.2966    0.0000 C   0  0  0  0  0  0  0  0  0  0  0  0
    0.6793   -1.8599    0.0000 C   0  0  0  0  0  0  0  0  0  0  0  0
   -0.4852    2.8303    0.0000 C   0  0  0  0  0  0  0  0  0  0  0  0
    1.2292    0.7763    0.0000 C   0  0  0  0  0  0  0  0  0  0  0  0
    1.2292   -1.2454    0.0000 C   0  0  0  0  0  0  0  0  0  0  0  0
    0.9381   -2.6524    0.0000 C   0  0  0  0  0  0  0  0  0  0  0  0
    2.0378   -1.4232    0.0000 C   0  0  0  0  0  0  0  0  0  0  0  0
    1.7467   -2.8303    0.0000 C   0  0  0  0  0  0  0  0  0  0  0  0
 14  1  1  1  0  0  0
  2 27  1  0  0  0  0
  3 15  2  0  0  0  0
  4  5  1  0  0  0  0
  4 10  1  0  0  0  0
  4 11  1  0  0  0  0
  5 13  2  0  0  0  0
  6 13  1  0  0  0  0
  6 22  1  0  0  0  0
  7 15  1  0  0  0  0
  7 20  1  0  0  0  0
  8 24  3  0  0  0  0
  9 27  1  0  0  0  0
  9 28  2  0  0  0  0
 10 14  1  0  0  0  0
 10 16  1  0  0  0  0
 10 18  1  6  0  0  0
 11 12  2  0  0  0  0
 11 17  1  0  0  0  0
 12 13  1  0  0  0  0
 12 15  1  0  0  0  0
 14 19  1  0  0  0  0
 16 21  1  0  0  0  0
 17 20  2  0  0  0  0
 18 24  1  0  0  0  0
 19 23  1  0  0  0  0
 21 23  1  0  0  0  0
 22 25  1  0  0  0  0
 22 26  2  0  0  0  0
 25 27  2  0  0  0  0
 26 28  1  0  0  0  0
M  END
> <PUBCHEM_COMPOUND_ID_TYPE>
0

> <PUBCHEM_TOTAL_CHARGE>
0

> <PUBCHEM_SUBSTANCE_ID>
310947073

> <PUBCHEM_SUBSTANCE_VERSION>
1

> <PUBCHEM_EXT_DATASOURCE_NAME>
4488

> <PUBCHEM_EXT_DATASOURCE_REGID>
SCHEMBL16125227

> <PUBCHEM_SUBSTANCE_COMMENT>
InChI=1S/C19H18F2N6O/c20-14-3-1-2-6-19(14,7-8-22)27-13-5-10-24-18(28)16(13)17(26-27)25-12-4-9-23-15(21)11-12/h4-5,9-11,14H,1-3,6-7H2,(H,24,28)(H,23,25,26)/t14-,19-/m1/s1
InChIKey=YKJUCYZKVUYVKX-AUUYWEPGSA-N

> <PUBCHEM_SUBSTANCE_SYNONYM>
SCHEMBL16125227

> <PUBCHEM_XREF_EXT_ID>
SCHEMBL16125227

> <PUBCHEM_EXT_DATASOURCE_URL>
https://www.surechembl.org/

> <PUBCHEM_EXT_SUBSTANCE_URL>
https://www.surechembl.org/chemical/SCHEMBL16125227

> <PUBCHEM_CID_ASSOCIATIONS>
117612925  1

> <PUBCHEM_COORDINATE_TYPE>
1
3

> <PUBCHEM_BONDANNOTATIONS>
14  1  5
10  18  6

$$$$
