310935659
  -OEChem-07211613022D

 27 29  0     0  0  0  0  0  0999 V2000
    0.0668    0.0000    0.0000 F   0  0  0  0  0  0  0  0  0  0  0  0
    6.6865   -0.0668    0.0000 F   0  0  0  0  0  0  0  0  0  0  0  0
    5.4383   -0.7355    0.0000 F   0  0  0  0  0  0  0  0  0  0  0  0
    4.1456   -4.3239    0.0000 O   0  0  0  0  0  0  0  0  0  0  0  0
    6.6642   -1.4933    0.0000 O   0  0  0  0  0  0  0  0  0  0  0  0
    2.9197   -3.5884    0.0000 N   0  0  0  0  0  0  0  0  0  0  0  0
    6.6196   -2.8975    0.0000 N   0  0  0  0  0  0  0  0  0  0  0  0
    0.4235   -2.1397    0.0000 N   0  0  0  0  0  0  0  0  0  0  0  0
    4.1679   -2.8975    0.0000 C   0  0  0  0  0  0  0  0  0  0  0  0
    4.9926   -2.8975    0.0000 C   0  0  0  0  0  0  0  0  0  0  0  0
    3.7222   -3.5884    0.0000 C   0  0  0  0  0  0  0  0  0  0  0  0
    2.9197   -2.1842    0.0000 C   0  0  0  0  0  0  0  0  0  0  0  0
    3.7222   -2.1842    0.0000 C   0  0  0  0  0  0  0  0  0  0  0  0
    5.3938   -2.1619    0.0000 C   0  0  0  0  0  0  0  0  0  0  0  0
    6.2407   -2.1842    0.0000 C   0  0  0  0  0  0  0  0  0  0  0  0
    2.4963   -2.8975    0.0000 C   0  0  0  0  0  0  0  0  0  0  0  0
    5.3938   -3.5884    0.0000 C   0  0  0  0  0  0  0  0  0  0  0  0
    2.5186   -1.4710    0.0000 C   0  0  0  0  0  0  0  0  0  0  0  0
    1.6939   -1.4488    0.0000 C   0  0  0  0  0  0  0  0  0  0  0  0
    6.2184   -3.6330    0.0000 C   0  0  0  0  0  0  0  0  0  0  0  0
    1.2704   -0.7355    0.0000 C   0  0  0  0  0  0  0  0  0  0  0  0
    1.2481   -2.1619    0.0000 C   0  0  0  0  0  0  0  0  0  0  0  0
    0.4458   -0.7132    0.0000 C   0  0  0  0  0  0  0  0  0  0  0  0
    4.9480   -4.3239    0.0000 C   0  0  0  0  0  0  0  0  0  0  0  0
    6.2630   -0.7578    0.0000 C   0  0  0  0  0  0  0  0  0  0  0  0
    0.0000   -1.4264    0.0000 C   0  0  0  0  0  0  0  0  0  0  0  0
    5.5498   -3.7890    0.0000 C   0  0  0  0  0  0  0  0  0  0  0  0
  1 23  1  0  0  0  0
  2 25  1  0  0  0  0
  3 25  1  0  0  0  0
  4 11  1  0  0  0  0
  4 24  1  0  0  0  0
  5 15  1  0  0  0  0
  5 25  1  0  0  0  0
  6 11  1  0  0  0  0
  6 16  2  0  0  0  0
  7 15  1  0  0  0  0
  7 20  2  0  0  0  0
  8 22  1  0  0  0  0
  8 26  2  0  0  0  0
  9 10  1  0  0  0  0
  9 11  2  0  0  0  0
  9 13  1  0  0  0  0
 10 14  1  0  0  0  0
 10 17  2  0  0  0  0
 12 13  2  0  0  0  0
 12 16  1  0  0  0  0
 12 18  1  0  0  0  0
 14 15  2  0  0  0  0
 17 20  1  0  0  0  0
 18 19  1  0  0  0  0
 19 21  1  0  0  0  0
 19 22  2  0  0  0  0
 21 23  2  0  0  0  0
 23 26  1  0  0  0  0
 24 27  1  0  0  0  0
M  END
> <PUBCHEM_COMPOUND_ID_TYPE>
0

> <PUBCHEM_TOTAL_CHARGE>
0

> <PUBCHEM_SUBSTANCE_ID>
310935659

> <PUBCHEM_SUBSTANCE_VERSION>
1

> <PUBCHEM_EXT_DATASOURCE_NAME>
4488

> <PUBCHEM_EXT_DATASOURCE_REGID>
SCHEMBL16113240

> <PUBCHEM_SUBSTANCE_COMMENT>
InChI=1S/C19H16F3N3O2/c1-2-26-18-16(14-3-4-24-17(8-14)27-19(21)22)7-13(10-25-18)5-12-6-15(20)11-23-9-12/h3-4,6-11,19H,2,5H2,1H3
InChIKey=BDQIQXJBSQMODW-UHFFFAOYSA-N

> <PUBCHEM_SUBSTANCE_SYNONYM>
SCHEMBL16113240

> <PUBCHEM_XREF_EXT_ID>
SCHEMBL16113240

> <PUBCHEM_EXT_DATASOURCE_URL>
https://www.surechembl.org/

> <PUBCHEM_EXT_SUBSTANCE_URL>
https://www.surechembl.org/chemical/SCHEMBL16113240

> <PUBCHEM_CID_ASSOCIATIONS>
117603670  1

> <PUBCHEM_COORDINATE_TYPE>
1
3

$$$$
