310942726
  -OEChem-07211613022D

 59 64  0     1  0  0  0  0  0999 V2000
    3.1649    4.9249    0.0000 F   0  0  0  0  0  0  0  0  0  0  0  0
   -0.1627    4.5700    0.0000 F   0  0  0  0  0  0  0  0  0  0  0  0
    1.9966   -1.7599    0.0000 F   0  0  0  0  0  0  0  0  0  0  0  0
    1.4642    2.1149    0.0000 O   0  0  0  0  0  0  0  0  0  0  0  0
    5.0876    0.0296    0.0000 O   0  0  0  0  0  0  0  0  0  0  0  0
   -1.4198    1.2866    0.0000 O   0  0  0  0  0  0  0  0  0  0  0  0
   -5.9750   -2.9579    0.0000 O   0  0  0  0  0  0  0  0  0  0  0  0
   -4.4960   -5.5017    0.0000 O   0  0  0  0  0  0  0  0  0  0  0  0
   -2.8691    1.2866    0.0000 O   0  0  0  0  0  0  0  0  0  0  0  0
   -4.3038   -1.2128    0.0000 O   0  0  0  0  0  0  0  0  0  0  0  0
    3.5791    2.6029    0.0000 N   0  0  0  0  0  0  0  0  0  0  0  0
    2.1740    0.8725    0.0000 N   0  0  0  0  0  0  0  0  0  0  0  0
    2.2184    2.6029    0.0000 N   0  0  0  0  0  0  0  0  0  0  0  0
    0.7395    0.8725    0.0000 N   0  0  0  0  0  0  0  0  0  0  0  0
    0.1331   -0.6508    0.0000 N   0  0  0  0  0  0  0  0  0  0  0  0
   -5.0284   -4.1114    0.0000 N   0  0  0  0  0  0  0  0  0  0  0  0
   -2.1445    0.0444    0.0000 N   0  0  0  0  0  0  0  0  0  0  0  0
   -3.5938   -2.4402    0.0000 N   0  0  0  0  0  0  0  0  0  0  0  0
    2.9135    2.1149    0.0000 C   0  0  0  0  0  0  0  0  0  0  0  0
    2.8988    1.3015    0.0000 C   0  0  3  0  0  0  0  0  0  0  0  0
    2.4846    3.4164    0.0000 C   0  0  0  0  0  0  0  0  0  0  0  0
    3.6382    0.8725    0.0000 C   0  0  0  0  0  0  0  0  0  0  0  0
    3.3276    3.4016    0.0000 C   0  0  0  0  0  0  0  0  0  0  0  0
    1.9966    4.0671    0.0000 C   0  0  0  0  0  0  0  0  0  0  0  0
    1.4493    1.2719    0.0000 C   0  0  0  0  0  0  0  0  0  0  0  0
    4.3925    2.3663    0.0000 C   0  0  0  0  0  0  0  0  0  0  0  0
    2.1740    0.0444    0.0000 C   0  0  0  0  0  0  0  0  0  0  0  0
    2.3220    4.8509    0.0000 C   0  0  0  0  0  0  0  0  0  0  0  0
    1.1684    3.9932    0.0000 C   0  0  0  0  0  0  0  0  0  0  0  0
    1.4642   -0.3697    0.0000 C   0  0  3  0  0  0  0  0  0  0  0  0
    3.6234    0.0444    0.0000 C   0  0  0  0  0  0  0  0  0  0  0  0
    4.3333    1.2866    0.0000 C   0  0  0  0  0  0  0  0  0  0  0  0
    4.9693    2.9431    0.0000 C   0  0  0  0  0  0  0  0  0  0  0  0
    0.6508    4.6735    0.0000 C   0  0  0  0  0  0  0  0  0  0  0  0
    1.8487    5.5017    0.0000 C   0  0  0  0  0  0  0  0  0  0  0  0
    1.3606   -1.1979    0.0000 C   0  0  3  0  0  0  0  0  0  0  0  0
    1.0205    5.4277    0.0000 C   0  0  0  0  0  0  0  0  0  0  0  0
    5.0728    0.8725    0.0000 C   0  0  0  0  0  0  0  0  0  0  0  0
    4.3777   -0.3697    0.0000 C   0  0  0  0  0  0  0  0  0  0  0  0
    0.6951   -0.0296    0.0000 C   0  0  0  0  0  0  0  0  0  0  0  0
    5.7531    2.7508    0.0000 C   0  0  0  0  0  0  0  0  0  0  0  0
    4.7770    3.7270    0.0000 C   0  0  0  0  0  0  0  0  0  0  0  0
    0.0000    1.2866    0.0000 C   0  0  3  0  0  0  0  0  0  0  0  0
    0.5620   -1.3754    0.0000 C   0  0  0  0  0  0  0  0  0  0  0  0
    6.3299    3.3129    0.0000 C   0  0  0  0  0  0  0  0  0  0  0  0
    5.3242    4.3038    0.0000 C   0  0  0  0  0  0  0  0  0  0  0  0
   -0.6803    0.8725    0.0000 C   0  0  0  0  0  0  0  0  0  0  0  0
    6.1228    4.0967    0.0000 C   0  0  0  0  0  0  0  0  0  0  0  0
    0.0148    2.1001    0.0000 C   0  0  0  0  0  0  0  0  0  0  0  0
   -5.7975   -3.7713    0.0000 C   0  0  0  0  0  0  0  0  0  0  0  0
   -5.1615   -4.9101    0.0000 C   0  0  0  0  0  0  0  0  0  0  0  0
   -2.1297    0.8725    0.0000 C   0  0  0  0  0  0  0  0  0  0  0  0
   -5.9453   -5.1023    0.0000 C   0  0  0  0  0  0  0  0  0  0  0  0
   -6.3299   -4.3925    0.0000 C   0  0  0  0  0  0  0  0  0  0  0  0
   -4.3185   -3.6973    0.0000 C   0  0  0  0  0  0  0  0  0  0  0  0
   -4.2889   -2.8543    0.0000 C   0  0  0  0  0  0  0  0  0  0  0  0
   -2.8543   -0.3697    0.0000 C   0  0  0  0  0  0  0  0  0  0  0  0
   -3.5791   -1.6120    0.0000 C   0  0  0  0  0  0  0  0  0  0  0  0
   -2.8691   -1.1979    0.0000 C   0  0  0  0  0  0  0  0  0  0  0  0
  1 28  1  0  0  0  0
  2 34  1  0  0  0  0
 36  3  1  1  0  0  0
  4 25  2  0  0  0  0
  5 38  1  0  0  0  0
  5 39  1  0  0  0  0
  6 47  1  0  0  0  0
  6 52  1  0  0  0  0
  7 50  2  0  0  0  0
  8 51  2  0  0  0  0
  9 52  2  0  0  0  0
 10 58  2  0  0  0  0
 11 19  1  0  0  0  0
 11 23  1  0  0  0  0
 11 26  1  0  0  0  0
 20 12  1  1  0  0  0
 12 25  1  0  0  0  0
 12 27  1  0  0  0  0
 13 19  2  0  0  0  0
 13 21  1  0  0  0  0
 14 25  1  0  0  0  0
 14 43  1  0  0  0  0
 15 40  1  0  0  0  0
 15 44  1  0  0  0  0
 16 50  1  0  0  0  0
 16 51  1  0  0  0  0
 16 55  1  0  0  0  0
 17 52  1  0  0  0  0
 17 57  1  0  0  0  0
 18 56  1  0  0  0  0
 18 58  1  0  0  0  0
 19 20  1  0  0  0  0
 20 22  1  0  0  0  0
 21 23  2  0  0  0  0
 21 24  1  0  0  0  0
 22 31  1  0  0  0  0
 22 32  1  0  0  0  0
 24 28  2  0  0  0  0
 24 29  1  0  0  0  0
 26 33  1  0  0  0  0
 30 27  1  1  0  0  0
 28 35  1  0  0  0  0
 29 34  2  0  0  0  0
 30 36  1  0  0  0  0
 30 40  1  0  0  0  0
 31 39  1  0  0  0  0
 32 38  1  0  0  0  0
 33 41  2  0  0  0  0
 33 42  1  0  0  0  0
 34 37  1  0  0  0  0
 35 37  2  0  0  0  0
 36 44  1  0  0  0  0
 41 45  1  0  0  0  0
 42 46  2  0  0  0  0
 43 47  1  0  0  0  0
 43 49  1  6  0  0  0
 45 48  2  0  0  0  0
 46 48  1  0  0  0  0
 50 54  1  0  0  0  0
 51 53  1  0  0  0  0
 53 54  2  0  0  0  0
 55 56  1  0  0  0  0
 57 59  1  0  0  0  0
 58 59  1  0  0  0  0
M  END
> <PUBCHEM_COMPOUND_ID_TYPE>
0

> <PUBCHEM_TOTAL_CHARGE>
0

> <PUBCHEM_SUBSTANCE_ID>
310942726

> <PUBCHEM_SUBSTANCE_VERSION>
1

> <PUBCHEM_EXT_DATASOURCE_NAME>
4488

> <PUBCHEM_EXT_DATASOURCE_REGID>
SCHEMBL16120773

> <PUBCHEM_SUBSTANCE_COMMENT>
InChI=1S/C41H49F3N8O7/c1-26(25-59-41(57)47-14-11-35(53)46-15-16-51-36(54)9-10-37(51)55)48-40(56)52(23-29-20-45-21-33(29)44)38(28-12-17-58-18-13-28)39-49-34(31-19-30(42)7-8-32(31)43)24-50(39)22-27-5-3-2-4-6-27/h2-10,19,24,26,28-29,33,38,45H,11-18,20-23,25H2,1H3,(H,46,53)(H,47,57)(H,48,56)/t26-,29-,33-,38+/m0/s1
InChIKey=WNCTUXLKGYJLBZ-NBZVVOMMSA-N

> <PUBCHEM_SUBSTANCE_SYNONYM>
SCHEMBL16120773

> <PUBCHEM_XREF_EXT_ID>
SCHEMBL16120773

> <PUBCHEM_EXT_DATASOURCE_URL>
https://www.surechembl.org/

> <PUBCHEM_EXT_SUBSTANCE_URL>
https://www.surechembl.org/chemical/SCHEMBL16120773

> <PUBCHEM_CID_ASSOCIATIONS>
117609246  1

> <PUBCHEM_COORDINATE_TYPE>
1
3

> <PUBCHEM_BONDANNOTATIONS>
20  12  5
30  27  5
36  3  5
43  49  6

$$$$
