310945436
  -OEChem-07211613022D

 26 29  0     0  0  0  0  0  0999 V2000
   -1.8435    1.1581    0.0000 Cl  0  0  0  0  0  0  0  0  0  0  0  0
   -3.6240   -1.8198    0.0000 Cl  0  0  0  0  0  0  0  0  0  0  0  0
    2.4106   -2.0404    0.0000 S   0  0  0  0  0  0  0  0  0  0  0  0
    0.1261    1.3787    0.0000 F   0  0  0  0  0  0  0  0  0  0  0  0
    0.9453    2.2296    0.0000 F   0  0  0  0  0  0  0  0  0  0  0  0
    1.7647    1.3787    0.0000 F   0  0  0  0  0  0  0  0  0  0  0  0
   -0.5515    0.3546    0.0000 N   0  0  0  0  0  0  0  0  0  0  0  0
   -0.5515   -1.0320    0.0000 N   0  0  0  0  0  0  0  0  0  0  0  0
    1.6386    0.0867    0.0000 N   0  0  0  0  0  0  0  0  0  0  0  0
    0.9296   -1.1895    0.0000 N   0  0  0  0  0  0  0  0  0  0  0  0
    0.2206    0.0709    0.0000 C   0  0  0  0  0  0  0  0  0  0  0  0
    0.9138    0.4963    0.0000 C   0  0  0  0  0  0  0  0  0  0  0  0
    0.2049   -0.7799    0.0000 C   0  0  0  0  0  0  0  0  0  0  0  0
   -1.0398   -0.3546    0.0000 C   0  0  0  0  0  0  0  0  0  0  0  0
    1.6229   -0.7799    0.0000 C   0  0  0  0  0  0  0  0  0  0  0  0
    0.9296    1.3629    0.0000 C   0  0  0  0  0  0  0  0  0  0  0  0
   -1.8435   -0.3387    0.0000 C   0  0  0  0  0  0  0  0  0  0  0  0
    2.3476   -1.2054    0.0000 C   0  0  0  0  0  0  0  0  0  0  0  0
   -2.2531    0.3703    0.0000 C   0  0  0  0  0  0  0  0  0  0  0  0
   -2.2531   -1.0950    0.0000 C   0  0  0  0  0  0  0  0  0  0  0  0
    3.0725   -0.8744    0.0000 C   0  0  0  0  0  0  0  0  0  0  0  0
   -3.0566   -1.0950    0.0000 C   0  0  0  0  0  0  0  0  0  0  0  0
   -3.0409    0.3703    0.0000 C   0  0  0  0  0  0  0  0  0  0  0  0
   -3.4348   -0.3703    0.0000 C   0  0  0  0  0  0  0  0  0  0  0  0
    3.2300   -2.2296    0.0000 C   0  0  0  0  0  0  0  0  0  0  0  0
    3.6240   -1.5047    0.0000 C   0  0  0  0  0  0  0  0  0  0  0  0
  1 19  1  0  0  0  0
  2 22  1  0  0  0  0
  3 18  1  0  0  0  0
  3 25  1  0  0  0  0
  4 16  1  0  0  0  0
  5 16  1  0  0  0  0
  6 16  1  0  0  0  0
  7 11  1  0  0  0  0
  7 14  2  0  0  0  0
  8 13  1  0  0  0  0
  8 14  1  0  0  0  0
  9 12  2  0  0  0  0
  9 15  1  0  0  0  0
 10 13  1  0  0  0  0
 10 15  2  0  0  0  0
 11 12  1  0  0  0  0
 11 13  2  0  0  0  0
 12 16  1  0  0  0  0
 14 17  1  0  0  0  0
 15 18  1  0  0  0  0
 17 19  2  0  0  0  0
 17 20  1  0  0  0  0
 18 21  2  0  0  0  0
 19 23  1  0  0  0  0
 20 22  2  0  0  0  0
 21 26  1  0  0  0  0
 22 24  1  0  0  0  0
 23 24  2  0  0  0  0
 25 26  2  0  0  0  0
M  END
> <PUBCHEM_COMPOUND_ID_TYPE>
0

> <PUBCHEM_TOTAL_CHARGE>
0

> <PUBCHEM_SUBSTANCE_ID>
310945436

> <PUBCHEM_SUBSTANCE_VERSION>
1

> <PUBCHEM_EXT_DATASOURCE_NAME>
4488

> <PUBCHEM_EXT_DATASOURCE_REGID>
SCHEMBL16123534

> <PUBCHEM_SUBSTANCE_COMMENT>
InChI=1S/C16H7Cl2F3N4S/c17-7-3-4-9(18)8(6-7)13-22-11-12(16(19,20)21)23-14(25-15(11)24-13)10-2-1-5-26-10/h1-6H,(H,22,23,24,25)
InChIKey=UABLRBLBDUMJJW-UHFFFAOYSA-N

> <PUBCHEM_SUBSTANCE_SYNONYM>
SCHEMBL16123534

> <PUBCHEM_XREF_EXT_ID>
SCHEMBL16123534

> <PUBCHEM_EXT_DATASOURCE_URL>
https://www.surechembl.org/

> <PUBCHEM_EXT_SUBSTANCE_URL>
https://www.surechembl.org/chemical/SCHEMBL16123534

> <PUBCHEM_CID_ASSOCIATIONS>
117611481  1

> <PUBCHEM_COORDINATE_TYPE>
1
3

$$$$
