310928865
  -OEChem-07211613022D

 11 11  0     0  0  0  0  0  0999 V2000
    1.7246    0.2898    0.0000 F   0  0  0  0  0  0  0  0  0  0  0  0
    1.0101   -0.9477    0.0000 F   0  0  0  0  0  0  0  0  0  0  0  0
    1.7246   -0.5352    0.0000 F   0  0  0  0  0  0  0  0  0  0  0  0
   -1.1725    0.2128    0.0000 O   0  0  0  0  0  0  0  0  0  0  0  0
    0.2956    1.1148    0.0000 O   0  0  0  0  0  0  0  0  0  0  0  0
    1.0101   -0.1227    0.0000 C   0  0  0  0  0  0  0  0  0  0  0  0
    0.2956    0.2898    0.0000 C   0  0  0  0  0  0  0  0  0  0  0  0
   -0.4189   -0.1227    0.0000 C   0  0  0  0  0  0  0  0  0  0  0  0
   -0.5051   -0.9432    0.0000 C   0  0  0  0  0  0  0  0  0  0  0  0
   -1.7246   -0.4003    0.0000 C   0  0  0  0  0  0  0  0  0  0  0  0
   -1.3121   -1.1148    0.0000 C   0  0  0  0  0  0  0  0  0  0  0  0
  1  6  1  0  0  0  0
  2  6  1  0  0  0  0
  3  6  1  0  0  0  0
  4  8  1  0  0  0  0
  4 10  1  0  0  0  0
  5  7  2  0  0  0  0
  6  7  1  0  0  0  0
  7  8  1  0  0  0  0
  8  9  2  0  0  0  0
  9 11  1  0  0  0  0
 10 11  2  0  0  0  0
M  END
> <PUBCHEM_COMPOUND_ID_TYPE>
0

> <PUBCHEM_TOTAL_CHARGE>
0

> <PUBCHEM_SUBSTANCE_ID>
310928865

> <PUBCHEM_SUBSTANCE_VERSION>
1

> <PUBCHEM_EXT_DATASOURCE_NAME>
11752

> <PUBCHEM_EXT_DATASOURCE_REGID>
BD161810

> <PUBCHEM_SUBSTANCE_SYNONYM>
18207-47-1
2,2,2-Trifluoro-1-(furan-2-yl)ethanone

> <PUBCHEM_GENERIC_REGISTRY_NAME>
18207-47-1

> <PUBCHEM_XREF_EXT_ID>
BD161810

> <PUBCHEM_EXT_DATASOURCE_URL>
http://www.bidepharmatech.com/en/index.html

> <PUBCHEM_EXT_SUBSTANCE_URL>
http://www.bidepharmatech.com/en/goodsview_goodscode_BD161810.html

> <PUBCHEM_CID_ASSOCIATIONS>
140350  1

> <PUBCHEM_COORDINATE_TYPE>
1
3

$$$$
