310935246
  -OEChem-07211613022D

 42 46  0     1  0  0  0  0  0999 V2000
    5.6377    1.8673    0.0000 O   0  0  0  0  0  0  0  0  0  0  0  0
    5.0085    3.9073    0.0000 O   0  0  0  0  0  0  0  0  0  0  0  0
    3.6746    2.7063    0.0000 O   0  0  0  0  0  0  0  0  0  0  0  0
    9.2882    3.4465    0.0000 O   0  0  0  0  0  0  0  0  0  0  0  0
    1.6558    0.5512    0.0000 O   0  0  0  0  0  0  0  0  0  0  0  0
    2.1713   -1.3727    0.0000 O   0  0  0  0  0  0  0  0  0  0  0  0
    9.0965    0.3803    0.0000 O   0  0  0  0  0  0  0  0  0  0  0  0
    6.5629    3.0099    0.0000 N   0  0  0  0  0  0  0  0  0  0  0  0
    7.5549    3.9031    0.0000 N   0  0  0  0  0  0  0  0  0  0  0  0
    7.4489    1.7904    0.0000 N   0  0  0  0  0  0  0  0  0  0  0  0
    3.5797    1.0667    0.0000 N   0  0  0  0  0  0  0  0  0  0  0  0
    8.8466    2.0875    0.0000 N   0  0  0  0  0  0  0  0  0  0  0  0
    4.0952   -0.8572    0.0000 N   0  0  0  0  0  0  0  0  0  0  0  0
    8.4050    0.7285    0.0000 N   0  0  0  0  0  0  0  0  0  0  0  0
    6.2386   -0.4447    0.0000 N   0  0  3  0  0  0  0  0  0  0  0  0
    9.8110   -0.8572    0.0000 N   0  0  0  0  0  0  0  0  0  0  0  0
   11.2399   -1.6822    0.0000 N   0  0  0  0  0  0  0  0  0  0  0  0
    5.8092    2.6743    0.0000 C   0  0  3  0  0  0  0  0  0  0  0  0
    7.2774    2.5974    0.0000 C   0  0  0  0  0  0  0  0  0  0  0  0
    7.8905    3.1494    0.0000 C   0  0  0  0  0  0  0  0  0  0  0  0
    5.0947    3.0868    0.0000 C   0  0  3  0  0  0  0  0  0  0  0  0
    4.8172    1.7811    0.0000 C   0  0  3  0  0  0  0  0  0  0  0  0
    4.4816    2.5348    0.0000 C   0  0  3  0  0  0  0  0  0  0  0  0
    6.7344    3.8169    0.0000 C   0  0  0  0  0  0  0  0  0  0  0  0
    3.1672    0.3522    0.0000 C   0  0  0  0  0  0  0  0  0  0  0  0
    8.6751    2.8945    0.0000 C   0  0  0  0  0  0  0  0  0  0  0  0
    3.3807   -0.4447    0.0000 C   0  0  0  0  0  0  0  0  0  0  0  0
    2.3703    0.1387    0.0000 C   0  0  0  0  0  0  0  0  0  0  0  0
    2.5838   -0.6582    0.0000 C   0  0  0  0  0  0  0  0  0  0  0  0
    4.4047    1.0667    0.0000 C   0  0  0  0  0  0  0  0  0  0  0  0
    8.2335    1.5355    0.0000 C   0  0  0  0  0  0  0  0  0  0  0  0
    4.8097   -0.4447    0.0000 C   0  0  0  0  0  0  0  0  0  0  0  0
    5.5241   -0.8572    0.0000 C   0  0  0  0  0  0  0  0  0  0  0  0
    6.9531   -0.8572    0.0000 C   0  0  0  0  0  0  0  0  0  0  0  0
    9.0965   -0.4447    0.0000 C   0  0  0  0  0  0  0  0  0  0  0  0
    6.2386    0.3803    0.0000 C   0  0  0  0  0  0  0  0  0  0  0  0
    7.6675   -0.4447    0.0000 C   0  0  0  0  0  0  0  0  0  0  0  0
    8.3821   -0.8572    0.0000 C   0  0  0  0  0  0  0  0  0  0  0  0
   10.5255   -0.4447    0.0000 C   0  0  0  0  0  0  0  0  0  0  0  0
    9.8110   -1.6822    0.0000 C   0  0  0  0  0  0  0  0  0  0  0  0
   11.2399   -0.8572    0.0000 C   0  0  0  0  0  0  0  0  0  0  0  0
   10.5255   -2.0947    0.0000 C   0  0  0  0  0  0  0  0  0  0  0  0
 18  1  1  6  0  0  0
  1 22  1  0  0  0  0
  2 21  1  0  0  0  0
  3 23  1  0  0  0  0
  4 26  2  0  0  0  0
  5 28  2  0  0  0  0
  6 29  2  0  0  0  0
  7 35  2  0  0  0  0
  8 18  1  0  0  0  0
  8 19  1  0  0  0  0
  8 24  1  0  0  0  0
  9 20  1  0  0  0  0
  9 24  2  0  0  0  0
 10 19  1  0  0  0  0
 10 31  2  0  0  0  0
 11 25  1  0  0  0  0
 11 30  1  0  0  0  0
 12 26  1  0  0  0  0
 12 31  1  0  0  0  0
 13 27  1  0  0  0  0
 13 32  1  0  0  0  0
 14 31  1  0  0  0  0
 15 33  1  0  0  0  0
 15 34  1  0  0  0  0
 15 36  1  0  0  0  0
 16 35  1  0  0  0  0
 16 39  1  0  0  0  0
 16 40  1  0  0  0  0
 17 41  1  0  0  0  0
 17 42  1  0  0  0  0
 18 21  1  0  0  0  0
 19 20  2  0  0  0  0
 20 26  1  0  0  0  0
 21 23  1  0  0  0  0
 22 23  1  0  0  0  0
 22 30  1  6  0  0  0
 25 27  2  0  0  0  0
 25 28  1  0  0  0  0
 27 29  1  0  0  0  0
 28 29  1  0  0  0  0
 32 33  1  0  0  0  0
 34 37  1  0  0  0  0
 35 38  1  0  0  0  0
 37 38  2  0  0  0  0
 39 41  1  0  0  0  0
 40 42  1  0  0  0  0
M  END
> <PUBCHEM_COMPOUND_ID_TYPE>
0

> <PUBCHEM_TOTAL_CHARGE>
0

> <PUBCHEM_SUBSTANCE_ID>
310935246

> <PUBCHEM_SUBSTANCE_VERSION>
1

> <PUBCHEM_EXT_DATASOURCE_NAME>
4488

> <PUBCHEM_EXT_DATASOURCE_REGID>
SCHEMBL16112774

> <PUBCHEM_SUBSTANCE_COMMENT>
InChI=1S/C25H34N10O7/c1-33(7-2-3-14(36)34-9-4-27-5-10-34)8-6-28-15-16(20(39)19(15)38)29-11-13-18(37)21(40)24(42-13)35-12-30-17-22(35)31-25(26)32-23(17)41/h2-3,12-13,18,21,24,27-29,37,40H,4-11H2,1H3,(H3,26,31,32,41)/b3-2+/t13-,18?,21?,24-/m1/s1
InChIKey=NGTNJIRGKHQFTQ-ZBSQXMHBSA-N

> <PUBCHEM_SUBSTANCE_SYNONYM>
SCHEMBL16112774

> <PUBCHEM_XREF_EXT_ID>
SCHEMBL16112774

> <PUBCHEM_EXT_DATASOURCE_URL>
https://www.surechembl.org/

> <PUBCHEM_EXT_SUBSTANCE_URL>
https://www.surechembl.org/chemical/SCHEMBL16112774

> <PUBCHEM_CID_ASSOCIATIONS>
117603322  1

> <PUBCHEM_COORDINATE_TYPE>
1
3

> <PUBCHEM_BONDANNOTATIONS>
18  1  6
22  30  6

$$$$
