310934503
  -OEChem-07211613022D

 28 30  0     0  0  0  0  0  0999 V2000
    1.5394    0.4125    0.0000 S   0  0  0  0  0  0  0  0  0  0  0  0
    5.4434    0.4125    0.0000 O   0  0  0  0  0  0  0  0  0  0  0  0
    4.7290   -0.8250    0.0000 O   0  0  0  0  0  0  0  0  0  0  0  0
    1.5394   -0.4125    0.0000 O   0  0  0  0  0  0  0  0  0  0  0  0
    1.5394    1.2375    0.0000 O   0  0  0  0  0  0  0  0  0  0  0  0
    2.3644    0.4125    0.0000 N   0  0  0  0  0  0  0  0  0  0  0  0
    4.0144    0.4125    0.0000 C   0  0  0  0  0  0  0  0  0  0  0  0
    4.7290    0.0000    0.0000 C   0  0  0  0  0  0  0  0  0  0  0  0
    3.6019    1.1269    0.0000 C   0  0  0  0  0  0  0  0  0  0  0  0
    3.6019   -0.3019    0.0000 C   0  0  0  0  0  0  0  0  0  0  0  0
    4.7290    0.8250    0.0000 C   0  0  0  0  0  0  0  0  0  0  0  0
    2.7769    1.1269    0.0000 C   0  0  0  0  0  0  0  0  0  0  0  0
    2.7769   -0.3019    0.0000 C   0  0  0  0  0  0  0  0  0  0  0  0
    4.7290    1.6500    0.0000 C   0  0  0  0  0  0  0  0  0  0  0  0
    5.4434    2.0625    0.0000 C   0  0  0  0  0  0  0  0  0  0  0  0
    4.0144    2.0625    0.0000 C   0  0  0  0  0  0  0  0  0  0  0  0
    4.7290    3.3000    0.0000 C   0  0  0  0  0  0  0  0  0  0  0  0
    5.4434    2.8875    0.0000 C   0  0  0  0  0  0  0  0  0  0  0  0
    4.0144    2.8875    0.0000 C   0  0  0  0  0  0  0  0  0  0  0  0
    4.7290    4.1250    0.0000 C   0  0  0  0  0  0  0  0  0  0  0  0
    0.7144    0.4125    0.0000 C   0  0  0  0  0  0  0  0  0  0  0  0
    6.1579    0.0000    0.0000 C   0  0  0  0  0  0  0  0  0  0  0  0
    4.0144    4.5375    0.0000 C   0  0  0  0  0  0  0  0  0  0  0  0
    5.4434    4.5375    0.0000 C   0  0  0  0  0  0  0  0  0  0  0  0
    4.0144    5.3625    0.0000 C   0  0  0  0  0  0  0  0  0  0  0  0
    5.4434    5.3625    0.0000 C   0  0  0  0  0  0  0  0  0  0  0  0
    4.7290    5.7750    0.0000 C   0  0  0  0  0  0  0  0  0  0  0  0
    6.8724    0.4125    0.0000 C   0  0  0  0  0  0  0  0  0  0  0  0
  1  4  2  0  0  0  0
  1  5  2  0  0  0  0
  1  6  1  0  0  0  0
  1 21  1  0  0  0  0
  2  8  1  0  0  0  0
  2 22  1  0  0  0  0
  3  8  2  0  0  0  0
  6 12  1  0  0  0  0
  6 13  1  0  0  0  0
  7  8  1  0  0  0  0
  7  9  1  0  0  0  0
  7 10  1  0  0  0  0
  7 11  1  0  0  0  0
  9 12  1  0  0  0  0
 10 13  1  0  0  0  0
 11 14  1  0  0  0  0
 14 15  2  0  0  0  0
 14 16  1  0  0  0  0
 15 18  1  0  0  0  0
 16 19  2  0  0  0  0
 17 18  2  0  0  0  0
 17 19  1  0  0  0  0
 17 20  1  0  0  0  0
 20 23  2  0  0  0  0
 20 24  1  0  0  0  0
 22 28  1  0  0  0  0
 23 25  1  0  0  0  0
 24 26  2  0  0  0  0
 25 27  2  0  0  0  0
 26 27  1  0  0  0  0
M  END
> <PUBCHEM_COMPOUND_ID_TYPE>
0

> <PUBCHEM_TOTAL_CHARGE>
0

> <PUBCHEM_SUBSTANCE_ID>
310934503

> <PUBCHEM_SUBSTANCE_VERSION>
1

> <PUBCHEM_EXT_DATASOURCE_NAME>
4488

> <PUBCHEM_EXT_DATASOURCE_REGID>
SCHEMBL16111988

> <PUBCHEM_SUBSTANCE_COMMENT>
InChI=1S/C22H27NO4S/c1-3-27-21(24)22(13-15-23(16-14-22)28(2,25)26)17-18-9-11-20(12-10-18)19-7-5-4-6-8-19/h4-12H,3,13-17H2,1-2H3
InChIKey=IJEHNCSONMQAKE-UHFFFAOYSA-N

> <PUBCHEM_SUBSTANCE_SYNONYM>
SCHEMBL16111988

> <PUBCHEM_XREF_EXT_ID>
SCHEMBL16111988

> <PUBCHEM_EXT_DATASOURCE_URL>
https://www.surechembl.org/

> <PUBCHEM_EXT_SUBSTANCE_URL>
https://www.surechembl.org/chemical/SCHEMBL16111988

> <PUBCHEM_CID_ASSOCIATIONS>
117602701  1

> <PUBCHEM_COORDINATE_TYPE>
1
3

$$$$
