310943503
  -OEChem-07211613022D

 37 40  0     1  0  0  0  0  0999 V2000
    4.2953   -1.8470    0.0000 F   0  0  0  0  0  0  0  0  0  0  0  0
   -2.8693   -0.2147    0.0000 O   0  0  0  0  0  0  0  0  0  0  0  0
   -4.3125    2.2765    0.0000 O   0  0  0  0  0  0  0  0  0  0  0  0
    1.4432   -0.2147    0.0000 O   0  0  0  0  0  0  0  0  0  0  0  0
   -3.5909   -2.2765    0.0000 O   0  0  0  0  0  0  0  0  0  0  0  0
   -2.8693    1.4518    0.0000 N   0  0  0  0  0  0  0  0  0  0  0  0
   -1.4260   -0.1976    0.0000 N   0  0  0  0  0  0  0  0  0  0  0  0
    0.7216    2.7060    0.0000 N   0  0  0  0  0  0  0  0  0  0  0  0
    2.1477    1.0395    0.0000 N   0  0  0  0  0  0  0  0  0  0  0  0
    4.3125   -1.0223    0.0000 N   0  0  0  0  0  0  0  0  0  0  0  0
   -0.7044    1.0395    0.0000 C   0  0  0  0  0  0  0  0  0  0  0  0
   -0.0172    1.4518    0.0000 C   0  0  0  0  0  0  0  0  0  0  0  0
   -2.1477    1.0567    0.0000 C   0  0  0  0  0  0  0  0  0  0  0  0
   -2.1649    0.2147    0.0000 C   0  0  0  0  0  0  0  0  0  0  0  0
   -1.4432    1.4518    0.0000 C   0  0  0  0  0  0  0  0  0  0  0  0
    0.0000    2.2937    0.0000 C   0  0  0  0  0  0  0  0  0  0  0  0
    0.7388    1.0395    0.0000 C   0  0  0  0  0  0  0  0  0  0  0  0
    1.4260    1.4518    0.0000 C   0  0  0  0  0  0  0  0  0  0  0  0
   -0.7216    0.1976    0.0000 C   0  0  0  0  0  0  0  0  0  0  0  0
    2.8693   -0.1976    0.0000 C   0  0  0  0  0  0  0  0  0  0  0  0
    2.1649    0.2319    0.0000 C   0  0  0  0  0  0  0  0  0  0  0  0
    1.4432    2.2765    0.0000 C   0  0  0  0  0  0  0  0  0  0  0  0
    3.5909   -1.4346    0.0000 C   0  0  0  0  0  0  0  0  0  0  0  0
    3.5909   -2.2593    0.0000 C   0  0  0  0  0  0  0  0  0  0  0  0
   -2.8864    2.2937    0.0000 C   0  0  0  0  0  0  0  0  0  0  0  0
   -3.5566    1.0567    0.0000 C   0  0  0  0  0  0  0  0  0  0  0  0
    2.8693   -1.0223    0.0000 C   0  0  0  0  0  0  0  0  0  0  0  0
    3.5909    0.2147    0.0000 C   0  0  0  0  0  0  0  0  0  0  0  0
   -0.7216    2.6717    0.0000 C   0  0  0  0  0  0  0  0  0  0  0  0
    4.2953   -0.1976    0.0000 C   0  0  0  0  0  0  0  0  0  0  0  0
   -3.6081    2.6889    0.0000 C   0  0  0  0  0  0  0  0  0  0  0  0
   -4.2953    1.4518    0.0000 C   0  0  0  0  0  0  0  0  0  0  0  0
   -2.8864   -1.0223    0.0000 C   0  0  0  0  0  0  0  0  0  0  0  0
    2.8693   -2.7060    0.0000 C   0  0  0  0  0  0  0  0  0  0  0  0
    4.3125   -2.7060    0.0000 C   0  0  0  0  0  0  0  0  0  0  0  0
   -3.5737   -1.4346    0.0000 C   0  0  3  0  0  0  0  0  0  0  0  0
   -4.2953   -1.0223    0.0000 C   0  0  0  0  0  0  0  0  0  0  0  0
  1 24  1  0  0  0  0
  2 14  1  0  0  0  0
  2 33  1  0  0  0  0
  3 31  1  0  0  0  0
  3 32  1  0  0  0  0
  4 21  2  0  0  0  0
 36  5  1  1  0  0  0
  6 13  1  0  0  0  0
  6 25  1  0  0  0  0
  6 26  1  0  0  0  0
  7 14  1  0  0  0  0
  7 19  2  0  0  0  0
  8 16  2  0  0  0  0
  8 22  1  0  0  0  0
  9 18  1  0  0  0  0
  9 21  1  0  0  0  0
 10 23  2  0  0  0  0
 10 30  1  0  0  0  0
 11 12  1  0  0  0  0
 11 15  2  0  0  0  0
 11 19  1  0  0  0  0
 12 16  1  0  0  0  0
 12 17  2  0  0  0  0
 13 14  2  0  0  0  0
 13 15  1  0  0  0  0
 16 29  1  0  0  0  0
 17 18  1  0  0  0  0
 18 22  2  0  0  0  0
 20 21  1  0  0  0  0
 20 27  2  0  0  0  0
 20 28  1  0  0  0  0
 23 24  1  0  0  0  0
 23 27  1  0  0  0  0
 24 34  1  0  0  0  0
 24 35  1  0  0  0  0
 25 31  1  0  0  0  0
 26 32  1  0  0  0  0
 28 30  2  0  0  0  0
 33 36  1  0  0  0  0
 36 37  1  0  0  0  0
M  END
> <PUBCHEM_COMPOUND_ID_TYPE>
0

> <PUBCHEM_TOTAL_CHARGE>
0

> <PUBCHEM_SUBSTANCE_ID>
310943503

> <PUBCHEM_SUBSTANCE_VERSION>
1

> <PUBCHEM_EXT_DATASOURCE_NAME>
4488

> <PUBCHEM_EXT_DATASOURCE_REGID>
SCHEMBL16121569

> <PUBCHEM_SUBSTANCE_COMMENT>
InChI=1S/C27H32FN5O4/c1-17(34)16-37-26-23(33-7-9-36-10-8-33)11-20(14-31-26)22-13-21(15-30-18(22)2)32-25(35)19-5-6-29-24(12-19)27(3,4)28/h5-6,11-15,17,34H,7-10,16H2,1-4H3,(H,32,35)/t17-/m0/s1
InChIKey=RJPRFPHPVZTZHP-KRWDZBQOSA-N

> <PUBCHEM_SUBSTANCE_SYNONYM>
SCHEMBL16121569

> <PUBCHEM_XREF_EXT_ID>
SCHEMBL16121569

> <PUBCHEM_EXT_DATASOURCE_URL>
https://www.surechembl.org/

> <PUBCHEM_EXT_SUBSTANCE_URL>
https://www.surechembl.org/chemical/SCHEMBL16121569

> <PUBCHEM_CID_ASSOCIATIONS>
117609922  1

> <PUBCHEM_COORDINATE_TYPE>
1
3

> <PUBCHEM_BONDANNOTATIONS>
36  5  5

$$$$
