310930813
  -OEChem-07211613022D

 49 52  0     1  0  0  0  0  0999 V2000
    1.5321   -7.8569    0.0000 Cl  0  0  0  0  0  0  0  0  0  0  0  0
    6.5605   -5.8141    0.0000 S   0  0  0  0  0  0  0  0  0  0  0  0
    6.5605   -4.1248    0.0000 F   0  0  0  0  0  0  0  0  0  0  0  0
    3.6927   -5.7748    0.0000 F   0  0  0  0  0  0  0  0  0  0  0  0
    6.1283   -6.5212    0.0000 O   0  0  0  0  0  0  0  0  0  0  0  0
    7.2676   -6.2462    0.0000 O   0  0  0  0  0  0  0  0  0  0  0  0
    3.6927   -4.1248    0.0000 O   0  0  0  0  0  0  0  0  0  0  0  0
    9.4675   -5.1462    0.0000 O   0  0  0  0  0  0  0  0  0  0  0  0
    0.8249   -1.6499    0.0000 O   0  0  0  0  0  0  0  0  0  0  0  0
    9.5068   -2.2785    0.0000 O   0  0  0  0  0  0  0  0  0  0  0  0
    2.2785   -1.6499    0.0000 O   0  0  0  0  0  0  0  0  0  0  0  0
    6.9926   -5.1070    0.0000 N   0  0  3  0  0  0  0  0  0  0  0  0
    1.5321   -2.8678    0.0000 N   0  0  0  0  0  0  0  0  0  0  0  0
    5.8534   -5.3819    0.0000 C   0  0  0  0  0  0  0  0  0  0  0  0
    5.8534   -4.5570    0.0000 C   0  0  0  0  0  0  0  0  0  0  0  0
    5.1462   -5.7748    0.0000 C   0  0  0  0  0  0  0  0  0  0  0  0
    4.4391   -4.5570    0.0000 C   0  0  0  0  0  0  0  0  0  0  0  0
    4.3998   -5.3819    0.0000 C   0  0  0  0  0  0  0  0  0  0  0  0
    5.1462   -4.1248    0.0000 C   0  0  0  0  0  0  0  0  0  0  0  0
    7.8176   -5.1070    0.0000 C   0  0  0  0  0  0  0  0  0  0  0  0
    8.2497   -4.3998    0.0000 C   0  0  0  0  0  0  0  0  0  0  0  0
    6.5605   -4.3606    0.0000 C   0  0  0  0  0  0  0  0  0  0  0  0
    2.2785   -4.1248    0.0000 C   0  0  3  0  0  0  0  0  0  0  0  0
    1.5321   -4.5177    0.0000 C   0  0  3  0  0  0  0  0  0  0  0  0
    9.0746   -4.3998    0.0000 C   0  0  0  0  0  0  0  0  0  0  0  0
    2.9856   -4.5177    0.0000 C   0  0  0  0  0  0  0  0  0  0  0  0
    1.5321   -5.3426    0.0000 C   0  0  0  0  0  0  0  0  0  0  0  0
    2.2785   -3.2999    0.0000 C   0  0  0  0  0  0  0  0  0  0  0  0
    5.7355   -4.3606    0.0000 C   0  0  0  0  0  0  0  0  0  0  0  0
    0.8249   -4.1248    0.0000 C   0  0  0  0  0  0  0  0  0  0  0  0
    7.8569   -3.6534    0.0000 C   0  0  0  0  0  0  0  0  0  0  0  0
    0.8249   -3.2999    0.0000 C   0  0  0  0  0  0  0  0  0  0  0  0
    9.5068   -3.6927    0.0000 C   0  0  0  0  0  0  0  0  0  0  0  0
    1.5321   -2.0428    0.0000 C   0  0  0  0  0  0  0  0  0  0  0  0
    9.0746   -2.9856    0.0000 C   0  0  0  0  0  0  0  0  0  0  0  0
    8.2497   -2.9856    0.0000 C   0  0  0  0  0  0  0  0  0  0  0  0
    2.2785   -5.7748    0.0000 C   0  0  0  0  0  0  0  0  0  0  0  0
    0.8249   -5.7748    0.0000 C   0  0  0  0  0  0  0  0  0  0  0  0
    2.2785   -6.5998    0.0000 C   0  0  0  0  0  0  0  0  0  0  0  0
    0.8249   -6.5998    0.0000 C   0  0  0  0  0  0  0  0  0  0  0  0
    1.5321   -7.0319    0.0000 C   0  0  0  0  0  0  0  0  0  0  0  0
    0.8249   -0.8249    0.0000 C   0  0  0  0  0  0  0  0  0  0  0  0
    5.3426   -3.6534    0.0000 C   0  0  0  0  0  0  0  0  0  0  0  0
    5.3426   -5.0677    0.0000 C   0  0  0  0  0  0  0  0  0  0  0  0
   10.2925   -5.1462    0.0000 C   0  0  0  0  0  0  0  0  0  0  0  0
    1.6892   -0.8249    0.0000 C   0  0  0  0  0  0  0  0  0  0  0  0
    0.8249    0.0000    0.0000 C   0  0  0  0  0  0  0  0  0  0  0  0
    0.0000   -0.8249    0.0000 C   0  0  0  0  0  0  0  0  0  0  0  0
    9.1140   -1.5321    0.0000 C   0  0  0  0  0  0  0  0  0  0  0  0
  1 41  1  0  0  0  0
  2  5  2  0  0  0  0
  2  6  2  0  0  0  0
  2 12  1  0  0  0  0
  2 14  1  0  0  0  0
  3 15  1  0  0  0  0
  4 18  1  0  0  0  0
  7 17  1  0  0  0  0
  7 26  1  0  0  0  0
  8 25  1  0  0  0  0
  8 45  1  0  0  0  0
  9 34  1  0  0  0  0
  9 42  1  0  0  0  0
 10 35  1  0  0  0  0
 10 49  1  0  0  0  0
 11 34  2  0  0  0  0
 12 20  1  0  0  0  0
 12 22  1  0  0  0  0
 13 28  1  0  0  0  0
 13 32  1  0  0  0  0
 13 34  1  0  0  0  0
 14 15  1  0  0  0  0
 14 16  2  0  0  0  0
 15 19  2  0  0  0  0
 16 18  1  0  0  0  0
 17 18  2  0  0  0  0
 17 19  1  0  0  0  0
 20 21  1  0  0  0  0
 21 25  2  0  0  0  0
 21 31  1  0  0  0  0
 22 29  1  0  0  0  0
 23 24  1  0  0  0  0
 23 26  1  6  0  0  0
 23 28  1  0  0  0  0
 24 27  1  0  0  0  0
 24 30  1  1  0  0  0
 25 33  1  0  0  0  0
 27 37  2  0  0  0  0
 27 38  1  0  0  0  0
 29 43  1  0  0  0  0
 29 44  1  0  0  0  0
 30 32  1  0  0  0  0
 31 36  2  0  0  0  0
 33 35  2  0  0  0  0
 35 36  1  0  0  0  0
 37 39  1  0  0  0  0
 38 40  2  0  0  0  0
 39 41  2  0  0  0  0
 40 41  1  0  0  0  0
 42 46  1  0  0  0  0
 42 47  1  0  0  0  0
 42 48  1  0  0  0  0
M  END
> <PUBCHEM_COMPOUND_ID_TYPE>
0

> <PUBCHEM_TOTAL_CHARGE>
0

> <PUBCHEM_SUBSTANCE_ID>
310930813

> <PUBCHEM_SUBSTANCE_VERSION>
1

> <PUBCHEM_EXT_DATASOURCE_NAME>
4488

> <PUBCHEM_EXT_DATASOURCE_REGID>
SCHEMBL16108110

> <PUBCHEM_SUBSTANCE_COMMENT>
InChI=1S/C36H45ClF2N2O7S/c1-23(2)19-41(21-25-10-13-28(45-6)16-32(25)46-7)49(43,44)34-18-30(38)33(17-31(34)39)47-22-26-20-40(35(42)48-36(3,4)5)15-14-29(26)24-8-11-27(37)12-9-24/h8-13,16-18,23,26,29H,14-15,19-22H2,1-7H3/t26-,29-/m1/s1
InChIKey=GJQDFPYGDCDJCU-GGXMVOPNSA-N

> <PUBCHEM_SUBSTANCE_SYNONYM>
SCHEMBL16108110

> <PUBCHEM_XREF_EXT_ID>
SCHEMBL16108110

> <PUBCHEM_EXT_DATASOURCE_URL>
https://www.surechembl.org/

> <PUBCHEM_EXT_SUBSTANCE_URL>
https://www.surechembl.org/chemical/SCHEMBL16108110

> <PUBCHEM_CID_ASSOCIATIONS>
117599817  1

> <PUBCHEM_COORDINATE_TYPE>
1
3

> <PUBCHEM_BONDANNOTATIONS>
23  26  6
24  30  5

$$$$
