310949329
  -OEChem-07211613022D

 22 23  0     0  0  0  0  0  0999 V2000
    1.0861   -1.2435    0.0000 S   0  0  0  0  0  0  0  0  0  0  0  0
    2.5543   -0.4194    0.0000 O   0  0  0  0  0  0  0  0  0  0  0  0
    2.0750   -1.2435    0.0000 O   0  0  0  0  0  0  0  0  0  0  0  0
    0.2472   -1.2435    0.0000 O   0  0  0  0  0  0  0  0  0  0  0  0
    1.1011    2.0675    0.0000 O   0  0  0  0  0  0  0  0  0  0  0  0
   -0.3520    2.0525    0.0000 O   0  0  0  0  0  0  0  0  0  0  0  0
    1.0861   -2.0675    0.0000 N   0  0  0  0  0  0  0  0  0  0  0  0
    1.1011   -0.4044    0.0000 C   0  0  0  0  0  0  0  0  0  0  0  0
    0.3820    0.8240    0.0000 C   0  0  0  0  0  0  0  0  0  0  0  0
    1.8203    0.0150    0.0000 C   0  0  0  0  0  0  0  0  0  0  0  0
    0.3820    0.0000    0.0000 C   0  0  0  0  0  0  0  0  0  0  0  0
    1.0861    1.2435    0.0000 C   0  0  0  0  0  0  0  0  0  0  0  0
   -0.3670    1.2285    0.0000 C   0  0  0  0  0  0  0  0  0  0  0  0
    1.8203    0.8240    0.0000 C   0  0  0  0  0  0  0  0  0  0  0  0
   -1.0712    0.8240    0.0000 C   0  0  0  0  0  0  0  0  0  0  0  0
   -1.8053    1.2285    0.0000 C   0  0  0  0  0  0  0  0  0  0  0  0
   -1.0861    0.0000    0.0000 C   0  0  0  0  0  0  0  0  0  0  0  0
   -2.5094    0.8390    0.0000 C   0  0  0  0  0  0  0  0  0  0  0  0
   -1.7903   -0.4044    0.0000 C   0  0  0  0  0  0  0  0  0  0  0  0
   -2.5393    0.0000    0.0000 C   0  0  0  0  0  0  0  0  0  0  0  0
    3.2735   -0.0150    0.0000 C   0  0  0  0  0  0  0  0  0  0  0  0
   -3.2735   -0.4194    0.0000 C   0  0  0  0  0  0  0  0  0  0  0  0
  1  3  2  0  0  0  0
  1  4  2  0  0  0  0
  1  7  1  0  0  0  0
  1  8  1  0  0  0  0
  2 10  1  0  0  0  0
  2 21  1  0  0  0  0
  5 12  1  0  0  0  0
  6 13  2  0  0  0  0
  8 10  2  0  0  0  0
  8 11  1  0  0  0  0
  9 11  2  0  0  0  0
  9 12  1  0  0  0  0
  9 13  1  0  0  0  0
 10 14  1  0  0  0  0
 12 14  2  0  0  0  0
 13 15  1  0  0  0  0
 15 16  2  0  0  0  0
 15 17  1  0  0  0  0
 16 18  1  0  0  0  0
 17 19  2  0  0  0  0
 18 20  2  0  0  0  0
 19 20  1  0  0  0  0
 20 22  1  0  0  0  0
M  END
> <PUBCHEM_COMPOUND_ID_TYPE>
0

> <PUBCHEM_TOTAL_CHARGE>
0

> <PUBCHEM_SUBSTANCE_ID>
310949329

> <PUBCHEM_SUBSTANCE_VERSION>
1

> <PUBCHEM_EXT_DATASOURCE_NAME>
4488

> <PUBCHEM_EXT_DATASOURCE_REGID>
SCHEMBL16127519

> <PUBCHEM_SUBSTANCE_COMMENT>
InChI=1S/C15H15NO5S/c1-9-3-5-10(6-4-9)15(18)11-7-14(22(16,19)20)13(21-2)8-12(11)17/h3-8,17H,1-2H3,(H2,16,19,20)
InChIKey=FRUKNCKLYAYDEB-UHFFFAOYSA-N

> <PUBCHEM_SUBSTANCE_SYNONYM>
SCHEMBL16127519

> <PUBCHEM_XREF_EXT_ID>
SCHEMBL16127519

> <PUBCHEM_EXT_DATASOURCE_URL>
https://www.surechembl.org/

> <PUBCHEM_EXT_SUBSTANCE_URL>
https://www.surechembl.org/chemical/SCHEMBL16127519

> <PUBCHEM_CID_ASSOCIATIONS>
117614805  1

> <PUBCHEM_COORDINATE_TYPE>
1
3

$$$$
