310929735
  -OEChem-07211613022D

 62 69  0     1  0  0  0  0  0999 V2000
    1.0945   -5.3171    0.0000 S   0  0  0  0  0  0  0  0  0  0  0  0
    1.1870   -3.6697    0.0000 O   0  0  0  0  0  0  0  0  0  0  0  0
   -1.2278   -2.2682    0.0000 O   0  0  0  0  0  0  0  0  0  0  0  0
   -0.0216    0.8226    0.0000 O   0  0  0  0  0  0  0  0  0  0  0  0
    1.4525   -2.4575    0.0000 O   0  0  0  0  0  0  0  0  0  0  0  0
    0.6426   -6.0074    0.0000 O   0  0  0  0  0  0  0  0  0  0  0  0
    1.5464   -4.6269    0.0000 O   0  0  0  0  0  0  0  0  0  0  0  0
    4.2988   -1.5933    0.0000 O   0  0  0  0  0  0  0  0  0  0  0  0
    3.5674   -0.3657    0.0000 O   0  0  0  0  0  0  0  0  0  0  0  0
    2.8360    0.8619    0.0000 O   0  0  0  0  0  0  0  0  0  0  0  0
    0.0855   -2.8314    0.0000 N   0  0  0  0  0  0  0  0  0  0  0  0
    0.7211   -1.2299    0.0000 N   0  0  0  0  0  0  0  0  0  0  0  0
    0.4043   -4.8653    0.0000 N   0  0  0  0  0  0  0  0  0  0  0  0
    2.8700   -1.6129    0.0000 N   0  0  0  0  0  0  0  0  0  0  0  0
    0.6757    2.0698    0.0000 N   0  0  0  0  0  0  0  0  0  0  0  0
   -0.2397   -3.5897    0.0000 C   0  0  3  0  0  0  0  0  0  0  0  0
   -1.0429   -3.4011    0.0000 C   0  0  3  0  0  0  0  0  0  0  0  0
   -0.8046   -4.1909    0.0000 C   0  0  0  0  0  0  0  0  0  0  0  0
    0.4505   -4.0416    0.0000 C   0  0  0  0  0  0  0  0  0  0  0  0
   -0.0834   -1.4125    0.0000 C   0  0  3  0  0  0  0  0  0  0  0  0
   -0.4086   -2.1707    0.0000 C   0  0  0  0  0  0  0  0  0  0  0  0
   -1.6441   -2.8362    0.0000 C   0  0  0  0  0  0  0  0  0  0  0  0
   -0.0103   -0.0024    0.0000 C   0  0  3  0  0  0  0  0  0  0  0  0
   -0.5057   -0.7038    0.0000 C   0  0  0  0  0  0  0  0  0  0  0  0
    1.4412   -1.6326    0.0000 C   0  0  0  0  0  0  0  0  0  0  0  0
    0.7098   -0.4050    0.0000 C   0  0  0  0  0  0  0  0  0  0  0  0
    2.1499   -1.2103    0.0000 C   0  0  3  0  0  0  0  0  0  0  0  0
    1.7848   -5.7690    0.0000 C   0  0  0  0  0  0  0  0  0  0  0  0
   -2.4340   -3.0745    0.0000 C   0  0  0  0  0  0  0  0  0  0  0  0
    2.1613   -2.0352    0.0000 C   0  0  0  0  0  0  0  0  0  0  0  0
    0.6871    1.2448    0.0000 C   0  0  0  0  0  0  0  0  0  0  0  0
    2.1566   -6.5055    0.0000 C   0  0  0  0  0  0  0  0  0  0  0  0
    2.6085   -5.8153    0.0000 C   0  0  0  0  0  0  0  0  0  0  0  0
    1.4072    0.8422    0.0000 C   0  0  0  0  0  0  0  0  0  0  0  0
    3.5787   -1.1906    0.0000 C   0  0  0  0  0  0  0  0  0  0  0  0
    5.0075   -1.1710    0.0000 C   0  0  3  0  0  0  0  0  0  0  0  0
    1.6678   -2.6920    0.0000 C   0  0  0  0  0  0  0  0  0  0  0  0
    2.8353   -2.5109    0.0000 C   0  0  0  0  0  0  0  0  0  0  0  0
    2.1159    1.2645    0.0000 C   0  0  0  0  0  0  0  0  0  0  0  0
    4.9962   -0.3461    0.0000 C   0  0  3  0  0  0  0  0  0  0  0  0
    1.3845    2.4921    0.0000 C   0  0  0  0  0  0  0  0  0  0  0  0
    2.1046    2.0894    0.0000 C   0  0  0  0  0  0  0  0  0  0  0  0
    1.7663   -3.3103    0.0000 C   0  0  0  0  0  0  0  0  0  0  0  0
    2.5912   -3.2989    0.0000 C   0  0  0  0  0  0  0  0  0  0  0  0
    1.8650    1.5086    0.0000 C   0  0  0  0  0  0  0  0  0  0  0  0
    5.7956   -1.4151    0.0000 C   0  0  0  0  0  0  0  0  0  0  0  0
    5.7772   -0.0804    0.0000 C   0  0  0  0  0  0  0  0  0  0  0  0
    4.2761    0.0566    0.0000 C   0  0  0  0  0  0  0  0  0  0  0  0
    1.3731    3.3170    0.0000 C   0  0  0  0  0  0  0  0  0  0  0  0
    2.8133    2.5117    0.0000 C   0  0  0  0  0  0  0  0  0  0  0  0
    6.2713   -0.7411    0.0000 C   0  0  0  0  0  0  0  0  0  0  0  0
    2.5851    1.1059    0.0000 C   0  0  0  0  0  0  0  0  0  0  0  0
    2.0819    3.7393    0.0000 C   0  0  0  0  0  0  0  0  0  0  0  0
    4.2648    0.8815    0.0000 C   0  0  0  0  0  0  0  0  0  0  0  0
    2.8019    3.3366    0.0000 C   0  0  0  0  0  0  0  0  0  0  0  0
    3.5447    1.2841    0.0000 C   0  0  0  0  0  0  0  0  0  0  0  0
   -0.6529   -2.6741    0.0000 H   0  0  0  0  0  0  0  0  0  0  0  0
   -0.9066   -1.4670    0.0000 H   0  0  0  0  0  0  0  0  0  0  0  0
   -0.7983    0.2419    0.0000 H   0  0  0  0  0  0  0  0  0  0  0  0
    1.7473   -1.9303    0.0000 H   0  0  0  0  0  0  0  0  0  0  0  0
    5.1050   -1.9902    0.0000 H   0  0  0  0  0  0  0  0  0  0  0  0
    5.0711    0.4755    0.0000 H   0  0  0  0  0  0  0  0  0  0  0  0
  1  6  2  0  0  0  0
  1  7  2  0  0  0  0
  1 13  1  0  0  0  0
  1 28  1  0  0  0  0
  2 19  2  0  0  0  0
  3 21  2  0  0  0  0
  4 23  1  0  0  0  0
  4 31  1  0  0  0  0
  5 25  2  0  0  0  0
  8 35  1  0  0  0  0
  8 36  1  0  0  0  0
  9 35  2  0  0  0  0
 10 39  1  0  0  0  0
 16 11  1  6  0  0  0
 11 21  1  0  0  0  0
 12 20  1  0  0  0  0
 12 25  1  0  0  0  0
 12 26  1  0  0  0  0
 13 19  1  0  0  0  0
 14 27  1  0  0  0  0
 14 35  1  0  0  0  0
 15 31  2  0  0  0  0
 15 41  1  0  0  0  0
 16 17  1  0  0  0  0
 16 18  1  0  0  0  0
 16 19  1  1  0  0  0
 17 18  1  0  0  0  0
 17 22  1  0  0  0  0
 17 57  1  6  0  0  0
 20 21  1  0  0  0  0
 20 24  1  0  0  0  0
 20 58  1  1  0  0  0
 22 29  2  0  0  0  0
 23 24  1  0  0  0  0
 23 26  1  0  0  0  0
 23 59  1  6  0  0  0
 25 27  1  0  0  0  0
 27 30  1  0  0  0  0
 27 60  1  6  0  0  0
 28 32  1  0  0  0  0
 28 33  1  0  0  0  0
 30 37  1  0  0  0  0
 30 38  1  0  0  0  0
 31 34  1  0  0  0  0
 32 33  1  0  0  0  0
 34 39  2  0  0  0  0
 34 45  1  0  0  0  0
 36 40  1  0  0  0  0
 36 46  1  0  0  0  0
 36 61  1  6  0  0  0
 37 43  1  0  0  0  0
 38 44  1  0  0  0  0
 39 42  1  0  0  0  0
 40 47  1  0  0  0  0
 40 48  1  0  0  0  0
 40 62  1  1  0  0  0
 41 42  2  0  0  0  0
 41 49  1  0  0  0  0
 42 50  1  0  0  0  0
 43 44  1  0  0  0  0
 45 52  1  0  0  0  0
 46 51  1  0  0  0  0
 47 51  1  0  0  0  0
 48 54  1  0  0  0  0
 49 53  2  0  0  0  0
 50 55  2  0  0  0  0
 52 56  2  0  0  0  0
 53 55  1  0  0  0  0
 54 56  1  0  0  0  0
M  END
> <PUBCHEM_COMPOUND_ID_TYPE>
0

> <PUBCHEM_TOTAL_CHARGE>
0

> <PUBCHEM_SUBSTANCE_ID>
310929735

> <PUBCHEM_SUBSTANCE_VERSION>
1

> <PUBCHEM_EXT_DATASOURCE_NAME>
4488

> <PUBCHEM_EXT_DATASOURCE_REGID>
SCHEMBL16106933

> <PUBCHEM_SUBSTANCE_COMMENT>
InChI=1S/C41H51N5O9S/c1-2-26-22-41(26,39(50)45-56(52,53)28-19-20-28)44-36(48)32-21-27-23-46(32)38(49)34(25-12-6-7-13-25)43-40(51)55-33-18-10-14-24(33)11-4-3-5-16-30-35(47)29-15-8-9-17-31(29)42-37(30)54-27/h2-3,5,8-9,15,17,24-28,32-34H,1,4,6-7,10-14,16,18-23H2,(H,42,47)(H,43,51)(H,44,48)(H,45,50)/t24-,26-,27-,32+,33-,34+,41-/m1/s1
InChIKey=IRYIRIIBHUFBQI-OIBDDBDWSA-N

> <PUBCHEM_SUBSTANCE_SYNONYM>
SCHEMBL16106933

> <PUBCHEM_XREF_EXT_ID>
SCHEMBL16106933

> <PUBCHEM_EXT_DATASOURCE_URL>
https://www.surechembl.org/

> <PUBCHEM_EXT_SUBSTANCE_URL>
https://www.surechembl.org/chemical/SCHEMBL16106933

> <PUBCHEM_CID_ASSOCIATIONS>
117599027  1

> <PUBCHEM_COORDINATE_TYPE>
1
3

> <PUBCHEM_BONDANNOTATIONS>
16  11  6
16  19  5
17  57  6
20  58  5
23  59  6
27  60  6
36  61  6
40  62  5
56  54  3

$$$$
