310944904
  -OEChem-07211613022D

 40 44  0     0  0  0  0  0  0999 V2000
   -0.6455    2.3579    0.0000 Cl  0  0  0  0  0  0  0  0  0  0  0  0
    2.1517    3.0393    0.0000 F   0  0  0  0  0  0  0  0  0  0  0  0
    3.2275    2.7524    0.0000 F   0  0  0  0  0  0  0  0  0  0  0  0
    2.9227    1.6765    0.0000 F   0  0  0  0  0  0  0  0  0  0  0  0
   -4.6800   -2.6090    0.0000 O   0  0  0  0  0  0  0  0  0  0  0  0
    3.9627   -2.6090    0.0000 O   0  0  0  0  0  0  0  0  0  0  0  0
    4.6800   -1.3717    0.0000 O   0  0  0  0  0  0  0  0  0  0  0  0
    1.0758    0.7083    0.0000 N   0  0  0  0  0  0  0  0  0  0  0  0
   -3.2275   -1.7841    0.0000 N   0  0  0  0  0  0  0  0  0  0  0  0
   -0.3586    0.6903    0.0000 C   0  0  0  0  0  0  0  0  0  0  0  0
   -0.3765   -0.1345    0.0000 C   0  0  0  0  0  0  0  0  0  0  0  0
    0.3407    1.1028    0.0000 C   0  0  0  0  0  0  0  0  0  0  0  0
   -1.1117    1.1207    0.0000 C   0  0  0  0  0  0  0  0  0  0  0  0
   -1.0758   -0.5469    0.0000 C   0  0  0  0  0  0  0  0  0  0  0  0
    0.3586   -0.5469    0.0000 C   0  0  0  0  0  0  0  0  0  0  0  0
    0.3586    1.9276    0.0000 C   0  0  0  0  0  0  0  0  0  0  0  0
    1.8110    1.9276    0.0000 C   0  0  0  0  0  0  0  0  0  0  0  0
    1.0758    2.3400    0.0000 C   0  0  0  0  0  0  0  0  0  0  0  0
   -1.8648    0.8876    0.0000 C   0  0  0  0  0  0  0  0  0  0  0  0
   -1.2910    1.8738    0.0000 C   0  0  0  0  0  0  0  0  0  0  0  0
    1.7930    1.0848    0.0000 C   0  0  0  0  0  0  0  0  0  0  0  0
    2.5282    2.3579    0.0000 C   0  0  0  0  0  0  0  0  0  0  0  0
   -1.8110   -0.1524    0.0000 C   0  0  0  0  0  0  0  0  0  0  0  0
   -1.0938   -1.3897    0.0000 C   0  0  0  0  0  0  0  0  0  0  0  0
    0.3765   -1.3897    0.0000 C   0  0  0  0  0  0  0  0  0  0  0  0
    1.0758   -0.1704    0.0000 C   0  0  0  0  0  0  0  0  0  0  0  0
   -2.0800    1.6765    0.0000 C   0  0  0  0  0  0  0  0  0  0  0  0
   -2.5282   -1.3897    0.0000 C   0  0  0  0  0  0  0  0  0  0  0  0
   -2.4924   -0.5648    0.0000 C   0  0  0  0  0  0  0  0  0  0  0  0
   -1.7752   -1.7841    0.0000 C   0  0  0  0  0  0  0  0  0  0  0  0
    1.0579   -1.7841    0.0000 C   0  0  0  0  0  0  0  0  0  0  0  0
    1.7930   -0.5827    0.0000 C   0  0  0  0  0  0  0  0  0  0  0  0
    1.7930   -1.3897    0.0000 C   0  0  0  0  0  0  0  0  0  0  0  0
   -3.2455   -2.6268    0.0000 C   0  0  0  0  0  0  0  0  0  0  0  0
   -3.9627   -1.3897    0.0000 C   0  0  0  0  0  0  0  0  0  0  0  0
    2.5462   -1.8020    0.0000 C   0  0  0  0  0  0  0  0  0  0  0  0
   -3.9269   -3.0393    0.0000 C   0  0  0  0  0  0  0  0  0  0  0  0
   -4.6620   -1.7841    0.0000 C   0  0  0  0  0  0  0  0  0  0  0  0
    3.2275   -1.3897    0.0000 C   0  0  0  0  0  0  0  0  0  0  0  0
    3.9627   -1.7841    0.0000 C   0  0  0  0  0  0  0  0  0  0  0  0
  1 16  1  0  0  0  0
  2 22  1  0  0  0  0
  3 22  1  0  0  0  0
  4 22  1  0  0  0  0
  5 37  1  0  0  0  0
  5 38  1  0  0  0  0
  6 40  2  0  0  0  0
  7 40  1  0  0  0  0
  8 12  2  0  0  0  0
  8 21  1  0  0  0  0
  9 28  1  0  0  0  0
  9 34  1  0  0  0  0
  9 35  1  0  0  0  0
 10 11  2  0  0  0  0
 10 12  1  0  0  0  0
 10 13  1  0  0  0  0
 11 14  1  0  0  0  0
 11 15  1  0  0  0  0
 12 16  1  0  0  0  0
 13 19  1  0  0  0  0
 13 20  1  0  0  0  0
 14 23  2  0  0  0  0
 14 24  1  0  0  0  0
 15 25  2  0  0  0  0
 15 26  1  0  0  0  0
 16 18  2  0  0  0  0
 17 18  1  0  0  0  0
 17 21  2  0  0  0  0
 17 22  1  0  0  0  0
 19 27  1  0  0  0  0
 20 27  1  0  0  0  0
 23 29  1  0  0  0  0
 24 30  2  0  0  0  0
 25 31  1  0  0  0  0
 26 32  2  0  0  0  0
 28 29  2  0  0  0  0
 28 30  1  0  0  0  0
 31 33  2  0  0  0  0
 32 33  1  0  0  0  0
 33 36  1  0  0  0  0
 34 37  1  0  0  0  0
 35 38  1  0  0  0  0
 36 39  2  0  0  0  0
 39 40  1  0  0  0  0
M  END
> <PUBCHEM_COMPOUND_ID_TYPE>
0

> <PUBCHEM_TOTAL_CHARGE>
0

> <PUBCHEM_SUBSTANCE_ID>
310944904

> <PUBCHEM_SUBSTANCE_VERSION>
1

> <PUBCHEM_EXT_DATASOURCE_NAME>
4488

> <PUBCHEM_EXT_DATASOURCE_REGID>
SCHEMBL16122989

> <PUBCHEM_SUBSTANCE_COMMENT>
InChI=1S/C31H28ClF3N2O3/c32-26-18-24(31(33,34)35)19-36-30(26)29(21-2-1-3-21)28(22-7-4-20(5-8-22)6-13-27(38)39)23-9-11-25(12-10-23)37-14-16-40-17-15-37/h4-13,18-19,21H,1-3,14-17H2,(H,38,39)/b13-6+,29-28+
InChIKey=AOILVSCVARXPFJ-APVGTODLSA-N

> <PUBCHEM_SUBSTANCE_SYNONYM>
SCHEMBL16122989

> <PUBCHEM_XREF_EXT_ID>
SCHEMBL16122989

> <PUBCHEM_EXT_DATASOURCE_URL>
https://www.surechembl.org/

> <PUBCHEM_EXT_SUBSTANCE_URL>
https://www.surechembl.org/chemical/SCHEMBL16122989

> <PUBCHEM_CID_ASSOCIATIONS>
86271926  1

> <PUBCHEM_COORDINATE_TYPE>
1
3

$$$$
