310948914
  -OEChem-07211613022D

 52 55  0     1  0  0  0  0  0999 V2000
    4.9885    0.6923    0.0000 P   0  0  3  0  0  0  0  0  0  0  0  0
    7.7950    0.7542    0.0000 O   0  0  0  0  0  0  0  0  0  0  0  0
    4.9885   -0.1360    0.0000 O   0  0  0  0  0  0  0  0  0  0  0  0
    5.7056    0.2720    0.0000 O   0  0  0  0  0  0  0  0  0  0  0  0
    4.9885    1.5083    0.0000 O   0  0  0  0  0  0  0  0  0  0  0  0
    6.9667   -1.2240    0.0000 O   0  0  0  0  0  0  0  0  0  0  0  0
   10.0575   -0.1483    0.0000 O   0  0  0  0  0  0  0  0  0  0  0  0
   10.7993    2.6086    0.0000 O   0  0  0  0  0  0  0  0  0  0  0  0
    1.4156   -0.5564    0.0000 O   0  0  0  0  0  0  0  0  0  0  0  0
    9.0684    0.8531    0.0000 N   0  0  0  0  0  0  0  0  0  0  0  0
    4.2962    0.2720    0.0000 N   0  0  0  0  0  0  0  0  0  0  0  0
   10.5643    1.2240    0.0000 N   0  0  0  0  0  0  0  0  0  0  0  0
    2.1450    0.6923    0.0000 N   0  0  0  0  0  0  0  0  0  0  0  0
    8.4750    0.2720    0.0000 C   0  0  3  0  0  0  0  0  0  0  0  0
    7.1397    0.2596    0.0000 C   0  0  3  0  0  0  0  0  0  0  0  0
    7.3994   -0.5069    0.0000 C   0  0  3  0  0  0  0  0  0  0  0  0
    5.0009   -0.9643    0.0000 C   0  0  0  0  0  0  0  0  0  0  0  0
    4.2838   -1.3723    0.0000 C   0  0  0  0  0  0  0  0  0  0  0  0
    8.2154   -0.5069    0.0000 C   0  0  0  0  0  0  0  0  0  0  0  0
    9.8473    0.6553    0.0000 C   0  0  0  0  0  0  0  0  0  0  0  0
    4.2838   -2.1883    0.0000 C   0  0  0  0  0  0  0  0  0  0  0  0
    6.4227    0.6800    0.0000 C   0  0  0  0  0  0  0  0  0  0  0  0
    8.8458    1.6443    0.0000 C   0  0  0  0  0  0  0  0  0  0  0  0
    5.7180   -1.3723    0.0000 C   0  0  0  0  0  0  0  0  0  0  0  0
    3.5791   -0.9643    0.0000 C   0  0  0  0  0  0  0  0  0  0  0  0
    5.0133   -2.5963    0.0000 C   0  0  0  0  0  0  0  0  0  0  0  0
   10.2181    2.0029    0.0000 C   0  0  0  0  0  0  0  0  0  0  0  0
    9.4269    2.2378    0.0000 C   0  0  0  0  0  0  0  0  0  0  0  0
    3.5668   -2.6086    0.0000 C   0  0  0  0  0  0  0  0  0  0  0  0
    5.7180   -2.1883    0.0000 C   0  0  0  0  0  0  0  0  0  0  0  0
    2.8745   -1.3723    0.0000 C   0  0  0  0  0  0  0  0  0  0  0  0
    2.8745   -2.2006    0.0000 C   0  0  0  0  0  0  0  0  0  0  0  0
    3.5791    0.6923    0.0000 C   0  0  0  0  0  0  0  0  0  0  0  0
    2.8621    0.2720    0.0000 C   0  0  0  0  0  0  0  0  0  0  0  0
    1.4403    0.2967    0.0000 C   0  0  0  0  0  0  0  0  0  0  0  0
    0.7233    0.6923    0.0000 C   0  0  0  0  0  0  0  0  0  0  0  0
    0.0062    0.2720    0.0000 C   0  0  0  0  0  0  0  0  0  0  0  0
   -0.7109    0.6800    0.0000 C   0  0  0  0  0  0  0  0  0  0  0  0
   -1.4156    0.2720    0.0000 C   0  0  0  0  0  0  0  0  0  0  0  0
   -2.1326    0.6923    0.0000 C   0  0  0  0  0  0  0  0  0  0  0  0
   -2.8497    0.2720    0.0000 C   0  0  0  0  0  0  0  0  0  0  0  0
   -3.5668    0.6800    0.0000 C   0  0  0  0  0  0  0  0  0  0  0  0
   -4.2715    0.2720    0.0000 C   0  0  0  0  0  0  0  0  0  0  0  0
   -5.1121    0.2844    0.0000 C   0  0  0  0  0  0  0  0  0  0  0  0
   -5.8169    0.6800    0.0000 C   0  0  0  0  0  0  0  0  0  0  0  0
   -6.5216    0.2720    0.0000 C   0  0  0  0  0  0  0  0  0  0  0  0
   -7.2386    0.6923    0.0000 C   0  0  0  0  0  0  0  0  0  0  0  0
   -7.9557    0.2720    0.0000 C   0  0  0  0  0  0  0  0  0  0  0  0
   -8.6728    0.6800    0.0000 C   0  0  0  0  0  0  0  0  0  0  0  0
   -9.3775    0.2720    0.0000 C   0  0  0  0  0  0  0  0  0  0  0  0
  -10.0945    0.6923    0.0000 C   0  0  0  0  0  0  0  0  0  0  0  0
  -10.7993    0.2720    0.0000 C   0  0  0  0  0  0  0  0  0  0  0  0
  1  3  1  0  0  0  0
  1  4  1  0  0  0  0
  1  5  2  0  0  0  0
  1 11  1  0  0  0  0
 14  2  1  1  0  0  0
  2 15  1  0  0  0  0
  3 17  1  0  0  0  0
  4 22  1  0  0  0  0
 16  6  1  6  0  0  0
  7 20  2  0  0  0  0
  8 27  2  0  0  0  0
  9 35  2  0  0  0  0
 10 14  1  0  0  0  0
 10 20  1  0  0  0  0
 10 23  1  0  0  0  0
 11 33  1  0  0  0  0
 12 20  1  0  0  0  0
 12 27  1  0  0  0  0
 13 34  1  0  0  0  0
 13 35  1  0  0  0  0
 14 19  1  0  0  0  0
 15 16  1  0  0  0  0
 15 22  1  1  0  0  0
 16 19  1  0  0  0  0
 17 18  2  0  0  0  0
 17 24  1  0  0  0  0
 18 21  1  0  0  0  0
 18 25  1  0  0  0  0
 21 26  2  0  0  0  0
 21 29  1  0  0  0  0
 23 28  2  0  0  0  0
 24 30  2  0  0  0  0
 25 31  2  0  0  0  0
 26 30  1  0  0  0  0
 27 28  1  0  0  0  0
 29 32  2  0  0  0  0
 31 32  1  0  0  0  0
 33 34  1  0  0  0  0
 35 36  1  0  0  0  0
 36 37  1  0  0  0  0
 37 38  1  0  0  0  0
 38 39  1  0  0  0  0
 39 40  1  0  0  0  0
 40 41  1  0  0  0  0
 41 42  1  0  0  0  0
 42 43  1  0  0  0  0
 43 44  2  0  0  0  0
 44 45  1  0  0  0  0
 45 46  1  0  0  0  0
 46 47  1  0  0  0  0
 47 48  1  0  0  0  0
 48 49  1  0  0  0  0
 49 50  1  0  0  0  0
 50 51  1  0  0  0  0
 51 52  1  0  0  0  0
M  END
> <PUBCHEM_COMPOUND_ID_TYPE>
0

> <PUBCHEM_TOTAL_CHARGE>
0

> <PUBCHEM_SUBSTANCE_ID>
310948914

> <PUBCHEM_SUBSTANCE_VERSION>
1

> <PUBCHEM_EXT_DATASOURCE_NAME>
4488

> <PUBCHEM_EXT_DATASOURCE_REGID>
SCHEMBL16127099

> <PUBCHEM_SUBSTANCE_COMMENT>
InChI=1S/C39H57N4O8P/c1-2-3-4-5-6-7-8-9-10-11-12-13-14-15-16-24-36(45)40-26-27-41-52(48,51-34-23-19-21-31-20-17-18-22-32(31)34)49-30-35-33(44)29-38(50-35)43-28-25-37(46)42-39(43)47/h9-10,17-23,25,28,33,35,38,44H,2-8,11-16,24,26-27,29-30H2,1H3,(H,40,45)(H,41,48)(H,42,46,47)/b10-9-/t33-,35+,38+,52?/m0/s1
InChIKey=KMCGFHXLIUUCAB-GFWRSRTKSA-N

> <PUBCHEM_SUBSTANCE_SYNONYM>
SCHEMBL16127099

> <PUBCHEM_XREF_EXT_ID>
SCHEMBL16127099

> <PUBCHEM_EXT_DATASOURCE_URL>
https://www.surechembl.org/

> <PUBCHEM_EXT_SUBSTANCE_URL>
https://www.surechembl.org/chemical/SCHEMBL16127099

> <PUBCHEM_CID_ASSOCIATIONS>
117614431  1

> <PUBCHEM_COORDINATE_TYPE>
1
3

> <PUBCHEM_BONDANNOTATIONS>
15  22  5
14  2  5
16  6  6

$$$$
