310929865
  -OEChem-07211613022D

 78 84  0     1  0  0  0  0  0999 V2000
  -24.1819    6.6005    0.0000 Br  0  0  0  0  0  0  0  0  0  0  0  0
    0.0000    1.5851    0.0000 O   0  0  0  0  0  0  0  0  0  0  0  0
   -6.5279   -5.6013    0.0000 O   0  0  0  0  0  0  0  0  0  0  0  0
   -3.1084   -0.3273    0.0000 O   0  0  0  0  0  0  0  0  0  0  0  0
   -6.5094   -1.9783    0.0000 O   0  0  0  0  0  0  0  0  0  0  0  0
   -2.7412    1.2813    0.0000 O   0  0  0  0  0  0  0  0  0  0  0  0
   -5.3427   -3.1451    0.0000 O   0  0  0  0  0  0  0  0  0  0  0  0
   -8.7857    3.3291    0.0000 O   0  0  0  0  0  0  0  0  0  0  0  0
  -11.1763    2.6886    0.0000 O   0  0  0  0  0  0  0  0  0  0  0  0
  -13.1399    3.6417    0.0000 O   0  0  0  0  0  0  0  0  0  0  0  0
  -15.3171    3.7981    0.0000 O   0  0  0  0  0  0  0  0  0  0  0  0
  -19.8277    6.2879    0.0000 O   0  0  0  0  0  0  0  0  0  0  0  0
  -17.2807    4.7513    0.0000 O   0  0  0  0  0  0  0  0  0  0  0  0
  -22.5882    7.0275    0.0000 O   0  0  0  0  0  0  0  0  0  0  0  0
    0.7433    0.4021    0.0000 N   0  0  0  0  0  0  0  0  0  0  0  0
   -7.9409   -5.6277    0.0000 N   0  0  0  0  0  0  0  0  0  0  0  0
   -0.4125   -1.0472    0.0000 N   0  0  0  0  0  0  0  0  0  0  0  0
   -8.5532   -3.8780    0.0000 N   0  0  0  0  0  0  0  0  0  0  0  0
   -8.4158    1.9489    0.0000 N   0  0  0  0  0  0  0  0  0  0  0  0
  -19.4579    4.9076    0.0000 N   0  0  0  0  0  0  0  0  0  0  0  0
  -22.2184    5.6472    0.0000 N   0  0  0  0  0  0  0  0  0  0  0  0
    0.9269   -0.4021    0.0000 C   0  0  3  0  0  0  0  0  0  0  0  0
   -8.7196   -5.3552    0.0000 C   0  0  3  0  0  0  0  0  0  0  0  0
    0.0000    0.7601    0.0000 C   0  0  0  0  0  0  0  0  0  0  0  0
   -7.2424   -5.1888    0.0000 C   0  0  0  0  0  0  0  0  0  0  0  0
   -0.7433    0.4021    0.0000 C   0  0  0  0  0  0  0  0  0  0  0  0
   -7.1500   -4.3690    0.0000 C   0  0  0  0  0  0  0  0  0  0  0  0
   -0.9269   -0.4021    0.0000 C   0  0  0  0  0  0  0  0  0  0  0  0
   -7.7334   -3.7856    0.0000 C   0  0  0  0  0  0  0  0  0  0  0  0
    1.7485   -0.4761    0.0000 C   0  0  0  0  0  0  0  0  0  0  0  0
   -9.2194   -6.0117    0.0000 C   0  0  0  0  0  0  0  0  0  0  0  0
    1.4515    0.8253    0.0000 C   0  0  0  0  0  0  0  0  0  0  0  0
   -7.9594   -6.4526    0.0000 C   0  0  0  0  0  0  0  0  0  0  0  0
    0.4125   -1.0472    0.0000 C   0  0  0  0  0  0  0  0  0  0  0  0
   -8.9921   -4.5766    0.0000 C   0  0  0  0  0  0  0  0  0  0  0  0
    2.0728    0.2825    0.0000 C   0  0  0  0  0  0  0  0  0  0  0  0
   -8.7496   -6.6898    0.0000 C   0  0  0  0  0  0  0  0  0  0  0  0
   -1.3480    0.9633    0.0000 C   0  0  0  0  0  0  0  0  0  0  0  0
   -6.3531   -4.1555    0.0000 C   0  0  0  0  0  0  0  0  0  0  0  0
   -2.1364    0.7201    0.0000 C   0  0  0  0  0  0  0  0  0  0  0  0
   -6.1396   -3.3586    0.0000 C   0  0  0  0  0  0  0  0  0  0  0  0
   -1.7152   -0.6453    0.0000 C   0  0  0  0  0  0  0  0  0  0  0  0
   -7.5198   -2.9887    0.0000 C   0  0  0  0  0  0  0  0  0  0  0  0
   -2.3200   -0.0842    0.0000 C   0  0  0  0  0  0  0  0  0  0  0  0
   -6.7229   -2.7752    0.0000 C   0  0  0  0  0  0  0  0  0  0  0  0
    2.8771    0.4661    0.0000 C   0  0  0  0  0  0  0  0  0  0  0  0
   -9.0221   -7.4685    0.0000 C   0  0  0  0  0  0  0  0  0  0  0  0
   -3.6917    0.2560    0.0000 C   0  0  0  0  0  0  0  0  0  0  0  0
   -5.7125   -1.7649    0.0000 C   0  0  0  0  0  0  0  0  0  0  0  0
   -4.4886    0.0425    0.0000 C   0  0  0  0  0  0  0  0  0  0  0  0
   -5.4990   -0.9680    0.0000 C   0  0  0  0  0  0  0  0  0  0  0  0
   -4.7021   -0.7544    0.0000 C   0  0  0  0  0  0  0  0  0  0  0  0
   -5.0720    0.6258    0.0000 C   0  0  0  0  0  0  0  0  0  0  0  0
   -6.0824   -0.3846    0.0000 C   0  0  0  0  0  0  0  0  0  0  0  0
   -5.8689    0.4123    0.0000 C   0  0  0  0  0  0  0  0  0  0  0  0
   -3.5295    1.0381    0.0000 C   0  0  0  0  0  0  0  0  0  0  0  0
   -4.7593   -3.7285    0.0000 C   0  0  0  0  0  0  0  0  0  0  0  0
   -6.4522    0.9957    0.0000 C   0  0  0  0  0  0  0  0  0  0  0  0
   -7.0356    1.5790    0.0000 C   0  0  0  0  0  0  0  0  0  0  0  0
   -7.6189    2.1624    0.0000 C   0  0  0  0  0  0  0  0  0  0  0  0
   -8.9992    2.5322    0.0000 C   0  0  0  0  0  0  0  0  0  0  0  0
   -9.7960    2.3187    0.0000 C   0  0  0  0  0  0  0  0  0  0  0  0
  -10.3794    2.9021    0.0000 C   0  0  0  0  0  0  0  0  0  0  0  0
  -11.7597    3.2719    0.0000 C   0  0  0  0  0  0  0  0  0  0  0  0
  -12.5566    3.0584    0.0000 C   0  0  0  0  0  0  0  0  0  0  0  0
  -13.9368    3.4282    0.0000 C   0  0  0  0  0  0  0  0  0  0  0  0
  -20.0412    5.4910    0.0000 C   0  0  0  0  0  0  0  0  0  0  0  0
  -20.8381    5.2774    0.0000 C   0  0  0  0  0  0  0  0  0  0  0  0
  -14.5202    4.0116    0.0000 C   0  0  0  0  0  0  0  0  0  0  0  0
  -21.4215    5.8608    0.0000 C   0  0  0  0  0  0  0  0  0  0  0  0
  -22.8017    6.2306    0.0000 C   0  0  0  0  0  0  0  0  0  0  0  0
  -18.6610    5.1211    0.0000 C   0  0  0  0  0  0  0  0  0  0  0  0
  -18.0776    4.5377    0.0000 C   0  0  0  0  0  0  0  0  0  0  0  0
  -23.5986    6.0171    0.0000 C   0  0  0  0  0  0  0  0  0  0  0  0
  -15.9005    4.3814    0.0000 C   0  0  0  0  0  0  0  0  0  0  0  0
  -16.6973    4.1679    0.0000 C   0  0  0  0  0  0  0  0  0  0  0  0
    1.2511   -1.1608    0.0000 H   0  0  0  0  0  0  0  0  0  0  0  0
   -9.5345   -5.2262    0.0000 H   0  0  0  0  0  0  0  0  0  0  0  0
  1 74  1  0  0  0  0
  2 24  2  0  0  0  0
  3 25  2  0  0  0  0
  4 44  1  0  0  0  0
  4 48  1  0  0  0  0
  5 45  1  0  0  0  0
  5 49  1  0  0  0  0
  6 40  1  0  0  0  0
  6 56  1  0  0  0  0
  7 41  1  0  0  0  0
  7 57  1  0  0  0  0
  8 61  2  0  0  0  0
  9 63  1  0  0  0  0
  9 64  1  0  0  0  0
 10 65  1  0  0  0  0
 10 66  1  0  0  0  0
 11 69  1  0  0  0  0
 11 75  1  0  0  0  0
 12 67  2  0  0  0  0
 13 73  1  0  0  0  0
 13 76  1  0  0  0  0
 14 71  2  0  0  0  0
 15 22  1  0  0  0  0
 15 24  1  0  0  0  0
 15 32  1  0  0  0  0
 16 23  1  0  0  0  0
 16 25  1  0  0  0  0
 16 33  1  0  0  0  0
 17 28  1  0  0  0  0
 17 34  2  0  0  0  0
 18 29  1  0  0  0  0
 18 35  2  0  0  0  0
 19 60  1  0  0  0  0
 19 61  1  0  0  0  0
 20 67  1  0  0  0  0
 20 72  1  0  0  0  0
 21 70  1  0  0  0  0
 21 71  1  0  0  0  0
 22 30  1  0  0  0  0
 22 34  1  0  0  0  0
 22 77  1  6  0  0  0
 23 31  1  0  0  0  0
 23 35  1  0  0  0  0
 23 78  1  6  0  0  0
 24 26  1  0  0  0  0
 25 27  1  0  0  0  0
 26 28  1  0  0  0  0
 26 38  2  0  0  0  0
 27 29  1  0  0  0  0
 27 39  2  0  0  0  0
 28 42  2  0  0  0  0
 29 43  2  0  0  0  0
 30 36  1  0  0  0  0
 31 37  1  0  0  0  0
 32 36  1  0  0  0  0
 33 37  1  0  0  0  0
 36 46  2  0  0  0  0
 37 47  2  0  0  0  0
 38 40  1  0  0  0  0
 39 41  1  0  0  0  0
 40 44  2  0  0  0  0
 41 45  2  0  0  0  0
 42 44  1  0  0  0  0
 43 45  1  0  0  0  0
 48 50  1  0  0  0  0
 49 51  1  0  0  0  0
 50 52  2  0  0  0  0
 50 53  1  0  0  0  0
 51 52  1  0  0  0  0
 51 54  2  0  0  0  0
 53 55  2  0  0  0  0
 54 55  1  0  0  0  0
 55 58  1  0  0  0  0
 58 59  3  0  0  0  0
 59 60  1  0  0  0  0
 61 62  1  0  0  0  0
 62 63  1  0  0  0  0
 64 65  1  0  0  0  0
 66 69  1  0  0  0  0
 67 68  1  0  0  0  0
 68 70  1  0  0  0  0
 71 74  1  0  0  0  0
 72 73  1  0  0  0  0
 75 76  1  0  0  0  0
M  END
> <PUBCHEM_COMPOUND_ID_TYPE>
0

> <PUBCHEM_TOTAL_CHARGE>
0

> <PUBCHEM_SUBSTANCE_ID>
310929865

> <PUBCHEM_SUBSTANCE_VERSION>
1

> <PUBCHEM_EXT_DATASOURCE_NAME>
4488

> <PUBCHEM_EXT_DATASOURCE_REGID>
SCHEMBL16107080

> <PUBCHEM_SUBSTANCE_COMMENT>
InChI=1S/C55H64BrN7O13/c1-36-20-41-30-60-45-27-49(47(69-3)25-43(45)54(67)62(41)32-36)75-34-39-22-38(23-40(24-39)35-76-50-28-46-44(26-48(50)70-4)55(68)63-33-37(2)21-42(63)31-61-46)6-5-9-57-52(65)8-12-71-14-16-73-18-19-74-17-15-72-13-11-59-51(64)7-10-58-53(66)29-56/h22-28,30-31,41-42H,1-2,7-21,29,32-35H2,3-4H3,(H,57,65)(H,58,66)(H,59,64)/t41-,42-/m0/s1
InChIKey=JGKOGZPHVXMRLG-COCZKOEFSA-N

> <PUBCHEM_SUBSTANCE_SYNONYM>
SCHEMBL16107080

> <PUBCHEM_XREF_EXT_ID>
SCHEMBL16107080

> <PUBCHEM_EXT_DATASOURCE_URL>
https://www.surechembl.org/

> <PUBCHEM_EXT_SUBSTANCE_URL>
https://www.surechembl.org/chemical/SCHEMBL16107080

> <PUBCHEM_CID_ASSOCIATIONS>
117599135  1

> <PUBCHEM_COORDINATE_TYPE>
1
3

> <PUBCHEM_BONDANNOTATIONS>
22  77  6
23  78  6

$$$$
