310940291
  -OEChem-07211613022D

 10  9  0     0  0  0  0  0  0999 V2000
   -1.2584    0.9500    0.0000 O   0  0  0  0  0  0  0  0  0  0  0  0
    1.3250   -1.3000    0.0000 N   0  0  0  0  0  0  0  0  0  0  0  0
    0.1916    0.8000    0.0000 C   0  0  0  0  0  0  0  0  0  0  0  0
    0.0917   -0.0333    0.0000 C   0  0  0  0  0  0  0  0  0  0  0  0
   -0.4917    1.3000    0.0000 C   0  0  0  0  0  0  0  0  0  0  0  0
   -0.5916   -0.4000    0.0000 C   0  0  0  0  0  0  0  0  0  0  0  0
   -0.3250   -1.1167    0.0000 C   0  0  0  0  0  0  0  0  0  0  0  0
   -1.3250    0.1167    0.0000 C   0  0  0  0  0  0  0  0  0  0  0  0
    0.4917   -1.2333    0.0000 C   0  0  0  0  0  0  0  0  0  0  0  0
   -0.7583   -0.4166    0.0000 C   0  0  0  0  0  0  0  0  0  0  0  0
  1  5  1  0  0  0  0
  1  8  1  0  0  0  0
  2  9  3  0  0  0  0
  3  4  1  0  0  0  0
  3  5  1  0  0  0  0
  4  6  1  0  0  0  0
  6  7  1  0  0  0  0
  7  9  1  0  0  0  0
  8 10  1  0  0  0  0
M  END
> <PUBCHEM_COMPOUND_ID_TYPE>
0

> <PUBCHEM_TOTAL_CHARGE>
0

> <PUBCHEM_SUBSTANCE_ID>
310940291

> <PUBCHEM_SUBSTANCE_VERSION>
1

> <PUBCHEM_EXT_DATASOURCE_NAME>
4488

> <PUBCHEM_EXT_DATASOURCE_REGID>
SCHEMBL16118234

> <PUBCHEM_SUBSTANCE_COMMENT>
InChI=1S/C8H15NO/c1-2-10-8-6-4-3-5-7-9/h2-6,8H2,1H3
InChIKey=KQKUDNOGMZSEHG-UHFFFAOYSA-N

> <PUBCHEM_SUBSTANCE_SYNONYM>
SCHEMBL16118234

> <PUBCHEM_XREF_EXT_ID>
SCHEMBL16118234

> <PUBCHEM_EXT_DATASOURCE_URL>
https://www.surechembl.org/

> <PUBCHEM_EXT_SUBSTANCE_URL>
https://www.surechembl.org/chemical/SCHEMBL16118234

> <PUBCHEM_CID_ASSOCIATIONS>
117607371  1

> <PUBCHEM_COORDINATE_TYPE>
1
3

$$$$
