310935353
  -OEChem-07211613022D

 27 31  0     0  0  0  0  0  0999 V2000
    3.6393   -2.4680    0.0000 Br  0  0  0  0  0  0  0  0  0  0  0  0
    0.7948   -3.2628    0.0000 N   0  0  0  0  0  0  0  0  0  0  0  0
    0.7948   -4.8942    0.0000 N   0  0  0  0  0  0  0  0  0  0  0  0
    0.1673   -6.1910    0.0000 N   0  0  0  0  0  0  0  0  0  0  0  0
    1.4641   -6.1910    0.0000 N   0  0  0  0  0  0  0  0  0  0  0  0
    0.0836   -2.0497    0.0000 N   0  0  0  0  0  0  0  0  0  0  0  0
    0.7948   -0.8366    0.0000 N   0  0  0  0  0  0  0  0  0  0  0  0
    1.5059   -2.0497    0.0000 C   0  0  0  0  0  0  0  0  0  0  0  0
    0.7948   -2.4680    0.0000 C   0  0  0  0  0  0  0  0  0  0  0  0
    1.5059   -1.2131    0.0000 C   0  0  0  0  0  0  0  0  0  0  0  0
    0.7948   -5.6890    0.0000 C   0  0  0  0  0  0  0  0  0  0  0  0
    2.2170   -0.8366    0.0000 C   0  0  0  0  0  0  0  0  0  0  0  0
    0.3765   -6.9857    0.0000 C   0  0  0  0  0  0  0  0  0  0  0  0
    1.2549   -6.9857    0.0000 C   0  0  0  0  0  0  0  0  0  0  0  0
    2.2170   -2.4680    0.0000 C   0  0  0  0  0  0  0  0  0  0  0  0
    0.0836   -3.6811    0.0000 C   0  0  0  0  0  0  0  0  0  0  0  0
    1.5059   -3.6811    0.0000 C   0  0  0  0  0  0  0  0  0  0  0  0
    1.5059   -4.4759    0.0000 C   0  0  0  0  0  0  0  0  0  0  0  0
    0.0836   -4.4759    0.0000 C   0  0  0  0  0  0  0  0  0  0  0  0
    2.9282   -2.0497    0.0000 C   0  0  0  0  0  0  0  0  0  0  0  0
    2.9282   -1.2131    0.0000 C   0  0  0  0  0  0  0  0  0  0  0  0
    0.0836   -1.2131    0.0000 C   0  0  0  0  0  0  0  0  0  0  0  0
    0.0000   -7.6968    0.0000 C   0  0  0  0  0  0  0  0  0  0  0  0
    1.6314   -7.6968    0.0000 C   0  0  0  0  0  0  0  0  0  0  0  0
    2.2170    0.0000    0.0000 C   0  0  0  0  0  0  0  0  0  0  0  0
    0.3765   -8.3662    0.0000 C   0  0  0  0  0  0  0  0  0  0  0  0
    1.2549   -8.3662    0.0000 C   0  0  0  0  0  0  0  0  0  0  0  0
  1 20  1  0  0  0  0
  2  9  1  0  0  0  0
  2 16  1  0  0  0  0
  2 17  1  0  0  0  0
  3 11  1  0  0  0  0
  3 18  1  0  0  0  0
  3 19  1  0  0  0  0
  4 11  2  0  0  0  0
  4 13  1  0  0  0  0
  5 11  1  0  0  0  0
  5 14  1  0  0  0  0
  6  9  1  0  0  0  0
  6 22  2  0  0  0  0
  7 10  2  0  0  0  0
  7 22  1  0  0  0  0
  8  9  2  0  0  0  0
  8 10  1  0  0  0  0
  8 15  1  0  0  0  0
 10 12  1  0  0  0  0
 12 21  2  0  0  0  0
 12 25  1  0  0  0  0
 13 14  2  0  0  0  0
 13 23  1  0  0  0  0
 14 24  1  0  0  0  0
 15 20  2  0  0  0  0
 16 19  1  0  0  0  0
 17 18  1  0  0  0  0
 20 21  1  0  0  0  0
 23 26  2  0  0  0  0
 24 27  2  0  0  0  0
 26 27  1  0  0  0  0
M  END
> <PUBCHEM_COMPOUND_ID_TYPE>
0

> <PUBCHEM_TOTAL_CHARGE>
0

> <PUBCHEM_SUBSTANCE_ID>
310935353

> <PUBCHEM_SUBSTANCE_VERSION>
1

> <PUBCHEM_EXT_DATASOURCE_NAME>
4488

> <PUBCHEM_EXT_DATASOURCE_REGID>
SCHEMBL16112891

> <PUBCHEM_SUBSTANCE_COMMENT>
InChI=1S/C20H19BrN6/c1-13-10-14(21)11-15-18(13)22-12-23-19(15)26-6-8-27(9-7-26)20-24-16-4-2-3-5-17(16)25-20/h2-5,10-12H,6-9H2,1H3,(H,24,25)
InChIKey=DPQBPFQDITUFSH-UHFFFAOYSA-N

> <PUBCHEM_SUBSTANCE_SYNONYM>
SCHEMBL16112891

> <PUBCHEM_XREF_EXT_ID>
SCHEMBL16112891

> <PUBCHEM_EXT_DATASOURCE_URL>
https://www.surechembl.org/

> <PUBCHEM_EXT_SUBSTANCE_URL>
https://www.surechembl.org/chemical/SCHEMBL16112891

> <PUBCHEM_CID_ASSOCIATIONS>
86300618  1

> <PUBCHEM_COORDINATE_TYPE>
1
3

$$$$
