310945443
  -OEChem-07211613022D

 29 32  0     0  0  0  0  0  0999 V2000
   -1.7956    1.1880    0.0000 Cl  0  0  0  0  0  0  0  0  0  0  0  0
    3.0471   -1.7321    0.0000 S   0  0  0  0  0  0  0  0  0  0  0  0
    0.4353    1.3875    0.0000 F   0  0  0  0  0  0  0  0  0  0  0  0
    1.3785    2.1855    0.0000 F   0  0  0  0  0  0  0  0  0  0  0  0
    2.3035    1.3875    0.0000 F   0  0  0  0  0  0  0  0  0  0  0  0
   -4.4074   -1.1335    0.0000 F   0  0  0  0  0  0  0  0  0  0  0  0
   -2.8475   -1.9135    0.0000 F   0  0  0  0  0  0  0  0  0  0  0  0
   -4.0809   -2.1855    0.0000 F   0  0  0  0  0  0  0  0  0  0  0  0
   -0.3265    0.4625    0.0000 N   0  0  0  0  0  0  0  0  0  0  0  0
   -0.3265   -0.7890    0.0000 N   0  0  0  0  0  0  0  0  0  0  0  0
    1.3603   -0.9522    0.0000 N   0  0  0  0  0  0  0  0  0  0  0  0
    2.1583    0.2267    0.0000 N   0  0  0  0  0  0  0  0  0  0  0  0
    0.5441    0.2085    0.0000 C   0  0  0  0  0  0  0  0  0  0  0  0
    0.5260   -0.5713    0.0000 C   0  0  0  0  0  0  0  0  0  0  0  0
    1.3422    0.6076    0.0000 C   0  0  0  0  0  0  0  0  0  0  0  0
   -0.8887   -0.1905    0.0000 C   0  0  0  0  0  0  0  0  0  0  0  0
    2.1402   -0.5713    0.0000 C   0  0  0  0  0  0  0  0  0  0  0  0
    1.3603    1.3694    0.0000 C   0  0  0  0  0  0  0  0  0  0  0  0
   -1.7956   -0.1723    0.0000 C   0  0  0  0  0  0  0  0  0  0  0  0
    2.9564   -0.9703    0.0000 C   0  0  0  0  0  0  0  0  0  0  0  0
   -2.2490    0.4988    0.0000 C   0  0  0  0  0  0  0  0  0  0  0  0
   -2.2490   -0.8615    0.0000 C   0  0  0  0  0  0  0  0  0  0  0  0
   -3.1922   -0.8615    0.0000 C   0  0  0  0  0  0  0  0  0  0  0  0
   -3.6275   -1.5326    0.0000 C   0  0  0  0  0  0  0  0  0  0  0  0
   -3.1740    0.4807    0.0000 C   0  0  0  0  0  0  0  0  0  0  0  0
   -3.6093   -0.1905    0.0000 C   0  0  0  0  0  0  0  0  0  0  0  0
    3.7907   -0.6802    0.0000 C   0  0  0  0  0  0  0  0  0  0  0  0
    3.9539   -1.8954    0.0000 C   0  0  0  0  0  0  0  0  0  0  0  0
    4.4074   -1.2243    0.0000 C   0  0  0  0  0  0  0  0  0  0  0  0
  1 21  1  0  0  0  0
  2 20  1  0  0  0  0
  2 28  1  0  0  0  0
  3 18  1  0  0  0  0
  4 18  1  0  0  0  0
  5 18  1  0  0  0  0
  6 24  1  0  0  0  0
  7 24  1  0  0  0  0
  8 24  1  0  0  0  0
  9 13  1  0  0  0  0
  9 16  2  0  0  0  0
 10 14  1  0  0  0  0
 10 16  1  0  0  0  0
 11 14  1  0  0  0  0
 11 17  2  0  0  0  0
 12 15  2  0  0  0  0
 12 17  1  0  0  0  0
 13 14  2  0  0  0  0
 13 15  1  0  0  0  0
 15 18  1  0  0  0  0
 16 19  1  0  0  0  0
 17 20  1  0  0  0  0
 19 21  2  0  0  0  0
 19 22  1  0  0  0  0
 20 27  2  0  0  0  0
 21 25  1  0  0  0  0
 22 23  2  0  0  0  0
 23 24  1  0  0  0  0
 23 26  1  0  0  0  0
 25 26  2  0  0  0  0
 27 29  1  0  0  0  0
 28 29  2  0  0  0  0
M  END
> <PUBCHEM_COMPOUND_ID_TYPE>
0

> <PUBCHEM_TOTAL_CHARGE>
0

> <PUBCHEM_SUBSTANCE_ID>
310945443

> <PUBCHEM_SUBSTANCE_VERSION>
1

> <PUBCHEM_EXT_DATASOURCE_NAME>
4488

> <PUBCHEM_EXT_DATASOURCE_REGID>
SCHEMBL16123541

> <PUBCHEM_SUBSTANCE_COMMENT>
InChI=1S/C17H7ClF6N4S/c18-9-4-3-7(16(19,20)21)6-8(9)13-25-11-12(17(22,23)24)26-14(28-15(11)27-13)10-2-1-5-29-10/h1-6H,(H,25,26,27,28)
InChIKey=BYWKJWHAZCEJKT-UHFFFAOYSA-N

> <PUBCHEM_SUBSTANCE_SYNONYM>
SCHEMBL16123541

> <PUBCHEM_XREF_EXT_ID>
SCHEMBL16123541

> <PUBCHEM_EXT_DATASOURCE_URL>
https://www.surechembl.org/

> <PUBCHEM_EXT_SUBSTANCE_URL>
https://www.surechembl.org/chemical/SCHEMBL16123541

> <PUBCHEM_CID_ASSOCIATIONS>
117611488  1

> <PUBCHEM_COORDINATE_TYPE>
1
3

$$$$
