310934494
  -OEChem-07211613022D

 36 40  0     0  0  0  0  0  0999 V2000
    7.7478   -5.0217    0.0000 O   0  0  0  0  0  0  0  0  0  0  0  0
    7.7478   -3.5870    0.0000 O   0  0  0  0  0  0  0  0  0  0  0  0
    0.6815   -6.8511    0.0000 O   0  0  0  0  0  0  0  0  0  0  0  0
    3.1924   -7.1739    0.0000 O   0  0  0  0  0  0  0  0  0  0  0  0
    6.4924   -5.7391    0.0000 N   0  0  0  0  0  0  0  0  0  0  0  0
    3.1924   -5.7391    0.0000 N   0  0  0  0  0  0  0  0  0  0  0  0
    4.0174   -2.8695    0.0000 N   0  0  0  0  0  0  0  0  0  0  0  0
    1.4707   -7.1380    0.0000 N   0  0  0  0  0  0  0  0  0  0  0  0
    5.6674   -4.3043    0.0000 C   0  0  0  0  0  0  0  0  0  0  0  0
    5.2728   -5.0217    0.0000 C   0  0  0  0  0  0  0  0  0  0  0  0
    6.5282   -4.3043    0.0000 C   0  0  0  0  0  0  0  0  0  0  0  0
    5.6674   -5.7391    0.0000 C   0  0  0  0  0  0  0  0  0  0  0  0
    6.9228   -5.0217    0.0000 C   0  0  0  0  0  0  0  0  0  0  0  0
    5.2728   -3.5870    0.0000 C   0  0  0  0  0  0  0  0  0  0  0  0
    4.4478   -5.0217    0.0000 C   0  0  0  0  0  0  0  0  0  0  0  0
    6.9228   -3.5870    0.0000 C   0  0  0  0  0  0  0  0  0  0  0  0
    4.0174   -5.7391    0.0000 C   0  0  0  0  0  0  0  0  0  0  0  0
    5.2728   -6.4565    0.0000 C   0  0  0  0  0  0  0  0  0  0  0  0
    4.4478   -6.4565    0.0000 C   0  0  0  0  0  0  0  0  0  0  0  0
    4.4120   -3.5511    0.0000 C   0  0  0  0  0  0  0  0  0  0  0  0
    5.6674   -2.8695    0.0000 C   0  0  0  0  0  0  0  0  0  0  0  0
    6.5282   -2.8695    0.0000 C   0  0  0  0  0  0  0  0  0  0  0  0
    2.7978   -6.4565    0.0000 C   0  0  0  0  0  0  0  0  0  0  0  0
    1.9370   -6.4565    0.0000 C   0  0  0  0  0  0  0  0  0  0  0  0
    5.2728   -2.1522    0.0000 C   0  0  0  0  0  0  0  0  0  0  0  0
    4.4120   -2.1163    0.0000 C   0  0  0  0  0  0  0  0  0  0  0  0
    6.9228   -2.1522    0.0000 C   0  0  0  0  0  0  0  0  0  0  0  0
    1.4707   -5.7750    0.0000 C   0  0  0  0  0  0  0  0  0  0  0  0
    0.6815   -6.0261    0.0000 C   0  0  0  0  0  0  0  0  0  0  0  0
    6.5282   -1.4348    0.0000 C   0  0  0  0  0  0  0  0  0  0  0  0
    6.9228   -0.7174    0.0000 C   0  0  0  0  0  0  0  0  0  0  0  0
    5.7032   -1.4348    0.0000 C   0  0  0  0  0  0  0  0  0  0  0  0
    0.0000   -5.5598    0.0000 C   0  0  0  0  0  0  0  0  0  0  0  0
    6.5282    0.0000    0.0000 C   0  0  0  0  0  0  0  0  0  0  0  0
    5.2728   -0.7174    0.0000 C   0  0  0  0  0  0  0  0  0  0  0  0
    5.7032    0.0000    0.0000 C   0  0  0  0  0  0  0  0  0  0  0  0
  1 13  2  0  0  0  0
  2 16  2  0  0  0  0
  3  8  1  0  0  0  0
  3 29  1  0  0  0  0
  4 23  2  0  0  0  0
  5 12  1  0  0  0  0
  5 13  1  0  0  0  0
  6 17  1  0  0  0  0
  6 23  1  0  0  0  0
  7 20  1  0  0  0  0
  7 26  2  0  0  0  0
  8 24  2  0  0  0  0
  9 10  1  0  0  0  0
  9 11  2  0  0  0  0
  9 14  1  0  0  0  0
 10 12  2  0  0  0  0
 10 15  1  0  0  0  0
 11 13  1  0  0  0  0
 11 16  1  0  0  0  0
 12 18  1  0  0  0  0
 14 20  2  0  0  0  0
 14 21  1  0  0  0  0
 15 17  2  0  0  0  0
 16 22  1  0  0  0  0
 17 19  1  0  0  0  0
 18 19  2  0  0  0  0
 21 25  2  0  0  0  0
 22 27  2  0  0  0  0
 23 24  1  0  0  0  0
 24 28  1  0  0  0  0
 25 26  1  0  0  0  0
 27 30  1  0  0  0  0
 28 29  2  0  0  0  0
 29 33  1  0  0  0  0
 30 31  2  0  0  0  0
 30 32  1  0  0  0  0
 31 34  1  0  0  0  0
 32 35  2  0  0  0  0
 34 36  2  0  0  0  0
 35 36  1  0  0  0  0
M  END
> <PUBCHEM_COMPOUND_ID_TYPE>
0

> <PUBCHEM_TOTAL_CHARGE>
0

> <PUBCHEM_SUBSTANCE_ID>
310934494

> <PUBCHEM_SUBSTANCE_VERSION>
1

> <PUBCHEM_EXT_DATASOURCE_NAME>
4488

> <PUBCHEM_EXT_DATASOURCE_REGID>
SCHEMBL16111978

> <PUBCHEM_SUBSTANCE_COMMENT>
InChI=1S/C28H20N4O4/c1-17-14-23(32-36-17)27(34)30-20-10-11-22-21(15-20)25(19-8-5-13-29-16-19)26(28(35)31-22)24(33)12-9-18-6-3-2-4-7-18/h2-16H,1H3,(H,30,34)(H,31,35)/b12-9+
InChIKey=QXJLXSQPQSRMPF-FMIVXFBMSA-N

> <PUBCHEM_SUBSTANCE_SYNONYM>
SCHEMBL16111978

> <PUBCHEM_XREF_EXT_ID>
SCHEMBL16111978

> <PUBCHEM_EXT_DATASOURCE_URL>
https://www.surechembl.org/

> <PUBCHEM_EXT_SUBSTANCE_URL>
https://www.surechembl.org/chemical/SCHEMBL16111978

> <PUBCHEM_CID_ASSOCIATIONS>
117602694  1

> <PUBCHEM_COORDINATE_TYPE>
1
3

$$$$
