310942447
  -OEChem-07211613022D

 31 34  0     0  0  0  0  0  0999 V2000
    2.4415    0.8685    0.0000 S   0  0  0  0  0  0  0  0  0  0  0  0
    3.8859    1.6926    0.0000 F   0  0  0  0  0  0  0  0  0  0  0  0
    5.3305   -0.7798    0.0000 F   0  0  0  0  0  0  0  0  0  0  0  0
    2.0250    1.5863    0.0000 O   0  0  0  0  0  0  0  0  0  0  0  0
    2.8580    1.5863    0.0000 O   0  0  0  0  0  0  0  0  0  0  0  0
   -0.4475   -0.7798    0.0000 N   0  0  0  0  0  0  0  0  0  0  0  0
   -1.8921   -0.7798    0.0000 N   0  0  0  0  0  0  0  0  0  0  0  0
   -1.1654    0.4608    0.0000 N   0  0  0  0  0  0  0  0  0  0  0  0
   -4.8520   -0.6204    0.0000 N   0  0  0  0  0  0  0  0  0  0  0  0
    0.9969   -0.7798    0.0000 N   0  0  0  0  0  0  0  0  0  0  0  0
    3.1770    0.4608    0.0000 C   0  0  0  0  0  0  0  0  0  0  0  0
    3.8948    0.8773    0.0000 C   0  0  0  0  0  0  0  0  0  0  0  0
    0.2880    0.4608    0.0000 C   0  0  0  0  0  0  0  0  0  0  0  0
    1.7414    0.4608    0.0000 C   0  0  0  0  0  0  0  0  0  0  0  0
    0.2703   -0.3634    0.0000 C   0  0  0  0  0  0  0  0  0  0  0  0
    3.1770   -0.3634    0.0000 C   0  0  0  0  0  0  0  0  0  0  0  0
   -1.1742   -0.3634    0.0000 C   0  0  0  0  0  0  0  0  0  0  0  0
    0.9969    0.8685    0.0000 C   0  0  0  0  0  0  0  0  0  0  0  0
   -4.0544   -0.3634    0.0000 C   0  0  0  0  0  0  0  0  0  0  0  0
   -2.6187   -0.3634    0.0000 C   0  0  0  0  0  0  0  0  0  0  0  0
   -4.0455    0.4608    0.0000 C   0  0  0  0  0  0  0  0  0  0  0  0
    4.6126    0.4608    0.0000 C   0  0  0  0  0  0  0  0  0  0  0  0
    4.6038   -0.3634    0.0000 C   0  0  0  0  0  0  0  0  0  0  0  0
   -0.4475    0.8685    0.0000 C   0  0  0  0  0  0  0  0  0  0  0  0
   -3.3188   -0.7709    0.0000 C   0  0  0  0  0  0  0  0  0  0  0  0
    3.9037   -0.7709    0.0000 C   0  0  0  0  0  0  0  0  0  0  0  0
   -2.6098    0.4608    0.0000 C   0  0  0  0  0  0  0  0  0  0  0  0
   -3.3365    0.8596    0.0000 C   0  0  0  0  0  0  0  0  0  0  0  0
   -4.8431    0.7089    0.0000 C   0  0  0  0  0  0  0  0  0  0  0  0
   -5.3305    0.0443    0.0000 C   0  0  0  0  0  0  0  0  0  0  0  0
    0.9881   -1.6926    0.0000 C   0  0  0  0  0  0  0  0  0  0  0  0
  1  4  2  0  0  0  0
  1  5  2  0  0  0  0
  1 11  1  0  0  0  0
  1 14  1  0  0  0  0
  2 12  1  0  0  0  0
  3 23  1  0  0  0  0
  6 15  2  0  0  0  0
  6 17  1  0  0  0  0
  7 17  1  0  0  0  0
  7 20  1  0  0  0  0
  8 17  2  0  0  0  0
  8 24  1  0  0  0  0
  9 19  1  0  0  0  0
  9 30  1  0  0  0  0
 10 15  1  0  0  0  0
 10 31  1  0  0  0  0
 11 12  1  0  0  0  0
 11 16  2  0  0  0  0
 12 22  2  0  0  0  0
 13 15  1  0  0  0  0
 13 18  1  0  0  0  0
 13 24  2  0  0  0  0
 14 18  2  0  0  0  0
 16 26  1  0  0  0  0
 19 21  2  0  0  0  0
 19 25  1  0  0  0  0
 20 25  2  0  0  0  0
 20 27  1  0  0  0  0
 21 28  1  0  0  0  0
 21 29  1  0  0  0  0
 22 23  1  0  0  0  0
 23 26  2  0  0  0  0
 27 28  2  0  0  0  0
 29 30  2  0  0  0  0
M  END
> <PUBCHEM_COMPOUND_ID_TYPE>
0

> <PUBCHEM_TOTAL_CHARGE>
0

> <PUBCHEM_SUBSTANCE_ID>
310942447

> <PUBCHEM_SUBSTANCE_VERSION>
1

> <PUBCHEM_EXT_DATASOURCE_NAME>
4488

> <PUBCHEM_EXT_DATASOURCE_REGID>
SCHEMBL16120483

> <PUBCHEM_SUBSTANCE_COMMENT>
InChI=1S/C21H17F2N5O2S/c1-24-20-14(7-9-31(29,30)19-5-3-15(22)10-17(19)23)12-26-21(28-20)27-16-4-2-13-6-8-25-18(13)11-16/h2-12,25H,1H3,(H2,24,26,27,28)/b9-7+
InChIKey=WOVHQVGMUGYZCH-VQHVLOKHSA-N

> <PUBCHEM_SUBSTANCE_SYNONYM>
SCHEMBL16120483

> <PUBCHEM_XREF_EXT_ID>
SCHEMBL16120483

> <PUBCHEM_EXT_DATASOURCE_URL>
https://www.surechembl.org/

> <PUBCHEM_EXT_SUBSTANCE_URL>
https://www.surechembl.org/chemical/SCHEMBL16120483

> <PUBCHEM_CID_ASSOCIATIONS>
117609037  1

> <PUBCHEM_COORDINATE_TYPE>
1
3

$$$$
