310949737
  -OEChem-07211613022D

 23 24  0     0  0  0  0  0  0999 V2000
   -1.4691   -0.8116    0.0000 O   0  0  0  0  0  0  0  0  0  0  0  0
    1.4486   -1.6746    0.0000 O   0  0  0  0  0  0  0  0  0  0  0  0
    0.7294   -0.4212    0.0000 N   0  0  0  0  0  0  0  0  0  0  0  0
    2.8868   -0.8527    0.0000 N   0  0  0  0  0  0  0  0  0  0  0  0
    2.1677    0.4007    0.0000 N   0  0  0  0  0  0  0  0  0  0  0  0
   -2.1883    0.4417    0.0000 C   0  0  0  0  0  0  0  0  0  0  0  0
   -1.4280    0.8732    0.0000 C   0  0  0  0  0  0  0  0  0  0  0  0
   -2.1883   -0.3800    0.0000 C   0  0  0  0  0  0  0  0  0  0  0  0
    1.4486   -0.8116    0.0000 C   0  0  0  0  0  0  0  0  0  0  0  0
    2.1677   -0.4417    0.0000 C   0  0  0  0  0  0  0  0  0  0  0  0
   -2.9279    0.8322    0.0000 C   0  0  0  0  0  0  0  0  0  0  0  0
   -2.8868   -0.7911    0.0000 C   0  0  0  0  0  0  0  0  0  0  0  0
   -0.0103   -0.8322    0.0000 C   0  0  0  0  0  0  0  0  0  0  0  0
   -0.7089   -0.4212    0.0000 C   0  0  0  0  0  0  0  0  0  0  0  0
   -3.6060    0.4417    0.0000 C   0  0  0  0  0  0  0  0  0  0  0  0
   -3.6265   -0.3595    0.0000 C   0  0  0  0  0  0  0  0  0  0  0  0
   -1.4486    1.6746    0.0000 C   0  0  0  0  0  0  0  0  0  0  0  0
   -0.6884    1.2225    0.0000 C   0  0  0  0  0  0  0  0  0  0  0  0
   -0.6884    0.4007    0.0000 C   0  0  0  0  0  0  0  0  0  0  0  0
    3.6060   -0.4417    0.0000 C   0  0  0  0  0  0  0  0  0  0  0  0
    2.9073    0.8116    0.0000 C   0  0  0  0  0  0  0  0  0  0  0  0
    0.7500    0.4212    0.0000 C   0  0  0  0  0  0  0  0  0  0  0  0
    3.6265    0.4007    0.0000 C   0  0  0  0  0  0  0  0  0  0  0  0
  1  8  1  0  0  0  0
  1 14  1  0  0  0  0
  2  9  2  0  0  0  0
  3  9  1  0  0  0  0
  3 13  1  0  0  0  0
  3 22  1  0  0  0  0
  4 10  2  0  0  0  0
  4 20  1  0  0  0  0
  5 10  1  0  0  0  0
  5 21  1  0  0  0  0
  6  7  1  0  0  0  0
  6  8  1  0  0  0  0
  6 11  2  0  0  0  0
  7 17  1  0  0  0  0
  7 18  1  0  0  0  0
  7 19  1  0  0  0  0
  8 12  2  0  0  0  0
  9 10  1  0  0  0  0
 11 15  1  0  0  0  0
 12 16  1  0  0  0  0
 13 14  1  0  0  0  0
 15 16  2  0  0  0  0
 20 23  2  0  0  0  0
 21 23  1  0  0  0  0
M  END
> <PUBCHEM_COMPOUND_ID_TYPE>
0

> <PUBCHEM_TOTAL_CHARGE>
0

> <PUBCHEM_SUBSTANCE_ID>
310949737

> <PUBCHEM_SUBSTANCE_VERSION>
1

> <PUBCHEM_EXT_DATASOURCE_NAME>
4488

> <PUBCHEM_EXT_DATASOURCE_REGID>
SCHEMBL16127935

> <PUBCHEM_SUBSTANCE_COMMENT>
InChI=1S/C18H25N3O2/c1-18(2,3)14-8-5-6-9-15(14)23-13-12-21(4)17(22)16-19-10-7-11-20-16/h5-10H,11-13H2,1-4H3,(H,19,20)
InChIKey=AEUAHVRIBCUCQL-UHFFFAOYSA-N

> <PUBCHEM_SUBSTANCE_SYNONYM>
SCHEMBL16127935

> <PUBCHEM_XREF_EXT_ID>
SCHEMBL16127935

> <PUBCHEM_EXT_DATASOURCE_URL>
https://www.surechembl.org/

> <PUBCHEM_EXT_SUBSTANCE_URL>
https://www.surechembl.org/chemical/SCHEMBL16127935

> <PUBCHEM_CID_ASSOCIATIONS>
117615076  1

> <PUBCHEM_COORDINATE_TYPE>
1
3

$$$$
