310943314
  -OEChem-07211613022D

 35 39  0     0  0  0  0  0  0999 V2000
    4.6350    1.4722    0.0000 F   0  0  0  0  0  0  0  0  0  0  0  0
    5.3468    1.0516    0.0000 F   0  0  0  0  0  0  0  0  0  0  0  0
    5.3468    0.2265    0.0000 F   0  0  0  0  0  0  0  0  0  0  0  0
   -5.3468    1.4722    0.0000 O   0  0  0  0  0  0  0  0  0  0  0  0
    1.7714    1.4560    0.0000 O   0  0  0  0  0  0  0  0  0  0  0  0
   -2.4996   -1.0031    0.0000 N   0  0  0  0  0  0  0  0  0  0  0  0
   -3.9232    0.6471    0.0000 N   0  0  0  0  0  0  0  0  0  0  0  0
   -3.8261   -1.1487    0.0000 N   0  0  0  0  0  0  0  0  0  0  0  0
   -0.3640    1.8928    0.0000 N   0  0  0  0  0  0  0  0  0  0  0  0
    1.0758    0.2265    0.0000 N   0  0  0  0  0  0  0  0  0  0  0  0
   -3.2113   -0.5985    0.0000 C   0  0  0  0  0  0  0  0  0  0  0  0
   -3.1952    0.2427    0.0000 C   0  0  0  0  0  0  0  0  0  0  0  0
   -1.7714    0.2427    0.0000 C   0  0  0  0  0  0  0  0  0  0  0  0
   -1.0758    0.6471    0.0000 C   0  0  0  0  0  0  0  0  0  0  0  0
   -2.4996    0.6471    0.0000 C   0  0  0  0  0  0  0  0  0  0  0  0
   -1.7877   -0.5985    0.0000 C   0  0  0  0  0  0  0  0  0  0  0  0
   -1.0597    1.4722    0.0000 C   0  0  0  0  0  0  0  0  0  0  0  0
   -2.6775   -1.8281    0.0000 C   0  0  0  0  0  0  0  0  0  0  0  0
   -0.3317    0.2427    0.0000 C   0  0  0  0  0  0  0  0  0  0  0  0
    0.3478    0.6471    0.0000 C   0  0  0  0  0  0  0  0  0  0  0  0
   -3.4863   -1.8928    0.0000 C   0  0  0  0  0  0  0  0  0  0  0  0
   -3.9232    1.4722    0.0000 C   0  0  0  0  0  0  0  0  0  0  0  0
   -4.6027    0.2427    0.0000 C   0  0  0  0  0  0  0  0  0  0  0  0
    0.3640    1.4722    0.0000 C   0  0  0  0  0  0  0  0  0  0  0  0
    2.4996    0.2427    0.0000 C   0  0  0  0  0  0  0  0  0  0  0  0
    1.7714    0.6309    0.0000 C   0  0  0  0  0  0  0  0  0  0  0  0
    3.9232    0.2427    0.0000 C   0  0  0  0  0  0  0  0  0  0  0  0
    4.6350    0.6471    0.0000 C   0  0  0  0  0  0  0  0  0  0  0  0
    3.1952    0.6309    0.0000 C   0  0  0  0  0  0  0  0  0  0  0  0
   -1.7877    1.8604    0.0000 C   0  0  0  0  0  0  0  0  0  0  0  0
   -4.6350    1.8766    0.0000 C   0  0  0  0  0  0  0  0  0  0  0  0
   -5.3306    0.6309    0.0000 C   0  0  0  0  0  0  0  0  0  0  0  0
    2.5157   -0.5985    0.0000 C   0  0  0  0  0  0  0  0  0  0  0  0
    3.9071   -0.5985    0.0000 C   0  0  0  0  0  0  0  0  0  0  0  0
    3.2113   -1.0031    0.0000 C   0  0  0  0  0  0  0  0  0  0  0  0
  1 28  1  0  0  0  0
  2 28  1  0  0  0  0
  3 28  1  0  0  0  0
  4 31  1  0  0  0  0
  4 32  1  0  0  0  0
  5 26  2  0  0  0  0
  6 11  1  0  0  0  0
  6 16  1  0  0  0  0
  6 18  1  0  0  0  0
  7 12  1  0  0  0  0
  7 22  1  0  0  0  0
  7 23  1  0  0  0  0
  8 11  2  0  0  0  0
  8 21  1  0  0  0  0
  9 17  1  0  0  0  0
  9 24  2  0  0  0  0
 10 20  1  0  0  0  0
 10 26  1  0  0  0  0
 11 12  1  0  0  0  0
 12 15  2  0  0  0  0
 13 14  1  0  0  0  0
 13 15  1  0  0  0  0
 13 16  2  0  0  0  0
 14 17  2  0  0  0  0
 14 19  1  0  0  0  0
 17 30  1  0  0  0  0
 18 21  2  0  0  0  0
 19 20  2  0  0  0  0
 20 24  1  0  0  0  0
 22 31  1  0  0  0  0
 23 32  1  0  0  0  0
 25 26  1  0  0  0  0
 25 29  1  0  0  0  0
 25 33  2  0  0  0  0
 27 28  1  0  0  0  0
 27 29  2  0  0  0  0
 27 34  1  0  0  0  0
 33 35  1  0  0  0  0
 34 35  2  0  0  0  0
M  END
> <PUBCHEM_COMPOUND_ID_TYPE>
0

> <PUBCHEM_TOTAL_CHARGE>
0

> <PUBCHEM_SUBSTANCE_ID>
310943314

> <PUBCHEM_SUBSTANCE_VERSION>
1

> <PUBCHEM_EXT_DATASOURCE_NAME>
4488

> <PUBCHEM_EXT_DATASOURCE_REGID>
SCHEMBL16121376

> <PUBCHEM_SUBSTANCE_COMMENT>
InChI=1S/C25H22F3N5O2/c1-16-21(18-12-22(32-7-9-35-10-8-32)23-29-5-6-33(23)15-18)13-20(14-30-16)31-24(34)17-3-2-4-19(11-17)25(26,27)28/h2-6,11-15H,7-10H2,1H3,(H,31,34)
InChIKey=JYCGAJUVLULZLX-UHFFFAOYSA-N

> <PUBCHEM_SUBSTANCE_SYNONYM>
SCHEMBL16121376

> <PUBCHEM_XREF_EXT_ID>
SCHEMBL16121376

> <PUBCHEM_EXT_DATASOURCE_URL>
https://www.surechembl.org/

> <PUBCHEM_EXT_SUBSTANCE_URL>
https://www.surechembl.org/chemical/SCHEMBL16121376

> <PUBCHEM_CID_ASSOCIATIONS>
117609739  1

> <PUBCHEM_COORDINATE_TYPE>
1
3

$$$$
