310944325
  -OEChem-07211613022D

 26 28  0     1  0  0  0  0  0999 V2000
    2.6785    1.2698    0.0000 O   0  0  0  0  0  0  0  0  0  0  0  0
   -2.3345    0.0265    0.0000 N   0  0  0  0  0  0  0  0  0  0  0  0
   -2.4271    0.8597    0.0000 N   0  0  0  0  0  0  0  0  0  0  0  0
    0.5357    0.0397    0.0000 N   0  0  3  0  0  0  0  0  0  0  0  0
   -3.1017   -0.3042    0.0000 C   0  0  0  0  0  0  0  0  0  0  0  0
   -3.6705    0.3042    0.0000 C   0  0  0  0  0  0  0  0  0  0  0  0
   -3.2472    1.0185    0.0000 C   0  0  0  0  0  0  0  0  0  0  0  0
   -3.3662   -1.0979    0.0000 C   0  0  0  0  0  0  0  0  0  0  0  0
   -1.6203   -0.3835    0.0000 C   0  0  0  0  0  0  0  0  0  0  0  0
   -4.4509    0.1190    0.0000 C   0  0  0  0  0  0  0  0  0  0  0  0
   -0.9193    0.0265    0.0000 C   0  0  3  0  0  0  0  0  0  0  0  0
   -4.1599   -1.2698    0.0000 C   0  0  0  0  0  0  0  0  0  0  0  0
   -4.7022   -0.6745    0.0000 C   0  0  0  0  0  0  0  0  0  0  0  0
   -0.1786   -0.3835    0.0000 C   0  0  0  0  0  0  0  0  0  0  0  0
    3.4192    0.8597    0.0000 C   0  0  0  0  0  0  0  0  0  0  0  0
    0.5357    0.8597    0.0000 C   0  0  0  0  0  0  0  0  0  0  0  0
    1.9642    0.8730    0.0000 C   0  0  3  0  0  0  0  0  0  0  0  0
   -0.9061    0.8333    0.0000 C   0  0  0  0  0  0  0  0  0  0  0  0
    1.2367    1.2698    0.0000 C   0  0  0  0  0  0  0  0  0  0  0  0
    1.2499   -0.3703    0.0000 C   0  0  0  0  0  0  0  0  0  0  0  0
    3.4985    0.0397    0.0000 C   0  0  0  0  0  0  0  0  0  0  0  0
    4.1599    1.1904    0.0000 C   0  0  0  0  0  0  0  0  0  0  0  0
    4.7022    0.5952    0.0000 C   0  0  0  0  0  0  0  0  0  0  0  0
    4.3054   -0.1323    0.0000 C   0  0  0  0  0  0  0  0  0  0  0  0
    1.9642    0.0397    0.0000 C   0  0  0  0  0  0  0  0  0  0  0  0
    1.5674    0.4762    0.0000 C   0  0  0  0  0  0  0  0  0  0  0  0
  1 15  1  0  0  0  0
  1 17  1  0  0  0  0
  2  3  1  0  0  0  0
  2  5  1  0  0  0  0
  2  9  1  0  0  0  0
  3  7  2  0  0  0  0
  4 14  1  0  0  0  0
  4 16  1  0  0  0  0
  4 20  1  0  0  0  0
  5  6  2  0  0  0  0
  5  8  1  0  0  0  0
  6  7  1  0  0  0  0
  6 10  1  0  0  0  0
  8 12  2  0  0  0  0
  9 11  1  0  0  0  0
 10 13  2  0  0  0  0
 11 14  1  0  0  0  0
 11 18  1  6  0  0  0
 12 13  1  0  0  0  0
 15 21  1  0  0  0  0
 15 22  1  0  0  0  0
 16 19  1  0  0  0  0
 17 19  1  0  0  0  0
 17 25  1  1  0  0  0
 20 26  1  0  0  0  0
 21 24  1  0  0  0  0
 22 23  1  0  0  0  0
 23 24  1  0  0  0  0
M  END
> <PUBCHEM_COMPOUND_ID_TYPE>
0

> <PUBCHEM_TOTAL_CHARGE>
0

> <PUBCHEM_SUBSTANCE_ID>
310944325

> <PUBCHEM_SUBSTANCE_VERSION>
1

> <PUBCHEM_EXT_DATASOURCE_NAME>
4488

> <PUBCHEM_EXT_DATASOURCE_REGID>
SCHEMBL16122400

> <PUBCHEM_SUBSTANCE_COMMENT>
InChI=1S/C22H35N3O/c1-4-24(14-13-19(3)26-21-10-6-7-11-21)16-18(2)17-25-22-12-8-5-9-20(22)15-23-25/h5,8-9,12,15,18-19,21H,4,6-7,10-11,13-14,16-17H2,1-3H3/t18-,19+/m1/s1
InChIKey=XTQBPVKAAGKYSF-MOPGFXCFSA-N

> <PUBCHEM_SUBSTANCE_SYNONYM>
SCHEMBL16122400

> <PUBCHEM_XREF_EXT_ID>
SCHEMBL16122400

> <PUBCHEM_EXT_DATASOURCE_URL>
https://www.surechembl.org/

> <PUBCHEM_EXT_SUBSTANCE_URL>
https://www.surechembl.org/chemical/SCHEMBL16122400

> <PUBCHEM_CID_ASSOCIATIONS>
117610584  1

> <PUBCHEM_COORDINATE_TYPE>
1
3

> <PUBCHEM_BONDANNOTATIONS>
11  18  6
17  25  5

$$$$
