310933875
  -OEChem-07211613022D

 23 25  0     0  0  0  0  0  0999 V2000
    4.3263   -5.7468    0.0000 O   0  0  0  0  0  0  0  0  0  0  0  0
    0.7103    0.0000    0.0000 O   0  0  0  0  0  0  0  0  0  0  0  0
    0.0000   -1.2269    0.0000 O   0  0  0  0  0  0  0  0  0  0  0  0
    3.5191   -3.2931    0.0000 N   0  0  0  0  0  0  0  0  0  0  0  0
    1.4206   -1.2269    0.0000 N   0  0  0  0  0  0  0  0  0  0  0  0
    2.8411   -2.0663    0.0000 C   0  0  0  0  0  0  0  0  0  0  0  0
    3.5515   -2.4537    0.0000 C   0  0  0  0  0  0  0  0  0  0  0  0
    2.8411   -1.2269    0.0000 C   0  0  0  0  0  0  0  0  0  0  0  0
    2.1309   -2.4537    0.0000 C   0  0  0  0  0  0  0  0  0  0  0  0
    2.1309   -0.8072    0.0000 C   0  0  0  0  0  0  0  0  0  0  0  0
    4.2617   -2.0663    0.0000 C   0  0  0  0  0  0  0  0  0  0  0  0
    3.5191   -4.9074    0.0000 C   0  0  0  0  0  0  0  0  0  0  0  0
    3.5515   -0.8072    0.0000 C   0  0  0  0  0  0  0  0  0  0  0  0
    4.2617   -3.7129    0.0000 C   0  0  0  0  0  0  0  0  0  0  0  0
    2.8089   -3.6806    0.0000 C   0  0  0  0  0  0  0  0  0  0  0  0
    1.4206   -2.0663    0.0000 C   0  0  0  0  0  0  0  0  0  0  0  0
    3.5191   -5.7468    0.0000 C   0  0  0  0  0  0  0  0  0  0  0  0
    4.2617   -1.2269    0.0000 C   0  0  0  0  0  0  0  0  0  0  0  0
    4.2617   -4.5200    0.0000 C   0  0  0  0  0  0  0  0  0  0  0  0
    2.8089   -4.4877    0.0000 C   0  0  0  0  0  0  0  0  0  0  0  0
    0.7103   -0.8072    0.0000 C   0  0  0  0  0  0  0  0  0  0  0  0
    3.9388   -6.4572    0.0000 C   0  0  0  0  0  0  0  0  0  0  0  0
    2.6797   -5.7468    0.0000 C   0  0  0  0  0  0  0  0  0  0  0  0
  1 17  1  0  0  0  0
  2 21  2  0  0  0  0
  3 21  1  0  0  0  0
  4  7  1  0  0  0  0
  4 14  1  0  0  0  0
  4 15  1  0  0  0  0
  5 10  1  0  0  0  0
  5 16  1  0  0  0  0
  5 21  1  0  0  0  0
  6  7  1  0  0  0  0
  6  8  2  0  0  0  0
  6  9  1  0  0  0  0
  7 11  2  0  0  0  0
  8 10  1  0  0  0  0
  8 13  1  0  0  0  0
  9 16  1  0  0  0  0
 11 18  1  0  0  0  0
 12 17  1  0  0  0  0
 12 19  1  0  0  0  0
 12 20  1  0  0  0  0
 13 18  2  0  0  0  0
 14 19  1  0  0  0  0
 15 20  1  0  0  0  0
 17 22  1  0  0  0  0
 17 23  1  0  0  0  0
M  END
> <PUBCHEM_COMPOUND_ID_TYPE>
0

> <PUBCHEM_TOTAL_CHARGE>
0

> <PUBCHEM_SUBSTANCE_ID>
310933875

> <PUBCHEM_SUBSTANCE_VERSION>
1

> <PUBCHEM_EXT_DATASOURCE_NAME>
4488

> <PUBCHEM_EXT_DATASOURCE_REGID>
SCHEMBL16111314

> <PUBCHEM_SUBSTANCE_COMMENT>
InChI=1S/C18H26N2O3/c1-18(2,23)14-6-9-19(10-7-14)16-5-3-4-13-12-20(17(21)22)11-8-15(13)16/h3-5,14,23H,6-12H2,1-2H3,(H,21,22)
InChIKey=JYCJWKCKJNMRKR-UHFFFAOYSA-N

> <PUBCHEM_SUBSTANCE_SYNONYM>
SCHEMBL16111314

> <PUBCHEM_XREF_EXT_ID>
SCHEMBL16111314

> <PUBCHEM_EXT_DATASOURCE_URL>
https://www.surechembl.org/

> <PUBCHEM_EXT_SUBSTANCE_URL>
https://www.surechembl.org/chemical/SCHEMBL16111314

> <PUBCHEM_CID_ASSOCIATIONS>
117602210  1

> <PUBCHEM_COORDINATE_TYPE>
1
3

$$$$
