310947002
  -OEChem-07211613022D

 35 38  0     0  0  0  0  0  0999 V2000
   -0.9920   -1.8563    0.0000 F   0  0  0  0  0  0  0  0  0  0  0  0
   -2.4209    0.6187    0.0000 F   0  0  0  0  0  0  0  0  0  0  0  0
   -2.4209   -2.6812    0.0000 O   0  0  0  0  0  0  0  0  0  0  0  0
   -3.8499   -0.2062    0.0000 O   0  0  0  0  0  0  0  0  0  0  0  0
   -0.9920   -0.2062    0.0000 N   0  0  0  0  0  0  0  0  0  0  0  0
    0.4369   -0.2062    0.0000 N   0  0  0  0  0  0  0  0  0  0  0  0
    1.8659   -0.2063    0.0000 N   0  0  0  0  0  0  0  0  0  0  0  0
    1.8659   -1.8563    0.0000 N   0  0  0  0  0  0  0  0  0  0  0  0
    4.0794    0.8737    0.0000 N   0  0  0  0  0  0  0  0  0  0  0  0
    4.5644    0.2062    0.0000 N   0  0  0  0  0  0  0  0  0  0  0  0
   -1.7065    1.8563    0.0000 N   0  0  0  0  0  0  0  0  0  0  0  0
   -1.7065   -0.6187    0.0000 C   0  0  0  0  0  0  0  0  0  0  0  0
   -0.2775   -0.6187    0.0000 C   0  0  0  0  0  0  0  0  0  0  0  0
   -1.7065   -1.4437    0.0000 C   0  0  0  0  0  0  0  0  0  0  0  0
   -2.4209   -0.2062    0.0000 C   0  0  0  0  0  0  0  0  0  0  0  0
    1.1514   -0.6187    0.0000 C   0  0  0  0  0  0  0  0  0  0  0  0
   -2.4209   -1.8563    0.0000 C   0  0  0  0  0  0  0  0  0  0  0  0
   -3.1354   -0.6187    0.0000 C   0  0  0  0  0  0  0  0  0  0  0  0
    1.1514   -1.4437    0.0000 C   0  0  0  0  0  0  0  0  0  0  0  0
   -3.1354   -1.4437    0.0000 C   0  0  0  0  0  0  0  0  0  0  0  0
   -0.2775   -1.4437    0.0000 C   0  0  0  0  0  0  0  0  0  0  0  0
    2.5803   -0.6187    0.0000 C   0  0  0  0  0  0  0  0  0  0  0  0
   -0.9920    0.6187    0.0000 C   0  0  0  0  0  0  0  0  0  0  0  0
    0.4369   -1.8563    0.0000 C   0  0  0  0  0  0  0  0  0  0  0  0
    3.2948   -0.2062    0.0000 C   0  0  0  0  0  0  0  0  0  0  0  0
    2.5803   -1.4437    0.0000 C   0  0  0  0  0  0  0  0  0  0  0  0
    3.2948    0.6187    0.0000 C   0  0  0  0  0  0  0  0  0  0  0  0
   -1.7065    1.0313    0.0000 C   0  0  0  0  0  0  0  0  0  0  0  0
    4.0794   -0.4612    0.0000 C   0  0  0  0  0  0  0  0  0  0  0  0
   -1.7065   -3.0938    0.0000 C   0  0  0  0  0  0  0  0  0  0  0  0
   -4.5644   -0.6187    0.0000 C   0  0  0  0  0  0  0  0  0  0  0  0
    4.4919    1.5882    0.0000 C   0  0  0  0  0  0  0  0  0  0  0  0
   -2.4209    2.2687    0.0000 C   0  0  0  0  0  0  0  0  0  0  0  0
   -2.4209    3.0938    0.0000 C   0  0  0  0  0  0  0  0  0  0  0  0
   -3.1354    1.8563    0.0000 C   0  0  0  0  0  0  0  0  0  0  0  0
  1 14  1  0  0  0  0
  2 15  1  0  0  0  0
  3 17  1  0  0  0  0
  3 30  1  0  0  0  0
  4 18  1  0  0  0  0
  4 31  1  0  0  0  0
  5 12  1  0  0  0  0
  5 13  1  0  0  0  0
  5 23  1  0  0  0  0
  6 13  1  0  0  0  0
  6 16  2  0  0  0  0
  7 16  1  0  0  0  0
  7 22  2  0  0  0  0
  8 19  1  0  0  0  0
  8 26  2  0  0  0  0
  9 10  1  0  0  0  0
  9 27  1  0  0  0  0
  9 32  1  0  0  0  0
 10 29  2  0  0  0  0
 11 28  1  0  0  0  0
 11 33  1  0  0  0  0
 12 14  1  0  0  0  0
 12 15  2  0  0  0  0
 13 21  2  0  0  0  0
 14 17  2  0  0  0  0
 15 18  1  0  0  0  0
 16 19  1  0  0  0  0
 17 20  1  0  0  0  0
 18 20  2  0  0  0  0
 19 24  2  0  0  0  0
 21 24  1  0  0  0  0
 22 25  1  0  0  0  0
 22 26  1  0  0  0  0
 23 28  1  0  0  0  0
 25 27  2  0  0  0  0
 25 29  1  0  0  0  0
 33 34  1  0  0  0  0
 33 35  1  0  0  0  0
M  END
> <PUBCHEM_COMPOUND_ID_TYPE>
0

> <PUBCHEM_TOTAL_CHARGE>
0

> <PUBCHEM_SUBSTANCE_ID>
310947002

> <PUBCHEM_SUBSTANCE_VERSION>
1

> <PUBCHEM_EXT_DATASOURCE_NAME>
4488

> <PUBCHEM_EXT_DATASOURCE_REGID>
SCHEMBL16125154

> <PUBCHEM_SUBSTANCE_COMMENT>
InChI=1S/C24H27F2N7O2/c1-14(2)27-8-9-33(23-21(25)18(34-4)10-19(35-5)22(23)26)20-7-6-16-24(31-20)30-17(12-28-16)15-11-29-32(3)13-15/h6-7,10-14,27H,8-9H2,1-5H3
InChIKey=YJZSYAAKHVEPDT-UHFFFAOYSA-N

> <PUBCHEM_SUBSTANCE_SYNONYM>
SCHEMBL16125154

> <PUBCHEM_XREF_EXT_ID>
SCHEMBL16125154

> <PUBCHEM_EXT_DATASOURCE_URL>
https://www.surechembl.org/

> <PUBCHEM_EXT_SUBSTANCE_URL>
https://www.surechembl.org/chemical/SCHEMBL16125154

> <PUBCHEM_CID_ASSOCIATIONS>
117612856  1

> <PUBCHEM_COORDINATE_TYPE>
1
3

$$$$
