310944299
  -OEChem-07211613022D

 12 13  0     1  0  0  0  0  0999 V2000
    0.0319    0.7825    0.0000 O   0  0  0  0  0  0  0  0  0  0  0  0
   -2.2675   -0.4312    0.0000 N   0  0  0  0  0  0  0  0  0  0  0  0
   -1.4851   -0.8304    0.0000 C   0  0  3  0  0  0  0  0  0  0  0  0
   -2.1718    0.4631    0.0000 C   0  0  3  0  0  0  0  0  0  0  0  0
   -0.7186    0.3832    0.0000 C   0  0  0  0  0  0  0  0  0  0  0  0
   -1.4691    0.8304    0.0000 C   0  0  0  0  0  0  0  0  0  0  0  0
   -0.7665   -0.4791    0.0000 C   0  0  0  0  0  0  0  0  0  0  0  0
   -1.0858   -0.2395    0.0000 C   0  0  0  0  0  0  0  0  0  0  0  0
   -1.4531    0.4152    0.0000 C   0  0  0  0  0  0  0  0  0  0  0  0
    0.7825    0.3354    0.0000 C   0  0  0  0  0  0  0  0  0  0  0  0
    1.5489    0.7345    0.0000 C   0  0  0  0  0  0  0  0  0  0  0  0
    2.2675    0.2236    0.0000 C   0  0  0  0  0  0  0  0  0  0  0  0
  5  1  1  1  0  0  0
  1 10  1  0  0  0  0
  3  2  1  6  0  0  0
  4  2  1  6  0  0  0
  3  7  1  0  0  0  0
  3  8  1  0  0  0  0
  4  6  1  0  0  0  0
  4  9  1  0  0  0  0
  5  6  1  0  0  0  0
  5  7  1  0  0  0  0
  8  9  1  0  0  0  0
 10 11  1  0  0  0  0
 11 12  2  0  0  0  0
M  END
> <PUBCHEM_COMPOUND_ID_TYPE>
0

> <PUBCHEM_TOTAL_CHARGE>
0

> <PUBCHEM_SUBSTANCE_ID>
310944299

> <PUBCHEM_SUBSTANCE_VERSION>
1

> <PUBCHEM_EXT_DATASOURCE_NAME>
4488

> <PUBCHEM_EXT_DATASOURCE_REGID>
SCHEMBL16122374

> <PUBCHEM_SUBSTANCE_COMMENT>
InChI=1S/C10H17NO/c1-2-5-12-10-6-8-3-4-9(7-10)11-8/h2,8-11H,1,3-7H2/t8-,9+,10+
InChIKey=ZDMUEGQRDAASAQ-MYJAWHEDSA-N

> <PUBCHEM_SUBSTANCE_SYNONYM>
SCHEMBL16122374

> <PUBCHEM_XREF_EXT_ID>
SCHEMBL16122374

> <PUBCHEM_EXT_DATASOURCE_URL>
https://www.surechembl.org/

> <PUBCHEM_EXT_SUBSTANCE_URL>
https://www.surechembl.org/chemical/SCHEMBL16122374

> <PUBCHEM_CID_ASSOCIATIONS>
117610564  1

> <PUBCHEM_COORDINATE_TYPE>
1
3

> <PUBCHEM_BONDANNOTATIONS>
5  1  5
3  2  6
4  2  6

$$$$
