310939201
  -OEChem-07211613022D

 24 25  0     1  0  0  0  0  0999 V2000
   -0.0553    1.6500    0.0000 Cl  0  0  0  0  0  0  0  0  0  0  0  0
    2.8026   -0.8250    0.0000 S   0  0  0  0  0  0  0  0  0  0  0  0
   -1.4842   -0.8250    0.0000 F   0  0  0  0  0  0  0  0  0  0  0  0
   -0.0553    0.0000    0.0000 O   0  0  0  0  0  0  0  0  0  0  0  0
    1.9776   -0.8250    0.0000 O   0  0  0  0  0  0  0  0  0  0  0  0
    3.6276   -0.8250    0.0000 O   0  0  0  0  0  0  0  0  0  0  0  0
    2.8026    0.0000    0.0000 N   0  0  0  0  0  0  0  0  0  0  0  0
   -3.6276    0.4125    0.0000 N   0  0  0  0  0  0  0  0  0  0  0  0
   -0.7697    0.4125    0.0000 C   0  0  0  0  0  0  0  0  0  0  0  0
   -1.4842    0.0000    0.0000 C   0  0  0  0  0  0  0  0  0  0  0  0
   -2.1987    0.4125    0.0000 C   0  0  0  0  0  0  0  0  0  0  0  0
   -0.7697    1.2375    0.0000 C   0  0  0  0  0  0  0  0  0  0  0  0
    0.6592    0.4125    0.0000 C   0  0  0  0  0  0  0  0  0  0  0  0
   -2.1987    1.2375    0.0000 C   0  0  0  0  0  0  0  0  0  0  0  0
   -2.9131    0.0000    0.0000 C   0  0  3  0  0  0  0  0  0  0  0  0
   -1.4842    1.6500    0.0000 C   0  0  0  0  0  0  0  0  0  0  0  0
    2.0881    0.4125    0.0000 C   0  0  0  0  0  0  0  0  0  0  0  0
    1.3737    0.0000    0.0000 C   0  0  0  0  0  0  0  0  0  0  0  0
    0.6592    1.2375    0.0000 C   0  0  0  0  0  0  0  0  0  0  0  0
    2.0881    1.2375    0.0000 C   0  0  0  0  0  0  0  0  0  0  0  0
    1.3737    1.6500    0.0000 C   0  0  0  0  0  0  0  0  0  0  0  0
   -2.9131   -0.8250    0.0000 C   0  0  0  0  0  0  0  0  0  0  0  0
    2.8026   -1.6500    0.0000 C   0  0  0  0  0  0  0  0  0  0  0  0
   -3.6276   -1.2375    0.0000 C   0  0  0  0  0  0  0  0  0  0  0  0
  1 12  1  0  0  0  0
  2  5  2  0  0  0  0
  2  6  2  0  0  0  0
  2  7  1  0  0  0  0
  2 23  1  0  0  0  0
  3 10  1  0  0  0  0
  4  9  1  0  0  0  0
  4 13  1  0  0  0  0
  7 17  1  0  0  0  0
 15  8  1  1  0  0  0
  9 10  1  0  0  0  0
  9 12  2  0  0  0  0
 10 11  2  0  0  0  0
 11 14  1  0  0  0  0
 11 15  1  0  0  0  0
 12 16  1  0  0  0  0
 13 18  1  0  0  0  0
 13 19  2  0  0  0  0
 14 16  2  0  0  0  0
 15 22  1  0  0  0  0
 17 18  2  0  0  0  0
 17 20  1  0  0  0  0
 19 21  1  0  0  0  0
 20 21  2  0  0  0  0
 22 24  1  0  0  0  0
M  END
> <PUBCHEM_COMPOUND_ID_TYPE>
0

> <PUBCHEM_TOTAL_CHARGE>
0

> <PUBCHEM_SUBSTANCE_ID>
310939201

> <PUBCHEM_SUBSTANCE_VERSION>
1

> <PUBCHEM_EXT_DATASOURCE_NAME>
4488

> <PUBCHEM_EXT_DATASOURCE_REGID>
SCHEMBL16117122

> <PUBCHEM_SUBSTANCE_COMMENT>
InChI=1S/C16H18ClFN2O3S/c1-3-14(19)12-7-8-13(17)16(15(12)18)23-11-6-4-5-10(9-11)20-24(2,21)22/h4-9,14,20H,3,19H2,1-2H3/t14-/m1/s1
InChIKey=OJJXDXYGKXUNBL-CQSZACIVSA-N

> <PUBCHEM_SUBSTANCE_SYNONYM>
SCHEMBL16117122

> <PUBCHEM_XREF_EXT_ID>
SCHEMBL16117122

> <PUBCHEM_EXT_DATASOURCE_URL>
https://www.surechembl.org/

> <PUBCHEM_EXT_SUBSTANCE_URL>
https://www.surechembl.org/chemical/SCHEMBL16117122

> <PUBCHEM_CID_ASSOCIATIONS>
117606550  1

> <PUBCHEM_COORDINATE_TYPE>
1
3

> <PUBCHEM_BONDANNOTATIONS>
15  8  5

$$$$
