310949488
  -OEChem-07211613022D

 18 20  0     0  0  0  0  0  0999 V2000
   -1.8810   -0.3302    0.0000 O   0  0  0  0  0  0  0  0  0  0  0  0
    0.6803   -1.9510    0.0000 O   0  0  0  0  0  0  0  0  0  0  0  0
   -0.0200    0.8905    0.0000 N   0  0  0  0  0  0  0  0  0  0  0  0
   -0.4802   -0.7704    0.0000 N   0  0  0  0  0  0  0  0  0  0  0  0
   -0.8004    1.9910    0.0000 N   0  0  0  0  0  0  0  0  0  0  0  0
    1.4208    1.7309    0.0000 N   0  0  0  0  0  0  0  0  0  0  0  0
   -0.8004    0.6503    0.0000 C   0  0  0  0  0  0  0  0  0  0  0  0
   -0.0200    1.7709    0.0000 C   0  0  0  0  0  0  0  0  0  0  0  0
   -1.0606   -0.1500    0.0000 C   0  0  0  0  0  0  0  0  0  0  0  0
   -1.2807    1.3107    0.0000 C   0  0  0  0  0  0  0  0  0  0  0  0
    0.7204    0.4903    0.0000 C   0  0  0  0  0  0  0  0  0  0  0  0
    0.7004    2.1712    0.0000 C   0  0  0  0  0  0  0  0  0  0  0  0
    1.4208    0.9105    0.0000 C   0  0  0  0  0  0  0  0  0  0  0  0
    0.3201   -0.5303    0.0000 C   0  0  0  0  0  0  0  0  0  0  0  0
   -0.6803   -1.5708    0.0000 C   0  0  0  0  0  0  0  0  0  0  0  0
    0.9205   -1.1306    0.0000 C   0  0  0  0  0  0  0  0  0  0  0  0
   -0.0801   -2.1712    0.0000 C   0  0  0  0  0  0  0  0  0  0  0  0
    1.8810    0.6503    0.0000 C   0  0  0  0  0  0  0  0  0  0  0  0
  1  9  2  0  0  0  0
  2 16  1  0  0  0  0
  2 17  1  0  0  0  0
  3  7  1  0  0  0  0
  3  8  1  0  0  0  0
  3 11  1  0  0  0  0
  4  9  1  0  0  0  0
  4 14  1  0  0  0  0
  4 15  1  0  0  0  0
  5  8  2  0  0  0  0
  5 10  1  0  0  0  0
  6 12  2  0  0  0  0
  6 13  1  0  0  0  0
  7  9  1  0  0  0  0
  7 10  2  0  0  0  0
  8 12  1  0  0  0  0
 11 13  2  0  0  0  0
 13 18  1  0  0  0  0
 14 16  1  0  0  0  0
 15 17  1  0  0  0  0
M  END
> <PUBCHEM_COMPOUND_ID_TYPE>
0

> <PUBCHEM_TOTAL_CHARGE>
0

> <PUBCHEM_SUBSTANCE_ID>
310949488

> <PUBCHEM_SUBSTANCE_VERSION>
1

> <PUBCHEM_EXT_DATASOURCE_NAME>
4488

> <PUBCHEM_EXT_DATASOURCE_REGID>
SCHEMBL16127682

> <PUBCHEM_SUBSTANCE_COMMENT>
InChI=1S/C12H14N4O2/c1-9-8-16-10(6-14-11(16)7-13-9)12(17)15-2-4-18-5-3-15/h6-8H,2-5H2,1H3
InChIKey=QTKVVTRXRVOFGX-UHFFFAOYSA-N

> <PUBCHEM_SUBSTANCE_SYNONYM>
SCHEMBL16127682

> <PUBCHEM_XREF_EXT_ID>
SCHEMBL16127682

> <PUBCHEM_EXT_DATASOURCE_URL>
https://www.surechembl.org/

> <PUBCHEM_EXT_SUBSTANCE_URL>
https://www.surechembl.org/chemical/SCHEMBL16127682

> <PUBCHEM_CID_ASSOCIATIONS>
117614930  1

> <PUBCHEM_COORDINATE_TYPE>
1
3

$$$$
