310929111
  -OEChem-07211613022D

 19 19  0     0  0  0  0  0  0999 V2000
    3.2925   -2.1380    0.0000 S   0  0  0  0  0  0  0  0  0  0  0  0
    2.4373   -0.7056    0.0000 O   0  0  0  0  0  0  0  0  0  0  0  0
    3.2925   -3.0359    0.0000 O   0  0  0  0  0  0  0  0  0  0  0  0
    3.2925   -1.3469    0.0000 O   0  0  0  0  0  0  0  0  0  0  0  0
    0.0000   -0.7056    0.0000 O   0  5  0  0  0  0  0  0  0  0  0  0
    1.2400    0.0000    0.0000 O   0  0  0  0  0  0  0  0  0  0  0  0
    0.8125   -0.7056    0.0000 N   0  3  0  0  0  0  0  0  0  0  0  0
    4.0836   -2.1380    0.0000 N   0  0  0  0  0  0  0  0  0  0  0  0
    2.4587   -2.1380    0.0000 C   0  0  0  0  0  0  0  0  0  0  0  0
    2.0311   -1.4325    0.0000 C   0  0  0  0  0  0  0  0  0  0  0  0
    1.2186   -1.4325    0.0000 C   0  0  0  0  0  0  0  0  0  0  0  0
    1.2186   -2.8436    0.0000 C   0  0  0  0  0  0  0  0  0  0  0  0
    2.0311   -2.8436    0.0000 C   0  0  0  0  0  0  0  0  0  0  0  0
    0.7911   -2.1380    0.0000 C   0  0  0  0  0  0  0  0  0  0  0  0
    0.8125   -3.5705    0.0000 C   0  0  0  0  0  0  0  0  0  0  0  0
    0.0855   -3.1429    0.0000 C   0  0  0  0  0  0  0  0  0  0  0  0
    0.4276   -4.2760    0.0000 C   0  0  0  0  0  0  0  0  0  0  0  0
    1.5180   -3.9767    0.0000 C   0  0  0  0  0  0  0  0  0  0  0  0
    2.0097    0.0000    0.0000 C   0  0  0  0  0  0  0  0  0  0  0  0
  1  3  2  0  0  0  0
  1  4  2  0  0  0  0
  1  8  1  0  0  0  0
  1  9  1  0  0  0  0
  2 10  1  0  0  0  0
  2 19  1  0  0  0  0
  5  7  1  0  0  0  0
  6  7  2  0  0  0  0
  7 11  1  0  0  0  0
  9 10  1  0  0  0  0
  9 13  2  0  0  0  0
 10 11  2  0  0  0  0
 11 14  1  0  0  0  0
 12 13  1  0  0  0  0
 12 14  2  0  0  0  0
 12 15  1  0  0  0  0
 15 16  1  0  0  0  0
 15 17  1  0  0  0  0
 15 18  1  0  0  0  0
M  CHG  2   5  -1   7   1
M  END
> <PUBCHEM_COMPOUND_ID_TYPE>
0

> <PUBCHEM_TOTAL_CHARGE>
0

> <PUBCHEM_SUBSTANCE_ID>
310929111

> <PUBCHEM_SUBSTANCE_VERSION>
1

> <PUBCHEM_EXT_DATASOURCE_NAME>
4488

> <PUBCHEM_EXT_DATASOURCE_REGID>
SCHEMBL16106274

> <PUBCHEM_SUBSTANCE_COMMENT>
InChI=1S/C11H16N2O5S/c1-11(2,3)7-5-8(13(14)15)10(18-4)9(6-7)19(12,16)17/h5-6H,1-4H3,(H2,12,16,17)
InChIKey=BLJIENOQKOQZEQ-UHFFFAOYSA-N

> <PUBCHEM_SUBSTANCE_SYNONYM>
SCHEMBL16106274

> <PUBCHEM_XREF_EXT_ID>
SCHEMBL16106274

> <PUBCHEM_EXT_DATASOURCE_URL>
https://www.surechembl.org/

> <PUBCHEM_EXT_SUBSTANCE_URL>
https://www.surechembl.org/chemical/SCHEMBL16106274

> <PUBCHEM_CID_ASSOCIATIONS>
117598593  1

> <PUBCHEM_COORDINATE_TYPE>
1
3

$$$$
