310940263
  -OEChem-07211613022D

 27 29  0     0  0  0  0  0  0999 V2000
    1.4048    1.7831    0.0000 O   0  0  0  0  0  0  0  0  0  0  0  0
   -1.7650   -3.4040    0.0000 O   0  0  0  0  0  0  0  0  0  0  0  0
    0.0540    2.2333    0.0000 O   0  0  0  0  0  0  0  0  0  0  0  0
   -0.2702   -1.0807    0.0000 N   0  0  0  0  0  0  0  0  0  0  0  0
    0.3422    0.8285    0.0000 N   0  0  0  0  0  0  0  0  0  0  0  0
    0.2162   -1.7470    0.0000 N   0  0  0  0  0  0  0  0  0  0  0  0
   -0.0180   -3.2060    0.0000 N   0  0  0  0  0  0  0  0  0  0  0  0
   -2.4855   -2.1613    0.0000 N   0  0  0  0  0  0  0  0  0  0  0  0
    2.1253    0.1261    0.0000 N   0  0  0  0  0  0  0  0  0  0  0  0
    0.0180   -0.2882    0.0000 C   0  0  0  0  0  0  0  0  0  0  0  0
   -1.0267   -1.3148    0.0000 C   0  0  0  0  0  0  0  0  0  0  0  0
   -1.0627   -2.1433    0.0000 C   0  0  0  0  0  0  0  0  0  0  0  0
   -0.3782    0.4503    0.0000 C   0  0  0  0  0  0  0  0  0  0  0  0
    0.7205    0.1080    0.0000 C   0  0  0  0  0  0  0  0  0  0  0  0
   -0.2702   -2.4135    0.0000 C   0  0  0  0  0  0  0  0  0  0  0  0
    0.7385   -0.6844    0.0000 C   0  0  0  0  0  0  0  0  0  0  0  0
   -1.7470   -2.5395    0.0000 C   0  0  0  0  0  0  0  0  0  0  0  0
   -1.7831   -0.9185    0.0000 C   0  0  0  0  0  0  0  0  0  0  0  0
    0.6304    1.6210    0.0000 C   0  0  0  0  0  0  0  0  0  0  0  0
   -2.4675   -1.3148    0.0000 C   0  0  0  0  0  0  0  0  0  0  0  0
    1.4228   -0.2882    0.0000 C   0  0  0  0  0  0  0  0  0  0  0  0
    1.6570    2.6116    0.0000 C   0  0  0  0  0  0  0  0  0  0  0  0
    0.8105   -3.3680    0.0000 C   0  0  0  0  0  0  0  0  0  0  0  0
    1.8732    3.4040    0.0000 C   0  0  0  0  0  0  0  0  0  0  0  0
    1.0987    3.1879    0.0000 C   0  0  0  0  0  0  0  0  0  0  0  0
    2.4855    2.7737    0.0000 C   0  0  0  0  0  0  0  0  0  0  0  0
    1.3508   -2.7377    0.0000 C   0  0  0  0  0  0  0  0  0  0  0  0
  1 19  1  0  0  0  0
  1 22  1  0  0  0  0
  2 17  2  0  0  0  0
  3 19  2  0  0  0  0
  4  6  1  0  0  0  0
  4 10  1  0  0  0  0
  4 11  1  0  0  0  0
  5 13  1  0  0  0  0
  5 14  1  0  0  0  0
  5 19  1  0  0  0  0
  6 15  2  0  0  0  0
  7 15  1  0  0  0  0
  7 23  1  0  0  0  0
  8 17  1  0  0  0  0
  8 20  1  0  0  0  0
  9 21  3  0  0  0  0
 10 13  1  0  0  0  0
 10 14  1  0  0  0  0
 10 16  1  0  0  0  0
 11 12  2  0  0  0  0
 11 18  1  0  0  0  0
 12 15  1  0  0  0  0
 12 17  1  0  0  0  0
 16 21  1  0  0  0  0
 18 20  2  0  0  0  0
 22 24  1  0  0  0  0
 22 25  1  0  0  0  0
 22 26  1  0  0  0  0
 23 27  1  0  0  0  0
M  END
> <PUBCHEM_COMPOUND_ID_TYPE>
0

> <PUBCHEM_TOTAL_CHARGE>
0

> <PUBCHEM_SUBSTANCE_ID>
310940263

> <PUBCHEM_SUBSTANCE_VERSION>
1

> <PUBCHEM_EXT_DATASOURCE_NAME>
4488

> <PUBCHEM_EXT_DATASOURCE_REGID>
SCHEMBL16118206

> <PUBCHEM_SUBSTANCE_COMMENT>
InChI=1S/C18H24N6O3/c1-5-20-14-13-12(6-9-21-15(13)25)24(22-14)18(7-8-19)10-23(11-18)16(26)27-17(2,3)4/h6,9H,5,7,10-11H2,1-4H3,(H,20,22)(H,21,25)
InChIKey=JHMRHMYZBVOANU-UHFFFAOYSA-N

> <PUBCHEM_SUBSTANCE_SYNONYM>
SCHEMBL16118206

> <PUBCHEM_XREF_EXT_ID>
SCHEMBL16118206

> <PUBCHEM_EXT_DATASOURCE_URL>
https://www.surechembl.org/

> <PUBCHEM_EXT_SUBSTANCE_URL>
https://www.surechembl.org/chemical/SCHEMBL16118206

> <PUBCHEM_CID_ASSOCIATIONS>
86267623  1

> <PUBCHEM_COORDINATE_TYPE>
1
3

$$$$
