310940961
  -OEChem-07211613022D

 41 44  0     1  0  0  0  0  0999 V2000
    5.2336   -1.0101    0.0000 O   0  0  0  0  0  0  0  0  0  0  0  0
    4.0918    0.9516    0.0000 O   0  0  0  0  0  0  0  0  0  0  0  0
    1.7055   -0.9955    0.0000 O   0  0  0  0  0  0  0  0  0  0  0  0
   -0.4758    1.0833    0.0000 O   0  0  0  0  0  0  0  0  0  0  0  0
    3.8722    2.7522    0.0000 O   0  0  0  0  0  0  0  0  0  0  0  0
   -2.6425   -0.9955    0.0000 O   0  0  0  0  0  0  0  0  0  0  0  0
   -5.5264   -0.9955    0.0000 O   0  0  0  0  0  0  0  0  0  0  0  0
    2.4228    0.2489    0.0000 N   0  0  0  0  0  0  0  0  0  0  0  0
    0.2562   -0.1757    0.0000 N   0  0  0  0  0  0  0  0  0  0  0  0
   -1.9104    0.2489    0.0000 N   0  0  0  0  0  0  0  0  0  0  0  0
    2.4228    2.7522    0.0000 N   0  0  0  0  0  0  0  0  0  0  0  0
   -4.0771   -0.1757    0.0000 N   0  0  0  0  0  0  0  0  0  0  0  0
    4.8237   -0.2782    0.0000 C   0  0  3  0  0  0  0  0  0  0  0  0
    4.0332    0.1318    0.0000 C   0  0  0  0  0  0  0  0  0  0  0  0
    4.4138   -0.9662    0.0000 C   0  0  0  0  0  0  0  0  0  0  0  0
    3.3744   -0.2635    0.0000 C   0  0  3  0  0  0  0  0  0  0  0  0
    5.5264    0.1464    0.0000 C   0  0  0  0  0  0  0  0  0  0  0  0
    3.3891   -1.3614    0.0000 C   0  0  0  0  0  0  0  0  0  0  0  0
    1.7055   -0.1171    0.0000 C   0  0  0  0  0  0  0  0  0  0  0  0
    0.9882    0.2782    0.0000 C   0  0  3  0  0  0  0  0  0  0  0  0
    2.6570   -1.7567    0.0000 C   0  0  0  0  0  0  0  0  0  0  0  0
    1.0028    1.1126    0.0000 C   0  0  0  0  0  0  0  0  0  0  0  0
    1.7055    1.5225    0.0000 C   0  0  0  0  0  0  0  0  0  0  0  0
   -0.4758    0.2489    0.0000 C   0  0  0  0  0  0  0  0  0  0  0  0
    1.8812   -1.4347    0.0000 C   0  0  0  0  0  0  0  0  0  0  0  0
    2.5546   -2.5912    0.0000 C   0  0  0  0  0  0  0  0  0  0  0  0
   -1.1785   -0.1318    0.0000 C   0  0  3  0  0  0  0  0  0  0  0  0
    1.3395   -2.0495    0.0000 C   0  0  0  0  0  0  0  0  0  0  0  0
    1.7494   -2.7522    0.0000 C   0  0  0  0  0  0  0  0  0  0  0  0
    1.7201    2.3570    0.0000 C   0  0  0  0  0  0  0  0  0  0  0  0
    2.4375    1.1126    0.0000 C   0  0  0  0  0  0  0  0  0  0  0  0
    3.1694    2.3716    0.0000 C   0  0  0  0  0  0  0  0  0  0  0  0
    3.1548    1.5225    0.0000 C   0  0  0  0  0  0  0  0  0  0  0  0
   -2.6278   -0.1171    0.0000 C   0  0  0  0  0  0  0  0  0  0  0  0
   -3.3891    0.2635    0.0000 C   0  0  0  0  0  0  0  0  0  0  0  0
   -1.1785   -0.9516    0.0000 C   0  0  0  0  0  0  0  0  0  0  0  0
   -4.0771   -0.9662    0.0000 C   0  0  0  0  0  0  0  0  0  0  0  0
   -4.8091    0.2635    0.0000 C   0  0  0  0  0  0  0  0  0  0  0  0
   -4.7798   -1.3761    0.0000 C   0  0  0  0  0  0  0  0  0  0  0  0
   -5.5118   -0.1318    0.0000 C   0  0  0  0  0  0  0  0  0  0  0  0
    4.6188    2.3423    0.0000 C   0  0  0  0  0  0  0  0  0  0  0  0
  1 13  1  0  0  0  0
  1 15  1  0  0  0  0
  2 14  2  0  0  0  0
  3 19  2  0  0  0  0
  4 24  2  0  0  0  0
  5 32  1  0  0  0  0
  5 41  1  0  0  0  0
  6 34  2  0  0  0  0
  7 39  1  0  0  0  0
  7 40  1  0  0  0  0
 16  8  1  6  0  0  0
  8 19  1  0  0  0  0
 20  9  1  1  0  0  0
  9 24  1  0  0  0  0
 10 27  1  0  0  0  0
 10 34  1  0  0  0  0
 11 30  2  0  0  0  0
 11 32  1  0  0  0  0
 12 35  1  0  0  0  0
 12 37  1  0  0  0  0
 12 38  1  0  0  0  0
 13 14  1  6  0  0  0
 13 15  1  0  0  0  0
 13 17  1  1  0  0  0
 14 16  1  0  0  0  0
 16 18  1  0  0  0  0
 18 21  1  0  0  0  0
 19 20  1  0  0  0  0
 20 22  1  0  0  0  0
 21 25  2  0  0  0  0
 21 26  1  0  0  0  0
 22 23  1  0  0  0  0
 23 30  1  0  0  0  0
 23 31  2  0  0  0  0
 24 27  1  0  0  0  0
 25 28  1  0  0  0  0
 26 29  1  0  0  0  0
 27 36  1  6  0  0  0
 28 29  1  0  0  0  0
 31 33  1  0  0  0  0
 32 33  2  0  0  0  0
 34 35  1  0  0  0  0
 37 39  1  0  0  0  0
 38 40  1  0  0  0  0
M  END
> <PUBCHEM_COMPOUND_ID_TYPE>
0

> <PUBCHEM_TOTAL_CHARGE>
0

> <PUBCHEM_SUBSTANCE_ID>
310940961

> <PUBCHEM_SUBSTANCE_VERSION>
1

> <PUBCHEM_EXT_DATASOURCE_NAME>
4488

> <PUBCHEM_EXT_DATASOURCE_REGID>
SCHEMBL16118920

> <PUBCHEM_SUBSTANCE_COMMENT>
InChI=1S/C29H41N5O7/c1-19(31-24(35)17-34-10-12-40-13-11-34)27(37)33-23(15-21-8-9-25(39-3)30-16-21)28(38)32-22(14-20-6-4-5-7-20)26(36)29(2)18-41-29/h6,8-9,16,19,22-23H,4-5,7,10-15,17-18H2,1-3H3,(H,31,35)(H,32,38)(H,33,37)/t19-,22-,23-,29+/m0/s1
InChIKey=ATPPKVIEWFBDHJ-GCNCJWNFSA-N

> <PUBCHEM_SUBSTANCE_SYNONYM>
SCHEMBL16118920

> <PUBCHEM_XREF_EXT_ID>
SCHEMBL16118920

> <PUBCHEM_EXT_DATASOURCE_URL>
https://www.surechembl.org/

> <PUBCHEM_EXT_SUBSTANCE_URL>
https://www.surechembl.org/chemical/SCHEMBL16118920

> <PUBCHEM_CID_ASSOCIATIONS>
117607869  1

> <PUBCHEM_COORDINATE_TYPE>
1
3

> <PUBCHEM_BONDANNOTATIONS>
13  14  6
13  17  5
27  36  6
16  8  6
20  9  5

$$$$
