310943616
  -OEChem-07211613022D

 35 38  0     0  0  0  0  0  0999 V2000
   -4.2784   -1.0715    0.0000 O   0  0  0  0  0  0  0  0  0  0  0  0
   -5.7230    1.4844    0.0000 O   0  0  0  0  0  0  0  0  0  0  0  0
    1.6431    1.5479    0.0000 O   0  0  0  0  0  0  0  0  0  0  0  0
   -2.8496   -1.0557    0.0000 N   0  0  0  0  0  0  0  0  0  0  0  0
   -2.1352   -0.6429    0.0000 N   0  0  0  0  0  0  0  0  0  0  0  0
   -4.2942    0.6747    0.0000 N   0  0  0  0  0  0  0  0  0  0  0  0
    0.8334    0.2461    0.0000 N   0  0  0  0  0  0  0  0  0  0  0  0
    2.3575   -0.5001    0.0000 N   0  0  0  0  0  0  0  0  0  0  0  0
    5.7230   -0.3572    0.0000 N   0  0  0  0  0  0  0  0  0  0  0  0
   -2.1352    0.1826    0.0000 C   0  0  0  0  0  0  0  0  0  0  0  0
   -3.5640    0.1826    0.0000 C   0  0  0  0  0  0  0  0  0  0  0  0
   -1.3097    0.6588    0.0000 C   0  0  0  0  0  0  0  0  0  0  0  0
   -3.5640   -0.6271    0.0000 C   0  0  0  0  0  0  0  0  0  0  0  0
   -2.8496    0.5953    0.0000 C   0  0  0  0  0  0  0  0  0  0  0  0
   -1.2939    1.4844    0.0000 C   0  0  0  0  0  0  0  0  0  0  0  0
   -0.5953    0.2620    0.0000 C   0  0  0  0  0  0  0  0  0  0  0  0
    0.1032    0.6747    0.0000 C   0  0  0  0  0  0  0  0  0  0  0  0
    2.3575    0.3413    0.0000 C   0  0  0  0  0  0  0  0  0  0  0  0
    3.7863    0.3413    0.0000 C   0  0  0  0  0  0  0  0  0  0  0  0
   -0.5953    1.8812    0.0000 C   0  0  0  0  0  0  0  0  0  0  0  0
    1.6272    0.7223    0.0000 C   0  0  0  0  0  0  0  0  0  0  0  0
    0.1191    1.4685    0.0000 C   0  0  0  0  0  0  0  0  0  0  0  0
    4.4530    0.6906    0.0000 C   0  0  0  0  0  0  0  0  0  0  0  0
   -4.2784    1.4844    0.0000 C   0  0  0  0  0  0  0  0  0  0  0  0
   -4.9928    0.2620    0.0000 C   0  0  0  0  0  0  0  0  0  0  0  0
    3.0560    0.7382    0.0000 C   0  0  0  0  0  0  0  0  0  0  0  0
   -2.8337   -1.8971    0.0000 C   0  0  0  0  0  0  0  0  0  0  0  0
    3.7704   -0.5001    0.0000 C   0  0  0  0  0  0  0  0  0  0  0  0
   -2.0241    1.8971    0.0000 C   0  0  0  0  0  0  0  0  0  0  0  0
    3.0719   -0.9128    0.0000 C   0  0  0  0  0  0  0  0  0  0  0  0
   -5.0087    1.8971    0.0000 C   0  0  0  0  0  0  0  0  0  0  0  0
   -5.7071    0.6588    0.0000 C   0  0  0  0  0  0  0  0  0  0  0  0
    5.1039    0.1508    0.0000 C   0  0  0  0  0  0  0  0  0  0  0  0
    3.9609    1.3415    0.0000 C   0  0  0  0  0  0  0  0  0  0  0  0
    4.7864    1.4367    0.0000 C   0  0  0  0  0  0  0  0  0  0  0  0
  1 13  2  0  0  0  0
  2 31  1  0  0  0  0
  2 32  1  0  0  0  0
  3 21  2  0  0  0  0
  4  5  1  0  0  0  0
  4 13  1  0  0  0  0
  4 27  1  0  0  0  0
  5 10  2  0  0  0  0
  6 11  1  0  0  0  0
  6 24  1  0  0  0  0
  6 25  1  0  0  0  0
  7 17  1  0  0  0  0
  7 21  1  0  0  0  0
  8 18  2  0  0  0  0
  8 30  1  0  0  0  0
  9 33  3  0  0  0  0
 10 12  1  0  0  0  0
 10 14  1  0  0  0  0
 11 13  1  0  0  0  0
 11 14  2  0  0  0  0
 12 15  1  0  0  0  0
 12 16  2  0  0  0  0
 15 20  2  0  0  0  0
 15 29  1  0  0  0  0
 16 17  1  0  0  0  0
 17 22  2  0  0  0  0
 18 21  1  0  0  0  0
 18 26  1  0  0  0  0
 19 23  1  0  0  0  0
 19 26  2  0  0  0  0
 19 28  1  0  0  0  0
 20 22  1  0  0  0  0
 23 33  1  0  0  0  0
 23 34  1  0  0  0  0
 23 35  1  0  0  0  0
 24 31  1  0  0  0  0
 25 32  1  0  0  0  0
 28 30  2  0  0  0  0
M  END
> <PUBCHEM_COMPOUND_ID_TYPE>
0

> <PUBCHEM_TOTAL_CHARGE>
0

> <PUBCHEM_SUBSTANCE_ID>
310943616

> <PUBCHEM_SUBSTANCE_VERSION>
1

> <PUBCHEM_EXT_DATASOURCE_NAME>
4488

> <PUBCHEM_EXT_DATASOURCE_REGID>
SCHEMBL16121684

> <PUBCHEM_SUBSTANCE_COMMENT>
InChI=1S/C26H28N6O3/c1-17-5-6-19(29-24(33)22-13-18(7-8-28-22)26(2,3)16-27)14-20(17)21-15-23(25(34)31(4)30-21)32-9-11-35-12-10-32/h5-8,13-15H,9-12H2,1-4H3,(H,29,33)
InChIKey=CHWJFCDCLIOMCQ-UHFFFAOYSA-N

> <PUBCHEM_SUBSTANCE_SYNONYM>
SCHEMBL16121684

> <PUBCHEM_XREF_EXT_ID>
SCHEMBL16121684

> <PUBCHEM_EXT_DATASOURCE_URL>
https://www.surechembl.org/

> <PUBCHEM_EXT_SUBSTANCE_URL>
https://www.surechembl.org/chemical/SCHEMBL16121684

> <PUBCHEM_CID_ASSOCIATIONS>
117610007  1

> <PUBCHEM_COORDINATE_TYPE>
1
3

$$$$
