310942050
  -OEChem-07211613022D

 23 26  0     0  0  0  0  0  0999 V2000
   -1.9894   -3.0262    0.0000 F   0  0  0  0  0  0  0  0  0  0  0  0
    0.0109    2.0698    0.0000 O   0  0  0  0  0  0  0  0  0  0  0  0
    2.5881    1.3616    0.0000 O   0  0  0  0  0  0  0  0  0  0  0  0
   -0.5658   -0.5585    0.0000 N   0  0  0  0  0  0  0  0  0  0  0  0
    1.8142    2.5370    0.0000 N   0  0  0  0  0  0  0  0  0  0  0  0
   -0.1497    0.7046    0.0000 C   0  0  0  0  0  0  0  0  0  0  0  0
    0.0986   -0.0693    0.0000 C   0  0  0  0  0  0  0  0  0  0  0  0
   -0.9892    0.7119    0.0000 C   0  0  0  0  0  0  0  0  0  0  0  0
   -1.2301   -0.0693    0.0000 C   0  0  0  0  0  0  0  0  0  0  0  0
    0.3906    1.3324    0.0000 C   0  0  0  0  0  0  0  0  0  0  0  0
    1.1937    1.1645    0.0000 C   0  0  0  0  0  0  0  0  0  0  0  0
    0.9090   -0.2373    0.0000 C   0  0  0  0  0  0  0  0  0  0  0  0
    1.4492    0.3614    0.0000 C   0  0  0  0  0  0  0  0  0  0  0  0
   -1.5295    1.3178    0.0000 C   0  0  0  0  0  0  0  0  0  0  0  0
   -2.0405   -0.2445    0.0000 C   0  0  0  0  0  0  0  0  0  0  0  0
    1.8215    1.7047    0.0000 C   0  0  0  0  0  0  0  0  0  0  0  0
   -0.5658   -1.3835    0.0000 C   0  0  0  0  0  0  0  0  0  0  0  0
   -2.3253    1.1499    0.0000 C   0  0  0  0  0  0  0  0  0  0  0  0
   -2.5881    0.3614    0.0000 C   0  0  0  0  0  0  0  0  0  0  0  0
    0.3541    2.8290    0.0000 C   0  0  0  0  0  0  0  0  0  0  0  0
    1.1499    3.0262    0.0000 C   0  0  0  0  0  0  0  0  0  0  0  0
   -1.2667   -1.7923    0.0000 C   0  0  0  0  0  0  0  0  0  0  0  0
   -1.2813   -2.6246    0.0000 C   0  0  0  0  0  0  0  0  0  0  0  0
  1 23  1  0  0  0  0
  2 10  1  0  0  0  0
  2 20  1  0  0  0  0
  3 16  2  0  0  0  0
  4  7  1  0  0  0  0
  4  9  1  0  0  0  0
  4 17  1  0  0  0  0
  5 16  1  0  0  0  0
  5 21  1  0  0  0  0
  6  7  2  0  0  0  0
  6  8  1  0  0  0  0
  6 10  1  0  0  0  0
  7 12  1  0  0  0  0
  8  9  1  0  0  0  0
  8 14  2  0  0  0  0
  9 15  2  0  0  0  0
 10 11  2  0  0  0  0
 11 13  1  0  0  0  0
 11 16  1  0  0  0  0
 12 13  2  0  0  0  0
 14 18  1  0  0  0  0
 15 19  1  0  0  0  0
 17 22  1  0  0  0  0
 18 19  2  0  0  0  0
 20 21  1  0  0  0  0
 22 23  1  0  0  0  0
M  END
> <PUBCHEM_COMPOUND_ID_TYPE>
0

> <PUBCHEM_TOTAL_CHARGE>
0

> <PUBCHEM_SUBSTANCE_ID>
310942050

> <PUBCHEM_SUBSTANCE_VERSION>
1

> <PUBCHEM_EXT_DATASOURCE_NAME>
4488

> <PUBCHEM_EXT_DATASOURCE_REGID>
SCHEMBL16120085

> <PUBCHEM_SUBSTANCE_COMMENT>
InChI=1S/C18H17FN2O2/c19-8-3-10-21-14-5-2-1-4-12(14)16-15(21)7-6-13-17(16)23-11-9-20-18(13)22/h1-2,4-7H,3,8-11H2,(H,20,22)
InChIKey=OWSMBQUKHCCKFJ-UHFFFAOYSA-N

> <PUBCHEM_SUBSTANCE_SYNONYM>
SCHEMBL16120085

> <PUBCHEM_XREF_EXT_ID>
SCHEMBL16120085

> <PUBCHEM_EXT_DATASOURCE_URL>
https://www.surechembl.org/

> <PUBCHEM_EXT_SUBSTANCE_URL>
https://www.surechembl.org/chemical/SCHEMBL16120085

> <PUBCHEM_CID_ASSOCIATIONS>
86273808  1

> <PUBCHEM_COORDINATE_TYPE>
1
3

$$$$
