310945119
  -OEChem-07211613022D

 36 41  0     0  0  0  0  0  0999 V2000
    4.9260    0.9312    0.0000 O   0  0  0  0  0  0  0  0  0  0  0  0
   -3.4733   -1.7506    0.0000 O   0  0  0  0  0  0  0  0  0  0  0  0
    0.1397   -1.3222    0.0000 O   0  0  0  0  0  0  0  0  0  0  0  0
   -2.7470    1.1733    0.0000 O   0  0  0  0  0  0  0  0  0  0  0  0
    3.1008   -0.3166    0.0000 N   0  0  0  0  0  0  0  0  0  0  0  0
    4.7770   -0.4842    0.0000 N   0  0  0  0  0  0  0  0  0  0  0  0
   -3.4733   -0.0559    0.0000 N   0  0  0  0  0  0  0  0  0  0  0  0
   -0.5867   -0.0559    0.0000 N   0  0  0  0  0  0  0  0  0  0  0  0
    3.4546   -1.0802    0.0000 C   0  0  0  0  0  0  0  0  0  0  0  0
    2.3000   -0.0373    0.0000 C   0  0  0  0  0  0  0  0  0  0  0  0
    3.5850    0.3725    0.0000 C   0  0  0  0  0  0  0  0  0  0  0  0
    2.3187    0.7822    0.0000 C   0  0  0  0  0  0  0  0  0  0  0  0
    3.1195    1.0243    0.0000 C   0  0  0  0  0  0  0  0  0  0  0  0
    4.4231    0.2421    0.0000 C   0  0  0  0  0  0  0  0  0  0  0  0
    4.2927   -1.1733    0.0000 C   0  0  0  0  0  0  0  0  0  0  0  0
    2.6352   -1.2292    0.0000 C   0  0  0  0  0  0  0  0  0  0  0  0
    3.5664   -1.8996    0.0000 C   0  0  0  0  0  0  0  0  0  0  0  0
    1.5923   -0.4656    0.0000 C   0  0  0  0  0  0  0  0  0  0  0  0
    2.7656   -2.0300    0.0000 C   0  0  0  0  0  0  0  0  0  0  0  0
    0.8660   -0.0559    0.0000 C   0  0  0  0  0  0  0  0  0  0  0  0
    1.6110    1.1733    0.0000 C   0  0  0  0  0  0  0  0  0  0  0  0
   -2.7470   -0.4842    0.0000 C   0  0  0  0  0  0  0  0  0  0  0  0
   -4.1997   -0.4842    0.0000 C   0  0  0  0  0  0  0  0  0  0  0  0
    0.8846    0.7822    0.0000 C   0  0  0  0  0  0  0  0  0  0  0  0
   -2.7470   -1.3036    0.0000 C   0  0  0  0  0  0  0  0  0  0  0  0
    0.1397   -0.4469    0.0000 C   0  0  0  0  0  0  0  0  0  0  0  0
   -1.2943   -0.4656    0.0000 C   0  0  0  0  0  0  0  0  0  0  0  0
   -2.0393   -0.0745    0.0000 C   0  0  0  0  0  0  0  0  0  0  0  0
   -3.4919    0.7636    0.0000 C   0  0  0  0  0  0  0  0  0  0  0  0
   -4.1997   -1.3036    0.0000 C   0  0  0  0  0  0  0  0  0  0  0  0
   -2.0393   -1.7134    0.0000 C   0  0  0  0  0  0  0  0  0  0  0  0
   -1.3130   -1.3222    0.0000 C   0  0  0  0  0  0  0  0  0  0  0  0
   -4.9260   -0.8753    0.0000 C   0  0  0  0  0  0  0  0  0  0  0  0
   -4.9260   -0.0931    0.0000 C   0  0  0  0  0  0  0  0  0  0  0  0
   -4.1997    1.1919    0.0000 C   0  0  0  0  0  0  0  0  0  0  0  0
   -4.1252    2.0300    0.0000 C   0  0  0  0  0  0  0  0  0  0  0  0
  1 14  2  0  0  0  0
  2 25  1  0  0  0  0
  2 30  1  0  0  0  0
  3 26  2  0  0  0  0
  4 29  2  0  0  0  0
  5  9  1  0  0  0  0
  5 10  1  0  0  0  0
  5 11  1  0  0  0  0
  6 14  1  0  0  0  0
  6 15  1  0  0  0  0
  7 22  1  0  0  0  0
  7 23  1  0  0  0  0
  7 29  1  0  0  0  0
  8 26  1  0  0  0  0
  8 27  1  0  0  0  0
  9 15  1  0  0  0  0
  9 16  1  0  0  0  0
  9 17  1  0  0  0  0
 10 12  1  0  0  0  0
 10 18  2  0  0  0  0
 11 13  2  0  0  0  0
 11 14  1  0  0  0  0
 12 13  1  0  0  0  0
 12 21  2  0  0  0  0
 16 19  1  0  0  0  0
 17 19  1  0  0  0  0
 18 20  1  0  0  0  0
 20 24  2  0  0  0  0
 20 26  1  0  0  0  0
 21 24  1  0  0  0  0
 22 25  2  0  0  0  0
 22 28  1  0  0  0  0
 23 30  1  0  0  0  0
 23 33  1  0  0  0  0
 23 34  1  0  0  0  0
 25 31  1  0  0  0  0
 27 28  2  0  0  0  0
 27 32  1  0  0  0  0
 29 35  1  0  0  0  0
 31 32  2  0  0  0  0
 35 36  2  0  0  0  0
M  END
> <PUBCHEM_COMPOUND_ID_TYPE>
0

> <PUBCHEM_TOTAL_CHARGE>
0

> <PUBCHEM_SUBSTANCE_ID>
310945119

> <PUBCHEM_SUBSTANCE_VERSION>
1

> <PUBCHEM_EXT_DATASOURCE_NAME>
4488

> <PUBCHEM_EXT_DATASOURCE_REGID>
SCHEMBL16123209

> <PUBCHEM_SUBSTANCE_COMMENT>
InChI=1S/C28H28N4O4/c1-4-24(33)32-21-14-19(8-9-23(21)36-16-27(32,2)3)30-25(34)18-7-6-17-12-22-26(35)29-15-28(10-5-11-28)31(22)20(17)13-18/h4,6-9,12-14H,1,5,10-11,15-16H2,2-3H3,(H,29,35)(H,30,34)
InChIKey=QDGDFVYWOGDQIH-UHFFFAOYSA-N

> <PUBCHEM_SUBSTANCE_SYNONYM>
SCHEMBL16123209

> <PUBCHEM_XREF_EXT_ID>
SCHEMBL16123209

> <PUBCHEM_EXT_DATASOURCE_URL>
https://www.surechembl.org/

> <PUBCHEM_EXT_SUBSTANCE_URL>
https://www.surechembl.org/chemical/SCHEMBL16123209

> <PUBCHEM_CID_ASSOCIATIONS>
117611214  1

> <PUBCHEM_COORDINATE_TYPE>
1
3

$$$$
