310949126
  -OEChem-07211613022D

 35 37  0     0  0  0  0  0  0999 V2000
    2.7487    0.0493    0.0000 F   0  0  0  0  0  0  0  0  0  0  0  0
    0.0705   -1.0642    0.0000 F   0  0  0  0  0  0  0  0  0  0  0  0
   -0.7048    1.1206    0.0000 F   0  0  0  0  0  0  0  0  0  0  0  0
   -1.1699    2.2061    0.0000 F   0  0  0  0  0  0  0  0  0  0  0  0
   -0.0564    2.6430    0.0000 F   0  0  0  0  0  0  0  0  0  0  0  0
    3.3408   -1.3743    0.0000 F   0  0  0  0  0  0  0  0  0  0  0  0
    0.7471   -2.6430    0.0000 F   0  0  0  0  0  0  0  0  0  0  0  0
   -2.5090   -1.0642    0.0000 O   0  0  0  0  0  0  0  0  0  0  0  0
   -0.9585    0.0493    0.0000 N   0  0  0  0  0  0  0  0  0  0  0  0
    1.9735   -2.0510    0.0000 N   0  0  0  0  0  0  0  0  0  0  0  0
    0.3524    0.7119    0.0000 C   0  0  0  0  0  0  0  0  0  0  0  0
    1.0995    0.3313    0.0000 C   0  0  0  0  0  0  0  0  0  0  0  0
    1.3814   -0.4441    0.0000 C   0  0  0  0  0  0  0  0  0  0  0  0
    0.3524    1.5435    0.0000 C   0  0  0  0  0  0  0  0  0  0  0  0
   -0.3947    1.8959    0.0000 C   0  0  0  0  0  0  0  0  0  0  0  0
    2.1990   -0.5991    0.0000 C   0  0  0  0  0  0  0  0  0  0  0  0
    0.8598   -1.1206    0.0000 C   0  0  0  0  0  0  0  0  0  0  0  0
   -1.7479    0.3877    0.0000 C   0  0  0  0  0  0  0  0  0  0  0  0
    1.7902    0.7260    0.0000 C   0  0  0  0  0  0  0  0  0  0  0  0
   -1.0572   -0.7542    0.0000 C   0  0  0  0  0  0  0  0  0  0  0  0
    1.0854    1.9523    0.0000 C   0  0  0  0  0  0  0  0  0  0  0  0
    2.5090   -1.3321    0.0000 C   0  0  0  0  0  0  0  0  0  0  0  0
    1.1558   -1.8818    0.0000 C   0  0  0  0  0  0  0  0  0  0  0  0
    1.7761    1.5576    0.0000 C   0  0  0  0  0  0  0  0  0  0  0  0
   -2.2836   -0.2326    0.0000 C   0  0  0  0  0  0  0  0  0  0  0  0
   -2.0158    1.1629    0.0000 C   0  0  0  0  0  0  0  0  0  0  0  0
   -0.4652   -1.3743    0.0000 C   0  0  0  0  0  0  0  0  0  0  0  0
   -3.0588   -0.0916    0.0000 C   0  0  0  0  0  0  0  0  0  0  0  0
   -2.0580   -0.9937    0.0000 C   0  0  0  0  0  0  0  0  0  0  0  0
   -2.8192    1.3180    0.0000 C   0  0  0  0  0  0  0  0  0  0  0  0
   -3.3408    0.7119    0.0000 C   0  0  0  0  0  0  0  0  0  0  0  0
   -0.7330   -2.1497    0.0000 C   0  0  0  0  0  0  0  0  0  0  0  0
   -1.4942   -2.3328    0.0000 C   0  0  0  0  0  0  0  0  0  0  0  0
   -2.1003   -1.7409    0.0000 C   0  0  0  0  0  0  0  0  0  0  0  0
   -1.8607   -0.9796    0.0000 C   0  0  0  0  0  0  0  0  0  0  0  0
  1 16  1  0  0  0  0
  2 17  1  0  0  0  0
  3 15  1  0  0  0  0
  4 15  1  0  0  0  0
  5 15  1  0  0  0  0
  6 22  1  0  0  0  0
  7 23  1  0  0  0  0
  8 25  1  0  0  0  0
  9 11  1  0  0  0  0
  9 18  1  0  0  0  0
  9 20  1  0  0  0  0
 10 22  2  0  0  0  0
 10 23  1  0  0  0  0
 11 12  1  0  0  0  0
 11 14  2  0  0  0  0
 12 13  1  0  0  0  0
 12 19  2  0  0  0  0
 13 16  2  0  0  0  0
 13 17  1  0  0  0  0
 14 15  1  0  0  0  0
 14 21  1  0  0  0  0
 16 22  1  0  0  0  0
 17 23  2  0  0  0  0
 18 25  2  0  0  0  0
 18 26  1  0  0  0  0
 19 24  1  0  0  0  0
 20 27  1  0  0  0  0
 20 29  2  0  0  0  0
 21 24  2  0  0  0  0
 25 28  1  0  0  0  0
 26 30  2  0  0  0  0
 27 32  2  0  0  0  0
 28 31  2  0  0  0  0
 30 31  1  0  0  0  0
 32 33  1  0  0  0  0
 33 34  2  0  0  0  0
 34 35  1  0  0  0  0
M  END
> <PUBCHEM_COMPOUND_ID_TYPE>
0

> <PUBCHEM_TOTAL_CHARGE>
0

> <PUBCHEM_SUBSTANCE_ID>
310949126

> <PUBCHEM_SUBSTANCE_VERSION>
1

> <PUBCHEM_EXT_DATASOURCE_NAME>
4488

> <PUBCHEM_EXT_DATASOURCE_REGID>
SCHEMBL16127316

> <PUBCHEM_SUBSTANCE_COMMENT>
InChI=1S/C25H17F7N2O/c1-3-4-5-9-14(2)34(17-12-6-7-13-18(17)35)22-15(10-8-11-16(22)25(30,31)32)19-20(26)23(28)33-24(29)21(19)27/h3-13,35H,2H2,1H3/b4-3-,9-5-
InChIKey=CHNOHTJVOMJTFE-YSXYLNKBSA-N

> <PUBCHEM_SUBSTANCE_SYNONYM>
SCHEMBL16127316

> <PUBCHEM_XREF_EXT_ID>
SCHEMBL16127316

> <PUBCHEM_EXT_DATASOURCE_URL>
https://www.surechembl.org/

> <PUBCHEM_EXT_SUBSTANCE_URL>
https://www.surechembl.org/chemical/SCHEMBL16127316

> <PUBCHEM_CID_ASSOCIATIONS>
117614623  1

> <PUBCHEM_COORDINATE_TYPE>
1
3

$$$$
