310933409
  -OEChem-07211613022D

 17 18  0     0  0  0  0  0  0999 V2000
    1.6448    0.0000    0.0000 Cl  0  0  0  0  0  0  0  0  0  0  0  0
    2.4938   -1.4149    0.0000 S   0  0  0  0  0  0  0  0  0  0  0  0
    2.4938   -2.3169    0.0000 O   0  0  0  0  0  0  0  0  0  0  0  0
    2.4938   -0.6190    0.0000 O   0  0  0  0  0  0  0  0  0  0  0  0
    3.2897   -1.4149    0.0000 N   0  0  0  0  0  0  0  0  0  0  0  0
    4.4924   -2.1224    0.0000 N   0  0  0  0  0  0  0  0  0  0  0  0
    1.6625   -1.4149    0.0000 C   0  0  0  0  0  0  0  0  0  0  0  0
    1.2381   -0.7075    0.0000 C   0  0  0  0  0  0  0  0  0  0  0  0
    3.6965   -2.1224    0.0000 C   0  0  0  0  0  0  0  0  0  0  0  0
    1.2381   -2.1224    0.0000 C   0  0  0  0  0  0  0  0  0  0  0  0
    0.4245   -0.7075    0.0000 C   0  0  0  0  0  0  0  0  0  0  0  0
    0.4245   -2.1224    0.0000 C   0  0  0  0  0  0  0  0  0  0  0  0
    3.2720   -2.8298    0.0000 C   0  0  0  0  0  0  0  0  0  0  0  0
    0.0000   -1.4149    0.0000 C   0  0  0  0  0  0  0  0  0  0  0  0
    4.9522   -2.8298    0.0000 C   0  0  0  0  0  0  0  0  0  0  0  0
    3.6965   -3.5373    0.0000 C   0  0  0  0  0  0  0  0  0  0  0  0
    4.5101   -3.5373    0.0000 C   0  0  0  0  0  0  0  0  0  0  0  0
  1  8  1  0  0  0  0
  2  3  2  0  0  0  0
  2  4  2  0  0  0  0
  2  5  1  0  0  0  0
  2  7  1  0  0  0  0
  5  9  1  0  0  0  0
  6  9  1  0  0  0  0
  6 15  2  0  0  0  0
  7  8  1  0  0  0  0
  7 10  2  0  0  0  0
  8 11  2  0  0  0  0
  9 13  2  0  0  0  0
 10 12  1  0  0  0  0
 11 14  1  0  0  0  0
 12 14  2  0  0  0  0
 13 16  1  0  0  0  0
 15 17  1  0  0  0  0
 16 17  2  0  0  0  0
M  END
> <PUBCHEM_COMPOUND_ID_TYPE>
0

> <PUBCHEM_TOTAL_CHARGE>
0

> <PUBCHEM_SUBSTANCE_ID>
310933409

> <PUBCHEM_SUBSTANCE_VERSION>
1

> <PUBCHEM_EXT_DATASOURCE_NAME>
4488

> <PUBCHEM_EXT_DATASOURCE_REGID>
SCHEMBL16110825

> <PUBCHEM_SUBSTANCE_COMMENT>
InChI=1S/C11H9ClN2O2S/c12-9-5-1-2-6-10(9)17(15,16)14-11-7-3-4-8-13-11/h1-8H,(H,13,14)
InChIKey=MERVJTPMBGNSTR-UHFFFAOYSA-N

> <PUBCHEM_SUBSTANCE_SYNONYM>
SCHEMBL16110825

> <PUBCHEM_XREF_EXT_ID>
SCHEMBL16110825

> <PUBCHEM_EXT_DATASOURCE_URL>
https://www.surechembl.org/

> <PUBCHEM_EXT_SUBSTANCE_URL>
https://www.surechembl.org/chemical/SCHEMBL16110825

> <PUBCHEM_CID_ASSOCIATIONS>
793249  1

> <PUBCHEM_COORDINATE_TYPE>
1
3

$$$$
