310939851
  -OEChem-07211613022D

 29 31  0     0  0  0  0  0  0999 V2000
    0.7942    3.2278    0.0000 Cl  0  0  0  0  0  0  0  0  0  0  0  0
   -0.6348    0.7528    0.0000 O   0  0  0  0  0  0  0  0  0  0  0  0
    0.7942   -1.7222    0.0000 O   0  0  0  0  0  0  0  0  0  0  0  0
   -3.4927   -2.5472    0.0000 O   0  0  0  0  0  0  0  0  0  0  0  0
    0.7942   -0.0722    0.0000 N   0  0  0  0  0  0  0  0  0  0  0  0
    3.0077    3.4827    0.0000 N   0  0  0  0  0  0  0  0  0  0  0  0
   -0.6348   -1.7222    0.0000 N   0  0  0  0  0  0  0  0  0  0  0  0
    3.4927    2.8153    0.0000 N   0  0  0  0  0  0  0  0  0  0  0  0
   -2.0637   -2.5472    0.0000 N   0  0  0  0  0  0  0  0  0  0  0  0
    1.5086    1.9903    0.0000 C   0  0  0  0  0  0  0  0  0  0  0  0
    0.7942    0.7528    0.0000 C   0  0  0  0  0  0  0  0  0  0  0  0
    2.2231    2.4028    0.0000 C   0  0  0  0  0  0  0  0  0  0  0  0
    0.7942    2.4028    0.0000 C   0  0  0  0  0  0  0  0  0  0  0  0
    0.0797    1.1653    0.0000 C   0  0  0  0  0  0  0  0  0  0  0  0
    1.5086    1.1653    0.0000 C   0  0  0  0  0  0  0  0  0  0  0  0
    0.0797    1.9903    0.0000 C   0  0  0  0  0  0  0  0  0  0  0  0
    2.2231    3.2278    0.0000 C   0  0  0  0  0  0  0  0  0  0  0  0
    3.0077    2.1479    0.0000 C   0  0  0  0  0  0  0  0  0  0  0  0
    0.0797   -1.3097    0.0000 C   0  0  0  0  0  0  0  0  0  0  0  0
    0.0797   -0.4847    0.0000 C   0  0  0  0  0  0  0  0  0  0  0  0
   -1.3492   -1.3097    0.0000 C   0  0  0  0  0  0  0  0  0  0  0  0
   -0.6348   -2.5472    0.0000 C   0  0  0  0  0  0  0  0  0  0  0  0
   -2.0637   -1.7222    0.0000 C   0  0  0  0  0  0  0  0  0  0  0  0
   -1.3492   -2.9597    0.0000 C   0  0  0  0  0  0  0  0  0  0  0  0
   -2.7782   -2.9597    0.0000 C   0  0  0  0  0  0  0  0  0  0  0  0
    3.4202    4.1972    0.0000 C   0  0  0  0  0  0  0  0  0  0  0  0
   -1.3492    1.1653    0.0000 C   0  0  0  0  0  0  0  0  0  0  0  0
   -2.7782   -3.7847    0.0000 C   0  0  0  0  0  0  0  0  0  0  0  0
   -3.4927   -4.1972    0.0000 C   0  0  0  0  0  0  0  0  0  0  0  0
  1 13  1  0  0  0  0
  2 14  1  0  0  0  0
  2 27  1  0  0  0  0
  3 19  2  0  0  0  0
  4 25  2  0  0  0  0
  5 11  1  0  0  0  0
  5 20  1  0  0  0  0
  6  8  1  0  0  0  0
  6 17  1  0  0  0  0
  6 26  1  0  0  0  0
  7 19  1  0  0  0  0
  7 21  1  0  0  0  0
  7 22  1  0  0  0  0
  8 18  2  0  0  0  0
  9 23  1  0  0  0  0
  9 24  1  0  0  0  0
  9 25  1  0  0  0  0
 10 12  1  0  0  0  0
 10 13  2  0  0  0  0
 10 15  1  0  0  0  0
 11 14  1  0  0  0  0
 11 15  2  0  0  0  0
 12 17  2  0  0  0  0
 12 18  1  0  0  0  0
 13 16  1  0  0  0  0
 14 16  2  0  0  0  0
 19 20  1  0  0  0  0
 21 23  1  0  0  0  0
 22 24  1  0  0  0  0
 25 28  1  0  0  0  0
 28 29  2  0  0  0  0
M  END
> <PUBCHEM_COMPOUND_ID_TYPE>
0

> <PUBCHEM_TOTAL_CHARGE>
0

> <PUBCHEM_SUBSTANCE_ID>
310939851

> <PUBCHEM_SUBSTANCE_VERSION>
1

> <PUBCHEM_EXT_DATASOURCE_NAME>
4488

> <PUBCHEM_EXT_DATASOURCE_REGID>
SCHEMBL16117781

> <PUBCHEM_SUBSTANCE_COMMENT>
InChI=1S/C20H24ClN5O3/c1-4-19(27)25-5-7-26(8-6-25)20(28)12-22-17-9-15(14-11-23-24(2)13-14)16(21)10-18(17)29-3/h4,9-11,13,22H,1,5-8,12H2,2-3H3
InChIKey=QYIGNXYIFPBISZ-UHFFFAOYSA-N

> <PUBCHEM_SUBSTANCE_SYNONYM>
SCHEMBL16117781

> <PUBCHEM_XREF_EXT_ID>
SCHEMBL16117781

> <PUBCHEM_EXT_DATASOURCE_URL>
https://www.surechembl.org/

> <PUBCHEM_EXT_SUBSTANCE_URL>
https://www.surechembl.org/chemical/SCHEMBL16117781

> <PUBCHEM_CID_ASSOCIATIONS>
117607066  1

> <PUBCHEM_COORDINATE_TYPE>
1
3

$$$$
