310948912
  -OEChem-07211613022D

 47 49  0     1  0  0  0  0  0999 V2000
   -8.6959    1.7878    0.0000 S   0  0  0  0  0  0  0  0  0  0  0  0
   -5.7433    1.9498    0.0000 P   0  0  3  0  0  0  0  0  0  0  0  0
   -7.9111    0.7039    0.0000 O   0  0  0  0  0  0  0  0  0  0  0  0
   -6.4784    1.5262    0.0000 O   0  0  0  0  0  0  0  0  0  0  0  0
   -5.5440    1.1400    0.0000 O   0  0  0  0  0  0  0  0  0  0  0  0
  -10.3031    0.0187    0.0000 O   0  0  0  0  0  0  0  0  0  0  0  0
   -5.7558    2.7720    0.0000 O   0  0  0  0  0  0  0  0  0  0  0  0
   -2.0432    2.7720    0.0000 O   0  0  0  0  0  0  0  0  0  0  0  0
   -8.8953   -0.3551    0.0000 N   0  0  0  0  0  0  0  0  0  0  0  0
   -9.9169   -1.3767    0.0000 N   0  0  0  0  0  0  0  0  0  0  0  0
   -4.9086    1.9498    0.0000 N   0  0  0  0  0  0  0  0  0  0  0  0
   -9.5431   -2.7720    0.0000 N   0  0  0  0  0  0  0  0  0  0  0  0
   -2.7408    1.5386    0.0000 N   0  0  0  0  0  0  0  0  0  0  0  0
   -8.6710    0.4423    0.0000 C   0  0  3  0  0  0  0  0  0  0  0  0
   -7.8986    1.5262    0.0000 C   0  0  3  0  0  0  0  0  0  0  0  0
   -9.6926   -0.5793    0.0000 C   0  0  0  0  0  0  0  0  0  0  0  0
   -9.1694    1.1150    0.0000 C   0  0  0  0  0  0  0  0  0  0  0  0
   -8.3222   -0.9406    0.0000 C   0  0  0  0  0  0  0  0  0  0  0  0
   -7.1761    1.9373    0.0000 C   0  0  0  0  0  0  0  0  0  0  0  0
   -9.3189   -1.9622    0.0000 C   0  0  0  0  0  0  0  0  0  0  0  0
   -8.5340   -1.7380    0.0000 C   0  0  0  0  0  0  0  0  0  0  0  0
   -5.7558    0.3426    0.0000 C   0  0  0  0  0  0  0  0  0  0  0  0
   -6.5407    0.1184    0.0000 C   0  0  0  0  0  0  0  0  0  0  0  0
   -5.1578   -0.2554    0.0000 C   0  0  0  0  0  0  0  0  0  0  0  0
   -4.1736    1.5386    0.0000 C   0  0  0  0  0  0  0  0  0  0  0  0
   -6.7525   -0.6790    0.0000 C   0  0  0  0  0  0  0  0  0  0  0  0
   -5.3696   -1.0403    0.0000 C   0  0  0  0  0  0  0  0  0  0  0  0
   -6.1669   -1.2521    0.0000 C   0  0  0  0  0  0  0  0  0  0  0  0
   -3.4759    1.9498    0.0000 C   0  0  0  0  0  0  0  0  0  0  0  0
   -2.0432    1.9373    0.0000 C   0  0  0  0  0  0  0  0  0  0  0  0
   -1.3082    1.5386    0.0000 C   0  0  0  0  0  0  0  0  0  0  0  0
   -0.5980    1.9498    0.0000 C   0  0  0  0  0  0  0  0  0  0  0  0
    0.1370    1.5386    0.0000 C   0  0  0  0  0  0  0  0  0  0  0  0
    0.8472    1.9498    0.0000 C   0  0  0  0  0  0  0  0  0  0  0  0
    1.5698    1.5386    0.0000 C   0  0  0  0  0  0  0  0  0  0  0  0
    2.2924    1.9498    0.0000 C   0  0  0  0  0  0  0  0  0  0  0  0
    3.0149    1.5386    0.0000 C   0  0  0  0  0  0  0  0  0  0  0  0
    3.7126    1.9498    0.0000 C   0  0  0  0  0  0  0  0  0  0  0  0
    4.5722    1.9373    0.0000 C   0  0  0  0  0  0  0  0  0  0  0  0
    5.2824    1.5386    0.0000 C   0  0  0  0  0  0  0  0  0  0  0  0
    5.9925    1.9498    0.0000 C   0  0  0  0  0  0  0  0  0  0  0  0
    6.7276    1.5386    0.0000 C   0  0  0  0  0  0  0  0  0  0  0  0
    7.4252    1.9498    0.0000 C   0  0  0  0  0  0  0  0  0  0  0  0
    8.1602    1.5386    0.0000 C   0  0  0  0  0  0  0  0  0  0  0  0
    8.8704    1.9498    0.0000 C   0  0  0  0  0  0  0  0  0  0  0  0
    9.5930    1.5386    0.0000 C   0  0  0  0  0  0  0  0  0  0  0  0
   10.3031    1.9498    0.0000 C   0  0  0  0  0  0  0  0  0  0  0  0
  1 15  1  0  0  0  0
  1 17  1  0  0  0  0
  2  4  1  0  0  0  0
  2  5  1  0  0  0  0
  2  7  2  0  0  0  0
  2 11  1  0  0  0  0
  3 14  1  0  0  0  0
  3 15  1  0  0  0  0
  4 19  1  0  0  0  0
  5 22  1  0  0  0  0
  6 16  2  0  0  0  0
  8 30  2  0  0  0  0
  9 14  1  0  0  0  0
  9 16  1  0  0  0  0
  9 18  1  0  0  0  0
 10 16  1  0  0  0  0
 10 20  2  0  0  0  0
 11 25  1  0  0  0  0
 12 20  1  0  0  0  0
 13 29  1  0  0  0  0
 13 30  1  0  0  0  0
 14 17  1  0  0  0  0
 15 19  1  6  0  0  0
 18 21  2  0  0  0  0
 20 21  1  0  0  0  0
 22 23  2  0  0  0  0
 22 24  1  0  0  0  0
 23 26  1  0  0  0  0
 24 27  2  0  0  0  0
 25 29  1  0  0  0  0
 26 28  2  0  0  0  0
 27 28  1  0  0  0  0
 30 31  1  0  0  0  0
 31 32  1  0  0  0  0
 32 33  1  0  0  0  0
 33 34  1  0  0  0  0
 34 35  1  0  0  0  0
 35 36  1  0  0  0  0
 36 37  1  0  0  0  0
 37 38  1  0  0  0  0
 38 39  2  0  0  0  0
 39 40  1  0  0  0  0
 40 41  1  0  0  0  0
 41 42  1  0  0  0  0
 42 43  1  0  0  0  0
 43 44  1  0  0  0  0
 44 45  1  0  0  0  0
 45 46  1  0  0  0  0
 46 47  1  0  0  0  0
M  END
> <PUBCHEM_COMPOUND_ID_TYPE>
0

> <PUBCHEM_TOTAL_CHARGE>
0

> <PUBCHEM_SUBSTANCE_ID>
310948912

> <PUBCHEM_SUBSTANCE_VERSION>
1

> <PUBCHEM_EXT_DATASOURCE_NAME>
4488

> <PUBCHEM_EXT_DATASOURCE_REGID>
SCHEMBL16127097

> <PUBCHEM_SUBSTANCE_COMMENT>
InChI=1S/C34H54N5O6PS/c1-2-3-4-5-6-7-8-9-10-11-12-13-14-15-19-22-31(40)36-24-25-37-46(42,45-29-20-17-16-18-21-29)43-27-33-44-32(28-47-33)39-26-23-30(35)38-34(39)41/h9-10,16-18,20-21,23,26,32-33H,2-8,11-15,19,22,24-25,27-28H2,1H3,(H,36,40)(H,37,42)(H2,35,38,41)/b10-9-/t32?,33-,46?/m1/s1
InChIKey=CGTTZLWTAWFQGG-FUJPFONMSA-N

> <PUBCHEM_SUBSTANCE_SYNONYM>
SCHEMBL16127097

> <PUBCHEM_XREF_EXT_ID>
SCHEMBL16127097

> <PUBCHEM_EXT_DATASOURCE_URL>
https://www.surechembl.org/

> <PUBCHEM_EXT_SUBSTANCE_URL>
https://www.surechembl.org/chemical/SCHEMBL16127097

> <PUBCHEM_CID_ASSOCIATIONS>
117614429  1

> <PUBCHEM_COORDINATE_TYPE>
1
3

> <PUBCHEM_BONDANNOTATIONS>
15  19  6

$$$$
