310947693
  -OEChem-07211613022D

 17 16  0     0  0  0  0  0  0999 V2000
    3.5408   -9.1897    0.0000 Cl  0  0  0  0  0  0  0  0  0  0  0  0
   -0.0315   -8.7772    0.0000 S   0  0  0  0  0  0  0  0  0  0  0  0
   -0.4440   -8.0627    0.0000 O   0  0  0  0  0  0  0  0  0  0  0  0
    0.3810   -8.0627    0.0000 O   0  0  0  0  0  0  0  0  0  0  0  0
    2.1119   -9.1897    0.0000 O   0  0  0  0  0  0  0  0  0  0  0  0
   -2.1749   -9.1897    0.0000 O   0  0  0  0  0  0  0  0  0  0  0  0
    2.8264   -7.9522    0.0000 O   0  0  0  0  0  0  0  0  0  0  0  0
   -4.3184   -8.7772    0.0000 N   0  0  0  0  0  0  0  0  0  0  0  0
   -5.0328   -9.1897    0.0000 N   0  3  0  0  0  0  0  0  0  0  0  0
   -5.7473   -9.6022    0.0000 N   0  5  0  0  0  0  0  0  0  0  0  0
    0.6829   -9.1897    0.0000 C   0  0  0  0  0  0  0  0  0  0  0  0
   -0.7460   -9.1897    0.0000 C   0  0  0  0  0  0  0  0  0  0  0  0
    1.3974   -8.7772    0.0000 C   0  0  0  0  0  0  0  0  0  0  0  0
   -1.4605   -8.7772    0.0000 C   0  0  0  0  0  0  0  0  0  0  0  0
    2.8264   -8.7772    0.0000 C   0  0  0  0  0  0  0  0  0  0  0  0
   -2.8894   -8.7772    0.0000 C   0  0  0  0  0  0  0  0  0  0  0  0
   -3.6039   -9.1897    0.0000 C   0  0  0  0  0  0  0  0  0  0  0  0
  1 15  1  0  0  0  0
  2  3  2  0  0  0  0
  2  4  2  0  0  0  0
  2 11  1  0  0  0  0
  2 12  1  0  0  0  0
  5 13  1  0  0  0  0
  5 15  1  0  0  0  0
  6 14  1  0  0  0  0
  6 16  1  0  0  0  0
  7 15  2  0  0  0  0
  8  9  2  0  0  0  0
  8 17  1  0  0  0  0
  9 10  2  0  0  0  0
 11 13  1  0  0  0  0
 12 14  1  0  0  0  0
 16 17  1  0  0  0  0
M  CHG  2   9   1  10  -1
M  END
> <PUBCHEM_COMPOUND_ID_TYPE>
0

> <PUBCHEM_TOTAL_CHARGE>
0

> <PUBCHEM_SUBSTANCE_ID>
310947693

> <PUBCHEM_SUBSTANCE_VERSION>
1

> <PUBCHEM_EXT_DATASOURCE_NAME>
4488

> <PUBCHEM_EXT_DATASOURCE_REGID>
SCHEMBL16125864

> <PUBCHEM_SUBSTANCE_COMMENT>
InChI=1S/C7H12ClN3O5S/c8-7(12)16-4-6-17(13,14)5-3-15-2-1-10-11-9/h1-6H2
InChIKey=NRAGPYNFDPFKBN-UHFFFAOYSA-N

> <PUBCHEM_SUBSTANCE_SYNONYM>
SCHEMBL16125864

> <PUBCHEM_XREF_EXT_ID>
SCHEMBL16125864

> <PUBCHEM_EXT_DATASOURCE_URL>
https://www.surechembl.org/

> <PUBCHEM_EXT_SUBSTANCE_URL>
https://www.surechembl.org/chemical/SCHEMBL16125864

> <PUBCHEM_CID_ASSOCIATIONS>
117613406  1

> <PUBCHEM_COORDINATE_TYPE>
1
3

$$$$
