310935796
  -OEChem-07211613022D

 26 28  0     0  0  0  0  0  0999 V2000
    0.8350   -0.6623    0.0000 Cl  0  0  0  0  0  0  0  0  0  0  0  0
    0.0000   -2.0731    0.0000 F   0  0  0  0  0  0  0  0  0  0  0  0
    3.2537   -3.5704    0.0000 O   0  0  0  0  0  0  0  0  0  0  0  0
    8.6380   -1.4109    0.0000 O   0  0  0  0  0  0  0  0  0  0  0  0
    4.4918   -2.8218    0.0000 N   0  0  0  0  0  0  0  0  0  0  0  0
    6.9680    0.0000    0.0000 N   0  0  0  0  0  0  0  0  0  0  0  0
    6.9680   -1.4109    0.0000 N   0  0  0  0  0  0  0  0  0  0  0  0
    8.6380    0.0000    0.0000 N   0  0  0  0  0  0  0  0  0  0  0  0
    3.2537   -2.1307    0.0000 C   0  0  0  0  0  0  0  0  0  0  0  0
    2.4475   -2.1020    0.0000 C   0  0  0  0  0  0  0  0  0  0  0  0
    3.6568   -2.8506    0.0000 C   0  0  0  0  0  0  0  0  0  0  0  0
    4.4918   -1.4109    0.0000 C   0  0  0  0  0  0  0  0  0  0  0  0
    3.6568   -1.4397    0.0000 C   0  0  0  0  0  0  0  0  0  0  0  0
    2.0443   -1.4109    0.0000 C   0  0  0  0  0  0  0  0  0  0  0  0
    1.2381   -1.3821    0.0000 C   0  0  0  0  0  0  0  0  0  0  0  0
    2.0443   -2.8218    0.0000 C   0  0  0  0  0  0  0  0  0  0  0  0
    4.8949   -2.1307    0.0000 C   0  0  0  0  0  0  0  0  0  0  0  0
    4.9237   -0.6911    0.0000 C   0  0  0  0  0  0  0  0  0  0  0  0
    5.7299   -0.6911    0.0000 C   0  0  0  0  0  0  0  0  0  0  0  0
    0.8062   -2.1020    0.0000 C   0  0  0  0  0  0  0  0  0  0  0  0
    1.2093   -2.8218    0.0000 C   0  0  0  0  0  0  0  0  0  0  0  0
    7.3999   -0.6911    0.0000 C   0  0  0  0  0  0  0  0  0  0  0  0
    6.1618    0.0000    0.0000 C   0  0  0  0  0  0  0  0  0  0  0  0
    6.1618   -1.4109    0.0000 C   0  0  0  0  0  0  0  0  0  0  0  0
    8.2349   -0.6911    0.0000 C   0  0  0  0  0  0  0  0  0  0  0  0
    3.6568   -4.2902    0.0000 C   0  0  0  0  0  0  0  0  0  0  0  0
  1 15  1  0  0  0  0
  2 20  1  0  0  0  0
  3 11  1  0  0  0  0
  3 26  1  0  0  0  0
  4 25  2  0  0  0  0
  5 11  2  0  0  0  0
  5 17  1  0  0  0  0
  6 22  2  0  0  0  0
  6 23  1  0  0  0  0
  7 22  1  0  0  0  0
  7 24  2  0  0  0  0
  8 25  1  0  0  0  0
  9 10  1  0  0  0  0
  9 11  1  0  0  0  0
  9 13  2  0  0  0  0
 10 14  1  0  0  0  0
 10 16  2  0  0  0  0
 12 13  1  0  0  0  0
 12 17  2  0  0  0  0
 12 18  1  0  0  0  0
 14 15  2  0  0  0  0
 15 20  1  0  0  0  0
 16 21  1  0  0  0  0
 18 19  1  0  0  0  0
 19 23  2  0  0  0  0
 19 24  1  0  0  0  0
 20 21  2  0  0  0  0
 22 25  1  0  0  0  0
M  END
> <PUBCHEM_COMPOUND_ID_TYPE>
0

> <PUBCHEM_TOTAL_CHARGE>
0

> <PUBCHEM_SUBSTANCE_ID>
310935796

> <PUBCHEM_SUBSTANCE_VERSION>
1

> <PUBCHEM_EXT_DATASOURCE_NAME>
4488

> <PUBCHEM_EXT_DATASOURCE_REGID>
SCHEMBL16113382

> <PUBCHEM_SUBSTANCE_COMMENT>
InChI=1S/C18H14ClFN4O2/c1-26-18-13(12-2-3-15(20)14(19)6-12)5-10(7-24-18)4-11-8-22-17(16(21)25)23-9-11/h2-3,5-9H,4H2,1H3,(H2,21,25)
InChIKey=GHQXXAVBQQOWAR-UHFFFAOYSA-N

> <PUBCHEM_SUBSTANCE_SYNONYM>
SCHEMBL16113382

> <PUBCHEM_XREF_EXT_ID>
SCHEMBL16113382

> <PUBCHEM_EXT_DATASOURCE_URL>
https://www.surechembl.org/

> <PUBCHEM_EXT_SUBSTANCE_URL>
https://www.surechembl.org/chemical/SCHEMBL16113382

> <PUBCHEM_CID_ASSOCIATIONS>
117603790  1

> <PUBCHEM_COORDINATE_TYPE>
1
3

$$$$
