310935824
  -OEChem-07211613022D

 30 34  0     0  0  0  0  0  0999 V2000
    5.4731   -2.1284    0.0000 P   0  0  0  0  0  0  0  0  0  0  0  0
    4.9157   -2.7619    0.0000 O   0  0  0  0  0  0  0  0  0  0  0  0
    5.2198   -1.3430    0.0000 N   0  0  0  0  0  0  0  0  0  0  0  0
    6.2840   -2.3058    0.0000 N   0  0  0  0  0  0  0  0  0  0  0  0
    5.2198    0.0000    0.0000 N   0  0  0  0  0  0  0  0  0  0  0  0
    7.4495   -2.9646    0.0000 N   0  0  0  0  0  0  0  0  0  0  0  0
    2.4325   -2.2551    0.0000 C   0  0  0  0  0  0  0  0  0  0  0  0
    1.6217   -2.1031    0.0000 C   0  0  0  0  0  0  0  0  0  0  0  0
    1.9004   -2.8886    0.0000 C   0  0  0  0  0  0  0  0  0  0  0  0
    2.7365   -3.0406    0.0000 C   0  0  0  0  0  0  0  0  0  0  0  0
    3.0153   -1.6470    0.0000 C   0  0  0  0  0  0  0  0  0  0  0  0
    4.1048   -2.6099    0.0000 C   0  0  0  0  0  0  0  0  0  0  0  0
    3.5220   -3.1926    0.0000 C   0  0  0  0  0  0  0  0  0  0  0  0
    3.8008   -1.8244    0.0000 C   0  0  0  0  0  0  0  0  0  0  0  0
    1.0642   -2.7112    0.0000 C   0  0  0  0  0  0  0  0  0  0  0  0
    2.1538   -3.6741    0.0000 C   0  0  0  0  0  0  0  0  0  0  0  0
    1.3683   -1.3176    0.0000 C   0  0  0  0  0  0  0  0  0  0  0  0
    1.2416   -2.9139    0.0000 C   0  0  0  0  0  0  0  0  0  0  0  0
    5.7012   -0.6842    0.0000 C   0  0  0  0  0  0  0  0  0  0  0  0
    6.6134   -3.0659    0.0000 C   0  0  0  0  0  0  0  0  0  0  0  0
    4.4342   -1.0896    0.0000 C   0  0  0  0  0  0  0  0  0  0  0  0
    6.8921   -1.7484    0.0000 C   0  0  0  0  0  0  0  0  0  0  0  0
    0.2787   -2.5592    0.0000 C   0  0  0  0  0  0  0  0  0  0  0  0
    1.6470   -4.3075    0.0000 C   0  0  0  0  0  0  0  0  0  0  0  0
    0.5575   -1.1656    0.0000 C   0  0  0  0  0  0  0  0  0  0  0  0
    0.5575   -3.3700    0.0000 C   0  0  0  0  0  0  0  0  0  0  0  0
    4.4342   -0.2787    0.0000 C   0  0  0  0  0  0  0  0  0  0  0  0
    7.6015   -2.1538    0.0000 C   0  0  0  0  0  0  0  0  0  0  0  0
    0.0000   -1.7737    0.0000 C   0  0  0  0  0  0  0  0  0  0  0  0
    0.8109   -4.1555    0.0000 C   0  0  0  0  0  0  0  0  0  0  0  0
  1  2  1  0  0  0  0
  1  3  1  0  0  0  0
  1  4  1  0  0  0  0
  2 12  1  0  0  0  0
  3 19  1  0  0  0  0
  3 21  1  0  0  0  0
  4 20  1  0  0  0  0
  4 22  1  0  0  0  0
  5 19  2  0  0  0  0
  5 27  1  0  0  0  0
  6 20  2  0  0  0  0
  6 28  1  0  0  0  0
  7  8  1  0  0  0  0
  7  9  1  0  0  0  0
  7 10  1  0  0  0  0
  7 11  1  0  0  0  0
  8 15  2  0  0  0  0
  8 17  1  0  0  0  0
  9 16  2  0  0  0  0
  9 18  1  0  0  0  0
 10 13  1  0  0  0  0
 11 14  1  0  0  0  0
 12 13  1  0  0  0  0
 12 14  1  0  0  0  0
 15 23  1  0  0  0  0
 16 24  1  0  0  0  0
 17 25  2  0  0  0  0
 18 26  2  0  0  0  0
 21 27  2  0  0  0  0
 22 28  2  0  0  0  0
 23 29  2  0  0  0  0
 24 30  2  0  0  0  0
 25 29  1  0  0  0  0
 26 30  1  0  0  0  0
M  END
> <PUBCHEM_COMPOUND_ID_TYPE>
0

> <PUBCHEM_TOTAL_CHARGE>
0

> <PUBCHEM_SUBSTANCE_ID>
310935824

> <PUBCHEM_SUBSTANCE_VERSION>
1

> <PUBCHEM_EXT_DATASOURCE_NAME>
4488

> <PUBCHEM_EXT_DATASOURCE_REGID>
SCHEMBL16113414

> <PUBCHEM_SUBSTANCE_COMMENT>
InChI=1S/C24H25N4OP/c1-3-7-21(8-4-1)24(22-9-5-2-6-10-22)13-11-23(12-14-24)29-30(27-17-15-25-19-27)28-18-16-26-20-28/h1-10,15-20,23H,11-14H2
InChIKey=KPVAYDZHWCJILW-UHFFFAOYSA-N

> <PUBCHEM_SUBSTANCE_SYNONYM>
SCHEMBL16113414

> <PUBCHEM_XREF_EXT_ID>
SCHEMBL16113414

> <PUBCHEM_EXT_DATASOURCE_URL>
https://www.surechembl.org/

> <PUBCHEM_EXT_SUBSTANCE_URL>
https://www.surechembl.org/chemical/SCHEMBL16113414

> <PUBCHEM_CID_ASSOCIATIONS>
11069744  1

> <PUBCHEM_COORDINATE_TYPE>
1
3

$$$$
