310935583
  -OEChem-07211613022D

 37 41  0     1  0  0  0  0  0999 V2000
    1.6490   -3.5923    0.0000 O   0  0  0  0  0  0  0  0  0  0  0  0
    1.6195   -0.7656    0.0000 O   0  0  0  0  0  0  0  0  0  0  0  0
    2.0612   -5.7419    0.0000 O   0  0  0  0  0  0  0  0  0  0  0  0
    6.1247   -2.0612    0.0000 O   0  0  0  0  0  0  0  0  0  0  0  0
    0.8245   -5.0058    0.0000 O   0  0  0  0  0  0  0  0  0  0  0  0
    6.8608   -3.2979    0.0000 O   0  0  0  0  0  0  0  0  0  0  0  0
    4.5347   -4.2991    0.0000 N   0  0  0  0  0  0  0  0  0  0  0  0
    5.3591   -4.0929    0.0000 N   0  0  0  0  0  0  0  0  0  0  0  0
    4.1518   -2.1201    0.0000 N   0  0  0  0  0  0  0  0  0  0  0  0
    3.2979   -3.5923    0.0000 C   0  0  0  0  0  0  0  0  0  0  0  0
    4.1224   -3.5923    0.0000 C   0  0  0  0  0  0  0  0  0  0  0  0
    2.8857   -2.8562    0.0000 C   0  0  0  0  0  0  0  0  0  0  0  0
    2.8857   -4.2991    0.0000 C   0  0  0  0  0  0  0  0  0  0  0  0
    3.2979   -2.1201    0.0000 C   0  0  0  0  0  0  0  0  0  0  0  0
    2.8857   -1.4134    0.0000 C   0  0  0  0  0  0  0  0  0  0  0  0
    3.2979   -5.0058    0.0000 C   0  0  0  0  0  0  0  0  0  0  0  0
    2.0612   -4.2991    0.0000 C   0  0  3  0  0  0  0  0  0  0  0  0
    4.6819   -2.9446    0.0000 C   0  0  0  0  0  0  0  0  0  0  0  0
    4.1224   -5.0058    0.0000 C   0  0  0  0  0  0  0  0  0  0  0  0
    2.0318   -1.4134    0.0000 C   0  0  0  0  0  0  0  0  0  0  0  0
    5.4474   -3.2979    0.0000 C   0  0  0  0  0  0  0  0  0  0  0  0
    2.0906   -2.8562    0.0000 C   0  0  0  0  0  0  0  0  0  0  0  0
    3.2979   -0.6773    0.0000 C   0  0  0  0  0  0  0  0  0  0  0  0
    1.6490   -2.1495    0.0000 C   0  0  0  0  0  0  0  0  0  0  0  0
    1.6490   -5.0058    0.0000 C   0  0  0  0  0  0  0  0  0  0  0  0
    6.1541   -2.8857    0.0000 C   0  0  0  0  0  0  0  0  0  0  0  0
    4.0929   -0.6773    0.0000 C   0  0  0  0  0  0  0  0  0  0  0  0
    2.8857    0.0000    0.0000 C   0  0  0  0  0  0  0  0  0  0  0  0
    4.5347   -1.4134    0.0000 C   0  0  0  0  0  0  0  0  0  0  0  0
    3.0624   -5.8892    0.0000 C   0  0  0  0  0  0  0  0  0  0  0  0
    0.8245   -3.5629    0.0000 C   0  0  0  0  0  0  0  0  0  0  0  0
    2.0318   -0.0294    0.0000 C   0  0  0  0  0  0  0  0  0  0  0  0
    0.0000   -3.5335    0.0000 C   0  0  0  0  0  0  0  0  0  0  0  0
    0.8539   -2.7384    0.0000 C   0  0  0  0  0  0  0  0  0  0  0  0
    0.8245   -4.3874    0.0000 C   0  0  0  0  0  0  0  0  0  0  0  0
    2.8857   -5.7419    0.0000 C   0  0  0  0  0  0  0  0  0  0  0  0
    6.8608   -1.6195    0.0000 C   0  0  0  0  0  0  0  0  0  0  0  0
 17  1  1  1  0  0  0
  1 31  1  0  0  0  0
  2 20  1  0  0  0  0
  2 32  1  0  0  0  0
  3 25  1  0  0  0  0
  3 36  1  0  0  0  0
  4 26  1  0  0  0  0
  4 37  1  0  0  0  0
  5 25  2  0  0  0  0
  6 26  2  0  0  0  0
  7  8  1  0  0  0  0
  7 11  1  0  0  0  0
  7 19  1  0  0  0  0
  8 21  2  0  0  0  0
  9 14  2  0  0  0  0
  9 29  1  0  0  0  0
 10 11  1  0  0  0  0
 10 12  1  0  0  0  0
 10 13  2  0  0  0  0
 11 18  2  0  0  0  0
 12 14  1  0  0  0  0
 12 22  2  0  0  0  0
 13 16  1  0  0  0  0
 13 17  1  0  0  0  0
 14 15  1  0  0  0  0
 15 20  1  0  0  0  0
 15 23  2  0  0  0  0
 16 19  2  0  0  0  0
 16 30  1  0  0  0  0
 17 25  1  0  0  0  0
 18 21  1  0  0  0  0
 20 24  2  0  0  0  0
 21 26  1  0  0  0  0
 22 24  1  0  0  0  0
 23 27  1  0  0  0  0
 23 28  1  0  0  0  0
 27 29  2  0  0  0  0
 28 32  1  0  0  0  0
 31 33  1  0  0  0  0
 31 34  1  0  0  0  0
 31 35  1  0  0  0  0
M  END
> <PUBCHEM_COMPOUND_ID_TYPE>
0

> <PUBCHEM_TOTAL_CHARGE>
0

> <PUBCHEM_SUBSTANCE_ID>
310935583

> <PUBCHEM_SUBSTANCE_VERSION>
1

> <PUBCHEM_EXT_DATASOURCE_NAME>
4488

> <PUBCHEM_EXT_DATASOURCE_REGID>
SCHEMBL16113156

> <PUBCHEM_SUBSTANCE_COMMENT>
InChI=1S/C28H29N3O6/c1-15-14-31-19(13-18(30-31)26(32)34-5)23(21(15)25(27(33)35-6)37-28(2,3)4)17-7-8-20-22-16(10-12-36-20)9-11-29-24(17)22/h7-9,11,13-14,25H,10,12H2,1-6H3/t25-/m0/s1
InChIKey=SBVVSKAJXMZLNK-VWLOTQADSA-N

> <PUBCHEM_SUBSTANCE_SYNONYM>
SCHEMBL16113156

> <PUBCHEM_XREF_EXT_ID>
SCHEMBL16113156

> <PUBCHEM_EXT_DATASOURCE_URL>
https://www.surechembl.org/

> <PUBCHEM_EXT_SUBSTANCE_URL>
https://www.surechembl.org/chemical/SCHEMBL16113156

> <PUBCHEM_CID_ASSOCIATIONS>
117603605  1

> <PUBCHEM_COORDINATE_TYPE>
1
3

> <PUBCHEM_BONDANNOTATIONS>
17  1  5

$$$$
