310939335
  -OEChem-07211613022D

 24 25  0     1  0  0  0  0  0999 V2000
    0.0000    1.4437    0.0000 Cl  0  0  0  0  0  0  0  0  0  0  0  0
   -1.4289   -1.0313    0.0000 F   0  0  0  0  0  0  0  0  0  0  0  0
    2.8579    1.4437    0.0000 F   0  0  0  0  0  0  0  0  0  0  0  0
    0.0000   -0.2063    0.0000 O   0  0  0  0  0  0  0  0  0  0  0  0
    3.5724    0.2063    0.0000 O   0  0  0  0  0  0  0  0  0  0  0  0
    2.8579   -1.0312    0.0000 N   0  0  0  0  0  0  0  0  0  0  0  0
   -3.5724    0.2062    0.0000 N   0  0  0  0  0  0  0  0  0  0  0  0
   -0.7145    0.2062    0.0000 C   0  0  0  0  0  0  0  0  0  0  0  0
   -1.4289   -0.2063    0.0000 C   0  0  0  0  0  0  0  0  0  0  0  0
   -2.1434    0.2062    0.0000 C   0  0  0  0  0  0  0  0  0  0  0  0
   -0.7145    1.0312    0.0000 C   0  0  0  0  0  0  0  0  0  0  0  0
    0.7145    0.2062    0.0000 C   0  0  0  0  0  0  0  0  0  0  0  0
    2.1434    0.2062    0.0000 C   0  0  0  0  0  0  0  0  0  0  0  0
    1.4289   -0.2063    0.0000 C   0  0  0  0  0  0  0  0  0  0  0  0
   -2.1434    1.0312    0.0000 C   0  0  0  0  0  0  0  0  0  0  0  0
   -2.8579   -0.2063    0.0000 C   0  0  3  0  0  0  0  0  0  0  0  0
   -1.4289    1.4437    0.0000 C   0  0  0  0  0  0  0  0  0  0  0  0
    2.1434    1.0312    0.0000 C   0  0  0  0  0  0  0  0  0  0  0  0
    0.7145    1.0312    0.0000 C   0  0  0  0  0  0  0  0  0  0  0  0
    2.8579   -0.2062    0.0000 C   0  0  0  0  0  0  0  0  0  0  0  0
    1.4289    1.4438    0.0000 C   0  0  0  0  0  0  0  0  0  0  0  0
   -2.8579   -1.0313    0.0000 C   0  0  0  0  0  0  0  0  0  0  0  0
   -2.1434   -1.4438    0.0000 C   0  0  0  0  0  0  0  0  0  0  0  0
    3.5724   -1.4437    0.0000 C   0  0  0  0  0  0  0  0  0  0  0  0
  1 11  1  0  0  0  0
  2  9  1  0  0  0  0
  3 18  1  0  0  0  0
  4  8  1  0  0  0  0
  4 12  1  0  0  0  0
  5 20  2  0  0  0  0
  6 20  1  0  0  0  0
  6 24  1  0  0  0  0
 16  7  1  1  0  0  0
  8  9  2  0  0  0  0
  8 11  1  0  0  0  0
  9 10  1  0  0  0  0
 10 15  2  0  0  0  0
 10 16  1  0  0  0  0
 11 17  2  0  0  0  0
 12 14  2  0  0  0  0
 12 19  1  0  0  0  0
 13 14  1  0  0  0  0
 13 18  2  0  0  0  0
 13 20  1  0  0  0  0
 15 17  1  0  0  0  0
 16 22  1  0  0  0  0
 18 21  1  0  0  0  0
 19 21  2  0  0  0  0
 22 23  1  0  0  0  0
M  END
> <PUBCHEM_COMPOUND_ID_TYPE>
0

> <PUBCHEM_TOTAL_CHARGE>
0

> <PUBCHEM_SUBSTANCE_ID>
310939335

> <PUBCHEM_SUBSTANCE_VERSION>
1

> <PUBCHEM_EXT_DATASOURCE_NAME>
4488

> <PUBCHEM_EXT_DATASOURCE_REGID>
SCHEMBL16117256

> <PUBCHEM_SUBSTANCE_COMMENT>
InChI=1S/C17H17ClF2N2O2/c1-3-14(21)10-5-6-12(18)16(15(10)20)24-9-4-7-13(19)11(8-9)17(23)22-2/h4-8,14H,3,21H2,1-2H3,(H,22,23)/t14-/m1/s1
InChIKey=OTFJIHXXICSJKB-CQSZACIVSA-N

> <PUBCHEM_SUBSTANCE_SYNONYM>
SCHEMBL16117256

> <PUBCHEM_XREF_EXT_ID>
SCHEMBL16117256

> <PUBCHEM_EXT_DATASOURCE_URL>
https://www.surechembl.org/

> <PUBCHEM_EXT_SUBSTANCE_URL>
https://www.surechembl.org/chemical/SCHEMBL16117256

> <PUBCHEM_CID_ASSOCIATIONS>
89544500  1

> <PUBCHEM_COORDINATE_TYPE>
1
3

> <PUBCHEM_BONDANNOTATIONS>
16  7  5

$$$$
