310929960
  -OEChem-07211613022D

 51 50  0     0  0  0  0  0  0999 V2000
    1.5797   -2.8790    0.0000 O   0  0  0  0  0  0  0  0  0  0  0  0
   -0.1237    1.0549    0.0000 O   0  0  0  0  0  0  0  0  0  0  0  0
    2.9993   -3.0429    0.0000 O   0  0  0  0  0  0  0  0  0  0  0  0
    0.7280    2.2022    0.0000 N   0  0  0  0  0  0  0  0  0  0  0  0
    2.4315   -1.7316    0.0000 N   0  0  0  0  0  0  0  0  0  0  0  0
    0.6334    1.3827    0.0000 C   0  0  0  0  0  0  0  0  0  0  0  0
    1.4851   -3.6986    0.0000 C   0  0  0  0  0  0  0  0  0  0  0  0
    0.0656    2.6940    0.0000 C   0  0  0  0  0  0  0  0  0  0  0  0
    1.4851    2.5301    0.0000 C   0  0  0  0  0  0  0  0  0  0  0  0
    1.2958    0.8910    0.0000 C   0  0  0  0  0  0  0  0  0  0  0  0
    2.3368   -2.5512    0.0000 C   0  0  0  0  0  0  0  0  0  0  0  0
    1.2012    0.0714    0.0000 C   0  0  0  0  0  0  0  0  0  0  0  0
   -0.6915    2.3662    0.0000 C   0  0  0  0  0  0  0  0  0  0  0  0
    2.1475    2.0383    0.0000 C   0  0  0  0  0  0  0  0  0  0  0  0
    1.8636   -0.4203    0.0000 C   0  0  0  0  0  0  0  0  0  0  0  0
    1.7690   -1.2399    0.0000 C   0  0  0  0  0  0  0  0  0  0  0  0
    1.3905   -4.5181    0.0000 C   0  0  0  0  0  0  0  0  0  0  0  0
    0.6656   -3.6039    0.0000 C   0  0  0  0  0  0  0  0  0  0  0  0
    2.3047   -3.7932    0.0000 C   0  0  0  0  0  0  0  0  0  0  0  0
   -1.3539    2.8579    0.0000 C   0  0  0  0  0  0  0  0  0  0  0  0
    2.9046    2.3662    0.0000 C   0  0  0  0  0  0  0  0  0  0  0  0
   -2.1110    2.5301    0.0000 C   0  0  0  0  0  0  0  0  0  0  0  0
    2.9993    3.1857    0.0000 C   0  0  0  0  0  0  0  0  0  0  0  0
   -2.7734    3.0218    0.0000 C   0  0  0  0  0  0  0  0  0  0  0  0
    3.7563    3.5135    0.0000 C   0  0  0  0  0  0  0  0  0  0  0  0
   -3.5305    2.6940    0.0000 C   0  0  0  0  0  0  0  0  0  0  0  0
    4.4188    3.0218    0.0000 C   0  0  0  0  0  0  0  0  0  0  0  0
   -4.1929    3.1857    0.0000 C   0  0  0  0  0  0  0  0  0  0  0  0
    5.1758    3.3496    0.0000 C   0  0  0  0  0  0  0  0  0  0  0  0
   -4.9500    2.8579    0.0000 C   0  0  0  0  0  0  0  0  0  0  0  0
    5.8383    2.8579    0.0000 C   0  0  0  0  0  0  0  0  0  0  0  0
   -5.6124    3.3496    0.0000 C   0  0  0  0  0  0  0  0  0  0  0  0
    6.5953    3.1857    0.0000 C   0  0  0  0  0  0  0  0  0  0  0  0
   -6.3695    3.0218    0.0000 C   0  0  0  0  0  0  0  0  0  0  0  0
    7.2578    2.6940    0.0000 C   0  0  0  0  0  0  0  0  0  0  0  0
   -6.4641    2.2022    0.0000 C   0  0  0  0  0  0  0  0  0  0  0  0
    8.0149    3.0218    0.0000 C   0  0  0  0  0  0  0  0  0  0  0  0
   -7.2212    1.8744    0.0000 C   0  0  0  0  0  0  0  0  0  0  0  0
    8.1095    3.8413    0.0000 C   0  0  0  0  0  0  0  0  0  0  0  0
   -7.8837    2.3662    0.0000 C   0  0  0  0  0  0  0  0  0  0  0  0
    8.8666    4.1692    0.0000 C   0  0  0  0  0  0  0  0  0  0  0  0
   -8.6407    2.0383    0.0000 C   0  0  0  0  0  0  0  0  0  0  0  0
    8.9612    4.9887    0.0000 C   0  0  0  0  0  0  0  0  0  0  0  0
   -9.3032    2.5301    0.0000 C   0  0  0  0  0  0  0  0  0  0  0  0
    9.7183    5.3165    0.0000 C   0  0  0  0  0  0  0  0  0  0  0  0
  -10.0602    2.2022    0.0000 C   0  0  0  0  0  0  0  0  0  0  0  0
    9.8129    6.1361    0.0000 C   0  0  0  0  0  0  0  0  0  0  0  0
  -10.7227    2.6940    0.0000 C   0  0  0  0  0  0  0  0  0  0  0  0
   10.5700    6.4639    0.0000 C   0  0  0  0  0  0  0  0  0  0  0  0
  -11.4797    2.3662    0.0000 C   0  0  0  0  0  0  0  0  0  0  0  0
   10.6646    7.2835    0.0000 C   0  0  0  0  0  0  0  0  0  0  0  0
  1  7  1  0  0  0  0
  1 11  1  0  0  0  0
  2  6  2  0  0  0  0
  3 11  2  0  0  0  0
  4  6  1  0  0  0  0
  4  8  1  0  0  0  0
  4  9  1  0  0  0  0
  5 11  1  0  0  0  0
  5 16  1  0  0  0  0
  6 10  1  0  0  0  0
  7 17  1  0  0  0  0
  7 18  1  0  0  0  0
  7 19  1  0  0  0  0
  8 13  1  0  0  0  0
  9 14  1  0  0  0  0
 10 12  1  0  0  0  0
 12 15  1  0  0  0  0
 13 20  1  0  0  0  0
 14 21  1  0  0  0  0
 15 16  1  0  0  0  0
 20 22  1  0  0  0  0
 21 23  1  0  0  0  0
 22 24  1  0  0  0  0
 23 25  1  0  0  0  0
 24 26  1  0  0  0  0
 25 27  1  0  0  0  0
 26 28  1  0  0  0  0
 27 29  1  0  0  0  0
 28 30  1  0  0  0  0
 29 31  1  0  0  0  0
 30 32  1  0  0  0  0
 31 33  1  0  0  0  0
 32 34  2  0  0  0  0
 33 35  2  0  0  0  0
 34 36  1  0  0  0  0
 35 37  1  0  0  0  0
 36 38  1  0  0  0  0
 37 39  1  0  0  0  0
 38 40  2  0  0  0  0
 39 41  2  0  0  0  0
 40 42  1  0  0  0  0
 41 43  1  0  0  0  0
 42 44  1  0  0  0  0
 43 45  1  0  0  0  0
 44 46  1  0  0  0  0
 45 47  1  0  0  0  0
 46 48  1  0  0  0  0
 47 49  1  0  0  0  0
 48 50  1  0  0  0  0
 49 51  1  0  0  0  0
M  END
> <PUBCHEM_COMPOUND_ID_TYPE>
0

> <PUBCHEM_TOTAL_CHARGE>
0

> <PUBCHEM_SUBSTANCE_ID>
310929960

> <PUBCHEM_SUBSTANCE_VERSION>
1

> <PUBCHEM_EXT_DATASOURCE_NAME>
4488

> <PUBCHEM_EXT_DATASOURCE_REGID>
SCHEMBL16107188

> <PUBCHEM_SUBSTANCE_COMMENT>
InChI=1S/C46H84N2O3/c1-6-8-10-12-14-16-18-20-22-24-26-28-30-32-34-38-42-48(44(49)40-36-37-41-47-45(50)51-46(3,4)5)43-39-35-33-31-29-27-25-23-21-19-17-15-13-11-9-7-2/h14-17,20-23H,6-13,18-19,24-43H2,1-5H3,(H,47,50)
InChIKey=WABYIQZBPLSMBN-UHFFFAOYSA-N

> <PUBCHEM_SUBSTANCE_SYNONYM>
SCHEMBL16107188

> <PUBCHEM_XREF_EXT_ID>
SCHEMBL16107188

> <PUBCHEM_EXT_DATASOURCE_URL>
https://www.surechembl.org/

> <PUBCHEM_EXT_SUBSTANCE_URL>
https://www.surechembl.org/chemical/SCHEMBL16107188

> <PUBCHEM_CID_ASSOCIATIONS>
117599219  1

> <PUBCHEM_COORDINATE_TYPE>
1
3

> <PUBCHEM_BONDANNOTATIONS>
32  30  3
33  31  3
38  36  3
39  37  3

$$$$
