310943551
  -OEChem-07211613022D

 16 18  0     0  0  0  0  0  0999 V2000
    1.7169   -2.0703    0.0000 Cl  0  0  0  0  0  0  0  0  0  0  0  0
    0.2693    2.0703    0.0000 O   0  0  0  0  0  0  0  0  0  0  0  0
    0.2862    0.4040    0.0000 N   0  0  0  0  0  0  0  0  0  0  0  0
   -1.2456   -0.5723    0.0000 N   0  0  0  0  0  0  0  0  0  0  0  0
   -1.2456   -1.9189    0.0000 N   0  0  0  0  0  0  0  0  0  0  0  0
   -0.4377   -0.8247    0.0000 C   0  0  0  0  0  0  0  0  0  0  0  0
    0.2693   -0.4209    0.0000 C   0  0  0  0  0  0  0  0  0  0  0  0
   -0.4545   -1.6496    0.0000 C   0  0  0  0  0  0  0  0  0  0  0  0
    0.9931   -0.8416    0.0000 C   0  0  0  0  0  0  0  0  0  0  0  0
    0.9931   -1.6496    0.0000 C   0  0  0  0  0  0  0  0  0  0  0  0
    0.2862   -2.0703    0.0000 C   0  0  0  0  0  0  0  0  0  0  0  0
   -1.7169   -1.2624    0.0000 C   0  0  0  0  0  0  0  0  0  0  0  0
   -0.4377    0.8247    0.0000 C   0  0  0  0  0  0  0  0  0  0  0  0
    0.9931    0.8247    0.0000 C   0  0  0  0  0  0  0  0  0  0  0  0
   -0.4377    1.6664    0.0000 C   0  0  0  0  0  0  0  0  0  0  0  0
    1.0099    1.6496    0.0000 C   0  0  0  0  0  0  0  0  0  0  0  0
  1 10  1  0  0  0  0
  2 15  1  0  0  0  0
  2 16  1  0  0  0  0
  3  7  1  0  0  0  0
  3 13  1  0  0  0  0
  3 14  1  0  0  0  0
  4  6  1  0  0  0  0
  4 12  2  0  0  0  0
  5  8  1  0  0  0  0
  5 12  1  0  0  0  0
  6  7  1  0  0  0  0
  6  8  2  0  0  0  0
  7  9  2  0  0  0  0
  8 11  1  0  0  0  0
  9 10  1  0  0  0  0
 10 11  2  0  0  0  0
 13 15  1  0  0  0  0
 14 16  1  0  0  0  0
M  END
> <PUBCHEM_COMPOUND_ID_TYPE>
0

> <PUBCHEM_TOTAL_CHARGE>
0

> <PUBCHEM_SUBSTANCE_ID>
310943551

> <PUBCHEM_SUBSTANCE_VERSION>
1

> <PUBCHEM_EXT_DATASOURCE_NAME>
4488

> <PUBCHEM_EXT_DATASOURCE_REGID>
SCHEMBL16121618

> <PUBCHEM_SUBSTANCE_COMMENT>
InChI=1S/C11H12ClN3O/c12-8-5-9-11(14-7-13-9)10(6-8)15-1-3-16-4-2-15/h5-7H,1-4H2,(H,13,14)
InChIKey=WCCRPIZFEWHRKR-UHFFFAOYSA-N

> <PUBCHEM_SUBSTANCE_SYNONYM>
SCHEMBL16121618

> <PUBCHEM_XREF_EXT_ID>
SCHEMBL16121618

> <PUBCHEM_EXT_DATASOURCE_URL>
https://www.surechembl.org/

> <PUBCHEM_EXT_SUBSTANCE_URL>
https://www.surechembl.org/chemical/SCHEMBL16121618

> <PUBCHEM_CID_ASSOCIATIONS>
117609962  1

> <PUBCHEM_COORDINATE_TYPE>
1
3

$$$$
