310941523
  -OEChem-07211613022D

 33 37  0     0  0  0  0  0  0999 V2000
   -3.5723    2.1403    0.0000 Br  0  0  0  0  0  0  0  0  0  0  0  0
   -3.0742   -2.2648    0.0000 O   0  0  0  0  0  0  0  0  0  0  0  0
   -0.9262    1.3775    0.0000 O   0  0  0  0  0  0  0  0  0  0  0  0
    4.7241    0.1790    0.0000 O   0  0  0  0  0  0  0  0  0  0  0  0
   -1.5177   -1.4865    0.0000 N   0  0  0  0  0  0  0  0  0  0  0  0
   -4.1171   -1.2375    0.0000 N   0  0  0  0  0  0  0  0  0  0  0  0
   -1.7823    0.6304    0.0000 N   0  0  0  0  0  0  0  0  0  0  0  0
    1.2530    1.6422    0.0000 N   0  0  0  0  0  0  0  0  0  0  0  0
    2.8718    1.2998    0.0000 N   0  0  0  0  0  0  0  0  0  0  0  0
   -2.8563   -0.8172    0.0000 C   0  0  0  0  0  0  0  0  0  0  0  0
   -2.0157   -0.8328    0.0000 C   0  0  0  0  0  0  0  0  0  0  0  0
   -3.3388   -0.1478    0.0000 C   0  0  0  0  0  0  0  0  0  0  0  0
   -1.5333   -0.1323    0.0000 C   0  0  0  0  0  0  0  0  0  0  0  0
   -0.7394   -0.4125    0.0000 C   0  0  0  0  0  0  0  0  0  0  0  0
   -3.3388   -1.4710    0.0000 C   0  0  0  0  0  0  0  0  0  0  0  0
   -4.1171   -0.3969    0.0000 C   0  0  0  0  0  0  0  0  0  0  0  0
   -0.7549   -1.2219    0.0000 C   0  0  0  0  0  0  0  0  0  0  0  0
   -3.1676    0.6616    0.0000 C   0  0  0  0  0  0  0  0  0  0  0  0
   -4.7241    0.1323    0.0000 C   0  0  0  0  0  0  0  0  0  0  0  0
   -0.0234   -0.0078    0.0000 C   0  0  0  0  0  0  0  0  0  0  0  0
   -0.0234   -1.6422    0.0000 C   0  0  0  0  0  0  0  0  0  0  0  0
   -3.7747    1.2063    0.0000 C   0  0  0  0  0  0  0  0  0  0  0  0
   -4.5529    0.9262    0.0000 C   0  0  0  0  0  0  0  0  0  0  0  0
    0.6771   -0.4125    0.0000 C   0  0  0  0  0  0  0  0  0  0  0  0
    0.6771   -1.2375    0.0000 C   0  0  0  0  0  0  0  0  0  0  0  0
   -0.1167    1.2063    0.0000 C   0  0  0  0  0  0  0  0  0  0  0  0
    0.4436    1.8134    0.0000 C   0  0  0  0  0  0  0  0  0  0  0  0
    1.7978    2.2648    0.0000 C   0  0  0  0  0  0  0  0  0  0  0  0
    1.5021    0.8639    0.0000 C   0  0  0  0  0  0  0  0  0  0  0  0
    2.6073    2.0780    0.0000 C   0  0  0  0  0  0  0  0  0  0  0  0
    2.3115    0.6927    0.0000 C   0  0  0  0  0  0  0  0  0  0  0  0
    3.6812    1.1285    0.0000 C   0  0  0  0  0  0  0  0  0  0  0  0
    3.9303    0.3502    0.0000 C   0  0  0  0  0  0  0  0  0  0  0  0
  1 22  1  0  0  0  0
  2 15  2  0  0  0  0
  3  7  1  0  0  0  0
  3 26  1  0  0  0  0
  4 33  1  0  0  0  0
  5 11  1  0  0  0  0
  5 17  1  0  0  0  0
  6 15  1  0  0  0  0
  6 16  1  0  0  0  0
  7 13  2  0  0  0  0
  8 27  1  0  0  0  0
  8 28  1  0  0  0  0
  8 29  1  0  0  0  0
  9 30  1  0  0  0  0
  9 31  1  0  0  0  0
  9 32  1  0  0  0  0
 10 11  2  0  0  0  0
 10 12  1  0  0  0  0
 10 15  1  0  0  0  0
 11 13  1  0  0  0  0
 12 16  2  0  0  0  0
 12 18  1  0  0  0  0
 13 14  1  0  0  0  0
 14 17  2  0  0  0  0
 14 20  1  0  0  0  0
 16 19  1  0  0  0  0
 17 21  1  0  0  0  0
 18 22  2  0  0  0  0
 19 23  2  0  0  0  0
 20 24  2  0  0  0  0
 21 25  2  0  0  0  0
 22 23  1  0  0  0  0
 24 25  1  0  0  0  0
 26 27  1  0  0  0  0
 28 30  1  0  0  0  0
 29 31  1  0  0  0  0
 32 33  1  0  0  0  0
M  END
> <PUBCHEM_COMPOUND_ID_TYPE>
0

> <PUBCHEM_TOTAL_CHARGE>
0

> <PUBCHEM_SUBSTANCE_ID>
310941523

> <PUBCHEM_SUBSTANCE_VERSION>
1

> <PUBCHEM_EXT_DATASOURCE_NAME>
4488

> <PUBCHEM_EXT_DATASOURCE_REGID>
SCHEMBL16119554

> <PUBCHEM_SUBSTANCE_COMMENT>
InChI=1S/C24H26BrN5O3/c25-16-5-6-20-18(15-16)21(24(32)27-20)23-22(17-3-1-2-4-19(17)26-23)28-33-14-12-30-9-7-29(8-10-30)11-13-31/h1-6,15,26,31H,7-14H2,(H,27,32)/b23-21-,28-22+
InChIKey=QVEWSFATSJYZPY-YRZTTZRYSA-N

> <PUBCHEM_SUBSTANCE_SYNONYM>
SCHEMBL16119554

> <PUBCHEM_XREF_EXT_ID>
SCHEMBL16119554

> <PUBCHEM_EXT_DATASOURCE_URL>
https://www.surechembl.org/

> <PUBCHEM_EXT_SUBSTANCE_URL>
https://www.surechembl.org/chemical/SCHEMBL16119554

> <PUBCHEM_CID_ASSOCIATIONS>
86269496  1

> <PUBCHEM_COORDINATE_TYPE>
1
3

$$$$
