310930720
  -OEChem-07211613022D

 35 39  0     0  0  0  0  0  0999 V2000
   -6.4302    0.8250    0.0000 S   0  0  0  0  0  0  0  0  0  0  0  0
   -6.0177    1.5395    0.0000 O   0  0  0  0  0  0  0  0  0  0  0  0
   -6.8427    0.1106    0.0000 O   0  0  0  0  0  0  0  0  0  0  0  0
   -6.4302    2.4750    0.0000 O   0  0  0  0  0  0  0  0  0  0  0  0
   -2.1434   -1.6500    0.0000 O   0  0  0  0  0  0  0  0  0  0  0  0
    0.0000   -0.4125    0.0000 N   0  0  0  0  0  0  0  0  0  0  0  0
   -0.7144    0.8250    0.0000 N   0  0  0  0  0  0  0  0  0  0  0  0
    0.7846    0.6674    0.0000 N   0  0  0  0  0  0  0  0  0  0  0  0
   -2.8579   -0.4125    0.0000 N   0  0  0  0  0  0  0  0  0  0  0  0
   -7.1447    1.2375    0.0000 C   0  0  0  0  0  0  0  0  0  0  0  0
   -5.7158    0.4125    0.0000 C   0  0  0  0  0  0  0  0  0  0  0  0
   -7.1447    2.0625    0.0000 C   0  0  0  0  0  0  0  0  0  0  0  0
   -7.8592    0.8250    0.0000 C   0  0  0  0  0  0  0  0  0  0  0  0
   -5.0013    0.8250    0.0000 C   0  0  0  0  0  0  0  0  0  0  0  0
   -5.7158   -0.4125    0.0000 C   0  0  0  0  0  0  0  0  0  0  0  0
   -7.8592    2.4750    0.0000 C   0  0  0  0  0  0  0  0  0  0  0  0
    0.0000    0.4125    0.0000 C   0  0  0  0  0  0  0  0  0  0  0  0
   -4.2868   -0.4125    0.0000 C   0  0  0  0  0  0  0  0  0  0  0  0
   -1.4290   -0.4125    0.0000 C   0  0  0  0  0  0  0  0  0  0  0  0
   -4.2868    0.4125    0.0000 C   0  0  0  0  0  0  0  0  0  0  0  0
   -5.0013   -0.8250    0.0000 C   0  0  0  0  0  0  0  0  0  0  0  0
   -0.7144   -0.8250    0.0000 C   0  0  0  0  0  0  0  0  0  0  0  0
   -8.5736    1.2375    0.0000 C   0  0  0  0  0  0  0  0  0  0  0  0
   -2.1434   -0.8250    0.0000 C   0  0  0  0  0  0  0  0  0  0  0  0
   -6.4302    3.3000    0.0000 C   0  0  0  0  0  0  0  0  0  0  0  0
   -8.5736    2.0625    0.0000 C   0  0  0  0  0  0  0  0  0  0  0  0
   -1.4290    0.4125    0.0000 C   0  0  0  0  0  0  0  0  0  0  0  0
    0.7846   -0.6674    0.0000 C   0  0  0  0  0  0  0  0  0  0  0  0
   -3.5724   -0.8250    0.0000 C   0  0  0  0  0  0  0  0  0  0  0  0
    1.2696    0.0000    0.0000 C   0  0  0  0  0  0  0  0  0  0  0  0
   -7.1447    3.7125    0.0000 C   0  0  0  0  0  0  0  0  0  0  0  0
   -5.7158    3.7125    0.0000 C   0  0  0  0  0  0  0  0  0  0  0  0
   -7.1447    4.5375    0.0000 C   0  0  0  0  0  0  0  0  0  0  0  0
   -5.7158    4.5375    0.0000 C   0  0  0  0  0  0  0  0  0  0  0  0
   -6.4302    4.9500    0.0000 C   0  0  0  0  0  0  0  0  0  0  0  0
  1  2  2  0  0  0  0
  1  3  2  0  0  0  0
  1 10  1  0  0  0  0
  1 11  1  0  0  0  0
  4 12  1  0  0  0  0
  4 25  1  0  0  0  0
  5 24  2  0  0  0  0
  6 17  1  0  0  0  0
  6 22  1  0  0  0  0
  6 28  1  0  0  0  0
  7 17  1  0  0  0  0
  7 27  2  0  0  0  0
  8 17  2  0  0  0  0
  8 30  1  0  0  0  0
  9 24  1  0  0  0  0
  9 29  1  0  0  0  0
 10 12  1  0  0  0  0
 10 13  2  0  0  0  0
 11 14  2  0  0  0  0
 11 15  1  0  0  0  0
 12 16  2  0  0  0  0
 13 23  1  0  0  0  0
 14 20  1  0  0  0  0
 15 21  2  0  0  0  0
 16 26  1  0  0  0  0
 18 20  2  0  0  0  0
 18 21  1  0  0  0  0
 18 29  1  0  0  0  0
 19 22  2  0  0  0  0
 19 24  1  0  0  0  0
 19 27  1  0  0  0  0
 23 26  2  0  0  0  0
 25 31  2  0  0  0  0
 25 32  1  0  0  0  0
 28 30  2  0  0  0  0
 31 33  1  0  0  0  0
 32 34  2  0  0  0  0
 33 35  2  0  0  0  0
 34 35  1  0  0  0  0
M  END
> <PUBCHEM_COMPOUND_ID_TYPE>
0

> <PUBCHEM_TOTAL_CHARGE>
0

> <PUBCHEM_SUBSTANCE_ID>
310930720

> <PUBCHEM_SUBSTANCE_VERSION>
1

> <PUBCHEM_EXT_DATASOURCE_NAME>
4488

> <PUBCHEM_EXT_DATASOURCE_REGID>
SCHEMBL16108017

> <PUBCHEM_SUBSTANCE_COMMENT>
InChI=1S/C26H20N4O4S/c31-25(20-17-29-26-27-14-15-30(26)18-20)28-16-19-10-12-22(13-11-19)35(32,33)24-9-5-4-8-23(24)34-21-6-2-1-3-7-21/h1-15,17-18H,16H2,(H,28,31)
InChIKey=XMHQXFYIAFCDPL-UHFFFAOYSA-N

> <PUBCHEM_SUBSTANCE_SYNONYM>
SCHEMBL16108017

> <PUBCHEM_XREF_EXT_ID>
SCHEMBL16108017

> <PUBCHEM_EXT_DATASOURCE_URL>
https://www.surechembl.org/

> <PUBCHEM_EXT_SUBSTANCE_URL>
https://www.surechembl.org/chemical/SCHEMBL16108017

> <PUBCHEM_CID_ASSOCIATIONS>
117599752  1

> <PUBCHEM_COORDINATE_TYPE>
1
3

$$$$
