310949850
  -OEChem-07211613022D

 29 32  0     1  0  0  0  0  0999 V2000
    1.7383    2.3704    0.0000 Cl  0  0  0  0  0  0  0  0  0  0  0  0
    2.7964    2.2330    0.0000 F   0  0  0  0  0  0  0  0  0  0  0  0
    3.8820    1.9170    0.0000 F   0  0  0  0  0  0  0  0  0  0  0  0
    3.5385    0.8314    0.0000 F   0  0  0  0  0  0  0  0  0  0  0  0
   -1.1474    2.3704    0.0000 O   0  0  0  0  0  0  0  0  0  0  0  0
   -1.8620    0.2954    0.0000 N   0  0  0  0  0  0  0  0  0  0  0  0
   -0.4328    1.1199    0.0000 N   0  0  0  0  0  0  0  0  0  0  0  0
   -2.6590    1.3810    0.0000 N   0  0  0  0  0  0  0  0  0  0  0  0
   -3.1399    0.7077    0.0000 N   0  0  0  0  0  0  0  0  0  0  0  0
   -2.2879   -1.3673    0.0000 N   0  0  0  0  0  0  0  0  0  0  0  0
   -2.4941   -2.1643    0.0000 N   0  0  0  0  0  0  0  0  0  0  0  0
   -1.8620    1.1337    0.0000 C   0  0  0  0  0  0  0  0  0  0  0  0
   -1.1474    1.5184    0.0000 C   0  0  0  0  0  0  0  0  0  0  0  0
   -2.6452    0.0481    0.0000 C   0  0  0  0  0  0  0  0  0  0  0  0
   -0.4466    0.2954    0.0000 C   0  0  3  0  0  0  0  0  0  0  0  0
   -1.1337   -0.1168    0.0000 C   0  0  0  0  0  0  0  0  0  0  0  0
   -2.8926   -0.7764    0.0000 C   0  0  0  0  0  0  0  0  0  0  0  0
    0.2817    1.5459    0.0000 C   0  0  0  0  0  0  0  0  0  0  0  0
    1.0100    1.1337    0.0000 C   0  0  0  0  0  0  0  0  0  0  0  0
    1.7246    1.5459    0.0000 C   0  0  0  0  0  0  0  0  0  0  0  0
    2.4528    1.1337    0.0000 C   0  0  0  0  0  0  0  0  0  0  0  0
    3.1674    1.5321    0.0000 C   0  0  0  0  0  0  0  0  0  0  0  0
    1.0237    0.2954    0.0000 C   0  0  0  0  0  0  0  0  0  0  0  0
   -3.6621   -0.9825    0.0000 C   0  0  0  0  0  0  0  0  0  0  0  0
    2.4392    0.2954    0.0000 C   0  0  0  0  0  0  0  0  0  0  0  0
    0.2954   -0.1168    0.0000 C   0  0  0  0  0  0  0  0  0  0  0  0
    1.7383   -0.1168    0.0000 C   0  0  0  0  0  0  0  0  0  0  0  0
   -3.8820   -1.8070    0.0000 C   0  0  0  0  0  0  0  0  0  0  0  0
   -3.3048   -2.3704    0.0000 C   0  0  0  0  0  0  0  0  0  0  0  0
  1 20  1  0  0  0  0
  2 22  1  0  0  0  0
  3 22  1  0  0  0  0
  4 22  1  0  0  0  0
  5 13  2  0  0  0  0
  6 12  1  0  0  0  0
  6 14  1  0  0  0  0
  6 16  1  0  0  0  0
  7 13  1  0  0  0  0
  7 15  1  0  0  0  0
  7 18  1  0  0  0  0
  8  9  1  0  0  0  0
  8 12  2  0  0  0  0
  9 14  2  0  0  0  0
 10 11  1  0  0  0  0
 10 17  1  0  0  0  0
 11 29  1  0  0  0  0
 12 13  1  0  0  0  0
 14 17  1  0  0  0  0
 15 16  1  0  0  0  0
 15 26  1  1  0  0  0
 17 24  2  0  0  0  0
 18 19  1  0  0  0  0
 19 20  1  0  0  0  0
 19 23  2  0  0  0  0
 20 21  2  0  0  0  0
 21 22  1  0  0  0  0
 21 25  1  0  0  0  0
 23 27  1  0  0  0  0
 24 28  1  0  0  0  0
 25 27  2  0  0  0  0
 28 29  2  0  0  0  0
M  END
> <PUBCHEM_COMPOUND_ID_TYPE>
0

> <PUBCHEM_TOTAL_CHARGE>
0

> <PUBCHEM_SUBSTANCE_ID>
310949850

> <PUBCHEM_SUBSTANCE_VERSION>
1

> <PUBCHEM_EXT_DATASOURCE_NAME>
4488

> <PUBCHEM_EXT_DATASOURCE_REGID>
SCHEMBL16128054

> <PUBCHEM_SUBSTANCE_COMMENT>
InChI=1S/C18H16ClF3N6O/c1-10-8-28-15(13-6-3-7-23-24-13)25-26-16(28)17(29)27(10)9-11-4-2-5-12(14(11)19)18(20,21)22/h2-7,10,23-24H,8-9H2,1H3/t10-/m0/s1
InChIKey=LMZITRMBEPVGKC-JTQLQIEISA-N

> <PUBCHEM_SUBSTANCE_SYNONYM>
SCHEMBL16128054

> <PUBCHEM_XREF_EXT_ID>
SCHEMBL16128054

> <PUBCHEM_EXT_DATASOURCE_URL>
https://www.surechembl.org/

> <PUBCHEM_EXT_SUBSTANCE_URL>
https://www.surechembl.org/chemical/SCHEMBL16128054

> <PUBCHEM_CID_ASSOCIATIONS>
117615156  1

> <PUBCHEM_COORDINATE_TYPE>
1
3

> <PUBCHEM_BONDANNOTATIONS>
15  26  5

$$$$
