310937488
  -OEChem-07211613022D

 25 28  0     0  0  0  0  0  0999 V2000
    0.0000   -8.2806    0.0000 O   0  0  0  0  0  0  0  0  0  0  0  0
    2.2358   -5.5480    0.0000 N   0  0  0  0  0  0  0  0  0  0  0  0
    3.2708   -2.3600    0.0000 N   0  0  0  0  0  0  0  0  0  0  0  0
    2.1944   -3.3536    0.0000 N   0  0  0  0  0  0  0  0  0  0  0  0
    3.7676   -0.7866    0.0000 N   0  0  0  0  0  0  0  0  0  0  0  0
    1.4491   -8.2806    0.0000 N   0  0  0  0  0  0  0  0  0  0  0  0
    1.4491   -5.7964    0.0000 C   0  0  0  0  0  0  0  0  0  0  0  0
    1.4491   -6.6245    0.0000 C   0  0  0  0  0  0  0  0  0  0  0  0
    2.4842   -4.7613    0.0000 C   0  0  0  0  0  0  0  0  0  0  0  0
    0.7039   -7.0385    0.0000 C   0  0  0  0  0  0  0  0  0  0  0  0
    2.6912   -6.2105    0.0000 C   0  0  0  0  0  0  0  0  0  0  0  0
    2.2358   -6.8729    0.0000 C   0  0  0  0  0  0  0  0  0  0  0  0
    0.7039   -5.3824    0.0000 C   0  0  0  0  0  0  0  0  0  0  0  0
    3.0224   -3.1466    0.0000 C   0  0  0  0  0  0  0  0  0  0  0  0
    1.9459   -4.0989    0.0000 C   0  0  0  0  0  0  0  0  0  0  0  0
    3.3122   -4.5543    0.0000 C   0  0  0  0  0  0  0  0  0  0  0  0
    0.0000   -6.6245    0.0000 C   0  0  0  0  0  0  0  0  0  0  0  0
    0.7039   -7.8666    0.0000 C   0  0  0  0  0  0  0  0  0  0  0  0
    0.0000   -5.7964    0.0000 C   0  0  0  0  0  0  0  0  0  0  0  0
    3.5607   -3.7676    0.0000 C   0  0  0  0  0  0  0  0  0  0  0  0
    4.0575   -2.1944    0.0000 C   0  0  0  0  0  0  0  0  0  0  0  0
    2.7326   -1.7390    0.0000 C   0  0  0  0  0  0  0  0  0  0  0  0
    2.9810   -0.9523    0.0000 C   0  0  0  0  0  0  0  0  0  0  0  0
    4.3473   -1.4077    0.0000 C   0  0  0  0  0  0  0  0  0  0  0  0
    4.0161    0.0000    0.0000 C   0  0  0  0  0  0  0  0  0  0  0  0
  1 18  2  0  0  0  0
  2  7  1  0  0  0  0
  2  9  1  0  0  0  0
  2 11  1  0  0  0  0
  3 14  1  0  0  0  0
  3 21  1  0  0  0  0
  3 22  1  0  0  0  0
  4 14  2  0  0  0  0
  4 15  1  0  0  0  0
  5 23  1  0  0  0  0
  5 24  1  0  0  0  0
  5 25  1  0  0  0  0
  6 18  1  0  0  0  0
  7  8  2  0  0  0  0
  7 13  1  0  0  0  0
  8 10  1  0  0  0  0
  8 12  1  0  0  0  0
  9 15  2  0  0  0  0
  9 16  1  0  0  0  0
 10 17  2  0  0  0  0
 10 18  1  0  0  0  0
 11 12  1  0  0  0  0
 13 19  2  0  0  0  0
 14 20  1  0  0  0  0
 16 20  2  0  0  0  0
 17 19  1  0  0  0  0
 21 24  1  0  0  0  0
 22 23  1  0  0  0  0
M  END
> <PUBCHEM_COMPOUND_ID_TYPE>
0

> <PUBCHEM_TOTAL_CHARGE>
0

> <PUBCHEM_SUBSTANCE_ID>
310937488

> <PUBCHEM_SUBSTANCE_VERSION>
1

> <PUBCHEM_EXT_DATASOURCE_NAME>
4488

> <PUBCHEM_EXT_DATASOURCE_REGID>
SCHEMBL16115258

> <PUBCHEM_SUBSTANCE_COMMENT>
InChI=1S/C19H23N5O/c1-22-9-11-23(12-10-22)18-6-5-14(13-21-18)24-8-7-15-16(19(20)25)3-2-4-17(15)24/h2-6,13H,7-12H2,1H3,(H2,20,25)
InChIKey=XSTVDLURMBTTOP-UHFFFAOYSA-N

> <PUBCHEM_SUBSTANCE_SYNONYM>
SCHEMBL16115258

> <PUBCHEM_XREF_EXT_ID>
SCHEMBL16115258

> <PUBCHEM_EXT_DATASOURCE_URL>
https://www.surechembl.org/

> <PUBCHEM_EXT_SUBSTANCE_URL>
https://www.surechembl.org/chemical/SCHEMBL16115258

> <PUBCHEM_CID_ASSOCIATIONS>
117605227  1

> <PUBCHEM_COORDINATE_TYPE>
1
3

$$$$
