310938988
  -OEChem-07211613022D

 28 32  0     0  0  0  0  0  0999 V2000
    1.5020  -12.4638    0.0000 F   0  0  0  0  0  0  0  0  0  0  0  0
   -1.0454  -11.0819    0.0000 O   0  0  0  0  0  0  0  0  0  0  0  0
   -0.9730  -12.4638    0.0000 N   0  0  0  0  0  0  0  0  0  0  0  0
    2.8791  -17.3637    0.0000 N   0  0  0  0  0  0  0  0  0  0  0  0
   -2.2425  -12.0513    0.0000 C   0  0  0  0  0  0  0  0  0  0  0  0
   -1.4579  -11.7963    0.0000 C   0  0  0  0  0  0  0  0  0  0  0  0
   -2.2425  -12.8763    0.0000 C   0  0  0  0  0  0  0  0  0  0  0  0
    1.5020  -15.3217    0.0000 C   0  0  0  0  0  0  0  0  0  0  0  0
   -1.4579  -13.1312    0.0000 C   0  0  0  0  0  0  0  0  0  0  0  0
    0.2645  -13.1783    0.0000 C   0  0  0  0  0  0  0  0  0  0  0  0
    1.0895  -14.6072    0.0000 C   0  0  0  0  0  0  0  0  0  0  0  0
    2.7395  -16.0361    0.0000 C   0  0  0  0  0  0  0  0  0  0  0  0
    2.3270  -16.7506    0.0000 C   0  0  0  0  0  0  0  0  0  0  0  0
   -0.1480  -12.4638    0.0000 C   0  0  0  0  0  0  0  0  0  0  0  0
    1.0895  -13.1783    0.0000 C   0  0  0  0  0  0  0  0  0  0  0  0
    2.3270  -15.3217    0.0000 C   0  0  0  0  0  0  0  0  0  0  0  0
    1.5020  -13.8927    0.0000 C   0  0  0  0  0  0  0  0  0  0  0  0
   -2.9570  -11.6388    0.0000 C   0  0  0  0  0  0  0  0  0  0  0  0
    1.0895  -16.0361    0.0000 C   0  0  0  0  0  0  0  0  0  0  0  0
   -0.1480  -13.8927    0.0000 C   0  0  0  0  0  0  0  0  0  0  0  0
    0.2645  -14.6072    0.0000 C   0  0  0  0  0  0  0  0  0  0  0  0
    1.5020  -16.7506    0.0000 C   0  0  0  0  0  0  0  0  0  0  0  0
   -2.9570  -13.2888    0.0000 C   0  0  0  0  0  0  0  0  0  0  0  0
    3.5465  -16.2077    0.0000 C   0  0  0  0  0  0  0  0  0  0  0  0
    3.6328  -17.0281    0.0000 C   0  0  0  0  0  0  0  0  0  0  0  0
   -3.6714  -12.0513    0.0000 C   0  0  0  0  0  0  0  0  0  0  0  0
   -3.6714  -12.8763    0.0000 C   0  0  0  0  0  0  0  0  0  0  0  0
    2.4666  -18.0782    0.0000 C   0  0  0  0  0  0  0  0  0  0  0  0
  1 15  1  0  0  0  0
  2  6  2  0  0  0  0
  3  6  1  0  0  0  0
  3  9  1  0  0  0  0
  3 14  1  0  0  0  0
  4 13  1  0  0  0  0
  4 25  1  0  0  0  0
  4 28  1  0  0  0  0
  5  6  1  0  0  0  0
  5  7  1  0  0  0  0
  5 18  2  0  0  0  0
  7  9  1  0  0  0  0
  7 23  2  0  0  0  0
  8 11  1  0  0  0  0
  8 16  1  0  0  0  0
  8 19  2  0  0  0  0
 10 14  1  0  0  0  0
 10 15  1  0  0  0  0
 10 20  2  0  0  0  0
 11 17  1  0  0  0  0
 11 21  2  0  0  0  0
 12 13  1  0  0  0  0
 12 16  2  0  0  0  0
 12 24  1  0  0  0  0
 13 22  2  0  0  0  0
 15 17  2  0  0  0  0
 18 26  1  0  0  0  0
 19 22  1  0  0  0  0
 20 21  1  0  0  0  0
 23 27  1  0  0  0  0
 24 25  2  0  0  0  0
 26 27  2  0  0  0  0
M  END
> <PUBCHEM_COMPOUND_ID_TYPE>
0

> <PUBCHEM_TOTAL_CHARGE>
0

> <PUBCHEM_SUBSTANCE_ID>
310938988

> <PUBCHEM_SUBSTANCE_VERSION>
1

> <PUBCHEM_EXT_DATASOURCE_NAME>
4488

> <PUBCHEM_EXT_DATASOURCE_REGID>
SCHEMBL16116907

> <PUBCHEM_SUBSTANCE_COMMENT>
InChI=1S/C24H19FN2O/c1-26-11-10-18-12-16(8-9-23(18)26)17-6-7-20(22(25)13-17)15-27-14-19-4-2-3-5-21(19)24(27)28/h2-13H,14-15H2,1H3
InChIKey=XMJHYDYJYOFQGT-UHFFFAOYSA-N

> <PUBCHEM_SUBSTANCE_SYNONYM>
SCHEMBL16116907

> <PUBCHEM_XREF_EXT_ID>
SCHEMBL16116907

> <PUBCHEM_EXT_DATASOURCE_URL>
https://www.surechembl.org/

> <PUBCHEM_EXT_SUBSTANCE_URL>
https://www.surechembl.org/chemical/SCHEMBL16116907

> <PUBCHEM_CID_ASSOCIATIONS>
117606372  1

> <PUBCHEM_COORDINATE_TYPE>
1
3

$$$$
