310947102
  -OEChem-07211613022D

 27 30  0     1  0  0  0  0  0999 V2000
    3.0975    0.7053    0.0000 P   0  0  3  0  0  0  0  0  0  0  0  0
    1.0498    0.4010    0.0000 F   0  0  0  0  0  0  0  0  0  0  0  0
    1.0498    2.3851    0.0000 O   0  0  0  0  0  0  0  0  0  0  0  0
    1.8748    0.4010    0.0000 O   0  0  0  0  0  0  0  0  0  0  0  0
    3.0975    1.5303    0.0000 O   0  0  0  0  0  0  0  0  0  0  0  0
    3.9225    0.7053    0.0000 O   0  0  0  0  0  0  0  0  0  0  0  0
   -2.9071    3.3063    0.0000 O   0  0  0  0  0  0  0  0  0  0  0  0
   -0.3321    2.3126    0.0000 N   0  0  0  0  0  0  0  0  0  0  0  0
   -1.1168    3.3926    0.0000 N   0  0  0  0  0  0  0  0  0  0  0  0
   -1.4523    1.3040    0.0000 N   0  0  0  0  0  0  0  0  0  0  0  0
   -2.7577    1.8852    0.0000 N   0  0  0  0  0  0  0  0  0  0  0  0
   -2.6084    0.4641    0.0000 N   0  0  0  0  0  0  0  0  0  0  0  0
    0.6373    1.1155    0.0000 C   0  0  3  0  0  0  0  0  0  0  0  0
    0.3823    1.9001    0.0000 C   0  0  3  0  0  0  0  0  0  0  0  0
    1.4623    1.1155    0.0000 C   0  0  3  0  0  0  0  0  0  0  0  0
    1.7172    1.9001    0.0000 C   0  0  3  0  0  0  0  0  0  0  0  0
   -1.1168    2.0577    0.0000 C   0  0  3  0  0  0  0  0  0  0  0  0
   -1.6017    2.7251    0.0000 C   0  0  3  0  0  0  0  0  0  0  0  0
    2.5141    2.1137    0.0000 C   0  0  0  0  0  0  0  0  0  0  0  0
   -0.3321    3.1376    0.0000 C   0  0  0  0  0  0  0  0  0  0  0  0
    0.2248    0.4010    0.0000 C   0  0  0  0  0  0  0  0  0  0  0  0
   -2.4222    2.6389    0.0000 C   0  0  0  0  0  0  0  0  0  0  0  0
    3.3110   -0.0916    0.0000 C   0  0  0  0  0  0  0  0  0  0  0  0
   -2.2728    1.2178    0.0000 C   0  0  0  0  0  0  0  0  0  0  0  0
    4.1079    0.1219    0.0000 C   0  0  0  0  0  0  0  0  0  0  0  0
    2.5141   -0.3051    0.0000 C   0  0  0  0  0  0  0  0  0  0  0  0
   -3.7276    3.2201    0.0000 C   0  0  0  0  0  0  0  0  0  0  0  0
  1  4  1  0  0  0  0
  1  5  1  0  0  0  0
  1  6  2  0  0  0  0
  1 23  1  0  0  0  0
 13  2  1  1  0  0  0
  3 14  1  0  0  0  0
 16  3  1  6  0  0  0
 15  4  1  1  0  0  0
  5 19  1  0  0  0  0
  7 22  1  0  0  0  0
  7 27  1  0  0  0  0
  8 14  1  0  0  0  0
  8 17  1  0  0  0  0
  8 20  1  0  0  0  0
  9 18  1  0  0  0  0
  9 20  2  0  0  0  0
 10 17  1  0  0  0  0
 10 24  2  0  0  0  0
 11 22  2  0  0  0  0
 11 24  1  0  0  0  0
 12 24  1  0  0  0  0
 13 14  1  0  0  0  0
 13 15  1  0  0  0  0
 13 21  1  6  0  0  0
 15 16  1  0  0  0  0
 16 19  1  0  0  0  0
 17 18  1  0  0  0  0
 18 22  1  0  0  0  0
 23 25  1  0  0  0  0
 23 26  1  0  0  0  0
M  END
> <PUBCHEM_COMPOUND_ID_TYPE>
0

> <PUBCHEM_TOTAL_CHARGE>
0

> <PUBCHEM_SUBSTANCE_ID>
310947102

> <PUBCHEM_SUBSTANCE_VERSION>
1

> <PUBCHEM_EXT_DATASOURCE_NAME>
4488

> <PUBCHEM_EXT_DATASOURCE_REGID>
SCHEMBL16125256

> <PUBCHEM_SUBSTANCE_COMMENT>
InChI=1S/C15H23FN5O5P/c1-7(2)27(22)24-5-8-10(26-27)15(3,16)13(25-8)21-6-18-9-11(21)19-14(17)20-12(9)23-4/h6-11,13H,5H2,1-4H3,(H2,17,19)/t8-,9?,10-,11?,13?,15-,27?/m1/s1
InChIKey=FOGKDHCRQRTRTO-HDMJSWGKSA-N

> <PUBCHEM_SUBSTANCE_SYNONYM>
SCHEMBL16125256

> <PUBCHEM_XREF_EXT_ID>
SCHEMBL16125256

> <PUBCHEM_EXT_DATASOURCE_URL>
https://www.surechembl.org/

> <PUBCHEM_EXT_SUBSTANCE_URL>
https://www.surechembl.org/chemical/SCHEMBL16125256

> <PUBCHEM_CID_ASSOCIATIONS>
117612954  1

> <PUBCHEM_COORDINATE_TYPE>
1
3

> <PUBCHEM_BONDANNOTATIONS>
13  21  6
13  2  5
23  25  3
23  26  3
16  3  6
15  4  5

$$$$
