310948266
  -OEChem-07211613022D

 33 36  0     1  0  0  0  0  0999 V2000
    2.8381   -4.1607    0.0000 F   0  0  0  0  0  0  0  0  0  0  0  0
    3.3525   -3.0953    0.0000 F   0  0  0  0  0  0  0  0  0  0  0  0
    1.8462   -3.5913    0.0000 F   0  0  0  0  0  0  0  0  0  0  0  0
   -2.6360   -2.0483    0.0000 O   0  0  0  0  0  0  0  0  0  0  0  0
    2.3238   -2.5810    0.0000 O   0  0  0  0  0  0  0  0  0  0  0  0
   -1.1297    0.2664    0.0000 N   0  0  0  0  0  0  0  0  0  0  0  0
   -0.6521   -0.3950    0.0000 N   0  0  0  0  0  0  0  0  0  0  0  0
   -0.8909   -1.8462    0.0000 N   0  0  0  0  0  0  0  0  0  0  0  0
   -3.3525   -0.8175    0.0000 N   0  0  0  0  0  0  0  0  0  0  0  0
   -0.1561    3.4260    0.0000 N   0  0  0  0  0  0  0  0  0  0  0  0
    1.0011    0.0092    0.0000 N   0  0  0  0  0  0  0  0  0  0  0  0
   -1.9380   -0.7991    0.0000 C   0  0  0  0  0  0  0  0  0  0  0  0
   -1.9013    0.0275    0.0000 C   0  0  0  0  0  0  0  0  0  0  0  0
   -1.1481   -1.0563    0.0000 C   0  0  0  0  0  0  0  0  0  0  0  0
   -0.8909    1.0747    0.0000 C   0  0  3  0  0  0  0  0  0  0  0  0
   -2.6360   -1.2032    0.0000 C   0  0  0  0  0  0  0  0  0  0  0  0
   -2.6360    0.4317    0.0000 C   0  0  0  0  0  0  0  0  0  0  0  0
   -0.0827    1.2399    0.0000 C   0  0  3  0  0  0  0  0  0  0  0  0
   -1.4236    1.6624    0.0000 C   0  0  0  0  0  0  0  0  0  0  0  0
   -3.3157    0.0275    0.0000 C   0  0  0  0  0  0  0  0  0  0  0  0
   -0.0827   -2.0115    0.0000 C   0  0  0  0  0  0  0  0  0  0  0  0
    0.1561    2.0299    0.0000 C   0  0  0  0  0  0  0  0  0  0  0  0
   -0.3766    2.6177    0.0000 C   0  0  3  0  0  0  0  0  0  0  0  0
   -1.1665    2.4524    0.0000 C   0  0  0  0  0  0  0  0  0  0  0  0
    0.4684    0.6154    0.0000 C   0  0  0  0  0  0  0  0  0  0  0  0
    0.1745   -2.8014    0.0000 C   0  0  0  0  0  0  0  0  0  0  0  0
    0.4684   -1.4236    0.0000 C   0  0  0  0  0  0  0  0  0  0  0  0
    1.5155   -2.3421    0.0000 C   0  0  0  0  0  0  0  0  0  0  0  0
    0.9828   -2.9667    0.0000 C   0  0  0  0  0  0  0  0  0  0  0  0
    1.2767   -1.5890    0.0000 C   0  0  0  0  0  0  0  0  0  0  0  0
    2.5810   -3.3709    0.0000 C   0  0  0  0  0  0  0  0  0  0  0  0
   -0.5602    4.1607    0.0000 C   0  0  0  0  0  0  0  0  0  0  0  0
    0.5786    3.8301    0.0000 C   0  0  0  0  0  0  0  0  0  0  0  0
  1 31  1  0  0  0  0
  2 31  1  0  0  0  0
  3 31  1  0  0  0  0
  4 16  2  0  0  0  0
  5 28  1  0  0  0  0
  5 31  1  0  0  0  0
  6  7  1  0  0  0  0
  6 13  1  0  0  0  0
 15  6  1  1  0  0  0
  7 14  2  0  0  0  0
  8 14  1  0  0  0  0
  8 21  1  0  0  0  0
  9 16  1  0  0  0  0
  9 20  1  0  0  0  0
 23 10  1  6  0  0  0
 10 32  1  0  0  0  0
 10 33  1  0  0  0  0
 11 25  3  0  0  0  0
 12 13  2  0  0  0  0
 12 14  1  0  0  0  0
 12 16  1  0  0  0  0
 13 17  1  0  0  0  0
 15 18  1  0  0  0  0
 15 19  1  0  0  0  0
 17 20  2  0  0  0  0
 18 22  1  0  0  0  0
 18 25  1  6  0  0  0
 19 24  1  0  0  0  0
 21 26  2  0  0  0  0
 21 27  1  0  0  0  0
 22 23  1  0  0  0  0
 23 24  1  0  0  0  0
 26 29  1  0  0  0  0
 27 30  2  0  0  0  0
 28 29  2  0  0  0  0
 28 30  1  0  0  0  0
M  END
> <PUBCHEM_COMPOUND_ID_TYPE>
0

> <PUBCHEM_TOTAL_CHARGE>
0

> <PUBCHEM_SUBSTANCE_ID>
310948266

> <PUBCHEM_SUBSTANCE_VERSION>
1

> <PUBCHEM_EXT_DATASOURCE_NAME>
4488

> <PUBCHEM_EXT_DATASOURCE_REGID>
SCHEMBL16126443

> <PUBCHEM_SUBSTANCE_COMMENT>
InChI=1S/C22H23F3N6O2/c1-30(2)15-5-8-17(13(11-15)12-26)31-18-9-10-27-21(32)19(18)20(29-31)28-14-3-6-16(7-4-14)33-22(23,24)25/h3-4,6-7,9-10,13,15,17H,5,8,11H2,1-2H3,(H,27,32)(H,28,29)/t13-,15+,17+/m1/s1
InChIKey=DVDMZCZPPOQSLM-KMFMINBZSA-N

> <PUBCHEM_SUBSTANCE_SYNONYM>
SCHEMBL16126443

> <PUBCHEM_XREF_EXT_ID>
SCHEMBL16126443

> <PUBCHEM_EXT_DATASOURCE_URL>
https://www.surechembl.org/

> <PUBCHEM_EXT_SUBSTANCE_URL>
https://www.surechembl.org/chemical/SCHEMBL16126443

> <PUBCHEM_CID_ASSOCIATIONS>
117613846  1

> <PUBCHEM_COORDINATE_TYPE>
1
3

> <PUBCHEM_BONDANNOTATIONS>
23  10  6
18  25  6
15  6  5

$$$$
