310934513
  -OEChem-07211613022D

 31 34  0     0  0  0  0  0  0999 V2000
    0.9134   -0.2342    0.0000 O   0  0  0  0  0  0  0  0  0  0  0  0
    0.0000   -3.9344    0.0000 O   0  0  0  0  0  0  0  0  0  0  0  0
    3.4426   -4.2154    0.0000 O   0  0  0  0  0  0  0  0  0  0  0  0
    2.7635   -1.2646    0.0000 N   0  0  0  0  0  0  0  0  0  0  0  0
    2.3653    0.0000    0.0000 N   0  0  0  0  0  0  0  0  0  0  0  0
    3.8173   -0.2342    0.0000 N   0  0  0  0  0  0  0  0  0  0  0  0
    5.7143   -1.6862    0.0000 N   0  0  0  0  0  0  0  0  0  0  0  0
    1.9438   -1.2646    0.0000 C   0  0  0  0  0  0  0  0  0  0  0  0
    1.7096   -0.4918    0.0000 C   0  0  0  0  0  0  0  0  0  0  0  0
    1.4754   -1.9438    0.0000 C   0  0  0  0  0  0  0  0  0  0  0  0
    2.3185   -2.0140    0.0000 C   0  0  0  0  0  0  0  0  0  0  0  0
    3.0210   -0.4918    0.0000 C   0  0  0  0  0  0  0  0  0  0  0  0
    3.2552   -1.9438    0.0000 C   0  0  0  0  0  0  0  0  0  0  0  0
    1.8032   -2.6932    0.0000 C   0  0  0  0  0  0  0  0  0  0  0  0
    3.1616   -2.0609    0.0000 C   0  0  0  0  0  0  0  0  0  0  0  0
    0.6557   -1.8501    0.0000 C   0  0  0  0  0  0  0  0  0  0  0  0
    2.0374   -2.8571    0.0000 C   0  0  0  0  0  0  0  0  0  0  0  0
    4.0749   -1.8501    0.0000 C   0  0  0  0  0  0  0  0  0  0  0  0
    1.3115   -3.3723    0.0000 C   0  0  0  0  0  0  0  0  0  0  0  0
    3.5128   -2.7869    0.0000 C   0  0  0  0  0  0  0  0  0  0  0  0
    0.1639   -2.5293    0.0000 C   0  0  0  0  0  0  0  0  0  0  0  0
    2.2482   -3.4192    0.0000 C   0  0  0  0  0  0  0  0  0  0  0  0
    0.4918   -3.2786    0.0000 C   0  0  0  0  0  0  0  0  0  0  0  0
    3.0679   -3.4894    0.0000 C   0  0  0  0  0  0  0  0  0  0  0  0
    4.5667   -2.5293    0.0000 C   0  0  0  0  0  0  0  0  0  0  0  0
    4.4028   -1.1007    0.0000 C   0  0  0  0  0  0  0  0  0  0  0  0
    5.3864   -2.4590    0.0000 C   0  0  0  0  0  0  0  0  0  0  0  0
    5.2224   -1.0304    0.0000 C   0  0  0  0  0  0  0  0  0  0  0  0
    0.3278   -4.6838    0.0000 C   0  0  0  0  0  0  0  0  0  0  0  0
    4.2623   -4.2623    0.0000 C   0  0  0  0  0  0  0  0  0  0  0  0
    6.5105   -1.5925    0.0000 C   0  0  0  0  0  0  0  0  0  0  0  0
  1  9  2  0  0  0  0
  2 23  1  0  0  0  0
  2 29  1  0  0  0  0
  3 24  1  0  0  0  0
  3 30  1  0  0  0  0
  4  8  1  0  0  0  0
  4 12  1  0  0  0  0
  4 13  1  0  0  0  0
  5  9  1  0  0  0  0
  5 12  1  0  0  0  0
  6 12  2  3  0  0  0
  7 27  1  0  0  0  0
  7 28  1  0  0  0  0
  7 31  1  0  0  0  0
  8  9  1  0  0  0  0
  8 10  1  0  0  0  0
  8 11  1  0  0  0  0
 10 14  2  0  0  0  0
 10 16  1  0  0  0  0
 11 15  2  0  0  0  0
 11 17  1  0  0  0  0
 13 18  1  0  0  0  0
 14 19  1  0  0  0  0
 15 20  1  0  0  0  0
 16 21  2  0  0  0  0
 17 22  2  0  0  0  0
 18 25  1  0  0  0  0
 18 26  1  0  0  0  0
 19 23  2  0  0  0  0
 20 24  2  0  0  0  0
 21 23  1  0  0  0  0
 22 24  1  0  0  0  0
 25 27  1  0  0  0  0
 26 28  1  0  0  0  0
M  END
> <PUBCHEM_COMPOUND_ID_TYPE>
0

> <PUBCHEM_TOTAL_CHARGE>
0

> <PUBCHEM_SUBSTANCE_ID>
310934513

> <PUBCHEM_SUBSTANCE_VERSION>
1

> <PUBCHEM_EXT_DATASOURCE_NAME>
4488

> <PUBCHEM_EXT_DATASOURCE_REGID>
SCHEMBL16111998

> <PUBCHEM_SUBSTANCE_COMMENT>
InChI=1S/C24H30N4O3/c1-27-14-12-17(13-15-27)16-28-23(25)26-22(29)24(28,18-4-8-20(30-2)9-5-18)19-6-10-21(31-3)11-7-19/h4-11,17H,12-16H2,1-3H3,(H2,25,26,29)
InChIKey=QKKMUZIOLOMEKQ-UHFFFAOYSA-N

> <PUBCHEM_SUBSTANCE_SYNONYM>
SCHEMBL16111998

> <PUBCHEM_XREF_EXT_ID>
SCHEMBL16111998

> <PUBCHEM_EXT_DATASOURCE_URL>
https://www.surechembl.org/

> <PUBCHEM_EXT_SUBSTANCE_URL>
https://www.surechembl.org/chemical/SCHEMBL16111998

> <PUBCHEM_CID_ASSOCIATIONS>
117602711  1

> <PUBCHEM_COORDINATE_TYPE>
1
3

$$$$
