310930589
  -OEChem-07211613022D

 27 30  0     0  0  0  0  0  0999 V2000
    5.3293    3.0943    0.0000 S   0  0  0  0  0  0  0  0  0  0  0  0
    5.5008    2.2874    0.0000 O   0  0  0  0  0  0  0  0  0  0  0  0
    5.1578    3.9013    0.0000 O   0  0  0  0  0  0  0  0  0  0  0  0
    0.4875    2.0651    0.0000 O   0  0  0  0  0  0  0  0  0  0  0  0
    0.0000    0.4125    0.0000 N   0  0  0  0  0  0  0  0  0  0  0  0
    0.7846    0.6674    0.0000 N   0  0  0  0  0  0  0  0  0  0  0  0
    6.1363    3.2658    0.0000 N   0  0  0  0  0  0  0  0  0  0  0  0
   -0.7846   -0.6674    0.0000 N   0  0  0  0  0  0  0  0  0  0  0  0
    1.8465    1.6236    0.0000 N   0  0  0  0  0  0  0  0  0  0  0  0
    0.0000   -0.4125    0.0000 C   0  0  0  0  0  0  0  0  0  0  0  0
    4.5224    2.9228    0.0000 C   0  0  0  0  0  0  0  0  0  0  0  0
    1.0396    1.4520    0.0000 C   0  0  0  0  0  0  0  0  0  0  0  0
    1.2695    0.0000    0.0000 C   0  0  0  0  0  0  0  0  0  0  0  0
    0.7846   -0.6674    0.0000 C   0  0  0  0  0  0  0  0  0  0  0  0
   -0.7846    0.6674    0.0000 C   0  0  0  0  0  0  0  0  0  0  0  0
    4.2674    2.1381    0.0000 C   0  0  0  0  0  0  0  0  0  0  0  0
    3.9703    3.5359    0.0000 C   0  0  0  0  0  0  0  0  0  0  0  0
    2.9084    2.5797    0.0000 C   0  0  0  0  0  0  0  0  0  0  0  0
   -1.2695    0.0000    0.0000 C   0  0  0  0  0  0  0  0  0  0  0  0
    6.3912    4.0504    0.0000 C   0  0  0  0  0  0  0  0  0  0  0  0
    6.6883    2.6527    0.0000 C   0  0  0  0  0  0  0  0  0  0  0  0
    3.4604    1.9666    0.0000 C   0  0  0  0  0  0  0  0  0  0  0  0
    3.1634    3.3643    0.0000 C   0  0  0  0  0  0  0  0  0  0  0  0
    2.1014    2.4082    0.0000 C   0  0  0  0  0  0  0  0  0  0  0  0
    7.1982    4.2220    0.0000 C   0  0  0  0  0  0  0  0  0  0  0  0
    7.4953    2.8243    0.0000 C   0  0  0  0  0  0  0  0  0  0  0  0
    7.7502    3.6089    0.0000 C   0  0  0  0  0  0  0  0  0  0  0  0
  1  2  2  0  0  0  0
  1  3  2  0  0  0  0
  1  7  1  0  0  0  0
  1 11  1  0  0  0  0
  4 12  2  0  0  0  0
  5  6  1  0  0  0  0
  5 10  1  0  0  0  0
  5 15  1  0  0  0  0
  6 12  1  0  0  0  0
  6 13  1  0  0  0  0
  7 20  1  0  0  0  0
  7 21  1  0  0  0  0
  8 10  1  0  0  0  0
  8 19  1  0  0  0  0
  9 12  1  0  0  0  0
  9 24  1  0  0  0  0
 10 14  2  0  0  0  0
 11 16  2  0  0  0  0
 11 17  1  0  0  0  0
 13 14  1  0  0  0  0
 15 19  2  0  0  0  0
 16 22  1  0  0  0  0
 17 23  2  0  0  0  0
 18 22  2  0  0  0  0
 18 23  1  0  0  0  0
 18 24  1  0  0  0  0
 20 25  1  0  0  0  0
 21 26  1  0  0  0  0
 25 27  1  0  0  0  0
 26 27  1  0  0  0  0
M  END
> <PUBCHEM_COMPOUND_ID_TYPE>
0

> <PUBCHEM_TOTAL_CHARGE>
0

> <PUBCHEM_SUBSTANCE_ID>
310930589

> <PUBCHEM_SUBSTANCE_VERSION>
1

> <PUBCHEM_EXT_DATASOURCE_NAME>
4488

> <PUBCHEM_EXT_DATASOURCE_REGID>
SCHEMBL16107884

> <PUBCHEM_SUBSTANCE_COMMENT>
InChI=1S/C18H23N5O3S/c24-18(23-12-8-17-19-9-13-22(17)23)20-14-15-4-6-16(7-5-15)27(25,26)21-10-2-1-3-11-21/h4-9,13,19H,1-3,10-12,14H2,(H,20,24)
InChIKey=HRMRPEVXEFXDGN-UHFFFAOYSA-N

> <PUBCHEM_SUBSTANCE_SYNONYM>
SCHEMBL16107884

> <PUBCHEM_XREF_EXT_ID>
SCHEMBL16107884

> <PUBCHEM_EXT_DATASOURCE_URL>
https://www.surechembl.org/

> <PUBCHEM_EXT_SUBSTANCE_URL>
https://www.surechembl.org/chemical/SCHEMBL16107884

> <PUBCHEM_CID_ASSOCIATIONS>
66614376  1

> <PUBCHEM_COORDINATE_TYPE>
1
3

$$$$
