310945621
  -OEChem-07211613022D

 28 32  0     0  0  0  0  0  0999 V2000
   -0.3348    3.9394    0.0000 O   0  0  0  0  0  0  0  0  0  0  0  0
   -0.3206   -0.2209    0.0000 N   0  0  0  0  0  0  0  0  0  0  0  0
   -0.3206   -2.7141    0.0000 N   0  0  0  0  0  0  0  0  0  0  0  0
   -0.3206    2.2725    0.0000 N   0  0  0  0  0  0  0  0  0  0  0  0
   -0.3634   -1.0472    0.0000 C   0  0  0  0  0  0  0  0  0  0  0  0
   -1.0757   -1.4461    0.0000 C   0  0  0  0  0  0  0  0  0  0  0  0
   -1.0899   -2.2725    0.0000 C   0  0  0  0  0  0  0  0  0  0  0  0
    0.3491   -2.2867    0.0000 C   0  0  0  0  0  0  0  0  0  0  0  0
    0.3634   -1.4603    0.0000 C   0  0  0  0  0  0  0  0  0  0  0  0
    1.0757   -2.7141    0.0000 C   0  0  0  0  0  0  0  0  0  0  0  0
   -1.8023   -1.0472    0.0000 C   0  0  0  0  0  0  0  0  0  0  0  0
   -1.0757    0.2066    0.0000 C   0  0  0  0  0  0  0  0  0  0  0  0
    0.3491    0.2066    0.0000 C   0  0  0  0  0  0  0  0  0  0  0  0
   -0.3634    1.4603    0.0000 C   0  0  0  0  0  0  0  0  0  0  0  0
   -1.7881   -2.6856    0.0000 C   0  0  0  0  0  0  0  0  0  0  0  0
   -1.0614    1.0472    0.0000 C   0  0  0  0  0  0  0  0  0  0  0  0
    0.3634    1.0329    0.0000 C   0  0  0  0  0  0  0  0  0  0  0  0
   -2.5004   -1.4603    0.0000 C   0  0  0  0  0  0  0  0  0  0  0  0
   -2.5004   -2.2867    0.0000 C   0  0  0  0  0  0  0  0  0  0  0  0
    1.0757   -3.5262    0.0000 C   0  0  0  0  0  0  0  0  0  0  0  0
    1.7881   -2.3009    0.0000 C   0  0  0  0  0  0  0  0  0  0  0  0
    0.3491    2.6998    0.0000 C   0  0  0  0  0  0  0  0  0  0  0  0
   -1.0757    2.6998    0.0000 C   0  0  0  0  0  0  0  0  0  0  0  0
    1.7881   -3.9394    0.0000 C   0  0  0  0  0  0  0  0  0  0  0  0
    2.5004   -2.7141    0.0000 C   0  0  0  0  0  0  0  0  0  0  0  0
    2.5004   -3.5262    0.0000 C   0  0  0  0  0  0  0  0  0  0  0  0
    0.3634    3.5262    0.0000 C   0  0  0  0  0  0  0  0  0  0  0  0
   -1.0614    3.5405    0.0000 C   0  0  0  0  0  0  0  0  0  0  0  0
  1 27  1  0  0  0  0
  1 28  1  0  0  0  0
  2  5  1  0  0  0  0
  2 12  1  0  0  0  0
  2 13  1  0  0  0  0
  3  7  1  0  0  0  0
  3  8  2  0  0  0  0
  4 14  1  0  0  0  0
  4 22  1  0  0  0  0
  4 23  1  0  0  0  0
  5  6  1  0  0  0  0
  5  9  2  0  0  0  0
  6  7  1  0  0  0  0
  6 11  2  0  0  0  0
  7 15  2  0  0  0  0
  8  9  1  0  0  0  0
  8 10  1  0  0  0  0
 10 20  2  0  0  0  0
 10 21  1  0  0  0  0
 11 18  1  0  0  0  0
 12 16  1  0  0  0  0
 13 17  1  0  0  0  0
 14 16  1  0  0  0  0
 14 17  1  0  0  0  0
 15 19  1  0  0  0  0
 18 19  2  0  0  0  0
 20 24  1  0  0  0  0
 21 25  2  0  0  0  0
 22 27  1  0  0  0  0
 23 28  1  0  0  0  0
 24 26  2  0  0  0  0
 25 26  1  0  0  0  0
M  END
> <PUBCHEM_COMPOUND_ID_TYPE>
0

> <PUBCHEM_TOTAL_CHARGE>
0

> <PUBCHEM_SUBSTANCE_ID>
310945621

> <PUBCHEM_SUBSTANCE_VERSION>
1

> <PUBCHEM_EXT_DATASOURCE_NAME>
4488

> <PUBCHEM_EXT_DATASOURCE_REGID>
SCHEMBL16123720

> <PUBCHEM_SUBSTANCE_COMMENT>
InChI=1S/C24H27N3O/c1-2-6-19(7-3-1)23-18-24(21-8-4-5-9-22(21)25-23)27-12-10-20(11-13-27)26-14-16-28-17-15-26/h1-9,18,20H,10-17H2
InChIKey=QBLDHFZVONBWRF-UHFFFAOYSA-N

> <PUBCHEM_SUBSTANCE_SYNONYM>
SCHEMBL16123720

> <PUBCHEM_XREF_EXT_ID>
SCHEMBL16123720

> <PUBCHEM_EXT_DATASOURCE_URL>
https://www.surechembl.org/

> <PUBCHEM_EXT_SUBSTANCE_URL>
https://www.surechembl.org/chemical/SCHEMBL16123720

> <PUBCHEM_CID_ASSOCIATIONS>
86273094  1

> <PUBCHEM_COORDINATE_TYPE>
1
3

$$$$
