310940000
  -OEChem-07211613022D

 27 29  0     0  0  0  0  0  0999 V2000
   -4.2227   -9.1540    0.0000 Cl  0  0  0  0  0  0  0  0  0  0  0  0
   -0.6504   -7.0915    0.0000 O   0  0  0  0  0  0  0  0  0  0  0  0
   -2.0793  -10.3915    0.0000 O   0  0  0  0  0  0  0  0  0  0  0  0
    2.9220   -9.1540    0.0000 O   0  0  0  0  0  0  0  0  0  0  0  0
    0.0641   -8.3290    0.0000 N   0  0  0  0  0  0  0  0  0  0  0  0
    1.4930   -9.1540    0.0000 N   0  0  0  0  0  0  0  0  0  0  0  0
   -1.3649   -8.3290    0.0000 C   0  0  0  0  0  0  0  0  0  0  0  0
   -2.7938   -8.3290    0.0000 C   0  0  0  0  0  0  0  0  0  0  0  0
   -0.6504   -7.9165    0.0000 C   0  0  0  0  0  0  0  0  0  0  0  0
   -3.5083   -7.9165    0.0000 C   0  0  0  0  0  0  0  0  0  0  0  0
   -2.0793   -7.9165    0.0000 C   0  0  0  0  0  0  0  0  0  0  0  0
   -2.0793   -9.5665    0.0000 C   0  0  0  0  0  0  0  0  0  0  0  0
   -1.3649   -9.1540    0.0000 C   0  0  0  0  0  0  0  0  0  0  0  0
   -2.7938   -9.1540    0.0000 C   0  0  0  0  0  0  0  0  0  0  0  0
   -4.2227   -8.3290    0.0000 C   0  0  0  0  0  0  0  0  0  0  0  0
    0.0641   -9.1540    0.0000 C   0  0  0  0  0  0  0  0  0  0  0  0
    0.7786   -7.9165    0.0000 C   0  0  0  0  0  0  0  0  0  0  0  0
   -3.5083   -7.0915    0.0000 C   0  0  0  0  0  0  0  0  0  0  0  0
    0.7786   -9.5665    0.0000 C   0  0  0  0  0  0  0  0  0  0  0  0
    1.4930   -8.3290    0.0000 C   0  0  0  0  0  0  0  0  0  0  0  0
    2.2075   -9.5665    0.0000 C   0  0  0  0  0  0  0  0  0  0  0  0
   -4.9372   -7.9165    0.0000 C   0  0  0  0  0  0  0  0  0  0  0  0
   -4.2227   -6.6790    0.0000 C   0  0  0  0  0  0  0  0  0  0  0  0
   -4.9372   -7.0915    0.0000 C   0  0  0  0  0  0  0  0  0  0  0  0
    2.2075  -10.3915    0.0000 C   0  0  0  0  0  0  0  0  0  0  0  0
   -1.3649  -10.8040    0.0000 C   0  0  0  0  0  0  0  0  0  0  0  0
    2.9220  -10.8040    0.0000 C   0  0  0  0  0  0  0  0  0  0  0  0
  1 15  1  0  0  0  0
  2  9  2  0  0  0  0
  3 12  1  0  0  0  0
  3 26  1  0  0  0  0
  4 21  2  0  0  0  0
  5  9  1  0  0  0  0
  5 16  1  0  0  0  0
  5 17  1  0  0  0  0
  6 19  1  0  0  0  0
  6 20  1  0  0  0  0
  6 21  1  0  0  0  0
  7  9  1  0  0  0  0
  7 11  2  0  0  0  0
  7 13  1  0  0  0  0
  8 10  1  0  0  0  0
  8 11  1  0  0  0  0
  8 14  2  0  0  0  0
 10 15  1  0  0  0  0
 10 18  2  0  0  0  0
 12 13  2  0  0  0  0
 12 14  1  0  0  0  0
 15 22  2  0  0  0  0
 16 19  1  0  0  0  0
 17 20  1  0  0  0  0
 18 23  1  0  0  0  0
 21 25  1  0  0  0  0
 22 24  1  0  0  0  0
 23 24  2  0  0  0  0
 25 27  2  0  0  0  0
M  END
> <PUBCHEM_COMPOUND_ID_TYPE>
0

> <PUBCHEM_TOTAL_CHARGE>
0

> <PUBCHEM_SUBSTANCE_ID>
310940000

> <PUBCHEM_SUBSTANCE_VERSION>
1

> <PUBCHEM_EXT_DATASOURCE_NAME>
4488

> <PUBCHEM_EXT_DATASOURCE_REGID>
SCHEMBL16117930

> <PUBCHEM_SUBSTANCE_COMMENT>
InChI=1S/C21H21ClN2O3/c1-3-20(25)23-8-10-24(11-9-23)21(26)16-12-15(13-17(14-16)27-2)18-6-4-5-7-19(18)22/h3-7,12-14H,1,8-11H2,2H3
InChIKey=BRFAKUYHZFJSKA-UHFFFAOYSA-N

> <PUBCHEM_SUBSTANCE_SYNONYM>
SCHEMBL16117930

> <PUBCHEM_XREF_EXT_ID>
SCHEMBL16117930

> <PUBCHEM_EXT_DATASOURCE_URL>
https://www.surechembl.org/

> <PUBCHEM_EXT_SUBSTANCE_URL>
https://www.surechembl.org/chemical/SCHEMBL16117930

> <PUBCHEM_CID_ASSOCIATIONS>
117607163  1

> <PUBCHEM_COORDINATE_TYPE>
1
3

$$$$
