310941418
  -OEChem-07211613022D

 19 19  0     1  0  0  0  0  0999 V2000
    2.4839   -1.7256    0.0000 O   0  0  0  0  0  0  0  0  0  0  0  0
    1.9851   -2.5457    0.0000 O   0  0  0  0  0  0  0  0  0  0  0  0
    0.4557    2.5457    0.0000 O   0  0  0  0  0  0  0  0  0  0  0  0
    0.4557    0.0921    0.0000 N   0  0  0  0  0  0  0  0  0  0  0  0
   -0.2555    1.3189    0.0000 C   0  0  3  0  0  0  0  0  0  0  0  0
    1.9851   -2.0138    0.0000 C   0  0  0  0  0  0  0  0  0  0  0  0
   -1.0023    1.7279    0.0000 C   0  0  0  0  0  0  0  0  0  0  0  0
    0.4379    1.7279    0.0000 C   0  0  0  0  0  0  0  0  0  0  0  0
   -1.7135    1.3189    0.0000 C   0  0  0  0  0  0  0  0  0  0  0  0
    2.4950   -1.1714    0.0000 C   0  0  0  0  0  0  0  0  0  0  0  0
   -2.5136    1.5678    0.0000 C   0  0  0  0  0  0  0  0  0  0  0  0
   -1.7313    0.4832    0.0000 C   0  0  0  0  0  0  0  0  0  0  0  0
    1.1846    1.3367    0.0000 C   0  0  0  0  0  0  0  0  0  0  0  0
   -2.9937    0.8744    0.0000 C   0  0  0  0  0  0  0  0  0  0  0  0
   -2.4959    0.2165    0.0000 C   0  0  0  0  0  0  0  0  0  0  0  0
    2.9937   -1.1492    0.0000 C   0  0  0  0  0  0  0  0  0  0  0  0
    1.9851   -1.1714    0.0000 C   0  0  0  0  0  0  0  0  0  0  0  0
    2.4839   -0.6283    0.0000 C   0  0  0  0  0  0  0  0  0  0  0  0
    1.9314    1.7456    0.0000 C   0  0  0  0  0  0  0  0  0  0  0  0
  1  6  1  0  0  0  0
  1 10  1  0  0  0  0
  2  6  2  0  0  0  0
  3  8  2  0  0  0  0
  5  4  1  1  0  0  0
  4  6  1  0  0  0  0
  5  7  1  0  0  0  0
  5  8  1  0  0  0  0
  7  9  1  0  0  0  0
  8 13  1  0  0  0  0
  9 11  1  0  0  0  0
  9 12  1  0  0  0  0
 10 16  1  0  0  0  0
 10 17  1  0  0  0  0
 10 18  1  0  0  0  0
 11 14  1  0  0  0  0
 12 15  1  0  0  0  0
 13 19  1  0  0  0  0
 14 15  1  0  0  0  0
M  END
> <PUBCHEM_COMPOUND_ID_TYPE>
0

> <PUBCHEM_TOTAL_CHARGE>
0

> <PUBCHEM_SUBSTANCE_ID>
310941418

> <PUBCHEM_SUBSTANCE_VERSION>
1

> <PUBCHEM_EXT_DATASOURCE_NAME>
4488

> <PUBCHEM_EXT_DATASOURCE_REGID>
SCHEMBL16119378

> <PUBCHEM_SUBSTANCE_COMMENT>
InChI=1S/C15H27NO3/c1-5-13(17)12(10-11-8-6-7-9-11)16-14(18)19-15(2,3)4/h11-12H,5-10H2,1-4H3,(H,16,18)/t12-/m0/s1
InChIKey=PVRYICKBSPHJPC-LBPRGKRZSA-N

> <PUBCHEM_SUBSTANCE_SYNONYM>
SCHEMBL16119378

> <PUBCHEM_XREF_EXT_ID>
SCHEMBL16119378

> <PUBCHEM_EXT_DATASOURCE_URL>
https://www.surechembl.org/

> <PUBCHEM_EXT_SUBSTANCE_URL>
https://www.surechembl.org/chemical/SCHEMBL16119378

> <PUBCHEM_CID_ASSOCIATIONS>
117608243  1

> <PUBCHEM_COORDINATE_TYPE>
1
3

> <PUBCHEM_BONDANNOTATIONS>
5  4  5

$$$$
