310937102
  -OEChem-07211613022D

 31 35  0     0  0  0  0  0  0999 V2000
    0.9295   -1.0274    0.0000 F   0  0  0  0  0  0  0  0  0  0  0  0
    1.6389   -2.2504    0.0000 F   0  0  0  0  0  0  0  0  0  0  0  0
    1.4677   -0.4403    0.0000 F   0  0  0  0  0  0  0  0  0  0  0  0
    3.5469    0.0000    0.0000 O   0  0  0  0  0  0  0  0  0  0  0  0
    2.8865   -1.2475    0.0000 N   0  0  0  0  0  0  0  0  0  0  0  0
    3.5469   -3.2534    0.0000 N   0  0  0  0  0  0  0  0  0  0  0  0
    5.0635   -2.3238    0.0000 N   0  0  0  0  0  0  0  0  0  0  0  0
    5.5283   -1.6634    0.0000 N   0  0  0  0  0  0  0  0  0  0  0  0
    0.0245   -3.6692    0.0000 N   0  0  0  0  0  0  0  0  0  0  0  0
    0.7094   -4.8923    0.0000 N   0  0  0  0  0  0  0  0  0  0  0  0
    2.8865   -2.0792    0.0000 C   0  0  0  0  0  0  0  0  0  0  0  0
    3.5469   -2.4950    0.0000 C   0  0  0  0  0  0  0  0  0  0  0  0
    4.2807   -2.0792    0.0000 C   0  0  0  0  0  0  0  0  0  0  0  0
    4.2807   -1.2475    0.0000 C   0  0  0  0  0  0  0  0  0  0  0  0
    3.5469   -0.8317    0.0000 C   0  0  0  0  0  0  0  0  0  0  0  0
    2.1526   -2.4950    0.0000 C   0  0  0  0  0  0  0  0  0  0  0  0
    2.1526   -3.2534    0.0000 C   0  0  0  0  0  0  0  0  0  0  0  0
    5.0635   -0.9785    0.0000 C   0  0  0  0  0  0  0  0  0  0  0  0
    2.1771   -0.8317    0.0000 C   0  0  0  0  0  0  0  0  0  0  0  0
    1.4432   -3.6692    0.0000 C   0  0  0  0  0  0  0  0  0  0  0  0
    2.8865   -3.6692    0.0000 C   0  0  0  0  0  0  0  0  0  0  0  0
    0.7094   -3.2778    0.0000 C   0  0  0  0  0  0  0  0  0  0  0  0
    1.6389   -1.4187    0.0000 C   0  0  0  0  0  0  0  0  0  0  0  0
    1.4187   -4.5009    0.0000 C   0  0  0  0  0  0  0  0  0  0  0  0
    0.7094   -2.4706    0.0000 C   0  0  0  0  0  0  0  0  0  0  0  0
    0.0000   -4.5009    0.0000 C   0  0  0  0  0  0  0  0  0  0  0  0
    0.0000   -2.0303    0.0000 C   0  0  0  0  0  0  0  0  0  0  0  0
    1.4187   -2.0303    0.0000 C   0  0  0  0  0  0  0  0  0  0  0  0
    0.0000   -1.2475    0.0000 C   0  0  0  0  0  0  0  0  0  0  0  0
    1.3943   -1.2231    0.0000 C   0  0  0  0  0  0  0  0  0  0  0  0
    0.6849   -0.8072    0.0000 C   0  0  0  0  0  0  0  0  0  0  0  0
  1 23  1  0  0  0  0
  2 23  1  0  0  0  0
  3 23  1  0  0  0  0
  4 15  2  0  0  0  0
  5 11  1  0  0  0  0
  5 15  1  0  0  0  0
  5 19  1  0  0  0  0
  6 12  2  0  0  0  0
  6 21  1  0  0  0  0
  7  8  1  0  0  0  0
  7 13  1  0  0  0  0
  8 18  2  0  0  0  0
  9 22  2  0  0  0  0
  9 26  1  0  0  0  0
 10 24  1  0  0  0  0
 10 26  2  0  0  0  0
 11 12  1  0  0  0  0
 11 16  2  0  0  0  0
 12 13  1  0  0  0  0
 13 14  2  0  0  0  0
 14 15  1  0  0  0  0
 14 18  1  0  0  0  0
 16 17  1  0  0  0  0
 17 20  1  0  0  0  0
 17 21  2  0  0  0  0
 19 23  1  0  0  0  0
 20 22  1  0  0  0  0
 20 24  2  0  0  0  0
 22 25  1  0  0  0  0
 25 27  1  0  0  0  0
 25 28  1  0  0  0  0
 27 29  1  0  0  0  0
 28 30  1  0  0  0  0
 29 31  1  0  0  0  0
 30 31  1  0  0  0  0
M  END
> <PUBCHEM_COMPOUND_ID_TYPE>
0

> <PUBCHEM_TOTAL_CHARGE>
0

> <PUBCHEM_SUBSTANCE_ID>
310937102

> <PUBCHEM_SUBSTANCE_VERSION>
1

> <PUBCHEM_EXT_DATASOURCE_NAME>
4488

> <PUBCHEM_EXT_DATASOURCE_REGID>
SCHEMBL16114818

> <PUBCHEM_SUBSTANCE_COMMENT>
InChI=1S/C21H19F3N6O/c22-21(23,24)10-30-16-6-13(7-26-19(16)18-15(20(30)31)9-28-29-18)14-8-25-11-27-17(14)12-4-2-1-3-5-12/h6-9,11-12H,1-5,10H2,(H,28,29)
InChIKey=RUAHLKOPADSVIZ-UHFFFAOYSA-N

> <PUBCHEM_SUBSTANCE_SYNONYM>
SCHEMBL16114818

> <PUBCHEM_XREF_EXT_ID>
SCHEMBL16114818

> <PUBCHEM_EXT_DATASOURCE_URL>
https://www.surechembl.org/

> <PUBCHEM_EXT_SUBSTANCE_URL>
https://www.surechembl.org/chemical/SCHEMBL16114818

> <PUBCHEM_CID_ASSOCIATIONS>
86298839  1

> <PUBCHEM_COORDINATE_TYPE>
1
3

$$$$
