310939286
  -OEChem-07211613022D

 25 27  0     0  0  0  0  0  0999 V2000
    1.8563   -1.7862    0.0000 Cl  0  0  0  0  0  0  0  0  0  0  0  0
    1.8563    1.0717    0.0000 F   0  0  0  0  0  0  0  0  0  0  0  0
    2.6812   -0.3572    0.0000 O   0  0  0  0  0  0  0  0  0  0  0  0
   -0.6187    1.0717    0.0000 N   0  0  0  0  0  0  0  0  0  0  0  0
   -4.3312    1.7862    0.0000 N   0  0  0  0  0  0  0  0  0  0  0  0
    1.8563   -0.3572    0.0000 C   0  0  0  0  0  0  0  0  0  0  0  0
    1.4437    0.3572    0.0000 C   0  0  0  0  0  0  0  0  0  0  0  0
    0.6187    0.3572    0.0000 C   0  0  0  0  0  0  0  0  0  0  0  0
    1.4437   -1.0717    0.0000 C   0  0  0  0  0  0  0  0  0  0  0  0
    0.2062   -0.3572    0.0000 C   0  0  0  0  0  0  0  0  0  0  0  0
    0.6187   -1.0717    0.0000 C   0  0  0  0  0  0  0  0  0  0  0  0
    3.0938   -1.0717    0.0000 C   0  0  0  0  0  0  0  0  0  0  0  0
    0.2062    1.0717    0.0000 C   0  0  0  0  0  0  0  0  0  0  0  0
    2.6812   -1.7862    0.0000 C   0  0  0  0  0  0  0  0  0  0  0  0
    3.9187   -1.0717    0.0000 C   0  0  0  0  0  0  0  0  0  0  0  0
   -1.8563    1.7862    0.0000 C   0  0  0  0  0  0  0  0  0  0  0  0
   -1.0313    1.7862    0.0000 C   0  0  0  0  0  0  0  0  0  0  0  0
    3.0938   -2.5006    0.0000 C   0  0  0  0  0  0  0  0  0  0  0  0
    4.3312   -1.7862    0.0000 C   0  0  0  0  0  0  0  0  0  0  0  0
   -2.2687    1.0717    0.0000 C   0  0  0  0  0  0  0  0  0  0  0  0
   -2.2687    2.5006    0.0000 C   0  0  0  0  0  0  0  0  0  0  0  0
   -3.5062    1.7862    0.0000 C   0  0  0  0  0  0  0  0  0  0  0  0
    3.9187   -2.5006    0.0000 C   0  0  0  0  0  0  0  0  0  0  0  0
   -3.0938    1.0717    0.0000 C   0  0  0  0  0  0  0  0  0  0  0  0
   -3.0938    2.5006    0.0000 C   0  0  0  0  0  0  0  0  0  0  0  0
  1  9  1  0  0  0  0
  2  7  1  0  0  0  0
  3  6  1  0  0  0  0
  3 12  1  0  0  0  0
  4 13  1  0  0  0  0
  4 17  1  0  0  0  0
 22  5  1  6  0  0  0
  6  7  2  0  0  0  0
  6  9  1  0  0  0  0
  7  8  1  0  0  0  0
  8 10  2  0  0  0  0
  8 13  1  0  0  0  0
  9 11  2  0  0  0  0
 10 11  1  0  0  0  0
 12 14  2  0  0  0  0
 12 15  1  0  0  0  0
 14 18  1  0  0  0  0
 15 19  2  0  0  0  0
 16 17  1  1  0  0  0
 16 20  1  0  0  0  0
 16 21  1  0  0  0  0
 18 23  2  0  0  0  0
 19 23  1  0  0  0  0
 20 24  1  0  0  0  0
 21 25  1  0  0  0  0
 22 24  1  0  0  0  0
 22 25  1  0  0  0  0
M  END
> <PUBCHEM_COMPOUND_ID_TYPE>
0

> <PUBCHEM_TOTAL_CHARGE>
0

> <PUBCHEM_SUBSTANCE_ID>
310939286

> <PUBCHEM_SUBSTANCE_VERSION>
1

> <PUBCHEM_EXT_DATASOURCE_NAME>
4488

> <PUBCHEM_EXT_DATASOURCE_REGID>
SCHEMBL16117207

> <PUBCHEM_SUBSTANCE_COMMENT>
InChI=1S/C20H24ClFN2O/c21-18-11-8-15(13-24-12-14-6-9-16(23)10-7-14)19(22)20(18)25-17-4-2-1-3-5-17/h1-5,8,11,14,16,24H,6-7,9-10,12-13,23H2/t14-,16-
InChIKey=XVANNXQNIPYTGG-KOMQPUFPSA-N

> <PUBCHEM_SUBSTANCE_SYNONYM>
SCHEMBL16117207

> <PUBCHEM_XREF_EXT_ID>
SCHEMBL16117207

> <PUBCHEM_EXT_DATASOURCE_URL>
https://www.surechembl.org/

> <PUBCHEM_EXT_SUBSTANCE_URL>
https://www.surechembl.org/chemical/SCHEMBL16117207

> <PUBCHEM_CID_ASSOCIATIONS>
117606627  1

> <PUBCHEM_COORDINATE_TYPE>
1
3

> <PUBCHEM_BONDANNOTATIONS>
16  17  5
22  5  6

$$$$
