310940493
  -OEChem-07211613022D

 18 18  0     1  0  0  0  0  0999 V2000
    0.6847    0.6680    0.0000 O   0  0  0  0  0  0  0  0  0  0  0  0
    2.1544    0.7683    0.0000 O   0  0  0  0  0  0  0  0  0  0  0  0
    1.3027   -1.3027    0.0000 O   0  0  0  0  0  0  0  0  0  0  0  0
    0.0334   -1.3027    0.0000 O   0  0  0  0  0  0  0  0  0  0  0  0
   -1.2860    0.5678    0.0000 O   0  0  0  0  0  0  0  0  0  0  0  0
    2.8559    2.2713    0.0000 O   0  0  0  0  0  0  0  0  0  0  0  0
   -1.7870    2.1210    0.0000 O   0  0  0  0  0  0  0  0  0  0  0  0
    1.0355   -0.5511    0.0000 C   0  0  3  0  0  0  0  0  0  0  0  0
    0.2672   -0.5177    0.0000 C   0  0  3  0  0  0  0  0  0  0  0  0
    1.3361    0.2172    0.0000 C   0  0  3  0  0  0  0  0  0  0  0  0
    0.0501    0.2004    0.0000 C   0  0  3  0  0  0  0  0  0  0  0  0
   -0.5011    0.8016    0.0000 C   0  0  0  0  0  0  0  0  0  0  0  0
    2.1043    1.7703    0.0000 C   0  0  0  0  0  0  0  0  0  0  0  0
   -0.1837   -2.2713    0.0000 C   0  0  0  0  0  0  0  0  0  0  0  0
    1.5198   -2.2713    0.0000 C   0  0  0  0  0  0  0  0  0  0  0  0
   -2.0041    1.2358    0.0000 C   0  0  0  0  0  0  0  0  0  0  0  0
    1.2525    2.1711    0.0000 C   0  0  0  0  0  0  0  0  0  0  0  0
   -2.8559    0.9353    0.0000 C   0  0  0  0  0  0  0  0  0  0  0  0
  1 10  1  0  0  0  0
  1 11  1  0  0  0  0
  2 10  1  0  0  0  0
  2 13  1  0  0  0  0
  8  3  1  1  0  0  0
  3 14  1  0  0  0  0
  9  4  1  1  0  0  0
  4 15  1  0  0  0  0
  5 12  1  0  0  0  0
  5 16  1  0  0  0  0
  6 13  2  0  0  0  0
  7 16  2  0  0  0  0
  8  9  1  0  0  0  0
  8 10  1  0  0  0  0
  9 11  1  0  0  0  0
 11 12  1  6  0  0  0
 13 17  1  0  0  0  0
 16 18  1  0  0  0  0
M  END
> <PUBCHEM_COMPOUND_ID_TYPE>
0

> <PUBCHEM_TOTAL_CHARGE>
0

> <PUBCHEM_SUBSTANCE_ID>
310940493

> <PUBCHEM_SUBSTANCE_VERSION>
1

> <PUBCHEM_EXT_DATASOURCE_NAME>
4488

> <PUBCHEM_EXT_DATASOURCE_REGID>
SCHEMBL16118446

> <PUBCHEM_SUBSTANCE_COMMENT>
InChI=1S/C11H18O7/c1-6(12)16-5-8-9(14-3)10(15-4)11(18-8)17-7(2)13/h8-11H,5H2,1-4H3/t8-,9-,10-,11?/m0/s1
InChIKey=GPNNCJPTGOZJIW-KXBCIPKXSA-N

> <PUBCHEM_SUBSTANCE_SYNONYM>
SCHEMBL16118446

> <PUBCHEM_XREF_EXT_ID>
SCHEMBL16118446

> <PUBCHEM_EXT_DATASOURCE_URL>
https://www.surechembl.org/

> <PUBCHEM_EXT_SUBSTANCE_URL>
https://www.surechembl.org/chemical/SCHEMBL16118446

> <PUBCHEM_CID_ASSOCIATIONS>
117607508  1

> <PUBCHEM_COORDINATE_TYPE>
1
3

> <PUBCHEM_BONDANNOTATIONS>
11  12  6
10  2  3
8  3  5
9  4  5

$$$$
