310948691
  -OEChem-07211613022D

 30 32  0     1  0  0  0  0  0999 V2000
    4.3657    0.7425    0.0000 F   0  0  0  0  0  0  0  0  0  0  0  0
    4.6819   -0.3438    0.0000 F   0  0  0  0  0  0  0  0  0  0  0  0
    3.5819   -0.6325    0.0000 F   0  0  0  0  0  0  0  0  0  0  0  0
   -3.2932    0.4675    0.0000 O   0  0  0  0  0  0  0  0  0  0  0  0
   -4.0082    1.7050    0.0000 O   0  0  0  0  0  0  0  0  0  0  0  0
    1.1069    0.0688    0.0000 N   0  0  3  0  0  0  0  0  0  0  0  0
    1.1069    1.7188    0.0000 N   0  0  0  0  0  0  0  0  0  0  0  0
   -1.7806    1.7325    0.0000 C   0  0  3  0  0  0  0  0  0  0  0  0
   -2.5644    1.7325    0.0000 C   0  0  3  0  0  0  0  0  0  0  0  0
   -1.0382    1.3063    0.0000 C   0  0  0  0  0  0  0  0  0  0  0  0
   -2.1794    2.4200    0.0000 C   0  0  0  0  0  0  0  0  0  0  0  0
    0.3781    0.4813    0.0000 C   0  0  0  0  0  0  0  0  0  0  0  0
   -3.3207    1.2512    0.0000 C   0  0  0  0  0  0  0  0  0  0  0  0
    0.4056    1.3063    0.0000 C   0  0  0  0  0  0  0  0  0  0  0  0
   -0.3231    1.7050    0.0000 C   0  0  0  0  0  0  0  0  0  0  0  0
   -1.0382    0.4813    0.0000 C   0  0  0  0  0  0  0  0  0  0  0  0
   -0.3094    0.0688    0.0000 C   0  0  0  0  0  0  0  0  0  0  0  0
    1.1069   -0.7700    0.0000 C   0  0  0  0  0  0  0  0  0  0  0  0
    1.8219    0.4813    0.0000 C   0  0  0  0  0  0  0  0  0  0  0  0
    2.5507    0.0275    0.0000 C   0  0  3  0  0  0  0  0  0  0  0  0
    0.4056   -1.1825    0.0000 C   0  0  0  0  0  0  0  0  0  0  0  0
    1.8219   -1.1825    0.0000 C   0  0  0  0  0  0  0  0  0  0  0  0
    3.2520    0.4813    0.0000 C   0  0  0  0  0  0  0  0  0  0  0  0
    3.9670    0.0550    0.0000 C   0  0  0  0  0  0  0  0  0  0  0  0
   -3.9670    0.0550    0.0000 C   0  0  0  0  0  0  0  0  0  0  0  0
    0.4056   -2.0075    0.0000 C   0  0  0  0  0  0  0  0  0  0  0  0
    1.8219   -2.0075    0.0000 C   0  0  0  0  0  0  0  0  0  0  0  0
    1.1206   -2.4200    0.0000 C   0  0  0  0  0  0  0  0  0  0  0  0
    2.5644   -0.7838    0.0000 C   0  0  0  0  0  0  0  0  0  0  0  0
   -4.6819    0.4537    0.0000 C   0  0  0  0  0  0  0  0  0  0  0  0
  1 24  1  0  0  0  0
  2 24  1  0  0  0  0
  3 24  1  0  0  0  0
  4 13  1  0  0  0  0
  4 25  1  0  0  0  0
  5 13  2  0  0  0  0
  6 12  1  0  0  0  0
  6 18  1  0  0  0  0
  6 19  1  0  0  0  0
  7 14  1  0  0  0  0
  8  9  1  0  0  0  0
  8 10  1  0  0  0  0
  8 11  1  6  0  0  0
  9 11  1  0  0  0  0
  9 13  1  6  0  0  0
 10 15  1  0  0  0  0
 10 16  2  0  0  0  0
 12 14  1  0  0  0  0
 12 17  2  0  0  0  0
 14 15  2  0  0  0  0
 16 17  1  0  0  0  0
 18 21  1  0  0  0  0
 18 22  1  0  0  0  0
 19 20  1  0  0  0  0
 20 23  1  0  0  0  0
 20 29  1  0  0  0  0
 21 26  1  0  0  0  0
 22 27  1  0  0  0  0
 23 24  1  0  0  0  0
 25 30  1  0  0  0  0
 26 28  1  0  0  0  0
 27 28  1  0  0  0  0
M  END
> <PUBCHEM_COMPOUND_ID_TYPE>
0

> <PUBCHEM_TOTAL_CHARGE>
0

> <PUBCHEM_SUBSTANCE_ID>
310948691

> <PUBCHEM_SUBSTANCE_VERSION>
1

> <PUBCHEM_EXT_DATASOURCE_NAME>
4488

> <PUBCHEM_EXT_DATASOURCE_REGID>
SCHEMBL16126875

> <PUBCHEM_SUBSTANCE_COMMENT>
InChI=1S/C23H33F3N2O2/c1-3-30-22(29)19-12-18(19)16-9-10-21(20(27)11-16)28(17-7-5-4-6-8-17)14-15(2)13-23(24,25)26/h9-11,15,17-19H,3-8,12-14,27H2,1-2H3/t15?,18-,19-/m1/s1
InChIKey=UVIUVTOQXIIHIJ-JCNKGUCWSA-N

> <PUBCHEM_SUBSTANCE_SYNONYM>
SCHEMBL16126875

> <PUBCHEM_XREF_EXT_ID>
SCHEMBL16126875

> <PUBCHEM_EXT_DATASOURCE_URL>
https://www.surechembl.org/

> <PUBCHEM_EXT_SUBSTANCE_URL>
https://www.surechembl.org/chemical/SCHEMBL16126875

> <PUBCHEM_CID_ASSOCIATIONS>
117614232  1

> <PUBCHEM_COORDINATE_TYPE>
1
3

> <PUBCHEM_BONDANNOTATIONS>
20  29  3
8  11  6
9  13  6

$$$$
