310934321
  -OEChem-07211613022D

 37 41  0     1  0  0  0  0  0999 V2000
    0.0000   -3.0539    0.0000 Cl  0  0  0  0  0  0  0  0  0  0  0  0
    1.6421   -2.9098    0.0000 F   0  0  0  0  0  0  0  0  0  0  0  0
    3.9757   -3.8606    0.0000 O   0  0  0  0  0  0  0  0  0  0  0  0
    4.5807   -5.7620    0.0000 O   0  0  0  0  0  0  0  0  0  0  0  0
    3.8606   -3.6876    0.0000 O   0  0  0  0  0  0  0  0  0  0  0  0
    7.4329    0.0000    0.0000 O   0  0  0  0  0  0  0  0  0  0  0  0
    8.1532   -1.2389    0.0000 O   0  0  0  0  0  0  0  0  0  0  0  0
    5.2722   -4.5231    0.0000 N   0  0  0  0  0  0  0  0  0  0  0  0
    2.9963   -3.5148    0.0000 N   0  0  0  0  0  0  0  0  0  0  0  0
    4.5807   -2.4776    0.0000 N   0  0  0  0  0  0  0  0  0  0  0  0
    5.3010   -3.6876    0.0000 C   0  0  3  0  0  0  0  0  0  0  0  0
    6.0212   -3.2844    0.0000 C   0  0  0  0  0  0  0  0  0  0  0  0
    4.5807   -4.9265    0.0000 C   0  0  0  0  0  0  0  0  0  0  0  0
    3.8606   -4.5231    0.0000 C   0  0  3  0  0  0  0  0  0  0  0  0
    6.7127   -3.7165    0.0000 C   0  0  0  0  0  0  0  0  0  0  0  0
    4.5807   -3.2844    0.0000 C   0  0  0  0  0  0  0  0  0  0  0  0
    2.5929   -4.2350    0.0000 C   0  0  0  0  0  0  0  0  0  0  0  0
    5.9924   -4.9265    0.0000 C   0  0  0  0  0  0  0  0  0  0  0  0
    3.1114   -4.8688    0.0000 C   0  0  0  0  0  0  0  0  0  0  0  0
    1.7574   -4.3215    0.0000 C   0  0  0  0  0  0  0  0  0  0  0  0
    6.7127   -4.5231    0.0000 C   0  0  0  0  0  0  0  0  0  0  0  0
    6.1653   -2.6505    0.0000 C   0  0  0  0  0  0  0  0  0  0  0  0
    1.2965   -3.6588    0.0000 C   0  0  0  0  0  0  0  0  0  0  0  0
    7.4329   -3.3132    0.0000 C   0  0  0  0  0  0  0  0  0  0  0  0
    1.4117   -5.0706    0.0000 C   0  0  0  0  0  0  0  0  0  0  0  0
    0.4609   -3.7165    0.0000 C   0  0  0  0  0  0  0  0  0  0  0  0
    5.3010   -2.0455    0.0000 C   0  0  0  0  0  0  0  0  0  0  0  0
    6.8855   -2.2183    0.0000 C   0  0  0  0  0  0  0  0  0  0  0  0
    7.4329   -2.4776    0.0000 C   0  0  0  0  0  0  0  0  0  0  0  0
    0.6050   -5.1281    0.0000 C   0  0  0  0  0  0  0  0  0  0  0  0
    0.1153   -4.4656    0.0000 C   0  0  0  0  0  0  0  0  0  0  0  0
    5.3010   -1.2389    0.0000 C   0  0  0  0  0  0  0  0  0  0  0  0
    6.0212   -2.4776    0.0000 C   0  0  0  0  0  0  0  0  0  0  0  0
    6.7127   -1.2389    0.0000 C   0  0  0  0  0  0  0  0  0  0  0  0
    6.0212   -0.8355    0.0000 C   0  0  0  0  0  0  0  0  0  0  0  0
    6.7127   -2.0455    0.0000 C   0  0  0  0  0  0  0  0  0  0  0  0
    7.4329   -0.8355    0.0000 C   0  0  0  0  0  0  0  0  0  0  0  0
  1 26  1  0  0  0  0
  2 23  1  0  0  0  0
  3  9  1  0  0  0  0
  3 14  1  0  0  0  0
  4 13  2  0  0  0  0
  5 16  2  0  0  0  0
  6 37  2  0  0  0  0
  7 37  1  0  0  0  0
  8 11  1  0  0  0  0
  8 13  1  0  0  0  0
  8 18  1  0  0  0  0
  9 17  2  0  0  0  0
 10 16  1  0  0  0  0
 10 27  1  0  0  0  0
 11 12  1  0  0  0  0
 11 16  1  1  0  0  0
 12 15  2  0  0  0  0
 12 22  1  0  0  0  0
 14 13  1  1  0  0  0
 14 19  1  0  0  0  0
 15 21  1  0  0  0  0
 15 24  1  0  0  0  0
 17 19  1  0  0  0  0
 17 20  1  0  0  0  0
 18 21  1  0  0  0  0
 20 23  1  0  0  0  0
 20 25  2  0  0  0  0
 22 28  2  0  0  0  0
 23 26  2  0  0  0  0
 24 29  2  0  0  0  0
 25 30  1  0  0  0  0
 26 31  1  0  0  0  0
 27 32  2  0  0  0  0
 27 33  1  0  0  0  0
 28 29  1  0  0  0  0
 30 31  2  0  0  0  0
 32 35  1  0  0  0  0
 33 36  2  0  0  0  0
 34 35  2  0  0  0  0
 34 36  1  0  0  0  0
 34 37  1  0  0  0  0
M  END
> <PUBCHEM_COMPOUND_ID_TYPE>
0

> <PUBCHEM_TOTAL_CHARGE>
0

> <PUBCHEM_SUBSTANCE_ID>
310934321

> <PUBCHEM_SUBSTANCE_VERSION>
1

> <PUBCHEM_EXT_DATASOURCE_NAME>
4488

> <PUBCHEM_EXT_DATASOURCE_REGID>
SCHEMBL16111782

> <PUBCHEM_SUBSTANCE_COMMENT>
InChI=1S/C27H21ClFN3O5/c28-20-7-3-6-19(23(20)29)21-14-22(37-31-21)26(34)32-13-12-15-4-1-2-5-18(15)24(32)25(33)30-17-10-8-16(9-11-17)27(35)36/h1-11,22,24H,12-14H2,(H,30,33)(H,35,36)/t22-,24-/m1/s1
InChIKey=YPBHIZULGJULIC-ISKFKSNPSA-N

> <PUBCHEM_SUBSTANCE_SYNONYM>
SCHEMBL16111782

> <PUBCHEM_XREF_EXT_ID>
SCHEMBL16111782

> <PUBCHEM_EXT_DATASOURCE_URL>
https://www.surechembl.org/

> <PUBCHEM_EXT_SUBSTANCE_URL>
https://www.surechembl.org/chemical/SCHEMBL16111782

> <PUBCHEM_CID_ASSOCIATIONS>
117602560  1

> <PUBCHEM_COORDINATE_TYPE>
1
3

> <PUBCHEM_BONDANNOTATIONS>
11  16  5
14  13  5

$$$$
