310938813
  -OEChem-07211613022D

 25 28  0     0  0  0  0  0  0999 V2000
   -3.7014    8.0873    0.0000 S   0  0  0  0  0  0  0  0  0  0  0  0
   -1.6473    8.7547    0.0000 O   0  0  0  0  0  0  0  0  0  0  0  0
   -0.2649    9.4692    0.0000 O   0  0  0  0  0  0  0  0  0  0  0  0
    2.3611    5.1998    0.0000 O   0  0  0  0  0  0  0  0  0  0  0  0
    0.9322    7.6748    0.0000 N   0  0  0  0  0  0  0  0  0  0  0  0
   -1.6473    7.4199    0.0000 N   0  0  0  0  0  0  0  0  0  0  0  0
   -0.0660    6.6230    0.0000 N   0  0  0  0  0  0  0  0  0  0  0  0
   -0.3374    8.0873    0.0000 C   0  0  0  0  0  0  0  0  0  0  0  0
   -1.1624    8.0873    0.0000 C   0  0  0  0  0  0  0  0  0  0  0  0
    0.1476    7.4199    0.0000 C   0  0  0  0  0  0  0  0  0  0  0  0
    0.1476    8.7547    0.0000 C   0  0  0  0  0  0  0  0  0  0  0  0
   -2.4319    8.4998    0.0000 C   0  0  0  0  0  0  0  0  0  0  0  0
   -2.4319    7.6748    0.0000 C   0  0  0  0  0  0  0  0  0  0  0  0
    0.9322    8.4998    0.0000 C   0  0  0  0  0  0  0  0  0  0  0  0
    1.6467    7.2623    0.0000 C   0  0  0  0  0  0  0  0  0  0  0  0
   -3.2165    8.7547    0.0000 C   0  0  0  0  0  0  0  0  0  0  0  0
   -3.2165    7.4199    0.0000 C   0  0  0  0  0  0  0  0  0  0  0  0
    1.6467    6.4373    0.0000 C   0  0  0  0  0  0  0  0  0  0  0  0
    2.3611    7.6748    0.0000 C   0  0  0  0  0  0  0  0  0  0  0  0
    2.3611    6.0248    0.0000 C   0  0  0  0  0  0  0  0  0  0  0  0
    3.0756    7.2623    0.0000 C   0  0  0  0  0  0  0  0  0  0  0  0
    3.0756    6.4373    0.0000 C   0  0  0  0  0  0  0  0  0  0  0  0
    3.7901    7.6748    0.0000 C   0  0  0  0  0  0  0  0  0  0  0  0
    1.6467    4.7873    0.0000 C   0  0  0  0  0  0  0  0  0  0  0  0
    3.7901    8.4998    0.0000 C   0  0  0  0  0  0  0  0  0  0  0  0
  1 16  1  0  0  0  0
  1 17  1  0  0  0  0
  2  9  1  0  0  0  0
  2 12  1  0  0  0  0
  3 11  2  0  0  0  0
  4 20  1  0  0  0  0
  4 24  1  0  0  0  0
  5 10  1  0  0  0  0
  5 14  1  0  0  0  0
  5 15  1  0  0  0  0
  6  9  2  0  0  0  0
  6 13  1  0  0  0  0
  7 10  1  0  0  0  0
  8  9  1  0  0  0  0
  8 10  2  0  0  0  0
  8 11  1  0  0  0  0
 11 14  1  0  0  0  0
 12 13  1  0  0  0  0
 12 16  2  0  0  0  0
 13 17  2  0  0  0  0
 15 18  2  0  0  0  0
 15 19  1  0  0  0  0
 18 20  1  0  0  0  0
 19 21  2  0  0  0  0
 20 22  2  0  0  0  0
 21 22  1  0  0  0  0
 21 23  1  0  0  0  0
 23 25  1  0  0  0  0
M  END
> <PUBCHEM_COMPOUND_ID_TYPE>
0

> <PUBCHEM_TOTAL_CHARGE>
0

> <PUBCHEM_SUBSTANCE_ID>
310938813

> <PUBCHEM_SUBSTANCE_VERSION>
1

> <PUBCHEM_EXT_DATASOURCE_NAME>
4488

> <PUBCHEM_EXT_DATASOURCE_REGID>
SCHEMBL16116730

> <PUBCHEM_SUBSTANCE_COMMENT>
InChI=1S/C18H17N3O3S/c1-3-10-4-11(6-12(5-10)23-2)21-7-14(22)16(17(21)19)18-20-13-8-25-9-15(13)24-18/h4-6,8-9H,3,7,19H2,1-2H3
InChIKey=HSIPBCAMESUVRY-UHFFFAOYSA-N

> <PUBCHEM_SUBSTANCE_SYNONYM>
SCHEMBL16116730

> <PUBCHEM_XREF_EXT_ID>
SCHEMBL16116730

> <PUBCHEM_EXT_DATASOURCE_URL>
https://www.surechembl.org/

> <PUBCHEM_EXT_SUBSTANCE_URL>
https://www.surechembl.org/chemical/SCHEMBL16116730

> <PUBCHEM_CID_ASSOCIATIONS>
117606219  1

> <PUBCHEM_COORDINATE_TYPE>
1
3

$$$$
