310938797
  -OEChem-07211613022D

 38 41  0     1  0  0  0  0  0999 V2000
   -2.0816   -2.0861    0.0000 S   0  0  3  0  0  0  0  0  0  0  0  0
   -2.8785   -2.2996    0.0000 O   0  0  0  0  0  0  0  0  0  0  0  0
   -8.1635   -5.8264    0.0000 O   0  0  0  0  0  0  0  0  0  0  0  0
   -1.8681   -1.2892    0.0000 O   0  0  0  0  0  0  0  0  0  0  0  0
   -3.8767   -3.3514    0.0000 C   0  0  3  0  0  0  0  0  0  0  0  0
   -3.8767   -4.1764    0.0000 C   0  0  3  0  0  0  0  0  0  0  0  0
   -5.3056   -4.1764    0.0000 C   0  0  3  0  0  0  0  0  0  0  0  0
   -6.0201   -4.5889    0.0000 C   0  0  3  0  0  0  0  0  0  0  0  0
   -4.5911   -4.5889    0.0000 C   0  0  3  0  0  0  0  0  0  0  0  0
   -3.0920   -3.0965    0.0000 C   0  0  3  0  0  0  0  0  0  0  0  0
   -6.0201   -5.4139    0.0000 C   0  0  0  0  0  0  0  0  0  0  0  0
   -4.5911   -2.9389    0.0000 C   0  0  0  0  0  0  0  0  0  0  0  0
   -5.3056   -3.3514    0.0000 C   0  0  0  0  0  0  0  0  0  0  0  0
   -3.0920   -4.4314    0.0000 C   0  0  0  0  0  0  0  0  0  0  0  0
   -4.5911   -5.4139    0.0000 C   0  0  0  0  0  0  0  0  0  0  0  0
   -2.6071   -3.7639    0.0000 C   0  0  0  0  0  0  0  0  0  0  0  0
   -6.7346   -4.1764    0.0000 C   0  0  0  0  0  0  0  0  0  0  0  0
   -5.3056   -5.8264    0.0000 C   0  0  0  0  0  0  0  0  0  0  0  0
   -3.8767   -2.5264    0.0000 C   0  0  0  0  0  0  0  0  0  0  0  0
   -6.7346   -5.8264    0.0000 C   0  0  0  0  0  0  0  0  0  0  0  0
   -6.0201   -3.7639    0.0000 C   0  0  0  0  0  0  0  0  0  0  0  0
   -7.4490   -5.4139    0.0000 C   0  0  0  0  0  0  0  0  0  0  0  0
   -7.4490   -4.5889    0.0000 C   0  0  0  0  0  0  0  0  0  0  0  0
   -1.4983   -2.6694    0.0000 C   0  0  0  0  0  0  0  0  0  0  0  0
   -0.7014   -2.4559    0.0000 C   0  0  0  0  0  0  0  0  0  0  0  0
   -0.1180   -3.0393    0.0000 C   0  0  0  0  0  0  0  0  0  0  0  0
    0.6789   -2.8258    0.0000 C   0  0  0  0  0  0  0  0  0  0  0  0
    1.2622   -3.4091    0.0000 C   0  0  0  0  0  0  0  0  0  0  0  0
    2.0591   -3.1956    0.0000 C   0  0  0  0  0  0  0  0  0  0  0  0
    2.6425   -3.7790    0.0000 C   0  0  0  0  0  0  0  0  0  0  0  0
    3.4394   -3.5654    0.0000 C   0  0  0  0  0  0  0  0  0  0  0  0
    4.0227   -4.1488    0.0000 C   0  0  0  0  0  0  0  0  0  0  0  0
    4.8196   -3.9353    0.0000 C   0  0  0  0  0  0  0  0  0  0  0  0
    5.4030   -4.5186    0.0000 C   0  0  0  0  0  0  0  0  0  0  0  0
    6.1999   -4.3051    0.0000 C   0  0  0  0  0  0  0  0  0  0  0  0
    6.7832   -4.8885    0.0000 C   0  0  0  0  0  0  0  0  0  0  0  0
    7.5801   -4.6749    0.0000 C   0  0  0  0  0  0  0  0  0  0  0  0
    8.1635   -5.2583    0.0000 C   0  0  0  0  0  0  0  0  0  0  0  0
  1  2  1  0  0  0  0
  1  4  2  0  0  0  0
  1 24  1  0  0  0  0
 10  2  1  1  0  0  0
  3 22  2  0  0  0  0
  5  6  1  0  0  0  0
  5 10  1  0  0  0  0
  5 12  1  0  0  0  0
  5 19  1  1  0  0  0
  6  9  1  0  0  0  0
  6 14  1  1  0  0  0
  7  8  1  0  0  0  0
  7  9  1  0  0  0  0
  7 13  1  1  0  0  0
  8 11  1  0  0  0  0
  8 17  1  0  0  0  0
  8 21  1  1  0  0  0
  9 15  1  6  0  0  0
 10 16  1  0  0  0  0
 11 18  1  0  0  0  0
 11 20  2  0  0  0  0
 12 13  1  0  0  0  0
 14 16  1  0  0  0  0
 15 18  1  0  0  0  0
 17 23  1  0  0  0  0
 20 22  1  0  0  0  0
 22 23  1  0  0  0  0
 24 25  1  0  0  0  0
 25 26  1  0  0  0  0
 26 27  1  0  0  0  0
 27 28  1  0  0  0  0
 28 29  1  0  0  0  0
 29 30  1  0  0  0  0
 30 31  1  0  0  0  0
 31 32  1  0  0  0  0
 32 33  1  0  0  0  0
 33 34  1  0  0  0  0
 34 35  1  0  0  0  0
 35 36  1  0  0  0  0
 36 37  1  0  0  0  0
 37 38  1  0  0  0  0
M  END
> <PUBCHEM_COMPOUND_ID_TYPE>
0

> <PUBCHEM_TOTAL_CHARGE>
0

> <PUBCHEM_SUBSTANCE_ID>
310938797

> <PUBCHEM_SUBSTANCE_VERSION>
1

> <PUBCHEM_EXT_DATASOURCE_NAME>
4488

> <PUBCHEM_EXT_DATASOURCE_REGID>
SCHEMBL16116714

> <PUBCHEM_SUBSTANCE_COMMENT>
InChI=1S/C34H58O3S/c1-4-5-6-7-8-9-10-11-12-13-14-15-16-25-38(36)37-32-20-19-30-29-18-17-27-26-28(35)21-23-33(27,2)31(29)22-24-34(30,32)3/h26,29-32H,4-25H2,1-3H3/t29-,30-,31-,32-,33-,34-,38?/m0/s1
InChIKey=DNNBPDGNDNETNU-DGXOJPSQSA-N

> <PUBCHEM_SUBSTANCE_SYNONYM>
SCHEMBL16116714

> <PUBCHEM_XREF_EXT_ID>
SCHEMBL16116714

> <PUBCHEM_EXT_DATASOURCE_URL>
https://www.surechembl.org/

> <PUBCHEM_EXT_SUBSTANCE_URL>
https://www.surechembl.org/chemical/SCHEMBL16116714

> <PUBCHEM_CID_ASSOCIATIONS>
117606205  1

> <PUBCHEM_COORDINATE_TYPE>
1
3

> <PUBCHEM_BONDANNOTATIONS>
10  2  5
5  19  5
6  14  5
7  13  5
8  21  5
9  15  6

$$$$
