310944252
  -OEChem-07211613022D

 14 14  0     0  0  0  0  0  0999 V2000
    0.7415   -0.6170    0.0000 Br  0  0  0  0  0  0  0  0  0  0  0  0
   -0.7216    1.8611    0.0000 F   0  0  0  0  0  0  0  0  0  0  0  0
    0.7614    1.8511    0.0000 O   0  0  0  0  0  0  0  0  0  0  0  0
    1.4481    0.6071    0.0000 O   0  0  0  0  0  0  0  0  0  0  0  0
   -0.0348   -1.8511    0.0000 O   0  0  0  0  0  0  0  0  0  0  0  0
   -1.4481   -1.8611    0.0000 O   0  0  0  0  0  0  0  0  0  0  0  0
   -0.0050    0.6569    0.0000 C   0  0  0  0  0  0  0  0  0  0  0  0
   -0.0249   -0.1692    0.0000 C   0  0  0  0  0  0  0  0  0  0  0  0
   -0.7116   -0.5772    0.0000 C   0  0  0  0  0  0  0  0  0  0  0  0
   -0.7415    1.0549    0.0000 C   0  0  0  0  0  0  0  0  0  0  0  0
    0.7216    1.0450    0.0000 C   0  0  0  0  0  0  0  0  0  0  0  0
   -1.4481   -0.1692    0.0000 C   0  0  0  0  0  0  0  0  0  0  0  0
   -1.4481    0.6469    0.0000 C   0  0  0  0  0  0  0  0  0  0  0  0
   -0.7315   -1.4332    0.0000 C   0  0  0  0  0  0  0  0  0  0  0  0
  1  8  1  0  0  0  0
  2 10  1  0  0  0  0
  3 11  2  0  0  0  0
  4 11  1  0  0  0  0
  5 14  2  0  0  0  0
  6 14  1  0  0  0  0
  7  8  1  0  0  0  0
  7 10  2  0  0  0  0
  7 11  1  0  0  0  0
  8  9  2  0  0  0  0
  9 12  1  0  0  0  0
  9 14  1  0  0  0  0
 10 13  1  0  0  0  0
 12 13  2  0  0  0  0
M  END
> <PUBCHEM_COMPOUND_ID_TYPE>
0

> <PUBCHEM_TOTAL_CHARGE>
0

> <PUBCHEM_SUBSTANCE_ID>
310944252

> <PUBCHEM_SUBSTANCE_VERSION>
1

> <PUBCHEM_EXT_DATASOURCE_NAME>
4488

> <PUBCHEM_EXT_DATASOURCE_REGID>
SCHEMBL16122327

> <PUBCHEM_SUBSTANCE_COMMENT>
InChI=1S/C8H4BrFO4/c9-6-3(7(11)12)1-2-4(10)5(6)8(13)14/h1-2H,(H,11,12)(H,13,14)
InChIKey=IUXWOKAPNBKEME-UHFFFAOYSA-N

> <PUBCHEM_SUBSTANCE_SYNONYM>
SCHEMBL16122327

> <PUBCHEM_XREF_EXT_ID>
SCHEMBL16122327

> <PUBCHEM_EXT_DATASOURCE_URL>
https://www.surechembl.org/

> <PUBCHEM_EXT_SUBSTANCE_URL>
https://www.surechembl.org/chemical/SCHEMBL16122327

> <PUBCHEM_CID_ASSOCIATIONS>
117610522  1

> <PUBCHEM_COORDINATE_TYPE>
1
3

$$$$
