310929702
  -OEChem-07211613022D

 80 88  0     1  0  0  0  0  0999 V2000
    5.8329   -5.2189    0.0000 O   0  0  0  0  0  0  0  0  0  0  0  0
    9.4145   -3.9909    0.0000 O   0  0  0  0  0  0  0  0  0  0  0  0
    3.1722   -2.6606    0.0000 O   0  0  0  0  0  0  0  0  0  0  0  0
   12.9961   -2.9676    0.0000 O   0  0  0  0  0  0  0  0  0  0  0  0
    5.8329   -3.5816    0.0000 O   0  0  0  0  0  0  0  0  0  0  0  0
   10.8471   -4.8096    0.0000 O   0  0  0  0  0  0  0  0  0  0  0  0
    7.2655  -10.2332    0.0000 O   0  0  0  0  0  0  0  0  0  0  0  0
    9.5168  -11.5634    0.0000 O   0  0  0  0  0  0  0  0  0  0  0  0
   16.2707  -20.4662    0.0000 O   0  0  0  0  0  0  0  0  0  0  0  0
   17.7033  -17.9080    0.0000 O   0  0  0  0  0  0  0  0  0  0  0  0
   14.6334  -17.8057    0.0000 O   0  0  0  0  0  0  0  0  0  0  0  0
   10.2332  -13.6100    0.0000 O   0  0  0  0  0  0  0  0  0  0  0  0
   12.3821  -17.3963    0.0000 O   0  0  0  0  0  0  0  0  0  0  0  0
   11.6658  -15.3497    0.0000 O   0  0  0  0  0  0  0  0  0  0  0  0
    2.1490   -3.6839    0.0000 N   0  0  0  0  0  0  0  0  0  0  0  0
   12.5867   -1.6373    0.0000 N   0  0  0  0  0  0  0  0  0  0  0  0
    2.9676   -5.3212    0.0000 N   0  0  0  0  0  0  0  0  0  0  0  0
   10.7448   -1.4326    0.0000 N   0  0  0  0  0  0  0  0  0  0  0  0
    7.9818   -7.3679    0.0000 N   0  0  0  0  0  0  0  0  0  0  0  0
    7.9818   -9.0051    0.0000 N   0  0  0  0  0  0  0  0  0  0  0  0
   16.7824  -19.0336    0.0000 N   0  0  0  0  0  0  0  0  0  0  0  0
   13.9171  -19.0336    0.0000 N   0  0  0  0  0  0  0  0  0  0  0  0
    3.5816   -3.9909    0.0000 C   0  0  0  0  0  0  0  0  0  0  0  0
   11.5634   -2.6606    0.0000 C   0  0  0  0  0  0  0  0  0  0  0  0
    2.9676   -3.4792    0.0000 C   0  0  0  0  0  0  0  0  0  0  0  0
   12.3821   -2.4559    0.0000 C   0  0  0  0  0  0  0  0  0  0  0  0
    3.5816   -4.9119    0.0000 C   0  0  0  0  0  0  0  0  0  0  0  0
   10.8471   -2.2513    0.0000 C   0  0  0  0  0  0  0  0  0  0  0  0
    1.8420   -4.5026    0.0000 C   0  0  3  0  0  0  0  0  0  0  0  0
   12.0751   -0.9210    0.0000 C   0  0  3  0  0  0  0  0  0  0  0  0
    5.1166   -4.8096    0.0000 C   0  0  0  0  0  0  0  0  0  0  0  0
   10.1308   -3.5816    0.0000 C   0  0  0  0  0  0  0  0  0  0  0  0
    4.4003   -3.5816    0.0000 C   0  0  0  0  0  0  0  0  0  0  0  0
   11.5634   -3.5816    0.0000 C   0  0  0  0  0  0  0  0  0  0  0  0
    5.1166   -3.9909    0.0000 C   0  0  0  0  0  0  0  0  0  0  0  0
   10.8471   -3.9909    0.0000 C   0  0  0  0  0  0  0  0  0  0  0  0
    4.4003   -5.2189    0.0000 C   0  0  0  0  0  0  0  0  0  0  0  0
   10.1308   -2.7629    0.0000 C   0  0  0  0  0  0  0  0  0  0  0  0
    1.5350   -3.0699    0.0000 C   0  0  0  0  0  0  0  0  0  0  0  0
   13.4054   -1.3303    0.0000 C   0  0  0  0  0  0  0  0  0  0  0  0
    2.1490   -5.2189    0.0000 C   0  0  0  0  0  0  0  0  0  0  0  0
   11.2565   -0.8187    0.0000 C   0  0  0  0  0  0  0  0  0  0  0  0
    1.0233   -4.2979    0.0000 C   0  0  0  0  0  0  0  0  0  0  0  0
   12.6891   -0.2047    0.0000 C   0  0  0  0  0  0  0  0  0  0  0  0
    0.8187   -3.5816    0.0000 C   0  0  0  0  0  0  0  0  0  0  0  0
   13.4054   -0.5117    0.0000 C   0  0  0  0  0  0  0  0  0  0  0  0
    7.2655   -5.2189    0.0000 C   0  0  0  0  0  0  0  0  0  0  0  0
    8.6982   -5.2189    0.0000 C   0  0  0  0  0  0  0  0  0  0  0  0
    7.9818   -6.5492    0.0000 C   0  0  0  0  0  0  0  0  0  0  0  0
    6.5492   -4.8096    0.0000 C   0  0  0  0  0  0  0  0  0  0  0  0
    9.4145   -4.8096    0.0000 C   0  0  0  0  0  0  0  0  0  0  0  0
    7.9818   -4.8096    0.0000 C   0  0  0  0  0  0  0  0  0  0  0  0
    7.2655   -6.0375    0.0000 C   0  0  0  0  0  0  0  0  0  0  0  0
    8.6982   -6.0375    0.0000 C   0  0  0  0  0  0  0  0  0  0  0  0
    0.0000   -3.1722    0.0000 C   0  0  0  0  0  0  0  0  0  0  0  0
   14.1217    0.0000    0.0000 C   0  0  0  0  0  0  0  0  0  0  0  0
    5.8329   -2.7629    0.0000 C   0  0  0  0  0  0  0  0  0  0  0  0
   11.5634   -5.2189    0.0000 C   0  0  0  0  0  0  0  0  0  0  0  0
    7.2655   -7.7772    0.0000 C   0  0  0  0  0  0  0  0  0  0  0  0
    8.6982   -7.7772    0.0000 C   0  0  0  0  0  0  0  0  0  0  0  0
    8.6982   -8.5958    0.0000 C   0  0  0  0  0  0  0  0  0  0  0  0
    7.2655   -8.5958    0.0000 C   0  0  0  0  0  0  0  0  0  0  0  0
    7.9818   -9.8238    0.0000 C   0  0  0  0  0  0  0  0  0  0  0  0
    8.6982  -10.2332    0.0000 C   0  0  0  0  0  0  0  0  0  0  0  0
   17.4987  -18.7266    0.0000 C   0  0  0  0  0  0  0  0  0  0  0  0
   16.8846  -19.9546    0.0000 C   0  0  0  0  0  0  0  0  0  0  0  0
    8.6982  -11.1541    0.0000 C   0  0  0  0  0  0  0  0  0  0  0  0
   18.1126  -19.3406    0.0000 C   0  0  0  0  0  0  0  0  0  0  0  0
   17.7033  -20.0569    0.0000 C   0  0  0  0  0  0  0  0  0  0  0  0
   16.0660  -18.6243    0.0000 C   0  0  0  0  0  0  0  0  0  0  0  0
   15.3497  -19.0336    0.0000 C   0  0  0  0  0  0  0  0  0  0  0  0
   14.6334  -18.6243    0.0000 C   0  0  0  0  0  0  0  0  0  0  0  0
    9.5168  -12.3821    0.0000 C   0  0  0  0  0  0  0  0  0  0  0  0
   10.2332  -12.7914    0.0000 C   0  0  0  0  0  0  0  0  0  0  0  0
   13.0984  -18.6243    0.0000 C   0  0  0  0  0  0  0  0  0  0  0  0
   13.0984  -17.8057    0.0000 C   0  0  0  0  0  0  0  0  0  0  0  0
   10.9495  -14.0194    0.0000 C   0  0  0  0  0  0  0  0  0  0  0  0
   12.3821  -16.5777    0.0000 C   0  0  0  0  0  0  0  0  0  0  0  0
   10.9495  -14.8380    0.0000 C   0  0  0  0  0  0  0  0  0  0  0  0
   11.6658  -16.1683    0.0000 C   0  0  0  0  0  0  0  0  0  0  0  0
  1 31  1  0  0  0  0
  1 50  1  0  0  0  0
  2 32  1  0  0  0  0
  2 51  1  0  0  0  0
  3 25  2  0  0  0  0
  4 26  2  0  0  0  0
  5 35  1  0  0  0  0
  5 57  1  0  0  0  0
  6 36  1  0  0  0  0
  6 58  1  0  0  0  0
  7 63  2  0  0  0  0
  8 67  1  0  0  0  0
  8 73  1  0  0  0  0
  9 66  2  0  0  0  0
 10 65  2  0  0  0  0
 11 72  2  0  0  0  0
 12 74  1  0  0  0  0
 12 77  1  0  0  0  0
 13 76  1  0  0  0  0
 13 78  1  0  0  0  0
 14 79  1  0  0  0  0
 14 80  1  0  0  0  0
 15 25  1  0  0  0  0
 29 15  1  6  0  0  0
 15 39  1  0  0  0  0
 16 26  1  0  0  0  0
 30 16  1  6  0  0  0
 16 40  1  0  0  0  0
 17 27  1  0  0  0  0
 17 41  2  0  0  0  0
 18 28  1  0  0  0  0
 18 42  2  0  0  0  0
 19 49  1  0  0  0  0
 19 59  1  0  0  0  0
 19 60  1  0  0  0  0
 20 61  1  0  0  0  0
 20 62  1  0  0  0  0
 20 63  1  0  0  0  0
 21 65  1  0  0  0  0
 21 66  1  0  0  0  0
 21 70  1  0  0  0  0
 22 72  1  0  0  0  0
 22 75  1  0  0  0  0
 23 25  1  0  0  0  0
 23 27  2  0  0  0  0
 23 33  1  0  0  0  0
 24 26  1  0  0  0  0
 24 28  2  0  0  0  0
 24 34  1  0  0  0  0
 27 37  1  0  0  0  0
 28 38  1  0  0  0  0
 29 41  1  0  0  0  0
 29 43  1  0  0  0  0
 30 42  1  0  0  0  0
 30 44  1  0  0  0  0
 31 35  1  0  0  0  0
 31 37  2  0  0  0  0
 32 36  1  0  0  0  0
 32 38  2  0  0  0  0
 33 35  2  0  0  0  0
 34 36  2  0  0  0  0
 39 45  1  0  0  0  0
 40 46  1  0  0  0  0
 43 45  1  0  0  0  0
 44 46  1  0  0  0  0
 45 55  2  0  0  0  0
 46 56  2  0  0  0  0
 47 50  1  0  0  0  0
 47 52  2  0  0  0  0
 47 53  1  0  0  0  0
 48 51  1  0  0  0  0
 48 52  1  0  0  0  0
 48 54  2  0  0  0  0
 49 53  2  0  0  0  0
 49 54  1  0  0  0  0
 59 62  1  0  0  0  0
 60 61  1  0  0  0  0
 63 64  1  0  0  0  0
 64 67  1  0  0  0  0
 65 68  1  0  0  0  0
 66 69  1  0  0  0  0
 68 69  2  0  0  0  0
 70 71  1  0  0  0  0
 71 72  1  0  0  0  0
 73 74  1  0  0  0  0
 75 76  1  0  0  0  0
 77 79  1  0  0  0  0
 78 80  1  0  0  0  0
M  END
> <PUBCHEM_COMPOUND_ID_TYPE>
0

> <PUBCHEM_TOTAL_CHARGE>
0

> <PUBCHEM_SUBSTANCE_ID>
310929702

> <PUBCHEM_SUBSTANCE_VERSION>
1

> <PUBCHEM_EXT_DATASOURCE_NAME>
4488

> <PUBCHEM_EXT_DATASOURCE_REGID>
SCHEMBL16106894

> <PUBCHEM_SUBSTANCE_COMMENT>
InChI=1S/C58H68N8O14/c1-38-23-43-32-60-47-30-51(49(73-3)28-45(47)57(71)65(43)34-38)79-36-40-25-41(37-80-52-31-48-46(29-50(52)74-4)58(72)66-35-39(2)24-44(66)33-61-48)27-42(26-40)62-11-13-63(14-12-62)54(68)8-15-75-17-19-77-21-22-78-20-18-76-16-9-59-53(67)7-10-64-55(69)5-6-56(64)70/h5-6,25-33,43-44H,1-2,7-24,34-37H2,3-4H3,(H,59,67)/t43-,44-/m0/s1
InChIKey=FPWKWZDXAWUJIP-CXNSMIOJSA-N

> <PUBCHEM_SUBSTANCE_SYNONYM>
SCHEMBL16106894

> <PUBCHEM_XREF_EXT_ID>
SCHEMBL16106894

> <PUBCHEM_EXT_DATASOURCE_URL>
https://www.surechembl.org/

> <PUBCHEM_EXT_SUBSTANCE_URL>
https://www.surechembl.org/chemical/SCHEMBL16106894

> <PUBCHEM_CID_ASSOCIATIONS>
117599000  1

> <PUBCHEM_COORDINATE_TYPE>
1
3

> <PUBCHEM_BONDANNOTATIONS>
29  15  6
30  16  6

$$$$
