310941361
  -OEChem-07211613022D

 14 15  0     1  0  0  0  0  0999 V2000
    1.2079   -0.4286    0.0000 O   0  0  0  0  0  0  0  0  0  0  0  0
   -0.0234   -1.8625    0.0000 O   0  0  0  0  0  0  0  0  0  0  0  0
   -1.2703   -1.1300    0.0000 N   0  0  0  0  0  0  0  0  0  0  0  0
    0.6000   -0.7559    0.0000 C   0  0  3  0  0  0  0  0  0  0  0  0
   -0.0234   -1.1143    0.0000 C   0  0  0  0  0  0  0  0  0  0  0  0
    1.1923   -1.1143    0.0000 C   0  0  0  0  0  0  0  0  0  0  0  0
   -0.6624   -0.7715    0.0000 C   0  0  3  0  0  0  0  0  0  0  0  0
    0.3818   -0.0078    0.0000 C   0  0  0  0  0  0  0  0  0  0  0  0
   -0.6312   -0.0390    0.0000 C   0  0  0  0  0  0  0  0  0  0  0  0
   -0.0234    0.5845    0.0000 C   0  0  0  0  0  0  0  0  0  0  0  0
    0.8650    0.4442    0.0000 C   0  0  0  0  0  0  0  0  0  0  0  0
   -0.1325    1.4728    0.0000 C   0  0  0  0  0  0  0  0  0  0  0  0
    1.2703    1.2390    0.0000 C   0  0  0  0  0  0  0  0  0  0  0  0
    0.6468    1.8625    0.0000 C   0  0  0  0  0  0  0  0  0  0  0  0
  1  4  1  0  0  0  0
  1  6  1  0  0  0  0
  2  5  2  0  0  0  0
  7  3  1  1  0  0  0
  4  5  1  1  0  0  0
  4  6  1  0  0  0  0
  4  8  1  6  0  0  0
  5  7  1  0  0  0  0
  7  9  1  0  0  0  0
  9 10  1  0  0  0  0
 10 11  2  0  0  0  0
 10 12  1  0  0  0  0
 11 13  1  0  0  0  0
 12 14  1  0  0  0  0
 13 14  1  0  0  0  0
M  END
> <PUBCHEM_COMPOUND_ID_TYPE>
0

> <PUBCHEM_TOTAL_CHARGE>
0

> <PUBCHEM_SUBSTANCE_ID>
310941361

> <PUBCHEM_SUBSTANCE_VERSION>
1

> <PUBCHEM_EXT_DATASOURCE_NAME>
4488

> <PUBCHEM_EXT_DATASOURCE_REGID>
SCHEMBL16119321

> <PUBCHEM_SUBSTANCE_COMMENT>
InChI=1S/C11H17NO2/c1-11(7-14-11)10(13)9(12)6-8-4-2-3-5-8/h4,9H,2-3,5-7,12H2,1H3/t9-,11-/m0/s1
InChIKey=ZJMQURXHSNGKDX-ONGXEEELSA-N

> <PUBCHEM_SUBSTANCE_SYNONYM>
SCHEMBL16119321

> <PUBCHEM_XREF_EXT_ID>
SCHEMBL16119321

> <PUBCHEM_EXT_DATASOURCE_URL>
https://www.surechembl.org/

> <PUBCHEM_EXT_SUBSTANCE_URL>
https://www.surechembl.org/chemical/SCHEMBL16119321

> <PUBCHEM_CID_ASSOCIATIONS>
117608204  1

> <PUBCHEM_COORDINATE_TYPE>
1
3

> <PUBCHEM_BONDANNOTATIONS>
7  3  5
4  5  5
4  8  6

$$$$
