310941588
  -OEChem-07211613022D

 26 29  0     0  0  0  0  0  0999 V2000
   -3.3680   -1.7441    0.0000 Cl  0  0  0  0  0  0  0  0  0  0  0  0
    0.3952    1.7441    0.0000 S   0  0  0  0  0  0  0  0  0  0  0  0
   -1.9245   -0.9193    0.0000 O   0  0  0  0  0  0  0  0  0  0  0  0
   -0.4811   -0.9021    0.0000 O   0  0  0  0  0  0  0  0  0  0  0  0
    3.2821    0.7647    0.0000 O   0  0  0  0  0  0  0  0  0  0  0  0
    0.2578    0.4210    0.0000 N   0  0  0  0  0  0  0  0  0  0  0  0
    1.6324    0.9365    0.0000 N   0  0  0  0  0  0  0  0  0  0  0  0
   -1.2200    0.3522    0.0000 C   0  0  0  0  0  0  0  0  0  0  0  0
   -0.5155    0.7647    0.0000 C   0  0  0  0  0  0  0  0  0  0  0  0
   -2.6291   -0.5069    0.0000 C   0  0  0  0  0  0  0  0  0  0  0  0
   -2.6634    0.3350    0.0000 C   0  0  0  0  0  0  0  0  0  0  0  0
   -1.2372   -0.4726    0.0000 C   0  0  0  0  0  0  0  0  0  0  0  0
   -1.9245    0.7475    0.0000 C   0  0  0  0  0  0  0  0  0  0  0  0
    0.8076    1.0396    0.0000 C   0  0  0  0  0  0  0  0  0  0  0  0
   -3.3336   -0.9021    0.0000 C   0  0  0  0  0  0  0  0  0  0  0  0
   -0.3952    1.5723    0.0000 C   0  0  0  0  0  0  0  0  0  0  0  0
   -3.3680    0.7303    0.0000 C   0  0  0  0  0  0  0  0  0  0  0  0
    1.9589    0.1976    0.0000 C   0  0  0  0  0  0  0  0  0  0  0  0
   -4.0553   -0.5241    0.0000 C   0  0  0  0  0  0  0  0  0  0  0  0
   -4.0897    0.3179    0.0000 C   0  0  0  0  0  0  0  0  0  0  0  0
    2.7838    0.0945    0.0000 C   0  0  0  0  0  0  0  0  0  0  0  0
    1.5122   -0.5069    0.0000 C   0  0  0  0  0  0  0  0  0  0  0  0
    3.1446   -0.6615    0.0000 C   0  0  0  0  0  0  0  0  0  0  0  0
    1.8387   -1.2286    0.0000 C   0  0  0  0  0  0  0  0  0  0  0  0
    2.6634   -1.2974    0.0000 C   0  0  0  0  0  0  0  0  0  0  0  0
    4.0897    0.6615    0.0000 C   0  0  0  0  0  0  0  0  0  0  0  0
  1 15  1  0  0  0  0
  2 14  1  0  0  0  0
  2 16  1  0  0  0  0
  3 10  1  0  0  0  0
  3 12  1  0  0  0  0
  4 12  2  0  0  0  0
  5 21  1  0  0  0  0
  5 26  1  0  0  0  0
  6  9  1  0  0  0  0
  6 14  2  0  0  0  0
  7 14  1  0  0  0  0
  7 18  1  0  0  0  0
  8  9  1  0  0  0  0
  8 12  1  0  0  0  0
  8 13  2  0  0  0  0
  9 16  2  0  0  0  0
 10 11  1  0  0  0  0
 10 15  2  0  0  0  0
 11 13  1  0  0  0  0
 11 17  2  0  0  0  0
 15 19  1  0  0  0  0
 17 20  1  0  0  0  0
 18 21  1  0  0  0  0
 18 22  2  0  0  0  0
 19 20  2  0  0  0  0
 21 23  2  0  0  0  0
 22 24  1  0  0  0  0
 23 25  1  0  0  0  0
 24 25  2  0  0  0  0
M  END
> <PUBCHEM_COMPOUND_ID_TYPE>
0

> <PUBCHEM_TOTAL_CHARGE>
0

> <PUBCHEM_SUBSTANCE_ID>
310941588

> <PUBCHEM_SUBSTANCE_VERSION>
1

> <PUBCHEM_EXT_DATASOURCE_NAME>
4488

> <PUBCHEM_EXT_DATASOURCE_REGID>
SCHEMBL16119619

> <PUBCHEM_SUBSTANCE_COMMENT>
InChI=1S/C19H13ClN2O3S/c1-24-16-8-3-2-7-14(16)21-19-22-15(10-26-19)12-9-11-5-4-6-13(20)17(11)25-18(12)23/h2-10H,1H3,(H,21,22)
InChIKey=PNSUXYZIHLAQCB-UHFFFAOYSA-N

> <PUBCHEM_SUBSTANCE_SYNONYM>
SCHEMBL16119619

> <PUBCHEM_XREF_EXT_ID>
SCHEMBL16119619

> <PUBCHEM_EXT_DATASOURCE_URL>
https://www.surechembl.org/

> <PUBCHEM_EXT_SUBSTANCE_URL>
https://www.surechembl.org/chemical/SCHEMBL16119619

> <PUBCHEM_CID_ASSOCIATIONS>
86274273  1

> <PUBCHEM_COORDINATE_TYPE>
1
3

$$$$
