310947682
  -OEChem-07211613022D

 45 49  0     1  0  0  0  0  0999 V2000
    0.8383   -3.5539    0.0000 Cl  0  0  0  0  0  0  0  0  0  0  0  0
   -4.4268   -2.3069    0.0000 Cl  0  0  0  0  0  0  0  0  0  0  0  0
   -2.7364    1.8635    0.0000 S   0  0  0  0  0  0  0  0  0  0  0  0
    0.1178   -0.6304    0.0000 O   0  0  0  0  0  0  0  0  0  0  0  0
   -0.5888    1.4479    0.0000 O   0  0  0  0  0  0  0  0  0  0  0  0
   -3.4431    2.2931    0.0000 O   0  0  0  0  0  0  0  0  0  0  0  0
   -3.3184    1.2817    0.0000 O   0  0  0  0  0  0  0  0  0  0  0  0
    3.6925   -1.8913    0.0000 O   0  0  0  0  0  0  0  0  0  0  0  0
    4.3991   -0.6304    0.0000 O   0  0  0  0  0  0  0  0  0  0  0  0
   -1.3093    0.2009    0.0000 N   0  0  0  0  0  0  0  0  0  0  0  0
    2.2654    0.6304    0.0000 N   0  0  0  0  0  0  0  0  0  0  0  0
   -1.3093   -0.6166    0.0000 C   0  0  3  0  0  0  0  0  0  0  0  0
    0.1178    0.2147    0.0000 C   0  0  3  0  0  0  0  0  0  0  0  0
   -0.5888    0.6027    0.0000 C   0  0  0  0  0  0  0  0  0  0  0  0
   -0.5750   -1.0322    0.0000 C   0  0  3  0  0  0  0  0  0  0  0  0
   -2.0160    0.6443    0.0000 C   0  0  3  0  0  0  0  0  0  0  0  0
   -2.7919    0.1732    0.0000 C   0  0  0  0  0  0  0  0  0  0  0  0
   -2.0437   -1.0461    0.0000 C   0  0  0  0  0  0  0  0  0  0  0  0
   -0.6027   -1.8913    0.0000 C   0  0  0  0  0  0  0  0  0  0  0  0
   -2.0160    1.4617    0.0000 C   0  0  0  0  0  0  0  0  0  0  0  0
    0.8383    0.6304    0.0000 C   0  0  0  0  0  0  0  0  0  0  0  0
   -3.5401    0.1870    0.0000 C   0  0  0  0  0  0  0  0  0  0  0  0
   -3.1383   -0.4919    0.0000 C   0  0  0  0  0  0  0  0  0  0  0  0
    0.3395    1.0184    0.0000 C   0  0  0  0  0  0  0  0  0  0  0  0
   -2.7226    2.7364    0.0000 C   0  0  0  0  0  0  0  0  0  0  0  0
    1.5587    0.2147    0.0000 C   0  0  0  0  0  0  0  0  0  0  0  0
   -2.7364   -0.6443    0.0000 C   0  0  0  0  0  0  0  0  0  0  0  0
   -2.0298   -1.8774    0.0000 C   0  0  0  0  0  0  0  0  0  0  0  0
    0.1178   -2.3069    0.0000 C   0  0  0  0  0  0  0  0  0  0  0  0
   -1.2955   -2.3069    0.0000 C   0  0  0  0  0  0  0  0  0  0  0  0
    0.1039   -3.1244    0.0000 C   0  0  0  0  0  0  0  0  0  0  0  0
   -3.4292   -1.0461    0.0000 C   0  0  0  0  0  0  0  0  0  0  0  0
   -2.7226   -2.2931    0.0000 C   0  0  0  0  0  0  0  0  0  0  0  0
   -3.4431   -1.8774    0.0000 C   0  0  0  0  0  0  0  0  0  0  0  0
    1.5587   -0.6304    0.0000 C   0  0  0  0  0  0  0  0  0  0  0  0
   -1.2955   -3.1244    0.0000 C   0  0  0  0  0  0  0  0  0  0  0  0
   -0.5750   -3.5401    0.0000 C   0  0  0  0  0  0  0  0  0  0  0  0
   -2.7364    3.5539    0.0000 C   0  0  0  0  0  0  0  0  0  0  0  0
   -3.4569    3.1105    0.0000 C   0  0  0  0  0  0  0  0  0  0  0  0
   -2.0021    3.1383    0.0000 C   0  0  0  0  0  0  0  0  0  0  0  0
    2.9720   -0.6166    0.0000 C   0  0  0  0  0  0  0  0  0  0  0  0
    2.9858    0.2009    0.0000 C   0  0  0  0  0  0  0  0  0  0  0  0
    2.2515   -1.0322    0.0000 C   0  0  0  0  0  0  0  0  0  0  0  0
    3.6786   -1.0461    0.0000 C   0  0  0  0  0  0  0  0  0  0  0  0
    4.4268   -2.3208    0.0000 C   0  0  0  0  0  0  0  0  0  0  0  0
  1 31  1  0  0  0  0
  2 34  1  0  0  0  0
  3  6  2  0  0  0  0
  3  7  2  0  0  0  0
  3 20  1  0  0  0  0
  3 25  1  0  0  0  0
  4 13  1  0  0  0  0
 15  4  1  6  0  0  0
  5 14  2  0  0  0  0
  8 44  1  0  0  0  0
  8 45  1  0  0  0  0
  9 44  2  0  0  0  0
 12 10  1  1  0  0  0
 10 14  1  0  0  0  0
 10 16  1  0  0  0  0
 11 26  1  0  0  0  0
 11 42  2  0  0  0  0
 12 15  1  0  0  0  0
 12 18  1  0  0  0  0
 13 14  1  0  0  0  0
 13 21  1  6  0  0  0
 13 24  1  1  0  0  0
 15 19  1  0  0  0  0
 16 17  1  0  0  0  0
 16 20  1  1  0  0  0
 17 22  1  0  0  0  0
 17 23  1  0  0  0  0
 18 27  2  0  0  0  0
 18 28  1  0  0  0  0
 19 29  1  0  0  0  0
 19 30  2  0  0  0  0
 21 26  1  0  0  0  0
 22 23  1  0  0  0  0
 25 38  1  0  0  0  0
 25 39  1  0  0  0  0
 25 40  1  0  0  0  0
 26 35  2  0  0  0  0
 27 32  1  0  0  0  0
 28 33  2  0  0  0  0
 29 31  2  0  0  0  0
 30 36  1  0  0  0  0
 31 37  1  0  0  0  0
 32 34  2  0  0  0  0
 33 34  1  0  0  0  0
 35 43  1  0  0  0  0
 36 37  2  0  0  0  0
 41 42  1  0  0  0  0
 41 43  2  0  0  0  0
 41 44  1  0  0  0  0
M  END
> <PUBCHEM_COMPOUND_ID_TYPE>
0

> <PUBCHEM_TOTAL_CHARGE>
0

> <PUBCHEM_SUBSTANCE_ID>
310947682

> <PUBCHEM_SUBSTANCE_VERSION>
1

> <PUBCHEM_EXT_DATASOURCE_NAME>
4488

> <PUBCHEM_EXT_DATASOURCE_REGID>
SCHEMBL16125850

> <PUBCHEM_SUBSTANCE_COMMENT>
InChI=1S/C34H38Cl2N2O6S/c1-33(2,3)45(41,42)20-28(21-9-10-21)38-29(22-11-14-25(35)15-12-22)30(23-7-6-8-26(36)17-23)44-34(4,32(38)40)18-27-16-13-24(19-37-27)31(39)43-5/h6-8,11-17,19,21,28-30H,9-10,18,20H2,1-5H3/t28-,29-,30-,34+/m1/s1
InChIKey=OSPZJRSGWUJMAI-JCUDBWTNSA-N

> <PUBCHEM_SUBSTANCE_SYNONYM>
SCHEMBL16125850

> <PUBCHEM_XREF_EXT_ID>
SCHEMBL16125850

> <PUBCHEM_EXT_DATASOURCE_URL>
https://www.surechembl.org/

> <PUBCHEM_EXT_SUBSTANCE_URL>
https://www.surechembl.org/chemical/SCHEMBL16125850

> <PUBCHEM_CID_ASSOCIATIONS>
117613397  1

> <PUBCHEM_COORDINATE_TYPE>
1
3

> <PUBCHEM_BONDANNOTATIONS>
12  10  5
13  21  6
13  24  5
16  20  5
15  4  6

$$$$
