310946734
  -OEChem-07211613022D

 36 40  0     1  0  0  0  0  0999 V2000
    2.9290   -0.3073    0.0000 F   0  0  0  0  0  0  0  0  0  0  0  0
    3.8893   -0.8643    0.0000 F   0  0  0  0  0  0  0  0  0  0  0  0
    3.3132   -1.8438    0.0000 F   0  0  0  0  0  0  0  0  0  0  0  0
    2.3144   -0.4610    0.0000 O   0  0  0  0  0  0  0  0  0  0  0  0
   -2.5833    2.4777    0.0000 O   0  0  0  0  0  0  0  0  0  0  0  0
   -2.5641   -2.2856    0.0000 O   0  0  0  0  0  0  0  0  0  0  0  0
   -1.8535    0.4033    0.0000 N   0  0  0  0  0  0  0  0  0  0  0  0
   -1.1812   -0.0768    0.0000 N   0  0  0  0  0  0  0  0  0  0  0  0
   -0.9508   -1.5365    0.0000 N   0  0  0  0  0  0  0  0  0  0  0  0
   -3.6397   -1.3061    0.0000 N   0  0  0  0  0  0  0  0  0  0  0  0
    0.2593    1.6326    0.0000 N   0  0  0  0  0  0  0  0  0  0  0  0
    2.3336   -1.2869    0.0000 C   0  0  3  0  0  0  0  0  0  0  0  0
    2.5257   -2.0935    0.0000 C   0  0  0  0  0  0  0  0  0  0  0  0
    1.4885   -1.2100    0.0000 C   0  0  0  0  0  0  0  0  0  0  0  0
    3.1211   -1.0756    0.0000 C   0  0  0  0  0  0  0  0  0  0  0  0
    1.1812   -1.9783    0.0000 C   0  0  0  0  0  0  0  0  0  0  0  0
    1.8342   -2.5161    0.0000 C   0  0  0  0  0  0  0  0  0  0  0  0
   -2.2760   -0.8451    0.0000 C   0  0  0  0  0  0  0  0  0  0  0  0
   -2.5257   -0.0960    0.0000 C   0  0  0  0  0  0  0  0  0  0  0  0
   -1.4501   -0.8835    0.0000 C   0  0  0  0  0  0  0  0  0  0  0  0
   -1.8535    1.2484    0.0000 C   0  0  3  0  0  0  0  0  0  0  0  0
    0.9891   -0.5762    0.0000 C   0  0  0  0  0  0  0  0  0  0  0  0
    0.3745   -2.0935    0.0000 C   0  0  0  0  0  0  0  0  0  0  0  0
   -0.1632   -1.4405    0.0000 C   0  0  0  0  0  0  0  0  0  0  0  0
    3.3516   -2.0935    0.0000 C   0  0  0  0  0  0  0  0  0  0  0  0
    2.7369   -2.8810    0.0000 C   0  0  0  0  0  0  0  0  0  0  0  0
    0.1824   -0.6915    0.0000 C   0  0  0  0  0  0  0  0  0  0  0  0
   -2.8330   -1.4789    0.0000 C   0  0  0  0  0  0  0  0  0  0  0  0
   -3.3324    0.0769    0.0000 C   0  0  0  0  0  0  0  0  0  0  0  0
   -2.5641    1.6326    0.0000 C   0  0  0  0  0  0  0  0  0  0  0  0
   -1.1428    1.6326    0.0000 C   0  0  0  0  0  0  0  0  0  0  0  0
   -1.1236    0.7875    0.0000 C   0  0  0  0  0  0  0  0  0  0  0  0
   -3.8893   -0.5570    0.0000 C   0  0  0  0  0  0  0  0  0  0  0  0
   -1.1428    2.4777    0.0000 C   0  0  0  0  0  0  0  0  0  0  0  0
   -0.4322    1.2292    0.0000 C   0  0  0  0  0  0  0  0  0  0  0  0
   -1.8535    2.8810    0.0000 C   0  0  0  0  0  0  0  0  0  0  0  0
  1 15  1  0  0  0  0
  2 15  1  0  0  0  0
  3 15  1  0  0  0  0
  4 12  1  0  0  0  0
  5 30  1  0  0  0  0
  5 36  1  0  0  0  0
  6 28  2  0  0  0  0
  7  8  1  0  0  0  0
  7 19  1  0  0  0  0
  7 21  1  0  0  0  0
  8 20  2  0  0  0  0
  9 20  1  0  0  0  0
  9 24  1  0  0  0  0
 10 28  1  0  0  0  0
 10 33  1  0  0  0  0
 11 35  3  0  0  0  0
 12 13  1  0  0  0  0
 12 14  1  0  0  0  0
 12 15  1  0  0  0  0
 13 17  1  0  0  0  0
 13 25  1  0  0  0  0
 13 26  1  0  0  0  0
 14 16  2  0  0  0  0
 14 22  1  0  0  0  0
 16 17  1  0  0  0  0
 16 23  1  0  0  0  0
 18 19  2  0  0  0  0
 18 20  1  0  0  0  0
 18 28  1  0  0  0  0
 19 29  1  0  0  0  0
 21 30  1  0  0  0  0
 21 31  1  0  0  0  0
 21 32  1  6  0  0  0
 22 27  2  0  0  0  0
 23 24  2  0  0  0  0
 24 27  1  0  0  0  0
 29 33  2  0  0  0  0
 31 34  1  0  0  0  0
 32 35  1  0  0  0  0
 34 36  1  0  0  0  0
M  END
> <PUBCHEM_COMPOUND_ID_TYPE>
0

> <PUBCHEM_TOTAL_CHARGE>
0

> <PUBCHEM_SUBSTANCE_ID>
310946734

> <PUBCHEM_SUBSTANCE_VERSION>
1

> <PUBCHEM_EXT_DATASOURCE_NAME>
4488

> <PUBCHEM_EXT_DATASOURCE_REGID>
SCHEMBL16124858

> <PUBCHEM_SUBSTANCE_COMMENT>
InChI=1S/C25H26F3N5O3/c1-22(2)13-15-12-16(4-5-17(15)24(22,35)25(26,27)28)31-20-19-18(6-10-30-21(19)34)33(32-20)23(8-9-29)7-3-11-36-14-23/h4-6,10,12,35H,3,7-8,11,13-14H2,1-2H3,(H,30,34)(H,31,32)/t23-,24?/m0/s1
InChIKey=OTBGXODPXJHIIB-UXMRNZNESA-N

> <PUBCHEM_SUBSTANCE_SYNONYM>
SCHEMBL16124858

> <PUBCHEM_XREF_EXT_ID>
SCHEMBL16124858

> <PUBCHEM_EXT_DATASOURCE_URL>
https://www.surechembl.org/

> <PUBCHEM_EXT_SUBSTANCE_URL>
https://www.surechembl.org/chemical/SCHEMBL16124858

> <PUBCHEM_CID_ASSOCIATIONS>
117612622  1

> <PUBCHEM_COORDINATE_TYPE>
1
3

> <PUBCHEM_BONDANNOTATIONS>
21  32  6

$$$$
