310934535
  -OEChem-07211613022D

 30 33  0     0  0  0  0  0  0999 V2000
    6.3869   -1.6499    0.0000 Cl  0  0  0  0  0  0  0  0  0  0  0  0
    0.0000   -3.6991    0.0000 Cl  0  0  0  0  0  0  0  0  0  0  0  0
    2.8209   -3.6991    0.0000 F   0  0  0  0  0  0  0  0  0  0  0  0
    2.1289    0.0000    0.0000 O   0  0  0  0  0  0  0  0  0  0  0  0
    1.4105   -1.2242    0.0000 O   0  0  0  0  0  0  0  0  0  0  0  0
    3.5394    0.0000    0.0000 N   0  0  0  0  0  0  0  0  0  0  0  0
    3.5394   -4.0717    0.0000 N   0  0  0  0  0  0  0  0  0  0  0  0
    3.5394   -1.6499    0.0000 C   0  0  0  0  0  0  0  0  0  0  0  0
    2.8209   -1.2242    0.0000 C   0  0  0  0  0  0  0  0  0  0  0  0
    4.2580   -1.2242    0.0000 C   0  0  0  0  0  0  0  0  0  0  0  0
    4.2580   -0.3992    0.0000 C   0  0  0  0  0  0  0  0  0  0  0  0
    2.8209   -0.3992    0.0000 C   0  0  0  0  0  0  0  0  0  0  0  0
    3.5394   -2.4483    0.0000 C   0  0  0  0  0  0  0  0  0  0  0  0
    2.1289   -1.6499    0.0000 C   0  0  0  0  0  0  0  0  0  0  0  0
    4.9499   -1.6499    0.0000 C   0  0  0  0  0  0  0  0  0  0  0  0
    4.9499    0.0000    0.0000 C   0  0  0  0  0  0  0  0  0  0  0  0
    5.6684   -1.2242    0.0000 C   0  0  0  0  0  0  0  0  0  0  0  0
    2.8475   -2.8475    0.0000 C   0  0  0  0  0  0  0  0  0  0  0  0
    4.2580   -2.8475    0.0000 C   0  0  0  0  0  0  0  0  0  0  0  0
    5.6684   -0.3992    0.0000 C   0  0  0  0  0  0  0  0  0  0  0  0
    2.1289   -2.4483    0.0000 C   0  0  0  0  0  0  0  0  0  0  0  0
    1.4105   -3.6725    0.0000 C   0  0  0  0  0  0  0  0  0  0  0  0
    1.4105   -2.8475    0.0000 C   0  0  0  0  0  0  0  0  0  0  0  0
    2.9806   -3.8321    0.0000 C   0  0  0  0  0  0  0  0  0  0  0  0
    4.2313   -3.6725    0.0000 C   0  0  0  0  0  0  0  0  0  0  0  0
    0.6919   -4.0982    0.0000 C   0  0  0  0  0  0  0  0  0  0  0  0
    2.1289   -4.0982    0.0000 C   0  0  0  0  0  0  0  0  0  0  0  0
    0.6919   -4.9232    0.0000 C   0  0  0  0  0  0  0  0  0  0  0  0
    2.1289   -4.9232    0.0000 C   0  0  0  0  0  0  0  0  0  0  0  0
    1.4105   -5.3224    0.0000 C   0  0  0  0  0  0  0  0  0  0  0  0
  1 17  1  0  0  0  0
  2 26  1  0  0  0  0
  3 27  1  0  0  0  0
  4 12  2  0  0  0  0
  5 14  2  0  0  0  0
  6 11  1  0  0  0  0
  6 12  1  0  0  0  0
  7 24  2  0  0  0  0
  7 25  1  0  0  0  0
  8  9  2  0  0  0  0
  8 10  1  0  0  0  0
  8 13  1  0  0  0  0
  9 12  1  0  0  0  0
  9 14  1  0  0  0  0
 10 11  2  0  0  0  0
 10 15  1  0  0  0  0
 11 16  1  0  0  0  0
 13 18  2  0  0  0  0
 13 19  1  0  0  0  0
 14 21  1  0  0  0  0
 15 17  2  0  0  0  0
 16 20  2  0  0  0  0
 17 20  1  0  0  0  0
 18 24  1  0  0  0  0
 19 25  2  0  0  0  0
 21 23  2  0  0  0  0
 22 23  1  0  0  0  0
 22 26  1  0  0  0  0
 22 27  2  0  0  0  0
 26 28  2  0  0  0  0
 27 29  1  0  0  0  0
 28 30  1  0  0  0  0
 29 30  2  0  0  0  0
M  END
> <PUBCHEM_COMPOUND_ID_TYPE>
0

> <PUBCHEM_TOTAL_CHARGE>
0

> <PUBCHEM_SUBSTANCE_ID>
310934535

> <PUBCHEM_SUBSTANCE_VERSION>
1

> <PUBCHEM_EXT_DATASOURCE_NAME>
4488

> <PUBCHEM_EXT_DATASOURCE_REGID>
SCHEMBL16112024

> <PUBCHEM_SUBSTANCE_COMMENT>
InChI=1S/C23H13Cl2FN2O2/c24-14-4-6-19-16(12-14)21(13-8-10-27-11-9-13)22(23(30)28-19)20(29)7-5-15-17(25)2-1-3-18(15)26/h1-12H,(H,28,30)/b7-5+
InChIKey=JATCIWANUAFUQC-FNORWQNLSA-N

> <PUBCHEM_SUBSTANCE_SYNONYM>
SCHEMBL16112024

> <PUBCHEM_XREF_EXT_ID>
SCHEMBL16112024

> <PUBCHEM_EXT_DATASOURCE_URL>
https://www.surechembl.org/

> <PUBCHEM_EXT_SUBSTANCE_URL>
https://www.surechembl.org/chemical/SCHEMBL16112024

> <PUBCHEM_CID_ASSOCIATIONS>
86300742  1

> <PUBCHEM_COORDINATE_TYPE>
1
3

$$$$
