310932783
  -OEChem-07211613022D

 14 15  0     0  0  0  0  0  0999 V2000
    2.1508   -1.2314    0.0000 O   0  0  0  0  0  0  0  0  0  0  0  0
    1.4448   -3.2837    0.0000 N   0  0  0  0  0  0  0  0  0  0  0  0
    1.4284   -0.8209    0.0000 C   0  0  0  0  0  0  0  0  0  0  0  0
    1.4120   -1.6254    0.0000 C   0  0  0  0  0  0  0  0  0  0  0  0
    2.1508   -0.4105    0.0000 C   0  0  0  0  0  0  0  0  0  0  0  0
    0.7060   -2.0523    0.0000 C   0  0  0  0  0  0  0  0  0  0  0  0
    0.7060   -0.4105    0.0000 C   0  0  0  0  0  0  0  0  0  0  0  0
    2.1508   -2.0359    0.0000 C   0  0  0  0  0  0  0  0  0  0  0  0
    0.0164   -1.6582    0.0000 C   0  0  0  0  0  0  0  0  0  0  0  0
    0.7224   -2.8732    0.0000 C   0  0  0  0  0  0  0  0  0  0  0  0
    0.0000   -0.8374    0.0000 C   0  0  0  0  0  0  0  0  0  0  0  0
    2.1508   -2.8732    0.0000 C   0  0  0  0  0  0  0  0  0  0  0  0
    1.4284    0.0000    0.0000 C   0  0  0  0  0  0  0  0  0  0  0  0
    2.8568    0.0000    0.0000 C   0  0  0  0  0  0  0  0  0  0  0  0
  1  5  1  0  0  0  0
  2 10  2  0  0  0  0
  2 12  1  0  0  0  0
  3  4  1  0  0  0  0
  3  5  1  0  0  0  0
  3  7  2  0  0  0  0
  4  6  2  0  0  0  0
  4  8  1  0  0  0  0
  5 13  1  0  0  0  0
  5 14  1  0  0  0  0
  6  9  1  0  0  0  0
  6 10  1  0  0  0  0
  7 11  1  0  0  0  0
  8 12  2  0  0  0  0
  9 11  2  0  0  0  0
M  END
> <PUBCHEM_COMPOUND_ID_TYPE>
0

> <PUBCHEM_TOTAL_CHARGE>
0

> <PUBCHEM_SUBSTANCE_ID>
310932783

> <PUBCHEM_SUBSTANCE_VERSION>
1

> <PUBCHEM_EXT_DATASOURCE_NAME>
4488

> <PUBCHEM_EXT_DATASOURCE_REGID>
SCHEMBL16110169

> <PUBCHEM_SUBSTANCE_COMMENT>
InChI=1S/C12H13NO/c1-12(2,14)11-5-3-4-9-8-13-7-6-10(9)11/h3-8,14H,1-2H3
InChIKey=UTDIXBPPVGAHEV-UHFFFAOYSA-N

> <PUBCHEM_SUBSTANCE_SYNONYM>
SCHEMBL16110169

> <PUBCHEM_XREF_EXT_ID>
SCHEMBL16110169

> <PUBCHEM_EXT_DATASOURCE_URL>
https://www.surechembl.org/

> <PUBCHEM_EXT_SUBSTANCE_URL>
https://www.surechembl.org/chemical/SCHEMBL16110169

> <PUBCHEM_CID_ASSOCIATIONS>
62812975  1

> <PUBCHEM_COORDINATE_TYPE>
1
3

$$$$
