310932007
  -OEChem-07211613022D

 29 32  0     0  0  0  0  0  0999 V2000
    0.7145   -2.8875    0.0000 O   0  0  0  0  0  0  0  0  0  0  0  0
   -1.4681   -2.5519    0.0000 N   0  0  0  0  0  0  0  0  0  0  0  0
    0.0000   -1.6500    0.0000 N   0  0  0  0  0  0  0  0  0  0  0  0
    2.8579    0.0000    0.0000 N   0  0  0  0  0  0  0  0  0  0  0  0
   -2.8452   -6.0229    0.0000 N   0  0  0  0  0  0  0  0  0  0  0  0
   -2.0202   -6.0229    0.0000 N   0  0  0  0  0  0  0  0  0  0  0  0
   -2.0202   -7.4519    0.0000 N   0  0  0  0  0  0  0  0  0  0  0  0
   -0.7827   -6.7374    0.0000 N   0  0  0  0  0  0  0  0  0  0  0  0
   -1.6077   -3.8795    0.0000 C   0  0  0  0  0  0  0  0  0  0  0  0
   -2.0202   -3.1650    0.0000 C   0  0  0  0  0  0  0  0  0  0  0  0
   -0.7145   -2.8875    0.0000 C   0  0  0  0  0  0  0  0  0  0  0  0
   -0.8007   -3.7080    0.0000 C   0  0  0  0  0  0  0  0  0  0  0  0
    0.0000   -2.4750    0.0000 C   0  0  0  0  0  0  0  0  0  0  0  0
   -2.8452   -4.5940    0.0000 C   0  0  0  0  0  0  0  0  0  0  0  0
   -2.0202   -4.5940    0.0000 C   0  0  0  0  0  0  0  0  0  0  0  0
   -2.8452   -3.1650    0.0000 C   0  0  0  0  0  0  0  0  0  0  0  0
   -3.2577   -3.8795    0.0000 C   0  0  0  0  0  0  0  0  0  0  0  0
    0.7145   -1.2375    0.0000 C   0  0  0  0  0  0  0  0  0  0  0  0
    2.1434   -1.2375    0.0000 C   0  0  0  0  0  0  0  0  0  0  0  0
   -3.2577   -5.3084    0.0000 C   0  0  0  0  0  0  0  0  0  0  0  0
    2.1434   -0.4125    0.0000 C   0  0  0  0  0  0  0  0  0  0  0  0
    1.4289   -1.6500    0.0000 C   0  0  0  0  0  0  0  0  0  0  0  0
    0.7145   -0.4125    0.0000 C   0  0  0  0  0  0  0  0  0  0  0  0
    1.4289    0.0000    0.0000 C   0  0  0  0  0  0  0  0  0  0  0  0
    2.8579   -1.6500    0.0000 C   0  0  0  0  0  0  0  0  0  0  0  0
    3.5724   -1.2375    0.0000 C   0  0  0  0  0  0  0  0  0  0  0  0
    3.5724   -0.4125    0.0000 C   0  0  0  0  0  0  0  0  0  0  0  0
   -4.0827   -5.3084    0.0000 C   0  0  0  0  0  0  0  0  0  0  0  0
   -1.6077   -6.7374    0.0000 C   0  0  0  0  0  0  0  0  0  0  0  0
  1 13  2  0  0  0  0
  2 10  1  0  0  0  0
  2 11  1  0  0  0  0
  3 13  1  0  0  0  0
  3 18  1  0  0  0  0
  4 21  1  0  0  0  0
  4 27  2  0  0  0  0
  5  6  1  0  0  0  0
  5 20  2  0  0  0  0
  6 29  1  0  0  0  0
  7 29  2  3  0  0  0
  8 29  1  0  0  0  0
  9 10  1  0  0  0  0
  9 12  1  0  0  0  0
  9 15  2  0  0  0  0
 10 16  2  0  0  0  0
 11 12  2  0  0  0  0
 11 13  1  0  0  0  0
 14 15  1  0  0  0  0
 14 17  2  0  0  0  0
 14 20  1  0  0  0  0
 16 17  1  0  0  0  0
 18 22  1  0  0  0  0
 18 23  2  0  0  0  0
 19 21  1  0  0  0  0
 19 22  2  0  0  0  0
 19 25  1  0  0  0  0
 20 28  1  0  0  0  0
 21 24  2  0  0  0  0
 23 24  1  0  0  0  0
 25 26  2  0  0  0  0
 26 27  1  0  0  0  0
M  END
> <PUBCHEM_COMPOUND_ID_TYPE>
0

> <PUBCHEM_TOTAL_CHARGE>
0

> <PUBCHEM_SUBSTANCE_ID>
310932007

> <PUBCHEM_SUBSTANCE_VERSION>
1

> <PUBCHEM_EXT_DATASOURCE_NAME>
4488

> <PUBCHEM_EXT_DATASOURCE_REGID>
SCHEMBL16109349

> <PUBCHEM_SUBSTANCE_COMMENT>
InChI=1S/C21H19N7O/c1-12(27-28-21(22)23)13-4-6-18-15(9-13)11-19(26-18)20(29)25-16-5-7-17-14(10-16)3-2-8-24-17/h2-11,26H,1H3,(H,25,29)(H4,22,23,28)/b27-12-
InChIKey=OOQQFAYOOBDJLG-PPDIBHTLSA-N

> <PUBCHEM_SUBSTANCE_SYNONYM>
SCHEMBL16109349

> <PUBCHEM_XREF_EXT_ID>
SCHEMBL16109349

> <PUBCHEM_EXT_DATASOURCE_URL>
https://www.surechembl.org/

> <PUBCHEM_EXT_SUBSTANCE_URL>
https://www.surechembl.org/chemical/SCHEMBL16109349

> <PUBCHEM_CID_ASSOCIATIONS>
117600647  1

> <PUBCHEM_COORDINATE_TYPE>
1
3

$$$$
