310932847
  -OEChem-07211613022D

 18 18  0     0  0  0  0  0  0999 V2000
    2.8750   -1.6750    0.0000 O   0  0  0  0  0  0  0  0  0  0  0  0
    2.1500   -0.4250    0.0000 O   0  0  0  0  0  0  0  0  0  0  0  0
    0.7250   -0.4250    0.0000 N   0  0  0  0  0  0  0  0  0  0  0  0
    0.0000   -4.9999    0.0000 N   0  0  0  0  0  0  0  0  0  0  0  0
    1.4249   -1.6750    0.0000 C   0  0  0  0  0  0  0  0  0  0  0  0
    1.4249   -2.5000    0.0000 C   0  0  0  0  0  0  0  0  0  0  0  0
    2.1500   -1.2500    0.0000 C   0  0  0  0  0  0  0  0  0  0  0  0
    0.7250   -2.9249    0.0000 C   0  0  0  0  0  0  0  0  0  0  0  0
    0.7250   -1.2500    0.0000 C   0  0  0  0  0  0  0  0  0  0  0  0
    0.7250   -3.7499    0.0000 C   0  0  0  0  0  0  0  0  0  0  0  0
    2.1500   -2.9249    0.0000 C   0  0  0  0  0  0  0  0  0  0  0  0
    1.4249   -4.1749    0.0000 C   0  0  0  0  0  0  0  0  0  0  0  0
    2.1500   -3.7499    0.0000 C   0  0  0  0  0  0  0  0  0  0  0  0
    0.0000   -4.1749    0.0000 C   0  0  0  0  0  0  0  0  0  0  0  0
    3.5999   -1.2500    0.0000 C   0  0  0  0  0  0  0  0  0  0  0  0
    1.4249    0.0000    0.0000 C   0  0  0  0  0  0  0  0  0  0  0  0
    0.0000    0.0000    0.0000 C   0  0  0  0  0  0  0  0  0  0  0  0
    3.5999   -0.4250    0.0000 C   0  0  0  0  0  0  0  0  0  0  0  0
  1  7  1  0  0  0  0
  1 15  1  0  0  0  0
  2  7  2  0  0  0  0
  3  9  1  0  0  0  0
  3 16  1  0  0  0  0
  3 17  1  0  0  0  0
  4 14  3  0  0  0  0
  5  6  1  0  0  0  0
  5  7  1  0  0  0  0
  5  9  2  0  0  0  0
  6  8  1  0  0  0  0
  6 11  2  0  0  0  0
  8 10  2  0  0  0  0
 10 12  1  0  0  0  0
 10 14  1  0  0  0  0
 11 13  1  0  0  0  0
 12 13  2  0  0  0  0
 15 18  1  0  0  0  0
M  END
> <PUBCHEM_COMPOUND_ID_TYPE>
0

> <PUBCHEM_TOTAL_CHARGE>
0

> <PUBCHEM_SUBSTANCE_ID>
310932847

> <PUBCHEM_SUBSTANCE_VERSION>
1

> <PUBCHEM_EXT_DATASOURCE_NAME>
4488

> <PUBCHEM_EXT_DATASOURCE_REGID>
SCHEMBL16110238

> <PUBCHEM_SUBSTANCE_COMMENT>
InChI=1S/C14H16N2O2/c1-4-18-14(17)13(10-16(2)3)12-7-5-6-11(8-12)9-15/h5-8,10H,4H2,1-3H3/b13-10-
InChIKey=HSCGGYRAILCEIG-RAXLEYEMSA-N

> <PUBCHEM_SUBSTANCE_SYNONYM>
SCHEMBL16110238

> <PUBCHEM_XREF_EXT_ID>
SCHEMBL16110238

> <PUBCHEM_EXT_DATASOURCE_URL>
https://www.surechembl.org/

> <PUBCHEM_EXT_SUBSTANCE_URL>
https://www.surechembl.org/chemical/SCHEMBL16110238

> <PUBCHEM_CID_ASSOCIATIONS>
117601333  1

> <PUBCHEM_COORDINATE_TYPE>
1
3

$$$$
