310935654
  -OEChem-07211613022D

 30 32  0     1  0  0  0  0  0999 V2000
    0.1921    0.7232    0.0000 O   0  0  0  0  0  0  0  0  0  0  0  0
    0.6411   -2.7604    0.0000 O   0  0  0  0  0  0  0  0  0  0  0  0
    5.2219   -1.0932    0.0000 O   0  0  0  0  0  0  0  0  0  0  0  0
    2.8186    0.6595    0.0000 O   0  0  0  0  0  0  0  0  0  0  0  0
    0.6411   -1.1104    0.0000 C   0  0  3  0  0  0  0  0  0  0  0  0
    1.3556   -1.5229    0.0000 C   0  0  3  0  0  0  0  0  0  0  0  0
    2.0701   -1.1104    0.0000 C   0  0  3  0  0  0  0  0  0  0  0  0
    0.6411   -0.2854    0.0000 C   0  0  3  0  0  0  0  0  0  0  0  0
    2.7845   -1.5229    0.0000 C   0  0  3  0  0  0  0  0  0  0  0  0
   -0.1435   -0.0305    0.0000 C   0  0  3  0  0  0  0  0  0  0  0  0
    3.0667   -0.7477    0.0000 C   0  0  3  0  0  0  0  0  0  0  0  0
    2.0701   -0.2854    0.0000 C   0  0  0  0  0  0  0  0  0  0  0  0
    1.3556    0.1271    0.0000 C   0  0  0  0  0  0  0  0  0  0  0  0
   -0.1435   -1.3654    0.0000 C   0  0  0  0  0  0  0  0  0  0  0  0
   -0.6284   -0.6979    0.0000 C   0  0  0  0  0  0  0  0  0  0  0  0
    1.3556   -2.3479    0.0000 C   0  0  0  0  0  0  0  0  0  0  0  0
    3.3148   -2.1549    0.0000 C   0  0  0  0  0  0  0  0  0  0  0  0
    0.5549    0.5350    0.0000 C   0  0  0  0  0  0  0  0  0  0  0  0
    3.8792   -0.6044    0.0000 C   0  0  0  0  0  0  0  0  0  0  0  0
    2.2542   -2.1549    0.0000 C   0  0  0  0  0  0  0  0  0  0  0  0
   -0.8580    0.3820    0.0000 C   0  0  0  0  0  0  0  0  0  0  0  0
    4.4095   -1.2364    0.0000 C   0  0  3  0  0  0  0  0  0  0  0  0
    2.5364   -0.1157    0.0000 C   0  0  0  0  0  0  0  0  0  0  0  0
    4.1273   -2.0117    0.0000 C   0  0  0  0  0  0  0  0  0  0  0  0
   -1.5724    0.7945    0.0000 C   0  0  0  0  0  0  0  0  0  0  0  0
    0.8407   -1.9109    0.0000 H   0  0  0  0  0  0  0  0  0  0  0  0
    1.0734   -2.2982    0.0000 H   0  0  0  0  0  0  0  0  0  0  0  0
    2.0701   -1.9354    0.0000 H   0  0  0  0  0  0  0  0  0  0  0  0
    2.2542   -0.8910    0.0000 H   0  0  0  0  0  0  0  0  0  0  0  0
    4.6916   -0.4612    0.0000 H   0  0  0  0  0  0  0  0  0  0  0  0
 10  1  1  6  0  0  0
  2 16  1  0  0  0  0
 22  3  1  1  0  0  0
  4 23  1  0  0  0  0
  5  6  1  0  0  0  0
  5  8  1  0  0  0  0
  5 14  1  0  0  0  0
  5 26  1  1  0  0  0
  6  7  1  0  0  0  0
  6 16  1  0  0  0  0
  6 27  1  6  0  0  0
  9  7  1  6  0  0  0
  7 12  1  0  0  0  0
  7 28  1  1  0  0  0
  8 10  1  0  0  0  0
  8 13  1  0  0  0  0
  8 18  1  6  0  0  0
  9 11  1  0  0  0  0
  9 17  1  0  0  0  0
  9 20  1  1  0  0  0
 10 15  1  0  0  0  0
 10 21  1  0  0  0  0
 11 19  1  0  0  0  0
 11 23  1  1  0  0  0
 11 29  1  6  0  0  0
 12 13  1  0  0  0  0
 14 15  1  0  0  0  0
 17 24  1  0  0  0  0
 19 22  1  0  0  0  0
 21 25  3  0  0  0  0
 22 24  1  0  0  0  0
 22 30  1  6  0  0  0
M  END
> <PUBCHEM_COMPOUND_ID_TYPE>
0

> <PUBCHEM_TOTAL_CHARGE>
0

> <PUBCHEM_SUBSTANCE_ID>
310935654

> <PUBCHEM_SUBSTANCE_VERSION>
1

> <PUBCHEM_EXT_DATASOURCE_NAME>
4488

> <PUBCHEM_EXT_DATASOURCE_REGID>
SCHEMBL16113233

> <PUBCHEM_SUBSTANCE_COMMENT>
InChI=1S/C21H34O4/c1-4-21(25)10-7-18-16(13-23)17(6-9-20(18,21)3)19(2)8-5-15(24)11-14(19)12-22/h1,14-18,22-25H,5-13H2,2-3H3/t14-,15+,16-,17+,18+,19+,20+,21+/m1/s1
InChIKey=CSLQODJDWOYBAT-GNPNMZQZSA-N

> <PUBCHEM_SUBSTANCE_SYNONYM>
SCHEMBL16113233

> <PUBCHEM_XREF_EXT_ID>
SCHEMBL16113233

> <PUBCHEM_EXT_DATASOURCE_URL>
https://www.surechembl.org/

> <PUBCHEM_EXT_SUBSTANCE_URL>
https://www.surechembl.org/chemical/SCHEMBL16113233

> <PUBCHEM_CID_ASSOCIATIONS>
117603665  1

> <PUBCHEM_COORDINATE_TYPE>
1
3

> <PUBCHEM_BONDANNOTATIONS>
10  1  6
11  23  5
11  29  6
22  30  6
22  3  5
5  26  5
6  27  6
7  28  5
9  7  6
8  18  6
9  20  5

$$$$
