310933638
  -OEChem-07211613022D

 28 30  0     0  0  0  0  0  0999 V2000
    5.5518   -3.2981    0.0000 O   0  0  0  0  0  0  0  0  0  0  0  0
    0.0000   -4.3975    0.0000 O   0  0  0  0  0  0  0  0  0  0  0  0
    3.4080   -1.2093    0.0000 O   0  0  0  0  0  0  0  0  0  0  0  0
    3.9027   -5.3319    0.0000 O   0  0  0  0  0  0  0  0  0  0  0  0
    5.2769   -4.8922    0.0000 O   0  0  0  0  0  0  0  0  0  0  0  0
    1.9789   -0.4123    0.0000 O   0  0  0  0  0  0  0  0  0  0  0  0
    4.2326   -3.9577    0.0000 N   0  0  0  0  0  0  0  0  0  0  0  0
    4.2326   -2.6110    0.0000 N   0  0  0  0  0  0  0  0  0  0  0  0
    1.9789   -1.2368    0.0000 N   0  0  0  0  0  0  0  0  0  0  0  0
    0.4123   -5.1395    0.0000 N   0  0  0  0  0  0  0  0  0  0  0  0
    3.4355   -3.7103    0.0000 C   0  0  0  0  0  0  0  0  0  0  0  0
    3.4355   -2.8583    0.0000 C   0  0  0  0  0  0  0  0  0  0  0  0
    2.7209   -2.4461    0.0000 C   0  0  0  0  0  0  0  0  0  0  0  0
    2.0063   -3.7103    0.0000 C   0  0  0  0  0  0  0  0  0  0  0  0
    4.7273   -3.2981    0.0000 C   0  0  0  0  0  0  0  0  0  0  0  0
    2.7209   -4.1226    0.0000 C   0  0  0  0  0  0  0  0  0  0  0  0
    2.0063   -2.8583    0.0000 C   0  0  0  0  0  0  0  0  0  0  0  0
    1.3192   -4.1226    0.0000 C   0  0  0  0  0  0  0  0  0  0  0  0
    2.6934   -1.6216    0.0000 C   0  0  0  0  0  0  0  0  0  0  0  0
    4.4799   -4.7273    0.0000 C   0  0  0  0  0  0  0  0  0  0  0  0
    0.5497   -3.7928    0.0000 C   0  0  0  0  0  0  0  0  0  0  0  0
    1.2093   -4.9471    0.0000 C   0  0  0  0  0  0  0  0  0  0  0  0
    5.9641   -2.5835    0.0000 C   0  0  0  0  0  0  0  0  0  0  0  0
    0.3573   -2.9958    0.0000 C   0  0  0  0  0  0  0  0  0  0  0  0
    1.8414   -5.4968    0.0000 C   0  0  0  0  0  0  0  0  0  0  0  0
    1.2642   -1.6490    0.0000 C   0  0  0  0  0  0  0  0  0  0  0  0
    5.5518   -1.8689    0.0000 C   0  0  0  0  0  0  0  0  0  0  0  0
    1.2642    0.0000    0.0000 C   0  0  0  0  0  0  0  0  0  0  0  0
  1 15  1  0  0  0  0
  1 23  1  0  0  0  0
  2 10  1  0  0  0  0
  2 21  1  0  0  0  0
  3 19  2  0  0  0  0
  4 20  2  0  0  0  0
  5 20  1  0  0  0  0
  6  9  1  0  0  0  0
  6 28  1  0  0  0  0
  7 11  1  0  0  0  0
  7 15  1  0  0  0  0
  7 20  1  0  0  0  0
  8 12  1  0  0  0  0
  8 15  2  0  0  0  0
  9 19  1  0  0  0  0
  9 26  1  0  0  0  0
 10 22  2  0  0  0  0
 11 12  2  0  0  0  0
 11 16  1  0  0  0  0
 12 13  1  0  0  0  0
 13 17  2  0  0  0  0
 13 19  1  0  0  0  0
 14 16  2  0  0  0  0
 14 17  1  0  0  0  0
 14 18  1  0  0  0  0
 18 21  2  0  0  0  0
 18 22  1  0  0  0  0
 21 24  1  0  0  0  0
 22 25  1  0  0  0  0
 23 27  1  0  0  0  0
M  END
> <PUBCHEM_COMPOUND_ID_TYPE>
0

> <PUBCHEM_TOTAL_CHARGE>
0

> <PUBCHEM_SUBSTANCE_ID>
310933638

> <PUBCHEM_SUBSTANCE_VERSION>
1

> <PUBCHEM_EXT_DATASOURCE_NAME>
4488

> <PUBCHEM_EXT_DATASOURCE_REGID>
SCHEMBL16111069

> <PUBCHEM_SUBSTANCE_COMMENT>
InChI=1S/C18H20N4O6/c1-6-27-17-19-15-12(16(23)21(4)26-5)7-11(8-13(15)22(17)18(24)25)14-9(2)20-28-10(14)3/h7-8H,6H2,1-5H3,(H,24,25)
InChIKey=AOUBYIDSRFZQFD-UHFFFAOYSA-N

> <PUBCHEM_SUBSTANCE_SYNONYM>
SCHEMBL16111069

> <PUBCHEM_XREF_EXT_ID>
SCHEMBL16111069

> <PUBCHEM_EXT_DATASOURCE_URL>
https://www.surechembl.org/

> <PUBCHEM_EXT_SUBSTANCE_URL>
https://www.surechembl.org/chemical/SCHEMBL16111069

> <PUBCHEM_CID_ASSOCIATIONS>
117602011  1

> <PUBCHEM_COORDINATE_TYPE>
1
3

$$$$
