310936510
  -OEChem-07211613022D

 22 26  0     0  0  0  0  0  0999 V2000
    5.6367   -2.2957    0.0000 S   0  0  0  0  0  0  0  0  0  0  0  0
    1.2708   -0.8609    0.0000 O   0  0  0  0  0  0  0  0  0  0  0  0
    2.7056    0.0000    0.0000 O   0  0  0  0  0  0  0  0  0  0  0  0
    5.6367   -0.9839    0.0000 N   0  0  0  0  0  0  0  0  0  0  0  0
    1.9882   -2.0702    0.0000 C   0  0  0  0  0  0  0  0  0  0  0  0
    3.4435   -2.0702    0.0000 C   0  0  0  0  0  0  0  0  0  0  0  0
    2.7056   -2.4392    0.0000 C   0  0  0  0  0  0  0  0  0  0  0  0
    3.4435   -1.2708    0.0000 C   0  0  0  0  0  0  0  0  0  0  0  0
    1.9882   -1.2708    0.0000 C   0  0  0  0  0  0  0  0  0  0  0  0
    2.7056   -0.8404    0.0000 C   0  0  0  0  0  0  0  0  0  0  0  0
    1.3323   -2.4392    0.0000 C   0  0  0  0  0  0  0  0  0  0  0  0
    4.8373   -2.0702    0.0000 C   0  0  0  0  0  0  0  0  0  0  0  0
    4.1814   -2.4392    0.0000 C   0  0  0  0  0  0  0  0  0  0  0  0
    4.8373   -1.2708    0.0000 C   0  0  0  0  0  0  0  0  0  0  0  0
    4.1814   -0.8404    0.0000 C   0  0  0  0  0  0  0  0  0  0  0  0
    1.3323   -3.3205    0.0000 C   0  0  0  0  0  0  0  0  0  0  0  0
    2.7056   -3.3205    0.0000 C   0  0  0  0  0  0  0  0  0  0  0  0
    1.9882   -3.6895    0.0000 C   0  0  0  0  0  0  0  0  0  0  0  0
    0.5125   -2.2137    0.0000 C   0  0  0  0  0  0  0  0  0  0  0  0
    0.5125   -3.5460    0.0000 C   0  0  0  0  0  0  0  0  0  0  0  0
    0.0000   -2.8901    0.0000 C   0  0  0  0  0  0  0  0  0  0  0  0
    6.1491   -1.6397    0.0000 C   0  0  0  0  0  0  0  0  0  0  0  0
  1 12  1  0  0  0  0
  1 22  1  0  0  0  0
  2  9  1  0  0  0  0
  3 10  1  0  0  0  0
  4 14  1  0  0  0  0
  4 22  2  0  0  0  0
  5  7  2  0  0  0  0
  5  9  1  0  0  0  0
  5 11  1  0  0  0  0
  6  7  1  0  0  0  0
  6  8  1  0  0  0  0
  6 13  2  0  0  0  0
  7 17  1  0  0  0  0
  8 10  1  0  0  0  0
  8 15  2  0  0  0  0
  9 10  2  0  0  0  0
 11 16  2  0  0  0  0
 11 19  1  0  0  0  0
 12 13  1  0  0  0  0
 12 14  2  0  0  0  0
 14 15  1  0  0  0  0
 16 18  1  0  0  0  0
 16 20  1  0  0  0  0
 17 18  2  0  0  0  0
 19 21  2  0  0  0  0
 20 21  1  0  0  0  0
M  END
> <PUBCHEM_COMPOUND_ID_TYPE>
0

> <PUBCHEM_TOTAL_CHARGE>
0

> <PUBCHEM_SUBSTANCE_ID>
310936510

> <PUBCHEM_SUBSTANCE_VERSION>
1

> <PUBCHEM_EXT_DATASOURCE_NAME>
4488

> <PUBCHEM_EXT_DATASOURCE_REGID>
SCHEMBL16114161

> <PUBCHEM_SUBSTANCE_COMMENT>
InChI=1S/C18H11NO2S/c20-17-13-6-14-15(22-8-19-14)7-12(13)11-5-4-9-2-1-3-10(9)16(11)18(17)21/h1,3-8,20-21H,2H2
InChIKey=HRUVSSUIZPLSSF-UHFFFAOYSA-N

> <PUBCHEM_SUBSTANCE_SYNONYM>
SCHEMBL16114161

> <PUBCHEM_XREF_EXT_ID>
SCHEMBL16114161

> <PUBCHEM_EXT_DATASOURCE_URL>
https://www.surechembl.org/

> <PUBCHEM_EXT_SUBSTANCE_URL>
https://www.surechembl.org/chemical/SCHEMBL16114161

> <PUBCHEM_CID_ASSOCIATIONS>
117604437  1

> <PUBCHEM_COORDINATE_TYPE>
1
3

$$$$
