310942717
  -OEChem-07211613022D

 18 19  0     0  0  0  0  0  0999 V2000
   -0.2873    0.9124    0.0000 O   0  0  0  0  0  0  0  0  0  0  0  0
   -1.9939   -1.4701    0.0000 O   0  0  0  0  0  0  0  0  0  0  0  0
    2.6191   -0.9969    0.0000 O   0  0  0  0  0  0  0  0  0  0  0  0
    1.9770    0.2703    0.0000 O   0  0  0  0  0  0  0  0  0  0  0  0
   -0.9462   -0.4224    0.0000 N   0  0  0  0  0  0  0  0  0  0  0  0
   -1.7574    0.6590    0.0000 C   0  0  0  0  0  0  0  0  0  0  0  0
   -2.2136   -0.0338    0.0000 C   0  0  0  0  0  0  0  0  0  0  0  0
   -0.9631    0.3887    0.0000 C   0  0  0  0  0  0  0  0  0  0  0  0
   -1.7236   -0.6590    0.0000 C   0  0  0  0  0  0  0  0  0  0  0  0
   -2.0953    1.4025    0.0000 C   0  0  0  0  0  0  0  0  0  0  0  0
   -3.0416    0.0676    0.0000 C   0  0  0  0  0  0  0  0  0  0  0  0
   -0.2197   -0.8786    0.0000 C   0  0  0  0  0  0  0  0  0  0  0  0
   -2.9232    1.4701    0.0000 C   0  0  0  0  0  0  0  0  0  0  0  0
   -3.3795    0.8111    0.0000 C   0  0  0  0  0  0  0  0  0  0  0  0
    0.5070   -0.4900    0.0000 C   0  0  0  0  0  0  0  0  0  0  0  0
    1.2166   -0.9293    0.0000 C   0  0  0  0  0  0  0  0  0  0  0  0
    1.9094   -0.5746    0.0000 C   0  0  0  0  0  0  0  0  0  0  0  0
    3.3795   -0.6084    0.0000 C   0  0  0  0  0  0  0  0  0  0  0  0
  1  8  2  0  0  0  0
  2  9  2  0  0  0  0
  3 17  1  0  0  0  0
  3 18  1  0  0  0  0
  4 17  2  0  0  0  0
  5  8  1  0  0  0  0
  5  9  1  0  0  0  0
  5 12  1  0  0  0  0
  6  7  2  0  0  0  0
  6  8  1  0  0  0  0
  6 10  1  0  0  0  0
  7  9  1  0  0  0  0
  7 11  1  0  0  0  0
 10 13  2  0  0  0  0
 11 14  2  0  0  0  0
 12 15  1  0  0  0  0
 13 14  1  0  0  0  0
 15 16  2  0  0  0  0
 16 17  1  0  0  0  0
M  END
> <PUBCHEM_COMPOUND_ID_TYPE>
0

> <PUBCHEM_TOTAL_CHARGE>
0

> <PUBCHEM_SUBSTANCE_ID>
310942717

> <PUBCHEM_SUBSTANCE_VERSION>
1

> <PUBCHEM_EXT_DATASOURCE_NAME>
4488

> <PUBCHEM_EXT_DATASOURCE_REGID>
SCHEMBL16120763

> <PUBCHEM_SUBSTANCE_COMMENT>
InChI=1S/C13H11NO4/c1-18-11(15)7-4-8-14-12(16)9-5-2-3-6-10(9)13(14)17/h2-7H,8H2,1H3/b7-4+
InChIKey=LLDZOOUNGYCZSH-QPJJXVBHSA-N

> <PUBCHEM_SUBSTANCE_SYNONYM>
SCHEMBL16120763

> <PUBCHEM_XREF_EXT_ID>
SCHEMBL16120763

> <PUBCHEM_EXT_DATASOURCE_URL>
https://www.surechembl.org/

> <PUBCHEM_EXT_SUBSTANCE_URL>
https://www.surechembl.org/chemical/SCHEMBL16120763

> <PUBCHEM_CID_ASSOCIATIONS>
839217  1

> <PUBCHEM_COORDINATE_TYPE>
1
3

$$$$
