310934589
  -OEChem-07211613022D

 28 30  0     0  0  0  0  0  0999 V2000
    5.0598   -0.8245    0.0000 S   0  0  0  0  0  0  0  0  0  0  0  0
    4.3103   -4.5726    0.0000 O   0  0  0  0  0  0  0  0  0  0  0  0
    5.7720   -4.5726    0.0000 O   0  0  0  0  0  0  0  0  0  0  0  0
    5.8844   -0.8245    0.0000 O   0  0  0  0  0  0  0  0  0  0  0  0
    4.1978   -0.8245    0.0000 O   0  0  0  0  0  0  0  0  0  0  0  0
    2.9234   -3.7481    0.0000 O   0  0  0  0  0  0  0  0  0  0  0  0
    5.0598   -1.6491    0.0000 N   0  0  0  0  0  0  0  0  0  0  0  0
    3.5981   -4.9849    0.0000 N   0  0  0  0  0  0  0  0  0  0  0  0
    5.0598   -3.3357    0.0000 C   0  0  0  0  0  0  0  0  0  0  0  0
    5.8095   -2.9234    0.0000 C   0  0  0  0  0  0  0  0  0  0  0  0
    4.3477   -2.9234    0.0000 C   0  0  0  0  0  0  0  0  0  0  0  0
    5.0598   -4.1603    0.0000 C   0  0  0  0  0  0  0  0  0  0  0  0
    4.3103   -3.7481    0.0000 C   0  0  0  0  0  0  0  0  0  0  0  0
    5.8095   -2.0614    0.0000 C   0  0  0  0  0  0  0  0  0  0  0  0
    4.3477   -2.0614    0.0000 C   0  0  0  0  0  0  0  0  0  0  0  0
    4.4976   -4.7600    0.0000 C   0  0  0  0  0  0  0  0  0  0  0  0
    2.8860   -4.5726    0.0000 C   0  0  0  0  0  0  0  0  0  0  0  0
    2.1364   -5.8095    0.0000 C   0  0  0  0  0  0  0  0  0  0  0  0
    2.1364   -4.9849    0.0000 C   0  0  0  0  0  0  0  0  0  0  0  0
    3.6356   -5.8470    0.0000 C   0  0  0  0  0  0  0  0  0  0  0  0
    1.4242   -6.2592    0.0000 C   0  0  0  0  0  0  0  0  0  0  0  0
    2.8485   -6.2592    0.0000 C   0  0  0  0  0  0  0  0  0  0  0  0
    5.0598    0.0000    0.0000 C   0  0  0  0  0  0  0  0  0  0  0  0
    1.4242   -7.0838    0.0000 C   0  0  0  0  0  0  0  0  0  0  0  0
    0.7122   -5.8470    0.0000 C   0  0  0  0  0  0  0  0  0  0  0  0
    0.7122   -7.4960    0.0000 C   0  0  0  0  0  0  0  0  0  0  0  0
    0.0000   -6.2592    0.0000 C   0  0  0  0  0  0  0  0  0  0  0  0
    0.0000   -7.0838    0.0000 C   0  0  0  0  0  0  0  0  0  0  0  0
  1  4  2  0  0  0  0
  1  5  2  0  0  0  0
  1  7  1  0  0  0  0
  1 23  1  0  0  0  0
  2 12  2  0  0  0  0
  3 12  1  0  0  0  0
  6 17  2  0  0  0  0
  7 14  1  0  0  0  0
  7 15  1  0  0  0  0
  8 16  1  0  0  0  0
  8 17  1  0  0  0  0
  8 20  1  0  0  0  0
  9 10  1  0  0  0  0
  9 11  1  0  0  0  0
  9 12  1  0  0  0  0
  9 13  1  0  0  0  0
 10 14  1  0  0  0  0
 11 15  1  0  0  0  0
 13 16  1  0  0  0  0
 17 19  1  0  0  0  0
 18 19  2  0  0  0  0
 18 21  1  0  0  0  0
 18 22  1  0  0  0  0
 20 22  2  0  0  0  0
 21 24  2  0  0  0  0
 21 25  1  0  0  0  0
 24 26  1  0  0  0  0
 25 27  2  0  0  0  0
 26 28  2  0  0  0  0
 27 28  1  0  0  0  0
M  END
> <PUBCHEM_COMPOUND_ID_TYPE>
0

> <PUBCHEM_TOTAL_CHARGE>
0

> <PUBCHEM_SUBSTANCE_ID>
310934589

> <PUBCHEM_SUBSTANCE_VERSION>
1

> <PUBCHEM_EXT_DATASOURCE_NAME>
4488

> <PUBCHEM_EXT_DATASOURCE_REGID>
SCHEMBL16112081

> <PUBCHEM_SUBSTANCE_COMMENT>
InChI=1S/C20H24N2O5S/c1-28(26,27)22-13-9-20(10-14-22,19(24)25)8-12-21-11-7-17(15-18(21)23)16-5-3-2-4-6-16/h2-7,11,15H,8-10,12-14H2,1H3,(H,24,25)
InChIKey=CMCRDNGKBRYBFU-UHFFFAOYSA-N

> <PUBCHEM_SUBSTANCE_SYNONYM>
SCHEMBL16112081

> <PUBCHEM_XREF_EXT_ID>
SCHEMBL16112081

> <PUBCHEM_EXT_DATASOURCE_URL>
https://www.surechembl.org/

> <PUBCHEM_EXT_SUBSTANCE_URL>
https://www.surechembl.org/chemical/SCHEMBL16112081

> <PUBCHEM_CID_ASSOCIATIONS>
117602774  1

> <PUBCHEM_COORDINATE_TYPE>
1
3

$$$$
