310935822
  -OEChem-07211613022D

 25 27  0     0  0  0  0  0  0999 V2000
    2.4954   -3.5684    0.0000 O   0  0  0  0  0  0  0  0  0  0  0  0
    0.0000   -3.5185    0.0000 O   0  0  0  0  0  0  0  0  0  0  0  0
    3.7181   -2.8448    0.0000 N   0  0  0  0  0  0  0  0  0  0  0  0
    0.0499   -2.0961    0.0000 N   0  0  0  0  0  0  0  0  0  0  0  0
    6.2385   -1.4224    0.0000 N   0  0  0  0  0  0  0  0  0  0  0  0
    6.2385    0.0000    0.0000 N   0  0  0  0  0  0  0  0  0  0  0  0
    7.4862   -0.6987    0.0000 N   0  0  0  0  0  0  0  0  0  0  0  0
    2.5204   -2.1461    0.0000 C   0  0  0  0  0  0  0  0  0  0  0  0
    1.6720   -2.1211    0.0000 C   0  0  0  0  0  0  0  0  0  0  0  0
    2.8947   -2.8697    0.0000 C   0  0  0  0  0  0  0  0  0  0  0  0
    3.7431   -1.4224    0.0000 C   0  0  0  0  0  0  0  0  0  0  0  0
    2.9196   -1.4473    0.0000 C   0  0  0  0  0  0  0  0  0  0  0  0
    1.2726   -2.8448    0.0000 C   0  0  0  0  0  0  0  0  0  0  0  0
    4.1424   -2.1461    0.0000 C   0  0  0  0  0  0  0  0  0  0  0  0
    1.2976   -1.4224    0.0000 C   0  0  0  0  0  0  0  0  0  0  0  0
    4.1673   -0.6987    0.0000 C   0  0  0  0  0  0  0  0  0  0  0  0
    0.4491   -2.7949    0.0000 C   0  0  0  0  0  0  0  0  0  0  0  0
    4.9908   -0.6987    0.0000 C   0  0  0  0  0  0  0  0  0  0  0  0
    0.4741   -1.3725    0.0000 C   0  0  0  0  0  0  0  0  0  0  0  0
    5.4151   -1.4224    0.0000 C   0  0  0  0  0  0  0  0  0  0  0  0
    5.4151    0.0000    0.0000 C   0  0  0  0  0  0  0  0  0  0  0  0
    6.6627   -0.6987    0.0000 C   0  0  0  0  0  0  0  0  0  0  0  0
    2.8947   -4.3171    0.0000 C   0  0  0  0  0  0  0  0  0  0  0  0
    0.3993   -4.2172    0.0000 C   0  0  0  0  0  0  0  0  0  0  0  0
    1.2227   -4.2672    0.0000 C   0  0  0  0  0  0  0  0  0  0  0  0
  1 10  1  0  0  0  0
  1 23  1  0  0  0  0
  2 17  1  0  0  0  0
  2 24  1  0  0  0  0
  3 10  2  0  0  0  0
  3 14  1  0  0  0  0
  4 17  1  0  0  0  0
  4 19  2  0  0  0  0
  5 20  2  0  0  0  0
  5 22  1  0  0  0  0
  6 21  1  0  0  0  0
  6 22  2  0  0  0  0
  7 22  1  0  0  0  0
  8  9  1  0  0  0  0
  8 10  1  0  0  0  0
  8 12  2  0  0  0  0
  9 13  1  0  0  0  0
  9 15  2  0  0  0  0
 11 12  1  0  0  0  0
 11 14  2  0  0  0  0
 11 16  1  0  0  0  0
 13 17  2  0  0  0  0
 15 19  1  0  0  0  0
 16 18  1  0  0  0  0
 18 20  1  0  0  0  0
 18 21  2  0  0  0  0
 24 25  1  0  0  0  0
M  END
> <PUBCHEM_COMPOUND_ID_TYPE>
0

> <PUBCHEM_TOTAL_CHARGE>
0

> <PUBCHEM_SUBSTANCE_ID>
310935822

> <PUBCHEM_SUBSTANCE_VERSION>
1

> <PUBCHEM_EXT_DATASOURCE_NAME>
4488

> <PUBCHEM_EXT_DATASOURCE_REGID>
SCHEMBL16113412

> <PUBCHEM_SUBSTANCE_COMMENT>
InChI=1S/C18H19N5O2/c1-3-25-16-8-14(4-5-20-16)15-7-12(9-21-17(15)24-2)6-13-10-22-18(19)23-11-13/h4-5,7-11H,3,6H2,1-2H3,(H2,19,22,23)
InChIKey=RHYSKZLZPLNJDP-UHFFFAOYSA-N

> <PUBCHEM_SUBSTANCE_SYNONYM>
SCHEMBL16113412

> <PUBCHEM_XREF_EXT_ID>
SCHEMBL16113412

> <PUBCHEM_EXT_DATASOURCE_URL>
https://www.surechembl.org/

> <PUBCHEM_EXT_SUBSTANCE_URL>
https://www.surechembl.org/chemical/SCHEMBL16113412

> <PUBCHEM_CID_ASSOCIATIONS>
117603813  1

> <PUBCHEM_COORDINATE_TYPE>
1
3

$$$$
