310949508
  -OEChem-07211613022D

 26 28  0     0  0  0  0  0  0999 V2000
   -0.3082    1.7107    0.0000 S   0  0  0  0  0  0  0  0  0  0  0  0
    1.0326   -3.3443    0.0000 F   0  0  0  0  0  0  0  0  0  0  0  0
    2.4812   -2.5275    0.0000 F   0  0  0  0  0  0  0  0  0  0  0  0
   -0.6936    2.4350    0.0000 O   0  0  0  0  0  0  0  0  0  0  0  0
    0.0925    0.9709    0.0000 O   0  0  0  0  0  0  0  0  0  0  0  0
    1.8802    2.9127    0.0000 O   0  0  0  0  0  0  0  0  0  0  0  0
   -1.0788   -1.2021    0.0000 O   0  0  0  0  0  0  0  0  0  0  0  0
    0.4160    2.1114    0.0000 N   0  0  0  0  0  0  0  0  0  0  0  0
   -0.3390    0.0462    0.0000 N   0  0  0  0  0  0  0  0  0  0  0  0
   -1.0480    1.3100    0.0000 C   0  0  0  0  0  0  0  0  0  0  0  0
   -1.0480    0.4931    0.0000 C   0  0  0  0  0  0  0  0  0  0  0  0
   -1.7569    1.7260    0.0000 C   0  0  0  0  0  0  0  0  0  0  0  0
   -0.3544   -0.7860    0.0000 C   0  0  0  0  0  0  0  0  0  0  0  0
   -1.7569    0.0771    0.0000 C   0  0  0  0  0  0  0  0  0  0  0  0
    0.3390   -1.2329    0.0000 C   0  0  0  0  0  0  0  0  0  0  0  0
    0.4469    2.9436    0.0000 C   0  0  0  0  0  0  0  0  0  0  0  0
    1.1250    1.6952    0.0000 C   0  0  0  0  0  0  0  0  0  0  0  0
   -2.4504    1.3408    0.0000 C   0  0  0  0  0  0  0  0  0  0  0  0
   -2.4812    0.5085    0.0000 C   0  0  0  0  0  0  0  0  0  0  0  0
    0.3544   -2.0806    0.0000 C   0  0  0  0  0  0  0  0  0  0  0  0
    1.0326   -2.4966    0.0000 C   0  0  0  0  0  0  0  0  0  0  0  0
    1.0788   -0.8476    0.0000 C   0  0  0  0  0  0  0  0  0  0  0  0
    1.1405    3.3443    0.0000 C   0  0  0  0  0  0  0  0  0  0  0  0
    1.8493    2.0806    0.0000 C   0  0  0  0  0  0  0  0  0  0  0  0
    1.7569   -2.0960    0.0000 C   0  0  0  0  0  0  0  0  0  0  0  0
    1.7723   -1.2638    0.0000 C   0  0  0  0  0  0  0  0  0  0  0  0
  1  4  2  0  0  0  0
  1  5  2  0  0  0  0
  1  8  1  0  0  0  0
  1 10  1  0  0  0  0
  2 21  1  0  0  0  0
  3 25  1  0  0  0  0
  6 23  1  0  0  0  0
  6 24  1  0  0  0  0
  7 13  2  0  0  0  0
  8 16  1  0  0  0  0
  8 17  1  0  0  0  0
  9 11  1  0  0  0  0
  9 13  1  0  0  0  0
 10 11  1  0  0  0  0
 10 12  2  0  0  0  0
 11 14  2  0  0  0  0
 12 18  1  0  0  0  0
 13 15  1  0  0  0  0
 14 19  1  0  0  0  0
 15 20  1  0  0  0  0
 15 22  2  0  0  0  0
 16 23  1  0  0  0  0
 17 24  1  0  0  0  0
 18 19  2  0  0  0  0
 20 21  2  0  0  0  0
 21 25  1  0  0  0  0
 22 26  1  0  0  0  0
 25 26  2  0  0  0  0
M  END
> <PUBCHEM_COMPOUND_ID_TYPE>
0

> <PUBCHEM_TOTAL_CHARGE>
0

> <PUBCHEM_SUBSTANCE_ID>
310949508

> <PUBCHEM_SUBSTANCE_VERSION>
1

> <PUBCHEM_EXT_DATASOURCE_NAME>
4488

> <PUBCHEM_EXT_DATASOURCE_REGID>
SCHEMBL16127703

> <PUBCHEM_SUBSTANCE_COMMENT>
InChI=1S/C17H16F2N2O4S/c18-13-6-5-12(11-14(13)19)17(22)20-15-3-1-2-4-16(15)26(23,24)21-7-9-25-10-8-21/h1-6,11H,7-10H2,(H,20,22)
InChIKey=MGHFSPWIWNJVHS-UHFFFAOYSA-N

> <PUBCHEM_SUBSTANCE_SYNONYM>
SCHEMBL16127703

> <PUBCHEM_XREF_EXT_ID>
SCHEMBL16127703

> <PUBCHEM_EXT_DATASOURCE_URL>
https://www.surechembl.org/

> <PUBCHEM_EXT_SUBSTANCE_URL>
https://www.surechembl.org/chemical/SCHEMBL16127703

> <PUBCHEM_CID_ASSOCIATIONS>
117614945  1

> <PUBCHEM_COORDINATE_TYPE>
1
3

$$$$
