310932433
  -OEChem-07211613022D

 33 37  0     0  0  0  0  0  0999 V2000
    3.5690   -2.4785    0.0000 O   0  0  0  0  0  0  0  0  0  0  0  0
    3.5690   -0.8427    0.0000 O   0  0  0  0  0  0  0  0  0  0  0  0
    0.7436   -3.2716    0.0000 N   0  0  0  0  0  0  0  0  0  0  0  0
    0.0000   -2.0819    0.0000 N   0  0  0  0  0  0  0  0  0  0  0  0
    0.7436   -0.8427    0.0000 N   0  0  0  0  0  0  0  0  0  0  0  0
    0.7436   -4.9570    0.0000 N   0  0  0  0  0  0  0  0  0  0  0  0
    0.0496   -6.1962    0.0000 N   0  0  0  0  0  0  0  0  0  0  0  0
    1.4375   -6.1962    0.0000 N   0  0  0  0  0  0  0  0  0  0  0  0
    1.4375   -2.0819    0.0000 C   0  0  0  0  0  0  0  0  0  0  0  0
    0.7436   -2.4785    0.0000 C   0  0  0  0  0  0  0  0  0  0  0  0
    1.4375   -1.2392    0.0000 C   0  0  0  0  0  0  0  0  0  0  0  0
    2.1315   -2.4785    0.0000 C   0  0  0  0  0  0  0  0  0  0  0  0
    2.8751   -2.0819    0.0000 C   0  0  0  0  0  0  0  0  0  0  0  0
    2.8751   -1.2392    0.0000 C   0  0  0  0  0  0  0  0  0  0  0  0
    2.1315   -0.8427    0.0000 C   0  0  0  0  0  0  0  0  0  0  0  0
    0.0000   -3.7177    0.0000 C   0  0  0  0  0  0  0  0  0  0  0  0
    1.4375   -3.7177    0.0000 C   0  0  0  0  0  0  0  0  0  0  0  0
    0.0000   -1.2392    0.0000 C   0  0  0  0  0  0  0  0  0  0  0  0
    0.7436   -5.7501    0.0000 C   0  0  0  0  0  0  0  0  0  0  0  0
    1.4375   -4.5109    0.0000 C   0  0  0  0  0  0  0  0  0  0  0  0
    0.0000   -4.5109    0.0000 C   0  0  0  0  0  0  0  0  0  0  0  0
    0.7436   -7.4355    0.0000 C   0  0  0  0  0  0  0  0  0  0  0  0
    0.0496   -6.9894    0.0000 C   0  0  0  0  0  0  0  0  0  0  0  0
    1.4375   -6.9894    0.0000 C   0  0  0  0  0  0  0  0  0  0  0  0
    0.7436   -8.2782    0.0000 C   0  0  0  0  0  0  0  0  0  0  0  0
    4.2630   -2.0324    0.0000 C   0  0  0  0  0  0  0  0  0  0  0  0
    3.5690    0.0000    0.0000 C   0  0  0  0  0  0  0  0  0  0  0  0
    1.4375   -8.6748    0.0000 C   0  0  0  0  0  0  0  0  0  0  0  0
    1.4375   -9.5174    0.0000 C   0  0  0  0  0  0  0  0  0  0  0  0
    2.1811   -8.2782    0.0000 C   0  0  0  0  0  0  0  0  0  0  0  0
    2.1811   -9.9140    0.0000 C   0  0  0  0  0  0  0  0  0  0  0  0
    2.8751   -8.6748    0.0000 C   0  0  0  0  0  0  0  0  0  0  0  0
    2.8751   -9.5174    0.0000 C   0  0  0  0  0  0  0  0  0  0  0  0
  1 13  1  0  0  0  0
  1 26  1  0  0  0  0
  2 14  1  0  0  0  0
  2 27  1  0  0  0  0
  3 10  1  0  0  0  0
  3 16  1  0  0  0  0
  3 17  1  0  0  0  0
  4 10  1  0  0  0  0
  4 18  2  0  0  0  0
  5 11  2  0  0  0  0
  5 18  1  0  0  0  0
  6 19  1  0  0  0  0
  6 20  1  0  0  0  0
  6 21  1  0  0  0  0
  7 19  2  0  0  0  0
  7 23  1  0  0  0  0
  8 19  1  0  0  0  0
  8 24  2  0  0  0  0
  9 10  2  0  0  0  0
  9 11  1  0  0  0  0
  9 12  1  0  0  0  0
 11 15  1  0  0  0  0
 12 13  2  0  0  0  0
 13 14  1  0  0  0  0
 14 15  2  0  0  0  0
 16 21  1  0  0  0  0
 17 20  1  0  0  0  0
 22 23  2  0  0  0  0
 22 24  1  0  0  0  0
 22 25  1  0  0  0  0
 25 28  1  0  0  0  0
 28 29  2  0  0  0  0
 28 30  1  0  0  0  0
 29 31  1  0  0  0  0
 30 32  2  0  0  0  0
 31 33  2  0  0  0  0
 32 33  1  0  0  0  0
M  END
> <PUBCHEM_COMPOUND_ID_TYPE>
0

> <PUBCHEM_TOTAL_CHARGE>
0

> <PUBCHEM_SUBSTANCE_ID>
310932433

> <PUBCHEM_SUBSTANCE_VERSION>
1

> <PUBCHEM_EXT_DATASOURCE_NAME>
4488

> <PUBCHEM_EXT_DATASOURCE_REGID>
SCHEMBL16109801

> <PUBCHEM_SUBSTANCE_COMMENT>
InChI=1S/C25H26N6O2/c1-32-22-13-20-21(14-23(22)33-2)28-17-29-24(20)30-8-10-31(11-9-30)25-26-15-19(16-27-25)12-18-6-4-3-5-7-18/h3-7,13-17H,8-12H2,1-2H3
InChIKey=VSZPUIIVZZARBI-UHFFFAOYSA-N

> <PUBCHEM_SUBSTANCE_SYNONYM>
SCHEMBL16109801

> <PUBCHEM_XREF_EXT_ID>
SCHEMBL16109801

> <PUBCHEM_EXT_DATASOURCE_URL>
https://www.surechembl.org/

> <PUBCHEM_EXT_SUBSTANCE_URL>
https://www.surechembl.org/chemical/SCHEMBL16109801

> <PUBCHEM_CID_ASSOCIATIONS>
86296412  1

> <PUBCHEM_COORDINATE_TYPE>
1
3

$$$$
