310942634
  -OEChem-07211613022D

 35 40  0     1  0  0  0  0  0999 V2000
    0.3171    2.2428    0.0000 Br  0  0  0  0  0  0  0  0  0  0  0  0
    0.1779   -0.2320    0.0000 O   0  0  0  0  0  0  0  0  0  0  0  0
    0.8584   -2.3202    0.0000 O   0  0  0  0  0  0  0  0  0  0  0  0
   -0.4872   -2.3357    0.0000 O   0  0  0  0  0  0  0  0  0  0  0  0
   -0.7193    1.9025    0.0000 O   0  0  0  0  0  0  0  0  0  0  0  0
   -2.1268   -0.6651    0.0000 O   0  0  0  0  0  0  0  0  0  0  0  0
    0.8584    0.0928    0.0000 N   0  0  0  0  0  0  0  0  0  0  0  0
   -1.2142    0.5105    0.0000 N   0  0  0  0  0  0  0  0  0  0  0  0
    2.3743   -0.0464    0.0000 N   0  0  0  0  0  0  0  0  0  0  0  0
    3.1013    1.2220    0.0000 N   0  0  0  0  0  0  0  0  0  0  0  0
    2.3434    2.4594    0.0000 N   0  0  0  0  0  0  0  0  0  0  0  0
    3.0550    2.8461    0.0000 N   0  3  0  0  0  0  0  0  0  0  0  0
    3.7819    3.2018    0.0000 N   0  5  0  0  0  0  0  0  0  0  0  0
    0.5955   -1.5159    0.0000 C   0  0  3  0  0  0  0  0  0  0  0  0
    0.8584   -0.7115    0.0000 C   0  0  3  0  0  0  0  0  0  0  0  0
   -0.2243   -1.5159    0.0000 C   0  0  3  0  0  0  0  0  0  0  0  0
   -0.4718   -0.7115    0.0000 C   0  0  3  0  0  0  0  0  0  0  0  0
    1.6164    0.4021    0.0000 C   0  0  0  0  0  0  0  0  0  0  0  0
    0.1933   -2.7842    0.0000 C   0  0  0  0  0  0  0  0  0  0  0  0
    1.6473    1.2374    0.0000 C   0  0  0  0  0  0  0  0  0  0  0  0
    0.8430    1.5004    0.0000 C   0  0  0  0  0  0  0  0  0  0  0  0
    0.3790    0.7889    0.0000 C   0  0  0  0  0  0  0  0  0  0  0  0
   -0.4872    0.0928    0.0000 C   0  0  0  0  0  0  0  0  0  0  0  0
    2.3279    1.6550    0.0000 C   0  0  0  0  0  0  0  0  0  0  0  0
   -1.3380    1.3148    0.0000 C   0  0  0  0  0  0  0  0  0  0  0  0
   -2.0186    0.2011    0.0000 C   0  0  0  0  0  0  0  0  0  0  0  0
   -2.5290    0.7734    0.0000 C   0  0  0  0  0  0  0  0  0  0  0  0
   -2.1578    1.5004    0.0000 C   0  0  0  0  0  0  0  0  0  0  0  0
   -0.5182   -3.2018    0.0000 C   0  0  0  0  0  0  0  0  0  0  0  0
    0.9513   -3.2018    0.0000 C   0  0  0  0  0  0  0  0  0  0  0  0
    3.1013    0.4021    0.0000 C   0  0  0  0  0  0  0  0  0  0  0  0
   -3.3488    0.7889    0.0000 C   0  0  0  0  0  0  0  0  0  0  0  0
   -2.5754    2.2119    0.0000 C   0  0  0  0  0  0  0  0  0  0  0  0
   -3.7819    1.5004    0.0000 C   0  0  0  0  0  0  0  0  0  0  0  0
   -3.3952    2.1964    0.0000 C   0  0  0  0  0  0  0  0  0  0  0  0
  1 21  1  0  0  0  0
 15  2  1  6  0  0  0
  2 17  1  0  0  0  0
 14  3  1  6  0  0  0
  3 19  1  0  0  0  0
 16  4  1  6  0  0  0
  4 19  1  0  0  0  0
  5 25  2  0  0  0  0
  6 26  2  0  0  0  0
  7 15  1  0  0  0  0
  7 18  1  0  0  0  0
  7 22  1  0  0  0  0
  8 23  1  0  0  0  0
  8 25  1  0  0  0  0
  8 26  1  0  0  0  0
  9 18  1  0  0  0  0
  9 31  2  0  0  0  0
 10 24  2  0  0  0  0
 10 31  1  0  0  0  0
 11 12  2  0  0  0  0
 11 24  1  0  0  0  0
 12 13  2  0  0  0  0
 14 15  1  0  0  0  0
 14 16  1  0  0  0  0
 16 17  1  0  0  0  0
 17 23  1  1  0  0  0
 18 20  2  0  0  0  0
 19 29  1  0  0  0  0
 19 30  1  0  0  0  0
 20 21  1  0  0  0  0
 20 24  1  0  0  0  0
 21 22  2  0  0  0  0
 25 28  1  0  0  0  0
 26 27  1  0  0  0  0
 27 28  2  0  0  0  0
 27 32  1  0  0  0  0
 28 33  1  0  0  0  0
 32 34  2  0  0  0  0
 33 35  2  0  0  0  0
 34 35  1  0  0  0  0
M  CHG  2  12   1  13  -1
M  END
> <PUBCHEM_COMPOUND_ID_TYPE>
0

> <PUBCHEM_TOTAL_CHARGE>
0

> <PUBCHEM_SUBSTANCE_ID>
310942634

> <PUBCHEM_SUBSTANCE_VERSION>
1

> <PUBCHEM_EXT_DATASOURCE_NAME>
4488

> <PUBCHEM_EXT_DATASOURCE_REGID>
SCHEMBL16120680

> <PUBCHEM_SUBSTANCE_COMMENT>
InChI=1S/C22H18BrN7O5/c1-22(2)34-15-13(8-30-19(31)10-5-3-4-6-11(10)20(30)32)33-21(16(15)35-22)29-7-12(23)14-17(27-28-24)25-9-26-18(14)29/h3-7,9,13,15-16,21H,8H2,1-2H3/t13-,15-,16-,21-/m1/s1
InChIKey=SXAPUYFVWRMGPL-GJDPQZJCSA-N

> <PUBCHEM_SUBSTANCE_SYNONYM>
SCHEMBL16120680

> <PUBCHEM_XREF_EXT_ID>
SCHEMBL16120680

> <PUBCHEM_EXT_DATASOURCE_URL>
https://www.surechembl.org/

> <PUBCHEM_EXT_SUBSTANCE_URL>
https://www.surechembl.org/chemical/SCHEMBL16120680

> <PUBCHEM_CID_ASSOCIATIONS>
117609166  1

> <PUBCHEM_COORDINATE_TYPE>
1
3

> <PUBCHEM_BONDANNOTATIONS>
17  23  5
15  2  6
14  3  6
16  4  6

$$$$
