310948251
  -OEChem-07211613022D

 45 49  0     0  0  0  0  0  0999 V2000
   -4.4969    1.4461    0.0000 Cl  0  0  0  0  0  0  0  0  0  0  0  0
    2.4631   -1.4461    0.0000 S   0  0  0  0  0  0  0  0  0  0  0  0
   -3.8065    2.6216    0.0000 F   0  0  0  0  0  0  0  0  0  0  0  0
   -3.1907    3.5733    0.0000 F   0  0  0  0  0  0  0  0  0  0  0  0
   -2.2392    2.9389    0.0000 F   0  0  0  0  0  0  0  0  0  0  0  0
    0.5598   -3.5733    0.0000 F   0  0  0  0  0  0  0  0  0  0  0  0
    3.6946    1.1849    0.0000 F   0  0  0  0  0  0  0  0  0  0  0  0
    4.4969    0.0280    0.0000 F   0  0  0  0  0  0  0  0  0  0  0  0
   -1.1569    1.9312    0.0000 O   0  0  0  0  0  0  0  0  0  0  0  0
    3.2841   -1.6140    0.0000 O   0  0  0  0  0  0  0  0  0  0  0  0
    1.7540   -1.2595    0.0000 O   0  0  0  0  0  0  0  0  0  0  0  0
    3.0228    0.0093    0.0000 O   0  0  0  0  0  0  0  0  0  0  0  0
    2.9109   -2.8083    0.0000 O   0  0  0  0  0  0  0  0  0  0  0  0
   -2.1831    0.8117    0.0000 N   0  0  0  0  0  0  0  0  0  0  0  0
   -2.0899    1.6514    0.0000 N   0  0  0  0  0  0  0  0  0  0  0  0
    0.0560    2.4910    0.0000 N   0  0  0  0  0  0  0  0  0  0  0  0
    2.2951    1.2595    0.0000 N   0  0  0  0  0  0  0  0  0  0  0  0
   -0.7837    0.5132    0.0000 C   0  0  0  0  0  0  0  0  0  0  0  0
   -1.5488    0.2519    0.0000 C   0  0  0  0  0  0  0  0  0  0  0  0
   -0.5971    1.3341    0.0000 C   0  0  0  0  0  0  0  0  0  0  0  0
    0.1493    1.6700    0.0000 C   0  0  0  0  0  0  0  0  0  0  0  0
   -0.3545   -0.8490    0.0000 C   0  0  0  0  0  0  0  0  0  0  0  0
   -0.1680   -0.0467    0.0000 C   0  0  0  0  0  0  0  0  0  0  0  0
   -2.8549    1.9873    0.0000 C   0  0  0  0  0  0  0  0  0  0  0  0
    0.2799   -1.4088    0.0000 C   0  0  0  0  0  0  0  0  0  0  0  0
   -1.7167   -0.5691    0.0000 C   0  0  0  0  0  0  0  0  0  0  0  0
   -3.3961    1.3528    0.0000 C   0  0  0  0  0  0  0  0  0  0  0  0
   -3.0042    0.6624    0.0000 C   0  0  0  0  0  0  0  0  0  0  0  0
    1.6980   -1.6886    0.0000 C   0  0  0  0  0  0  0  0  0  0  0  0
    0.8770    1.2595    0.0000 C   0  0  0  0  0  0  0  0  0  0  0  0
   -1.1195   -1.0916    0.0000 C   0  0  0  0  0  0  0  0  0  0  0  0
   -3.0228    2.7896    0.0000 C   0  0  0  0  0  0  0  0  0  0  0  0
   -0.7464    2.6776    0.0000 C   0  0  0  0  0  0  0  0  0  0  0  0
    1.0823   -1.1662    0.0000 C   0  0  0  0  0  0  0  0  0  0  0  0
    1.4927   -2.5097    0.0000 C   0  0  0  0  0  0  0  0  0  0  0  0
    0.1306   -2.2298    0.0000 C   0  0  0  0  0  0  0  0  0  0  0  0
    0.7277   -2.7522    0.0000 C   0  0  0  0  0  0  0  0  0  0  0  0
    1.5674    1.6514    0.0000 C   0  0  0  0  0  0  0  0  0  0  0  0
    0.8770    0.4198    0.0000 C   0  0  0  0  0  0  0  0  0  0  0  0
    2.1458   -3.0695    0.0000 C   0  0  0  0  0  0  0  0  0  0  0  0
   -1.0636    3.4240    0.0000 C   0  0  0  0  0  0  0  0  0  0  0  0
    1.6047    0.0093    0.0000 C   0  0  0  0  0  0  0  0  0  0  0  0
    2.2951    0.4198    0.0000 C   0  0  0  0  0  0  0  0  0  0  0  0
    2.6496   -0.6251    0.0000 C   0  0  0  0  0  0  0  0  0  0  0  0
    3.7319    0.4198    0.0000 C   0  0  0  0  0  0  0  0  0  0  0  0
  1 27  1  0  0  0  0
  2 10  2  0  0  0  0
  2 11  2  0  0  0  0
  2 29  1  0  0  0  0
  2 44  1  0  0  0  0
  3 32  1  0  0  0  0
  4 32  1  0  0  0  0
  5 32  1  0  0  0  0
  6 37  1  0  0  0  0
  7 45  1  0  0  0  0
  8 45  1  0  0  0  0
  9 20  1  0  0  0  0
  9 33  1  0  0  0  0
 12 43  1  0  0  0  0
 12 45  1  0  0  0  0
 13 40  1  0  0  0  0
 14 15  1  0  0  0  0
 14 19  1  0  0  0  0
 14 28  1  0  0  0  0
 15 24  2  0  0  0  0
 16 21  1  0  0  0  0
 16 33  2  0  0  0  0
 17 38  1  0  0  0  0
 17 43  2  0  0  0  0
 18 19  1  0  0  0  0
 18 20  1  0  0  0  0
 18 23  2  0  0  0  0
 19 26  2  0  0  0  0
 20 21  2  0  0  0  0
 21 30  1  0  0  0  0
 22 23  1  0  0  0  0
 22 25  1  0  0  0  0
 22 31  2  0  0  0  0
 24 27  1  0  0  0  0
 24 32  1  0  0  0  0
 25 34  1  0  0  0  0
 25 36  2  0  0  0  0
 26 31  1  0  0  0  0
 27 28  2  0  0  0  0
 29 34  2  0  0  0  0
 29 35  1  0  0  0  0
 30 38  2  0  0  0  0
 30 39  1  0  0  0  0
 33 41  1  0  0  0  0
 35 37  2  0  0  0  0
 35 40  1  0  0  0  0
 36 37  1  0  0  0  0
 39 42  2  0  0  0  0
 42 43  1  0  0  0  0
M  END
> <PUBCHEM_COMPOUND_ID_TYPE>
0

> <PUBCHEM_TOTAL_CHARGE>
0

> <PUBCHEM_SUBSTANCE_ID>
310948251

> <PUBCHEM_SUBSTANCE_VERSION>
1

> <PUBCHEM_EXT_DATASOURCE_NAME>
4488

> <PUBCHEM_EXT_DATASOURCE_REGID>
SCHEMBL16126428

> <PUBCHEM_SUBSTANCE_COMMENT>
InChI=1S/C28H19ClF6N4O5S/c1-13-37-24(15-4-6-23(36-10-15)44-27(31)32)25(43-13)17-7-14(16-8-20(30)18(12-40)22(9-16)45(2,41)42)3-5-21(17)39-11-19(29)26(38-39)28(33,34)35/h3-11,27,40H,12H2,1-2H3
InChIKey=FNSLHTROQWLNED-UHFFFAOYSA-N

> <PUBCHEM_SUBSTANCE_SYNONYM>
SCHEMBL16126428

> <PUBCHEM_XREF_EXT_ID>
SCHEMBL16126428

> <PUBCHEM_EXT_DATASOURCE_URL>
https://www.surechembl.org/

> <PUBCHEM_EXT_SUBSTANCE_URL>
https://www.surechembl.org/chemical/SCHEMBL16126428

> <PUBCHEM_CID_ASSOCIATIONS>
117613831  1

> <PUBCHEM_COORDINATE_TYPE>
1
3

$$$$
