310946150
  -OEChem-07211613022D

 41 48  0     0  0  0  0  0  0999 V2000
    1.8468    5.8557    0.0000 O   0  0  0  0  0  0  0  0  0  0  0  0
   -0.7677    4.5282    0.0000 N   0  0  0  0  0  0  0  0  0  0  0  0
   -3.2247    2.9277    0.0000 C   0  0  0  0  0  0  0  0  0  0  0  0
   -2.4177    3.0992    0.0000 C   0  0  0  0  0  0  0  0  0  0  0  0
   -2.0052    2.3848    0.0000 C   0  0  0  0  0  0  0  0  0  0  0  0
   -3.3109    2.1072    0.0000 C   0  0  0  0  0  0  0  0  0  0  0  0
   -2.5573    1.7717    0.0000 C   0  0  0  0  0  0  0  0  0  0  0  0
   -1.1802    3.8137    0.0000 C   0  0  0  0  0  0  0  0  0  0  0  0
   -2.0052    3.8137    0.0000 C   0  0  0  0  0  0  0  0  0  0  0  0
   -1.1802    2.3848    0.0000 C   0  0  0  0  0  0  0  0  0  0  0  0
    0.0573    4.5282    0.0000 C   0  0  0  0  0  0  0  0  0  0  0  0
   -0.7677    3.0992    0.0000 C   0  0  0  0  0  0  0  0  0  0  0  0
    1.7073    4.5282    0.0000 C   0  0  0  0  0  0  0  0  0  0  0  0
    1.2948    5.2426    0.0000 C   0  0  0  0  0  0  0  0  0  0  0  0
   -3.9784    1.6223    0.0000 C   0  0  0  0  0  0  0  0  0  0  0  0
   -2.4710    0.9512    0.0000 C   0  0  0  0  0  0  0  0  0  0  0  0
   -1.1802    5.2426    0.0000 C   0  0  0  0  0  0  0  0  0  0  0  0
    2.5142    4.6997    0.0000 C   0  0  0  0  0  0  0  0  0  0  0  0
   -3.2247    3.7527    0.0000 C   0  0  0  0  0  0  0  0  0  0  0  0
   -4.0216    3.1412    0.0000 C   0  0  0  0  0  0  0  0  0  0  0  0
    0.4698    5.2426    0.0000 C   0  0  0  0  0  0  0  0  0  0  0  0
    2.6005    5.5202    0.0000 C   0  0  0  0  0  0  0  0  0  0  0  0
    0.4698    3.8137    0.0000 C   0  0  0  0  0  0  0  0  0  0  0  0
    1.2948    3.8137    0.0000 C   0  0  0  0  0  0  0  0  0  0  0  0
   -3.8921    0.8018    0.0000 C   0  0  0  0  0  0  0  0  0  0  0  0
   -3.1385    0.4663    0.0000 C   0  0  0  0  0  0  0  0  0  0  0  0
   -0.7677    5.9571    0.0000 C   0  0  0  0  0  0  0  0  0  0  0  0
   -2.0052    5.2426    0.0000 C   0  0  0  0  0  0  0  0  0  0  0  0
    3.1817    4.2148    0.0000 C   0  0  0  0  0  0  0  0  0  0  0  0
    3.3542    5.8557    0.0000 C   0  0  0  0  0  0  0  0  0  0  0  0
   -2.0052    6.6716    0.0000 C   0  0  0  0  0  0  0  0  0  0  0  0
   -1.1802    6.6716    0.0000 C   0  0  0  0  0  0  0  0  0  0  0  0
   -2.4177    5.9571    0.0000 C   0  0  0  0  0  0  0  0  0  0  0  0
    3.9354    4.5503    0.0000 C   0  0  0  0  0  0  0  0  0  0  0  0
    4.0216    5.3708    0.0000 C   0  0  0  0  0  0  0  0  0  0  0  0
   -2.4177    7.3861    0.0000 C   0  0  0  0  0  0  0  0  0  0  0  0
   -2.0052    8.1005    0.0000 C   0  0  0  0  0  0  0  0  0  0  0  0
   -3.2427    7.3861    0.0000 C   0  0  0  0  0  0  0  0  0  0  0  0
   -2.4177    8.8150    0.0000 C   0  0  0  0  0  0  0  0  0  0  0  0
   -3.6552    8.1005    0.0000 C   0  0  0  0  0  0  0  0  0  0  0  0
   -3.2427    8.8150    0.0000 C   0  0  0  0  0  0  0  0  0  0  0  0
  1 14  1  0  0  0  0
  1 22  1  0  0  0  0
  2  8  1  0  0  0  0
  2 11  1  0  0  0  0
  2 17  1  0  0  0  0
  3  4  1  0  0  0  0
  3  6  1  0  0  0  0
  3 19  1  0  0  0  0
  3 20  1  0  0  0  0
  4  5  2  0  0  0  0
  4  9  1  0  0  0  0
  5  7  1  0  0  0  0
  5 10  1  0  0  0  0
  6  7  2  0  0  0  0
  6 15  1  0  0  0  0
  7 16  1  0  0  0  0
  8  9  2  0  0  0  0
  8 12  1  0  0  0  0
 10 12  2  0  0  0  0
 11 21  1  0  0  0  0
 11 23  2  0  0  0  0
 13 14  1  0  0  0  0
 13 18  1  0  0  0  0
 13 24  2  0  0  0  0
 14 21  2  0  0  0  0
 15 25  2  0  0  0  0
 16 26  2  0  0  0  0
 17 27  2  0  0  0  0
 17 28  1  0  0  0  0
 18 22  2  0  0  0  0
 18 29  1  0  0  0  0
 22 30  1  0  0  0  0
 23 24  1  0  0  0  0
 25 26  1  0  0  0  0
 27 32  1  0  0  0  0
 28 33  2  0  0  0  0
 29 34  2  0  0  0  0
 30 35  2  0  0  0  0
 31 32  2  0  0  0  0
 31 33  1  0  0  0  0
 31 36  1  0  0  0  0
 34 35  1  0  0  0  0
 36 37  2  0  0  0  0
 36 38  1  0  0  0  0
 37 39  1  0  0  0  0
 38 40  2  0  0  0  0
 39 41  2  0  0  0  0
 40 41  1  0  0  0  0
M  END
> <PUBCHEM_COMPOUND_ID_TYPE>
0

> <PUBCHEM_TOTAL_CHARGE>
0

> <PUBCHEM_SUBSTANCE_ID>
310946150

> <PUBCHEM_SUBSTANCE_VERSION>
1

> <PUBCHEM_EXT_DATASOURCE_NAME>
4488

> <PUBCHEM_EXT_DATASOURCE_REGID>
SCHEMBL16124259

> <PUBCHEM_SUBSTANCE_COMMENT>
InChI=1S/C39H29NO/c1-39(2)35-14-8-6-12-31(35)32-22-20-29(24-36(32)39)40(28-18-16-27(17-19-28)26-10-4-3-5-11-26)30-21-23-34-33-13-7-9-15-37(33)41-38(34)25-30/h3-25H,1-2H3
InChIKey=JSNDEBDWOLQDEP-UHFFFAOYSA-N

> <PUBCHEM_SUBSTANCE_SYNONYM>
SCHEMBL16124259

> <PUBCHEM_XREF_EXT_ID>
SCHEMBL16124259

> <PUBCHEM_EXT_DATASOURCE_URL>
https://www.surechembl.org/

> <PUBCHEM_EXT_SUBSTANCE_URL>
https://www.surechembl.org/chemical/SCHEMBL16124259

> <PUBCHEM_CID_ASSOCIATIONS>
117612107  1

> <PUBCHEM_COORDINATE_TYPE>
1
3

$$$$
