310948410
  -OEChem-07211613022D

 35 39  0     1  0  0  0  0  0999 V2000
    2.7115   -2.9631    0.0000 F   0  0  0  0  0  0  0  0  0  0  0  0
    3.2893   -3.9322    0.0000 F   0  0  0  0  0  0  0  0  0  0  0  0
    2.2829   -4.4912    0.0000 F   0  0  0  0  0  0  0  0  0  0  0  0
   -2.5624   -3.1868    0.0000 O   0  0  0  0  0  0  0  0  0  0  0  0
   -1.0343   -0.8200    0.0000 N   0  0  0  0  0  0  0  0  0  0  0  0
   -0.5498   -1.5095    0.0000 N   0  0  0  0  0  0  0  0  0  0  0  0
   -0.7734   -2.9818    0.0000 N   0  0  0  0  0  0  0  0  0  0  0  0
   -3.2892   -1.9195    0.0000 N   0  0  0  0  0  0  0  0  0  0  0  0
   -0.0466    2.3854    0.0000 N   0  0  0  0  0  0  0  0  0  0  0  0
    1.1461   -1.0995    0.0000 N   0  0  0  0  0  0  0  0  0  0  0  0
   -1.8543   -1.9008    0.0000 C   0  0  0  0  0  0  0  0  0  0  0  0
   -1.8356   -1.0809    0.0000 C   0  0  0  0  0  0  0  0  0  0  0  0
   -1.0343   -2.1804    0.0000 C   0  0  0  0  0  0  0  0  0  0  0  0
   -0.7734    0.0000    0.0000 C   0  0  3  0  0  0  0  0  0  0  0  0
   -2.5438   -2.3109    0.0000 C   0  0  0  0  0  0  0  0  0  0  0  0
    0.0466    0.1677    0.0000 C   0  0  3  0  0  0  0  0  0  0  0  0
   -2.5811   -0.6709    0.0000 C   0  0  0  0  0  0  0  0  0  0  0  0
   -1.3138    0.6150    0.0000 C   0  0  0  0  0  0  0  0  0  0  0  0
    0.0466   -3.1495    0.0000 C   0  0  0  0  0  0  0  0  0  0  0  0
   -3.2706   -1.0622    0.0000 C   0  0  0  0  0  0  0  0  0  0  0  0
    0.2889    0.9318    0.0000 C   0  0  0  0  0  0  0  0  0  0  0  0
   -0.2702    1.5840    0.0000 C   0  0  3  0  0  0  0  0  0  0  0  0
   -1.0716    1.3977    0.0000 C   0  0  0  0  0  0  0  0  0  0  0  0
    0.6057   -0.4846    0.0000 C   0  0  0  0  0  0  0  0  0  0  0  0
    0.3075   -3.9322    0.0000 C   0  0  0  0  0  0  0  0  0  0  0  0
    0.6057   -2.5345    0.0000 C   0  0  0  0  0  0  0  0  0  0  0  0
    1.6679   -3.4849    0.0000 C   0  0  0  0  0  0  0  0  0  0  0  0
    2.4879   -3.7272    0.0000 C   0  0  0  0  0  0  0  0  0  0  0  0
    1.1274   -4.0999    0.0000 C   0  0  0  0  0  0  0  0  0  0  0  0
    1.4070   -2.7022    0.0000 C   0  0  0  0  0  0  0  0  0  0  0  0
   -0.4566    3.1122    0.0000 C   0  0  3  0  0  0  0  0  0  0  0  0
    0.1584    3.7458    0.0000 C   0  0  0  0  0  0  0  0  0  0  0  0
    0.3448    4.4912    0.0000 C   0  0  0  0  0  0  0  0  0  0  0  0
    0.9039    3.9322    0.0000 C   0  0  0  0  0  0  0  0  0  0  0  0
   -1.2952    3.1122    0.0000 C   0  0  0  0  0  0  0  0  0  0  0  0
  1 28  1  0  0  0  0
  2 28  1  0  0  0  0
  3 28  1  0  0  0  0
  4 15  2  0  0  0  0
  5  6  1  0  0  0  0
  5 12  1  0  0  0  0
 14  5  1  1  0  0  0
  6 13  2  0  0  0  0
  7 13  1  0  0  0  0
  7 19  1  0  0  0  0
  8 15  1  0  0  0  0
  8 20  1  0  0  0  0
 22  9  1  1  0  0  0
  9 31  1  0  0  0  0
 10 24  3  0  0  0  0
 11 12  2  0  0  0  0
 11 13  1  0  0  0  0
 11 15  1  0  0  0  0
 12 17  1  0  0  0  0
 14 16  1  0  0  0  0
 14 18  1  0  0  0  0
 16 21  1  0  0  0  0
 16 24  1  6  0  0  0
 17 20  2  0  0  0  0
 18 23  1  0  0  0  0
 19 25  2  0  0  0  0
 19 26  1  0  0  0  0
 21 22  1  0  0  0  0
 22 23  1  0  0  0  0
 25 29  1  0  0  0  0
 26 30  2  0  0  0  0
 27 28  1  0  0  0  0
 27 29  2  0  0  0  0
 27 30  1  0  0  0  0
 31 32  1  0  0  0  0
 31 35  1  1  0  0  0
 32 33  1  0  0  0  0
 32 34  1  0  0  0  0
 33 34  1  0  0  0  0
M  END
> <PUBCHEM_COMPOUND_ID_TYPE>
0

> <PUBCHEM_TOTAL_CHARGE>
0

> <PUBCHEM_SUBSTANCE_ID>
310948410

> <PUBCHEM_SUBSTANCE_VERSION>
1

> <PUBCHEM_EXT_DATASOURCE_NAME>
4488

> <PUBCHEM_EXT_DATASOURCE_REGID>
SCHEMBL16126591

> <PUBCHEM_SUBSTANCE_COMMENT>
InChI=1S/C25H27F3N6O/c1-14(15-2-3-15)31-19-8-9-20(16(12-19)13-29)34-21-10-11-30-24(35)22(21)23(33-34)32-18-6-4-17(5-7-18)25(26,27)28/h4-7,10-11,14-16,19-20,31H,2-3,8-9,12H2,1H3,(H,30,35)(H,32,33)/t14-,16+,19+,20-/m0/s1
InChIKey=HAOJRYPDUQJHGB-NBPAUJCUSA-N

> <PUBCHEM_SUBSTANCE_SYNONYM>
SCHEMBL16126591

> <PUBCHEM_XREF_EXT_ID>
SCHEMBL16126591

> <PUBCHEM_EXT_DATASOURCE_URL>
https://www.surechembl.org/

> <PUBCHEM_EXT_SUBSTANCE_URL>
https://www.surechembl.org/chemical/SCHEMBL16126591

> <PUBCHEM_CID_ASSOCIATIONS>
117613971  1

> <PUBCHEM_COORDINATE_TYPE>
1
3

> <PUBCHEM_BONDANNOTATIONS>
16  24  6
31  35  5
14  5  5
22  9  5

$$$$
