310940405
  -OEChem-07211613022D

 21 23  0     0  0  0  0  0  0999 V2000
    0.2613   -0.6256    0.0000 O   0  0  0  0  0  0  0  0  0  0  0  0
   -1.4437   -0.3918    0.0000 N   0  0  0  0  0  0  0  0  0  0  0  0
    1.7324    0.2819    0.0000 N   0  0  0  0  0  0  0  0  0  0  0  0
    1.0175   -0.9419    0.0000 C   0  0  0  0  0  0  0  0  0  0  0  0
   -0.2750   -1.2443    0.0000 C   0  0  0  0  0  0  0  0  0  0  0  0
    0.9212   -1.7806    0.0000 C   0  0  0  0  0  0  0  0  0  0  0  0
    0.1100   -1.9318    0.0000 C   0  0  0  0  0  0  0  0  0  0  0  0
    1.7324   -0.5431    0.0000 C   0  0  0  0  0  0  0  0  0  0  0  0
   -1.1138   -1.1343    0.0000 C   0  0  0  0  0  0  0  0  0  0  0  0
   -2.2687   -0.2956    0.0000 C   0  0  0  0  0  0  0  0  0  0  0  0
    2.4474    0.6944    0.0000 C   0  0  0  0  0  0  0  0  0  0  0  0
   -2.5574    0.4606    0.0000 C   0  0  0  0  0  0  0  0  0  0  0  0
    3.1624    0.2819    0.0000 C   0  0  0  0  0  0  0  0  0  0  0  0
   -2.7774   -0.9419    0.0000 C   0  0  0  0  0  0  0  0  0  0  0  0
    2.4474    1.5194    0.0000 C   0  0  0  0  0  0  0  0  0  0  0  0
   -3.3549    0.5981    0.0000 C   0  0  0  0  0  0  0  0  0  0  0  0
    3.8636    0.6806    0.0000 C   0  0  0  0  0  0  0  0  0  0  0  0
   -3.5887   -0.8043    0.0000 C   0  0  0  0  0  0  0  0  0  0  0  0
    3.1624    1.9318    0.0000 C   0  0  0  0  0  0  0  0  0  0  0  0
   -3.8773   -0.0618    0.0000 C   0  0  0  0  0  0  0  0  0  0  0  0
    3.8773    1.5194    0.0000 C   0  0  0  0  0  0  0  0  0  0  0  0
  1  4  1  0  0  0  0
  1  5  1  0  0  0  0
  2  9  2  0  0  0  0
  2 10  1  0  0  0  0
  3  8  2  0  0  0  0
  3 11  1  0  0  0  0
  4  6  2  0  0  0  0
  4  8  1  0  0  0  0
  5  7  2  0  0  0  0
  5  9  1  0  0  0  0
  6  7  1  0  0  0  0
 10 12  2  0  0  0  0
 10 14  1  0  0  0  0
 11 13  2  0  0  0  0
 11 15  1  0  0  0  0
 12 16  1  0  0  0  0
 13 17  1  0  0  0  0
 14 18  2  0  0  0  0
 15 19  2  0  0  0  0
 16 20  2  0  0  0  0
 17 21  2  0  0  0  0
 18 20  1  0  0  0  0
 19 21  1  0  0  0  0
M  END
> <PUBCHEM_COMPOUND_ID_TYPE>
0

> <PUBCHEM_TOTAL_CHARGE>
0

> <PUBCHEM_SUBSTANCE_ID>
310940405

> <PUBCHEM_SUBSTANCE_VERSION>
1

> <PUBCHEM_EXT_DATASOURCE_NAME>
4488

> <PUBCHEM_EXT_DATASOURCE_REGID>
SCHEMBL16118353

> <PUBCHEM_SUBSTANCE_COMMENT>
InChI=1S/C18H14N2O/c1-3-7-15(8-4-1)19-13-17-11-12-18(21-17)14-20-16-9-5-2-6-10-16/h1-14H/b19-13+,20-14+
InChIKey=RYRIDZMUXJWDOD-IWGRKNQJSA-N

> <PUBCHEM_SUBSTANCE_SYNONYM>
SCHEMBL16118353

> <PUBCHEM_XREF_EXT_ID>
SCHEMBL16118353

> <PUBCHEM_EXT_DATASOURCE_URL>
https://www.surechembl.org/

> <PUBCHEM_EXT_SUBSTANCE_URL>
https://www.surechembl.org/chemical/SCHEMBL16118353

> <PUBCHEM_CID_ASSOCIATIONS>
13734816  1

> <PUBCHEM_COORDINATE_TYPE>
1
3

> <PUBCHEM_BONDANNOTATIONS>
10  2  3
3  11  3

$$$$
