310938825
  -OEChem-07211613022D

 39 44  0     1  0  0  0  0  0999 V2000
   -1.4070   -3.5581    0.0000 Br  0  0  0  0  0  0  0  0  0  0  0  0
    4.2652    1.3629    0.0000 O   0  0  0  0  0  0  0  0  0  0  0  0
    3.0277    2.0848    0.0000 O   0  0  0  0  0  0  0  0  0  0  0  0
   -1.9521    1.0682    0.0000 O   0  0  0  0  0  0  0  0  0  0  0  0
    0.9945   -0.4199    0.0000 N   0  0  0  0  0  0  0  0  0  0  0  0
    0.9945    0.9208    0.0000 N   0  0  0  0  0  0  0  0  0  0  0  0
   -3.3960    1.8932    0.0000 N   0  0  0  0  0  0  0  0  0  0  0  0
    3.0129   -0.1547    0.0000 C   0  0  0  0  0  0  0  0  0  0  0  0
    2.3352    0.2431    0.0000 C   0  0  3  0  0  0  0  0  0  0  0  0
    3.0129    0.6409    0.0000 C   0  0  3  0  0  0  0  0  0  0  0  0
    1.4659    0.2284    0.0000 C   0  0  0  0  0  0  0  0  0  0  0  0
    3.4844    1.4070    0.0000 C   0  0  0  0  0  0  0  0  0  0  0  0
    0.1989   -0.1547    0.0000 C   0  0  0  0  0  0  0  0  0  0  0  0
    0.2136    0.6703    0.0000 C   0  0  0  0  0  0  0  0  0  0  0  0
    3.7496   -0.6115    0.0000 C   0  0  0  0  0  0  0  0  0  0  0  0
    3.0424   -1.0240    0.0000 C   0  0  0  0  0  0  0  0  0  0  0  0
    1.2449   -1.2007    0.0000 C   0  0  0  0  0  0  0  0  0  0  0  0
   -0.5083   -0.5672    0.0000 C   0  0  0  0  0  0  0  0  0  0  0  0
   -0.5378    1.0534    0.0000 C   0  0  0  0  0  0  0  0  0  0  0  0
   -1.2302    0.6556    0.0000 C   0  0  0  0  0  0  0  0  0  0  0  0
    0.6556   -1.7901    0.0000 C   0  0  0  0  0  0  0  0  0  0  0  0
   -1.2302   -0.1547    0.0000 C   0  0  0  0  0  0  0  0  0  0  0  0
    4.6777    2.0848    0.0000 C   0  0  0  0  0  0  0  0  0  0  0  0
   -0.1399   -1.5986    0.0000 C   0  0  0  0  0  0  0  0  0  0  0  0
    0.8767   -2.5857    0.0000 C   0  0  0  0  0  0  0  0  0  0  0  0
   -1.9521    1.8932    0.0000 C   0  0  0  0  0  0  0  0  0  0  0  0
   -0.7145   -2.1584    0.0000 C   0  0  0  0  0  0  0  0  0  0  0  0
    0.3020   -3.1602    0.0000 C   0  0  0  0  0  0  0  0  0  0  0  0
   -2.6740    2.3205    0.0000 C   0  0  0  0  0  0  0  0  0  0  0  0
   -0.5083   -2.9392    0.0000 C   0  0  0  0  0  0  0  0  0  0  0  0
    5.5323    2.0995    0.0000 C   0  0  0  0  0  0  0  0  0  0  0  0
   -4.1179    2.3205    0.0000 C   0  0  0  0  0  0  0  0  0  0  0  0
   -4.1032    3.1455    0.0000 C   0  0  0  0  0  0  0  0  0  0  0  0
   -2.6740    3.1455    0.0000 C   0  0  0  0  0  0  0  0  0  0  0  0
   -3.3960    3.5581    0.0000 C   0  0  0  0  0  0  0  0  0  0  0  0
   -4.8104    1.9079    0.0000 C   0  0  0  0  0  0  0  0  0  0  0  0
   -4.8104    3.5433    0.0000 C   0  0  0  0  0  0  0  0  0  0  0  0
   -5.5323    2.3205    0.0000 C   0  0  0  0  0  0  0  0  0  0  0  0
   -5.5323    3.1455    0.0000 C   0  0  0  0  0  0  0  0  0  0  0  0
  1 30  1  0  0  0  0
  2 12  1  0  0  0  0
  2 23  1  0  0  0  0
  3 12  2  0  0  0  0
  4 20  1  0  0  0  0
  4 26  1  0  0  0  0
  5 11  1  0  0  0  0
  5 13  1  0  0  0  0
  5 17  1  0  0  0  0
  6 11  2  0  0  0  0
  6 14  1  0  0  0  0
  7 29  1  0  0  0  0
  7 32  2  0  0  0  0
  8  9  1  0  0  0  0
  8 10  1  0  0  0  0
  8 15  1  0  0  0  0
  8 16  1  0  0  0  0
  9 10  1  0  0  0  0
  9 11  1  6  0  0  0
 10 12  1  6  0  0  0
 13 14  1  0  0  0  0
 13 18  2  0  0  0  0
 14 19  2  0  0  0  0
 17 21  1  0  0  0  0
 18 22  1  0  0  0  0
 19 20  1  0  0  0  0
 20 22  2  0  0  0  0
 21 24  2  0  0  0  0
 21 25  1  0  0  0  0
 23 31  1  0  0  0  0
 24 27  1  0  0  0  0
 25 28  2  0  0  0  0
 26 29  1  0  0  0  0
 27 30  2  0  0  0  0
 28 30  1  0  0  0  0
 29 34  2  0  0  0  0
 32 33  1  0  0  0  0
 32 36  1  0  0  0  0
 33 35  2  0  0  0  0
 33 37  1  0  0  0  0
 34 35  1  0  0  0  0
 36 38  2  0  0  0  0
 37 39  2  0  0  0  0
 38 39  1  0  0  0  0
M  END
> <PUBCHEM_COMPOUND_ID_TYPE>
0

> <PUBCHEM_TOTAL_CHARGE>
0

> <PUBCHEM_SUBSTANCE_ID>
310938825

> <PUBCHEM_SUBSTANCE_VERSION>
1

> <PUBCHEM_EXT_DATASOURCE_NAME>
4488

> <PUBCHEM_EXT_DATASOURCE_REGID>
SCHEMBL16116744

> <PUBCHEM_SUBSTANCE_COMMENT>
InChI=1S/C32H30BrN3O3/c1-4-38-31(37)29-28(32(29,2)3)30-35-26-17-24(39-19-23-14-11-21-7-5-6-8-25(21)34-23)15-16-27(26)36(30)18-20-9-12-22(33)13-10-20/h5-17,28-29H,4,18-19H2,1-3H3/t28-,29+/m0/s1
InChIKey=ODIDXMIZMIVZEL-URLMMPGGSA-N

> <PUBCHEM_SUBSTANCE_SYNONYM>
SCHEMBL16116744

> <PUBCHEM_XREF_EXT_ID>
SCHEMBL16116744

> <PUBCHEM_EXT_DATASOURCE_URL>
https://www.surechembl.org/

> <PUBCHEM_EXT_SUBSTANCE_URL>
https://www.surechembl.org/chemical/SCHEMBL16116744

> <PUBCHEM_CID_ASSOCIATIONS>
117606227  1

> <PUBCHEM_COORDINATE_TYPE>
1
3

> <PUBCHEM_BONDANNOTATIONS>
10  12  6
9  11  6

$$$$
