310935273
  -OEChem-07211613022D

 27 29  0     0  0  0  0  0  0999 V2000
    7.4726   -0.8469    0.0000 F   0  0  0  0  0  0  0  0  0  0  0  0
    3.6616   -0.1744    0.0000 O   0  0  0  0  0  0  0  0  0  0  0  0
    0.7473   -1.6938    0.0000 O   0  0  0  0  0  0  0  0  0  0  0  0
    3.3627   -2.9143    0.0000 O   0  0  0  0  0  0  0  0  0  0  0  0
    4.7078   -2.4660    0.0000 N   0  0  0  0  0  0  0  0  0  0  0  0
    2.8645   -1.2703    0.0000 C   0  0  0  0  0  0  0  0  0  0  0  0
    3.6616   -1.4945    0.0000 C   0  0  0  0  0  0  0  0  0  0  0  0
    4.1598   -0.8469    0.0000 C   0  0  0  0  0  0  0  0  0  0  0  0
    2.8645   -0.3985    0.0000 C   0  0  0  0  0  0  0  0  0  0  0  0
    2.1422   -1.6689    0.0000 C   0  0  0  0  0  0  0  0  0  0  0  0
    4.9817   -0.8469    0.0000 C   0  0  0  0  0  0  0  0  0  0  0  0
    1.4447   -1.2703    0.0000 C   0  0  0  0  0  0  0  0  0  0  0  0
    3.9106   -2.2916    0.0000 C   0  0  0  0  0  0  0  0  0  0  0  0
    2.1422   -0.0249    0.0000 C   0  0  0  0  0  0  0  0  0  0  0  0
    1.4447   -0.3985    0.0000 C   0  0  0  0  0  0  0  0  0  0  0  0
    5.4052   -0.1245    0.0000 C   0  0  0  0  0  0  0  0  0  0  0  0
    5.4052   -1.5443    0.0000 C   0  0  0  0  0  0  0  0  0  0  0  0
    0.7473    0.0000    0.0000 C   0  0  0  0  0  0  0  0  0  0  0  0
    6.2272   -0.1245    0.0000 C   0  0  0  0  0  0  0  0  0  0  0  0
    6.2272   -1.5443    0.0000 C   0  0  0  0  0  0  0  0  0  0  0  0
    6.6506   -0.8469    0.0000 C   0  0  0  0  0  0  0  0  0  0  0  0
    0.7224   -2.5158    0.0000 C   0  0  0  0  0  0  0  0  0  0  0  0
    0.0249   -0.3985    0.0000 C   0  0  0  0  0  0  0  0  0  0  0  0
    4.9817   -3.2381    0.0000 C   0  0  0  0  0  0  0  0  0  0  0  0
    0.0000   -2.9392    0.0000 C   0  0  0  0  0  0  0  0  0  0  0  0
    1.4447   -2.9392    0.0000 C   0  0  0  0  0  0  0  0  0  0  0  0
    0.0249   -1.2454    0.0000 C   0  0  0  0  0  0  0  0  0  0  0  0
  1 21  1  0  0  0  0
  2  8  1  0  0  0  0
  2  9  1  0  0  0  0
  3 12  1  0  0  0  0
  3 22  1  0  0  0  0
  4 13  2  0  0  0  0
  5 13  1  0  0  0  0
  5 24  1  0  0  0  0
  6  7  1  0  0  0  0
  6  9  2  0  0  0  0
  6 10  1  0  0  0  0
  7  8  2  0  0  0  0
  7 13  1  0  0  0  0
  8 11  1  0  0  0  0
  9 14  1  0  0  0  0
 10 12  2  0  0  0  0
 11 16  2  0  0  0  0
 11 17  1  0  0  0  0
 12 15  1  0  0  0  0
 14 15  2  0  0  0  0
 15 18  1  0  0  0  0
 16 19  1  0  0  0  0
 17 20  2  0  0  0  0
 18 23  1  0  0  0  0
 19 21  2  0  0  0  0
 20 21  1  0  0  0  0
 22 25  1  0  0  0  0
 22 26  1  0  0  0  0
 23 27  1  0  0  0  0
M  END
> <PUBCHEM_COMPOUND_ID_TYPE>
0

> <PUBCHEM_TOTAL_CHARGE>
0

> <PUBCHEM_SUBSTANCE_ID>
310935273

> <PUBCHEM_SUBSTANCE_VERSION>
1

> <PUBCHEM_EXT_DATASOURCE_NAME>
4488

> <PUBCHEM_EXT_DATASOURCE_REGID>
SCHEMBL16112805

> <PUBCHEM_SUBSTANCE_COMMENT>
InChI=1S/C22H24FNO3/c1-5-6-15-11-19-17(12-18(15)26-13(2)3)20(22(25)24-4)21(27-19)14-7-9-16(23)10-8-14/h7-13H,5-6H2,1-4H3,(H,24,25)
InChIKey=KXDWGMJBKXWHBB-UHFFFAOYSA-N

> <PUBCHEM_SUBSTANCE_SYNONYM>
SCHEMBL16112805

> <PUBCHEM_XREF_EXT_ID>
SCHEMBL16112805

> <PUBCHEM_EXT_DATASOURCE_URL>
https://www.surechembl.org/

> <PUBCHEM_EXT_SUBSTANCE_URL>
https://www.surechembl.org/chemical/SCHEMBL16112805

> <PUBCHEM_CID_ASSOCIATIONS>
117603343  1

> <PUBCHEM_COORDINATE_TYPE>
1
3

$$$$
