310947381
  -OEChem-07211613022D

 36 40  0     1  0  0  0  0  0999 V2000
   -6.2893   -0.1334    0.0000 Br  0  0  0  0  0  0  0  0  0  0  0  0
    5.7059   -1.2572    0.0000 O   0  0  0  0  0  0  0  0  0  0  0  0
    4.6956   -0.2467    0.0000 O   0  0  0  0  0  0  0  0  0  0  0  0
   -2.0035    2.3414    0.0000 O   0  0  0  0  0  0  0  0  0  0  0  0
    0.9246    0.0240    0.0000 N   0  0  0  0  0  0  0  0  0  0  0  0
    1.4096    0.6914    0.0000 N   0  0  0  0  0  0  0  0  0  0  0  0
   -2.7180    1.1039    0.0000 N   0  0  0  0  0  0  0  0  0  0  0  0
    4.3257   -1.6269    0.0000 C   0  0  0  0  0  0  0  0  0  0  0  0
    3.5288   -1.4134    0.0000 C   0  0  0  0  0  0  0  0  0  0  0  0
    3.9132   -2.3414    0.0000 C   0  0  0  0  0  0  0  0  0  0  0  0
    4.7382   -2.3414    0.0000 C   0  0  0  0  0  0  0  0  0  0  0  0
    4.9091   -1.0436    0.0000 C   0  0  0  0  0  0  0  0  0  0  0  0
    0.1400    0.2789    0.0000 C   0  0  0  0  0  0  0  0  0  0  0  0
    0.1400    1.1039    0.0000 C   0  0  0  0  0  0  0  0  0  0  0  0
    2.9455   -1.9968    0.0000 C   0  0  0  0  0  0  0  0  0  0  0  0
    3.3153   -0.6166    0.0000 C   0  0  0  0  0  0  0  0  0  0  0  0
    0.9246    1.3589    0.0000 C   0  0  0  0  0  0  0  0  0  0  0  0
    1.9350   -0.9864    0.0000 C   0  0  0  0  0  0  0  0  0  0  0  0
    1.1381   -0.7728    0.0000 C   0  0  0  0  0  0  0  0  0  0  0  0
   -0.5744    1.5164    0.0000 C   0  0  0  0  0  0  0  0  0  0  0  0
   -1.2889    1.1039    0.0000 C   0  0  0  0  0  0  0  0  0  0  0  0
    2.1486   -1.7833    0.0000 C   0  0  0  0  0  0  0  0  0  0  0  0
    2.5184   -0.4031    0.0000 C   0  0  0  0  0  0  0  0  0  0  0  0
   -0.5744   -0.1336    0.0000 C   0  0  0  0  0  0  0  0  0  0  0  0
   -1.2889    0.2789    0.0000 C   0  0  0  0  0  0  0  0  0  0  0  0
   -2.0035    1.5164    0.0000 C   0  0  0  0  0  0  0  0  0  0  0  0
    1.3371    2.0734    0.0000 C   0  0  0  0  0  0  0  0  0  0  0  0
    6.2893   -0.6738    0.0000 C   0  0  0  0  0  0  0  0  0  0  0  0
   -3.4323    1.5164    0.0000 C   0  0  3  0  0  0  0  0  0  0  0  0
   -4.1469    1.1039    0.0000 C   0  0  0  0  0  0  0  0  0  0  0  0
   -4.8614    1.5164    0.0000 C   0  0  0  0  0  0  0  0  0  0  0  0
   -4.1469    0.2794    0.0000 C   0  0  0  0  0  0  0  0  0  0  0  0
   -3.4323    2.3410    0.0000 C   0  0  0  0  0  0  0  0  0  0  0  0
   -5.5750    0.2794    0.0000 C   0  0  0  0  0  0  0  0  0  0  0  0
   -5.5758    1.1039    0.0000 C   0  0  0  0  0  0  0  0  0  0  0  0
   -4.8608   -0.1331    0.0000 C   0  0  0  0  0  0  0  0  0  0  0  0
  1 34  1  0  0  0  0
  2 12  1  0  0  0  0
  2 28  1  0  0  0  0
  3 12  2  0  0  0  0
  4 26  2  0  0  0  0
  5  6  1  0  0  0  0
  5 13  1  0  0  0  0
  5 19  1  0  0  0  0
  6 17  2  0  0  0  0
  7 26  1  0  0  0  0
  7 29  1  0  0  0  0
  8  9  1  0  0  0  0
  8 10  1  0  0  0  0
  8 11  1  0  0  0  0
  8 12  1  0  0  0  0
  9 15  2  0  0  0  0
  9 16  1  0  0  0  0
 10 11  1  0  0  0  0
 13 14  1  0  0  0  0
 13 24  2  0  0  0  0
 14 17  1  0  0  0  0
 14 20  2  0  0  0  0
 15 22  1  0  0  0  0
 16 23  2  0  0  0  0
 17 27  1  0  0  0  0
 18 19  1  0  0  0  0
 18 22  2  0  0  0  0
 18 23  1  0  0  0  0
 20 21  1  0  0  0  0
 21 25  2  0  0  0  0
 21 26  1  0  0  0  0
 24 25  1  0  0  0  0
 29 30  1  0  0  0  0
 29 33  1  6  0  0  0
 30 31  2  0  0  0  0
 30 32  1  0  0  0  0
 31 35  1  0  0  0  0
 32 36  2  0  0  0  0
 34 35  2  0  0  0  0
 34 36  1  0  0  0  0
M  END
> <PUBCHEM_COMPOUND_ID_TYPE>
0

> <PUBCHEM_TOTAL_CHARGE>
0

> <PUBCHEM_SUBSTANCE_ID>
310947381

> <PUBCHEM_SUBSTANCE_VERSION>
1

> <PUBCHEM_EXT_DATASOURCE_NAME>
4488

> <PUBCHEM_EXT_DATASOURCE_REGID>
SCHEMBL16125537

> <PUBCHEM_SUBSTANCE_COMMENT>
InChI=1S/C29H28BrN3O3/c1-18(21-6-11-24(30)12-7-21)31-27(34)22-8-13-26-25(16-22)19(2)32-33(26)17-20-4-9-23(10-5-20)29(14-15-29)28(35)36-3/h4-13,16,18H,14-15,17H2,1-3H3,(H,31,34)/t18-/m0/s1
InChIKey=SGSJJHJBTNLUFZ-SFHVURJKSA-N

> <PUBCHEM_SUBSTANCE_SYNONYM>
SCHEMBL16125537

> <PUBCHEM_XREF_EXT_ID>
SCHEMBL16125537

> <PUBCHEM_EXT_DATASOURCE_URL>
https://www.surechembl.org/

> <PUBCHEM_EXT_SUBSTANCE_URL>
https://www.surechembl.org/chemical/SCHEMBL16125537

> <PUBCHEM_CID_ASSOCIATIONS>
117613125  1

> <PUBCHEM_COORDINATE_TYPE>
1
3

> <PUBCHEM_BONDANNOTATIONS>
29  33  6

$$$$
