310945083
  -OEChem-07211613022D

 37 41  0     0  0  0  0  0  0999 V2000
    4.3502   -1.0527    0.0000 O   0  0  0  0  0  0  0  0  0  0  0  0
    3.6391   -2.2936    0.0000 O   0  0  0  0  0  0  0  0  0  0  0  0
   -5.0473   -2.3215    0.0000 N   0  0  0  0  0  0  0  0  0  0  0  0
   -0.7250    0.2161    0.0000 C   0  0  0  0  0  0  0  0  0  0  0  0
   -0.7111    1.0527    0.0000 C   0  0  0  0  0  0  0  0  0  0  0  0
   -1.4361   -0.2022    0.0000 C   0  0  0  0  0  0  0  0  0  0  0  0
   -1.4640    1.4710    0.0000 C   0  0  0  0  0  0  0  0  0  0  0  0
    0.0140   -0.2022    0.0000 C   0  0  0  0  0  0  0  0  0  0  0  0
   -0.0140    1.4570    0.0000 C   0  0  0  0  0  0  0  0  0  0  0  0
   -2.1751    0.1882    0.0000 C   0  0  0  0  0  0  0  0  0  0  0  0
   -1.4501   -1.0387    0.0000 C   0  0  0  0  0  0  0  0  0  0  0  0
   -2.2309    1.2479    0.0000 C   0  0  0  0  0  0  0  0  0  0  0  0
   -1.6732    2.2518    0.0000 C   0  0  0  0  0  0  0  0  0  0  0  0
    0.0140   -1.0248    0.0000 C   0  0  0  0  0  0  0  0  0  0  0  0
    0.7250    0.2022    0.0000 C   0  0  0  0  0  0  0  0  0  0  0  0
   -2.8723   -1.0387    0.0000 C   0  0  0  0  0  0  0  0  0  0  0  0
    0.6971    1.0667    0.0000 C   0  0  0  0  0  0  0  0  0  0  0  0
    0.0140    2.2936    0.0000 C   0  0  0  0  0  0  0  0  0  0  0  0
   -2.4539    2.0287    0.0000 C   0  0  0  0  0  0  0  0  0  0  0  0
   -2.8723   -0.2022    0.0000 C   0  0  0  0  0  0  0  0  0  0  0  0
   -2.1612   -1.4570    0.0000 C   0  0  0  0  0  0  0  0  0  0  0  0
   -3.5973   -1.4570    0.0000 C   0  0  0  0  0  0  0  0  0  0  0  0
    1.4501   -1.0248    0.0000 C   0  0  0  0  0  0  0  0  0  0  0  0
    0.7529   -1.4431    0.0000 C   0  0  0  0  0  0  0  0  0  0  0  0
    1.4501   -0.2022    0.0000 C   0  0  0  0  0  0  0  0  0  0  0  0
    1.4361    1.4570    0.0000 C   0  0  0  0  0  0  0  0  0  0  0  0
    0.7250    2.6979    0.0000 C   0  0  0  0  0  0  0  0  0  0  0  0
    1.4361    2.3076    0.0000 C   0  0  0  0  0  0  0  0  0  0  0  0
   -4.3502   -1.0527    0.0000 C   0  0  0  0  0  0  0  0  0  0  0  0
   -3.6112   -2.3076    0.0000 C   0  0  0  0  0  0  0  0  0  0  0  0
    2.1890   -1.4431    0.0000 C   0  0  0  0  0  0  0  0  0  0  0  0
   -5.0473   -1.4570    0.0000 C   0  0  0  0  0  0  0  0  0  0  0  0
   -4.3362   -2.6979    0.0000 C   0  0  0  0  0  0  0  0  0  0  0  0
    2.9001   -1.0248    0.0000 C   0  0  0  0  0  0  0  0  0  0  0  0
    3.6252   -1.4152    0.0000 C   0  0  0  0  0  0  0  0  0  0  0  0
    5.0473   -1.4849    0.0000 C   0  0  0  0  0  0  0  0  0  0  0  0
    5.0055   -2.3215    0.0000 C   0  0  0  0  0  0  0  0  0  0  0  0
  1 35  1  0  0  0  0
  1 36  1  0  0  0  0
  2 35  2  0  0  0  0
  3 32  2  0  0  0  0
  3 33  1  0  0  0  0
  4  5  2  0  0  0  0
  4  6  1  0  0  0  0
  4  8  1  0  0  0  0
  5  7  1  0  0  0  0
  5  9  1  0  0  0  0
  6 10  2  0  0  0  0
  6 11  1  0  0  0  0
  7 12  1  0  0  0  0
  7 13  1  0  0  0  0
  8 14  2  0  0  0  0
  8 15  1  0  0  0  0
  9 17  2  0  0  0  0
  9 18  1  0  0  0  0
 10 20  1  0  0  0  0
 11 21  2  0  0  0  0
 12 19  1  0  0  0  0
 13 19  1  0  0  0  0
 14 24  1  0  0  0  0
 15 25  2  0  0  0  0
 16 20  2  0  0  0  0
 16 21  1  0  0  0  0
 16 22  1  0  0  0  0
 17 26  1  0  0  0  0
 18 27  2  0  0  0  0
 22 29  2  0  0  0  0
 22 30  1  0  0  0  0
 23 24  2  0  0  0  0
 23 25  1  0  0  0  0
 23 31  1  0  0  0  0
 26 28  2  0  0  0  0
 27 28  1  0  0  0  0
 29 32  1  0  0  0  0
 30 33  2  0  0  0  0
 31 34  2  0  0  0  0
 34 35  1  0  0  0  0
 36 37  1  0  0  0  0
M  END
> <PUBCHEM_COMPOUND_ID_TYPE>
0

> <PUBCHEM_TOTAL_CHARGE>
0

> <PUBCHEM_SUBSTANCE_ID>
310945083

> <PUBCHEM_SUBSTANCE_VERSION>
1

> <PUBCHEM_EXT_DATASOURCE_NAME>
4488

> <PUBCHEM_EXT_DATASOURCE_REGID>
SCHEMBL16123173

> <PUBCHEM_SUBSTANCE_COMMENT>
InChI=1S/C34H31NO2/c1-2-37-32(36)20-13-25-11-14-30(15-12-25)34(33(29-9-6-10-29)28-7-4-3-5-8-28)31-18-16-26(17-19-31)27-21-23-35-24-22-27/h3-5,7-8,11-24,29H,2,6,9-10H2,1H3/b20-13+,34-33-
InChIKey=SVCJGWJNWULFST-UFXMFLMXSA-N

> <PUBCHEM_SUBSTANCE_SYNONYM>
SCHEMBL16123173

> <PUBCHEM_XREF_EXT_ID>
SCHEMBL16123173

> <PUBCHEM_EXT_DATASOURCE_URL>
https://www.surechembl.org/

> <PUBCHEM_EXT_SUBSTANCE_URL>
https://www.surechembl.org/chemical/SCHEMBL16123173

> <PUBCHEM_CID_ASSOCIATIONS>
117611186  1

> <PUBCHEM_COORDINATE_TYPE>
1
3

$$$$
