310940034
  -OEChem-07211613022D

 15 15  0     0  0  0  0  0  0999 V2000
   -6.5823   -1.2413    0.0000 Br  0  0  0  0  0  0  0  0  0  0  0  0
   -6.5823   -2.8914    0.0000 Cl  0  0  0  0  0  0  0  0  0  0  0  0
   -3.7242   -2.8914    0.0000 O   0  0  0  0  0  0  0  0  0  0  0  0
   -2.2953   -0.4162    0.0000 O   0  0  0  0  0  0  0  0  0  0  0  0
   -1.5807   -1.6539    0.0000 O   0  0  0  0  0  0  0  0  0  0  0  0
   -4.4388   -1.6539    0.0000 C   0  0  0  0  0  0  0  0  0  0  0  0
   -4.4388   -2.4788    0.0000 C   0  0  0  0  0  0  0  0  0  0  0  0
   -5.8677   -1.6539    0.0000 C   0  0  0  0  0  0  0  0  0  0  0  0
   -5.8677   -2.4788    0.0000 C   0  0  0  0  0  0  0  0  0  0  0  0
   -5.1533   -1.2413    0.0000 C   0  0  0  0  0  0  0  0  0  0  0  0
   -5.1533   -2.8914    0.0000 C   0  0  0  0  0  0  0  0  0  0  0  0
   -3.7242   -1.2413    0.0000 C   0  0  0  0  0  0  0  0  0  0  0  0
   -3.0098   -1.6539    0.0000 C   0  0  0  0  0  0  0  0  0  0  0  0
   -2.2953   -1.2413    0.0000 C   0  0  0  0  0  0  0  0  0  0  0  0
   -2.9274   -2.6778    0.0000 C   0  0  0  0  0  0  0  0  0  0  0  0
  1  8  1  0  0  0  0
  2  9  1  0  0  0  0
  3  7  1  0  0  0  0
  3 15  1  0  0  0  0
  4 14  2  0  0  0  0
  5 14  1  0  0  0  0
  6  7  1  0  0  0  0
  6 10  2  0  0  0  0
  6 12  1  0  0  0  0
  7 11  2  0  0  0  0
  8  9  2  0  0  0  0
  8 10  1  0  0  0  0
  9 11  1  0  0  0  0
 12 13  1  0  0  0  0
 13 14  1  0  0  0  0
M  END
> <PUBCHEM_COMPOUND_ID_TYPE>
0

> <PUBCHEM_TOTAL_CHARGE>
0

> <PUBCHEM_SUBSTANCE_ID>
310940034

> <PUBCHEM_SUBSTANCE_VERSION>
1

> <PUBCHEM_EXT_DATASOURCE_NAME>
4488

> <PUBCHEM_EXT_DATASOURCE_REGID>
SCHEMBL16117964

> <PUBCHEM_SUBSTANCE_COMMENT>
InChI=1S/C10H10BrClO3/c1-15-9-5-8(12)7(11)4-6(9)2-3-10(13)14/h4-5H,2-3H2,1H3,(H,13,14)
InChIKey=JDMUFCKLGUYSHZ-UHFFFAOYSA-N

> <PUBCHEM_SUBSTANCE_SYNONYM>
SCHEMBL16117964

> <PUBCHEM_XREF_EXT_ID>
SCHEMBL16117964

> <PUBCHEM_EXT_DATASOURCE_URL>
https://www.surechembl.org/

> <PUBCHEM_EXT_SUBSTANCE_URL>
https://www.surechembl.org/chemical/SCHEMBL16117964

> <PUBCHEM_CID_ASSOCIATIONS>
117607186  1

> <PUBCHEM_COORDINATE_TYPE>
1
3

$$$$
