310935326
  -OEChem-07211613022D

 23 25  0     0  0  0  0  0  0999 V2000
    5.9706   -2.2921    0.0000 O   0  0  0  0  0  0  0  0  0  0  0  0
    4.5841   -3.3391    0.0000 O   0  0  0  0  0  0  0  0  0  0  0  0
    7.2723   -0.1981    0.0000 O   0  0  0  0  0  0  0  0  0  0  0  0
    8.4891   -0.9055    0.0000 O   0  0  0  0  0  0  0  0  0  0  0  0
    3.7635   -2.1789    0.0000 N   0  0  0  0  0  0  0  0  0  0  0  0
    5.9706   -0.9621    0.0000 N   0  0  0  0  0  0  0  0  0  0  0  0
    7.2723   -1.6412    0.0000 N   0  0  0  0  0  0  0  0  0  0  0  0
    5.1783   -2.0374    0.0000 C   0  0  0  0  0  0  0  0  0  0  0  0
    4.4992   -2.5184    0.0000 C   0  0  0  0  0  0  0  0  0  0  0  0
    6.4234   -1.6412    0.0000 C   0  0  0  0  0  0  0  0  0  0  0  0
    5.1783   -1.2168    0.0000 C   0  0  0  0  0  0  0  0  0  0  0  0
    2.2637   -1.4997    0.0000 C   0  0  0  0  0  0  0  0  0  0  0  0
    3.0844   -2.6599    0.0000 C   0  0  0  0  0  0  0  0  0  0  0  0
    3.6786   -1.3583    0.0000 C   0  0  0  0  0  0  0  0  0  0  0  0
    2.3203   -2.3203    0.0000 C   0  0  0  0  0  0  0  0  0  0  0  0
    2.9146   -1.0187    0.0000 C   0  0  0  0  0  0  0  0  0  0  0  0
    1.4997   -1.1602    0.0000 C   0  0  0  0  0  0  0  0  0  0  0  0
    7.6685   -0.9055    0.0000 C   0  0  0  0  0  0  0  0  0  0  0  0
    0.8206   -1.6412    0.0000 C   0  0  0  0  0  0  0  0  0  0  0  0
    1.4149   -0.3396    0.0000 C   0  0  0  0  0  0  0  0  0  0  0  0
    0.0849   -1.3017    0.0000 C   0  0  0  0  0  0  0  0  0  0  0  0
    0.6791    0.0000    0.0000 C   0  0  0  0  0  0  0  0  0  0  0  0
    0.0000   -0.4811    0.0000 C   0  0  0  0  0  0  0  0  0  0  0  0
  1  8  1  0  0  0  0
  1 10  1  0  0  0  0
  2  9  2  0  0  0  0
  3 18  2  0  0  0  0
  4 18  1  0  0  0  0
  5  9  1  0  0  0  0
  5 13  1  0  0  0  0
  5 14  1  0  0  0  0
  6 10  2  0  0  0  0
  6 11  1  0  0  0  0
  7 10  1  0  0  0  0
  7 18  1  0  0  0  0
  8  9  1  0  0  0  0
  8 11  2  0  0  0  0
 12 15  1  0  0  0  0
 12 16  1  0  0  0  0
 12 17  1  0  0  0  0
 13 15  1  0  0  0  0
 14 16  1  0  0  0  0
 17 19  2  0  0  0  0
 17 20  1  0  0  0  0
 19 21  1  0  0  0  0
 20 22  2  0  0  0  0
 21 23  2  0  0  0  0
 22 23  1  0  0  0  0
M  END
> <PUBCHEM_COMPOUND_ID_TYPE>
0

> <PUBCHEM_TOTAL_CHARGE>
0

> <PUBCHEM_SUBSTANCE_ID>
310935326

> <PUBCHEM_SUBSTANCE_VERSION>
1

> <PUBCHEM_EXT_DATASOURCE_NAME>
4488

> <PUBCHEM_EXT_DATASOURCE_REGID>
SCHEMBL16112860

> <PUBCHEM_SUBSTANCE_COMMENT>
InChI=1S/C16H17N3O4/c20-14(13-10-17-15(23-13)18-16(21)22)19-8-6-12(7-9-19)11-4-2-1-3-5-11/h1-5,10,12H,6-9H2,(H,17,18)(H,21,22)
InChIKey=YUBWVOMRUUHZTO-UHFFFAOYSA-N

> <PUBCHEM_SUBSTANCE_SYNONYM>
SCHEMBL16112860

> <PUBCHEM_XREF_EXT_ID>
SCHEMBL16112860

> <PUBCHEM_EXT_DATASOURCE_URL>
https://www.surechembl.org/

> <PUBCHEM_EXT_SUBSTANCE_URL>
https://www.surechembl.org/chemical/SCHEMBL16112860

> <PUBCHEM_CID_ASSOCIATIONS>
117603383  1

> <PUBCHEM_COORDINATE_TYPE>
1
3

$$$$
