310940687
  -OEChem-07211613022D

 25 27  0     0  0  0  0  0  0999 V2000
   -3.5328   -0.8539    0.0000 F   0  0  0  0  0  0  0  0  0  0  0  0
    0.7040    1.7143    0.0000 O   0  0  0  0  0  0  0  0  0  0  0  0
    0.0000    0.4367    0.0000 N   0  0  0  0  0  0  0  0  0  0  0  0
    1.4209    0.4367    0.0000 N   0  0  0  0  0  0  0  0  0  0  0  0
    2.1249   -1.7143    0.0000 N   0  0  0  0  0  0  0  0  0  0  0  0
    0.6909    0.8408    0.0000 C   0  0  0  0  0  0  0  0  0  0  0  0
   -1.4079    0.4367    0.0000 C   0  0  0  0  0  0  0  0  0  0  0  0
   -0.7040    0.8669    0.0000 C   0  0  0  0  0  0  0  0  0  0  0  0
    0.0130   -0.4237    0.0000 C   0  0  0  0  0  0  0  0  0  0  0  0
    0.7170   -0.8539    0.0000 C   0  0  0  0  0  0  0  0  0  0  0  0
    2.1118    0.8669    0.0000 C   0  0  0  0  0  0  0  0  0  0  0  0
   -2.1118    0.8539    0.0000 C   0  0  0  0  0  0  0  0  0  0  0  0
   -1.4209   -0.4237    0.0000 C   0  0  0  0  0  0  0  0  0  0  0  0
   -2.8288   -0.4237    0.0000 C   0  0  0  0  0  0  0  0  0  0  0  0
    0.7170   -1.7143    0.0000 C   0  0  0  0  0  0  0  0  0  0  0  0
    1.4209   -0.4237    0.0000 C   0  0  0  0  0  0  0  0  0  0  0  0
   -2.8158    0.4237    0.0000 C   0  0  0  0  0  0  0  0  0  0  0  0
   -2.0988   -0.8408    0.0000 C   0  0  0  0  0  0  0  0  0  0  0  0
    2.8158    0.4367    0.0000 C   0  0  0  0  0  0  0  0  0  0  0  0
    2.1249    1.7143    0.0000 C   0  0  0  0  0  0  0  0  0  0  0  0
    1.4339   -2.1314    0.0000 C   0  0  0  0  0  0  0  0  0  0  0  0
    2.1249   -0.8539    0.0000 C   0  0  0  0  0  0  0  0  0  0  0  0
    2.8549    2.1314    0.0000 C   0  0  0  0  0  0  0  0  0  0  0  0
    3.5328    0.8539    0.0000 C   0  0  0  0  0  0  0  0  0  0  0  0
    3.5328    1.7143    0.0000 C   0  0  0  0  0  0  0  0  0  0  0  0
  1 14  1  0  0  0  0
  2  6  2  0  0  0  0
  3  6  1  0  0  0  0
  3  8  1  0  0  0  0
  3  9  1  0  0  0  0
  4  6  1  0  0  0  0
  4 11  1  0  0  0  0
  5 21  1  0  0  0  0
  5 22  1  0  0  0  0
  7  8  1  0  0  0  0
  7 12  2  0  0  0  0
  7 13  1  0  0  0  0
  9 10  1  0  0  0  0
 10 15  1  0  0  0  0
 10 16  1  0  0  0  0
 11 19  1  0  0  0  0
 11 20  1  0  0  0  0
 12 17  1  0  0  0  0
 13 18  2  0  0  0  0
 14 17  2  0  0  0  0
 14 18  1  0  0  0  0
 15 21  1  0  0  0  0
 16 22  1  0  0  0  0
 19 24  1  0  0  0  0
 20 23  1  0  0  0  0
 23 25  1  0  0  0  0
 24 25  1  0  0  0  0
M  END
> <PUBCHEM_COMPOUND_ID_TYPE>
0

> <PUBCHEM_TOTAL_CHARGE>
0

> <PUBCHEM_SUBSTANCE_ID>
310940687

> <PUBCHEM_SUBSTANCE_VERSION>
1

> <PUBCHEM_EXT_DATASOURCE_NAME>
4488

> <PUBCHEM_EXT_DATASOURCE_REGID>
SCHEMBL16118643

> <PUBCHEM_SUBSTANCE_COMMENT>
InChI=1S/C20H30FN3O/c21-18-8-6-16(7-9-18)14-24(15-17-10-12-22-13-11-17)20(25)23-19-4-2-1-3-5-19/h6-9,17,19,22H,1-5,10-15H2,(H,23,25)
InChIKey=OPWKZRLFMPIQDE-UHFFFAOYSA-N

> <PUBCHEM_SUBSTANCE_SYNONYM>
SCHEMBL16118643

> <PUBCHEM_XREF_EXT_ID>
SCHEMBL16118643

> <PUBCHEM_EXT_DATASOURCE_URL>
https://www.surechembl.org/

> <PUBCHEM_EXT_SUBSTANCE_URL>
https://www.surechembl.org/chemical/SCHEMBL16118643

> <PUBCHEM_CID_ASSOCIATIONS>
86299914  1

> <PUBCHEM_COORDINATE_TYPE>
1
3

$$$$
