310929211
  -OEChem-07211613022D

 60 65  0     0  0  0  0  0  0999 V2000
    1.4150   -0.7075    0.0000 S   0  0  0  0  0  0  0  0  0  0  0  0
    3.6788   -2.0752    0.0000 O   0  0  0  0  0  0  0  0  0  0  0  0
    6.3200   -1.8866    0.0000 O   0  0  0  0  0  0  0  0  0  0  0  0
    2.8298   -4.7636    0.0000 O   0  0  0  0  0  0  0  0  0  0  0  0
    0.9433   -1.4621    0.0000 O   0  0  0  0  0  0  0  0  0  0  0  0
    1.7922    0.0000    0.0000 O   0  0  0  0  0  0  0  0  0  0  0  0
    9.1970   -6.7445    0.0000 O   0  0  0  0  0  0  0  0  0  0  0  0
   10.6120   -3.4902    0.0000 O   0  0  0  0  0  0  0  0  0  0  0  0
   14.1493   -4.7164    0.0000 O   0  0  0  0  0  0  0  0  0  0  0  0
    3.4902   -3.5373    0.0000 N   0  0  0  0  0  0  0  0  0  0  0  0
    2.1224   -1.0848    0.0000 N   0  0  0  0  0  0  0  0  0  0  0  0
    4.1976   -4.7636    0.0000 N   0  0  0  0  0  0  0  0  0  0  0  0
    7.7821   -4.2919    0.0000 N   0  0  0  0  0  0  0  0  0  0  0  0
    8.4895   -3.0657    0.0000 N   0  0  0  0  0  0  0  0  0  0  0  0
   12.7343   -3.9147    0.0000 N   0  0  0  0  0  0  0  0  0  0  0  0
   11.3194   -4.7164    0.0000 N   0  0  0  0  0  0  0  0  0  0  0  0
    2.7827   -3.1128    0.0000 C   0  0  0  0  0  0  0  0  0  0  0  0
    4.1976   -3.1128    0.0000 C   0  0  0  0  0  0  0  0  0  0  0  0
    4.2448   -2.3111    0.0000 C   0  0  0  0  0  0  0  0  0  0  0  0
    2.7827   -2.3111    0.0000 C   0  0  0  0  0  0  0  0  0  0  0  0
    4.9051   -1.9337    0.0000 C   0  0  0  0  0  0  0  0  0  0  0  0
    2.1224   -1.9337    0.0000 C   0  0  0  0  0  0  0  0  0  0  0  0
    1.4150   -3.1600    0.0000 C   0  0  0  0  0  0  0  0  0  0  0  0
    2.1224   -3.5373    0.0000 C   0  0  0  0  0  0  0  0  0  0  0  0
    5.6125   -2.3111    0.0000 C   0  0  0  0  0  0  0  0  0  0  0  0
    3.4902   -4.3391    0.0000 C   0  0  0  0  0  0  0  0  0  0  0  0
    4.9523   -3.5373    0.0000 C   0  0  0  0  0  0  0  0  0  0  0  0
    1.4150   -2.3111    0.0000 C   0  0  0  0  0  0  0  0  0  0  0  0
    0.6603   -3.5373    0.0000 C   0  0  0  0  0  0  0  0  0  0  0  0
    5.6597   -3.1128    0.0000 C   0  0  0  0  0  0  0  0  0  0  0  0
    3.4902   -1.9337    0.0000 C   0  0  0  0  0  0  0  0  0  0  0  0
    4.9051   -1.1320    0.0000 C   0  0  0  0  0  0  0  0  0  0  0  0
    3.4902   -1.1320    0.0000 C   0  0  0  0  0  0  0  0  0  0  0  0
    4.1976   -0.7075    0.0000 C   0  0  0  0  0  0  0  0  0  0  0  0
    7.0275   -2.3111    0.0000 C   0  0  0  0  0  0  0  0  0  0  0  0
    0.2830   -2.8298    0.0000 C   0  0  0  0  0  0  0  0  0  0  0  0
    0.0000   -3.9618    0.0000 C   0  0  0  0  0  0  0  0  0  0  0  0
    1.0848   -4.2448    0.0000 C   0  0  0  0  0  0  0  0  0  0  0  0
    7.0275   -3.1128    0.0000 C   0  0  0  0  0  0  0  0  0  0  0  0
    3.6317   -1.2735    0.0000 C   0  0  0  0  0  0  0  0  0  0  0  0
    7.7821   -3.4902    0.0000 C   0  0  0  0  0  0  0  0  0  0  0  0
    7.7349   -1.8866    0.0000 C   0  0  0  0  0  0  0  0  0  0  0  0
    0.7075   -0.2830    0.0000 C   0  0  0  0  0  0  0  0  0  0  0  0
    8.4895   -4.7164    0.0000 C   0  0  0  0  0  0  0  0  0  0  0  0
    8.4424   -2.2639    0.0000 C   0  0  0  0  0  0  0  0  0  0  0  0
    9.9045   -4.7164    0.0000 C   0  0  0  0  0  0  0  0  0  0  0  0
    9.1970   -4.2919    0.0000 C   0  0  0  0  0  0  0  0  0  0  0  0
    9.1970   -5.9427    0.0000 C   0  0  0  0  0  0  0  0  0  0  0  0
    8.4895   -5.5182    0.0000 C   0  0  0  0  0  0  0  0  0  0  0  0
   10.6120   -4.2919    0.0000 C   0  0  0  0  0  0  0  0  0  0  0  0
   12.0269   -3.4902    0.0000 C   0  0  0  0  0  0  0  0  0  0  0  0
    9.9045   -5.5182    0.0000 C   0  0  0  0  0  0  0  0  0  0  0  0
   12.0269   -4.2919    0.0000 C   0  0  0  0  0  0  0  0  0  0  0  0
   13.4418   -3.4902    0.0000 C   0  0  0  0  0  0  0  0  0  0  0  0
   12.7343   -4.7164    0.0000 C   0  0  0  0  0  0  0  0  0  0  0  0
   11.3194   -3.0657    0.0000 C   0  0  0  0  0  0  0  0  0  0  0  0
   12.7343   -3.0657    0.0000 C   0  0  0  0  0  0  0  0  0  0  0  0
   14.1493   -3.9147    0.0000 C   0  0  0  0  0  0  0  0  0  0  0  0
   13.3947   -5.1409    0.0000 C   0  0  0  0  0  0  0  0  0  0  0  0
    9.9045   -7.1690    0.0000 C   0  0  0  0  0  0  0  0  0  0  0  0
  1  5  2  0  0  0  0
  1  6  2  0  0  0  0
  1 11  1  0  0  0  0
  1 43  1  0  0  0  0
  2 20  1  0  0  0  0
  2 40  1  0  0  0  0
  3 25  1  0  0  0  0
  3 35  1  0  0  0  0
  4 26  2  0  0  0  0
  7 48  1  0  0  0  0
  7 60  1  0  0  0  0
  8 50  2  0  0  0  0
  9 58  1  0  0  0  0
  9 59  1  0  0  0  0
 10 17  1  0  0  0  0
 10 18  1  0  0  0  0
 10 26  1  0  0  0  0
 11 22  1  0  0  0  0
 12 26  1  0  0  0  0
 13 41  1  0  0  0  0
 13 44  1  0  0  0  0
 14 41  2  0  0  0  0
 14 45  1  0  0  0  0
 15 51  1  0  0  0  0
 15 54  1  0  0  0  0
 15 55  1  0  0  0  0
 16 50  1  0  0  0  0
 16 53  1  0  0  0  0
 17 20  1  0  0  0  0
 17 24  2  0  0  0  0
 18 19  1  0  0  0  0
 18 27  2  0  0  0  0
 19 21  2  0  0  0  0
 19 31  1  0  0  0  0
 20 22  2  0  0  0  0
 21 25  1  0  0  0  0
 21 32  1  0  0  0  0
 22 28  1  0  0  0  0
 23 24  1  0  0  0  0
 23 28  2  0  0  0  0
 23 29  1  0  0  0  0
 25 30  2  0  0  0  0
 27 30  1  0  0  0  0
 29 36  1  0  0  0  0
 29 37  1  0  0  0  0
 29 38  1  0  0  0  0
 31 33  2  0  0  0  0
 32 34  2  0  0  0  0
 33 34  1  0  0  0  0
 35 39  2  0  0  0  0
 35 42  1  0  0  0  0
 39 41  1  0  0  0  0
 42 45  2  0  0  0  0
 44 47  1  0  0  0  0
 44 49  2  0  0  0  0
 46 47  2  0  0  0  0
 46 50  1  0  0  0  0
 46 52  1  0  0  0  0
 48 49  1  0  0  0  0
 48 52  2  0  0  0  0
 51 53  1  0  0  0  0
 51 56  1  0  0  0  0
 51 57  1  0  0  0  0
 54 58  1  0  0  0  0
 55 59  1  0  0  0  0
M  END
> <PUBCHEM_COMPOUND_ID_TYPE>
0

> <PUBCHEM_TOTAL_CHARGE>
0

> <PUBCHEM_SUBSTANCE_ID>
310929211

> <PUBCHEM_SUBSTANCE_VERSION>
1

> <PUBCHEM_EXT_DATASOURCE_NAME>
4488

> <PUBCHEM_EXT_DATASOURCE_REGID>
SCHEMBL16106374

> <PUBCHEM_SUBSTANCE_COMMENT>
InChI=1S/C44H53N7O8S/c1-43(2,3)29-23-35(49-60(8,54)55)40(57-7)37(24-29)51(42(45)53)36-13-14-38(34-12-10-9-11-33(34)36)59-31-15-16-46-39(26-31)48-30-21-28(22-32(25-30)56-6)41(52)47-27-44(4,5)50-17-19-58-20-18-50/h9-16,21-26,49H,17-20,27H2,1-8H3,(H2,45,53)(H,46,48)(H,47,52)
InChIKey=MYEFSCGFOXCIQG-UHFFFAOYSA-N

> <PUBCHEM_SUBSTANCE_SYNONYM>
SCHEMBL16106374

> <PUBCHEM_XREF_EXT_ID>
SCHEMBL16106374

> <PUBCHEM_EXT_DATASOURCE_URL>
https://www.surechembl.org/

> <PUBCHEM_EXT_SUBSTANCE_URL>
https://www.surechembl.org/chemical/SCHEMBL16106374

> <PUBCHEM_CID_ASSOCIATIONS>
86273787  1

> <PUBCHEM_COORDINATE_TYPE>
1
3

$$$$
