310929964
  -OEChem-07211613022D

 67 74  0     1  0  0  0  0  0999 V2000
    4.8927   -0.9409    0.0000 S   0  0  0  0  0  0  0  0  0  0  0  0
    4.4536   -2.5090    0.0000 O   0  0  0  0  0  0  0  0  0  0  0  0
    5.0809   -1.7563    0.0000 O   0  0  0  0  0  0  0  0  0  0  0  0
    4.6417   -0.1254    0.0000 O   0  0  0  0  0  0  0  0  0  0  0  0
    4.3909   -3.1363    0.0000 O   0  0  0  0  0  0  0  0  0  0  0  0
    4.3909    0.0000    0.0000 O   0  0  0  0  0  0  0  0  0  0  0  0
    5.4572   -5.5827    0.0000 O   0  0  0  0  0  0  0  0  0  0  0  0
    1.3800   -4.0145    0.0000 O   0  0  0  0  0  0  0  0  0  0  0  0
    6.4608   -8.4054    0.0000 O   0  0  0  0  0  0  0  0  0  0  0  0
    0.8782   -7.5899    0.0000 O   0  0  0  0  0  0  0  0  0  0  0  0
    0.0000   -6.7118    0.0000 O   0  0  0  0  0  0  0  0  0  0  0  0
    2.9482   -3.0109    0.0000 N   0  0  0  0  0  0  0  0  0  0  0  0
    4.0772   -1.1291    0.0000 N   0  0  0  0  0  0  0  0  0  0  0  0
    2.6345   -4.3281    0.0000 N   0  0  0  0  0  0  0  0  0  0  0  0
    6.4608   -5.9591    0.0000 N   0  0  0  0  0  0  0  0  0  0  0  0
    0.8782   -5.9591    0.0000 N   0  0  0  0  0  0  0  0  0  0  0  0
    5.0181  -10.9144    0.0000 N   0  0  0  0  0  0  0  0  0  0  0  0
    3.0736   -2.1955    0.0000 C   0  0  3  0  0  0  0  0  0  0  0  0
    2.3836   -1.7563    0.0000 C   0  0  3  0  0  0  0  0  0  0  0  0
    3.0736   -1.3172    0.0000 C   0  0  0  0  0  0  0  0  0  0  0  0
    5.6454   -0.6900    0.0000 C   0  0  0  0  0  0  0  0  0  0  0  0
    3.8890   -1.9445    0.0000 C   0  0  0  0  0  0  0  0  0  0  0  0
    6.2099   -0.1254    0.0000 C   0  0  0  0  0  0  0  0  0  0  0  0
    6.4608   -0.9409    0.0000 C   0  0  0  0  0  0  0  0  0  0  0  0
    3.6381   -3.5127    0.0000 C   0  0  0  0  0  0  0  0  0  0  0  0
    1.5682   -1.7563    0.0000 C   0  0  0  0  0  0  0  0  0  0  0  0
    5.2690    0.0000    0.0000 C   0  0  0  0  0  0  0  0  0  0  0  0
    3.5127   -4.3281    0.0000 C   0  0  3  0  0  0  0  0  0  0  0  0
    4.3281   -4.5163    0.0000 C   0  0  0  0  0  0  0  0  0  0  0  0
    4.9554   -4.8927    0.0000 C   0  0  3  0  0  0  0  0  0  0  0  0
    1.8818   -4.7045    0.0000 C   0  0  0  0  0  0  0  0  0  0  0  0
    3.9518   -3.8890    0.0000 C   0  0  0  0  0  0  0  0  0  0  0  0
    1.1291   -2.5090    0.0000 C   0  0  0  0  0  0  0  0  0  0  0  0
    1.3172   -5.2690    0.0000 C   0  0  3  0  0  0  0  0  0  0  0  0
    5.7709   -6.3354    0.0000 C   0  0  0  0  0  0  0  0  0  0  0  0
    5.7709   -7.2135    0.0000 C   0  0  0  0  0  0  0  0  0  0  0  0
    0.6273   -4.7673    0.0000 C   0  0  0  0  0  0  0  0  0  0  0  0
    6.4608   -7.5899    0.0000 C   0  0  0  0  0  0  0  0  0  0  0  0
    7.1509   -7.2135    0.0000 C   0  0  0  0  0  0  0  0  0  0  0  0
    7.1509   -6.3354    0.0000 C   0  0  0  0  0  0  0  0  0  0  0  0
    4.0145   -0.6900    0.0000 C   0  0  0  0  0  0  0  0  0  0  0  0
    5.4572   -7.9663    0.0000 C   0  0  0  0  0  0  0  0  0  0  0  0
    7.9036   -7.5899    0.0000 C   0  0  0  0  0  0  0  0  0  0  0  0
    0.8155   -6.7118    0.0000 C   0  0  0  0  0  0  0  0  0  0  0  0
    7.9036   -5.9591    0.0000 C   0  0  0  0  0  0  0  0  0  0  0  0
    1.1291   -4.0772    0.0000 C   0  0  0  0  0  0  0  0  0  0  0  0
    0.0000   -4.2654    0.0000 C   0  0  0  0  0  0  0  0  0  0  0  0
    0.1254   -5.3945    0.0000 C   0  0  0  0  0  0  0  0  0  0  0  0
    8.5935   -7.2135    0.0000 C   0  0  0  0  0  0  0  0  0  0  0  0
    8.5935   -6.3354    0.0000 C   0  0  0  0  0  0  0  0  0  0  0  0
    4.9554   -8.5935    0.0000 C   0  0  0  0  0  0  0  0  0  0  0  0
    5.7081   -8.8445    0.0000 C   0  0  0  0  0  0  0  0  0  0  0  0
    1.3172   -8.2799    0.0000 C   0  0  3  0  0  0  0  0  0  0  0  0
    1.8818   -8.8445    0.0000 C   0  0  3  0  0  0  0  0  0  0  0  0
    4.3281   -9.0326    0.0000 C   0  0  0  0  0  0  0  0  0  0  0  0
    0.6273   -8.6563    0.0000 C   0  0  0  0  0  0  0  0  0  0  0  0
    5.7081   -9.6599    0.0000 C   0  0  0  0  0  0  0  0  0  0  0  0
    2.6345   -9.1581    0.0000 C   0  0  0  0  0  0  0  0  0  0  0  0
    1.5682   -9.6599    0.0000 C   0  0  0  0  0  0  0  0  0  0  0  0
    3.5127   -9.2208    0.0000 C   0  0  0  0  0  0  0  0  0  0  0  0
    0.6900   -9.5344    0.0000 C   0  0  0  0  0  0  0  0  0  0  0  0
    5.0181  -10.0990    0.0000 C   0  0  0  0  0  0  0  0  0  0  0  0
    5.7709  -11.2908    0.0000 C   0  0  0  0  0  0  0  0  0  0  0  0
    4.3281  -11.2908    0.0000 C   0  0  0  0  0  0  0  0  0  0  0  0
    5.7709  -12.1690    0.0000 C   0  0  0  0  0  0  0  0  0  0  0  0
    4.3281  -12.1690    0.0000 C   0  0  0  0  0  0  0  0  0  0  0  0
    5.0181  -12.5453    0.0000 C   0  0  0  0  0  0  0  0  0  0  0  0
  1  3  2  0  0  0  0
  1  4  2  0  0  0  0
  1 13  1  0  0  0  0
  1 21  1  0  0  0  0
  2 22  2  0  0  0  0
  5 25  2  0  0  0  0
  6 27  1  0  0  0  0
  6 41  1  0  0  0  0
  7 30  1  0  0  0  0
  7 35  1  0  0  0  0
  8 31  2  0  0  0  0
  9 38  1  0  0  0  0
  9 52  1  0  0  0  0
 10 44  1  0  0  0  0
 10 53  1  0  0  0  0
 11 44  2  0  0  0  0
 18 12  1  1  0  0  0
 12 25  1  0  0  0  0
 13 22  1  0  0  0  0
 14 28  1  0  0  0  0
 14 31  1  0  0  0  0
 14 32  1  0  0  0  0
 15 35  1  0  0  0  0
 15 40  2  0  0  0  0
 16 34  1  0  0  0  0
 16 44  1  0  0  0  0
 17 62  1  0  0  0  0
 17 63  1  0  0  0  0
 17 64  1  0  0  0  0
 18 19  1  0  0  0  0
 18 20  1  0  0  0  0
 18 22  1  6  0  0  0
 19 20  1  0  0  0  0
 19 26  1  6  0  0  0
 21 23  1  0  0  0  0
 21 24  1  0  0  0  0
 21 27  1  0  0  0  0
 23 24  1  0  0  0  0
 28 25  1  6  0  0  0
 26 33  2  0  0  0  0
 28 29  1  0  0  0  0
 30 29  1  1  0  0  0
 30 32  1  0  0  0  0
 31 34  1  0  0  0  0
 34 37  1  1  0  0  0
 35 36  2  0  0  0  0
 36 38  1  0  0  0  0
 36 42  1  0  0  0  0
 37 46  1  0  0  0  0
 37 47  1  0  0  0  0
 37 48  1  0  0  0  0
 38 39  2  0  0  0  0
 39 40  1  0  0  0  0
 39 43  1  0  0  0  0
 40 45  1  0  0  0  0
 42 51  1  0  0  0  0
 43 49  2  0  0  0  0
 45 50  2  0  0  0  0
 49 50  1  0  0  0  0
 51 55  1  0  0  0  0
 52 57  1  0  0  0  0
 53 54  1  0  0  0  0
 53 56  1  1  0  0  0
 54 58  1  0  0  0  0
 54 59  1  6  0  0  0
 55 60  1  0  0  0  0
 56 61  1  0  0  0  0
 57 62  1  0  0  0  0
 58 60  1  0  0  0  0
 59 61  1  0  0  0  0
 63 65  1  0  0  0  0
 64 66  1  0  0  0  0
 65 67  1  0  0  0  0
 66 67  1  0  0  0  0
M  END
> <PUBCHEM_COMPOUND_ID_TYPE>
0

> <PUBCHEM_TOTAL_CHARGE>
0

> <PUBCHEM_SUBSTANCE_ID>
310929964

> <PUBCHEM_SUBSTANCE_VERSION>
1

> <PUBCHEM_EXT_DATASOURCE_NAME>
4488

> <PUBCHEM_EXT_DATASOURCE_REGID>
SCHEMBL16107192

> <PUBCHEM_SUBSTANCE_COMMENT>
InChI=1S/C50H72N6O10S/c1-6-34-30-50(34,46(59)54-67(61,62)49(23-24-49)32-63-5)53-43(57)39-29-35-31-56(39)45(58)42(48(2,3)4)52-47(60)66-40-22-15-18-33(40)17-9-7-10-20-37-41(64-28-16-27-55-25-13-8-14-26-55)36-19-11-12-21-38(36)51-44(37)65-35/h6,11-12,19,21,33-35,39-40,42H,1,7-10,13-18,20,22-32H2,2-5H3,(H,52,60)(H,53,57)(H,54,59)/t33-,34-,35-,39+,40-,42-,50-/m1/s1
InChIKey=OEPLYPCNEIJFIX-LTHUXANDSA-N

> <PUBCHEM_SUBSTANCE_SYNONYM>
SCHEMBL16107192

> <PUBCHEM_XREF_EXT_ID>
SCHEMBL16107192

> <PUBCHEM_EXT_DATASOURCE_URL>
https://www.surechembl.org/

> <PUBCHEM_EXT_SUBSTANCE_URL>
https://www.surechembl.org/chemical/SCHEMBL16107192

> <PUBCHEM_CID_ASSOCIATIONS>
117599223  1

> <PUBCHEM_COORDINATE_TYPE>
1
3

> <PUBCHEM_BONDANNOTATIONS>
18  12  5
18  22  6
19  26  6
28  25  6
30  29  5
34  37  5
53  56  5
54  59  6

$$$$
