310932781
  -OEChem-07211613022D

 29 32  0     0  0  0  0  0  0999 V2000
    4.0250   -2.7288    0.0000 O   0  0  0  0  0  0  0  0  0  0  0  0
    8.4935   -2.8312    0.0000 O   0  0  0  0  0  0  0  0  0  0  0  0
    4.9119   -1.6032    0.0000 N   0  0  0  0  0  0  0  0  0  0  0  0
    4.8437   -0.7845    0.0000 N   0  0  0  0  0  0  0  0  0  0  0  0
    6.3445   -1.6032    0.0000 N   0  0  0  0  0  0  0  0  0  0  0  0
    7.7772   -4.0591    0.0000 N   0  0  0  0  0  0  0  0  0  0  0  0
    0.0000   -2.4559    0.0000 N   0  0  0  0  0  0  0  0  0  0  0  0
    3.6157   -1.3303    0.0000 C   0  0  0  0  0  0  0  0  0  0  0  0
    4.1956   -1.9443    0.0000 C   0  0  0  0  0  0  0  0  0  0  0  0
    2.7971   -1.4326    0.0000 C   0  0  0  0  0  0  0  0  0  0  0  0
    5.6282   -2.0125    0.0000 C   0  0  0  0  0  0  0  0  0  0  0  0
    4.0250   -0.6140    0.0000 C   0  0  0  0  0  0  0  0  0  0  0  0
    2.3195   -0.7845    0.0000 C   0  0  0  0  0  0  0  0  0  0  0  0
    2.4901   -2.1830    0.0000 C   0  0  0  0  0  0  0  0  0  0  0  0
    5.6282   -2.8312    0.0000 C   0  0  0  0  0  0  0  0  0  0  0  0
    7.0609   -2.8312    0.0000 C   0  0  0  0  0  0  0  0  0  0  0  0
    1.5009   -0.8528    0.0000 C   0  0  0  0  0  0  0  0  0  0  0  0
    1.1597   -1.6032    0.0000 C   0  0  0  0  0  0  0  0  0  0  0  0
    7.0609   -2.0125    0.0000 C   0  0  0  0  0  0  0  0  0  0  0  0
    6.3445   -3.2405    0.0000 C   0  0  0  0  0  0  0  0  0  0  0  0
    1.6373   -2.2854    0.0000 C   0  0  0  0  0  0  0  0  0  0  0  0
    7.7772   -3.2405    0.0000 C   0  0  0  0  0  0  0  0  0  0  0  0
    2.6265    0.0000    0.0000 C   0  0  0  0  0  0  0  0  0  0  0  0
    0.3411   -1.7055    0.0000 C   0  0  0  0  0  0  0  0  0  0  0  0
    8.4935   -4.4684    0.0000 C   0  0  0  0  0  0  0  0  0  0  0  0
    9.2098   -4.0591    0.0000 C   0  0  0  0  0  0  0  0  0  0  0  0
    9.4144   -3.2746    0.0000 C   0  0  0  0  0  0  0  0  0  0  0  0
   10.0284   -4.2979    0.0000 C   0  0  0  0  0  0  0  0  0  0  0  0
   10.2331   -3.5134    0.0000 C   0  0  0  0  0  0  0  0  0  0  0  0
  1  9  1  0  0  0  0
  2 22  2  0  0  0  0
  3  4  1  0  0  0  0
  3  9  1  0  0  0  0
  3 11  1  0  0  0  0
  4 12  2  0  0  0  0
  5 11  2  0  0  0  0
  5 19  1  0  0  0  0
  6 22  1  0  0  0  0
  6 25  1  0  0  0  0
  7 24  3  0  0  0  0
  8  9  2  0  0  0  0
  8 10  1  0  0  0  0
  8 12  1  0  0  0  0
 10 13  1  0  0  0  0
 10 14  2  0  0  0  0
 11 15  1  0  0  0  0
 13 17  2  0  0  0  0
 13 23  1  0  0  0  0
 14 21  1  0  0  0  0
 15 20  2  0  0  0  0
 16 19  2  0  0  0  0
 16 20  1  0  0  0  0
 16 22  1  0  0  0  0
 17 18  1  0  0  0  0
 18 21  2  0  0  0  0
 18 24  1  0  0  0  0
 25 26  1  0  0  0  0
 26 27  1  0  0  0  0
 26 28  1  0  0  0  0
 27 29  1  0  0  0  0
 28 29  1  0  0  0  0
M  END
> <PUBCHEM_COMPOUND_ID_TYPE>
0

> <PUBCHEM_TOTAL_CHARGE>
0

> <PUBCHEM_SUBSTANCE_ID>
310932781

> <PUBCHEM_SUBSTANCE_VERSION>
1

> <PUBCHEM_EXT_DATASOURCE_NAME>
4488

> <PUBCHEM_EXT_DATASOURCE_REGID>
SCHEMBL16110167

> <PUBCHEM_SUBSTANCE_COMMENT>
InChI=1S/C22H21N5O2/c1-14-9-16(10-23)5-7-18(14)19-13-26-27(22(19)29)20-8-6-17(12-24-20)21(28)25-11-15-3-2-4-15/h5-9,12-13,15,29H,2-4,11H2,1H3,(H,25,28)
InChIKey=YVYFVBFQWADLAB-UHFFFAOYSA-N

> <PUBCHEM_SUBSTANCE_SYNONYM>
SCHEMBL16110167

> <PUBCHEM_XREF_EXT_ID>
SCHEMBL16110167

> <PUBCHEM_EXT_DATASOURCE_URL>
https://www.surechembl.org/

> <PUBCHEM_EXT_SUBSTANCE_URL>
https://www.surechembl.org/chemical/SCHEMBL16110167

> <PUBCHEM_CID_ASSOCIATIONS>
117601276  1

> <PUBCHEM_COORDINATE_TYPE>
1
3

$$$$
