310940099
  -OEChem-07211613022D

 37 40  0     1  0  0  0  0  0999 V2000
    3.3631    2.0855    0.0000 S   0  0  0  0  0  0  0  0  0  0  0  0
   -2.1794    0.9582    0.0000 O   0  0  0  0  0  0  0  0  0  0  0  0
    1.3903   -2.4612    0.0000 O   0  0  0  0  0  0  0  0  0  0  0  0
   -3.9642   -0.2818    0.0000 O   0  0  0  0  0  0  0  0  0  0  0  0
   -3.8140    1.1273    0.0000 O   0  0  0  0  0  0  0  0  0  0  0  0
    2.6679    2.4988    0.0000 O   0  0  0  0  0  0  0  0  0  0  0  0
    3.7952    2.7994    0.0000 O   0  0  0  0  0  0  0  0  0  0  0  0
   -0.3570   -0.3570    0.0000 N   0  0  0  0  0  0  0  0  0  0  0  0
    0.4134   -0.0939    0.0000 N   0  0  0  0  0  0  0  0  0  0  0  0
    1.7285   -0.7703    0.0000 N   0  0  0  0  0  0  0  0  0  0  0  0
   -0.0188   -2.7994    0.0000 N   0  0  0  0  0  0  0  0  0  0  0  0
   -0.1127    2.1043    0.0000 N   0  0  0  0  0  0  0  0  0  0  0  0
   -1.0521    0.1127    0.0000 C   0  0  3  0  0  0  0  0  0  0  0  0
   -0.3758   -1.1837    0.0000 C   0  0  0  0  0  0  0  0  0  0  0  0
    0.4134   -1.4467    0.0000 C   0  0  0  0  0  0  0  0  0  0  0  0
    0.8830   -0.7703    0.0000 C   0  0  0  0  0  0  0  0  0  0  0  0
    0.5824   -2.2357    0.0000 C   0  0  0  0  0  0  0  0  0  0  0  0
   -1.3527    0.8643    0.0000 C   0  0  0  0  0  0  0  0  0  0  0  0
   -1.5218   -0.5448    0.0000 C   0  0  0  0  0  0  0  0  0  0  0  0
   -0.9770   -1.7473    0.0000 C   0  0  0  0  0  0  0  0  0  0  0  0
   -0.2631    0.4322    0.0000 C   0  0  0  0  0  0  0  0  0  0  0  0
   -2.6679    0.2818    0.0000 C   0  0  3  0  0  0  0  0  0  0  0  0
   -2.3485   -0.4509    0.0000 C   0  0  0  0  0  0  0  0  0  0  0  0
   -0.8079   -2.5364    0.0000 C   0  0  0  0  0  0  0  0  0  0  0  0
    2.1231   -0.0376    0.0000 C   0  0  0  0  0  0  0  0  0  0  0  0
   -3.5134    0.3758    0.0000 C   0  0  0  0  0  0  0  0  0  0  0  0
   -0.1879    1.2588    0.0000 C   0  0  0  0  0  0  0  0  0  0  0  0
    2.9685   -0.0376    0.0000 C   0  0  0  0  0  0  0  0  0  0  0  0
    1.7473    0.6764    0.0000 C   0  0  0  0  0  0  0  0  0  0  0  0
    2.9498    1.3715    0.0000 C   0  0  0  0  0  0  0  0  0  0  0  0
    3.3631    0.6388    0.0000 C   0  0  0  0  0  0  0  0  0  0  0  0
    2.1418    1.3527    0.0000 C   0  0  0  0  0  0  0  0  0  0  0  0
   -3.6261   -1.0334    0.0000 C   0  0  0  0  0  0  0  0  0  0  0  0
    4.1146    1.6533    0.0000 C   0  0  0  0  0  0  0  0  0  0  0  0
   -4.1146   -1.7285    0.0000 C   0  0  0  0  0  0  0  0  0  0  0  0
   -2.7994   -1.1085    0.0000 C   0  0  0  0  0  0  0  0  0  0  0  0
   -3.2879   -1.8037    0.0000 C   0  0  0  0  0  0  0  0  0  0  0  0
  1  6  2  0  0  0  0
  1  7  2  0  0  0  0
  1 30  1  0  0  0  0
  1 34  1  0  0  0  0
  2 18  1  0  0  0  0
  2 22  1  0  0  0  0
  3 17  2  0  0  0  0
  4 26  1  0  0  0  0
  4 33  1  0  0  0  0
  5 26  2  0  0  0  0
  8  9  1  0  0  0  0
  8 13  1  0  0  0  0
  8 14  1  0  0  0  0
  9 16  2  0  0  0  0
 10 16  1  0  0  0  0
 10 25  1  0  0  0  0
 11 17  1  0  0  0  0
 11 24  1  0  0  0  0
 12 27  3  0  0  0  0
 13 18  1  0  0  0  0
 13 19  1  0  0  0  0
 13 21  1  6  0  0  0
 14 15  2  0  0  0  0
 14 20  1  0  0  0  0
 15 16  1  0  0  0  0
 15 17  1  0  0  0  0
 19 23  1  0  0  0  0
 20 24  2  0  0  0  0
 21 27  1  0  0  0  0
 22 23  1  0  0  0  0
 22 26  1  1  0  0  0
 25 28  2  0  0  0  0
 25 29  1  0  0  0  0
 28 31  1  0  0  0  0
 29 32  2  0  0  0  0
 30 31  2  0  0  0  0
 30 32  1  0  0  0  0
 33 35  1  0  0  0  0
 33 36  1  0  0  0  0
 33 37  1  0  0  0  0
M  END
> <PUBCHEM_COMPOUND_ID_TYPE>
0

> <PUBCHEM_TOTAL_CHARGE>
0

> <PUBCHEM_SUBSTANCE_ID>
310940099

> <PUBCHEM_SUBSTANCE_VERSION>
1

> <PUBCHEM_EXT_DATASOURCE_NAME>
4488

> <PUBCHEM_EXT_DATASOURCE_REGID>
SCHEMBL16118030

> <PUBCHEM_SUBSTANCE_COMMENT>
InChI=1S/C25H29N5O6S/c1-24(2,3)36-23(32)19-9-11-25(12-13-26,15-35-19)30-18-10-14-27-22(31)20(18)21(29-30)28-16-5-7-17(8-6-16)37(4,33)34/h5-8,10,14,19H,9,11-12,15H2,1-4H3,(H,27,31)(H,28,29)/t19-,25+/m0/s1
InChIKey=SIDAYICSLPDCMZ-UQBPGWFLSA-N

> <PUBCHEM_SUBSTANCE_SYNONYM>
SCHEMBL16118030

> <PUBCHEM_XREF_EXT_ID>
SCHEMBL16118030

> <PUBCHEM_EXT_DATASOURCE_URL>
https://www.surechembl.org/

> <PUBCHEM_EXT_SUBSTANCE_URL>
https://www.surechembl.org/chemical/SCHEMBL16118030

> <PUBCHEM_CID_ASSOCIATIONS>
117607235  1

> <PUBCHEM_COORDINATE_TYPE>
1
3

> <PUBCHEM_BONDANNOTATIONS>
13  21  6
22  26  5

$$$$
