310938794
  -OEChem-07211613022D

 28 31  0     0  0  0  0  0  0999 V2000
   -3.5724    7.2606    0.0000 Cl  0  0  0  0  0  0  0  0  0  0  0  0
   -2.1434    9.7356    0.0000 O   0  0  0  0  0  0  0  0  0  0  0  0
    0.7846   11.2281    0.0000 O   0  0  0  0  0  0  0  0  0  0  0  0
   -0.7145    8.9106    0.0000 O   0  0  0  0  0  0  0  0  0  0  0  0
    0.7145    7.2606    0.0000 O   0  0  0  0  0  0  0  0  0  0  0  0
    1.4289    8.4981    0.0000 N   0  0  0  0  0  0  0  0  0  0  0  0
    2.1434    7.2606    0.0000 N   0  0  0  0  0  0  0  0  0  0  0  0
   -2.1434    8.9106    0.0000 C   0  0  0  0  0  0  0  0  0  0  0  0
    0.0000   10.1481    0.0000 C   0  0  0  0  0  0  0  0  0  0  0  0
   -1.4289   10.1481    0.0000 C   0  0  0  0  0  0  0  0  0  0  0  0
    0.0000   10.9731    0.0000 C   0  0  0  0  0  0  0  0  0  0  0  0
   -1.4289    8.4981    0.0000 C   0  0  0  0  0  0  0  0  0  0  0  0
   -0.7145    9.7356    0.0000 C   0  0  0  0  0  0  0  0  0  0  0  0
   -1.4289   10.9731    0.0000 C   0  0  0  0  0  0  0  0  0  0  0  0
   -2.8579    8.4981    0.0000 C   0  0  0  0  0  0  0  0  0  0  0  0
   -0.7145   11.3856    0.0000 C   0  0  0  0  0  0  0  0  0  0  0  0
    0.7846    9.8932    0.0000 C   0  0  0  0  0  0  0  0  0  0  0  0
   -2.8579    7.6731    0.0000 C   0  0  0  0  0  0  0  0  0  0  0  0
   -1.4289    7.6731    0.0000 C   0  0  0  0  0  0  0  0  0  0  0  0
    1.2695   10.5606    0.0000 C   0  0  0  0  0  0  0  0  0  0  0  0
   -2.1434    7.2606    0.0000 C   0  0  0  0  0  0  0  0  0  0  0  0
    1.4289    7.6731    0.0000 C   0  0  0  0  0  0  0  0  0  0  0  0
    0.0000    8.4981    0.0000 C   0  0  0  0  0  0  0  0  0  0  0  0
    0.7145    8.9106    0.0000 C   0  0  0  0  0  0  0  0  0  0  0  0
    2.1434    8.9106    0.0000 C   0  0  0  0  0  0  0  0  0  0  0  0
    2.8579    7.6731    0.0000 C   0  0  0  0  0  0  0  0  0  0  0  0
    2.8579    8.4981    0.0000 C   0  0  0  0  0  0  0  0  0  0  0  0
    3.5724    7.2606    0.0000 C   0  0  0  0  0  0  0  0  0  0  0  0
  1 18  1  0  0  0  0
  2  8  1  0  0  0  0
  2 10  1  0  0  0  0
  3 11  1  0  0  0  0
  3 20  1  0  0  0  0
  4 12  1  0  0  0  0
  4 23  1  0  0  0  0
  5 22  2  0  0  0  0
  6 22  1  0  0  0  0
  6 24  1  0  0  0  0
  6 25  1  0  0  0  0
  7 22  1  0  0  0  0
  7 26  1  0  0  0  0
  8 12  1  0  0  0  0
  8 15  2  0  0  0  0
  9 11  1  0  0  0  0
  9 13  2  0  0  0  0
  9 17  1  0  0  0  0
 10 13  1  0  0  0  0
 10 14  2  0  0  0  0
 11 16  2  0  0  0  0
 12 19  2  0  0  0  0
 14 16  1  0  0  0  0
 15 18  1  0  0  0  0
 17 20  2  0  0  0  0
 18 21  2  0  0  0  0
 19 21  1  0  0  0  0
 23 24  1  0  0  0  0
 25 27  2  0  0  0  0
 26 27  1  0  0  0  0
 26 28  2  0  0  0  0
M  END
> <PUBCHEM_COMPOUND_ID_TYPE>
0

> <PUBCHEM_TOTAL_CHARGE>
0

> <PUBCHEM_SUBSTANCE_ID>
310938794

> <PUBCHEM_SUBSTANCE_VERSION>
1

> <PUBCHEM_EXT_DATASOURCE_NAME>
4488

> <PUBCHEM_EXT_DATASOURCE_REGID>
SCHEMBL16116711

> <PUBCHEM_SUBSTANCE_COMMENT>
InChI=1S/C21H17ClN2O4/c1-14-6-8-24(21(25)23-14)9-11-27-19-4-2-16(22)13-20(19)28-17-3-5-18-15(12-17)7-10-26-18/h2-8,10,12-13H,1,9,11H2,(H,23,25)
InChIKey=QDNFWTSKWBDKPU-UHFFFAOYSA-N

> <PUBCHEM_SUBSTANCE_SYNONYM>
SCHEMBL16116711

> <PUBCHEM_XREF_EXT_ID>
SCHEMBL16116711

> <PUBCHEM_EXT_DATASOURCE_URL>
https://www.surechembl.org/

> <PUBCHEM_EXT_SUBSTANCE_URL>
https://www.surechembl.org/chemical/SCHEMBL16116711

> <PUBCHEM_CID_ASSOCIATIONS>
117606202  1

> <PUBCHEM_COORDINATE_TYPE>
1
3

$$$$
