310941911
  -OEChem-07211613022D

 23 25  0     0  0  0  0  0  0999 V2000
    2.4470    0.7111    0.0000 O   0  0  0  0  0  0  0  0  0  0  0  0
    0.3974   -2.8863    0.0000 O   0  0  0  0  0  0  0  0  0  0  0  0
    2.4470    2.0497    0.0000 O   0  0  0  0  0  0  0  0  0  0  0  0
   -2.0287    2.8863    0.0000 O   0  0  0  0  0  0  0  0  0  0  0  0
    1.2340   -1.4222    0.0000 N   0  0  0  0  0  0  0  0  0  0  0  0
   -1.3176    1.4222    0.0000 N   0  0  0  0  0  0  0  0  0  0  0  0
    1.2340    0.1255    0.0000 C   0  0  0  0  0  0  0  0  0  0  0  0
    1.6105    0.7530    0.0000 C   0  0  0  0  0  0  0  0  0  0  0  0
    1.1921    1.4640    0.0000 C   0  0  0  0  0  0  0  0  0  0  0  0
   -0.0209    0.7111    0.0000 C   0  0  0  0  0  0  0  0  0  0  0  0
    0.3974    0.1255    0.0000 C   0  0  0  0  0  0  0  0  0  0  0  0
    0.4392    1.4222    0.0000 C   0  0  0  0  0  0  0  0  0  0  0  0
    1.6523   -0.7111    0.0000 C   0  0  0  0  0  0  0  0  0  0  0  0
   -0.8157    0.7111    0.0000 C   0  0  0  0  0  0  0  0  0  0  0  0
    1.6523    2.1751    0.0000 C   0  0  0  0  0  0  0  0  0  0  0  0
    0.4392   -1.4222    0.0000 C   0  0  0  0  0  0  0  0  0  0  0  0
    1.6523   -2.1333    0.0000 C   0  0  0  0  0  0  0  0  0  0  0  0
   -2.0706    1.4222    0.0000 C   0  0  0  0  0  0  0  0  0  0  0  0
   -0.8157    2.1751    0.0000 C   0  0  0  0  0  0  0  0  0  0  0  0
   -0.0209   -2.1333    0.0000 C   0  0  0  0  0  0  0  0  0  0  0  0
    1.2340   -2.8026    0.0000 C   0  0  0  0  0  0  0  0  0  0  0  0
   -2.4470    2.1751    0.0000 C   0  0  0  0  0  0  0  0  0  0  0  0
   -1.1921    2.8026    0.0000 C   0  0  0  0  0  0  0  0  0  0  0  0
  1  8  1  0  0  0  0
  2 20  1  0  0  0  0
  2 21  1  0  0  0  0
  3 15  2  0  0  0  0
  4 22  1  0  0  0  0
  4 23  1  0  0  0  0
  5 13  1  0  0  0  0
  5 16  1  0  0  0  0
  5 17  1  0  0  0  0
  6 14  1  0  0  0  0
  6 18  1  0  0  0  0
  6 19  1  0  0  0  0
  7  8  2  0  0  0  0
  7 11  1  0  0  0  0
  7 13  1  0  0  0  0
  8  9  1  0  0  0  0
  9 12  2  0  0  0  0
  9 15  1  0  0  0  0
 10 11  2  0  0  0  0
 10 12  1  0  0  0  0
 10 14  1  0  0  0  0
 16 20  1  0  0  0  0
 17 21  1  0  0  0  0
 18 22  1  0  0  0  0
 19 23  1  0  0  0  0
M  END
> <PUBCHEM_COMPOUND_ID_TYPE>
0

> <PUBCHEM_TOTAL_CHARGE>
0

> <PUBCHEM_SUBSTANCE_ID>
310941911

> <PUBCHEM_SUBSTANCE_VERSION>
1

> <PUBCHEM_EXT_DATASOURCE_NAME>
4488

> <PUBCHEM_EXT_DATASOURCE_REGID>
SCHEMBL16119943

> <PUBCHEM_SUBSTANCE_COMMENT>
InChI=1S/C17H24N2O4/c20-13-16-10-14(11-18-1-5-22-6-2-18)9-15(17(16)21)12-19-3-7-23-8-4-19/h9-10,13,21H,1-8,11-12H2
InChIKey=RPRFQFQECNBJFY-UHFFFAOYSA-N

> <PUBCHEM_SUBSTANCE_SYNONYM>
SCHEMBL16119943

> <PUBCHEM_XREF_EXT_ID>
SCHEMBL16119943

> <PUBCHEM_EXT_DATASOURCE_URL>
https://www.surechembl.org/

> <PUBCHEM_EXT_SUBSTANCE_URL>
https://www.surechembl.org/chemical/SCHEMBL16119943

> <PUBCHEM_CID_ASSOCIATIONS>
117608643  1

> <PUBCHEM_COORDINATE_TYPE>
1
3

$$$$
