310948670
  -OEChem-07211613022D

 35 37  0     1  0  0  0  0  0999 V2000
    3.6023    0.4675    0.0000 F   0  0  0  0  0  0  0  0  0  0  0  0
    3.9186   -0.6050    0.0000 F   0  0  0  0  0  0  0  0  0  0  0  0
    2.8186   -0.9074    0.0000 F   0  0  0  0  0  0  0  0  0  0  0  0
    0.3438   -0.2200    0.0000 O   0  0  0  0  0  0  0  0  0  0  0  0
   -3.9461   -0.2200    0.0000 O   0  0  0  0  0  0  0  0  0  0  0  0
   -2.5162   -0.2200    0.0000 O   0  0  0  0  0  0  0  0  0  0  0  0
   -0.3712    2.6811    0.0000 O   0  0  0  0  0  0  0  0  0  0  0  0
    0.3438    1.4575    0.0000 N   0  0  0  0  0  0  0  0  0  0  0  0
    1.0587    2.6949    0.0000 N   0  0  0  0  0  0  0  0  0  0  0  0
   -2.5436    1.4575    0.0000 C   0  0  3  0  0  0  0  0  0  0  0  0
   -3.2311    1.0587    0.0000 C   0  0  3  0  0  0  0  0  0  0  0  0
   -1.8012    1.0312    0.0000 C   0  0  0  0  0  0  0  0  0  0  0  0
   -3.2311    1.8424    0.0000 C   0  0  0  0  0  0  0  0  0  0  0  0
   -0.3712    1.0450    0.0000 C   0  0  0  0  0  0  0  0  0  0  0  0
   -0.3712    0.2200    0.0000 C   0  0  0  0  0  0  0  0  0  0  0  0
   -1.0862   -0.1925    0.0000 C   0  0  0  0  0  0  0  0  0  0  0  0
   -1.1000    1.4437    0.0000 C   0  0  0  0  0  0  0  0  0  0  0  0
   -1.8012    0.2063    0.0000 C   0  0  0  0  0  0  0  0  0  0  0  0
   -3.2311    0.2063    0.0000 C   0  0  0  0  0  0  0  0  0  0  0  0
   -1.0862   -1.0312    0.0000 C   0  0  0  0  0  0  0  0  0  0  0  0
    0.3712    2.2824    0.0000 C   0  0  0  0  0  0  0  0  0  0  0  0
    1.0450    0.2063    0.0000 C   0  0  0  0  0  0  0  0  0  0  0  0
   -0.3712   -1.4575    0.0000 C   0  0  0  0  0  0  0  0  0  0  0  0
    1.7737    2.2824    0.0000 C   0  0  0  0  0  0  0  0  0  0  0  0
    1.7737   -0.1925    0.0000 C   0  0  0  0  0  0  0  0  0  0  0  0
    1.7874    1.4437    0.0000 C   0  0  0  0  0  0  0  0  0  0  0  0
    2.4749    2.6811    0.0000 C   0  0  0  0  0  0  0  0  0  0  0  0
   -0.3712   -2.2824    0.0000 C   0  0  0  0  0  0  0  0  0  0  0  0
    2.4749    0.2063    0.0000 C   0  0  0  0  0  0  0  0  0  0  0  0
    3.2036   -0.2200    0.0000 C   0  0  0  0  0  0  0  0  0  0  0  0
    3.2036    1.4575    0.0000 C   0  0  0  0  0  0  0  0  0  0  0  0
    2.5024    1.0450    0.0000 C   0  0  0  0  0  0  0  0  0  0  0  0
    3.2036    2.2824    0.0000 C   0  0  0  0  0  0  0  0  0  0  0  0
    0.3712   -2.6949    0.0000 C   0  0  0  0  0  0  0  0  0  0  0  0
    3.9461    1.0312    0.0000 C   0  0  0  0  0  0  0  0  0  0  0  0
  1 30  1  0  0  0  0
  2 30  1  0  0  0  0
  3 30  1  0  0  0  0
  4 15  1  0  0  0  0
  4 22  1  0  0  0  0
  5 19  2  0  0  0  0
  6 19  1  0  0  0  0
  7 21  2  0  0  0  0
  8 14  1  0  0  0  0
  8 21  1  0  0  0  0
  9 21  1  0  0  0  0
  9 24  1  0  0  0  0
 10 11  1  0  0  0  0
 10 12  1  0  0  0  0
 10 13  1  6  0  0  0
 11 13  1  0  0  0  0
 11 19  1  1  0  0  0
 12 17  1  0  0  0  0
 12 18  2  0  0  0  0
 14 15  1  0  0  0  0
 14 17  2  0  0  0  0
 15 16  2  0  0  0  0
 16 18  1  0  0  0  0
 16 20  1  0  0  0  0
 20 23  1  0  0  0  0
 22 25  1  0  0  0  0
 23 28  1  0  0  0  0
 24 26  2  0  0  0  0
 24 27  1  0  0  0  0
 25 29  1  0  0  0  0
 26 32  1  0  0  0  0
 27 33  2  0  0  0  0
 28 34  1  0  0  0  0
 29 30  1  0  0  0  0
 31 32  2  0  0  0  0
 31 33  1  0  0  0  0
 31 35  1  0  0  0  0
M  END
> <PUBCHEM_COMPOUND_ID_TYPE>
0

> <PUBCHEM_TOTAL_CHARGE>
0

> <PUBCHEM_SUBSTANCE_ID>
310948670

> <PUBCHEM_SUBSTANCE_VERSION>
1

> <PUBCHEM_EXT_DATASOURCE_NAME>
4488

> <PUBCHEM_EXT_DATASOURCE_REGID>
SCHEMBL16126854

> <PUBCHEM_SUBSTANCE_COMMENT>
InChI=1S/C26H31F3N2O4/c1-3-4-6-17-13-18(20-15-21(20)24(32)33)14-22(23(17)35-12-5-11-26(27,28)29)31-25(34)30-19-9-7-16(2)8-10-19/h7-10,13-14,20-21H,3-6,11-12,15H2,1-2H3,(H,32,33)(H2,30,31,34)/t20-,21+/m1/s1
InChIKey=BLECCTOZGXUKMD-RTWAWAEBSA-N

> <PUBCHEM_SUBSTANCE_SYNONYM>
SCHEMBL16126854

> <PUBCHEM_XREF_EXT_ID>
SCHEMBL16126854

> <PUBCHEM_EXT_DATASOURCE_URL>
https://www.surechembl.org/

> <PUBCHEM_EXT_SUBSTANCE_URL>
https://www.surechembl.org/chemical/SCHEMBL16126854

> <PUBCHEM_CID_ASSOCIATIONS>
117614211  1

> <PUBCHEM_COORDINATE_TYPE>
1
3

> <PUBCHEM_BONDANNOTATIONS>
10  13  6
11  19  5

$$$$
