310942106
  -OEChem-07211613022D

 26 28  0     1  0  0  0  0  0999 V2000
    2.0865    1.4619    0.0000 Cl  0  0  0  0  0  0  0  0  0  0  0  0
    0.6372   -1.0370    0.0000 F   0  0  0  0  0  0  0  0  0  0  0  0
    2.0740   -0.1999    0.0000 O   0  0  0  0  0  0  0  0  0  0  0  0
   -1.5243    0.2124    0.0000 N   0  0  0  0  0  0  0  0  0  0  0  0
   -3.7483    1.3119    0.0000 N   0  0  0  0  0  0  0  0  0  0  0  0
   -4.2481    0.6372    0.0000 N   0  0  0  0  0  0  0  0  0  0  0  0
   -0.0875    0.2249    0.0000 C   0  0  0  0  0  0  0  0  0  0  0  0
    0.6247   -0.1875    0.0000 C   0  0  0  0  0  0  0  0  0  0  0  0
    1.3494    0.2249    0.0000 C   0  0  0  0  0  0  0  0  0  0  0  0
   -0.7872   -0.1875    0.0000 C   0  0  3  0  0  0  0  0  0  0  0  0
    1.3619    1.0620    0.0000 C   0  0  0  0  0  0  0  0  0  0  0  0
   -0.0750    1.0495    0.0000 C   0  0  0  0  0  0  0  0  0  0  0  0
    0.6372    1.4619    0.0000 C   0  0  0  0  0  0  0  0  0  0  0  0
   -2.2365   -0.1875    0.0000 C   0  0  3  0  0  0  0  0  0  0  0  0
    2.7987    0.2249    0.0000 C   0  0  0  0  0  0  0  0  0  0  0  0
   -2.9861    0.2249    0.0000 C   0  0  0  0  0  0  0  0  0  0  0  0
   -0.8121   -1.0370    0.0000 C   0  0  0  0  0  0  0  0  0  0  0  0
    2.8113    1.0495    0.0000 C   0  0  0  0  0  0  0  0  0  0  0  0
    3.5359   -0.1875    0.0000 C   0  0  0  0  0  0  0  0  0  0  0  0
   -2.9612    1.0495    0.0000 C   0  0  0  0  0  0  0  0  0  0  0  0
   -3.7608   -0.0375    0.0000 C   0  0  0  0  0  0  0  0  0  0  0  0
   -2.2490   -1.0245    0.0000 C   0  0  0  0  0  0  0  0  0  0  0  0
    3.5234    1.4619    0.0000 C   0  0  0  0  0  0  0  0  0  0  0  0
    4.2481    0.2249    0.0000 C   0  0  0  0  0  0  0  0  0  0  0  0
   -1.5118   -1.4619    0.0000 C   0  0  0  0  0  0  0  0  0  0  0  0
    4.2481    1.0495    0.0000 C   0  0  0  0  0  0  0  0  0  0  0  0
  1 11  1  0  0  0  0
  2  8  1  0  0  0  0
  3  9  1  0  0  0  0
  3 15  1  0  0  0  0
 10  4  1  1  0  0  0
  4 14  1  0  0  0  0
  5  6  1  0  0  0  0
  5 20  2  0  0  0  0
  6 21  1  0  0  0  0
  7  8  2  0  0  0  0
  7 10  1  0  0  0  0
  7 12  1  0  0  0  0
  8  9  1  0  0  0  0
  9 11  2  0  0  0  0
 10 17  1  0  0  0  0
 11 13  1  0  0  0  0
 12 13  2  0  0  0  0
 14 16  1  0  0  0  0
 14 22  1  1  0  0  0
 15 18  2  0  0  0  0
 15 19  1  0  0  0  0
 16 20  1  0  0  0  0
 16 21  2  0  0  0  0
 17 25  1  0  0  0  0
 18 23  1  0  0  0  0
 19 24  2  0  0  0  0
 23 26  2  0  0  0  0
 24 26  1  0  0  0  0
M  END
> <PUBCHEM_COMPOUND_ID_TYPE>
0

> <PUBCHEM_TOTAL_CHARGE>
0

> <PUBCHEM_SUBSTANCE_ID>
310942106

> <PUBCHEM_SUBSTANCE_VERSION>
1

> <PUBCHEM_EXT_DATASOURCE_NAME>
4488

> <PUBCHEM_EXT_DATASOURCE_REGID>
SCHEMBL16120141

> <PUBCHEM_SUBSTANCE_COMMENT>
InChI=1S/C20H21ClFN3O/c1-3-18(25-13(2)14-11-23-24-12-14)16-9-10-17(21)20(19(16)22)26-15-7-5-4-6-8-15/h4-13,18,25H,3H2,1-2H3,(H,23,24)/t13-,18+/m0/s1
InChIKey=KHXNPCCZDWGFEB-SCLBCKFNSA-N

> <PUBCHEM_SUBSTANCE_SYNONYM>
SCHEMBL16120141

> <PUBCHEM_XREF_EXT_ID>
SCHEMBL16120141

> <PUBCHEM_EXT_DATASOURCE_URL>
https://www.surechembl.org/

> <PUBCHEM_EXT_SUBSTANCE_URL>
https://www.surechembl.org/chemical/SCHEMBL16120141

> <PUBCHEM_CID_ASSOCIATIONS>
117608767  1

> <PUBCHEM_COORDINATE_TYPE>
1
3

> <PUBCHEM_BONDANNOTATIONS>
14  22  5
10  4  5

$$$$
