310945227
  -OEChem-07211613022D

 20 23  0     1  0  0  0  0  0999 V2000
    0.2716   -1.3078    0.0000 S   0  0  0  0  0  0  0  0  0  0  0  0
    1.9416   -1.3883    0.0000 O   0  0  0  0  0  0  0  0  0  0  0  0
    0.4929    0.8652    0.0000 N   0  0  0  0  0  0  0  0  0  0  0  0
    2.1428   -0.0202    0.0000 N   0  0  0  0  0  0  0  0  0  0  0  0
   -2.6660    0.2012    0.0000 N   0  0  0  0  0  0  0  0  0  0  0  0
   -0.5131   -0.2213    0.0000 C   0  0  0  0  0  0  0  0  0  0  0  0
    0.2515    0.0402    0.0000 C   0  0  0  0  0  0  0  0  0  0  0  0
   -0.5131   -1.0262    0.0000 C   0  0  0  0  0  0  0  0  0  0  0  0
    0.7545   -0.6237    0.0000 C   0  0  0  0  0  0  0  0  0  0  0  0
   -1.2173    0.2012    0.0000 C   0  0  0  0  0  0  0  0  0  0  0  0
   -1.9416   -0.2012    0.0000 C   0  0  0  0  0  0  0  0  0  0  0  0
    1.5794   -0.6237    0.0000 C   0  0  0  0  0  0  0  0  0  0  0  0
   -1.2173   -1.4487    0.0000 C   0  0  0  0  0  0  0  0  0  0  0  0
   -1.9416   -1.0462    0.0000 C   0  0  0  0  0  0  0  0  0  0  0  0
   -1.2173    1.0262    0.0000 C   0  0  0  0  0  0  0  0  0  0  0  0
    1.2374    1.1871    0.0000 C   0  0  0  0  0  0  0  0  0  0  0  0
    2.0020    0.8249    0.0000 C   0  0  3  0  0  0  0  0  0  0  0  0
   -1.9416    1.4487    0.0000 C   0  0  0  0  0  0  0  0  0  0  0  0
   -2.6458    1.0462    0.0000 C   0  0  0  0  0  0  0  0  0  0  0  0
    2.6660    1.2877    0.0000 C   0  0  0  0  0  0  0  0  0  0  0  0
  1  8  1  0  0  0  0
  1  9  1  0  0  0  0
  2 12  2  0  0  0  0
  3  7  1  0  0  0  0
  3 16  1  0  0  0  0
  4 12  1  0  0  0  0
  4 17  1  0  0  0  0
  5 11  2  0  0  0  0
  5 19  1  0  0  0  0
  6  7  1  0  0  0  0
  6  8  2  0  0  0  0
  6 10  1  0  0  0  0
  7  9  2  0  0  0  0
  8 13  1  0  0  0  0
  9 12  1  0  0  0  0
 10 11  1  0  0  0  0
 10 15  2  0  0  0  0
 11 14  1  0  0  0  0
 13 14  2  0  0  0  0
 15 18  1  0  0  0  0
 16 17  1  0  0  0  0
 17 20  1  1  0  0  0
 18 19  2  0  0  0  0
M  END
> <PUBCHEM_COMPOUND_ID_TYPE>
0

> <PUBCHEM_TOTAL_CHARGE>
0

> <PUBCHEM_SUBSTANCE_ID>
310945227

> <PUBCHEM_SUBSTANCE_VERSION>
1

> <PUBCHEM_EXT_DATASOURCE_NAME>
4488

> <PUBCHEM_EXT_DATASOURCE_REGID>
SCHEMBL16123317

> <PUBCHEM_SUBSTANCE_COMMENT>
InChI=1S/C15H13N3OS/c1-8-7-17-13-12-9-3-2-6-16-10(9)4-5-11(12)20-14(13)15(19)18-8/h2-6,8,17H,7H2,1H3,(H,18,19)/t8-/m1/s1
InChIKey=BKMFUDJYEMHEKH-MRVPVSSYSA-N

> <PUBCHEM_SUBSTANCE_SYNONYM>
SCHEMBL16123317

> <PUBCHEM_XREF_EXT_ID>
SCHEMBL16123317

> <PUBCHEM_EXT_DATASOURCE_URL>
https://www.surechembl.org/

> <PUBCHEM_EXT_SUBSTANCE_URL>
https://www.surechembl.org/chemical/SCHEMBL16123317

> <PUBCHEM_CID_ASSOCIATIONS>
44517741  1

> <PUBCHEM_COORDINATE_TYPE>
1
3

> <PUBCHEM_BONDANNOTATIONS>
17  20  5

$$$$
