310940273
  -OEChem-07211613022D

 39 42  0     1  0  0  0  0  0999 V2000
   -3.2196   -4.9353    0.0000 F   0  0  0  0  0  0  0  0  0  0  0  0
   -1.7792   -4.9353    0.0000 F   0  0  0  0  0  0  0  0  0  0  0  0
   -2.4994   -5.3378    0.0000 F   0  0  0  0  0  0  0  0  0  0  0  0
   -1.3768   -1.6734    0.0000 O   0  0  0  0  0  0  0  0  0  0  0  0
    0.8473    3.6856    0.0000 O   0  0  0  0  0  0  0  0  0  0  0  0
    2.2665    3.5373    0.0000 O   0  0  0  0  0  0  0  0  0  0  0  0
   -3.1985   -3.2832    0.0000 O   0  0  0  0  0  0  0  0  0  0  0  0
    0.7625    0.0636    0.0000 N   0  0  0  0  0  0  0  0  0  0  0  0
    1.0167   -0.7202    0.0000 N   0  0  0  0  0  0  0  0  0  0  0  0
    0.3601   -2.0335    0.0000 N   0  0  0  0  0  0  0  0  0  0  0  0
    1.4191    2.3723    0.0000 N   0  0  0  0  0  0  0  0  0  0  0  0
   -1.6734   -0.2754    0.0000 N   0  0  0  0  0  0  0  0  0  0  0  0
    3.2196   -0.1907    0.0000 N   0  0  0  0  0  0  0  0  0  0  0  0
    1.2497    0.7202    0.0000 C   0  0  0  0  0  0  0  0  0  0  0  0
   -0.0636    0.0847    0.0000 C   0  0  0  0  0  0  0  0  0  0  0  0
   -0.3389   -0.7202    0.0000 C   0  0  0  0  0  0  0  0  0  0  0  0
    0.3601   -1.1862    0.0000 C   0  0  0  0  0  0  0  0  0  0  0  0
   -1.1226   -0.8896    0.0000 C   0  0  0  0  0  0  0  0  0  0  0  0
    0.5931    1.2286    0.0000 C   0  0  0  0  0  0  0  0  0  0  0  0
    1.9911    1.0591    0.0000 C   0  0  0  0  0  0  0  0  0  0  0  0
   -0.6142    0.6778    0.0000 C   0  0  0  0  0  0  0  0  0  0  0  0
    1.5887   -0.0212    0.0000 C   0  0  0  0  0  0  0  0  0  0  0  0
    0.6778    2.0546    0.0000 C   0  0  0  0  0  0  0  0  0  0  0  0
    2.0970    1.8852    0.0000 C   0  0  0  0  0  0  0  0  0  0  0  0
   -1.4191    0.4872    0.0000 C   0  0  0  0  0  0  0  0  0  0  0  0
   -0.3601   -2.4359    0.0000 C   0  0  0  0  0  0  0  0  0  0  0  0
    1.5039    3.1985    0.0000 C   0  0  0  0  0  0  0  0  0  0  0  0
    2.3936   -0.1271    0.0000 C   0  0  0  0  0  0  0  0  0  0  0  0
   -1.1014   -2.0546    0.0000 C   0  0  0  0  0  0  0  0  0  0  0  0
   -0.3813   -3.2832    0.0000 C   0  0  0  0  0  0  0  0  0  0  0  0
   -1.7792   -3.2832    0.0000 C   0  0  0  0  0  0  0  0  0  0  0  0
   -1.7581   -2.4571    0.0000 C   0  0  0  0  0  0  0  0  0  0  0  0
   -1.0591   -3.6644    0.0000 C   0  0  0  0  0  0  0  0  0  0  0  0
   -2.4783   -3.6856    0.0000 C   0  0  3  0  0  0  0  0  0  0  0  0
   -2.4994   -4.5329    0.0000 C   0  0  0  0  0  0  0  0  0  0  0  0
    0.9320    4.5329    0.0000 C   0  0  0  0  0  0  0  0  0  0  0  0
    1.0167    5.3378    0.0000 C   0  0  0  0  0  0  0  0  0  0  0  0
    0.2542    4.9777    0.0000 C   0  0  0  0  0  0  0  0  0  0  0  0
    1.7157    4.8295    0.0000 C   0  0  0  0  0  0  0  0  0  0  0  0
  1 35  1  0  0  0  0
  2 35  1  0  0  0  0
  3 35  1  0  0  0  0
  4 18  2  0  0  0  0
  5 27  1  0  0  0  0
  5 36  1  0  0  0  0
  6 27  2  0  0  0  0
 34  7  1  6  0  0  0
  8  9  1  0  0  0  0
  8 14  1  0  0  0  0
  8 15  1  0  0  0  0
  9 17  2  0  0  0  0
 10 17  1  0  0  0  0
 10 26  1  0  0  0  0
 11 23  1  0  0  0  0
 11 24  1  0  0  0  0
 11 27  1  0  0  0  0
 12 18  1  0  0  0  0
 12 25  1  0  0  0  0
 13 28  3  0  0  0  0
 14 19  1  0  0  0  0
 14 20  1  0  0  0  0
 14 22  1  0  0  0  0
 15 16  2  0  0  0  0
 15 21  1  0  0  0  0
 16 17  1  0  0  0  0
 16 18  1  0  0  0  0
 19 23  1  0  0  0  0
 20 24  1  0  0  0  0
 21 25  2  0  0  0  0
 22 28  1  0  0  0  0
 26 29  2  0  0  0  0
 26 30  1  0  0  0  0
 29 32  1  0  0  0  0
 30 33  2  0  0  0  0
 31 32  2  0  0  0  0
 31 33  1  0  0  0  0
 31 34  1  0  0  0  0
 34 35  1  0  0  0  0
 36 37  1  0  0  0  0
 36 38  1  0  0  0  0
 36 39  1  0  0  0  0
M  END
> <PUBCHEM_COMPOUND_ID_TYPE>
0

> <PUBCHEM_TOTAL_CHARGE>
0

> <PUBCHEM_SUBSTANCE_ID>
310940273

> <PUBCHEM_SUBSTANCE_VERSION>
1

> <PUBCHEM_EXT_DATASOURCE_NAME>
4488

> <PUBCHEM_EXT_DATASOURCE_REGID>
SCHEMBL16118216

> <PUBCHEM_SUBSTANCE_COMMENT>
InChI=1S/C26H29F3N6O4/c1-24(2,3)39-23(38)34-14-10-25(9-12-30,11-15-34)35-18-8-13-31-22(37)19(18)21(33-35)32-17-6-4-16(5-7-17)20(36)26(27,28)29/h4-8,13,20,36H,9-11,14-15H2,1-3H3,(H,31,37)(H,32,33)/t20-/m1/s1
InChIKey=BWKQCPQVKBBGTJ-HXUWFJFHSA-N

> <PUBCHEM_SUBSTANCE_SYNONYM>
SCHEMBL16118216

> <PUBCHEM_XREF_EXT_ID>
SCHEMBL16118216

> <PUBCHEM_EXT_DATASOURCE_URL>
https://www.surechembl.org/

> <PUBCHEM_EXT_SUBSTANCE_URL>
https://www.surechembl.org/chemical/SCHEMBL16118216

> <PUBCHEM_CID_ASSOCIATIONS>
117607358  1

> <PUBCHEM_COORDINATE_TYPE>
1
3

> <PUBCHEM_BONDANNOTATIONS>
34  7  6

$$$$
