310936974
  -OEChem-07211613022D

 25 28  0     1  0  0  0  0  0999 V2000
    2.4643   -8.4977    0.0000 Cl  0  0  0  0  0  0  0  0  0  0  0  0
    1.6570   -1.7420    0.0000 S   0  0  0  0  0  0  0  0  0  0  0  0
    0.0000   -5.6510    0.0000 O   0  0  0  0  0  0  0  0  0  0  0  0
    2.0395   -3.4841    0.0000 N   0  0  0  0  0  0  0  0  0  0  0  0
    1.2322   -4.9287    0.0000 N   0  0  0  0  0  0  0  0  0  0  0  0
    3.2291   -4.0364    0.0000 N   0  0  0  0  0  0  0  0  0  0  0  0
    3.3566   -3.1866    0.0000 N   0  0  0  0  0  0  0  0  0  0  0  0
    2.9742   -1.4446    0.0000 N   0  0  0  0  0  0  0  0  0  0  0  0
    1.7420   -0.8923    0.0000 N   0  0  0  0  0  0  0  0  0  0  0  0
    2.4643   -4.2064    0.0000 C   0  0  0  0  0  0  0  0  0  0  0  0
    2.5918   -2.8892    0.0000 C   0  0  0  0  0  0  0  0  0  0  0  0
    2.0395   -4.9287    0.0000 C   0  0  3  0  0  0  0  0  0  0  0  0
    2.4218   -2.0819    0.0000 C   0  0  0  0  0  0  0  0  0  0  0  0
    1.1897   -3.4841    0.0000 C   0  0  0  0  0  0  0  0  0  0  0  0
    0.8073   -5.6510    0.0000 C   0  0  0  0  0  0  0  0  0  0  0  0
    0.8073   -4.1639    0.0000 C   0  0  0  0  0  0  0  0  0  0  0  0
    1.2322   -6.3308    0.0000 C   0  0  0  0  0  0  0  0  0  0  0  0
    2.5493   -0.7648    0.0000 C   0  0  0  0  0  0  0  0  0  0  0  0
    2.4218   -5.6510    0.0000 C   0  0  0  0  0  0  0  0  0  0  0  0
    2.0395   -6.3733    0.0000 C   0  0  0  0  0  0  0  0  0  0  0  0
    0.8073   -7.0531    0.0000 C   0  0  0  0  0  0  0  0  0  0  0  0
    2.4643   -7.0531    0.0000 C   0  0  0  0  0  0  0  0  0  0  0  0
    1.2322   -7.7754    0.0000 C   0  0  0  0  0  0  0  0  0  0  0  0
    2.0395   -7.7754    0.0000 C   0  0  0  0  0  0  0  0  0  0  0  0
    2.8892    0.0000    0.0000 C   0  0  0  0  0  0  0  0  0  0  0  0
  1 24  1  0  0  0  0
  2  9  1  0  0  0  0
  2 13  1  0  0  0  0
  3 15  2  0  0  0  0
  4 10  1  0  0  0  0
  4 11  1  0  0  0  0
  4 14  1  0  0  0  0
  5 12  1  0  0  0  0
  5 15  1  0  0  0  0
  5 16  1  0  0  0  0
  6  7  1  0  0  0  0
  6 10  2  0  0  0  0
  7 11  2  0  0  0  0
  8 13  2  0  0  0  0
  8 18  1  0  0  0  0
  9 18  2  0  0  0  0
 10 12  1  0  0  0  0
 11 13  1  0  0  0  0
 12 19  1  1  0  0  0
 14 16  1  0  0  0  0
 15 17  1  0  0  0  0
 17 20  2  0  0  0  0
 17 21  1  0  0  0  0
 18 25  1  0  0  0  0
 20 22  1  0  0  0  0
 21 23  2  0  0  0  0
 22 24  2  0  0  0  0
 23 24  1  0  0  0  0
M  END
> <PUBCHEM_COMPOUND_ID_TYPE>
0

> <PUBCHEM_TOTAL_CHARGE>
0

> <PUBCHEM_SUBSTANCE_ID>
310936974

> <PUBCHEM_SUBSTANCE_VERSION>
1

> <PUBCHEM_EXT_DATASOURCE_NAME>
4488

> <PUBCHEM_EXT_DATASOURCE_REGID>
SCHEMBL16114677

> <PUBCHEM_SUBSTANCE_COMMENT>
InChI=1S/C16H15ClN6OS/c1-9-13-19-20-14(15-18-10(2)21-25-15)23(13)8-7-22(9)16(24)11-3-5-12(17)6-4-11/h3-6,9H,7-8H2,1-2H3/t9-/m1/s1
InChIKey=ZMIOQWILBZBCHW-SECBINFHSA-N

> <PUBCHEM_SUBSTANCE_SYNONYM>
SCHEMBL16114677

> <PUBCHEM_XREF_EXT_ID>
SCHEMBL16114677

> <PUBCHEM_EXT_DATASOURCE_URL>
https://www.surechembl.org/

> <PUBCHEM_EXT_SUBSTANCE_URL>
https://www.surechembl.org/chemical/SCHEMBL16114677

> <PUBCHEM_CID_ASSOCIATIONS>
86274489  1

> <PUBCHEM_COORDINATE_TYPE>
1
3

> <PUBCHEM_BONDANNOTATIONS>
12  19  5

$$$$
