310941611
  -OEChem-07211613022D

 31 35  0     0  0  0  0  0  0999 V2000
    1.4855    1.9578    0.0000 S   0  0  0  0  0  0  0  0  0  0  0  0
   -0.8501   -0.7213    0.0000 O   0  0  0  0  0  0  0  0  0  0  0  0
    0.5753   -0.7213    0.0000 O   0  0  0  0  0  0  0  0  0  0  0  0
    4.3879    0.9789    0.0000 O   0  0  0  0  0  0  0  0  0  0  0  0
   -5.1950   -1.5456    0.0000 O   0  0  0  0  0  0  0  0  0  0  0  0
    1.3481    0.6183    0.0000 N   0  0  0  0  0  0  0  0  0  0  0  0
   -3.7353   -0.7213    0.0000 N   0  0  0  0  0  0  0  0  0  0  0  0
    2.7392    1.1335    0.0000 N   0  0  0  0  0  0  0  0  0  0  0  0
   -0.1460    0.5495    0.0000 C   0  0  0  0  0  0  0  0  0  0  0  0
   -1.5886    0.5495    0.0000 C   0  0  0  0  0  0  0  0  0  0  0  0
   -1.6058   -0.2920    0.0000 C   0  0  0  0  0  0  0  0  0  0  0  0
    0.5581    0.9617    0.0000 C   0  0  0  0  0  0  0  0  0  0  0  0
   -0.1803   -0.2748    0.0000 C   0  0  0  0  0  0  0  0  0  0  0  0
   -0.8672    0.9445    0.0000 C   0  0  0  0  0  0  0  0  0  0  0  0
   -3.0311   -0.2920    0.0000 C   0  0  0  0  0  0  0  0  0  0  0  0
   -2.2755   -0.6870    0.0000 C   0  0  0  0  0  0  0  0  0  0  0  0
    1.8805    1.2536    0.0000 C   0  0  0  0  0  0  0  0  0  0  0  0
   -2.3099    0.9445    0.0000 C   0  0  0  0  0  0  0  0  0  0  0  0
    0.6784    1.7860    0.0000 C   0  0  0  0  0  0  0  0  0  0  0  0
   -3.0140    0.5495    0.0000 C   0  0  0  0  0  0  0  0  0  0  0  0
    3.0484    0.3950    0.0000 C   0  0  0  0  0  0  0  0  0  0  0  0
    3.8726    0.2920    0.0000 C   0  0  0  0  0  0  0  0  0  0  0  0
   -3.7696   -1.5456    0.0000 C   0  0  0  0  0  0  0  0  0  0  0  0
   -4.4909   -0.2920    0.0000 C   0  0  0  0  0  0  0  0  0  0  0  0
    2.5847   -0.2920    0.0000 C   0  0  0  0  0  0  0  0  0  0  0  0
    4.2162   -0.4637    0.0000 C   0  0  0  0  0  0  0  0  0  0  0  0
   -4.4566   -1.9578    0.0000 C   0  0  0  0  0  0  0  0  0  0  0  0
   -5.1607   -0.6870    0.0000 C   0  0  0  0  0  0  0  0  0  0  0  0
    2.9110   -1.0304    0.0000 C   0  0  0  0  0  0  0  0  0  0  0  0
    3.7353   -1.1163    0.0000 C   0  0  0  0  0  0  0  0  0  0  0  0
    5.1950    0.8758    0.0000 C   0  0  0  0  0  0  0  0  0  0  0  0
  1 17  1  0  0  0  0
  1 19  1  0  0  0  0
  2 11  1  0  0  0  0
  2 13  1  0  0  0  0
  3 13  2  0  0  0  0
  4 22  1  0  0  0  0
  4 31  1  0  0  0  0
  5 27  1  0  0  0  0
  5 28  1  0  0  0  0
  6 12  1  0  0  0  0
  6 17  2  0  0  0  0
  7 15  1  0  0  0  0
  7 23  1  0  0  0  0
  7 24  1  0  0  0  0
  8 17  1  0  0  0  0
  8 21  1  0  0  0  0
  9 12  1  0  0  0  0
  9 13  1  0  0  0  0
  9 14  2  0  0  0  0
 10 11  1  0  0  0  0
 10 14  1  0  0  0  0
 10 18  2  0  0  0  0
 11 16  2  0  0  0  0
 12 19  2  0  0  0  0
 15 16  1  0  0  0  0
 15 20  2  0  0  0  0
 18 20  1  0  0  0  0
 21 22  1  0  0  0  0
 21 25  2  0  0  0  0
 22 26  2  0  0  0  0
 23 27  1  0  0  0  0
 24 28  1  0  0  0  0
 25 29  1  0  0  0  0
 26 30  1  0  0  0  0
 29 30  2  0  0  0  0
M  END
> <PUBCHEM_COMPOUND_ID_TYPE>
0

> <PUBCHEM_TOTAL_CHARGE>
0

> <PUBCHEM_SUBSTANCE_ID>
310941611

> <PUBCHEM_SUBSTANCE_VERSION>
1

> <PUBCHEM_EXT_DATASOURCE_NAME>
4488

> <PUBCHEM_EXT_DATASOURCE_REGID>
SCHEMBL16119642

> <PUBCHEM_SUBSTANCE_COMMENT>
InChI=1S/C23H21N3O4S/c1-28-20-5-3-2-4-18(20)24-23-25-19(14-31-23)17-12-15-6-7-16(13-21(15)30-22(17)27)26-8-10-29-11-9-26/h2-7,12-14H,8-11H2,1H3,(H,24,25)
InChIKey=RYLQLZYZTHUHSN-UHFFFAOYSA-N

> <PUBCHEM_SUBSTANCE_SYNONYM>
SCHEMBL16119642

> <PUBCHEM_XREF_EXT_ID>
SCHEMBL16119642

> <PUBCHEM_EXT_DATASOURCE_URL>
https://www.surechembl.org/

> <PUBCHEM_EXT_SUBSTANCE_URL>
https://www.surechembl.org/chemical/SCHEMBL16119642

> <PUBCHEM_CID_ASSOCIATIONS>
86274272  1

> <PUBCHEM_COORDINATE_TYPE>
1
3

$$$$
