310941198
  -OEChem-07211613022D

 34 35  0     1  0  0  0  0  0999 V2000
   -0.3446   -0.4194    0.0000 O   0  0  0  0  0  0  0  0  0  0  0  0
    2.5315    0.4045    0.0000 O   0  0  0  0  0  0  0  0  0  0  0  0
    1.8125    1.6477    0.0000 O   0  0  0  0  0  0  0  0  0  0  0  0
   -0.3446    2.0671    0.0000 O   0  0  0  0  0  0  0  0  0  0  0  0
   -2.5016    1.6477    0.0000 O   0  0  0  0  0  0  0  0  0  0  0  0
    3.9546   -2.0671    0.0000 O   0  0  0  0  0  0  0  0  0  0  0  0
   -5.3626    1.6477    0.0000 O   0  0  0  0  0  0  0  0  0  0  0  0
    0.3745    0.8388    0.0000 N   0  0  0  0  0  0  0  0  0  0  0  0
   -1.7826    0.4194    0.0000 N   0  0  0  0  0  0  0  0  0  0  0  0
   -3.9396    0.8388    0.0000 N   0  0  0  0  0  0  0  0  0  0  0  0
   -1.0635    0.8388    0.0000 C   0  0  3  0  0  0  0  0  0  0  0  0
    1.1085    0.4194    0.0000 C   0  0  3  0  0  0  0  0  0  0  0  0
   -0.3446    0.4345    0.0000 C   0  0  0  0  0  0  0  0  0  0  0  0
    1.7976    0.8089    0.0000 C   0  0  0  0  0  0  0  0  0  0  0  0
    1.0785   -0.4194    0.0000 C   0  0  0  0  0  0  0  0  0  0  0  0
    1.8125   -0.8238    0.0000 C   0  0  0  0  0  0  0  0  0  0  0  0
   -1.0635    1.6628    0.0000 C   0  0  3  0  0  0  0  0  0  0  0  0
   -2.5016    0.8089    0.0000 C   0  0  0  0  0  0  0  0  0  0  0  0
    1.8125   -1.6477    0.0000 C   0  0  0  0  0  0  0  0  0  0  0  0
    2.5165   -0.4194    0.0000 C   0  0  0  0  0  0  0  0  0  0  0  0
   -3.1907    0.4194    0.0000 C   0  0  0  0  0  0  0  0  0  0  0  0
    3.2356   -1.6327    0.0000 C   0  0  0  0  0  0  0  0  0  0  0  0
    2.5165   -2.0521    0.0000 C   0  0  0  0  0  0  0  0  0  0  0  0
    3.2356   -0.8238    0.0000 C   0  0  0  0  0  0  0  0  0  0  0  0
   -1.7826    2.0521    0.0000 C   0  0  0  0  0  0  0  0  0  0  0  0
   -3.9246    1.6628    0.0000 C   0  0  0  0  0  0  0  0  0  0  0  0
   -4.6287    0.4194    0.0000 C   0  0  0  0  0  0  0  0  0  0  0  0
    3.2206    0.8089    0.0000 C   0  0  0  0  0  0  0  0  0  0  0  0
   -4.6736    2.0671    0.0000 C   0  0  0  0  0  0  0  0  0  0  0  0
   -5.3626    0.8238    0.0000 C   0  0  0  0  0  0  0  0  0  0  0  0
    3.9396    0.4045    0.0000 C   0  0  0  0  0  0  0  0  0  0  0  0
    4.7036   -1.6477    0.0000 C   0  0  0  0  0  0  0  0  0  0  0  0
    4.6287    0.8688    0.0000 C   0  0  0  0  0  0  0  0  0  0  0  0
    5.3626    0.4794    0.0000 C   0  0  0  0  0  0  0  0  0  0  0  0
  1 13  2  0  0  0  0
  2 14  1  0  0  0  0
  2 28  1  0  0  0  0
  3 14  2  0  0  0  0
 17  4  1  1  0  0  0
  5 18  2  0  0  0  0
  6 22  1  0  0  0  0
  6 32  1  0  0  0  0
  7 29  1  0  0  0  0
  7 30  1  0  0  0  0
 12  8  1  6  0  0  0
  8 13  1  0  0  0  0
 11  9  1  1  0  0  0
  9 18  1  0  0  0  0
 10 21  1  0  0  0  0
 10 26  1  0  0  0  0
 10 27  1  0  0  0  0
 11 13  1  0  0  0  0
 11 17  1  0  0  0  0
 12 14  1  0  0  0  0
 12 15  1  0  0  0  0
 15 16  1  0  0  0  0
 16 19  2  0  0  0  0
 16 20  1  0  0  0  0
 17 25  1  0  0  0  0
 18 21  1  0  0  0  0
 19 23  1  0  0  0  0
 20 24  2  0  0  0  0
 22 23  2  0  0  0  0
 22 24  1  0  0  0  0
 26 29  1  0  0  0  0
 27 30  1  0  0  0  0
 28 31  1  0  0  0  0
 31 33  1  0  0  0  0
 33 34  1  0  0  0  0
M  END
> <PUBCHEM_COMPOUND_ID_TYPE>
0

> <PUBCHEM_TOTAL_CHARGE>
0

> <PUBCHEM_SUBSTANCE_ID>
310941198

> <PUBCHEM_SUBSTANCE_VERSION>
1

> <PUBCHEM_EXT_DATASOURCE_NAME>
4488

> <PUBCHEM_EXT_DATASOURCE_REGID>
SCHEMBL16119158

> <PUBCHEM_SUBSTANCE_COMMENT>
InChI=1S/C24H37N3O7/c1-4-5-12-34-24(31)20(15-18-6-8-19(32-3)9-7-18)25-23(30)22(17(2)28)26-21(29)16-27-10-13-33-14-11-27/h6-9,17,20,22,28H,4-5,10-16H2,1-3H3,(H,25,30)(H,26,29)/t17-,20+,22+/m1/s1
InChIKey=RCCFSJXQFGYPBZ-AGHHOFFYSA-N

> <PUBCHEM_SUBSTANCE_SYNONYM>
SCHEMBL16119158

> <PUBCHEM_XREF_EXT_ID>
SCHEMBL16119158

> <PUBCHEM_EXT_DATASOURCE_URL>
https://www.surechembl.org/

> <PUBCHEM_EXT_SUBSTANCE_URL>
https://www.surechembl.org/chemical/SCHEMBL16119158

> <PUBCHEM_CID_ASSOCIATIONS>
117608071  1

> <PUBCHEM_COORDINATE_TYPE>
1
3

> <PUBCHEM_BONDANNOTATIONS>
17  4  5
12  8  6
11  9  5

$$$$
