310942556
  -OEChem-07211613022D

 44 48  0     1  0  0  0  0  0999 V2000
   -2.8877    1.2376    0.0000 F   0  0  0  0  0  0  0  0  0  0  0  0
   -2.8877   -2.0627    0.0000 F   0  0  0  0  0  0  0  0  0  0  0  0
    3.5890    0.1031    0.0000 F   0  0  0  0  0  0  0  0  0  0  0  0
   -0.1444   -0.7426    0.0000 O   0  0  0  0  0  0  0  0  0  0  0  0
    1.9389    2.8464    0.0000 O   0  0  0  0  0  0  0  0  0  0  0  0
   -0.5569    1.4232    0.0000 N   0  0  0  0  0  0  0  0  0  0  0  0
    1.1138   -0.0206    0.0000 N   0  0  0  0  0  0  0  0  0  0  0  0
   -0.7013    0.0825    0.0000 N   0  0  0  0  0  0  0  0  0  0  0  0
    1.1138   -1.4645    0.0000 N   0  0  0  0  0  0  0  0  0  0  0  0
    2.9702   -1.9389    0.0000 N   0  0  0  0  0  0  0  0  0  0  0  0
   -0.5982   -2.8877    0.0000 N   0  0  0  0  0  0  0  0  0  0  0  0
   -0.2063   -3.5890    0.0000 N   0  3  0  0  0  0  0  0  0  0  0  0
    0.1856   -4.2903    0.0000 N   0  5  0  0  0  0  0  0  0  0  0  0
   -0.1444    0.7219    0.0000 C   0  0  0  0  0  0  0  0  0  0  0  0
    0.6806    0.7013    0.0000 C   0  0  3  0  0  0  0  0  0  0  0  0
   -1.4645    0.4332    0.0000 C   0  0  0  0  0  0  0  0  0  0  0  0
    1.0932    1.4232    0.0000 C   0  0  0  0  0  0  0  0  0  0  0  0
   -1.3614    1.2582    0.0000 C   0  0  0  0  0  0  0  0  0  0  0  0
   -2.1658    0.0206    0.0000 C   0  0  0  0  0  0  0  0  0  0  0  0
    0.7013   -0.7426    0.0000 C   0  0  0  0  0  0  0  0  0  0  0  0
   -0.1444    2.1658    0.0000 C   0  0  0  0  0  0  0  0  0  0  0  0
    1.9389   -0.0413    0.0000 C   0  0  0  0  0  0  0  0  0  0  0  0
   -2.9083    0.4332    0.0000 C   0  0  0  0  0  0  0  0  0  0  0  0
    2.3514   -0.7219    0.0000 C   0  0  3  0  0  0  0  0  0  0  0  0
   -2.1864   -0.8251    0.0000 C   0  0  0  0  0  0  0  0  0  0  0  0
    0.7013    2.1245    0.0000 C   0  0  0  0  0  0  0  0  0  0  0  0
    1.9389    1.4232    0.0000 C   0  0  0  0  0  0  0  0  0  0  0  0
   -0.5569    2.8671    0.0000 C   0  0  0  0  0  0  0  0  0  0  0  0
   -2.8877   -1.2169    0.0000 C   0  0  0  0  0  0  0  0  0  0  0  0
    3.1558   -0.5982    0.0000 C   0  0  3  0  0  0  0  0  0  0  0  0
   -3.5890    0.0206    0.0000 C   0  0  0  0  0  0  0  0  0  0  0  0
    2.2483   -1.5057    0.0000 C   0  0  0  0  0  0  0  0  0  0  0  0
   -3.5890   -0.8251    0.0000 C   0  0  0  0  0  0  0  0  0  0  0  0
    1.1138    2.8671    0.0000 C   0  0  0  0  0  0  0  0  0  0  0  0
    2.3514    2.1451    0.0000 C   0  0  0  0  0  0  0  0  0  0  0  0
   -1.3819    2.8671    0.0000 C   0  0  0  0  0  0  0  0  0  0  0  0
   -0.1650    3.5890    0.0000 C   0  0  0  0  0  0  0  0  0  0  0  0
    0.6806   -2.1658    0.0000 C   0  0  3  0  0  0  0  0  0  0  0  0
    3.5477   -1.3407    0.0000 C   0  0  0  0  0  0  0  0  0  0  0  0
   -1.7945    3.5684    0.0000 C   0  0  0  0  0  0  0  0  0  0  0  0
   -0.5569    4.2903    0.0000 C   0  0  0  0  0  0  0  0  0  0  0  0
   -0.1238   -2.1658    0.0000 C   0  0  0  0  0  0  0  0  0  0  0  0
   -1.3819    4.2696    0.0000 C   0  0  0  0  0  0  0  0  0  0  0  0
    1.1138   -2.8877    0.0000 C   0  0  0  0  0  0  0  0  0  0  0  0
  1 23  1  0  0  0  0
  2 29  1  0  0  0  0
 30  3  1  1  0  0  0
  4 20  2  0  0  0  0
  5 34  1  0  0  0  0
  5 35  1  0  0  0  0
  6 14  1  0  0  0  0
  6 18  1  0  0  0  0
  6 21  1  0  0  0  0
 15  7  1  1  0  0  0
  7 20  1  0  0  0  0
  7 22  1  0  0  0  0
  8 14  2  0  0  0  0
  8 16  1  0  0  0  0
  9 20  1  0  0  0  0
  9 38  1  0  0  0  0
 10 32  1  0  0  0  0
 10 39  1  0  0  0  0
 11 12  2  0  0  0  0
 11 42  1  0  0  0  0
 12 13  2  0  0  0  0
 14 15  1  0  0  0  0
 15 17  1  0  0  0  0
 16 18  2  0  0  0  0
 16 19  1  0  0  0  0
 17 26  1  0  0  0  0
 17 27  1  0  0  0  0
 19 23  1  0  0  0  0
 19 25  2  0  0  0  0
 21 28  1  0  0  0  0
 24 22  1  1  0  0  0
 23 31  2  0  0  0  0
 24 30  1  0  0  0  0
 24 32  1  0  0  0  0
 25 29  1  0  0  0  0
 26 34  1  0  0  0  0
 27 35  1  0  0  0  0
 28 36  2  0  0  0  0
 28 37  1  0  0  0  0
 29 33  2  0  0  0  0
 30 39  1  0  0  0  0
 31 33  1  0  0  0  0
 36 40  1  0  0  0  0
 37 41  2  0  0  0  0
 38 42  1  0  0  0  0
 38 44  1  1  0  0  0
 40 43  2  0  0  0  0
 41 43  1  0  0  0  0
M  CHG  2  12   1  13  -1
M  END
> <PUBCHEM_COMPOUND_ID_TYPE>
0

> <PUBCHEM_TOTAL_CHARGE>
0

> <PUBCHEM_SUBSTANCE_ID>
310942556

> <PUBCHEM_SUBSTANCE_VERSION>
1

> <PUBCHEM_EXT_DATASOURCE_NAME>
4488

> <PUBCHEM_EXT_DATASOURCE_REGID>
SCHEMBL16120597

> <PUBCHEM_SUBSTANCE_COMMENT>
InChI=1S/C31H37F3N8O2/c1-20(14-37-40-35)38-31(43)42(18-23-15-36-16-27(23)34)29(22-9-11-44-12-10-22)30-39-28(25-13-24(32)7-8-26(25)33)19-41(30)17-21-5-3-2-4-6-21/h2-8,13,19-20,22-23,27,29,36H,9-12,14-18H2,1H3,(H,38,43)/t20-,23-,27-,29+/m0/s1
InChIKey=PYBQTZVUVWBCJS-QRRTUWSLSA-N

> <PUBCHEM_SUBSTANCE_SYNONYM>
SCHEMBL16120597

> <PUBCHEM_XREF_EXT_ID>
SCHEMBL16120597

> <PUBCHEM_EXT_DATASOURCE_URL>
https://www.surechembl.org/

> <PUBCHEM_EXT_SUBSTANCE_URL>
https://www.surechembl.org/chemical/SCHEMBL16120597

> <PUBCHEM_CID_ASSOCIATIONS>
117609112  1

> <PUBCHEM_COORDINATE_TYPE>
1
3

> <PUBCHEM_BONDANNOTATIONS>
24  22  5
30  3  5
38  44  5
15  7  5

$$$$
