310948229
  -OEChem-07211613022D

 46 51  0     0  0  0  0  0  0999 V2000
   -2.7282   -3.1595    0.0000 S   0  0  0  0  0  0  0  0  0  0  0  0
    3.3845   -2.5407    0.0000 F   0  0  0  0  0  0  0  0  0  0  0  0
    2.5595   -3.2907    0.0000 F   0  0  0  0  0  0  0  0  0  0  0  0
   -1.0219    4.1907    0.0000 F   0  0  0  0  0  0  0  0  0  0  0  0
    0.0657    4.3970    0.0000 F   0  0  0  0  0  0  0  0  0  0  0  0
    0.2531    3.2907    0.0000 F   0  0  0  0  0  0  0  0  0  0  0  0
    0.1406   -3.1595    0.0000 F   0  0  0  0  0  0  0  0  0  0  0  0
    1.4532    1.2469    0.0000 O   0  0  0  0  0  0  0  0  0  0  0  0
    2.7282   -1.6594    0.0000 O   0  0  0  0  0  0  0  0  0  0  0  0
    1.7532   -2.5407    0.0000 O   0  0  0  0  0  0  0  0  0  0  0  0
   -3.1032   -2.5032    0.0000 O   0  0  0  0  0  0  0  0  0  0  0  0
   -2.3157   -3.8532    0.0000 O   0  0  0  0  0  0  0  0  0  0  0  0
   -0.5719   -4.3970    0.0000 O   0  0  0  0  0  0  0  0  0  0  0  0
   -1.2844    1.8094    0.0000 N   0  0  0  0  0  0  0  0  0  0  0  0
    0.2343    1.8094    0.0000 N   0  0  0  0  0  0  0  0  0  0  0  0
   -0.6282    2.2970    0.0000 N   0  0  0  0  0  0  0  0  0  0  0  0
   -0.5719    0.5719    0.0000 C   0  0  0  0  0  0  0  0  0  0  0  0
    0.1406    0.9844    0.0000 C   0  0  0  0  0  0  0  0  0  0  0  0
   -1.2844    0.9844    0.0000 C   0  0  0  0  0  0  0  0  0  0  0  0
    0.8907    0.6282    0.0000 C   0  0  0  0  0  0  0  0  0  0  0  0
    1.0594   -0.1594    0.0000 C   0  0  0  0  0  0  0  0  0  0  0  0
   -1.2844   -0.6657    0.0000 C   0  0  0  0  0  0  0  0  0  0  0  0
   -0.5907   -0.2719    0.0000 C   0  0  0  0  0  0  0  0  0  0  0  0
    2.0157   -1.2094    0.0000 C   0  0  0  0  0  0  0  0  0  0  0  0
   -1.3031   -1.5094    0.0000 C   0  0  0  0  0  0  0  0  0  0  0  0
   -1.9594    2.2970    0.0000 C   0  0  0  0  0  0  0  0  0  0  0  0
   -1.9782    0.5531    0.0000 C   0  0  0  0  0  0  0  0  0  0  0  0
    1.4157   -1.7907    0.0000 C   0  0  0  0  0  0  0  0  0  0  0  0
    1.0219    1.9594    0.0000 C   0  0  0  0  0  0  0  0  0  0  0  0
   -0.8719    3.0469    0.0000 C   0  0  0  0  0  0  0  0  0  0  0  0
    1.8469   -0.4406    0.0000 C   0  0  0  0  0  0  0  0  0  0  0  0
   -1.9970   -0.2719    0.0000 C   0  0  0  0  0  0  0  0  0  0  0  0
    2.5595   -2.4469    0.0000 C   0  0  0  0  0  0  0  0  0  0  0  0
   -2.0157   -2.7469    0.0000 C   0  0  0  0  0  0  0  0  0  0  0  0
    0.4594   -0.7406    0.0000 C   0  0  0  0  0  0  0  0  0  0  0  0
   -1.6969    3.0657    0.0000 C   0  0  0  0  0  0  0  0  0  0  0  0
   -1.9782   -1.9219    0.0000 C   0  0  0  0  0  0  0  0  0  0  0  0
   -1.2844   -3.1595    0.0000 C   0  0  0  0  0  0  0  0  0  0  0  0
    0.6282   -1.5282    0.0000 C   0  0  0  0  0  0  0  0  0  0  0  0
   -0.3844    3.7407    0.0000 C   0  0  0  0  0  0  0  0  0  0  0  0
   -0.5719   -1.9219    0.0000 C   0  0  0  0  0  0  0  0  0  0  0  0
   -0.5719   -2.7469    0.0000 C   0  0  0  0  0  0  0  0  0  0  0  0
   -2.7469    2.0157    0.0000 C   0  0  0  0  0  0  0  0  0  0  0  0
    1.3594    2.7282    0.0000 C   0  0  0  0  0  0  0  0  0  0  0  0
   -1.2844   -3.9845    0.0000 C   0  0  0  0  0  0  0  0  0  0  0  0
   -3.3845   -3.5532    0.0000 C   0  0  0  0  0  0  0  0  0  0  0  0
  1 11  2  0  0  0  0
  1 12  2  0  0  0  0
  1 34  1  0  0  0  0
  1 46  1  0  0  0  0
  2 33  1  0  0  0  0
  3 33  1  0  0  0  0
  4 40  1  0  0  0  0
  5 40  1  0  0  0  0
  6 40  1  0  0  0  0
  7 42  1  0  0  0  0
  8 20  1  0  0  0  0
  8 29  1  0  0  0  0
  9 24  1  0  0  0  0
  9 33  1  0  0  0  0
 10 28  1  0  0  0  0
 10 33  1  0  0  0  0
 13 45  1  0  0  0  0
 14 16  1  0  0  0  0
 14 19  1  0  0  0  0
 14 26  1  0  0  0  0
 15 18  1  0  0  0  0
 15 29  2  0  0  0  0
 16 30  2  0  0  0  0
 17 18  1  0  0  0  0
 17 19  1  0  0  0  0
 17 23  2  0  0  0  0
 18 20  2  0  0  0  0
 19 27  2  0  0  0  0
 20 21  1  0  0  0  0
 21 31  1  0  0  0  0
 21 35  2  0  0  0  0
 22 23  1  0  0  0  0
 22 25  1  0  0  0  0
 22 32  2  0  0  0  0
 24 28  1  0  0  0  0
 24 31  2  0  0  0  0
 25 37  1  0  0  0  0
 25 41  2  0  0  0  0
 26 36  2  0  0  0  0
 26 43  1  0  0  0  0
 27 32  1  0  0  0  0
 28 39  2  0  0  0  0
 29 44  1  0  0  0  0
 30 36  1  0  0  0  0
 30 40  1  0  0  0  0
 34 37  2  0  0  0  0
 34 38  1  0  0  0  0
 35 39  1  0  0  0  0
 38 42  2  0  0  0  0
 38 45  1  0  0  0  0
 41 42  1  0  0  0  0
M  END
> <PUBCHEM_COMPOUND_ID_TYPE>
0

> <PUBCHEM_TOTAL_CHARGE>
0

> <PUBCHEM_SUBSTANCE_ID>
310948229

> <PUBCHEM_SUBSTANCE_VERSION>
1

> <PUBCHEM_EXT_DATASOURCE_NAME>
4488

> <PUBCHEM_EXT_DATASOURCE_REGID>
SCHEMBL16126406

> <PUBCHEM_SUBSTANCE_COMMENT>
InChI=1S/C30H21F6N3O6S/c1-14-8-26(29(32,33)34)38-39(14)22-6-4-16(18-10-21(31)20(13-40)25(12-18)46(3,41)42)9-19(22)27-28(43-15(2)37-27)17-5-7-23-24(11-17)45-30(35,36)44-23/h4-12,40H,13H2,1-3H3
InChIKey=XDSITDJPRVIWIH-UHFFFAOYSA-N

> <PUBCHEM_SUBSTANCE_SYNONYM>
SCHEMBL16126406

> <PUBCHEM_XREF_EXT_ID>
SCHEMBL16126406

> <PUBCHEM_EXT_DATASOURCE_URL>
https://www.surechembl.org/

> <PUBCHEM_EXT_SUBSTANCE_URL>
https://www.surechembl.org/chemical/SCHEMBL16126406

> <PUBCHEM_CID_ASSOCIATIONS>
117613809  1

> <PUBCHEM_COORDINATE_TYPE>
1
3

$$$$
