310948176
  -OEChem-07211613022D

 30 32  0     0  0  0  0  0  0999 V2000
    4.1255    2.2003    0.0000 F   0  0  0  0  0  0  0  0  0  0  0  0
    3.9619    1.2636    0.0000 F   0  0  0  0  0  0  0  0  0  0  0  0
   -1.2265   -2.0516    0.0000 F   0  0  0  0  0  0  0  0  0  0  0  0
   -1.9847   -2.8246    0.0000 F   0  0  0  0  0  0  0  0  0  0  0  0
   -2.7429   -2.0516    0.0000 F   0  0  0  0  0  0  0  0  0  0  0  0
   -3.8132   -0.2230    0.0000 F   0  0  0  0  0  0  0  0  0  0  0  0
   -4.1255    0.8028    0.0000 F   0  0  0  0  0  0  0  0  0  0  0  0
   -3.0848    1.1001    0.0000 F   0  0  0  0  0  0  0  0  0  0  0  0
    1.3603    1.0407    0.0000 O   0  0  0  0  0  0  0  0  0  0  0  0
    2.3861    1.6502    0.0000 N   0  0  0  0  0  0  0  0  0  0  0  0
    0.3493    1.4718    0.0000 N   0  0  0  0  0  0  0  0  0  0  0  0
   -0.4831    1.2934    0.0000 N   0  0  0  0  0  0  0  0  0  0  0  0
    0.2007    0.1189    0.0000 N   0  0  0  0  0  0  0  0  0  0  0  0
   -1.2859    0.0446    0.0000 C   0  0  0  0  0  0  0  0  0  0  0  0
   -1.9996   -1.2042    0.0000 C   0  0  0  0  0  0  0  0  0  0  0  0
   -2.7429    0.0297    0.0000 C   0  0  0  0  0  0  0  0  0  0  0  0
   -0.5872    0.4757    0.0000 C   0  0  0  0  0  0  0  0  0  0  0  0
    3.5605    1.6650    0.0000 C   0  0  0  0  0  0  0  0  0  0  0  0
   -2.0144    0.4460    0.0000 C   0  0  0  0  0  0  0  0  0  0  0  0
   -1.2859   -0.7880    0.0000 C   0  0  0  0  0  0  0  0  0  0  0  0
   -2.7280   -0.7880    0.0000 C   0  0  0  0  0  0  0  0  0  0  0  0
   -1.9996   -2.0516    0.0000 C   0  0  0  0  0  0  0  0  0  0  0  0
   -3.4565    0.4460    0.0000 C   0  0  0  0  0  0  0  0  0  0  0  0
    1.7171    1.6502    0.0000 C   0  0  0  0  0  0  0  0  0  0  0  0
    2.9808    1.0704    0.0000 C   0  0  0  0  0  0  0  0  0  0  0  0
    2.9659    2.2300    0.0000 C   0  0  0  0  0  0  0  0  0  0  0  0
    1.3454    2.2151    0.0000 C   0  0  0  0  0  0  0  0  0  0  0  0
    0.6765    2.2300    0.0000 C   0  0  0  0  0  0  0  0  0  0  0  0
    0.7508    0.7285    0.0000 C   0  0  0  0  0  0  0  0  0  0  0  0
    1.7022    2.8246    0.0000 C   0  0  0  0  0  0  0  0  0  0  0  0
  1 18  1  0  0  0  0
  2 18  1  0  0  0  0
  3 22  1  0  0  0  0
  4 22  1  0  0  0  0
  5 22  1  0  0  0  0
  6 23  1  0  0  0  0
  7 23  1  0  0  0  0
  8 23  1  0  0  0  0
  9 24  2  0  0  0  0
 10 24  1  0  0  0  0
 10 25  1  0  0  0  0
 10 26  1  0  0  0  0
 11 12  1  0  0  0  0
 11 28  1  0  0  0  0
 11 29  1  0  0  0  0
 12 17  2  0  0  0  0
 13 17  1  0  0  0  0
 13 29  2  0  0  0  0
 14 17  1  0  0  0  0
 14 19  2  0  0  0  0
 14 20  1  0  0  0  0
 15 20  2  0  0  0  0
 15 21  1  0  0  0  0
 15 22  1  0  0  0  0
 16 19  1  0  0  0  0
 16 21  2  0  0  0  0
 16 23  1  0  0  0  0
 18 25  1  0  0  0  0
 18 26  1  0  0  0  0
 24 27  1  0  0  0  0
 27 28  1  0  0  0  0
 27 30  2  0  0  0  0
M  END
> <PUBCHEM_COMPOUND_ID_TYPE>
0

> <PUBCHEM_TOTAL_CHARGE>
0

> <PUBCHEM_SUBSTANCE_ID>
310948176

> <PUBCHEM_SUBSTANCE_VERSION>
1

> <PUBCHEM_EXT_DATASOURCE_NAME>
4488

> <PUBCHEM_EXT_DATASOURCE_REGID>
SCHEMBL16126353

> <PUBCHEM_SUBSTANCE_COMMENT>
InChI=1S/C17H12F8N4O/c1-9(14(30)28-6-15(18,19)7-28)5-29-8-26-13(27-29)10-2-11(16(20,21)22)4-12(3-10)17(23,24)25/h2-4,8H,1,5-7H2
InChIKey=NJANTQSBIXWORN-UHFFFAOYSA-N

> <PUBCHEM_SUBSTANCE_SYNONYM>
SCHEMBL16126353

> <PUBCHEM_XREF_EXT_ID>
SCHEMBL16126353

> <PUBCHEM_EXT_DATASOURCE_URL>
https://www.surechembl.org/

> <PUBCHEM_EXT_SUBSTANCE_URL>
https://www.surechembl.org/chemical/SCHEMBL16126353

> <PUBCHEM_CID_ASSOCIATIONS>
86294537  1

> <PUBCHEM_COORDINATE_TYPE>
1
3

$$$$
