310930825
  -OEChem-07211613022D

 39 43  0     1  0  0  0  0  0999 V2000
    6.4037   -5.8415    0.0000 F   0  0  0  0  0  0  0  0  0  0  0  0
    0.0313   -3.8110    0.0000 F   0  0  0  0  0  0  0  0  0  0  0  0
    0.0313   -2.9676    0.0000 F   0  0  0  0  0  0  0  0  0  0  0  0
    1.5931   -2.3116    0.0000 F   0  0  0  0  0  0  0  0  0  0  0  0
    0.0000   -2.1554    0.0000 F   0  0  0  0  0  0  0  0  0  0  0  0
    0.7185   -1.7493    0.0000 F   0  0  0  0  0  0  0  0  0  0  0  0
    4.9981   -5.8415    0.0000 O   0  0  0  0  0  0  0  0  0  0  0  0
    1.4369   -4.6232    0.0000 O   0  0  0  0  0  0  0  0  0  0  0  0
    4.2796   -4.5920    0.0000 N   0  0  0  0  0  0  0  0  0  0  0  0
    4.9981   -3.3737    0.0000 N   0  0  0  0  0  0  0  0  0  0  0  0
    3.5923   -2.5615    0.0000 N   0  0  0  0  0  0  0  0  0  0  0  0
    2.2179   -2.5615    0.0000 N   0  0  0  0  0  0  0  0  0  0  0  0
    1.4682   -1.3120    0.0000 N   0  0  0  0  0  0  0  0  0  0  0  0
    2.3428   -0.0937    0.0000 N   0  0  0  0  0  0  0  0  0  0  0  0
    4.2796   -3.7798    0.0000 C   0  0  0  0  0  0  0  0  0  0  0  0
    5.7165   -4.5920    0.0000 C   0  0  0  0  0  0  0  0  0  0  0  0
    4.9981   -4.9981    0.0000 C   0  0  0  0  0  0  0  0  0  0  0  0
    5.7165   -3.7798    0.0000 C   0  0  0  0  0  0  0  0  0  0  0  0
    3.5923   -4.9981    0.0000 C   0  0  0  0  0  0  0  0  0  0  0  0
    3.5923   -3.3737    0.0000 C   0  0  3  0  0  0  0  0  0  0  0  0
    6.4037   -4.9981    0.0000 C   0  0  0  0  0  0  0  0  0  0  0  0
    6.4037   -3.3737    0.0000 C   0  0  0  0  0  0  0  0  0  0  0  0
    2.8739   -4.6232    0.0000 C   0  0  0  0  0  0  0  0  0  0  0  0
    2.8739   -2.1554    0.0000 C   0  0  0  0  0  0  0  0  0  0  0  0
    3.5923   -5.8415    0.0000 C   0  0  0  0  0  0  0  0  0  0  0  0
    2.9051   -1.3120    0.0000 C   0  0  0  0  0  0  0  0  0  0  0  0
    2.1554   -5.0293    0.0000 C   0  0  0  0  0  0  0  0  0  0  0  0
    7.1222   -4.5920    0.0000 C   0  0  0  0  0  0  0  0  0  0  0  0
    0.7497   -3.3737    0.0000 C   0  0  0  0  0  0  0  0  0  0  0  0
    7.1222   -3.7798    0.0000 C   0  0  0  0  0  0  0  0  0  0  0  0
    2.1554   -0.9059    0.0000 C   0  0  0  0  0  0  0  0  0  0  0  0
    0.7185   -2.5615    0.0000 C   0  0  0  0  0  0  0  0  0  0  0  0
    2.8739   -6.2475    0.0000 C   0  0  0  0  0  0  0  0  0  0  0  0
    2.1554   -5.8415    0.0000 C   0  0  0  0  0  0  0  0  0  0  0  0
    2.8739   -3.7798    0.0000 C   0  0  0  0  0  0  0  0  0  0  0  0
    1.4369   -3.8110    0.0000 C   0  0  0  0  0  0  0  0  0  0  0  0
    3.4986   -0.7497    0.0000 C   0  0  0  0  0  0  0  0  0  0  0  0
    1.4682   -2.1241    0.0000 C   0  0  0  0  0  0  0  0  0  0  0  0
    3.1550    0.0000    0.0000 C   0  0  0  0  0  0  0  0  0  0  0  0
  1 21  1  0  0  0  0
  2 29  1  0  0  0  0
  3 29  1  0  0  0  0
  4 32  1  0  0  0  0
  5 32  1  0  0  0  0
  6 32  1  0  0  0  0
  7 17  2  0  0  0  0
  8 27  1  0  0  0  0
  8 36  1  0  0  0  0
  9 15  1  0  0  0  0
  9 17  1  0  0  0  0
  9 19  1  0  0  0  0
 10 15  2  0  0  0  0
 10 18  1  0  0  0  0
 11 20  1  0  0  0  0
 11 24  1  0  0  0  0
 12 24  1  0  0  0  0
 12 38  2  0  0  0  0
 13 31  2  0  0  0  0
 13 38  1  0  0  0  0
 14 31  1  0  0  0  0
 14 39  1  0  0  0  0
 15 20  1  0  0  0  0
 16 17  1  0  0  0  0
 16 18  2  0  0  0  0
 16 21  1  0  0  0  0
 18 22  1  0  0  0  0
 19 23  1  0  0  0  0
 19 25  2  0  0  0  0
 20 35  1  6  0  0  0
 21 28  2  0  0  0  0
 22 30  2  0  0  0  0
 23 27  2  0  0  0  0
 24 26  2  0  0  0  0
 25 33  1  0  0  0  0
 26 31  1  0  0  0  0
 26 37  1  0  0  0  0
 27 34  1  0  0  0  0
 28 30  1  0  0  0  0
 29 32  1  0  0  0  0
 29 36  1  0  0  0  0
 33 34  2  0  0  0  0
 37 39  2  0  0  0  0
M  END
> <PUBCHEM_COMPOUND_ID_TYPE>
0

> <PUBCHEM_TOTAL_CHARGE>
0

> <PUBCHEM_SUBSTANCE_ID>
310930825

> <PUBCHEM_SUBSTANCE_VERSION>
1

> <PUBCHEM_EXT_DATASOURCE_NAME>
4488

> <PUBCHEM_EXT_DATASOURCE_REGID>
SCHEMBL16108122

> <PUBCHEM_SUBSTANCE_COMMENT>
InChI=1S/C25H18F6N6O2/c1-13(35-21-16-8-9-32-20(16)33-12-34-21)22-36-18-7-3-6-17(26)19(18)23(38)37(22)14-4-2-5-15(10-14)39-11-24(27,28)25(29,30)31/h2-10,12-13H,11H2,1H3,(H2,32,33,34,35)/t13-/m0/s1
InChIKey=NJUJSAGXHMMPNV-ZDUSSCGKSA-N

> <PUBCHEM_SUBSTANCE_SYNONYM>
SCHEMBL16108122

> <PUBCHEM_XREF_EXT_ID>
SCHEMBL16108122

> <PUBCHEM_EXT_DATASOURCE_URL>
https://www.surechembl.org/

> <PUBCHEM_EXT_SUBSTANCE_URL>
https://www.surechembl.org/chemical/SCHEMBL16108122

> <PUBCHEM_CID_ASSOCIATIONS>
86272861  1

> <PUBCHEM_COORDINATE_TYPE>
1
3

> <PUBCHEM_BONDANNOTATIONS>
20  35  6

$$$$
