310936700
  -OEChem-07211613022D

 41 44  0     1  0  0  0  0  0999 V2000
    1.4289    6.3536    0.0000 F   0  0  0  0  0  0  0  0  0  0  0  0
    1.1270    5.2266    0.0000 F   0  0  0  0  0  0  0  0  0  0  0  0
    0.3020    6.6555    0.0000 F   0  0  0  0  0  0  0  0  0  0  0  0
   -2.8579    6.3536    0.0000 F   0  0  0  0  0  0  0  0  0  0  0  0
   -2.5559    5.2266    0.0000 F   0  0  0  0  0  0  0  0  0  0  0  0
   -1.7309    6.6555    0.0000 F   0  0  0  0  0  0  0  0  0  0  0  0
    1.5207   -0.2370    0.0000 F   0  0  0  0  0  0  0  0  0  0  0  0
    0.6139   -0.9712    0.0000 F   0  0  0  0  0  0  0  0  0  0  0  0
    0.7864    0.6697    0.0000 F   0  0  0  0  0  0  0  0  0  0  0  0
   -0.0470    2.9812    0.0000 O   0  0  0  0  0  0  0  0  0  0  0  0
    0.1830    1.5291    0.0000 O   0  0  0  0  0  0  0  0  0  0  0  0
   -4.0365   -1.8081    0.0000 O   0  0  0  0  0  0  0  0  0  0  0  0
   -1.1270    2.1965    0.0000 N   0  0  0  0  0  0  0  0  0  0  0  0
   -2.5817    0.1942    0.0000 N   0  0  0  0  0  0  0  0  0  0  0  0
   -1.4257   -0.6457    0.0000 N   0  0  0  0  0  0  0  0  0  0  0  0
   -0.7145    3.4661    0.0000 C   0  0  3  0  0  0  0  0  0  0  0  0
   -1.3819    2.9812    0.0000 C   0  0  3  0  0  0  0  0  0  0  0  0
   -0.7145    4.2911    0.0000 C   0  0  0  0  0  0  0  0  0  0  0  0
   -0.3020    2.1965    0.0000 C   0  0  0  0  0  0  0  0  0  0  0  0
   -1.2763    0.7754    0.0000 C   0  0  0  0  0  0  0  0  0  0  0  0
    0.0000    5.5286    0.0000 C   0  0  0  0  0  0  0  0  0  0  0  0
   -1.4289    5.5286    0.0000 C   0  0  0  0  0  0  0  0  0  0  0  0
   -1.6119    1.5291    0.0000 C   0  0  0  0  0  0  0  0  0  0  0  0
   -1.7613    0.1080    0.0000 C   0  0  0  0  0  0  0  0  0  0  0  0
   -1.4289    4.7036    0.0000 C   0  0  0  0  0  0  0  0  0  0  0  0
    0.0000    4.7036    0.0000 C   0  0  0  0  0  0  0  0  0  0  0  0
   -0.7145    5.9411    0.0000 C   0  0  0  0  0  0  0  0  0  0  0  0
    0.7145    5.9411    0.0000 C   0  0  0  0  0  0  0  0  0  0  0  0
   -2.1434    5.9411    0.0000 C   0  0  0  0  0  0  0  0  0  0  0  0
   -0.1203   -0.0645    0.0000 C   0  0  0  0  0  0  0  0  0  0  0  0
   -0.4559    0.6892    0.0000 C   0  0  0  0  0  0  0  0  0  0  0  0
    0.7002   -0.1507    0.0000 C   0  0  0  0  0  0  0  0  0  0  0  0
   -2.1665    3.2361    0.0000 C   0  0  0  0  0  0  0  0  0  0  0  0
   -0.6052   -0.7319    0.0000 C   0  0  0  0  0  0  0  0  0  0  0  0
   -3.0667   -0.4732    0.0000 C   0  0  0  0  0  0  0  0  0  0  0  0
   -2.9173    0.9479    0.0000 C   0  0  0  0  0  0  0  0  0  0  0  0
   -3.8871   -0.3870    0.0000 C   0  0  0  0  0  0  0  0  0  0  0  0
   -2.7311   -1.2269    0.0000 C   0  0  0  0  0  0  0  0  0  0  0  0
   -4.3721   -1.0544    0.0000 C   0  0  0  0  0  0  0  0  0  0  0  0
   -3.2160   -1.8943    0.0000 C   0  0  0  0  0  0  0  0  0  0  0  0
   -2.4324    1.6153    0.0000 C   0  0  0  0  0  0  0  0  0  0  0  0
  1 28  1  0  0  0  0
  2 28  1  0  0  0  0
  3 28  1  0  0  0  0
  4 29  1  0  0  0  0
  5 29  1  0  0  0  0
  6 29  1  0  0  0  0
  7 32  1  0  0  0  0
  8 32  1  0  0  0  0
  9 32  1  0  0  0  0
 10 16  1  0  0  0  0
 10 19  1  0  0  0  0
 11 19  2  0  0  0  0
 12 39  1  0  0  0  0
 12 40  1  0  0  0  0
 13 17  1  0  0  0  0
 13 19  1  0  0  0  0
 13 23  1  0  0  0  0
 14 24  1  0  0  0  0
 14 35  1  0  0  0  0
 14 36  1  0  0  0  0
 15 24  2  0  0  0  0
 15 34  1  0  0  0  0
 16 17  1  0  0  0  0
 16 18  1  1  0  0  0
 17 33  1  1  0  0  0
 18 25  2  0  0  0  0
 18 26  1  0  0  0  0
 20 23  1  0  0  0  0
 20 24  1  0  0  0  0
 20 31  2  0  0  0  0
 21 26  2  0  0  0  0
 21 27  1  0  0  0  0
 21 28  1  0  0  0  0
 22 25  1  0  0  0  0
 22 27  2  0  0  0  0
 22 29  1  0  0  0  0
 30 31  1  0  0  0  0
 30 32  1  0  0  0  0
 30 34  2  0  0  0  0
 35 37  1  0  0  0  0
 35 38  1  0  0  0  0
 36 41  1  0  0  0  0
 37 39  1  0  0  0  0
 38 40  1  0  0  0  0
M  END
> <PUBCHEM_COMPOUND_ID_TYPE>
0

> <PUBCHEM_TOTAL_CHARGE>
0

> <PUBCHEM_SUBSTANCE_ID>
310936700

> <PUBCHEM_SUBSTANCE_VERSION>
1

> <PUBCHEM_EXT_DATASOURCE_NAME>
4488

> <PUBCHEM_EXT_DATASOURCE_REGID>
SCHEMBL16114376

> <PUBCHEM_SUBSTANCE_COMMENT>
InChI=1S/C26H26F9N3O3/c1-3-37(20-4-6-40-7-5-20)22-16(10-19(12-36-22)26(33,34)35)13-38-14(2)21(41-23(38)39)15-8-17(24(27,28)29)11-18(9-15)25(30,31)32/h8-12,14,20-21H,3-7,13H2,1-2H3/t14-,21-/m0/s1
InChIKey=CFWCKZASBUAKDN-QKKBWIMNSA-N

> <PUBCHEM_SUBSTANCE_SYNONYM>
SCHEMBL16114376

> <PUBCHEM_XREF_EXT_ID>
SCHEMBL16114376

> <PUBCHEM_EXT_DATASOURCE_URL>
https://www.surechembl.org/

> <PUBCHEM_EXT_SUBSTANCE_URL>
https://www.surechembl.org/chemical/SCHEMBL16114376

> <PUBCHEM_CID_ASSOCIATIONS>
72944780  1

> <PUBCHEM_COORDINATE_TYPE>
1
3

> <PUBCHEM_BONDANNOTATIONS>
16  18  5
17  33  5

$$$$
