310931657
  -OEChem-07211613022D

 28 31  0     1  0  0  0  0  0999 V2000
    4.0459   -2.1381    0.0000 O   0  0  0  0  0  0  0  0  0  0  0  0
    8.5524   -2.2039    0.0000 O   0  0  0  0  0  0  0  0  0  0  0  0
    9.8681   -4.1446    0.0000 O   0  0  0  0  0  0  0  0  0  0  0  0
    4.9669   -0.9868    0.0000 N   0  0  0  0  0  0  0  0  0  0  0  0
    4.8683   -0.1645    0.0000 N   0  0  0  0  0  0  0  0  0  0  0  0
    6.3814   -0.9868    0.0000 N   0  0  0  0  0  0  0  0  0  0  0  0
    7.8287   -3.4538    0.0000 N   0  0  0  0  0  0  0  0  0  0  0  0
    0.0000   -1.8421    0.0000 N   0  0  0  0  0  0  0  0  0  0  0  0
    4.2104   -1.3158    0.0000 C   0  0  0  0  0  0  0  0  0  0  0  0
    3.6512   -0.7236    0.0000 C   0  0  0  0  0  0  0  0  0  0  0  0
    5.6577   -1.3816    0.0000 C   0  0  0  0  0  0  0  0  0  0  0  0
    2.8289   -0.7895    0.0000 C   0  0  0  0  0  0  0  0  0  0  0  0
    4.0459    0.0000    0.0000 C   0  0  0  0  0  0  0  0  0  0  0  0
    5.6577   -2.2039    0.0000 C   0  0  0  0  0  0  0  0  0  0  0  0
    7.1051   -2.2039    0.0000 C   0  0  0  0  0  0  0  0  0  0  0  0
    7.1051   -1.3816    0.0000 C   0  0  0  0  0  0  0  0  0  0  0  0
    6.3814   -2.6315    0.0000 C   0  0  0  0  0  0  0  0  0  0  0  0
    2.4999   -1.5789    0.0000 C   0  0  0  0  0  0  0  0  0  0  0  0
    2.3355   -0.1315    0.0000 C   0  0  0  0  0  0  0  0  0  0  0  0
    7.8287   -2.6315    0.0000 C   0  0  0  0  0  0  0  0  0  0  0  0
    1.1841   -0.9868    0.0000 C   0  0  0  0  0  0  0  0  0  0  0  0
    1.6447   -1.6447    0.0000 C   0  0  0  0  0  0  0  0  0  0  0  0
    1.5131   -0.2303    0.0000 C   0  0  0  0  0  0  0  0  0  0  0  0
    8.5524   -3.8815    0.0000 C   0  0  3  0  0  0  0  0  0  0  0  0
    9.3089   -3.5525    0.0000 C   0  0  0  0  0  0  0  0  0  0  0  0
    8.6510   -4.7038    0.0000 C   0  0  0  0  0  0  0  0  0  0  0  0
    0.3290   -1.0855    0.0000 C   0  0  0  0  0  0  0  0  0  0  0  0
    9.4734   -4.8683    0.0000 C   0  0  0  0  0  0  0  0  0  0  0  0
  1  9  1  0  0  0  0
  2 20  2  0  0  0  0
  3 25  1  0  0  0  0
  3 28  1  0  0  0  0
  4  5  1  0  0  0  0
  4  9  1  0  0  0  0
  4 11  1  0  0  0  0
  5 13  2  0  0  0  0
  6 11  2  0  0  0  0
  6 16  1  0  0  0  0
  7 20  1  0  0  0  0
 24  7  1  1  0  0  0
  8 27  3  0  0  0  0
  9 10  2  0  0  0  0
 10 12  1  0  0  0  0
 10 13  1  0  0  0  0
 11 14  1  0  0  0  0
 12 18  2  0  0  0  0
 12 19  1  0  0  0  0
 14 17  2  0  0  0  0
 15 16  2  0  0  0  0
 15 17  1  0  0  0  0
 15 20  1  0  0  0  0
 18 22  1  0  0  0  0
 19 23  2  0  0  0  0
 21 22  2  0  0  0  0
 21 23  1  0  0  0  0
 21 27  1  0  0  0  0
 24 25  1  0  0  0  0
 24 26  1  0  0  0  0
 26 28  1  0  0  0  0
M  END
> <PUBCHEM_COMPOUND_ID_TYPE>
0

> <PUBCHEM_TOTAL_CHARGE>
0

> <PUBCHEM_SUBSTANCE_ID>
310931657

> <PUBCHEM_SUBSTANCE_VERSION>
1

> <PUBCHEM_EXT_DATASOURCE_NAME>
4488

> <PUBCHEM_EXT_DATASOURCE_REGID>
SCHEMBL16108983

> <PUBCHEM_SUBSTANCE_COMMENT>
InChI=1S/C20H17N5O3/c21-9-13-1-3-14(4-2-13)17-11-23-25(20(17)27)18-6-5-15(10-22-18)19(26)24-16-7-8-28-12-16/h1-6,10-11,16,27H,7-8,12H2,(H,24,26)/t16-/m1/s1
InChIKey=RYHMQPOBBHUXLW-MRXNPFEDSA-N

> <PUBCHEM_SUBSTANCE_SYNONYM>
SCHEMBL16108983

> <PUBCHEM_XREF_EXT_ID>
SCHEMBL16108983

> <PUBCHEM_EXT_DATASOURCE_URL>
https://www.surechembl.org/

> <PUBCHEM_EXT_SUBSTANCE_URL>
https://www.surechembl.org/chemical/SCHEMBL16108983

> <PUBCHEM_CID_ASSOCIATIONS>
117600367  1

> <PUBCHEM_COORDINATE_TYPE>
1
3

> <PUBCHEM_BONDANNOTATIONS>
24  7  5

$$$$
