310947569
  -OEChem-07211613022D

 47 52  0     1  0  0  0  0  0999 V2000
   -1.2083   -0.6200    0.0000 P   0  0  3  0  0  0  0  0  0  0  0  0
   -1.7652    2.7206    0.0000 F   0  0  0  0  0  0  0  0  0  0  0  0
    0.0292    1.5234    0.0000 O   0  0  0  0  0  0  0  0  0  0  0  0
    0.0292    3.5075    0.0000 O   0  0  0  0  0  0  0  0  0  0  0  0
   -0.7958    0.0945    0.0000 O   0  0  0  0  0  0  0  0  0  0  0  0
    3.7546    2.8699    0.0000 O   0  0  0  0  0  0  0  0  0  0  0  0
   -0.4938   -1.0325    0.0000 O   0  0  0  0  0  0  0  0  0  0  0  0
   -1.9228   -0.2075    0.0000 O   0  0  0  0  0  0  0  0  0  0  0  0
   -3.6833   -0.6200    0.0000 O   0  0  0  0  0  0  0  0  0  0  0  0
   -2.4458    0.0945    0.0000 O   0  0  0  0  0  0  0  0  0  0  0  0
    0.9986    2.7206    0.0000 N   0  0  0  0  0  0  0  0  0  0  0  0
    2.0786    3.5052    0.0000 N   0  0  0  0  0  0  0  0  0  0  0  0
    1.7523    1.4152    0.0000 N   0  0  0  0  0  0  0  0  0  0  0  0
    3.1734    1.5645    0.0000 N   0  0  0  0  0  0  0  0  0  0  0  0
   -1.6208   -1.3344    0.0000 N   0  0  0  0  0  0  0  0  0  0  0  0
    2.5922    0.2591    0.0000 N   0  0  0  0  0  0  0  0  0  0  0  0
    0.2842    2.3081    0.0000 C   0  0  3  0  0  0  0  0  0  0  0  0
   -0.3833    2.7930    0.0000 C   0  0  3  0  0  0  0  0  0  0  0  0
   -1.0507    2.3081    0.0000 C   0  0  3  0  0  0  0  0  0  0  0  0
    1.6661    2.2356    0.0000 C   0  0  0  0  0  0  0  0  0  0  0  0
   -0.7958    1.5234    0.0000 C   0  0  3  0  0  0  0  0  0  0  0  0
    2.3335    2.7206    0.0000 C   0  0  0  0  0  0  0  0  0  0  0  0
    1.2536    3.5052    0.0000 C   0  0  0  0  0  0  0  0  0  0  0  0
    3.0872    2.3850    0.0000 C   0  0  0  0  0  0  0  0  0  0  0  0
   -0.7958    3.5075    0.0000 C   0  0  0  0  0  0  0  0  0  0  0  0
   -1.2083    0.8090    0.0000 C   0  0  0  0  0  0  0  0  0  0  0  0
    2.5060    1.0796    0.0000 C   0  0  0  0  0  0  0  0  0  0  0  0
   -0.4938   -1.8575    0.0000 C   0  0  0  0  0  0  0  0  0  0  0  0
    0.2207   -2.2700    0.0000 C   0  0  0  0  0  0  0  0  0  0  0  0
    0.2207   -3.0950    0.0000 C   0  0  0  0  0  0  0  0  0  0  0  0
   -2.4458   -1.3344    0.0000 C   0  0  3  0  0  0  0  0  0  0  0  0
    4.5083    2.5344    0.0000 C   0  0  0  0  0  0  0  0  0  0  0  0
   -1.2083   -2.2700    0.0000 C   0  0  0  0  0  0  0  0  0  0  0  0
    0.9351   -1.8575    0.0000 C   0  0  0  0  0  0  0  0  0  0  0  0
   -0.4938   -3.5075    0.0000 C   0  0  0  0  0  0  0  0  0  0  0  0
   -2.8583   -0.6200    0.0000 C   0  0  0  0  0  0  0  0  0  0  0  0
   -1.2083   -3.0950    0.0000 C   0  0  0  0  0  0  0  0  0  0  0  0
    0.9351   -3.5075    0.0000 C   0  0  0  0  0  0  0  0  0  0  0  0
    1.6496   -2.2700    0.0000 C   0  0  0  0  0  0  0  0  0  0  0  0
    1.6496   -3.0950    0.0000 C   0  0  0  0  0  0  0  0  0  0  0  0
   -2.8583   -2.0489    0.0000 C   0  0  0  0  0  0  0  0  0  0  0  0
    5.1757    3.0193    0.0000 C   0  0  0  0  0  0  0  0  0  0  0  0
   -4.0958    0.0945    0.0000 C   0  0  0  0  0  0  0  0  0  0  0  0
   -4.9208    0.0945    0.0000 C   0  0  0  0  0  0  0  0  0  0  0  0
   -3.8408    0.8791    0.0000 C   0  0  0  0  0  0  0  0  0  0  0  0
   -4.5083    1.3641    0.0000 C   0  0  0  0  0  0  0  0  0  0  0  0
   -5.1757    0.8791    0.0000 C   0  0  0  0  0  0  0  0  0  0  0  0
  1  5  1  0  0  0  0
  1  7  1  0  0  0  0
  1  8  2  0  0  0  0
  1 15  1  0  0  0  0
 19  2  1  1  0  0  0
  3 17  1  0  0  0  0
  3 21  1  0  0  0  0
 18  4  1  1  0  0  0
  5 26  1  0  0  0  0
  6 24  1  0  0  0  0
  6 32  1  0  0  0  0
  7 28  1  0  0  0  0
  9 36  1  0  0  0  0
  9 43  1  0  0  0  0
 10 36  2  0  0  0  0
 11 17  1  0  0  0  0
 11 20  1  0  0  0  0
 11 23  1  0  0  0  0
 12 22  1  0  0  0  0
 12 23  2  0  0  0  0
 13 20  1  0  0  0  0
 13 27  2  0  0  0  0
 14 24  2  0  0  0  0
 14 27  1  0  0  0  0
 15 31  1  0  0  0  0
 16 27  1  0  0  0  0
 17 18  1  0  0  0  0
 18 19  1  0  0  0  0
 18 25  1  6  0  0  0
 19 21  1  0  0  0  0
 20 22  2  0  0  0  0
 21 26  1  6  0  0  0
 22 24  1  0  0  0  0
 28 29  1  0  0  0  0
 28 33  2  0  0  0  0
 29 30  2  0  0  0  0
 29 34  1  0  0  0  0
 30 35  1  0  0  0  0
 30 38  1  0  0  0  0
 31 36  1  0  0  0  0
 31 41  1  1  0  0  0
 32 42  1  0  0  0  0
 33 37  1  0  0  0  0
 34 39  2  0  0  0  0
 35 37  2  0  0  0  0
 38 40  2  0  0  0  0
 39 40  1  0  0  0  0
 43 44  1  0  0  0  0
 43 45  1  0  0  0  0
 44 47  1  0  0  0  0
 45 46  1  0  0  0  0
 46 47  1  0  0  0  0
M  END
> <PUBCHEM_COMPOUND_ID_TYPE>
0

> <PUBCHEM_TOTAL_CHARGE>
0

> <PUBCHEM_SUBSTANCE_ID>
310947569

> <PUBCHEM_SUBSTANCE_VERSION>
1

> <PUBCHEM_EXT_DATASOURCE_NAME>
4488

> <PUBCHEM_EXT_DATASOURCE_REGID>
SCHEMBL16125732

> <PUBCHEM_SUBSTANCE_COMMENT>
InChI=1S/C31H38FN6O8P/c1-4-42-27-24-26(35-30(33)36-27)38(17-34-24)29-31(3,40)25(32)23(45-29)16-43-47(41,37-18(2)28(39)44-20-12-6-7-13-20)46-22-15-9-11-19-10-5-8-14-21(19)22/h5,8-11,14-15,17-18,20,23,25,29,40H,4,6-7,12-13,16H2,1-3H3,(H,37,41)(H2,33,35,36)/t18-,23+,25+,29?,31+,47?/m0/s1
InChIKey=LXZCFHBSPFWANI-QZQFILJBSA-N

> <PUBCHEM_SUBSTANCE_SYNONYM>
SCHEMBL16125732

> <PUBCHEM_XREF_EXT_ID>
SCHEMBL16125732

> <PUBCHEM_EXT_DATASOURCE_URL>
https://www.surechembl.org/

> <PUBCHEM_EXT_SUBSTANCE_URL>
https://www.surechembl.org/chemical/SCHEMBL16125732

> <PUBCHEM_CID_ASSOCIATIONS>
117613291  1

> <PUBCHEM_COORDINATE_TYPE>
1
3

> <PUBCHEM_BONDANNOTATIONS>
18  25  6
19  2  5
21  26  6
31  41  5
18  4  5

$$$$
