310948671
  -OEChem-07211613022D

 23 25  0     1  0  0  0  0  0999 V2000
   -1.8081   -0.0963    0.0000 O   0  0  0  0  0  0  0  0  0  0  0  0
    3.4307    1.2650    0.0000 O   0  0  0  0  0  0  0  0  0  0  0  0
    0.9419   -0.2063    0.0000 N   0  0  0  0  0  0  0  0  0  0  0  0
    0.6119   -0.9625    0.0000 N   0  0  0  0  0  0  0  0  0  0  0  0
   -1.1206    1.1550    0.0000 N   0  0  0  0  0  0  0  0  0  0  0  0
   -0.7631   -1.4988    0.0000 N   0  0  0  0  0  0  0  0  0  0  0  0
    2.2070   -2.2001    0.0000 N   0  0  0  0  0  0  0  0  0  0  0  0
    0.3094    0.3437    0.0000 C   0  0  0  0  0  0  0  0  0  0  0  0
   -0.3781   -0.0687    0.0000 C   0  0  0  0  0  0  0  0  0  0  0  0
    1.7531   -0.0275    0.0000 C   0  0  3  0  0  0  0  0  0  0  0  0
   -0.2131   -0.8663    0.0000 C   0  0  0  0  0  0  0  0  0  0  0  0
   -1.1206    0.3300    0.0000 C   0  0  0  0  0  0  0  0  0  0  0  0
    2.3582   -0.5638    0.0000 C   0  0  3  0  0  0  0  0  0  0  0  0
    0.3094    1.1687    0.0000 C   0  0  0  0  0  0  0  0  0  0  0  0
    2.0695    0.7150    0.0000 C   0  0  0  0  0  0  0  0  0  0  0  0
    2.8807    0.6325    0.0000 C   0  0  3  0  0  0  0  0  0  0  0  0
    3.0595   -0.1513    0.0000 C   0  0  0  0  0  0  0  0  0  0  0  0
   -0.4194    1.5675    0.0000 C   0  0  0  0  0  0  0  0  0  0  0  0
    2.2757   -1.3887    0.0000 C   0  0  0  0  0  0  0  0  0  0  0  0
   -2.5095    0.2200    0.0000 C   0  0  0  0  0  0  0  0  0  0  0  0
   -2.5920    1.0450    0.0000 C   0  0  0  0  0  0  0  0  0  0  0  0
   -3.3482    1.3750    0.0000 C   0  0  0  0  0  0  0  0  0  0  0  0
   -3.4307    2.2001    0.0000 C   0  0  0  0  0  0  0  0  0  0  0  0
  1 12  1  0  0  0  0
  1 20  1  0  0  0  0
  2 16  1  0  0  0  0
  3  4  1  0  0  0  0
  3  8  1  0  0  0  0
  3 10  1  0  0  0  0
  4 11  2  0  0  0  0
  5 12  2  0  0  0  0
  5 18  1  0  0  0  0
  6 11  1  0  0  0  0
  7 19  3  0  0  0  0
  8  9  2  0  0  0  0
  8 14  1  0  0  0  0
  9 11  1  0  0  0  0
  9 12  1  0  0  0  0
 10 13  1  0  0  0  0
 10 15  1  6  0  0  0
 13 17  1  0  0  0  0
 13 19  1  1  0  0  0
 14 18  2  0  0  0  0
 15 16  1  0  0  0  0
 16 17  1  0  0  0  0
 20 21  1  0  0  0  0
 21 22  1  0  0  0  0
 22 23  1  0  0  0  0
M  END
> <PUBCHEM_COMPOUND_ID_TYPE>
0

> <PUBCHEM_TOTAL_CHARGE>
0

> <PUBCHEM_SUBSTANCE_ID>
310948671

> <PUBCHEM_SUBSTANCE_VERSION>
1

> <PUBCHEM_EXT_DATASOURCE_NAME>
4488

> <PUBCHEM_EXT_DATASOURCE_REGID>
SCHEMBL16126855

> <PUBCHEM_SUBSTANCE_COMMENT>
InChI=1S/C16H21N5O2/c1-2-3-6-23-16-14-12(4-5-19-16)21(20-15(14)18)13-8-11(22)7-10(13)9-17/h4-5,10-11,13,22H,2-3,6-8H2,1H3,(H2,18,20)/t10-,11?,13+/m0/s1
InChIKey=LINYQKLCXKPZLF-CCQDYZPNSA-N

> <PUBCHEM_SUBSTANCE_SYNONYM>
SCHEMBL16126855

> <PUBCHEM_XREF_EXT_ID>
SCHEMBL16126855

> <PUBCHEM_EXT_DATASOURCE_URL>
https://www.surechembl.org/

> <PUBCHEM_EXT_SUBSTANCE_URL>
https://www.surechembl.org/chemical/SCHEMBL16126855

> <PUBCHEM_CID_ASSOCIATIONS>
117614212  1

> <PUBCHEM_COORDINATE_TYPE>
1
3

> <PUBCHEM_BONDANNOTATIONS>
10  15  6
13  19  5

$$$$
