310944882
  -OEChem-07211613022D

 37 41  0     0  0  0  0  0  0999 V2000
   -4.0541   -1.2285    0.0000 S   0  0  0  0  0  0  0  0  0  0  0  0
    2.4570    2.5448    0.0000 O   0  0  0  0  0  0  0  0  0  0  0  0
    3.8961   -2.3868    0.0000 O   0  0  0  0  0  0  0  0  0  0  0  0
    4.6158   -1.1583    0.0000 O   0  0  0  0  0  0  0  0  0  0  0  0
   -4.1945   -2.5448    0.0000 N   0  0  0  0  0  0  0  0  0  0  0  0
   -0.4212    0.8951    0.0000 C   0  0  0  0  0  0  0  0  0  0  0  0
   -0.4387    0.0702    0.0000 C   0  0  0  0  0  0  0  0  0  0  0  0
    0.2983    1.2987    0.0000 C   0  0  0  0  0  0  0  0  0  0  0  0
   -1.1583    1.2987    0.0000 C   0  0  0  0  0  0  0  0  0  0  0  0
   -1.1407   -0.3334    0.0000 C   0  0  0  0  0  0  0  0  0  0  0  0
    0.2983   -0.3334    0.0000 C   0  0  0  0  0  0  0  0  0  0  0  0
    0.2983    2.1236    0.0000 C   0  0  0  0  0  0  0  0  0  0  0  0
   -1.9130    1.0881    0.0000 C   0  0  0  0  0  0  0  0  0  0  0  0
   -1.3514    2.0709    0.0000 C   0  0  0  0  0  0  0  0  0  0  0  0
    1.0530    0.8951    0.0000 C   0  0  0  0  0  0  0  0  0  0  0  0
   -1.8779    0.0526    0.0000 C   0  0  0  0  0  0  0  0  0  0  0  0
   -1.1583   -1.1759    0.0000 C   0  0  0  0  0  0  0  0  0  0  0  0
    0.3159   -1.1583    0.0000 C   0  0  0  0  0  0  0  0  0  0  0  0
    1.0003    0.0526    0.0000 C   0  0  0  0  0  0  0  0  0  0  0  0
   -2.5799   -1.1583    0.0000 C   0  0  0  0  0  0  0  0  0  0  0  0
   -2.1412    1.8603    0.0000 C   0  0  0  0  0  0  0  0  0  0  0  0
    1.0003    2.5097    0.0000 C   0  0  0  0  0  0  0  0  0  0  0  0
    1.7375    2.1236    0.0000 C   0  0  0  0  0  0  0  0  0  0  0  0
   -2.5624   -0.3510    0.0000 C   0  0  0  0  0  0  0  0  0  0  0  0
   -1.8427   -1.5619    0.0000 C   0  0  0  0  0  0  0  0  0  0  0  0
    1.7199    1.2811    0.0000 C   0  0  0  0  0  0  0  0  0  0  0  0
   -3.2994   -1.5795    0.0000 C   0  0  0  0  0  0  0  0  0  0  0  0
    1.7375   -1.1583    0.0000 C   0  0  0  0  0  0  0  0  0  0  0  0
    1.0355   -1.5619    0.0000 C   0  0  0  0  0  0  0  0  0  0  0  0
    1.7199   -0.3510    0.0000 C   0  0  0  0  0  0  0  0  0  0  0  0
   -0.4387    2.5097    0.0000 C   0  0  0  0  0  0  0  0  0  0  0  0
   -3.3872   -2.4044    0.0000 C   0  0  0  0  0  0  0  0  0  0  0  0
    2.4921   -1.5619    0.0000 C   0  0  0  0  0  0  0  0  0  0  0  0
   -4.6158   -1.8603    0.0000 C   0  0  0  0  0  0  0  0  0  0  0  0
    3.1590   -1.1759    0.0000 C   0  0  0  0  0  0  0  0  0  0  0  0
    3.1941    2.0885    0.0000 C   0  0  0  0  0  0  0  0  0  0  0  0
    3.8961   -1.5444    0.0000 C   0  0  0  0  0  0  0  0  0  0  0  0
  1 27  1  0  0  0  0
  1 34  1  0  0  0  0
  2 23  1  0  0  0  0
  2 36  1  0  0  0  0
  3 37  2  0  0  0  0
  4 37  1  0  0  0  0
  5 32  1  0  0  0  0
  5 34  2  0  0  0  0
  6  7  2  0  0  0  0
  6  8  1  0  0  0  0
  6  9  1  0  0  0  0
  7 10  1  0  0  0  0
  7 11  1  0  0  0  0
  8 12  1  0  0  0  0
  8 15  2  0  0  0  0
  9 13  1  0  0  0  0
  9 14  1  0  0  0  0
 10 16  2  0  0  0  0
 10 17  1  0  0  0  0
 11 18  2  0  0  0  0
 11 19  1  0  0  0  0
 12 22  2  0  0  0  0
 12 31  1  0  0  0  0
 13 21  1  0  0  0  0
 14 21  1  0  0  0  0
 15 26  1  0  0  0  0
 16 24  1  0  0  0  0
 17 25  2  0  0  0  0
 18 29  1  0  0  0  0
 19 30  2  0  0  0  0
 20 24  2  0  0  0  0
 20 25  1  0  0  0  0
 20 27  1  0  0  0  0
 22 23  1  0  0  0  0
 23 26  2  0  0  0  0
 27 32  2  0  0  0  0
 28 29  2  0  0  0  0
 28 30  1  0  0  0  0
 28 33  1  0  0  0  0
 33 35  2  0  0  0  0
 35 37  1  0  0  0  0
M  END
> <PUBCHEM_COMPOUND_ID_TYPE>
0

> <PUBCHEM_TOTAL_CHARGE>
0

> <PUBCHEM_SUBSTANCE_ID>
310944882

> <PUBCHEM_SUBSTANCE_VERSION>
1

> <PUBCHEM_EXT_DATASOURCE_NAME>
4488

> <PUBCHEM_EXT_DATASOURCE_REGID>
SCHEMBL16122966

> <PUBCHEM_SUBSTANCE_COMMENT>
InChI=1S/C32H29NO3S/c1-21-18-27(36-2)15-16-28(21)32(24-4-3-5-24)31(25-9-6-22(7-10-25)8-17-30(34)35)26-13-11-23(12-14-26)29-19-33-20-37-29/h6-20,24H,3-5H2,1-2H3,(H,34,35)/b17-8+,32-31+
InChIKey=AHUFVRQFURAZIQ-JMJINLCGSA-N

> <PUBCHEM_SUBSTANCE_SYNONYM>
SCHEMBL16122966

> <PUBCHEM_XREF_EXT_ID>
SCHEMBL16122966

> <PUBCHEM_EXT_DATASOURCE_URL>
https://www.surechembl.org/

> <PUBCHEM_EXT_SUBSTANCE_URL>
https://www.surechembl.org/chemical/SCHEMBL16122966

> <PUBCHEM_CID_ASSOCIATIONS>
86271836  1

> <PUBCHEM_COORDINATE_TYPE>
1
3

$$$$
