310944388
  -OEChem-07211613022D

 30 34  0     0  0  0  0  0  0999 V2000
    1.0642    2.0355    0.0000 F   0  0  0  0  0  0  0  0  0  0  0  0
   -0.5237    1.0557    0.0000 N   0  0  0  0  0  0  0  0  0  0  0  0
    1.0304   -2.0693    0.0000 N   0  0  0  0  0  0  0  0  0  0  0  0
    3.2095    1.6132    0.0000 N   0  0  0  0  0  0  0  0  0  0  0  0
    0.3209    0.8192    0.0000 C   0  0  0  0  0  0  0  0  0  0  0  0
    0.2872    0.0084    0.0000 C   0  0  0  0  0  0  0  0  0  0  0  0
   -0.5237   -0.2619    0.0000 C   0  0  0  0  0  0  0  0  0  0  0  0
   -1.0135    0.3970    0.0000 C   0  0  0  0  0  0  0  0  0  0  0  0
    1.0472    1.2247    0.0000 C   0  0  0  0  0  0  0  0  0  0  0  0
    1.0472   -0.3970    0.0000 C   0  0  0  0  0  0  0  0  0  0  0  0
   -0.7770    1.8328    0.0000 C   0  0  0  0  0  0  0  0  0  0  0  0
    1.7737    0.8361    0.0000 C   0  0  0  0  0  0  0  0  0  0  0  0
   -0.8446   -0.9882    0.0000 C   0  0  0  0  0  0  0  0  0  0  0  0
   -1.8413    0.2787    0.0000 C   0  0  0  0  0  0  0  0  0  0  0  0
    1.7737    0.0253    0.0000 C   0  0  0  0  0  0  0  0  0  0  0  0
   -1.7061   -1.1064    0.0000 C   0  0  0  0  0  0  0  0  0  0  0  0
   -2.1960   -0.4477    0.0000 C   0  0  0  0  0  0  0  0  0  0  0  0
    1.0304   -1.2585    0.0000 C   0  0  0  0  0  0  0  0  0  0  0  0
   -0.2196    2.4409    0.0000 C   0  0  0  0  0  0  0  0  0  0  0  0
   -1.5879    2.0017    0.0000 C   0  0  0  0  0  0  0  0  0  0  0  0
   -2.0440   -1.8666    0.0000 C   0  0  0  0  0  0  0  0  0  0  0  0
    2.5000    1.2416    0.0000 C   0  0  0  0  0  0  0  0  0  0  0  0
   -0.4899    3.2180    0.0000 C   0  0  0  0  0  0  0  0  0  0  0  0
   -1.8413    2.7787    0.0000 C   0  0  0  0  0  0  0  0  0  0  0  0
   -2.8548   -1.9680    0.0000 C   0  0  0  0  0  0  0  0  0  0  0  0
   -1.5541   -2.5423    0.0000 C   0  0  0  0  0  0  0  0  0  0  0  0
   -1.3176    3.3531    0.0000 C   0  0  0  0  0  0  0  0  0  0  0  0
   -3.2095   -2.7449    0.0000 C   0  0  0  0  0  0  0  0  0  0  0  0
   -1.8750   -3.2518    0.0000 C   0  0  0  0  0  0  0  0  0  0  0  0
   -2.7196   -3.3531    0.0000 C   0  0  0  0  0  0  0  0  0  0  0  0
  1  9  1  0  0  0  0
  2  5  1  0  0  0  0
  2  8  1  0  0  0  0
  2 11  1  0  0  0  0
  3 18  3  0  0  0  0
  4 22  3  0  0  0  0
  5  6  2  0  0  0  0
  5  9  1  0  0  0  0
  6  7  1  0  0  0  0
  6 10  1  0  0  0  0
  7  8  2  0  0  0  0
  7 13  1  0  0  0  0
  8 14  1  0  0  0  0
  9 12  2  0  0  0  0
 10 15  2  0  0  0  0
 10 18  1  0  0  0  0
 11 19  2  0  0  0  0
 11 20  1  0  0  0  0
 12 15  1  0  0  0  0
 12 22  1  0  0  0  0
 13 16  2  0  0  0  0
 14 17  2  0  0  0  0
 16 17  1  0  0  0  0
 16 21  1  0  0  0  0
 19 23  1  0  0  0  0
 20 24  2  0  0  0  0
 21 25  2  0  0  0  0
 21 26  1  0  0  0  0
 23 27  2  0  0  0  0
 24 27  1  0  0  0  0
 25 28  1  0  0  0  0
 26 29  2  0  0  0  0
 28 30  2  0  0  0  0
 29 30  1  0  0  0  0
M  END
> <PUBCHEM_COMPOUND_ID_TYPE>
0

> <PUBCHEM_TOTAL_CHARGE>
0

> <PUBCHEM_SUBSTANCE_ID>
310944388

> <PUBCHEM_SUBSTANCE_VERSION>
1

> <PUBCHEM_EXT_DATASOURCE_NAME>
4488

> <PUBCHEM_EXT_DATASOURCE_REGID>
SCHEMBL16122463

> <PUBCHEM_SUBSTANCE_COMMENT>
InChI=1S/C26H14FN3/c27-25-20(16-29)13-19(15-28)24-22-14-18(17-7-3-1-4-8-17)11-12-23(22)30(26(24)25)21-9-5-2-6-10-21/h1-14H
InChIKey=HQWBWOLFOVFOQC-UHFFFAOYSA-N

> <PUBCHEM_SUBSTANCE_SYNONYM>
SCHEMBL16122463

> <PUBCHEM_XREF_EXT_ID>
SCHEMBL16122463

> <PUBCHEM_EXT_DATASOURCE_URL>
https://www.surechembl.org/

> <PUBCHEM_EXT_SUBSTANCE_URL>
https://www.surechembl.org/chemical/SCHEMBL16122463

> <PUBCHEM_CID_ASSOCIATIONS>
117610645  1

> <PUBCHEM_COORDINATE_TYPE>
1
3

$$$$
