310936707
  -OEChem-07211613022D

 33 36  0     1  0  0  0  0  0999 V2000
   -0.3896    1.6387    0.0000 Cl  0  0  0  0  0  0  0  0  0  0  0  0
    6.9527    1.2314    0.0000 O   0  0  0  0  0  0  0  0  0  0  0  0
    4.4703   -1.3283    0.0000 O   0  0  0  0  0  0  0  0  0  0  0  0
    4.1253    2.1556    0.0000 O   0  0  0  0  0  0  0  0  0  0  0  0
    6.2818    2.4931    0.0000 O   0  0  0  0  0  0  0  0  0  0  0  0
    0.9694    1.1971    0.0000 N   0  0  0  0  0  0  0  0  0  0  0  0
    2.3464    0.5840    0.0000 C   0  0  3  0  0  0  0  0  0  0  0  0
    2.6014   -0.2006    0.0000 C   0  0  3  0  0  0  0  0  0  0  0  0
    1.5214    0.5840    0.0000 C   0  0  0  0  0  0  0  0  0  0  0  0
    3.4084   -0.3721    0.0000 C   0  0  3  0  0  0  0  0  0  0  0  0
    3.9604    0.2410    0.0000 C   0  0  3  0  0  0  0  0  0  0  0  0
    4.7674    0.0694    0.0000 C   0  0  3  0  0  0  0  0  0  0  0  0
    1.2665   -0.2006    0.0000 C   0  0  0  0  0  0  0  0  0  0  0  0
    1.9339   -0.6855    0.0000 C   0  0  0  0  0  0  0  0  0  0  0  0
    2.8985    1.1971    0.0000 C   0  0  0  0  0  0  0  0  0  0  0  0
    3.7054    1.0256    0.0000 C   0  0  0  0  0  0  0  0  0  0  0  0
    4.7962    0.8939    0.0000 C   0  0  3  0  0  0  0  0  0  0  0  0
    2.0109    1.3377    0.0000 C   0  0  0  0  0  0  0  0  0  0  0  0
    5.4670   -0.3677    0.0000 C   0  0  0  0  0  0  0  0  0  0  0  0
    0.4595   -0.3721    0.0000 C   0  0  0  0  0  0  0  0  0  0  0  0
    3.6633   -1.1567    0.0000 C   0  0  0  0  0  0  0  0  0  0  0  0
    0.1624    1.0256    0.0000 C   0  0  0  0  0  0  0  0  0  0  0  0
    5.5246    1.2813    0.0000 C   0  0  0  0  0  0  0  0  0  0  0  0
    4.4583   -0.6955    0.0000 C   0  0  0  0  0  0  0  0  0  0  0  0
    6.2242    0.8441    0.0000 C   0  0  3  0  0  0  0  0  0  0  0  0
   -0.0925    0.2410    0.0000 C   0  0  0  0  0  0  0  0  0  0  0  0
    6.1954    0.0196    0.0000 C   0  0  0  0  0  0  0  0  0  0  0  0
    4.0965    1.3311    0.0000 C   0  0  0  0  0  0  0  0  0  0  0  0
    6.9814    2.0559    0.0000 C   0  0  0  0  0  0  0  0  0  0  0  0
    7.7099    2.4432    0.0000 C   0  0  0  0  0  0  0  0  0  0  0  0
    8.4383    2.8305    0.0000 C   0  0  0  0  0  0  0  0  0  0  0  0
    7.3226    3.1716    0.0000 C   0  0  0  0  0  0  0  0  0  0  0  0
    8.0972    1.7148    0.0000 C   0  0  0  0  0  0  0  0  0  0  0  0
  1 22  1  0  0  0  0
 25  2  1  1  0  0  0
  2 29  1  0  0  0  0
  3 21  1  0  0  0  0
  4 28  1  0  0  0  0
  5 29  2  0  0  0  0
  6  9  2  0  0  0  0
  6 22  1  0  0  0  0
  7  8  1  0  0  0  0
  7  9  1  0  0  0  0
  7 15  1  0  0  0  0
  7 18  1  6  0  0  0
  8 10  1  0  0  0  0
  8 14  1  6  0  0  0
  9 13  1  0  0  0  0
 10 11  1  0  0  0  0
 10 21  1  1  0  0  0
 11 12  1  0  0  0  0
 11 16  1  6  0  0  0
 12 17  1  0  0  0  0
 12 19  1  0  0  0  0
 12 24  1  1  0  0  0
 13 14  1  0  0  0  0
 13 20  2  0  0  0  0
 15 16  1  0  0  0  0
 17 23  1  0  0  0  0
 17 28  1  1  0  0  0
 19 27  1  0  0  0  0
 20 26  1  0  0  0  0
 22 26  2  0  0  0  0
 23 25  1  0  0  0  0
 25 27  1  0  0  0  0
 29 30  1  0  0  0  0
 30 31  1  0  0  0  0
 30 32  1  0  0  0  0
 30 33  1  0  0  0  0
M  END
> <PUBCHEM_COMPOUND_ID_TYPE>
0

> <PUBCHEM_TOTAL_CHARGE>
0

> <PUBCHEM_SUBSTANCE_ID>
310936707

> <PUBCHEM_SUBSTANCE_VERSION>
1

> <PUBCHEM_EXT_DATASOURCE_NAME>
4488

> <PUBCHEM_EXT_DATASOURCE_REGID>
SCHEMBL16114385

> <PUBCHEM_SUBSTANCE_COMMENT>
InChI=1S/C27H40ClNO4/c1-25(2,3)24(32)33-18-8-10-26(4,17(13-18)14-30)20-9-11-27(5)21(19(20)15-31)12-16-6-7-22(28)29-23(16)27/h6-7,17-21,30-31H,8-15H2,1-5H3/t17-,18+,19-,20+,21+,26+,27+/m1/s1
InChIKey=WHBFAOHKHZAZAU-LFTORSMLSA-N

> <PUBCHEM_SUBSTANCE_SYNONYM>
SCHEMBL16114385

> <PUBCHEM_XREF_EXT_ID>
SCHEMBL16114385

> <PUBCHEM_EXT_DATASOURCE_URL>
https://www.surechembl.org/

> <PUBCHEM_EXT_SUBSTANCE_URL>
https://www.surechembl.org/chemical/SCHEMBL16114385

> <PUBCHEM_CID_ASSOCIATIONS>
117604609  1

> <PUBCHEM_COORDINATE_TYPE>
1
3

> <PUBCHEM_BONDANNOTATIONS>
10  21  5
11  16  6
12  24  5
17  28  5
25  2  5
7  18  6
8  14  6

$$$$
