310942663
  -OEChem-07211613022D

 22 23  0     1  0  0  0  0  0999 V2000
    2.4431    0.3412    0.0000 P   0  0  0  0  0  0  0  0  0  0  0  0
    0.7264    2.4541    0.0000 F   0  0  0  0  0  0  0  0  0  0  0  0
   -2.4431    2.1240    0.0000 F   0  0  0  0  0  0  0  0  0  0  0  0
    1.8268   -2.2340    0.0000 O   0  0  0  0  0  0  0  0  0  0  0  0
    1.1005    0.0330    0.0000 N   0  0  0  0  0  0  0  0  0  0  0  0
   -0.1760    0.0550    0.0000 N   0  0  0  0  0  0  0  0  0  0  0  0
   -0.2421   -1.7718    0.0000 N   0  0  0  0  0  0  0  0  0  0  0  0
    0.4622   -0.4512    0.0000 C   0  0  0  0  0  0  0  0  0  0  0  0
    0.0660    0.8694    0.0000 C   0  0  0  0  0  0  0  0  0  0  0  0
    0.4402   -1.3316    0.0000 C   0  0  3  0  0  0  0  0  0  0  0  0
   -0.3962    1.5957    0.0000 C   0  0  0  0  0  0  0  0  0  0  0  0
    0.8804    0.8254    0.0000 C   0  0  0  0  0  0  0  0  0  0  0  0
    1.1445   -1.7938    0.0000 C   0  0  0  0  0  0  0  0  0  0  0  0
   -0.0660    2.3661    0.0000 C   0  0  0  0  0  0  0  0  0  0  0  0
   -1.1885    1.5077    0.0000 C   0  0  0  0  0  0  0  0  0  0  0  0
    1.8709   -0.2531    0.0000 C   0  0  0  0  0  0  0  0  0  0  0  0
   -1.6507    2.2120    0.0000 C   0  0  0  0  0  0  0  0  0  0  0  0
   -0.5282    3.0484    0.0000 C   0  0  0  0  0  0  0  0  0  0  0  0
   -1.2986    2.9823    0.0000 C   0  0  0  0  0  0  0  0  0  0  0  0
    1.8488   -1.3756    0.0000 C   0  0  0  0  0  0  0  0  0  0  0  0
    1.1445   -2.6742    0.0000 C   0  0  0  0  0  0  0  0  0  0  0  0
    1.8268   -3.0484    0.0000 C   0  0  0  0  0  0  0  0  0  0  0  0
  1 16  1  0  0  0  0
  2 14  1  0  0  0  0
  3 17  1  0  0  0  0
  4 13  1  0  0  0  0
  4 22  1  0  0  0  0
  5  8  1  0  0  0  0
  5 12  1  0  0  0  0
  5 16  1  0  0  0  0
  6  8  2  0  0  0  0
  6  9  1  0  0  0  0
 10  7  1  1  0  0  0
  8 10  1  0  0  0  0
  9 11  1  0  0  0  0
  9 12  2  0  0  0  0
 10 13  1  0  0  0  0
 11 14  2  0  0  0  0
 11 15  1  0  0  0  0
 13 20  1  0  0  0  0
 13 21  1  0  0  0  0
 14 18  1  0  0  0  0
 15 17  2  0  0  0  0
 17 19  1  0  0  0  0
 18 19  2  0  0  0  0
M  END
> <PUBCHEM_COMPOUND_ID_TYPE>
0

> <PUBCHEM_TOTAL_CHARGE>
0

> <PUBCHEM_SUBSTANCE_ID>
310942663

> <PUBCHEM_SUBSTANCE_VERSION>
1

> <PUBCHEM_EXT_DATASOURCE_NAME>
4488

> <PUBCHEM_EXT_DATASOURCE_REGID>
SCHEMBL16120709

> <PUBCHEM_SUBSTANCE_COMMENT>
InChI=1S/C15H20F2N3OP/c1-15(2,21-3)13(18)14-19-12(7-20(14)8-22)10-6-9(16)4-5-11(10)17/h4-7,13H,8,18,22H2,1-3H3/t13-/m0/s1
InChIKey=XQLLWMSRJWCDKX-ZDUSSCGKSA-N

> <PUBCHEM_SUBSTANCE_SYNONYM>
SCHEMBL16120709

> <PUBCHEM_XREF_EXT_ID>
SCHEMBL16120709

> <PUBCHEM_EXT_DATASOURCE_URL>
https://www.surechembl.org/

> <PUBCHEM_EXT_SUBSTANCE_URL>
https://www.surechembl.org/chemical/SCHEMBL16120709

> <PUBCHEM_CID_ASSOCIATIONS>
117609192  1

> <PUBCHEM_COORDINATE_TYPE>
1
3

> <PUBCHEM_BONDANNOTATIONS>
10  7  5

$$$$
