310929427
  -OEChem-07211613022D

 31 33  0     0  0  0  0  0  0999 V2000
   10.5778   -2.8849    0.0000 O   0  0  0  0  0  0  0  0  0  0  0  0
    0.0000   -4.1270    0.0000 O   0  0  0  0  0  0  0  0  0  0  0  0
    9.1755   -3.7263    0.0000 N   0  0  0  0  0  0  0  0  0  0  0  0
    9.8966   -4.1270    0.0000 C   0  0  0  0  0  0  0  0  0  0  0  0
    9.8966   -4.9283    0.0000 C   0  0  0  0  0  0  0  0  0  0  0  0
   10.5778   -3.7263    0.0000 C   0  0  0  0  0  0  0  0  0  0  0  0
   10.5778   -5.3290    0.0000 C   0  0  0  0  0  0  0  0  0  0  0  0
   11.2990   -4.9283    0.0000 C   0  0  0  0  0  0  0  0  0  0  0  0
   11.2990   -4.1270    0.0000 C   0  0  0  0  0  0  0  0  0  0  0  0
    8.4943   -4.1270    0.0000 C   0  0  0  0  0  0  0  0  0  0  0  0
    9.1755   -5.3691    0.0000 C   0  0  0  0  0  0  0  0  0  0  0  0
    8.4943   -4.9283    0.0000 C   0  0  0  0  0  0  0  0  0  0  0  0
    7.7731   -3.7263    0.0000 C   0  0  0  0  0  0  0  0  0  0  0  0
   11.2589   -2.4842    0.0000 C   0  0  0  0  0  0  0  0  0  0  0  0
   12.0203   -5.3290    0.0000 C   0  0  0  0  0  0  0  0  0  0  0  0
   11.2589   -1.6428    0.0000 C   0  0  0  0  0  0  0  0  0  0  0  0
    7.0519   -4.1270    0.0000 C   0  0  0  0  0  0  0  0  0  0  0  0
   11.9401   -1.2421    0.0000 C   0  0  0  0  0  0  0  0  0  0  0  0
   10.5378   -1.2421    0.0000 C   0  0  0  0  0  0  0  0  0  0  0  0
   11.9401   -0.4007    0.0000 C   0  0  0  0  0  0  0  0  0  0  0  0
   10.5378   -0.4408    0.0000 C   0  0  0  0  0  0  0  0  0  0  0  0
    6.3707   -3.7263    0.0000 C   0  0  0  0  0  0  0  0  0  0  0  0
   11.2189    0.0000    0.0000 C   0  0  0  0  0  0  0  0  0  0  0  0
    5.6495   -4.1270    0.0000 C   0  0  0  0  0  0  0  0  0  0  0  0
    4.9283   -3.7263    0.0000 C   0  0  0  0  0  0  0  0  0  0  0  0
    4.2472   -4.1270    0.0000 C   0  0  0  0  0  0  0  0  0  0  0  0
    3.5259   -3.7263    0.0000 C   0  0  0  0  0  0  0  0  0  0  0  0
    2.8047   -4.1270    0.0000 C   0  0  0  0  0  0  0  0  0  0  0  0
    2.0835   -3.7263    0.0000 C   0  0  0  0  0  0  0  0  0  0  0  0
    1.4024   -4.1270    0.0000 C   0  0  0  0  0  0  0  0  0  0  0  0
    0.6811   -3.7263    0.0000 C   0  0  0  0  0  0  0  0  0  0  0  0
  1  6  1  0  0  0  0
  1 14  1  0  0  0  0
  2 31  1  0  0  0  0
  3  4  2  0  0  0  0
  3 10  1  0  0  0  0
  4  5  1  0  0  0  0
  4  6  1  0  0  0  0
  5  7  1  0  0  0  0
  5 11  2  0  0  0  0
  6  9  2  0  0  0  0
  7  8  2  0  0  0  0
  8  9  1  0  0  0  0
  8 15  1  0  0  0  0
 10 12  2  0  0  0  0
 10 13  1  0  0  0  0
 11 12  1  0  0  0  0
 13 17  1  0  0  0  0
 14 16  1  0  0  0  0
 16 18  2  0  0  0  0
 16 19  1  0  0  0  0
 17 22  1  0  0  0  0
 18 20  1  0  0  0  0
 19 21  2  0  0  0  0
 20 23  2  0  0  0  0
 21 23  1  0  0  0  0
 22 24  1  0  0  0  0
 24 25  1  0  0  0  0
 25 26  1  0  0  0  0
 26 27  1  0  0  0  0
 27 28  1  0  0  0  0
 28 29  1  0  0  0  0
 29 30  1  0  0  0  0
 30 31  1  0  0  0  0
M  END
> <PUBCHEM_COMPOUND_ID_TYPE>
0

> <PUBCHEM_TOTAL_CHARGE>
0

> <PUBCHEM_SUBSTANCE_ID>
310929427

> <PUBCHEM_SUBSTANCE_VERSION>
1

> <PUBCHEM_EXT_DATASOURCE_NAME>
4488

> <PUBCHEM_EXT_DATASOURCE_REGID>
SCHEMBL16106601

> <PUBCHEM_SUBSTANCE_COMMENT>
InChI=1S/C28H37NO2/c1-23-20-25-17-18-26(16-12-7-5-3-2-4-6-8-13-19-30)29-28(25)27(21-23)31-22-24-14-10-9-11-15-24/h9-11,14-15,17-18,20-21,30H,2-8,12-13,16,19,22H2,1H3
InChIKey=JCVPBCQTMYDXHR-UHFFFAOYSA-N

> <PUBCHEM_SUBSTANCE_SYNONYM>
SCHEMBL16106601

> <PUBCHEM_XREF_EXT_ID>
SCHEMBL16106601

> <PUBCHEM_EXT_DATASOURCE_URL>
https://www.surechembl.org/

> <PUBCHEM_EXT_SUBSTANCE_URL>
https://www.surechembl.org/chemical/SCHEMBL16106601

> <PUBCHEM_CID_ASSOCIATIONS>
85473457  1

> <PUBCHEM_COORDINATE_TYPE>
1
3

$$$$
