310929218
  -OEChem-07211613022D

 59 63  0     0  0  0  0  0  0999 V2000
    1.4438   -0.6703    0.0000 S   0  0  0  0  0  0  0  0  0  0  0  0
    3.6610   -2.0625    0.0000 O   0  0  0  0  0  0  0  0  0  0  0  0
    6.3422   -1.8563    0.0000 O   0  0  0  0  0  0  0  0  0  0  0  0
    2.8360   -4.7438    0.0000 O   0  0  0  0  0  0  0  0  0  0  0  0
    0.9797   -1.4438    0.0000 O   0  0  0  0  0  0  0  0  0  0  0  0
    1.8563    0.0000    0.0000 O   0  0  0  0  0  0  0  0  0  0  0  0
    9.1266   -6.7031    0.0000 O   0  0  0  0  0  0  0  0  0  0  0  0
   10.5703   -3.4547    0.0000 O   0  0  0  0  0  0  0  0  0  0  0  0
   12.6844   -3.0422    0.0000 O   0  0  0  0  0  0  0  0  0  0  0  0
   14.7985   -3.4547    0.0000 O   0  0  0  0  0  0  0  0  0  0  0  0
   15.4688   -5.5172    0.0000 O   0  0  0  0  0  0  0  0  0  0  0  0
    3.5063   -3.5063    0.0000 N   0  0  0  0  0  0  0  0  0  0  0  0
    2.1140   -1.0828    0.0000 N   0  0  0  0  0  0  0  0  0  0  0  0
    4.2281   -4.7438    0.0000 N   0  0  0  0  0  0  0  0  0  0  0  0
    7.7344   -4.2797    0.0000 N   0  0  0  0  0  0  0  0  0  0  0  0
    8.4563   -3.0422    0.0000 N   0  0  0  0  0  0  0  0  0  0  0  0
   11.2406   -4.6922    0.0000 N   0  0  0  0  0  0  0  0  0  0  0  0
    2.8360   -3.0938    0.0000 C   0  0  0  0  0  0  0  0  0  0  0  0
    4.2281   -3.0938    0.0000 C   0  0  0  0  0  0  0  0  0  0  0  0
    4.2281   -2.3203    0.0000 C   0  0  0  0  0  0  0  0  0  0  0  0
    2.8360   -2.3203    0.0000 C   0  0  0  0  0  0  0  0  0  0  0  0
    4.8985   -1.9078    0.0000 C   0  0  0  0  0  0  0  0  0  0  0  0
    2.1140   -1.9078    0.0000 C   0  0  0  0  0  0  0  0  0  0  0  0
    1.4438   -3.1453    0.0000 C   0  0  0  0  0  0  0  0  0  0  0  0
    2.1140   -3.5063    0.0000 C   0  0  0  0  0  0  0  0  0  0  0  0
    5.6203   -2.2688    0.0000 C   0  0  0  0  0  0  0  0  0  0  0  0
    3.5063   -4.3313    0.0000 C   0  0  0  0  0  0  0  0  0  0  0  0
    4.9500   -3.5063    0.0000 C   0  0  0  0  0  0  0  0  0  0  0  0
    1.4438   -2.3203    0.0000 C   0  0  0  0  0  0  0  0  0  0  0  0
    0.7219   -3.5063    0.0000 C   0  0  0  0  0  0  0  0  0  0  0  0
    5.6203   -3.0938    0.0000 C   0  0  0  0  0  0  0  0  0  0  0  0
    3.5063   -1.9078    0.0000 C   0  0  0  0  0  0  0  0  0  0  0  0
    4.8985   -1.0828    0.0000 C   0  0  0  0  0  0  0  0  0  0  0  0
    3.5063   -1.0828    0.0000 C   0  0  0  0  0  0  0  0  0  0  0  0
    4.2281   -0.6703    0.0000 C   0  0  0  0  0  0  0  0  0  0  0  0
    7.0125   -2.2688    0.0000 C   0  0  0  0  0  0  0  0  0  0  0  0
    0.3094   -2.7844    0.0000 C   0  0  0  0  0  0  0  0  0  0  0  0
    0.0000   -3.9188    0.0000 C   0  0  0  0  0  0  0  0  0  0  0  0
    1.1344   -4.2281    0.0000 C   0  0  0  0  0  0  0  0  0  0  0  0
    7.0125   -3.0938    0.0000 C   0  0  0  0  0  0  0  0  0  0  0  0
    3.6610   -1.2375    0.0000 C   0  0  0  0  0  0  0  0  0  0  0  0
    7.7344   -3.4547    0.0000 C   0  0  0  0  0  0  0  0  0  0  0  0
    7.7344   -1.8563    0.0000 C   0  0  0  0  0  0  0  0  0  0  0  0
    0.7219   -0.2578    0.0000 C   0  0  0  0  0  0  0  0  0  0  0  0
    8.4563   -4.6922    0.0000 C   0  0  0  0  0  0  0  0  0  0  0  0
    8.4047   -2.2688    0.0000 C   0  0  0  0  0  0  0  0  0  0  0  0
    9.8485   -4.6922    0.0000 C   0  0  0  0  0  0  0  0  0  0  0  0
    9.1266   -4.2797    0.0000 C   0  0  0  0  0  0  0  0  0  0  0  0
    8.4563   -5.5172    0.0000 C   0  0  0  0  0  0  0  0  0  0  0  0
    9.1266   -5.8781    0.0000 C   0  0  0  0  0  0  0  0  0  0  0  0
    9.8485   -5.5172    0.0000 C   0  0  0  0  0  0  0  0  0  0  0  0
   10.5703   -4.2797    0.0000 C   0  0  0  0  0  0  0  0  0  0  0  0
   11.9625   -4.2797    0.0000 C   0  0  0  0  0  0  0  0  0  0  0  0
    9.8485   -7.1156    0.0000 C   0  0  0  0  0  0  0  0  0  0  0  0
   11.9625   -3.4547    0.0000 C   0  0  0  0  0  0  0  0  0  0  0  0
   13.3547   -3.4547    0.0000 C   0  0  0  0  0  0  0  0  0  0  0  0
   14.0766   -3.0422    0.0000 C   0  0  0  0  0  0  0  0  0  0  0  0
   14.7985   -4.2797    0.0000 C   0  0  0  0  0  0  0  0  0  0  0  0
   15.4688   -4.6922    0.0000 C   0  0  0  0  0  0  0  0  0  0  0  0
  1  5  2  0  0  0  0
  1  6  2  0  0  0  0
  1 13  1  0  0  0  0
  1 44  1  0  0  0  0
  2 21  1  0  0  0  0
  2 41  1  0  0  0  0
  3 26  1  0  0  0  0
  3 36  1  0  0  0  0
  4 27  2  0  0  0  0
  7 50  1  0  0  0  0
  7 54  1  0  0  0  0
  8 52  2  0  0  0  0
  9 55  1  0  0  0  0
  9 56  1  0  0  0  0
 10 57  1  0  0  0  0
 10 58  1  0  0  0  0
 11 59  1  0  0  0  0
 12 18  1  0  0  0  0
 12 19  1  0  0  0  0
 12 27  1  0  0  0  0
 13 23  1  0  0  0  0
 14 27  1  0  0  0  0
 15 42  1  0  0  0  0
 15 45  1  0  0  0  0
 16 42  2  0  0  0  0
 16 46  1  0  0  0  0
 17 52  1  0  0  0  0
 17 53  1  0  0  0  0
 18 21  1  0  0  0  0
 18 25  2  0  0  0  0
 19 20  1  0  0  0  0
 19 28  2  0  0  0  0
 20 22  2  0  0  0  0
 20 32  1  0  0  0  0
 21 23  2  0  0  0  0
 22 26  1  0  0  0  0
 22 33  1  0  0  0  0
 23 29  1  0  0  0  0
 24 25  1  0  0  0  0
 24 29  2  0  0  0  0
 24 30  1  0  0  0  0
 26 31  2  0  0  0  0
 28 31  1  0  0  0  0
 30 37  1  0  0  0  0
 30 38  1  0  0  0  0
 30 39  1  0  0  0  0
 32 34  2  0  0  0  0
 33 35  2  0  0  0  0
 34 35  1  0  0  0  0
 36 40  2  0  0  0  0
 36 43  1  0  0  0  0
 40 42  1  0  0  0  0
 43 46  2  0  0  0  0
 45 48  1  0  0  0  0
 45 49  2  0  0  0  0
 47 48  2  0  0  0  0
 47 51  1  0  0  0  0
 47 52  1  0  0  0  0
 49 50  1  0  0  0  0
 50 51  2  0  0  0  0
 53 55  1  0  0  0  0
 56 57  1  0  0  0  0
 58 59  1  0  0  0  0
M  END
> <PUBCHEM_COMPOUND_ID_TYPE>
0

> <PUBCHEM_TOTAL_CHARGE>
0

> <PUBCHEM_SUBSTANCE_ID>
310929218

> <PUBCHEM_SUBSTANCE_VERSION>
1

> <PUBCHEM_EXT_DATASOURCE_NAME>
4488

> <PUBCHEM_EXT_DATASOURCE_REGID>
SCHEMBL16106381

> <PUBCHEM_SUBSTANCE_COMMENT>
InChI=1S/C42H50N6O10S/c1-42(2,3)28-23-34(47-59(6,52)53)39(55-5)36(24-28)48(41(43)51)35-11-12-37(33-10-8-7-9-32(33)35)58-30-13-14-44-38(26-30)46-29-21-27(22-31(25-29)54-4)40(50)45-15-17-56-19-20-57-18-16-49/h7-14,21-26,47,49H,15-20H2,1-6H3,(H2,43,51)(H,44,46)(H,45,50)
InChIKey=LAMDTNDXGODATR-UHFFFAOYSA-N

> <PUBCHEM_SUBSTANCE_SYNONYM>
SCHEMBL16106381

> <PUBCHEM_XREF_EXT_ID>
SCHEMBL16106381

> <PUBCHEM_EXT_DATASOURCE_URL>
https://www.surechembl.org/

> <PUBCHEM_EXT_SUBSTANCE_URL>
https://www.surechembl.org/chemical/SCHEMBL16106381

> <PUBCHEM_CID_ASSOCIATIONS>
117598663  1

> <PUBCHEM_COORDINATE_TYPE>
1
3

$$$$
