310946371
  -OEChem-07211613022D

 14 14  0     0  0  0  0  0  0999 V2000
   -2.6938    6.1905    0.0000 I   0  0  0  0  0  0  0  0  0  0  0  0
   -4.1228    3.7155    0.0000 I   0  0  0  0  0  0  0  0  0  0  0  0
   -4.1228    5.3655    0.0000 O   0  0  0  0  0  0  0  0  0  0  0  0
    0.1640    6.1905    0.0000 O   0  0  0  0  0  0  0  0  0  0  0  0
   -2.6938    5.3655    0.0000 C   0  0  0  0  0  0  0  0  0  0  0  0
   -3.4083    4.9530    0.0000 C   0  0  0  0  0  0  0  0  0  0  0  0
   -1.9794    4.9530    0.0000 C   0  0  0  0  0  0  0  0  0  0  0  0
   -3.4083    4.1280    0.0000 C   0  0  0  0  0  0  0  0  0  0  0  0
   -1.9794    4.1280    0.0000 C   0  0  0  0  0  0  0  0  0  0  0  0
   -2.6938    3.7155    0.0000 C   0  0  0  0  0  0  0  0  0  0  0  0
   -1.2649    5.3655    0.0000 C   0  0  0  0  0  0  0  0  0  0  0  0
   -0.5504    4.9530    0.0000 C   0  0  0  0  0  0  0  0  0  0  0  0
    0.1640    5.3655    0.0000 C   0  0  0  0  0  0  0  0  0  0  0  0
    0.8785    4.9530    0.0000 C   0  0  0  0  0  0  0  0  0  0  0  0
  1  5  1  0  0  0  0
  2  8  1  0  0  0  0
  3  6  1  0  0  0  0
  4 13  2  0  0  0  0
  5  6  1  0  0  0  0
  5  7  2  0  0  0  0
  6  8  2  0  0  0  0
  7  9  1  0  0  0  0
  7 11  1  0  0  0  0
  8 10  1  0  0  0  0
  9 10  2  0  0  0  0
 11 12  2  0  0  0  0
 12 13  1  0  0  0  0
 13 14  1  0  0  0  0
M  END
> <PUBCHEM_COMPOUND_ID_TYPE>
0

> <PUBCHEM_TOTAL_CHARGE>
0

> <PUBCHEM_SUBSTANCE_ID>
310946371

> <PUBCHEM_SUBSTANCE_VERSION>
1

> <PUBCHEM_EXT_DATASOURCE_NAME>
4488

> <PUBCHEM_EXT_DATASOURCE_REGID>
SCHEMBL16124490

> <PUBCHEM_SUBSTANCE_COMMENT>
InChI=1S/C10H8I2O2/c1-6(13)2-3-7-4-5-8(11)10(14)9(7)12/h2-5,14H,1H3/b3-2+
InChIKey=VISHJRHMEICHIB-NSCUHMNNSA-N

> <PUBCHEM_SUBSTANCE_SYNONYM>
SCHEMBL16124490

> <PUBCHEM_XREF_EXT_ID>
SCHEMBL16124490

> <PUBCHEM_EXT_DATASOURCE_URL>
https://www.surechembl.org/

> <PUBCHEM_EXT_SUBSTANCE_URL>
https://www.surechembl.org/chemical/SCHEMBL16124490

> <PUBCHEM_CID_ASSOCIATIONS>
117612293  1

> <PUBCHEM_COORDINATE_TYPE>
1
3

$$$$
