310936039
  -OEChem-07211613022D

 15 15  0     0  0  0  0  0  0999 V2000
    1.4302   -3.7147    0.0000 I   0  0  0  0  0  0  0  0  0  0  0  0
    0.0000   -2.8789    0.0000 Cl  0  0  0  0  0  0  0  0  0  0  0  0
    1.4302   -0.4086    0.0000 O   0  0  0  0  0  0  0  0  0  0  0  0
    4.2905   -0.4086    0.0000 O   0  0  0  0  0  0  0  0  0  0  0  0
    5.0149   -1.6344    0.0000 O   0  0  0  0  0  0  0  0  0  0  0  0
    2.8603   -1.2259    0.0000 N   0  0  0  0  0  0  0  0  0  0  0  0
    2.1546   -1.6344    0.0000 C   0  0  0  0  0  0  0  0  0  0  0  0
    1.4302   -1.2444    0.0000 C   0  0  0  0  0  0  0  0  0  0  0  0
    1.4302   -2.8975    0.0000 C   0  0  0  0  0  0  0  0  0  0  0  0
    0.7244   -2.4703    0.0000 C   0  0  0  0  0  0  0  0  0  0  0  0
    2.1360   -2.4703    0.0000 C   0  0  0  0  0  0  0  0  0  0  0  0
    0.7244   -1.6344    0.0000 C   0  0  0  0  0  0  0  0  0  0  0  0
    3.5847   -1.6344    0.0000 C   0  0  0  0  0  0  0  0  0  0  0  0
    4.2905   -1.2259    0.0000 C   0  0  0  0  0  0  0  0  0  0  0  0
    0.7244    0.0000    0.0000 C   0  0  0  0  0  0  0  0  0  0  0  0
  1  9  1  0  0  0  0
  2 10  1  0  0  0  0
  3  8  1  0  0  0  0
  3 15  1  0  0  0  0
  4 14  2  0  0  0  0
  5 14  1  0  0  0  0
  6  7  1  0  0  0  0
  6 13  1  0  0  0  0
  7  8  1  0  0  0  0
  7 11  2  0  0  0  0
  8 12  2  0  0  0  0
  9 10  2  0  0  0  0
  9 11  1  0  0  0  0
 10 12  1  0  0  0  0
 13 14  1  0  0  0  0
M  END
> <PUBCHEM_COMPOUND_ID_TYPE>
0

> <PUBCHEM_TOTAL_CHARGE>
0

> <PUBCHEM_SUBSTANCE_ID>
310936039

> <PUBCHEM_SUBSTANCE_VERSION>
1

> <PUBCHEM_EXT_DATASOURCE_NAME>
4488

> <PUBCHEM_EXT_DATASOURCE_REGID>
SCHEMBL16113642

> <PUBCHEM_SUBSTANCE_COMMENT>
InChI=1S/C9H9ClINO3/c1-15-8-2-5(10)6(11)3-7(8)12-4-9(13)14/h2-3,12H,4H2,1H3,(H,13,14)
InChIKey=COPYOBOGAPTLAU-UHFFFAOYSA-N

> <PUBCHEM_SUBSTANCE_SYNONYM>
SCHEMBL16113642

> <PUBCHEM_XREF_EXT_ID>
SCHEMBL16113642

> <PUBCHEM_EXT_DATASOURCE_URL>
https://www.surechembl.org/

> <PUBCHEM_EXT_SUBSTANCE_URL>
https://www.surechembl.org/chemical/SCHEMBL16113642

> <PUBCHEM_CID_ASSOCIATIONS>
92135553  1

> <PUBCHEM_COORDINATE_TYPE>
1
3

$$$$
