310942208
  -OEChem-07211613022D

 24 25  0     1  0  0  0  0  0999 V2000
   -0.2750    1.4624    0.0000 Cl  0  0  0  0  0  0  0  0  0  0  0  0
    2.6123   -0.2000    0.0000 S   0  0  0  0  0  0  0  0  0  0  0  0
   -1.7123   -1.0374    0.0000 F   0  0  0  0  0  0  0  0  0  0  0  0
   -0.2750   -0.2000    0.0000 O   0  0  0  0  0  0  0  0  0  0  0  0
    2.5998    0.6250    0.0000 O   0  0  0  0  0  0  0  0  0  0  0  0
    2.5998   -1.0374    0.0000 O   0  0  0  0  0  0  0  0  0  0  0  0
    3.4497   -0.2000    0.0000 N   0  0  0  0  0  0  0  0  0  0  0  0
   -3.8747    0.2125    0.0000 N   0  0  0  0  0  0  0  0  0  0  0  0
   -0.9999    0.2250    0.0000 C   0  0  0  0  0  0  0  0  0  0  0  0
   -1.7123   -0.1874    0.0000 C   0  0  0  0  0  0  0  0  0  0  0  0
   -2.4373    0.2125    0.0000 C   0  0  0  0  0  0  0  0  0  0  0  0
    1.8873    0.2250    0.0000 C   0  0  0  0  0  0  0  0  0  0  0  0
    0.4499    0.2125    0.0000 C   0  0  0  0  0  0  0  0  0  0  0  0
   -0.9875    1.0499    0.0000 C   0  0  0  0  0  0  0  0  0  0  0  0
    1.1874   -0.2000    0.0000 C   0  0  0  0  0  0  0  0  0  0  0  0
   -2.4248    1.0374    0.0000 C   0  0  0  0  0  0  0  0  0  0  0  0
   -1.7248    1.4499    0.0000 C   0  0  0  0  0  0  0  0  0  0  0  0
   -3.1497   -0.2000    0.0000 C   0  0  3  0  0  0  0  0  0  0  0  0
    1.8999    1.0374    0.0000 C   0  0  0  0  0  0  0  0  0  0  0  0
    0.4625    1.0374    0.0000 C   0  0  0  0  0  0  0  0  0  0  0  0
    1.1624    1.4499    0.0000 C   0  0  0  0  0  0  0  0  0  0  0  0
   -3.1622   -1.0374    0.0000 C   0  0  0  0  0  0  0  0  0  0  0  0
    3.8747   -0.9249    0.0000 C   0  0  0  0  0  0  0  0  0  0  0  0
   -3.8621   -1.4624    0.0000 C   0  0  0  0  0  0  0  0  0  0  0  0
  1 14  1  0  0  0  0
  2  5  2  0  0  0  0
  2  6  2  0  0  0  0
  2  7  1  0  0  0  0
  2 12  1  0  0  0  0
  3 10  1  0  0  0  0
  4  9  1  0  0  0  0
  4 13  1  0  0  0  0
  7 23  1  0  0  0  0
 18  8  1  1  0  0  0
  9 10  1  0  0  0  0
  9 14  2  0  0  0  0
 10 11  2  0  0  0  0
 11 16  1  0  0  0  0
 11 18  1  0  0  0  0
 12 15  2  0  0  0  0
 12 19  1  0  0  0  0
 13 15  1  0  0  0  0
 13 20  2  0  0  0  0
 14 17  1  0  0  0  0
 16 17  2  0  0  0  0
 18 22  1  0  0  0  0
 19 21  2  0  0  0  0
 20 21  1  0  0  0  0
 22 24  1  0  0  0  0
M  END
> <PUBCHEM_COMPOUND_ID_TYPE>
0

> <PUBCHEM_TOTAL_CHARGE>
0

> <PUBCHEM_SUBSTANCE_ID>
310942208

> <PUBCHEM_SUBSTANCE_VERSION>
1

> <PUBCHEM_EXT_DATASOURCE_NAME>
4488

> <PUBCHEM_EXT_DATASOURCE_REGID>
SCHEMBL16120243

> <PUBCHEM_SUBSTANCE_COMMENT>
InChI=1S/C16H18ClFN2O3S/c1-3-14(19)12-7-8-13(17)16(15(12)18)23-10-5-4-6-11(9-10)24(21,22)20-2/h4-9,14,20H,3,19H2,1-2H3/t14-/m1/s1
InChIKey=LESMDCGPFZJYQQ-CQSZACIVSA-N

> <PUBCHEM_SUBSTANCE_SYNONYM>
SCHEMBL16120243

> <PUBCHEM_XREF_EXT_ID>
SCHEMBL16120243

> <PUBCHEM_EXT_DATASOURCE_URL>
https://www.surechembl.org/

> <PUBCHEM_EXT_SUBSTANCE_URL>
https://www.surechembl.org/chemical/SCHEMBL16120243

> <PUBCHEM_CID_ASSOCIATIONS>
117608859  1

> <PUBCHEM_COORDINATE_TYPE>
1
3

> <PUBCHEM_BONDANNOTATIONS>
18  8  5

$$$$
