310948339
  -OEChem-07211613022D

 16 17  0     0  0  0  0  0  0999 V2000
   -3.3354    0.8214    0.0000 Br  0  0  0  0  0  0  0  0  0  0  0  0
    0.5710   -0.4407    0.0000 O   0  0  0  0  0  0  0  0  0  0  0  0
    1.2921    0.8214    0.0000 N   0  0  0  0  0  0  0  0  0  0  0  0
    2.1134   -0.4407    0.0000 N   0  0  0  0  0  0  0  0  0  0  0  0
    2.9348   -0.6010    0.0000 N   0  0  0  0  0  0  0  0  0  0  0  0
    2.0333    0.4207    0.0000 C   0  0  0  0  0  0  0  0  0  0  0  0
   -0.8715    0.4007    0.0000 C   0  0  0  0  0  0  0  0  0  0  0  0
    0.5710    0.4207    0.0000 C   0  0  0  0  0  0  0  0  0  0  0  0
   -0.1703    0.8013    0.0000 C   0  0  0  0  0  0  0  0  0  0  0  0
    2.7745    0.7412    0.0000 C   0  0  0  0  0  0  0  0  0  0  0  0
   -1.6126    0.8013    0.0000 C   0  0  0  0  0  0  0  0  0  0  0  0
   -2.3138    0.4007    0.0000 C   0  0  0  0  0  0  0  0  0  0  0  0
   -0.8715   -0.4207    0.0000 C   0  0  0  0  0  0  0  0  0  0  0  0
    3.3354    0.1202    0.0000 C   0  0  0  0  0  0  0  0  0  0  0  0
   -2.3138   -0.4407    0.0000 C   0  0  0  0  0  0  0  0  0  0  0  0
   -1.5926   -0.8214    0.0000 C   0  0  0  0  0  0  0  0  0  0  0  0
  1 12  1  0  0  0  0
  2  8  2  0  0  0  0
  3  6  1  0  0  0  0
  3  8  1  0  0  0  0
  4  5  1  0  0  0  0
  4  6  2  0  0  0  0
  5 14  1  0  0  0  0
  6 10  1  0  0  0  0
  7  9  1  0  0  0  0
  7 11  2  0  0  0  0
  7 13  1  0  0  0  0
  8  9  1  0  0  0  0
 10 14  2  0  0  0  0
 11 12  1  0  0  0  0
 12 15  2  0  0  0  0
 13 16  2  0  0  0  0
 15 16  1  0  0  0  0
M  END
> <PUBCHEM_COMPOUND_ID_TYPE>
0

> <PUBCHEM_TOTAL_CHARGE>
0

> <PUBCHEM_SUBSTANCE_ID>
310948339

> <PUBCHEM_SUBSTANCE_VERSION>
1

> <PUBCHEM_EXT_DATASOURCE_NAME>
4488

> <PUBCHEM_EXT_DATASOURCE_REGID>
SCHEMBL16126517

> <PUBCHEM_SUBSTANCE_COMMENT>
InChI=1S/C11H10BrN3O/c12-9-3-1-2-8(6-9)7-11(16)14-10-4-5-13-15-10/h1-6H,7H2,(H2,13,14,15,16)
InChIKey=HKYUFOBNXSQVBZ-UHFFFAOYSA-N

> <PUBCHEM_SUBSTANCE_SYNONYM>
SCHEMBL16126517

> <PUBCHEM_XREF_EXT_ID>
SCHEMBL16126517

> <PUBCHEM_EXT_DATASOURCE_URL>
https://www.surechembl.org/

> <PUBCHEM_EXT_SUBSTANCE_URL>
https://www.surechembl.org/chemical/SCHEMBL16126517

> <PUBCHEM_CID_ASSOCIATIONS>
61994202  1

> <PUBCHEM_COORDINATE_TYPE>
1
3

$$$$
