310943630
  -OEChem-07211613022D

 39 45  0     0  0  0  0  0  0999 V2000
   -3.2934    0.1282    0.0000 O   0  0  0  0  0  0  0  0  0  0  0  0
   -3.3094   -3.0129    0.0000 O   0  0  0  0  0  0  0  0  0  0  0  0
   -4.7036    2.6122    0.0000 O   0  0  0  0  0  0  0  0  0  0  0  0
    2.6042    2.3398    0.0000 O   0  0  0  0  0  0  0  0  0  0  0  0
   -3.2613    1.7629    0.0000 N   0  0  0  0  0  0  0  0  0  0  0  0
   -1.8510    0.0961    0.0000 N   0  0  0  0  0  0  0  0  0  0  0  0
    0.4728    2.8847    0.0000 N   0  0  0  0  0  0  0  0  0  0  0  0
    1.8030    1.1539    0.0000 N   0  0  0  0  0  0  0  0  0  0  0  0
    4.6556    0.1602    0.0000 N   0  0  0  0  0  0  0  0  0  0  0  0
   -3.2613   -1.8270    0.0000 C   0  0  0  0  0  0  0  0  0  0  0  0
   -3.3094   -0.6891    0.0000 C   0  0  0  0  0  0  0  0  0  0  0  0
   -3.8543   -1.2981    0.0000 C   0  0  0  0  0  0  0  0  0  0  0  0
   -2.7164   -1.2340    0.0000 C   0  0  0  0  0  0  0  0  0  0  0  0
   -2.7004   -2.4360    0.0000 C   0  0  0  0  0  0  0  0  0  0  0  0
   -3.8703   -2.4039    0.0000 C   0  0  0  0  0  0  0  0  0  0  0  0
   -2.5722    0.5289    0.0000 C   0  0  0  0  0  0  0  0  0  0  0  0
   -2.5401    1.3462    0.0000 C   0  0  0  0  0  0  0  0  0  0  0  0
   -1.0978    1.3302    0.0000 C   0  0  0  0  0  0  0  0  0  0  0  0
   -0.3445    1.6987    0.0000 C   0  0  0  0  0  0  0  0  0  0  0  0
   -1.8190    1.7469    0.0000 C   0  0  0  0  0  0  0  0  0  0  0  0
   -1.1299    0.4968    0.0000 C   0  0  0  0  0  0  0  0  0  0  0  0
   -0.2804    2.5161    0.0000 C   0  0  0  0  0  0  0  0  0  0  0  0
    0.3766    1.2500    0.0000 C   0  0  0  0  0  0  0  0  0  0  0  0
    1.1138    1.6186    0.0000 C   0  0  0  0  0  0  0  0  0  0  0  0
   -3.2453    2.5962    0.0000 C   0  0  0  0  0  0  0  0  0  0  0  0
   -3.9664    1.3943    0.0000 C   0  0  0  0  0  0  0  0  0  0  0  0
    1.1779    2.4200    0.0000 C   0  0  0  0  0  0  0  0  0  0  0  0
    3.9023   -0.1923    0.0000 C   0  0  0  0  0  0  0  0  0  0  0  0
    3.2613    1.0738    0.0000 C   0  0  0  0  0  0  0  0  0  0  0  0
    3.8383   -1.0256    0.0000 C   0  0  0  0  0  0  0  0  0  0  0  0
    2.5401    1.5225    0.0000 C   0  0  0  0  0  0  0  0  0  0  0  0
    3.2132    0.2564    0.0000 C   0  0  0  0  0  0  0  0  0  0  0  0
    4.2068   -1.7308    0.0000 C   0  0  0  0  0  0  0  0  0  0  0  0
    3.4055   -1.6827    0.0000 C   0  0  0  0  0  0  0  0  0  0  0  0
   -3.9825    3.0129    0.0000 C   0  0  0  0  0  0  0  0  0  0  0  0
   -4.7036    1.8110    0.0000 C   0  0  0  0  0  0  0  0  0  0  0  0
   -0.9856    2.9488    0.0000 C   0  0  0  0  0  0  0  0  0  0  0  0
    3.9825    1.4423    0.0000 C   0  0  0  0  0  0  0  0  0  0  0  0
    4.7036    0.9936    0.0000 C   0  0  0  0  0  0  0  0  0  0  0  0
  1 11  1  0  0  0  0
  1 16  1  0  0  0  0
  2 14  1  0  0  0  0
  2 15  1  0  0  0  0
  3 35  1  0  0  0  0
  3 36  1  0  0  0  0
  4 31  2  0  0  0  0
  5 17  1  0  0  0  0
  5 25  1  0  0  0  0
  5 26  1  0  0  0  0
  6 16  1  0  0  0  0
  6 21  2  0  0  0  0
  7 22  2  0  0  0  0
  7 27  1  0  0  0  0
  8 24  1  0  0  0  0
  8 31  1  0  0  0  0
  9 28  2  0  0  0  0
  9 39  1  0  0  0  0
 10 12  1  0  0  0  0
 10 13  1  0  0  0  0
 10 14  1  0  0  0  0
 10 15  1  0  0  0  0
 11 12  1  0  0  0  0
 11 13  1  0  0  0  0
 16 17  2  0  0  0  0
 17 20  1  0  0  0  0
 18 19  1  0  0  0  0
 18 20  2  0  0  0  0
 18 21  1  0  0  0  0
 19 22  1  0  0  0  0
 19 23  2  0  0  0  0
 22 37  1  0  0  0  0
 23 24  1  0  0  0  0
 24 27  2  0  0  0  0
 25 35  1  0  0  0  0
 26 36  1  0  0  0  0
 28 30  1  0  0  0  0
 28 32  1  0  0  0  0
 29 31  1  0  0  0  0
 29 32  2  0  0  0  0
 29 38  1  0  0  0  0
 30 33  1  0  0  0  0
 30 34  1  0  0  0  0
 33 34  1  0  0  0  0
 38 39  2  0  0  0  0
M  END
> <PUBCHEM_COMPOUND_ID_TYPE>
0

> <PUBCHEM_TOTAL_CHARGE>
0

> <PUBCHEM_SUBSTANCE_ID>
310943630

> <PUBCHEM_SUBSTANCE_VERSION>
1

> <PUBCHEM_EXT_DATASOURCE_NAME>
4488

> <PUBCHEM_EXT_DATASOURCE_REGID>
SCHEMBL16121698

> <PUBCHEM_SUBSTANCE_COMMENT>
InChI=1S/C30H33N5O4/c1-19-25(12-23(16-32-19)34-28(36)21-4-5-31-26(10-21)20-2-3-20)22-11-27(35-6-8-37-9-7-35)29(33-15-22)39-24-13-30(14-24)17-38-18-30/h4-5,10-12,15-16,20,24H,2-3,6-9,13-14,17-18H2,1H3,(H,34,36)
InChIKey=MFAFOSJZKZAZSS-UHFFFAOYSA-N

> <PUBCHEM_SUBSTANCE_SYNONYM>
SCHEMBL16121698

> <PUBCHEM_XREF_EXT_ID>
SCHEMBL16121698

> <PUBCHEM_EXT_DATASOURCE_URL>
https://www.surechembl.org/

> <PUBCHEM_EXT_SUBSTANCE_URL>
https://www.surechembl.org/chemical/SCHEMBL16121698

> <PUBCHEM_CID_ASSOCIATIONS>
117610021  1

> <PUBCHEM_COORDINATE_TYPE>
1
3

$$$$
