310940895
  -OEChem-07211613022D

 22 23  0     1  0  0  0  0  0999 V2000
    1.2547    2.8395    0.0000 F   0  0  0  0  0  0  0  0  0  0  0  0
    1.6823    2.0960    0.0000 F   0  0  0  0  0  0  0  0  0  0  0  0
    1.2733    0.6461    0.0000 O   0  0  0  0  0  0  0  0  0  0  0  0
   -0.1766   -1.0455    0.0000 O   0  0  0  0  0  0  0  0  0  0  0  0
    0.3547   -2.0159    0.0000 O   0  0  0  0  0  0  0  0  0  0  0  0
   -0.1462   -2.8396    0.0000 O   0  0  0  0  0  0  0  0  0  0  0  0
   -1.6823   -0.1904    0.0000 N   0  0  0  0  0  0  0  0  0  0  0  0
    0.5483    0.2743    0.0000 C   0  0  3  0  0  0  0  0  0  0  0  0
   -0.1766   -0.1346    0.0000 C   0  0  0  0  0  0  0  0  0  0  0  0
   -0.9388    0.2743    0.0000 C   0  0  3  0  0  0  0  0  0  0  0  0
    1.2362   -0.1346    0.0000 C   0  0  0  0  0  0  0  0  0  0  0  0
   -0.1952    1.5570    0.0000 C   0  0  0  0  0  0  0  0  0  0  0  0
    0.8086    2.1517    0.0000 C   0  0  0  0  0  0  0  0  0  0  0  0
   -0.9202    1.1294    0.0000 C   0  0  0  0  0  0  0  0  0  0  0  0
    0.0279    2.3376    0.0000 C   0  0  0  0  0  0  0  0  0  0  0  0
    0.6041    1.3525    0.0000 C   0  0  0  0  0  0  0  0  0  0  0  0
    0.1208    1.0179    0.0000 C   0  0  0  0  0  0  0  0  0  0  0  0
   -0.1462   -2.3052    0.0000 C   0  0  0  0  0  0  0  0  0  0  0  0
    0.3658   -1.4593    0.0000 C   0  0  0  0  0  0  0  0  0  0  0  0
    0.8667   -1.4371    0.0000 C   0  0  0  0  0  0  0  0  0  0  0  0
   -0.1462   -1.4593    0.0000 C   0  0  0  0  0  0  0  0  0  0  0  0
    0.3547   -0.9139    0.0000 C   0  0  0  0  0  0  0  0  0  0  0  0
  1 13  1  0  0  0  0
  2 13  1  0  0  0  0
  3  8  1  0  0  0  0
  3 11  1  0  0  0  0
  4  9  2  0  0  0  0
  5 18  1  0  0  0  0
  5 19  1  0  0  0  0
  6 18  2  0  0  0  0
 10  7  1  1  0  0  0
  7 18  1  0  0  0  0
  8  9  1  6  0  0  0
  8 11  1  0  0  0  0
  8 17  1  1  0  0  0
  9 10  1  0  0  0  0
 10 14  1  0  0  0  0
 12 14  1  0  0  0  0
 12 15  1  0  0  0  0
 12 16  1  0  0  0  0
 13 15  1  0  0  0  0
 13 16  1  0  0  0  0
 19 20  1  0  0  0  0
 19 21  1  0  0  0  0
 19 22  1  0  0  0  0
M  END
> <PUBCHEM_COMPOUND_ID_TYPE>
0

> <PUBCHEM_TOTAL_CHARGE>
0

> <PUBCHEM_SUBSTANCE_ID>
310940895

> <PUBCHEM_SUBSTANCE_VERSION>
1

> <PUBCHEM_EXT_DATASOURCE_NAME>
4488

> <PUBCHEM_EXT_DATASOURCE_REGID>
SCHEMBL16118854

> <PUBCHEM_SUBSTANCE_COMMENT>
InChI=1S/C15H23F2NO4/c1-13(2,3)22-12(20)18-10(11(19)14(4)8-21-14)5-9-6-15(16,17)7-9/h9-10H,5-8H2,1-4H3,(H,18,20)/t10-,14+/m0/s1
InChIKey=TZSYOOXYLHDVKZ-IINYFYTJSA-N

> <PUBCHEM_SUBSTANCE_SYNONYM>
SCHEMBL16118854

> <PUBCHEM_XREF_EXT_ID>
SCHEMBL16118854

> <PUBCHEM_EXT_DATASOURCE_URL>
https://www.surechembl.org/

> <PUBCHEM_EXT_SUBSTANCE_URL>
https://www.surechembl.org/chemical/SCHEMBL16118854

> <PUBCHEM_CID_ASSOCIATIONS>
117607812  1

> <PUBCHEM_COORDINATE_TYPE>
1
3

> <PUBCHEM_BONDANNOTATIONS>
10  7  5
8  17  5
8  9  6

$$$$
