310935783
  -OEChem-07211613022D

 33 36  0     0  0  0  0  0  0999 V2000
    7.0121   -5.7611    0.0000 S   0  0  0  0  0  0  0  0  0  0  0  0
    4.6089   -1.4814    0.0000 O   0  0  0  0  0  0  0  0  0  0  0  0
    2.1398   -0.0329    0.0000 O   0  0  0  0  0  0  0  0  0  0  0  0
    7.0121   -4.8723    0.0000 O   0  0  0  0  0  0  0  0  0  0  0  0
    7.0121   -6.5842    0.0000 O   0  0  0  0  0  0  0  0  0  0  0  0
    3.3250   -5.0369    0.0000 N   0  0  0  0  0  0  0  0  0  0  0  0
    0.8230   -5.0369    0.0000 N   0  0  0  0  0  0  0  0  0  0  0  0
    2.0740   -5.7611    0.0000 N   0  0  0  0  0  0  0  0  0  0  0  0
    3.3250   -0.7572    0.0000 N   0  0  0  0  0  0  0  0  0  0  0  0
    6.2220   -5.7611    0.0000 N   0  0  0  0  0  0  0  0  0  0  0  0
    2.0740   -4.3127    0.0000 C   0  0  0  0  0  0  0  0  0  0  0  0
    1.2510   -4.3127    0.0000 C   0  0  0  0  0  0  0  0  0  0  0  0
    2.5020   -5.0369    0.0000 C   0  0  0  0  0  0  0  0  0  0  0  0
    2.0740   -2.8970    0.0000 C   0  0  0  0  0  0  0  0  0  0  0  0
    0.8560   -3.5884    0.0000 C   0  0  0  0  0  0  0  0  0  0  0  0
    2.5020   -3.6213    0.0000 C   0  0  0  0  0  0  0  0  0  0  0  0
    2.5020   -2.1728    0.0000 C   0  0  0  0  0  0  0  0  0  0  0  0
    1.2510   -2.8970    0.0000 C   0  0  0  0  0  0  0  0  0  0  0  0
    1.2510   -5.7611    0.0000 C   0  0  0  0  0  0  0  0  0  0  0  0
    3.3250   -2.1728    0.0000 C   0  0  0  0  0  0  0  0  0  0  0  0
    2.0740   -1.4485    0.0000 C   0  0  0  0  0  0  0  0  0  0  0  0
    3.7201   -4.3127    0.0000 C   0  0  0  0  0  0  0  0  0  0  0  0
    3.7201   -5.7611    0.0000 C   0  0  0  0  0  0  0  0  0  0  0  0
    3.7859   -1.4814    0.0000 C   0  0  0  0  0  0  0  0  0  0  0  0
    2.5349   -0.7243    0.0000 C   0  0  0  0  0  0  0  0  0  0  0  0
    0.0000   -3.6213    0.0000 C   0  0  0  0  0  0  0  0  0  0  0  0
    4.9711   -5.0369    0.0000 C   0  0  0  0  0  0  0  0  0  0  0  0
    4.5760   -4.3127    0.0000 C   0  0  0  0  0  0  0  0  0  0  0  0
    4.5760   -5.7611    0.0000 C   0  0  0  0  0  0  0  0  0  0  0  0
    5.7941   -5.0369    0.0000 C   0  0  0  0  0  0  0  0  0  0  0  0
    5.0369   -0.7572    0.0000 C   0  0  0  0  0  0  0  0  0  0  0  0
    1.3169    0.0000    0.0000 C   0  0  0  0  0  0  0  0  0  0  0  0
    7.8681   -5.7611    0.0000 C   0  0  0  0  0  0  0  0  0  0  0  0
  1  4  2  0  0  0  0
  1  5  2  0  0  0  0
  1 10  1  0  0  0  0
  1 33  1  0  0  0  0
  2 24  1  0  0  0  0
  2 31  1  0  0  0  0
  3 25  1  0  0  0  0
  3 32  1  0  0  0  0
  6 13  1  0  0  0  0
  6 22  1  0  0  0  0
  6 23  1  0  0  0  0
  7 12  2  0  0  0  0
  7 19  1  0  0  0  0
  8 13  1  0  0  0  0
  8 19  2  0  0  0  0
  9 24  2  0  0  0  0
  9 25  1  0  0  0  0
 10 30  1  0  0  0  0
 11 12  1  0  0  0  0
 11 13  2  0  0  0  0
 11 16  1  0  0  0  0
 12 15  1  0  0  0  0
 14 16  2  0  0  0  0
 14 17  1  0  0  0  0
 14 18  1  0  0  0  0
 15 18  2  0  0  0  0
 15 26  1  0  0  0  0
 17 20  2  0  0  0  0
 17 21  1  0  0  0  0
 20 24  1  0  0  0  0
 21 25  2  0  0  0  0
 22 28  1  0  0  0  0
 23 29  1  0  0  0  0
 27 28  1  0  0  0  0
 27 29  1  0  0  0  0
 27 30  1  0  0  0  0
M  END
> <PUBCHEM_COMPOUND_ID_TYPE>
0

> <PUBCHEM_TOTAL_CHARGE>
0

> <PUBCHEM_SUBSTANCE_ID>
310935783

> <PUBCHEM_SUBSTANCE_VERSION>
1

> <PUBCHEM_EXT_DATASOURCE_NAME>
4488

> <PUBCHEM_EXT_DATASOURCE_REGID>
SCHEMBL16113367

> <PUBCHEM_SUBSTANCE_COMMENT>
InChI=1S/C23H29N5O4S/c1-15-9-17(18-11-20(31-2)27-21(12-18)32-3)10-19-22(15)24-14-25-23(19)28-7-5-16(6-8-28)13-26-33(4,29)30/h9-12,14,16,26H,5-8,13H2,1-4H3
InChIKey=DOHGCYPFLPYXNQ-UHFFFAOYSA-N

> <PUBCHEM_SUBSTANCE_SYNONYM>
SCHEMBL16113367

> <PUBCHEM_XREF_EXT_ID>
SCHEMBL16113367

> <PUBCHEM_EXT_DATASOURCE_URL>
https://www.surechembl.org/

> <PUBCHEM_EXT_SUBSTANCE_URL>
https://www.surechembl.org/chemical/SCHEMBL16113367

> <PUBCHEM_CID_ASSOCIATIONS>
117603777  1

> <PUBCHEM_COORDINATE_TYPE>
1
3

$$$$
