310930538
  -OEChem-07211613022D

 28 31  0     0  0  0  0  0  0999 V2000
    1.6625   -4.9522    0.0000 S   0  0  0  0  0  0  0  0  0  0  0  0
    2.4407   -5.4120    0.0000 O   0  0  0  0  0  0  0  0  0  0  0  0
    0.9551   -4.5277    0.0000 O   0  0  0  0  0  0  0  0  0  0  0  0
    4.1740   -0.6367    0.0000 O   0  0  0  0  0  0  0  0  0  0  0  0
    1.2380   -5.6596    0.0000 N   0  0  0  0  0  0  0  0  0  0  0  0
    7.0391   -1.3442    0.0000 N   0  0  0  0  0  0  0  0  0  0  0  0
    7.1806    0.0000    0.0000 N   0  0  0  0  0  0  0  0  0  0  0  0
    7.8880   -1.1673    0.0000 N   0  0  0  0  0  0  0  0  0  0  0  0
    7.9588   -0.3537    0.0000 N   0  0  0  0  0  0  0  0  0  0  0  0
    4.1740   -2.0516    0.0000 N   0  0  0  0  0  0  0  0  0  0  0  0
    2.0870   -4.2094    0.0000 C   0  0  0  0  0  0  0  0  0  0  0  0
    6.6146   -0.6367    0.0000 C   0  0  0  0  0  0  0  0  0  0  0  0
    5.4120   -1.3442    0.0000 C   0  0  0  0  0  0  0  0  0  0  0  0
    2.9006   -4.2094    0.0000 C   0  0  0  0  0  0  0  0  0  0  0  0
    1.6625   -3.5019    0.0000 C   0  0  0  0  0  0  0  0  0  0  0  0
    5.8011   -0.6367    0.0000 C   0  0  0  0  0  0  0  0  0  0  0  0
    2.9006   -2.7944    0.0000 C   0  0  0  0  0  0  0  0  0  0  0  0
    4.5631   -1.3442    0.0000 C   0  0  0  0  0  0  0  0  0  0  0  0
    1.6625   -6.3670    0.0000 C   0  0  0  0  0  0  0  0  0  0  0  0
    0.4245   -5.6242    0.0000 C   0  0  0  0  0  0  0  0  0  0  0  0
    6.6146   -2.0516    0.0000 C   0  0  0  0  0  0  0  0  0  0  0  0
    5.8011   -2.0516    0.0000 C   0  0  0  0  0  0  0  0  0  0  0  0
    3.3250   -3.5019    0.0000 C   0  0  0  0  0  0  0  0  0  0  0  0
    2.0870   -2.7944    0.0000 C   0  0  0  0  0  0  0  0  0  0  0  0
    3.3250   -2.0516    0.0000 C   0  0  0  0  0  0  0  0  0  0  0  0
    1.2380   -7.0745    0.0000 C   0  0  0  0  0  0  0  0  0  0  0  0
    0.0000   -6.3317    0.0000 C   0  0  0  0  0  0  0  0  0  0  0  0
    0.3891   -7.0391    0.0000 C   0  0  0  0  0  0  0  0  0  0  0  0
  1  2  2  0  0  0  0
  1  3  2  0  0  0  0
  1  5  1  0  0  0  0
  1 11  1  0  0  0  0
  4 18  2  0  0  0  0
  5 19  1  0  0  0  0
  5 20  1  0  0  0  0
  6  8  1  0  0  0  0
  6 12  1  0  0  0  0
  6 21  1  0  0  0  0
  7  9  1  0  0  0  0
  7 12  2  0  0  0  0
  8  9  2  0  0  0  0
 10 18  1  0  0  0  0
 10 25  1  0  0  0  0
 11 14  2  0  0  0  0
 11 15  1  0  0  0  0
 12 16  1  0  0  0  0
 13 16  2  0  0  0  0
 13 18  1  0  0  0  0
 13 22  1  0  0  0  0
 14 23  1  0  0  0  0
 15 24  2  0  0  0  0
 17 23  2  0  0  0  0
 17 24  1  0  0  0  0
 17 25  1  0  0  0  0
 19 26  1  0  0  0  0
 20 27  1  0  0  0  0
 21 22  2  0  0  0  0
 26 28  1  0  0  0  0
 27 28  1  0  0  0  0
M  END
> <PUBCHEM_COMPOUND_ID_TYPE>
0

> <PUBCHEM_TOTAL_CHARGE>
0

> <PUBCHEM_SUBSTANCE_ID>
310930538

> <PUBCHEM_SUBSTANCE_VERSION>
1

> <PUBCHEM_EXT_DATASOURCE_NAME>
4488

> <PUBCHEM_EXT_DATASOURCE_REGID>
SCHEMBL16107830

> <PUBCHEM_SUBSTANCE_COMMENT>
InChI=1S/C18H20N6O3S/c25-18(15-8-11-24-17(12-15)20-21-22-24)19-13-14-4-6-16(7-5-14)28(26,27)23-9-2-1-3-10-23/h4-8,11-12H,1-3,9-10,13H2,(H,19,25)
InChIKey=LCCVRZXOQLNCRU-UHFFFAOYSA-N

> <PUBCHEM_SUBSTANCE_SYNONYM>
SCHEMBL16107830

> <PUBCHEM_XREF_EXT_ID>
SCHEMBL16107830

> <PUBCHEM_EXT_DATASOURCE_URL>
https://www.surechembl.org/

> <PUBCHEM_EXT_SUBSTANCE_URL>
https://www.surechembl.org/chemical/SCHEMBL16107830

> <PUBCHEM_CID_ASSOCIATIONS>
90011958  1

> <PUBCHEM_COORDINATE_TYPE>
1
3

$$$$
