310948420
  -OEChem-07211613022D

 30 34  0     1  0  0  0  0  0999 V2000
   -1.7504   -2.6348    0.0000 S   0  0  0  0  0  0  0  0  0  0  0  0
   -2.4690    2.3216    0.0000 O   0  0  0  0  0  0  0  0  0  0  0  0
   -1.9162   -3.4455    0.0000 O   0  0  0  0  0  0  0  0  0  0  0  0
   -2.5243   -2.8927    0.0000 O   0  0  0  0  0  0  0  0  0  0  0  0
    0.1290    1.3451    0.0000 N   0  0  0  0  0  0  0  0  0  0  0  0
   -0.4238    0.7370    0.0000 N   0  0  0  0  0  0  0  0  0  0  0  0
   -1.8978    0.6633    0.0000 N   0  0  0  0  0  0  0  0  0  0  0  0
   -1.4003    3.2981    0.0000 N   0  0  0  0  0  0  0  0  0  0  0  0
    0.3317   -0.8475    0.0000 N   0  0  0  0  0  0  0  0  0  0  0  0
   -1.0871    1.8978    0.0000 C   0  0  0  0  0  0  0  0  0  0  0  0
   -0.2764    2.0452    0.0000 C   0  0  0  0  0  0  0  0  0  0  0  0
   -1.1977    1.0687    0.0000 C   0  0  0  0  0  0  0  0  0  0  0  0
    0.9581    1.2529    0.0000 C   0  0  3  0  0  0  0  0  0  0  0  0
   -1.9162   -1.8057    0.0000 C   0  0  0  0  0  0  0  0  0  0  0  0
   -1.6399    2.4874    0.0000 C   0  0  0  0  0  0  0  0  0  0  0  0
   -1.1977   -1.4003    0.0000 C   0  0  0  0  0  0  0  0  0  0  0  0
   -1.9162   -0.1658    0.0000 C   0  0  0  0  0  0  0  0  0  0  0  0
   -0.0369    2.8559    0.0000 C   0  0  0  0  0  0  0  0  0  0  0  0
   -1.1977   -0.5896    0.0000 C   0  0  0  0  0  0  0  0  0  0  0  0
    1.2897    0.5159    0.0000 C   0  0  3  0  0  0  0  0  0  0  0  0
   -2.5979   -1.4187    0.0000 C   0  0  0  0  0  0  0  0  0  0  0  0
   -0.9028   -2.7085    0.0000 C   0  0  0  0  0  0  0  0  0  0  0  0
   -0.5712   -1.9531    0.0000 C   0  0  0  0  0  0  0  0  0  0  0  0
   -2.5979   -0.5712    0.0000 C   0  0  0  0  0  0  0  0  0  0  0  0
   -0.5712    3.4455    0.0000 C   0  0  0  0  0  0  0  0  0  0  0  0
    1.4556    1.9162    0.0000 C   0  0  0  0  0  0  0  0  0  0  0  0
    2.1189    0.4238    0.0000 C   0  0  0  0  0  0  0  0  0  0  0  0
    0.7923   -0.1843    0.0000 C   0  0  0  0  0  0  0  0  0  0  0  0
    2.2663    1.8241    0.0000 C   0  0  0  0  0  0  0  0  0  0  0  0
    2.5979    1.0687    0.0000 C   0  0  0  0  0  0  0  0  0  0  0  0
  1  3  2  0  0  0  0
  1  4  2  0  0  0  0
  1 14  1  0  0  0  0
  1 22  1  0  0  0  0
  2 15  2  0  0  0  0
  5  6  1  0  0  0  0
  5 11  1  0  0  0  0
 13  5  1  1  0  0  0
  6 12  2  0  0  0  0
  7 12  1  0  0  0  0
  7 17  1  0  0  0  0
  8 15  1  0  0  0  0
  8 25  1  0  0  0  0
  9 28  3  0  0  0  0
 10 11  2  0  0  0  0
 10 12  1  0  0  0  0
 10 15  1  0  0  0  0
 11 18  1  0  0  0  0
 13 20  1  0  0  0  0
 13 26  1  0  0  0  0
 14 16  2  0  0  0  0
 14 21  1  0  0  0  0
 16 19  1  0  0  0  0
 16 23  1  0  0  0  0
 17 19  2  0  0  0  0
 17 24  1  0  0  0  0
 18 25  2  0  0  0  0
 20 27  1  0  0  0  0
 20 28  1  6  0  0  0
 21 24  2  0  0  0  0
 22 23  1  0  0  0  0
 26 29  1  0  0  0  0
 27 30  1  0  0  0  0
 29 30  1  0  0  0  0
M  END
> <PUBCHEM_COMPOUND_ID_TYPE>
0

> <PUBCHEM_TOTAL_CHARGE>
0

> <PUBCHEM_SUBSTANCE_ID>
310948420

> <PUBCHEM_SUBSTANCE_VERSION>
1

> <PUBCHEM_EXT_DATASOURCE_NAME>
4488

> <PUBCHEM_EXT_DATASOURCE_REGID>
SCHEMBL16126601

> <PUBCHEM_SUBSTANCE_COMMENT>
InChI=1S/C21H21N5O3S/c22-12-14-3-1-2-4-16(14)26-17-7-9-23-21(27)19(17)20(25-26)24-15-5-6-18-13(11-15)8-10-30(18,28)29/h5-7,9,11,14,16H,1-4,8,10H2,(H,23,27)(H,24,25)/t14-,16+/m1/s1
InChIKey=SVHVEVPQEYOTSO-ZBFHGGJFSA-N

> <PUBCHEM_SUBSTANCE_SYNONYM>
SCHEMBL16126601

> <PUBCHEM_XREF_EXT_ID>
SCHEMBL16126601

> <PUBCHEM_EXT_DATASOURCE_URL>
https://www.surechembl.org/

> <PUBCHEM_EXT_SUBSTANCE_URL>
https://www.surechembl.org/chemical/SCHEMBL16126601

> <PUBCHEM_CID_ASSOCIATIONS>
117613980  1

> <PUBCHEM_COORDINATE_TYPE>
1
3

> <PUBCHEM_BONDANNOTATIONS>
20  28  6
13  5  5

$$$$
