310940535
  -OEChem-07211613022D

 36 41  0     0  0  0  0  0  0999 V2000
    1.9869   -0.1650    0.0000 O   0  0  0  0  0  0  0  0  0  0  0  0
   -2.2069   -0.3300    0.0000 O   0  0  0  0  0  0  0  0  0  0  0  0
    2.0419    1.3200    0.0000 O   0  0  0  0  0  0  0  0  0  0  0  0
   -3.5270   -2.2688    0.0000 O   0  0  0  0  0  0  0  0  0  0  0  0
    0.8182    0.4950    0.0000 N   0  0  0  0  0  0  0  0  0  0  0  0
    0.6669   -1.9800    0.0000 N   0  0  0  0  0  0  0  0  0  0  0  0
   -3.1145   -2.9838    0.0000 N   0  0  0  0  0  0  0  0  0  0  0  0
    0.6531   -0.3438    0.0000 C   0  0  0  0  0  0  0  0  0  0  0  0
   -0.0481   -0.7700    0.0000 C   0  0  0  0  0  0  0  0  0  0  0  0
    1.3957   -0.7563    0.0000 C   0  0  0  0  0  0  0  0  0  0  0  0
   -0.0619   -1.5813    0.0000 C   0  0  0  0  0  0  0  0  0  0  0  0
    1.3819   -1.5950    0.0000 C   0  0  0  0  0  0  0  0  0  0  0  0
    1.6569    0.5362    0.0000 C   0  0  0  0  0  0  0  0  0  0  0  0
   -1.4919   -1.6088    0.0000 C   0  0  0  0  0  0  0  0  0  0  0  0
   -0.7769   -0.3712    0.0000 C   0  0  0  0  0  0  0  0  0  0  0  0
   -1.4781   -0.7700    0.0000 C   0  0  0  0  0  0  0  0  0  0  0  0
   -0.7769   -2.0075    0.0000 C   0  0  0  0  0  0  0  0  0  0  0  0
   -2.2069   -2.0213    0.0000 C   0  0  0  0  0  0  0  0  0  0  0  0
    2.1107   -2.0075    0.0000 C   0  0  0  0  0  0  0  0  0  0  0  0
    0.1444    0.9351    0.0000 C   0  0  0  0  0  0  0  0  0  0  0  0
   -2.9632   -1.6638    0.0000 C   0  0  0  0  0  0  0  0  0  0  0  0
   -2.3032   -2.8325    0.0000 C   0  0  0  0  0  0  0  0  0  0  0  0
    0.1994    1.7738    0.0000 C   0  0  0  0  0  0  0  0  0  0  0  0
    2.8119   -1.6088    0.0000 C   0  0  0  0  0  0  0  0  0  0  0  0
    2.1107   -2.8325    0.0000 C   0  0  0  0  0  0  0  0  0  0  0  0
    3.5270   -2.0075    0.0000 C   0  0  0  0  0  0  0  0  0  0  0  0
    2.8119   -3.2314    0.0000 C   0  0  0  0  0  0  0  0  0  0  0  0
    0.9419    2.1313    0.0000 C   0  0  0  0  0  0  0  0  0  0  0  0
   -0.4744    2.2276    0.0000 C   0  0  0  0  0  0  0  0  0  0  0  0
   -3.1282   -0.8525    0.0000 C   0  0  0  0  0  0  0  0  0  0  0  0
   -1.6707   -3.3963    0.0000 C   0  0  0  0  0  0  0  0  0  0  0  0
    3.5270   -2.8325    0.0000 C   0  0  0  0  0  0  0  0  0  0  0  0
   -2.2069    0.4813    0.0000 C   0  0  0  0  0  0  0  0  0  0  0  0
    0.9969    2.9426    0.0000 C   0  0  0  0  0  0  0  0  0  0  0  0
   -0.4057    3.0526    0.0000 C   0  0  0  0  0  0  0  0  0  0  0  0
    0.3369    3.3963    0.0000 C   0  0  0  0  0  0  0  0  0  0  0  0
  1 10  1  0  0  0  0
  1 13  1  0  0  0  0
  2 16  1  0  0  0  0
  2 33  1  0  0  0  0
  3 13  2  0  0  0  0
  4  7  1  0  0  0  0
  4 21  1  0  0  0  0
  5  8  1  0  0  0  0
  5 13  1  0  0  0  0
  5 20  1  0  0  0  0
  6 11  1  0  0  0  0
  6 12  2  0  0  0  0
  7 22  2  0  0  0  0
  8  9  1  0  0  0  0
  8 10  2  0  0  0  0
  9 11  1  0  0  0  0
  9 15  2  0  0  0  0
 10 12  1  0  0  0  0
 11 17  2  0  0  0  0
 12 19  1  0  0  0  0
 14 16  2  0  0  0  0
 14 17  1  0  0  0  0
 14 18  1  0  0  0  0
 15 16  1  0  0  0  0
 18 21  2  0  0  0  0
 18 22  1  0  0  0  0
 19 24  1  0  0  0  0
 19 25  1  0  0  0  0
 20 23  1  0  0  0  0
 21 30  1  0  0  0  0
 22 31  1  0  0  0  0
 23 28  2  0  0  0  0
 23 29  1  0  0  0  0
 24 26  1  0  0  0  0
 25 27  1  0  0  0  0
 26 32  1  0  0  0  0
 27 32  1  0  0  0  0
 28 34  1  0  0  0  0
 29 35  2  0  0  0  0
 34 36  2  0  0  0  0
 35 36  1  0  0  0  0
M  END
> <PUBCHEM_COMPOUND_ID_TYPE>
0

> <PUBCHEM_TOTAL_CHARGE>
0

> <PUBCHEM_SUBSTANCE_ID>
310940535

> <PUBCHEM_SUBSTANCE_VERSION>
1

> <PUBCHEM_EXT_DATASOURCE_NAME>
4488

> <PUBCHEM_EXT_DATASOURCE_REGID>
SCHEMBL16118489

> <PUBCHEM_SUBSTANCE_COMMENT>
InChI=1S/C29H29N3O4/c1-17-25(18(2)36-31-17)22-14-23-21(15-24(22)34-3)27-28(26(30-23)20-12-8-5-9-13-20)35-29(33)32(27)16-19-10-6-4-7-11-19/h4,6-7,10-11,14-15,20H,5,8-9,12-13,16H2,1-3H3
InChIKey=GKFVVZQPJZTWQA-UHFFFAOYSA-N

> <PUBCHEM_SUBSTANCE_SYNONYM>
SCHEMBL16118489

> <PUBCHEM_XREF_EXT_ID>
SCHEMBL16118489

> <PUBCHEM_EXT_DATASOURCE_URL>
https://www.surechembl.org/

> <PUBCHEM_EXT_SUBSTANCE_URL>
https://www.surechembl.org/chemical/SCHEMBL16118489

> <PUBCHEM_CID_ASSOCIATIONS>
86303113  1

> <PUBCHEM_COORDINATE_TYPE>
1
3

$$$$
