310932997
  -OEChem-07211613022D

 13 14  0     1  0  0  0  0  0999 V2000
    0.3140   -4.1244    0.0000 O   0  0  0  0  0  0  0  0  0  0  0  0
    2.1983   -0.8165    0.0000 N   0  0  3  0  0  0  0  0  0  0  0  0
    3.0985   -2.7635    0.0000 N   0  0  0  0  0  0  0  0  0  0  0  0
    1.7795   -2.0936    0.0000 C   0  0  3  0  0  0  0  0  0  0  0  0
    1.2980   -2.7635    0.0000 C   0  0  0  0  0  0  0  0  0  0  0  0
    2.6170   -2.0936    0.0000 C   0  0  3  0  0  0  0  0  0  0  0  0
    1.5283   -1.3190    0.0000 C   0  0  0  0  0  0  0  0  0  0  0  0
    2.8682   -1.3190    0.0000 C   0  0  0  0  0  0  0  0  0  0  0  0
    0.4606   -2.7007    0.0000 C   0  0  0  0  0  0  0  0  0  0  0  0
    1.6120   -3.5382    0.0000 C   0  0  0  0  0  0  0  0  0  0  0  0
    0.0000   -3.3497    0.0000 C   0  0  0  0  0  0  0  0  0  0  0  0
    1.1305   -4.1872    0.0000 C   0  0  0  0  0  0  0  0  0  0  0  0
    2.1983    0.0000    0.0000 C   0  0  0  0  0  0  0  0  0  0  0  0
  1 11  1  0  0  0  0
  1 12  1  0  0  0  0
  2  7  1  0  0  0  0
  2  8  1  0  0  0  0
  2 13  1  0  0  0  0
  6  3  1  1  0  0  0
  4  5  1  0  0  0  0
  4  6  1  0  0  0  0
  4  7  1  6  0  0  0
  5  9  1  0  0  0  0
  5 10  1  0  0  0  0
  6  8  1  0  0  0  0
  9 11  1  0  0  0  0
 10 12  1  0  0  0  0
M  END
> <PUBCHEM_COMPOUND_ID_TYPE>
0

> <PUBCHEM_TOTAL_CHARGE>
0

> <PUBCHEM_SUBSTANCE_ID>
310932997

> <PUBCHEM_SUBSTANCE_VERSION>
1

> <PUBCHEM_EXT_DATASOURCE_NAME>
4488

> <PUBCHEM_EXT_DATASOURCE_REGID>
SCHEMBL16110395

> <PUBCHEM_SUBSTANCE_COMMENT>
InChI=1S/C10H20N2O/c1-12-6-9(10(11)7-12)8-2-4-13-5-3-8/h8-10H,2-7,11H2,1H3/t9-,10+/m0/s1
InChIKey=RISMDMRAQQCGBF-VHSXEESVSA-N

> <PUBCHEM_SUBSTANCE_SYNONYM>
SCHEMBL16110395

> <PUBCHEM_XREF_EXT_ID>
SCHEMBL16110395

> <PUBCHEM_EXT_DATASOURCE_URL>
https://www.surechembl.org/

> <PUBCHEM_EXT_SUBSTANCE_URL>
https://www.surechembl.org/chemical/SCHEMBL16110395

> <PUBCHEM_CID_ASSOCIATIONS>
117601470  1

> <PUBCHEM_COORDINATE_TYPE>
1
3

> <PUBCHEM_BONDANNOTATIONS>
6  3  5
4  7  6

$$$$
