310935552
  -OEChem-07211613022D

 27 30  0     0  0  0  0  0  0999 V2000
    2.8710   -0.0660    0.0000 S   0  0  0  0  0  0  0  0  0  0  0  0
    0.6930   -1.2210    0.0000 O   0  0  0  0  0  0  0  0  0  0  0  0
    4.7190   -1.2540    0.0000 N   0  0  0  0  0  0  0  0  0  0  0  0
    2.2110   -1.2210    0.0000 N   0  0  0  0  0  0  0  0  0  0  0  0
    1.4190    0.0000    0.0000 N   0  0  0  0  0  0  0  0  0  0  0  0
    3.4320   -0.6930    0.0000 C   0  0  0  0  0  0  0  0  0  0  0  0
    8.2501   -3.7621    0.0000 C   0  0  0  0  0  0  0  0  0  0  0  0
    6.9631   -3.1680    0.0000 C   0  0  0  0  0  0  0  0  0  0  0  0
    2.1120   -0.3960    0.0000 C   0  0  0  0  0  0  0  0  0  0  0  0
    8.5801   -3.0030    0.0000 C   0  0  0  0  0  0  0  0  0  0  0  0
    5.6430   -2.6070    0.0000 C   0  0  0  0  0  0  0  0  0  0  0  0
    4.2240   -0.5940    0.0000 C   0  0  0  0  0  0  0  0  0  0  0  0
    7.4581   -3.8611    0.0000 C   0  0  0  0  0  0  0  0  0  0  0  0
    3.0030   -1.3860    0.0000 C   0  0  0  0  0  0  0  0  0  0  0  0
    6.1381   -3.2670    0.0000 C   0  0  0  0  0  0  0  0  0  0  0  0
    7.2931   -2.4421    0.0000 C   0  0  0  0  0  0  0  0  0  0  0  0
    8.1181   -2.3430    0.0000 C   0  0  0  0  0  0  0  0  0  0  0  0
    5.5441   -1.1880    0.0000 C   0  0  0  0  0  0  0  0  0  0  0  0
    4.3560   -2.0130    0.0000 C   0  0  0  0  0  0  0  0  0  0  0  0
    6.0061   -1.8480    0.0000 C   0  0  0  0  0  0  0  0  0  0  0  0
    4.8510   -2.6730    0.0000 C   0  0  0  0  0  0  0  0  0  0  0  0
    8.7121   -4.4221    0.0000 C   0  0  0  0  0  0  0  0  0  0  0  0
    9.4051   -2.9370    0.0000 C   0  0  0  0  0  0  0  0  0  0  0  0
    9.5371   -4.3560    0.0000 C   0  0  0  0  0  0  0  0  0  0  0  0
    9.9001   -3.6301    0.0000 C   0  0  0  0  0  0  0  0  0  0  0  0
    0.6930   -0.3960    0.0000 C   0  0  0  0  0  0  0  0  0  0  0  0
    0.0000    0.0000    0.0000 C   0  0  0  0  0  0  0  0  0  0  0  0
  1  6  1  0  0  0  0
  1  9  1  0  0  0  0
  2 26  2  0  0  0  0
  3 12  1  0  0  0  0
  3 18  1  0  0  0  0
  3 19  1  0  0  0  0
  4  9  2  0  0  0  0
  4 14  1  0  0  0  0
  5  9  1  0  0  0  0
  5 26  1  0  0  0  0
  6 12  1  0  0  0  0
  6 14  2  0  0  0  0
  7 10  2  0  0  0  0
  7 13  1  0  0  0  0
  7 22  1  0  0  0  0
  8 13  2  0  0  0  0
  8 15  1  0  0  0  0
  8 16  1  0  0  0  0
 10 17  1  0  0  0  0
 10 23  1  0  0  0  0
 11 15  1  0  0  0  0
 11 20  1  0  0  0  0
 11 21  1  0  0  0  0
 16 17  2  0  0  0  0
 18 20  1  0  0  0  0
 19 21  1  0  0  0  0
 22 24  2  0  0  0  0
 23 25  2  0  0  0  0
 24 25  1  0  0  0  0
 26 27  1  0  0  0  0
M  END
> <PUBCHEM_COMPOUND_ID_TYPE>
0

> <PUBCHEM_TOTAL_CHARGE>
0

> <PUBCHEM_SUBSTANCE_ID>
310935552

> <PUBCHEM_SUBSTANCE_VERSION>
1

> <PUBCHEM_EXT_DATASOURCE_NAME>
4488

> <PUBCHEM_EXT_DATASOURCE_REGID>
SCHEMBL16113123

> <PUBCHEM_SUBSTANCE_COMMENT>
InChI=1S/C22H25N3OS/c1-16(26)24-22-23-14-21(27-22)15-25-10-8-17(9-11-25)12-18-6-7-19-4-2-3-5-20(19)13-18/h2-7,13-14,17H,8-12,15H2,1H3,(H,23,24,26)
InChIKey=BMGHHVYDLFFOCK-UHFFFAOYSA-N

> <PUBCHEM_SUBSTANCE_SYNONYM>
SCHEMBL16113123

> <PUBCHEM_XREF_EXT_ID>
SCHEMBL16113123

> <PUBCHEM_EXT_DATASOURCE_URL>
https://www.surechembl.org/

> <PUBCHEM_EXT_SUBSTANCE_URL>
https://www.surechembl.org/chemical/SCHEMBL16113123

> <PUBCHEM_CID_ASSOCIATIONS>
117603576  1

> <PUBCHEM_COORDINATE_TYPE>
1
3

$$$$
