310946353
  -OEChem-07211613022D

 26 28  0     0  0  0  0  0  0999 V2000
   -1.7883   -3.5689    0.0000 I   0  0  0  0  0  0  0  0  0  0  0  0
   -0.3593   -1.0940    0.0000 I   0  0  0  0  0  0  0  0  0  0  0  0
   -1.7883   -1.9190    0.0000 O   0  0  0  0  0  0  0  0  0  0  0  0
    1.7841   -2.3314    0.0000 O   0  0  0  0  0  0  0  0  0  0  0  0
   -4.6461   -3.5689    0.0000 O   0  0  0  0  0  0  0  0  0  0  0  0
    2.4986   -3.5689    0.0000 N   0  0  0  0  0  0  0  0  0  0  0  0
    3.9274   -4.3940    0.0000 N   0  0  0  0  0  0  0  0  0  0  0  0
   -1.0738   -2.3314    0.0000 C   0  0  0  0  0  0  0  0  0  0  0  0
   -1.0738   -3.1565    0.0000 C   0  0  0  0  0  0  0  0  0  0  0  0
   -0.3593   -1.9190    0.0000 C   0  0  0  0  0  0  0  0  0  0  0  0
    0.3551   -3.1565    0.0000 C   0  0  0  0  0  0  0  0  0  0  0  0
   -0.3593   -3.5689    0.0000 C   0  0  0  0  0  0  0  0  0  0  0  0
    0.3551   -2.3314    0.0000 C   0  0  0  0  0  0  0  0  0  0  0  0
    1.0696   -3.5689    0.0000 C   0  0  0  0  0  0  0  0  0  0  0  0
    1.7841   -3.1565    0.0000 C   0  0  0  0  0  0  0  0  0  0  0  0
   -2.5027   -2.3314    0.0000 C   0  0  0  0  0  0  0  0  0  0  0  0
    3.2129   -3.1565    0.0000 C   0  0  0  0  0  0  0  0  0  0  0  0
   -3.2171   -1.9190    0.0000 C   0  0  0  0  0  0  0  0  0  0  0  0
   -2.5027   -3.1565    0.0000 C   0  0  0  0  0  0  0  0  0  0  0  0
    2.4986   -4.3940    0.0000 C   0  0  0  0  0  0  0  0  0  0  0  0
    3.9274   -3.5689    0.0000 C   0  0  0  0  0  0  0  0  0  0  0  0
   -3.9316   -3.1565    0.0000 C   0  0  0  0  0  0  0  0  0  0  0  0
   -3.9316   -2.3314    0.0000 C   0  0  0  0  0  0  0  0  0  0  0  0
   -3.2171   -3.5689    0.0000 C   0  0  0  0  0  0  0  0  0  0  0  0
    3.2129   -4.8064    0.0000 C   0  0  0  0  0  0  0  0  0  0  0  0
    4.6419   -3.1565    0.0000 C   0  0  0  0  0  0  0  0  0  0  0  0
  1  9  1  0  0  0  0
  2 10  1  0  0  0  0
  3  8  1  0  0  0  0
  3 16  1  0  0  0  0
  4 15  2  0  0  0  0
  5 22  1  0  0  0  0
  6 15  1  0  0  0  0
  6 17  1  0  0  0  0
  6 20  1  0  0  0  0
  7 21  1  0  0  0  0
  7 25  1  0  0  0  0
  8  9  2  0  0  0  0
  8 10  1  0  0  0  0
  9 12  1  0  0  0  0
 10 13  2  0  0  0  0
 11 12  2  0  0  0  0
 11 13  1  0  0  0  0
 11 14  1  0  0  0  0
 14 15  1  0  0  0  0
 16 18  2  0  0  0  0
 16 19  1  0  0  0  0
 17 21  1  0  0  0  0
 18 23  1  0  0  0  0
 19 24  2  0  0  0  0
 20 25  1  0  0  0  0
 21 26  2  0  0  0  0
 22 23  2  0  0  0  0
 22 24  1  0  0  0  0
M  END
> <PUBCHEM_COMPOUND_ID_TYPE>
0

> <PUBCHEM_TOTAL_CHARGE>
0

> <PUBCHEM_SUBSTANCE_ID>
310946353

> <PUBCHEM_SUBSTANCE_VERSION>
1

> <PUBCHEM_EXT_DATASOURCE_NAME>
4488

> <PUBCHEM_EXT_DATASOURCE_REGID>
SCHEMBL16124472

> <PUBCHEM_SUBSTANCE_COMMENT>
InChI=1S/C19H18I2N2O3/c1-12-11-23(7-6-22-12)18(25)10-13-8-16(20)19(17(21)9-13)26-15-4-2-14(24)3-5-15/h2-5,8-9,22,24H,1,6-7,10-11H2
InChIKey=KKAIDSFVONUVJM-UHFFFAOYSA-N

> <PUBCHEM_SUBSTANCE_SYNONYM>
SCHEMBL16124472

> <PUBCHEM_XREF_EXT_ID>
SCHEMBL16124472

> <PUBCHEM_EXT_DATASOURCE_URL>
https://www.surechembl.org/

> <PUBCHEM_EXT_SUBSTANCE_URL>
https://www.surechembl.org/chemical/SCHEMBL16124472

> <PUBCHEM_CID_ASSOCIATIONS>
117612276  1

> <PUBCHEM_COORDINATE_TYPE>
1
3

$$$$
