310929325
  -OEChem-07211613022D

 28 30  0     0  0  0  0  0  0999 V2000
    9.1689   -0.7140    0.0000 O   0  0  0  0  0  0  0  0  0  0  0  0
    0.0000   -3.5322    0.0000 O   0  0  0  0  0  0  0  0  0  0  0  0
    9.1689   -2.2922    0.0000 N   0  0  0  0  0  0  0  0  0  0  0  0
    9.8828   -1.8789    0.0000 C   0  0  0  0  0  0  0  0  0  0  0  0
   10.5968   -2.2922    0.0000 C   0  0  0  0  0  0  0  0  0  0  0  0
    9.8828   -1.0898    0.0000 C   0  0  0  0  0  0  0  0  0  0  0  0
    9.1689   -3.1189    0.0000 C   0  0  0  0  0  0  0  0  0  0  0  0
   10.5968   -3.1189    0.0000 C   0  0  0  0  0  0  0  0  0  0  0  0
   11.2732   -1.9164    0.0000 C   0  0  0  0  0  0  0  0  0  0  0  0
   10.5968   -0.6764    0.0000 C   0  0  0  0  0  0  0  0  0  0  0  0
    9.8828   -3.5322    0.0000 C   0  0  0  0  0  0  0  0  0  0  0  0
   11.2732   -1.0898    0.0000 C   0  0  0  0  0  0  0  0  0  0  0  0
    7.7785   -0.7140    0.0000 C   0  0  0  0  0  0  0  0  0  0  0  0
    8.4549   -1.1273    0.0000 C   0  0  0  0  0  0  0  0  0  0  0  0
    8.4549   -3.5322    0.0000 C   0  0  0  0  0  0  0  0  0  0  0  0
    6.9518   -0.7140    0.0000 C   0  0  0  0  0  0  0  0  0  0  0  0
    7.3276    0.0000    0.0000 C   0  0  0  0  0  0  0  0  0  0  0  0
    7.7785   -3.1189    0.0000 C   0  0  0  0  0  0  0  0  0  0  0  0
    7.0645   -3.5322    0.0000 C   0  0  0  0  0  0  0  0  0  0  0  0
    6.3506   -3.1189    0.0000 C   0  0  0  0  0  0  0  0  0  0  0  0
    5.6366   -3.5322    0.0000 C   0  0  0  0  0  0  0  0  0  0  0  0
    4.9226   -3.1189    0.0000 C   0  0  0  0  0  0  0  0  0  0  0  0
    4.2462   -3.5322    0.0000 C   0  0  0  0  0  0  0  0  0  0  0  0
    3.5322   -3.1189    0.0000 C   0  0  0  0  0  0  0  0  0  0  0  0
    2.8183   -3.5322    0.0000 C   0  0  0  0  0  0  0  0  0  0  0  0
    2.1419   -3.1189    0.0000 C   0  0  0  0  0  0  0  0  0  0  0  0
    1.4279   -3.5322    0.0000 C   0  0  0  0  0  0  0  0  0  0  0  0
    0.7140   -3.1189    0.0000 C   0  0  0  0  0  0  0  0  0  0  0  0
  1  6  1  0  0  0  0
  1 14  1  0  0  0  0
  2 28  1  0  0  0  0
  3  4  2  0  0  0  0
  3  7  1  0  0  0  0
  4  5  1  0  0  0  0
  4  6  1  0  0  0  0
  5  8  2  0  0  0  0
  5  9  1  0  0  0  0
  6 10  2  0  0  0  0
  7 11  2  0  0  0  0
  7 15  1  0  0  0  0
  8 11  1  0  0  0  0
  9 12  2  0  0  0  0
 10 12  1  0  0  0  0
 13 14  1  0  0  0  0
 13 16  1  0  0  0  0
 13 17  1  0  0  0  0
 15 18  1  0  0  0  0
 16 17  1  0  0  0  0
 18 19  1  0  0  0  0
 19 20  1  0  0  0  0
 20 21  1  0  0  0  0
 21 22  1  0  0  0  0
 22 23  1  0  0  0  0
 23 24  1  0  0  0  0
 24 25  1  0  0  0  0
 25 26  1  0  0  0  0
 26 27  1  0  0  0  0
 27 28  1  0  0  0  0
M  END
> <PUBCHEM_COMPOUND_ID_TYPE>
0

> <PUBCHEM_TOTAL_CHARGE>
0

> <PUBCHEM_SUBSTANCE_ID>
310929325

> <PUBCHEM_SUBSTANCE_VERSION>
1

> <PUBCHEM_EXT_DATASOURCE_NAME>
4488

> <PUBCHEM_EXT_DATASOURCE_REGID>
SCHEMBL16106491

> <PUBCHEM_SUBSTANCE_COMMENT>
InChI=1S/C25H37NO2/c27-19-10-8-6-4-2-1-3-5-7-9-13-23-18-17-22-12-11-14-24(25(22)26-23)28-20-21-15-16-21/h11-12,14,17-18,21,27H,1-10,13,15-16,19-20H2
InChIKey=CFRJBTGJWCIKCH-UHFFFAOYSA-N

> <PUBCHEM_SUBSTANCE_SYNONYM>
SCHEMBL16106491

> <PUBCHEM_XREF_EXT_ID>
SCHEMBL16106491

> <PUBCHEM_EXT_DATASOURCE_URL>
https://www.surechembl.org/

> <PUBCHEM_EXT_SUBSTANCE_URL>
https://www.surechembl.org/chemical/SCHEMBL16106491

> <PUBCHEM_CID_ASSOCIATIONS>
86300010  1

> <PUBCHEM_COORDINATE_TYPE>
1
3

$$$$
