310931686
  -OEChem-07211613022D

 30 33  0     0  0  0  0  0  0999 V2000
    2.8789   -2.1196    0.0000 O   0  0  0  0  0  0  0  0  0  0  0  0
    0.1265   -2.3727    0.0000 O   0  0  0  0  0  0  0  0  0  0  0  0
    7.3396   -2.2145    0.0000 O   0  0  0  0  0  0  0  0  0  0  0  0
    3.7647   -0.9807    0.0000 N   0  0  0  0  0  0  0  0  0  0  0  0
    3.6698   -0.1582    0.0000 N   0  0  0  0  0  0  0  0  0  0  0  0
    5.1883   -0.9807    0.0000 N   0  0  0  0  0  0  0  0  0  0  0  0
    0.0000   -0.9807    0.0000 N   0  0  0  0  0  0  0  0  0  0  0  0
    6.6436   -3.4484    0.0000 N   0  0  0  0  0  0  0  0  0  0  0  0
    8.7949   -4.6822    0.0000 N   0  0  0  0  0  0  0  0  0  0  0  0
    2.4676   -0.7276    0.0000 C   0  0  0  0  0  0  0  0  0  0  0  0
    3.0371   -1.3287    0.0000 C   0  0  0  0  0  0  0  0  0  0  0  0
    4.4924   -1.3920    0.0000 C   0  0  0  0  0  0  0  0  0  0  0  0
    1.6451   -0.7909    0.0000 C   0  0  0  0  0  0  0  0  0  0  0  0
    2.8789    0.0000    0.0000 C   0  0  0  0  0  0  0  0  0  0  0  0
    4.4924   -2.2145    0.0000 C   0  0  0  0  0  0  0  0  0  0  0  0
    5.9159   -2.2145    0.0000 C   0  0  0  0  0  0  0  0  0  0  0  0
    1.2971   -1.5818    0.0000 C   0  0  0  0  0  0  0  0  0  0  0  0
    1.1705   -0.1582    0.0000 C   0  0  0  0  0  0  0  0  0  0  0  0
    5.9159   -1.3920    0.0000 C   0  0  0  0  0  0  0  0  0  0  0  0
    5.1883   -2.6258    0.0000 C   0  0  0  0  0  0  0  0  0  0  0  0
    0.4745   -1.6451    0.0000 C   0  0  0  0  0  0  0  0  0  0  0  0
    6.6436   -2.6258    0.0000 C   0  0  0  0  0  0  0  0  0  0  0  0
    0.3164   -0.2214    0.0000 C   0  0  0  0  0  0  0  0  0  0  0  0
    7.3712   -3.8596    0.0000 C   0  0  0  0  0  0  0  0  0  0  0  0
    7.3712   -4.7138    0.0000 C   0  0  0  0  0  0  0  0  0  0  0  0
    8.0672   -3.4484    0.0000 C   0  0  0  0  0  0  0  0  0  0  0  0
    8.0672   -5.1251    0.0000 C   0  0  0  0  0  0  0  0  0  0  0  0
    8.7949   -3.8596    0.0000 C   0  0  0  0  0  0  0  0  0  0  0  0
    0.6011   -3.0687    0.0000 C   0  0  0  0  0  0  0  0  0  0  0  0
    9.4908   -5.0934    0.0000 C   0  0  0  0  0  0  0  0  0  0  0  0
  1 11  1  0  0  0  0
  2 21  1  0  0  0  0
  2 29  1  0  0  0  0
  3 22  2  0  0  0  0
  4  5  1  0  0  0  0
  4 11  1  0  0  0  0
  4 12  1  0  0  0  0
  5 14  2  0  0  0  0
  6 12  2  0  0  0  0
  6 19  1  0  0  0  0
  7 21  1  0  0  0  0
  7 23  2  0  0  0  0
  8 22  1  0  0  0  0
  8 24  1  0  0  0  0
  9 27  1  0  0  0  0
  9 28  1  0  0  0  0
  9 30  1  0  0  0  0
 10 11  2  0  0  0  0
 10 13  1  0  0  0  0
 10 14  1  0  0  0  0
 12 15  1  0  0  0  0
 13 17  1  0  0  0  0
 13 18  2  0  0  0  0
 15 20  2  0  0  0  0
 16 19  2  0  0  0  0
 16 20  1  0  0  0  0
 16 22  1  0  0  0  0
 17 21  2  0  0  0  0
 18 23  1  0  0  0  0
 24 25  1  0  0  0  0
 24 26  1  0  0  0  0
 25 27  1  0  0  0  0
 26 28  1  0  0  0  0
M  END
> <PUBCHEM_COMPOUND_ID_TYPE>
0

> <PUBCHEM_TOTAL_CHARGE>
0

> <PUBCHEM_SUBSTANCE_ID>
310931686

> <PUBCHEM_SUBSTANCE_VERSION>
1

> <PUBCHEM_EXT_DATASOURCE_NAME>
4488

> <PUBCHEM_EXT_DATASOURCE_REGID>
SCHEMBL16109013

> <PUBCHEM_SUBSTANCE_COMMENT>
InChI=1S/C21H24N6O3/c1-26-9-6-16(7-10-26)25-20(28)15-3-4-18(23-12-15)27-21(29)17(13-24-27)14-5-8-22-19(11-14)30-2/h3-5,8,11-13,16,29H,6-7,9-10H2,1-2H3,(H,25,28)
InChIKey=LHYVWTMOXCPFBL-UHFFFAOYSA-N

> <PUBCHEM_SUBSTANCE_SYNONYM>
SCHEMBL16109013

> <PUBCHEM_XREF_EXT_ID>
SCHEMBL16109013

> <PUBCHEM_EXT_DATASOURCE_URL>
https://www.surechembl.org/

> <PUBCHEM_EXT_SUBSTANCE_URL>
https://www.surechembl.org/chemical/SCHEMBL16109013

> <PUBCHEM_CID_ASSOCIATIONS>
117600390  1

> <PUBCHEM_COORDINATE_TYPE>
1
3

$$$$
