310945051
  -OEChem-07211613022D

 37 41  0     0  0  0  0  0  0999 V2000
    2.4469    2.4122    0.0000 Cl  0  0  0  0  0  0  0  0  0  0  0  0
   -4.0435   -1.4577    0.0000 S   0  0  0  0  0  0  0  0  0  0  0  0
    3.8700   -2.6378    0.0000 O   0  0  0  0  0  0  0  0  0  0  0  0
    4.5814   -1.3710    0.0000 O   0  0  0  0  0  0  0  0  0  0  0  0
   -1.0933    2.8114    0.0000 N   0  0  0  0  0  0  0  0  0  0  0  0
   -4.1823   -2.8114    0.0000 N   0  0  0  0  0  0  0  0  0  0  0  0
   -0.4165    0.7289    0.0000 C   0  0  0  0  0  0  0  0  0  0  0  0
   -0.4338   -0.1215    0.0000 C   0  0  0  0  0  0  0  0  0  0  0  0
    0.2951    1.1454    0.0000 C   0  0  0  0  0  0  0  0  0  0  0  0
   -1.1627    1.1454    0.0000 C   0  0  0  0  0  0  0  0  0  0  0  0
   -1.1280   -0.5380    0.0000 C   0  0  0  0  0  0  0  0  0  0  0  0
    0.2951   -0.5380    0.0000 C   0  0  0  0  0  0  0  0  0  0  0  0
    0.2951    1.9783    0.0000 C   0  0  0  0  0  0  0  0  0  0  0  0
    1.0413    0.7289    0.0000 C   0  0  0  0  0  0  0  0  0  0  0  0
   -1.9263    0.9371    0.0000 C   0  0  0  0  0  0  0  0  0  0  0  0
   -1.3536    1.9437    0.0000 C   0  0  0  0  0  0  0  0  0  0  0  0
   -1.8742   -0.1389    0.0000 C   0  0  0  0  0  0  0  0  0  0  0  0
   -1.1454   -1.3883    0.0000 C   0  0  0  0  0  0  0  0  0  0  0  0
    0.3124   -1.3883    0.0000 C   0  0  0  0  0  0  0  0  0  0  0  0
    0.9892   -0.1389    0.0000 C   0  0  0  0  0  0  0  0  0  0  0  0
   -2.5684   -1.3883    0.0000 C   0  0  0  0  0  0  0  0  0  0  0  0
    1.0065    2.3775    0.0000 C   0  0  0  0  0  0  0  0  0  0  0  0
   -2.1345    1.7354    0.0000 C   0  0  0  0  0  0  0  0  0  0  0  0
    1.7354    1.9783    0.0000 C   0  0  0  0  0  0  0  0  0  0  0  0
   -2.5510   -0.5553    0.0000 C   0  0  0  0  0  0  0  0  0  0  0  0
   -1.8569   -1.8048    0.0000 C   0  0  0  0  0  0  0  0  0  0  0  0
    1.7180    1.1454    0.0000 C   0  0  0  0  0  0  0  0  0  0  0  0
   -0.4165    2.4122    0.0000 C   0  0  0  0  0  0  0  0  0  0  0  0
   -3.2799   -1.8048    0.0000 C   0  0  0  0  0  0  0  0  0  0  0  0
    1.7180   -1.3883    0.0000 C   0  0  0  0  0  0  0  0  0  0  0  0
    1.0065   -1.8048    0.0000 C   0  0  0  0  0  0  0  0  0  0  0  0
    1.7180   -0.5553    0.0000 C   0  0  0  0  0  0  0  0  0  0  0  0
   -3.3841   -2.6552    0.0000 C   0  0  0  0  0  0  0  0  0  0  0  0
    2.4642   -1.8048    0.0000 C   0  0  0  0  0  0  0  0  0  0  0  0
   -4.5814   -2.1345    0.0000 C   0  0  0  0  0  0  0  0  0  0  0  0
    3.1584   -1.3883    0.0000 C   0  0  0  0  0  0  0  0  0  0  0  0
    3.8700   -1.7875    0.0000 C   0  0  0  0  0  0  0  0  0  0  0  0
  1 24  1  0  0  0  0
  2 29  1  0  0  0  0
  2 35  1  0  0  0  0
  3 37  2  0  0  0  0
  4 37  1  0  0  0  0
  5 28  3  0  0  0  0
  6 33  1  0  0  0  0
  6 35  2  0  0  0  0
  7  8  2  0  0  0  0
  7  9  1  0  0  0  0
  7 10  1  0  0  0  0
  8 11  1  0  0  0  0
  8 12  1  0  0  0  0
  9 13  1  0  0  0  0
  9 14  2  0  0  0  0
 10 15  1  0  0  0  0
 10 16  1  0  0  0  0
 11 17  2  0  0  0  0
 11 18  1  0  0  0  0
 12 19  2  0  0  0  0
 12 20  1  0  0  0  0
 13 22  2  0  0  0  0
 13 28  1  0  0  0  0
 14 27  1  0  0  0  0
 15 23  1  0  0  0  0
 16 23  1  0  0  0  0
 17 25  1  0  0  0  0
 18 26  2  0  0  0  0
 19 31  1  0  0  0  0
 20 32  2  0  0  0  0
 21 25  2  0  0  0  0
 21 26  1  0  0  0  0
 21 29  1  0  0  0  0
 22 24  1  0  0  0  0
 24 27  2  0  0  0  0
 29 33  2  0  0  0  0
 30 31  2  0  0  0  0
 30 32  1  0  0  0  0
 30 34  1  0  0  0  0
 34 36  2  0  0  0  0
 36 37  1  0  0  0  0
M  END
> <PUBCHEM_COMPOUND_ID_TYPE>
0

> <PUBCHEM_TOTAL_CHARGE>
0

> <PUBCHEM_SUBSTANCE_ID>
310945051

> <PUBCHEM_SUBSTANCE_VERSION>
1

> <PUBCHEM_EXT_DATASOURCE_NAME>
4488

> <PUBCHEM_EXT_DATASOURCE_REGID>
SCHEMBL16123139

> <PUBCHEM_SUBSTANCE_COMMENT>
InChI=1S/C31H23ClN2O2S/c32-26-13-14-27(25(16-26)17-33)31(22-2-1-3-22)30(23-7-4-20(5-8-23)6-15-29(35)36)24-11-9-21(10-12-24)28-18-34-19-37-28/h4-16,18-19,22H,1-3H2,(H,35,36)/b15-6+,31-30+
InChIKey=SVWUPELLJQEFQH-PEACJXIOSA-N

> <PUBCHEM_SUBSTANCE_SYNONYM>
SCHEMBL16123139

> <PUBCHEM_XREF_EXT_ID>
SCHEMBL16123139

> <PUBCHEM_EXT_DATASOURCE_URL>
https://www.surechembl.org/

> <PUBCHEM_EXT_SUBSTANCE_URL>
https://www.surechembl.org/chemical/SCHEMBL16123139

> <PUBCHEM_CID_ASSOCIATIONS>
117611174  1

> <PUBCHEM_COORDINATE_TYPE>
1
3

$$$$
