310929402
  -OEChem-07211613022D

 21 22  0     1  0  0  0  0  0999 V2000
    0.0636   -6.3533    0.0000 Cl  0  0  0  0  0  0  0  0  0  0  0  0
    1.6836   -3.4943    0.0000 F   0  0  0  0  0  0  0  0  0  0  0  0
    3.7167    0.0000    0.0000 O   0  0  0  0  0  0  0  0  0  0  0  0
    4.9238   -0.6989    0.0000 O   0  0  0  0  0  0  0  0  0  0  0  0
    0.0318   -3.5261    0.0000 N   0  0  0  0  0  0  0  0  0  0  0  0
    0.0636   -4.9238    0.0000 N   0  0  0  0  0  0  0  0  0  0  0  0
    1.3024   -5.6227    0.0000 N   0  0  0  0  0  0  0  0  0  0  0  0
    2.4778   -2.1283    0.0000 N   0  0  0  0  0  0  0  0  0  0  0  0
    3.7167   -1.4295    0.0000 N   0  0  0  0  0  0  0  0  0  0  0  0
    0.4447   -4.2250    0.0000 C   0  0  0  0  0  0  0  0  0  0  0  0
    1.3024   -4.1932    0.0000 C   0  0  0  0  0  0  0  0  0  0  0  0
    0.4447   -2.8273    0.0000 C   0  0  3  0  0  0  0  0  0  0  0  0
    0.4447   -5.6544    0.0000 C   0  0  0  0  0  0  0  0  0  0  0  0
    1.6836   -4.9238    0.0000 C   0  0  0  0  0  0  0  0  0  0  0  0
    1.2389   -2.8273    0.0000 C   0  0  0  0  0  0  0  0  0  0  0  0
    1.6836   -2.1283    0.0000 C   0  0  3  0  0  0  0  0  0  0  0  0
    0.0000   -2.1283    0.0000 C   0  0  0  0  0  0  0  0  0  0  0  0
    1.2389   -1.4295    0.0000 C   0  0  0  0  0  0  0  0  0  0  0  0
    0.4447   -1.4295    0.0000 C   0  0  0  0  0  0  0  0  0  0  0  0
    2.8908   -1.4295    0.0000 C   0  0  0  0  0  0  0  0  0  0  0  0
    4.1297   -0.6989    0.0000 C   0  0  0  0  0  0  0  0  0  0  0  0
  1 13  1  0  0  0  0
  2 11  1  0  0  0  0
  3 21  2  0  0  0  0
  4 21  1  0  0  0  0
  5 10  1  0  0  0  0
 12  5  1  1  0  0  0
  6 10  2  0  0  0  0
  6 13  1  0  0  0  0
  7 13  2  0  0  0  0
  7 14  1  0  0  0  0
 16  8  1  1  0  0  0
  8 20  1  0  0  0  0
  9 20  2  0  0  0  0
  9 21  1  0  0  0  0
 10 11  1  0  0  0  0
 11 14  2  0  0  0  0
 12 15  1  0  0  0  0
 12 17  1  0  0  0  0
 15 16  1  0  0  0  0
 16 18  1  0  0  0  0
 17 19  1  0  0  0  0
 18 19  1  0  0  0  0
M  END
> <PUBCHEM_COMPOUND_ID_TYPE>
0

> <PUBCHEM_TOTAL_CHARGE>
0

> <PUBCHEM_SUBSTANCE_ID>
310929402

> <PUBCHEM_SUBSTANCE_VERSION>
1

> <PUBCHEM_EXT_DATASOURCE_NAME>
4488

> <PUBCHEM_EXT_DATASOURCE_REGID>
SCHEMBL16106575

> <PUBCHEM_SUBSTANCE_COMMENT>
InChI=1S/C12H15ClFN5O2/c13-11-15-5-9(14)10(19-11)18-8-3-1-2-7(4-8)16-6-17-12(20)21/h5-8H,1-4H2,(H,16,17)(H,20,21)(H,15,18,19)/t7-,8+/m1/s1
InChIKey=VXRUJFIXAZLOGC-SFYZADRCSA-N

> <PUBCHEM_SUBSTANCE_SYNONYM>
SCHEMBL16106575

> <PUBCHEM_XREF_EXT_ID>
SCHEMBL16106575

> <PUBCHEM_EXT_DATASOURCE_URL>
https://www.surechembl.org/

> <PUBCHEM_EXT_SUBSTANCE_URL>
https://www.surechembl.org/chemical/SCHEMBL16106575

> <PUBCHEM_CID_ASSOCIATIONS>
117598765  1

> <PUBCHEM_COORDINATE_TYPE>
1
3

> <PUBCHEM_BONDANNOTATIONS>
12  5  5
16  8  5

$$$$
