310944531
  -OEChem-07211613022D

 31 35  0     0  0  0  0  0  0999 V2000
    0.0189    3.2429    0.0000 F   0  0  0  0  0  0  0  0  0  0  0  0
    1.1419   -2.5489    0.0000 O   0  0  0  0  0  0  0  0  0  0  0  0
   -0.0568   -0.0631    0.0000 N   0  0  0  0  0  0  0  0  0  0  0  0
    2.1766    2.7129    0.0000 N   0  0  0  0  0  0  0  0  0  0  0  0
   -2.1135    2.8265    0.0000 N   0  0  0  0  0  0  0  0  0  0  0  0
    0.6624   -1.3123    0.0000 C   0  0  0  0  0  0  0  0  0  0  0  0
    0.6624   -0.4669    0.0000 C   0  0  0  0  0  0  0  0  0  0  0  0
    0.0189   -1.8422    0.0000 C   0  0  0  0  0  0  0  0  0  0  0  0
    1.3312   -1.7160    0.0000 C   0  0  0  0  0  0  0  0  0  0  0  0
    0.3470   -2.5993    0.0000 C   0  0  0  0  0  0  0  0  0  0  0  0
   -0.0442    0.7949    0.0000 C   0  0  0  0  0  0  0  0  0  0  0  0
   -0.7760   -0.4290    0.0000 C   0  0  0  0  0  0  0  0  0  0  0  0
    1.3691   -0.0884    0.0000 C   0  0  0  0  0  0  0  0  0  0  0  0
    2.0883   -1.3249    0.0000 C   0  0  0  0  0  0  0  0  0  0  0  0
   -0.8012   -1.7539    0.0000 C   0  0  0  0  0  0  0  0  0  0  0  0
    0.7003    1.1861    0.0000 C   0  0  0  0  0  0  0  0  0  0  0  0
   -0.7003    1.2114    0.0000 C   0  0  0  0  0  0  0  0  0  0  0  0
    2.0883   -0.5174    0.0000 C   0  0  0  0  0  0  0  0  0  0  0  0
    0.7003    2.0189    0.0000 C   0  0  0  0  0  0  0  0  0  0  0  0
   -0.7003    2.0441    0.0000 C   0  0  0  0  0  0  0  0  0  0  0  0
   -0.1703   -3.2429    0.0000 C   0  0  0  0  0  0  0  0  0  0  0  0
    0.0316    2.4353    0.0000 C   0  0  0  0  0  0  0  0  0  0  0  0
   -1.4826    0.0000    0.0000 C   0  0  0  0  0  0  0  0  0  0  0  0
   -0.7887   -1.2618    0.0000 C   0  0  0  0  0  0  0  0  0  0  0  0
   -1.2807   -2.3848    0.0000 C   0  0  0  0  0  0  0  0  0  0  0  0
   -0.9653   -3.1419    0.0000 C   0  0  0  0  0  0  0  0  0  0  0  0
    1.4448    2.3848    0.0000 C   0  0  0  0  0  0  0  0  0  0  0  0
   -1.4195    2.4479    0.0000 C   0  0  0  0  0  0  0  0  0  0  0  0
   -2.1766   -0.3911    0.0000 C   0  0  0  0  0  0  0  0  0  0  0  0
   -1.4952   -1.6404    0.0000 C   0  0  0  0  0  0  0  0  0  0  0  0
   -2.1766   -1.2240    0.0000 C   0  0  0  0  0  0  0  0  0  0  0  0
  1 22  1  0  0  0  0
  2  9  1  0  0  0  0
  2 10  1  0  0  0  0
  3  7  1  0  0  0  0
  3 11  1  0  0  0  0
  3 12  1  0  0  0  0
  4 27  3  0  0  0  0
  5 28  3  0  0  0  0
  6  7  2  0  0  0  0
  6  8  1  0  0  0  0
  6  9  1  0  0  0  0
  7 13  1  0  0  0  0
  8 10  2  0  0  0  0
  8 15  1  0  0  0  0
  9 14  2  0  0  0  0
 10 21  1  0  0  0  0
 11 16  2  0  0  0  0
 11 17  1  0  0  0  0
 12 23  2  0  0  0  0
 12 24  1  0  0  0  0
 13 18  2  0  0  0  0
 14 18  1  0  0  0  0
 15 25  2  0  0  0  0
 16 19  1  0  0  0  0
 17 20  2  0  0  0  0
 19 22  2  0  0  0  0
 19 27  1  0  0  0  0
 20 22  1  0  0  0  0
 20 28  1  0  0  0  0
 21 26  2  0  0  0  0
 23 29  1  0  0  0  0
 24 30  2  0  0  0  0
 25 26  1  0  0  0  0
 29 31  2  0  0  0  0
 30 31  1  0  0  0  0
M  END
> <PUBCHEM_COMPOUND_ID_TYPE>
0

> <PUBCHEM_TOTAL_CHARGE>
0

> <PUBCHEM_SUBSTANCE_ID>
310944531

> <PUBCHEM_SUBSTANCE_VERSION>
1

> <PUBCHEM_EXT_DATASOURCE_NAME>
4488

> <PUBCHEM_EXT_DATASOURCE_REGID>
SCHEMBL16122607

> <PUBCHEM_SUBSTANCE_COMMENT>
InChI=1S/C26H14FN3O/c27-26-17(15-28)13-20(14-18(26)16-29)30(19-7-2-1-3-8-19)22-10-6-12-24-25(22)21-9-4-5-11-23(21)31-24/h1-14H
InChIKey=RBQKPKREPHSJCU-UHFFFAOYSA-N

> <PUBCHEM_SUBSTANCE_SYNONYM>
SCHEMBL16122607

> <PUBCHEM_XREF_EXT_ID>
SCHEMBL16122607

> <PUBCHEM_EXT_DATASOURCE_URL>
https://www.surechembl.org/

> <PUBCHEM_EXT_SUBSTANCE_URL>
https://www.surechembl.org/chemical/SCHEMBL16122607

> <PUBCHEM_CID_ASSOCIATIONS>
117610766  1

> <PUBCHEM_COORDINATE_TYPE>
1
3

$$$$
