310937034
  -OEChem-07211613022D

 27 30  0     0  0  0  0  0  0999 V2000
    1.4289   10.2340    0.0000 O   0  0  0  0  0  0  0  0  0  0  0  0
    2.4454    6.4895    0.0000 O   0  0  0  0  0  0  0  0  0  0  0  0
    6.0177    7.7270    0.0000 O   0  0  0  0  0  0  0  0  0  0  0  0
    0.3490    9.4494    0.0000 N   0  0  0  0  0  0  0  0  0  0  0  0
    0.3020    7.7270    0.0000 N   0  0  0  0  0  0  0  0  0  0  0  0
    1.6839    9.4494    0.0000 N   0  0  0  0  0  0  0  0  0  0  0  0
    4.5888    6.9020    0.0000 N   0  0  0  0  0  0  0  0  0  0  0  0
    1.0164    6.4895    0.0000 C   0  0  0  0  0  0  0  0  0  0  0  0
    1.0164    8.1395    0.0000 C   0  0  0  0  0  0  0  0  0  0  0  0
    1.0164    8.9645    0.0000 C   0  0  0  0  0  0  0  0  0  0  0  0
    1.7309    6.9020    0.0000 C   0  0  0  0  0  0  0  0  0  0  0  0
    1.0164    5.6645    0.0000 C   0  0  0  0  0  0  0  0  0  0  0  0
    0.6039   10.2340    0.0000 C   0  0  0  0  0  0  0  0  0  0  0  0
    1.7309    7.7270    0.0000 C   0  0  0  0  0  0  0  0  0  0  0  0
    0.1190   10.9015    0.0000 C   0  0  0  0  0  0  0  0  0  0  0  0
    0.3020    6.9020    0.0000 C   0  0  0  0  0  0  0  0  0  0  0  0
    1.4289    4.9500    0.0000 C   0  0  0  0  0  0  0  0  0  0  0  0
    0.6039    4.9500    0.0000 C   0  0  0  0  0  0  0  0  0  0  0  0
   -0.3659   11.5689    0.0000 C   0  0  0  0  0  0  0  0  0  0  0  0
   -0.5484   10.4165    0.0000 C   0  0  0  0  0  0  0  0  0  0  0  0
    0.7865   11.3864    0.0000 C   0  0  0  0  0  0  0  0  0  0  0  0
    3.1599    6.9020    0.0000 C   0  0  0  0  0  0  0  0  0  0  0  0
    3.8743    6.4895    0.0000 C   0  0  0  0  0  0  0  0  0  0  0  0
    5.3033    6.4895    0.0000 C   0  0  0  0  0  0  0  0  0  0  0  0
    4.5888    7.7270    0.0000 C   0  0  0  0  0  0  0  0  0  0  0  0
    6.0177    6.9020    0.0000 C   0  0  0  0  0  0  0  0  0  0  0  0
    5.3033    8.1395    0.0000 C   0  0  0  0  0  0  0  0  0  0  0  0
  1  6  1  0  0  0  0
  1 13  1  0  0  0  0
  2 11  1  0  0  0  0
  2 22  1  0  0  0  0
  3 26  1  0  0  0  0
  3 27  1  0  0  0  0
  4 10  1  0  0  0  0
  4 13  2  0  0  0  0
  5  9  2  0  0  0  0
  5 16  1  0  0  0  0
  6 10  2  0  0  0  0
  7 23  1  0  0  0  0
  7 24  1  0  0  0  0
  7 25  1  0  0  0  0
  8 11  1  0  0  0  0
  8 12  1  0  0  0  0
  8 16  2  0  0  0  0
  9 10  1  0  0  0  0
  9 14  1  0  0  0  0
 11 14  2  0  0  0  0
 12 17  1  0  0  0  0
 12 18  1  0  0  0  0
 13 15  1  0  0  0  0
 15 19  1  0  0  0  0
 15 20  1  0  0  0  0
 15 21  1  0  0  0  0
 17 18  1  0  0  0  0
 22 23  1  0  0  0  0
 24 26  1  0  0  0  0
 25 27  1  0  0  0  0
M  END
> <PUBCHEM_COMPOUND_ID_TYPE>
0

> <PUBCHEM_TOTAL_CHARGE>
0

> <PUBCHEM_SUBSTANCE_ID>
310937034

> <PUBCHEM_SUBSTANCE_VERSION>
1

> <PUBCHEM_EXT_DATASOURCE_NAME>
4488

> <PUBCHEM_EXT_DATASOURCE_REGID>
SCHEMBL16114744

> <PUBCHEM_SUBSTANCE_COMMENT>
InChI=1S/C20H28N4O3/c1-20(2,3)19-22-18(23-27-19)16-12-17(15(13-21-16)14-4-5-14)26-11-8-24-6-9-25-10-7-24/h12-14H,4-11H2,1-3H3
InChIKey=NFJZDGARXUMYRP-UHFFFAOYSA-N

> <PUBCHEM_SUBSTANCE_SYNONYM>
SCHEMBL16114744

> <PUBCHEM_XREF_EXT_ID>
SCHEMBL16114744

> <PUBCHEM_EXT_DATASOURCE_URL>
https://www.surechembl.org/

> <PUBCHEM_EXT_SUBSTANCE_URL>
https://www.surechembl.org/chemical/SCHEMBL16114744

> <PUBCHEM_CID_ASSOCIATIONS>
117604884  1

> <PUBCHEM_COORDINATE_TYPE>
1
3

$$$$
