310949187
  -OEChem-07211613022D

 24 26  0     0  0  0  0  0  0999 V2000
    1.4093    2.5585    0.0000 O   0  0  0  0  0  0  0  0  0  0  0  0
    2.2983   -0.0650    0.0000 O   0  0  0  0  0  0  0  0  0  0  0  0
    2.2333    2.3851    0.0000 N   0  0  0  0  0  0  0  0  0  0  0  0
   -2.3200   -1.3009    0.0000 N   0  0  0  0  0  0  0  0  0  0  0  0
   -3.0138   -0.0650    0.0000 N   0  0  0  0  0  0  0  0  0  0  0  0
   -0.8022   -1.1708    0.0000 N   0  0  0  0  0  0  0  0  0  0  0  0
   -0.3035   -0.4770    0.0000 N   0  0  0  0  0  0  0  0  0  0  0  0
   -2.2983    1.1491    0.0000 N   0  0  0  0  0  0  0  0  0  0  0  0
   -1.5827   -0.0434    0.0000 C   0  0  0  0  0  0  0  0  0  0  0  0
   -0.8022    0.1951    0.0000 C   0  0  0  0  0  0  0  0  0  0  0  0
   -0.0650    0.9323    0.0000 C   0  0  0  0  0  0  0  0  0  0  0  0
    0.9974    1.8646    0.0000 C   0  0  0  0  0  0  0  0  0  0  0  0
    1.5394    1.2792    0.0000 C   0  0  0  0  0  0  0  0  0  0  0  0
   -1.6261   -0.8673    0.0000 C   0  0  0  0  0  0  0  0  0  0  0  0
    0.2168    1.6912    0.0000 C   0  0  0  0  0  0  0  0  0  0  0  0
   -2.3200    0.3469    0.0000 C   0  0  0  0  0  0  0  0  0  0  0  0
    0.4986    0.3252    0.0000 C   0  0  0  0  0  0  0  0  0  0  0  0
    1.2792    0.4770    0.0000 C   0  0  0  0  0  0  0  0  0  0  0  0
    2.2766    1.5827    0.0000 C   0  0  0  0  0  0  0  0  0  0  0  0
   -3.0355   -0.8673    0.0000 C   0  0  0  0  0  0  0  0  0  0  0  0
    3.0355    0.3685    0.0000 C   0  0  0  0  0  0  0  0  0  0  0  0
   -0.5637   -1.9080    0.0000 C   0  0  0  0  0  0  0  0  0  0  0  0
   -1.0841   -2.5585    0.0000 C   0  0  0  0  0  0  0  0  0  0  0  0
    0.2602   -2.0814    0.0000 C   0  0  0  0  0  0  0  0  0  0  0  0
  1  3  1  0  0  0  0
  1 12  1  0  0  0  0
  2 21  2  0  0  0  0
  3 19  1  0  0  0  0
  3 21  1  0  0  0  0
  4 14  2  0  0  0  0
  4 20  1  0  0  0  0
  5 16  1  0  0  0  0
  5 20  2  0  0  0  0
  6 14  1  0  0  0  0
  6 22  1  0  0  0  0
  7 10  2  3  0  0  0
  8 16  1  0  0  0  0
  9 10  1  0  0  0  0
  9 14  1  0  0  0  0
  9 16  2  0  0  0  0
 10 11  1  0  0  0  0
 11 15  2  0  0  0  0
 11 17  1  0  0  0  0
 12 13  2  0  0  0  0
 12 15  1  0  0  0  0
 13 18  1  0  0  0  0
 13 19  1  0  0  0  0
 17 18  2  0  0  0  0
 22 23  1  0  0  0  0
 22 24  1  0  0  0  0
M  END
> <PUBCHEM_COMPOUND_ID_TYPE>
0

> <PUBCHEM_TOTAL_CHARGE>
0

> <PUBCHEM_SUBSTANCE_ID>
310949187

> <PUBCHEM_SUBSTANCE_VERSION>
1

> <PUBCHEM_EXT_DATASOURCE_NAME>
4488

> <PUBCHEM_EXT_DATASOURCE_REGID>
SCHEMBL16127377

> <PUBCHEM_SUBSTANCE_COMMENT>
InChI=1S/C16H18N6O2/c1-9(2)21-16-13(15(18)19-7-20-16)14(17)10-3-4-11-6-22(8-23)24-12(11)5-10/h3-5,7-9,17H,6H2,1-2H3,(H3,18,19,20,21)
InChIKey=GLSZXKQEPNJELV-UHFFFAOYSA-N

> <PUBCHEM_SUBSTANCE_SYNONYM>
SCHEMBL16127377

> <PUBCHEM_XREF_EXT_ID>
SCHEMBL16127377

> <PUBCHEM_EXT_DATASOURCE_URL>
https://www.surechembl.org/

> <PUBCHEM_EXT_SUBSTANCE_URL>
https://www.surechembl.org/chemical/SCHEMBL16127377

> <PUBCHEM_CID_ASSOCIATIONS>
117614677  1

> <PUBCHEM_COORDINATE_TYPE>
1
3

> <PUBCHEM_BONDANNOTATIONS>
3  21  3

$$$$
