310940092
  -OEChem-07211613022D

 21 23  0     0  0  0  0  0  0999 V2000
    1.7237    1.4880    0.0000 Cl  0  0  0  0  0  0  0  0  0  0  0  0
   -2.8434   -2.3130    0.0000 O   0  0  0  0  0  0  0  0  0  0  0  0
    2.4308    0.2357    0.0000 O   0  0  0  0  0  0  0  0  0  0  0  0
    1.7237   -1.0018    0.0000 O   0  0  0  0  0  0  0  0  0  0  0  0
    0.2946   -0.1768    0.0000 N   0  0  0  0  0  0  0  0  0  0  0  0
   -2.0184   -2.2246    0.0000 N   0  0  0  0  0  0  0  0  0  0  0  0
   -3.1675   -1.5469    0.0000 N   0  0  0  0  0  0  0  0  0  0  0  0
    0.2946    2.3130    0.0000 N   0  0  0  0  0  0  0  0  0  0  0  0
   -0.4273    0.2505    0.0000 C   0  0  0  0  0  0  0  0  0  0  0  0
   -1.1344   -0.1621    0.0000 C   0  0  0  0  0  0  0  0  0  0  0  0
    1.0018    0.2505    0.0000 C   0  0  0  0  0  0  0  0  0  0  0  0
    1.0165    1.0755    0.0000 C   0  0  0  0  0  0  0  0  0  0  0  0
   -1.8563   -1.3996    0.0000 C   0  0  0  0  0  0  0  0  0  0  0  0
    0.2799    1.4880    0.0000 C   0  0  0  0  0  0  0  0  0  0  0  0
   -2.5635   -1.0018    0.0000 C   0  0  0  0  0  0  0  0  0  0  0  0
   -0.4125    1.0755    0.0000 C   0  0  0  0  0  0  0  0  0  0  0  0
   -1.1344   -0.9871    0.0000 C   0  0  0  0  0  0  0  0  0  0  0  0
   -1.8563    0.2357    0.0000 C   0  0  0  0  0  0  0  0  0  0  0  0
    1.7090   -0.1474    0.0000 C   0  0  0  0  0  0  0  0  0  0  0  0
   -2.5488   -0.1621    0.0000 C   0  0  0  0  0  0  0  0  0  0  0  0
    3.1675   -0.1915    0.0000 C   0  0  0  0  0  0  0  0  0  0  0  0
  1 12  1  0  0  0  0
  2  6  1  0  0  0  0
  2  7  1  0  0  0  0
  3 19  1  0  0  0  0
  3 21  1  0  0  0  0
  4 19  2  0  0  0  0
  5  9  1  0  0  0  0
  5 11  2  0  0  0  0
  6 13  2  0  0  0  0
  7 15  2  0  0  0  0
  8 14  1  0  0  0  0
  9 10  1  0  0  0  0
  9 16  2  0  0  0  0
 10 17  2  0  0  0  0
 10 18  1  0  0  0  0
 11 12  1  0  0  0  0
 11 19  1  0  0  0  0
 12 14  2  0  0  0  0
 13 15  1  0  0  0  0
 13 17  1  0  0  0  0
 14 16  1  0  0  0  0
 15 20  1  0  0  0  0
 18 20  2  0  0  0  0
M  END
> <PUBCHEM_COMPOUND_ID_TYPE>
0

> <PUBCHEM_TOTAL_CHARGE>
0

> <PUBCHEM_SUBSTANCE_ID>
310940092

> <PUBCHEM_SUBSTANCE_VERSION>
1

> <PUBCHEM_EXT_DATASOURCE_NAME>
4488

> <PUBCHEM_EXT_DATASOURCE_REGID>
SCHEMBL16118023

> <PUBCHEM_SUBSTANCE_COMMENT>
InChI=1S/C13H9ClN4O3/c1-20-13(19)12-11(14)7(15)5-9(16-12)6-2-3-8-10(4-6)18-21-17-8/h2-5H,1H3,(H2,15,16)
InChIKey=NSDUPDWFFDPQLT-UHFFFAOYSA-N

> <PUBCHEM_SUBSTANCE_SYNONYM>
SCHEMBL16118023

> <PUBCHEM_XREF_EXT_ID>
SCHEMBL16118023

> <PUBCHEM_EXT_DATASOURCE_URL>
https://www.surechembl.org/

> <PUBCHEM_EXT_SUBSTANCE_URL>
https://www.surechembl.org/chemical/SCHEMBL16118023

> <PUBCHEM_CID_ASSOCIATIONS>
117607228  1

> <PUBCHEM_COORDINATE_TYPE>
1
3

$$$$
