310943842
  -OEChem-07211613022D

 34 39  0     1  0  0  0  0  0999 V2000
    2.5685    1.3227    0.0000 O   0  0  0  0  0  0  0  0  0  0  0  0
    5.4224    0.6311    0.0000 O   0  0  0  0  0  0  0  0  0  0  0  0
    5.4333    2.1129    0.0000 O   0  0  0  0  0  0  0  0  0  0  0  0
   -0.6476   -0.9494    0.0000 O   0  0  0  0  0  0  0  0  0  0  0  0
    3.3698    0.0933    0.0000 N   0  0  0  0  0  0  0  0  0  0  0  0
    0.4390    0.2799    0.0000 N   0  0  0  0  0  0  0  0  0  0  0  0
   -4.1051    0.4995    0.0000 N   0  0  0  0  0  0  0  0  0  0  0  0
   -1.9648    0.7848    0.0000 N   0  0  0  0  0  0  0  0  0  0  0  0
   -4.4455    1.2568    0.0000 N   0  0  0  0  0  0  0  0  0  0  0  0
   -5.2687    1.1690    0.0000 N   0  0  0  0  0  0  0  0  0  0  0  0
   -5.4333    0.3568    0.0000 N   0  0  0  0  0  0  0  0  0  0  0  0
    2.0526   -0.0384    0.0000 C   0  0  0  0  0  0  0  0  0  0  0  0
    3.1942   -0.7080    0.0000 C   0  0  3  0  0  0  0  0  0  0  0  0
    2.6563    0.4884    0.0000 C   0  0  0  0  0  0  0  0  0  0  0  0
    2.3819   -0.7958    0.0000 C   0  0  0  0  0  0  0  0  0  0  0  0
    3.7649   -1.3336    0.0000 C   0  0  0  0  0  0  0  0  0  0  0  0
    4.1051    0.4445    0.0000 C   0  0  0  0  0  0  0  0  0  0  0  0
    1.5148   -0.6640    0.0000 C   0  0  0  0  0  0  0  0  0  0  0  0
    1.8001    0.7299    0.0000 C   0  0  0  0  0  0  0  0  0  0  0  0
    3.9406   -2.1129    0.0000 C   0  0  0  0  0  0  0  0  0  0  0  0
    4.5223   -1.5751    0.0000 C   0  0  0  0  0  0  0  0  0  0  0  0
    0.7025   -0.4884    0.0000 C   0  0  0  0  0  0  0  0  0  0  0  0
    0.9879    0.9055    0.0000 C   0  0  0  0  0  0  0  0  0  0  0  0
    4.2589    1.2568    0.0000 C   0  0  0  0  0  0  0  0  0  0  0  0
    4.8516    0.0603    0.0000 C   0  0  0  0  0  0  0  0  0  0  0  0
    5.0491    1.3556    0.0000 C   0  0  0  0  0  0  0  0  0  0  0  0
   -0.3622    0.4555    0.0000 C   0  0  0  0  0  0  0  0  0  0  0  0
   -0.9001   -0.1592    0.0000 C   0  0  3  0  0  0  0  0  0  0  0  0
   -1.7123    0.0274    0.0000 C   0  0  0  0  0  0  0  0  0  0  0  0
   -3.3149    0.3348    0.0000 C   0  0  0  0  0  0  0  0  0  0  0  0
   -2.2392   -0.6092    0.0000 C   0  0  0  0  0  0  0  0  0  0  0  0
   -2.7660    0.9605    0.0000 C   0  0  0  0  0  0  0  0  0  0  0  0
   -3.0514   -0.4336    0.0000 C   0  0  0  0  0  0  0  0  0  0  0  0
   -4.7089   -0.0494    0.0000 C   0  0  0  0  0  0  0  0  0  0  0  0
  1 14  2  0  0  0  0
  2 25  1  0  0  0  0
  2 26  1  0  0  0  0
  3 26  2  0  0  0  0
 28  4  1  6  0  0  0
  5 13  1  0  0  0  0
  5 14  1  0  0  0  0
  5 17  1  0  0  0  0
  6 22  1  0  0  0  0
  6 23  1  0  0  0  0
  6 27  1  0  0  0  0
  7  9  1  0  0  0  0
  7 30  1  0  0  0  0
  7 34  1  0  0  0  0
  8 29  2  0  0  0  0
  8 32  1  0  0  0  0
  9 10  2  0  0  0  0
 10 11  1  0  0  0  0
 11 34  2  0  0  0  0
 12 14  1  0  0  0  0
 12 15  1  0  0  0  0
 12 18  1  0  0  0  0
 12 19  1  0  0  0  0
 13 15  1  0  0  0  0
 13 16  1  0  0  0  0
 16 20  1  0  0  0  0
 16 21  1  0  0  0  0
 17 24  2  0  0  0  0
 17 25  1  0  0  0  0
 18 22  1  0  0  0  0
 19 23  1  0  0  0  0
 20 21  1  0  0  0  0
 24 26  1  0  0  0  0
 27 28  1  0  0  0  0
 28 29  1  0  0  0  0
 29 31  1  0  0  0  0
 30 32  2  0  0  0  0
 30 33  1  0  0  0  0
 31 33  2  0  0  0  0
M  END
> <PUBCHEM_COMPOUND_ID_TYPE>
0

> <PUBCHEM_TOTAL_CHARGE>
0

> <PUBCHEM_SUBSTANCE_ID>
310943842

> <PUBCHEM_SUBSTANCE_VERSION>
1

> <PUBCHEM_EXT_DATASOURCE_NAME>
4488

> <PUBCHEM_EXT_DATASOURCE_REGID>
SCHEMBL16121913

> <PUBCHEM_SUBSTANCE_COMMENT>
InChI=1S/C23H27N7O4/c31-20(18-4-3-16(11-24-18)29-14-25-26-27-29)12-28-7-5-23(6-8-28)10-19(15-1-2-15)30(22(23)33)17-9-21(32)34-13-17/h3-4,9,11,14-15,19-20,31H,1-2,5-8,10,12-13H2/t19?,20-/m0/s1
InChIKey=NZOJWNPSOYMHMW-ANYOKISRSA-N

> <PUBCHEM_SUBSTANCE_SYNONYM>
SCHEMBL16121913

> <PUBCHEM_XREF_EXT_ID>
SCHEMBL16121913

> <PUBCHEM_EXT_DATASOURCE_URL>
https://www.surechembl.org/

> <PUBCHEM_EXT_SUBSTANCE_URL>
https://www.surechembl.org/chemical/SCHEMBL16121913

> <PUBCHEM_CID_ASSOCIATIONS>
117610180  1

> <PUBCHEM_COORDINATE_TYPE>
1
3

> <PUBCHEM_BONDANNOTATIONS>
28  4  6

$$$$
