310933510
  -OEChem-07211613022D

 24 27  0     0  0  0  0  0  0999 V2000
    4.2271   -2.8693    0.0000 O   0  0  0  0  0  0  0  0  0  0  0  0
    2.2801   -5.1237    0.0000 O   0  0  0  0  0  0  0  0  0  0  0  0
    0.4099   -0.3843    0.0000 O   0  0  0  0  0  0  0  0  0  0  0  0
    5.5337   -2.2032    0.0000 O   0  0  0  0  0  0  0  0  0  0  0  0
    4.2271   -1.5628    0.0000 N   0  0  0  0  0  0  0  0  0  0  0  0
    3.0999   -5.1237    0.0000 N   0  0  0  0  0  0  0  0  0  0  0  0
    0.0000   -1.1016    0.0000 N   0  0  0  0  0  0  0  0  0  0  0  0
    2.7156   -3.0230    0.0000 C   0  0  0  0  0  0  0  0  0  0  0  0
    3.4329   -2.6387    0.0000 C   0  0  0  0  0  0  0  0  0  0  0  0
    3.4329   -1.7934    0.0000 C   0  0  0  0  0  0  0  0  0  0  0  0
    2.6900   -3.8428    0.0000 C   0  0  0  0  0  0  0  0  0  0  0  0
    2.0239   -1.7934    0.0000 C   0  0  0  0  0  0  0  0  0  0  0  0
    2.0239   -2.6387    0.0000 C   0  0  0  0  0  0  0  0  0  0  0  0
    1.3065   -1.3834    0.0000 C   0  0  0  0  0  0  0  0  0  0  0  0
    2.7156   -1.3834    0.0000 C   0  0  0  0  0  0  0  0  0  0  0  0
    2.0239   -4.3296    0.0000 C   0  0  0  0  0  0  0  0  0  0  0  0
    3.3561   -4.3552    0.0000 C   0  0  0  0  0  0  0  0  0  0  0  0
    4.7139   -2.2032    0.0000 C   0  0  0  0  0  0  0  0  0  0  0  0
    1.2297   -0.5380    0.0000 C   0  0  0  0  0  0  0  0  0  0  0  0
    0.5636   -1.6908    0.0000 C   0  0  0  0  0  0  0  0  0  0  0  0
    1.2553   -4.0734    0.0000 C   0  0  0  0  0  0  0  0  0  0  0  0
    4.1502   -4.0990    0.0000 C   0  0  0  0  0  0  0  0  0  0  0  0
    1.8190    0.0000    0.0000 C   0  0  0  0  0  0  0  0  0  0  0  0
    0.3843   -2.5107    0.0000 C   0  0  0  0  0  0  0  0  0  0  0  0
  1  9  1  0  0  0  0
  1 18  1  0  0  0  0
  2  6  1  0  0  0  0
  2 16  1  0  0  0  0
  3  7  1  0  0  0  0
  3 19  1  0  0  0  0
  4 18  2  0  0  0  0
  5 10  1  0  0  0  0
  5 18  1  0  0  0  0
  6 17  2  0  0  0  0
  7 20  2  0  0  0  0
  8  9  1  0  0  0  0
  8 11  1  0  0  0  0
  8 13  2  0  0  0  0
  9 10  2  0  0  0  0
 10 15  1  0  0  0  0
 11 16  2  0  0  0  0
 11 17  1  0  0  0  0
 12 13  1  0  0  0  0
 12 14  1  0  0  0  0
 12 15  2  0  0  0  0
 14 19  2  0  0  0  0
 14 20  1  0  0  0  0
 16 21  1  0  0  0  0
 17 22  1  0  0  0  0
 19 23  1  0  0  0  0
 20 24  1  0  0  0  0
M  END
> <PUBCHEM_COMPOUND_ID_TYPE>
0

> <PUBCHEM_TOTAL_CHARGE>
0

> <PUBCHEM_SUBSTANCE_ID>
310933510

> <PUBCHEM_SUBSTANCE_VERSION>
1

> <PUBCHEM_EXT_DATASOURCE_NAME>
4488

> <PUBCHEM_EXT_DATASOURCE_REGID>
SCHEMBL16110932

> <PUBCHEM_SUBSTANCE_COMMENT>
InChI=1S/C17H15N3O4/c1-7-14(9(3)23-19-7)11-5-12(15-8(2)20-24-10(15)4)16-13(6-11)18-17(21)22-16/h5-6H,1-4H3,(H,18,21)
InChIKey=RWRUXQOYBCUTRH-UHFFFAOYSA-N

> <PUBCHEM_SUBSTANCE_SYNONYM>
SCHEMBL16110932

> <PUBCHEM_XREF_EXT_ID>
SCHEMBL16110932

> <PUBCHEM_EXT_DATASOURCE_URL>
https://www.surechembl.org/

> <PUBCHEM_EXT_SUBSTANCE_URL>
https://www.surechembl.org/chemical/SCHEMBL16110932

> <PUBCHEM_CID_ASSOCIATIONS>
86296577  1

> <PUBCHEM_COORDINATE_TYPE>
1
3

$$$$
