310946940
  -OEChem-07211613022D

 39 42  0     0  0  0  0  0  0999 V2000
   -0.9262    4.2820    0.0000 F   0  0  0  0  0  0  0  0  0  0  0  0
   -0.1815    1.4975    0.0000 F   0  0  0  0  0  0  0  0  0  0  0  0
    1.8421    3.5372    0.0000 O   0  0  0  0  0  0  0  0  0  0  0  0
   -2.1404   -3.0516    0.0000 O   0  0  0  0  0  0  0  0  0  0  0  0
   -0.3110   -4.2820    0.0000 O   0  0  0  0  0  0  0  0  0  0  0  0
   -0.5862   -0.4938    0.0000 N   0  0  0  0  0  0  0  0  0  0  0  0
   -1.9947   -0.8661    0.0000 N   0  0  0  0  0  0  0  0  0  0  0  0
    0.4337   -1.5137    0.0000 N   0  0  0  0  0  0  0  0  0  0  0  0
   -0.7481   -2.6793    0.0000 N   0  0  0  0  0  0  0  0  0  0  0  0
   -1.6061    1.8698    0.0000 N   0  0  0  0  0  0  0  0  0  0  0  0
   -1.1205    1.1899    0.0000 N   0  0  0  0  0  0  0  0  0  0  0  0
   -2.3508   -2.2583    0.0000 N   0  0  0  0  0  0  0  0  0  0  0  0
    2.2145    0.2510    0.0000 N   0  0  0  0  0  0  0  0  0  0  0  0
   -1.3957   -0.2348    0.0000 C   0  0  0  0  0  0  0  0  0  0  0  0
   -0.9748   -1.8536    0.0000 C   0  0  0  0  0  0  0  0  0  0  0  0
   -0.3758   -1.2708    0.0000 C   0  0  0  0  0  0  0  0  0  0  0  0
   -1.6223    0.5423    0.0000 C   0  0  0  0  0  0  0  0  0  0  0  0
   -2.4156    0.8175    0.0000 C   0  0  0  0  0  0  0  0  0  0  0  0
   -1.7842   -1.6432    0.0000 C   0  0  0  0  0  0  0  0  0  0  0  0
   -2.3994    1.6270    0.0000 C   0  0  0  0  0  0  0  0  0  0  0  0
   -0.5862    2.9059    0.0000 C   0  0  0  0  0  0  0  0  0  0  0  0
   -3.1117    0.4128    0.0000 C   0  0  0  0  0  0  0  0  0  0  0  0
    1.0165   -0.8823    0.0000 C   0  0  0  0  0  0  0  0  0  0  0  0
   -3.1117    2.0317    0.0000 C   0  0  0  0  0  0  0  0  0  0  0  0
   -0.3596    3.6992    0.0000 C   0  0  0  0  0  0  0  0  0  0  0  0
   -0.0034    2.3231    0.0000 C   0  0  0  0  0  0  0  0  0  0  0  0
   -1.3795    2.6955    0.0000 C   0  0  0  0  0  0  0  0  0  0  0  0
   -1.3309   -3.2459    0.0000 C   0  0  0  0  0  0  0  0  0  0  0  0
    1.0327    3.3430    0.0000 C   0  0  0  0  0  0  0  0  0  0  0  0
   -3.8402    0.8175    0.0000 C   0  0  0  0  0  0  0  0  0  0  0  0
    0.4337    3.9258    0.0000 C   0  0  0  0  0  0  0  0  0  0  0  0
    0.8060    2.5498    0.0000 C   0  0  0  0  0  0  0  0  0  0  0  0
   -3.8564    1.6270    0.0000 C   0  0  0  0  0  0  0  0  0  0  0  0
    0.8222   -0.1215    0.0000 C   0  0  0  0  0  0  0  0  0  0  0  0
    1.8421   -1.1089    0.0000 C   0  0  0  0  0  0  0  0  0  0  0  0
   -1.1205   -4.0392    0.0000 C   0  0  0  0  0  0  0  0  0  0  0  0
    1.3888    0.4776    0.0000 C   0  0  0  0  0  0  0  0  0  0  0  0
    2.4249   -0.5100    0.0000 C   0  0  0  0  0  0  0  0  0  0  0  0
    2.4411    2.9707    0.0000 C   0  0  0  0  0  0  0  0  0  0  0  0
  1 25  1  0  0  0  0
  2 26  1  0  0  0  0
  3 29  1  0  0  0  0
  3 39  1  0  0  0  0
  4 28  2  0  0  0  0
  5 36  1  0  0  0  0
  6 14  2  0  0  0  0
  6 16  1  0  0  0  0
  7 14  1  0  0  0  0
  7 19  2  0  0  0  0
  8 16  1  0  0  0  0
  8 23  1  0  0  0  0
  9 15  1  0  0  0  0
  9 28  1  0  0  0  0
 10 20  1  0  0  0  0
 10 27  1  0  0  0  0
 11 17  2  3  0  0  0
 12 19  1  0  0  0  0
 13 37  2  0  0  0  0
 13 38  1  0  0  0  0
 14 17  1  0  0  0  0
 15 16  2  0  0  0  0
 15 19  1  0  0  0  0
 17 18  1  0  0  0  0
 18 20  2  0  0  0  0
 18 22  1  0  0  0  0
 20 24  1  0  0  0  0
 21 25  2  0  0  0  0
 21 26  1  0  0  0  0
 21 27  1  0  0  0  0
 22 30  2  0  0  0  0
 23 34  2  0  0  0  0
 23 35  1  0  0  0  0
 24 33  2  0  0  0  0
 25 31  1  0  0  0  0
 26 32  2  0  0  0  0
 28 36  1  0  0  0  0
 29 31  2  0  0  0  0
 29 32  1  0  0  0  0
 30 33  1  0  0  0  0
 34 37  1  0  0  0  0
 35 38  2  0  0  0  0
M  END
> <PUBCHEM_COMPOUND_ID_TYPE>
0

> <PUBCHEM_TOTAL_CHARGE>
0

> <PUBCHEM_SUBSTANCE_ID>
310946940

> <PUBCHEM_SUBSTANCE_VERSION>
1

> <PUBCHEM_EXT_DATASOURCE_NAME>
4488

> <PUBCHEM_EXT_DATASOURCE_REGID>
SCHEMBL16125065

> <PUBCHEM_SUBSTANCE_COMMENT>
InChI=1S/C26H24F2N8O3/c1-39-15-10-18(27)17(19(28)11-15)12-32-20-5-3-2-4-16(20)22(29)25-35-24(30)23(34-21(38)13-37)26(36-25)33-14-6-8-31-9-7-14/h2-11,29,32,37H,12-13H2,1H3,(H,34,38)(H3,30,31,33,35,36)
InChIKey=KOCGMPFXGUDYMG-UHFFFAOYSA-N

> <PUBCHEM_SUBSTANCE_SYNONYM>
SCHEMBL16125065

> <PUBCHEM_XREF_EXT_ID>
SCHEMBL16125065

> <PUBCHEM_EXT_DATASOURCE_URL>
https://www.surechembl.org/

> <PUBCHEM_EXT_SUBSTANCE_URL>
https://www.surechembl.org/chemical/SCHEMBL16125065

> <PUBCHEM_CID_ASSOCIATIONS>
117612796  1

> <PUBCHEM_COORDINATE_TYPE>
1
3

$$$$
