310935048
  -OEChem-07211613022D

 45 51  0     1  0  0  0  0  0999 V2000
   -2.1434   -0.8250    0.0000 O   0  0  0  0  0  0  0  0  0  0  0  0
   -0.7156    1.6500    0.0000 O   0  0  0  0  0  0  0  0  0  0  0  0
   -2.8579   -2.8875    0.0000 O   0  0  0  0  0  0  0  0  0  0  0  0
   -3.5724   -1.6500    0.0000 O   0  0  0  0  0  0  0  0  0  0  0  0
    0.0000   -2.8875    0.0000 N   0  0  0  0  0  0  0  0  0  0  0  0
    0.7846   -3.1424    0.0000 N   0  0  0  0  0  0  0  0  0  0  0  0
    0.7144   -0.8250    0.0000 N   0  0  0  0  0  0  0  0  0  0  0  0
   -0.7144   -1.6500    0.0000 C   0  0  0  0  0  0  0  0  0  0  0  0
    0.0000   -2.0625    0.0000 C   0  0  0  0  0  0  0  0  0  0  0  0
   -0.7144   -0.8250    0.0000 C   0  0  0  0  0  0  0  0  0  0  0  0
   -1.4290   -2.0625    0.0000 C   0  0  0  0  0  0  0  0  0  0  0  0
    0.0000   -0.4125    0.0000 C   0  0  0  0  0  0  0  0  0  0  0  0
    0.0000    0.4125    0.0000 C   0  0  0  0  0  0  0  0  0  0  0  0
   -1.4290   -2.8875    0.0000 C   0  0  0  0  0  0  0  0  0  0  0  0
   -2.1434   -1.6500    0.0000 C   0  0  3  0  0  0  0  0  0  0  0  0
    0.7846   -1.8076    0.0000 C   0  0  0  0  0  0  0  0  0  0  0  0
    1.2696   -2.4750    0.0000 C   0  0  0  0  0  0  0  0  0  0  0  0
   -0.7144   -3.3000    0.0000 C   0  0  0  0  0  0  0  0  0  0  0  0
   -0.7144    0.8250    0.0000 C   0  0  0  0  0  0  0  0  0  0  0  0
   -1.4290   -0.4125    0.0000 C   0  0  0  0  0  0  0  0  0  0  0  0
    0.7144    0.8250    0.0000 C   0  0  0  0  0  0  0  0  0  0  0  0
   -1.4290    0.4125    0.0000 C   0  0  0  0  0  0  0  0  0  0  0  0
    2.0946   -2.4750    0.0000 C   0  0  0  0  0  0  0  0  0  0  0  0
   -2.8579   -2.0625    0.0000 C   0  0  0  0  0  0  0  0  0  0  0  0
    1.4290    0.4125    0.0000 C   0  0  0  0  0  0  0  0  0  0  0  0
    0.7137    1.6500    0.0000 C   0  0  0  0  0  0  0  0  0  0  0  0
    1.4290   -0.4125    0.0000 C   0  0  0  0  0  0  0  0  0  0  0  0
   -2.1434   -3.3000    0.0000 C   0  0  0  0  0  0  0  0  0  0  0  0
    2.5071   -3.1894    0.0000 C   0  0  0  0  0  0  0  0  0  0  0  0
   -2.8579   -0.4125    0.0000 C   0  0  0  0  0  0  0  0  0  0  0  0
   -0.0009    2.0623    0.0000 C   0  0  0  0  0  0  0  0  0  0  0  0
    2.5071   -1.7606    0.0000 C   0  0  0  0  0  0  0  0  0  0  0  0
    3.3321   -3.1894    0.0000 C   0  0  0  0  0  0  0  0  0  0  0  0
    3.7446   -3.9040    0.0000 C   0  0  0  0  0  0  0  0  0  0  0  0
    3.3321   -1.7606    0.0000 C   0  0  0  0  0  0  0  0  0  0  0  0
    3.7446   -2.4750    0.0000 C   0  0  0  0  0  0  0  0  0  0  0  0
   -3.5724   -0.8250    0.0000 C   0  0  0  0  0  0  0  0  0  0  0  0
   -3.5724    0.0000    0.0000 C   0  0  0  0  0  0  0  0  0  0  0  0
   -2.8579    0.4125    0.0000 C   0  0  0  0  0  0  0  0  0  0  0  0
    3.3321   -4.6184    0.0000 C   0  0  0  0  0  0  0  0  0  0  0  0
    4.5696   -3.9040    0.0000 C   0  0  0  0  0  0  0  0  0  0  0  0
    3.7446   -5.3329    0.0000 C   0  0  0  0  0  0  0  0  0  0  0  0
    4.9821   -4.6184    0.0000 C   0  0  0  0  0  0  0  0  0  0  0  0
    4.5696   -5.3329    0.0000 C   0  0  0  0  0  0  0  0  0  0  0  0
    2.5071   -4.6184    0.0000 C   0  0  0  0  0  0  0  0  0  0  0  0
 15  1  1  1  0  0  0
  1 30  1  0  0  0  0
  2 19  1  0  0  0  0
  2 31  1  0  0  0  0
  3 24  2  0  0  0  0
  4 24  1  0  0  0  0
  5  6  1  0  0  0  0
  5  9  1  0  0  0  0
  5 18  1  0  0  0  0
  6 17  2  0  0  0  0
  7 12  1  0  0  0  0
  7 27  2  0  0  0  0
  8  9  1  0  0  0  0
  8 10  1  0  0  0  0
  8 11  2  0  0  0  0
  9 16  2  0  0  0  0
 10 12  2  0  0  0  0
 10 20  1  0  0  0  0
 11 14  1  0  0  0  0
 11 15  1  0  0  0  0
 12 13  1  0  0  0  0
 13 19  2  0  0  0  0
 13 21  1  0  0  0  0
 14 18  2  0  0  0  0
 14 28  1  0  0  0  0
 15 24  1  0  0  0  0
 16 17  1  0  0  0  0
 17 23  1  0  0  0  0
 19 22  1  0  0  0  0
 20 22  2  0  0  0  0
 21 25  2  0  0  0  0
 21 26  1  0  0  0  0
 23 29  2  0  0  0  0
 23 32  1  0  0  0  0
 25 27  1  0  0  0  0
 26 31  1  0  0  0  0
 29 33  1  0  0  0  0
 30 37  1  0  0  0  0
 30 38  1  0  0  0  0
 30 39  1  0  0  0  0
 32 35  2  0  0  0  0
 33 34  1  0  0  0  0
 33 36  2  0  0  0  0
 34 40  1  0  0  0  0
 34 41  2  0  0  0  0
 35 36  1  0  0  0  0
 40 42  2  0  0  0  0
 40 45  1  0  0  0  0
 41 43  1  0  0  0  0
 42 44  1  0  0  0  0
 43 44  2  0  0  0  0
M  END
> <PUBCHEM_COMPOUND_ID_TYPE>
0

> <PUBCHEM_TOTAL_CHARGE>
0

> <PUBCHEM_SUBSTANCE_ID>
310935048

> <PUBCHEM_SUBSTANCE_VERSION>
1

> <PUBCHEM_EXT_DATASOURCE_NAME>
4488

> <PUBCHEM_EXT_DATASOURCE_REGID>
SCHEMBL16112568

> <PUBCHEM_SUBSTANCE_COMMENT>
InChI=1S/C38H35N3O4/c1-22-9-6-7-12-27(22)25-10-8-11-26(19-25)29-20-30-34(28-13-14-31-33-24(16-18-44-31)15-17-39-35(28)33)32(23(2)21-41(30)40-29)36(37(42)43)45-38(3,4)5/h6-15,17,19-21,36H,16,18H2,1-5H3,(H,42,43)/t36-/m0/s1
InChIKey=CVQVWIYQKJAYDO-BHVANESWSA-N

> <PUBCHEM_SUBSTANCE_SYNONYM>
SCHEMBL16112568

> <PUBCHEM_XREF_EXT_ID>
SCHEMBL16112568

> <PUBCHEM_EXT_DATASOURCE_URL>
https://www.surechembl.org/

> <PUBCHEM_EXT_SUBSTANCE_URL>
https://www.surechembl.org/chemical/SCHEMBL16112568

> <PUBCHEM_CID_ASSOCIATIONS>
86302146  1

> <PUBCHEM_COORDINATE_TYPE>
1
3

> <PUBCHEM_BONDANNOTATIONS>
15  1  5

$$$$
