310933697
  -OEChem-07211613022D

 47 53  0     1  0  0  0  0  0999 V2000
   -6.0599   -1.8524    0.0000 Cl  0  0  0  0  0  0  0  0  0  0  0  0
   -4.4190   -2.0249    0.0000 F   0  0  0  0  0  0  0  0  0  0  0  0
    0.7145    4.5375    0.0000 F   0  0  0  0  0  0  0  0  0  0  0  0
   -2.2296   -1.2330    0.0000 O   0  0  0  0  0  0  0  0  0  0  0  0
   -1.4289    0.8250    0.0000 O   0  0  0  0  0  0  0  0  0  0  0  0
   -0.7145    1.2375    0.0000 O   0  0  0  0  0  0  0  0  0  0  0  0
   -0.7145   -0.4125    0.0000 N   0  0  0  0  0  0  0  0  0  0  0  0
    1.4289   -2.4750    0.0000 N   0  0  3  0  0  0  0  0  0  0  0  0
    1.4289   -4.1250    0.0000 N   0  0  0  0  0  0  0  0  0  0  0  0
    0.1014   -4.2645    0.0000 N   0  0  0  0  0  0  0  0  0  0  0  0
    0.7145    1.2375    0.0000 N   0  0  0  0  0  0  0  0  0  0  0  0
    0.4369   -5.0182    0.0000 N   0  0  0  0  0  0  0  0  0  0  0  0
   -3.0366   -1.4045    0.0000 N   0  0  0  0  0  0  0  0  0  0  0  0
    0.7145   -0.4125    0.0000 C   0  0  0  0  0  0  0  0  0  0  0  0
    0.0000    0.0000    0.0000 C   0  0  3  0  0  0  0  0  0  0  0  0
    0.7145   -1.2375    0.0000 C   0  0  0  0  0  0  0  0  0  0  0  0
    1.4289   -1.6500    0.0000 C   0  0  0  0  0  0  0  0  0  0  0  0
   -1.4289   -0.0000    0.0000 C   0  0  0  0  0  0  0  0  0  0  0  0
    0.0000   -1.6500    0.0000 C   0  0  0  0  0  0  0  0  0  0  0  0
    0.0000    0.8250    0.0000 C   0  0  0  0  0  0  0  0  0  0  0  0
   -0.7145   -1.2375    0.0000 C   0  0  0  0  0  0  0  0  0  0  0  0
    1.4289    0.0000    0.0000 C   0  0  0  0  0  0  0  0  0  0  0  0
   -2.1434   -0.4125    0.0000 C   0  0  3  0  0  0  0  0  0  0  0  0
    0.7145   -3.7125    0.0000 C   0  0  0  0  0  0  0  0  0  0  0  0
    2.1434   -1.2375    0.0000 C   0  0  0  0  0  0  0  0  0  0  0  0
    0.7145   -2.8875    0.0000 C   0  0  0  0  0  0  0  0  0  0  0  0
    1.2574   -4.9320    0.0000 C   0  0  0  0  0  0  0  0  0  0  0  0
    2.1434   -2.8875    0.0000 C   0  0  0  0  0  0  0  0  0  0  0  0
    2.1434   -0.4125    0.0000 C   0  0  0  0  0  0  0  0  0  0  0  0
   -3.4491   -0.6900    0.0000 C   0  0  0  0  0  0  0  0  0  0  0  0
    2.1434   -3.7125    0.0000 C   0  0  0  0  0  0  0  0  0  0  0  0
   -2.8971   -0.0769    0.0000 C   0  0  0  0  0  0  0  0  0  0  0  0
   -4.2696   -0.6038    0.0000 C   0  0  0  0  0  0  0  0  0  0  0  0
    1.8094   -5.5451    0.0000 C   0  0  0  0  0  0  0  0  0  0  0  0
   -4.7545   -1.2712    0.0000 C   0  0  0  0  0  0  0  0  0  0  0  0
    0.7145    2.0625    0.0000 C   0  0  0  0  0  0  0  0  0  0  0  0
   -4.6052    0.1499    0.0000 C   0  0  0  0  0  0  0  0  0  0  0  0
   -5.5750   -1.1850    0.0000 C   0  0  0  0  0  0  0  0  0  0  0  0
   -5.4256    0.2361    0.0000 C   0  0  0  0  0  0  0  0  0  0  0  0
   -0.0000    2.4750    0.0000 C   0  0  0  0  0  0  0  0  0  0  0  0
    1.4289    2.4750    0.0000 C   0  0  0  0  0  0  0  0  0  0  0  0
   -5.9106   -0.4313    0.0000 C   0  0  0  0  0  0  0  0  0  0  0  0
    2.6164   -5.3735    0.0000 C   0  0  0  0  0  0  0  0  0  0  0  0
    1.5545   -6.3297    0.0000 C   0  0  0  0  0  0  0  0  0  0  0  0
   -0.0000    3.3000    0.0000 C   0  0  0  0  0  0  0  0  0  0  0  0
    1.4289    3.3000    0.0000 C   0  0  0  0  0  0  0  0  0  0  0  0
    0.7145    3.7125    0.0000 C   0  0  0  0  0  0  0  0  0  0  0  0
  1 38  1  0  0  0  0
  2 35  1  0  0  0  0
  3 47  1  0  0  0  0
  4 13  1  0  0  0  0
  4 23  1  0  0  0  0
  5 18  2  0  0  0  0
  6 20  2  0  0  0  0
  7 15  1  0  0  0  0
  7 18  1  0  0  0  0
  7 21  1  0  0  0  0
  8 17  1  0  0  0  0
  8 26  1  0  0  0  0
  8 28  1  0  0  0  0
  9 24  1  0  0  0  0
  9 27  1  0  0  0  0
  9 31  1  0  0  0  0
 10 12  1  0  0  0  0
 10 24  2  0  0  0  0
 11 20  1  0  0  0  0
 11 36  1  0  0  0  0
 12 27  2  0  0  0  0
 13 30  2  0  0  0  0
 14 15  1  0  0  0  0
 14 16  2  0  0  0  0
 14 22  1  0  0  0  0
 15 20  1  1  0  0  0
 16 17  1  0  0  0  0
 16 19  1  0  0  0  0
 17 25  2  0  0  0  0
 18 23  1  0  0  0  0
 19 21  1  0  0  0  0
 22 29  2  0  0  0  0
 23 32  1  0  0  0  0
 24 26  1  0  0  0  0
 25 29  1  0  0  0  0
 27 34  1  0  0  0  0
 28 31  1  0  0  0  0
 30 32  1  0  0  0  0
 30 33  1  0  0  0  0
 33 35  2  0  0  0  0
 33 37  1  0  0  0  0
 34 43  1  0  0  0  0
 34 44  1  0  0  0  0
 35 38  1  0  0  0  0
 36 40  2  0  0  0  0
 36 41  1  0  0  0  0
 37 39  2  0  0  0  0
 38 42  2  0  0  0  0
 39 42  1  0  0  0  0
 40 45  1  0  0  0  0
 41 46  2  0  0  0  0
 45 47  2  0  0  0  0
 46 47  1  0  0  0  0
M  END
> <PUBCHEM_COMPOUND_ID_TYPE>
0

> <PUBCHEM_TOTAL_CHARGE>
0

> <PUBCHEM_SUBSTANCE_ID>
310933697

> <PUBCHEM_SUBSTANCE_VERSION>
1

> <PUBCHEM_EXT_DATASOURCE_NAME>
4488

> <PUBCHEM_EXT_DATASOURCE_REGID>
SCHEMBL16111132

> <PUBCHEM_SUBSTANCE_COMMENT>
InChI=1S/C34H32ClF2N7O3/c1-19(2)32-40-39-29-18-42(15-16-43(29)32)27-8-4-5-23-22(27)13-14-44(31(23)33(45)38-21-11-9-20(36)10-12-21)34(46)28-17-26(41-47-28)24-6-3-7-25(35)30(24)37/h3-12,19,28,31H,13-18H2,1-2H3,(H,38,45)/t28?,31-/m1/s1
InChIKey=CHAUNDCRDVOXQH-VPTMLEGASA-N

> <PUBCHEM_SUBSTANCE_SYNONYM>
SCHEMBL16111132

> <PUBCHEM_XREF_EXT_ID>
SCHEMBL16111132

> <PUBCHEM_EXT_DATASOURCE_URL>
https://www.surechembl.org/

> <PUBCHEM_EXT_SUBSTANCE_URL>
https://www.surechembl.org/chemical/SCHEMBL16111132

> <PUBCHEM_CID_ASSOCIATIONS>
117602063  1

> <PUBCHEM_COORDINATE_TYPE>
1
3

> <PUBCHEM_BONDANNOTATIONS>
15  20  5

$$$$
