310939516
  -OEChem-07211613022D

 46 49  0     1  0  0  0  0  0999 V2000
    5.8874   -2.4204    0.0000 S   0  0  0  0  0  0  0  0  0  0  0  0
   -0.9349    0.7188    0.0000 O   0  0  0  0  0  0  0  0  0  0  0  0
   -5.1730   -0.9312    0.0000 O   0  0  0  0  0  0  0  0  0  0  0  0
    0.4736    0.1355    0.0000 O   0  0  0  0  0  0  0  0  0  0  0  0
    0.8860   -0.5789    0.0000 O   0  0  0  0  0  0  0  0  0  0  0  0
   -0.4947    3.1365    0.0000 O   0  0  0  0  0  0  0  0  0  0  0  0
   -3.7927   -2.1260    0.0000 O   0  0  0  0  0  0  0  0  0  0  0  0
   -4.8031   -3.1365    0.0000 O   0  0  0  0  0  0  0  0  0  0  0  0
    0.8860   -2.0080    0.0000 N   0  0  0  0  0  0  0  0  0  0  0  0
   -3.0294    1.1314    0.0000 C   0  0  3  0  0  0  0  0  0  0  0  0
   -3.0294    0.3064    0.0000 C   0  0  3  0  0  0  0  0  0  0  0  0
   -2.2449    1.3863    0.0000 C   0  0  3  0  0  0  0  0  0  0  0  0
   -1.7599    0.7188    0.0000 C   0  0  3  0  0  0  0  0  0  0  0  0
   -4.4585    0.3064    0.0000 C   0  0  0  0  0  0  0  0  0  0  0  0
   -4.4585    1.1314    0.0000 C   0  0  0  0  0  0  0  0  0  0  0  0
   -2.2449    0.0515    0.0000 C   0  0  0  0  0  0  0  0  0  0  0  0
   -3.7439    1.5439    0.0000 C   0  0  0  0  0  0  0  0  0  0  0  0
   -3.7439   -0.1062    0.0000 C   0  0  0  0  0  0  0  0  0  0  0  0
   -5.1730   -0.1062    0.0000 C   0  0  0  0  0  0  0  0  0  0  0  0
   -1.6615    1.9697    0.0000 C   0  0  0  0  0  0  0  0  0  0  0  0
   -5.1730    1.5439    0.0000 C   0  0  0  0  0  0  0  0  0  0  0  0
   -0.3515    0.1355    0.0000 C   0  0  0  0  0  0  0  0  0  0  0  0
   -5.8874    0.3064    0.0000 C   0  0  0  0  0  0  0  0  0  0  0  0
   -0.7640   -0.5789    0.0000 C   0  0  3  0  0  0  0  0  0  0  0  0
   -5.8874    1.1314    0.0000 C   0  0  0  0  0  0  0  0  0  0  0  0
   -0.3515   -1.2935    0.0000 C   0  0  3  0  0  0  0  0  0  0  0  0
   -0.8646    1.7562    0.0000 C   0  0  0  0  0  0  0  0  0  0  0  0
   -1.5890   -0.5789    0.0000 C   0  0  0  0  0  0  0  0  0  0  0  0
    0.4736   -1.2935    0.0000 C   0  0  0  0  0  0  0  0  0  0  0  0
   -0.7640   -2.0080    0.0000 C   0  0  0  0  0  0  0  0  0  0  0  0
   -0.2812    2.3395    0.0000 C   0  0  3  0  0  0  0  0  0  0  0  0
   -5.1730   -1.7562    0.0000 C   0  0  0  0  0  0  0  0  0  0  0  0
   -2.0015   -1.2935    0.0000 C   0  0  0  0  0  0  0  0  0  0  0  0
   -1.5890   -2.0080    0.0000 C   0  0  0  0  0  0  0  0  0  0  0  0
   -4.5895   -2.3395    0.0000 C   0  0  0  0  0  0  0  0  0  0  0  0
    0.5157    2.1260    0.0000 C   0  0  0  0  0  0  0  0  0  0  0  0
    1.6005   -2.4204    0.0000 C   0  0  0  0  0  0  0  0  0  0  0  0
    1.0991    2.7094    0.0000 C   0  0  0  0  0  0  0  0  0  0  0  0
    2.3150   -2.0080    0.0000 C   0  0  0  0  0  0  0  0  0  0  0  0
    1.8960    2.4959    0.0000 C   0  0  0  0  0  0  0  0  0  0  0  0
    3.0294   -2.4204    0.0000 C   0  0  0  0  0  0  0  0  0  0  0  0
    2.4794    3.0792    0.0000 C   0  0  0  0  0  0  0  0  0  0  0  0
    3.7439   -2.0080    0.0000 C   0  0  0  0  0  0  0  0  0  0  0  0
    3.2763    2.8657    0.0000 C   0  0  0  0  0  0  0  0  0  0  0  0
    4.4585   -2.4204    0.0000 C   0  0  0  0  0  0  0  0  0  0  0  0
    5.1730   -2.0080    0.0000 C   0  0  0  0  0  0  0  0  0  0  0  0
  1 46  1  0  0  0  0
 13  2  1  6  0  0  0
  2 22  1  0  0  0  0
  3 19  1  0  0  0  0
  3 32  1  0  0  0  0
  4 22  2  0  0  0  0
  5 29  2  0  0  0  0
 31  6  1  1  0  0  0
  7 35  2  0  0  0  0
  8 35  1  0  0  0  0
  9 29  1  0  0  0  0
  9 37  1  0  0  0  0
 10 11  1  0  0  0  0
 10 12  1  0  0  0  0
 10 17  1  6  0  0  0
 11 16  1  6  0  0  0
 11 18  1  0  0  0  0
 12 13  1  0  0  0  0
 12 20  1  1  0  0  0
 13 16  1  0  0  0  0
 14 15  2  0  0  0  0
 14 18  1  0  0  0  0
 14 19  1  0  0  0  0
 15 17  1  0  0  0  0
 15 21  1  0  0  0  0
 19 23  2  0  0  0  0
 20 27  1  0  0  0  0
 21 25  2  0  0  0  0
 22 24  1  0  0  0  0
 23 25  1  0  0  0  0
 24 26  1  0  0  0  0
 24 28  1  0  0  0  0
 26 29  1  0  0  0  0
 26 30  1  0  0  0  0
 27 31  1  0  0  0  0
 28 33  1  0  0  0  0
 30 34  1  0  0  0  0
 31 36  1  0  0  0  0
 32 35  1  0  0  0  0
 33 34  1  0  0  0  0
 36 38  1  0  0  0  0
 37 39  1  0  0  0  0
 38 40  1  0  0  0  0
 39 41  1  0  0  0  0
 40 42  1  0  0  0  0
 41 43  1  0  0  0  0
 42 44  1  0  0  0  0
 43 45  1  0  0  0  0
 45 46  1  0  0  0  0
M  END
> <PUBCHEM_COMPOUND_ID_TYPE>
0

> <PUBCHEM_TOTAL_CHARGE>
0

> <PUBCHEM_SUBSTANCE_ID>
310939516

> <PUBCHEM_SUBSTANCE_VERSION>
1

> <PUBCHEM_EXT_DATASOURCE_NAME>
4488

> <PUBCHEM_EXT_DATASOURCE_REGID>
SCHEMBL16117445

> <PUBCHEM_SUBSTANCE_COMMENT>
InChI=1S/C37H57NO7S/c1-2-3-6-13-27(39)17-18-28-31-21-25-12-11-16-33(44-24-35(40)41)32(25)22-26(31)23-34(28)45-37(43)30-15-8-7-14-29(30)36(42)38-19-9-4-5-10-20-46/h11-12,16,26-31,34,39,46H,2-10,13-15,17-24H2,1H3,(H,38,42)(H,40,41)/t26-,27-,28+,29?,30?,31-,34+/m0/s1
InChIKey=ZHHCEFVDODSGEH-VFFUOWNZSA-N

> <PUBCHEM_SUBSTANCE_SYNONYM>
SCHEMBL16117445

> <PUBCHEM_XREF_EXT_ID>
SCHEMBL16117445

> <PUBCHEM_EXT_DATASOURCE_URL>
https://www.surechembl.org/

> <PUBCHEM_EXT_SUBSTANCE_URL>
https://www.surechembl.org/chemical/SCHEMBL16117445

> <PUBCHEM_CID_ASSOCIATIONS>
86268318  1

> <PUBCHEM_COORDINATE_TYPE>
1
3

> <PUBCHEM_BONDANNOTATIONS>
10  17  6
11  16  6
12  20  5
13  2  6
31  6  5

$$$$
