310945547
  -OEChem-07211613022D

  9 10  0     0  0  0  0  0  0999 V2000
    0.8879   -0.6781    0.0000 S   0  0  0  0  0  0  0  0  0  0  0  0
   -0.6362   -0.8460    0.0000 N   0  0  0  0  0  0  0  0  0  0  0  0
    1.3633    0.0070    0.0000 N   0  0  0  0  0  0  0  0  0  0  0  0
   -1.3633   -0.4405    0.0000 N   0  0  0  0  0  0  0  0  0  0  0  0
    0.0909   -0.3985    0.0000 C   0  0  0  0  0  0  0  0  0  0  0  0
    0.0909    0.4265    0.0000 C   0  0  0  0  0  0  0  0  0  0  0  0
    0.8600    0.6921    0.0000 C   0  0  0  0  0  0  0  0  0  0  0  0
   -0.6642    0.8460    0.0000 C   0  0  0  0  0  0  0  0  0  0  0  0
   -1.3633    0.4265    0.0000 C   0  0  0  0  0  0  0  0  0  0  0  0
  1  3  1  0  0  0  0
  1  5  1  0  0  0  0
  2  4  1  0  0  0  0
  2  5  2  0  0  0  0
  3  7  2  0  0  0  0
  4  9  1  0  0  0  0
  5  6  1  0  0  0  0
  6  7  1  0  0  0  0
  6  8  2  0  0  0  0
  8  9  1  0  0  0  0
M  END
> <PUBCHEM_COMPOUND_ID_TYPE>
0

> <PUBCHEM_TOTAL_CHARGE>
0

> <PUBCHEM_SUBSTANCE_ID>
310945547

> <PUBCHEM_SUBSTANCE_VERSION>
1

> <PUBCHEM_EXT_DATASOURCE_NAME>
4488

> <PUBCHEM_EXT_DATASOURCE_REGID>
SCHEMBL16123645

> <PUBCHEM_SUBSTANCE_COMMENT>
InChI=1S/C5H5N3S/c1-2-6-8-5-4(1)3-7-9-5/h1,3,6H,2H2
InChIKey=XLQCZWTZNOPOPM-UHFFFAOYSA-N

> <PUBCHEM_SUBSTANCE_SYNONYM>
SCHEMBL16123645

> <PUBCHEM_XREF_EXT_ID>
SCHEMBL16123645

> <PUBCHEM_EXT_DATASOURCE_URL>
https://www.surechembl.org/

> <PUBCHEM_EXT_SUBSTANCE_URL>
https://www.surechembl.org/chemical/SCHEMBL16123645

> <PUBCHEM_CID_ASSOCIATIONS>
117611588  1

> <PUBCHEM_COORDINATE_TYPE>
1
3

$$$$
