310941552
  -OEChem-07211613022D

 39 44  0     0  0  0  0  0  0999 V2000
    3.2734    2.5756    0.0000 S   0  0  0  0  0  0  0  0  0  0  0  0
    0.9303   -0.0947    0.0000 O   0  0  0  0  0  0  0  0  0  0  0  0
    2.3775   -0.0947    0.0000 O   0  0  0  0  0  0  0  0  0  0  0  0
   -1.9468   -0.0947    0.0000 O   0  0  0  0  0  0  0  0  0  0  0  0
    6.1677    1.5936    0.0000 O   0  0  0  0  0  0  0  0  0  0  0  0
    3.1527    1.2318    0.0000 N   0  0  0  0  0  0  0  0  0  0  0  0
    4.5310    1.7659    0.0000 N   0  0  0  0  0  0  0  0  0  0  0  0
    1.6711    1.1629    0.0000 C   0  0  0  0  0  0  0  0  0  0  0  0
    0.2239    1.1629    0.0000 C   0  0  0  0  0  0  0  0  0  0  0  0
    2.3603    1.5936    0.0000 C   0  0  0  0  0  0  0  0  0  0  0  0
    0.2067    0.3360    0.0000 C   0  0  0  0  0  0  0  0  0  0  0  0
    1.6367    0.3532    0.0000 C   0  0  0  0  0  0  0  0  0  0  0  0
    0.9303    1.5764    0.0000 C   0  0  0  0  0  0  0  0  0  0  0  0
    3.6868    1.8865    0.0000 C   0  0  0  0  0  0  0  0  0  0  0  0
   -0.4824   -0.0775    0.0000 C   0  0  0  0  0  0  0  0  0  0  0  0
    2.4808    2.4034    0.0000 C   0  0  0  0  0  0  0  0  0  0  0  0
   -0.4824    1.5592    0.0000 C   0  0  0  0  0  0  0  0  0  0  0  0
   -1.2232    0.3360    0.0000 C   0  0  0  0  0  0  0  0  0  0  0  0
   -1.2059    1.1629    0.0000 C   0  0  0  0  0  0  0  0  0  0  0  0
    4.8583    1.0251    0.0000 C   0  0  0  0  0  0  0  0  0  0  0  0
    5.6680    0.9217    0.0000 C   0  0  0  0  0  0  0  0  0  0  0  0
    4.3932    0.3015    0.0000 C   0  0  0  0  0  0  0  0  0  0  0  0
   -2.6704    0.3188    0.0000 C   0  0  0  0  0  0  0  0  0  0  0  0
   -3.3940   -0.0775    0.0000 C   0  0  0  0  0  0  0  0  0  0  0  0
    6.0126    0.1292    0.0000 C   0  0  0  0  0  0  0  0  0  0  0  0
   -4.8411   -0.9217    0.0000 C   0  0  0  0  0  0  0  0  0  0  0  0
    4.7033   -0.4221    0.0000 C   0  0  0  0  0  0  0  0  0  0  0  0
   -5.5302   -1.3352    0.0000 C   0  0  0  0  0  0  0  0  0  0  0  0
   -4.0831    0.3015    0.0000 C   0  0  0  0  0  0  0  0  0  0  0  0
   -3.3940   -0.9217    0.0000 C   0  0  0  0  0  0  0  0  0  0  0  0
    5.5475   -0.5082    0.0000 C   0  0  0  0  0  0  0  0  0  0  0  0
   -4.8067   -0.0775    0.0000 C   0  0  0  0  0  0  0  0  0  0  0  0
   -4.1003   -1.3352    0.0000 C   0  0  0  0  0  0  0  0  0  0  0  0
   -6.2366   -0.9389    0.0000 C   0  0  0  0  0  0  0  0  0  0  0  0
   -5.5475   -2.1793    0.0000 C   0  0  0  0  0  0  0  0  0  0  0  0
    6.9774    1.4902    0.0000 C   0  0  0  0  0  0  0  0  0  0  0  0
   -6.9774   -1.3352    0.0000 C   0  0  0  0  0  0  0  0  0  0  0  0
   -6.2711   -2.5756    0.0000 C   0  0  0  0  0  0  0  0  0  0  0  0
   -6.9774   -2.1793    0.0000 C   0  0  0  0  0  0  0  0  0  0  0  0
  1 14  1  0  0  0  0
  1 16  1  0  0  0  0
  2 11  1  0  0  0  0
  2 12  1  0  0  0  0
  3 12  2  0  0  0  0
  4 18  1  0  0  0  0
  4 23  1  0  0  0  0
  5 21  1  0  0  0  0
  5 36  1  0  0  0  0
  6 10  1  0  0  0  0
  6 14  2  0  0  0  0
  7 14  1  0  0  0  0
  7 20  1  0  0  0  0
  8 10  1  0  0  0  0
  8 12  1  0  0  0  0
  8 13  2  0  0  0  0
  9 11  1  0  0  0  0
  9 13  1  0  0  0  0
  9 17  2  0  0  0  0
 10 16  2  0  0  0  0
 11 15  2  0  0  0  0
 15 18  1  0  0  0  0
 17 19  1  0  0  0  0
 18 19  2  0  0  0  0
 20 21  1  0  0  0  0
 20 22  2  0  0  0  0
 21 25  2  0  0  0  0
 22 27  1  0  0  0  0
 23 24  1  0  0  0  0
 24 29  2  0  0  0  0
 24 30  1  0  0  0  0
 25 31  1  0  0  0  0
 26 28  1  0  0  0  0
 26 32  2  0  0  0  0
 26 33  1  0  0  0  0
 27 31  2  0  0  0  0
 28 34  2  0  0  0  0
 28 35  1  0  0  0  0
 29 32  1  0  0  0  0
 30 33  2  0  0  0  0
 34 37  1  0  0  0  0
 35 38  2  0  0  0  0
 37 39  2  0  0  0  0
 38 39  1  0  0  0  0
M  END
> <PUBCHEM_COMPOUND_ID_TYPE>
0

> <PUBCHEM_TOTAL_CHARGE>
0

> <PUBCHEM_SUBSTANCE_ID>
310941552

> <PUBCHEM_SUBSTANCE_VERSION>
1

> <PUBCHEM_EXT_DATASOURCE_NAME>
4488

> <PUBCHEM_EXT_DATASOURCE_REGID>
SCHEMBL16119583

> <PUBCHEM_SUBSTANCE_COMMENT>
InChI=1S/C32H24N2O4S/c1-36-29-10-6-5-9-27(29)33-32-34-28(20-39-32)26-17-24-15-16-25(18-30(24)38-31(26)35)37-19-21-11-13-23(14-12-21)22-7-3-2-4-8-22/h2-18,20H,19H2,1H3,(H,33,34)
InChIKey=HDJYAXCNZQQZAT-UHFFFAOYSA-N

> <PUBCHEM_SUBSTANCE_SYNONYM>
SCHEMBL16119583

> <PUBCHEM_XREF_EXT_ID>
SCHEMBL16119583

> <PUBCHEM_EXT_DATASOURCE_URL>
https://www.surechembl.org/

> <PUBCHEM_EXT_SUBSTANCE_URL>
https://www.surechembl.org/chemical/SCHEMBL16119583

> <PUBCHEM_CID_ASSOCIATIONS>
117608358  1

> <PUBCHEM_COORDINATE_TYPE>
1
3

$$$$
