310943215
  -OEChem-07211613022D

 35 38  0     0  0  0  0  0  0999 V2000
   -4.2977   -1.4545    0.0000 O   0  0  0  0  0  0  0  0  0  0  0  0
    1.4179    1.0452    0.0000 O   0  0  0  0  0  0  0  0  0  0  0  0
   -5.7303    1.0452    0.0000 O   0  0  0  0  0  0  0  0  0  0  0  0
   -4.2977    0.2120    0.0000 N   0  0  0  0  0  0  0  0  0  0  0  0
   -2.1634   -1.0305    0.0000 N   0  0  0  0  0  0  0  0  0  0  0  0
   -2.8651   -1.4545    0.0000 N   0  0  0  0  0  0  0  0  0  0  0  0
    0.7016   -0.1973    0.0000 N   0  0  0  0  0  0  0  0  0  0  0  0
    3.5668   -1.0452    0.0000 N   0  0  0  0  0  0  0  0  0  0  0  0
    2.8797   -1.4691    0.0000 N   0  0  0  0  0  0  0  0  0  0  0  0
    5.7303   -0.5920    0.0000 N   0  0  0  0  0  0  0  0  0  0  0  0
   -2.1488   -0.1973    0.0000 C   0  0  0  0  0  0  0  0  0  0  0  0
   -1.4472    0.2266    0.0000 C   0  0  0  0  0  0  0  0  0  0  0  0
   -3.5814   -0.1973    0.0000 C   0  0  0  0  0  0  0  0  0  0  0  0
   -2.8797    0.2120    0.0000 C   0  0  0  0  0  0  0  0  0  0  0  0
   -3.5960   -1.0305    0.0000 C   0  0  0  0  0  0  0  0  0  0  0  0
   -1.4325    1.0452    0.0000 C   0  0  0  0  0  0  0  0  0  0  0  0
   -0.7163   -0.1973    0.0000 C   0  0  0  0  0  0  0  0  0  0  0  0
   -0.0146    0.2266    0.0000 C   0  0  0  0  0  0  0  0  0  0  0  0
    3.5668   -0.1973    0.0000 C   0  0  0  0  0  0  0  0  0  0  0  0
    2.1342   -0.1973    0.0000 C   0  0  0  0  0  0  0  0  0  0  0  0
    4.3270    0.2412    0.0000 C   0  0  0  0  0  0  0  0  0  0  0  0
    1.4033    0.1973    0.0000 C   0  0  0  0  0  0  0  0  0  0  0  0
   -0.7309    1.4545    0.0000 C   0  0  0  0  0  0  0  0  0  0  0  0
   -0.0146    1.0452    0.0000 C   0  0  0  0  0  0  0  0  0  0  0  0
    2.8213    0.2120    0.0000 C   0  0  0  0  0  0  0  0  0  0  0  0
   -4.2977    1.0598    0.0000 C   0  0  0  0  0  0  0  0  0  0  0  0
   -5.0140   -0.1973    0.0000 C   0  0  0  0  0  0  0  0  0  0  0  0
    2.1342   -1.0305    0.0000 C   0  0  0  0  0  0  0  0  0  0  0  0
   -2.1634    1.4545    0.0000 C   0  0  0  0  0  0  0  0  0  0  0  0
    5.0140   -0.1827    0.0000 C   0  0  0  0  0  0  0  0  0  0  0  0
   -5.0286    1.4691    0.0000 C   0  0  0  0  0  0  0  0  0  0  0  0
   -5.7303    0.2120    0.0000 C   0  0  0  0  0  0  0  0  0  0  0  0
    4.3123    1.0890    0.0000 C   0  0  0  0  0  0  0  0  0  0  0  0
    5.0432    0.6359    0.0000 C   0  0  0  0  0  0  0  0  0  0  0  0
   -5.0286   -1.0452    0.0000 C   0  0  0  0  0  0  0  0  0  0  0  0
  1 15  1  0  0  0  0
  1 35  1  0  0  0  0
  2 22  2  0  0  0  0
  3 31  1  0  0  0  0
  3 32  1  0  0  0  0
  4 13  1  0  0  0  0
  4 26  1  0  0  0  0
  4 27  1  0  0  0  0
  5  6  1  0  0  0  0
  5 11  2  0  0  0  0
  6 15  2  0  0  0  0
  7 18  1  0  0  0  0
  7 22  1  0  0  0  0
  8  9  1  0  0  0  0
  8 19  2  0  0  0  0
  9 28  2  0  0  0  0
 10 30  3  0  0  0  0
 11 12  1  0  0  0  0
 11 14  1  0  0  0  0
 12 16  2  0  0  0  0
 12 17  1  0  0  0  0
 13 14  2  0  0  0  0
 13 15  1  0  0  0  0
 16 23  1  0  0  0  0
 16 29  1  0  0  0  0
 17 18  2  0  0  0  0
 18 24  1  0  0  0  0
 19 21  1  0  0  0  0
 19 25  1  0  0  0  0
 20 22  1  0  0  0  0
 20 25  2  0  0  0  0
 20 28  1  0  0  0  0
 21 30  1  0  0  0  0
 21 33  1  0  0  0  0
 21 34  1  0  0  0  0
 23 24  2  0  0  0  0
 26 31  1  0  0  0  0
 27 32  1  0  0  0  0
M  END
> <PUBCHEM_COMPOUND_ID_TYPE>
0

> <PUBCHEM_TOTAL_CHARGE>
0

> <PUBCHEM_SUBSTANCE_ID>
310943215

> <PUBCHEM_SUBSTANCE_VERSION>
1

> <PUBCHEM_EXT_DATASOURCE_NAME>
4488

> <PUBCHEM_EXT_DATASOURCE_REGID>
SCHEMBL16121276

> <PUBCHEM_SUBSTANCE_COMMENT>
InChI=1S/C25H27N7O3/c1-16-5-6-18(28-23(33)17-11-22(30-27-14-17)25(2,3)15-26)12-19(16)20-13-21(24(34-4)31-29-20)32-7-9-35-10-8-32/h5-6,11-14H,7-10H2,1-4H3,(H,28,33)
InChIKey=VTHNGQWBKWIXPC-UHFFFAOYSA-N

> <PUBCHEM_SUBSTANCE_SYNONYM>
SCHEMBL16121276

> <PUBCHEM_XREF_EXT_ID>
SCHEMBL16121276

> <PUBCHEM_EXT_DATASOURCE_URL>
https://www.surechembl.org/

> <PUBCHEM_EXT_SUBSTANCE_URL>
https://www.surechembl.org/chemical/SCHEMBL16121276

> <PUBCHEM_CID_ASSOCIATIONS>
117609641  1

> <PUBCHEM_COORDINATE_TYPE>
1
3

$$$$
