310928681
  -OEChem-07211613022D

 11 12  0     0  0  0  0  0  0999 V2000
   -0.6348   -1.6500    0.0000 O   0  0  0  0  0  0  0  0  0  0  0  0
   -0.6348    1.6500    0.0000 O   0  0  0  0  0  0  0  0  0  0  0  0
    0.8643   -0.6674    0.0000 N   0  0  0  0  0  0  0  0  0  0  0  0
    0.8643    0.6674    0.0000 N   0  0  0  0  0  0  0  0  0  0  0  0
   -1.3492   -0.4125    0.0000 N   0  0  0  0  0  0  0  0  0  0  0  0
   -1.3492    0.4125    0.0000 N   0  0  0  0  0  0  0  0  0  0  0  0
    0.0797   -0.4125    0.0000 C   0  0  0  0  0  0  0  0  0  0  0  0
    0.0797    0.4125    0.0000 C   0  0  0  0  0  0  0  0  0  0  0  0
   -0.6348   -0.8250    0.0000 C   0  0  0  0  0  0  0  0  0  0  0  0
   -0.6348    0.8250    0.0000 C   0  0  0  0  0  0  0  0  0  0  0  0
    1.3492   -0.0000    0.0000 C   0  0  0  0  0  0  0  0  0  0  0  0
  1  9  2  0  0  0  0
  2 10  2  0  0  0  0
  3  7  1  0  0  0  0
  3 11  2  0  0  0  0
  4  8  1  0  0  0  0
  4 11  1  0  0  0  0
  5  6  1  0  0  0  0
  5  9  1  0  0  0  0
  6 10  1  0  0  0  0
  7  8  2  0  0  0  0
  7  9  1  0  0  0  0
  8 10  1  0  0  0  0
M  END
> <PUBCHEM_COMPOUND_ID_TYPE>
0

> <PUBCHEM_TOTAL_CHARGE>
0

> <PUBCHEM_SUBSTANCE_ID>
310928681

> <PUBCHEM_SUBSTANCE_VERSION>
1

> <PUBCHEM_EXT_DATASOURCE_NAME>
11752

> <PUBCHEM_EXT_DATASOURCE_REGID>
BD271022

> <PUBCHEM_SUBSTANCE_SYNONYM>
5,6-Dihydro-1H-imidazo[4,5-d]pyridazine-4,7-dione
6293-09-0

> <PUBCHEM_GENERIC_REGISTRY_NAME>
6293-09-0

> <PUBCHEM_XREF_EXT_ID>
BD271022

> <PUBCHEM_EXT_DATASOURCE_URL>
http://www.bidepharmatech.com/en/index.html

> <PUBCHEM_EXT_SUBSTANCE_URL>
http://www.bidepharmatech.com/en/goodsview_goodscode_BD271022.html

> <PUBCHEM_CID_ASSOCIATIONS>
222923  1

> <PUBCHEM_COORDINATE_TYPE>
1
3

$$$$
