310936723
  -OEChem-07211613022D

 26 28  0     1  0  0  0  0  0999 V2000
    0.8838    0.7541    0.0000 O   0  0  0  0  0  0  0  0  0  0  0  0
    6.2102   -2.7604    0.0000 O   0  0  0  0  0  0  0  0  0  0  0  0
    2.6378   -3.9979    0.0000 O   0  0  0  0  0  0  0  0  0  0  0  0
    1.2089   -3.9979    0.0000 O   0  0  0  0  0  0  0  0  0  0  0  0
    4.0668   -3.9979    0.0000 O   0  0  0  0  0  0  0  0  0  0  0  0
    1.9233   -2.7604    0.0000 N   0  0  0  0  0  0  0  0  0  0  0  0
    1.9233   -0.2854    0.0000 C   0  0  3  0  0  0  0  0  0  0  0  0
    1.9233   -1.1104    0.0000 C   0  0  3  0  0  0  0  0  0  0  0  0
    2.6378   -1.5229    0.0000 C   0  0  3  0  0  0  0  0  0  0  0  0
    3.3523   -1.1104    0.0000 C   0  0  3  0  0  0  0  0  0  0  0  0
    1.1387   -0.0305    0.0000 C   0  0  0  0  0  0  0  0  0  0  0  0
    2.6378    0.1271    0.0000 C   0  0  0  0  0  0  0  0  0  0  0  0
    4.0668   -1.5229    0.0000 C   0  0  3  0  0  0  0  0  0  0  0  0
    1.1387   -1.3654    0.0000 C   0  0  0  0  0  0  0  0  0  0  0  0
    3.3523   -0.2854    0.0000 C   0  0  0  0  0  0  0  0  0  0  0  0
    0.6538   -0.6979    0.0000 C   0  0  0  0  0  0  0  0  0  0  0  0
    1.8371    0.5350    0.0000 C   0  0  0  0  0  0  0  0  0  0  0  0
    2.6378   -2.3479    0.0000 C   0  0  0  0  0  0  0  0  0  0  0  0
    4.0668   -2.3479    0.0000 C   0  0  3  0  0  0  0  0  0  0  0  0
    4.7812   -1.1104    0.0000 C   0  0  0  0  0  0  0  0  0  0  0  0
    4.7812   -2.7604    0.0000 C   0  0  0  0  0  0  0  0  0  0  0  0
    5.4957   -2.3479    0.0000 C   0  0  3  0  0  0  0  0  0  0  0  0
    5.4957   -1.5229    0.0000 C   0  0  0  0  0  0  0  0  0  0  0  0
    3.3523   -2.7604    0.0000 C   0  0  0  0  0  0  0  0  0  0  0  0
    1.9233   -3.5854    0.0000 C   0  0  0  0  0  0  0  0  0  0  0  0
    3.3523   -3.5854    0.0000 C   0  0  0  0  0  0  0  0  0  0  0  0
  1 11  2  0  0  0  0
 22  2  1  6  0  0  0
  3 25  2  0  0  0  0
  4 25  1  0  0  0  0
  5 26  1  0  0  0  0
  6 18  1  0  0  0  0
  6 25  1  0  0  0  0
  7  8  1  0  0  0  0
  7 11  1  0  0  0  0
  7 12  1  0  0  0  0
  7 17  1  6  0  0  0
  8  9  1  0  0  0  0
  8 14  1  6  0  0  0
  9 10  1  0  0  0  0
  9 18  1  1  0  0  0
 10 13  1  0  0  0  0
 10 15  1  6  0  0  0
 11 16  1  0  0  0  0
 12 15  1  0  0  0  0
 13 19  1  0  0  0  0
 13 20  1  6  0  0  0
 14 16  1  0  0  0  0
 19 21  1  0  0  0  0
 19 24  1  6  0  0  0
 20 23  1  0  0  0  0
 21 22  1  0  0  0  0
 22 23  1  0  0  0  0
 24 26  1  0  0  0  0
M  END
> <PUBCHEM_COMPOUND_ID_TYPE>
0

> <PUBCHEM_TOTAL_CHARGE>
0

> <PUBCHEM_SUBSTANCE_ID>
310936723

> <PUBCHEM_SUBSTANCE_VERSION>
1

> <PUBCHEM_EXT_DATASOURCE_NAME>
4488

> <PUBCHEM_EXT_DATASOURCE_REGID>
SCHEMBL16114402

> <PUBCHEM_SUBSTANCE_COMMENT>
InChI=1S/C20H33NO5/c1-20-8-6-15(14-3-2-13(23)10-12(14)7-9-22)16(11-21-19(25)26)17(20)4-5-18(20)24/h12-17,21-23H,2-11H2,1H3,(H,25,26)/t12-,13-,14+,15+,16+,17-,20-/m0/s1
InChIKey=SVNVDXDMYHHCGX-FYALYEGMSA-N

> <PUBCHEM_SUBSTANCE_SYNONYM>
SCHEMBL16114402

> <PUBCHEM_XREF_EXT_ID>
SCHEMBL16114402

> <PUBCHEM_EXT_DATASOURCE_URL>
https://www.surechembl.org/

> <PUBCHEM_EXT_SUBSTANCE_URL>
https://www.surechembl.org/chemical/SCHEMBL16114402

> <PUBCHEM_CID_ASSOCIATIONS>
117604623  1

> <PUBCHEM_COORDINATE_TYPE>
1
3

> <PUBCHEM_BONDANNOTATIONS>
10  15  6
13  20  6
19  24  6
22  2  6
7  17  6
8  14  6
9  18  5

$$$$
