310934471
  -OEChem-07211613022D

 30 33  0     0  0  0  0  0  0999 V2000
    3.7192   -6.3191    0.0000 S   0  0  0  0  0  0  0  0  0  0  0  0
    2.6721   -0.4333    0.0000 O   0  0  0  0  0  0  0  0  0  0  0  0
    0.0000   -5.5608    0.0000 O   0  0  0  0  0  0  0  0  0  0  0  0
    3.7192   -7.2218    0.0000 O   0  0  0  0  0  0  0  0  0  0  0  0
    3.7192   -5.5247    0.0000 O   0  0  0  0  0  0  0  0  0  0  0  0
    0.0000   -4.1525    0.0000 N   0  0  0  0  0  0  0  0  0  0  0  0
    4.5137   -6.3191    0.0000 N   0  0  0  0  0  0  0  0  0  0  0  0
    1.9860    0.0000    0.0000 N   0  0  0  0  0  0  0  0  0  0  0  0
    1.2277   -4.8747    0.0000 C   0  0  0  0  0  0  0  0  0  0  0  0
    1.2638   -3.4304    0.0000 C   0  0  0  0  0  0  0  0  0  0  0  0
    0.4333   -3.4304    0.0000 C   0  0  0  0  0  0  0  0  0  0  0  0
    1.2638   -2.0221    0.0000 C   0  0  0  0  0  0  0  0  0  0  0  0
    1.6249   -5.5969    0.0000 C   0  0  0  0  0  0  0  0  0  0  0  0
    1.6972   -1.2999    0.0000 C   0  0  0  0  0  0  0  0  0  0  0  0
    0.3972   -4.8747    0.0000 C   0  0  0  0  0  0  0  0  0  0  0  0
    1.6610   -4.1525    0.0000 C   0  0  0  0  0  0  0  0  0  0  0  0
    2.8887   -6.3191    0.0000 C   0  0  0  0  0  0  0  0  0  0  0  0
    1.6972   -2.7443    0.0000 C   0  0  0  0  0  0  0  0  0  0  0  0
    2.4554   -5.5969    0.0000 C   0  0  0  0  0  0  0  0  0  0  0  0
    2.5277   -1.2277    0.0000 C   0  0  0  0  0  0  0  0  0  0  0  0
    1.3722   -0.5416    0.0000 C   0  0  0  0  0  0  0  0  0  0  0  0
    0.0361   -2.7443    0.0000 C   0  0  0  0  0  0  0  0  0  0  0  0
    0.4694   -2.0221    0.0000 C   0  0  0  0  0  0  0  0  0  0  0  0
    1.1916   -6.3191    0.0000 C   0  0  0  0  0  0  0  0  0  0  0  0
    2.4554   -7.0052    0.0000 C   0  0  0  0  0  0  0  0  0  0  0  0
    1.6249   -7.0052    0.0000 C   0  0  0  0  0  0  0  0  0  0  0  0
    3.0693   -1.8416    0.0000 C   0  0  0  0  0  0  0  0  0  0  0  0
    0.5777   -0.3611    0.0000 C   0  0  0  0  0  0  0  0  0  0  0  0
    4.9108   -7.0412    0.0000 C   0  0  0  0  0  0  0  0  0  0  0  0
    4.9108   -5.5969    0.0000 C   0  0  0  0  0  0  0  0  0  0  0  0
  1  4  2  0  0  0  0
  1  5  2  0  0  0  0
  1  7  1  0  0  0  0
  1 17  1  0  0  0  0
  2  8  1  0  0  0  0
  2 20  1  0  0  0  0
  3 15  2  0  0  0  0
  6 11  1  0  0  0  0
  6 15  1  0  0  0  0
  7 29  1  0  0  0  0
  7 30  1  0  0  0  0
  8 21  2  0  0  0  0
  9 13  1  0  0  0  0
  9 15  1  0  0  0  0
  9 16  2  0  0  0  0
 10 11  2  0  0  0  0
 10 16  1  0  0  0  0
 10 18  1  0  0  0  0
 11 22  1  0  0  0  0
 12 14  1  0  0  0  0
 12 18  2  0  0  0  0
 12 23  1  0  0  0  0
 13 19  2  0  0  0  0
 13 24  1  0  0  0  0
 14 20  2  0  0  0  0
 14 21  1  0  0  0  0
 17 19  1  0  0  0  0
 17 25  2  0  0  0  0
 20 27  1  0  0  0  0
 21 28  1  0  0  0  0
 22 23  2  0  0  0  0
 24 26  2  0  0  0  0
 25 26  1  0  0  0  0
M  END
> <PUBCHEM_COMPOUND_ID_TYPE>
0

> <PUBCHEM_TOTAL_CHARGE>
0

> <PUBCHEM_SUBSTANCE_ID>
310934471

> <PUBCHEM_SUBSTANCE_VERSION>
1

> <PUBCHEM_EXT_DATASOURCE_NAME>
4488

> <PUBCHEM_EXT_DATASOURCE_REGID>
SCHEMBL16111951

> <PUBCHEM_SUBSTANCE_COMMENT>
InChI=1S/C22H21N3O4S/c1-13-21(14(2)29-24-13)16-8-9-20-17(10-16)12-19(22(26)23-20)15-6-5-7-18(11-15)30(27,28)25(3)4/h5-12H,1-4H3,(H,23,26)
InChIKey=QYDLHAAXKQOUGT-UHFFFAOYSA-N

> <PUBCHEM_SUBSTANCE_SYNONYM>
SCHEMBL16111951

> <PUBCHEM_XREF_EXT_ID>
SCHEMBL16111951

> <PUBCHEM_EXT_DATASOURCE_URL>
https://www.surechembl.org/

> <PUBCHEM_EXT_SUBSTANCE_URL>
https://www.surechembl.org/chemical/SCHEMBL16111951

> <PUBCHEM_CID_ASSOCIATIONS>
117602676  1

> <PUBCHEM_COORDINATE_TYPE>
1
3

$$$$
