310945200
  -OEChem-07211613022D

 34 40  0     0  0  0  0  0  0999 V2000
    3.2212    2.3996    0.0000 O   0  0  0  0  0  0  0  0  0  0  0  0
   -2.9037   -2.3996    0.0000 O   0  0  0  0  0  0  0  0  0  0  0  0
   -4.7523   -0.0467    0.0000 O   0  0  0  0  0  0  0  0  0  0  0  0
    1.7086    0.1214    0.0000 N   0  0  0  0  0  0  0  0  0  0  0  0
    3.9494    1.1858    0.0000 N   0  0  0  0  0  0  0  0  0  0  0  0
   -1.2791    1.0364    0.0000 N   0  0  0  0  0  0  0  0  0  0  0  0
   -3.5759   -0.8683    0.0000 N   0  0  0  0  0  0  0  0  0  0  0  0
   -1.5779   -1.8020    0.0000 N   0  0  0  0  0  0  0  0  0  0  0  0
    3.9494    0.3642    0.0000 C   0  0  0  0  0  0  0  0  0  0  0  0
    2.4928    1.1858    0.0000 C   0  0  0  0  0  0  0  0  0  0  0  0
    2.4742    0.3642    0.0000 C   0  0  0  0  0  0  0  0  0  0  0  0
    1.6899    1.4472    0.0000 C   0  0  0  0  0  0  0  0  0  0  0  0
    1.2231    0.7749    0.0000 C   0  0  0  0  0  0  0  0  0  0  0  0
    3.2398   -0.0467    0.0000 C   0  0  0  0  0  0  0  0  0  0  0  0
    3.2212    1.5779    0.0000 C   0  0  0  0  0  0  0  0  0  0  0  0
    0.3828    0.8870    0.0000 C   0  0  0  0  0  0  0  0  0  0  0  0
    4.7523    0.3455    0.0000 C   0  0  0  0  0  0  0  0  0  0  0  0
    4.3602   -0.3081    0.0000 C   0  0  0  0  0  0  0  0  0  0  0  0
    0.0467    1.6152    0.0000 C   0  0  0  0  0  0  0  0  0  0  0  0
    1.3538    2.1755    0.0000 C   0  0  0  0  0  0  0  0  0  0  0  0
   -0.1027    0.1961    0.0000 C   0  0  0  0  0  0  0  0  0  0  0  0
   -0.9430    0.3081    0.0000 C   0  0  0  0  0  0  0  0  0  0  0  0
    0.5508    2.2688    0.0000 C   0  0  0  0  0  0  0  0  0  0  0  0
   -1.4285   -0.3828    0.0000 C   0  0  0  0  0  0  0  0  0  0  0  0
   -0.7749    1.6899    0.0000 C   0  0  0  0  0  0  0  0  0  0  0  0
   -2.7543   -0.9617    0.0000 C   0  0  0  0  0  0  0  0  0  0  0  0
   -2.2502   -0.3081    0.0000 C   0  0  0  0  0  0  0  0  0  0  0  0
   -2.4182   -1.6899    0.0000 C   0  0  0  0  0  0  0  0  0  0  0  0
   -1.0924   -1.1297    0.0000 C   0  0  0  0  0  0  0  0  0  0  0  0
   -3.9120   -0.1401    0.0000 C   0  0  0  0  0  0  0  0  0  0  0  0
   -4.0614   -1.5592    0.0000 C   0  0  0  0  0  0  0  0  0  0  0  0
   -3.7253   -2.2875    0.0000 C   0  0  0  0  0  0  0  0  0  0  0  0
   -3.4266    0.5508    0.0000 C   0  0  0  0  0  0  0  0  0  0  0  0
   -3.8374    1.2791    0.0000 C   0  0  0  0  0  0  0  0  0  0  0  0
  1 15  2  0  0  0  0
  2 28  1  0  0  0  0
  2 32  1  0  0  0  0
  3 30  2  0  0  0  0
  4 11  1  0  0  0  0
  4 13  1  0  0  0  0
  5  9  1  0  0  0  0
  5 15  1  0  0  0  0
  6 22  2  0  0  0  0
  6 25  1  0  0  0  0
  7 26  1  0  0  0  0
  7 30  1  0  0  0  0
  7 31  1  0  0  0  0
  8 28  1  0  0  0  0
  8 29  2  0  0  0  0
  9 14  1  0  0  0  0
  9 17  1  0  0  0  0
  9 18  1  0  0  0  0
 10 11  2  0  0  0  0
 10 12  1  0  0  0  0
 10 15  1  0  0  0  0
 11 14  1  0  0  0  0
 12 13  2  0  0  0  0
 12 20  1  0  0  0  0
 13 16  1  0  0  0  0
 16 19  1  0  0  0  0
 16 21  2  0  0  0  0
 17 18  1  0  0  0  0
 19 23  1  0  0  0  0
 19 25  2  0  0  0  0
 20 23  1  0  0  0  0
 21 22  1  0  0  0  0
 22 24  1  0  0  0  0
 24 27  2  0  0  0  0
 24 29  1  0  0  0  0
 26 27  1  0  0  0  0
 26 28  2  0  0  0  0
 30 33  1  0  0  0  0
 31 32  1  0  0  0  0
 33 34  2  0  0  0  0
M  END
> <PUBCHEM_COMPOUND_ID_TYPE>
0

> <PUBCHEM_TOTAL_CHARGE>
0

> <PUBCHEM_SUBSTANCE_ID>
310945200

> <PUBCHEM_SUBSTANCE_VERSION>
1

> <PUBCHEM_EXT_DATASOURCE_NAME>
4488

> <PUBCHEM_EXT_DATASOURCE_REGID>
SCHEMBL16123290

> <PUBCHEM_SUBSTANCE_COMMENT>
InChI=1S/C26H23N5O3/c1-2-21(32)31-7-8-34-25-20(31)9-15(13-28-25)18-10-17-14(12-27-18)3-4-16-22-19(29-23(16)17)11-26(5-6-26)30-24(22)33/h2,9-10,12-13,29H,1,3-8,11H2,(H,30,33)
InChIKey=RUSJKLNLNRTAEY-UHFFFAOYSA-N

> <PUBCHEM_SUBSTANCE_SYNONYM>
SCHEMBL16123290

> <PUBCHEM_XREF_EXT_ID>
SCHEMBL16123290

> <PUBCHEM_EXT_DATASOURCE_URL>
https://www.surechembl.org/

> <PUBCHEM_EXT_SUBSTANCE_URL>
https://www.surechembl.org/chemical/SCHEMBL16123290

> <PUBCHEM_CID_ASSOCIATIONS>
86300171  1

> <PUBCHEM_COORDINATE_TYPE>
1
3

$$$$
