310942077
  -OEChem-07211613022D

 21 22  0     0  0  0  0  0  0999 V2000
   -0.9999    1.7810    0.0000 O   0  0  0  0  0  0  0  0  0  0  0  0
    0.2250    1.0561    0.0000 O   0  0  0  0  0  0  0  0  0  0  0  0
    0.2125   -1.8310    0.0000 O   0  5  0  0  0  0  0  0  0  0  0  0
   -1.0249   -2.5434    0.0000 O   0  0  0  0  0  0  0  0  0  0  0  0
   -0.6124   -1.8310    0.0000 N   0  3  0  0  0  0  0  0  0  0  0  0
    2.2497    1.7685    0.0000 N   0  0  0  0  0  0  0  0  0  0  0  0
   -0.6249   -0.3562    0.0000 C   0  0  0  0  0  0  0  0  0  0  0  0
   -1.0249    0.3437    0.0000 C   0  0  0  0  0  0  0  0  0  0  0  0
   -1.0374   -1.0936    0.0000 C   0  0  0  0  0  0  0  0  0  0  0  0
    0.2000   -0.3687    0.0000 C   0  0  0  0  0  0  0  0  0  0  0  0
   -0.6249    1.0936    0.0000 C   0  0  0  0  0  0  0  0  0  0  0  0
   -1.8248    0.3562    0.0000 C   0  0  0  0  0  0  0  0  0  0  0  0
   -1.8498   -1.0811    0.0000 C   0  0  0  0  0  0  0  0  0  0  0  0
    0.6249    0.3437    0.0000 C   0  0  0  0  0  0  0  0  0  0  0  0
    0.6124   -1.0936    0.0000 C   0  0  0  0  0  0  0  0  0  0  0  0
   -2.2497   -0.3687    0.0000 C   0  0  0  0  0  0  0  0  0  0  0  0
    1.4123    0.3312    0.0000 C   0  0  0  0  0  0  0  0  0  0  0  0
    1.4248   -1.0936    0.0000 C   0  0  0  0  0  0  0  0  0  0  0  0
    1.8248   -0.3937    0.0000 C   0  0  0  0  0  0  0  0  0  0  0  0
    1.8373    1.0561    0.0000 C   0  0  0  0  0  0  0  0  0  0  0  0
   -0.6000    2.5434    0.0000 C   0  0  0  0  0  0  0  0  0  0  0  0
  1 11  1  0  0  0  0
  1 21  1  0  0  0  0
  2 11  2  0  0  0  0
  3  5  1  0  0  0  0
  4  5  2  0  0  0  0
  5  9  1  0  0  0  0
  6 20  3  0  0  0  0
  7  8  2  0  0  0  0
  7  9  1  0  0  0  0
  7 10  1  0  0  0  0
  8 11  1  0  0  0  0
  8 12  1  0  0  0  0
  9 13  2  0  0  0  0
 10 14  1  0  0  0  0
 10 15  2  0  0  0  0
 12 16  2  0  0  0  0
 13 16  1  0  0  0  0
 14 17  2  0  0  0  0
 15 18  1  0  0  0  0
 17 19  1  0  0  0  0
 17 20  1  0  0  0  0
 18 19  2  0  0  0  0
M  CHG  2   3  -1   5   1
M  END
> <PUBCHEM_COMPOUND_ID_TYPE>
0

> <PUBCHEM_TOTAL_CHARGE>
0

> <PUBCHEM_SUBSTANCE_ID>
310942077

> <PUBCHEM_SUBSTANCE_VERSION>
1

> <PUBCHEM_EXT_DATASOURCE_NAME>
4488

> <PUBCHEM_EXT_DATASOURCE_REGID>
SCHEMBL16120112

> <PUBCHEM_SUBSTANCE_COMMENT>
InChI=1S/C15H10N2O4/c1-21-15(18)12-6-3-7-13(17(19)20)14(12)11-5-2-4-10(8-11)9-16/h2-8H,1H3
InChIKey=OZRRXKYQYHKLSE-UHFFFAOYSA-N

> <PUBCHEM_SUBSTANCE_SYNONYM>
SCHEMBL16120112

> <PUBCHEM_XREF_EXT_ID>
SCHEMBL16120112

> <PUBCHEM_EXT_DATASOURCE_URL>
https://www.surechembl.org/

> <PUBCHEM_EXT_SUBSTANCE_URL>
https://www.surechembl.org/chemical/SCHEMBL16120112

> <PUBCHEM_CID_ASSOCIATIONS>
117608746  1

> <PUBCHEM_COORDINATE_TYPE>
1
3

$$$$
