310941665
  -OEChem-07211613022D

 26 29  0     0  0  0  0  0  0999 V2000
   -4.4213   -0.8371    0.0000 Cl  0  0  0  0  0  0  0  0  0  0  0  0
    0.0685   -0.7914    0.0000 S   0  0  0  0  0  0  0  0  0  0  0  0
   -2.4884   -0.8371    0.0000 O   0  0  0  0  0  0  0  0  0  0  0  0
   -1.2404   -1.5372    0.0000 O   0  0  0  0  0  0  0  0  0  0  0  0
    0.0989    0.5327    0.0000 N   0  0  0  0  0  0  0  0  0  0  0  0
    1.6057   -0.9436    0.0000 N   0  0  0  0  0  0  0  0  0  0  0  0
   -1.2404   -0.1218    0.0000 C   0  0  0  0  0  0  0  0  0  0  0  0
   -0.3882   -0.1522    0.0000 C   0  0  0  0  0  0  0  0  0  0  0  0
   -2.8993   -0.1370    0.0000 C   0  0  0  0  0  0  0  0  0  0  0  0
   -2.4731    0.5936    0.0000 C   0  0  0  0  0  0  0  0  0  0  0  0
   -1.6513   -0.8371    0.0000 C   0  0  0  0  0  0  0  0  0  0  0  0
   -1.6361    0.5632    0.0000 C   0  0  0  0  0  0  0  0  0  0  0  0
    0.8447   -0.5479    0.0000 C   0  0  0  0  0  0  0  0  0  0  0  0
   -3.7211   -0.1370    0.0000 C   0  0  0  0  0  0  0  0  0  0  0  0
   -2.8993    1.3089    0.0000 C   0  0  0  0  0  0  0  0  0  0  0  0
    0.8751    0.3044    0.0000 C   0  0  0  0  0  0  0  0  0  0  0  0
   -4.1169    0.5784    0.0000 C   0  0  0  0  0  0  0  0  0  0  0  0
    2.2905   -0.5479    0.0000 C   0  0  0  0  0  0  0  0  0  0  0  0
   -3.7211    1.3089    0.0000 C   0  0  0  0  0  0  0  0  0  0  0  0
    3.0515   -0.9436    0.0000 C   0  0  0  0  0  0  0  0  0  0  0  0
    2.3209    0.3044    0.0000 C   0  0  0  0  0  0  0  0  0  0  0  0
    3.7516   -0.5327    0.0000 C   0  0  0  0  0  0  0  0  0  0  0  0
    3.0363    0.7154    0.0000 C   0  0  0  0  0  0  0  0  0  0  0  0
    3.7516    0.3044    0.0000 C   0  0  0  0  0  0  0  0  0  0  0  0
    4.4213   -0.9436    0.0000 C   0  0  0  0  0  0  0  0  0  0  0  0
    3.0363    1.5372    0.0000 C   0  0  0  0  0  0  0  0  0  0  0  0
  1 14  1  0  0  0  0
  2  8  1  0  0  0  0
  2 13  1  0  0  0  0
  3  9  1  0  0  0  0
  3 11  1  0  0  0  0
  4 11  2  0  0  0  0
  5  8  2  0  0  0  0
  5 16  1  0  0  0  0
  6 13  1  0  0  0  0
  6 18  1  0  0  0  0
  7  8  1  0  0  0  0
  7 11  1  0  0  0  0
  7 12  2  0  0  0  0
  9 10  1  0  0  0  0
  9 14  2  0  0  0  0
 10 12  1  0  0  0  0
 10 15  2  0  0  0  0
 13 16  2  0  0  0  0
 14 17  1  0  0  0  0
 15 19  1  0  0  0  0
 17 19  2  0  0  0  0
 18 20  2  0  0  0  0
 18 21  1  0  0  0  0
 20 22  1  0  0  0  0
 21 23  2  0  0  0  0
 22 24  2  0  0  0  0
 22 25  1  0  0  0  0
 23 24  1  0  0  0  0
 23 26  1  0  0  0  0
M  END
> <PUBCHEM_COMPOUND_ID_TYPE>
0

> <PUBCHEM_TOTAL_CHARGE>
0

> <PUBCHEM_SUBSTANCE_ID>
310941665

> <PUBCHEM_SUBSTANCE_VERSION>
1

> <PUBCHEM_EXT_DATASOURCE_NAME>
4488

> <PUBCHEM_EXT_DATASOURCE_REGID>
SCHEMBL16119696

> <PUBCHEM_SUBSTANCE_COMMENT>
InChI=1S/C20H15ClN2O2S/c1-11-6-12(2)8-14(7-11)23-17-10-22-19(26-17)15-9-13-4-3-5-16(21)18(13)25-20(15)24/h3-10,23H,1-2H3
InChIKey=DGHSHNVQRIOFRW-UHFFFAOYSA-N

> <PUBCHEM_SUBSTANCE_SYNONYM>
SCHEMBL16119696

> <PUBCHEM_XREF_EXT_ID>
SCHEMBL16119696

> <PUBCHEM_EXT_DATASOURCE_URL>
https://www.surechembl.org/

> <PUBCHEM_EXT_SUBSTANCE_URL>
https://www.surechembl.org/chemical/SCHEMBL16119696

> <PUBCHEM_CID_ASSOCIATIONS>
117608447  1

> <PUBCHEM_COORDINATE_TYPE>
1
3

$$$$
