310929159
  -OEChem-07211613022D

 26 27  0     0  0  0  0  0  0999 V2000
    2.8537   -2.8537    0.0000 O   0  0  0  0  0  0  0  0  0  0  0  0
    5.0113   -4.1065    0.0000 O   0  0  0  0  0  0  0  0  0  0  0  0
    0.7308   -2.4709    0.0000 O   0  0  0  0  0  0  0  0  0  0  0  0
    4.2805   -2.8537    0.0000 O   0  0  0  0  0  0  0  0  0  0  0  0
    2.3317   -2.6101    0.0000 O   0  0  0  0  0  0  0  0  0  0  0  0
    1.4269   -3.6889    0.0000 N   0  0  0  0  0  0  0  0  0  0  0  0
    2.8537   -3.6889    0.0000 C   0  0  0  0  0  0  0  0  0  0  0  0
    3.5845   -4.1065    0.0000 C   0  0  0  0  0  0  0  0  0  0  0  0
    2.1577   -4.1065    0.0000 C   0  0  0  0  0  0  0  0  0  0  0  0
    2.8537   -5.3246    0.0000 C   0  0  0  0  0  0  0  0  0  0  0  0
    3.5845   -4.9070    0.0000 C   0  0  0  0  0  0  0  0  0  0  0  0
    2.1577   -4.9070    0.0000 C   0  0  0  0  0  0  0  0  0  0  0  0
    2.8537   -6.1598    0.0000 C   0  0  0  0  0  0  0  0  0  0  0  0
    4.2805   -3.6889    0.0000 C   0  0  0  0  0  0  0  0  0  0  0  0
    1.4269   -2.8885    0.0000 C   0  0  0  0  0  0  0  0  0  0  0  0
    2.0185   -6.1598    0.0000 C   0  0  0  0  0  0  0  0  0  0  0  0
    2.8537   -6.9602    0.0000 C   0  0  0  0  0  0  0  0  0  0  0  0
    3.6889   -6.1598    0.0000 C   0  0  0  0  0  0  0  0  0  0  0  0
    0.7308   -1.6357    0.0000 C   0  0  0  0  0  0  0  0  0  0  0  0
    2.1577   -2.4709    0.0000 C   0  0  0  0  0  0  0  0  0  0  0  0
    1.4269   -1.2181    0.0000 C   0  0  0  0  0  0  0  0  0  0  0  0
    0.0000   -1.2529    0.0000 C   0  0  0  0  0  0  0  0  0  0  0  0
    5.7074   -3.6889    0.0000 C   0  0  0  0  0  0  0  0  0  0  0  0
    1.4269   -0.3828    0.0000 C   0  0  0  0  0  0  0  0  0  0  0  0
    0.0000   -0.4176    0.0000 C   0  0  0  0  0  0  0  0  0  0  0  0
    0.6960    0.0000    0.0000 C   0  0  0  0  0  0  0  0  0  0  0  0
  1  7  1  0  0  0  0
  1 20  1  0  0  0  0
  2 14  1  0  0  0  0
  2 23  1  0  0  0  0
  3 15  1  0  0  0  0
  3 19  1  0  0  0  0
  4 14  2  0  0  0  0
  5 15  2  0  0  0  0
  6  9  1  0  0  0  0
  6 15  1  0  0  0  0
  7  8  2  0  0  0  0
  7  9  1  0  0  0  0
  8 11  1  0  0  0  0
  8 14  1  0  0  0  0
  9 12  2  0  0  0  0
 10 11  2  0  0  0  0
 10 12  1  0  0  0  0
 10 13  1  0  0  0  0
 13 16  1  0  0  0  0
 13 17  1  0  0  0  0
 13 18  1  0  0  0  0
 19 21  2  0  0  0  0
 19 22  1  0  0  0  0
 21 24  1  0  0  0  0
 22 25  2  0  0  0  0
 24 26  2  0  0  0  0
 25 26  1  0  0  0  0
M  END
> <PUBCHEM_COMPOUND_ID_TYPE>
0

> <PUBCHEM_TOTAL_CHARGE>
0

> <PUBCHEM_SUBSTANCE_ID>
310929159

> <PUBCHEM_SUBSTANCE_VERSION>
1

> <PUBCHEM_EXT_DATASOURCE_NAME>
4488

> <PUBCHEM_EXT_DATASOURCE_REGID>
SCHEMBL16106322

> <PUBCHEM_SUBSTANCE_COMMENT>
InChI=1S/C20H23NO5/c1-20(2,3)13-11-15(18(22)25-5)17(24-4)16(12-13)21-19(23)26-14-9-7-6-8-10-14/h6-12H,1-5H3,(H,21,23)
InChIKey=ODQLECYLDMTBGT-UHFFFAOYSA-N

> <PUBCHEM_SUBSTANCE_SYNONYM>
SCHEMBL16106322

> <PUBCHEM_XREF_EXT_ID>
SCHEMBL16106322

> <PUBCHEM_EXT_DATASOURCE_URL>
https://www.surechembl.org/

> <PUBCHEM_EXT_SUBSTANCE_URL>
https://www.surechembl.org/chemical/SCHEMBL16106322

> <PUBCHEM_CID_ASSOCIATIONS>
117598622  1

> <PUBCHEM_COORDINATE_TYPE>
1
3

$$$$
