310944036
  -OEChem-07211613022D

 21 22  0     0  0  0  0  0  0999 V2000
    0.6684    1.6212    0.0000 O   0  0  0  0  0  0  0  0  0  0  0  0
   -0.0284   -3.0860    0.0000 O   0  0  0  0  0  0  0  0  0  0  0  0
   -1.5074   -3.0007    0.0000 O   0  0  0  0  0  0  0  0  0  0  0  0
    0.0000   -1.5074    0.0000 N   0  0  0  0  0  0  0  0  0  0  0  0
   -0.7822   -1.7208    0.0000 N   0  0  0  0  0  0  0  0  0  0  0  0
   -0.0143    1.1377    0.0000 C   0  0  0  0  0  0  0  0  0  0  0  0
   -0.4124    2.4887    0.0000 C   0  0  0  0  0  0  0  0  0  0  0  0
   -0.6542    1.6497    0.0000 C   0  0  0  0  0  0  0  0  0  0  0  0
   -0.7111    0.6968    0.0000 C   0  0  0  0  0  0  0  0  0  0  0  0
    0.6826    0.6968    0.0000 C   0  0  0  0  0  0  0  0  0  0  0  0
    0.4124    2.4603    0.0000 C   0  0  0  0  0  0  0  0  0  0  0  0
   -0.0143   -0.5973    0.0000 C   0  0  0  0  0  0  0  0  0  0  0  0
   -0.7111   -0.1564    0.0000 C   0  0  0  0  0  0  0  0  0  0  0  0
    0.6826   -0.1707    0.0000 C   0  0  0  0  0  0  0  0  0  0  0  0
   -1.2373    2.4745    0.0000 C   0  0  0  0  0  0  0  0  0  0  0  0
   -0.4124    3.3846    0.0000 C   0  0  0  0  0  0  0  0  0  0  0  0
   -0.7822   -2.6025    0.0000 C   0  0  0  0  0  0  0  0  0  0  0  0
    0.7538   -2.7020    0.0000 C   0  0  0  0  0  0  0  0  0  0  0  0
    1.1519   -3.3846    0.0000 C   0  0  0  0  0  0  0  0  0  0  0  0
    0.3698   -2.0052    0.0000 C   0  0  0  0  0  0  0  0  0  0  0  0
    1.5074   -2.2896    0.0000 C   0  0  0  0  0  0  0  0  0  0  0  0
  1  6  1  0  0  0  0
  1 11  1  0  0  0  0
  2 17  1  0  0  0  0
  2 18  1  0  0  0  0
  3 17  2  0  0  0  0
  4  5  1  0  0  0  0
  4 12  1  0  0  0  0
  5 17  1  0  0  0  0
  6  8  1  0  0  0  0
  6  9  1  0  0  0  0
  6 10  1  0  0  0  0
  7  8  1  0  0  0  0
  7 11  1  0  0  0  0
  7 15  1  0  0  0  0
  7 16  1  0  0  0  0
  9 13  1  0  0  0  0
 10 14  1  0  0  0  0
 12 13  1  0  0  0  0
 12 14  1  0  0  0  0
 18 19  1  0  0  0  0
 18 20  1  0  0  0  0
 18 21  1  0  0  0  0
M  END
> <PUBCHEM_COMPOUND_ID_TYPE>
0

> <PUBCHEM_TOTAL_CHARGE>
0

> <PUBCHEM_SUBSTANCE_ID>
310944036

> <PUBCHEM_SUBSTANCE_VERSION>
1

> <PUBCHEM_EXT_DATASOURCE_NAME>
4488

> <PUBCHEM_EXT_DATASOURCE_REGID>
SCHEMBL16122109

> <PUBCHEM_SUBSTANCE_COMMENT>
InChI=1S/C16H30N2O3/c1-14(2,3)21-13(19)18-17-12-6-8-16(9-7-12)10-15(4,5)11-20-16/h12,17H,6-11H2,1-5H3,(H,18,19)
InChIKey=PLFPULMYUXZXLW-UHFFFAOYSA-N

> <PUBCHEM_SUBSTANCE_SYNONYM>
SCHEMBL16122109

> <PUBCHEM_XREF_EXT_ID>
SCHEMBL16122109

> <PUBCHEM_EXT_DATASOURCE_URL>
https://www.surechembl.org/

> <PUBCHEM_EXT_SUBSTANCE_URL>
https://www.surechembl.org/chemical/SCHEMBL16122109

> <PUBCHEM_CID_ASSOCIATIONS>
117610335  1

> <PUBCHEM_COORDINATE_TYPE>
1
3

$$$$
