310942086
  -OEChem-07211613022D

 26 28  0     1  0  0  0  0  0999 V2000
    1.4187    0.7063    0.0000 Cl  0  0  0  0  0  0  0  0  0  0  0  0
   -0.0313   -1.7813    0.0000 F   0  0  0  0  0  0  0  0  0  0  0  0
    1.4063   -0.9562    0.0000 O   0  0  0  0  0  0  0  0  0  0  0  0
   -2.1813   -0.5312    0.0000 N   0  0  0  0  0  0  0  0  0  0  0  0
   -2.5688    2.2063    0.0000 N   0  0  0  0  0  0  0  0  0  0  0  0
   -0.7438   -0.5312    0.0000 C   0  0  0  0  0  0  0  0  0  0  0  0
   -0.0313   -0.9437    0.0000 C   0  0  0  0  0  0  0  0  0  0  0  0
    0.6813   -0.5312    0.0000 C   0  0  0  0  0  0  0  0  0  0  0  0
   -1.4688   -0.9437    0.0000 C   0  0  3  0  0  0  0  0  0  0  0  0
    0.6938    0.3062    0.0000 C   0  0  0  0  0  0  0  0  0  0  0  0
   -0.7313    0.2938    0.0000 C   0  0  0  0  0  0  0  0  0  0  0  0
   -0.0187    0.7063    0.0000 C   0  0  0  0  0  0  0  0  0  0  0  0
   -2.7938    0.0563    0.0000 C   0  0  3  0  0  0  0  0  0  0  0  0
    2.1438   -0.5312    0.0000 C   0  0  0  0  0  0  0  0  0  0  0  0
   -2.5688    0.8688    0.0000 C   0  0  0  0  0  0  0  0  0  0  0  0
   -1.4688   -1.7813    0.0000 C   0  0  0  0  0  0  0  0  0  0  0  0
    2.1563    0.2938    0.0000 C   0  0  0  0  0  0  0  0  0  0  0  0
    2.8563   -0.9437    0.0000 C   0  0  0  0  0  0  0  0  0  0  0  0
   -3.0438    1.5313    0.0000 C   0  0  0  0  0  0  0  0  0  0  0  0
   -1.7687    1.1188    0.0000 C   0  0  0  0  0  0  0  0  0  0  0  0
   -3.5813   -0.1563    0.0000 C   0  0  0  0  0  0  0  0  0  0  0  0
   -1.7687    1.9438    0.0000 C   0  0  0  0  0  0  0  0  0  0  0  0
    2.8688    0.7063    0.0000 C   0  0  0  0  0  0  0  0  0  0  0  0
    3.5813   -0.5312    0.0000 C   0  0  0  0  0  0  0  0  0  0  0  0
   -2.1688   -2.2063    0.0000 C   0  0  0  0  0  0  0  0  0  0  0  0
    3.5813    0.2938    0.0000 C   0  0  0  0  0  0  0  0  0  0  0  0
  1 10  1  0  0  0  0
  2  7  1  0  0  0  0
  3  8  1  0  0  0  0
  3 14  1  0  0  0  0
  9  4  1  1  0  0  0
  4 13  1  0  0  0  0
  5 19  1  0  0  0  0
  5 22  1  0  0  0  0
  6  7  2  0  0  0  0
  6  9  1  0  0  0  0
  6 11  1  0  0  0  0
  7  8  1  0  0  0  0
  8 10  2  0  0  0  0
  9 16  1  0  0  0  0
 10 12  1  0  0  0  0
 11 12  2  0  0  0  0
 13 15  1  0  0  0  0
 13 21  1  1  0  0  0
 14 17  2  0  0  0  0
 14 18  1  0  0  0  0
 15 19  2  0  0  0  0
 15 20  1  0  0  0  0
 16 25  1  0  0  0  0
 17 23  1  0  0  0  0
 18 24  2  0  0  0  0
 20 22  2  0  0  0  0
 23 26  2  0  0  0  0
 24 26  1  0  0  0  0
M  END
> <PUBCHEM_COMPOUND_ID_TYPE>
0

> <PUBCHEM_TOTAL_CHARGE>
0

> <PUBCHEM_SUBSTANCE_ID>
310942086

> <PUBCHEM_SUBSTANCE_VERSION>
1

> <PUBCHEM_EXT_DATASOURCE_NAME>
4488

> <PUBCHEM_EXT_DATASOURCE_REGID>
SCHEMBL16120121

> <PUBCHEM_SUBSTANCE_COMMENT>
InChI=1S/C21H22ClFN2O/c1-3-19(25-14(2)15-11-12-24-13-15)17-9-10-18(22)21(20(17)23)26-16-7-5-4-6-8-16/h4-14,19,24-25H,3H2,1-2H3/t14-,19+/m0/s1
InChIKey=YDVODWSIAPHOOZ-IFXJQAMLSA-N

> <PUBCHEM_SUBSTANCE_SYNONYM>
SCHEMBL16120121

> <PUBCHEM_XREF_EXT_ID>
SCHEMBL16120121

> <PUBCHEM_EXT_DATASOURCE_URL>
https://www.surechembl.org/

> <PUBCHEM_EXT_SUBSTANCE_URL>
https://www.surechembl.org/chemical/SCHEMBL16120121

> <PUBCHEM_CID_ASSOCIATIONS>
117608748  1

> <PUBCHEM_COORDINATE_TYPE>
1
3

> <PUBCHEM_BONDANNOTATIONS>
13  21  5
9  4  5

$$$$
