310932863
  -OEChem-07211613022D

 31 34  0     0  0  0  0  0  0999 V2000
    2.6321    0.0000    0.0000 F   0  0  0  0  0  0  0  0  0  0  0  0
    4.0192   -2.7387    0.0000 O   0  0  0  0  0  0  0  0  0  0  0  0
    8.5008   -2.8099    0.0000 O   0  0  0  0  0  0  0  0  0  0  0  0
   10.6704   -3.2367    0.0000 O   0  0  0  0  0  0  0  0  0  0  0  0
    4.9084   -1.6006    0.0000 N   0  0  0  0  0  0  0  0  0  0  0  0
    4.8373   -0.7825    0.0000 N   0  0  0  0  0  0  0  0  0  0  0  0
    6.3667   -1.6006    0.0000 N   0  0  0  0  0  0  0  0  0  0  0  0
    7.7894   -4.0548    0.0000 N   0  0  0  0  0  0  0  0  0  0  0  0
    0.0000   -2.4542    0.0000 N   0  0  0  0  0  0  0  0  0  0  0  0
    3.6279   -1.3160    0.0000 C   0  0  0  0  0  0  0  0  0  0  0  0
    4.1971   -1.9207    0.0000 C   0  0  0  0  0  0  0  0  0  0  0  0
    2.8099   -1.4227    0.0000 C   0  0  0  0  0  0  0  0  0  0  0  0
    5.6553   -1.9918    0.0000 C   0  0  0  0  0  0  0  0  0  0  0  0
    4.0192   -0.6047    0.0000 C   0  0  0  0  0  0  0  0  0  0  0  0
    2.3119   -0.7470    0.0000 C   0  0  0  0  0  0  0  0  0  0  0  0
    2.4898   -2.1696    0.0000 C   0  0  0  0  0  0  0  0  0  0  0  0
    5.6553   -2.8099    0.0000 C   0  0  0  0  0  0  0  0  0  0  0  0
    7.0780   -2.8099    0.0000 C   0  0  0  0  0  0  0  0  0  0  0  0
    1.4938   -0.8536    0.0000 C   0  0  0  0  0  0  0  0  0  0  0  0
    1.1737   -1.6006    0.0000 C   0  0  0  0  0  0  0  0  0  0  0  0
    7.0780   -1.9918    0.0000 C   0  0  0  0  0  0  0  0  0  0  0  0
    6.3667   -3.2367    0.0000 C   0  0  0  0  0  0  0  0  0  0  0  0
    1.6361   -2.2764    0.0000 C   0  0  0  0  0  0  0  0  0  0  0  0
    7.7894   -3.2367    0.0000 C   0  0  0  0  0  0  0  0  0  0  0  0
    0.3557   -1.7073    0.0000 C   0  0  0  0  0  0  0  0  0  0  0  0
    8.5008   -4.4816    0.0000 C   0  0  0  0  0  0  0  0  0  0  0  0
    9.2121   -4.0548    0.0000 C   0  0  0  0  0  0  0  0  0  0  0  0
    9.9590   -4.4460    0.0000 C   0  0  0  0  0  0  0  0  0  0  0  0
    9.2477   -3.2367    0.0000 C   0  0  0  0  0  0  0  0  0  0  0  0
   10.6704   -4.0548    0.0000 C   0  0  0  0  0  0  0  0  0  0  0  0
    9.9590   -2.8099    0.0000 C   0  0  0  0  0  0  0  0  0  0  0  0
  1 15  1  0  0  0  0
  2 11  1  0  0  0  0
  3 24  2  0  0  0  0
  4 30  1  0  0  0  0
  4 31  1  0  0  0  0
  5  6  1  0  0  0  0
  5 11  1  0  0  0  0
  5 13  1  0  0  0  0
  6 14  2  0  0  0  0
  7 13  2  0  0  0  0
  7 21  1  0  0  0  0
  8 24  1  0  0  0  0
  8 26  1  0  0  0  0
  9 25  3  0  0  0  0
 10 11  2  0  0  0  0
 10 12  1  0  0  0  0
 10 14  1  0  0  0  0
 12 15  1  0  0  0  0
 12 16  2  0  0  0  0
 13 17  1  0  0  0  0
 15 19  2  0  0  0  0
 16 23  1  0  0  0  0
 17 22  2  0  0  0  0
 18 21  2  0  0  0  0
 18 22  1  0  0  0  0
 18 24  1  0  0  0  0
 19 20  1  0  0  0  0
 20 23  2  0  0  0  0
 20 25  1  0  0  0  0
 26 27  1  0  0  0  0
 27 28  1  0  0  0  0
 27 29  1  0  0  0  0
 28 30  1  0  0  0  0
 29 31  1  0  0  0  0
M  END
> <PUBCHEM_COMPOUND_ID_TYPE>
0

> <PUBCHEM_TOTAL_CHARGE>
0

> <PUBCHEM_SUBSTANCE_ID>
310932863

> <PUBCHEM_SUBSTANCE_VERSION>
1

> <PUBCHEM_EXT_DATASOURCE_NAME>
4488

> <PUBCHEM_EXT_DATASOURCE_REGID>
SCHEMBL16110255

> <PUBCHEM_SUBSTANCE_COMMENT>
InChI=1S/C22H20FN5O3/c23-19-9-15(10-24)1-3-17(19)18-13-27-28(22(18)30)20-4-2-16(12-25-20)21(29)26-11-14-5-7-31-8-6-14/h1-4,9,12-14,30H,5-8,11H2,(H,26,29)
InChIKey=IRZXYLPOPIJJNV-UHFFFAOYSA-N

> <PUBCHEM_SUBSTANCE_SYNONYM>
SCHEMBL16110255

> <PUBCHEM_XREF_EXT_ID>
SCHEMBL16110255

> <PUBCHEM_EXT_DATASOURCE_URL>
https://www.surechembl.org/

> <PUBCHEM_EXT_SUBSTANCE_URL>
https://www.surechembl.org/chemical/SCHEMBL16110255

> <PUBCHEM_CID_ASSOCIATIONS>
117601347  1

> <PUBCHEM_COORDINATE_TYPE>
1
3

$$$$
