310941185
  -OEChem-07211613022D

 41 44  0     1  0  0  0  0  0999 V2000
    5.0918    0.6651    0.0000 O   0  0  0  0  0  0  0  0  0  0  0  0
    3.9557   -1.2885    0.0000 O   0  0  0  0  0  0  0  0  0  0  0  0
    1.8081    0.7760    0.0000 O   0  0  0  0  0  0  0  0  0  0  0  0
   -0.3533   -1.2885    0.0000 O   0  0  0  0  0  0  0  0  0  0  0  0
    3.9557   -2.9373    0.0000 O   0  0  0  0  0  0  0  0  0  0  0  0
   -2.5147    0.7760    0.0000 O   0  0  0  0  0  0  0  0  0  0  0  0
   -5.3967    0.7760    0.0000 O   0  0  0  0  0  0  0  0  0  0  0  0
    2.5286   -0.4573    0.0000 N   0  0  0  0  0  0  0  0  0  0  0  0
    0.3672   -0.0416    0.0000 N   0  0  0  0  0  0  0  0  0  0  0  0
   -1.7943   -0.4573    0.0000 N   0  0  0  0  0  0  0  0  0  0  0  0
   -3.9557   -0.0416    0.0000 N   0  0  0  0  0  0  0  0  0  0  0  0
    4.6761    0.0000    0.0000 C   0  0  3  0  0  0  0  0  0  0  0  0
    3.9557   -0.4157    0.0000 C   0  0  0  0  0  0  0  0  0  0  0  0
    4.2882    0.6790    0.0000 C   0  0  0  0  0  0  0  0  0  0  0  0
    3.2490   -0.0139    0.0000 C   0  0  3  0  0  0  0  0  0  0  0  0
    5.3967   -0.4295    0.0000 C   0  0  0  0  0  0  0  0  0  0  0  0
    3.2490    1.3024    0.0000 C   0  0  0  0  0  0  0  0  0  0  0  0
    1.7943   -0.0416    0.0000 C   0  0  0  0  0  0  0  0  0  0  0  0
    1.1015   -0.4295    0.0000 C   0  0  3  0  0  0  0  0  0  0  0  0
    2.5147    1.7180    0.0000 C   0  0  0  0  0  0  0  0  0  0  0  0
    1.0737   -1.2746    0.0000 C   0  0  0  0  0  0  0  0  0  0  0  0
    1.8220   -1.6627    0.0000 C   0  0  0  0  0  0  0  0  0  0  0  0
    1.7804    1.3162    0.0000 C   0  0  0  0  0  0  0  0  0  0  0  0
    2.5286    2.5355    0.0000 C   0  0  0  0  0  0  0  0  0  0  0  0
   -0.3394   -0.4157    0.0000 C   0  0  0  0  0  0  0  0  0  0  0  0
    2.5147   -1.2746    0.0000 C   0  0  0  0  0  0  0  0  0  0  0  0
    1.8220   -2.4939    0.0000 C   0  0  0  0  0  0  0  0  0  0  0  0
    1.1015    1.7180    0.0000 C   0  0  0  0  0  0  0  0  0  0  0  0
    1.8081    2.9373    0.0000 C   0  0  0  0  0  0  0  0  0  0  0  0
    3.2490   -2.4939    0.0000 C   0  0  0  0  0  0  0  0  0  0  0  0
    3.2490   -1.6903    0.0000 C   0  0  0  0  0  0  0  0  0  0  0  0
    2.5424   -2.9096    0.0000 C   0  0  0  0  0  0  0  0  0  0  0  0
   -1.1015   -0.0277    0.0000 C   0  0  0  0  0  0  0  0  0  0  0  0
    1.1015    2.5355    0.0000 C   0  0  0  0  0  0  0  0  0  0  0  0
   -2.5147   -0.0416    0.0000 C   0  0  0  0  0  0  0  0  0  0  0  0
   -3.2213   -0.4295    0.0000 C   0  0  0  0  0  0  0  0  0  0  0  0
   -3.9418    0.7898    0.0000 C   0  0  0  0  0  0  0  0  0  0  0  0
   -4.6623   -0.4295    0.0000 C   0  0  0  0  0  0  0  0  0  0  0  0
   -4.6761    1.2193    0.0000 C   0  0  0  0  0  0  0  0  0  0  0  0
   -5.3828   -0.0277    0.0000 C   0  0  0  0  0  0  0  0  0  0  0  0
    4.6761   -2.4939    0.0000 C   0  0  0  0  0  0  0  0  0  0  0  0
  1 12  1  0  0  0  0
  1 14  1  0  0  0  0
  2 13  2  0  0  0  0
  3 18  2  0  0  0  0
  4 25  2  0  0  0  0
  5 30  1  0  0  0  0
  5 41  1  0  0  0  0
  6 35  2  0  0  0  0
  7 39  1  0  0  0  0
  7 40  1  0  0  0  0
 15  8  1  1  0  0  0
  8 18  1  0  0  0  0
 19  9  1  6  0  0  0
  9 25  1  0  0  0  0
 10 33  1  0  0  0  0
 10 35  1  0  0  0  0
 11 36  1  0  0  0  0
 11 37  1  0  0  0  0
 11 38  1  0  0  0  0
 12 13  1  1  0  0  0
 12 14  1  0  0  0  0
 12 16  1  6  0  0  0
 13 15  1  0  0  0  0
 15 17  1  0  0  0  0
 17 20  1  0  0  0  0
 18 19  1  0  0  0  0
 19 21  1  0  0  0  0
 20 23  2  0  0  0  0
 20 24  1  0  0  0  0
 21 22  1  0  0  0  0
 22 26  2  0  0  0  0
 22 27  1  0  0  0  0
 23 28  1  0  0  0  0
 24 29  2  0  0  0  0
 25 33  1  0  0  0  0
 26 31  1  0  0  0  0
 27 32  2  0  0  0  0
 28 34  2  0  0  0  0
 29 34  1  0  0  0  0
 30 31  2  0  0  0  0
 30 32  1  0  0  0  0
 35 36  1  0  0  0  0
 37 39  1  0  0  0  0
 38 40  1  0  0  0  0
M  END
> <PUBCHEM_COMPOUND_ID_TYPE>
0

> <PUBCHEM_TOTAL_CHARGE>
0

> <PUBCHEM_SUBSTANCE_ID>
310941185

> <PUBCHEM_SUBSTANCE_VERSION>
1

> <PUBCHEM_EXT_DATASOURCE_NAME>
4488

> <PUBCHEM_EXT_DATASOURCE_REGID>
SCHEMBL16119145

> <PUBCHEM_SUBSTANCE_COMMENT>
InChI=1S/C30H38N4O7/c1-30(20-41-30)28(37)24(16-21-6-4-3-5-7-21)33-29(38)25(17-22-8-10-23(39-2)11-9-22)32-26(35)18-31-27(36)19-34-12-14-40-15-13-34/h3-11,24-25H,12-20H2,1-2H3,(H,31,36)(H,32,35)(H,33,38)/t24-,25-,30+/m0/s1
InChIKey=OWPFSXYEUZCMAB-SAGWHXFDSA-N

> <PUBCHEM_SUBSTANCE_SYNONYM>
SCHEMBL16119145

> <PUBCHEM_XREF_EXT_ID>
SCHEMBL16119145

> <PUBCHEM_EXT_DATASOURCE_URL>
https://www.surechembl.org/

> <PUBCHEM_EXT_SUBSTANCE_URL>
https://www.surechembl.org/chemical/SCHEMBL16119145

> <PUBCHEM_CID_ASSOCIATIONS>
117608059  1

> <PUBCHEM_COORDINATE_TYPE>
1
3

> <PUBCHEM_BONDANNOTATIONS>
12  13  5
12  16  6
15  8  5
19  9  6

$$$$
