310947436
  -OEChem-07211613022D

 28 30  0     0  0  0  0  0  0999 V2000
    3.9155  -14.4221    0.0000 O   0  0  0  0  0  0  0  0  0  0  0  0
   -1.4470  -12.2787    0.0000 O   0  0  0  0  0  0  0  0  0  0  0  0
    3.5030  -12.2787    0.0000 O   0  0  0  0  0  0  0  0  0  0  0  0
   -1.0345  -15.8510    0.0000 O   0  0  0  0  0  0  0  0  0  0  0  0
    0.2030  -13.7076    0.0000 N   0  0  0  0  0  0  0  0  0  0  0  0
   -1.4470  -13.7076    0.0000 N   0  0  0  0  0  0  0  0  0  0  0  0
    2.2655  -14.4221    0.0000 C   0  0  0  0  0  0  0  0  0  0  0  0
    1.4405  -14.4221    0.0000 C   0  0  0  0  0  0  0  0  0  0  0  0
    2.6780  -13.7076    0.0000 C   0  0  0  0  0  0  0  0  0  0  0  0
    1.0280  -13.7076    0.0000 C   0  0  0  0  0  0  0  0  0  0  0  0
    2.2655  -12.9931    0.0000 C   0  0  0  0  0  0  0  0  0  0  0  0
    1.4405  -12.9931    0.0000 C   0  0  0  0  0  0  0  0  0  0  0  0
    3.5030  -13.7076    0.0000 C   0  0  0  0  0  0  0  0  0  0  0  0
    2.6780  -15.1365    0.0000 C   0  0  0  0  0  0  0  0  0  0  0  0
    1.0280  -15.1365    0.0000 C   0  0  0  0  0  0  0  0  0  0  0  0
   -1.0345  -12.9931    0.0000 C   0  0  0  0  0  0  0  0  0  0  0  0
   -0.2095  -12.9931    0.0000 C   0  0  0  0  0  0  0  0  0  0  0  0
   -2.2720  -13.7076    0.0000 C   0  0  0  0  0  0  0  0  0  0  0  0
    2.2655  -15.8510    0.0000 C   0  0  0  0  0  0  0  0  0  0  0  0
    1.4405  -15.8510    0.0000 C   0  0  0  0  0  0  0  0  0  0  0  0
    3.9155  -12.9931    0.0000 C   0  0  0  0  0  0  0  0  0  0  0  0
   -1.0345  -14.4221    0.0000 C   0  0  0  0  0  0  0  0  0  0  0  0
   -2.6845  -12.9931    0.0000 C   0  0  0  0  0  0  0  0  0  0  0  0
   -2.6845  -14.4221    0.0000 C   0  0  0  0  0  0  0  0  0  0  0  0
   -3.5095  -12.9931    0.0000 C   0  0  0  0  0  0  0  0  0  0  0  0
   -3.5095  -14.4221    0.0000 C   0  0  0  0  0  0  0  0  0  0  0  0
   -3.9220  -13.7076    0.0000 C   0  0  0  0  0  0  0  0  0  0  0  0
   -1.4470  -15.1365    0.0000 C   0  0  0  0  0  0  0  0  0  0  0  0
  1 13  2  0  0  0  0
  2 16  2  0  0  0  0
  3 21  1  0  0  0  0
  4 28  1  0  0  0  0
  5 10  1  0  0  0  0
  5 17  1  0  0  0  0
  6 16  1  0  0  0  0
  6 18  1  0  0  0  0
  6 22  1  0  0  0  0
  7  8  2  0  0  0  0
  7  9  1  0  0  0  0
  7 14  1  0  0  0  0
  8 10  1  0  0  0  0
  8 15  1  0  0  0  0
  9 11  2  0  0  0  0
  9 13  1  0  0  0  0
 10 12  2  0  0  0  0
 11 12  1  0  0  0  0
 13 21  1  0  0  0  0
 14 19  1  0  0  0  0
 15 20  1  0  0  0  0
 16 17  1  0  0  0  0
 18 23  2  0  0  0  0
 18 24  1  0  0  0  0
 19 20  1  0  0  0  0
 22 28  1  0  0  0  0
 23 25  1  0  0  0  0
 24 26  2  0  0  0  0
 25 27  2  0  0  0  0
 26 27  1  0  0  0  0
M  END
> <PUBCHEM_COMPOUND_ID_TYPE>
0

> <PUBCHEM_TOTAL_CHARGE>
0

> <PUBCHEM_SUBSTANCE_ID>
310947436

> <PUBCHEM_SUBSTANCE_VERSION>
1

> <PUBCHEM_EXT_DATASOURCE_NAME>
4488

> <PUBCHEM_EXT_DATASOURCE_REGID>
SCHEMBL16125597

> <PUBCHEM_SUBSTANCE_COMMENT>
InChI=1S/C22H26N2O4/c25-13-12-24(16-6-2-1-3-7-16)22(28)14-23-20-11-10-19(21(27)15-26)17-8-4-5-9-18(17)20/h1-3,6-7,10-11,23,25-26H,4-5,8-9,12-15H2
InChIKey=APCLLGSEEONLNJ-UHFFFAOYSA-N

> <PUBCHEM_SUBSTANCE_SYNONYM>
SCHEMBL16125597

> <PUBCHEM_XREF_EXT_ID>
SCHEMBL16125597

> <PUBCHEM_EXT_DATASOURCE_URL>
https://www.surechembl.org/

> <PUBCHEM_EXT_SUBSTANCE_URL>
https://www.surechembl.org/chemical/SCHEMBL16125597

> <PUBCHEM_CID_ASSOCIATIONS>
117613168  1

> <PUBCHEM_COORDINATE_TYPE>
1
3

$$$$
