310944616
  -OEChem-07211613022D

 25 26  0     0  0  0  0  0  0999 V2000
   -0.0260    2.4544    0.0000 F   0  0  0  0  0  0  0  0  0  0  0  0
    2.1557    2.0000    0.0000 N   0  0  0  0  0  0  0  0  0  0  0  0
   -2.1818    1.9869    0.0000 N   0  0  0  0  0  0  0  0  0  0  0  0
   -0.0520   -0.8182    0.0000 C   0  0  0  0  0  0  0  0  0  0  0  0
   -0.7662   -1.2208    0.0000 C   0  0  0  0  0  0  0  0  0  0  0  0
    0.6883   -1.2208    0.0000 C   0  0  0  0  0  0  0  0  0  0  0  0
   -0.0390    0.0130    0.0000 C   0  0  0  0  0  0  0  0  0  0  0  0
   -1.4545   -0.8052    0.0000 C   0  0  0  0  0  0  0  0  0  0  0  0
    1.4285   -0.8182    0.0000 C   0  0  0  0  0  0  0  0  0  0  0  0
    0.6883    0.4285    0.0000 C   0  0  0  0  0  0  0  0  0  0  0  0
   -0.7532    0.4285    0.0000 C   0  0  0  0  0  0  0  0  0  0  0  0
    0.7013    1.2467    0.0000 C   0  0  0  0  0  0  0  0  0  0  0  0
   -0.7662    1.2467    0.0000 C   0  0  0  0  0  0  0  0  0  0  0  0
   -0.0390    1.6493    0.0000 C   0  0  0  0  0  0  0  0  0  0  0  0
   -0.7532   -2.0388    0.0000 C   0  0  0  0  0  0  0  0  0  0  0  0
    0.6883   -2.0388    0.0000 C   0  0  0  0  0  0  0  0  0  0  0  0
   -0.0130   -2.4544    0.0000 C   0  0  0  0  0  0  0  0  0  0  0  0
   -2.1818   -1.2337    0.0000 C   0  0  0  0  0  0  0  0  0  0  0  0
   -1.4675    0.0000    0.0000 C   0  0  0  0  0  0  0  0  0  0  0  0
   -0.8831   -0.2597    0.0000 C   0  0  0  0  0  0  0  0  0  0  0  0
    1.4285    0.0130    0.0000 C   0  0  0  0  0  0  0  0  0  0  0  0
    2.1818   -1.2208    0.0000 C   0  0  0  0  0  0  0  0  0  0  0  0
    1.6493   -1.6103    0.0000 C   0  0  0  0  0  0  0  0  0  0  0  0
    1.4285    1.6363    0.0000 C   0  0  0  0  0  0  0  0  0  0  0  0
   -1.4675    1.6233    0.0000 C   0  0  0  0  0  0  0  0  0  0  0  0
  1 14  1  0  0  0  0
  2 24  3  0  0  0  0
  3 25  3  0  0  0  0
  4  5  2  0  0  0  0
  4  6  1  0  0  0  0
  4  7  1  0  0  0  0
  5  8  1  0  0  0  0
  5 15  1  0  0  0  0
  6  9  1  0  0  0  0
  6 16  2  0  0  0  0
  7 10  2  0  0  0  0
  7 11  1  0  0  0  0
  8 18  1  0  0  0  0
  8 19  1  0  0  0  0
  8 20  1  0  0  0  0
  9 21  1  0  0  0  0
  9 22  1  0  0  0  0
  9 23  1  0  0  0  0
 10 12  1  0  0  0  0
 11 13  2  0  0  0  0
 12 14  2  0  0  0  0
 12 24  1  0  0  0  0
 13 14  1  0  0  0  0
 13 25  1  0  0  0  0
 15 17  2  0  0  0  0
 16 17  1  0  0  0  0
M  END
> <PUBCHEM_COMPOUND_ID_TYPE>
0

> <PUBCHEM_TOTAL_CHARGE>
0

> <PUBCHEM_SUBSTANCE_ID>
310944616

> <PUBCHEM_SUBSTANCE_VERSION>
1

> <PUBCHEM_EXT_DATASOURCE_NAME>
4488

> <PUBCHEM_EXT_DATASOURCE_REGID>
SCHEMBL16122694

> <PUBCHEM_SUBSTANCE_COMMENT>
InChI=1S/C22H23FN2/c1-21(2,3)17-8-7-9-18(22(4,5)6)19(17)14-10-15(12-24)20(23)16(11-14)13-25/h7-11H,1-6H3
InChIKey=OJSGOXOJIPWCLI-UHFFFAOYSA-N

> <PUBCHEM_SUBSTANCE_SYNONYM>
SCHEMBL16122694

> <PUBCHEM_XREF_EXT_ID>
SCHEMBL16122694

> <PUBCHEM_EXT_DATASOURCE_URL>
https://www.surechembl.org/

> <PUBCHEM_EXT_SUBSTANCE_URL>
https://www.surechembl.org/chemical/SCHEMBL16122694

> <PUBCHEM_CID_ASSOCIATIONS>
117610846  1

> <PUBCHEM_COORDINATE_TYPE>
1
3

$$$$
