310943397
  -OEChem-07211613022D

 38 42  0     1  0  0  0  0  0999 V2000
    4.6823   -1.3166    0.0000 F   0  0  0  0  0  0  0  0  0  0  0  0
    3.8758   -2.1396    0.0000 F   0  0  0  0  0  0  0  0  0  0  0  0
    3.0694   -1.3166    0.0000 F   0  0  0  0  0  0  0  0  0  0  0  0
   -3.2834   -0.4773    0.0000 O   0  0  0  0  0  0  0  0  0  0  0  0
   -4.5671    2.2876    0.0000 O   0  0  0  0  0  0  0  0  0  0  0  0
    2.4275    2.0243    0.0000 O   0  0  0  0  0  0  0  0  0  0  0  0
   -2.8720   -2.6003    0.0000 O   0  0  0  0  0  0  0  0  0  0  0  0
   -3.2834    1.2508    0.0000 N   0  0  0  0  0  0  0  0  0  0  0  0
   -1.8515   -0.4773    0.0000 N   0  0  0  0  0  0  0  0  0  0  0  0
    0.2880    2.4687    0.0000 N   0  0  0  0  0  0  0  0  0  0  0  0
    1.7199    0.7899    0.0000 N   0  0  0  0  0  0  0  0  0  0  0  0
   -2.5592    0.7899    0.0000 C   0  0  0  0  0  0  0  0  0  0  0  0
   -1.1438    0.7899    0.0000 C   0  0  0  0  0  0  0  0  0  0  0  0
   -0.4362    1.2014    0.0000 C   0  0  0  0  0  0  0  0  0  0  0  0
   -2.5757   -0.0494    0.0000 C   0  0  0  0  0  0  0  0  0  0  0  0
   -1.8680    1.2014    0.0000 C   0  0  0  0  0  0  0  0  0  0  0  0
   -0.4197    2.0408    0.0000 C   0  0  0  0  0  0  0  0  0  0  0  0
   -1.1438   -0.0494    0.0000 C   0  0  0  0  0  0  0  0  0  0  0  0
    0.3045    0.7899    0.0000 C   0  0  0  0  0  0  0  0  0  0  0  0
    0.9957    1.2014    0.0000 C   0  0  0  0  0  0  0  0  0  0  0  0
    3.1518    0.7899    0.0000 C   0  0  0  0  0  0  0  0  0  0  0  0
    2.4275    1.1850    0.0000 C   0  0  0  0  0  0  0  0  0  0  0  0
    1.0122    2.0243    0.0000 C   0  0  0  0  0  0  0  0  0  0  0  0
    3.8594   -0.4608    0.0000 C   0  0  0  0  0  0  0  0  0  0  0  0
   -3.2999   -1.3166    0.0000 C   0  0  3  0  0  0  0  0  0  0  0  0
   -4.0075    0.9545    0.0000 C   0  0  0  0  0  0  0  0  0  0  0  0
   -3.1518    2.0737    0.0000 C   0  0  0  0  0  0  0  0  0  0  0  0
    3.8594   -1.3166    0.0000 C   0  0  0  0  0  0  0  0  0  0  0  0
    3.1681   -0.0659    0.0000 C   0  0  0  0  0  0  0  0  0  0  0  0
    3.8594    1.1850    0.0000 C   0  0  0  0  0  0  0  0  0  0  0  0
   -1.1438    2.4358    0.0000 C   0  0  0  0  0  0  0  0  0  0  0  0
    4.5671   -0.0494    0.0000 C   0  0  0  0  0  0  0  0  0  0  0  0
   -4.6823    1.4647    0.0000 C   0  0  0  0  0  0  0  0  0  0  0  0
   -3.7936    2.6003    0.0000 C   0  0  0  0  0  0  0  0  0  0  0  0
   -2.6251   -1.7939    0.0000 C   0  0  0  0  0  0  0  0  0  0  0  0
   -3.9417   -1.8104    0.0000 C   0  0  0  0  0  0  0  0  0  0  0  0
    4.5671    0.7735    0.0000 C   0  0  0  0  0  0  0  0  0  0  0  0
   -3.6948   -2.5839    0.0000 C   0  0  0  0  0  0  0  0  0  0  0  0
  1 28  1  0  0  0  0
  2 28  1  0  0  0  0
  3 28  1  0  0  0  0
  4 15  1  0  0  0  0
 25  4  1  1  0  0  0
  5 33  1  0  0  0  0
  5 34  1  0  0  0  0
  6 22  2  0  0  0  0
  7 35  1  0  0  0  0
  7 38  1  0  0  0  0
  8 12  1  0  0  0  0
  8 26  1  0  0  0  0
  8 27  1  0  0  0  0
  9 15  1  0  0  0  0
  9 18  2  0  0  0  0
 10 17  2  0  0  0  0
 10 23  1  0  0  0  0
 11 20  1  0  0  0  0
 11 22  1  0  0  0  0
 12 15  2  0  0  0  0
 12 16  1  0  0  0  0
 13 14  1  0  0  0  0
 13 16  2  0  0  0  0
 13 18  1  0  0  0  0
 14 17  1  0  0  0  0
 14 19  2  0  0  0  0
 17 31  1  0  0  0  0
 19 20  1  0  0  0  0
 20 23  2  0  0  0  0
 21 22  1  0  0  0  0
 21 29  2  0  0  0  0
 21 30  1  0  0  0  0
 24 28  1  0  0  0  0
 24 29  1  0  0  0  0
 24 32  2  0  0  0  0
 25 35  1  0  0  0  0
 25 36  1  0  0  0  0
 26 33  1  0  0  0  0
 27 34  1  0  0  0  0
 30 37  2  0  0  0  0
 32 37  1  0  0  0  0
 36 38  1  0  0  0  0
M  END
> <PUBCHEM_COMPOUND_ID_TYPE>
0

> <PUBCHEM_TOTAL_CHARGE>
0

> <PUBCHEM_SUBSTANCE_ID>
310943397

> <PUBCHEM_SUBSTANCE_VERSION>
1

> <PUBCHEM_EXT_DATASOURCE_NAME>
4488

> <PUBCHEM_EXT_DATASOURCE_REGID>
SCHEMBL16121460

> <PUBCHEM_SUBSTANCE_COMMENT>
InChI=1S/C27H27F3N4O4/c1-17-23(13-21(15-31-17)33-25(35)18-3-2-4-20(11-18)27(28,29)30)19-12-24(34-6-9-36-10-7-34)26(32-14-19)38-22-5-8-37-16-22/h2-4,11-15,22H,5-10,16H2,1H3,(H,33,35)/t22-/m1/s1
InChIKey=KOHWMDVRLFFKNM-JOCHJYFZSA-N

> <PUBCHEM_SUBSTANCE_SYNONYM>
SCHEMBL16121460

> <PUBCHEM_XREF_EXT_ID>
SCHEMBL16121460

> <PUBCHEM_EXT_DATASOURCE_URL>
https://www.surechembl.org/

> <PUBCHEM_EXT_SUBSTANCE_URL>
https://www.surechembl.org/chemical/SCHEMBL16121460

> <PUBCHEM_CID_ASSOCIATIONS>
117609821  1

> <PUBCHEM_COORDINATE_TYPE>
1
3

> <PUBCHEM_BONDANNOTATIONS>
25  4  5

$$$$
