310935185
  -OEChem-07211613022D

 25 28  0     0  0  0  0  0  0999 V2000
    4.1250   -0.3122    0.0000 Cl  0  0  0  0  0  0  0  0  0  0  0  0
    6.5777   -1.5385    0.0000 S   0  0  0  0  0  0  0  0  0  0  0  0
    1.4939    0.0000    0.0000 O   0  0  0  0  0  0  0  0  0  0  0  0
    0.0000   -0.6689    0.0000 O   0  0  0  0  0  0  0  0  0  0  0  0
    2.0737   -2.1182    0.0000 N   0  0  0  0  0  0  0  0  0  0  0  0
    2.8541   -2.3858    0.0000 N   0  0  0  0  0  0  0  0  0  0  0  0
    5.9311   -0.4013    0.0000 N   0  0  0  0  0  0  0  0  0  0  0  0
    0.6466   -1.1594    0.0000 N   0  0  0  0  0  0  0  0  0  0  0  0
    3.3223   -1.6946    0.0000 C   0  0  0  0  0  0  0  0  0  0  0  0
    4.1473   -1.6946    0.0000 C   0  0  0  0  0  0  0  0  0  0  0  0
    2.0737   -1.2932    0.0000 C   0  0  0  0  0  0  0  0  0  0  0  0
    4.5487   -1.0034    0.0000 C   0  0  0  0  0  0  0  0  0  0  0  0
    5.3737   -1.0034    0.0000 C   0  0  0  0  0  0  0  0  0  0  0  0
    2.8541   -1.0480    0.0000 C   0  0  0  0  0  0  0  0  0  0  0  0
    5.7973   -1.7169    0.0000 C   0  0  0  0  0  0  0  0  0  0  0  0
    1.4047   -2.5865    0.0000 C   0  0  0  0  0  0  0  0  0  0  0  0
    4.5709   -2.4304    0.0000 C   0  0  0  0  0  0  0  0  0  0  0  0
    1.4047   -0.8250    0.0000 C   0  0  0  0  0  0  0  0  0  0  0  0
    5.3737   -2.4304    0.0000 C   0  0  0  0  0  0  0  0  0  0  0  0
    6.6892   -0.7358    0.0000 C   0  0  0  0  0  0  0  0  0  0  0  0
    1.4939   -3.4115    0.0000 C   0  0  0  0  0  0  0  0  0  0  0  0
    0.6466   -2.2520    0.0000 C   0  0  0  0  0  0  0  0  0  0  0  0
    0.8250   -3.8797    0.0000 C   0  0  0  0  0  0  0  0  0  0  0  0
    0.0000   -2.7203    0.0000 C   0  0  0  0  0  0  0  0  0  0  0  0
    0.0669   -3.5453    0.0000 C   0  0  0  0  0  0  0  0  0  0  0  0
  1 12  1  0  0  0  0
  2 15  1  0  0  0  0
  2 20  1  0  0  0  0
  3 18  2  0  0  0  0
  4  8  1  0  0  0  0
  5  6  1  0  0  0  0
  5 11  1  0  0  0  0
  5 16  1  0  0  0  0
  6  9  2  0  0  0  0
  7 13  1  0  0  0  0
  7 20  2  0  0  0  0
  8 18  1  0  0  0  0
  9 10  1  0  0  0  0
  9 14  1  0  0  0  0
 10 12  2  0  0  0  0
 10 17  1  0  0  0  0
 11 14  2  0  0  0  0
 11 18  1  0  0  0  0
 12 13  1  0  0  0  0
 13 15  2  0  0  0  0
 15 19  1  0  0  0  0
 16 21  2  0  0  0  0
 16 22  1  0  0  0  0
 17 19  2  0  0  0  0
 21 23  1  0  0  0  0
 22 24  2  0  0  0  0
 23 25  2  0  0  0  0
 24 25  1  0  0  0  0
M  END
> <PUBCHEM_COMPOUND_ID_TYPE>
0

> <PUBCHEM_TOTAL_CHARGE>
0

> <PUBCHEM_SUBSTANCE_ID>
310935185

> <PUBCHEM_SUBSTANCE_VERSION>
1

> <PUBCHEM_EXT_DATASOURCE_NAME>
4488

> <PUBCHEM_EXT_DATASOURCE_REGID>
SCHEMBL16112713

> <PUBCHEM_SUBSTANCE_COMMENT>
InChI=1S/C17H11ClN4O2S/c18-15-11(6-7-14-16(15)19-9-25-14)12-8-13(17(23)21-24)22(20-12)10-4-2-1-3-5-10/h1-9,24H,(H,21,23)
InChIKey=SYKAPLLNAFSWBH-UHFFFAOYSA-N

> <PUBCHEM_SUBSTANCE_SYNONYM>
SCHEMBL16112713

> <PUBCHEM_XREF_EXT_ID>
SCHEMBL16112713

> <PUBCHEM_EXT_DATASOURCE_URL>
https://www.surechembl.org/

> <PUBCHEM_EXT_SUBSTANCE_URL>
https://www.surechembl.org/chemical/SCHEMBL16112713

> <PUBCHEM_CID_ASSOCIATIONS>
86292433  1

> <PUBCHEM_COORDINATE_TYPE>
1
3

$$$$
