310938504
  -OEChem-07211613022D

 32 34  0     1  0  0  0  0  0999 V2000
    2.2609    1.5301    0.0000 O   0  0  0  0  0  0  0  0  0  0  0  0
    2.8579   -0.8250    0.0000 O   0  0  0  0  0  0  0  0  0  0  0  0
    3.2170    2.5920    0.0000 O   0  0  0  0  0  0  0  0  0  0  0  0
    0.7145    1.2375    0.0000 O   0  0  0  0  0  0  0  0  0  0  0  0
    3.5724    0.4125    0.0000 N   0  0  0  0  0  0  0  0  0  0  0  0
    1.4290    0.0000    0.0000 N   0  0  0  0  0  0  0  0  0  0  0  0
    0.0000   -0.8250    0.0000 N   0  0  0  0  0  0  0  0  0  0  0  0
   -1.4290   -0.8250    0.0000 N   0  0  0  0  0  0  0  0  0  0  0  0
   -0.7145   -2.0625    0.0000 N   0  0  0  0  0  0  0  0  0  0  0  0
    4.3260    0.0770    0.0000 C   0  0  0  0  0  0  0  0  0  0  0  0
    3.6586    1.2330    0.0000 C   0  0  3  0  0  0  0  0  0  0  0  0
    4.8781    0.6901    0.0000 C   0  0  0  0  0  0  0  0  0  0  0  0
    4.4656    1.4045    0.0000 C   0  0  0  0  0  0  0  0  0  0  0  0
    2.8579    0.0000    0.0000 C   0  0  0  0  0  0  0  0  0  0  0  0
    3.0455    1.7850    0.0000 C   0  0  0  0  0  0  0  0  0  0  0  0
    4.5810   -0.7077    0.0000 C   0  0  0  0  0  0  0  0  0  0  0  0
    5.6850    0.5185    0.0000 C   0  0  0  0  0  0  0  0  0  0  0  0
    2.1434    0.4125    0.0000 C   0  0  0  0  0  0  0  0  0  0  0  0
    5.3880   -0.8792    0.0000 C   0  0  0  0  0  0  0  0  0  0  0  0
    5.9400   -0.2661    0.0000 C   0  0  0  0  0  0  0  0  0  0  0  0
    0.7145    0.4125    0.0000 C   0  0  0  0  0  0  0  0  0  0  0  0
    0.0000    0.0000    0.0000 C   0  0  3  0  0  0  0  0  0  0  0  0
   -0.7145    0.4125    0.0000 C   0  0  3  0  0  0  0  0  0  0  0  0
   -0.7145   -1.2375    0.0000 C   0  0  0  0  0  0  0  0  0  0  0  0
    1.6478    2.0821    0.0000 C   0  0  0  0  0  0  0  0  0  0  0  0
   -1.4290    0.0000    0.0000 C   0  0  0  0  0  0  0  0  0  0  0  0
   -0.7145    1.2375    0.0000 C   0  0  0  0  0  0  0  0  0  0  0  0
   -2.1434   -1.2375    0.0000 C   0  0  0  0  0  0  0  0  0  0  0  0
   -1.4290   -2.4750    0.0000 C   0  0  0  0  0  0  0  0  0  0  0  0
    0.8632    1.8271    0.0000 C   0  0  0  0  0  0  0  0  0  0  0  0
   -2.1434   -2.0625    0.0000 C   0  0  0  0  0  0  0  0  0  0  0  0
   -2.1434    0.4125    0.0000 C   0  0  0  0  0  0  0  0  0  0  0  0
  1 15  1  0  0  0  0
  1 25  1  0  0  0  0
  2 14  2  0  0  0  0
  3 15  2  0  0  0  0
  4 21  2  0  0  0  0
  5 10  1  0  0  0  0
  5 11  1  0  0  0  0
  5 14  1  0  0  0  0
  6 18  1  0  0  0  0
  6 21  1  0  0  0  0
 22  7  1  1  0  0  0
  7 24  1  0  0  0  0
  8 24  2  0  0  0  0
  8 28  1  0  0  0  0
  9 24  1  0  0  0  0
  9 29  2  0  0  0  0
 10 12  2  0  0  0  0
 10 16  1  0  0  0  0
 11 13  1  0  0  0  0
 11 15  1  6  0  0  0
 12 13  1  0  0  0  0
 12 17  1  0  0  0  0
 14 18  1  0  0  0  0
 16 19  2  0  0  0  0
 17 20  2  0  0  0  0
 19 20  1  0  0  0  0
 21 22  1  0  0  0  0
 22 23  1  0  0  0  0
 23 26  1  0  0  0  0
 23 27  1  6  0  0  0
 25 30  1  0  0  0  0
 26 32  1  0  0  0  0
 28 31  2  0  0  0  0
 29 31  1  0  0  0  0
M  END
> <PUBCHEM_COMPOUND_ID_TYPE>
0

> <PUBCHEM_TOTAL_CHARGE>
0

> <PUBCHEM_SUBSTANCE_ID>
310938504

> <PUBCHEM_SUBSTANCE_VERSION>
1

> <PUBCHEM_EXT_DATASOURCE_NAME>
4488

> <PUBCHEM_EXT_DATASOURCE_REGID>
SCHEMBL16116410

> <PUBCHEM_SUBSTANCE_COMMENT>
InChI=1S/C23H29N5O4/c1-4-15(3)20(27-23-24-11-8-12-25-23)21(30)26-14-19(29)28-17-10-7-6-9-16(17)13-18(28)22(31)32-5-2/h6-12,15,18,20H,4-5,13-14H2,1-3H3,(H,26,30)(H,24,25,27)/t15-,18-,20-/m0/s1
InChIKey=GJIVZTYCPBTFER-QSFXBCCZSA-N

> <PUBCHEM_SUBSTANCE_SYNONYM>
SCHEMBL16116410

> <PUBCHEM_XREF_EXT_ID>
SCHEMBL16116410

> <PUBCHEM_EXT_DATASOURCE_URL>
https://www.surechembl.org/

> <PUBCHEM_EXT_SUBSTANCE_URL>
https://www.surechembl.org/chemical/SCHEMBL16116410

> <PUBCHEM_CID_ASSOCIATIONS>
117605959  1

> <PUBCHEM_COORDINATE_TYPE>
1
3

> <PUBCHEM_BONDANNOTATIONS>
11  15  6
23  27  6
22  7  5

$$$$
