310932340
  -OEChem-07211613022D

 32 35  0     0  0  0  0  0  0999 V2000
    3.9872   -3.3478    0.0000 O   0  0  0  0  0  0  0  0  0  0  0  0
    8.4258   -3.4606    0.0000 O   0  0  0  0  0  0  0  0  0  0  0  0
    9.1782   -7.1093    0.0000 O   0  0  0  0  0  0  0  0  0  0  0  0
    4.8900   -2.2193    0.0000 N   0  0  0  0  0  0  0  0  0  0  0  0
    4.8148   -1.3917    0.0000 N   0  0  0  0  0  0  0  0  0  0  0  0
    6.3194   -2.2193    0.0000 N   0  0  0  0  0  0  0  0  0  0  0  0
    7.7488   -4.6643    0.0000 N   0  0  0  0  0  0  0  0  0  0  0  0
    0.0000   -3.0845    0.0000 N   0  0  0  0  0  0  0  0  0  0  0  0
    3.6111   -1.9560    0.0000 C   0  0  0  0  0  0  0  0  0  0  0  0
    4.1753   -2.5579    0.0000 C   0  0  0  0  0  0  0  0  0  0  0  0
    2.7836   -2.0312    0.0000 C   0  0  0  0  0  0  0  0  0  0  0  0
    1.5046   -1.5046    0.0000 C   0  0  0  0  0  0  0  0  0  0  0  0
    5.6047   -2.6331    0.0000 C   0  0  0  0  0  0  0  0  0  0  0  0
    3.9872   -1.2413    0.0000 C   0  0  0  0  0  0  0  0  0  0  0  0
    2.2945   -1.3917    0.0000 C   0  0  0  0  0  0  0  0  0  0  0  0
    0.9780   -0.8276    0.0000 C   0  0  0  0  0  0  0  0  0  0  0  0
    1.1661   -2.2193    0.0000 C   0  0  0  0  0  0  0  0  0  0  0  0
    2.4450   -2.7836    0.0000 C   0  0  0  0  0  0  0  0  0  0  0  0
    1.6550   -2.8964    0.0000 C   0  0  0  0  0  0  0  0  0  0  0  0
    5.6047   -3.4606    0.0000 C   0  0  0  0  0  0  0  0  0  0  0  0
    0.2633   -0.4890    0.0000 C   0  0  0  0  0  0  0  0  0  0  0  0
    0.9028    0.0000    0.0000 C   0  0  0  0  0  0  0  0  0  0  0  0
    7.0341   -3.4606    0.0000 C   0  0  0  0  0  0  0  0  0  0  0  0
    7.0341   -2.6331    0.0000 C   0  0  0  0  0  0  0  0  0  0  0  0
    6.3194   -3.8367    0.0000 C   0  0  0  0  0  0  0  0  0  0  0  0
    0.3386   -2.3322    0.0000 C   0  0  0  0  0  0  0  0  0  0  0  0
    7.7488   -3.8367    0.0000 C   0  0  0  0  0  0  0  0  0  0  0  0
    4.6267   -3.8744    0.0000 C   0  0  0  0  0  0  0  0  0  0  0  0
    8.4634   -5.0781    0.0000 C   0  0  0  0  0  0  0  0  0  0  0  0
    8.4634   -5.9056    0.0000 C   0  0  0  0  0  0  0  0  0  0  0  0
    9.1405   -6.2817    0.0000 C   0  0  0  0  0  0  0  0  0  0  0  0
    9.8928   -7.5231    0.0000 C   0  0  0  0  0  0  0  0  0  0  0  0
  1 10  1  0  0  0  0
  1 28  1  0  0  0  0
  2 27  2  0  0  0  0
  3 31  1  0  0  0  0
  3 32  1  0  0  0  0
  4  5  1  0  0  0  0
  4 10  1  0  0  0  0
  4 13  1  0  0  0  0
  5 14  2  0  0  0  0
  6 13  2  0  0  0  0
  6 24  1  0  0  0  0
  7 27  1  0  0  0  0
  7 29  1  0  0  0  0
  8 26  3  0  0  0  0
  9 10  2  0  0  0  0
  9 11  1  0  0  0  0
  9 14  1  0  0  0  0
 11 15  1  0  0  0  0
 11 18  2  0  0  0  0
 12 15  2  0  0  0  0
 12 16  1  0  0  0  0
 12 17  1  0  0  0  0
 13 20  1  0  0  0  0
 16 21  1  0  0  0  0
 16 22  1  0  0  0  0
 17 19  2  0  0  0  0
 17 26  1  0  0  0  0
 18 19  1  0  0  0  0
 20 25  2  0  0  0  0
 21 22  1  0  0  0  0
 23 24  2  0  0  0  0
 23 25  1  0  0  0  0
 23 27  1  0  0  0  0
 29 30  1  0  0  0  0
 30 31  1  0  0  0  0
M  END
> <PUBCHEM_COMPOUND_ID_TYPE>
0

> <PUBCHEM_TOTAL_CHARGE>
0

> <PUBCHEM_SUBSTANCE_ID>
310932340

> <PUBCHEM_SUBSTANCE_VERSION>
1

> <PUBCHEM_EXT_DATASOURCE_NAME>
4488

> <PUBCHEM_EXT_DATASOURCE_REGID>
SCHEMBL16109706

> <PUBCHEM_SUBSTANCE_COMMENT>
InChI=1S/C24H25N5O3/c1-31-11-3-10-26-23(30)19-8-9-22(27-14-19)29-24(32-2)21(15-28-29)17-6-7-18(13-25)20(12-17)16-4-5-16/h6-9,12,14-16H,3-5,10-11H2,1-2H3,(H,26,30)
InChIKey=ZUCWIJXRKRYRIS-UHFFFAOYSA-N

> <PUBCHEM_SUBSTANCE_SYNONYM>
SCHEMBL16109706

> <PUBCHEM_XREF_EXT_ID>
SCHEMBL16109706

> <PUBCHEM_EXT_DATASOURCE_URL>
https://www.surechembl.org/

> <PUBCHEM_EXT_SUBSTANCE_URL>
https://www.surechembl.org/chemical/SCHEMBL16109706

> <PUBCHEM_CID_ASSOCIATIONS>
117600895  1

> <PUBCHEM_COORDINATE_TYPE>
1
3

$$$$
