310933535
  -OEChem-07211613022D

 30 34  0     0  0  0  0  0  0999 V2000
    0.0000   -1.7040    0.0000 F   0  0  0  0  0  0  0  0  0  0  0  0
    4.2599   -1.6215    0.0000 O   0  0  0  0  0  0  0  0  0  0  0  0
    0.1374   -4.3974    0.0000 O   0  0  0  0  0  0  0  0  0  0  0  0
    5.6616   -3.2980    0.0000 O   0  0  0  0  0  0  0  0  0  0  0  0
    4.3424   -2.6384    0.0000 N   0  0  0  0  0  0  0  0  0  0  0  0
    4.3424   -3.9576    0.0000 N   0  0  0  0  0  0  0  0  0  0  0  0
    1.4017   -0.0275    0.0000 N   0  0  0  0  0  0  0  0  0  0  0  0
    0.5497   -5.1394    0.0000 N   0  0  0  0  0  0  0  0  0  0  0  0
    2.8308   -2.4735    0.0000 C   0  0  0  0  0  0  0  0  0  0  0  0
    2.8308   -1.6490    0.0000 C   0  0  0  0  0  0  0  0  0  0  0  0
    3.5728   -2.8583    0.0000 C   0  0  0  0  0  0  0  0  0  0  0  0
    3.5728   -3.7102    0.0000 C   0  0  0  0  0  0  0  0  0  0  0  0
    2.1437   -1.2643    0.0000 C   0  0  0  0  0  0  0  0  0  0  0  0
    2.1437   -3.7102    0.0000 C   0  0  0  0  0  0  0  0  0  0  0  0
    2.1437   -2.8583    0.0000 C   0  0  0  0  0  0  0  0  0  0  0  0
    3.5454   -1.2093    0.0000 C   0  0  0  0  0  0  0  0  0  0  0  0
    1.4566   -4.1225    0.0000 C   0  0  0  0  0  0  0  0  0  0  0  0
    2.8308   -4.1225    0.0000 C   0  0  0  0  0  0  0  0  0  0  0  0
    2.1162   -0.4397    0.0000 C   0  0  0  0  0  0  0  0  0  0  0  0
    4.8371   -3.2980    0.0000 C   0  0  0  0  0  0  0  0  0  0  0  0
    0.6871   -3.8202    0.0000 C   0  0  0  0  0  0  0  0  0  0  0  0
    1.3467   -4.9470    0.0000 C   0  0  0  0  0  0  0  0  0  0  0  0
    1.4291   -1.6765    0.0000 C   0  0  0  0  0  0  0  0  0  0  0  0
    3.5179   -0.3848    0.0000 C   0  0  0  0  0  0  0  0  0  0  0  0
    2.8033    0.0000    0.0000 C   0  0  0  0  0  0  0  0  0  0  0  0
    0.6871   -1.2643    0.0000 C   0  0  0  0  0  0  0  0  0  0  0  0
    0.6871   -0.4397    0.0000 C   0  0  0  0  0  0  0  0  0  0  0  0
    0.4947   -2.9957    0.0000 C   0  0  0  0  0  0  0  0  0  0  0  0
    1.9788   -5.4967    0.0000 C   0  0  0  0  0  0  0  0  0  0  0  0
    4.9745   -1.1818    0.0000 C   0  0  0  0  0  0  0  0  0  0  0  0
  1 26  1  0  0  0  0
  2 16  1  0  0  0  0
  2 30  1  0  0  0  0
  3  8  1  0  0  0  0
  3 21  1  0  0  0  0
  4 20  2  0  0  0  0
  5 11  1  0  0  0  0
  5 20  1  0  0  0  0
  6 12  1  0  0  0  0
  6 20  1  0  0  0  0
  7 19  2  0  0  0  0
  7 27  1  0  0  0  0
  8 22  2  0  0  0  0
  9 10  1  0  0  0  0
  9 11  1  0  0  0  0
  9 15  2  0  0  0  0
 10 13  1  0  0  0  0
 10 16  2  0  0  0  0
 11 12  2  0  0  0  0
 12 18  1  0  0  0  0
 13 19  1  0  0  0  0
 13 23  2  0  0  0  0
 14 15  1  0  0  0  0
 14 17  1  0  0  0  0
 14 18  2  0  0  0  0
 16 24  1  0  0  0  0
 17 21  2  0  0  0  0
 17 22  1  0  0  0  0
 19 25  1  0  0  0  0
 21 28  1  0  0  0  0
 22 29  1  0  0  0  0
 23 26  1  0  0  0  0
 24 25  2  0  0  0  0
 26 27  2  0  0  0  0
M  END
> <PUBCHEM_COMPOUND_ID_TYPE>
0

> <PUBCHEM_TOTAL_CHARGE>
0

> <PUBCHEM_SUBSTANCE_ID>
310933535

> <PUBCHEM_SUBSTANCE_VERSION>
1

> <PUBCHEM_EXT_DATASOURCE_NAME>
4488

> <PUBCHEM_EXT_DATASOURCE_REGID>
SCHEMBL16110958

> <PUBCHEM_SUBSTANCE_COMMENT>
InChI=1S/C22H17FN4O3/c1-10-19(11(2)30-27-10)12-6-15(21-17(7-12)25-22(28)26-21)20-14-8-13(23)9-24-16(14)4-5-18(20)29-3/h4-9H,1-3H3,(H2,25,26,28)
InChIKey=FYCQRYZATLUCBW-UHFFFAOYSA-N

> <PUBCHEM_SUBSTANCE_SYNONYM>
SCHEMBL16110958

> <PUBCHEM_XREF_EXT_ID>
SCHEMBL16110958

> <PUBCHEM_EXT_DATASOURCE_URL>
https://www.surechembl.org/

> <PUBCHEM_EXT_SUBSTANCE_URL>
https://www.surechembl.org/chemical/SCHEMBL16110958

> <PUBCHEM_CID_ASSOCIATIONS>
117601923  1

> <PUBCHEM_COORDINATE_TYPE>
1
3

$$$$
