310941506
  -OEChem-07211613022D

 26 29  0     0  0  0  0  0  0999 V2000
   -3.5575   -2.7870    0.0000 Cl  0  0  0  0  0  0  0  0  0  0  0  0
   -2.0984   -1.9181    0.0000 O   0  0  0  0  0  0  0  0  0  0  0  0
    0.2459    0.7377    0.0000 O   0  0  0  0  0  0  0  0  0  0  0  0
   -0.6721   -1.9181    0.0000 O   0  0  0  0  0  0  0  0  0  0  0  0
    0.1147   -0.6065    0.0000 N   0  0  0  0  0  0  0  0  0  0  0  0
    1.4918   -0.0820    0.0000 N   0  0  0  0  0  0  0  0  0  0  0  0
   -1.3607   -0.6721    0.0000 C   0  0  0  0  0  0  0  0  0  0  0  0
   -0.6393   -0.2787    0.0000 C   0  0  0  0  0  0  0  0  0  0  0  0
   -2.8197   -1.4918    0.0000 C   0  0  0  0  0  0  0  0  0  0  0  0
   -2.8034   -0.6721    0.0000 C   0  0  0  0  0  0  0  0  0  0  0  0
   -1.3935   -1.5083    0.0000 C   0  0  0  0  0  0  0  0  0  0  0  0
   -2.1476   -0.2951    0.0000 C   0  0  0  0  0  0  0  0  0  0  0  0
    0.6557    0.0492    0.0000 C   0  0  0  0  0  0  0  0  0  0  0  0
   -3.5411   -1.9345    0.0000 C   0  0  0  0  0  0  0  0  0  0  0  0
   -0.5410    0.5410    0.0000 C   0  0  0  0  0  0  0  0  0  0  0  0
   -3.5738   -0.2951    0.0000 C   0  0  0  0  0  0  0  0  0  0  0  0
   -4.2297   -1.5083    0.0000 C   0  0  0  0  0  0  0  0  0  0  0  0
    2.0328    0.6065    0.0000 C   0  0  0  0  0  0  0  0  0  0  0  0
   -4.2297   -0.6885    0.0000 C   0  0  0  0  0  0  0  0  0  0  0  0
    2.8689    0.4590    0.0000 C   0  0  0  0  0  0  0  0  0  0  0  0
    1.7377    1.3607    0.0000 C   0  0  0  0  0  0  0  0  0  0  0  0
    3.3771    1.0985    0.0000 C   0  0  0  0  0  0  0  0  0  0  0  0
    2.2296    2.0328    0.0000 C   0  0  0  0  0  0  0  0  0  0  0  0
    3.0821    1.8689    0.0000 C   0  0  0  0  0  0  0  0  0  0  0  0
    4.2297    0.9836    0.0000 C   0  0  0  0  0  0  0  0  0  0  0  0
    1.9345    2.7870    0.0000 C   0  0  0  0  0  0  0  0  0  0  0  0
  1 14  1  0  0  0  0
  2  9  1  0  0  0  0
  2 11  1  0  0  0  0
  3 13  1  0  0  0  0
  3 15  1  0  0  0  0
  4 11  2  0  0  0  0
  5  8  1  0  0  0  0
  5 13  2  0  0  0  0
  6 13  1  0  0  0  0
  6 18  1  0  0  0  0
  7  8  1  0  0  0  0
  7 11  1  0  0  0  0
  7 12  2  0  0  0  0
  8 15  2  0  0  0  0
  9 10  1  0  0  0  0
  9 14  2  0  0  0  0
 10 12  1  0  0  0  0
 10 16  2  0  0  0  0
 14 17  1  0  0  0  0
 16 19  1  0  0  0  0
 17 19  2  0  0  0  0
 18 20  2  0  0  0  0
 18 21  1  0  0  0  0
 20 22  1  0  0  0  0
 21 23  2  0  0  0  0
 22 24  2  0  0  0  0
 22 25  1  0  0  0  0
 23 24  1  0  0  0  0
 23 26  1  0  0  0  0
M  END
> <PUBCHEM_COMPOUND_ID_TYPE>
0

> <PUBCHEM_TOTAL_CHARGE>
0

> <PUBCHEM_SUBSTANCE_ID>
310941506

> <PUBCHEM_SUBSTANCE_VERSION>
1

> <PUBCHEM_EXT_DATASOURCE_NAME>
4488

> <PUBCHEM_EXT_DATASOURCE_REGID>
SCHEMBL16119537

> <PUBCHEM_SUBSTANCE_COMMENT>
InChI=1S/C20H15ClN2O3/c1-11-6-12(2)8-14(7-11)22-20-23-17(10-25-20)15-9-13-4-3-5-16(21)18(13)26-19(15)24/h3-10H,1-2H3,(H,22,23)
InChIKey=QLEKSQOUVGNUFC-UHFFFAOYSA-N

> <PUBCHEM_SUBSTANCE_SYNONYM>
SCHEMBL16119537

> <PUBCHEM_XREF_EXT_ID>
SCHEMBL16119537

> <PUBCHEM_EXT_DATASOURCE_URL>
https://www.surechembl.org/

> <PUBCHEM_EXT_SUBSTANCE_URL>
https://www.surechembl.org/chemical/SCHEMBL16119537

> <PUBCHEM_CID_ASSOCIATIONS>
117608326  1

> <PUBCHEM_COORDINATE_TYPE>
1
3

$$$$
