310943240
  -OEChem-07211613022D

 35 38  0     0  0  0  0  0  0999 V2000
    1.4228   -0.2105    0.0000 O   0  0  0  0  0  0  0  0  0  0  0  0
   -4.2538    2.2430    0.0000 O   0  0  0  0  0  0  0  0  0  0  0  0
    4.2538   -1.8365    0.0000 O   0  0  0  0  0  0  0  0  0  0  0  0
   -0.7259    0.2105    0.0000 N   0  0  0  0  0  0  0  0  0  0  0  0
   -2.8456    1.4300    0.0000 N   0  0  0  0  0  0  0  0  0  0  0  0
   -2.1341    0.2105    0.0000 N   0  0  0  0  0  0  0  0  0  0  0  0
    0.6969    2.6641    0.0000 N   0  0  0  0  0  0  0  0  0  0  0  0
    2.1196    1.0236    0.0000 N   0  0  0  0  0  0  0  0  0  0  0  0
   -1.4373   -1.0236    0.0000 N   0  0  0  0  0  0  0  0  0  0  0  0
    4.2393   -1.0236    0.0000 N   0  0  0  0  0  0  0  0  0  0  0  0
   -0.7114    1.0380    0.0000 C   0  0  0  0  0  0  0  0  0  0  0  0
   -0.0145    1.4446    0.0000 C   0  0  0  0  0  0  0  0  0  0  0  0
   -2.1341    1.0380    0.0000 C   0  0  0  0  0  0  0  0  0  0  0  0
   -1.4373    1.4300    0.0000 C   0  0  0  0  0  0  0  0  0  0  0  0
    0.0000    2.2575    0.0000 C   0  0  0  0  0  0  0  0  0  0  0  0
    0.7259    1.0380    0.0000 C   0  0  0  0  0  0  0  0  0  0  0  0
   -1.4228   -0.1960    0.0000 C   0  0  0  0  0  0  0  0  0  0  0  0
    1.3938    1.4300    0.0000 C   0  0  0  0  0  0  0  0  0  0  0  0
    2.8310   -0.1960    0.0000 C   0  0  0  0  0  0  0  0  0  0  0  0
    2.1196    0.2250    0.0000 C   0  0  0  0  0  0  0  0  0  0  0  0
    1.4083    2.2575    0.0000 C   0  0  0  0  0  0  0  0  0  0  0  0
    3.5424   -1.4300    0.0000 C   0  0  0  0  0  0  0  0  0  0  0  0
    3.5424   -2.2286    0.0000 C   0  0  0  0  0  0  0  0  0  0  0  0
    2.8310   -1.0236    0.0000 C   0  0  0  0  0  0  0  0  0  0  0  0
   -2.8310    2.2430    0.0000 C   0  0  0  0  0  0  0  0  0  0  0  0
   -3.5279    1.0380    0.0000 C   0  0  0  0  0  0  0  0  0  0  0  0
    3.5279    0.2105    0.0000 C   0  0  0  0  0  0  0  0  0  0  0  0
   -0.7259    2.6496    0.0000 C   0  0  0  0  0  0  0  0  0  0  0  0
    4.2538   -0.2105    0.0000 C   0  0  0  0  0  0  0  0  0  0  0  0
   -3.5424    2.6641    0.0000 C   0  0  0  0  0  0  0  0  0  0  0  0
   -4.2538    1.4300    0.0000 C   0  0  0  0  0  0  0  0  0  0  0  0
    2.8165   -2.6641    0.0000 C   0  0  0  0  0  0  0  0  0  0  0  0
    4.2538   -2.6641    0.0000 C   0  0  0  0  0  0  0  0  0  0  0  0
   -0.7259   -1.4300    0.0000 C   0  0  0  0  0  0  0  0  0  0  0  0
   -0.6969   -2.2575    0.0000 C   0  0  0  0  0  0  0  0  0  0  0  0
  1 20  2  0  0  0  0
  2 30  1  0  0  0  0
  2 31  1  0  0  0  0
  3 23  1  0  0  0  0
  4 11  2  0  0  0  0
  4 17  1  0  0  0  0
  5 13  1  0  0  0  0
  5 25  1  0  0  0  0
  5 26  1  0  0  0  0
  6 13  1  0  0  0  0
  6 17  2  0  0  0  0
  7 15  1  0  0  0  0
  7 21  2  0  0  0  0
  8 18  1  0  0  0  0
  8 20  1  0  0  0  0
  9 17  1  0  0  0  0
  9 34  1  0  0  0  0
 10 22  2  0  0  0  0
 10 29  1  0  0  0  0
 11 12  1  0  0  0  0
 11 14  1  0  0  0  0
 12 15  2  0  0  0  0
 12 16  1  0  0  0  0
 13 14  2  0  0  0  0
 15 28  1  0  0  0  0
 16 18  2  0  0  0  0
 18 21  1  0  0  0  0
 19 20  1  0  0  0  0
 19 24  2  0  0  0  0
 19 27  1  0  0  0  0
 22 23  1  0  0  0  0
 22 24  1  0  0  0  0
 23 32  1  0  0  0  0
 23 33  1  0  0  0  0
 25 30  1  0  0  0  0
 26 31  1  0  0  0  0
 27 29  2  0  0  0  0
 34 35  1  0  0  0  0
M  END
> <PUBCHEM_COMPOUND_ID_TYPE>
0

> <PUBCHEM_TOTAL_CHARGE>
0

> <PUBCHEM_SUBSTANCE_ID>
310943240

> <PUBCHEM_SUBSTANCE_VERSION>
1

> <PUBCHEM_EXT_DATASOURCE_NAME>
4488

> <PUBCHEM_EXT_DATASOURCE_REGID>
SCHEMBL16121302

> <PUBCHEM_SUBSTANCE_COMMENT>
InChI=1S/C25H31N7O3/c1-5-26-24-30-20(14-22(31-24)32-8-10-35-11-9-32)19-13-18(15-28-16(19)2)29-23(33)17-6-7-27-21(12-17)25(3,4)34/h6-7,12-15,34H,5,8-11H2,1-4H3,(H,29,33)(H,26,30,31)
InChIKey=NOPWIOBIQPQKPS-UHFFFAOYSA-N

> <PUBCHEM_SUBSTANCE_SYNONYM>
SCHEMBL16121302

> <PUBCHEM_XREF_EXT_ID>
SCHEMBL16121302

> <PUBCHEM_EXT_DATASOURCE_URL>
https://www.surechembl.org/

> <PUBCHEM_EXT_SUBSTANCE_URL>
https://www.surechembl.org/chemical/SCHEMBL16121302

> <PUBCHEM_CID_ASSOCIATIONS>
117609665  1

> <PUBCHEM_COORDINATE_TYPE>
1
3

$$$$
