310941962
  -OEChem-07211613022D

 21 24  0     0  0  0  0  0  0999 V2000
   -0.8214   -1.2352    0.0000 N   0  0  0  0  0  0  0  0  0  0  0  0
    2.6398    2.2887    0.0000 N   0  0  0  0  0  0  0  0  0  0  0  0
   -0.4076    0.0313    0.0000 C   0  0  0  0  0  0  0  0  0  0  0  0
   -0.1567   -0.7336    0.0000 C   0  0  0  0  0  0  0  0  0  0  0  0
   -1.2603    0.0313    0.0000 C   0  0  0  0  0  0  0  0  0  0  0  0
   -1.5362   -0.7462    0.0000 C   0  0  0  0  0  0  0  0  0  0  0  0
    0.1442    0.6333    0.0000 C   0  0  0  0  0  0  0  0  0  0  0  0
    0.9594    0.4828    0.0000 C   0  0  0  0  0  0  0  0  0  0  0  0
    0.6709   -0.8966    0.0000 C   0  0  0  0  0  0  0  0  0  0  0  0
   -1.8121    0.6208    0.0000 C   0  0  0  0  0  0  0  0  0  0  0  0
   -2.3263   -0.9092    0.0000 C   0  0  0  0  0  0  0  0  0  0  0  0
    1.2102   -0.3073    0.0000 C   0  0  0  0  0  0  0  0  0  0  0  0
   -0.8339   -2.0378    0.0000 C   0  0  0  0  0  0  0  0  0  0  0  0
    1.5112    1.0973    0.0000 C   0  0  0  0  0  0  0  0  0  0  0  0
   -2.6147    0.4703    0.0000 C   0  0  0  0  0  0  0  0  0  0  0  0
   -2.8906   -0.3198    0.0000 C   0  0  0  0  0  0  0  0  0  0  0  0
    2.3388    0.9218    0.0000 C   0  0  0  0  0  0  0  0  0  0  0  0
    1.2603    1.8372    0.0000 C   0  0  0  0  0  0  0  0  0  0  0  0
   -1.5487   -2.4642    0.0000 C   0  0  0  0  0  0  0  0  0  0  0  0
    2.8906    1.5237    0.0000 C   0  0  0  0  0  0  0  0  0  0  0  0
    1.7996    2.4642    0.0000 C   0  0  0  0  0  0  0  0  0  0  0  0
  1  4  1  0  0  0  0
  1  6  1  0  0  0  0
  1 13  1  0  0  0  0
  2 20  2  0  0  0  0
  2 21  1  0  0  0  0
  3  4  2  0  0  0  0
  3  5  1  0  0  0  0
  3  7  1  0  0  0  0
  4  9  1  0  0  0  0
  5  6  1  0  0  0  0
  5 10  2  0  0  0  0
  6 11  2  0  0  0  0
  7  8  2  0  0  0  0
  8 12  1  0  0  0  0
  8 14  1  0  0  0  0
  9 12  2  0  0  0  0
 10 15  1  0  0  0  0
 11 16  1  0  0  0  0
 13 19  1  0  0  0  0
 14 17  2  0  0  0  0
 14 18  1  0  0  0  0
 15 16  2  0  0  0  0
 17 20  1  0  0  0  0
 18 21  2  0  0  0  0
M  END
> <PUBCHEM_COMPOUND_ID_TYPE>
0

> <PUBCHEM_TOTAL_CHARGE>
0

> <PUBCHEM_SUBSTANCE_ID>
310941962

> <PUBCHEM_SUBSTANCE_VERSION>
1

> <PUBCHEM_EXT_DATASOURCE_NAME>
4488

> <PUBCHEM_EXT_DATASOURCE_REGID>
SCHEMBL16119996

> <PUBCHEM_SUBSTANCE_COMMENT>
InChI=1S/C19H16N2/c1-2-21-18-6-4-3-5-16(18)17-13-15(7-8-19(17)21)14-9-11-20-12-10-14/h3-13H,2H2,1H3
InChIKey=GVKIFXNVBTYGMN-UHFFFAOYSA-N

> <PUBCHEM_SUBSTANCE_SYNONYM>
SCHEMBL16119996

> <PUBCHEM_XREF_EXT_ID>
SCHEMBL16119996

> <PUBCHEM_EXT_DATASOURCE_URL>
https://www.surechembl.org/

> <PUBCHEM_EXT_SUBSTANCE_URL>
https://www.surechembl.org/chemical/SCHEMBL16119996

> <PUBCHEM_CID_ASSOCIATIONS>
86271433  1

> <PUBCHEM_COORDINATE_TYPE>
1
3

$$$$
