310940056
  -OEChem-07211613022D

 12 12  0     0  0  0  0  0  0999 V2000
   -9.4274   10.4078    0.0000 Br  0  0  0  0  0  0  0  0  0  0  0  0
   -9.4274    8.7578    0.0000 Cl  0  0  0  0  0  0  0  0  0  0  0  0
   -6.5695    7.9328    0.0000 O   0  0  0  0  0  0  0  0  0  0  0  0
   -6.5695   10.4078    0.0000 N   0  0  0  0  0  0  0  0  0  0  0  0
   -5.8550    9.1703    0.0000 N   0  0  0  0  0  0  0  0  0  0  0  0
   -7.2839    9.1703    0.0000 C   0  0  0  0  0  0  0  0  0  0  0  0
   -7.2839    9.9953    0.0000 C   0  0  0  0  0  0  0  0  0  0  0  0
   -8.7129    9.1703    0.0000 C   0  0  0  0  0  0  0  0  0  0  0  0
   -8.7129    9.9953    0.0000 C   0  0  0  0  0  0  0  0  0  0  0  0
   -7.9984    8.7578    0.0000 C   0  0  0  0  0  0  0  0  0  0  0  0
   -7.9984   10.4078    0.0000 C   0  0  0  0  0  0  0  0  0  0  0  0
   -6.5695    8.7578    0.0000 C   0  0  0  0  0  0  0  0  0  0  0  0
  1  9  1  0  0  0  0
  2  8  1  0  0  0  0
  3 12  2  0  0  0  0
  4  7  1  0  0  0  0
  5 12  1  0  0  0  0
  6  7  1  0  0  0  0
  6 10  2  0  0  0  0
  6 12  1  0  0  0  0
  7 11  2  0  0  0  0
  8  9  2  0  0  0  0
  8 10  1  0  0  0  0
  9 11  1  0  0  0  0
M  END
> <PUBCHEM_COMPOUND_ID_TYPE>
0

> <PUBCHEM_TOTAL_CHARGE>
0

> <PUBCHEM_SUBSTANCE_ID>
310940056

> <PUBCHEM_SUBSTANCE_VERSION>
1

> <PUBCHEM_EXT_DATASOURCE_NAME>
4488

> <PUBCHEM_EXT_DATASOURCE_REGID>
SCHEMBL16117986

> <PUBCHEM_SUBSTANCE_COMMENT>
InChI=1S/C7H6BrClN2O/c8-4-2-6(10)3(7(11)12)1-5(4)9/h1-2H,10H2,(H2,11,12)
InChIKey=NHTJQTYNHIWXNH-UHFFFAOYSA-N

> <PUBCHEM_SUBSTANCE_SYNONYM>
SCHEMBL16117986

> <PUBCHEM_XREF_EXT_ID>
SCHEMBL16117986

> <PUBCHEM_EXT_DATASOURCE_URL>
https://www.surechembl.org/

> <PUBCHEM_EXT_SUBSTANCE_URL>
https://www.surechembl.org/chemical/SCHEMBL16117986

> <PUBCHEM_CID_ASSOCIATIONS>
91659209  1

> <PUBCHEM_COORDINATE_TYPE>
1
3

$$$$
