310949980
  -OEChem-07211613022D

 12 11  0     1  0  0  0  0  0999 V2000
   -0.0273    0.9578    0.0000 O   0  0  0  0  0  0  0  0  0  0  0  0
    1.2314    0.1003    0.0000 O   0  0  0  0  0  0  0  0  0  0  0  0
   -0.8483   -2.4902    0.0000 O   0  0  0  0  0  0  0  0  0  0  0  0
   -1.2314   -1.3044    0.0000 O   0  0  0  0  0  0  0  0  0  0  0  0
   -0.3192   -0.2463    0.0000 N   0  0  0  0  0  0  0  0  0  0  0  0
    0.2828   -0.8118    0.0000 C   0  0  3  0  0  0  0  0  0  0  0  0
    1.0673   -0.5747    0.0000 C   0  0  0  0  0  0  0  0  0  0  0  0
    0.1003   -1.5416    0.0000 C   0  0  0  0  0  0  0  0  0  0  0  0
   -0.6842   -1.7969    0.0000 C   0  0  0  0  0  0  0  0  0  0  0  0
   -0.6476   -0.3192    0.0000 C   0  0  0  0  0  0  0  0  0  0  0  0
   -0.6112    1.6146    0.0000 C   0  0  0  0  0  0  0  0  0  0  0  0
   -0.3011    2.4902    0.0000 C   0  0  0  0  0  0  0  0  0  0  0  0
  1  5  1  0  0  0  0
  1 11  1  0  0  0  0
  2  7  2  0  0  0  0
  3  9  2  0  0  0  0
  4  9  1  0  0  0  0
  6  5  1  6  0  0  0
  6  7  1  0  0  0  0
  6  8  1  0  0  0  0
  7 10  1  0  0  0  0
  8  9  1  0  0  0  0
 11 12  1  0  0  0  0
M  END
> <PUBCHEM_COMPOUND_ID_TYPE>
0

> <PUBCHEM_TOTAL_CHARGE>
0

> <PUBCHEM_SUBSTANCE_ID>
310949980

> <PUBCHEM_SUBSTANCE_VERSION>
1

> <PUBCHEM_EXT_DATASOURCE_NAME>
4488

> <PUBCHEM_EXT_DATASOURCE_REGID>
SCHEMBL16128209

> <PUBCHEM_SUBSTANCE_COMMENT>
InChI=1S/C7H13NO4/c1-3-12-8-6(5(2)9)4-7(10)11/h6,8H,3-4H2,1-2H3,(H,10,11)/t6-/m0/s1
InChIKey=KLSCUJARAORERV-LURJTMIESA-N

> <PUBCHEM_SUBSTANCE_SYNONYM>
SCHEMBL16128209

> <PUBCHEM_XREF_EXT_ID>
SCHEMBL16128209

> <PUBCHEM_EXT_DATASOURCE_URL>
https://www.surechembl.org/

> <PUBCHEM_EXT_SUBSTANCE_URL>
https://www.surechembl.org/chemical/SCHEMBL16128209

> <PUBCHEM_CID_ASSOCIATIONS>
117615220  1

> <PUBCHEM_COORDINATE_TYPE>
1
3

> <PUBCHEM_BONDANNOTATIONS>
6  5  6

$$$$
