310949086
  -OEChem-07211613022D

 19 21  0     1  0  0  0  0  0999 V2000
    1.1706    1.4898    0.0000 F   0  0  0  0  0  0  0  0  0  0  0  0
    1.4071    0.4257    0.0000 F   0  0  0  0  0  0  0  0  0  0  0  0
    0.3193    0.1892    0.0000 F   0  0  0  0  0  0  0  0  0  0  0  0
   -0.7450   -2.5541    0.0000 N   0  0  0  0  0  0  0  0  0  0  0  0
    0.5084   -1.2534    0.0000 N   0  0  0  0  0  0  0  0  0  0  0  0
   -0.3429   -1.2534    0.0000 C   0  0  3  0  0  0  0  0  0  0  0  0
   -0.7450    0.0473    0.0000 C   0  0  3  0  0  0  0  0  0  0  0  0
   -1.1469   -1.2297    0.0000 C   0  0  3  0  0  0  0  0  0  0  0  0
   -0.6740    0.9223    0.0000 C   0  0  0  0  0  0  0  0  0  0  0  0
   -0.0828   -0.4493    0.0000 C   0  0  0  0  0  0  0  0  0  0  0  0
    0.0355    1.3007    0.0000 C   0  0  0  0  0  0  0  0  0  0  0  0
   -1.4071   -0.4493    0.0000 C   0  0  0  0  0  0  0  0  0  0  0  0
   -0.0828   -2.0338    0.0000 C   0  0  0  0  0  0  0  0  0  0  0  0
    0.7212    0.8514    0.0000 C   0  0  0  0  0  0  0  0  0  0  0  0
   -1.4071   -2.0338    0.0000 C   0  0  0  0  0  0  0  0  0  0  0  0
   -1.4071    1.3007    0.0000 C   0  0  0  0  0  0  0  0  0  0  0  0
   -0.0119    2.1520    0.0000 C   0  0  0  0  0  0  0  0  0  0  0  0
   -1.3834    2.1520    0.0000 C   0  0  0  0  0  0  0  0  0  0  0  0
   -0.7212    2.5541    0.0000 C   0  0  0  0  0  0  0  0  0  0  0  0
  1 14  1  0  0  0  0
  2 14  1  0  0  0  0
  3 14  1  0  0  0  0
  4 13  1  0  0  0  0
  4 15  1  0  0  0  0
  6  5  1  6  0  0  0
  6  8  1  0  0  0  0
  6 10  1  0  0  0  0
  6 13  1  0  0  0  0
  7  9  1  0  0  0  0
  7 10  1  0  0  0  0
  7 12  1  1  0  0  0
  8 12  1  0  0  0  0
  8 15  1  0  0  0  0
  9 11  2  0  0  0  0
  9 16  1  0  0  0  0
 11 14  1  0  0  0  0
 11 17  1  0  0  0  0
 16 18  2  0  0  0  0
 17 19  2  0  0  0  0
 18 19  1  0  0  0  0
M  END
> <PUBCHEM_COMPOUND_ID_TYPE>
0

> <PUBCHEM_TOTAL_CHARGE>
0

> <PUBCHEM_SUBSTANCE_ID>
310949086

> <PUBCHEM_SUBSTANCE_VERSION>
1

> <PUBCHEM_EXT_DATASOURCE_NAME>
4488

> <PUBCHEM_EXT_DATASOURCE_REGID>
SCHEMBL16127276

> <PUBCHEM_SUBSTANCE_COMMENT>
InChI=1S/C14H17F3N2/c15-14(16,17)12-4-2-1-3-11(12)9-5-10-7-19-8-13(10,18)6-9/h1-4,9-10,19H,5-8,18H2/t9-,10?,13-/m1/s1
InChIKey=VKVGCGGZJVIDPX-NDAPUWOLSA-N

> <PUBCHEM_SUBSTANCE_SYNONYM>
SCHEMBL16127276

> <PUBCHEM_XREF_EXT_ID>
SCHEMBL16127276

> <PUBCHEM_EXT_DATASOURCE_URL>
https://www.surechembl.org/

> <PUBCHEM_EXT_SUBSTANCE_URL>
https://www.surechembl.org/chemical/SCHEMBL16127276

> <PUBCHEM_CID_ASSOCIATIONS>
117614591  1

> <PUBCHEM_COORDINATE_TYPE>
1
3

> <PUBCHEM_BONDANNOTATIONS>
6  5  6
7  12  5

$$$$
