310937918
  -OEChem-07211613022D

 13 13  0     0  0  0  0  0  0999 V2000
    2.8893   -4.9817    0.0000 O   0  0  0  0  0  0  0  0  0  0  0  0
    0.0000    0.0000    0.0000 O   0  0  0  0  0  0  0  0  0  0  0  0
    2.1670   -2.0674    0.0000 N   0  0  0  0  0  0  0  0  0  0  0  0
    1.4447   -4.9817    0.0000 N   0  0  0  0  0  0  0  0  0  0  0  0
    2.1670   -3.7362    0.0000 C   0  0  0  0  0  0  0  0  0  0  0  0
    1.4447   -2.4908    0.0000 C   0  0  0  0  0  0  0  0  0  0  0  0
    1.4447   -3.3128    0.0000 C   0  0  0  0  0  0  0  0  0  0  0  0
    2.1670   -4.5582    0.0000 C   0  0  0  0  0  0  0  0  0  0  0  0
    2.8893   -3.3128    0.0000 C   0  0  0  0  0  0  0  0  0  0  0  0
    2.8893   -2.4908    0.0000 C   0  0  0  0  0  0  0  0  0  0  0  0
    0.7224   -2.0674    0.0000 C   0  0  0  0  0  0  0  0  0  0  0  0
    0.7224   -1.2454    0.0000 C   0  0  0  0  0  0  0  0  0  0  0  0
    0.0000   -0.8469    0.0000 C   0  0  0  0  0  0  0  0  0  0  0  0
  1  8  2  0  0  0  0
  2 13  1  0  0  0  0
  3  6  1  0  0  0  0
  3 10  2  0  0  0  0
  4  8  1  0  0  0  0
  5  7  1  0  0  0  0
  5  8  1  0  0  0  0
  5  9  2  0  0  0  0
  6  7  2  0  0  0  0
  6 11  1  0  0  0  0
  9 10  1  0  0  0  0
 11 12  1  0  0  0  0
 12 13  1  0  0  0  0
M  END
> <PUBCHEM_COMPOUND_ID_TYPE>
0

> <PUBCHEM_TOTAL_CHARGE>
0

> <PUBCHEM_SUBSTANCE_ID>
310937918

> <PUBCHEM_SUBSTANCE_VERSION>
1

> <PUBCHEM_EXT_DATASOURCE_NAME>
4488

> <PUBCHEM_EXT_DATASOURCE_REGID>
SCHEMBL16115747

> <PUBCHEM_SUBSTANCE_COMMENT>
InChI=1S/C9H12N2O2/c10-9(13)7-3-4-11-8(6-7)2-1-5-12/h3-4,6,12H,1-2,5H2,(H2,10,13)
InChIKey=IRIRWWQIWYHZHB-UHFFFAOYSA-N

> <PUBCHEM_SUBSTANCE_SYNONYM>
SCHEMBL16115747

> <PUBCHEM_XREF_EXT_ID>
SCHEMBL16115747

> <PUBCHEM_EXT_DATASOURCE_URL>
https://www.surechembl.org/

> <PUBCHEM_EXT_SUBSTANCE_URL>
https://www.surechembl.org/chemical/SCHEMBL16115747

> <PUBCHEM_CID_ASSOCIATIONS>
117605531  1

> <PUBCHEM_COORDINATE_TYPE>
1
3

$$$$
