310940028
  -OEChem-07211613022D

 20 21  0     0  0  0  0  0  0999 V2000
    1.5538    7.1897    0.0000 O   0  0  0  0  0  0  0  0  0  0  0  0
   -2.0186    5.1272    0.0000 O   0  0  0  0  0  0  0  0  0  0  0  0
    0.8393    8.4272    0.0000 O   0  0  0  0  0  0  0  0  0  0  0  0
   -1.3041    6.3647    0.0000 N   0  0  0  0  0  0  0  0  0  0  0  0
    0.1249    7.1897    0.0000 N   0  0  0  0  0  0  0  0  0  0  0  0
   -2.0186    5.9522    0.0000 C   0  0  0  0  0  0  0  0  0  0  0  0
    0.8393    7.6022    0.0000 C   0  0  0  0  0  0  0  0  0  0  0  0
   -2.7330    6.3647    0.0000 C   0  0  0  0  0  0  0  0  0  0  0  0
   -1.3041    7.1897    0.0000 C   0  0  0  0  0  0  0  0  0  0  0  0
   -0.5896    5.9522    0.0000 C   0  0  0  0  0  0  0  0  0  0  0  0
    0.1249    6.3647    0.0000 C   0  0  0  0  0  0  0  0  0  0  0  0
   -0.5896    7.6022    0.0000 C   0  0  0  0  0  0  0  0  0  0  0  0
    2.2683    7.6022    0.0000 C   0  0  0  0  0  0  0  0  0  0  0  0
   -3.5176    6.1098    0.0000 C   0  0  0  0  0  0  0  0  0  0  0  0
   -2.7330    7.1897    0.0000 C   0  0  0  0  0  0  0  0  0  0  0  0
   -4.0026    6.7772    0.0000 C   0  0  0  0  0  0  0  0  0  0  0  0
   -3.5176    7.4447    0.0000 C   0  0  0  0  0  0  0  0  0  0  0  0
    2.9827    8.0147    0.0000 C   0  0  0  0  0  0  0  0  0  0  0  0
    2.2683    8.4272    0.0000 C   0  0  0  0  0  0  0  0  0  0  0  0
    2.9827    7.1897    0.0000 C   0  0  0  0  0  0  0  0  0  0  0  0
  1  7  1  0  0  0  0
  1 13  1  0  0  0  0
  2  6  2  0  0  0  0
  3  7  2  0  0  0  0
  4  6  1  0  0  0  0
  4  9  1  0  0  0  0
  4 10  1  0  0  0  0
  5  7  1  0  0  0  0
  5 11  1  0  0  0  0
  5 12  1  0  0  0  0
  6  8  1  0  0  0  0
  8 14  2  0  0  0  0
  8 15  1  0  0  0  0
  9 12  1  0  0  0  0
 10 11  1  0  0  0  0
 13 18  1  0  0  0  0
 13 19  1  0  0  0  0
 13 20  1  0  0  0  0
 14 16  1  0  0  0  0
 15 17  1  0  0  0  0
 16 17  1  0  0  0  0
M  END
> <PUBCHEM_COMPOUND_ID_TYPE>
0

> <PUBCHEM_TOTAL_CHARGE>
0

> <PUBCHEM_SUBSTANCE_ID>
310940028

> <PUBCHEM_SUBSTANCE_VERSION>
1

> <PUBCHEM_EXT_DATASOURCE_NAME>
4488

> <PUBCHEM_EXT_DATASOURCE_REGID>
SCHEMBL16117958

> <PUBCHEM_SUBSTANCE_COMMENT>
InChI=1S/C15H24N2O3/c1-15(2,3)20-14(19)17-10-8-16(9-11-17)13(18)12-6-4-5-7-12/h6H,4-5,7-11H2,1-3H3
InChIKey=UPGWJJTYHCBIMX-UHFFFAOYSA-N

> <PUBCHEM_SUBSTANCE_SYNONYM>
SCHEMBL16117958

> <PUBCHEM_XREF_EXT_ID>
SCHEMBL16117958

> <PUBCHEM_EXT_DATASOURCE_URL>
https://www.surechembl.org/

> <PUBCHEM_EXT_SUBSTANCE_URL>
https://www.surechembl.org/chemical/SCHEMBL16117958

> <PUBCHEM_CID_ASSOCIATIONS>
117607182  1

> <PUBCHEM_COORDINATE_TYPE>
1
3

$$$$
