310932111
  -OEChem-07211613022D

 21 22  0     0  0  0  0  0  0999 V2000
    0.0000   -2.7601    0.0000 Br  0  0  0  0  0  0  0  0  0  0  0  0
    1.4195   -5.2573    0.0000 Cl  0  0  0  0  0  0  0  0  0  0  0  0
    2.1818   -1.4457    0.0000 S   0  0  0  0  0  0  0  0  0  0  0  0
    5.0207   -3.1807    0.0000 O   0  0  0  0  0  0  0  0  0  0  0  0
    4.3109   -1.9452    0.0000 O   0  0  0  0  0  0  0  0  0  0  0  0
    3.5486   -1.4457    0.0000 N   0  0  0  0  0  0  0  0  0  0  0  0
    2.8652   -2.7601    0.0000 C   0  0  0  0  0  0  0  0  0  0  0  0
    2.1555   -3.1807    0.0000 C   0  0  0  0  0  0  0  0  0  0  0  0
    2.8652   -1.9452    0.0000 C   0  0  0  0  0  0  0  0  0  0  0  0
    1.4195   -2.7601    0.0000 C   0  0  0  0  0  0  0  0  0  0  0  0
    2.1555   -4.0218    0.0000 C   0  0  0  0  0  0  0  0  0  0  0  0
    3.6012   -3.1807    0.0000 C   0  0  0  0  0  0  0  0  0  0  0  0
    2.4709   -0.6571    0.0000 C   0  0  0  0  0  0  0  0  0  0  0  0
    0.7097   -3.1807    0.0000 C   0  0  0  0  0  0  0  0  0  0  0  0
    1.4195   -4.4161    0.0000 C   0  0  0  0  0  0  0  0  0  0  0  0
    3.2858   -0.6571    0.0000 C   0  0  0  0  0  0  0  0  0  0  0  0
    0.7097   -3.9955    0.0000 C   0  0  0  0  0  0  0  0  0  0  0  0
    4.3109   -2.7601    0.0000 C   0  0  0  0  0  0  0  0  0  0  0  0
    1.9715    0.0000    0.0000 C   0  0  0  0  0  0  0  0  0  0  0  0
    5.7304   -2.7601    0.0000 C   0  0  0  0  0  0  0  0  0  0  0  0
    5.7304   -1.9452    0.0000 C   0  0  0  0  0  0  0  0  0  0  0  0
  1 14  1  0  0  0  0
  2 15  1  0  0  0  0
  3  9  1  0  0  0  0
  3 13  1  0  0  0  0
  4 18  1  0  0  0  0
  4 20  1  0  0  0  0
  5 18  2  0  0  0  0
  6  9  2  0  0  0  0
  6 16  1  0  0  0  0
  7  8  1  0  0  0  0
  7  9  1  0  0  0  0
  7 12  2  0  0  0  0
  8 10  1  0  0  0  0
  8 11  2  0  0  0  0
 10 14  2  0  0  0  0
 11 15  1  0  0  0  0
 12 18  1  0  0  0  0
 13 16  2  0  0  0  0
 13 19  1  0  0  0  0
 14 17  1  0  0  0  0
 15 17  2  0  0  0  0
 20 21  1  0  0  0  0
M  END
> <PUBCHEM_COMPOUND_ID_TYPE>
0

> <PUBCHEM_TOTAL_CHARGE>
0

> <PUBCHEM_SUBSTANCE_ID>
310932111

> <PUBCHEM_SUBSTANCE_VERSION>
1

> <PUBCHEM_EXT_DATASOURCE_NAME>
4488

> <PUBCHEM_EXT_DATASOURCE_REGID>
SCHEMBL16109461

> <PUBCHEM_SUBSTANCE_COMMENT>
InChI=1S/C15H13BrClNO2S/c1-3-20-14(19)7-13(15-18-8-9(2)21-15)10-4-11(16)6-12(17)5-10/h4-8H,3H2,1-2H3/b13-7-
InChIKey=WLIBLQNJVAVQIV-QPEQYQDCSA-N

> <PUBCHEM_SUBSTANCE_SYNONYM>
SCHEMBL16109461

> <PUBCHEM_XREF_EXT_ID>
SCHEMBL16109461

> <PUBCHEM_EXT_DATASOURCE_URL>
https://www.surechembl.org/

> <PUBCHEM_EXT_SUBSTANCE_URL>
https://www.surechembl.org/chemical/SCHEMBL16109461

> <PUBCHEM_CID_ASSOCIATIONS>
117600729  1

> <PUBCHEM_COORDINATE_TYPE>
1
3

$$$$
