310945576
  -OEChem-07211613022D

 20 21  0     0  0  0  0  0  0999 V2000
    2.5336   -2.4122    0.0000 Cl  0  0  0  0  0  0  0  0  0  0  0  0
   -0.7493    2.4122    0.0000 F   0  0  0  0  0  0  0  0  0  0  0  0
    0.3497    2.0982    0.0000 F   0  0  0  0  0  0  0  0  0  0  0  0
    0.0072    1.0134    0.0000 F   0  0  0  0  0  0  0  0  0  0  0  0
   -0.3355    0.0714    0.0000 N   0  0  0  0  0  0  0  0  0  0  0  0
   -1.1062    1.3132    0.0000 C   0  0  0  0  0  0  0  0  0  0  0  0
   -1.1205    0.4996    0.0000 C   0  0  0  0  0  0  0  0  0  0  0  0
   -0.3640    1.7128    0.0000 C   0  0  0  0  0  0  0  0  0  0  0  0
   -0.3925   -0.7423    0.0000 C   0  0  0  0  0  0  0  0  0  0  0  0
    0.3355   -1.1705    0.0000 C   0  0  0  0  0  0  0  0  0  0  0  0
   -1.8341    1.7128    0.0000 C   0  0  0  0  0  0  0  0  0  0  0  0
   -1.8199    0.0857    0.0000 C   0  0  0  0  0  0  0  0  0  0  0  0
   -2.5336    1.3132    0.0000 C   0  0  0  0  0  0  0  0  0  0  0  0
   -2.5336    0.4853    0.0000 C   0  0  0  0  0  0  0  0  0  0  0  0
    0.3497   -1.9840    0.0000 C   0  0  0  0  0  0  0  0  0  0  0  0
    1.0491   -0.7565    0.0000 C   0  0  0  0  0  0  0  0  0  0  0  0
    1.7771   -1.9698    0.0000 C   0  0  0  0  0  0  0  0  0  0  0  0
    1.0920   -2.3836    0.0000 C   0  0  0  0  0  0  0  0  0  0  0  0
    1.7771   -1.1705    0.0000 C   0  0  0  0  0  0  0  0  0  0  0  0
   -1.1205   -1.1705    0.0000 C   0  0  0  0  0  0  0  0  0  0  0  0
  1 17  1  0  0  0  0
  2  8  1  0  0  0  0
  3  8  1  0  0  0  0
  4  8  1  0  0  0  0
  5  7  1  0  0  0  0
  5  9  2  0  0  0  0
  6  7  2  0  0  0  0
  6  8  1  0  0  0  0
  6 11  1  0  0  0  0
  7 12  1  0  0  0  0
  9 10  1  0  0  0  0
  9 20  1  0  0  0  0
 10 15  2  0  0  0  0
 10 16  1  0  0  0  0
 11 13  2  0  0  0  0
 12 14  2  0  0  0  0
 13 14  1  0  0  0  0
 15 18  1  0  0  0  0
 16 19  2  0  0  0  0
 17 18  2  0  0  0  0
 17 19  1  0  0  0  0
M  END
> <PUBCHEM_COMPOUND_ID_TYPE>
0

> <PUBCHEM_TOTAL_CHARGE>
0

> <PUBCHEM_SUBSTANCE_ID>
310945576

> <PUBCHEM_SUBSTANCE_VERSION>
1

> <PUBCHEM_EXT_DATASOURCE_NAME>
4488

> <PUBCHEM_EXT_DATASOURCE_REGID>
SCHEMBL16123674

> <PUBCHEM_SUBSTANCE_COMMENT>
InChI=1S/C15H11ClF3N/c1-10(11-6-8-12(16)9-7-11)20-14-5-3-2-4-13(14)15(17,18)19/h2-9H,1H3/b20-10+
InChIKey=QSQTUJFXSPIBRE-KEBDBYFISA-N

> <PUBCHEM_SUBSTANCE_SYNONYM>
SCHEMBL16123674

> <PUBCHEM_XREF_EXT_ID>
SCHEMBL16123674

> <PUBCHEM_EXT_DATASOURCE_URL>
https://www.surechembl.org/

> <PUBCHEM_EXT_SUBSTANCE_URL>
https://www.surechembl.org/chemical/SCHEMBL16123674

> <PUBCHEM_CID_ASSOCIATIONS>
14913786  1

> <PUBCHEM_COORDINATE_TYPE>
1
3

$$$$
