310938489
  -OEChem-07211613022D

 20 22  0     0  0  0  0  0  0999 V2000
    5.1335   -0.7000    0.0000 Cl  0  0  0  0  0  0  0  0  0  0  0  0
    1.8084   -0.7000    0.0000 F   0  0  0  0  0  0  0  0  0  0  0  0
    1.6917   -3.0334    0.0000 N   0  0  0  0  0  0  0  0  0  0  0  0
    3.8793   -1.4292    0.0000 N   0  0  0  0  0  0  0  0  0  0  0  0
    3.0334   -2.8876    0.0000 N   0  0  0  0  0  0  0  0  0  0  0  0
    3.8793    0.0000    0.0000 N   0  0  0  0  0  0  0  0  0  0  0  0
    3.0918   -1.4292    0.0000 C   0  0  0  0  0  0  0  0  0  0  0  0
    2.6834   -2.1292    0.0000 C   0  0  0  0  0  0  0  0  0  0  0  0
    2.6542   -0.7000    0.0000 C   0  0  0  0  0  0  0  0  0  0  0  0
    1.8667   -2.2167    0.0000 C   0  0  0  0  0  0  0  0  0  0  0  0
    4.3168   -0.7000    0.0000 C   0  0  0  0  0  0  0  0  0  0  0  0
    2.4209   -3.4417    0.0000 C   0  0  0  0  0  0  0  0  0  0  0  0
    3.0918    0.0000    0.0000 C   0  0  0  0  0  0  0  0  0  0  0  0
    0.9334   -3.3834    0.0000 C   0  0  0  0  0  0  0  0  0  0  0  0
    0.8458   -4.2001    0.0000 C   0  0  0  0  0  0  0  0  0  0  0  0
    0.1167   -4.5209    0.0000 C   0  0  0  0  0  0  0  0  0  0  0  0
    1.5167   -4.6668    0.0000 C   0  0  0  0  0  0  0  0  0  0  0  0
    0.0000   -5.3376    0.0000 C   0  0  0  0  0  0  0  0  0  0  0  0
    1.4292   -5.4834    0.0000 C   0  0  0  0  0  0  0  0  0  0  0  0
    0.6708   -5.8334    0.0000 C   0  0  0  0  0  0  0  0  0  0  0  0
  1 11  1  0  0  0  0
  2  9  1  0  0  0  0
  3 10  1  0  0  0  0
  3 12  1  0  0  0  0
  3 14  1  0  0  0  0
  4  7  2  0  0  0  0
  4 11  1  0  0  0  0
  5  8  1  0  0  0  0
  5 12  2  0  0  0  0
  6 11  2  0  0  0  0
  6 13  1  0  0  0  0
  7  8  1  0  0  0  0
  7  9  1  0  0  0  0
  8 10  2  0  0  0  0
  9 13  2  0  0  0  0
 14 15  1  0  0  0  0
 15 16  2  0  0  0  0
 15 17  1  0  0  0  0
 16 18  1  0  0  0  0
 17 19  2  0  0  0  0
 18 20  2  0  0  0  0
 19 20  1  0  0  0  0
M  END
> <PUBCHEM_COMPOUND_ID_TYPE>
0

> <PUBCHEM_TOTAL_CHARGE>
0

> <PUBCHEM_SUBSTANCE_ID>
310938489

> <PUBCHEM_SUBSTANCE_VERSION>
1

> <PUBCHEM_EXT_DATASOURCE_NAME>
4488

> <PUBCHEM_EXT_DATASOURCE_REGID>
SCHEMBL16116394

> <PUBCHEM_SUBSTANCE_COMMENT>
InChI=1S/C14H10ClFN4/c15-14-17-6-11(16)13(19-14)12-8-20(9-18-12)7-10-4-2-1-3-5-10/h1-6,8-9H,7H2
InChIKey=GNASNQDAQUACQV-UHFFFAOYSA-N

> <PUBCHEM_SUBSTANCE_SYNONYM>
SCHEMBL16116394

> <PUBCHEM_XREF_EXT_ID>
SCHEMBL16116394

> <PUBCHEM_EXT_DATASOURCE_URL>
https://www.surechembl.org/

> <PUBCHEM_EXT_SUBSTANCE_URL>
https://www.surechembl.org/chemical/SCHEMBL16116394

> <PUBCHEM_CID_ASSOCIATIONS>
117605944  1

> <PUBCHEM_COORDINATE_TYPE>
1
3

$$$$
