310939947
  -OEChem-07211613022D

 29 31  0     1  0  0  0  0  0999 V2000
    1.7862    4.7084    0.0000 Cl  0  0  0  0  0  0  0  0  0  0  0  0
    0.3572    2.2334    0.0000 O   0  0  0  0  0  0  0  0  0  0  0  0
    0.3572   -3.8834    0.0000 O   0  0  0  0  0  0  0  0  0  0  0  0
   -1.0717    4.7084    0.0000 O   0  0  0  0  0  0  0  0  0  0  0  0
   -0.3572   -0.6541    0.0000 N   0  0  0  0  0  0  0  0  0  0  0  0
   -0.3572   -2.6459    0.0000 N   0  0  0  0  0  0  0  0  0  0  0  0
   -0.3572    0.9959    0.0000 N   0  0  0  0  0  0  0  0  0  0  0  0
   -1.0717    3.0584    0.0000 N   0  0  0  0  0  0  0  0  0  0  0  0
   -0.3572   -1.4791    0.0000 C   0  0  0  0  0  0  0  0  0  0  0  0
   -0.9406   -2.0625    0.0000 C   0  0  0  0  0  0  0  0  0  0  0  0
    0.2261   -2.0625    0.0000 C   0  0  0  0  0  0  0  0  0  0  0  0
   -0.3572    1.8209    0.0000 C   0  0  0  0  0  0  0  0  0  0  0  0
   -0.3572    3.4709    0.0000 C   0  0  0  0  0  0  0  0  0  0  0  0
   -1.0717   -0.2416    0.0000 C   0  0  0  0  0  0  0  0  0  0  0  0
    0.3572   -0.2416    0.0000 C   0  0  0  0  0  0  0  0  0  0  0  0
   -1.0717    2.2334    0.0000 C   0  0  3  0  0  0  0  0  0  0  0  0
   -0.3572   -3.4709    0.0000 C   0  0  0  0  0  0  0  0  0  0  0  0
   -1.0717    0.5834    0.0000 C   0  0  0  0  0  0  0  0  0  0  0  0
    0.3572    0.5834    0.0000 C   0  0  0  0  0  0  0  0  0  0  0  0
   -0.3572    4.2959    0.0000 C   0  0  0  0  0  0  0  0  0  0  0  0
    1.0717    3.4709    0.0000 C   0  0  0  0  0  0  0  0  0  0  0  0
    0.3572    3.0584    0.0000 C   0  0  0  0  0  0  0  0  0  0  0  0
    1.0717    4.2959    0.0000 C   0  0  0  0  0  0  0  0  0  0  0  0
    0.3572    4.7084    0.0000 C   0  0  0  0  0  0  0  0  0  0  0  0
   -1.0717   -3.8834    0.0000 C   0  0  0  0  0  0  0  0  0  0  0  0
    1.7862    3.0584    0.0000 C   0  0  0  0  0  0  0  0  0  0  0  0
   -1.7862    1.8209    0.0000 C   0  0  0  0  0  0  0  0  0  0  0  0
   -1.0717   -4.7084    0.0000 C   0  0  0  0  0  0  0  0  0  0  0  0
    1.7862    2.2334    0.0000 C   0  0  0  0  0  0  0  0  0  0  0  0
  1 23  1  0  0  0  0
  2 12  2  0  0  0  0
  3 17  2  0  0  0  0
  4 20  1  0  0  0  0
  5  9  1  0  0  0  0
  5 14  1  0  0  0  0
  5 15  1  0  0  0  0
  6 10  1  0  0  0  0
  6 11  1  0  0  0  0
  6 17  1  0  0  0  0
  7 12  1  0  0  0  0
  7 18  1  0  0  0  0
  7 19  1  0  0  0  0
  8 13  1  0  0  0  0
  8 16  1  0  0  0  0
  9 10  1  0  0  0  0
  9 11  1  0  0  0  0
 12 16  1  0  0  0  0
 13 20  1  0  0  0  0
 13 22  2  0  0  0  0
 14 18  1  0  0  0  0
 15 19  1  0  0  0  0
 16 27  1  1  0  0  0
 17 25  1  0  0  0  0
 20 24  2  0  0  0  0
 21 22  1  0  0  0  0
 21 23  2  0  0  0  0
 21 26  1  0  0  0  0
 23 24  1  0  0  0  0
 25 28  2  0  0  0  0
 26 29  1  0  0  0  0
M  END
> <PUBCHEM_COMPOUND_ID_TYPE>
0

> <PUBCHEM_TOTAL_CHARGE>
0

> <PUBCHEM_SUBSTANCE_ID>
310939947

> <PUBCHEM_SUBSTANCE_VERSION>
1

> <PUBCHEM_EXT_DATASOURCE_NAME>
4488

> <PUBCHEM_EXT_DATASOURCE_REGID>
SCHEMBL16117877

> <PUBCHEM_SUBSTANCE_COMMENT>
InChI=1S/C21H29ClN4O3/c1-4-15-10-18(19(27)11-17(15)22)23-14(3)21(29)25-8-6-24(7-9-25)16-12-26(13-16)20(28)5-2/h5,10-11,14,16,23,27H,2,4,6-9,12-13H2,1,3H3/t14-/m1/s1
InChIKey=IQXYWQPKMDRBAH-CQSZACIVSA-N

> <PUBCHEM_SUBSTANCE_SYNONYM>
SCHEMBL16117877

> <PUBCHEM_XREF_EXT_ID>
SCHEMBL16117877

> <PUBCHEM_EXT_DATASOURCE_URL>
https://www.surechembl.org/

> <PUBCHEM_EXT_SUBSTANCE_URL>
https://www.surechembl.org/chemical/SCHEMBL16117877

> <PUBCHEM_CID_ASSOCIATIONS>
86279231  1

> <PUBCHEM_COORDINATE_TYPE>
1
3

> <PUBCHEM_BONDANNOTATIONS>
16  27  5

$$$$
