310943396
  -OEChem-07211613022D

 40 44  0     0  0  0  0  0  0999 V2000
   -4.2978   -0.2120    0.0000 O   0  0  0  0  0  0  0  0  0  0  0  0
   -5.7304    2.2585    0.0000 O   0  0  0  0  0  0  0  0  0  0  0  0
    1.4034    2.2585    0.0000 O   0  0  0  0  0  0  0  0  0  0  0  0
   -4.2978   -2.6825    0.0000 O   0  0  0  0  0  0  0  0  0  0  0  0
   -4.3124    1.4399    0.0000 N   0  0  0  0  0  0  0  0  0  0  0  0
   -2.1635    0.2120    0.0000 N   0  0  0  0  0  0  0  0  0  0  0  0
   -2.8798   -0.2120    0.0000 N   0  0  0  0  0  0  0  0  0  0  0  0
    0.6871    1.0306    0.0000 N   0  0  0  0  0  0  0  0  0  0  0  0
    3.5376    0.2120    0.0000 N   0  0  0  0  0  0  0  0  0  0  0  0
    5.7304    0.6213    0.0000 N   0  0  0  0  0  0  0  0  0  0  0  0
   -3.5961    1.0452    0.0000 C   0  0  0  0  0  0  0  0  0  0  0  0
   -2.1635    1.0452    0.0000 C   0  0  0  0  0  0  0  0  0  0  0  0
   -1.4472    1.4545    0.0000 C   0  0  0  0  0  0  0  0  0  0  0  0
   -3.6107    0.2120    0.0000 C   0  0  0  0  0  0  0  0  0  0  0  0
   -2.9091    1.4399    0.0000 C   0  0  0  0  0  0  0  0  0  0  0  0
   -1.4472    2.2731    0.0000 C   0  0  0  0  0  0  0  0  0  0  0  0
   -0.7309    1.0452    0.0000 C   0  0  0  0  0  0  0  0  0  0  0  0
   -0.0438    1.4545    0.0000 C   0  0  0  0  0  0  0  0  0  0  0  0
   -0.7455    2.6678    0.0000 C   0  0  0  0  0  0  0  0  0  0  0  0
    2.1196    1.0306    0.0000 C   0  0  0  0  0  0  0  0  0  0  0  0
    3.5376    1.0452    0.0000 C   0  0  0  0  0  0  0  0  0  0  0  0
    1.3888    1.4399    0.0000 C   0  0  0  0  0  0  0  0  0  0  0  0
   -0.0292    2.2585    0.0000 C   0  0  0  0  0  0  0  0  0  0  0  0
    4.2978    1.4691    0.0000 C   0  0  0  0  0  0  0  0  0  0  0  0
   -4.3124    2.2731    0.0000 C   0  0  0  0  0  0  0  0  0  0  0  0
   -4.9994    1.0452    0.0000 C   0  0  0  0  0  0  0  0  0  0  0  0
   -4.2978   -1.0160    0.0000 C   0  0  0  0  0  0  0  0  0  0  0  0
    2.7921    1.4399    0.0000 C   0  0  0  0  0  0  0  0  0  0  0  0
    2.1196    0.2120    0.0000 C   0  0  0  0  0  0  0  0  0  0  0  0
   -2.1781    2.6678    0.0000 C   0  0  0  0  0  0  0  0  0  0  0  0
   -5.0141    2.6825    0.0000 C   0  0  0  0  0  0  0  0  0  0  0  0
   -5.7304    1.4399    0.0000 C   0  0  0  0  0  0  0  0  0  0  0  0
    2.8651   -0.2120    0.0000 C   0  0  0  0  0  0  0  0  0  0  0  0
   -5.0141   -1.4253    0.0000 C   0  0  0  0  0  0  0  0  0  0  0  0
   -3.5814   -1.4399    0.0000 C   0  0  0  0  0  0  0  0  0  0  0  0
    5.0141    1.0306    0.0000 C   0  0  0  0  0  0  0  0  0  0  0  0
    4.2831    2.3462    0.0000 C   0  0  0  0  0  0  0  0  0  0  0  0
    5.0141    1.8638    0.0000 C   0  0  0  0  0  0  0  0  0  0  0  0
   -5.0141   -2.2585    0.0000 C   0  0  0  0  0  0  0  0  0  0  0  0
   -3.5961   -2.2585    0.0000 C   0  0  0  0  0  0  0  0  0  0  0  0
  1 14  1  0  0  0  0
  1 27  1  0  0  0  0
  2 31  1  0  0  0  0
  2 32  1  0  0  0  0
  3 22  2  0  0  0  0
  4 39  1  0  0  0  0
  4 40  1  0  0  0  0
  5 11  1  0  0  0  0
  5 25  1  0  0  0  0
  5 26  1  0  0  0  0
  6  7  1  0  0  0  0
  6 12  2  0  0  0  0
  7 14  2  0  0  0  0
  8 18  1  0  0  0  0
  8 22  1  0  0  0  0
  9 21  2  0  0  0  0
  9 33  1  0  0  0  0
 10 36  3  0  0  0  0
 11 14  1  0  0  0  0
 11 15  2  0  0  0  0
 12 13  1  0  0  0  0
 12 15  1  0  0  0  0
 13 16  2  0  0  0  0
 13 17  1  0  0  0  0
 16 19  1  0  0  0  0
 16 30  1  0  0  0  0
 17 18  2  0  0  0  0
 18 23  1  0  0  0  0
 19 23  2  0  0  0  0
 20 22  1  0  0  0  0
 20 28  2  0  0  0  0
 20 29  1  0  0  0  0
 21 24  1  0  0  0  0
 21 28  1  0  0  0  0
 24 36  1  0  0  0  0
 24 37  1  0  0  0  0
 24 38  1  0  0  0  0
 25 31  1  0  0  0  0
 26 32  1  0  0  0  0
 27 34  1  0  0  0  0
 27 35  1  0  0  0  0
 29 33  2  0  0  0  0
 34 39  1  0  0  0  0
 35 40  1  0  0  0  0
M  END
> <PUBCHEM_COMPOUND_ID_TYPE>
0

> <PUBCHEM_TOTAL_CHARGE>
0

> <PUBCHEM_SUBSTANCE_ID>
310943396

> <PUBCHEM_SUBSTANCE_VERSION>
1

> <PUBCHEM_EXT_DATASOURCE_NAME>
4488

> <PUBCHEM_EXT_DATASOURCE_REGID>
SCHEMBL16121459

> <PUBCHEM_SUBSTANCE_COMMENT>
InChI=1S/C30H34N6O4/c1-20-4-5-22(33-28(37)21-6-9-32-27(16-21)30(2,3)19-31)17-24(20)25-18-26(36-10-14-39-15-11-36)29(35-34-25)40-23-7-12-38-13-8-23/h4-6,9,16-18,23H,7-8,10-15H2,1-3H3,(H,33,37)
InChIKey=SDTMEOJAYBOKRA-UHFFFAOYSA-N

> <PUBCHEM_SUBSTANCE_SYNONYM>
SCHEMBL16121459

> <PUBCHEM_XREF_EXT_ID>
SCHEMBL16121459

> <PUBCHEM_EXT_DATASOURCE_URL>
https://www.surechembl.org/

> <PUBCHEM_EXT_SUBSTANCE_URL>
https://www.surechembl.org/chemical/SCHEMBL16121459

> <PUBCHEM_CID_ASSOCIATIONS>
117609820  1

> <PUBCHEM_COORDINATE_TYPE>
1
3

$$$$
