310944748
  -OEChem-07211613022D

 26 28  0     0  0  0  0  0  0999 V2000
   -4.2748    0.9058    0.0000 Cl  0  0  0  0  0  0  0  0  0  0  0  0
   -4.2748    2.5686    0.0000 Cl  0  0  0  0  0  0  0  0  0  0  0  0
    0.1303    1.7372    0.0000 O   0  0  0  0  0  0  0  0  0  0  0  0
   -0.5398   -1.3277    0.0000 O   0  0  0  0  0  0  0  0  0  0  0  0
    3.8281   -1.0175    0.0000 O   0  0  0  0  0  0  0  0  0  0  0  0
   -1.1602    1.0671    0.0000 N   0  0  0  0  0  0  0  0  0  0  0  0
   -1.0361    2.4073    0.0000 N   0  0  0  0  0  0  0  0  0  0  0  0
    0.8624   -0.9554    0.0000 N   0  0  0  0  0  0  0  0  0  0  0  0
    2.4632   -1.3773    0.0000 N   0  0  0  0  0  0  0  0  0  0  0  0
   -1.9668    1.3402    0.0000 C   0  0  0  0  0  0  0  0  0  0  0  0
   -1.9544    2.1591    0.0000 C   0  0  0  0  0  0  0  0  0  0  0  0
   -0.7135    1.7496    0.0000 C   0  0  0  0  0  0  0  0  0  0  0  0
   -2.6617    0.9183    0.0000 C   0  0  0  0  0  0  0  0  0  0  0  0
   -2.6865    2.5562    0.0000 C   0  0  0  0  0  0  0  0  0  0  0  0
   -3.3938    1.3277    0.0000 C   0  0  0  0  0  0  0  0  0  0  0  0
   -3.3938    2.1591    0.0000 C   0  0  0  0  0  0  0  0  0  0  0  0
   -0.9617    0.2978    0.0000 C   0  0  0  0  0  0  0  0  0  0  0  0
   -0.1551    0.0496    0.0000 C   0  0  0  0  0  0  0  0  0  0  0  0
    0.0682   -0.7197    0.0000 C   0  0  0  0  0  0  0  0  0  0  0  0
    1.4456   -0.3723    0.0000 C   0  0  0  0  0  0  0  0  0  0  0  0
    1.0734   -1.7496    0.0000 C   0  0  0  0  0  0  0  0  0  0  0  0
    2.2398   -0.5832    0.0000 C   0  0  0  0  0  0  0  0  0  0  0  0
    1.8799   -1.9606    0.0000 C   0  0  0  0  0  0  0  0  0  0  0  0
    3.2449   -1.6131    0.0000 C   0  0  0  0  0  0  0  0  0  0  0  0
    3.4682   -2.3949    0.0000 C   0  0  0  0  0  0  0  0  0  0  0  0
    4.2748   -2.5686    0.0000 C   0  0  0  0  0  0  0  0  0  0  0  0
  1 15  1  0  0  0  0
  2 16  1  0  0  0  0
  3 12  2  0  0  0  0
  4 19  2  0  0  0  0
  5 24  2  0  0  0  0
  6 10  1  0  0  0  0
  6 12  1  0  0  0  0
  6 17  1  0  0  0  0
  7 11  1  0  0  0  0
  7 12  1  0  0  0  0
  8 19  1  0  0  0  0
  8 20  1  0  0  0  0
  8 21  1  0  0  0  0
  9 22  1  0  0  0  0
  9 23  1  0  0  0  0
  9 24  1  0  0  0  0
 10 11  2  0  0  0  0
 10 13  1  0  0  0  0
 11 14  1  0  0  0  0
 13 15  2  0  0  0  0
 14 16  2  0  0  0  0
 15 16  1  0  0  0  0
 17 18  1  0  0  0  0
 18 19  1  0  0  0  0
 20 22  1  0  0  0  0
 21 23  1  0  0  0  0
 24 25  1  0  0  0  0
 25 26  2  0  0  0  0
M  END
> <PUBCHEM_COMPOUND_ID_TYPE>
0

> <PUBCHEM_TOTAL_CHARGE>
0

> <PUBCHEM_SUBSTANCE_ID>
310944748

> <PUBCHEM_SUBSTANCE_VERSION>
1

> <PUBCHEM_EXT_DATASOURCE_NAME>
4488

> <PUBCHEM_EXT_DATASOURCE_REGID>
SCHEMBL16122827

> <PUBCHEM_SUBSTANCE_COMMENT>
InChI=1S/C17H18Cl2N4O3/c1-2-15(24)21-5-7-22(8-6-21)16(25)3-4-23-14-10-12(19)11(18)9-13(14)20-17(23)26/h2,9-10H,1,3-8H2,(H,20,26)
InChIKey=LDWHYWUXPKNFRL-UHFFFAOYSA-N

> <PUBCHEM_SUBSTANCE_SYNONYM>
SCHEMBL16122827

> <PUBCHEM_XREF_EXT_ID>
SCHEMBL16122827

> <PUBCHEM_EXT_DATASOURCE_URL>
https://www.surechembl.org/

> <PUBCHEM_EXT_SUBSTANCE_URL>
https://www.surechembl.org/chemical/SCHEMBL16122827

> <PUBCHEM_CID_ASSOCIATIONS>
117610964  1

> <PUBCHEM_COORDINATE_TYPE>
1
3

$$$$
