310939188
  -OEChem-07211613022D

 26 28  0     1  0  0  0  0  0999 V2000
   -0.6348    1.4437    0.0000 Cl  0  0  0  0  0  0  0  0  0  0  0  0
   -2.0637   -1.0313    0.0000 F   0  0  0  0  0  0  0  0  0  0  0  0
   -0.6348   -0.2062    0.0000 O   0  0  0  0  0  0  0  0  0  0  0  0
    2.2231   -1.0313    0.0000 O   0  0  0  0  0  0  0  0  0  0  0  0
    2.9376    0.2062    0.0000 N   0  0  0  0  0  0  0  0  0  0  0  0
   -4.2071    0.2062    0.0000 N   0  0  0  0  0  0  0  0  0  0  0  0
   -1.3492    0.2062    0.0000 C   0  0  0  0  0  0  0  0  0  0  0  0
   -2.0637   -0.2062    0.0000 C   0  0  0  0  0  0  0  0  0  0  0  0
   -2.7782    0.2062    0.0000 C   0  0  0  0  0  0  0  0  0  0  0  0
   -1.3492    1.0313    0.0000 C   0  0  0  0  0  0  0  0  0  0  0  0
    0.0797    0.2062    0.0000 C   0  0  0  0  0  0  0  0  0  0  0  0
    1.5086    0.2062    0.0000 C   0  0  0  0  0  0  0  0  0  0  0  0
   -2.7782    1.0313    0.0000 C   0  0  0  0  0  0  0  0  0  0  0  0
   -3.4927   -0.2062    0.0000 C   0  0  3  0  0  0  0  0  0  0  0  0
    2.2231   -0.2062    0.0000 C   0  0  0  0  0  0  0  0  0  0  0  0
   -2.0637    1.4437    0.0000 C   0  0  0  0  0  0  0  0  0  0  0  0
    0.7942   -0.2062    0.0000 C   0  0  0  0  0  0  0  0  0  0  0  0
    0.0797    1.0313    0.0000 C   0  0  0  0  0  0  0  0  0  0  0  0
    1.5086    1.0313    0.0000 C   0  0  0  0  0  0  0  0  0  0  0  0
    0.7942    1.4437    0.0000 C   0  0  0  0  0  0  0  0  0  0  0  0
    2.9376    1.0312    0.0000 C   0  0  0  0  0  0  0  0  0  0  0  0
    3.7222   -0.0487    0.0000 C   0  0  0  0  0  0  0  0  0  0  0  0
   -3.4927   -1.0313    0.0000 C   0  0  0  0  0  0  0  0  0  0  0  0
    4.2071    0.6187    0.0000 C   0  0  0  0  0  0  0  0  0  0  0  0
    3.7222    1.2862    0.0000 C   0  0  0  0  0  0  0  0  0  0  0  0
   -4.2071   -1.4437    0.0000 C   0  0  0  0  0  0  0  0  0  0  0  0
  1 10  1  0  0  0  0
  2  8  1  0  0  0  0
  3  7  1  0  0  0  0
  3 11  1  0  0  0  0
  4 15  2  0  0  0  0
  5 15  1  0  0  0  0
  5 21  1  0  0  0  0
  5 22  1  0  0  0  0
 14  6  1  6  0  0  0
  7  8  1  0  0  0  0
  7 10  2  0  0  0  0
  8  9  2  0  0  0  0
  9 13  1  0  0  0  0
  9 14  1  0  0  0  0
 10 16  1  0  0  0  0
 11 17  2  0  0  0  0
 11 18  1  0  0  0  0
 12 15  1  0  0  0  0
 12 17  1  0  0  0  0
 12 19  2  0  0  0  0
 13 16  2  0  0  0  0
 14 23  1  0  0  0  0
 18 20  2  0  0  0  0
 19 20  1  0  0  0  0
 21 25  1  0  0  0  0
 22 24  1  0  0  0  0
 23 26  1  0  0  0  0
 24 25  1  0  0  0  0
M  END
> <PUBCHEM_COMPOUND_ID_TYPE>
0

> <PUBCHEM_TOTAL_CHARGE>
0

> <PUBCHEM_SUBSTANCE_ID>
310939188

> <PUBCHEM_SUBSTANCE_VERSION>
1

> <PUBCHEM_EXT_DATASOURCE_NAME>
4488

> <PUBCHEM_EXT_DATASOURCE_REGID>
SCHEMBL16117109

> <PUBCHEM_SUBSTANCE_COMMENT>
InChI=1S/C20H22ClFN2O2/c1-2-17(23)15-8-9-16(21)19(18(15)22)26-14-7-5-6-13(12-14)20(25)24-10-3-4-11-24/h5-9,12,17H,2-4,10-11,23H2,1H3/t17-/m0/s1
InChIKey=VIJGISQNNQQCST-KRWDZBQOSA-N

> <PUBCHEM_SUBSTANCE_SYNONYM>
SCHEMBL16117109

> <PUBCHEM_XREF_EXT_ID>
SCHEMBL16117109

> <PUBCHEM_EXT_DATASOURCE_URL>
https://www.surechembl.org/

> <PUBCHEM_EXT_SUBSTANCE_URL>
https://www.surechembl.org/chemical/SCHEMBL16117109

> <PUBCHEM_CID_ASSOCIATIONS>
117606537  1

> <PUBCHEM_COORDINATE_TYPE>
1
3

> <PUBCHEM_BONDANNOTATIONS>
14  6  6

$$$$
