310948338
  -OEChem-07211613022D

 17 18  0     0  0  0  0  0  0999 V2000
   -3.3688    0.4223    0.0000 Br  0  0  0  0  0  0  0  0  0  0  0  0
    1.2081    1.2473    0.0000 O   0  0  0  0  0  0  0  0  0  0  0  0
    0.5009   -0.0099    0.0000 N   0  0  0  0  0  0  0  0  0  0  0  0
    1.9348   -0.8349    0.0000 N   0  0  0  0  0  0  0  0  0  0  0  0
    2.6616    0.4223    0.0000 N   0  0  0  0  0  0  0  0  0  0  0  0
    1.9348    0.0099    0.0000 C   0  0  0  0  0  0  0  0  0  0  0  0
    1.2081    0.4027    0.0000 C   0  0  0  0  0  0  0  0  0  0  0  0
   -0.9330    0.0099    0.0000 C   0  0  0  0  0  0  0  0  0  0  0  0
   -0.2455    0.4027    0.0000 C   0  0  0  0  0  0  0  0  0  0  0  0
   -1.6402    0.4027    0.0000 C   0  0  0  0  0  0  0  0  0  0  0  0
   -2.3670    0.0099    0.0000 C   0  0  0  0  0  0  0  0  0  0  0  0
   -0.9330   -0.8151    0.0000 C   0  0  0  0  0  0  0  0  0  0  0  0
    2.6616   -1.2473    0.0000 C   0  0  0  0  0  0  0  0  0  0  0  0
    3.3688   -0.0099    0.0000 C   0  0  0  0  0  0  0  0  0  0  0  0
    3.3688   -0.8349    0.0000 C   0  0  0  0  0  0  0  0  0  0  0  0
   -2.3670   -0.8151    0.0000 C   0  0  0  0  0  0  0  0  0  0  0  0
   -1.6205   -1.2277    0.0000 C   0  0  0  0  0  0  0  0  0  0  0  0
  1 11  1  0  0  0  0
  2  7  2  0  0  0  0
  3  7  1  0  0  0  0
  3  9  1  0  0  0  0
  4  6  2  0  0  0  0
  4 13  1  0  0  0  0
  5  6  1  0  0  0  0
  5 14  2  0  0  0  0
  6  7  1  0  0  0  0
  8  9  1  0  0  0  0
  8 10  2  0  0  0  0
  8 12  1  0  0  0  0
 10 11  1  0  0  0  0
 11 16  2  0  0  0  0
 12 17  2  0  0  0  0
 13 15  2  0  0  0  0
 14 15  1  0  0  0  0
 16 17  1  0  0  0  0
M  END
> <PUBCHEM_COMPOUND_ID_TYPE>
0

> <PUBCHEM_TOTAL_CHARGE>
0

> <PUBCHEM_SUBSTANCE_ID>
310948338

> <PUBCHEM_SUBSTANCE_VERSION>
1

> <PUBCHEM_EXT_DATASOURCE_NAME>
4488

> <PUBCHEM_EXT_DATASOURCE_REGID>
SCHEMBL16126516

> <PUBCHEM_SUBSTANCE_COMMENT>
InChI=1S/C12H10BrN3O/c13-10-4-1-3-9(7-10)8-16-12(17)11-14-5-2-6-15-11/h1-7H,8H2,(H,16,17)
InChIKey=NZMMGTHAXPJYLU-UHFFFAOYSA-N

> <PUBCHEM_SUBSTANCE_SYNONYM>
SCHEMBL16126516

> <PUBCHEM_XREF_EXT_ID>
SCHEMBL16126516

> <PUBCHEM_EXT_DATASOURCE_URL>
https://www.surechembl.org/

> <PUBCHEM_EXT_SUBSTANCE_URL>
https://www.surechembl.org/chemical/SCHEMBL16126516

> <PUBCHEM_CID_ASSOCIATIONS>
117613903  1

> <PUBCHEM_COORDINATE_TYPE>
1
3

$$$$
