310937519
  -OEChem-07211613022D

 31 34  0     0  0  0  0  0  0999 V2000
    2.7893   -4.1250    0.0000 O   0  0  0  0  0  0  0  0  0  0  0  0
    5.6572   -4.2035    0.0000 O   0  0  0  0  0  0  0  0  0  0  0  0
    2.8285   -2.5143    0.0000 N   0  0  0  0  0  0  0  0  0  0  0  0
    3.4964   -1.2572    0.0000 N   0  0  0  0  0  0  0  0  0  0  0  0
    2.1214   -1.2572    0.0000 N   0  0  0  0  0  0  0  0  0  0  0  0
    4.2035   -4.1250    0.0000 N   0  0  0  0  0  0  0  0  0  0  0  0
    6.3250   -5.4214    0.0000 N   0  0  0  0  0  0  0  0  0  0  0  0
    0.7072   -0.4322    0.0000 N   0  0  0  0  0  0  0  0  0  0  0  0
    4.2428   -2.5143    0.0000 C   0  0  0  0  0  0  0  0  0  0  0  0
    3.4964   -2.9072    0.0000 C   0  0  0  0  0  0  0  0  0  0  0  0
    4.2428   -1.6500    0.0000 C   0  0  0  0  0  0  0  0  0  0  0  0
    2.8285   -1.6500    0.0000 C   0  0  0  0  0  0  0  0  0  0  0  0
    3.4964   -3.7322    0.0000 C   0  0  0  0  0  0  0  0  0  0  0  0
    5.0285   -2.7500    0.0000 C   0  0  0  0  0  0  0  0  0  0  0  0
    5.0285   -1.4143    0.0000 C   0  0  0  0  0  0  0  0  0  0  0  0
    5.5000   -2.0822    0.0000 C   0  0  0  0  0  0  0  0  0  0  0  0
    4.9107   -5.3822    0.0000 C   0  0  0  0  0  0  0  0  0  0  0  0
    4.9107   -6.2072    0.0000 C   0  0  0  0  0  0  0  0  0  0  0  0
    4.2035   -4.9500    0.0000 C   0  0  0  0  0  0  0  0  0  0  0  0
    2.1214   -0.4322    0.0000 C   0  0  0  0  0  0  0  0  0  0  0  0
    1.4143   -1.6500    0.0000 C   0  0  0  0  0  0  0  0  0  0  0  0
    5.6178   -5.0285    0.0000 C   0  0  0  0  0  0  0  0  0  0  0  0
    5.5785   -6.6392    0.0000 C   0  0  0  0  0  0  0  0  0  0  0  0
    6.3250   -6.2464    0.0000 C   0  0  0  0  0  0  0  0  0  0  0  0
    0.7072   -1.2178    0.0000 C   0  0  0  0  0  0  0  0  0  0  0  0
    1.4143    0.0000    0.0000 C   0  0  0  0  0  0  0  0  0  0  0  0
    4.1643   -6.6392    0.0000 C   0  0  0  0  0  0  0  0  0  0  0  0
    7.0322   -6.6785    0.0000 C   0  0  0  0  0  0  0  0  0  0  0  0
    4.1643   -7.4250    0.0000 C   0  0  0  0  0  0  0  0  0  0  0  0
    0.0000    0.0000    0.0000 C   0  0  0  0  0  0  0  0  0  0  0  0
    4.8714   -7.8572    0.0000 C   0  0  0  0  0  0  0  0  0  0  0  0
  1 13  2  0  0  0  0
  2 22  2  0  0  0  0
  3 10  1  0  0  0  0
  3 12  2  0  0  0  0
  4 11  2  0  0  0  0
  4 12  1  0  0  0  0
  5 12  1  0  0  0  0
  5 20  1  0  0  0  0
  5 21  1  0  0  0  0
  6 13  1  0  0  0  0
  6 19  1  0  0  0  0
  7 22  1  0  0  0  0
  7 24  1  0  0  0  0
  8 25  1  0  0  0  0
  8 26  1  0  0  0  0
  8 30  1  0  0  0  0
  9 10  2  0  0  0  0
  9 11  1  0  0  0  0
  9 14  1  0  0  0  0
 10 13  1  0  0  0  0
 11 15  1  0  0  0  0
 14 16  1  0  0  0  0
 15 16  1  0  0  0  0
 17 18  2  0  0  0  0
 17 19  1  0  0  0  0
 17 22  1  0  0  0  0
 18 23  1  0  0  0  0
 18 27  1  0  0  0  0
 20 26  1  0  0  0  0
 21 25  1  0  0  0  0
 23 24  2  0  0  0  0
 24 28  1  0  0  0  0
 27 29  1  0  0  0  0
 29 31  1  0  0  0  0
M  END
> <PUBCHEM_COMPOUND_ID_TYPE>
0

> <PUBCHEM_TOTAL_CHARGE>
0

> <PUBCHEM_SUBSTANCE_ID>
310937519

> <PUBCHEM_SUBSTANCE_VERSION>
1

> <PUBCHEM_EXT_DATASOURCE_NAME>
4488

> <PUBCHEM_EXT_DATASOURCE_REGID>
SCHEMBL16115293

> <PUBCHEM_SUBSTANCE_COMMENT>
InChI=1S/C23H32N6O2/c1-4-6-16-13-15(2)25-21(30)18(16)14-24-22(31)20-17-7-5-8-19(17)26-23(27-20)29-11-9-28(3)10-12-29/h13H,4-12,14H2,1-3H3,(H,24,31)(H,25,30)
InChIKey=YWBUVCSWBZPXAL-UHFFFAOYSA-N

> <PUBCHEM_SUBSTANCE_SYNONYM>
SCHEMBL16115293

> <PUBCHEM_XREF_EXT_ID>
SCHEMBL16115293

> <PUBCHEM_EXT_DATASOURCE_URL>
https://www.surechembl.org/

> <PUBCHEM_EXT_SUBSTANCE_URL>
https://www.surechembl.org/chemical/SCHEMBL16115293

> <PUBCHEM_CID_ASSOCIATIONS>
86272457  1

> <PUBCHEM_COORDINATE_TYPE>
1
3

$$$$
