310929265
  -OEChem-07211613022D

 41 45  0     0  0  0  0  0  0999 V2000
    9.1523   -5.1253    0.0000 O   0  0  0  0  0  0  0  0  0  0  0  0
    6.8185   -0.7322    0.0000 O   0  0  0  0  0  0  0  0  0  0  0  0
    3.8440   -1.3271    0.0000 O   0  0  0  0  0  0  0  0  0  0  0  0
   12.4929   -3.7067    0.0000 O   0  0  0  0  0  0  0  0  0  0  0  0
   13.7285   -4.4389    0.0000 O   0  0  0  0  0  0  0  0  0  0  0  0
    0.0000   -3.3406    0.0000 O   0  0  0  0  0  0  0  0  0  0  0  0
   12.4929   -5.1253    0.0000 N   0  0  0  0  0  0  0  0  0  0  0  0
    6.6812   -3.6152    0.0000 N   0  0  0  0  0  0  0  0  0  0  0  0
    7.9625   -2.9288    0.0000 N   0  0  0  0  0  0  0  0  0  0  0  0
    3.7982   -2.7915    0.0000 N   0  0  0  0  0  0  0  0  0  0  0  0
    1.6932   -3.4322    0.0000 N   0  0  0  0  0  0  0  0  0  0  0  0
   10.4337   -4.4389    0.0000 C   0  0  0  0  0  0  0  0  0  0  0  0
   11.2574   -4.4389    0.0000 C   0  0  0  0  0  0  0  0  0  0  0  0
    9.9761   -5.1253    0.0000 C   0  0  0  0  0  0  0  0  0  0  0  0
   11.6693   -5.1253    0.0000 C   0  0  0  0  0  0  0  0  0  0  0  0
   10.3879   -5.8575    0.0000 C   0  0  0  0  0  0  0  0  0  0  0  0
   11.2574   -5.8575    0.0000 C   0  0  0  0  0  0  0  0  0  0  0  0
    8.7405   -4.3931    0.0000 C   0  0  0  0  0  0  0  0  0  0  0  0
   10.0218   -3.7067    0.0000 C   0  0  0  0  0  0  0  0  0  0  0  0
   11.6693   -3.7067    0.0000 C   0  0  0  0  0  0  0  0  0  0  0  0
    6.3151   -2.8830    0.0000 C   0  0  0  0  0  0  0  0  0  0  0  0
    7.5507   -3.6152    0.0000 C   0  0  0  0  0  0  0  0  0  0  0  0
    5.0796   -2.1050    0.0000 C   0  0  0  0  0  0  0  0  0  0  0  0
    7.9168   -4.3931    0.0000 C   0  0  0  0  0  0  0  0  0  0  0  0
   10.4337   -2.9745    0.0000 C   0  0  0  0  0  0  0  0  0  0  0  0
   11.2574   -2.9745    0.0000 C   0  0  0  0  0  0  0  0  0  0  0  0
    5.4914   -2.8372    0.0000 C   0  0  0  0  0  0  0  0  0  0  0  0
    6.3609   -1.4186    0.0000 C   0  0  0  0  0  0  0  0  0  0  0  0
    6.7728   -2.1508    0.0000 C   0  0  0  0  0  0  0  0  0  0  0  0
    9.1981   -3.7067    0.0000 C   0  0  0  0  0  0  0  0  0  0  0  0
    5.5372   -1.4186    0.0000 C   0  0  0  0  0  0  0  0  0  0  0  0
    4.2558   -2.0593    0.0000 C   0  0  0  0  0  0  0  0  0  0  0  0
   12.9048   -4.4389    0.0000 C   0  0  0  0  0  0  0  0  0  0  0  0
    8.7863   -2.9288    0.0000 C   0  0  0  0  0  0  0  0  0  0  0  0
    2.9745   -2.7457    0.0000 C   0  0  0  0  0  0  0  0  0  0  0  0
    2.5169   -3.4322    0.0000 C   0  0  0  0  0  0  0  0  0  0  0  0
    6.4067    0.0000    0.0000 C   0  0  0  0  0  0  0  0  0  0  0  0
    1.2356   -4.1185    0.0000 C   0  0  0  0  0  0  0  0  0  0  0  0
    1.3271   -2.6999    0.0000 C   0  0  0  0  0  0  0  0  0  0  0  0
    0.4118   -4.0728    0.0000 C   0  0  0  0  0  0  0  0  0  0  0  0
    0.5034   -2.6542    0.0000 C   0  0  0  0  0  0  0  0  0  0  0  0
  1 14  1  0  0  0  0
  1 18  1  0  0  0  0
  2 28  1  0  0  0  0
  2 37  1  0  0  0  0
  3 32  2  0  0  0  0
  4 33  2  0  0  0  0
  5 33  1  0  0  0  0
  6 40  1  0  0  0  0
  6 41  1  0  0  0  0
  7 15  1  0  0  0  0
  7 33  1  0  0  0  0
  8 21  1  0  0  0  0
  8 22  1  0  0  0  0
  9 22  1  0  0  0  0
  9 34  2  0  0  0  0
 10 32  1  0  0  0  0
 10 35  1  0  0  0  0
 11 36  1  0  0  0  0
 11 38  1  0  0  0  0
 11 39  1  0  0  0  0
 12 13  2  0  0  0  0
 12 14  1  0  0  0  0
 12 19  1  0  0  0  0
 13 15  1  0  0  0  0
 13 20  1  0  0  0  0
 14 16  2  0  0  0  0
 15 17  2  0  0  0  0
 16 17  1  0  0  0  0
 18 24  1  0  0  0  0
 18 30  2  0  0  0  0
 19 25  2  0  0  0  0
 20 26  2  0  0  0  0
 21 27  2  0  0  0  0
 21 29  1  0  0  0  0
 22 24  2  0  0  0  0
 23 27  1  0  0  0  0
 23 31  2  0  0  0  0
 23 32  1  0  0  0  0
 25 26  1  0  0  0  0
 28 29  2  0  0  0  0
 28 31  1  0  0  0  0
 30 34  1  0  0  0  0
 35 36  1  0  0  0  0
 38 40  1  0  0  0  0
 39 41  1  0  0  0  0
M  END
> <PUBCHEM_COMPOUND_ID_TYPE>
0

> <PUBCHEM_TOTAL_CHARGE>
0

> <PUBCHEM_SUBSTANCE_ID>
310929265

> <PUBCHEM_SUBSTANCE_VERSION>
1

> <PUBCHEM_EXT_DATASOURCE_NAME>
4488

> <PUBCHEM_EXT_DATASOURCE_REGID>
SCHEMBL16106429

> <PUBCHEM_SUBSTANCE_COMMENT>
InChI=1S/C30H31N5O6/c1-39-23-17-20(29(36)32-10-11-35-12-14-40-15-13-35)16-21(18-23)33-28-19-22(8-9-31-28)41-27-7-6-26(34-30(37)38)24-4-2-3-5-25(24)27/h2-9,16-19,34H,10-15H2,1H3,(H,31,33)(H,32,36)(H,37,38)
InChIKey=JWHCFCVAPPKDCC-UHFFFAOYSA-N

> <PUBCHEM_SUBSTANCE_SYNONYM>
SCHEMBL16106429

> <PUBCHEM_XREF_EXT_ID>
SCHEMBL16106429

> <PUBCHEM_EXT_DATASOURCE_URL>
https://www.surechembl.org/

> <PUBCHEM_EXT_SUBSTANCE_URL>
https://www.surechembl.org/chemical/SCHEMBL16106429

> <PUBCHEM_CID_ASSOCIATIONS>
117598687  1

> <PUBCHEM_COORDINATE_TYPE>
1
3

$$$$
