310940107
  -OEChem-07211613022D

 34 37  0     0  0  0  0  0  0999 V2000
   -1.5836   -2.4088    0.0000 O   0  0  0  0  0  0  0  0  0  0  0  0
   -1.8003    2.8256    0.0000 O   0  0  0  0  0  0  0  0  0  0  0  0
   -1.0336    4.0758    0.0000 O   0  0  0  0  0  0  0  0  0  0  0  0
   -0.0667   -0.0083    0.0000 N   0  0  0  0  0  0  0  0  0  0  0  0
    0.4335   -0.6918    0.0000 N   0  0  0  0  0  0  0  0  0  0  0  0
    0.2167   -2.1755    0.0000 N   0  0  0  0  0  0  0  0  0  0  0  0
   -0.1833    2.4422    0.0000 N   0  0  0  0  0  0  0  0  0  0  0  0
   -2.3172   -1.1419    0.0000 N   0  0  0  0  0  0  0  0  0  0  0  0
    2.4004    0.5418    0.0000 N   0  0  0  0  0  0  0  0  0  0  0  0
    0.1833    0.7751    0.0000 C   0  0  0  0  0  0  0  0  0  0  0  0
   -0.8501   -0.2751    0.0000 C   0  0  0  0  0  0  0  0  0  0  0  0
   -0.8668   -1.1252    0.0000 C   0  0  0  0  0  0  0  0  0  0  0  0
   -0.0500   -1.3753    0.0000 C   0  0  0  0  0  0  0  0  0  0  0  0
   -1.5836   -1.5253    0.0000 C   0  0  0  0  0  0  0  0  0  0  0  0
   -0.6168    1.0585    0.0000 C   0  0  0  0  0  0  0  0  0  0  0  0
    0.8168    1.3586    0.0000 C   0  0  0  0  0  0  0  0  0  0  0  0
   -1.6170    0.1250    0.0000 C   0  0  0  0  0  0  0  0  0  0  0  0
    0.7668    0.1750    0.0000 C   0  0  0  0  0  0  0  0  0  0  0  0
   -0.8001    1.8421    0.0000 C   0  0  0  0  0  0  0  0  0  0  0  0
    0.6335    2.1921    0.0000 C   0  0  0  0  0  0  0  0  0  0  0  0
   -2.3172   -0.2751    0.0000 C   0  0  0  0  0  0  0  0  0  0  0  0
    1.0336   -2.3421    0.0000 C   0  0  0  0  0  0  0  0  0  0  0  0
   -1.0336    3.2590    0.0000 C   0  0  0  0  0  0  0  0  0  0  0  0
    1.5670    0.3417    0.0000 C   0  0  0  0  0  0  0  0  0  0  0  0
    1.3003   -3.0923    0.0000 C   0  0  0  0  0  0  0  0  0  0  0  0
    1.5836   -1.7587    0.0000 C   0  0  0  0  0  0  0  0  0  0  0  0
   -1.8170    1.9587    0.0000 C   0  0  0  0  0  0  0  0  0  0  0  0
    2.0837   -3.2590    0.0000 C   0  0  0  0  0  0  0  0  0  0  0  0
    2.3505   -1.9087    0.0000 C   0  0  0  0  0  0  0  0  0  0  0  0
    2.6005   -2.6755    0.0000 C   0  0  0  0  0  0  0  0  0  0  0  0
   -2.6005    1.9253    0.0000 C   0  0  0  0  0  0  0  0  0  0  0  0
   -1.0336    1.9587    0.0000 C   0  0  0  0  0  0  0  0  0  0  0  0
   -1.8003    1.1086    0.0000 C   0  0  0  0  0  0  0  0  0  0  0  0
    2.3671   -4.0758    0.0000 C   0  0  0  0  0  0  0  0  0  0  0  0
  1 14  2  0  0  0  0
  2 23  1  0  0  0  0
  2 27  1  0  0  0  0
  3 23  2  0  0  0  0
  4  5  1  0  0  0  0
  4 10  1  0  0  0  0
  4 11  1  0  0  0  0
  5 13  2  0  0  0  0
  6 13  1  0  0  0  0
  6 22  1  0  0  0  0
  7 19  1  0  0  0  0
  7 20  1  0  0  0  0
  7 23  1  0  0  0  0
  8 14  1  0  0  0  0
  8 21  1  0  0  0  0
  9 24  3  0  0  0  0
 10 15  1  0  0  0  0
 10 16  1  0  0  0  0
 10 18  1  0  0  0  0
 11 12  2  0  0  0  0
 11 17  1  0  0  0  0
 12 13  1  0  0  0  0
 12 14  1  0  0  0  0
 15 19  1  0  0  0  0
 16 20  1  0  0  0  0
 17 21  2  0  0  0  0
 18 24  1  0  0  0  0
 22 25  2  0  0  0  0
 22 26  1  0  0  0  0
 25 28  1  0  0  0  0
 26 29  2  0  0  0  0
 27 31  1  0  0  0  0
 27 32  1  0  0  0  0
 27 33  1  0  0  0  0
 28 30  2  0  0  0  0
 28 34  1  0  0  0  0
 29 30  1  0  0  0  0
M  END
> <PUBCHEM_COMPOUND_ID_TYPE>
0

> <PUBCHEM_TOTAL_CHARGE>
0

> <PUBCHEM_SUBSTANCE_ID>
310940107

> <PUBCHEM_SUBSTANCE_VERSION>
1

> <PUBCHEM_EXT_DATASOURCE_NAME>
4488

> <PUBCHEM_EXT_DATASOURCE_REGID>
SCHEMBL16118038

> <PUBCHEM_SUBSTANCE_COMMENT>
InChI=1S/C25H30N6O3/c1-17-6-5-7-18(16-17)28-21-20-19(8-13-27-22(20)32)31(29-21)25(9-12-26)10-14-30(15-11-25)23(33)34-24(2,3)4/h5-8,13,16H,9-11,14-15H2,1-4H3,(H,27,32)(H,28,29)
InChIKey=ZTSXYXADCFZTEO-UHFFFAOYSA-N

> <PUBCHEM_SUBSTANCE_SYNONYM>
SCHEMBL16118038

> <PUBCHEM_XREF_EXT_ID>
SCHEMBL16118038

> <PUBCHEM_EXT_DATASOURCE_URL>
https://www.surechembl.org/

> <PUBCHEM_EXT_SUBSTANCE_URL>
https://www.surechembl.org/chemical/SCHEMBL16118038

> <PUBCHEM_CID_ASSOCIATIONS>
86268653  1

> <PUBCHEM_COORDINATE_TYPE>
1
3

$$$$
