310949589
  -OEChem-07211613022D

 25 27  0     0  0  0  0  0  0999 V2000
    1.1007    1.6511    0.0000 O   0  0  0  0  0  0  0  0  0  0  0  0
   -1.7708    0.8375    0.0000 O   0  0  0  0  0  0  0  0  0  0  0  0
    1.9143   -0.4067    0.0000 N   0  0  0  0  0  0  0  0  0  0  0  0
    2.7278   -0.5743    0.0000 N   0  0  0  0  0  0  0  0  0  0  0  0
    0.3828    0.4307    0.0000 N   0  0  0  0  0  0  0  0  0  0  0  0
    3.8286    1.2921    0.0000 N   0  0  0  0  0  0  0  0  0  0  0  0
    2.5842    0.7658    0.0000 C   0  0  0  0  0  0  0  0  0  0  0  0
    1.8186    0.4067    0.0000 C   0  0  0  0  0  0  0  0  0  0  0  0
    3.1346    0.1436    0.0000 C   0  0  0  0  0  0  0  0  0  0  0  0
    1.0768    0.8375    0.0000 C   0  0  0  0  0  0  0  0  0  0  0  0
    3.0150    1.4596    0.0000 C   0  0  0  0  0  0  0  0  0  0  0  0
    3.9004    0.4785    0.0000 C   0  0  0  0  0  0  0  0  0  0  0  0
   -2.5125   -0.4067    0.0000 C   0  0  0  0  0  0  0  0  0  0  0  0
   -2.4885    0.4307    0.0000 C   0  0  0  0  0  0  0  0  0  0  0  0
   -1.7468   -0.8375    0.0000 C   0  0  0  0  0  0  0  0  0  0  0  0
   -0.3828    0.8136    0.0000 C   0  0  0  0  0  0  0  0  0  0  0  0
   -3.2064   -0.7896    0.0000 C   0  0  0  0  0  0  0  0  0  0  0  0
   -3.2303    0.8136    0.0000 C   0  0  0  0  0  0  0  0  0  0  0  0
   -1.1007    0.4307    0.0000 C   0  0  0  0  0  0  0  0  0  0  0  0
    0.4068   -0.4307    0.0000 C   0  0  0  0  0  0  0  0  0  0  0  0
   -3.9004   -0.4067    0.0000 C   0  0  0  0  0  0  0  0  0  0  0  0
   -3.9004    0.4067    0.0000 C   0  0  0  0  0  0  0  0  0  0  0  0
   -1.7708   -1.6511    0.0000 C   0  0  0  0  0  0  0  0  0  0  0  0
   -1.0528   -0.3828    0.0000 C   0  0  0  0  0  0  0  0  0  0  0  0
   -1.0290   -1.2442    0.0000 C   0  0  0  0  0  0  0  0  0  0  0  0
  1 10  2  0  0  0  0
  2 14  1  0  0  0  0
  2 19  1  0  0  0  0
  3  4  1  0  0  0  0
  3  8  2  0  0  0  0
  4  9  1  0  0  0  0
  5 10  1  0  0  0  0
  5 16  1  0  0  0  0
  5 20  1  0  0  0  0
  6 11  1  0  0  0  0
  6 12  1  0  0  0  0
  7  8  1  0  0  0  0
  7  9  2  0  0  0  0
  7 11  1  0  0  0  0
  8 10  1  0  0  0  0
  9 12  1  0  0  0  0
 13 14  1  0  0  0  0
 13 15  1  0  0  0  0
 13 17  2  0  0  0  0
 14 18  2  0  0  0  0
 15 23  1  0  0  0  0
 15 24  1  0  0  0  0
 15 25  1  0  0  0  0
 16 19  1  0  0  0  0
 17 21  1  0  0  0  0
 18 22  1  0  0  0  0
 21 22  2  0  0  0  0
M  END
> <PUBCHEM_COMPOUND_ID_TYPE>
0

> <PUBCHEM_TOTAL_CHARGE>
0

> <PUBCHEM_SUBSTANCE_ID>
310949589

> <PUBCHEM_SUBSTANCE_VERSION>
1

> <PUBCHEM_EXT_DATASOURCE_NAME>
4488

> <PUBCHEM_EXT_DATASOURCE_REGID>
SCHEMBL16127786

> <PUBCHEM_SUBSTANCE_COMMENT>
InChI=1S/C19H26N4O2/c1-19(2,3)14-7-5-6-8-16(14)25-10-9-23(4)18(24)17-13-11-20-12-15(13)21-22-17/h5-8,20H,9-12H2,1-4H3,(H,21,22)
InChIKey=DUWNJYJOGYUTAJ-UHFFFAOYSA-N

> <PUBCHEM_SUBSTANCE_SYNONYM>
SCHEMBL16127786

> <PUBCHEM_XREF_EXT_ID>
SCHEMBL16127786

> <PUBCHEM_EXT_DATASOURCE_URL>
https://www.surechembl.org/

> <PUBCHEM_EXT_SUBSTANCE_URL>
https://www.surechembl.org/chemical/SCHEMBL16127786

> <PUBCHEM_CID_ASSOCIATIONS>
117614996  1

> <PUBCHEM_COORDINATE_TYPE>
1
3

$$$$
