310947235
  -OEChem-07211613022D

 60 69  0     0  0  0  0  0  0999 V2000
   -0.5053    5.8825    0.0000 O   0  0  0  0  0  0  0  0  0  0  0  0
   -0.5053   11.6577    0.0000 O   0  0  0  0  0  0  0  0  0  0  0  0
   -0.5053    2.5825    0.0000 N   0  0  0  0  0  0  0  0  0  0  0  0
   -0.5053   14.9577    0.0000 N   0  0  0  0  0  0  0  0  0  0  0  0
    0.2093    2.1698    0.0000 C   0  0  0  0  0  0  0  0  0  0  0  0
    0.2093   15.3702    0.0000 C   0  0  0  0  0  0  0  0  0  0  0  0
    1.0062    2.3834    0.0000 C   0  0  0  0  0  0  0  0  0  0  0  0
    1.0062   15.1567    0.0000 C   0  0  0  0  0  0  0  0  0  0  0  0
   -0.5053    3.4075    0.0000 C   0  0  0  0  0  0  0  0  0  0  0  0
   -0.5053   14.1327    0.0000 C   0  0  0  0  0  0  0  0  0  0  0  0
   -1.2197    2.1698    0.0000 C   0  0  0  0  0  0  0  0  0  0  0  0
   -1.2197   15.3702    0.0000 C   0  0  0  0  0  0  0  0  0  0  0  0
    1.5895    1.8000    0.0000 C   0  0  0  0  0  0  0  0  0  0  0  0
    1.5895   15.7402    0.0000 C   0  0  0  0  0  0  0  0  0  0  0  0
   -0.0043    1.3729    0.0000 C   0  0  0  0  0  0  0  0  0  0  0  0
   -0.0043   16.1672    0.0000 C   0  0  0  0  0  0  0  0  0  0  0  0
    1.2197    3.1803    0.0000 C   0  0  0  0  0  0  0  0  0  0  0  0
    1.2197   14.3598    0.0000 C   0  0  0  0  0  0  0  0  0  0  0  0
    1.3760    1.0031    0.0000 C   0  0  0  0  0  0  0  0  0  0  0  0
    1.3760   16.5371    0.0000 C   0  0  0  0  0  0  0  0  0  0  0  0
   -1.2197    3.8200    0.0000 C   0  0  0  0  0  0  0  0  0  0  0  0
    0.2093    3.8200    0.0000 C   0  0  0  0  0  0  0  0  0  0  0  0
   -1.2197   13.7202    0.0000 C   0  0  0  0  0  0  0  0  0  0  0  0
    0.2093   13.7202    0.0000 C   0  0  0  0  0  0  0  0  0  0  0  0
    0.5791    0.7896    0.0000 C   0  0  0  0  0  0  0  0  0  0  0  0
    0.5791   16.7505    0.0000 C   0  0  0  0  0  0  0  0  0  0  0  0
    2.3864    2.0136    0.0000 C   0  0  0  0  0  0  0  0  0  0  0  0
    2.3864   15.5266    0.0000 C   0  0  0  0  0  0  0  0  0  0  0  0
   -1.0062    1.3729    0.0000 C   0  0  0  0  0  0  0  0  0  0  0  0
   -2.0166    2.3834    0.0000 C   0  0  0  0  0  0  0  0  0  0  0  0
   -1.0062   16.1672    0.0000 C   0  0  0  0  0  0  0  0  0  0  0  0
   -2.0166   15.1567    0.0000 C   0  0  0  0  0  0  0  0  0  0  0  0
   -0.5053    5.0575    0.0000 C   0  0  0  0  0  0  0  0  0  0  0  0
   -0.5053   12.4827    0.0000 C   0  0  0  0  0  0  0  0  0  0  0  0
   -1.2197    4.6450    0.0000 C   0  0  0  0  0  0  0  0  0  0  0  0
    0.2093    4.6450    0.0000 C   0  0  0  0  0  0  0  0  0  0  0  0
   -1.2197   12.8952    0.0000 C   0  0  0  0  0  0  0  0  0  0  0  0
    0.2093   12.8952    0.0000 C   0  0  0  0  0  0  0  0  0  0  0  0
    2.0166    3.3939    0.0000 C   0  0  0  0  0  0  0  0  0  0  0  0
    2.0166   14.1462    0.0000 C   0  0  0  0  0  0  0  0  0  0  0  0
    2.6000    2.8105    0.0000 C   0  0  0  0  0  0  0  0  0  0  0  0
    2.6000   14.7297    0.0000 C   0  0  0  0  0  0  0  0  0  0  0  0
   -0.5053    6.7076    0.0000 C   0  0  0  0  0  0  0  0  0  0  0  0
   -0.5053   10.8326    0.0000 C   0  0  0  0  0  0  0  0  0  0  0  0
   -1.5895    0.7896    0.0000 C   0  0  0  0  0  0  0  0  0  0  0  0
   -2.6000    1.8000    0.0000 C   0  0  0  0  0  0  0  0  0  0  0  0
   -1.5895   16.7505    0.0000 C   0  0  0  0  0  0  0  0  0  0  0  0
   -2.6000   15.7402    0.0000 C   0  0  0  0  0  0  0  0  0  0  0  0
   -0.5053    8.3576    0.0000 C   0  0  0  0  0  0  0  0  0  0  0  0
   -0.5053    9.1826    0.0000 C   0  0  0  0  0  0  0  0  0  0  0  0
   -2.3864    1.0031    0.0000 C   0  0  0  0  0  0  0  0  0  0  0  0
   -2.3864   16.5371    0.0000 C   0  0  0  0  0  0  0  0  0  0  0  0
   -1.2197    7.1201    0.0000 C   0  0  0  0  0  0  0  0  0  0  0  0
    0.2093    7.1201    0.0000 C   0  0  0  0  0  0  0  0  0  0  0  0
   -1.2197   10.4201    0.0000 C   0  0  0  0  0  0  0  0  0  0  0  0
    0.2093   10.4201    0.0000 C   0  0  0  0  0  0  0  0  0  0  0  0
   -1.2197    7.9451    0.0000 C   0  0  0  0  0  0  0  0  0  0  0  0
    0.2093    7.9451    0.0000 C   0  0  0  0  0  0  0  0  0  0  0  0
   -1.2197    9.5951    0.0000 C   0  0  0  0  0  0  0  0  0  0  0  0
    0.2093    9.5951    0.0000 C   0  0  0  0  0  0  0  0  0  0  0  0
  1 33  1  0  0  0  0
  1 43  1  0  0  0  0
  2 34  1  0  0  0  0
  2 44  1  0  0  0  0
  3  5  1  0  0  0  0
  3  9  1  0  0  0  0
  3 11  1  0  0  0  0
  4  6  1  0  0  0  0
  4 10  1  0  0  0  0
  4 12  1  0  0  0  0
  5  7  1  0  0  0  0
  5 15  2  0  0  0  0
  6  8  2  0  0  0  0
  6 16  1  0  0  0  0
  7 13  2  0  0  0  0
  7 17  1  0  0  0  0
  8 14  1  0  0  0  0
  8 18  1  0  0  0  0
  9 21  2  0  0  0  0
  9 22  1  0  0  0  0
 10 23  2  0  0  0  0
 10 24  1  0  0  0  0
 11 29  2  0  0  0  0
 11 30  1  0  0  0  0
 12 31  2  0  0  0  0
 12 32  1  0  0  0  0
 13 19  1  0  0  0  0
 13 27  1  0  0  0  0
 14 20  2  0  0  0  0
 14 28  1  0  0  0  0
 15 25  1  0  0  0  0
 16 26  2  0  0  0  0
 17 39  2  0  0  0  0
 18 40  2  0  0  0  0
 19 25  2  0  0  0  0
 20 26  1  0  0  0  0
 21 35  1  0  0  0  0
 22 36  2  0  0  0  0
 23 37  1  0  0  0  0
 24 38  2  0  0  0  0
 27 41  2  0  0  0  0
 28 42  2  0  0  0  0
 29 45  1  0  0  0  0
 30 46  2  0  0  0  0
 31 47  1  0  0  0  0
 32 48  2  0  0  0  0
 33 35  2  0  0  0  0
 33 36  1  0  0  0  0
 34 37  2  0  0  0  0
 34 38  1  0  0  0  0
 39 41  1  0  0  0  0
 40 42  1  0  0  0  0
 43 53  2  0  0  0  0
 43 54  1  0  0  0  0
 44 55  2  0  0  0  0
 44 56  1  0  0  0  0
 45 51  2  0  0  0  0
 46 51  1  0  0  0  0
 47 52  2  0  0  0  0
 48 52  1  0  0  0  0
 49 50  1  0  0  0  0
 49 57  2  0  0  0  0
 49 58  1  0  0  0  0
 50 59  2  0  0  0  0
 50 60  1  0  0  0  0
 53 57  1  0  0  0  0
 54 58  2  0  0  0  0
 55 59  1  0  0  0  0
 56 60  2  0  0  0  0
M  END
> <PUBCHEM_COMPOUND_ID_TYPE>
0

> <PUBCHEM_TOTAL_CHARGE>
0

> <PUBCHEM_SUBSTANCE_ID>
310947235

> <PUBCHEM_SUBSTANCE_VERSION>
1

> <PUBCHEM_EXT_DATASOURCE_NAME>
4488

> <PUBCHEM_EXT_DATASOURCE_REGID>
SCHEMBL16125390

> <PUBCHEM_SUBSTANCE_COMMENT>
InChI=1S/C56H40N2O2/c1-3-17-45(18-4-1)57(55-23-11-15-43-13-7-9-21-53(43)55)47-29-37-51(38-30-47)59-49-33-25-41(26-34-49)42-27-35-50(36-28-42)60-52-39-31-48(32-40-52)58(46-19-5-2-6-20-46)56-24-12-16-44-14-8-10-22-54(44)56/h1-40H
InChIKey=QVWXKVCXINMXPR-UHFFFAOYSA-N

> <PUBCHEM_SUBSTANCE_SYNONYM>
SCHEMBL16125390

> <PUBCHEM_XREF_EXT_ID>
SCHEMBL16125390

> <PUBCHEM_EXT_DATASOURCE_URL>
https://www.surechembl.org/

> <PUBCHEM_EXT_SUBSTANCE_URL>
https://www.surechembl.org/chemical/SCHEMBL16125390

> <PUBCHEM_CID_ASSOCIATIONS>
117613050  1

> <PUBCHEM_COORDINATE_TYPE>
1
3

$$$$
