310947870
  -OEChem-07211613022D

 24 27  0     0  0  0  0  0  0999 V2000
    2.6982    6.6733    0.0000 F   0  0  0  0  0  0  0  0  0  0  0  0
   -2.4588    5.1040    0.0000 O   0  0  0  0  0  0  0  0  0  0  0  0
    0.3746    4.3491    0.0000 N   0  0  0  0  0  0  0  0  0  0  0  0
    2.4011    5.2756    0.0000 N   0  0  0  0  0  0  0  0  0  0  0  0
   -0.3398    2.2866    0.0000 N   0  0  0  0  0  0  0  0  0  0  0  0
    0.3276    1.8017    0.0000 N   0  0  0  0  0  0  0  0  0  0  0  0
   -0.7523    1.0170    0.0000 N   0  0  0  0  0  0  0  0  0  0  0  0
    1.0421    4.8340    0.0000 C   0  0  0  0  0  0  0  0  0  0  0  0
    0.7871    5.6186    0.0000 C   0  0  0  0  0  0  0  0  0  0  0  0
   -0.0379    5.6186    0.0000 C   0  0  0  0  0  0  0  0  0  0  0  0
   -0.2928    4.8340    0.0000 C   0  0  0  0  0  0  0  0  0  0  0  0
    1.8490    4.6625    0.0000 C   0  0  0  0  0  0  0  0  0  0  0  0
    1.3392    6.2317    0.0000 C   0  0  0  0  0  0  0  0  0  0  0  0
   -1.0998    4.6625    0.0000 C   0  0  0  0  0  0  0  0  0  0  0  0
   -0.5899    6.2317    0.0000 C   0  0  0  0  0  0  0  0  0  0  0  0
    0.3746    3.5241    0.0000 C   0  0  0  0  0  0  0  0  0  0  0  0
    2.1461    6.0602    0.0000 C   0  0  0  0  0  0  0  0  0  0  0  0
   -1.6518    5.2756    0.0000 C   0  0  0  0  0  0  0  0  0  0  0  0
   -1.3969    6.0602    0.0000 C   0  0  0  0  0  0  0  0  0  0  0  0
   -0.3398    3.1116    0.0000 C   0  0  0  0  0  0  0  0  0  0  0  0
    2.1040    3.8779    0.0000 C   0  0  0  0  0  0  0  0  0  0  0  0
   -1.0073    1.8017    0.0000 C   0  0  0  0  0  0  0  0  0  0  0  0
    0.0727    1.0170    0.0000 C   0  0  0  0  0  0  0  0  0  0  0  0
   -3.0108    5.7171    0.0000 C   0  0  0  0  0  0  0  0  0  0  0  0
  1 17  1  0  0  0  0
  2 18  1  0  0  0  0
  2 24  1  0  0  0  0
  3  8  1  0  0  0  0
  3 11  1  0  0  0  0
  3 16  1  0  0  0  0
  4 12  2  0  0  0  0
  4 17  1  0  0  0  0
  5  6  1  0  0  0  0
  5 20  1  0  0  0  0
  5 22  1  0  0  0  0
  6 23  2  0  0  0  0
  7 22  2  0  0  0  0
  7 23  1  0  0  0  0
  8  9  2  0  0  0  0
  8 12  1  0  0  0  0
  9 10  1  0  0  0  0
  9 13  1  0  0  0  0
 10 11  2  0  0  0  0
 10 15  1  0  0  0  0
 11 14  1  0  0  0  0
 12 21  1  0  0  0  0
 13 17  2  0  0  0  0
 14 18  2  0  0  0  0
 15 19  2  0  0  0  0
 16 20  1  0  0  0  0
 18 19  1  0  0  0  0
M  END
> <PUBCHEM_COMPOUND_ID_TYPE>
0

> <PUBCHEM_TOTAL_CHARGE>
0

> <PUBCHEM_SUBSTANCE_ID>
310947870

> <PUBCHEM_SUBSTANCE_VERSION>
1

> <PUBCHEM_EXT_DATASOURCE_NAME>
4488

> <PUBCHEM_EXT_DATASOURCE_REGID>
SCHEMBL16126044

> <PUBCHEM_SUBSTANCE_COMMENT>
InChI=1S/C17H16FN5O/c1-11-17-14(8-16(18)21-11)13-4-3-12(24-2)7-15(13)23(17)6-5-22-10-19-9-20-22/h3-4,7-10H,5-6H2,1-2H3
InChIKey=IZLAIIDVUJXVSW-UHFFFAOYSA-N

> <PUBCHEM_SUBSTANCE_SYNONYM>
SCHEMBL16126044

> <PUBCHEM_XREF_EXT_ID>
SCHEMBL16126044

> <PUBCHEM_EXT_DATASOURCE_URL>
https://www.surechembl.org/

> <PUBCHEM_EXT_SUBSTANCE_URL>
https://www.surechembl.org/chemical/SCHEMBL16126044

> <PUBCHEM_CID_ASSOCIATIONS>
117613534  1

> <PUBCHEM_COORDINATE_TYPE>
1
3

$$$$
