310942566
  -OEChem-07211613022D

 52 56  0     1  0  0  0  0  0999 V2000
   -1.3529    1.7490    0.0000 F   0  0  0  0  0  0  0  0  0  0  0  0
    0.0188    4.7930    0.0000 F   0  0  0  0  0  0  0  0  0  0  0  0
   -0.7328    0.6216    0.0000 O   0  0  0  0  0  0  0  0  0  0  0  0
    2.8936   -1.4640    0.0000 O   0  0  0  0  0  0  0  0  0  0  0  0
   -0.2255   -3.3054    0.0000 O   0  0  0  0  0  0  0  0  0  0  0  0
   -0.0230   -3.9741    0.0000 O   0  0  0  0  0  0  0  0  0  0  0  0
   -0.5210   -4.7930    0.0000 O   0  0  0  0  0  0  0  0  0  0  0  0
   -2.8936    1.0538    0.0000 O   0  0  0  0  0  0  0  0  0  0  0  0
   -4.2840    0.9975    0.0000 O   0  0  0  0  0  0  0  0  0  0  0  0
    1.4092    1.1102    0.0000 N   0  0  0  0  0  0  0  0  0  0  0  0
    0.0000   -0.6185    0.0000 N   0  0  0  0  0  0  0  0  0  0  0  0
    0.0564    1.1289    0.0000 N   0  0  0  0  0  0  0  0  0  0  0  0
   -2.0481   -2.1592    0.0000 N   0  0  0  0  0  0  0  0  0  0  0  0
   -1.4656   -0.6185    0.0000 N   0  0  0  0  0  0  0  0  0  0  0  0
    0.7328    0.6404    0.0000 C   0  0  0  0  0  0  0  0  0  0  0  0
    0.7140   -0.2051    0.0000 C   0  0  3  0  0  0  0  0  0  0  0  0
    0.3006    1.9181    0.0000 C   0  0  0  0  0  0  0  0  0  0  0  0
    1.4468   -0.6185    0.0000 C   0  0  0  0  0  0  0  0  0  0  0  0
    1.1650    1.8805    0.0000 C   0  0  0  0  0  0  0  0  0  0  0  0
   -0.1691    2.5758    0.0000 C   0  0  0  0  0  0  0  0  0  0  0  0
    0.0188   -1.4828    0.0000 C   0  0  0  0  0  0  0  0  0  0  0  0
   -0.7516   -0.2239    0.0000 C   0  0  0  0  0  0  0  0  0  0  0  0
   -0.7328   -1.8774    0.0000 C   0  0  3  0  0  0  0  0  0  0  0  0
    2.1608    0.6967    0.0000 C   0  0  0  0  0  0  0  0  0  0  0  0
   -1.0146    2.5194    0.0000 C   0  0  0  0  0  0  0  0  0  0  0  0
   -0.8268   -2.7041    0.0000 C   0  0  3  0  0  0  0  0  0  0  0  0
    1.4468   -1.4640    0.0000 C   0  0  0  0  0  0  0  0  0  0  0  0
    2.1608   -0.2239    0.0000 C   0  0  0  0  0  0  0  0  0  0  0  0
    0.1504    3.3649    0.0000 C   0  0  0  0  0  0  0  0  0  0  0  0
   -1.5032   -1.5392    0.0000 C   0  0  0  0  0  0  0  0  0  0  0  0
    2.8561    1.1102    0.0000 C   0  0  0  0  0  0  0  0  0  0  0  0
   -1.6159   -2.8920    0.0000 C   0  0  0  0  0  0  0  0  0  0  0  0
   -0.3382    4.0225    0.0000 C   0  0  0  0  0  0  0  0  0  0  0  0
   -1.4844    3.1770    0.0000 C   0  0  0  0  0  0  0  0  0  0  0  0
   -0.5210   -4.2617    0.0000 C   0  0  0  0  0  0  0  0  0  0  0  0
    2.1796   -1.8962    0.0000 C   0  0  0  0  0  0  0  0  0  0  0  0
    2.8936   -0.6373    0.0000 C   0  0  0  0  0  0  0  0  0  0  0  0
   -1.1461    3.9474    0.0000 C   0  0  0  0  0  0  0  0  0  0  0  0
   -2.1796   -0.2051    0.0000 C   0  0  3  0  0  0  0  0  0  0  0  0
    3.5701    0.7156    0.0000 C   0  0  0  0  0  0  0  0  0  0  0  0
    2.8561    1.8993    0.0000 C   0  0  0  0  0  0  0  0  0  0  0  0
   -0.0119   -3.4208    0.0000 C   0  0  0  0  0  0  0  0  0  0  0  0
    4.2840    1.1289    0.0000 C   0  0  0  0  0  0  0  0  0  0  0  0
    3.5701    2.3315    0.0000 C   0  0  0  0  0  0  0  0  0  0  0  0
   -2.1796    0.6404    0.0000 C   0  0  0  0  0  0  0  0  0  0  0  0
    4.2653    1.9369    0.0000 C   0  0  0  0  0  0  0  0  0  0  0  0
   -2.8936   -0.6185    0.0000 C   0  0  0  0  0  0  0  0  0  0  0  0
    0.4860   -3.3987    0.0000 C   0  0  0  0  0  0  0  0  0  0  0  0
   -0.5210   -3.4208    0.0000 C   0  0  0  0  0  0  0  0  0  0  0  0
   -0.0230   -2.8785    0.0000 C   0  0  0  0  0  0  0  0  0  0  0  0
   -3.6264    0.6216    0.0000 C   0  0  0  0  0  0  0  0  0  0  0  0
   -3.5889   -0.1863    0.0000 C   0  0  0  0  0  0  0  0  0  0  0  0
  1 25  1  0  0  0  0
  2 33  1  0  0  0  0
  3 22  2  0  0  0  0
  4 36  1  0  0  0  0
  4 37  1  0  0  0  0
 26  5  1  1  0  0  0
  6 35  1  0  0  0  0
  6 42  1  0  0  0  0
  7 35  2  0  0  0  0
  8 45  1  0  0  0  0
  8 51  1  0  0  0  0
  9 51  2  0  0  0  0
 10 15  1  0  0  0  0
 10 19  1  0  0  0  0
 10 24  1  0  0  0  0
 16 11  1  1  0  0  0
 11 21  1  0  0  0  0
 11 22  1  0  0  0  0
 12 15  2  0  0  0  0
 12 17  1  0  0  0  0
 13 30  1  0  0  0  0
 13 32  1  0  0  0  0
 13 35  1  0  0  0  0
 14 22  1  0  0  0  0
 14 39  1  0  0  0  0
 15 16  1  0  0  0  0
 16 18  1  0  0  0  0
 17 19  2  0  0  0  0
 17 20  1  0  0  0  0
 18 27  1  0  0  0  0
 18 28  1  0  0  0  0
 20 25  2  0  0  0  0
 20 29  1  0  0  0  0
 23 21  1  6  0  0  0
 23 26  1  0  0  0  0
 23 30  1  0  0  0  0
 24 31  1  0  0  0  0
 25 34  1  0  0  0  0
 26 32  1  0  0  0  0
 27 36  1  0  0  0  0
 28 37  1  0  0  0  0
 29 33  2  0  0  0  0
 31 40  2  0  0  0  0
 31 41  1  0  0  0  0
 33 38  1  0  0  0  0
 34 38  2  0  0  0  0
 39 45  1  0  0  0  0
 39 47  1  6  0  0  0
 40 43  1  0  0  0  0
 41 44  2  0  0  0  0
 42 48  1  0  0  0  0
 42 49  1  0  0  0  0
 42 50  1  0  0  0  0
 43 46  2  0  0  0  0
 44 46  1  0  0  0  0
 51 52  1  0  0  0  0
M  END
> <PUBCHEM_COMPOUND_ID_TYPE>
0

> <PUBCHEM_TOTAL_CHARGE>
0

> <PUBCHEM_SUBSTANCE_ID>
310942566

> <PUBCHEM_SUBSTANCE_VERSION>
1

> <PUBCHEM_EXT_DATASOURCE_NAME>
4488

> <PUBCHEM_EXT_DATASOURCE_REGID>
SCHEMBL16120611

> <PUBCHEM_SUBSTANCE_COMMENT>
InChI=1S/C38H49F2N5O7/c1-24(23-51-25(2)46)41-36(48)45(20-28-19-44(22-33(28)47)37(49)52-38(3,4)5)34(27-13-15-50-16-14-27)35-42-32(30-17-29(39)11-12-31(30)40)21-43(35)18-26-9-7-6-8-10-26/h6-12,17,21,24,27-28,33-34,47H,13-16,18-20,22-23H2,1-5H3,(H,41,48)/t24-,28-,33+,34-/m1/s1
InChIKey=RXYVLLKZMBZXPZ-FPGGFNBJSA-N

> <PUBCHEM_SUBSTANCE_SYNONYM>
SCHEMBL16120611

> <PUBCHEM_XREF_EXT_ID>
SCHEMBL16120611

> <PUBCHEM_EXT_DATASOURCE_URL>
https://www.surechembl.org/

> <PUBCHEM_EXT_SUBSTANCE_URL>
https://www.surechembl.org/chemical/SCHEMBL16120611

> <PUBCHEM_CID_ASSOCIATIONS>
117609121  1

> <PUBCHEM_COORDINATE_TYPE>
1
3

> <PUBCHEM_BONDANNOTATIONS>
16  11  5
23  21  6
39  47  6
26  5  5

$$$$
