310928898
  -OEChem-07211613022D

 24 25  0     1  0  0  0  0  0999 V2000
   -2.0200   -1.6074    0.0000 O   0  0  0  0  0  0  0  0  0  0  0  0
    3.4490    0.9014    0.0000 O   0  0  0  0  0  0  0  0  0  0  0  0
    0.8379   -2.4324    0.0000 O   0  0  0  0  0  0  0  0  0  0  0  0
    1.5523   -1.1949    0.0000 O   0  0  0  0  0  0  0  0  0  0  0  0
   -1.3056   -0.3699    0.0000 O   0  0  0  0  0  0  0  0  0  0  0  0
    2.1436    0.3202    0.0000 N   0  0  0  0  0  0  0  0  0  0  0  0
   -0.5911   -1.6074    0.0000 N   0  0  0  0  0  0  0  0  0  0  0  0
    0.9241    0.8631    0.0000 C   0  0  0  0  0  0  0  0  0  0  0  0
    1.7311    1.0346    0.0000 C   0  0  0  0  0  0  0  0  0  0  0  0
    0.8379    0.0426    0.0000 C   0  0  0  0  0  0  0  0  0  0  0  0
    1.5915   -0.2929    0.0000 C   0  0  0  0  0  0  0  0  0  0  0  0
    0.1234   -0.3699    0.0000 C   0  0  0  0  0  0  0  0  0  0  0  0
    0.1234   -1.1949    0.0000 C   0  0  3  0  0  0  0  0  0  0  0  0
    0.3721    1.4762    0.0000 C   0  0  0  0  0  0  0  0  0  0  0  0
    1.9860    1.8193    0.0000 C   0  0  0  0  0  0  0  0  0  0  0  0
    2.9640    0.2339    0.0000 C   0  0  0  0  0  0  0  0  0  0  0  0
    0.6270    2.2608    0.0000 C   0  0  0  0  0  0  0  0  0  0  0  0
    1.4340    2.4324    0.0000 C   0  0  0  0  0  0  0  0  0  0  0  0
    0.8379   -1.6074    0.0000 C   0  0  0  0  0  0  0  0  0  0  0  0
   -1.3056   -1.1949    0.0000 C   0  0  0  0  0  0  0  0  0  0  0  0
   -2.7345   -1.1949    0.0000 C   0  0  0  0  0  0  0  0  0  0  0  0
   -2.7345   -0.3699    0.0000 C   0  0  0  0  0  0  0  0  0  0  0  0
   -3.4490   -0.7824    0.0000 C   0  0  0  0  0  0  0  0  0  0  0  0
   -3.4490   -1.6074    0.0000 C   0  0  0  0  0  0  0  0  0  0  0  0
  1 20  1  0  0  0  0
  1 21  1  0  0  0  0
  2 16  2  0  0  0  0
  3 19  2  0  0  0  0
  4 19  1  0  0  0  0
  5 20  2  0  0  0  0
  6  9  1  0  0  0  0
  6 11  1  0  0  0  0
  6 16  1  0  0  0  0
  7 13  1  0  0  0  0
  7 20  1  0  0  0  0
  8  9  2  0  0  0  0
  8 10  1  0  0  0  0
  8 14  1  0  0  0  0
  9 15  1  0  0  0  0
 10 11  2  0  0  0  0
 10 12  1  0  0  0  0
 13 12  1  6  0  0  0
 13 19  1  0  0  0  0
 14 17  2  0  0  0  0
 15 18  2  0  0  0  0
 17 18  1  0  0  0  0
 21 22  1  0  0  0  0
 21 23  1  0  0  0  0
 21 24  1  0  0  0  0
M  END
> <PUBCHEM_COMPOUND_ID_TYPE>
0

> <PUBCHEM_TOTAL_CHARGE>
0

> <PUBCHEM_SUBSTANCE_ID>
310928898

> <PUBCHEM_SUBSTANCE_VERSION>
1

> <PUBCHEM_EXT_DATASOURCE_NAME>
11752

> <PUBCHEM_EXT_DATASOURCE_REGID>
BD34505

> <PUBCHEM_SUBSTANCE_SYNONYM>
(R)-2-((tert-Butoxycarbonyl)amino)-3-(1-formyl-1H-indol-3-yl)propanoic acid
64905-10-8

> <PUBCHEM_GENERIC_REGISTRY_NAME>
64905-10-8

> <PUBCHEM_XREF_EXT_ID>
BD34505

> <PUBCHEM_EXT_DATASOURCE_URL>
http://www.bidepharmatech.com/en/index.html

> <PUBCHEM_EXT_SUBSTANCE_URL>
http://www.bidepharmatech.com/en/goodsview_goodscode_BD34505.html

> <PUBCHEM_CID_ASSOCIATIONS>
7021874  1

> <PUBCHEM_COORDINATE_TYPE>
1
3

> <PUBCHEM_BONDANNOTATIONS>
13  12  6

$$$$
