310934238
  -OEChem-07211613022D

 28 30  0     0  0  0  0  0  0999 V2000
    0.0000   -4.4487    0.0000 Cl  0  0  0  0  0  0  0  0  0  0  0  0
    7.2969   -0.7053    0.0000 S   0  0  0  0  0  0  0  0  0  0  0  0
    2.6041   -1.6276    0.0000 F   0  0  0  0  0  0  0  0  0  0  0  0
    1.6547   -2.1158    0.0000 F   0  0  0  0  0  0  0  0  0  0  0  0
    3.7163   -3.4721    0.0000 O   0  0  0  0  0  0  0  0  0  0  0  0
    4.3673    0.0000    0.0000 O   0  0  0  0  0  0  0  0  0  0  0  0
    8.1378   -0.7053    0.0000 O   0  0  0  0  0  0  0  0  0  0  0  0
    7.7038    0.0000    0.0000 O   0  0  0  0  0  0  0  0  0  0  0  0
    3.5535   -1.4106    0.0000 O   0  0  0  0  0  0  0  0  0  0  0  0
    5.2082   -1.4377    0.0000 N   0  0  0  0  0  0  0  0  0  0  0  0
    4.3402   -2.9025    0.0000 N   0  0  0  0  0  0  0  0  0  0  0  0
    4.3673   -1.4106    0.0000 N   0  0  0  0  0  0  0  0  0  0  0  0
    5.6151   -0.7053    0.0000 C   0  0  0  0  0  0  0  0  0  0  0  0
    3.0110   -3.0652    0.0000 C   0  0  0  0  0  0  0  0  0  0  0  0
    3.1466   -2.2515    0.0000 C   0  0  0  0  0  0  0  0  0  0  0  0
    3.9875   -2.1430    0.0000 C   0  0  0  0  0  0  0  0  0  0  0  0
    2.2515   -3.3907    0.0000 C   0  0  0  0  0  0  0  0  0  0  0  0
    4.8013   -0.7053    0.0000 C   0  0  0  0  0  0  0  0  0  0  0  0
    6.0491   -1.4106    0.0000 C   0  0  0  0  0  0  0  0  0  0  0  0
    6.0491    0.0000    0.0000 C   0  0  0  0  0  0  0  0  0  0  0  0
    4.5572   -1.6004    0.0000 C   0  0  0  0  0  0  0  0  0  0  0  0
    6.8629   -1.4106    0.0000 C   0  0  0  0  0  0  0  0  0  0  0  0
    6.8629    0.0000    0.0000 C   0  0  0  0  0  0  0  0  0  0  0  0
    1.5733   -2.9296    0.0000 C   0  0  0  0  0  0  0  0  0  0  0  0
    2.1701   -4.2316    0.0000 C   0  0  0  0  0  0  0  0  0  0  0  0
    0.8409   -3.2822    0.0000 C   0  0  0  0  0  0  0  0  0  0  0  0
    0.7595   -4.0960    0.0000 C   0  0  0  0  0  0  0  0  0  0  0  0
    1.4377   -4.5843    0.0000 C   0  0  0  0  0  0  0  0  0  0  0  0
  1 27  1  0  0  0  0
  2  7  2  0  0  0  0
  2  8  2  0  0  0  0
  2 22  1  0  0  0  0
  2 23  1  0  0  0  0
  3 15  1  0  0  0  0
  4 24  1  0  0  0  0
  5 11  1  0  0  0  0
  5 14  1  0  0  0  0
  6 18  2  0  0  0  0
  9 12  1  0  0  0  0
 10 13  1  0  0  0  0
 10 21  1  0  0  0  0
 11 16  2  0  0  0  0
 12 18  1  0  0  0  0
 13 18  1  0  0  0  0
 13 19  1  0  0  0  0
 13 20  1  0  0  0  0
 14 15  2  0  0  0  0
 14 17  1  0  0  0  0
 15 16  1  0  0  0  0
 16 21  1  0  0  0  0
 17 24  1  0  0  0  0
 17 25  2  0  0  0  0
 19 22  1  0  0  0  0
 20 23  1  0  0  0  0
 24 26  2  0  0  0  0
 25 28  1  0  0  0  0
 26 27  1  0  0  0  0
 27 28  2  0  0  0  0
M  END
> <PUBCHEM_COMPOUND_ID_TYPE>
0

> <PUBCHEM_TOTAL_CHARGE>
0

> <PUBCHEM_SUBSTANCE_ID>
310934238

> <PUBCHEM_SUBSTANCE_VERSION>
1

> <PUBCHEM_EXT_DATASOURCE_NAME>
4488

> <PUBCHEM_EXT_DATASOURCE_REGID>
SCHEMBL16111695

> <PUBCHEM_SUBSTANCE_COMMENT>
InChI=1S/C16H16ClF2N3O5S/c17-9-1-2-10(11(18)7-9)14-13(19)12(22-27-14)8-20-16(15(23)21-24)3-5-28(25,26)6-4-16/h1-2,7,20,24H,3-6,8H2,(H,21,23)
InChIKey=GBWYUPVVENXYRV-UHFFFAOYSA-N

> <PUBCHEM_SUBSTANCE_SYNONYM>
SCHEMBL16111695

> <PUBCHEM_XREF_EXT_ID>
SCHEMBL16111695

> <PUBCHEM_EXT_DATASOURCE_URL>
https://www.surechembl.org/

> <PUBCHEM_EXT_SUBSTANCE_URL>
https://www.surechembl.org/chemical/SCHEMBL16111695

> <PUBCHEM_CID_ASSOCIATIONS>
86272249  1

> <PUBCHEM_COORDINATE_TYPE>
1
3

$$$$
