310940307
  -OEChem-07211613022D

 40 41  0     1  0  0  0  0  0999 V2000
   -1.3430   -2.9462    0.0000 F   0  0  0  0  0  0  0  0  0  0  0  0
   -2.1586   -3.7338    0.0000 F   0  0  0  0  0  0  0  0  0  0  0  0
   -2.9462   -2.9040    0.0000 F   0  0  0  0  0  0  0  0  0  0  0  0
   -3.9447   -1.1462    0.0000 F   0  0  0  0  0  0  0  0  0  0  0  0
   -4.2962   -0.0632    0.0000 F   0  0  0  0  0  0  0  0  0  0  0  0
   -3.1992    0.2601    0.0000 F   0  0  0  0  0  0  0  0  0  0  0  0
    0.0071   -0.8508    0.0000 O   0  0  0  0  0  0  0  0  0  0  0  0
    2.8759    1.6243    0.0000 O   0  0  0  0  0  0  0  0  0  0  0  0
    2.8759    0.7946    0.0000 O   0  0  0  0  0  0  0  0  0  0  0  0
    2.1586    2.8618    0.0000 O   0  0  0  0  0  0  0  0  0  0  0  0
    2.1586   -0.4429    0.0000 O   0  0  0  0  0  0  0  0  0  0  0  0
   -0.7101    2.8759    0.0000 N   0  3  0  0  0  0  0  0  0  0  0  0
    1.4555    0.7946    0.0000 N   0  0  0  0  0  0  0  0  0  0  0  0
   -1.4133   -0.8227    0.0000 C   0  0  0  0  0  0  0  0  0  0  0  0
   -0.7242   -0.3867    0.0000 C   0  0  0  0  0  0  0  0  0  0  0  0
   -2.1304   -2.0601    0.0000 C   0  0  0  0  0  0  0  0  0  0  0  0
   -2.8477   -0.8227    0.0000 C   0  0  0  0  0  0  0  0  0  0  0  0
   -0.6961    0.4289    0.0000 C   0  0  0  0  0  0  0  0  0  0  0  0
   -0.7101    2.0743    0.0000 C   0  0  0  0  0  0  0  0  0  0  0  0
    0.0211    1.6664    0.0000 C   0  0  0  0  0  0  0  0  0  0  0  0
   -2.1586   -0.4148    0.0000 C   0  0  0  0  0  0  0  0  0  0  0  0
   -1.4274   -1.6523    0.0000 C   0  0  0  0  0  0  0  0  0  0  0  0
   -2.8477   -1.6523    0.0000 C   0  0  0  0  0  0  0  0  0  0  0  0
   -2.1586   -2.9180    0.0000 C   0  0  0  0  0  0  0  0  0  0  0  0
   -3.5789   -0.4289    0.0000 C   0  0  0  0  0  0  0  0  0  0  0  0
    0.0071    0.8368    0.0000 C   0  0  0  0  0  0  0  0  0  0  0  0
   -1.4133    0.8368    0.0000 C   0  0  0  0  0  0  0  0  0  0  0  0
   -1.4133    1.6664    0.0000 C   0  0  0  0  0  0  0  0  0  0  0  0
    0.7242    2.0601    0.0000 C   0  0  0  0  0  0  0  0  0  0  0  0
    1.4555    1.6523    0.0000 C   0  0  3  0  0  0  0  0  0  0  0  0
    2.1586    2.0461    0.0000 C   0  0  0  0  0  0  0  0  0  0  0  0
   -0.6961    3.7337    0.0000 C   0  0  0  0  0  0  0  0  0  0  0  0
    0.0352    3.3117    0.0000 C   0  0  0  0  0  0  0  0  0  0  0  0
   -1.4133    3.2837    0.0000 C   0  0  0  0  0  0  0  0  0  0  0  0
    2.1726    0.4429    0.0000 C   0  0  0  0  0  0  0  0  0  0  0  0
    3.6071    0.4289    0.0000 C   0  0  0  0  0  0  0  0  0  0  0  0
    3.6071    2.0601    0.0000 C   0  0  0  0  0  0  0  0  0  0  0  0
    3.5930    1.2305    0.0000 C   0  0  0  0  0  0  0  0  0  0  0  0
    4.2962    0.8227    0.0000 C   0  0  0  0  0  0  0  0  0  0  0  0
    3.6211   -0.4289    0.0000 C   0  0  0  0  0  0  0  0  0  0  0  0
  1 24  1  0  0  0  0
  2 24  1  0  0  0  0
  3 24  1  0  0  0  0
  4 25  1  0  0  0  0
  5 25  1  0  0  0  0
  6 25  1  0  0  0  0
  7 15  2  0  0  0  0
  8 31  1  0  0  0  0
  8 37  1  0  0  0  0
  9 35  1  0  0  0  0
  9 36  1  0  0  0  0
 10 31  2  0  0  0  0
 11 35  2  0  0  0  0
 12 19  1  0  0  0  0
 12 32  1  0  0  0  0
 12 33  1  0  0  0  0
 12 34  1  0  0  0  0
 30 13  1  1  0  0  0
 13 35  1  0  0  0  0
 14 15  1  0  0  0  0
 14 21  2  0  0  0  0
 14 22  1  0  0  0  0
 15 18  1  0  0  0  0
 16 22  2  0  0  0  0
 16 23  1  0  0  0  0
 16 24  1  0  0  0  0
 17 21  1  0  0  0  0
 17 23  2  0  0  0  0
 17 25  1  0  0  0  0
 18 26  2  0  0  0  0
 18 27  1  0  0  0  0
 19 20  2  0  0  0  0
 19 28  1  0  0  0  0
 20 26  1  0  0  0  0
 20 29  1  0  0  0  0
 27 28  2  0  0  0  0
 29 30  1  0  0  0  0
 30 31  1  0  0  0  0
 36 38  1  0  0  0  0
 36 39  1  0  0  0  0
 36 40  1  0  0  0  0
M  CHG  1  12   1
M  END
> <PUBCHEM_COMPOUND_ID_TYPE>
0

> <PUBCHEM_TOTAL_CHARGE>
1

> <PUBCHEM_SUBSTANCE_ID>
310940307

> <PUBCHEM_SUBSTANCE_VERSION>
1

> <PUBCHEM_EXT_DATASOURCE_NAME>
4488

> <PUBCHEM_EXT_DATASOURCE_REGID>
SCHEMBL16118251

> <PUBCHEM_SUBSTANCE_COMMENT>
InChI=1S/C27H30F6N2O5/c1-25(2,3)40-24(38)34-20(23(37)39-7)13-16-10-15(8-9-21(16)35(4,5)6)22(36)17-11-18(26(28,29)30)14-19(12-17)27(31,32)33/h8-12,14,20H,13H2,1-7H3/p+1/t20-/m0/s1
InChIKey=XZOVCGXSILMHFO-FQEVSTJZSA-O

> <PUBCHEM_SUBSTANCE_SYNONYM>
SCHEMBL16118251

> <PUBCHEM_XREF_EXT_ID>
SCHEMBL16118251

> <PUBCHEM_EXT_DATASOURCE_URL>
https://www.surechembl.org/

> <PUBCHEM_EXT_SUBSTANCE_URL>
https://www.surechembl.org/chemical/SCHEMBL16118251

> <PUBCHEM_CID_ASSOCIATIONS>
58715156  1

> <PUBCHEM_COORDINATE_TYPE>
1
3

> <PUBCHEM_BONDANNOTATIONS>
30  13  5

$$$$
