310940329
  -OEChem-07211613022D

 23 25  0     0  0  0  0  0  0999 V2000
   -0.8088    1.5803    0.0000 O   0  0  0  0  0  0  0  0  0  0  0  0
    2.2019   -1.2957    0.0000 O   0  0  0  0  0  0  0  0  0  0  0  0
    1.2283    0.0524    0.0000 N   0  0  0  0  0  0  0  0  0  0  0  0
    0.8088   -0.6666    0.0000 N   0  0  0  0  0  0  0  0  0  0  0  0
    0.0000   -0.4869    0.0000 N   0  0  0  0  0  0  0  0  0  0  0  0
   -0.0899    0.3371    0.0000 C   0  0  0  0  0  0  0  0  0  0  0  0
    2.0671    0.1423    0.0000 C   0  0  0  0  0  0  0  0  0  0  0  0
   -0.8238    0.7414    0.0000 C   0  0  0  0  0  0  0  0  0  0  0  0
    0.6441    0.6666    0.0000 C   0  0  0  0  0  0  0  0  0  0  0  0
   -1.5279    0.3371    0.0000 C   0  0  0  0  0  0  0  0  0  0  0  0
    2.5314   -0.5318    0.0000 C   0  0  0  0  0  0  0  0  0  0  0  0
    2.3966    0.8912    0.0000 C   0  0  0  0  0  0  0  0  0  0  0  0
   -2.2468    0.7414    0.0000 C   0  0  0  0  0  0  0  0  0  0  0  0
   -1.5429   -0.5018    0.0000 C   0  0  0  0  0  0  0  0  0  0  0  0
    3.2056    0.9961    0.0000 C   0  0  0  0  0  0  0  0  0  0  0  0
    3.3703   -0.4420    0.0000 C   0  0  0  0  0  0  0  0  0  0  0  0
   -2.9659    0.3371    0.0000 C   0  0  0  0  0  0  0  0  0  0  0  0
   -2.2468   -0.9062    0.0000 C   0  0  0  0  0  0  0  0  0  0  0  0
    3.6999    0.3071    0.0000 C   0  0  0  0  0  0  0  0  0  0  0  0
   -2.9659   -0.5018    0.0000 C   0  0  0  0  0  0  0  0  0  0  0  0
    3.5500    1.7601    0.0000 C   0  0  0  0  0  0  0  0  0  0  0  0
   -3.6999    0.7414    0.0000 C   0  0  0  0  0  0  0  0  0  0  0  0
   -2.2468   -1.7601    0.0000 C   0  0  0  0  0  0  0  0  0  0  0  0
  1  8  2  0  0  0  0
  2 11  1  0  0  0  0
  3  4  1  0  0  0  0
  3  7  1  0  0  0  0
  3  9  1  0  0  0  0
  4  5  2  0  0  0  0
  5  6  1  0  0  0  0
  6  8  1  0  0  0  0
  6  9  2  0  0  0  0
  7 11  2  0  0  0  0
  7 12  1  0  0  0  0
  8 10  1  0  0  0  0
 10 13  2  0  0  0  0
 10 14  1  0  0  0  0
 11 16  1  0  0  0  0
 12 15  2  0  0  0  0
 13 17  1  0  0  0  0
 14 18  2  0  0  0  0
 15 19  1  0  0  0  0
 15 21  1  0  0  0  0
 16 19  2  0  0  0  0
 17 20  2  0  0  0  0
 17 22  1  0  0  0  0
 18 20  1  0  0  0  0
 18 23  1  0  0  0  0
M  END
> <PUBCHEM_COMPOUND_ID_TYPE>
0

> <PUBCHEM_TOTAL_CHARGE>
0

> <PUBCHEM_SUBSTANCE_ID>
310940329

> <PUBCHEM_SUBSTANCE_VERSION>
1

> <PUBCHEM_EXT_DATASOURCE_NAME>
4488

> <PUBCHEM_EXT_DATASOURCE_REGID>
SCHEMBL16118273

> <PUBCHEM_SUBSTANCE_COMMENT>
InChI=1S/C18H17N3O2/c1-11-4-5-17(22)16(9-11)21-10-15(19-20-21)18(23)14-7-12(2)6-13(3)8-14/h4-10,22H,1-3H3
InChIKey=IXNPLBGJEPRBSI-UHFFFAOYSA-N

> <PUBCHEM_SUBSTANCE_SYNONYM>
SCHEMBL16118273

> <PUBCHEM_XREF_EXT_ID>
SCHEMBL16118273

> <PUBCHEM_EXT_DATASOURCE_URL>
https://www.surechembl.org/

> <PUBCHEM_EXT_SUBSTANCE_URL>
https://www.surechembl.org/chemical/SCHEMBL16118273

> <PUBCHEM_CID_ASSOCIATIONS>
86296684  1

> <PUBCHEM_COORDINATE_TYPE>
1
3

$$$$
