310944818
  -OEChem-07211613022D

 42 46  0     0  0  0  0  0  0999 V2000
   -1.8359    3.3784    0.0000 F   0  0  0  0  0  0  0  0  0  0  0  0
   -1.0033    0.6348    0.0000 F   0  0  0  0  0  0  0  0  0  0  0  0
   -1.3036   -3.5696    0.0000 O   0  0  0  0  0  0  0  0  0  0  0  0
    0.9350    2.7232    0.0000 O   0  0  0  0  0  0  0  0  0  0  0  0
    2.9689   -1.4538    0.0000 O   0  0  0  0  0  0  0  0  0  0  0  0
    2.5867   -0.0341    0.0000 O   0  0  0  0  0  0  0  0  0  0  0  0
   -2.3683    0.9077    0.0000 N   0  0  0  0  0  0  0  0  0  0  0  0
   -1.8769    0.2389    0.0000 N   0  0  0  0  0  0  0  0  0  0  0  0
   -1.2899   -1.3718    0.0000 N   0  0  0  0  0  0  0  0  0  0  0  0
   -2.6413   -1.8359    0.0000 N   0  0  0  0  0  0  0  0  0  0  0  0
   -0.1843   -2.4092    0.0000 N   0  0  0  0  0  0  0  0  0  0  0  0
    1.5493   -1.0715    0.0000 N   0  0  0  0  0  0  0  0  0  0  0  0
    0.9077   -0.5392    0.0000 N   0  0  0  0  0  0  0  0  0  0  0  0
   -2.3820   -0.4027    0.0000 C   0  0  0  0  0  0  0  0  0  0  0  0
   -3.1737   -0.1433    0.0000 C   0  0  0  0  0  0  0  0  0  0  0  0
   -3.1600    0.6757    0.0000 C   0  0  0  0  0  0  0  0  0  0  0  0
   -2.1090   -1.1671    0.0000 C   0  0  0  0  0  0  0  0  0  0  0  0
   -2.2045    1.7404    0.0000 C   0  0  0  0  0  0  0  0  0  0  0  0
   -3.8835   -0.5665    0.0000 C   0  0  0  0  0  0  0  0  0  0  0  0
   -1.4401    2.0134    0.0000 C   0  0  0  0  0  0  0  0  0  0  0  0
   -3.8835    1.0715    0.0000 C   0  0  0  0  0  0  0  0  0  0  0  0
   -1.0033   -2.1499    0.0000 C   0  0  0  0  0  0  0  0  0  0  0  0
   -1.5902   -2.7779    0.0000 C   0  0  0  0  0  0  0  0  0  0  0  0
   -1.2763    2.8188    0.0000 C   0  0  0  0  0  0  0  0  0  0  0  0
   -0.8122    1.4674    0.0000 C   0  0  0  0  0  0  0  0  0  0  0  0
   -2.3956   -2.5867    0.0000 C   0  0  0  0  0  0  0  0  0  0  0  0
   -4.5933   -0.1569    0.0000 C   0  0  0  0  0  0  0  0  0  0  0  0
   -4.5933    0.6621    0.0000 C   0  0  0  0  0  0  0  0  0  0  0  0
    0.3890   -1.7950    0.0000 C   0  0  0  0  0  0  0  0  0  0  0  0
    0.1297    2.5184    0.0000 C   0  0  0  0  0  0  0  0  0  0  0  0
   -0.4846    3.0645    0.0000 C   0  0  0  0  0  0  0  0  0  0  0  0
   -0.0341    1.7267    0.0000 C   0  0  0  0  0  0  0  0  0  0  0  0
    1.2217   -1.8087    0.0000 C   0  0  0  0  0  0  0  0  0  0  0  0
    0.1843   -0.9760    0.0000 C   0  0  0  0  0  0  0  0  0  0  0  0
    2.3410   -0.8395    0.0000 C   0  0  0  0  0  0  0  0  0  0  0  0
    3.8016   -1.1944    0.0000 C   0  0  0  0  0  0  0  0  0  0  0  0
   -0.4982   -3.7333    0.0000 C   0  0  0  0  0  0  0  0  0  0  0  0
    1.1534    3.5422    0.0000 C   0  0  0  0  0  0  0  0  0  0  0  0
    4.4022   -1.8359    0.0000 C   0  0  0  0  0  0  0  0  0  0  0  0
    4.0063   -0.4027    0.0000 C   0  0  0  0  0  0  0  0  0  0  0  0
    4.5933   -1.0169    0.0000 C   0  0  0  0  0  0  0  0  0  0  0  0
    1.9588    3.7333    0.0000 C   0  0  0  0  0  0  0  0  0  0  0  0
  1 24  1  0  0  0  0
  2 25  1  0  0  0  0
  3 23  1  0  0  0  0
  3 37  1  0  0  0  0
  4 30  1  0  0  0  0
  4 38  1  0  0  0  0
  5 35  1  0  0  0  0
  5 36  1  0  0  0  0
  6 35  2  0  0  0  0
  7  8  1  0  0  0  0
  7 16  1  0  0  0  0
  7 18  1  0  0  0  0
  8 14  2  0  0  0  0
  9 17  2  0  0  0  0
  9 22  1  0  0  0  0
 10 17  1  0  0  0  0
 10 26  2  0  0  0  0
 11 22  1  0  0  0  0
 11 29  1  0  0  0  0
 12 13  1  0  0  0  0
 12 33  1  0  0  0  0
 12 35  1  0  0  0  0
 13 34  2  0  0  0  0
 14 15  1  0  0  0  0
 14 17  1  0  0  0  0
 15 16  2  0  0  0  0
 15 19  1  0  0  0  0
 16 21  1  0  0  0  0
 18 20  1  0  0  0  0
 19 27  2  0  0  0  0
 20 24  2  0  0  0  0
 20 25  1  0  0  0  0
 21 28  2  0  0  0  0
 22 23  2  0  0  0  0
 23 26  1  0  0  0  0
 24 31  1  0  0  0  0
 25 32  2  0  0  0  0
 27 28  1  0  0  0  0
 29 33  2  0  0  0  0
 29 34  1  0  0  0  0
 30 31  2  0  0  0  0
 30 32  1  0  0  0  0
 36 39  1  0  0  0  0
 36 40  1  0  0  0  0
 36 41  1  0  0  0  0
 38 42  1  0  0  0  0
M  END
> <PUBCHEM_COMPOUND_ID_TYPE>
0

> <PUBCHEM_TOTAL_CHARGE>
0

> <PUBCHEM_SUBSTANCE_ID>
310944818

> <PUBCHEM_SUBSTANCE_VERSION>
1

> <PUBCHEM_EXT_DATASOURCE_NAME>
4488

> <PUBCHEM_EXT_DATASOURCE_REGID>
SCHEMBL16122897

> <PUBCHEM_SUBSTANCE_COMMENT>
InChI=1S/C29H29F2N7O4/c1-6-41-18-11-21(30)20(22(31)12-18)16-37-23-10-8-7-9-19(23)25(36-37)27-32-14-24(40-5)26(35-27)34-17-13-33-38(15-17)28(39)42-29(2,3)4/h7-15H,6,16H2,1-5H3,(H,32,34,35)
InChIKey=BXERANMGOJYAAG-UHFFFAOYSA-N

> <PUBCHEM_SUBSTANCE_SYNONYM>
SCHEMBL16122897

> <PUBCHEM_XREF_EXT_ID>
SCHEMBL16122897

> <PUBCHEM_EXT_DATASOURCE_URL>
https://www.surechembl.org/

> <PUBCHEM_EXT_SUBSTANCE_URL>
https://www.surechembl.org/chemical/SCHEMBL16122897

> <PUBCHEM_CID_ASSOCIATIONS>
117611027  1

> <PUBCHEM_COORDINATE_TYPE>
1
3

$$$$
