310949592
  -OEChem-07211613022D

 15 15  0     0  0  0  0  0  0999 V2000
    1.1047    0.0725    0.0000 N   0  0  0  0  0  0  0  0  0  0  0  0
    1.9082    1.1661    0.0000 N   0  0  0  0  0  0  0  0  0  0  0  0
   -2.3991   -0.6305    0.0000 N   0  0  0  0  0  0  0  0  0  0  0  0
   -1.8412   -0.0056    0.0000 N   0  0  0  0  0  0  0  0  0  0  0  0
    0.4017   -0.3180    0.0000 C   0  0  0  0  0  0  0  0  0  0  0  0
   -0.3459    0.0837    0.0000 C   0  0  0  0  0  0  0  0  0  0  0  0
    1.1382    0.9206    0.0000 C   0  0  0  0  0  0  0  0  0  0  0  0
    1.9193   -0.1618    0.0000 C   0  0  0  0  0  0  0  0  0  0  0  0
    2.3991    0.5077    0.0000 C   0  0  0  0  0  0  0  0  0  0  0  0
   -1.0601   -0.3292    0.0000 C   0  0  0  0  0  0  0  0  0  0  0  0
   -0.3348    0.9318    0.0000 C   0  0  0  0  0  0  0  0  0  0  0  0
   -1.1717   -1.1549    0.0000 C   0  0  0  0  0  0  0  0  0  0  0  0
   -1.9752   -1.3335    0.0000 C   0  0  0  0  0  0  0  0  0  0  0  0
    0.3794    1.3335    0.0000 C   0  0  0  0  0  0  0  0  0  0  0  0
   -1.2163   -0.4185    0.0000 C   0  0  0  0  0  0  0  0  0  0  0  0
  1  5  1  0  0  0  0
  1  7  1  0  0  0  0
  1  8  1  0  0  0  0
  2  7  2  0  0  0  0
  2  9  1  0  0  0  0
  3  4  1  0  0  0  0
  3 13  1  0  0  0  0
  4 15  1  0  0  0  0
  5  6  2  0  0  0  0
  6 10  1  0  0  0  0
  6 11  1  0  0  0  0
  8  9  2  0  0  0  0
 10 12  1  0  0  0  0
 11 14  2  0  0  0  0
 12 13  2  0  0  0  0
M  END
> <PUBCHEM_COMPOUND_ID_TYPE>
0

> <PUBCHEM_TOTAL_CHARGE>
0

> <PUBCHEM_SUBSTANCE_ID>
310949592

> <PUBCHEM_SUBSTANCE_VERSION>
1

> <PUBCHEM_EXT_DATASOURCE_NAME>
4488

> <PUBCHEM_EXT_DATASOURCE_REGID>
SCHEMBL16127789

> <PUBCHEM_SUBSTANCE_COMMENT>
InChI=1S/C11H16N4/c1-3-11(5-4-6-14-12-2)9-15-8-7-13-10-15/h3-4,6-10,12,14H,1,5H2,2H3/b6-4-,11-9+
InChIKey=POSWJPXQZVRKFN-TWDWIPQFSA-N

> <PUBCHEM_SUBSTANCE_SYNONYM>
SCHEMBL16127789

> <PUBCHEM_XREF_EXT_ID>
SCHEMBL16127789

> <PUBCHEM_EXT_DATASOURCE_URL>
https://www.surechembl.org/

> <PUBCHEM_EXT_SUBSTANCE_URL>
https://www.surechembl.org/chemical/SCHEMBL16127789

> <PUBCHEM_CID_ASSOCIATIONS>
117614997  1

> <PUBCHEM_COORDINATE_TYPE>
1
3

$$$$
