310939004
  -OEChem-07211613022D

 29 33  0     0  0  0  0  0  0999 V2000
    1.3186  -13.7843    0.0000 F   0  0  0  0  0  0  0  0  0  0  0  0
   -1.1564  -15.2132    0.0000 F   0  0  0  0  0  0  0  0  0  0  0  0
   -1.2288  -12.4024    0.0000 O   0  0  0  0  0  0  0  0  0  0  0  0
   -1.1564  -13.7843    0.0000 N   0  0  0  0  0  0  0  0  0  0  0  0
   -3.1404  -14.6093    0.0000 N   0  0  0  0  0  0  0  0  0  0  0  0
   -2.4260  -13.3718    0.0000 C   0  0  0  0  0  0  0  0  0  0  0  0
   -1.6413  -13.1168    0.0000 C   0  0  0  0  0  0  0  0  0  0  0  0
    0.0811  -14.4987    0.0000 C   0  0  0  0  0  0  0  0  0  0  0  0
   -2.4260  -14.1968    0.0000 C   0  0  0  0  0  0  0  0  0  0  0  0
    0.9061  -15.9277    0.0000 C   0  0  0  0  0  0  0  0  0  0  0  0
    1.3186  -16.6421    0.0000 C   0  0  0  0  0  0  0  0  0  0  0  0
   -0.3314  -13.7843    0.0000 C   0  0  0  0  0  0  0  0  0  0  0  0
   -1.6413  -14.4517    0.0000 C   0  0  0  0  0  0  0  0  0  0  0  0
    0.9061  -14.4987    0.0000 C   0  0  0  0  0  0  0  0  0  0  0  0
   -0.3314  -15.2132    0.0000 C   0  0  0  0  0  0  0  0  0  0  0  0
    2.1436  -16.6421    0.0000 C   0  0  0  0  0  0  0  0  0  0  0  0
    1.3186  -15.2132    0.0000 C   0  0  0  0  0  0  0  0  0  0  0  0
    0.0811  -15.9277    0.0000 C   0  0  0  0  0  0  0  0  0  0  0  0
    2.5561  -17.3566    0.0000 C   0  0  0  0  0  0  0  0  0  0  0  0
   -3.1404  -12.9593    0.0000 C   0  0  0  0  0  0  0  0  0  0  0  0
    0.9061  -17.3566    0.0000 C   0  0  0  0  0  0  0  0  0  0  0  0
    2.5561  -15.9277    0.0000 C   0  0  0  0  0  0  0  0  0  0  0  0
   -3.8549  -13.3718    0.0000 C   0  0  0  0  0  0  0  0  0  0  0  0
    2.1436  -18.0711    0.0000 C   0  0  0  0  0  0  0  0  0  0  0  0
   -3.8549  -14.1968    0.0000 C   0  0  0  0  0  0  0  0  0  0  0  0
    1.3186  -18.0711    0.0000 C   0  0  0  0  0  0  0  0  0  0  0  0
    3.3811  -17.3566    0.0000 C   0  0  0  0  0  0  0  0  0  0  0  0
    3.3811  -15.9277    0.0000 C   0  0  0  0  0  0  0  0  0  0  0  0
    3.7936  -16.6421    0.0000 C   0  0  0  0  0  0  0  0  0  0  0  0
  1 14  1  0  0  0  0
  2 15  1  0  0  0  0
  3  7  2  0  0  0  0
  4  7  1  0  0  0  0
  4 12  1  0  0  0  0
  4 13  1  0  0  0  0
  5  9  2  0  0  0  0
  5 25  1  0  0  0  0
  6  7  1  0  0  0  0
  6  9  1  0  0  0  0
  6 20  2  0  0  0  0
  8 12  1  0  0  0  0
  8 14  2  0  0  0  0
  8 15  1  0  0  0  0
  9 13  1  0  0  0  0
 10 11  1  0  0  0  0
 10 17  2  0  0  0  0
 10 18  1  0  0  0  0
 11 16  1  0  0  0  0
 11 21  2  0  0  0  0
 14 17  1  0  0  0  0
 15 18  2  0  0  0  0
 16 19  2  0  0  0  0
 16 22  1  0  0  0  0
 19 24  1  0  0  0  0
 19 27  1  0  0  0  0
 20 23  1  0  0  0  0
 21 26  1  0  0  0  0
 22 28  2  0  0  0  0
 23 25  2  0  0  0  0
 24 26  2  0  0  0  0
 27 29  2  0  0  0  0
 28 29  1  0  0  0  0
M  END
> <PUBCHEM_COMPOUND_ID_TYPE>
0

> <PUBCHEM_TOTAL_CHARGE>
0

> <PUBCHEM_SUBSTANCE_ID>
310939004

> <PUBCHEM_SUBSTANCE_VERSION>
1

> <PUBCHEM_EXT_DATASOURCE_NAME>
4488

> <PUBCHEM_EXT_DATASOURCE_REGID>
SCHEMBL16116923

> <PUBCHEM_SUBSTANCE_COMMENT>
InChI=1S/C24H16F2N2O/c25-21-11-16(18-8-3-6-15-5-1-2-7-17(15)18)12-22(26)20(21)13-28-14-23-19(24(28)29)9-4-10-27-23/h1-12H,13-14H2
InChIKey=FCGNMLJMLBRNDO-UHFFFAOYSA-N

> <PUBCHEM_SUBSTANCE_SYNONYM>
SCHEMBL16116923

> <PUBCHEM_XREF_EXT_ID>
SCHEMBL16116923

> <PUBCHEM_EXT_DATASOURCE_URL>
https://www.surechembl.org/

> <PUBCHEM_EXT_SUBSTANCE_URL>
https://www.surechembl.org/chemical/SCHEMBL16116923

> <PUBCHEM_CID_ASSOCIATIONS>
117606388  1

> <PUBCHEM_COORDINATE_TYPE>
1
3

$$$$
