310930526
  -OEChem-07211613022D

 51 55  0     1  0  0  0  0  0999 V2000
   16.4328   -3.7125    0.0000 Cl  0  0  0  0  0  0  0  0  0  0  0  0
   17.8618    0.4125    0.0000 S   0  0  0  0  0  0  0  0  0  0  0  0
   17.8618   -1.2375    0.0000 F   0  0  0  0  0  0  0  0  0  0  0  0
   15.0039    0.4125    0.0000 F   0  0  0  0  0  0  0  0  0  0  0  0
   17.4493    1.1270    0.0000 O   0  0  0  0  0  0  0  0  0  0  0  0
   18.2743   -0.3020    0.0000 O   0  0  0  0  0  0  0  0  0  0  0  0
   15.0039   -1.2375    0.0000 O   0  0  0  0  0  0  0  0  0  0  0  0
   20.7196   -0.4125    0.0000 O   0  0  0  0  0  0  0  0  0  0  0  0
   10.7170   -1.2375    0.0000 O   0  0  0  0  0  0  0  0  0  0  0  0
   22.1486    2.0625    0.0000 O   0  0  0  0  0  0  0  0  0  0  0  0
   11.4316    0.0000    0.0000 O   0  0  0  0  0  0  0  0  0  0  0  0
   18.5762    0.8250    0.0000 N   0  0  0  0  0  0  0  0  0  0  0  0
   17.8618    2.0625    0.0000 N   0  0  0  0  0  0  0  0  0  0  0  0
   12.1460   -1.2375    0.0000 N   0  0  0  0  0  0  0  0  0  0  0  0
   17.1473    0.0000    0.0000 C   0  0  0  0  0  0  0  0  0  0  0  0
   17.1473   -0.8250    0.0000 C   0  0  0  0  0  0  0  0  0  0  0  0
   18.5762    1.6500    0.0000 C   0  0  0  0  0  0  0  0  0  0  0  0
   16.4328    0.4125    0.0000 C   0  0  0  0  0  0  0  0  0  0  0  0
   15.7184   -0.8250    0.0000 C   0  0  0  0  0  0  0  0  0  0  0  0
   15.7184    0.0000    0.0000 C   0  0  0  0  0  0  0  0  0  0  0  0
   19.2907    0.4125    0.0000 C   0  0  0  0  0  0  0  0  0  0  0  0
   16.4328   -1.2375    0.0000 C   0  0  0  0  0  0  0  0  0  0  0  0
   20.0052    0.8250    0.0000 C   0  0  0  0  0  0  0  0  0  0  0  0
   19.2907    2.0625    0.0000 C   0  0  0  0  0  0  0  0  0  0  0  0
   20.7196    0.4125    0.0000 C   0  0  0  0  0  0  0  0  0  0  0  0
   13.5750   -1.2375    0.0000 C   0  0  3  0  0  0  0  0  0  0  0  0
   13.5750   -2.0625    0.0000 C   0  0  3  0  0  0  0  0  0  0  0  0
   14.2894   -0.8250    0.0000 C   0  0  0  0  0  0  0  0  0  0  0  0
   20.0052    1.6500    0.0000 C   0  0  0  0  0  0  0  0  0  0  0  0
   14.2894   -2.4750    0.0000 C   0  0  0  0  0  0  0  0  0  0  0  0
   12.8605   -0.8250    0.0000 C   0  0  0  0  0  0  0  0  0  0  0  0
   21.4341    0.8250    0.0000 C   0  0  0  0  0  0  0  0  0  0  0  0
   17.8618    2.8875    0.0000 C   0  0  0  0  0  0  0  0  0  0  0  0
   19.2907    2.8875    0.0000 C   0  0  0  0  0  0  0  0  0  0  0  0
   21.4341    1.6500    0.0000 C   0  0  0  0  0  0  0  0  0  0  0  0
   12.8605   -2.4750    0.0000 C   0  0  0  0  0  0  0  0  0  0  0  0
   20.7196    2.0625    0.0000 C   0  0  0  0  0  0  0  0  0  0  0  0
   12.1460   -2.0625    0.0000 C   0  0  0  0  0  0  0  0  0  0  0  0
   11.4316   -0.8250    0.0000 C   0  0  0  0  0  0  0  0  0  0  0  0
   18.5762    3.3000    0.0000 C   0  0  0  0  0  0  0  0  0  0  0  0
   15.0039   -2.0625    0.0000 C   0  0  0  0  0  0  0  0  0  0  0  0
   14.2894   -3.3000    0.0000 C   0  0  0  0  0  0  0  0  0  0  0  0
   15.7184   -2.4750    0.0000 C   0  0  0  0  0  0  0  0  0  0  0  0
   15.0039   -3.7125    0.0000 C   0  0  0  0  0  0  0  0  0  0  0  0
   15.7184   -3.3000    0.0000 C   0  0  0  0  0  0  0  0  0  0  0  0
   10.0026   -0.8250    0.0000 C   0  0  0  0  0  0  0  0  0  0  0  0
   21.4341   -0.8250    0.0000 C   0  0  0  0  0  0  0  0  0  0  0  0
   22.8630    1.6500    0.0000 C   0  0  0  0  0  0  0  0  0  0  0  0
   10.0026    0.0000    0.0000 C   0  0  0  0  0  0  0  0  0  0  0  0
    9.2881   -0.4125    0.0000 C   0  0  0  0  0  0  0  0  0  0  0  0
    9.2881   -1.2375    0.0000 C   0  0  0  0  0  0  0  0  0  0  0  0
  1 45  1  0  0  0  0
  2  5  2  0  0  0  0
  2  6  2  0  0  0  0
  2 12  1  0  0  0  0
  2 15  1  0  0  0  0
  3 16  1  0  0  0  0
  4 20  1  0  0  0  0
  7 19  1  0  0  0  0
  7 28  1  0  0  0  0
  8 25  1  0  0  0  0
  8 47  1  0  0  0  0
  9 39  1  0  0  0  0
  9 46  1  0  0  0  0
 10 35  1  0  0  0  0
 10 48  1  0  0  0  0
 11 39  2  0  0  0  0
 12 17  1  0  0  0  0
 12 21  1  0  0  0  0
 13 17  2  0  0  0  0
 13 33  1  0  0  0  0
 14 31  1  0  0  0  0
 14 38  1  0  0  0  0
 14 39  1  0  0  0  0
 15 16  2  0  0  0  0
 15 18  1  0  0  0  0
 16 22  1  0  0  0  0
 17 24  1  0  0  0  0
 18 20  2  0  0  0  0
 19 20  1  0  0  0  0
 19 22  2  0  0  0  0
 21 23  1  0  0  0  0
 23 25  1  0  0  0  0
 23 29  2  0  0  0  0
 24 34  2  0  0  0  0
 25 32  2  0  0  0  0
 26 27  1  0  0  0  0
 26 28  1  6  0  0  0
 26 31  1  0  0  0  0
 27 30  1  0  0  0  0
 27 36  1  1  0  0  0
 29 37  1  0  0  0  0
 30 41  2  0  0  0  0
 30 42  1  0  0  0  0
 32 35  1  0  0  0  0
 33 40  2  0  0  0  0
 34 40  1  0  0  0  0
 35 37  2  0  0  0  0
 36 38  1  0  0  0  0
 41 43  1  0  0  0  0
 42 44  2  0  0  0  0
 43 45  2  0  0  0  0
 44 45  1  0  0  0  0
 46 49  1  0  0  0  0
 46 50  1  0  0  0  0
 46 51  1  0  0  0  0
M  END
> <PUBCHEM_COMPOUND_ID_TYPE>
0

> <PUBCHEM_TOTAL_CHARGE>
0

> <PUBCHEM_SUBSTANCE_ID>
310930526

> <PUBCHEM_SUBSTANCE_VERSION>
1

> <PUBCHEM_EXT_DATASOURCE_NAME>
4488

> <PUBCHEM_EXT_DATASOURCE_REGID>
SCHEMBL16107818

> <PUBCHEM_SUBSTANCE_COMMENT>
InChI=1S/C37H40ClF2N3O7S/c1-37(2,3)50-36(44)42-17-15-29(24-9-12-27(38)13-10-24)26(21-42)23-49-33-19-31(40)34(20-30(33)39)51(45,46)43(35-8-6-7-16-41-35)22-25-11-14-28(47-4)18-32(25)48-5/h6-14,16,18-20,26,29H,15,17,21-23H2,1-5H3/t26-,29-/m1/s1
InChIKey=CYFYTZRGJWPVCE-GGXMVOPNSA-N

> <PUBCHEM_SUBSTANCE_SYNONYM>
SCHEMBL16107818

> <PUBCHEM_XREF_EXT_ID>
SCHEMBL16107818

> <PUBCHEM_EXT_DATASOURCE_URL>
https://www.surechembl.org/

> <PUBCHEM_EXT_SUBSTANCE_URL>
https://www.surechembl.org/chemical/SCHEMBL16107818

> <PUBCHEM_CID_ASSOCIATIONS>
117599628  1

> <PUBCHEM_COORDINATE_TYPE>
1
3

> <PUBCHEM_BONDANNOTATIONS>
26  28  6
27  36  5

$$$$
