310936534
  -OEChem-07211613022D

 22 25  0     0  0  0  0  0  0999 V2000
    2.0545   -1.3371    0.0000 S   0  0  0  0  0  0  0  0  0  0  0  0
    0.6522   -2.4132    0.0000 N   0  0  0  0  0  0  0  0  0  0  0  0
    3.3590   -0.6849    0.0000 N   0  0  0  0  0  0  0  0  0  0  0  0
    2.0545    0.0000    0.0000 N   0  0  0  0  0  0  0  0  0  0  0  0
    2.5111   -0.6849    0.0000 C   0  0  0  0  0  0  0  0  0  0  0  0
    1.2719   -1.0762    0.0000 C   0  0  0  0  0  0  0  0  0  0  0  0
    3.7829   -1.4023    0.0000 C   0  0  0  0  0  0  0  0  0  0  0  0
    0.5870   -1.5653    0.0000 C   0  0  0  0  0  0  0  0  0  0  0  0
    0.8153   -4.0438    0.0000 C   0  0  0  0  0  0  0  0  0  0  0  0
    1.2719   -0.2609    0.0000 C   0  0  0  0  0  0  0  0  0  0  0  0
    0.9131   -4.8591    0.0000 C   0  0  0  0  0  0  0  0  0  0  0  0
    4.4677   -1.7936    0.0000 C   0  0  0  0  0  0  0  0  0  0  0  0
    3.7829   -2.2502    0.0000 C   0  0  0  0  0  0  0  0  0  0  0  0
    1.4349   -2.7394    0.0000 C   0  0  0  0  0  0  0  0  0  0  0  0
    0.0000   -2.8698    0.0000 C   0  0  0  0  0  0  0  0  0  0  0  0
    1.5001   -3.5546    0.0000 C   0  0  0  0  0  0  0  0  0  0  0  0
    0.0652   -3.6851    0.0000 C   0  0  0  0  0  0  0  0  0  0  0  0
    1.6632   -5.2178    0.0000 C   0  0  0  0  0  0  0  0  0  0  0  0
    0.2283   -5.3483    0.0000 C   0  0  0  0  0  0  0  0  0  0  0  0
    1.7284   -6.0331    0.0000 C   0  0  0  0  0  0  0  0  0  0  0  0
    0.2935   -6.1636    0.0000 C   0  0  0  0  0  0  0  0  0  0  0  0
    1.0436   -6.5223    0.0000 C   0  0  0  0  0  0  0  0  0  0  0  0
  1  5  1  0  0  0  0
  1  6  1  0  0  0  0
  2  8  1  0  0  0  0
  2 14  1  0  0  0  0
  2 15  1  0  0  0  0
  3  5  1  0  0  0  0
  3  7  1  0  0  0  0
  4  5  2  0  0  0  0
  4 10  1  0  0  0  0
  6  8  1  0  0  0  0
  6 10  2  0  0  0  0
  7 12  1  0  0  0  0
  7 13  1  0  0  0  0
  9 11  1  0  0  0  0
  9 16  1  0  0  0  0
  9 17  1  0  0  0  0
 11 18  2  0  0  0  0
 11 19  1  0  0  0  0
 12 13  1  0  0  0  0
 14 16  1  0  0  0  0
 15 17  1  0  0  0  0
 18 20  1  0  0  0  0
 19 21  2  0  0  0  0
 20 22  2  0  0  0  0
 21 22  1  0  0  0  0
M  END
> <PUBCHEM_COMPOUND_ID_TYPE>
0

> <PUBCHEM_TOTAL_CHARGE>
0

> <PUBCHEM_SUBSTANCE_ID>
310936534

> <PUBCHEM_SUBSTANCE_VERSION>
1

> <PUBCHEM_EXT_DATASOURCE_NAME>
4488

> <PUBCHEM_EXT_DATASOURCE_REGID>
SCHEMBL16114186

> <PUBCHEM_SUBSTANCE_COMMENT>
InChI=1S/C18H23N3S/c1-2-4-14(5-3-1)15-8-10-21(11-9-15)13-17-12-19-18(22-17)20-16-6-7-16/h1-5,12,15-16H,6-11,13H2,(H,19,20)
InChIKey=IDFNERLMOIHTDU-UHFFFAOYSA-N

> <PUBCHEM_SUBSTANCE_SYNONYM>
SCHEMBL16114186

> <PUBCHEM_XREF_EXT_ID>
SCHEMBL16114186

> <PUBCHEM_EXT_DATASOURCE_URL>
https://www.surechembl.org/

> <PUBCHEM_EXT_SUBSTANCE_URL>
https://www.surechembl.org/chemical/SCHEMBL16114186

> <PUBCHEM_CID_ASSOCIATIONS>
86274565  1

> <PUBCHEM_COORDINATE_TYPE>
1
3

$$$$
