310942787
  -OEChem-07211613022D

 86 91  0     1  0  0  0  0  0999 V2000
    7.3215   -0.7367    0.0000 F   0  0  0  0  0  0  0  0  0  0  0  0
   10.6322   -1.0641    0.0000 F   0  0  0  0  0  0  0  0  0  0  0  0
    4.0655    1.8281    0.0000 O   0  0  0  0  0  0  0  0  0  0  0  0
    5.9573   -1.7371    0.0000 O   0  0  0  0  0  0  0  0  0  0  0  0
    3.0650   -0.9186    0.0000 O   0  0  0  0  0  0  0  0  0  0  0  0
    3.7926    0.3366    0.0000 O   0  0  0  0  0  0  0  0  0  0  0  0
   -1.2642   -0.9004    0.0000 O   0  0  0  0  0  0  0  0  0  0  0  0
   -3.4288   -2.9922    0.0000 O   0  0  0  0  0  0  0  0  0  0  0  0
  -10.6685   -3.2105    0.0000 O   0  0  0  0  0  0  0  0  0  0  0  0
   -7.7217   -3.2105    0.0000 O   0  0  0  0  0  0  0  0  0  0  0  0
   -5.5753   -0.9004    0.0000 O   0  0  0  0  0  0  0  0  0  0  0  0
   -4.1564   -3.4106    0.0000 O   0  0  0  0  0  0  0  0  0  0  0  0
    8.1401    1.9554    0.0000 N   0  0  0  0  0  0  0  0  0  0  0  0
    5.9391    1.5917    0.0000 N   0  0  0  0  0  0  0  0  0  0  0  0
    7.4671    0.7730    0.0000 N   0  0  0  0  0  0  0  0  0  0  0  0
    4.7750    3.0833    0.0000 N   0  0  0  0  0  0  0  0  0  0  0  0
    4.5021   -0.9004    0.0000 N   0  0  0  0  0  0  0  0  0  0  0  0
   -0.5366   -2.1555    0.0000 N   0  0  0  0  0  0  0  0  0  0  0  0
   -9.1951   -2.9741    0.0000 N   0  0  0  0  0  0  0  0  0  0  0  0
   -2.7012   -1.7371    0.0000 N   0  0  0  0  0  0  0  0  0  0  0  0
   -4.8659   -2.1555    0.0000 N   0  0  0  0  0  0  0  0  0  0  0  0
   -3.4288   -4.6476    0.0000 N   0  0  0  0  0  0  0  0  0  0  0  0
   -4.8659   -4.6476    0.0000 N   0  0  0  0  0  0  0  0  0  0  0  0
    7.3943    1.6280    0.0000 C   0  0  0  0  0  0  0  0  0  0  0  0
    6.6667    2.0282    0.0000 C   0  0  3  0  0  0  0  0  0  0  0  0
    8.2856    0.6094    0.0000 C   0  0  0  0  0  0  0  0  0  0  0  0
    6.6485    2.8831    0.0000 C   0  0  0  0  0  0  0  0  0  0  0  0
    8.7040    1.3551    0.0000 C   0  0  0  0  0  0  0  0  0  0  0  0
    8.6313   -0.1183    0.0000 C   0  0  0  0  0  0  0  0  0  0  0  0
    4.7750    2.2829    0.0000 C   0  0  0  0  0  0  0  0  0  0  0  0
    8.3220    2.7740    0.0000 C   0  0  0  0  0  0  0  0  0  0  0  0
    5.9391    0.7730    0.0000 C   0  0  0  0  0  0  0  0  0  0  0  0
    8.1401   -0.8095    0.0000 C   0  0  0  0  0  0  0  0  0  0  0  0
    9.4680   -0.2274    0.0000 C   0  0  0  0  0  0  0  0  0  0  0  0
    9.0860    3.0468    0.0000 C   0  0  0  0  0  0  0  0  0  0  0  0
    5.9209    3.2470    0.0000 C   0  0  0  0  0  0  0  0  0  0  0  0
    6.6667    3.7017    0.0000 C   0  0  0  0  0  0  0  0  0  0  0  0
    7.3943    3.2651    0.0000 C   0  0  0  0  0  0  0  0  0  0  0  0
    9.7954   -0.9732    0.0000 C   0  0  0  0  0  0  0  0  0  0  0  0
    5.2297    0.3547    0.0000 C   0  0  0  0  0  0  0  0  0  0  0  0
    8.5039   -1.5734    0.0000 C   0  0  0  0  0  0  0  0  0  0  0  0
    5.2114   -0.4821    0.0000 C   0  0  3  0  0  0  0  0  0  0  0  0
    9.3225   -1.6462    0.0000 C   0  0  0  0  0  0  0  0  0  0  0  0
    4.0473    3.5198    0.0000 C   0  0  0  0  0  0  0  0  0  0  0  0
    5.4843    3.5198    0.0000 C   0  0  0  0  0  0  0  0  0  0  0  0
    9.7226    2.5012    0.0000 C   0  0  0  0  0  0  0  0  0  0  0  0
    9.2860    3.8472    0.0000 C   0  0  0  0  0  0  0  0  0  0  0  0
    5.9573   -0.9004    0.0000 C   0  0  0  0  0  0  0  0  0  0  0  0
    3.7745   -0.5002    0.0000 C   0  0  0  0  0  0  0  0  0  0  0  0
   10.5048    2.7558    0.0000 C   0  0  0  0  0  0  0  0  0  0  0  0
   10.0864    4.0837    0.0000 C   0  0  0  0  0  0  0  0  0  0  0  0
    4.5202   -1.7371    0.0000 C   0  0  0  0  0  0  0  0  0  0  0  0
    4.0655    4.3384    0.0000 C   0  0  0  0  0  0  0  0  0  0  0  0
    5.4843    4.3384    0.0000 C   0  0  0  0  0  0  0  0  0  0  0  0
   10.6685    3.5562    0.0000 C   0  0  0  0  0  0  0  0  0  0  0  0
    5.2479   -2.1374    0.0000 C   0  0  0  0  0  0  0  0  0  0  0  0
    4.5567    4.6112    0.0000 C   0  0  0  0  0  0  0  0  0  0  0  0
    5.0114    4.6476    0.0000 C   0  0  0  0  0  0  0  0  0  0  0  0
    2.3192   -0.5002    0.0000 C   0  0  0  0  0  0  0  0  0  0  0  0
    1.6280   -0.9004    0.0000 C   0  0  0  0  0  0  0  0  0  0  0  0
    1.6098   -1.7371    0.0000 C   0  0  0  0  0  0  0  0  0  0  0  0
    0.8822   -0.5002    0.0000 C   0  0  0  0  0  0  0  0  0  0  0  0
    0.1910   -1.7190    0.0000 C   0  0  0  0  0  0  0  0  0  0  0  0
    0.9186   -2.1374    0.0000 C   0  0  0  0  0  0  0  0  0  0  0  0
    0.2092   -0.9004    0.0000 C   0  0  0  0  0  0  0  0  0  0  0  0
   -1.2642   -1.7371    0.0000 C   0  0  0  0  0  0  0  0  0  0  0  0
   -1.9554   -2.1374    0.0000 C   0  0  3  0  0  0  0  0  0  0  0  0
   -3.4288   -2.1192    0.0000 C   0  0  0  0  0  0  0  0  0  0  0  0
   -4.1564   -1.7190    0.0000 C   0  0  3  0  0  0  0  0  0  0  0  0
   -9.8500   -3.4834    0.0000 C   0  0  0  0  0  0  0  0  0  0  0  0
   -8.5402   -3.4652    0.0000 C   0  0  0  0  0  0  0  0  0  0  0  0
   -1.9918   -2.9922    0.0000 C   0  0  0  0  0  0  0  0  0  0  0  0
   -4.1383   -0.8822    0.0000 C   0  0  0  0  0  0  0  0  0  0  0  0
   -9.6135   -4.2474    0.0000 C   0  0  0  0  0  0  0  0  0  0  0  0
   -8.7768   -4.2474    0.0000 C   0  0  0  0  0  0  0  0  0  0  0  0
   -9.1769   -2.1374    0.0000 C   0  0  0  0  0  0  0  0  0  0  0  0
   -5.5935   -1.7371    0.0000 C   0  0  0  0  0  0  0  0  0  0  0  0
   -2.6830   -3.3925    0.0000 C   0  0  0  0  0  0  0  0  0  0  0  0
   -8.5039   -1.7371    0.0000 C   0  0  0  0  0  0  0  0  0  0  0  0
   -6.3029   -2.1374    0.0000 C   0  0  0  0  0  0  0  0  0  0  0  0
   -4.8841   -0.5002    0.0000 C   0  0  0  0  0  0  0  0  0  0  0  0
   -3.4106   -0.5002    0.0000 C   0  0  0  0  0  0  0  0  0  0  0  0
   -7.7217   -2.1374    0.0000 C   0  0  0  0  0  0  0  0  0  0  0  0
   -7.0487   -1.7371    0.0000 C   0  0  0  0  0  0  0  0  0  0  0  0
   -2.7194   -4.2474    0.0000 C   0  0  0  0  0  0  0  0  0  0  0  0
   -4.1564   -4.2474    0.0000 C   0  0  0  0  0  0  0  0  0  0  0  0
  1 33  1  0  0  0  0
  2 39  1  0  0  0  0
  3 30  2  0  0  0  0
  4 48  1  0  0  0  0
  4 56  1  0  0  0  0
  5 49  1  0  0  0  0
  5 59  1  0  0  0  0
  6 49  2  0  0  0  0
  7 66  2  0  0  0  0
  8 68  2  0  0  0  0
  9 70  2  0  0  0  0
 10 71  2  0  0  0  0
 11 77  2  0  0  0  0
 12 86  2  0  0  0  0
 13 24  1  0  0  0  0
 13 28  1  0  0  0  0
 13 31  1  0  0  0  0
 25 14  1  6  0  0  0
 14 30  1  0  0  0  0
 14 32  1  0  0  0  0
 15 24  2  0  0  0  0
 15 26  1  0  0  0  0
 16 30  1  0  0  0  0
 16 44  1  0  0  0  0
 16 45  1  0  0  0  0
 17 42  1  0  0  0  0
 17 49  1  0  0  0  0
 17 52  1  0  0  0  0
 18 63  1  0  0  0  0
 18 66  1  0  0  0  0
 19 70  1  0  0  0  0
 19 71  1  0  0  0  0
 19 76  1  0  0  0  0
 67 20  1  6  0  0  0
 20 68  1  0  0  0  0
 69 21  1  1  0  0  0
 21 77  1  0  0  0  0
 22 85  1  0  0  0  0
 22 86  1  0  0  0  0
 23 86  1  0  0  0  0
 24 25  1  0  0  0  0
 25 27  1  0  0  0  0
 26 28  2  0  0  0  0
 26 29  1  0  0  0  0
 27 36  1  0  0  0  0
 27 37  1  0  0  0  0
 27 38  1  0  0  0  0
 29 33  2  0  0  0  0
 29 34  1  0  0  0  0
 31 35  1  0  0  0  0
 32 40  1  0  0  0  0
 33 41  1  0  0  0  0
 34 39  2  0  0  0  0
 35 46  2  0  0  0  0
 35 47  1  0  0  0  0
 39 43  1  0  0  0  0
 42 40  1  1  0  0  0
 41 43  2  0  0  0  0
 42 48  1  0  0  0  0
 44 53  1  0  0  0  0
 45 54  1  0  0  0  0
 46 50  1  0  0  0  0
 47 51  2  0  0  0  0
 50 55  2  0  0  0  0
 51 55  1  0  0  0  0
 52 56  1  0  0  0  0
 53 57  1  0  0  0  0
 54 58  1  0  0  0  0
 59 60  1  0  0  0  0
 60 61  2  0  0  0  0
 60 62  1  0  0  0  0
 61 64  1  0  0  0  0
 62 65  2  0  0  0  0
 63 64  2  0  0  0  0
 63 65  1  0  0  0  0
 66 67  1  0  0  0  0
 67 72  1  0  0  0  0
 68 69  1  0  0  0  0
 69 73  1  0  0  0  0
 70 74  1  0  0  0  0
 71 75  1  0  0  0  0
 72 78  1  0  0  0  0
 73 81  1  0  0  0  0
 73 82  1  0  0  0  0
 74 75  2  0  0  0  0
 76 79  1  0  0  0  0
 77 80  1  0  0  0  0
 78 85  1  0  0  0  0
 79 83  1  0  0  0  0
 80 84  1  0  0  0  0
 83 84  1  0  0  0  0
M  END
> <PUBCHEM_COMPOUND_ID_TYPE>
0

> <PUBCHEM_TOTAL_CHARGE>
0

> <PUBCHEM_SUBSTANCE_ID>
310942787

> <PUBCHEM_SUBSTANCE_VERSION>
1

> <PUBCHEM_EXT_DATASOURCE_NAME>
4488

> <PUBCHEM_EXT_DATASOURCE_REGID>
SCHEMBL16120840

> <PUBCHEM_SUBSTANCE_COMMENT>
InChI=1S/C63H85F2N11O10/c1-8-31-72(32-9-2)61(83)76(56(63(5,6)7)57-69-51(48-37-45(64)23-26-49(48)65)39-73(57)38-43-17-12-10-13-18-43)34-29-47-41-85-36-35-74(47)62(84)86-40-44-21-24-46(25-22-44)68-58(80)50(19-16-30-67-60(66)82)70-59(81)55(42(3)4)71-52(77)20-14-11-15-33-75-53(78)27-28-54(75)79/h10,12-13,17-18,21-28,37,39,42,47,50,55-56H,8-9,11,14-16,19-20,29-36,38,40-41H2,1-7H3,(H,68,80)(H,70,81)(H,71,77)(H3,66,67,82)/t47-,50-,55-,56-/m0/s1
InChIKey=VRPBGBRATJANQH-VKXNHAKISA-N

> <PUBCHEM_SUBSTANCE_SYNONYM>
SCHEMBL16120840

> <PUBCHEM_XREF_EXT_ID>
SCHEMBL16120840

> <PUBCHEM_EXT_DATASOURCE_URL>
https://www.surechembl.org/

> <PUBCHEM_EXT_SUBSTANCE_URL>
https://www.surechembl.org/chemical/SCHEMBL16120840

> <PUBCHEM_CID_ASSOCIATIONS>
117609293  1

> <PUBCHEM_COORDINATE_TYPE>
1
3

> <PUBCHEM_BONDANNOTATIONS>
25  14  6
67  20  6
69  21  5
42  40  5

$$$$
