310949563
  -OEChem-07211613022D

 34 37  0     0  0  0  0  0  0999 V2000
   -2.1735    0.9990    0.0000 S   0  0  0  0  0  0  0  0  0  0  0  0
   -3.2273    2.3821    0.0000 O   0  0  0  0  0  0  0  0  0  0  0  0
    0.8343    4.4459    0.0000 O   0  0  0  0  0  0  0  0  0  0  0  0
   -0.7684   -3.3481    0.0000 O   0  0  0  0  0  0  0  0  0  0  0  0
   -2.2614   -3.3481    0.0000 O   0  0  0  0  0  0  0  0  0  0  0  0
   -0.8123    0.9990    0.0000 N   0  0  0  0  0  0  0  0  0  0  0  0
   -1.4930   -0.3623    0.0000 N   0  0  0  0  0  0  0  0  0  0  0  0
    0.2196    2.3821    0.0000 N   0  0  0  0  0  0  0  0  0  0  0  0
   -1.4930   -2.0747    0.0000 N   0  0  0  0  0  0  0  0  0  0  0  0
   -2.0857    3.2163    0.0000 N   0  0  0  0  0  0  0  0  0  0  0  0
   -1.0978    1.8332    0.0000 C   0  0  0  0  0  0  0  0  0  0  0  0
   -1.9539    1.8552    0.0000 C   0  0  0  0  0  0  0  0  0  0  0  0
   -1.4930    0.5598    0.0000 C   0  0  0  0  0  0  0  0  0  0  0  0
   -0.6148    2.5358    0.0000 C   0  0  0  0  0  0  0  0  0  0  0  0
   -2.4370    2.4919    0.0000 C   0  0  0  0  0  0  0  0  0  0  0  0
   -0.7684   -0.7574    0.0000 C   0  0  0  0  0  0  0  0  0  0  0  0
   -2.2174   -0.7355    0.0000 C   0  0  0  0  0  0  0  0  0  0  0  0
   -0.9221    3.1944    0.0000 C   0  0  0  0  0  0  0  0  0  0  0  0
   -0.7904   -1.6137    0.0000 C   0  0  0  0  0  0  0  0  0  0  0  0
   -2.2394   -1.5917    0.0000 C   0  0  0  0  0  0  0  0  0  0  0  0
    0.3293    3.8092    0.0000 C   0  0  0  0  0  0  0  0  0  0  0  0
    0.6806    3.0627    0.0000 C   0  0  0  0  0  0  0  0  0  0  0  0
   -0.4611    3.8970    0.0000 C   0  0  0  0  0  0  0  0  0  0  0  0
   -1.4930   -2.8651    0.0000 C   0  0  0  0  0  0  0  0  0  0  0  0
   -0.7684   -4.2043    0.0000 C   0  0  0  0  0  0  0  0  0  0  0  0
    1.6247    4.4019    0.0000 C   0  0  0  0  0  0  0  0  0  0  0  0
    1.9759    3.6555    0.0000 C   0  0  0  0  0  0  0  0  0  0  0  0
    2.1076    5.0386    0.0000 C   0  0  0  0  0  0  0  0  0  0  0  0
   -1.5149   -4.6215    0.0000 C   0  0  0  0  0  0  0  0  0  0  0  0
   -0.0219   -4.5995    0.0000 C   0  0  0  0  0  0  0  0  0  0  0  0
   -0.7465   -5.0386    0.0000 C   0  0  0  0  0  0  0  0  0  0  0  0
    2.7663    3.5677    0.0000 C   0  0  0  0  0  0  0  0  0  0  0  0
    2.9200    4.9508    0.0000 C   0  0  0  0  0  0  0  0  0  0  0  0
    3.2273    4.2263    0.0000 C   0  0  0  0  0  0  0  0  0  0  0  0
  1 12  1  0  0  0  0
  1 13  1  0  0  0  0
  2 15  2  0  0  0  0
  3 21  1  0  0  0  0
  3 26  1  0  0  0  0
  4 24  1  0  0  0  0
  4 25  1  0  0  0  0
  5 24  2  0  0  0  0
  6 11  1  0  0  0  0
  6 13  2  0  0  0  0
  7 13  1  0  0  0  0
  7 16  1  0  0  0  0
  7 17  1  0  0  0  0
  8 14  2  0  0  0  0
  8 22  1  0  0  0  0
  9 19  1  0  0  0  0
  9 20  1  0  0  0  0
  9 24  1  0  0  0  0
 10 15  1  0  0  0  0
 11 12  2  0  0  0  0
 11 14  1  0  0  0  0
 12 15  1  0  0  0  0
 14 18  1  0  0  0  0
 16 19  1  0  0  0  0
 17 20  1  0  0  0  0
 18 23  2  0  0  0  0
 21 22  2  0  0  0  0
 21 23  1  0  0  0  0
 25 29  1  0  0  0  0
 25 30  1  0  0  0  0
 25 31  1  0  0  0  0
 26 27  2  0  0  0  0
 26 28  1  0  0  0  0
 27 32  1  0  0  0  0
 28 33  2  0  0  0  0
 32 34  2  0  0  0  0
 33 34  1  0  0  0  0
M  END
> <PUBCHEM_COMPOUND_ID_TYPE>
0

> <PUBCHEM_TOTAL_CHARGE>
0

> <PUBCHEM_SUBSTANCE_ID>
310949563

> <PUBCHEM_SUBSTANCE_VERSION>
1

> <PUBCHEM_EXT_DATASOURCE_NAME>
4488

> <PUBCHEM_EXT_DATASOURCE_REGID>
SCHEMBL16127758

> <PUBCHEM_SUBSTANCE_COMMENT>
InChI=1S/C24H27N5O4S/c1-24(2,3)33-23(31)29-13-11-28(12-14-29)22-27-19(20(34-22)21(25)30)18-10-9-17(15-26-18)32-16-7-5-4-6-8-16/h4-10,15H,11-14H2,1-3H3,(H2,25,30)
InChIKey=WHHFYEWRUBFKJQ-UHFFFAOYSA-N

> <PUBCHEM_SUBSTANCE_SYNONYM>
SCHEMBL16127758

> <PUBCHEM_XREF_EXT_ID>
SCHEMBL16127758

> <PUBCHEM_EXT_DATASOURCE_URL>
https://www.surechembl.org/

> <PUBCHEM_EXT_SUBSTANCE_URL>
https://www.surechembl.org/chemical/SCHEMBL16127758

> <PUBCHEM_CID_ASSOCIATIONS>
117614980  1

> <PUBCHEM_COORDINATE_TYPE>
1
3

$$$$
