310932728
  -OEChem-07211613022D

 30 33  0     0  0  0  0  0  0999 V2000
    4.0184   -2.7449    0.0000 O   0  0  0  0  0  0  0  0  0  0  0  0
    8.4895   -2.8298    0.0000 O   0  0  0  0  0  0  0  0  0  0  0  0
    4.9239   -1.5847    0.0000 N   0  0  0  0  0  0  0  0  0  0  0  0
    4.8390   -0.7640    0.0000 N   0  0  0  0  0  0  0  0  0  0  0  0
    7.7821   -4.0467    0.0000 N   0  0  0  0  0  0  0  0  0  0  0  0
    6.3388   -1.5847    0.0000 N   0  0  0  0  0  0  0  0  0  0  0  0
    6.0276   -5.0371    0.0000 N   0  0  0  0  0  0  0  0  0  0  0  0
    0.0000   -2.4337    0.0000 N   0  0  0  0  0  0  0  0  0  0  0  0
    3.6222   -1.3300    0.0000 C   0  0  0  0  0  0  0  0  0  0  0  0
    4.1881   -1.9243    0.0000 C   0  0  0  0  0  0  0  0  0  0  0  0
    5.6314   -2.0092    0.0000 C   0  0  0  0  0  0  0  0  0  0  0  0
    2.8015   -1.4149    0.0000 C   0  0  0  0  0  0  0  0  0  0  0  0
    4.0184   -0.6226    0.0000 C   0  0  0  0  0  0  0  0  0  0  0  0
    7.0463   -2.8298    0.0000 C   0  0  0  0  0  0  0  0  0  0  0  0
    2.2922   -0.7640    0.0000 C   0  0  0  0  0  0  0  0  0  0  0  0
    7.7821   -3.2260    0.0000 C   0  0  0  0  0  0  0  0  0  0  0  0
    7.0746   -4.4712    0.0000 C   0  0  0  0  0  0  0  0  0  0  0  0
    5.6314   -2.8298    0.0000 C   0  0  0  0  0  0  0  0  0  0  0  0
    2.4620   -2.1790    0.0000 C   0  0  0  0  0  0  0  0  0  0  0  0
    7.0463   -2.0092    0.0000 C   0  0  0  0  0  0  0  0  0  0  0  0
    6.3388   -3.2260    0.0000 C   0  0  0  0  0  0  0  0  0  0  0  0
    6.2539   -4.2447    0.0000 C   0  0  0  0  0  0  0  0  0  0  0  0
    6.8482   -5.2635    0.0000 C   0  0  0  0  0  0  0  0  0  0  0  0
    1.4998   -0.8489    0.0000 C   0  0  0  0  0  0  0  0  0  0  0  0
    1.1603   -1.6130    0.0000 C   0  0  0  0  0  0  0  0  0  0  0  0
    1.6413   -2.2639    0.0000 C   0  0  0  0  0  0  0  0  0  0  0  0
    2.6318    0.0000    0.0000 C   0  0  0  0  0  0  0  0  0  0  0  0
    8.4895   -4.4712    0.0000 C   0  0  0  0  0  0  0  0  0  0  0  0
    0.3396   -1.6979    0.0000 C   0  0  0  0  0  0  0  0  0  0  0  0
    5.3201   -5.4333    0.0000 C   0  0  0  0  0  0  0  0  0  0  0  0
  1 10  1  0  0  0  0
  2 16  2  0  0  0  0
  3  4  1  0  0  0  0
  3 10  1  0  0  0  0
  3 11  1  0  0  0  0
  4 13  2  0  0  0  0
  5 16  1  0  0  0  0
  5 17  1  0  0  0  0
  5 28  1  0  0  0  0
  6 11  2  0  0  0  0
  6 20  1  0  0  0  0
  7 22  1  0  0  0  0
  7 23  1  0  0  0  0
  7 30  1  0  0  0  0
  8 29  3  0  0  0  0
  9 10  2  0  0  0  0
  9 12  1  0  0  0  0
  9 13  1  0  0  0  0
 11 18  1  0  0  0  0
 12 15  1  0  0  0  0
 12 19  2  0  0  0  0
 14 16  1  0  0  0  0
 14 20  2  0  0  0  0
 14 21  1  0  0  0  0
 15 24  2  0  0  0  0
 15 27  1  0  0  0  0
 17 22  1  0  0  0  0
 17 23  1  0  0  0  0
 18 21  2  0  0  0  0
 19 26  1  0  0  0  0
 24 25  1  0  0  0  0
 25 26  2  0  0  0  0
 25 29  1  0  0  0  0
M  END
> <PUBCHEM_COMPOUND_ID_TYPE>
0

> <PUBCHEM_TOTAL_CHARGE>
0

> <PUBCHEM_SUBSTANCE_ID>
310932728

> <PUBCHEM_SUBSTANCE_VERSION>
1

> <PUBCHEM_EXT_DATASOURCE_NAME>
4488

> <PUBCHEM_EXT_DATASOURCE_REGID>
SCHEMBL16110112

> <PUBCHEM_SUBSTANCE_COMMENT>
InChI=1S/C22H22N6O2/c1-14-8-15(9-23)4-6-18(14)19-11-25-28(22(19)30)20-7-5-16(10-24-20)21(29)27(3)17-12-26(2)13-17/h4-8,10-11,17,30H,12-13H2,1-3H3
InChIKey=KIKYZLTUNMEODI-UHFFFAOYSA-N

> <PUBCHEM_SUBSTANCE_SYNONYM>
SCHEMBL16110112

> <PUBCHEM_XREF_EXT_ID>
SCHEMBL16110112

> <PUBCHEM_EXT_DATASOURCE_URL>
https://www.surechembl.org/

> <PUBCHEM_EXT_SUBSTANCE_URL>
https://www.surechembl.org/chemical/SCHEMBL16110112

> <PUBCHEM_CID_ASSOCIATIONS>
117601234  1

> <PUBCHEM_COORDINATE_TYPE>
1
3

$$$$
