310933610
  -OEChem-07211613022D

 31 34  0     0  0  0  0  0  0999 V2000
    6.8661   -4.5524    0.0000 O   0  0  0  0  0  0  0  0  0  0  0  0
   10.3186   -6.5940    0.0000 O   0  0  0  0  0  0  0  0  0  0  0  0
    4.9702   -3.4578    0.0000 O   0  0  0  0  0  0  0  0  0  0  0  0
    7.3549   -3.2097    0.0000 O   0  0  0  0  0  0  0  0  0  0  0  0
   10.5991   -5.1508    0.0000 N   0  0  0  0  0  0  0  0  0  0  0  0
   11.2831   -4.6895    0.0000 N   0  0  0  0  0  0  0  0  0  0  0  0
    6.0909   -4.2703    0.0000 N   0  0  0  0  0  0  0  0  0  0  0  0
    9.1919   -5.3989    0.0000 N   0  0  0  0  0  0  0  0  0  0  0  0
   13.9577   -9.3924    0.0000 N   0  0  0  0  0  0  0  0  0  0  0  0
   11.6510   -5.9726    0.0000 C   0  0  0  0  0  0  0  0  0  0  0  0
    5.4589   -4.8006    0.0000 C   0  0  0  0  0  0  0  0  0  0  0  0
   10.8265   -5.9438    0.0000 C   0  0  0  0  0  0  0  0  0  0  0  0
   12.1123   -6.6566    0.0000 C   0  0  0  0  0  0  0  0  0  0  0  0
    9.8239   -4.8686    0.0000 C   0  0  0  0  0  0  0  0  0  0  0  0
    5.8714   -5.5150    0.0000 C   0  0  0  0  0  0  0  0  0  0  0  0
    5.0464   -5.5150    0.0000 C   0  0  0  0  0  0  0  0  0  0  0  0
   11.9332   -5.1974    0.0000 C   0  0  0  0  0  0  0  0  0  0  0  0
   12.9353   -6.5990    0.0000 C   0  0  0  0  0  0  0  0  0  0  0  0
    8.2734   -4.3043    0.0000 C   0  0  0  0  0  0  0  0  0  0  0  0
    4.8269   -4.2703    0.0000 C   0  0  0  0  0  0  0  0  0  0  0  0
    9.6806   -4.0562    0.0000 C   0  0  0  0  0  0  0  0  0  0  0  0
    7.4981   -4.0221    0.0000 C   0  0  0  0  0  0  0  0  0  0  0  0
   11.7507   -7.3981    0.0000 C   0  0  0  0  0  0  0  0  0  0  0  0
    8.4166   -5.1168    0.0000 C   0  0  0  0  0  0  0  0  0  0  0  0
    8.9054   -3.7740    0.0000 C   0  0  0  0  0  0  0  0  0  0  0  0
   13.3967   -7.2830    0.0000 C   0  0  0  0  0  0  0  0  0  0  0  0
   13.0350   -8.0245    0.0000 C   0  0  0  0  0  0  0  0  0  0  0  0
   12.2120   -8.0821    0.0000 C   0  0  0  0  0  0  0  0  0  0  0  0
   13.2970   -5.8575    0.0000 C   0  0  0  0  0  0  0  0  0  0  0  0
   13.4963   -8.7085    0.0000 C   0  0  0  0  0  0  0  0  0  0  0  0
    4.3382   -2.9275    0.0000 C   0  0  0  0  0  0  0  0  0  0  0  0
  1  7  1  0  0  0  0
  1 22  1  0  0  0  0
  2 12  1  0  0  0  0
  3 20  1  0  0  0  0
  3 31  1  0  0  0  0
  4 22  2  0  0  0  0
  5  6  1  0  0  0  0
  5 12  1  0  0  0  0
  5 14  1  0  0  0  0
  6 17  2  0  0  0  0
  7 11  1  0  0  0  0
  8 14  1  0  0  0  0
  8 24  2  0  0  0  0
  9 30  3  0  0  0  0
 10 12  2  0  0  0  0
 10 13  1  0  0  0  0
 10 17  1  0  0  0  0
 11 15  1  0  0  0  0
 11 16  1  0  0  0  0
 11 20  1  0  0  0  0
 13 18  2  0  0  0  0
 13 23  1  0  0  0  0
 14 21  2  0  0  0  0
 15 16  1  0  0  0  0
 18 26  1  0  0  0  0
 18 29  1  0  0  0  0
 19 22  1  0  0  0  0
 19 24  1  0  0  0  0
 19 25  2  0  0  0  0
 21 25  1  0  0  0  0
 23 28  2  0  0  0  0
 26 27  2  0  0  0  0
 27 28  1  0  0  0  0
 27 30  1  0  0  0  0
M  END
> <PUBCHEM_COMPOUND_ID_TYPE>
0

> <PUBCHEM_TOTAL_CHARGE>
0

> <PUBCHEM_SUBSTANCE_ID>
310933610

> <PUBCHEM_SUBSTANCE_VERSION>
1

> <PUBCHEM_EXT_DATASOURCE_NAME>
4488

> <PUBCHEM_EXT_DATASOURCE_REGID>
SCHEMBL16111039

> <PUBCHEM_SUBSTANCE_COMMENT>
InChI=1S/C22H21N5O4/c1-14-9-15(10-23)3-5-17(14)18-12-25-27(20(18)28)19-6-4-16(11-24-19)21(29)31-26-22(7-8-22)13-30-2/h3-6,9,11-12,26,28H,7-8,13H2,1-2H3
InChIKey=PSIHRGVYZBUIPD-UHFFFAOYSA-N

> <PUBCHEM_SUBSTANCE_SYNONYM>
SCHEMBL16111039

> <PUBCHEM_XREF_EXT_ID>
SCHEMBL16111039

> <PUBCHEM_EXT_DATASOURCE_URL>
https://www.surechembl.org/

> <PUBCHEM_EXT_SUBSTANCE_URL>
https://www.surechembl.org/chemical/SCHEMBL16111039

> <PUBCHEM_CID_ASSOCIATIONS>
117601987  1

> <PUBCHEM_COORDINATE_TYPE>
1
3

$$$$
