310946348
  -OEChem-07211613022D

 27 29  0     0  0  0  0  0  0999 V2000
   -2.1434  -16.0897    0.0000 I   0  0  0  0  0  0  0  0  0  0  0  0
   -0.7145  -13.6147    0.0000 I   0  0  0  0  0  0  0  0  0  0  0  0
   -2.1434  -14.4397    0.0000 O   0  0  0  0  0  0  0  0  0  0  0  0
    2.1434  -16.9147    0.0000 O   0  0  0  0  0  0  0  0  0  0  0  0
   -5.0013  -16.0897    0.0000 O   0  0  0  0  0  0  0  0  0  0  0  0
    2.8579  -15.6772    0.0000 N   0  0  0  0  0  0  0  0  0  0  0  0
    4.2868  -14.8522    0.0000 N   0  0  0  0  0  0  0  0  0  0  0  0
   -1.4289  -14.8522    0.0000 C   0  0  0  0  0  0  0  0  0  0  0  0
   -1.4289  -15.6772    0.0000 C   0  0  0  0  0  0  0  0  0  0  0  0
   -0.7145  -14.4397    0.0000 C   0  0  0  0  0  0  0  0  0  0  0  0
    0.0000  -15.6772    0.0000 C   0  0  0  0  0  0  0  0  0  0  0  0
   -0.7145  -16.0897    0.0000 C   0  0  0  0  0  0  0  0  0  0  0  0
    0.0000  -14.8522    0.0000 C   0  0  0  0  0  0  0  0  0  0  0  0
   -2.8579  -14.8522    0.0000 C   0  0  0  0  0  0  0  0  0  0  0  0
    0.7145  -16.0897    0.0000 C   0  0  0  0  0  0  0  0  0  0  0  0
    2.1434  -16.0897    0.0000 C   0  0  0  0  0  0  0  0  0  0  0  0
    1.4289  -15.6772    0.0000 C   0  0  0  0  0  0  0  0  0  0  0  0
   -3.5724  -14.4397    0.0000 C   0  0  0  0  0  0  0  0  0  0  0  0
   -2.8579  -15.6772    0.0000 C   0  0  0  0  0  0  0  0  0  0  0  0
    3.5724  -16.0897    0.0000 C   0  0  0  0  0  0  0  0  0  0  0  0
    2.8579  -14.8522    0.0000 C   0  0  0  0  0  0  0  0  0  0  0  0
    4.2868  -15.6772    0.0000 C   0  0  0  0  0  0  0  0  0  0  0  0
   -4.2868  -15.6772    0.0000 C   0  0  0  0  0  0  0  0  0  0  0  0
   -4.2868  -14.8522    0.0000 C   0  0  0  0  0  0  0  0  0  0  0  0
   -3.5724  -16.0897    0.0000 C   0  0  0  0  0  0  0  0  0  0  0  0
    3.5724  -14.4397    0.0000 C   0  0  0  0  0  0  0  0  0  0  0  0
    5.0013  -16.0897    0.0000 C   0  0  0  0  0  0  0  0  0  0  0  0
  1  9  1  0  0  0  0
  2 10  1  0  0  0  0
  3  8  1  0  0  0  0
  3 14  1  0  0  0  0
  4 16  2  0  0  0  0
  5 23  1  0  0  0  0
  6 16  1  0  0  0  0
  6 20  1  0  0  0  0
  6 21  1  0  0  0  0
  7 22  1  0  0  0  0
  7 26  1  0  0  0  0
  8  9  2  0  0  0  0
  8 10  1  0  0  0  0
  9 12  1  0  0  0  0
 10 13  2  0  0  0  0
 11 12  2  0  0  0  0
 11 13  1  0  0  0  0
 11 15  1  0  0  0  0
 14 18  2  0  0  0  0
 14 19  1  0  0  0  0
 15 17  1  0  0  0  0
 16 17  1  0  0  0  0
 18 24  1  0  0  0  0
 19 25  2  0  0  0  0
 20 22  1  0  0  0  0
 21 26  1  0  0  0  0
 22 27  2  0  0  0  0
 23 24  2  0  0  0  0
 23 25  1  0  0  0  0
M  END
> <PUBCHEM_COMPOUND_ID_TYPE>
0

> <PUBCHEM_TOTAL_CHARGE>
0

> <PUBCHEM_SUBSTANCE_ID>
310946348

> <PUBCHEM_SUBSTANCE_VERSION>
1

> <PUBCHEM_EXT_DATASOURCE_NAME>
4488

> <PUBCHEM_EXT_DATASOURCE_REGID>
SCHEMBL16124467

> <PUBCHEM_SUBSTANCE_COMMENT>
InChI=1S/C20H20I2N2O3/c1-13-12-24(9-8-23-13)19(26)7-2-14-10-17(21)20(18(22)11-14)27-16-5-3-15(25)4-6-16/h3-6,10-11,23,25H,1-2,7-9,12H2
InChIKey=TXIYRXYIERDTSR-UHFFFAOYSA-N

> <PUBCHEM_SUBSTANCE_SYNONYM>
SCHEMBL16124467

> <PUBCHEM_XREF_EXT_ID>
SCHEMBL16124467

> <PUBCHEM_EXT_DATASOURCE_URL>
https://www.surechembl.org/

> <PUBCHEM_EXT_SUBSTANCE_URL>
https://www.surechembl.org/chemical/SCHEMBL16124467

> <PUBCHEM_CID_ASSOCIATIONS>
117612271  1

> <PUBCHEM_COORDINATE_TYPE>
1
3

$$$$
