310949452
  -OEChem-07211613022D

 15 15  0     0  0  0  0  0  0999 V2000
    0.0176   -1.4430    0.0000 O   0  0  0  0  0  0  0  0  0  0  0  0
    2.1527    1.4430    0.0000 O   0  0  0  0  0  0  0  0  0  0  0  0
   -0.6863   -0.2112    0.0000 N   0  0  0  0  0  0  0  0  0  0  0  0
   -2.1058    0.6101    0.0000 N   0  0  0  0  0  0  0  0  0  0  0  0
    0.0294   -0.5748    0.0000 C   0  0  0  0  0  0  0  0  0  0  0  0
   -1.3902   -0.5983    0.0000 C   0  0  0  0  0  0  0  0  0  0  0  0
   -0.6863    0.6218    0.0000 C   0  0  0  0  0  0  0  0  0  0  0  0
    0.7332   -0.1995    0.0000 C   0  0  0  0  0  0  0  0  0  0  0  0
   -2.1058   -0.1877    0.0000 C   0  0  0  0  0  0  0  0  0  0  0  0
   -1.4019    1.0324    0.0000 C   0  0  0  0  0  0  0  0  0  0  0  0
    2.1762    0.6452    0.0000 C   0  0  0  0  0  0  0  0  0  0  0  0
    1.4489    0.2229    0.0000 C   0  0  0  0  0  0  0  0  0  0  0  0
   -2.8801    1.0793    0.0000 C   0  0  0  0  0  0  0  0  0  0  0  0
    2.8684    1.0441    0.0000 C   0  0  0  0  0  0  0  0  0  0  0  0
    2.8801    0.2346    0.0000 C   0  0  0  0  0  0  0  0  0  0  0  0
  1  5  2  0  0  0  0
  2 11  1  0  0  0  0
  3  5  1  0  0  0  0
  3  6  1  0  0  0  0
  3  7  1  0  0  0  0
  4  9  1  0  0  0  0
  4 10  1  0  0  0  0
  4 13  1  0  0  0  0
  5  8  1  0  0  0  0
  6  9  1  0  0  0  0
  7 10  1  0  0  0  0
  8 12  3  0  0  0  0
 11 12  1  0  0  0  0
 11 14  1  0  0  0  0
 11 15  1  0  0  0  0
M  END
> <PUBCHEM_COMPOUND_ID_TYPE>
0

> <PUBCHEM_TOTAL_CHARGE>
0

> <PUBCHEM_SUBSTANCE_ID>
310949452

> <PUBCHEM_SUBSTANCE_VERSION>
1

> <PUBCHEM_EXT_DATASOURCE_NAME>
4488

> <PUBCHEM_EXT_DATASOURCE_REGID>
SCHEMBL16127646

> <PUBCHEM_SUBSTANCE_COMMENT>
InChI=1S/C11H18N2O2/c1-11(2,15)5-4-10(14)13-8-6-12(3)7-9-13/h15H,6-9H2,1-3H3
InChIKey=WRLMNULPRLWHIS-UHFFFAOYSA-N

> <PUBCHEM_SUBSTANCE_SYNONYM>
SCHEMBL16127646

> <PUBCHEM_XREF_EXT_ID>
SCHEMBL16127646

> <PUBCHEM_EXT_DATASOURCE_URL>
https://www.surechembl.org/

> <PUBCHEM_EXT_SUBSTANCE_URL>
https://www.surechembl.org/chemical/SCHEMBL16127646

> <PUBCHEM_CID_ASSOCIATIONS>
117614898  1

> <PUBCHEM_COORDINATE_TYPE>
1
3

$$$$
