310937134
  -OEChem-07211613022D

 16 17  0     0  0  0  0  0  0999 V2000
    0.0000   -2.7865    0.0000 Br  0  0  0  0  0  0  0  0  0  0  0  0
    1.4196   -1.9716    0.0000 O   0  0  0  0  0  0  0  0  0  0  0  0
    4.2587   -4.4427    0.0000 O   0  0  0  0  0  0  0  0  0  0  0  0
    1.4196   -4.4164    0.0000 N   0  0  0  0  0  0  0  0  0  0  0  0
    3.5489   -4.0221    0.0000 N   0  0  0  0  0  0  0  0  0  0  0  0
    2.8391   -5.2576    0.0000 N   0  0  0  0  0  0  0  0  0  0  0  0
    1.4196   -2.7865    0.0000 C   0  0  0  0  0  0  0  0  0  0  0  0
    2.1294   -4.0221    0.0000 C   0  0  0  0  0  0  0  0  0  0  0  0
    0.7098   -3.2072    0.0000 C   0  0  0  0  0  0  0  0  0  0  0  0
    2.1294   -3.2072    0.0000 C   0  0  0  0  0  0  0  0  0  0  0  0
    2.8391   -4.4427    0.0000 C   0  0  0  0  0  0  0  0  0  0  0  0
    0.7098   -4.0221    0.0000 C   0  0  0  0  0  0  0  0  0  0  0  0
    0.7098   -0.7361    0.0000 C   0  0  0  0  0  0  0  0  0  0  0  0
    0.7098   -1.5510    0.0000 C   0  0  0  0  0  0  0  0  0  0  0  0
    0.2892   -0.0263    0.0000 C   0  0  0  0  0  0  0  0  0  0  0  0
    1.1041    0.0000    0.0000 C   0  0  0  0  0  0  0  0  0  0  0  0
  1  9  1  0  0  0  0
  2  7  1  0  0  0  0
  2 14  1  0  0  0  0
  3  5  1  0  0  0  0
  4  8  1  0  0  0  0
  4 12  2  0  0  0  0
  5 11  2  0  0  0  0
  6 11  1  0  0  0  0
  7  9  2  0  0  0  0
  7 10  1  0  0  0  0
  8 10  2  0  0  0  0
  8 11  1  0  0  0  0
  9 12  1  0  0  0  0
 13 14  1  0  0  0  0
 13 15  1  0  0  0  0
 13 16  1  0  0  0  0
 15 16  1  0  0  0  0
M  END
> <PUBCHEM_COMPOUND_ID_TYPE>
0

> <PUBCHEM_TOTAL_CHARGE>
0

> <PUBCHEM_SUBSTANCE_ID>
310937134

> <PUBCHEM_SUBSTANCE_VERSION>
1

> <PUBCHEM_EXT_DATASOURCE_NAME>
4488

> <PUBCHEM_EXT_DATASOURCE_REGID>
SCHEMBL16114853

> <PUBCHEM_SUBSTANCE_COMMENT>
InChI=1S/C10H12BrN3O2/c11-7-4-13-8(10(12)14-15)3-9(7)16-5-6-1-2-6/h3-4,6,15H,1-2,5H2,(H2,12,14)
InChIKey=HKBZGOCFIVKTEY-UHFFFAOYSA-N

> <PUBCHEM_SUBSTANCE_SYNONYM>
SCHEMBL16114853

> <PUBCHEM_XREF_EXT_ID>
SCHEMBL16114853

> <PUBCHEM_EXT_DATASOURCE_URL>
https://www.surechembl.org/

> <PUBCHEM_EXT_SUBSTANCE_URL>
https://www.surechembl.org/chemical/SCHEMBL16114853

> <PUBCHEM_CID_ASSOCIATIONS>
117604961  1

> <PUBCHEM_COORDINATE_TYPE>
1
3

$$$$
