310931371
  -OEChem-07211613022D

 28 31  0     0  0  0  0  0  0999 V2000
    6.3567   -2.9380    0.0000 S   0  0  0  0  0  0  0  0  0  0  0  0
    7.1580   -2.4839    0.0000 O   0  0  0  0  0  0  0  0  0  0  0  0
    5.6623   -3.3386    0.0000 O   0  0  0  0  0  0  0  0  0  0  0  0
    3.8995   -1.5224    0.0000 O   0  0  0  0  0  0  0  0  0  0  0  0
    2.1901   -0.1602    0.0000 N   0  0  0  0  0  0  0  0  0  0  0  0
    5.9561   -0.8013    0.0000 N   0  0  0  0  0  0  0  0  0  0  0  0
    3.8995   -0.1069    0.0000 N   0  0  0  0  0  0  0  0  0  0  0  0
    0.0000   -1.2286    0.0000 N   0  0  0  0  0  0  0  0  0  0  0  0
    5.9561   -2.2168    0.0000 C   0  0  0  0  0  0  0  0  0  0  0  0
    6.7574   -3.6324    0.0000 C   0  0  0  0  0  0  0  0  0  0  0  0
    2.6709   -0.8013    0.0000 C   0  0  0  0  0  0  0  0  0  0  0  0
    1.4155   -0.3739    0.0000 C   0  0  0  0  0  0  0  0  0  0  0  0
    1.4155   -1.2286    0.0000 C   0  0  0  0  0  0  0  0  0  0  0  0
    2.1901   -1.4690    0.0000 C   0  0  0  0  0  0  0  0  0  0  0  0
    6.3835   -1.4957    0.0000 C   0  0  0  0  0  0  0  0  0  0  0  0
    5.1548   -2.2168    0.0000 C   0  0  0  0  0  0  0  0  0  0  0  0
    3.4989   -0.8013    0.0000 C   0  0  0  0  0  0  0  0  0  0  0  0
    5.1281   -0.8280    0.0000 C   0  0  0  0  0  0  0  0  0  0  0  0
    4.7008   -1.5224    0.0000 C   0  0  0  0  0  0  0  0  0  0  0  0
    7.6120   -3.6591    0.0000 C   0  0  0  0  0  0  0  0  0  0  0  0
    6.3835   -4.3803    0.0000 C   0  0  0  0  0  0  0  0  0  0  0  0
    0.6677    0.0000    0.0000 C   0  0  0  0  0  0  0  0  0  0  0  0
    0.6677   -1.6292    0.0000 C   0  0  0  0  0  0  0  0  0  0  0  0
    4.7275   -0.1069    0.0000 C   0  0  0  0  0  0  0  0  0  0  0  0
    0.0000   -0.3739    0.0000 C   0  0  0  0  0  0  0  0  0  0  0  0
    8.0127   -4.3536    0.0000 C   0  0  0  0  0  0  0  0  0  0  0  0
    6.7841   -5.0747    0.0000 C   0  0  0  0  0  0  0  0  0  0  0  0
    7.6120   -5.0747    0.0000 C   0  0  0  0  0  0  0  0  0  0  0  0
  1  2  2  0  0  0  0
  1  3  2  0  0  0  0
  1  9  1  0  0  0  0
  1 10  1  0  0  0  0
  4 17  2  0  0  0  0
  5 11  1  0  0  0  0
  5 12  1  0  0  0  0
  6 15  2  0  0  0  0
  6 18  1  0  0  0  0
  7 17  1  0  0  0  0
  7 24  1  0  0  0  0
  8 23  1  0  0  0  0
  8 25  2  0  0  0  0
  9 15  1  0  0  0  0
  9 16  2  0  0  0  0
 10 20  2  0  0  0  0
 10 21  1  0  0  0  0
 11 14  2  0  0  0  0
 11 17  1  0  0  0  0
 12 13  1  0  0  0  0
 12 22  2  0  0  0  0
 13 14  1  0  0  0  0
 13 23  2  0  0  0  0
 16 19  1  0  0  0  0
 18 19  2  0  0  0  0
 18 24  1  0  0  0  0
 20 26  1  0  0  0  0
 21 27  2  0  0  0  0
 22 25  1  0  0  0  0
 26 28  2  0  0  0  0
 27 28  1  0  0  0  0
M  END
> <PUBCHEM_COMPOUND_ID_TYPE>
0

> <PUBCHEM_TOTAL_CHARGE>
0

> <PUBCHEM_SUBSTANCE_ID>
310931371

> <PUBCHEM_SUBSTANCE_VERSION>
1

> <PUBCHEM_EXT_DATASOURCE_NAME>
4488

> <PUBCHEM_EXT_DATASOURCE_REGID>
SCHEMBL16108694

> <PUBCHEM_SUBSTANCE_COMMENT>
InChI=1S/C20H16N4O3S/c25-20(19-10-14-11-21-9-8-18(14)24-19)23-12-15-6-7-17(13-22-15)28(26,27)16-4-2-1-3-5-16/h1-11,13,24H,12H2,(H,23,25)
InChIKey=KCKGJARIZXZUJU-UHFFFAOYSA-N

> <PUBCHEM_SUBSTANCE_SYNONYM>
SCHEMBL16108694

> <PUBCHEM_XREF_EXT_ID>
SCHEMBL16108694

> <PUBCHEM_EXT_DATASOURCE_URL>
https://www.surechembl.org/

> <PUBCHEM_EXT_SUBSTANCE_URL>
https://www.surechembl.org/chemical/SCHEMBL16108694

> <PUBCHEM_CID_ASSOCIATIONS>
117600168  1

> <PUBCHEM_COORDINATE_TYPE>
1
3

$$$$
