310932898
  -OEChem-07211613022D

 31 33  0     0  0  0  0  0  0999 V2000
    0.9892    0.0000    0.0000 F   0  0  0  0  0  0  0  0  0  0  0  0
    4.0591   -2.5924    0.0000 O   0  0  0  0  0  0  0  0  0  0  0  0
    8.5616   -2.6606    0.0000 O   0  0  0  0  0  0  0  0  0  0  0  0
    9.3121   -6.4127    0.0000 O   0  0  0  0  0  0  0  0  0  0  0  0
    4.9801   -1.4326    0.0000 N   0  0  0  0  0  0  0  0  0  0  0  0
    4.8778   -0.5798    0.0000 N   0  0  0  0  0  0  0  0  0  0  0  0
    6.4127   -1.4326    0.0000 N   0  0  0  0  0  0  0  0  0  0  0  0
    7.8453   -3.9226    0.0000 N   0  0  0  0  0  0  0  0  0  0  0  0
    0.4776   -2.9676    0.0000 N   0  0  0  0  0  0  0  0  0  0  0  0
    4.2297   -1.7737    0.0000 C   0  0  0  0  0  0  0  0  0  0  0  0
    3.6498   -1.1597    0.0000 C   0  0  0  0  0  0  0  0  0  0  0  0
    2.8311   -1.2621    0.0000 C   0  0  0  0  0  0  0  0  0  0  0  0
    5.6964   -1.8419    0.0000 C   0  0  0  0  0  0  0  0  0  0  0  0
    4.0591   -0.4435    0.0000 C   0  0  0  0  0  0  0  0  0  0  0  0
    2.3195   -0.5798    0.0000 C   0  0  0  0  0  0  0  0  0  0  0  0
    2.4901   -2.0125    0.0000 C   0  0  0  0  0  0  0  0  0  0  0  0
    5.6964   -2.6606    0.0000 C   0  0  0  0  0  0  0  0  0  0  0  0
    1.5009   -0.6822    0.0000 C   0  0  0  0  0  0  0  0  0  0  0  0
    1.1597   -1.4326    0.0000 C   0  0  0  0  0  0  0  0  0  0  0  0
    7.1291   -2.6606    0.0000 C   0  0  0  0  0  0  0  0  0  0  0  0
    1.6714   -2.1148    0.0000 C   0  0  0  0  0  0  0  0  0  0  0  0
    7.1291   -1.8419    0.0000 C   0  0  0  0  0  0  0  0  0  0  0  0
    6.4127   -3.0699    0.0000 C   0  0  0  0  0  0  0  0  0  0  0  0
    7.8453   -3.0699    0.0000 C   0  0  0  0  0  0  0  0  0  0  0  0
    0.3411   -1.5350    0.0000 C   0  0  0  0  0  0  0  0  0  0  0  0
    4.7072   -3.1040    0.0000 C   0  0  0  0  0  0  0  0  0  0  0  0
    0.0000   -2.2854    0.0000 C   0  0  0  0  0  0  0  0  0  0  0  0
    8.5616   -4.3320    0.0000 C   0  0  0  0  0  0  0  0  0  0  0  0
    8.5958   -5.1506    0.0000 C   0  0  0  0  0  0  0  0  0  0  0  0
    9.3121   -5.5600    0.0000 C   0  0  0  0  0  0  0  0  0  0  0  0
   10.0284   -6.8220    0.0000 C   0  0  0  0  0  0  0  0  0  0  0  0
  1 18  1  0  0  0  0
  2 10  1  0  0  0  0
  2 26  1  0  0  0  0
  3 24  2  0  0  0  0
  4 30  1  0  0  0  0
  4 31  1  0  0  0  0
  5  6  1  0  0  0  0
  5 10  1  0  0  0  0
  5 13  1  0  0  0  0
  6 14  2  0  0  0  0
  7 13  2  0  0  0  0
  7 22  1  0  0  0  0
  8 24  1  0  0  0  0
  8 28  1  0  0  0  0
  9 27  3  0  0  0  0
 10 11  2  0  0  0  0
 11 12  1  0  0  0  0
 11 14  1  0  0  0  0
 12 15  1  0  0  0  0
 12 16  2  0  0  0  0
 13 17  1  0  0  0  0
 15 18  2  0  0  0  0
 16 21  1  0  0  0  0
 17 23  2  0  0  0  0
 18 19  1  0  0  0  0
 19 21  2  0  0  0  0
 19 25  1  0  0  0  0
 20 22  2  0  0  0  0
 20 23  1  0  0  0  0
 20 24  1  0  0  0  0
 25 27  1  0  0  0  0
 28 29  1  0  0  0  0
 29 30  1  0  0  0  0
M  END
> <PUBCHEM_COMPOUND_ID_TYPE>
0

> <PUBCHEM_TOTAL_CHARGE>
0

> <PUBCHEM_SUBSTANCE_ID>
310932898

> <PUBCHEM_SUBSTANCE_VERSION>
1

> <PUBCHEM_EXT_DATASOURCE_NAME>
4488

> <PUBCHEM_EXT_DATASOURCE_REGID>
SCHEMBL16110291

> <PUBCHEM_SUBSTANCE_COMMENT>
InChI=1S/C22H22FN5O3/c1-30-11-3-10-25-21(29)17-6-7-20(26-13-17)28-22(31-2)18(14-27-28)16-5-4-15(8-9-24)19(23)12-16/h4-7,12-14H,3,8,10-11H2,1-2H3,(H,25,29)
InChIKey=XAVRDAGZSCSAMA-UHFFFAOYSA-N

> <PUBCHEM_SUBSTANCE_SYNONYM>
SCHEMBL16110291

> <PUBCHEM_XREF_EXT_ID>
SCHEMBL16110291

> <PUBCHEM_EXT_DATASOURCE_URL>
https://www.surechembl.org/

> <PUBCHEM_EXT_SUBSTANCE_URL>
https://www.surechembl.org/chemical/SCHEMBL16110291

> <PUBCHEM_CID_ASSOCIATIONS>
117601380  1

> <PUBCHEM_COORDINATE_TYPE>
1
3

$$$$
