310949748
  -OEChem-07211613022D

 25 26  0     0  0  0  0  0  0999 V2000
   -1.6364    0.3549    0.0000 O   0  0  0  0  0  0  0  0  0  0  0  0
    1.2289    2.5235    0.0000 O   0  0  0  0  0  0  0  0  0  0  0  0
   -2.4644    0.3549    0.0000 O   0  0  0  0  0  0  0  0  0  0  0  0
   -3.6867   -0.3680    0.0000 O   0  0  0  0  0  0  0  0  0  0  0  0
    3.6867    1.0778    0.0000 O   0  0  0  0  0  0  0  0  0  0  0  0
    3.6867   -0.3680    0.0000 O   0  0  0  0  0  0  0  0  0  0  0  0
   -0.4140   -0.3549    0.0000 N   0  0  0  0  0  0  0  0  0  0  0  0
    1.2158    1.0909    0.0000 C   0  0  0  0  0  0  0  0  0  0  0  0
    0.8083    0.3680    0.0000 C   0  0  0  0  0  0  0  0  0  0  0  0
   -1.6495   -1.0909    0.0000 C   0  0  0  0  0  0  0  0  0  0  0  0
   -2.4644   -1.0778    0.0000 C   0  0  0  0  0  0  0  0  0  0  0  0
   -1.2421   -0.3680    0.0000 C   0  0  0  0  0  0  0  0  0  0  0  0
    2.4513    0.3680    0.0000 C   0  0  0  0  0  0  0  0  0  0  0  0
    2.0438    1.0778    0.0000 C   0  0  0  0  0  0  0  0  0  0  0  0
    0.0066    0.3549    0.0000 C   0  0  0  0  0  0  0  0  0  0  0  0
    1.2289   -0.3549    0.0000 C   0  0  0  0  0  0  0  0  0  0  0  0
    0.7952    1.8006    0.0000 C   0  0  0  0  0  0  0  0  0  0  0  0
    2.0438   -0.3549    0.0000 C   0  0  0  0  0  0  0  0  0  0  0  0
   -1.2552   -1.8270    0.0000 C   0  0  0  0  0  0  0  0  0  0  0  0
   -2.8850   -0.3680    0.0000 C   0  0  0  0  0  0  0  0  0  0  0  0
   -2.8587   -1.8138    0.0000 C   0  0  0  0  0  0  0  0  0  0  0  0
    3.2530    0.3549    0.0000 C   0  0  0  0  0  0  0  0  0  0  0  0
   -1.6495   -2.5235    0.0000 C   0  0  0  0  0  0  0  0  0  0  0  0
   -2.4513   -2.5235    0.0000 C   0  0  0  0  0  0  0  0  0  0  0  0
   -0.0197    1.8138    0.0000 C   0  0  0  0  0  0  0  0  0  0  0  0
  1 12  2  0  0  0  0
  2 17  2  0  0  0  0
  3 20  2  0  0  0  0
  4 20  1  0  0  0  0
  5 22  2  0  0  0  0
  6 22  1  0  0  0  0
  7 12  1  0  0  0  0
  7 15  1  0  0  0  0
  8  9  2  0  0  0  0
  8 14  1  0  0  0  0
  8 17  1  0  0  0  0
  9 15  1  0  0  0  0
  9 16  1  0  0  0  0
 10 11  2  0  0  0  0
 10 12  1  0  0  0  0
 10 19  1  0  0  0  0
 11 20  1  0  0  0  0
 11 21  1  0  0  0  0
 13 14  2  0  0  0  0
 13 18  1  0  0  0  0
 13 22  1  0  0  0  0
 16 18  2  0  0  0  0
 17 25  1  0  0  0  0
 19 23  2  0  0  0  0
 21 24  2  0  0  0  0
 23 24  1  0  0  0  0
M  END
> <PUBCHEM_COMPOUND_ID_TYPE>
0

> <PUBCHEM_TOTAL_CHARGE>
0

> <PUBCHEM_SUBSTANCE_ID>
310949748

> <PUBCHEM_SUBSTANCE_VERSION>
1

> <PUBCHEM_EXT_DATASOURCE_NAME>
4488

> <PUBCHEM_EXT_DATASOURCE_REGID>
SCHEMBL16127946

> <PUBCHEM_SUBSTANCE_COMMENT>
InChI=1S/C18H15NO6/c1-10(20)15-8-11(17(22)23)6-7-12(15)9-19-16(21)13-4-2-3-5-14(13)18(24)25/h2-8H,9H2,1H3,(H,19,21)(H,22,23)(H,24,25)
InChIKey=UHXQYEGRDZDWMD-UHFFFAOYSA-N

> <PUBCHEM_SUBSTANCE_SYNONYM>
SCHEMBL16127946

> <PUBCHEM_XREF_EXT_ID>
SCHEMBL16127946

> <PUBCHEM_EXT_DATASOURCE_URL>
https://www.surechembl.org/

> <PUBCHEM_EXT_SUBSTANCE_URL>
https://www.surechembl.org/chemical/SCHEMBL16127946

> <PUBCHEM_CID_ASSOCIATIONS>
117615079  1

> <PUBCHEM_COORDINATE_TYPE>
1
3

$$$$
