310942767
  -OEChem-07211613022D

 54 58  0     1  0  0  0  0  0999 V2000
   -4.7719   -0.5597    0.0000 F   0  0  0  0  0  0  0  0  0  0  0  0
    1.7477   -1.7575    0.0000 F   0  0  0  0  0  0  0  0  0  0  0  0
   -4.7719   -3.8981    0.0000 F   0  0  0  0  0  0  0  0  0  0  0  0
   -2.1405    3.3089    0.0000 F   0  0  0  0  0  0  0  0  0  0  0  0
   -2.0619   -2.4252    0.0000 O   0  0  0  0  0  0  0  0  0  0  0  0
   -1.2371   -3.8587    0.0000 O   0  0  0  0  0  0  0  0  0  0  0  0
    1.2568    0.4615    0.0000 O   0  0  0  0  0  0  0  0  0  0  0  0
   -4.6344    1.8557    0.0000 O   0  0  0  0  0  0  0  0  0  0  0  0
    1.2568    1.8950    0.0000 O   0  0  0  0  0  0  0  0  0  0  0  0
    5.4788    1.9539    0.0000 O   0  0  0  0  0  0  0  0  0  0  0  0
    3.1224    3.6624    0.0000 O   0  0  0  0  0  0  0  0  0  0  0  0
   -2.5528   -0.3044    0.0000 N   0  0  0  0  0  0  0  0  0  0  0  0
   -0.8248   -1.6986    0.0000 N   0  0  0  0  0  0  0  0  0  0  0  0
   -2.5528   -1.6594    0.0000 N   0  0  0  0  0  0  0  0  0  0  0  0
    0.8444   -3.7017    0.0000 N   0  0  0  0  0  0  0  0  0  0  0  0
    4.1631    2.6216    0.0000 N   0  0  0  0  0  0  0  0  0  0  0  0
    2.5136    1.1880    0.0000 N   0  0  0  0  0  0  0  0  0  0  0  0
   -1.2371   -0.9917    0.0000 C   0  0  3  0  0  0  0  0  0  0  0  0
   -2.0619   -0.9524    0.0000 C   0  0  0  0  0  0  0  0  0  0  0  0
   -0.8051   -0.2062    0.0000 C   0  0  0  0  0  0  0  0  0  0  0  0
   -3.3384   -1.3845    0.0000 C   0  0  0  0  0  0  0  0  0  0  0  0
   -3.3187   -0.5597    0.0000 C   0  0  0  0  0  0  0  0  0  0  0  0
   -4.0453   -1.8165    0.0000 C   0  0  0  0  0  0  0  0  0  0  0  0
   -1.2175   -2.4252    0.0000 C   0  0  0  0  0  0  0  0  0  0  0  0
   -2.1405    0.4222    0.0000 C   0  0  0  0  0  0  0  0  0  0  0  0
    0.0197   -1.6986    0.0000 C   0  0  0  0  0  0  0  0  0  0  0  0
    0.0197   -0.2651    0.0000 C   0  0  0  0  0  0  0  0  0  0  0  0
   -4.7719   -1.3845    0.0000 C   0  0  0  0  0  0  0  0  0  0  0  0
    0.4320   -2.4056    0.0000 C   0  0  3  0  0  0  0  0  0  0  0  0
   -1.2371    0.4811    0.0000 C   0  0  0  0  0  0  0  0  0  0  0  0
   -0.4124    0.4811    0.0000 C   0  0  0  0  0  0  0  0  0  0  0  0
   -2.5528    1.1292    0.0000 C   0  0  0  0  0  0  0  0  0  0  0  0
   -4.0649   -2.6413    0.0000 C   0  0  0  0  0  0  0  0  0  0  0  0
   -0.8248   -3.1322    0.0000 C   0  0  3  0  0  0  0  0  0  0  0  0
    1.2568   -2.4252    0.0000 C   0  0  3  0  0  0  0  0  0  0  0  0
   -4.7719   -3.0340    0.0000 C   0  0  0  0  0  0  0  0  0  0  0  0
   -5.4788   -1.7968    0.0000 C   0  0  0  0  0  0  0  0  0  0  0  0
    0.4320    0.4615    0.0000 C   0  0  0  0  0  0  0  0  0  0  0  0
    0.1767   -3.2107    0.0000 C   0  0  0  0  0  0  0  0  0  0  0  0
   -2.1405    1.8754    0.0000 C   0  0  0  0  0  0  0  0  0  0  0  0
   -3.3776    1.1488    0.0000 C   0  0  0  0  0  0  0  0  0  0  0  0
   -5.4788   -2.6413    0.0000 C   0  0  0  0  0  0  0  0  0  0  0  0
    1.5121   -3.1911    0.0000 C   0  0  0  0  0  0  0  0  0  0  0  0
   -2.5725    2.5824    0.0000 C   0  0  0  0  0  0  0  0  0  0  0  0
   -3.7901    1.8754    0.0000 C   0  0  0  0  0  0  0  0  0  0  0  0
   -0.2356   -3.7213    0.0000 C   0  0  0  0  0  0  0  0  0  0  0  0
   -3.3776    2.5627    0.0000 C   0  0  0  0  0  0  0  0  0  0  0  0
    1.6888    1.1880    0.0000 C   0  0  0  0  0  0  0  0  0  0  0  0
    4.9683    2.6413    0.0000 C   0  0  0  0  0  0  0  0  0  0  0  0
    3.9275    3.4071    0.0000 C   0  0  0  0  0  0  0  0  0  0  0  0
    3.7508    1.8950    0.0000 C   0  0  0  0  0  0  0  0  0  0  0  0
    2.9260    1.8950    0.0000 C   0  0  0  0  0  0  0  0  0  0  0  0
    5.2432    3.4071    0.0000 C   0  0  0  0  0  0  0  0  0  0  0  0
    4.5559    3.8981    0.0000 C   0  0  0  0  0  0  0  0  0  0  0  0
  1 28  1  0  0  0  0
 35  2  1  1  0  0  0
  3 36  1  0  0  0  0
  4 44  1  0  0  0  0
  5 24  2  0  0  0  0
 34  6  1  6  0  0  0
  7 38  1  0  0  0  0
  7 48  1  0  0  0  0
  8 45  1  0  0  0  0
  9 48  2  0  0  0  0
 10 49  2  0  0  0  0
 11 50  2  0  0  0  0
 12 19  1  0  0  0  0
 12 22  1  0  0  0  0
 12 25  1  0  0  0  0
 18 13  1  1  0  0  0
 13 24  1  0  0  0  0
 13 26  1  0  0  0  0
 14 19  2  0  0  0  0
 14 21  1  0  0  0  0
 15 39  1  0  0  0  0
 15 43  1  0  0  0  0
 16 49  1  0  0  0  0
 16 50  1  0  0  0  0
 16 51  1  0  0  0  0
 17 48  1  0  0  0  0
 17 52  1  0  0  0  0
 18 19  1  0  0  0  0
 18 20  1  0  0  0  0
 20 27  1  0  0  0  0
 20 30  1  0  0  0  0
 20 31  1  0  0  0  0
 21 22  2  0  0  0  0
 21 23  1  0  0  0  0
 23 28  2  0  0  0  0
 23 33  1  0  0  0  0
 24 34  1  0  0  0  0
 25 32  1  0  0  0  0
 29 26  1  1  0  0  0
 27 38  1  0  0  0  0
 28 37  1  0  0  0  0
 29 35  1  0  0  0  0
 29 39  1  0  0  0  0
 32 40  2  0  0  0  0
 32 41  1  0  0  0  0
 33 36  2  0  0  0  0
 34 46  1  0  0  0  0
 35 43  1  0  0  0  0
 36 42  1  0  0  0  0
 37 42  2  0  0  0  0
 40 44  1  0  0  0  0
 41 45  2  0  0  0  0
 44 47  2  0  0  0  0
 45 47  1  0  0  0  0
 49 53  1  0  0  0  0
 50 54  1  0  0  0  0
 51 52  1  0  0  0  0
 53 54  2  0  0  0  0
M  END
> <PUBCHEM_COMPOUND_ID_TYPE>
0

> <PUBCHEM_TOTAL_CHARGE>
0

> <PUBCHEM_SUBSTANCE_ID>
310942767

> <PUBCHEM_SUBSTANCE_VERSION>
1

> <PUBCHEM_EXT_DATASOURCE_NAME>
4488

> <PUBCHEM_EXT_DATASOURCE_REGID>
SCHEMBL16120820

> <PUBCHEM_SUBSTANCE_COMMENT>
InChI=1S/C37H42F4N6O7/c1-21(48)35(52)47(19-23-16-42-17-29(23)41)33(37(2,3)8-11-54-36(53)43-9-10-46-31(50)6-7-32(46)51)34-44-30(27-15-24(38)4-5-28(27)40)20-45(34)18-22-12-25(39)14-26(49)13-22/h4-7,12-15,20-21,23,29,33,42,48-49H,8-11,16-19H2,1-3H3,(H,43,53)/t21-,23-,29-,33-/m0/s1
InChIKey=ZCIDQTQVFKNKCL-YSKVABHZSA-N

> <PUBCHEM_SUBSTANCE_SYNONYM>
SCHEMBL16120820

> <PUBCHEM_XREF_EXT_ID>
SCHEMBL16120820

> <PUBCHEM_EXT_DATASOURCE_URL>
https://www.surechembl.org/

> <PUBCHEM_EXT_SUBSTANCE_URL>
https://www.surechembl.org/chemical/SCHEMBL16120820

> <PUBCHEM_CID_ASSOCIATIONS>
117609278  1

> <PUBCHEM_COORDINATE_TYPE>
1
3

> <PUBCHEM_BONDANNOTATIONS>
18  13  5
35  2  5
29  26  5
34  6  6

$$$$
