310943056
  -OEChem-07211613022D

 25 28  0     1  0  0  0  0  0999 V2000
   -1.4766   -1.4674    0.0000 O   0  0  0  0  0  0  0  0  0  0  0  0
   -0.0182    3.0899    0.0000 O   0  0  0  0  0  0  0  0  0  0  0  0
    0.0182    0.8841    0.0000 N   0  0  0  0  0  0  0  0  0  0  0  0
    0.5104    0.1914    0.0000 N   0  0  0  0  0  0  0  0  0  0  0  0
    0.2734   -1.2852    0.0000 N   0  0  0  0  0  0  0  0  0  0  0  0
   -2.1875   -0.2279    0.0000 N   0  0  0  0  0  0  0  0  0  0  0  0
    2.1875    0.6107    0.0000 N   0  0  0  0  0  0  0  0  0  0  0  0
   -0.7657   -0.2096    0.0000 C   0  0  0  0  0  0  0  0  0  0  0  0
   -0.7474    0.6289    0.0000 C   0  0  0  0  0  0  0  0  0  0  0  0
    0.0182   -0.4831    0.0000 C   0  0  0  0  0  0  0  0  0  0  0  0
    0.2916    1.7045    0.0000 C   0  0  3  0  0  0  0  0  0  0  0  0
   -1.4766   -0.6107    0.0000 C   0  0  0  0  0  0  0  0  0  0  0  0
   -1.4948    1.0300    0.0000 C   0  0  0  0  0  0  0  0  0  0  0  0
    1.0938    1.8503    0.0000 C   0  0  3  0  0  0  0  0  0  0  0  0
   -0.2552    2.2877    0.0000 C   0  0  0  0  0  0  0  0  0  0  0  0
   -2.1693    0.6289    0.0000 C   0  0  0  0  0  0  0  0  0  0  0  0
   -0.3099   -1.8685    0.0000 C   0  0  0  0  0  0  0  0  0  0  0  0
    1.3489    2.6523    0.0000 C   0  0  0  0  0  0  0  0  0  0  0  0
    1.6407    1.2123    0.0000 C   0  0  0  0  0  0  0  0  0  0  0  0
    0.8021    3.2539    0.0000 C   0  0  0  0  0  0  0  0  0  0  0  0
   -1.0938   -1.6497    0.0000 C   0  0  0  0  0  0  0  0  0  0  0  0
   -0.0911   -2.6706    0.0000 C   0  0  0  0  0  0  0  0  0  0  0  0
   -1.6771   -2.2331    0.0000 C   0  0  0  0  0  0  0  0  0  0  0  0
   -0.6745   -3.2539    0.0000 C   0  0  0  0  0  0  0  0  0  0  0  0
   -1.4584   -3.0534    0.0000 C   0  0  0  0  0  0  0  0  0  0  0  0
  1 12  2  0  0  0  0
  2 15  1  0  0  0  0
  2 20  1  0  0  0  0
  3  4  1  0  0  0  0
  3  9  1  0  0  0  0
 11  3  1  1  0  0  0
  4 10  2  0  0  0  0
  5 10  1  0  0  0  0
  5 17  1  0  0  0  0
  6 12  1  0  0  0  0
  6 16  1  0  0  0  0
  7 19  3  0  0  0  0
  8  9  2  0  0  0  0
  8 10  1  0  0  0  0
  8 12  1  0  0  0  0
  9 13  1  0  0  0  0
 11 14  1  0  0  0  0
 11 15  1  0  0  0  0
 13 16  2  0  0  0  0
 14 18  1  0  0  0  0
 14 19  1  6  0  0  0
 17 21  2  0  0  0  0
 17 22  1  0  0  0  0
 18 20  1  0  0  0  0
 21 23  1  0  0  0  0
 22 24  2  0  0  0  0
 23 25  2  0  0  0  0
 24 25  1  0  0  0  0
M  END
> <PUBCHEM_COMPOUND_ID_TYPE>
0

> <PUBCHEM_TOTAL_CHARGE>
0

> <PUBCHEM_SUBSTANCE_ID>
310943056

> <PUBCHEM_SUBSTANCE_VERSION>
1

> <PUBCHEM_EXT_DATASOURCE_NAME>
4488

> <PUBCHEM_EXT_DATASOURCE_REGID>
SCHEMBL16121115

> <PUBCHEM_SUBSTANCE_COMMENT>
InChI=1S/C18H17N5O2/c19-10-12-7-9-25-11-15(12)23-14-6-8-20-18(24)16(14)17(22-23)21-13-4-2-1-3-5-13/h1-6,8,12,15H,7,9,11H2,(H,20,24)(H,21,22)/t12-,15+/m1/s1
InChIKey=NWQCVVREYYCLTJ-DOMZBBRYSA-N

> <PUBCHEM_SUBSTANCE_SYNONYM>
SCHEMBL16121115

> <PUBCHEM_XREF_EXT_ID>
SCHEMBL16121115

> <PUBCHEM_EXT_DATASOURCE_URL>
https://www.surechembl.org/

> <PUBCHEM_EXT_SUBSTANCE_URL>
https://www.surechembl.org/chemical/SCHEMBL16121115

> <PUBCHEM_CID_ASSOCIATIONS>
117609495  1

> <PUBCHEM_COORDINATE_TYPE>
1
3

> <PUBCHEM_BONDANNOTATIONS>
14  19  6
11  3  5

$$$$
