310942516
  -OEChem-07211613022D

 12 13  0     0  0  0  0  0  0999 V2000
   -1.0132   -1.4082    0.0000 O   0  0  0  0  0  0  0  0  0  0  0  0
   -0.3263    1.4082    0.0000 O   0  0  0  0  0  0  0  0  0  0  0  0
   -0.4465   -0.0515    0.0000 N   0  0  0  0  0  0  0  0  0  0  0  0
    1.7689    1.1334    0.0000 N   0  0  0  0  0  0  0  0  0  0  0  0
   -1.0819   -0.5839    0.0000 C   0  0  0  0  0  0  0  0  0  0  0  0
   -0.7728    0.6869    0.0000 C   0  0  0  0  0  0  0  0  0  0  0  0
    0.3606   -0.2576    0.0000 C   0  0  0  0  0  0  0  0  0  0  0  0
    0.9274    0.3091    0.0000 C   0  0  0  0  0  0  0  0  0  0  0  0
   -1.7689   -0.1717    0.0000 C   0  0  0  0  0  0  0  0  0  0  0  0
   -1.5799    0.6354    0.0000 C   0  0  0  0  0  0  0  0  0  0  0  0
    0.9617    1.1334    0.0000 C   0  0  0  0  0  0  0  0  0  0  0  0
    1.7689    0.3091    0.0000 C   0  0  0  0  0  0  0  0  0  0  0  0
  1  5  2  0  0  0  0
  2  6  2  0  0  0  0
  3  5  1  0  0  0  0
  3  6  1  0  0  0  0
  3  7  1  0  0  0  0
  4 11  1  0  0  0  0
  4 12  1  0  0  0  0
  5  9  1  0  0  0  0
  6 10  1  0  0  0  0
  7  8  1  0  0  0  0
  8 11  1  0  0  0  0
  8 12  1  0  0  0  0
  9 10  2  0  0  0  0
M  END
> <PUBCHEM_COMPOUND_ID_TYPE>
0

> <PUBCHEM_TOTAL_CHARGE>
0

> <PUBCHEM_SUBSTANCE_ID>
310942516

> <PUBCHEM_SUBSTANCE_VERSION>
1

> <PUBCHEM_EXT_DATASOURCE_NAME>
4488

> <PUBCHEM_EXT_DATASOURCE_REGID>
SCHEMBL16120552

> <PUBCHEM_SUBSTANCE_COMMENT>
InChI=1S/C8H10N2O2/c11-7-1-2-8(12)10(7)5-6-3-9-4-6/h1-2,6,9H,3-5H2
InChIKey=LRNUNLUWTYKRTD-UHFFFAOYSA-N

> <PUBCHEM_SUBSTANCE_SYNONYM>
SCHEMBL16120552

> <PUBCHEM_XREF_EXT_ID>
SCHEMBL16120552

> <PUBCHEM_EXT_DATASOURCE_URL>
https://www.surechembl.org/

> <PUBCHEM_EXT_SUBSTANCE_URL>
https://www.surechembl.org/chemical/SCHEMBL16120552

> <PUBCHEM_CID_ASSOCIATIONS>
90457006  1

> <PUBCHEM_COORDINATE_TYPE>
1
3

$$$$
