310932853
  -OEChem-07211613022D

 29 31  0     0  0  0  0  0  0999 V2000
    4.0738   -2.1441    0.0000 O   0  0  0  0  0  0  0  0  0  0  0  0
    8.5765   -2.2156    0.0000 O   0  0  0  0  0  0  0  0  0  0  0  0
   10.0059   -6.3609    0.0000 O   0  0  0  0  0  0  0  0  0  0  0  0
    4.9672   -0.9649    0.0000 N   0  0  0  0  0  0  0  0  0  0  0  0
    4.8957   -0.1429    0.0000 N   0  0  0  0  0  0  0  0  0  0  0  0
    6.3966   -0.9649    0.0000 N   0  0  0  0  0  0  0  0  0  0  0  0
    7.8618   -3.4663    0.0000 N   0  0  0  0  0  0  0  0  0  0  0  0
    0.0000   -1.8225    0.0000 N   0  0  0  0  0  0  0  0  0  0  0  0
    3.6450   -0.7147    0.0000 C   0  0  0  0  0  0  0  0  0  0  0  0
    4.2167   -1.3222    0.0000 C   0  0  0  0  0  0  0  0  0  0  0  0
    5.6819   -1.3937    0.0000 C   0  0  0  0  0  0  0  0  0  0  0  0
    2.8231   -0.7862    0.0000 C   0  0  0  0  0  0  0  0  0  0  0  0
    4.0738    0.0000    0.0000 C   0  0  0  0  0  0  0  0  0  0  0  0
    5.6819   -2.2156    0.0000 C   0  0  0  0  0  0  0  0  0  0  0  0
    7.1113   -2.2156    0.0000 C   0  0  0  0  0  0  0  0  0  0  0  0
    2.5015   -1.5724    0.0000 C   0  0  0  0  0  0  0  0  0  0  0  0
    2.3228   -0.1429    0.0000 C   0  0  0  0  0  0  0  0  0  0  0  0
    7.1113   -1.3937    0.0000 C   0  0  0  0  0  0  0  0  0  0  0  0
    6.3966   -2.6087    0.0000 C   0  0  0  0  0  0  0  0  0  0  0  0
    7.8618   -2.6087    0.0000 C   0  0  0  0  0  0  0  0  0  0  0  0
    1.1793   -1.0006    0.0000 C   0  0  0  0  0  0  0  0  0  0  0  0
    1.6796   -1.6438    0.0000 C   0  0  0  0  0  0  0  0  0  0  0  0
    1.5009   -0.2502    0.0000 C   0  0  0  0  0  0  0  0  0  0  0  0
    0.3574   -1.0721    0.0000 C   0  0  0  0  0  0  0  0  0  0  0  0
    8.5765   -3.8594    0.0000 C   0  0  0  0  0  0  0  0  0  0  0  0
    8.5765   -4.7170    0.0000 C   0  0  0  0  0  0  0  0  0  0  0  0
    9.2912   -5.1101    0.0000 C   0  0  0  0  0  0  0  0  0  0  0  0
    9.2912   -5.9320    0.0000 C   0  0  0  0  0  0  0  0  0  0  0  0
   10.7206   -5.9320    0.0000 C   0  0  0  0  0  0  0  0  0  0  0  0
  1 10  1  0  0  0  0
  2 20  2  0  0  0  0
  3 28  1  0  0  0  0
  3 29  1  0  0  0  0
  4  5  1  0  0  0  0
  4 10  1  0  0  0  0
  4 11  1  0  0  0  0
  5 13  2  0  0  0  0
  6 11  2  0  0  0  0
  6 18  1  0  0  0  0
  7 20  1  0  0  0  0
  7 25  1  0  0  0  0
  8 24  3  0  0  0  0
  9 10  2  0  0  0  0
  9 12  1  0  0  0  0
  9 13  1  0  0  0  0
 11 14  1  0  0  0  0
 12 16  2  0  0  0  0
 12 17  1  0  0  0  0
 14 19  2  0  0  0  0
 15 18  2  0  0  0  0
 15 19  1  0  0  0  0
 15 20  1  0  0  0  0
 16 22  1  0  0  0  0
 17 23  2  0  0  0  0
 21 22  2  0  0  0  0
 21 23  1  0  0  0  0
 21 24  1  0  0  0  0
 25 26  1  0  0  0  0
 26 27  1  0  0  0  0
 27 28  1  0  0  0  0
M  END
> <PUBCHEM_COMPOUND_ID_TYPE>
0

> <PUBCHEM_TOTAL_CHARGE>
0

> <PUBCHEM_SUBSTANCE_ID>
310932853

> <PUBCHEM_SUBSTANCE_VERSION>
1

> <PUBCHEM_EXT_DATASOURCE_NAME>
4488

> <PUBCHEM_EXT_DATASOURCE_REGID>
SCHEMBL16110245

> <PUBCHEM_SUBSTANCE_COMMENT>
InChI=1S/C21H21N5O3/c1-29-11-3-2-10-23-20(27)17-8-9-19(24-13-17)26-21(28)18(14-25-26)16-6-4-15(12-22)5-7-16/h4-9,13-14,28H,2-3,10-11H2,1H3,(H,23,27)
InChIKey=JAPQIVWTJHWXNN-UHFFFAOYSA-N

> <PUBCHEM_SUBSTANCE_SYNONYM>
SCHEMBL16110245

> <PUBCHEM_XREF_EXT_ID>
SCHEMBL16110245

> <PUBCHEM_EXT_DATASOURCE_URL>
https://www.surechembl.org/

> <PUBCHEM_EXT_SUBSTANCE_URL>
https://www.surechembl.org/chemical/SCHEMBL16110245

> <PUBCHEM_CID_ASSOCIATIONS>
117601338  1

> <PUBCHEM_COORDINATE_TYPE>
1
3

$$$$
