310946312
  -OEChem-07211613022D

 33 34  0     1  0  0  0  0  0999 V2000
   -1.1499   -1.9796    0.0000 O   0  0  0  0  0  0  0  0  0  0  0  0
   -1.7756   -0.9747    0.0000 O   0  0  0  0  0  0  0  0  0  0  0  0
   -1.6579   -2.8150    0.0000 O   0  0  0  0  0  0  0  0  0  0  0  0
    0.3076    1.5064    0.0000 O   0  0  0  0  0  0  0  0  0  0  0  0
   -0.3829    2.6454    0.0000 O   0  0  0  0  0  0  0  0  0  0  0  0
   -3.2158   -0.1283    0.0000 N   0  0  0  0  0  0  0  0  0  0  0  0
   -0.9040    0.2886    0.0000 N   0  0  0  0  0  0  0  0  0  0  0  0
   -0.9040    2.8150    0.0000 N   0  0  0  0  0  0  0  0  0  0  0  0
   -2.5084    0.2886    0.0000 C   0  0  3  0  0  0  0  0  0  0  0  0
   -1.7631   -0.1157    0.0000 C   0  0  0  0  0  0  0  0  0  0  0  0
   -1.6579   -2.2732    0.0000 C   0  0  0  0  0  0  0  0  0  0  0  0
   -1.1386   -1.4153    0.0000 C   0  0  0  0  0  0  0  0  0  0  0  0
   -2.4831    1.1349    0.0000 C   0  0  0  0  0  0  0  0  0  0  0  0
    1.2997   -1.4744    0.0000 C   0  0  0  0  0  0  0  0  0  0  0  0
    0.7279   -1.7960    0.0000 C   0  0  0  0  0  0  0  0  0  0  0  0
   -1.7631    1.5518    0.0000 C   0  0  0  0  0  0  0  0  0  0  0  0
    1.7739    1.4822    0.0000 C   0  0  0  0  0  0  0  0  0  0  0  0
    1.2997   -0.8907    0.0000 C   0  0  0  0  0  0  0  0  0  0  0  0
    1.7999   -1.7602    0.0000 C   0  0  0  0  0  0  0  0  0  0  0  0
   -1.7504    2.3982    0.0000 C   0  0  0  0  0  0  0  0  0  0  0  0
   -0.3709    1.9183    0.0000 C   0  0  0  0  0  0  0  0  0  0  0  0
   -0.6306   -1.3927    0.0000 C   0  0  0  0  0  0  0  0  0  0  0  0
   -1.6579   -1.4153    0.0000 C   0  0  0  0  0  0  0  0  0  0  0  0
   -1.1499   -0.8620    0.0000 C   0  0  0  0  0  0  0  0  0  0  0  0
    1.0711    1.9426    0.0000 C   0  0  0  0  0  0  0  0  0  0  0  0
    1.7999   -0.5929    0.0000 C   0  0  0  0  0  0  0  0  0  0  0  0
    2.3002   -1.4625    0.0000 C   0  0  0  0  0  0  0  0  0  0  0  0
    1.7739    0.6461    0.0000 C   0  0  0  0  0  0  0  0  0  0  0  0
    2.4887    1.9063    0.0000 C   0  0  0  0  0  0  0  0  0  0  0  0
    2.3002   -0.8788    0.0000 C   0  0  0  0  0  0  0  0  0  0  0  0
    2.4887    0.2341    0.0000 C   0  0  0  0  0  0  0  0  0  0  0  0
    3.2158    1.4943    0.0000 C   0  0  0  0  0  0  0  0  0  0  0  0
    3.2158    0.6582    0.0000 C   0  0  0  0  0  0  0  0  0  0  0  0
  1 11  1  0  0  0  0
  1 12  1  0  0  0  0
  2 10  2  0  0  0  0
  3 11  2  0  0  0  0
  4 21  1  0  0  0  0
  4 25  1  0  0  0  0
  5 21  2  0  0  0  0
  9  6  1  1  0  0  0
  6 11  1  0  0  0  0
  7 10  1  0  0  0  0
  7 15  1  0  0  0  0
  8 20  1  0  0  0  0
  8 21  1  0  0  0  0
  9 10  1  0  0  0  0
  9 13  1  0  0  0  0
 12 22  1  0  0  0  0
 12 23  1  0  0  0  0
 12 24  1  0  0  0  0
 13 16  1  0  0  0  0
 14 15  1  0  0  0  0
 14 18  2  0  0  0  0
 14 19  1  0  0  0  0
 16 20  1  0  0  0  0
 17 25  1  0  0  0  0
 17 28  2  0  0  0  0
 17 29  1  0  0  0  0
 18 26  1  0  0  0  0
 19 27  2  0  0  0  0
 26 30  2  0  0  0  0
 27 30  1  0  0  0  0
 28 31  1  0  0  0  0
 29 32  2  0  0  0  0
 31 33  2  0  0  0  0
 32 33  1  0  0  0  0
M  END
> <PUBCHEM_COMPOUND_ID_TYPE>
0

> <PUBCHEM_TOTAL_CHARGE>
0

> <PUBCHEM_SUBSTANCE_ID>
310946312

> <PUBCHEM_SUBSTANCE_VERSION>
1

> <PUBCHEM_EXT_DATASOURCE_NAME>
4488

> <PUBCHEM_EXT_DATASOURCE_REGID>
SCHEMBL16124431

> <PUBCHEM_SUBSTANCE_COMMENT>
InChI=1S/C25H33N3O5/c1-25(2,3)33-24(31)28-21(22(29)27-17-19-11-6-4-7-12-19)15-10-16-26-23(30)32-18-20-13-8-5-9-14-20/h4-9,11-14,21H,10,15-18H2,1-3H3,(H,26,30)(H,27,29)(H,28,31)/t21-/m0/s1
InChIKey=GPTRGBWNEZLFOF-NRFANRHFSA-N

> <PUBCHEM_SUBSTANCE_SYNONYM>
SCHEMBL16124431

> <PUBCHEM_XREF_EXT_ID>
SCHEMBL16124431

> <PUBCHEM_EXT_DATASOURCE_URL>
https://www.surechembl.org/

> <PUBCHEM_EXT_SUBSTANCE_URL>
https://www.surechembl.org/chemical/SCHEMBL16124431

> <PUBCHEM_CID_ASSOCIATIONS>
117612249  1

> <PUBCHEM_COORDINATE_TYPE>
1
3

> <PUBCHEM_BONDANNOTATIONS>
9  6  5

$$$$
