310949418
  -OEChem-07211613022D

 32 36  0     0  0  0  0  0  0999 V2000
    2.3920    2.9900    0.0000 S   0  0  0  0  0  0  0  0  0  0  0  0
    2.2799    3.8122    0.0000 O   0  0  0  0  0  0  0  0  0  0  0  0
    3.1208    3.3824    0.0000 O   0  0  0  0  0  0  0  0  0  0  0  0
    0.3363   -3.4572    0.0000 O   0  0  0  0  0  0  0  0  0  0  0  0
    1.9622   -3.8122    0.0000 O   0  0  0  0  0  0  0  0  0  0  0  0
    1.2334    0.7849    0.0000 N   0  0  0  0  0  0  0  0  0  0  0  0
    1.7006   -3.0087    0.0000 N   0  0  0  0  0  0  0  0  0  0  0  0
    1.2334    2.1491    0.0000 C   0  0  0  0  0  0  0  0  0  0  0  0
    0.4485    1.8875    0.0000 C   0  0  0  0  0  0  0  0  0  0  0  0
    1.7193    1.4763    0.0000 C   0  0  0  0  0  0  0  0  0  0  0  0
    0.4298    1.0652    0.0000 C   0  0  0  0  0  0  0  0  0  0  0  0
    1.5884    2.9152    0.0000 C   0  0  0  0  0  0  0  0  0  0  0  0
   -0.2803    2.2986    0.0000 C   0  0  0  0  0  0  0  0  0  0  0  0
    2.5415    1.5698    0.0000 C   0  0  0  0  0  0  0  0  0  0  0  0
   -0.2616    0.6540    0.0000 C   0  0  0  0  0  0  0  0  0  0  0  0
    1.4950    0.0187    0.0000 C   0  0  0  0  0  0  0  0  0  0  0  0
   -0.9717    1.9061    0.0000 C   0  0  0  0  0  0  0  0  0  0  0  0
    2.8779    2.3359    0.0000 C   0  0  0  0  0  0  0  0  0  0  0  0
   -0.9717    1.0465    0.0000 C   0  0  0  0  0  0  0  0  0  0  0  0
    0.9344   -0.6167    0.0000 C   0  0  0  0  0  0  0  0  0  0  0  0
   -1.7006    2.3173    0.0000 C   0  0  0  0  0  0  0  0  0  0  0  0
    1.1773   -1.4203    0.0000 C   0  0  0  0  0  0  0  0  0  0  0  0
    0.1308   -0.4485    0.0000 C   0  0  0  0  0  0  0  0  0  0  0  0
    0.6354   -2.0370    0.0000 C   0  0  0  0  0  0  0  0  0  0  0  0
   -1.7193    3.1396    0.0000 C   0  0  0  0  0  0  0  0  0  0  0  0
   -2.4107    1.9061    0.0000 C   0  0  0  0  0  0  0  0  0  0  0  0
   -0.3924   -1.0465    0.0000 C   0  0  0  0  0  0  0  0  0  0  0  0
   -0.1682   -1.8501    0.0000 C   0  0  0  0  0  0  0  0  0  0  0  0
    0.8970   -2.7845    0.0000 C   0  0  0  0  0  0  0  0  0  0  0  0
   -2.4294    3.5506    0.0000 C   0  0  0  0  0  0  0  0  0  0  0  0
   -3.1208    2.2986    0.0000 C   0  0  0  0  0  0  0  0  0  0  0  0
   -3.1022    3.1582    0.0000 C   0  0  0  0  0  0  0  0  0  0  0  0
  1  2  2  0  0  0  0
  1  3  2  0  0  0  0
  1 12  1  0  0  0  0
  1 18  1  0  0  0  0
  4 29  2  0  0  0  0
  5  7  1  0  0  0  0
  6 10  1  0  0  0  0
  6 11  1  0  0  0  0
  6 16  1  0  0  0  0
  7 29  1  0  0  0  0
  8  9  1  0  0  0  0
  8 10  2  0  0  0  0
  8 12  1  0  0  0  0
  9 11  1  0  0  0  0
  9 13  2  0  0  0  0
 10 14  1  0  0  0  0
 11 15  2  0  0  0  0
 13 17  1  0  0  0  0
 14 18  1  0  0  0  0
 15 19  1  0  0  0  0
 16 20  1  0  0  0  0
 17 19  2  0  0  0  0
 17 21  1  0  0  0  0
 20 22  1  0  0  0  0
 20 23  2  0  0  0  0
 21 25  2  0  0  0  0
 21 26  1  0  0  0  0
 22 24  2  0  0  0  0
 23 27  1  0  0  0  0
 24 28  1  0  0  0  0
 24 29  1  0  0  0  0
 25 30  1  0  0  0  0
 26 31  2  0  0  0  0
 27 28  2  0  0  0  0
 30 32  2  0  0  0  0
 31 32  1  0  0  0  0
M  END
> <PUBCHEM_COMPOUND_ID_TYPE>
0

> <PUBCHEM_TOTAL_CHARGE>
0

> <PUBCHEM_SUBSTANCE_ID>
310949418

> <PUBCHEM_SUBSTANCE_VERSION>
1

> <PUBCHEM_EXT_DATASOURCE_NAME>
4488

> <PUBCHEM_EXT_DATASOURCE_REGID>
SCHEMBL16127611

> <PUBCHEM_SUBSTANCE_COMMENT>
InChI=1S/C25H22N2O4S/c28-25(26-29)20-8-4-5-17(13-20)15-27-23-10-9-19(18-6-2-1-3-7-18)14-21(23)22-16-32(30,31)12-11-24(22)27/h1-10,13-14,29H,11-12,15-16H2,(H,26,28)
InChIKey=CNVGXQVQGAELDN-UHFFFAOYSA-N

> <PUBCHEM_SUBSTANCE_SYNONYM>
SCHEMBL16127611

> <PUBCHEM_XREF_EXT_ID>
SCHEMBL16127611

> <PUBCHEM_EXT_DATASOURCE_URL>
https://www.surechembl.org/

> <PUBCHEM_EXT_SUBSTANCE_URL>
https://www.surechembl.org/chemical/SCHEMBL16127611

> <PUBCHEM_CID_ASSOCIATIONS>
117614869  1

> <PUBCHEM_COORDINATE_TYPE>
1
3

$$$$
