310929187
  -OEChem-07211613022D

 21 22  0     0  0  0  0  0  0999 V2000
    2.1619   -0.4054    0.0000 O   0  0  0  0  0  0  0  0  0  0  0  0
    4.3237   -1.6754    0.0000 O   0  0  0  0  0  0  0  0  0  0  0  0
    3.5941   -0.4054    0.0000 O   0  0  0  0  0  0  0  0  0  0  0  0
    0.0000   -1.6754    0.0000 O   0  5  0  0  0  0  0  0  0  0  0  0
    0.7026   -0.4054    0.0000 O   0  0  0  0  0  0  0  0  0  0  0  0
    2.1348   -5.4047    0.0000 O   0  0  0  0  0  0  0  0  0  0  0  0
    2.1619   -3.7292    0.0000 N   0  0  0  0  0  0  0  0  0  0  0  0
    0.7026   -1.2431    0.0000 N   0  3  0  0  0  0  0  0  0  0  0  0
    2.1619   -1.2431    0.0000 C   0  0  0  0  0  0  0  0  0  0  0  0
    2.8645   -1.6754    0.0000 C   0  0  0  0  0  0  0  0  0  0  0  0
    1.4322   -1.6754    0.0000 C   0  0  0  0  0  0  0  0  0  0  0  0
    2.1619   -2.9185    0.0000 C   0  0  0  0  0  0  0  0  0  0  0  0
    2.8645   -2.4862    0.0000 C   0  0  0  0  0  0  0  0  0  0  0  0
    1.4322   -2.4862    0.0000 C   0  0  0  0  0  0  0  0  0  0  0  0
    3.5941   -1.2431    0.0000 C   0  0  0  0  0  0  0  0  0  0  0  0
    2.8645   -4.1616    0.0000 C   0  0  0  0  0  0  0  0  0  0  0  0
    1.4322   -4.1616    0.0000 C   0  0  0  0  0  0  0  0  0  0  0  0
    2.8645   -4.9993    0.0000 C   0  0  0  0  0  0  0  0  0  0  0  0
    1.4322   -4.9723    0.0000 C   0  0  0  0  0  0  0  0  0  0  0  0
    1.4322    0.0000    0.0000 C   0  0  0  0  0  0  0  0  0  0  0  0
    5.0263   -1.2431    0.0000 C   0  0  0  0  0  0  0  0  0  0  0  0
  1  9  1  0  0  0  0
  1 20  1  0  0  0  0
  2 15  1  0  0  0  0
  2 21  1  0  0  0  0
  3 15  2  0  0  0  0
  4  8  1  0  0  0  0
  5  8  2  0  0  0  0
  6 18  1  0  0  0  0
  6 19  1  0  0  0  0
  7 12  1  0  0  0  0
  7 16  1  0  0  0  0
  7 17  1  0  0  0  0
  8 11  1  0  0  0  0
  9 10  2  0  0  0  0
  9 11  1  0  0  0  0
 10 13  1  0  0  0  0
 10 15  1  0  0  0  0
 11 14  2  0  0  0  0
 12 13  2  0  0  0  0
 12 14  1  0  0  0  0
 16 18  1  0  0  0  0
 17 19  1  0  0  0  0
M  CHG  2   4  -1   8   1
M  END
> <PUBCHEM_COMPOUND_ID_TYPE>
0

> <PUBCHEM_TOTAL_CHARGE>
0

> <PUBCHEM_SUBSTANCE_ID>
310929187

> <PUBCHEM_SUBSTANCE_VERSION>
1

> <PUBCHEM_EXT_DATASOURCE_NAME>
4488

> <PUBCHEM_EXT_DATASOURCE_REGID>
SCHEMBL16106350

> <PUBCHEM_SUBSTANCE_COMMENT>
InChI=1S/C13H16N2O6/c1-19-12-10(13(16)20-2)7-9(8-11(12)15(17)18)14-3-5-21-6-4-14/h7-8H,3-6H2,1-2H3
InChIKey=AQXMECOHYKNYPS-UHFFFAOYSA-N

> <PUBCHEM_SUBSTANCE_SYNONYM>
SCHEMBL16106350

> <PUBCHEM_XREF_EXT_ID>
SCHEMBL16106350

> <PUBCHEM_EXT_DATASOURCE_URL>
https://www.surechembl.org/

> <PUBCHEM_EXT_SUBSTANCE_URL>
https://www.surechembl.org/chemical/SCHEMBL16106350

> <PUBCHEM_CID_ASSOCIATIONS>
117598641  1

> <PUBCHEM_COORDINATE_TYPE>
1
3

$$$$
