310937409
  -OEChem-07211613022D

 25 29  0     0  0  0  0  0  0999 V2000
    3.3201   -4.5737    0.0000 O   0  0  0  0  0  0  0  0  0  0  0  0
    4.9464   -1.9989    0.0000 O   0  0  0  0  0  0  0  0  0  0  0  0
    2.0666   -4.1671    0.0000 N   0  0  0  0  0  0  0  0  0  0  0  0
    2.5748   -2.5409    0.0000 N   0  0  0  0  0  0  0  0  0  0  0  0
    2.8458   -5.2513    0.0000 N   0  0  0  0  0  0  0  0  0  0  0  0
    3.5912   -1.5923    0.0000 C   0  0  0  0  0  0  0  0  0  0  0  0
    3.1169   -3.1169    0.0000 C   0  0  0  0  0  0  0  0  0  0  0  0
    4.1671   -2.1682    0.0000 C   0  0  0  0  0  0  0  0  0  0  0  0
    2.8458   -3.9300    0.0000 C   0  0  0  0  0  0  0  0  0  0  0  0
    3.8622   -0.8131    0.0000 C   0  0  0  0  0  0  0  0  0  0  0  0
    3.9300   -2.9814    0.0000 C   0  0  0  0  0  0  0  0  0  0  0  0
    2.0666   -4.9802    0.0000 C   0  0  0  0  0  0  0  0  0  0  0  0
    2.7781   -1.7278    0.0000 C   0  0  0  0  0  0  0  0  0  0  0  0
    3.6928    0.0000    0.0000 C   0  0  0  0  0  0  0  0  0  0  0  0
    4.4720   -0.2372    0.0000 C   0  0  0  0  0  0  0  0  0  0  0  0
    1.3891   -5.4545    0.0000 C   0  0  0  0  0  0  0  0  0  0  0  0
    5.1835   -1.1857    0.0000 C   0  0  0  0  0  0  0  0  0  0  0  0
    5.9966   -1.0164    0.0000 C   0  0  0  0  0  0  0  0  0  0  0  0
    1.4907   -6.3015    0.0000 C   0  0  0  0  0  0  0  0  0  0  0  0
    0.6437   -5.1496    0.0000 C   0  0  0  0  0  0  0  0  0  0  0  0
    6.5726   -0.4404    0.0000 C   0  0  0  0  0  0  0  0  0  0  0  0
    6.8097   -1.2535    0.0000 C   0  0  0  0  0  0  0  0  0  0  0  0
    0.8131   -6.7758    0.0000 C   0  0  0  0  0  0  0  0  0  0  0  0
    0.0000   -5.6239    0.0000 C   0  0  0  0  0  0  0  0  0  0  0  0
    0.0678   -6.4370    0.0000 C   0  0  0  0  0  0  0  0  0  0  0  0
  1  5  1  0  0  0  0
  1  9  1  0  0  0  0
  2  8  1  0  0  0  0
  2 17  1  0  0  0  0
  3  9  2  0  0  0  0
  3 12  1  0  0  0  0
  4  7  1  0  0  0  0
  4 13  2  0  0  0  0
  5 12  2  0  0  0  0
  6  8  2  0  0  0  0
  6 10  1  0  0  0  0
  6 13  1  0  0  0  0
  7  9  1  0  0  0  0
  7 11  2  0  0  0  0
  8 11  1  0  0  0  0
 10 14  1  0  0  0  0
 10 15  1  0  0  0  0
 12 16  1  0  0  0  0
 14 15  1  0  0  0  0
 16 19  2  0  0  0  0
 16 20  1  0  0  0  0
 17 18  1  0  0  0  0
 18 21  1  0  0  0  0
 18 22  1  0  0  0  0
 19 23  1  0  0  0  0
 20 24  2  0  0  0  0
 21 22  1  0  0  0  0
 23 25  2  0  0  0  0
 24 25  1  0  0  0  0
M  END
> <PUBCHEM_COMPOUND_ID_TYPE>
0

> <PUBCHEM_TOTAL_CHARGE>
0

> <PUBCHEM_SUBSTANCE_ID>
310937409

> <PUBCHEM_SUBSTANCE_VERSION>
1

> <PUBCHEM_EXT_DATASOURCE_NAME>
4488

> <PUBCHEM_EXT_DATASOURCE_REGID>
SCHEMBL16115167

> <PUBCHEM_SUBSTANCE_COMMENT>
InChI=1S/C20H19N3O2/c1-2-4-15(5-3-1)19-22-20(25-23-19)17-10-18(24-12-13-6-7-13)16(11-21-17)14-8-9-14/h1-5,10-11,13-14H,6-9,12H2
InChIKey=XIHDSSMRXFSTSS-UHFFFAOYSA-N

> <PUBCHEM_SUBSTANCE_SYNONYM>
SCHEMBL16115167

> <PUBCHEM_XREF_EXT_ID>
SCHEMBL16115167

> <PUBCHEM_EXT_DATASOURCE_URL>
https://www.surechembl.org/

> <PUBCHEM_EXT_SUBSTANCE_URL>
https://www.surechembl.org/chemical/SCHEMBL16115167

> <PUBCHEM_CID_ASSOCIATIONS>
86273025  1

> <PUBCHEM_COORDINATE_TYPE>
1
3

$$$$
