310941451
  -OEChem-07211613022D

 28 30  0     0  0  0  0  0  0999 V2000
   -1.4157    0.6036    0.0000 F   0  0  0  0  0  0  0  0  0  0  0  0
    1.4816    1.4596    0.0000 O   0  0  0  0  0  0  0  0  0  0  0  0
   -2.1400   -2.3156    0.0000 O   0  0  0  0  0  0  0  0  0  0  0  0
    0.7572    2.7106    0.0000 O   0  0  0  0  0  0  0  0  0  0  0  0
   -3.5886   -2.3156    0.0000 O   0  0  0  0  0  0  0  0  0  0  0  0
   -2.8643    0.6255    0.0000 N   0  0  0  0  0  0  0  0  0  0  0  0
   -2.8643   -1.0645    0.0000 N   0  0  0  0  0  0  0  0  0  0  0  0
    0.0330    1.4596    0.0000 N   0  0  0  0  0  0  0  0  0  0  0  0
   -2.1400    1.8766    0.0000 C   0  0  0  0  0  0  0  0  0  0  0  0
   -1.4157    1.4816    0.0000 C   0  0  0  0  0  0  0  0  0  0  0  0
   -0.6914    1.8766    0.0000 C   0  0  0  0  0  0  0  0  0  0  0  0
   -2.8423    1.4596    0.0000 C   0  0  0  0  0  0  0  0  0  0  0  0
   -2.1181    2.7106    0.0000 C   0  0  0  0  0  0  0  0  0  0  0  0
   -0.6914    2.7106    0.0000 C   0  0  0  0  0  0  0  0  0  0  0  0
   -3.5667    0.2085    0.0000 C   0  0  0  0  0  0  0  0  0  0  0  0
   -2.1400    0.1866    0.0000 C   0  0  0  0  0  0  0  0  0  0  0  0
   -1.4157    3.1277    0.0000 C   0  0  0  0  0  0  0  0  0  0  0  0
    0.7572    1.8547    0.0000 C   0  0  0  0  0  0  0  0  0  0  0  0
   -3.5886   -0.6255    0.0000 C   0  0  0  0  0  0  0  0  0  0  0  0
   -2.1400   -0.6475    0.0000 C   0  0  0  0  0  0  0  0  0  0  0  0
   -2.8423   -1.8766    0.0000 C   0  0  0  0  0  0  0  0  0  0  0  0
    2.2058    1.8985    0.0000 C   0  0  0  0  0  0  0  0  0  0  0  0
    2.1400    2.6887    0.0000 C   0  0  0  0  0  0  0  0  0  0  0  0
    2.9082    1.5254    0.0000 C   0  0  0  0  0  0  0  0  0  0  0  0
    2.8204    3.1277    0.0000 C   0  0  0  0  0  0  0  0  0  0  0  0
    3.5886    1.9864    0.0000 C   0  0  0  0  0  0  0  0  0  0  0  0
    3.5448    2.7765    0.0000 C   0  0  0  0  0  0  0  0  0  0  0  0
   -2.1400   -3.1277    0.0000 C   0  0  0  0  0  0  0  0  0  0  0  0
  1 10  1  0  0  0  0
  2 18  1  0  0  0  0
  2 22  1  0  0  0  0
  3 21  1  0  0  0  0
  3 28  1  0  0  0  0
  4 18  2  0  0  0  0
  5 21  2  0  0  0  0
  6 12  1  0  0  0  0
  6 15  1  0  0  0  0
  6 16  1  0  0  0  0
  7 19  1  0  0  0  0
  7 20  1  0  0  0  0
  7 21  1  0  0  0  0
  8 11  1  0  0  0  0
  8 18  1  0  0  0  0
  9 10  2  0  0  0  0
  9 12  1  0  0  0  0
  9 13  1  0  0  0  0
 10 11  1  0  0  0  0
 11 14  2  0  0  0  0
 13 17  2  0  0  0  0
 14 17  1  0  0  0  0
 15 19  1  0  0  0  0
 16 20  1  0  0  0  0
 22 23  2  0  0  0  0
 22 24  1  0  0  0  0
 23 25  1  0  0  0  0
 24 26  2  0  0  0  0
 25 27  2  0  0  0  0
 26 27  1  0  0  0  0
M  END
> <PUBCHEM_COMPOUND_ID_TYPE>
0

> <PUBCHEM_TOTAL_CHARGE>
0

> <PUBCHEM_SUBSTANCE_ID>
310941451

> <PUBCHEM_SUBSTANCE_VERSION>
1

> <PUBCHEM_EXT_DATASOURCE_NAME>
4488

> <PUBCHEM_EXT_DATASOURCE_REGID>
SCHEMBL16119436

> <PUBCHEM_SUBSTANCE_COMMENT>
InChI=1S/C20H22FN3O4/c1-27-20(26)24-12-10-23(11-13-24)14-15-6-5-9-17(18(15)21)22-19(25)28-16-7-3-2-4-8-16/h2-9H,10-14H2,1H3,(H,22,25)
InChIKey=MFCXLBHOWNDWEI-UHFFFAOYSA-N

> <PUBCHEM_SUBSTANCE_SYNONYM>
SCHEMBL16119436

> <PUBCHEM_XREF_EXT_ID>
SCHEMBL16119436

> <PUBCHEM_EXT_DATASOURCE_URL>
https://www.surechembl.org/

> <PUBCHEM_EXT_SUBSTANCE_URL>
https://www.surechembl.org/chemical/SCHEMBL16119436

> <PUBCHEM_CID_ASSOCIATIONS>
117608274  1

> <PUBCHEM_COORDINATE_TYPE>
1
3

$$$$
