310947783
  -OEChem-07211613022D

 24 25  0     1  0  0  0  0  0999 V2000
    3.0968   -1.4897    0.0000 S   0  0  0  0  0  0  0  0  0  0  0  0
   -2.0090    0.9828    0.0000 O   0  0  0  0  0  0  0  0  0  0  0  0
    2.2686   -1.4897    0.0000 O   0  0  0  0  0  0  0  0  0  0  0  0
   -0.5872   -1.4897    0.0000 O   0  0  0  0  0  0  0  0  0  0  0  0
   -0.5872    1.8111    0.0000 O   0  0  0  0  0  0  0  0  0  0  0  0
    3.5048   -2.2067    0.0000 O   0  0  0  0  0  0  0  0  0  0  0  0
    3.5048   -0.7727    0.0000 O   0  0  0  0  0  0  0  0  0  0  0  0
    3.9128   -1.4897    0.0000 O   0  0  0  0  0  0  0  0  0  0  0  0
    0.1545   -0.2534    0.0000 N   0  0  0  0  0  0  0  0  0  0  0  0
   -1.2795    0.5748    0.0000 N   0  0  0  0  0  0  0  0  0  0  0  0
    1.5762   -1.0694    0.0000 N   0  0  0  0  0  0  0  0  0  0  0  0
   -3.9128    1.5020    0.0000 N   0  0  0  0  0  0  0  0  0  0  0  0
    0.1545    0.5748    0.0000 C   0  0  3  0  0  0  0  0  0  0  0  0
   -0.6119    0.9581    0.0000 C   0  0  0  0  0  0  0  0  0  0  0  0
    0.1669   -1.0447    0.0000 C   0  0  0  0  0  0  0  0  0  0  0  0
   -2.7136    0.5748    0.0000 C   0  0  3  0  0  0  0  0  0  0  0  0
   -3.5172    0.7974    0.0000 C   0  0  3  0  0  0  0  0  0  0  0  0
    0.8592   -0.6614    0.0000 C   0  0  0  0  0  0  0  0  0  0  0  0
    0.8468    0.9828    0.0000 C   0  0  0  0  0  0  0  0  0  0  0  0
   -2.9238   -0.2163    0.0000 C   0  0  0  0  0  0  0  0  0  0  0  0
   -3.7150   -0.0062    0.0000 C   0  0  0  0  0  0  0  0  0  0  0  0
    1.5515   -0.2658    0.0000 C   0  0  0  0  0  0  0  0  0  0  0  0
    1.5639    0.5748    0.0000 C   0  0  0  0  0  0  0  0  0  0  0  0
   -3.5172    2.2067    0.0000 C   0  0  0  0  0  0  0  0  0  0  0  0
  1  3  1  0  0  0  0
  1  6  2  0  0  0  0
  1  7  2  0  0  0  0
  1  8  1  0  0  0  0
  2 10  1  0  0  0  0
  2 16  1  0  0  0  0
  3 11  1  0  0  0  0
  4 15  2  0  0  0  0
  5 14  2  0  0  0  0
  9 13  1  0  0  0  0
  9 15  1  0  0  0  0
  9 18  1  0  0  0  0
 10 14  1  0  0  0  0
 11 15  1  0  0  0  0
 12 17  1  0  0  0  0
 12 24  1  0  0  0  0
 13 14  1  6  0  0  0
 13 19  1  0  0  0  0
 16 17  1  0  0  0  0
 16 20  1  0  0  0  0
 17 21  1  0  0  0  0
 18 22  1  0  0  0  0
 19 23  1  0  0  0  0
 20 21  1  0  0  0  0
 22 23  1  0  0  0  0
M  END
> <PUBCHEM_COMPOUND_ID_TYPE>
0

> <PUBCHEM_TOTAL_CHARGE>
0

> <PUBCHEM_SUBSTANCE_ID>
310947783

> <PUBCHEM_SUBSTANCE_VERSION>
1

> <PUBCHEM_EXT_DATASOURCE_NAME>
4488

> <PUBCHEM_EXT_DATASOURCE_REGID>
SCHEMBL16125955

> <PUBCHEM_SUBSTANCE_COMMENT>
InChI=1S/C12H22N4O7S/c1-13-8-5-6-10(8)22-14-11(17)9-4-2-3-7-16(9)12(18)15-23-24(19,20)21/h8-10,13H,2-7H2,1H3,(H,14,17)(H,15,18)(H,19,20,21)/t8?,9-,10?/m0/s1
InChIKey=YKQMUDMGGMIPBV-KYHHOPLUSA-N

> <PUBCHEM_SUBSTANCE_SYNONYM>
SCHEMBL16125955

> <PUBCHEM_XREF_EXT_ID>
SCHEMBL16125955

> <PUBCHEM_EXT_DATASOURCE_URL>
https://www.surechembl.org/

> <PUBCHEM_EXT_SUBSTANCE_URL>
https://www.surechembl.org/chemical/SCHEMBL16125955

> <PUBCHEM_CID_ASSOCIATIONS>
117613452  1

> <PUBCHEM_COORDINATE_TYPE>
1
3

> <PUBCHEM_BONDANNOTATIONS>
13  14  6

$$$$
