310931807
  -OEChem-07211613022D

 32 35  0     1  0  0  0  0  0999 V2000
    8.8001   -0.6139    0.0000 F   0  0  0  0  0  0  0  0  0  0  0  0
    6.3784   -1.9783    0.0000 O   0  0  0  0  0  0  0  0  0  0  0  0
    2.1830   -3.7179    0.0000 O   0  0  0  0  0  0  0  0  0  0  0  0
    6.0031   -3.4109    0.0000 N   0  0  0  0  0  0  0  0  0  0  0  0
    6.4125   -4.1272    0.0000 N   0  0  0  0  0  0  0  0  0  0  0  0
    4.6729   -3.9907    0.0000 N   0  0  0  0  0  0  0  0  0  0  0  0
    2.3535   -2.2853    0.0000 N   0  0  0  0  0  0  0  0  0  0  0  0
    0.7163   -0.8186    0.0000 N   0  0  0  0  0  0  0  0  0  0  0  0
   10.2326   -0.6139    0.0000 N   0  0  0  0  0  0  0  0  0  0  0  0
    7.3334   -3.1380    0.0000 C   0  0  0  0  0  0  0  0  0  0  0  0
    6.5489   -2.7969    0.0000 C   0  0  0  0  0  0  0  0  0  0  0  0
    8.0497   -2.6946    0.0000 C   0  0  0  0  0  0  0  0  0  0  0  0
    5.1505   -3.3085    0.0000 C   0  0  0  0  0  0  0  0  0  0  0  0
    8.0497   -1.8760    0.0000 C   0  0  0  0  0  0  0  0  0  0  0  0
    7.2311   -3.9566    0.0000 C   0  0  0  0  0  0  0  0  0  0  0  0
    8.8001   -1.4667    0.0000 C   0  0  0  0  0  0  0  0  0  0  0  0
    8.8001   -3.1380    0.0000 C   0  0  0  0  0  0  0  0  0  0  0  0
    3.5132   -3.1380    0.0000 C   0  0  0  0  0  0  0  0  0  0  0  0
    9.5163   -1.8760    0.0000 C   0  0  0  0  0  0  0  0  0  0  0  0
    2.6946   -3.0357    0.0000 C   0  0  0  0  0  0  0  0  0  0  0  0
    4.8434   -2.5581    0.0000 C   0  0  0  0  0  0  0  0  0  0  0  0
    9.5163   -2.6946    0.0000 C   0  0  0  0  0  0  0  0  0  0  0  0
    3.8543   -3.9225    0.0000 C   0  0  0  0  0  0  0  0  0  0  0  0
    3.9907   -2.4899    0.0000 C   0  0  0  0  0  0  0  0  0  0  0  0
    1.4667   -1.2620    0.0000 C   0  0  3  0  0  0  0  0  0  0  0  0
    1.5349   -2.0806    0.0000 C   0  0  0  0  0  0  0  0  0  0  0  0
    7.3334   -1.4667    0.0000 C   0  0  0  0  0  0  0  0  0  0  0  0
    2.7969   -1.5690    0.0000 C   0  0  0  0  0  0  0  0  0  0  0  0
    2.2171   -0.9210    0.0000 C   0  0  0  0  0  0  0  0  0  0  0  0
   10.2326   -1.4667    0.0000 C   0  0  0  0  0  0  0  0  0  0  0  0
    0.7504    0.0000    0.0000 C   0  0  0  0  0  0  0  0  0  0  0  0
    0.0000   -1.2279    0.0000 C   0  0  0  0  0  0  0  0  0  0  0  0
  1 16  1  0  0  0  0
  2 11  1  0  0  0  0
  3 20  2  0  0  0  0
  4  5  1  0  0  0  0
  4 11  1  0  0  0  0
  4 13  1  0  0  0  0
  5 15  2  0  0  0  0
  6 13  1  0  0  0  0
  6 23  2  0  0  0  0
  7 20  1  0  0  0  0
  7 26  1  0  0  0  0
  7 28  1  0  0  0  0
 25  8  1  6  0  0  0
  8 31  1  0  0  0  0
  8 32  1  0  0  0  0
  9 30  3  0  0  0  0
 10 11  2  0  0  0  0
 10 12  1  0  0  0  0
 10 15  1  0  0  0  0
 12 14  2  0  0  0  0
 12 17  1  0  0  0  0
 13 21  2  0  0  0  0
 14 16  1  0  0  0  0
 14 27  1  0  0  0  0
 16 19  2  0  0  0  0
 17 22  2  0  0  0  0
 18 20  1  0  0  0  0
 18 23  1  0  0  0  0
 18 24  2  0  0  0  0
 19 22  1  0  0  0  0
 19 30  1  0  0  0  0
 21 24  1  0  0  0  0
 25 26  1  0  0  0  0
 25 29  1  0  0  0  0
 28 29  1  0  0  0  0
M  END
> <PUBCHEM_COMPOUND_ID_TYPE>
0

> <PUBCHEM_TOTAL_CHARGE>
0

> <PUBCHEM_SUBSTANCE_ID>
310931807

> <PUBCHEM_SUBSTANCE_VERSION>
1

> <PUBCHEM_EXT_DATASOURCE_NAME>
4488

> <PUBCHEM_EXT_DATASOURCE_REGID>
SCHEMBL16109140

> <PUBCHEM_SUBSTANCE_COMMENT>
InChI=1S/C23H23FN6O2/c1-14-18(6-4-15(10-25)21(14)24)19-12-27-30(23(19)32)20-7-5-16(11-26-20)22(31)29-9-8-17(13-29)28(2)3/h4-7,11-12,17,32H,8-9,13H2,1-3H3/t17-/m1/s1
InChIKey=WRSIUNUEEHFMFH-QGZVFWFLSA-N

> <PUBCHEM_SUBSTANCE_SYNONYM>
SCHEMBL16109140

> <PUBCHEM_XREF_EXT_ID>
SCHEMBL16109140

> <PUBCHEM_EXT_DATASOURCE_URL>
https://www.surechembl.org/

> <PUBCHEM_EXT_SUBSTANCE_URL>
https://www.surechembl.org/chemical/SCHEMBL16109140

> <PUBCHEM_CID_ASSOCIATIONS>
117600484  1

> <PUBCHEM_COORDINATE_TYPE>
1
3

> <PUBCHEM_BONDANNOTATIONS>
25  8  6

$$$$
