310945280
  -OEChem-07211613022D

 36 39  0     1  0  0  0  0  0999 V2000
    0.5237   -1.0391    0.0000 O   0  0  0  0  0  0  0  0  0  0  0  0
   -3.8017   -0.9546    0.0000 O   0  0  0  0  0  0  0  0  0  0  0  0
   -0.1858   -2.2556    0.0000 O   0  0  0  0  0  0  0  0  0  0  0  0
    2.8217    1.2588    0.0000 O   0  0  0  0  0  0  0  0  0  0  0  0
    4.4268    1.6473    0.0000 O   0  0  0  0  0  0  0  0  0  0  0  0
   -4.4944    0.2281    0.0000 O   0  0  0  0  0  0  0  0  0  0  0  0
    4.0720    3.0498    0.0000 O   0  0  0  0  0  0  0  0  0  0  0  0
    0.5575    1.4784    0.0000 C   0  0  3  0  0  0  0  0  0  0  0  0
   -0.1858    0.2450    0.0000 C   0  0  3  0  0  0  0  0  0  0  0  0
    0.5575    0.6505    0.0000 C   0  0  3  0  0  0  0  0  0  0  0  0
   -0.8955    0.6674    0.0000 C   0  0  3  0  0  0  0  0  0  0  0  0
   -1.6221    0.2957    0.0000 C   0  0  3  0  0  0  0  0  0  0  0  0
    1.3686    1.6981    0.0000 C   0  0  3  0  0  0  0  0  0  0  0  0
   -1.6221   -0.5999    0.0000 C   0  0  3  0  0  0  0  0  0  0  0  0
   -0.2028   -0.6167    0.0000 C   0  0  3  0  0  0  0  0  0  0  0  0
   -0.1352    1.8839    0.0000 C   0  0  0  0  0  0  0  0  0  0  0  0
   -0.8617    1.5122    0.0000 C   0  0  0  0  0  0  0  0  0  0  0  0
    1.3517    0.3633    0.0000 C   0  0  0  0  0  0  0  0  0  0  0  0
   -0.9124   -0.9884    0.0000 C   0  0  0  0  0  0  0  0  0  0  0  0
    1.8417    1.0222    0.0000 C   0  0  0  0  0  0  0  0  0  0  0  0
   -2.3486    0.6843    0.0000 C   0  0  0  0  0  0  0  0  0  0  0  0
    1.6559    2.4922    0.0000 C   0  0  3  0  0  0  0  0  0  0  0  0
   -2.3317   -0.9546    0.0000 C   0  0  0  0  0  0  0  0  0  0  0  0
    0.5745    2.3064    0.0000 C   0  0  0  0  0  0  0  0  0  0  0  0
   -1.6051    1.0898    0.0000 C   0  0  0  0  0  0  0  0  0  0  0  0
   -3.0751   -0.5323    0.0000 C   0  0  3  0  0  0  0  0  0  0  0  0
   -3.0582    0.2957    0.0000 C   0  0  0  0  0  0  0  0  0  0  0  0
    2.4500    2.6611    0.0000 C   0  0  0  0  0  0  0  0  0  0  0  0
    1.0982    3.0836    0.0000 C   0  0  0  0  0  0  0  0  0  0  0  0
    0.5237   -1.8501    0.0000 C   0  0  0  0  0  0  0  0  0  0  0  0
    3.0413    2.0866    0.0000 C   0  0  3  0  0  0  0  0  0  0  0  0
    3.8355    2.2388    0.0000 C   0  0  0  0  0  0  0  0  0  0  0  0
   -4.4775   -0.5999    0.0000 C   0  0  0  0  0  0  0  0  0  0  0  0
   -0.1521   -3.0836    0.0000 C   0  0  0  0  0  0  0  0  0  0  0  0
    5.2378    1.8501    0.0000 C   0  0  0  0  0  0  0  0  0  0  0  0
   -5.2378    0.6336    0.0000 C   0  0  0  0  0  0  0  0  0  0  0  0
 15  1  1  6  0  0  0
  1 30  1  0  0  0  0
 26  2  1  6  0  0  0
  2 33  1  0  0  0  0
  3 30  1  0  0  0  0
  3 34  1  0  0  0  0
  4 31  1  0  0  0  0
  5 32  1  0  0  0  0
  5 35  1  0  0  0  0
  6 33  1  0  0  0  0
  6 36  1  0  0  0  0
  7 32  2  0  0  0  0
  8 10  1  0  0  0  0
  8 13  1  0  0  0  0
  8 16  1  0  0  0  0
  8 24  1  1  0  0  0
  9 10  1  0  0  0  0
  9 11  1  0  0  0  0
  9 15  1  0  0  0  0
 10 18  1  1  0  0  0
 11 12  1  0  0  0  0
 11 17  1  0  0  0  0
 12 14  1  0  0  0  0
 12 21  1  0  0  0  0
 12 25  1  0  0  0  0
 13 20  1  0  0  0  0
 13 22  1  1  0  0  0
 14 19  1  0  0  0  0
 14 23  1  0  0  0  0
 15 19  1  0  0  0  0
 16 17  1  0  0  0  0
 18 20  1  0  0  0  0
 21 27  1  0  0  0  0
 22 28  1  0  0  0  0
 22 29  1  6  0  0  0
 23 26  1  0  0  0  0
 26 27  1  0  0  0  0
 28 31  1  0  0  0  0
 31 32  1  0  0  0  0
M  END
> <PUBCHEM_COMPOUND_ID_TYPE>
0

> <PUBCHEM_TOTAL_CHARGE>
0

> <PUBCHEM_SUBSTANCE_ID>
310945280

> <PUBCHEM_SUBSTANCE_VERSION>
1

> <PUBCHEM_EXT_DATASOURCE_NAME>
4488

> <PUBCHEM_EXT_DATASOURCE_REGID>
SCHEMBL16123375

> <PUBCHEM_SUBSTANCE_COMMENT>
InChI=1S/C29H50O7/c1-18(13-24(30)27(31)34-6)21-7-8-22-26-23(10-12-29(21,22)3)28(2)11-9-20(35-16-32-4)14-19(28)15-25(26)36-17-33-5/h18-26,30H,7-17H2,1-6H3/t18-,19?,20-,21-,22+,23?,24?,25-,26?,28?,29-/m1/s1
InChIKey=GLKXCCUQCCOPFW-LSFUASNVSA-N

> <PUBCHEM_SUBSTANCE_SYNONYM>
SCHEMBL16123375

> <PUBCHEM_XREF_EXT_ID>
SCHEMBL16123375

> <PUBCHEM_EXT_DATASOURCE_URL>
https://www.surechembl.org/

> <PUBCHEM_EXT_SUBSTANCE_URL>
https://www.surechembl.org/chemical/SCHEMBL16123375

> <PUBCHEM_CID_ASSOCIATIONS>
117611341  1

> <PUBCHEM_COORDINATE_TYPE>
1
3

> <PUBCHEM_BONDANNOTATIONS>
15  1  6
10  18  5
13  22  5
26  2  6
22  29  6
31  4  3
8  24  5

$$$$
