310942736
  -OEChem-07211613022D

 51 56  0     1  0  0  0  0  0999 V2000
   -4.2748    0.1415    0.0000 F   0  0  0  0  0  0  0  0  0  0  0  0
   -4.2748   -3.2743    0.0000 F   0  0  0  0  0  0  0  0  0  0  0  0
    2.4558   -2.1425    0.0000 F   0  0  0  0  0  0  0  0  0  0  0  0
   -1.0612   -2.5871    0.0000 O   0  0  0  0  0  0  0  0  0  0  0  0
    0.3335   -3.4360    0.0000 O   0  0  0  0  0  0  0  0  0  0  0  0
    1.3037    2.6882    0.0000 O   0  0  0  0  0  0  0  0  0  0  0  0
    4.1738    3.4360    0.0000 O   0  0  0  0  0  0  0  0  0  0  0  0
    3.5270    0.5053    0.0000 O   0  0  0  0  0  0  0  0  0  0  0  0
   -1.9101    0.2223    0.0000 N   0  0  0  0  0  0  0  0  0  0  0  0
   -0.3740   -1.3138    0.0000 N   0  0  0  0  0  0  0  0  0  0  0  0
   -2.1728   -1.1318    0.0000 N   0  0  0  0  0  0  0  0  0  0  0  0
    0.9398    1.2532    0.0000 N   0  0  0  0  0  0  0  0  0  0  0  0
    2.5973    0.0606    0.0000 N   0  0  0  0  0  0  0  0  0  0  0  0
    3.6280    2.0212    0.0000 N   0  0  0  0  0  0  0  0  0  0  0  0
   -1.5867   -0.5255    0.0000 C   0  0  0  0  0  0  0  0  0  0  0  0
   -0.7781   -0.5660    0.0000 C   0  0  3  0  0  0  0  0  0  0  0  0
   -2.8802   -0.7074    0.0000 C   0  0  0  0  0  0  0  0  0  0  0  0
   -0.2122    0.0809    0.0000 C   0  0  0  0  0  0  0  0  0  0  0  0
   -2.6983    0.1212    0.0000 C   0  0  0  0  0  0  0  0  0  0  0  0
   -3.5674   -1.1318    0.0000 C   0  0  0  0  0  0  0  0  0  0  0  0
   -0.3740   -2.1425    0.0000 C   0  0  0  0  0  0  0  0  0  0  0  0
   -1.5058    1.1925    0.0000 C   0  0  0  0  0  0  0  0  0  0  0  0
    0.8590   -1.2936    0.0000 C   0  0  0  0  0  0  0  0  0  0  0  0
   -4.2748   -0.7074    0.0000 C   0  0  0  0  0  0  0  0  0  0  0  0
   -0.3941    0.8489    0.0000 C   0  0  0  0  0  0  0  0  0  0  0  0
    0.5760   -0.1819    0.0000 C   0  0  0  0  0  0  0  0  0  0  0  0
    1.6473   -0.9095    0.0000 C   0  0  3  0  0  0  0  0  0  0  0  0
   -3.5876   -2.0010    0.0000 C   0  0  0  0  0  0  0  0  0  0  0  0
   -2.0718    1.7989    0.0000 C   0  0  0  0  0  0  0  0  0  0  0  0
    0.3335   -2.5871    0.0000 C   0  0  3  0  0  0  0  0  0  0  0  0
    0.1516    1.4553    0.0000 C   0  0  0  0  0  0  0  0  0  0  0  0
    1.1420    0.4245    0.0000 C   0  0  0  0  0  0  0  0  0  0  0  0
   -4.2748   -2.4052    0.0000 C   0  0  0  0  0  0  0  0  0  0  0  0
    2.3547   -1.2936    0.0000 C   0  0  3  0  0  0  0  0  0  0  0  0
   -4.9418   -1.1318    0.0000 C   0  0  0  0  0  0  0  0  0  0  0  0
    1.5058    1.8595    0.0000 C   0  0  0  0  0  0  0  0  0  0  0  0
    1.8090   -0.0606    0.0000 C   0  0  0  0  0  0  0  0  0  0  0  0
   -4.9418   -2.0010    0.0000 C   0  0  0  0  0  0  0  0  0  0  0  0
   -1.8696    2.6276    0.0000 C   0  0  0  0  0  0  0  0  0  0  0  0
   -2.8196    1.5766    0.0000 C   0  0  0  0  0  0  0  0  0  0  0  0
    2.9408   -0.7277    0.0000 C   0  0  0  0  0  0  0  0  0  0  0  0
    1.0005   -2.1627    0.0000 C   0  0  0  0  0  0  0  0  0  0  0  0
    2.2941    1.6372    0.0000 C   0  0  0  0  0  0  0  0  0  0  0  0
   -2.4356    3.2137    0.0000 C   0  0  0  0  0  0  0  0  0  0  0  0
   -3.4057    2.1829    0.0000 C   0  0  0  0  0  0  0  0  0  0  0  0
    2.8398    2.2233    0.0000 C   0  0  0  0  0  0  0  0  0  0  0  0
    3.9514    1.2532    0.0000 C   0  0  0  0  0  0  0  0  0  0  0  0
    4.2344    2.5467    0.0000 C   0  0  0  0  0  0  0  0  0  0  0  0
   -3.1834    2.9914    0.0000 C   0  0  0  0  0  0  0  0  0  0  0  0
    4.7397    1.2936    0.0000 C   0  0  0  0  0  0  0  0  0  0  0  0
    4.9418    2.1222    0.0000 C   0  0  0  0  0  0  0  0  0  0  0  0
  1 24  1  0  0  0  0
  2 33  1  0  0  0  0
 34  3  1  6  0  0  0
  4 21  2  0  0  0  0
 30  5  1  6  0  0  0
  6 36  2  0  0  0  0
  7 48  2  0  0  0  0
  8 47  2  0  0  0  0
  9 15  1  0  0  0  0
  9 19  1  0  0  0  0
  9 22  1  0  0  0  0
 16 10  1  1  0  0  0
 10 21  1  0  0  0  0
 10 23  1  0  0  0  0
 11 15  2  0  0  0  0
 11 17  1  0  0  0  0
 12 31  1  0  0  0  0
 12 32  1  0  0  0  0
 12 36  1  0  0  0  0
 13 37  1  0  0  0  0
 13 41  1  0  0  0  0
 14 46  1  0  0  0  0
 14 47  1  0  0  0  0
 14 48  1  0  0  0  0
 15 16  1  0  0  0  0
 16 18  1  0  0  0  0
 17 19  2  0  0  0  0
 17 20  1  0  0  0  0
 18 25  1  0  0  0  0
 18 26  1  0  0  0  0
 20 24  2  0  0  0  0
 20 28  1  0  0  0  0
 21 30  1  0  0  0  0
 22 29  1  0  0  0  0
 27 23  1  6  0  0  0
 24 35  1  0  0  0  0
 25 31  1  0  0  0  0
 26 32  1  0  0  0  0
 27 34  1  0  0  0  0
 27 37  1  0  0  0  0
 28 33  2  0  0  0  0
 29 39  2  0  0  0  0
 29 40  1  0  0  0  0
 30 42  1  0  0  0  0
 33 38  1  0  0  0  0
 34 41  1  0  0  0  0
 35 38  2  0  0  0  0
 36 43  1  0  0  0  0
 39 44  1  0  0  0  0
 40 45  2  0  0  0  0
 43 46  1  0  0  0  0
 44 49  2  0  0  0  0
 45 49  1  0  0  0  0
 47 50  1  0  0  0  0
 48 51  1  0  0  0  0
 50 51  2  0  0  0  0
M  END
> <PUBCHEM_COMPOUND_ID_TYPE>
0

> <PUBCHEM_TOTAL_CHARGE>
0

> <PUBCHEM_SUBSTANCE_ID>
310942736

> <PUBCHEM_SUBSTANCE_VERSION>
1

> <PUBCHEM_EXT_DATASOURCE_NAME>
4488

> <PUBCHEM_EXT_DATASOURCE_REGID>
SCHEMBL16120788

> <PUBCHEM_SUBSTANCE_COMMENT>
InChI=1S/C37H41F3N6O5/c1-23(47)37(51)46(21-26-18-41-19-30(26)40)35(25-11-14-43(15-12-25)32(48)13-16-45-33(49)9-10-34(45)50)36-42-31(28-17-27(38)7-8-29(28)39)22-44(36)20-24-5-3-2-4-6-24/h2-10,17,22-23,25-26,30,35,41,47H,11-16,18-21H2,1H3/t23-,26-,30-,35+/m0/s1
InChIKey=NEXLTCFLQBGDBE-WPWJKMEJSA-N

> <PUBCHEM_SUBSTANCE_SYNONYM>
SCHEMBL16120788

> <PUBCHEM_XREF_EXT_ID>
SCHEMBL16120788

> <PUBCHEM_EXT_DATASOURCE_URL>
https://www.surechembl.org/

> <PUBCHEM_EXT_SUBSTANCE_URL>
https://www.surechembl.org/chemical/SCHEMBL16120788

> <PUBCHEM_CID_ASSOCIATIONS>
117609256  1

> <PUBCHEM_COORDINATE_TYPE>
1
3

> <PUBCHEM_BONDANNOTATIONS>
16  10  5
27  23  6
34  3  6
30  5  6

$$$$
