310931476
  -OEChem-07211613022D

 25 27  0     0  0  0  0  0  0999 V2000
    4.0183   -3.3675    0.0000 O   0  0  0  0  0  0  0  0  0  0  0  0
    2.6317   -0.6509    0.0000 O   0  0  0  0  0  0  0  0  0  0  0  0
    8.4895   -3.4807    0.0000 O   0  0  0  0  0  0  0  0  0  0  0  0
    7.7820   -4.6975    0.0000 O   0  0  0  0  0  0  0  0  0  0  0  0
    4.9239   -2.2355    0.0000 N   0  0  0  0  0  0  0  0  0  0  0  0
    4.8390   -1.4149    0.0000 N   0  0  0  0  0  0  0  0  0  0  0  0
    6.3671   -2.2355    0.0000 N   0  0  0  0  0  0  0  0  0  0  0  0
    0.0000   -3.0845    0.0000 N   0  0  0  0  0  0  0  0  0  0  0  0
    3.5939   -1.9809    0.0000 C   0  0  0  0  0  0  0  0  0  0  0  0
    4.1881   -2.5752    0.0000 C   0  0  0  0  0  0  0  0  0  0  0  0
    2.8015   -2.0658    0.0000 C   0  0  0  0  0  0  0  0  0  0  0  0
    5.6314   -2.6317    0.0000 C   0  0  0  0  0  0  0  0  0  0  0  0
    4.0183   -1.2734    0.0000 C   0  0  0  0  0  0  0  0  0  0  0  0
    2.2922   -1.4149    0.0000 C   0  0  0  0  0  0  0  0  0  0  0  0
    2.4619   -2.8298    0.0000 C   0  0  0  0  0  0  0  0  0  0  0  0
    5.6314   -3.4807    0.0000 C   0  0  0  0  0  0  0  0  0  0  0  0
    1.4715   -1.4998    0.0000 C   0  0  0  0  0  0  0  0  0  0  0  0
    1.1602   -2.2638    0.0000 C   0  0  0  0  0  0  0  0  0  0  0  0
    7.0746   -3.4807    0.0000 C   0  0  0  0  0  0  0  0  0  0  0  0
    1.6413   -2.9147    0.0000 C   0  0  0  0  0  0  0  0  0  0  0  0
    7.0746   -2.6317    0.0000 C   0  0  0  0  0  0  0  0  0  0  0  0
    6.3671   -3.8769    0.0000 C   0  0  0  0  0  0  0  0  0  0  0  0
    7.7820   -3.8769    0.0000 C   0  0  0  0  0  0  0  0  0  0  0  0
    0.3396   -2.3488    0.0000 C   0  0  0  0  0  0  0  0  0  0  0  0
    2.1224    0.0000    0.0000 C   0  0  0  0  0  0  0  0  0  0  0  0
  1 10  1  0  0  0  0
  2 14  1  0  0  0  0
  2 25  1  0  0  0  0
  3 23  2  0  0  0  0
  4 23  1  0  0  0  0
  5  6  1  0  0  0  0
  5 10  1  0  0  0  0
  5 12  1  0  0  0  0
  6 13  2  0  0  0  0
  7 12  2  0  0  0  0
  7 21  1  0  0  0  0
  8 24  3  0  0  0  0
  9 10  2  0  0  0  0
  9 11  1  0  0  0  0
  9 13  1  0  0  0  0
 11 14  1  0  0  0  0
 11 15  2  0  0  0  0
 12 16  1  0  0  0  0
 14 17  2  0  0  0  0
 15 20  1  0  0  0  0
 16 22  2  0  0  0  0
 17 18  1  0  0  0  0
 18 20  2  0  0  0  0
 18 24  1  0  0  0  0
 19 21  2  0  0  0  0
 19 22  1  0  0  0  0
 19 23  1  0  0  0  0
M  END
> <PUBCHEM_COMPOUND_ID_TYPE>
0

> <PUBCHEM_TOTAL_CHARGE>
0

> <PUBCHEM_SUBSTANCE_ID>
310931476

> <PUBCHEM_SUBSTANCE_VERSION>
1

> <PUBCHEM_EXT_DATASOURCE_NAME>
4488

> <PUBCHEM_EXT_DATASOURCE_REGID>
SCHEMBL16108801

> <PUBCHEM_SUBSTANCE_COMMENT>
InChI=1S/C17H12N4O4/c1-25-14-6-10(7-18)2-4-12(14)13-9-20-21(16(13)22)15-5-3-11(8-19-15)17(23)24/h2-6,8-9,22H,1H3,(H,23,24)
InChIKey=HDVKLNYOUYNFEY-UHFFFAOYSA-N

> <PUBCHEM_SUBSTANCE_SYNONYM>
SCHEMBL16108801

> <PUBCHEM_XREF_EXT_ID>
SCHEMBL16108801

> <PUBCHEM_EXT_DATASOURCE_URL>
https://www.surechembl.org/

> <PUBCHEM_EXT_SUBSTANCE_URL>
https://www.surechembl.org/chemical/SCHEMBL16108801

> <PUBCHEM_CID_ASSOCIATIONS>
117600242  1

> <PUBCHEM_COORDINATE_TYPE>
1
3

$$$$
