310949147
  -OEChem-07211613022D

 48 56  0     0  0  0  0  0  0999 V2000
   -0.0161    1.3411    0.0000 N   0  0  0  0  0  0  0  0  0  0  0  0
   -1.5834   -0.9695    0.0000 N   0  0  0  0  0  0  0  0  0  0  0  0
    2.1651    0.8725    0.0000 N   0  0  0  0  0  0  0  0  0  0  0  0
   -0.0484   -2.7630    0.0000 N   0  0  0  0  0  0  0  0  0  0  0  0
   -0.7756    0.1293    0.0000 C   0  0  0  0  0  0  0  0  0  0  0  0
   -0.0161    0.5332    0.0000 C   0  0  0  0  0  0  0  0  0  0  0  0
   -0.7756   -0.6947    0.0000 C   0  0  0  0  0  0  0  0  0  0  0  0
   -1.5673    0.3878    0.0000 C   0  0  0  0  0  0  0  0  0  0  0  0
    0.6624    1.8742    0.0000 C   0  0  0  0  0  0  0  0  0  0  0  0
   -0.7109    1.8581    0.0000 C   0  0  0  0  0  0  0  0  0  0  0  0
   -2.0843   -0.2746    0.0000 C   0  0  0  0  0  0  0  0  0  0  0  0
    0.7109    0.1131    0.0000 C   0  0  0  0  0  0  0  0  0  0  0  0
    0.4201    2.6498    0.0000 C   0  0  0  0  0  0  0  0  0  0  0  0
   -0.4685    2.6660    0.0000 C   0  0  0  0  0  0  0  0  0  0  0  0
   -0.0323   -1.1149    0.0000 C   0  0  0  0  0  0  0  0  0  0  0  0
    0.6947   -0.7109    0.0000 C   0  0  0  0  0  0  0  0  0  0  0  0
   -1.8742   -1.7289    0.0000 C   0  0  0  0  0  0  0  0  0  0  0  0
   -1.5350    1.6965    0.0000 C   0  0  0  0  0  0  0  0  0  0  0  0
    1.5026    1.7127    0.0000 C   0  0  0  0  0  0  0  0  0  0  0  0
   -1.9065    1.1310    0.0000 C   0  0  0  0  0  0  0  0  0  0  0  0
   -2.8437   -0.1616    0.0000 C   0  0  0  0  0  0  0  0  0  0  0  0
    0.9856    3.2476    0.0000 C   0  0  0  0  0  0  0  0  0  0  0  0
   -1.0179    3.2638    0.0000 C   0  0  0  0  0  0  0  0  0  0  0  0
    2.0358    2.2943    0.0000 C   0  0  0  0  0  0  0  0  0  0  0  0
   -2.1166    2.2943    0.0000 C   0  0  0  0  0  0  0  0  0  0  0  0
    1.4541    0.5171    0.0000 C   0  0  0  0  0  0  0  0  0  0  0  0
   -0.0484   -1.9551    0.0000 C   0  0  0  0  0  0  0  0  0  0  0  0
    1.7935    3.0699    0.0000 C   0  0  0  0  0  0  0  0  0  0  0  0
   -1.8419    3.0699    0.0000 C   0  0  0  0  0  0  0  0  0  0  0  0
   -2.6983    1.2280    0.0000 C   0  0  0  0  0  0  0  0  0  0  0  0
   -3.1669    0.5817    0.0000 C   0  0  0  0  0  0  0  0  0  0  0  0
   -2.6175   -1.8904    0.0000 C   0  0  0  0  0  0  0  0  0  0  0  0
   -1.2926   -2.3267    0.0000 C   0  0  0  0  0  0  0  0  0  0  0  0
   -2.9083    2.3267    0.0000 C   0  0  0  0  0  0  0  0  0  0  0  0
    2.8921    2.1328    0.0000 C   0  0  0  0  0  0  0  0  0  0  0  0
   -2.8760   -2.6821    0.0000 C   0  0  0  0  0  0  0  0  0  0  0  0
   -1.5673   -3.1183    0.0000 C   0  0  0  0  0  0  0  0  0  0  0  0
   -3.3284    3.0214    0.0000 C   0  0  0  0  0  0  0  0  0  0  0  0
    3.1507    1.3249    0.0000 C   0  0  0  0  0  0  0  0  0  0  0  0
   -3.3122    1.6319    0.0000 C   0  0  0  0  0  0  0  0  0  0  0  0
    3.4254    2.6983    0.0000 C   0  0  0  0  0  0  0  0  0  0  0  0
   -2.3590   -3.2638    0.0000 C   0  0  0  0  0  0  0  0  0  0  0  0
   -4.1363    3.0214    0.0000 C   0  0  0  0  0  0  0  0  0  0  0  0
    3.9748    1.1795    0.0000 C   0  0  0  0  0  0  0  0  0  0  0  0
   -4.1363    1.6157    0.0000 C   0  0  0  0  0  0  0  0  0  0  0  0
    4.2655    2.5529    0.0000 C   0  0  0  0  0  0  0  0  0  0  0  0
   -4.5564    2.3267    0.0000 C   0  0  0  0  0  0  0  0  0  0  0  0
    4.5564    1.7612    0.0000 C   0  0  0  0  0  0  0  0  0  0  0  0
  1  6  1  0  0  0  0
  1  9  1  0  0  0  0
  1 10  1  0  0  0  0
  2  7  1  0  0  0  0
  2 11  1  0  0  0  0
  2 17  1  0  0  0  0
  3 26  3  0  0  0  0
  4 27  3  0  0  0  0
  5  6  1  0  0  0  0
  5  7  2  0  0  0  0
  5  8  1  0  0  0  0
  6 12  2  0  0  0  0
  7 15  1  0  0  0  0
  8 11  2  0  0  0  0
  8 20  1  0  0  0  0
  9 13  2  0  0  0  0
  9 19  1  0  0  0  0
 10 14  2  0  0  0  0
 10 18  1  0  0  0  0
 11 21  1  0  0  0  0
 12 16  1  0  0  0  0
 12 26  1  0  0  0  0
 13 14  1  0  0  0  0
 13 22  1  0  0  0  0
 14 23  1  0  0  0  0
 15 16  2  0  0  0  0
 15 27  1  0  0  0  0
 17 32  2  0  0  0  0
 17 33  1  0  0  0  0
 18 25  2  0  0  0  0
 19 24  2  0  0  0  0
 20 30  2  0  0  0  0
 21 31  2  0  0  0  0
 22 28  2  0  0  0  0
 23 29  2  0  0  0  0
 24 28  1  0  0  0  0
 24 35  1  0  0  0  0
 25 29  1  0  0  0  0
 25 34  1  0  0  0  0
 30 31  1  0  0  0  0
 32 36  1  0  0  0  0
 33 37  2  0  0  0  0
 34 38  2  0  0  0  0
 34 40  1  0  0  0  0
 35 39  2  0  0  0  0
 35 41  1  0  0  0  0
 36 42  2  0  0  0  0
 37 42  1  0  0  0  0
 38 43  1  0  0  0  0
 39 44  1  0  0  0  0
 40 45  2  0  0  0  0
 41 46  2  0  0  0  0
 43 47  2  0  0  0  0
 44 48  2  0  0  0  0
 45 47  1  0  0  0  0
 46 48  1  0  0  0  0
M  END
> <PUBCHEM_COMPOUND_ID_TYPE>
0

> <PUBCHEM_TOTAL_CHARGE>
0

> <PUBCHEM_SUBSTANCE_ID>
310949147

> <PUBCHEM_SUBSTANCE_VERSION>
1

> <PUBCHEM_EXT_DATASOURCE_NAME>
4488

> <PUBCHEM_EXT_DATASOURCE_REGID>
SCHEMBL16127337

> <PUBCHEM_SUBSTANCE_COMMENT>
InChI=1S/C44H26N4/c45-27-33-24-34(28-46)44(42-38-18-10-11-19-39(38)47(43(33)42)35-16-8-3-9-17-35)48-40-25-31(29-12-4-1-5-13-29)20-22-36(40)37-23-21-32(26-41(37)48)30-14-6-2-7-15-30/h1-26H
InChIKey=YXFJAEFBPFLQDW-UHFFFAOYSA-N

> <PUBCHEM_SUBSTANCE_SYNONYM>
SCHEMBL16127337

> <PUBCHEM_XREF_EXT_ID>
SCHEMBL16127337

> <PUBCHEM_EXT_DATASOURCE_URL>
https://www.surechembl.org/

> <PUBCHEM_EXT_SUBSTANCE_URL>
https://www.surechembl.org/chemical/SCHEMBL16127337

> <PUBCHEM_CID_ASSOCIATIONS>
117614643  1

> <PUBCHEM_COORDINATE_TYPE>
1
3

$$$$
