310945169
  -OEChem-07211613022D

 30 34  0     0  0  0  0  0  0999 V2000
   -3.0290   -1.9275    0.0000 O   0  0  0  0  0  0  0  0  0  0  0  0
    4.0079    1.3279    0.0000 O   0  0  0  0  0  0  0  0  0  0  0  0
   -4.3262    0.7893    0.0000 O   0  0  0  0  0  0  0  0  0  0  0  0
    2.6985   -0.4345    0.0000 N   0  0  0  0  0  0  0  0  0  0  0  0
   -3.3593   -0.2876    0.0000 N   0  0  0  0  0  0  0  0  0  0  0  0
    0.2264    0.0673    0.0000 N   0  0  0  0  0  0  0  0  0  0  0  0
   -0.7282    1.1442    0.0000 N   0  0  0  0  0  0  0  0  0  0  0  0
    4.3262   -0.0796    0.0000 N   0  0  0  0  0  0  0  0  0  0  0  0
    1.6093    0.3733    0.0000 C   0  0  0  0  0  0  0  0  0  0  0  0
   -2.5883   -0.5324    0.0000 C   0  0  0  0  0  0  0  0  0  0  0  0
    2.9555    0.3855    0.0000 C   0  0  0  0  0  0  0  0  0  0  0  0
    0.8261    0.6425    0.0000 C   0  0  0  0  0  0  0  0  0  0  0  0
   -1.1932   -0.2386    0.0000 C   0  0  0  0  0  0  0  0  0  0  0  0
   -0.5813    0.3366    0.0000 C   0  0  0  0  0  0  0  0  0  0  0  0
   -2.4048   -1.3400    0.0000 C   0  0  0  0  0  0  0  0  0  0  0  0
    2.2702    0.8628    0.0000 C   0  0  0  0  0  0  0  0  0  0  0  0
    1.8663   -0.4100    0.0000 C   0  0  0  0  0  0  0  0  0  0  0  0
   -1.9642    0.0306    0.0000 C   0  0  0  0  0  0  0  0  0  0  0  0
    3.7387    0.5446    0.0000 C   0  0  0  0  0  0  0  0  0  0  0  0
   -1.0219   -1.0463    0.0000 C   0  0  0  0  0  0  0  0  0  0  0  0
   -1.6215   -1.5971    0.0000 C   0  0  0  0  0  0  0  0  0  0  0  0
    0.6548    1.4624    0.0000 C   0  0  0  0  0  0  0  0  0  0  0  0
    3.2369   -1.0341    0.0000 C   0  0  0  0  0  0  0  0  0  0  0  0
   -3.5184    0.5446    0.0000 C   0  0  0  0  0  0  0  0  0  0  0  0
   -3.9345   -0.8506    0.0000 C   0  0  0  0  0  0  0  0  0  0  0  0
   -0.1285    1.7194    0.0000 C   0  0  0  0  0  0  0  0  0  0  0  0
   -3.8121   -1.6460    0.0000 C   0  0  0  0  0  0  0  0  0  0  0  0
    4.0447   -0.8750    0.0000 C   0  0  0  0  0  0  0  0  0  0  0  0
   -2.9310    1.1198    0.0000 C   0  0  0  0  0  0  0  0  0  0  0  0
   -3.1758    1.9275    0.0000 C   0  0  0  0  0  0  0  0  0  0  0  0
  1 15  1  0  0  0  0
  1 27  1  0  0  0  0
  2 19  2  0  0  0  0
  3 24  2  0  0  0  0
  4 11  1  0  0  0  0
  4 17  1  0  0  0  0
  4 23  1  0  0  0  0
  5 10  1  0  0  0  0
  5 24  1  0  0  0  0
  5 25  1  0  0  0  0
  6 12  1  0  0  0  0
  6 14  2  0  0  0  0
  7 14  1  0  0  0  0
  7 26  2  0  0  0  0
  8 19  1  0  0  0  0
  8 28  1  0  0  0  0
  9 12  1  0  0  0  0
  9 16  1  0  0  0  0
  9 17  2  0  0  0  0
 10 15  2  0  0  0  0
 10 18  1  0  0  0  0
 11 16  2  0  0  0  0
 11 19  1  0  0  0  0
 12 22  2  0  0  0  0
 13 14  1  0  0  0  0
 13 18  2  0  0  0  0
 13 20  1  0  0  0  0
 15 21  1  0  0  0  0
 20 21  2  0  0  0  0
 22 26  1  0  0  0  0
 23 28  1  0  0  0  0
 24 29  1  0  0  0  0
 25 27  1  0  0  0  0
 29 30  2  0  0  0  0
M  END
> <PUBCHEM_COMPOUND_ID_TYPE>
0

> <PUBCHEM_TOTAL_CHARGE>
0

> <PUBCHEM_SUBSTANCE_ID>
310945169

> <PUBCHEM_SUBSTANCE_VERSION>
1

> <PUBCHEM_EXT_DATASOURCE_NAME>
4488

> <PUBCHEM_EXT_DATASOURCE_REGID>
SCHEMBL16123259

> <PUBCHEM_SUBSTANCE_COMMENT>
InChI=1S/C22H19N5O3/c1-2-20(28)27-9-10-30-19-4-3-14(11-17(19)27)21-23-6-5-16(25-21)15-12-18-22(29)24-7-8-26(18)13-15/h2-6,11-13H,1,7-10H2,(H,24,29)
InChIKey=ADQUCUIYTYKRFQ-UHFFFAOYSA-N

> <PUBCHEM_SUBSTANCE_SYNONYM>
SCHEMBL16123259

> <PUBCHEM_XREF_EXT_ID>
SCHEMBL16123259

> <PUBCHEM_EXT_DATASOURCE_URL>
https://www.surechembl.org/

> <PUBCHEM_EXT_SUBSTANCE_URL>
https://www.surechembl.org/chemical/SCHEMBL16123259

> <PUBCHEM_CID_ASSOCIATIONS>
117611255  1

> <PUBCHEM_COORDINATE_TYPE>
1
3

$$$$
