310949135
  -OEChem-07211613022D

 43 50  0     0  0  0  0  0  0999 V2000
   -0.0458    0.3585    0.0000 N   0  0  0  0  0  0  0  0  0  0  0  0
   -2.1816   -0.1449    0.0000 N   0  0  0  0  0  0  0  0  0  0  0  0
    2.1053   -0.0534    0.0000 N   0  0  0  0  0  0  0  0  0  0  0  0
   -0.0305   -3.7454    0.0000 N   0  0  0  0  0  0  0  0  0  0  0  0
    0.6255    0.8773    0.0000 C   0  0  0  0  0  0  0  0  0  0  0  0
   -0.7324    0.8467    0.0000 C   0  0  0  0  0  0  0  0  0  0  0  0
   -0.4730    1.6248    0.0000 C   0  0  0  0  0  0  0  0  0  0  0  0
    0.3661    1.6248    0.0000 C   0  0  0  0  0  0  0  0  0  0  0  0
    1.9986    1.3196    0.0000 C   0  0  0  0  0  0  0  0  0  0  0  0
   -2.0748    1.2434    0.0000 C   0  0  0  0  0  0  0  0  0  0  0  0
    1.7392    2.0824    0.0000 C   0  0  0  0  0  0  0  0  0  0  0  0
   -1.8155    2.0214    0.0000 C   0  0  0  0  0  0  0  0  0  0  0  0
    2.8834    1.3349    0.0000 C   0  0  0  0  0  0  0  0  0  0  0  0
   -2.9444    1.2434    0.0000 C   0  0  0  0  0  0  0  0  0  0  0  0
    1.4494    0.7247    0.0000 C   0  0  0  0  0  0  0  0  0  0  0  0
   -1.5104    0.6789    0.0000 C   0  0  0  0  0  0  0  0  0  0  0  0
   -1.0069    2.1892    0.0000 C   0  0  0  0  0  0  0  0  0  0  0  0
    0.9459    2.2350    0.0000 C   0  0  0  0  0  0  0  0  0  0  0  0
   -0.0458   -0.4500    0.0000 C   0  0  0  0  0  0  0  0  0  0  0  0
    2.4258    2.5859    0.0000 C   0  0  0  0  0  0  0  0  0  0  0  0
   -2.5173    2.4944    0.0000 C   0  0  0  0  0  0  0  0  0  0  0  0
    3.1579    2.1129    0.0000 C   0  0  0  0  0  0  0  0  0  0  0  0
   -3.1885    2.0062    0.0000 C   0  0  0  0  0  0  0  0  0  0  0  0
   -0.7476   -0.8773    0.0000 C   0  0  0  0  0  0  0  0  0  0  0  0
    0.6866   -0.8467    0.0000 C   0  0  0  0  0  0  0  0  0  0  0  0
    2.5478    3.3945    0.0000 C   0  0  0  0  0  0  0  0  0  0  0  0
   -2.6088    3.2877    0.0000 C   0  0  0  0  0  0  0  0  0  0  0  0
    3.9055    2.4639    0.0000 C   0  0  0  0  0  0  0  0  0  0  0  0
   -3.9360    2.3112    0.0000 C   0  0  0  0  0  0  0  0  0  0  0  0
    3.7530    1.3349    0.0000 C   0  0  0  0  0  0  0  0  0  0  0  0
    3.4022    0.6789    0.0000 C   0  0  0  0  0  0  0  0  0  0  0  0
   -3.4174    0.5417    0.0000 C   0  0  0  0  0  0  0  0  0  0  0  0
   -3.7682    1.2281    0.0000 C   0  0  0  0  0  0  0  0  0  0  0  0
   -0.7476   -1.6858    0.0000 C   0  0  0  0  0  0  0  0  0  0  0  0
    0.6866   -1.6553    0.0000 C   0  0  0  0  0  0  0  0  0  0  0  0
   -0.0305   -2.0672    0.0000 C   0  0  0  0  0  0  0  0  0  0  0  0
    3.3259    3.7454    0.0000 C   0  0  0  0  0  0  0  0  0  0  0  0
   -3.3716    3.5929    0.0000 C   0  0  0  0  0  0  0  0  0  0  0  0
    4.0124    3.2725    0.0000 C   0  0  0  0  0  0  0  0  0  0  0  0
   -4.0124    3.1351    0.0000 C   0  0  0  0  0  0  0  0  0  0  0  0
   -1.4799   -0.4959    0.0000 C   0  0  0  0  0  0  0  0  0  0  0  0
    1.4036   -0.4347    0.0000 C   0  0  0  0  0  0  0  0  0  0  0  0
   -0.0305   -2.9368    0.0000 C   0  0  0  0  0  0  0  0  0  0  0  0
  1  5  1  0  0  0  0
  1  6  1  0  0  0  0
  1 19  1  0  0  0  0
  2 41  3  0  0  0  0
  3 42  3  0  0  0  0
  4 43  3  0  0  0  0
  5  8  2  0  0  0  0
  5 15  1  0  0  0  0
  6  7  2  0  0  0  0
  6 16  1  0  0  0  0
  7  8  1  0  0  0  0
  7 17  1  0  0  0  0
  8 18  1  0  0  0  0
  9 11  1  0  0  0  0
  9 13  1  0  0  0  0
  9 15  2  0  0  0  0
 10 12  1  0  0  0  0
 10 14  1  0  0  0  0
 10 16  2  0  0  0  0
 11 18  2  0  0  0  0
 11 20  1  0  0  0  0
 12 17  2  0  0  0  0
 12 21  1  0  0  0  0
 13 22  1  0  0  0  0
 13 30  1  0  0  0  0
 13 31  1  0  0  0  0
 14 23  1  0  0  0  0
 14 32  1  0  0  0  0
 14 33  1  0  0  0  0
 19 24  2  0  0  0  0
 19 25  1  0  0  0  0
 20 22  2  0  0  0  0
 20 26  1  0  0  0  0
 21 23  2  0  0  0  0
 21 27  1  0  0  0  0
 22 28  1  0  0  0  0
 23 29  1  0  0  0  0
 24 34  1  0  0  0  0
 24 41  1  0  0  0  0
 25 35  2  0  0  0  0
 25 42  1  0  0  0  0
 26 37  2  0  0  0  0
 27 38  2  0  0  0  0
 28 39  2  0  0  0  0
 29 40  2  0  0  0  0
 34 36  2  0  0  0  0
 35 36  1  0  0  0  0
 36 43  1  0  0  0  0
 37 39  1  0  0  0  0
 38 40  1  0  0  0  0
M  END
> <PUBCHEM_COMPOUND_ID_TYPE>
0

> <PUBCHEM_TOTAL_CHARGE>
0

> <PUBCHEM_SUBSTANCE_ID>
310949135

> <PUBCHEM_SUBSTANCE_VERSION>
1

> <PUBCHEM_EXT_DATASOURCE_NAME>
4488

> <PUBCHEM_EXT_DATASOURCE_REGID>
SCHEMBL16127325

> <PUBCHEM_SUBSTANCE_COMMENT>
InChI=1S/C39H26N4/c1-38(2)31-11-7-5-9-25(31)27-15-29-30-16-28-26-10-6-8-12-32(26)39(3,4)34(28)18-36(30)43(35(29)17-33(27)38)37-23(20-41)13-22(19-40)14-24(37)21-42/h5-18H,1-4H3
InChIKey=QESIRJKMBVCYKP-UHFFFAOYSA-N

> <PUBCHEM_SUBSTANCE_SYNONYM>
SCHEMBL16127325

> <PUBCHEM_XREF_EXT_ID>
SCHEMBL16127325

> <PUBCHEM_EXT_DATASOURCE_URL>
https://www.surechembl.org/

> <PUBCHEM_EXT_SUBSTANCE_URL>
https://www.surechembl.org/chemical/SCHEMBL16127325

> <PUBCHEM_CID_ASSOCIATIONS>
117614632  1

> <PUBCHEM_COORDINATE_TYPE>
1
3

$$$$
