310929998
  -OEChem-07211613022D

 45 44  0     0  0  0  0  0  0999 V2000
   -0.5743   -1.1566    0.0000 O   0  0  0  0  0  0  0  0  0  0  0  0
   -2.0033   -1.1566    0.0000 O   0  0  0  0  0  0  0  0  0  0  0  0
   -1.2888   -2.3941    0.0000 N   0  0  0  0  0  0  0  0  0  0  0  0
    0.1401    0.9059    0.0000 N   0  0  0  0  0  0  0  0  0  0  0  0
   -1.2888   -1.5691    0.0000 C   0  0  0  0  0  0  0  0  0  0  0  0
   -2.0033   -2.8066    0.0000 C   0  0  0  0  0  0  0  0  0  0  0  0
   -0.5743   -2.8066    0.0000 C   0  0  0  0  0  0  0  0  0  0  0  0
   -2.7177   -2.3941    0.0000 C   0  0  0  0  0  0  0  0  0  0  0  0
    0.1401   -2.3941    0.0000 C   0  0  0  0  0  0  0  0  0  0  0  0
   -0.5743   -0.3316    0.0000 C   0  0  0  0  0  0  0  0  0  0  0  0
    0.1401    0.0809    0.0000 C   0  0  0  0  0  0  0  0  0  0  0  0
   -2.7177   -1.5691    0.0000 C   0  0  0  0  0  0  0  0  0  0  0  0
    0.8546   -2.8066    0.0000 C   0  0  0  0  0  0  0  0  0  0  0  0
   -3.4322   -1.1566    0.0000 C   0  0  0  0  0  0  0  0  0  0  0  0
    1.5691   -2.3941    0.0000 C   0  0  0  0  0  0  0  0  0  0  0  0
   -4.1467   -1.5691    0.0000 C   0  0  0  0  0  0  0  0  0  0  0  0
    1.5691   -1.5691    0.0000 C   0  0  0  0  0  0  0  0  0  0  0  0
    0.8546    1.3184    0.0000 C   0  0  0  0  0  0  0  0  0  0  0  0
   -0.5743    1.3184    0.0000 C   0  0  0  0  0  0  0  0  0  0  0  0
   -4.1467   -2.3941    0.0000 C   0  0  0  0  0  0  0  0  0  0  0  0
    2.2836   -1.1566    0.0000 C   0  0  0  0  0  0  0  0  0  0  0  0
   -4.8612   -2.8066    0.0000 C   0  0  0  0  0  0  0  0  0  0  0  0
    2.2836   -0.3316    0.0000 C   0  0  0  0  0  0  0  0  0  0  0  0
   -4.8612   -3.6316    0.0000 C   0  0  0  0  0  0  0  0  0  0  0  0
    2.9980    0.0809    0.0000 C   0  0  0  0  0  0  0  0  0  0  0  0
   -5.5756   -4.0441    0.0000 C   0  0  0  0  0  0  0  0  0  0  0  0
    2.9980    0.9059    0.0000 C   0  0  0  0  0  0  0  0  0  0  0  0
   -6.2901   -3.6316    0.0000 C   0  0  0  0  0  0  0  0  0  0  0  0
    3.7125    1.3184    0.0000 C   0  0  0  0  0  0  0  0  0  0  0  0
   -7.0046   -4.0441    0.0000 C   0  0  0  0  0  0  0  0  0  0  0  0
    3.7125    2.1434    0.0000 C   0  0  0  0  0  0  0  0  0  0  0  0
   -7.7190   -3.6316    0.0000 C   0  0  0  0  0  0  0  0  0  0  0  0
    4.4270    2.5559    0.0000 C   0  0  0  0  0  0  0  0  0  0  0  0
   -8.4335   -4.0441    0.0000 C   0  0  0  0  0  0  0  0  0  0  0  0
    5.1414    2.1434    0.0000 C   0  0  0  0  0  0  0  0  0  0  0  0
   -9.1480   -3.6316    0.0000 C   0  0  0  0  0  0  0  0  0  0  0  0
    5.8559    2.5559    0.0000 C   0  0  0  0  0  0  0  0  0  0  0  0
   -9.8624   -4.0441    0.0000 C   0  0  0  0  0  0  0  0  0  0  0  0
    6.5704    2.1434    0.0000 C   0  0  0  0  0  0  0  0  0  0  0  0
  -10.5769   -3.6316    0.0000 C   0  0  0  0  0  0  0  0  0  0  0  0
    7.2849    2.5559    0.0000 C   0  0  0  0  0  0  0  0  0  0  0  0
  -11.2914   -4.0441    0.0000 C   0  0  0  0  0  0  0  0  0  0  0  0
    7.9993    2.1434    0.0000 C   0  0  0  0  0  0  0  0  0  0  0  0
  -12.0059   -3.6316    0.0000 C   0  0  0  0  0  0  0  0  0  0  0  0
    8.7138    2.5559    0.0000 C   0  0  0  0  0  0  0  0  0  0  0  0
  1  5  1  0  0  0  0
  1 10  1  0  0  0  0
  2  5  2  0  0  0  0
  3  5  1  0  0  0  0
  3  6  1  0  0  0  0
  3  7  1  0  0  0  0
  4 11  1  0  0  0  0
  4 18  1  0  0  0  0
  4 19  1  0  0  0  0
  6  8  1  0  0  0  0
  7  9  1  0  0  0  0
  8 12  2  0  0  0  0
  9 13  2  0  0  0  0
 10 11  1  0  0  0  0
 12 14  1  0  0  0  0
 13 15  1  0  0  0  0
 14 16  1  0  0  0  0
 15 17  1  0  0  0  0
 16 20  1  0  0  0  0
 17 21  1  0  0  0  0
 20 22  1  0  0  0  0
 21 23  1  0  0  0  0
 22 24  1  0  0  0  0
 23 25  1  0  0  0  0
 24 26  1  0  0  0  0
 25 27  1  0  0  0  0
 26 28  2  0  0  0  0
 27 29  2  0  0  0  0
 28 30  1  0  0  0  0
 29 31  1  0  0  0  0
 30 32  1  0  0  0  0
 31 33  1  0  0  0  0
 32 34  1  0  0  0  0
 33 35  1  0  0  0  0
 34 36  1  0  0  0  0
 35 37  1  0  0  0  0
 36 38  1  0  0  0  0
 37 39  1  0  0  0  0
 38 40  1  0  0  0  0
 39 41  1  0  0  0  0
 40 42  1  0  0  0  0
 41 43  1  0  0  0  0
 42 44  1  0  0  0  0
 43 45  1  0  0  0  0
M  END
> <PUBCHEM_COMPOUND_ID_TYPE>
0

> <PUBCHEM_TOTAL_CHARGE>
0

> <PUBCHEM_SUBSTANCE_ID>
310929998

> <PUBCHEM_SUBSTANCE_VERSION>
1

> <PUBCHEM_EXT_DATASOURCE_NAME>
4488

> <PUBCHEM_EXT_DATASOURCE_REGID>
SCHEMBL16107236

> <PUBCHEM_SUBSTANCE_COMMENT>
InChI=1S/C41H76N2O2/c1-5-7-9-11-13-15-17-19-21-23-25-27-29-31-33-35-37-43(41(44)45-40-39-42(3)4)38-36-34-32-30-28-26-24-22-20-18-16-14-12-10-8-6-2/h19-22,33-36H,5-18,23-32,37-40H2,1-4H3
InChIKey=WVKXEKLCCQVTTL-UHFFFAOYSA-N

> <PUBCHEM_SUBSTANCE_SYNONYM>
SCHEMBL16107236

> <PUBCHEM_XREF_EXT_ID>
SCHEMBL16107236

> <PUBCHEM_EXT_DATASOURCE_URL>
https://www.surechembl.org/

> <PUBCHEM_EXT_SUBSTANCE_URL>
https://www.surechembl.org/chemical/SCHEMBL16107236

> <PUBCHEM_CID_ASSOCIATIONS>
117599251  1

> <PUBCHEM_COORDINATE_TYPE>
1
3

> <PUBCHEM_BONDANNOTATIONS>
26  24  3
27  25  3
8  6  3
9  7  3

$$$$
