310934137
  -OEChem-07211613022D

 25 27  0     0  0  0  0  0  0999 V2000
    6.5541   -0.7309    0.0000 S   0  0  0  0  0  0  0  0  0  0  0  0
    2.0983   -4.7152    0.0000 F   0  0  0  0  0  0  0  0  0  0  0  0
    0.8959   -2.1218    0.0000 F   0  0  0  0  0  0  0  0  0  0  0  0
    2.9470   -3.4892    0.0000 O   0  0  0  0  0  0  0  0  0  0  0  0
    3.6071    0.0000    0.0000 O   0  0  0  0  0  0  0  0  0  0  0  0
    2.7820   -1.4381    0.0000 O   0  0  0  0  0  0  0  0  0  0  0  0
    4.4559   -1.4381    0.0000 N   0  0  0  0  0  0  0  0  0  0  0  0
    3.5835   -2.9234    0.0000 N   0  0  0  0  0  0  0  0  0  0  0  0
    3.6071   -1.4381    0.0000 N   0  0  0  0  0  0  0  0  0  0  0  0
    4.8566   -0.7309    0.0000 C   0  0  0  0  0  0  0  0  0  0  0  0
    1.4853   -3.4185    0.0000 C   0  0  0  0  0  0  0  0  0  0  0  0
    2.2397   -3.0649    0.0000 C   0  0  0  0  0  0  0  0  0  0  0  0
    3.2299   -2.1690    0.0000 C   0  0  0  0  0  0  0  0  0  0  0  0
    4.0315   -0.7309    0.0000 C   0  0  0  0  0  0  0  0  0  0  0  0
    2.4047   -2.2633    0.0000 C   0  0  0  0  0  0  0  0  0  0  0  0
    1.4146   -4.2437    0.0000 C   0  0  0  0  0  0  0  0  0  0  0  0
    0.8251   -2.9470    0.0000 C   0  0  0  0  0  0  0  0  0  0  0  0
    5.3046   -1.4381    0.0000 C   0  0  0  0  0  0  0  0  0  0  0  0
    5.3046   -0.0236    0.0000 C   0  0  0  0  0  0  0  0  0  0  0  0
    3.7957   -1.6031    0.0000 C   0  0  0  0  0  0  0  0  0  0  0  0
    0.6837   -4.5973    0.0000 C   0  0  0  0  0  0  0  0  0  0  0  0
    0.0943   -3.3006    0.0000 C   0  0  0  0  0  0  0  0  0  0  0  0
    6.1062   -1.4381    0.0000 C   0  0  0  0  0  0  0  0  0  0  0  0
    6.1062   -0.0236    0.0000 C   0  0  0  0  0  0  0  0  0  0  0  0
    0.0000   -4.1022    0.0000 C   0  0  0  0  0  0  0  0  0  0  0  0
  1 23  1  0  0  0  0
  1 24  1  0  0  0  0
  2 16  1  0  0  0  0
  3 17  1  0  0  0  0
  4  8  1  0  0  0  0
  4 12  1  0  0  0  0
  5 14  2  0  0  0  0
  6  9  1  0  0  0  0
  7 10  1  0  0  0  0
  7 20  1  0  0  0  0
  8 13  2  0  0  0  0
  9 14  1  0  0  0  0
 10 14  1  0  0  0  0
 10 18  1  0  0  0  0
 10 19  1  0  0  0  0
 11 12  1  0  0  0  0
 11 16  2  0  0  0  0
 11 17  1  0  0  0  0
 12 15  2  0  0  0  0
 13 15  1  0  0  0  0
 13 20  1  0  0  0  0
 16 21  1  0  0  0  0
 17 22  2  0  0  0  0
 18 23  1  0  0  0  0
 19 24  1  0  0  0  0
 21 25  2  0  0  0  0
 22 25  1  0  0  0  0
M  END
> <PUBCHEM_COMPOUND_ID_TYPE>
0

> <PUBCHEM_TOTAL_CHARGE>
0

> <PUBCHEM_SUBSTANCE_ID>
310934137

> <PUBCHEM_SUBSTANCE_VERSION>
1

> <PUBCHEM_EXT_DATASOURCE_NAME>
4488

> <PUBCHEM_EXT_DATASOURCE_REGID>
SCHEMBL16111585

> <PUBCHEM_SUBSTANCE_COMMENT>
InChI=1S/C16H17F2N3O3S/c17-11-2-1-3-12(18)14(11)13-8-10(21-24-13)9-19-16(15(22)20-23)4-6-25-7-5-16/h1-3,8,19,23H,4-7,9H2,(H,20,22)
InChIKey=SMVMGXGBXOLPQB-UHFFFAOYSA-N

> <PUBCHEM_SUBSTANCE_SYNONYM>
SCHEMBL16111585

> <PUBCHEM_XREF_EXT_ID>
SCHEMBL16111585

> <PUBCHEM_EXT_DATASOURCE_URL>
https://www.surechembl.org/

> <PUBCHEM_EXT_SUBSTANCE_URL>
https://www.surechembl.org/chemical/SCHEMBL16111585

> <PUBCHEM_CID_ASSOCIATIONS>
117602414  1

> <PUBCHEM_COORDINATE_TYPE>
1
3

$$$$
