310941742
  -OEChem-07211613022D

 36 39  0     0  0  0  0  0  0999 V2000
   -2.0340   -1.6463    0.0000 F   0  0  0  0  0  0  0  0  0  0  0  0
   -2.0340   -2.4620    0.0000 F   0  0  0  0  0  0  0  0  0  0  0  0
   -1.3090   -2.8849    0.0000 F   0  0  0  0  0  0  0  0  0  0  0  0
   -0.6041   -1.6463    0.0000 O   0  0  0  0  0  0  0  0  0  0  0  0
   -1.3292    2.8849    0.0000 O   0  0  0  0  0  0  0  0  0  0  0  0
    1.5607    0.4178    0.0000 O   0  0  0  0  0  0  0  0  0  0  0  0
    4.4506    0.4178    0.0000 O   0  0  0  0  0  0  0  0  0  0  0  0
   -3.3531    1.3644    0.0000 N   0  0  0  0  0  0  0  0  0  0  0  0
   -2.7993    1.9887    0.0000 N   0  0  0  0  0  0  0  0  0  0  0  0
   -0.5840    1.6564    0.0000 N   0  0  0  0  0  0  0  0  0  0  0  0
    0.8560   -0.8207    0.0000 N   0  0  0  0  0  0  0  0  0  0  0  0
    3.0208   -0.4078    0.0000 N   0  0  0  0  0  0  0  0  0  0  0  0
   -2.9402    0.6695    0.0000 C   0  0  0  0  0  0  0  0  0  0  0  0
   -2.0541    1.6665    0.0000 C   0  0  0  0  0  0  0  0  0  0  0  0
    0.1208   -0.3776    0.0000 C   0  0  0  0  0  0  0  0  0  0  0  0
   -0.5941   -0.8005    0.0000 C   0  0  0  0  0  0  0  0  0  0  0  0
   -1.3292    2.0591    0.0000 C   0  0  0  0  0  0  0  0  0  0  0  0
   -2.1347    0.8409    0.0000 C   0  0  0  0  0  0  0  0  0  0  0  0
   -0.6041    0.8509    0.0000 C   0  0  0  0  0  0  0  0  0  0  0  0
   -3.2927   -0.0856    0.0000 C   0  0  0  0  0  0  0  0  0  0  0  0
    0.1208    0.4279    0.0000 C   0  0  0  0  0  0  0  0  0  0  0  0
   -1.3090   -0.3876    0.0000 C   0  0  0  0  0  0  0  0  0  0  0  0
   -1.3090    0.4380    0.0000 C   0  0  0  0  0  0  0  0  0  0  0  0
   -1.3292   -2.0390    0.0000 C   0  0  0  0  0  0  0  0  0  0  0  0
   -4.1184   -0.1762    0.0000 C   0  0  0  0  0  0  0  0  0  0  0  0
   -2.8093   -0.7402    0.0000 C   0  0  0  0  0  0  0  0  0  0  0  0
    1.5607   -0.4078    0.0000 C   0  0  0  0  0  0  0  0  0  0  0  0
   -4.1889    1.4551    0.0000 C   0  0  0  0  0  0  0  0  0  0  0  0
    2.3059   -0.8005    0.0000 C   0  0  0  0  0  0  0  0  0  0  0  0
   -4.4506   -0.9314    0.0000 C   0  0  0  0  0  0  0  0  0  0  0  0
   -3.1316   -1.4853    0.0000 C   0  0  0  0  0  0  0  0  0  0  0  0
   -3.9673   -1.5758    0.0000 C   0  0  0  0  0  0  0  0  0  0  0  0
    3.7559   -0.8005    0.0000 C   0  0  0  0  0  0  0  0  0  0  0  0
    3.0208    0.4380    0.0000 C   0  0  0  0  0  0  0  0  0  0  0  0
    4.4506   -0.3876    0.0000 C   0  0  0  0  0  0  0  0  0  0  0  0
    3.7258    0.8308    0.0000 C   0  0  0  0  0  0  0  0  0  0  0  0
  1 24  1  0  0  0  0
  2 24  1  0  0  0  0
  3 24  1  0  0  0  0
  4 16  1  0  0  0  0
  4 24  1  0  0  0  0
  5 17  2  0  0  0  0
  6 27  2  0  0  0  0
  7 35  1  0  0  0  0
  7 36  1  0  0  0  0
  8  9  1  0  0  0  0
  8 13  1  0  0  0  0
  8 28  1  0  0  0  0
  9 14  2  0  0  0  0
 10 17  1  0  0  0  0
 10 19  1  0  0  0  0
 11 15  1  0  0  0  0
 11 27  1  0  0  0  0
 12 29  1  0  0  0  0
 12 33  1  0  0  0  0
 12 34  1  0  0  0  0
 13 18  2  0  0  0  0
 13 20  1  0  0  0  0
 14 17  1  0  0  0  0
 14 18  1  0  0  0  0
 15 16  2  0  0  0  0
 15 21  1  0  0  0  0
 16 22  1  0  0  0  0
 19 21  2  0  0  0  0
 19 23  1  0  0  0  0
 20 25  2  0  0  0  0
 20 26  1  0  0  0  0
 22 23  2  0  0  0  0
 25 30  1  0  0  0  0
 26 31  2  0  0  0  0
 27 29  1  0  0  0  0
 30 32  2  0  0  0  0
 31 32  1  0  0  0  0
 33 35  1  0  0  0  0
 34 36  1  0  0  0  0
M  END
> <PUBCHEM_COMPOUND_ID_TYPE>
0

> <PUBCHEM_TOTAL_CHARGE>
0

> <PUBCHEM_SUBSTANCE_ID>
310941742

> <PUBCHEM_SUBSTANCE_VERSION>
1

> <PUBCHEM_EXT_DATASOURCE_NAME>
4488

> <PUBCHEM_EXT_DATASOURCE_REGID>
SCHEMBL16119773

> <PUBCHEM_SUBSTANCE_COMMENT>
InChI=1S/C24H24F3N5O4/c1-31-20(16-5-3-2-4-6-16)14-19(30-31)23(34)28-17-7-8-21(36-24(25,26)27)18(13-17)29-22(33)15-32-9-11-35-12-10-32/h2-8,13-14H,9-12,15H2,1H3,(H,28,34)(H,29,33)
InChIKey=PWDFOYVZPHGTPV-UHFFFAOYSA-N

> <PUBCHEM_SUBSTANCE_SYNONYM>
SCHEMBL16119773

> <PUBCHEM_XREF_EXT_ID>
SCHEMBL16119773

> <PUBCHEM_EXT_DATASOURCE_URL>
https://www.surechembl.org/

> <PUBCHEM_EXT_SUBSTANCE_URL>
https://www.surechembl.org/chemical/SCHEMBL16119773

> <PUBCHEM_CID_ASSOCIATIONS>
117608507  1

> <PUBCHEM_COORDINATE_TYPE>
1
3

$$$$
