310937296
  -OEChem-07211613022D

 46 50  0     1  0  0  0  0  0999 V2000
    4.5583   -3.5833    0.0000 F   0  0  0  0  0  0  0  0  0  0  0  0
    4.0734   -2.9158    0.0000 F   0  0  0  0  0  0  0  0  0  0  0  0
    4.2228   -4.3370    0.0000 F   0  0  0  0  0  0  0  0  0  0  0  0
    1.0901   -6.1030    0.0000 F   0  0  0  0  0  0  0  0  0  0  0  0
    1.9107   -6.0168    0.0000 F   0  0  0  0  0  0  0  0  0  0  0  0
    0.6052   -5.4356    0.0000 F   0  0  0  0  0  0  0  0  0  0  0  0
    0.3020   -2.5071    0.0000 O   0  0  0  0  0  0  0  0  0  0  0  0
   -0.7376   -1.4675    0.0000 O   0  0  0  0  0  0  0  0  0  0  0  0
   -4.4191   -2.0249    0.0000 O   0  0  0  0  0  0  0  0  0  0  0  0
   -5.5751   -1.1850    0.0000 O   0  0  0  0  0  0  0  0  0  0  0  0
    0.7145   -1.2375    0.0000 N   0  0  0  0  0  0  0  0  0  0  0  0
    0.7145    1.2375    0.0000 N   0  0  3  0  0  0  0  0  0  0  0  0
   -0.7145    1.2375    0.0000 N   0  0  0  0  0  0  0  0  0  0  0  0
   -3.4492   -0.6901    0.0000 N   0  0  0  0  0  0  0  0  0  0  0  0
   -3.0367   -1.4045    0.0000 N   0  0  0  0  0  0  0  0  0  0  0  0
    1.1270   -2.5071    0.0000 C   0  0  3  0  0  0  0  0  0  0  0  0
    1.3820   -1.7224    0.0000 C   0  0  3  0  0  0  0  0  0  0  0  0
    1.6119   -3.1745    0.0000 C   0  0  0  0  0  0  0  0  0  0  0  0
    0.0470   -1.7224    0.0000 C   0  0  0  0  0  0  0  0  0  0  0  0
    0.0000    0.0000    0.0000 C   0  0  0  0  0  0  0  0  0  0  0  0
    2.9174   -3.7557    0.0000 C   0  0  0  0  0  0  0  0  0  0  0  0
    1.7613   -4.5957    0.0000 C   0  0  0  0  0  0  0  0  0  0  0  0
    0.7145   -0.4125    0.0000 C   0  0  0  0  0  0  0  0  0  0  0  0
    1.2764   -3.9282    0.0000 C   0  0  0  0  0  0  0  0  0  0  0  0
    2.4324   -3.0883    0.0000 C   0  0  0  0  0  0  0  0  0  0  0  0
    0.0000    0.8250    0.0000 C   0  0  0  0  0  0  0  0  0  0  0  0
    2.5818   -4.5094    0.0000 C   0  0  0  0  0  0  0  0  0  0  0  0
    3.7378   -3.6695    0.0000 C   0  0  0  0  0  0  0  0  0  0  0  0
    1.4257   -5.3494    0.0000 C   0  0  0  0  0  0  0  0  0  0  0  0
   -1.4290    0.0000    0.0000 C   0  0  0  0  0  0  0  0  0  0  0  0
   -0.7145   -0.4125    0.0000 C   0  0  0  0  0  0  0  0  0  0  0  0
   -2.1434   -0.4125    0.0000 C   0  0  0  0  0  0  0  0  0  0  0  0
    2.1665   -1.4675    0.0000 C   0  0  0  0  0  0  0  0  0  0  0  0
   -1.4290    0.8250    0.0000 C   0  0  0  0  0  0  0  0  0  0  0  0
    0.7145    2.0625    0.0000 C   0  0  0  0  0  0  0  0  0  0  0  0
   -2.8971   -0.0770    0.0000 C   0  0  0  0  0  0  0  0  0  0  0  0
   -2.2297   -1.2330    0.0000 C   0  0  0  0  0  0  0  0  0  0  0  0
    1.4290    0.8250    0.0000 C   0  0  0  0  0  0  0  0  0  0  0  0
    0.0000    2.4750    0.0000 C   0  0  0  0  0  0  0  0  0  0  0  0
    1.4290    2.4750    0.0000 C   0  0  0  0  0  0  0  0  0  0  0  0
   -4.2697   -0.6038    0.0000 C   0  0  0  0  0  0  0  0  0  0  0  0
    0.0000    3.3000    0.0000 C   0  0  0  0  0  0  0  0  0  0  0  0
    1.4290    3.3000    0.0000 C   0  0  0  0  0  0  0  0  0  0  0  0
    2.1434    1.2375    0.0000 C   0  0  0  0  0  0  0  0  0  0  0  0
    0.7145    3.7126    0.0000 C   0  0  0  0  0  0  0  0  0  0  0  0
   -4.7546   -1.2713    0.0000 C   0  0  0  0  0  0  0  0  0  0  0  0
  1 28  1  0  0  0  0
  2 28  1  0  0  0  0
  3 28  1  0  0  0  0
  4 29  1  0  0  0  0
  5 29  1  0  0  0  0
  6 29  1  0  0  0  0
 16  7  1  1  0  0  0
  7 19  1  0  0  0  0
  8 19  2  0  0  0  0
  9 46  2  0  0  0  0
 10 46  1  0  0  0  0
 11 17  1  0  0  0  0
 11 19  1  0  0  0  0
 11 23  1  0  0  0  0
 12 26  1  0  0  0  0
 12 35  1  0  0  0  0
 12 38  1  0  0  0  0
 13 26  1  0  0  0  0
 13 34  2  0  0  0  0
 14 15  1  0  0  0  0
 14 36  1  0  0  0  0
 14 41  1  0  0  0  0
 15 37  2  0  0  0  0
 16 17  1  0  0  0  0
 16 18  1  0  0  0  0
 17 33  1  1  0  0  0
 18 24  2  0  0  0  0
 18 25  1  0  0  0  0
 20 23  1  0  0  0  0
 20 26  2  0  0  0  0
 20 31  1  0  0  0  0
 21 25  2  0  0  0  0
 21 27  1  0  0  0  0
 21 28  1  0  0  0  0
 22 24  1  0  0  0  0
 22 27  2  0  0  0  0
 22 29  1  0  0  0  0
 30 31  2  0  0  0  0
 30 32  1  0  0  0  0
 30 34  1  0  0  0  0
 32 36  2  0  0  0  0
 32 37  1  0  0  0  0
 35 39  1  0  0  0  0
 35 40  1  0  0  0  0
 38 44  1  0  0  0  0
 39 42  1  0  0  0  0
 40 43  1  0  0  0  0
 41 46  1  0  0  0  0
 42 45  1  0  0  0  0
 43 45  1  0  0  0  0
M  END
> <PUBCHEM_COMPOUND_ID_TYPE>
0

> <PUBCHEM_TOTAL_CHARGE>
0

> <PUBCHEM_SUBSTANCE_ID>
310937296

> <PUBCHEM_SUBSTANCE_VERSION>
1

> <PUBCHEM_EXT_DATASOURCE_NAME>
4488

> <PUBCHEM_EXT_DATASOURCE_REGID>
SCHEMBL16115043

> <PUBCHEM_SUBSTANCE_COMMENT>
InChI=1S/C31H33F6N5O4/c1-3-41(25-7-5-4-6-8-25)28-21(9-20(13-38-28)22-14-39-40(15-22)17-26(43)44)16-42-18(2)27(46-29(42)45)19-10-23(30(32,33)34)12-24(11-19)31(35,36)37/h9-15,18,25,27H,3-8,16-17H2,1-2H3,(H,43,44)/t18-,27-/m0/s1
InChIKey=AZUVHPRLDSENPE-MYUZEXMDSA-N

> <PUBCHEM_SUBSTANCE_SYNONYM>
SCHEMBL16115043

> <PUBCHEM_XREF_EXT_ID>
SCHEMBL16115043

> <PUBCHEM_EXT_DATASOURCE_URL>
https://www.surechembl.org/

> <PUBCHEM_EXT_SUBSTANCE_URL>
https://www.surechembl.org/chemical/SCHEMBL16115043

> <PUBCHEM_CID_ASSOCIATIONS>
117605080  1

> <PUBCHEM_COORDINATE_TYPE>
1
3

> <PUBCHEM_BONDANNOTATIONS>
17  33  5
16  7  5

$$$$
