310933372
  -OEChem-07211613022D

 30 34  0     0  0  0  0  0  0999 V2000
    0.5225   -1.2650    0.0000 F   0  0  0  0  0  0  0  0  0  0  0  0
    1.2650   -2.5025    0.0000 F   0  0  0  0  0  0  0  0  0  0  0  0
    0.0000   -4.4275    0.0000 O   0  0  0  0  0  0  0  0  0  0  0  0
    5.5000   -3.3000    0.0000 O   0  0  0  0  0  0  0  0  0  0  0  0
    4.2075   -2.6400    0.0000 N   0  0  0  0  0  0  0  0  0  0  0  0
    4.2075   -3.9600    0.0000 N   0  0  0  0  0  0  0  0  0  0  0  0
    2.6675   -0.0275    0.0000 N   0  0  0  0  0  0  0  0  0  0  0  0
    0.3850   -5.1424    0.0000 N   0  0  0  0  0  0  0  0  0  0  0  0
    2.6950   -2.4750    0.0000 C   0  0  0  0  0  0  0  0  0  0  0  0
    2.6675   -1.6500    0.0000 C   0  0  0  0  0  0  0  0  0  0  0  0
    3.4100   -2.8600    0.0000 C   0  0  0  0  0  0  0  0  0  0  0  0
    3.4100   -3.7400    0.0000 C   0  0  0  0  0  0  0  0  0  0  0  0
    2.0075   -3.7400    0.0000 C   0  0  0  0  0  0  0  0  0  0  0  0
    3.3825   -1.2375    0.0000 C   0  0  0  0  0  0  0  0  0  0  0  0
    2.0075   -2.8600    0.0000 C   0  0  0  0  0  0  0  0  0  0  0  0
    1.9525   -1.2650    0.0000 C   0  0  0  0  0  0  0  0  0  0  0  0
    1.2925   -4.1249    0.0000 C   0  0  0  0  0  0  0  0  0  0  0  0
    2.6950   -4.1249    0.0000 C   0  0  0  0  0  0  0  0  0  0  0  0
    3.3825   -0.4125    0.0000 C   0  0  0  0  0  0  0  0  0  0  0  0
    4.6750   -3.3000    0.0000 C   0  0  0  0  0  0  0  0  0  0  0  0
    0.5225   -3.8225    0.0000 C   0  0  0  0  0  0  0  0  0  0  0  0
    1.2100   -4.9499    0.0000 C   0  0  0  0  0  0  0  0  0  0  0  0
    1.9525   -0.4400    0.0000 C   0  0  0  0  0  0  0  0  0  0  0  0
    1.2375   -1.6775    0.0000 C   0  0  0  0  0  0  0  0  0  0  0  0
    4.0975   -1.6500    0.0000 C   0  0  0  0  0  0  0  0  0  0  0  0
    4.0699    0.0000    0.0000 C   0  0  0  0  0  0  0  0  0  0  0  0
    4.7850   -1.2100    0.0000 C   0  0  0  0  0  0  0  0  0  0  0  0
    4.7850   -0.4125    0.0000 C   0  0  0  0  0  0  0  0  0  0  0  0
    0.3575   -3.0250    0.0000 C   0  0  0  0  0  0  0  0  0  0  0  0
    1.8150   -5.5000    0.0000 C   0  0  0  0  0  0  0  0  0  0  0  0
  1 24  1  0  0  0  0
  2 24  1  0  0  0  0
  3  8  1  0  0  0  0
  3 21  1  0  0  0  0
  4 20  2  0  0  0  0
  5 11  1  0  0  0  0
  5 20  1  0  0  0  0
  6 12  1  0  0  0  0
  6 20  1  0  0  0  0
  7 19  2  0  0  0  0
  7 23  1  0  0  0  0
  8 22  2  0  0  0  0
  9 10  1  0  0  0  0
  9 11  1  0  0  0  0
  9 15  2  0  0  0  0
 10 14  2  0  0  0  0
 10 16  1  0  0  0  0
 11 12  2  0  0  0  0
 12 18  1  0  0  0  0
 13 15  1  0  0  0  0
 13 17  1  0  0  0  0
 13 18  2  0  0  0  0
 14 19  1  0  0  0  0
 14 25  1  0  0  0  0
 16 23  2  0  0  0  0
 16 24  1  0  0  0  0
 17 21  2  0  0  0  0
 17 22  1  0  0  0  0
 19 26  1  0  0  0  0
 21 29  1  0  0  0  0
 22 30  1  0  0  0  0
 25 27  2  0  0  0  0
 26 28  2  0  0  0  0
 27 28  1  0  0  0  0
M  END
> <PUBCHEM_COMPOUND_ID_TYPE>
0

> <PUBCHEM_TOTAL_CHARGE>
0

> <PUBCHEM_SUBSTANCE_ID>
310933372

> <PUBCHEM_SUBSTANCE_VERSION>
1

> <PUBCHEM_EXT_DATASOURCE_NAME>
4488

> <PUBCHEM_EXT_DATASOURCE_REGID>
SCHEMBL16110788

> <PUBCHEM_SUBSTANCE_COMMENT>
InChI=1S/C22H16F2N4O2/c1-10-18(11(2)30-28-10)12-7-14(20-17(8-12)26-22(29)27-20)19-13-5-3-4-6-16(13)25-9-15(19)21(23)24/h3-9,21H,1-2H3,(H2,26,27,29)
InChIKey=BGDQFYPBFSREAS-UHFFFAOYSA-N

> <PUBCHEM_SUBSTANCE_SYNONYM>
SCHEMBL16110788

> <PUBCHEM_XREF_EXT_ID>
SCHEMBL16110788

> <PUBCHEM_EXT_DATASOURCE_URL>
https://www.surechembl.org/

> <PUBCHEM_EXT_SUBSTANCE_URL>
https://www.surechembl.org/chemical/SCHEMBL16110788

> <PUBCHEM_CID_ASSOCIATIONS>
117601783  1

> <PUBCHEM_COORDINATE_TYPE>
1
3

$$$$
