310949621
  -OEChem-07211613022D

 20 20  0     0  0  0  0  0  0999 V2000
   -1.0642   -0.8391    0.0000 O   0  0  0  0  0  0  0  0  0  0  0  0
    1.8010   -1.6577    0.0000 O   0  0  0  0  0  0  0  0  0  0  0  0
    2.5173    0.4093    0.0000 O   0  0  0  0  0  0  0  0  0  0  0  0
    3.2131   -0.8391    0.0000 O   0  0  0  0  0  0  0  0  0  0  0  0
    1.0847   -0.4093    0.0000 N   0  0  0  0  0  0  0  0  0  0  0  0
   -1.7805    0.4093    0.0000 C   0  0  0  0  0  0  0  0  0  0  0  0
   -1.0438    0.8391    0.0000 C   0  0  0  0  0  0  0  0  0  0  0  0
   -1.8010   -0.3684    0.0000 C   0  0  0  0  0  0  0  0  0  0  0  0
   -2.4968    0.8187    0.0000 C   0  0  0  0  0  0  0  0  0  0  0  0
   -2.4764   -0.7981    0.0000 C   0  0  0  0  0  0  0  0  0  0  0  0
    1.8215   -0.8187    0.0000 C   0  0  0  0  0  0  0  0  0  0  0  0
   -3.2131    0.4093    0.0000 C   0  0  0  0  0  0  0  0  0  0  0  0
   -3.2131   -0.4093    0.0000 C   0  0  0  0  0  0  0  0  0  0  0  0
   -0.3480   -0.4093    0.0000 C   0  0  0  0  0  0  0  0  0  0  0  0
    0.4093   -0.8187    0.0000 C   0  0  0  0  0  0  0  0  0  0  0  0
   -1.0642    1.6577    0.0000 C   0  0  0  0  0  0  0  0  0  0  0  0
   -0.3070    1.2484    0.0000 C   0  0  0  0  0  0  0  0  0  0  0  0
   -0.3274    0.4298    0.0000 C   0  0  0  0  0  0  0  0  0  0  0  0
    2.5173   -0.4298    0.0000 C   0  0  0  0  0  0  0  0  0  0  0  0
    1.0847    0.4093    0.0000 C   0  0  0  0  0  0  0  0  0  0  0  0
  1  8  1  0  0  0  0
  1 14  1  0  0  0  0
  2 11  2  0  0  0  0
  3 19  2  0  0  0  0
  4 19  1  0  0  0  0
  5 11  1  0  0  0  0
  5 15  1  0  0  0  0
  5 20  1  0  0  0  0
  6  7  1  0  0  0  0
  6  8  1  0  0  0  0
  6  9  2  0  0  0  0
  7 16  1  0  0  0  0
  7 17  1  0  0  0  0
  7 18  1  0  0  0  0
  8 10  2  0  0  0  0
  9 12  1  0  0  0  0
 10 13  1  0  0  0  0
 11 19  1  0  0  0  0
 12 13  2  0  0  0  0
 14 15  1  0  0  0  0
M  END
> <PUBCHEM_COMPOUND_ID_TYPE>
0

> <PUBCHEM_TOTAL_CHARGE>
0

> <PUBCHEM_SUBSTANCE_ID>
310949621

> <PUBCHEM_SUBSTANCE_VERSION>
1

> <PUBCHEM_EXT_DATASOURCE_NAME>
4488

> <PUBCHEM_EXT_DATASOURCE_REGID>
SCHEMBL16127819

> <PUBCHEM_SUBSTANCE_COMMENT>
InChI=1S/C15H21NO4/c1-15(2,3)11-7-5-6-8-12(11)20-10-9-16(4)13(17)14(18)19/h5-8H,9-10H2,1-4H3,(H,18,19)
InChIKey=KFMQULWZEIOVPC-UHFFFAOYSA-N

> <PUBCHEM_SUBSTANCE_SYNONYM>
SCHEMBL16127819

> <PUBCHEM_XREF_EXT_ID>
SCHEMBL16127819

> <PUBCHEM_EXT_DATASOURCE_URL>
https://www.surechembl.org/

> <PUBCHEM_EXT_SUBSTANCE_URL>
https://www.surechembl.org/chemical/SCHEMBL16127819

> <PUBCHEM_CID_ASSOCIATIONS>
86272036  1

> <PUBCHEM_COORDINATE_TYPE>
1
3

$$$$
