310928745
  -OEChem-07211613022D

 12 12  0     0  0  0  0  0  0999 V2000
    1.7862    0.4678    0.0000 Cl  0  0  0  0  0  0  0  0  0  0  0  0
   -1.0717    0.4678    0.0000 S   0  0  0  0  0  0  0  0  0  0  0  0
   -0.6592    1.1822    0.0000 O   0  0  0  0  0  0  0  0  0  0  0  0
   -1.4842   -0.2467    0.0000 O   0  0  0  0  0  0  0  0  0  0  0  0
   -1.7862    0.8803    0.0000 N   0  0  0  0  0  0  0  0  0  0  0  0
    1.7862   -1.1822    0.0000 N   0  0  0  0  0  0  0  0  0  0  0  0
   -0.3572    0.0553    0.0000 C   0  0  0  0  0  0  0  0  0  0  0  0
    0.3572    0.4678    0.0000 C   0  0  0  0  0  0  0  0  0  0  0  0
    1.0717    0.0553    0.0000 C   0  0  0  0  0  0  0  0  0  0  0  0
   -0.3572   -0.7697    0.0000 C   0  0  0  0  0  0  0  0  0  0  0  0
    1.0717   -0.7697    0.0000 C   0  0  0  0  0  0  0  0  0  0  0  0
    0.3572   -1.1822    0.0000 C   0  0  0  0  0  0  0  0  0  0  0  0
  1  9  1  0  0  0  0
  2  3  2  0  0  0  0
  2  4  2  0  0  0  0
  2  5  1  0  0  0  0
  2  7  1  0  0  0  0
  6 11  1  0  0  0  0
  7  8  1  0  0  0  0
  7 10  2  0  0  0  0
  8  9  2  0  0  0  0
  9 11  1  0  0  0  0
 10 12  1  0  0  0  0
 11 12  2  0  0  0  0
M  END
> <PUBCHEM_COMPOUND_ID_TYPE>
0

> <PUBCHEM_TOTAL_CHARGE>
0

> <PUBCHEM_SUBSTANCE_ID>
310928745

> <PUBCHEM_SUBSTANCE_VERSION>
1

> <PUBCHEM_EXT_DATASOURCE_NAME>
11752

> <PUBCHEM_EXT_DATASOURCE_REGID>
BD73071

> <PUBCHEM_SUBSTANCE_SYNONYM>
2-Chloro-4-sulfamoylaniline
53297-68-0

> <PUBCHEM_GENERIC_REGISTRY_NAME>
53297-68-0

> <PUBCHEM_XREF_EXT_ID>
BD73071

> <PUBCHEM_EXT_DATASOURCE_URL>
http://www.bidepharmatech.com/en/index.html

> <PUBCHEM_EXT_SUBSTANCE_URL>
http://www.bidepharmatech.com/en/goodsview_goodscode_BD73071.html

> <PUBCHEM_CID_ASSOCIATIONS>
1502014  1

> <PUBCHEM_COORDINATE_TYPE>
1
3

$$$$
