310943946
  -OEChem-07211613022D

 30 34  0     0  0  0  0  0  0999 V2000
    0.8038    2.4112    0.0000 F   0  0  0  0  0  0  0  0  0  0  0  0
   -1.3657    1.9669    0.0000 N   0  0  0  0  0  0  0  0  0  0  0  0
    2.9732    1.9538    0.0000 N   0  0  0  0  0  0  0  0  0  0  0  0
   -0.5424   -0.2156    0.0000 C   0  0  0  0  0  0  0  0  0  0  0  0
    0.0850    0.3333    0.0000 C   0  0  0  0  0  0  0  0  0  0  0  0
   -0.2025   -0.9736    0.0000 C   0  0  0  0  0  0  0  0  0  0  0  0
    0.7907   -0.0588    0.0000 C   0  0  0  0  0  0  0  0  0  0  0  0
    0.6208   -0.8952    0.0000 C   0  0  0  0  0  0  0  0  0  0  0  0
   -1.3918   -0.9344    0.0000 C   0  0  0  0  0  0  0  0  0  0  0  0
   -1.7448    0.3985    0.0000 C   0  0  0  0  0  0  0  0  0  0  0  0
    0.0850    1.1958    0.0000 C   0  0  0  0  0  0  0  0  0  0  0  0
    1.5094    0.3333    0.0000 C   0  0  0  0  0  0  0  0  0  0  0  0
    0.8038    1.6010    0.0000 C   0  0  0  0  0  0  0  0  0  0  0  0
   -0.5293   -1.7448    0.0000 C   0  0  0  0  0  0  0  0  0  0  0  0
    1.5224    1.1958    0.0000 C   0  0  0  0  0  0  0  0  0  0  0  0
    1.1043   -1.5487    0.0000 C   0  0  0  0  0  0  0  0  0  0  0  0
   -2.1107   -0.5424    0.0000 C   0  0  0  0  0  0  0  0  0  0  0  0
   -1.3395    1.1174    0.0000 C   0  0  0  0  0  0  0  0  0  0  0  0
   -1.4049   -1.7840    0.0000 C   0  0  0  0  0  0  0  0  0  0  0  0
   -2.5681    0.3985    0.0000 C   0  0  0  0  0  0  0  0  0  0  0  0
   -0.6339    1.5879    0.0000 C   0  0  0  0  0  0  0  0  0  0  0  0
   -0.0458   -2.4112    0.0000 C   0  0  0  0  0  0  0  0  0  0  0  0
    0.7776   -2.3197    0.0000 C   0  0  0  0  0  0  0  0  0  0  0  0
    2.2282    1.5749    0.0000 C   0  0  0  0  0  0  0  0  0  0  0  0
   -2.8164   -0.9606    0.0000 C   0  0  0  0  0  0  0  0  0  0  0  0
   -1.7316    1.8232    0.0000 C   0  0  0  0  0  0  0  0  0  0  0  0
   -2.1107   -2.1890    0.0000 C   0  0  0  0  0  0  0  0  0  0  0  0
   -2.9732    1.1043    0.0000 C   0  0  0  0  0  0  0  0  0  0  0  0
   -2.8164   -1.7840    0.0000 C   0  0  0  0  0  0  0  0  0  0  0  0
   -2.5549    1.8362    0.0000 C   0  0  0  0  0  0  0  0  0  0  0  0
  1 13  1  0  0  0  0
  2 21  3  0  0  0  0
  3 24  3  0  0  0  0
  4  5  1  0  0  0  0
  4  6  1  0  0  0  0
  4  9  1  0  0  0  0
  4 10  1  0  0  0  0
  5  7  1  0  0  0  0
  5 11  2  0  0  0  0
  6  8  2  0  0  0  0
  6 14  1  0  0  0  0
  7  8  1  0  0  0  0
  7 12  2  0  0  0  0
  8 16  1  0  0  0  0
  9 17  2  0  0  0  0
  9 19  1  0  0  0  0
 10 18  2  0  0  0  0
 10 20  1  0  0  0  0
 11 13  1  0  0  0  0
 11 21  1  0  0  0  0
 12 15  1  0  0  0  0
 13 15  2  0  0  0  0
 14 22  2  0  0  0  0
 15 24  1  0  0  0  0
 16 23  2  0  0  0  0
 17 25  1  0  0  0  0
 18 26  1  0  0  0  0
 19 27  2  0  0  0  0
 20 28  2  0  0  0  0
 22 23  1  0  0  0  0
 25 29  2  0  0  0  0
 26 30  2  0  0  0  0
 27 29  1  0  0  0  0
 28 30  1  0  0  0  0
M  END
> <PUBCHEM_COMPOUND_ID_TYPE>
0

> <PUBCHEM_TOTAL_CHARGE>
0

> <PUBCHEM_SUBSTANCE_ID>
310943946

> <PUBCHEM_SUBSTANCE_VERSION>
1

> <PUBCHEM_EXT_DATASOURCE_NAME>
4488

> <PUBCHEM_EXT_DATASOURCE_REGID>
SCHEMBL16122017

> <PUBCHEM_SUBSTANCE_COMMENT>
InChI=1S/C27H15FN2/c28-26-18(16-29)15-22-21-13-7-8-14-24(21)27(25(22)23(26)17-30,19-9-3-1-4-10-19)20-11-5-2-6-12-20/h1-15H
InChIKey=RYLVJROUOMTBBX-UHFFFAOYSA-N

> <PUBCHEM_SUBSTANCE_SYNONYM>
SCHEMBL16122017

> <PUBCHEM_XREF_EXT_ID>
SCHEMBL16122017

> <PUBCHEM_EXT_DATASOURCE_URL>
https://www.surechembl.org/

> <PUBCHEM_EXT_SUBSTANCE_URL>
https://www.surechembl.org/chemical/SCHEMBL16122017

> <PUBCHEM_CID_ASSOCIATIONS>
117610254  1

> <PUBCHEM_COORDINATE_TYPE>
1
3

$$$$
