310948592
  -OEChem-07211613022D

 32 34  0     1  0  0  0  0  0999 V2000
   -1.3475   -0.7890    0.0000 F   0  0  0  0  0  0  0  0  0  0  0  0
   -3.8053    0.0349    0.0000 O   0  0  0  0  0  0  0  0  0  0  0  0
   -2.5625   -0.6074    0.0000 O   0  0  0  0  0  0  0  0  0  0  0  0
    3.2467    2.3949    0.0000 O   0  0  0  0  0  0  0  0  0  0  0  0
    0.3282    2.4647    0.0000 O   0  0  0  0  0  0  0  0  0  0  0  0
    1.0404   -0.3980    0.0000 N   0  0  0  0  0  0  0  0  0  0  0  0
    1.0404    1.2498    0.0000 N   0  0  0  0  0  0  0  0  0  0  0  0
    1.7665    2.4787    0.0000 N   0  0  0  0  0  0  0  0  0  0  0  0
    3.8053    1.7944    0.0000 N   0  0  0  0  0  0  0  0  0  0  0  0
   -1.8782    1.2498    0.0000 C   0  0  3  0  0  0  0  0  0  0  0  0
   -1.0822    0.8169    0.0000 C   0  0  0  0  0  0  0  0  0  0  0  0
   -2.5625    0.8449    0.0000 C   0  0  3  0  0  0  0  0  0  0  0  0
   -2.5625    1.6408    0.0000 C   0  0  0  0  0  0  0  0  0  0  0  0
   -1.1241   -0.0070    0.0000 C   0  0  0  0  0  0  0  0  0  0  0  0
    0.3282    0.8309    0.0000 C   0  0  0  0  0  0  0  0  0  0  0  0
    0.3142    0.0209    0.0000 C   0  0  0  0  0  0  0  0  0  0  0  0
   -0.3980    1.2359    0.0000 C   0  0  0  0  0  0  0  0  0  0  0  0
   -0.3840   -0.3980    0.0000 C   0  0  0  0  0  0  0  0  0  0  0  0
   -2.9953    0.0907    0.0000 C   0  0  0  0  0  0  0  0  0  0  0  0
    1.0543    2.0737    0.0000 C   0  0  0  0  0  0  0  0  0  0  0  0
    1.0404   -1.2219    0.0000 C   0  0  0  0  0  0  0  0  0  0  0  0
    1.7525    0.0070    0.0000 C   0  0  0  0  0  0  0  0  0  0  0  0
    2.4927    2.0737    0.0000 C   0  0  0  0  0  0  0  0  0  0  0  0
    0.3282   -1.6408    0.0000 C   0  0  0  0  0  0  0  0  0  0  0  0
    2.4927   -0.3980    0.0000 C   0  0  0  0  0  0  0  0  0  0  0  0
    2.5764    1.2638    0.0000 C   0  0  0  0  0  0  0  0  0  0  0  0
    3.3724    1.0822    0.0000 C   0  0  0  0  0  0  0  0  0  0  0  0
   -0.4119   -1.2498    0.0000 C   0  0  0  0  0  0  0  0  0  0  0  0
    0.3421   -2.4787    0.0000 C   0  0  0  0  0  0  0  0  0  0  0  0
    2.4927   -1.2359    0.0000 C   0  0  0  0  0  0  0  0  0  0  0  0
    3.2048    0.0070    0.0000 C   0  0  0  0  0  0  0  0  0  0  0  0
    3.7355    0.3003    0.0000 C   0  0  0  0  0  0  0  0  0  0  0  0
  1 14  1  0  0  0  0
  2 19  2  0  0  0  0
  3 19  1  0  0  0  0
  4  9  1  0  0  0  0
  4 23  1  0  0  0  0
  5 20  2  0  0  0  0
  6 16  1  0  0  0  0
  6 21  1  0  0  0  0
  6 22  1  0  0  0  0
  7 15  1  0  0  0  0
  7 20  1  0  0  0  0
  8 20  1  0  0  0  0
  8 23  1  0  0  0  0
  9 27  2  0  0  0  0
 10 11  1  0  0  0  0
 10 12  1  0  0  0  0
 10 13  1  1  0  0  0
 11 14  2  0  0  0  0
 11 17  1  0  0  0  0
 12 13  1  0  0  0  0
 12 19  1  1  0  0  0
 14 18  1  0  0  0  0
 15 16  1  0  0  0  0
 15 17  2  0  0  0  0
 16 18  2  0  0  0  0
 21 24  1  0  0  0  0
 22 25  1  0  0  0  0
 23 26  2  0  0  0  0
 24 28  1  0  0  0  0
 24 29  1  0  0  0  0
 25 30  1  0  0  0  0
 25 31  1  0  0  0  0
 26 27  1  0  0  0  0
 27 32  1  0  0  0  0
M  END
> <PUBCHEM_COMPOUND_ID_TYPE>
0

> <PUBCHEM_TOTAL_CHARGE>
0

> <PUBCHEM_SUBSTANCE_ID>
310948592

> <PUBCHEM_SUBSTANCE_VERSION>
1

> <PUBCHEM_EXT_DATASOURCE_NAME>
4488

> <PUBCHEM_EXT_DATASOURCE_REGID>
SCHEMBL16126775

> <PUBCHEM_SUBSTANCE_COMMENT>
InChI=1S/C23H31FN4O4/c1-12(2)10-28(11-13(3)4)20-9-18(24)16(15-7-17(15)22(29)30)8-19(20)25-23(31)26-21-6-14(5)27-32-21/h6,8-9,12-13,15,17H,7,10-11H2,1-5H3,(H,29,30)(H2,25,26,31)/t15-,17-/m0/s1
InChIKey=JOTWKIYRMDDBRN-RDJZCZTQSA-N

> <PUBCHEM_SUBSTANCE_SYNONYM>
SCHEMBL16126775

> <PUBCHEM_XREF_EXT_ID>
SCHEMBL16126775

> <PUBCHEM_EXT_DATASOURCE_URL>
https://www.surechembl.org/

> <PUBCHEM_EXT_SUBSTANCE_URL>
https://www.surechembl.org/chemical/SCHEMBL16126775

> <PUBCHEM_CID_ASSOCIATIONS>
117614141  1

> <PUBCHEM_COORDINATE_TYPE>
1
3

> <PUBCHEM_BONDANNOTATIONS>
10  13  5
12  19  5

$$$$
