310944879
  -OEChem-07211613022D

 40 44  0     0  0  0  0  0  0999 V2000
   -0.7062    2.4406    0.0000 Cl  0  0  0  0  0  0  0  0  0  0  0  0
    3.6028    2.7267    0.0000 F   0  0  0  0  0  0  0  0  0  0  0  0
    3.9068    1.6361    0.0000 F   0  0  0  0  0  0  0  0  0  0  0  0
    2.8161    1.3321    0.0000 F   0  0  0  0  0  0  0  0  0  0  0  0
    2.4764    2.4406    0.0000 O   0  0  0  0  0  0  0  0  0  0  0  0
    3.9247   -2.5658    0.0000 O   0  0  0  0  0  0  0  0  0  0  0  0
    4.6399   -1.3142    0.0000 O   0  0  0  0  0  0  0  0  0  0  0  0
   -4.6399   -2.0115    0.0000 N   0  0  0  0  0  0  0  0  0  0  0  0
   -4.2286   -2.7267    0.0000 N   0  0  0  0  0  0  0  0  0  0  0  0
   -0.4202    0.7599    0.0000 C   0  0  0  0  0  0  0  0  0  0  0  0
   -0.4380   -0.0805    0.0000 C   0  0  0  0  0  0  0  0  0  0  0  0
    0.2950    1.1711    0.0000 C   0  0  0  0  0  0  0  0  0  0  0  0
   -1.1890    1.1890    0.0000 C   0  0  0  0  0  0  0  0  0  0  0  0
   -1.1354   -0.4917    0.0000 C   0  0  0  0  0  0  0  0  0  0  0  0
    0.3129   -0.4917    0.0000 C   0  0  0  0  0  0  0  0  0  0  0  0
    0.3129    2.0115    0.0000 C   0  0  0  0  0  0  0  0  0  0  0  0
    1.0460    0.7778    0.0000 C   0  0  0  0  0  0  0  0  0  0  0  0
   -1.9400    0.9745    0.0000 C   0  0  0  0  0  0  0  0  0  0  0  0
   -1.3678    1.9579    0.0000 C   0  0  0  0  0  0  0  0  0  0  0  0
   -1.8506   -0.0983    0.0000 C   0  0  0  0  0  0  0  0  0  0  0  0
   -1.1532   -1.3321    0.0000 C   0  0  0  0  0  0  0  0  0  0  0  0
    1.7612    2.0115    0.0000 C   0  0  0  0  0  0  0  0  0  0  0  0
    1.0102    2.4228    0.0000 C   0  0  0  0  0  0  0  0  0  0  0  0
    0.3308   -1.3321    0.0000 C   0  0  0  0  0  0  0  0  0  0  0  0
    1.0281   -0.0983    0.0000 C   0  0  0  0  0  0  0  0  0  0  0  0
   -2.1546    1.7433    0.0000 C   0  0  0  0  0  0  0  0  0  0  0  0
    1.7433    1.1711    0.0000 C   0  0  0  0  0  0  0  0  0  0  0  0
   -2.6015   -1.3321    0.0000 C   0  0  0  0  0  0  0  0  0  0  0  0
   -2.5658   -0.4917    0.0000 C   0  0  0  0  0  0  0  0  0  0  0  0
   -1.8684   -1.7433    0.0000 C   0  0  0  0  0  0  0  0  0  0  0  0
   -3.3168   -1.7433    0.0000 C   0  0  0  0  0  0  0  0  0  0  0  0
    1.7433   -1.3321    0.0000 C   0  0  0  0  0  0  0  0  0  0  0  0
    1.0281   -1.7433    0.0000 C   0  0  0  0  0  0  0  0  0  0  0  0
    1.7433   -0.5095    0.0000 C   0  0  0  0  0  0  0  0  0  0  0  0
    3.1916    2.0294    0.0000 C   0  0  0  0  0  0  0  0  0  0  0  0
   -4.0856   -1.4214    0.0000 C   0  0  0  0  0  0  0  0  0  0  0  0
   -3.4062   -2.5836    0.0000 C   0  0  0  0  0  0  0  0  0  0  0  0
    2.4764   -1.7433    0.0000 C   0  0  0  0  0  0  0  0  0  0  0  0
    3.1916   -1.3321    0.0000 C   0  0  0  0  0  0  0  0  0  0  0  0
    3.9247   -1.7254    0.0000 C   0  0  0  0  0  0  0  0  0  0  0  0
  1 16  1  0  0  0  0
  2 35  1  0  0  0  0
  3 35  1  0  0  0  0
  4 35  1  0  0  0  0
  5 22  1  0  0  0  0
  5 35  1  0  0  0  0
  6 40  2  0  0  0  0
  7 40  1  0  0  0  0
  8  9  1  0  0  0  0
  8 36  2  0  0  0  0
  9 37  1  0  0  0  0
 10 11  2  0  0  0  0
 10 12  1  0  0  0  0
 10 13  1  0  0  0  0
 11 14  1  0  0  0  0
 11 15  1  0  0  0  0
 12 16  1  0  0  0  0
 12 17  2  0  0  0  0
 13 18  1  0  0  0  0
 13 19  1  0  0  0  0
 14 20  2  0  0  0  0
 14 21  1  0  0  0  0
 15 24  2  0  0  0  0
 15 25  1  0  0  0  0
 16 23  2  0  0  0  0
 17 27  1  0  0  0  0
 18 26  1  0  0  0  0
 19 26  1  0  0  0  0
 20 29  1  0  0  0  0
 21 30  2  0  0  0  0
 22 23  1  0  0  0  0
 22 27  2  0  0  0  0
 24 33  1  0  0  0  0
 25 34  2  0  0  0  0
 28 29  2  0  0  0  0
 28 30  1  0  0  0  0
 28 31  1  0  0  0  0
 31 36  1  0  0  0  0
 31 37  2  0  0  0  0
 32 33  2  0  0  0  0
 32 34  1  0  0  0  0
 32 38  1  0  0  0  0
 38 39  2  0  0  0  0
 39 40  1  0  0  0  0
M  END
> <PUBCHEM_COMPOUND_ID_TYPE>
0

> <PUBCHEM_TOTAL_CHARGE>
0

> <PUBCHEM_SUBSTANCE_ID>
310944879

> <PUBCHEM_SUBSTANCE_VERSION>
1

> <PUBCHEM_EXT_DATASOURCE_NAME>
4488

> <PUBCHEM_EXT_DATASOURCE_REGID>
SCHEMBL16122963

> <PUBCHEM_SUBSTANCE_COMMENT>
InChI=1S/C31H24ClF3N2O3/c32-27-16-25(40-31(33,34)35)13-14-26(27)30(21-2-1-3-21)29(22-7-4-19(5-8-22)6-15-28(38)39)23-11-9-20(10-12-23)24-17-36-37-18-24/h4-18,21H,1-3H2,(H,36,37)(H,38,39)/b15-6+,30-29+
InChIKey=AHYYQRVKEBXXAY-RYSIYLRZSA-N

> <PUBCHEM_SUBSTANCE_SYNONYM>
SCHEMBL16122963

> <PUBCHEM_XREF_EXT_ID>
SCHEMBL16122963

> <PUBCHEM_EXT_DATASOURCE_URL>
https://www.surechembl.org/

> <PUBCHEM_EXT_SUBSTANCE_URL>
https://www.surechembl.org/chemical/SCHEMBL16122963

> <PUBCHEM_CID_ASSOCIATIONS>
86271832  1

> <PUBCHEM_COORDINATE_TYPE>
1
3

$$$$
