310934774
  -OEChem-07211613022D

 25 27  0     0  0  0  0  0  0999 V2000
    5.6898   -4.9786    0.0000 O   0  0  0  0  0  0  0  0  0  0  0  0
    2.7880   -4.2674    0.0000 O   0  0  0  0  0  0  0  0  0  0  0  0
    3.6415   -2.9018    0.0000 O   0  0  0  0  0  0  0  0  0  0  0  0
    1.9630   -5.6898    0.0000 O   0  0  0  0  0  0  0  0  0  0  0  0
    2.3897   -3.5561    0.0000 N   0  0  0  0  0  0  0  0  0  0  0  0
    2.7880   -5.6898    0.0000 N   0  0  0  0  0  0  0  0  0  0  0  0
    4.0113   -4.9786    0.0000 C   0  0  0  0  0  0  0  0  0  0  0  0
    3.2147   -4.9786    0.0000 C   0  0  0  0  0  0  0  0  0  0  0  0
    3.6130   -4.2674    0.0000 C   0  0  0  0  0  0  0  0  0  0  0  0
    4.4665   -5.6898    0.0000 C   0  0  0  0  0  0  0  0  0  0  0  0
    4.4665   -4.2674    0.0000 C   0  0  0  0  0  0  0  0  0  0  0  0
    2.9587   -4.4381    0.0000 C   0  0  0  0  0  0  0  0  0  0  0  0
    2.8165   -2.8733    0.0000 C   0  0  0  0  0  0  0  0  0  0  0  0
    1.6216   -2.1337    0.0000 C   0  0  0  0  0  0  0  0  0  0  0  0
    2.4466   -2.1337    0.0000 C   0  0  0  0  0  0  0  0  0  0  0  0
    1.5647   -3.5561    0.0000 C   0  0  0  0  0  0  0  0  0  0  0  0
    1.1949   -1.4224    0.0000 C   0  0  0  0  0  0  0  0  0  0  0  0
    1.1949   -2.8165    0.0000 C   0  0  0  0  0  0  0  0  0  0  0  0
    5.2631   -5.6898    0.0000 C   0  0  0  0  0  0  0  0  0  0  0  0
    5.2631   -4.2674    0.0000 C   0  0  0  0  0  0  0  0  0  0  0  0
    0.3698   -1.3940    0.0000 C   0  0  0  0  0  0  0  0  0  0  0  0
    1.6216   -0.7112    0.0000 C   0  0  0  0  0  0  0  0  0  0  0  0
    0.0000   -0.7112    0.0000 C   0  0  0  0  0  0  0  0  0  0  0  0
    1.2233    0.0000    0.0000 C   0  0  0  0  0  0  0  0  0  0  0  0
    0.3983    0.0000    0.0000 C   0  0  0  0  0  0  0  0  0  0  0  0
  1 19  1  0  0  0  0
  1 20  1  0  0  0  0
  2  8  2  0  0  0  0
  3 13  2  0  0  0  0
  4  6  1  0  0  0  0
  5 12  1  0  0  0  0
  5 13  1  0  0  0  0
  5 16  1  0  0  0  0
  6  8  1  0  0  0  0
  7  8  1  0  0  0  0
  7  9  1  0  0  0  0
  7 10  1  0  0  0  0
  7 11  1  0  0  0  0
  9 12  1  0  0  0  0
 10 19  1  0  0  0  0
 11 20  1  0  0  0  0
 13 15  1  0  0  0  0
 14 15  2  0  0  0  0
 14 17  1  0  0  0  0
 14 18  1  0  0  0  0
 16 18  2  0  0  0  0
 17 21  2  0  0  0  0
 17 22  1  0  0  0  0
 21 23  1  0  0  0  0
 22 24  2  0  0  0  0
 23 25  2  0  0  0  0
 24 25  1  0  0  0  0
M  END
> <PUBCHEM_COMPOUND_ID_TYPE>
0

> <PUBCHEM_TOTAL_CHARGE>
0

> <PUBCHEM_SUBSTANCE_ID>
310934774

> <PUBCHEM_SUBSTANCE_VERSION>
1

> <PUBCHEM_EXT_DATASOURCE_NAME>
4488

> <PUBCHEM_EXT_DATASOURCE_REGID>
SCHEMBL16112277

> <PUBCHEM_SUBSTANCE_COMMENT>
InChI=1S/C19H22N2O4/c22-17-14-16(15-4-2-1-3-5-15)6-10-21(17)11-7-19(18(23)20-24)8-12-25-13-9-19/h1-6,10,14,24H,7-9,11-13H2,(H,20,23)
InChIKey=NNQXONYWCILFOZ-UHFFFAOYSA-N

> <PUBCHEM_SUBSTANCE_SYNONYM>
SCHEMBL16112277

> <PUBCHEM_XREF_EXT_ID>
SCHEMBL16112277

> <PUBCHEM_EXT_DATASOURCE_URL>
https://www.surechembl.org/

> <PUBCHEM_EXT_SUBSTANCE_URL>
https://www.surechembl.org/chemical/SCHEMBL16112277

> <PUBCHEM_CID_ASSOCIATIONS>
117602922  1

> <PUBCHEM_COORDINATE_TYPE>
1
3

$$$$
