310942350
  -OEChem-07211613022D

 30 33  0     0  0  0  0  0  0999 V2000
    0.5493   -2.0548    0.0000 O   0  0  0  0  0  0  0  0  0  0  0  0
   -0.8341    0.4578    0.0000 O   0  0  0  0  0  0  0  0  0  0  0  0
   -2.2989   -2.0039    0.0000 O   0  0  0  0  0  0  0  0  0  0  0  0
    2.5837   -0.5595    0.0000 N   0  0  0  0  0  0  0  0  0  0  0  0
    3.3873   -0.7527    0.0000 N   0  0  0  0  0  0  0  0  0  0  0  0
    2.3498    1.6784    0.0000 N   0  0  0  0  0  0  0  0  0  0  0  0
   -0.1424   -0.7934    0.0000 N   0  0  0  0  0  0  0  0  0  0  0  0
    3.0110    2.1361    0.0000 N   0  0  0  0  0  0  0  0  0  0  0  0
   -2.9906   -0.7527    0.0000 N   0  0  0  0  0  0  0  0  0  0  0  0
    2.1768    0.1628    0.0000 C   0  0  0  0  0  0  0  0  0  0  0  0
    1.2715   -0.8138    0.0000 C   0  0  0  0  0  0  0  0  0  0  0  0
    2.0344   -1.1698    0.0000 C   0  0  0  0  0  0  0  0  0  0  0  0
    1.3936    0.0101    0.0000 C   0  0  0  0  0  0  0  0  0  0  0  0
    2.6040    0.8850    0.0000 C   0  0  0  0  0  0  0  0  0  0  0  0
    0.5696   -1.1901    0.0000 C   0  0  0  0  0  0  0  0  0  0  0  0
    2.2684   -1.9531    0.0000 C   0  0  0  0  0  0  0  0  0  0  0  0
    3.4382    0.8850    0.0000 C   0  0  0  0  0  0  0  0  0  0  0  0
    0.7731    0.5595    0.0000 C   0  0  0  0  0  0  0  0  0  0  0  0
    3.6314   -1.5360    0.0000 C   0  0  0  0  0  0  0  0  0  0  0  0
    3.0719   -2.1361    0.0000 C   0  0  0  0  0  0  0  0  0  0  0  0
   -1.5766   -0.7629    0.0000 C   0  0  0  0  0  0  0  0  0  0  0  0
    3.6823    1.6581    0.0000 C   0  0  0  0  0  0  0  0  0  0  0  0
   -0.8443   -1.1901    0.0000 C   0  0  0  0  0  0  0  0  0  0  0  0
   -1.5360    0.0611    0.0000 C   0  0  0  0  0  0  0  0  0  0  0  0
   -2.2786   -1.1494    0.0000 C   0  0  0  0  0  0  0  0  0  0  0  0
    1.5665    1.9632    0.0000 C   0  0  0  0  0  0  0  0  0  0  0  0
   -2.2582    0.4781    0.0000 C   0  0  0  0  0  0  0  0  0  0  0  0
   -2.9601    0.0813    0.0000 C   0  0  0  0  0  0  0  0  0  0  0  0
   -3.6823    0.5086    0.0000 C   0  0  0  0  0  0  0  0  0  0  0  0
   -0.8138    1.3021    0.0000 C   0  0  0  0  0  0  0  0  0  0  0  0
  1 15  2  0  0  0  0
  2 24  1  0  0  0  0
  2 30  1  0  0  0  0
  3 25  2  0  0  0  0
  4  5  1  0  0  0  0
  4 10  1  0  0  0  0
  4 12  1  0  0  0  0
  5 19  2  0  0  0  0
  6  8  1  0  0  0  0
  6 14  1  0  0  0  0
  6 26  1  0  0  0  0
  7 15  1  0  0  0  0
  7 23  1  0  0  0  0
  8 22  2  0  0  0  0
  9 25  1  0  0  0  0
  9 28  1  0  0  0  0
 10 13  2  0  0  0  0
 10 14  1  0  0  0  0
 11 12  2  0  0  0  0
 11 13  1  0  0  0  0
 11 15  1  0  0  0  0
 12 16  1  0  0  0  0
 13 18  1  0  0  0  0
 14 17  2  0  0  0  0
 16 20  2  0  0  0  0
 17 22  1  0  0  0  0
 19 20  1  0  0  0  0
 21 23  1  0  0  0  0
 21 24  2  0  0  0  0
 21 25  1  0  0  0  0
 24 27  1  0  0  0  0
 27 28  2  0  0  0  0
 28 29  1  0  0  0  0
M  END
> <PUBCHEM_COMPOUND_ID_TYPE>
0

> <PUBCHEM_TOTAL_CHARGE>
0

> <PUBCHEM_SUBSTANCE_ID>
310942350

> <PUBCHEM_SUBSTANCE_VERSION>
1

> <PUBCHEM_EXT_DATASOURCE_NAME>
4488

> <PUBCHEM_EXT_DATASOURCE_REGID>
SCHEMBL16120386

> <PUBCHEM_SUBSTANCE_COMMENT>
InChI=1S/C21H22N6O3/c1-12-10-17(30-4)14(20(28)25-12)11-22-21(29)18-13(2)19(16-7-9-23-26(16)3)27-15(18)6-5-8-24-27/h5-10H,11H2,1-4H3,(H,22,29)(H,25,28)
InChIKey=OXCFLYJGJQJMIU-UHFFFAOYSA-N

> <PUBCHEM_SUBSTANCE_SYNONYM>
SCHEMBL16120386

> <PUBCHEM_XREF_EXT_ID>
SCHEMBL16120386

> <PUBCHEM_EXT_DATASOURCE_URL>
https://www.surechembl.org/

> <PUBCHEM_EXT_SUBSTANCE_URL>
https://www.surechembl.org/chemical/SCHEMBL16120386

> <PUBCHEM_CID_ASSOCIATIONS>
86299695  1

> <PUBCHEM_COORDINATE_TYPE>
1
3

$$$$
