310941000
  -OEChem-07211613022D

 36 41  0     0  0  0  0  0  0999 V2000
   -1.6751    3.3687    0.0000 O   0  0  0  0  0  0  0  0  0  0  0  0
    1.0919    2.6242    0.0000 O   0  0  0  0  0  0  0  0  0  0  0  0
   -0.9182    0.6017    0.0000 N   0  0  0  0  0  0  0  0  0  0  0  0
    0.2854   -1.7061    0.0000 N   0  0  0  0  0  0  0  0  0  0  0  0
   -0.9802   -2.1155    0.0000 N   0  0  0  0  0  0  0  0  0  0  0  0
   -2.4195   -0.8996    0.0000 N   0  0  0  0  0  0  0  0  0  0  0  0
    0.5211   -0.0683    0.0000 N   0  0  0  0  0  0  0  0  0  0  0  0
   -0.9182   -0.7258    0.0000 C   0  0  0  0  0  0  0  0  0  0  0  0
   -1.7122   -0.4777    0.0000 C   0  0  0  0  0  0  0  0  0  0  0  0
   -0.5087   -1.4455    0.0000 C   0  0  0  0  0  0  0  0  0  0  0  0
   -0.4343   -0.0683    0.0000 C   0  0  0  0  0  0  0  0  0  0  0  0
   -1.6999    0.3537    0.0000 C   0  0  0  0  0  0  0  0  0  0  0  0
    0.2854   -2.5374    0.0000 C   0  0  0  0  0  0  0  0  0  0  0  0
   -0.7072    1.4082    0.0000 C   0  0  0  0  0  0  0  0  0  0  0  0
   -0.4963   -2.7856    0.0000 C   0  0  0  0  0  0  0  0  0  0  0  0
   -2.4195    0.7631    0.0000 C   0  0  0  0  0  0  0  0  0  0  0  0
    0.9802   -1.2966    0.0000 C   0  0  0  0  0  0  0  0  0  0  0  0
    0.0868    1.6192    0.0000 C   0  0  0  0  0  0  0  0  0  0  0  0
   -1.2780    1.9914    0.0000 C   0  0  0  0  0  0  0  0  0  0  0  0
    0.8934   -3.0833    0.0000 C   0  0  0  0  0  0  0  0  0  0  0  0
   -0.6700   -3.6044    0.0000 C   0  0  0  0  0  0  0  0  0  0  0  0
   -3.1391   -0.4777    0.0000 C   0  0  0  0  0  0  0  0  0  0  0  0
   -3.1268    0.3537    0.0000 C   0  0  0  0  0  0  0  0  0  0  0  0
   -1.0795    2.7856    0.0000 C   0  0  0  0  0  0  0  0  0  0  0  0
    0.2978    2.4257    0.0000 C   0  0  0  0  0  0  0  0  0  0  0  0
    1.7247   -1.7061    0.0000 C   0  0  0  0  0  0  0  0  0  0  0  0
    0.7197   -3.8898    0.0000 C   0  0  0  0  0  0  0  0  0  0  0  0
   -0.2606    2.9840    0.0000 C   0  0  0  0  0  0  0  0  0  0  0  0
   -0.0496   -4.1503    0.0000 C   0  0  0  0  0  0  0  0  0  0  0  0
    1.7247   -2.5374    0.0000 C   0  0  0  0  0  0  0  0  0  0  0  0
    2.4195   -1.3090    0.0000 C   0  0  0  0  0  0  0  0  0  0  0  0
    2.4319   -2.9468    0.0000 C   0  0  0  0  0  0  0  0  0  0  0  0
    3.1391   -1.7061    0.0000 C   0  0  0  0  0  0  0  0  0  0  0  0
    3.1391   -2.5374    0.0000 C   0  0  0  0  0  0  0  0  0  0  0  0
   -1.4765    4.1503    0.0000 C   0  0  0  0  0  0  0  0  0  0  0  0
    1.3772    3.3811    0.0000 C   0  0  0  0  0  0  0  0  0  0  0  0
  1 24  1  0  0  0  0
  1 35  1  0  0  0  0
  2 25  1  0  0  0  0
  2 36  1  0  0  0  0
  3 11  1  0  0  0  0
  3 12  1  0  0  0  0
  3 14  1  0  0  0  0
  4 10  1  0  0  0  0
  4 13  1  0  0  0  0
  4 17  1  0  0  0  0
  5 10  2  0  0  0  0
  5 15  1  0  0  0  0
  6  9  2  0  0  0  0
  6 22  1  0  0  0  0
  7 11  1  0  0  0  0
  8  9  1  0  0  0  0
  8 10  1  0  0  0  0
  8 11  2  0  0  0  0
  9 12  1  0  0  0  0
 12 16  2  0  0  0  0
 13 15  2  0  0  0  0
 13 20  1  0  0  0  0
 14 18  2  0  0  0  0
 14 19  1  0  0  0  0
 15 21  1  0  0  0  0
 16 23  1  0  0  0  0
 17 26  1  0  0  0  0
 18 25  1  0  0  0  0
 19 24  2  0  0  0  0
 20 27  2  0  0  0  0
 21 29  2  0  0  0  0
 22 23  2  0  0  0  0
 24 28  1  0  0  0  0
 25 28  2  0  0  0  0
 26 30  2  0  0  0  0
 26 31  1  0  0  0  0
 27 29  1  0  0  0  0
 30 32  1  0  0  0  0
 31 33  2  0  0  0  0
 32 34  2  0  0  0  0
 33 34  1  0  0  0  0
M  END
> <PUBCHEM_COMPOUND_ID_TYPE>
0

> <PUBCHEM_TOTAL_CHARGE>
0

> <PUBCHEM_SUBSTANCE_ID>
310941000

> <PUBCHEM_SUBSTANCE_VERSION>
1

> <PUBCHEM_EXT_DATASOURCE_NAME>
4488

> <PUBCHEM_EXT_DATASOURCE_REGID>
SCHEMBL16118959

> <PUBCHEM_SUBSTANCE_COMMENT>
InChI=1S/C29H25N5O2/c1-35-21-15-20(16-22(17-21)36-2)34-25-13-8-14-31-27(25)26(28(34)30)29-32-23-11-6-7-12-24(23)33(29)18-19-9-4-3-5-10-19/h3-17H,18,30H2,1-2H3
InChIKey=FRLDLBXUBRGHKF-UHFFFAOYSA-N

> <PUBCHEM_SUBSTANCE_SYNONYM>
SCHEMBL16118959

> <PUBCHEM_XREF_EXT_ID>
SCHEMBL16118959

> <PUBCHEM_EXT_DATASOURCE_URL>
https://www.surechembl.org/

> <PUBCHEM_EXT_SUBSTANCE_URL>
https://www.surechembl.org/chemical/SCHEMBL16118959

> <PUBCHEM_CID_ASSOCIATIONS>
117607906  1

> <PUBCHEM_COORDINATE_TYPE>
1
3

$$$$
