310934854
  -OEChem-07211613022D

 22 24  0     0  0  0  0  0  0999 V2000
    0.6619   -1.1486    0.0000 O   0  0  0  0  0  0  0  0  0  0  0  0
    1.4990    0.0000    0.0000 O   0  0  0  0  0  0  0  0  0  0  0  0
    2.0831   -2.1025    0.0000 N   0  0  0  0  0  0  0  0  0  0  0  0
    2.8617   -2.3751    0.0000 N   0  0  0  0  0  0  0  0  0  0  0  0
    5.4120   -2.4335    0.0000 N   0  0  0  0  0  0  0  0  0  0  0  0
    2.0831   -1.3043    0.0000 C   0  0  0  0  0  0  0  0  0  0  0  0
    3.3484   -1.6937    0.0000 C   0  0  0  0  0  0  0  0  0  0  0  0
    2.8617   -1.0318    0.0000 C   0  0  0  0  0  0  0  0  0  0  0  0
    4.1661   -1.6937    0.0000 C   0  0  0  0  0  0  0  0  0  0  0  0
    1.4211   -2.5892    0.0000 C   0  0  0  0  0  0  0  0  0  0  0  0
    1.4211   -0.8176    0.0000 C   0  0  0  0  0  0  0  0  0  0  0  0
    4.5944   -2.4140    0.0000 C   0  0  0  0  0  0  0  0  0  0  0  0
    4.5749   -0.9928    0.0000 C   0  0  0  0  0  0  0  0  0  0  0  0
    1.4990   -3.4263    0.0000 C   0  0  0  0  0  0  0  0  0  0  0  0
    0.6619   -2.2583    0.0000 C   0  0  0  0  0  0  0  0  0  0  0  0
    5.3926   -0.9928    0.0000 C   0  0  0  0  0  0  0  0  0  0  0  0
    0.8371   -3.8935    0.0000 C   0  0  0  0  0  0  0  0  0  0  0  0
    0.0000   -2.7255    0.0000 C   0  0  0  0  0  0  0  0  0  0  0  0
    5.8014   -1.7132    0.0000 C   0  0  0  0  0  0  0  0  0  0  0  0
    4.1661   -3.1343    0.0000 C   0  0  0  0  0  0  0  0  0  0  0  0
    0.0778   -3.5626    0.0000 C   0  0  0  0  0  0  0  0  0  0  0  0
    0.0000   -0.6619    0.0000 C   0  0  0  0  0  0  0  0  0  0  0  0
  1 11  1  0  0  0  0
  1 22  1  0  0  0  0
  2 11  2  0  0  0  0
  3  4  1  0  0  0  0
  3  6  1  0  0  0  0
  3 10  1  0  0  0  0
  4  7  2  0  0  0  0
  5 12  2  0  0  0  0
  5 19  1  0  0  0  0
  6  8  2  0  0  0  0
  6 11  1  0  0  0  0
  7  8  1  0  0  0  0
  7  9  1  0  0  0  0
  9 12  1  0  0  0  0
  9 13  2  0  0  0  0
 10 14  2  0  0  0  0
 10 15  1  0  0  0  0
 12 20  1  0  0  0  0
 13 16  1  0  0  0  0
 14 17  1  0  0  0  0
 15 18  2  0  0  0  0
 16 19  2  0  0  0  0
 17 21  2  0  0  0  0
 18 21  1  0  0  0  0
M  END
> <PUBCHEM_COMPOUND_ID_TYPE>
0

> <PUBCHEM_TOTAL_CHARGE>
0

> <PUBCHEM_SUBSTANCE_ID>
310934854

> <PUBCHEM_SUBSTANCE_VERSION>
1

> <PUBCHEM_EXT_DATASOURCE_NAME>
4488

> <PUBCHEM_EXT_DATASOURCE_REGID>
SCHEMBL16112363

> <PUBCHEM_SUBSTANCE_COMMENT>
InChI=1S/C17H15N3O2/c1-12-14(9-6-10-18-12)15-11-16(17(21)22-2)20(19-15)13-7-4-3-5-8-13/h3-11H,1-2H3
InChIKey=YRJVRACTFFZJIL-UHFFFAOYSA-N

> <PUBCHEM_SUBSTANCE_SYNONYM>
SCHEMBL16112363

> <PUBCHEM_XREF_EXT_ID>
SCHEMBL16112363

> <PUBCHEM_EXT_DATASOURCE_URL>
https://www.surechembl.org/

> <PUBCHEM_EXT_SUBSTANCE_URL>
https://www.surechembl.org/chemical/SCHEMBL16112363

> <PUBCHEM_CID_ASSOCIATIONS>
117602990  1

> <PUBCHEM_COORDINATE_TYPE>
1
3

$$$$
