310931108
  -OEChem-07211613022D

 10 10  0     1  0  0  0  0  0999 V2000
   -4.2524    3.4913    0.0000 O   0  0  0  0  0  0  0  0  0  0  0  0
   -3.5379    2.2538    0.0000 N   0  0  0  0  0  0  0  0  0  0  0  0
   -2.3091    0.5082    0.0000 N   0  0  0  0  0  0  0  0  0  0  0  0
   -1.4117    2.0626    0.0000 N   0  0  0  0  0  0  0  0  0  0  0  0
   -2.2322    1.9763    0.0000 C   0  0  3  0  0  0  0  0  0  0  0  0
   -2.6447    1.2618    0.0000 C   0  0  3  0  0  0  0  0  0  0  0  0
   -2.7843    2.5894    0.0000 C   0  0  0  0  0  0  0  0  0  0  0  0
   -3.4517    1.4334    0.0000 C   0  0  0  0  0  0  0  0  0  0  0  0
   -4.2524    2.6663    0.0000 C   0  0  0  0  0  0  0  0  0  0  0  0
   -4.9669    2.2538    0.0000 C   0  0  0  0  0  0  0  0  0  0  0  0
  1  9  2  0  0  0  0
  2  7  1  0  0  0  0
  2  8  1  0  0  0  0
  2  9  1  0  0  0  0
  6  3  1  6  0  0  0
  5  4  1  6  0  0  0
  5  6  1  0  0  0  0
  5  7  1  0  0  0  0
  6  8  1  0  0  0  0
  9 10  1  0  0  0  0
M  END
> <PUBCHEM_COMPOUND_ID_TYPE>
0

> <PUBCHEM_TOTAL_CHARGE>
0

> <PUBCHEM_SUBSTANCE_ID>
310931108

> <PUBCHEM_SUBSTANCE_VERSION>
1

> <PUBCHEM_EXT_DATASOURCE_NAME>
4488

> <PUBCHEM_EXT_DATASOURCE_REGID>
SCHEMBL16108412

> <PUBCHEM_SUBSTANCE_COMMENT>
InChI=1S/C6H13N3O/c1-4(10)9-2-5(7)6(8)3-9/h5-6H,2-3,7-8H2,1H3/t5-,6+
InChIKey=QHACMPFFKWSAMV-OLQVQODUSA-N

> <PUBCHEM_SUBSTANCE_SYNONYM>
SCHEMBL16108412

> <PUBCHEM_XREF_EXT_ID>
SCHEMBL16108412

> <PUBCHEM_EXT_DATASOURCE_URL>
https://www.surechembl.org/

> <PUBCHEM_EXT_SUBSTANCE_URL>
https://www.surechembl.org/chemical/SCHEMBL16108412

> <PUBCHEM_CID_ASSOCIATIONS>
55284608  1

> <PUBCHEM_COORDINATE_TYPE>
1
3

> <PUBCHEM_BONDANNOTATIONS>
6  3  6
5  4  6

$$$$
