310942492
  -OEChem-07211613022D

 44 48  0     1  0  0  0  0  0999 V2000
   -2.8608    0.1843    0.0000 F   0  0  0  0  0  0  0  0  0  0  0  0
   -2.8608   -3.1333    0.0000 F   0  0  0  0  0  0  0  0  0  0  0  0
    3.5981   -1.7069    0.0000 F   0  0  0  0  0  0  0  0  0  0  0  0
   -0.4888    3.9347    0.0000 F   0  0  0  0  0  0  0  0  0  0  0  0
   -0.3606   -1.5787    0.0000 O   0  0  0  0  0  0  0  0  0  0  0  0
    2.1396    1.5627    0.0000 O   0  0  0  0  0  0  0  0  0  0  0  0
   -2.8128    2.2679    0.0000 O   0  0  0  0  0  0  0  0  0  0  0  0
   -1.3062   -3.5340    0.0000 O   0  0  0  0  0  0  0  0  0  0  0  0
   -0.5369    0.3446    0.0000 N   0  0  0  0  0  0  0  0  0  0  0  0
    1.0337   -1.2100    0.0000 N   0  0  0  0  0  0  0  0  0  0  0  0
   -0.6812   -0.9856    0.0000 N   0  0  0  0  0  0  0  0  0  0  0  0
    0.6491   -2.5884    0.0000 N   0  0  0  0  0  0  0  0  0  0  0  0
    2.2679   -3.3897    0.0000 N   0  0  0  0  0  0  0  0  0  0  0  0
   -0.1363   -0.3446    0.0000 C   0  0  0  0  0  0  0  0  0  0  0  0
    0.6812   -0.4408    0.0000 C   0  0  3  0  0  0  0  0  0  0  0  0
   -1.4504   -0.6171    0.0000 C   0  0  0  0  0  0  0  0  0  0  0  0
   -1.3383    0.2004    0.0000 C   0  0  0  0  0  0  0  0  0  0  0  0
    1.1620    0.2484    0.0000 C   0  0  0  0  0  0  0  0  0  0  0  0
   -2.1556   -1.0337    0.0000 C   0  0  0  0  0  0  0  0  0  0  0  0
   -0.2164    1.1139    0.0000 C   0  0  0  0  0  0  0  0  0  0  0  0
    0.4568   -1.8031    0.0000 C   0  0  0  0  0  0  0  0  0  0  0  0
    1.8351   -1.2902    0.0000 C   0  0  0  0  0  0  0  0  0  0  0  0
   -2.8929   -0.6331    0.0000 C   0  0  0  0  0  0  0  0  0  0  0  0
   -0.6972    1.7871    0.0000 C   0  0  0  0  0  0  0  0  0  0  0  0
    2.1556   -2.0435    0.0000 C   0  0  3  0  0  0  0  0  0  0  0  0
   -2.1716   -1.8672    0.0000 C   0  0  0  0  0  0  0  0  0  0  0  0
    0.8415    0.9696    0.0000 C   0  0  0  0  0  0  0  0  0  0  0  0
    1.9954    0.1523    0.0000 C   0  0  0  0  0  0  0  0  0  0  0  0
   -2.8608   -2.2839    0.0000 C   0  0  0  0  0  0  0  0  0  0  0  0
   -3.5980   -1.0498    0.0000 C   0  0  0  0  0  0  0  0  0  0  0  0
    2.9410   -2.2358    0.0000 C   0  0  3  0  0  0  0  0  0  0  0  0
   -0.3606    2.5403    0.0000 C   0  0  0  0  0  0  0  0  0  0  0  0
   -1.4985    1.7069    0.0000 C   0  0  0  0  0  0  0  0  0  0  0  0
   -3.5980   -1.8832    0.0000 C   0  0  0  0  0  0  0  0  0  0  0  0
    1.3062    1.6588    0.0000 C   0  0  0  0  0  0  0  0  0  0  0  0
    2.4762    0.8415    0.0000 C   0  0  0  0  0  0  0  0  0  0  0  0
    1.7389   -2.7647    0.0000 C   0  0  0  0  0  0  0  0  0  0  0  0
   -0.8415    3.1974    0.0000 C   0  0  0  0  0  0  0  0  0  0  0  0
   -1.9954    2.3640    0.0000 C   0  0  0  0  0  0  0  0  0  0  0  0
    0.0721   -3.1654    0.0000 C   0  0  3  0  0  0  0  0  0  0  0  0
    3.0051   -3.0692    0.0000 C   0  0  0  0  0  0  0  0  0  0  0  0
   -1.6428    3.1172    0.0000 C   0  0  0  0  0  0  0  0  0  0  0  0
   -0.7132   -2.9410    0.0000 C   0  0  0  0  0  0  0  0  0  0  0  0
    0.2805   -3.9347    0.0000 C   0  0  0  0  0  0  0  0  0  0  0  0
  1 23  1  0  0  0  0
  2 29  1  0  0  0  0
 31  3  1  1  0  0  0
  4 38  1  0  0  0  0
  5 21  2  0  0  0  0
  6 35  1  0  0  0  0
  6 36  1  0  0  0  0
  7 39  1  0  0  0  0
  8 43  1  0  0  0  0
  9 14  1  0  0  0  0
  9 17  1  0  0  0  0
  9 20  1  0  0  0  0
 15 10  1  1  0  0  0
 10 21  1  0  0  0  0
 10 22  1  0  0  0  0
 11 14  2  0  0  0  0
 11 16  1  0  0  0  0
 12 21  1  0  0  0  0
 12 40  1  0  0  0  0
 13 37  1  0  0  0  0
 13 41  1  0  0  0  0
 14 15  1  0  0  0  0
 15 18  1  0  0  0  0
 16 17  2  0  0  0  0
 16 19  1  0  0  0  0
 18 27  1  0  0  0  0
 18 28  1  0  0  0  0
 19 23  2  0  0  0  0
 19 26  1  0  0  0  0
 20 24  1  0  0  0  0
 25 22  1  1  0  0  0
 23 30  1  0  0  0  0
 24 32  1  0  0  0  0
 24 33  2  0  0  0  0
 25 31  1  0  0  0  0
 25 37  1  0  0  0  0
 26 29  2  0  0  0  0
 27 35  1  0  0  0  0
 28 36  1  0  0  0  0
 29 34  1  0  0  0  0
 30 34  2  0  0  0  0
 31 41  1  0  0  0  0
 32 38  2  0  0  0  0
 33 39  1  0  0  0  0
 38 42  1  0  0  0  0
 39 42  2  0  0  0  0
 40 43  1  0  0  0  0
 40 44  1  1  0  0  0
M  END
> <PUBCHEM_COMPOUND_ID_TYPE>
0

> <PUBCHEM_TOTAL_CHARGE>
0

> <PUBCHEM_SUBSTANCE_ID>
310942492

> <PUBCHEM_SUBSTANCE_VERSION>
1

> <PUBCHEM_EXT_DATASOURCE_NAME>
4488

> <PUBCHEM_EXT_DATASOURCE_REGID>
SCHEMBL16120528

> <PUBCHEM_SUBSTANCE_COMMENT>
InChI=1S/C31H37F4N5O4/c1-18(17-41)37-31(43)40(15-21-12-36-13-27(21)35)29(20-4-6-44-7-5-20)30-38-28(25-11-22(32)2-3-26(25)34)16-39(30)14-19-8-23(33)10-24(42)9-19/h2-3,8-11,16,18,20-21,27,29,36,41-42H,4-7,12-15,17H2,1H3,(H,37,43)/t18-,21-,27-,29+/m0/s1
InChIKey=JSTVTBYKZSNOIQ-HREVUORTSA-N

> <PUBCHEM_SUBSTANCE_SYNONYM>
SCHEMBL16120528

> <PUBCHEM_XREF_EXT_ID>
SCHEMBL16120528

> <PUBCHEM_EXT_DATASOURCE_URL>
https://www.surechembl.org/

> <PUBCHEM_EXT_SUBSTANCE_URL>
https://www.surechembl.org/chemical/SCHEMBL16120528

> <PUBCHEM_CID_ASSOCIATIONS>
117609063  1

> <PUBCHEM_COORDINATE_TYPE>
1
3

> <PUBCHEM_BONDANNOTATIONS>
15  10  5
25  22  5
31  3  5
40  44  5

$$$$
