310944622
  -OEChem-07211613022D

 18 20  0     0  0  0  0  0  0999 V2000
   -0.0127    2.3442    0.0000 F   0  0  0  0  0  0  0  0  0  0  0  0
   -1.3632   -0.2548    0.0000 O   0  0  0  0  0  0  0  0  0  0  0  0
   -2.1785    1.8473    0.0000 N   0  0  0  0  0  0  0  0  0  0  0  0
    2.1785    1.9110    0.0000 N   0  0  0  0  0  0  0  0  0  0  0  0
    0.0127   -0.0637    0.0000 C   0  0  0  0  0  0  0  0  0  0  0  0
   -0.7262    0.3312    0.0000 C   0  0  0  0  0  0  0  0  0  0  0  0
   -0.1784   -0.8663    0.0000 C   0  0  0  0  0  0  0  0  0  0  0  0
   -0.7262    1.1466    0.0000 C   0  0  0  0  0  0  0  0  0  0  0  0
   -1.0192   -0.9555    0.0000 C   0  0  0  0  0  0  0  0  0  0  0  0
    0.0000    1.5415    0.0000 C   0  0  0  0  0  0  0  0  0  0  0  0
    0.7262    1.1593    0.0000 C   0  0  0  0  0  0  0  0  0  0  0  0
    0.7135    0.3440    0.0000 C   0  0  0  0  0  0  0  0  0  0  0  0
    0.3312   -1.5160    0.0000 C   0  0  0  0  0  0  0  0  0  0  0  0
   -1.3377   -1.6944    0.0000 C   0  0  0  0  0  0  0  0  0  0  0  0
   -1.4651    1.5160    0.0000 C   0  0  0  0  0  0  0  0  0  0  0  0
    1.4524    1.5543    0.0000 C   0  0  0  0  0  0  0  0  0  0  0  0
    0.0000   -2.2423    0.0000 C   0  0  0  0  0  0  0  0  0  0  0  0
   -0.8409   -2.3442    0.0000 C   0  0  0  0  0  0  0  0  0  0  0  0
  1 10  1  0  0  0  0
  2  6  1  0  0  0  0
  2  9  1  0  0  0  0
  3 15  3  0  0  0  0
  4 16  3  0  0  0  0
  5  6  1  0  0  0  0
  5  7  1  0  0  0  0
  5 12  2  0  0  0  0
  6  8  2  0  0  0  0
  7  9  2  0  0  0  0
  7 13  1  0  0  0  0
  8 10  1  0  0  0  0
  8 15  1  0  0  0  0
  9 14  1  0  0  0  0
 10 11  2  0  0  0  0
 11 12  1  0  0  0  0
 11 16  1  0  0  0  0
 13 17  2  0  0  0  0
 14 18  2  0  0  0  0
 17 18  1  0  0  0  0
M  END
> <PUBCHEM_COMPOUND_ID_TYPE>
0

> <PUBCHEM_TOTAL_CHARGE>
0

> <PUBCHEM_SUBSTANCE_ID>
310944622

> <PUBCHEM_SUBSTANCE_VERSION>
1

> <PUBCHEM_EXT_DATASOURCE_NAME>
4488

> <PUBCHEM_EXT_DATASOURCE_REGID>
SCHEMBL16122700

> <PUBCHEM_SUBSTANCE_COMMENT>
InChI=1S/C14H5FN2O/c15-13-8(6-16)5-10-9-3-1-2-4-12(9)18-14(10)11(13)7-17/h1-5H
InChIKey=WYJCQGQOGCULET-UHFFFAOYSA-N

> <PUBCHEM_SUBSTANCE_SYNONYM>
SCHEMBL16122700

> <PUBCHEM_XREF_EXT_ID>
SCHEMBL16122700

> <PUBCHEM_EXT_DATASOURCE_URL>
https://www.surechembl.org/

> <PUBCHEM_EXT_SUBSTANCE_URL>
https://www.surechembl.org/chemical/SCHEMBL16122700

> <PUBCHEM_CID_ASSOCIATIONS>
117610852  1

> <PUBCHEM_COORDINATE_TYPE>
1
3

$$$$
