310932697
  -OEChem-07211613022D

 25 28  0     0  0  0  0  0  0999 V2000
    0.2046   -1.1567    0.0000 O   0  0  0  0  0  0  0  0  0  0  0  0
    0.6723    2.5948    0.0000 O   0  0  0  0  0  0  0  0  0  0  0  0
    2.0313    2.1533    0.0000 O   0  0  0  0  0  0  0  0  0  0  0  0
    1.9339   -0.6855    0.0000 N   0  0  0  0  0  0  0  0  0  0  0  0
   -0.0925    0.2410    0.0000 N   0  0  0  0  0  0  0  0  0  0  0  0
    0.1624    1.0256    0.0000 N   0  0  0  0  0  0  0  0  0  0  0  0
    1.5214    0.5840    0.0000 C   0  0  0  0  0  0  0  0  0  0  0  0
    1.2665   -0.2006    0.0000 C   0  0  0  0  0  0  0  0  0  0  0  0
    2.3464    0.5840    0.0000 C   0  0  0  0  0  0  0  0  0  0  0  0
    2.6014   -0.2006    0.0000 C   0  0  0  0  0  0  0  0  0  0  0  0
    0.9694    1.1971    0.0000 C   0  0  0  0  0  0  0  0  0  0  0  0
    0.4595   -0.3721    0.0000 C   0  0  0  0  0  0  0  0  0  0  0  0
   -0.8995    0.0694    0.0000 C   0  0  0  0  0  0  0  0  0  0  0  0
    2.8985    1.1971    0.0000 C   0  0  0  0  0  0  0  0  0  0  0  0
    1.2243    1.9817    0.0000 C   0  0  0  0  0  0  0  0  0  0  0  0
    3.4084   -0.3721    0.0000 C   0  0  0  0  0  0  0  0  0  0  0  0
    1.9339   -1.5105    0.0000 C   0  0  0  0  0  0  0  0  0  0  0  0
    3.7054    1.0256    0.0000 C   0  0  0  0  0  0  0  0  0  0  0  0
    3.9604    0.2410    0.0000 C   0  0  0  0  0  0  0  0  0  0  0  0
   -1.1544   -0.7152    0.0000 C   0  0  0  0  0  0  0  0  0  0  0  0
   -1.4515    0.6825    0.0000 C   0  0  0  0  0  0  0  0  0  0  0  0
   -1.9614   -0.8867    0.0000 C   0  0  0  0  0  0  0  0  0  0  0  0
   -2.2585    0.5110    0.0000 C   0  0  0  0  0  0  0  0  0  0  0  0
   -2.5134   -0.2736    0.0000 C   0  0  0  0  0  0  0  0  0  0  0  0
   -3.3204   -0.4451    0.0000 C   0  0  0  0  0  0  0  0  0  0  0  0
  1 12  2  0  0  0  0
  2 15  2  0  0  0  0
  3 15  1  0  0  0  0
  4  8  1  0  0  0  0
  4 10  1  0  0  0  0
  4 17  1  0  0  0  0
  5  6  1  0  0  0  0
  5 12  1  0  0  0  0
  5 13  1  0  0  0  0
  6 11  2  0  0  0  0
  7  8  2  0  0  0  0
  7  9  1  0  0  0  0
  7 11  1  0  0  0  0
  8 12  1  0  0  0  0
  9 10  1  0  0  0  0
  9 14  2  0  0  0  0
 10 16  2  0  0  0  0
 11 15  1  0  0  0  0
 13 20  2  0  0  0  0
 13 21  1  0  0  0  0
 14 18  1  0  0  0  0
 16 19  1  0  0  0  0
 18 19  2  0  0  0  0
 20 22  1  0  0  0  0
 21 23  2  0  0  0  0
 22 24  2  0  0  0  0
 23 24  1  0  0  0  0
 24 25  1  0  0  0  0
M  END
> <PUBCHEM_COMPOUND_ID_TYPE>
0

> <PUBCHEM_TOTAL_CHARGE>
0

> <PUBCHEM_SUBSTANCE_ID>
310932697

> <PUBCHEM_SUBSTANCE_VERSION>
1

> <PUBCHEM_EXT_DATASOURCE_NAME>
4488

> <PUBCHEM_EXT_DATASOURCE_REGID>
SCHEMBL16110079

> <PUBCHEM_SUBSTANCE_COMMENT>
InChI=1S/C19H15N3O3/c1-11-7-9-12(10-8-11)22-18(23)17-15(16(20-22)19(24)25)13-5-3-4-6-14(13)21(17)2/h3-10H,1-2H3,(H,24,25)
InChIKey=ZJAYGXDZVXMMRO-UHFFFAOYSA-N

> <PUBCHEM_SUBSTANCE_SYNONYM>
SCHEMBL16110079

> <PUBCHEM_XREF_EXT_ID>
SCHEMBL16110079

> <PUBCHEM_EXT_DATASOURCE_URL>
https://www.surechembl.org/

> <PUBCHEM_EXT_SUBSTANCE_URL>
https://www.surechembl.org/chemical/SCHEMBL16110079

> <PUBCHEM_CID_ASSOCIATIONS>
22334530  1

> <PUBCHEM_COORDINATE_TYPE>
1
3

$$$$
