310940992
  -OEChem-07211613022D

 32 35  0     1  0  0  0  0  0999 V2000
   -0.4983    2.5789    0.0000 O   0  0  0  0  0  0  0  0  0  0  0  0
    2.1304    2.1927    0.0000 O   0  0  0  0  0  0  0  0  0  0  0  0
    3.4883    0.0374    0.0000 O   0  0  0  0  0  0  0  0  0  0  0  0
    1.4577   -2.0058    0.0000 O   0  0  0  0  0  0  0  0  0  0  0  0
    0.7351    0.7849    0.0000 N   0  0  0  0  0  0  0  0  0  0  0  0
   -0.2741   -0.2741    0.0000 N   0  0  0  0  0  0  0  0  0  0  0  0
   -1.8688    0.5233    0.0000 N   0  0  0  0  0  0  0  0  0  0  0  0
   -1.8688    1.8688    0.0000 N   0  0  0  0  0  0  0  0  0  0  0  0
    0.7226    1.6196    0.0000 C   0  0  3  0  0  0  0  0  0  0  0  0
   -0.5606    1.1960    0.0000 C   0  0  0  0  0  0  0  0  0  0  0  0
   -0.0623    1.8563    0.0000 C   0  0  0  0  0  0  0  0  0  0  0  0
   -0.0623    0.5357    0.0000 C   0  0  0  0  0  0  0  0  0  0  0  0
   -1.3954    1.2085    0.0000 C   0  0  0  0  0  0  0  0  0  0  0  0
    1.3206    0.1993    0.0000 C   0  0  0  0  0  0  0  0  0  0  0  0
    1.5698    1.6072    0.0000 C   0  0  0  0  0  0  0  0  0  0  0  0
    0.9344    2.4045    0.0000 C   0  0  0  0  0  0  0  0  0  0  0  0
   -2.6661    0.7974    0.0000 C   0  0  0  0  0  0  0  0  0  0  0  0
   -2.6537    1.6196    0.0000 C   0  0  0  0  0  0  0  0  0  0  0  0
    1.1088   -0.6105    0.0000 C   0  0  0  0  0  0  0  0  0  0  0  0
    2.1180    0.3987    0.0000 C   0  0  0  0  0  0  0  0  0  0  0  0
    2.7035   -0.1744    0.0000 C   0  0  0  0  0  0  0  0  0  0  0  0
    1.6819   -1.1960    0.0000 C   0  0  0  0  0  0  0  0  0  0  0  0
    2.4793   -0.9842    0.0000 C   0  0  0  0  0  0  0  0  0  0  0  0
   -3.3887    0.3738    0.0000 C   0  0  0  0  0  0  0  0  0  0  0  0
   -3.3762    2.0183    0.0000 C   0  0  0  0  0  0  0  0  0  0  0  0
    0.2990   -0.8596    0.0000 C   0  0  0  0  0  0  0  0  0  0  0  0
   -4.0863    0.7849    0.0000 C   0  0  0  0  0  0  0  0  0  0  0  0
   -4.0863    1.6072    0.0000 C   0  0  0  0  0  0  0  0  0  0  0  0
    2.9527    1.9809    0.0000 C   0  0  0  0  0  0  0  0  0  0  0  0
    4.0863   -0.5482    0.0000 C   0  0  0  0  0  0  0  0  0  0  0  0
    2.0557   -2.5789    0.0000 C   0  0  0  0  0  0  0  0  0  0  0  0
    3.5257    2.5665    0.0000 C   0  0  0  0  0  0  0  0  0  0  0  0
  1 11  2  0  0  0  0
  2 15  1  0  0  0  0
  2 29  1  0  0  0  0
  3 21  1  0  0  0  0
  3 30  1  0  0  0  0
  4 22  1  0  0  0  0
  4 31  1  0  0  0  0
  5  9  1  0  0  0  0
  5 12  1  0  0  0  0
  5 14  1  0  0  0  0
  6 12  1  0  0  0  0
  6 26  1  0  0  0  0
  7 13  2  0  0  0  0
  7 17  1  0  0  0  0
  8 13  1  0  0  0  0
  8 18  1  0  0  0  0
  9 11  1  0  0  0  0
  9 15  1  6  0  0  0
  9 16  1  1  0  0  0
 10 11  1  0  0  0  0
 10 12  2  0  0  0  0
 10 13  1  0  0  0  0
 14 19  2  0  0  0  0
 14 20  1  0  0  0  0
 17 18  2  0  0  0  0
 17 24  1  0  0  0  0
 18 25  1  0  0  0  0
 19 22  1  0  0  0  0
 20 21  2  0  0  0  0
 21 23  1  0  0  0  0
 22 23  2  0  0  0  0
 24 27  2  0  0  0  0
 25 28  2  0  0  0  0
 27 28  1  0  0  0  0
 29 32  1  0  0  0  0
M  END
> <PUBCHEM_COMPOUND_ID_TYPE>
0

> <PUBCHEM_TOTAL_CHARGE>
0

> <PUBCHEM_SUBSTANCE_ID>
310940992

> <PUBCHEM_SUBSTANCE_VERSION>
1

> <PUBCHEM_EXT_DATASOURCE_NAME>
4488

> <PUBCHEM_EXT_DATASOURCE_REGID>
SCHEMBL16118951

> <PUBCHEM_SUBSTANCE_COMMENT>
InChI=1S/C24H28N4O4/c1-6-32-14-24(2)21(29)20(22-26-18-9-7-8-10-19(18)27-22)23(25-3)28(24)15-11-16(30-4)13-17(12-15)31-5/h7-13,25H,6,14H2,1-5H3,(H,26,27)/t24-/m0/s1
InChIKey=IAWQJQJUVWDGIM-DEOSSOPVSA-N

> <PUBCHEM_SUBSTANCE_SYNONYM>
SCHEMBL16118951

> <PUBCHEM_XREF_EXT_ID>
SCHEMBL16118951

> <PUBCHEM_EXT_DATASOURCE_URL>
https://www.surechembl.org/

> <PUBCHEM_EXT_SUBSTANCE_URL>
https://www.surechembl.org/chemical/SCHEMBL16118951

> <PUBCHEM_CID_ASSOCIATIONS>
117607898  1

> <PUBCHEM_COORDINATE_TYPE>
1
3

> <PUBCHEM_BONDANNOTATIONS>
9  15  6
9  16  5

$$$$
