310936209
  -OEChem-07211613022D

 44 46  0     1  0  0  0  0  0999 V2000
    0.4179   -1.3231    0.0000 P   0  0  3  0  0  0  0  0  0  0  0  0
    1.8468   -1.3231    0.0000 P   0  0  3  0  0  0  0  0  0  0  0  0
   -2.4792   -1.2461    0.0000 O   0  0  0  0  0  0  0  0  0  0  0  0
   -2.9543    0.8351    0.0000 O   0  0  0  0  0  0  0  0  0  0  0  0
   -0.2966   -0.9106    0.0000 O   0  0  0  0  0  0  0  0  0  0  0  0
   -1.1987    0.4619    0.0000 O   0  0  0  0  0  0  0  0  0  0  0  0
    1.1324   -0.9106    0.0000 O   0  0  0  0  0  0  0  0  0  0  0  0
   -6.5786   -0.2923    0.0000 O   0  0  0  0  0  0  0  0  0  0  0  0
    1.8468   -0.4981    0.0000 O   0  0  0  0  0  0  0  0  0  0  0  0
    0.4179   -2.1481    0.0000 O   0  0  0  0  0  0  0  0  0  0  0  0
    0.4179   -0.4981    0.0000 O   0  0  0  0  0  0  0  0  0  0  0  0
    1.8468   -2.1481    0.0000 O   0  0  0  0  0  0  0  0  0  0  0  0
    4.7047   -1.3231    0.0000 O   0  0  0  0  0  0  0  0  0  0  0  0
    3.9902   -0.0856    0.0000 O   0  0  0  0  0  0  0  0  0  0  0  0
   -3.8517   -0.7193    0.0000 N   0  0  0  0  0  0  0  0  0  0  0  0
   -5.0712   -1.2622    0.0000 N   0  0  0  0  0  0  0  0  0  0  0  0
   -4.3175    0.7143    0.0000 N   0  0  0  0  0  0  0  0  0  0  0  0
   -5.7386    0.8637    0.0000 N   0  0  0  0  0  0  0  0  0  0  0  0
    2.5613   -0.9106    0.0000 N   0  0  0  0  0  0  0  0  0  0  0  0
   -4.8987    2.0197    0.0000 N   0  0  0  0  0  0  0  0  0  0  0  0
    0.4179    1.1519    0.0000 N   0  0  0  0  0  0  0  0  0  0  0  0
   -3.0312   -0.6330    0.0000 C   0  0  3  0  0  0  0  0  0  0  0  0
   -4.4037   -0.1062    0.0000 C   0  0  0  0  0  0  0  0  0  0  0  0
   -5.1574   -0.4417    0.0000 C   0  0  0  0  0  0  0  0  0  0  0  0
   -2.6187    0.0814    0.0000 C   0  0  3  0  0  0  0  0  0  0  0  0
   -1.7255   -0.9106    0.0000 C   0  0  3  0  0  0  0  0  0  0  0  0
   -1.8118   -0.0901    0.0000 C   0  0  3  0  0  0  0  0  0  0  0  0
   -4.2642   -1.4337    0.0000 C   0  0  0  0  0  0  0  0  0  0  0  0
   -5.8249    0.0432    0.0000 C   0  0  0  0  0  0  0  0  0  0  0  0
   -4.9849    1.1993    0.0000 C   0  0  0  0  0  0  0  0  0  0  0  0
   -1.0110   -1.3231    0.0000 C   0  0  0  0  0  0  0  0  0  0  0  0
    3.2758   -1.3231    0.0000 C   0  0  3  0  0  0  0  0  0  0  0  0
    3.9902   -0.9106    0.0000 C   0  0  0  0  0  0  0  0  0  0  0  0
    1.1324   -0.0856    0.0000 C   0  0  0  0  0  0  0  0  0  0  0  0
    3.2758   -2.1481    0.0000 C   0  0  0  0  0  0  0  0  0  0  0  0
    1.1324    0.7394    0.0000 C   0  0  0  0  0  0  0  0  0  0  0  0
    5.4192   -0.9106    0.0000 C   0  0  0  0  0  0  0  0  0  0  0  0
    6.1336   -1.3231    0.0000 C   0  0  0  0  0  0  0  0  0  0  0  0
    6.8481   -0.9106    0.0000 C   0  0  0  0  0  0  0  0  0  0  0  0
    6.1336   -2.1481    0.0000 C   0  0  0  0  0  0  0  0  0  0  0  0
    7.5626   -1.3231    0.0000 C   0  0  0  0  0  0  0  0  0  0  0  0
    6.8481   -2.5606    0.0000 C   0  0  0  0  0  0  0  0  0  0  0  0
    8.2771   -0.9106    0.0000 C   0  0  0  0  0  0  0  0  0  0  0  0
    6.8481   -3.3856    0.0000 C   0  0  0  0  0  0  0  0  0  0  0  0
  1  5  1  0  0  0  0
  1  7  1  0  0  0  0
  1 10  2  0  0  0  0
  1 11  1  0  0  0  0
  2  7  1  0  0  0  0
  2  9  1  0  0  0  0
  2 12  2  0  0  0  0
  2 19  1  0  0  0  0
 22  3  1  1  0  0  0
  3 26  1  0  0  0  0
 25  4  1  6  0  0  0
  5 31  1  0  0  0  0
 27  6  1  6  0  0  0
  8 29  2  0  0  0  0
  9 34  1  0  0  0  0
 13 33  1  0  0  0  0
 13 37  1  0  0  0  0
 14 33  2  0  0  0  0
 15 22  1  0  0  0  0
 15 23  1  0  0  0  0
 15 28  1  0  0  0  0
 16 24  1  0  0  0  0
 16 28  2  0  0  0  0
 17 23  1  0  0  0  0
 17 30  2  0  0  0  0
 18 29  1  0  0  0  0
 18 30  1  0  0  0  0
 19 32  1  0  0  0  0
 20 30  1  0  0  0  0
 21 36  1  0  0  0  0
 22 25  1  0  0  0  0
 23 24  2  0  0  0  0
 24 29  1  0  0  0  0
 25 27  1  0  0  0  0
 26 27  1  0  0  0  0
 26 31  1  0  0  0  0
 32 33  1  0  0  0  0
 32 35  1  6  0  0  0
 34 36  1  0  0  0  0
 37 38  1  0  0  0  0
 38 39  1  0  0  0  0
 38 40  1  0  0  0  0
 39 41  1  0  0  0  0
 40 42  1  0  0  0  0
 41 43  1  0  0  0  0
 42 44  1  0  0  0  0
M  END
> <PUBCHEM_COMPOUND_ID_TYPE>
0

> <PUBCHEM_TOTAL_CHARGE>
0

> <PUBCHEM_SUBSTANCE_ID>
310936209

> <PUBCHEM_SUBSTANCE_VERSION>
1

> <PUBCHEM_EXT_DATASOURCE_NAME>
4488

> <PUBCHEM_EXT_DATASOURCE_REGID>
SCHEMBL16113821

> <PUBCHEM_SUBSTANCE_COMMENT>
InChI=1S/C23H41N7O12P2/c1-4-6-14(7-5-2)10-38-22(34)13(3)29-43(35,39-9-8-24)42-44(36,37)40-11-15-17(31)18(32)21(41-15)30-12-26-16-19(30)27-23(25)28-20(16)33/h12-15,17-18,21,31-32H,4-11,24H2,1-3H3,(H,29,35)(H,36,37)(H3,25,27,28,33)/t13-,15?,17+,18+,21+,43?/m0/s1
InChIKey=OMTWAOLCYMZAEF-QMAZDAEISA-N

> <PUBCHEM_SUBSTANCE_SYNONYM>
SCHEMBL16113821

> <PUBCHEM_XREF_EXT_ID>
SCHEMBL16113821

> <PUBCHEM_EXT_DATASOURCE_URL>
https://www.surechembl.org/

> <PUBCHEM_EXT_SUBSTANCE_URL>
https://www.surechembl.org/chemical/SCHEMBL16113821

> <PUBCHEM_CID_ASSOCIATIONS>
117604162  1

> <PUBCHEM_COORDINATE_TYPE>
1
3

> <PUBCHEM_BONDANNOTATIONS>
22  3  5
32  35  6
25  4  6
27  6  6

$$$$
