310940169
  -OEChem-07211613022D

 31 33  0     0  0  0  0  0  0999 V2000
   -0.4999    2.1372    0.0000 Cl  0  0  0  0  0  0  0  0  0  0  0  0
   -0.4999   -0.7500    0.0000 Cl  0  0  0  0  0  0  0  0  0  0  0  0
    2.3247   -0.1375    0.0000 S   0  0  0  0  0  0  0  0  0  0  0  0
   -2.9997   -0.1250    0.0000 F   0  0  0  0  0  0  0  0  0  0  0  0
   -3.8121    0.6874    0.0000 F   0  0  0  0  0  0  0  0  0  0  0  0
   -2.9997    1.4998    0.0000 F   0  0  0  0  0  0  0  0  0  0  0  0
    3.0372    1.0624    0.0000 F   0  0  0  0  0  0  0  0  0  0  0  0
    3.8121   -0.1375    0.0000 F   0  0  0  0  0  0  0  0  0  0  0  0
    0.3375    0.6999    0.0000 N   0  0  0  0  0  0  0  0  0  0  0  0
    0.8249    1.3748    0.0000 N   0  0  0  0  0  0  0  0  0  0  0  0
    0.4125   -0.6999    0.0000 N   0  0  0  0  0  0  0  0  0  0  0  0
    3.0621    1.9123    0.0000 N   0  0  0  0  0  0  0  0  0  0  0  0
    2.0748   -0.6999    0.0000 N   0  0  0  0  0  0  0  0  0  0  0  0
    2.9122   -2.1372    0.0000 N   0  0  0  0  0  0  0  0  0  0  0  0
   -0.5125    0.6999    0.0000 C   0  0  0  0  0  0  0  0  0  0  0  0
    0.8249    0.0250    0.0000 C   0  0  0  0  0  0  0  0  0  0  0  0
    1.5998    0.2875    0.0000 C   0  0  0  0  0  0  0  0  0  0  0  0
    1.6249    1.1249    0.0000 C   0  0  0  0  0  0  0  0  0  0  0  0
   -0.9249    1.4123    0.0000 C   0  0  0  0  0  0  0  0  0  0  0  0
   -0.9249   -0.0250    0.0000 C   0  0  0  0  0  0  0  0  0  0  0  0
   -2.1623    0.6999    0.0000 C   0  0  0  0  0  0  0  0  0  0  0  0
   -1.7498    1.4123    0.0000 C   0  0  0  0  0  0  0  0  0  0  0  0
   -1.7498   -0.0125    0.0000 C   0  0  0  0  0  0  0  0  0  0  0  0
   -2.9997    0.6999    0.0000 C   0  0  0  0  0  0  0  0  0  0  0  0
    2.3372    1.5249    0.0000 C   0  0  0  0  0  0  0  0  0  0  0  0
    0.8124   -1.4123    0.0000 C   0  0  0  0  0  0  0  0  0  0  0  0
    3.0497    0.2750    0.0000 C   0  0  0  0  0  0  0  0  0  0  0  0
    1.6498   -1.4123    0.0000 C   0  0  0  0  0  0  0  0  0  0  0  0
    2.0748   -2.1372    0.0000 C   0  0  0  0  0  0  0  0  0  0  0  0
    2.9122   -0.7124    0.0000 C   0  0  0  0  0  0  0  0  0  0  0  0
    3.3247   -1.4123    0.0000 C   0  0  0  0  0  0  0  0  0  0  0  0
  1 19  1  0  0  0  0
  2 20  1  0  0  0  0
  3 17  1  0  0  0  0
  3 27  1  0  0  0  0
  4 24  1  0  0  0  0
  5 24  1  0  0  0  0
  6 24  1  0  0  0  0
  7 27  1  0  0  0  0
  8 27  1  0  0  0  0
  9 10  1  0  0  0  0
  9 15  1  0  0  0  0
  9 16  1  0  0  0  0
 10 18  2  0  0  0  0
 11 16  1  0  0  0  0
 11 26  1  0  0  0  0
 12 25  3  0  0  0  0
 13 28  2  0  0  0  0
 13 30  1  0  0  0  0
 14 29  2  0  0  0  0
 14 31  1  0  0  0  0
 15 19  2  0  0  0  0
 15 20  1  0  0  0  0
 16 17  2  0  0  0  0
 17 18  1  0  0  0  0
 18 25  1  0  0  0  0
 19 22  1  0  0  0  0
 20 23  2  0  0  0  0
 21 22  2  0  0  0  0
 21 23  1  0  0  0  0
 21 24  1  0  0  0  0
 26 28  1  0  0  0  0
 28 29  1  0  0  0  0
 30 31  2  0  0  0  0
M  END
> <PUBCHEM_COMPOUND_ID_TYPE>
0

> <PUBCHEM_TOTAL_CHARGE>
0

> <PUBCHEM_SUBSTANCE_ID>
310940169

> <PUBCHEM_SUBSTANCE_VERSION>
1

> <PUBCHEM_EXT_DATASOURCE_NAME>
4488

> <PUBCHEM_EXT_DATASOURCE_REGID>
SCHEMBL16118103

> <PUBCHEM_SUBSTANCE_COMMENT>
InChI=1S/C17H9Cl2F5N6S/c18-10-3-8(17(22,23)24)4-11(19)13(10)30-15(28-7-9-6-26-1-2-27-9)14(31-16(20)21)12(5-25)29-30/h1-4,6,16,28H,7H2
InChIKey=XICSAAFZBSJWQH-UHFFFAOYSA-N

> <PUBCHEM_SUBSTANCE_SYNONYM>
SCHEMBL16118103

> <PUBCHEM_XREF_EXT_ID>
SCHEMBL16118103

> <PUBCHEM_EXT_DATASOURCE_URL>
https://www.surechembl.org/

> <PUBCHEM_EXT_SUBSTANCE_URL>
https://www.surechembl.org/chemical/SCHEMBL16118103

> <PUBCHEM_CID_ASSOCIATIONS>
15544672  1

> <PUBCHEM_COORDINATE_TYPE>
1
3

$$$$
