310944581
  -OEChem-07211613022D

 27 29  0     0  0  0  0  0  0999 V2000
   -3.4997   -0.7812    0.0000 Cl  0  0  0  0  0  0  0  0  0  0  0  0
   -4.1245    1.9811    0.0000 S   0  0  0  0  0  0  0  0  0  0  0  0
   -0.4499   -0.7687    0.0000 O   0  0  0  0  0  0  0  0  0  0  0  0
    0.9999    1.7310    0.0000 O   0  0  0  0  0  0  0  0  0  0  0  0
    4.5995   -0.3562    0.0000 O   0  0  0  0  0  0  0  0  0  0  0  0
    1.7373    0.4812    0.0000 N   0  0  0  0  0  0  0  0  0  0  0  0
   -0.4374    0.8936    0.0000 N   0  0  0  0  0  0  0  0  0  0  0  0
    3.1747   -0.3562    0.0000 N   0  0  0  0  0  0  0  0  0  0  0  0
   -2.5997    0.4812    0.0000 C   0  0  0  0  0  0  0  0  0  0  0  0
   -1.1624    0.4812    0.0000 C   0  0  0  0  0  0  0  0  0  0  0  0
   -2.5997   -0.3437    0.0000 C   0  0  0  0  0  0  0  0  0  0  0  0
   -3.3371    0.9061    0.0000 C   0  0  0  0  0  0  0  0  0  0  0  0
   -1.8873    0.8811    0.0000 C   0  0  0  0  0  0  0  0  0  0  0  0
   -1.1749   -0.3437    0.0000 C   0  0  0  0  0  0  0  0  0  0  0  0
   -1.8748   -0.7687    0.0000 C   0  0  0  0  0  0  0  0  0  0  0  0
    0.9874    0.8811    0.0000 C   0  0  0  0  0  0  0  0  0  0  0  0
   -3.3246    1.7185    0.0000 C   0  0  0  0  0  0  0  0  0  0  0  0
   -4.1121    0.6437    0.0000 C   0  0  0  0  0  0  0  0  0  0  0  0
    0.2875    0.4812    0.0000 C   0  0  0  0  0  0  0  0  0  0  0  0
    2.4372    0.8936    0.0000 C   0  0  0  0  0  0  0  0  0  0  0  0
    1.7373   -0.3562    0.0000 C   0  0  0  0  0  0  0  0  0  0  0  0
    3.1747    0.4812    0.0000 C   0  0  0  0  0  0  0  0  0  0  0  0
    2.4622   -0.7687    0.0000 C   0  0  0  0  0  0  0  0  0  0  0  0
   -4.5995    1.3061    0.0000 C   0  0  0  0  0  0  0  0  0  0  0  0
    3.8871   -0.7687    0.0000 C   0  0  0  0  0  0  0  0  0  0  0  0
    3.8871   -1.6186    0.0000 C   0  0  0  0  0  0  0  0  0  0  0  0
    3.1497   -1.9811    0.0000 C   0  0  0  0  0  0  0  0  0  0  0  0
  1 11  1  0  0  0  0
  2 17  1  0  0  0  0
  2 24  1  0  0  0  0
  3 14  1  0  0  0  0
  4 16  2  0  0  0  0
  5 25  2  0  0  0  0
  6 16  1  0  0  0  0
  6 20  1  0  0  0  0
  6 21  1  0  0  0  0
  7 10  1  0  0  0  0
  7 19  1  0  0  0  0
  8 22  1  0  0  0  0
  8 23  1  0  0  0  0
  8 25  1  0  0  0  0
  9 11  2  0  0  0  0
  9 12  1  0  0  0  0
  9 13  1  0  0  0  0
 10 13  2  0  0  0  0
 10 14  1  0  0  0  0
 11 15  1  0  0  0  0
 12 17  1  0  0  0  0
 12 18  2  0  0  0  0
 14 15  2  0  0  0  0
 16 19  1  0  0  0  0
 18 24  1  0  0  0  0
 20 22  1  0  0  0  0
 21 23  1  0  0  0  0
 25 26  1  0  0  0  0
 26 27  2  0  0  0  0
M  END
> <PUBCHEM_COMPOUND_ID_TYPE>
0

> <PUBCHEM_TOTAL_CHARGE>
0

> <PUBCHEM_SUBSTANCE_ID>
310944581

> <PUBCHEM_SUBSTANCE_VERSION>
1

> <PUBCHEM_EXT_DATASOURCE_NAME>
4488

> <PUBCHEM_EXT_DATASOURCE_REGID>
SCHEMBL16122659

> <PUBCHEM_SUBSTANCE_COMMENT>
InChI=1S/C19H22ClN3O3S/c1-2-18(25)22-4-6-23(7-5-22)19(26)11-21-16-9-14(13-3-8-27-12-13)15(20)10-17(16)24/h2-3,9-10,21,24H,1,4-8,11-12H2
InChIKey=VSJPSRJSGNBOPC-UHFFFAOYSA-N

> <PUBCHEM_SUBSTANCE_SYNONYM>
SCHEMBL16122659

> <PUBCHEM_XREF_EXT_ID>
SCHEMBL16122659

> <PUBCHEM_EXT_DATASOURCE_URL>
https://www.surechembl.org/

> <PUBCHEM_EXT_SUBSTANCE_URL>
https://www.surechembl.org/chemical/SCHEMBL16122659

> <PUBCHEM_CID_ASSOCIATIONS>
117610812  1

> <PUBCHEM_COORDINATE_TYPE>
1
3

$$$$
