310941410
  -OEChem-07211613022D

 20 20  0     1  0  0  0  0  0999 V2000
    2.1183   -1.7570    0.0000 O   0  0  0  0  0  0  0  0  0  0  0  0
    1.5312    0.8851    0.0000 O   0  0  0  0  0  0  0  0  0  0  0  0
   -2.2384   -0.1123    0.0000 O   0  0  0  0  0  0  0  0  0  0  0  0
    1.6206   -2.5755    0.0000 O   0  0  0  0  0  0  0  0  0  0  0  0
    0.0943    0.0568    0.0000 N   0  0  0  0  0  0  0  0  0  0  0  0
    0.1113    0.9358    0.0000 C   0  0  3  0  0  0  0  0  0  0  0  0
    0.8044    1.3415    0.0000 C   0  0  0  0  0  0  0  0  0  0  0  0
   -0.6325    1.3246    0.0000 C   0  0  0  0  0  0  0  0  0  0  0  0
   -1.3255    0.9189    0.0000 C   0  0  3  0  0  0  0  0  0  0  0  0
    1.6206   -2.0446    0.0000 C   0  0  0  0  0  0  0  0  0  0  0  0
    2.1294   -1.2040    0.0000 C   0  0  0  0  0  0  0  0  0  0  0  0
    0.8381    2.1529    0.0000 C   0  0  0  0  0  0  0  0  0  0  0  0
   -1.4269    0.0906    0.0000 C   0  0  0  0  0  0  0  0  0  0  0  0
   -2.0862    1.2401    0.0000 C   0  0  0  0  0  0  0  0  0  0  0  0
   -2.6272    0.6146    0.0000 C   0  0  0  0  0  0  0  0  0  0  0  0
    2.6272   -1.1819    0.0000 C   0  0  0  0  0  0  0  0  0  0  0  0
    1.6206   -1.2040    0.0000 C   0  0  0  0  0  0  0  0  0  0  0  0
    2.1183   -0.6621    0.0000 C   0  0  0  0  0  0  0  0  0  0  0  0
    0.0943    2.5586    0.0000 C   0  0  0  0  0  0  0  0  0  0  0  0
    1.5650    2.5755    0.0000 C   0  0  0  0  0  0  0  0  0  0  0  0
  1 10  1  0  0  0  0
  1 11  1  0  0  0  0
  2  7  2  0  0  0  0
  3 13  1  0  0  0  0
  3 15  1  0  0  0  0
  4 10  2  0  0  0  0
  6  5  1  1  0  0  0
  5 10  1  0  0  0  0
  6  7  1  0  0  0  0
  6  8  1  0  0  0  0
  7 12  1  0  0  0  0
  9  8  1  6  0  0  0
  9 13  1  0  0  0  0
  9 14  1  0  0  0  0
 11 16  1  0  0  0  0
 11 17  1  0  0  0  0
 11 18  1  0  0  0  0
 12 19  2  0  0  0  0
 12 20  1  0  0  0  0
 14 15  1  0  0  0  0
M  END
> <PUBCHEM_COMPOUND_ID_TYPE>
0

> <PUBCHEM_TOTAL_CHARGE>
0

> <PUBCHEM_SUBSTANCE_ID>
310941410

> <PUBCHEM_SUBSTANCE_VERSION>
1

> <PUBCHEM_EXT_DATASOURCE_NAME>
4488

> <PUBCHEM_EXT_DATASOURCE_REGID>
SCHEMBL16119370

> <PUBCHEM_SUBSTANCE_COMMENT>
InChI=1S/C15H25NO4/c1-10(2)13(17)12(8-11-6-7-19-9-11)16-14(18)20-15(3,4)5/h11-12H,1,6-9H2,2-5H3,(H,16,18)/t11-,12+/m1/s1
InChIKey=RUIFWOBQXXSNLJ-NEPJUHHUSA-N

> <PUBCHEM_SUBSTANCE_SYNONYM>
SCHEMBL16119370

> <PUBCHEM_XREF_EXT_ID>
SCHEMBL16119370

> <PUBCHEM_EXT_DATASOURCE_URL>
https://www.surechembl.org/

> <PUBCHEM_EXT_SUBSTANCE_URL>
https://www.surechembl.org/chemical/SCHEMBL16119370

> <PUBCHEM_CID_ASSOCIATIONS>
117608235  1

> <PUBCHEM_COORDINATE_TYPE>
1
3

> <PUBCHEM_BONDANNOTATIONS>
6  5  5
9  8  6

$$$$
