310949699
  -OEChem-07211613022D

 25 26  0     0  0  0  0  0  0999 V2000
   -1.0344   -1.8135    0.0000 O   0  0  0  0  0  0  0  0  0  0  0  0
   -1.0344    1.0802    0.0000 O   0  0  0  0  0  0  0  0  0  0  0  0
    0.1964    1.8135    0.0000 O   0  0  0  0  0  0  0  0  0  0  0  0
   -2.6844    1.0802    0.0000 O   0  0  0  0  0  0  0  0  0  0  0  0
   -1.4534    0.3601    0.0000 O   0  0  0  0  0  0  0  0  0  0  0  0
    3.9021    1.0934    0.0000 O   0  0  0  0  0  0  0  0  0  0  0  0
   -1.0476   -0.3601    0.0000 N   0  0  0  0  0  0  0  0  0  0  0  0
   -0.2226   -0.3601    0.0000 C   0  0  0  0  0  0  0  0  0  0  0  0
   -2.2784   -1.0802    0.0000 C   0  0  0  0  0  0  0  0  0  0  0  0
    0.1964    0.3601    0.0000 C   0  0  0  0  0  0  0  0  0  0  0  0
   -1.4666   -1.0802    0.0000 C   0  0  0  0  0  0  0  0  0  0  0  0
   -2.6844   -0.3732    0.0000 C   0  0  0  0  0  0  0  0  0  0  0  0
    1.0213    0.3470    0.0000 C   0  0  0  0  0  0  0  0  0  0  0  0
    1.4273   -0.3470    0.0000 C   0  0  0  0  0  0  0  0  0  0  0  0
    0.2095   -1.0934    0.0000 C   0  0  0  0  0  0  0  0  0  0  0  0
   -0.2095    1.0934    0.0000 C   0  0  0  0  0  0  0  0  0  0  0  0
   -2.6844   -1.8135    0.0000 C   0  0  0  0  0  0  0  0  0  0  0  0
   -2.2653    0.3470    0.0000 C   0  0  0  0  0  0  0  0  0  0  0  0
    0.9952   -1.0934    0.0000 C   0  0  0  0  0  0  0  0  0  0  0  0
   -3.4962   -0.3732    0.0000 C   0  0  0  0  0  0  0  0  0  0  0  0
   -3.4962   -1.8135    0.0000 C   0  0  0  0  0  0  0  0  0  0  0  0
   -3.9021   -1.0802    0.0000 C   0  0  0  0  0  0  0  0  0  0  0  0
    2.2522   -0.3470    0.0000 C   0  0  0  0  0  0  0  0  0  0  0  0
    2.6581    0.3732    0.0000 C   0  0  0  0  0  0  0  0  0  0  0  0
    3.4831    0.3732    0.0000 C   0  0  0  0  0  0  0  0  0  0  0  0
  1 11  2  0  0  0  0
  2 16  2  0  0  0  0
  3 16  1  0  0  0  0
  4 18  2  0  0  0  0
  5 18  1  0  0  0  0
  6 25  1  0  0  0  0
  7  8  1  0  0  0  0
  7 11  1  0  0  0  0
  8 10  1  0  0  0  0
  8 15  2  0  0  0  0
  9 11  1  0  0  0  0
  9 12  1  0  0  0  0
  9 17  2  0  0  0  0
 10 13  2  0  0  0  0
 10 16  1  0  0  0  0
 12 18  1  0  0  0  0
 12 20  2  0  0  0  0
 13 14  1  0  0  0  0
 14 19  2  0  0  0  0
 14 23  1  0  0  0  0
 15 19  1  0  0  0  0
 17 21  1  0  0  0  0
 20 22  1  0  0  0  0
 21 22  2  0  0  0  0
 23 24  1  0  0  0  0
 24 25  1  0  0  0  0
M  END
> <PUBCHEM_COMPOUND_ID_TYPE>
0

> <PUBCHEM_TOTAL_CHARGE>
0

> <PUBCHEM_SUBSTANCE_ID>
310949699

> <PUBCHEM_SUBSTANCE_VERSION>
1

> <PUBCHEM_EXT_DATASOURCE_NAME>
4488

> <PUBCHEM_EXT_DATASOURCE_REGID>
SCHEMBL16127897

> <PUBCHEM_SUBSTANCE_COMMENT>
InChI=1S/C18H17NO6/c20-9-3-4-11-7-8-15(14(10-11)18(24)25)19-16(21)12-5-1-2-6-13(12)17(22)23/h1-2,5-8,10,20H,3-4,9H2,(H,19,21)(H,22,23)(H,24,25)
InChIKey=HOSVFNQHAOKAAS-UHFFFAOYSA-N

> <PUBCHEM_SUBSTANCE_SYNONYM>
SCHEMBL16127897

> <PUBCHEM_XREF_EXT_ID>
SCHEMBL16127897

> <PUBCHEM_EXT_DATASOURCE_URL>
https://www.surechembl.org/

> <PUBCHEM_EXT_SUBSTANCE_URL>
https://www.surechembl.org/chemical/SCHEMBL16127897

> <PUBCHEM_CID_ASSOCIATIONS>
117615055  1

> <PUBCHEM_COORDINATE_TYPE>
1
3

$$$$
