310944547
  -OEChem-07211613022D

 26 30  0     1  0  0  0  0  0999 V2000
    2.7146   -0.9239    0.0000 O   0  0  0  0  0  0  0  0  0  0  0  0
    0.1934   -0.8810    0.0000 N   0  0  0  0  0  0  0  0  0  0  0  0
   -2.2850    0.6804    0.0000 N   0  0  0  0  0  0  0  0  0  0  0  0
   -1.9124    1.4254    0.0000 N   0  0  0  0  0  0  0  0  0  0  0  0
    0.6231   -1.5686    0.0000 C   0  0  3  0  0  0  0  0  0  0  0  0
    0.6518   -0.1361    0.0000 C   0  0  3  0  0  0  0  0  0  0  0  0
    1.8694   -0.8810    0.0000 C   0  0  0  0  0  0  0  0  0  0  0  0
   -3.1158    0.8380    0.0000 C   0  0  0  0  0  0  0  0  0  0  0  0
    1.4684   -0.1361    0.0000 C   0  0  0  0  0  0  0  0  0  0  0  0
    1.4254   -1.5830    0.0000 C   0  0  0  0  0  0  0  0  0  0  0  0
    1.3108   -1.1818    0.0000 C   0  0  0  0  0  0  0  0  0  0  0  0
    1.3108   -0.5515    0.0000 C   0  0  0  0  0  0  0  0  0  0  0  0
   -0.6518   -0.8523    0.0000 C   0  0  0  0  0  0  0  0  0  0  0  0
   -3.2591    1.6545    0.0000 C   0  0  0  0  0  0  0  0  0  0  0  0
   -1.0529   -0.0502    0.0000 C   0  0  3  0  0  0  0  0  0  0  0  0
   -1.8981   -0.0358    0.0000 C   0  0  0  0  0  0  0  0  0  0  0  0
   -2.5285    2.0413    0.0000 C   0  0  0  0  0  0  0  0  0  0  0  0
   -3.7461    0.2937    0.0000 C   0  0  0  0  0  0  0  0  0  0  0  0
   -4.0326    1.9411    0.0000 C   0  0  0  0  0  0  0  0  0  0  0  0
    3.9753   -1.6545    0.0000 C   0  0  0  0  0  0  0  0  0  0  0  0
    3.1158   -1.6402    0.0000 C   0  0  0  0  0  0  0  0  0  0  0  0
   -4.5197    0.5802    0.0000 C   0  0  0  0  0  0  0  0  0  0  0  0
   -4.6629    1.4111    0.0000 C   0  0  0  0  0  0  0  0  0  0  0  0
   -0.6088    0.6518    0.0000 C   0  0  0  0  0  0  0  0  0  0  0  0
    4.6629   -1.2392    0.0000 C   0  0  0  0  0  0  0  0  0  0  0  0
    4.6629   -2.0413    0.0000 C   0  0  0  0  0  0  0  0  0  0  0  0
  7  1  1  1  0  0  0
  1 21  1  0  0  0  0
  5  2  1  6  0  0  0
  6  2  1  6  0  0  0
  2 13  1  0  0  0  0
  3  4  1  0  0  0  0
  3  8  1  0  0  0  0
  3 16  1  0  0  0  0
  4 17  2  0  0  0  0
  5 10  1  0  0  0  0
  5 11  1  0  0  0  0
  6  9  1  0  0  0  0
  6 12  1  0  0  0  0
  7  9  1  0  0  0  0
  7 10  1  0  0  0  0
  8 14  2  0  0  0  0
  8 18  1  0  0  0  0
 11 12  1  0  0  0  0
 13 15  1  0  0  0  0
 14 17  1  0  0  0  0
 14 19  1  0  0  0  0
 15 16  1  0  0  0  0
 15 24  1  0  0  0  0
 18 22  2  0  0  0  0
 19 23  2  0  0  0  0
 20 21  1  0  0  0  0
 20 25  1  0  0  0  0
 20 26  1  0  0  0  0
 22 23  1  0  0  0  0
 25 26  1  0  0  0  0
M  END
> <PUBCHEM_COMPOUND_ID_TYPE>
0

> <PUBCHEM_TOTAL_CHARGE>
0

> <PUBCHEM_SUBSTANCE_ID>
310944547

> <PUBCHEM_SUBSTANCE_VERSION>
1

> <PUBCHEM_EXT_DATASOURCE_NAME>
4488

> <PUBCHEM_EXT_DATASOURCE_REGID>
SCHEMBL16122624

> <PUBCHEM_SUBSTANCE_COMMENT>
InChI=1S/C22H31N3O/c1-16(14-25-22-5-3-2-4-18(22)12-23-25)13-24-19-8-9-20(24)11-21(10-19)26-15-17-6-7-17/h2-5,12,16-17,19-21H,6-11,13-15H2,1H3/t16?,19-,20+,21+
InChIKey=PQHQGXDWBGRYCG-ASNJHYCGSA-N

> <PUBCHEM_SUBSTANCE_SYNONYM>
SCHEMBL16122624

> <PUBCHEM_XREF_EXT_ID>
SCHEMBL16122624

> <PUBCHEM_EXT_DATASOURCE_URL>
https://www.surechembl.org/

> <PUBCHEM_EXT_SUBSTANCE_URL>
https://www.surechembl.org/chemical/SCHEMBL16122624

> <PUBCHEM_CID_ASSOCIATIONS>
117610782  1

> <PUBCHEM_COORDINATE_TYPE>
1
3

> <PUBCHEM_BONDANNOTATIONS>
7  1  5
5  2  6
6  2  6

$$$$
