310932892
  -OEChem-07211613022D

 26 30  0     0  0  0  0  0  0999 V2000
    0.0000   -4.6731    0.0000 O   0  0  0  0  0  0  0  0  0  0  0  0
    5.5385   -3.5770    0.0000 O   0  0  0  0  0  0  0  0  0  0  0  0
    4.2116   -2.9135    0.0000 N   0  0  0  0  0  0  0  0  0  0  0  0
    2.0193   -1.4423    0.0000 N   0  0  0  0  0  0  0  0  0  0  0  0
    4.2116   -4.2404    0.0000 N   0  0  0  0  0  0  0  0  0  0  0  0
    2.2788   -0.6635    0.0000 N   0  0  0  0  0  0  0  0  0  0  0  0
    0.4039   -5.4232    0.0000 N   0  0  0  0  0  0  0  0  0  0  0  0
    2.7116   -2.7404    0.0000 C   0  0  0  0  0  0  0  0  0  0  0  0
    3.4328   -3.1443    0.0000 C   0  0  0  0  0  0  0  0  0  0  0  0
    2.6827   -1.9327    0.0000 C   0  0  0  0  0  0  0  0  0  0  0  0
    3.4328   -4.0097    0.0000 C   0  0  0  0  0  0  0  0  0  0  0  0
    2.0193   -4.0097    0.0000 C   0  0  0  0  0  0  0  0  0  0  0  0
    3.3462   -1.4423    0.0000 C   0  0  0  0  0  0  0  0  0  0  0  0
    2.0193   -3.1443    0.0000 C   0  0  0  0  0  0  0  0  0  0  0  0
    1.2981   -4.4135    0.0000 C   0  0  0  0  0  0  0  0  0  0  0  0
    2.7116   -4.3847    0.0000 C   0  0  0  0  0  0  0  0  0  0  0  0
    4.1539   -1.6731    0.0000 C   0  0  0  0  0  0  0  0  0  0  0  0
    4.7020   -3.5770    0.0000 C   0  0  0  0  0  0  0  0  0  0  0  0
    3.0866   -0.6635    0.0000 C   0  0  0  0  0  0  0  0  0  0  0  0
    0.5481   -4.0962    0.0000 C   0  0  0  0  0  0  0  0  0  0  0  0
    1.2115   -5.2212    0.0000 C   0  0  0  0  0  0  0  0  0  0  0  0
    4.9328   -1.5000    0.0000 C   0  0  0  0  0  0  0  0  0  0  0  0
    4.7020   -2.3078    0.0000 C   0  0  0  0  0  0  0  0  0  0  0  0
    1.7885    0.0000    0.0000 C   0  0  0  0  0  0  0  0  0  0  0  0
    0.3750   -3.2885    0.0000 C   0  0  0  0  0  0  0  0  0  0  0  0
    1.8174   -5.7693    0.0000 C   0  0  0  0  0  0  0  0  0  0  0  0
  1  7  1  0  0  0  0
  1 20  1  0  0  0  0
  2 18  2  0  0  0  0
  3  9  1  0  0  0  0
  3 18  1  0  0  0  0
  4  6  1  0  0  0  0
  4 10  2  0  0  0  0
  5 11  1  0  0  0  0
  5 18  1  0  0  0  0
  6 19  1  0  0  0  0
  6 24  1  0  0  0  0
  7 21  2  0  0  0  0
  8  9  1  0  0  0  0
  8 10  1  0  0  0  0
  8 14  2  0  0  0  0
  9 11  2  0  0  0  0
 10 13  1  0  0  0  0
 11 16  1  0  0  0  0
 12 14  1  0  0  0  0
 12 15  1  0  0  0  0
 12 16  2  0  0  0  0
 13 17  1  0  0  0  0
 13 19  2  0  0  0  0
 15 20  2  0  0  0  0
 15 21  1  0  0  0  0
 17 22  1  0  0  0  0
 17 23  1  0  0  0  0
 20 25  1  0  0  0  0
 21 26  1  0  0  0  0
 22 23  1  0  0  0  0
M  END
> <PUBCHEM_COMPOUND_ID_TYPE>
0

> <PUBCHEM_TOTAL_CHARGE>
0

> <PUBCHEM_SUBSTANCE_ID>
310932892

> <PUBCHEM_SUBSTANCE_VERSION>
1

> <PUBCHEM_EXT_DATASOURCE_NAME>
4488

> <PUBCHEM_EXT_DATASOURCE_REGID>
SCHEMBL16110285

> <PUBCHEM_SUBSTANCE_COMMENT>
InChI=1S/C19H19N5O2/c1-9-16(10(2)26-23-9)12-6-13(18-15(7-12)20-19(25)21-18)17-14(11-4-5-11)8-24(3)22-17/h6-8,11H,4-5H2,1-3H3,(H2,20,21,25)
InChIKey=BXXBUEAIMQMNSS-UHFFFAOYSA-N

> <PUBCHEM_SUBSTANCE_SYNONYM>
SCHEMBL16110285

> <PUBCHEM_XREF_EXT_ID>
SCHEMBL16110285

> <PUBCHEM_EXT_DATASOURCE_URL>
https://www.surechembl.org/

> <PUBCHEM_EXT_SUBSTANCE_URL>
https://www.surechembl.org/chemical/SCHEMBL16110285

> <PUBCHEM_CID_ASSOCIATIONS>
117601374  1

> <PUBCHEM_COORDINATE_TYPE>
1
3

$$$$
