310946181
  -OEChem-07211613022D

 44 52  0     0  0  0  0  0  0999 V2000
    1.7926   10.9670    0.0000 S   0  0  0  0  0  0  0  0  0  0  0  0
    0.8100    9.4679    0.0000 N   0  0  0  0  0  0  0  0  0  0  0  0
   -1.6470    7.8675    0.0000 C   0  0  0  0  0  0  0  0  0  0  0  0
   -0.8400    8.0390    0.0000 C   0  0  0  0  0  0  0  0  0  0  0  0
   -1.6470   11.0684    0.0000 C   0  0  0  0  0  0  0  0  0  0  0  0
   -0.8400   10.8969    0.0000 C   0  0  0  0  0  0  0  0  0  0  0  0
   -0.4275    7.3245    0.0000 C   0  0  0  0  0  0  0  0  0  0  0  0
   -0.4275   11.6114    0.0000 C   0  0  0  0  0  0  0  0  0  0  0  0
   -1.7332    7.0470    0.0000 C   0  0  0  0  0  0  0  0  0  0  0  0
   -1.7332   11.8889    0.0000 C   0  0  0  0  0  0  0  0  0  0  0  0
   -0.9795    6.7114    0.0000 C   0  0  0  0  0  0  0  0  0  0  0  0
   -0.9795   12.2244    0.0000 C   0  0  0  0  0  0  0  0  0  0  0  0
    0.3975    8.7535    0.0000 C   0  0  0  0  0  0  0  0  0  0  0  0
    0.3975   10.1824    0.0000 C   0  0  0  0  0  0  0  0  0  0  0  0
    1.6350    9.4679    0.0000 C   0  0  0  0  0  0  0  0  0  0  0  0
    2.0475   10.1824    0.0000 C   0  0  0  0  0  0  0  0  0  0  0  0
   -0.4275    8.7535    0.0000 C   0  0  0  0  0  0  0  0  0  0  0  0
   -0.4275   10.1824    0.0000 C   0  0  0  0  0  0  0  0  0  0  0  0
    2.8725   10.1824    0.0000 C   0  0  0  0  0  0  0  0  0  0  0  0
    0.3975    7.3245    0.0000 C   0  0  0  0  0  0  0  0  0  0  0  0
    0.3975   11.6114    0.0000 C   0  0  0  0  0  0  0  0  0  0  0  0
    0.8100    8.0390    0.0000 C   0  0  0  0  0  0  0  0  0  0  0  0
    0.8100   10.8969    0.0000 C   0  0  0  0  0  0  0  0  0  0  0  0
    3.1274   10.9670    0.0000 C   0  0  0  0  0  0  0  0  0  0  0  0
    2.4600   11.4520    0.0000 C   0  0  0  0  0  0  0  0  0  0  0  0
   -2.4007    6.5621    0.0000 C   0  0  0  0  0  0  0  0  0  0  0  0
   -2.4007   12.3738    0.0000 C   0  0  0  0  0  0  0  0  0  0  0  0
    2.0475    8.7535    0.0000 C   0  0  0  0  0  0  0  0  0  0  0  0
   -0.8933    5.8910    0.0000 C   0  0  0  0  0  0  0  0  0  0  0  0
   -0.8933   13.0449    0.0000 C   0  0  0  0  0  0  0  0  0  0  0  0
   -2.4720    7.8675    0.0000 C   0  0  0  0  0  0  0  0  0  0  0  0
   -2.0595    8.5819    0.0000 C   0  0  0  0  0  0  0  0  0  0  0  0
   -1.4335   10.2715    0.0000 C   0  0  0  0  0  0  0  0  0  0  0  0
   -2.4439   11.2819    0.0000 C   0  0  0  0  0  0  0  0  0  0  0  0
    3.2850    9.4679    0.0000 C   0  0  0  0  0  0  0  0  0  0  0  0
    2.8725    8.7535    0.0000 C   0  0  0  0  0  0  0  0  0  0  0  0
   -2.3144    5.7416    0.0000 C   0  0  0  0  0  0  0  0  0  0  0  0
    3.8811   11.3026    0.0000 C   0  0  0  0  0  0  0  0  0  0  0  0
   -1.5607    5.4060    0.0000 C   0  0  0  0  0  0  0  0  0  0  0  0
   -2.3144   13.1943    0.0000 C   0  0  0  0  0  0  0  0  0  0  0  0
   -1.5607   13.5299    0.0000 C   0  0  0  0  0  0  0  0  0  0  0  0
    2.5462   12.2724    0.0000 C   0  0  0  0  0  0  0  0  0  0  0  0
    3.9673   12.1231    0.0000 C   0  0  0  0  0  0  0  0  0  0  0  0
    3.2999   12.6080    0.0000 C   0  0  0  0  0  0  0  0  0  0  0  0
  1 16  1  0  0  0  0
  1 25  1  0  0  0  0
  2 13  1  0  0  0  0
  2 14  1  0  0  0  0
  2 15  1  0  0  0  0
  3  4  1  0  0  0  0
  3  9  1  0  0  0  0
  3 31  1  0  0  0  0
  3 32  1  0  0  0  0
  4  7  2  0  0  0  0
  4 17  1  0  0  0  0
  5  6  1  0  0  0  0
  5 10  1  0  0  0  0
  5 33  1  0  0  0  0
  5 34  1  0  0  0  0
  6  8  1  0  0  0  0
  6 18  2  0  0  0  0
  7 11  1  0  0  0  0
  7 20  1  0  0  0  0
  8 12  1  0  0  0  0
  8 21  2  0  0  0  0
  9 11  2  0  0  0  0
  9 26  1  0  0  0  0
 10 12  2  0  0  0  0
 10 27  1  0  0  0  0
 11 29  1  0  0  0  0
 12 30  1  0  0  0  0
 13 17  2  0  0  0  0
 13 22  1  0  0  0  0
 14 18  1  0  0  0  0
 14 23  2  0  0  0  0
 15 16  1  0  0  0  0
 15 28  2  0  0  0  0
 16 19  2  0  0  0  0
 19 24  1  0  0  0  0
 19 35  1  0  0  0  0
 20 22  2  0  0  0  0
 21 23  1  0  0  0  0
 24 25  2  0  0  0  0
 24 38  1  0  0  0  0
 25 42  1  0  0  0  0
 26 37  2  0  0  0  0
 27 40  2  0  0  0  0
 28 36  1  0  0  0  0
 29 39  2  0  0  0  0
 30 41  2  0  0  0  0
 35 36  2  0  0  0  0
 37 39  1  0  0  0  0
 38 43  2  0  0  0  0
 40 41  1  0  0  0  0
 42 44  2  0  0  0  0
 43 44  1  0  0  0  0
M  END
> <PUBCHEM_COMPOUND_ID_TYPE>
0

> <PUBCHEM_TOTAL_CHARGE>
0

> <PUBCHEM_SUBSTANCE_ID>
310946181

> <PUBCHEM_SUBSTANCE_VERSION>
1

> <PUBCHEM_EXT_DATASOURCE_NAME>
4488

> <PUBCHEM_EXT_DATASOURCE_REGID>
SCHEMBL16124292

> <PUBCHEM_SUBSTANCE_COMMENT>
InChI=1S/C42H33NS/c1-41(2)34-16-8-5-12-28(34)30-22-20-26(24-36(30)41)43(38-18-11-15-33-32-14-7-10-19-39(32)44-40(33)38)27-21-23-31-29-13-6-9-17-35(29)42(3,4)37(31)25-27/h5-25H,1-4H3
InChIKey=XZXHELMIEAVKOR-UHFFFAOYSA-N

> <PUBCHEM_SUBSTANCE_SYNONYM>
SCHEMBL16124292

> <PUBCHEM_XREF_EXT_ID>
SCHEMBL16124292

> <PUBCHEM_EXT_DATASOURCE_URL>
https://www.surechembl.org/

> <PUBCHEM_EXT_SUBSTANCE_URL>
https://www.surechembl.org/chemical/SCHEMBL16124292

> <PUBCHEM_CID_ASSOCIATIONS>
117612136  1

> <PUBCHEM_COORDINATE_TYPE>
1
3

$$$$
