310944173
  -OEChem-07211613022D

 33 37  0     1  0  0  0  0  0999 V2000
    2.5786    1.1051    0.0000 O   0  0  0  0  0  0  0  0  0  0  0  0
    1.7318   -1.6769    0.0000 O   0  0  0  0  0  0  0  0  0  0  0  0
    5.3825    0.1484    0.0000 O   0  0  0  0  0  0  0  0  0  0  0  0
    5.5254    1.6219    0.0000 O   0  0  0  0  0  0  0  0  0  0  0  0
   -0.8522   -0.8632    0.0000 O   0  0  0  0  0  0  0  0  0  0  0  0
    3.2713   -0.2034    0.0000 N   0  0  0  0  0  0  0  0  0  0  0  0
    0.3574    0.2584    0.0000 N   0  0  0  0  0  0  0  0  0  0  0  0
   -4.1840    0.8962    0.0000 N   0  0  0  0  0  0  0  0  0  0  0  0
   -2.7985    1.2260    0.0000 N   0  0  0  0  0  0  0  0  0  0  0  0
   -4.4589    1.6769    0.0000 N   0  0  0  0  0  0  0  0  0  0  0  0
   -5.2836    1.6659    0.0000 N   0  0  0  0  0  0  0  0  0  0  0  0
   -5.5254    0.8742    0.0000 N   0  0  0  0  0  0  0  0  0  0  0  0
    1.9298   -0.2034    0.0000 C   0  0  0  0  0  0  0  0  0  0  0  0
    2.5896    0.2694    0.0000 C   0  0  0  0  0  0  0  0  0  0  0  0
    2.2047   -0.9952    0.0000 C   0  0  3  0  0  0  0  0  0  0  0  0
    4.0410    0.0935    0.0000 C   0  0  0  0  0  0  0  0  0  0  0  0
    3.0294   -0.9731    0.0000 C   0  0  0  0  0  0  0  0  0  0  0  0
    1.3360   -0.7752    0.0000 C   0  0  0  0  0  0  0  0  0  0  0  0
    1.7538    0.5883    0.0000 C   0  0  0  0  0  0  0  0  0  0  0  0
    4.2610    0.8852    0.0000 C   0  0  0  0  0  0  0  0  0  0  0  0
    0.5443   -0.5333    0.0000 C   0  0  0  0  0  0  0  0  0  0  0  0
    0.9511    0.8302    0.0000 C   0  0  0  0  0  0  0  0  0  0  0  0
    4.7447   -0.3684    0.0000 C   0  0  0  0  0  0  0  0  0  0  0  0
    5.0637    0.9072    0.0000 C   0  0  0  0  0  0  0  0  0  0  0  0
   -0.4343    0.5113    0.0000 C   0  0  0  0  0  0  0  0  0  0  0  0
    3.7222    1.5340    0.0000 C   0  0  0  0  0  0  0  0  0  0  0  0
   -1.0281   -0.0494    0.0000 C   0  0  3  0  0  0  0  0  0  0  0  0
   -1.8308    0.1814    0.0000 C   0  0  0  0  0  0  0  0  0  0  0  0
   -3.3923    0.6762    0.0000 C   0  0  0  0  0  0  0  0  0  0  0  0
   -2.0067    0.9952    0.0000 C   0  0  0  0  0  0  0  0  0  0  0  0
   -2.4246   -0.3794    0.0000 C   0  0  0  0  0  0  0  0  0  0  0  0
   -3.2164   -0.1265    0.0000 C   0  0  0  0  0  0  0  0  0  0  0  0
   -4.8437    0.4123    0.0000 C   0  0  0  0  0  0  0  0  0  0  0  0
  1 14  2  0  0  0  0
  2 15  1  0  0  0  0
  3 23  1  0  0  0  0
  3 24  1  0  0  0  0
  4 24  2  0  0  0  0
 27  5  1  6  0  0  0
  6 14  1  0  0  0  0
  6 16  1  0  0  0  0
  6 17  1  0  0  0  0
  7 21  1  0  0  0  0
  7 22  1  0  0  0  0
  7 25  1  0  0  0  0
  8 10  1  0  0  0  0
  8 29  1  0  0  0  0
  8 33  1  0  0  0  0
  9 29  2  0  0  0  0
  9 30  1  0  0  0  0
 10 11  2  0  0  0  0
 11 12  1  0  0  0  0
 12 33  2  0  0  0  0
 13 14  1  0  0  0  0
 13 15  1  0  0  0  0
 13 18  1  0  0  0  0
 13 19  1  0  0  0  0
 15 17  1  0  0  0  0
 16 20  2  0  0  0  0
 16 23  1  0  0  0  0
 18 21  1  0  0  0  0
 19 22  1  0  0  0  0
 20 24  1  0  0  0  0
 20 26  1  0  0  0  0
 25 27  1  0  0  0  0
 27 28  1  0  0  0  0
 28 30  2  0  0  0  0
 28 31  1  0  0  0  0
 29 32  1  0  0  0  0
 31 32  2  0  0  0  0
M  END
> <PUBCHEM_COMPOUND_ID_TYPE>
0

> <PUBCHEM_TOTAL_CHARGE>
0

> <PUBCHEM_SUBSTANCE_ID>
310944173

> <PUBCHEM_SUBSTANCE_VERSION>
1

> <PUBCHEM_EXT_DATASOURCE_NAME>
4488

> <PUBCHEM_EXT_DATASOURCE_REGID>
SCHEMBL16122248

> <PUBCHEM_SUBSTANCE_COMMENT>
InChI=1S/C21H25N7O5/c1-13-15(11-33-19(13)31)27-10-17(30)21(20(27)32)4-6-26(7-5-21)9-16(29)14-2-3-18(22-8-14)28-12-23-24-25-28/h2-3,8,12,16-17,29-30H,4-7,9-11H2,1H3/t16-,17?/m0/s1
InChIKey=DOTYANZAASFVGI-BHWOMJMDSA-N

> <PUBCHEM_SUBSTANCE_SYNONYM>
SCHEMBL16122248

> <PUBCHEM_XREF_EXT_ID>
SCHEMBL16122248

> <PUBCHEM_EXT_DATASOURCE_URL>
https://www.surechembl.org/

> <PUBCHEM_EXT_SUBSTANCE_URL>
https://www.surechembl.org/chemical/SCHEMBL16122248

> <PUBCHEM_CID_ASSOCIATIONS>
86270789  1

> <PUBCHEM_COORDINATE_TYPE>
1
3

> <PUBCHEM_BONDANNOTATIONS>
27  5  6

$$$$
