310947279
  -OEChem-07211613022D

 34 38  0     0  0  0  0  0  0999 V2000
   -2.6122    2.3620    0.0000 O   0  0  0  0  0  0  0  0  0  0  0  0
    3.5858    0.2144    0.0000 O   0  0  0  0  0  0  0  0  0  0  0  0
    5.0147    0.2144    0.0000 O   0  0  0  0  0  0  0  0  0  0  0  0
    0.3158    0.0445    0.0000 N   0  0  0  0  0  0  0  0  0  0  0  0
    0.8008    0.7120    0.0000 N   0  0  0  0  0  0  0  0  0  0  0  0
   -3.3267    1.1245    0.0000 N   0  0  0  0  0  0  0  0  0  0  0  0
   -0.4688    0.2995    0.0000 C   0  0  0  0  0  0  0  0  0  0  0  0
   -0.4688    1.1245    0.0000 C   0  0  0  0  0  0  0  0  0  0  0  0
    0.3158    1.3794    0.0000 C   0  0  0  0  0  0  0  0  0  0  0  0
   -1.1833    1.5370    0.0000 C   0  0  0  0  0  0  0  0  0  0  0  0
   -1.8977    1.1245    0.0000 C   0  0  0  0  0  0  0  0  0  0  0  0
   -1.1833   -0.1130    0.0000 C   0  0  0  0  0  0  0  0  0  0  0  0
    0.5294   -0.7524    0.0000 C   0  0  0  0  0  0  0  0  0  0  0  0
   -1.8977    0.2995    0.0000 C   0  0  0  0  0  0  0  0  0  0  0  0
    1.3262   -0.9659    0.0000 C   0  0  0  0  0  0  0  0  0  0  0  0
   -2.6122    1.5370    0.0000 C   0  0  0  0  0  0  0  0  0  0  0  0
    2.9200   -1.3930    0.0000 C   0  0  0  0  0  0  0  0  0  0  0  0
    3.7169   -1.6065    0.0000 C   0  0  0  0  0  0  0  0  0  0  0  0
    4.3003   -1.0231    0.0000 C   0  0  0  0  0  0  0  0  0  0  0  0
    0.7283    2.0939    0.0000 C   0  0  0  0  0  0  0  0  0  0  0  0
    1.5398   -1.7628    0.0000 C   0  0  0  0  0  0  0  0  0  0  0  0
    1.9096   -0.3825    0.0000 C   0  0  0  0  0  0  0  0  0  0  0  0
    2.3367   -1.9763    0.0000 C   0  0  0  0  0  0  0  0  0  0  0  0
    2.7065   -0.5961    0.0000 C   0  0  0  0  0  0  0  0  0  0  0  0
    3.9304   -2.4034    0.0000 C   0  0  0  0  0  0  0  0  0  0  0  0
    4.3003   -0.1981    0.0000 C   0  0  0  0  0  0  0  0  0  0  0  0
   -4.0411    1.5370    0.0000 C   0  0  0  0  0  0  0  0  0  0  0  0
    5.0972   -1.2366    0.0000 C   0  0  0  0  0  0  0  0  0  0  0  0
    4.7273   -2.6169    0.0000 C   0  0  0  0  0  0  0  0  0  0  0  0
    5.3107   -2.0335    0.0000 C   0  0  0  0  0  0  0  0  0  0  0  0
   -4.0411    2.3620    0.0000 C   0  0  0  0  0  0  0  0  0  0  0  0
   -4.8258    1.2820    0.0000 C   0  0  0  0  0  0  0  0  0  0  0  0
   -4.8258    2.6169    0.0000 C   0  0  0  0  0  0  0  0  0  0  0  0
   -5.3107    1.9495    0.0000 C   0  0  0  0  0  0  0  0  0  0  0  0
  1 16  2  0  0  0  0
  2 26  2  0  0  0  0
  3 26  1  0  0  0  0
  4  5  1  0  0  0  0
  4  7  1  0  0  0  0
  4 13  1  0  0  0  0
  5  9  2  0  0  0  0
  6 16  1  0  0  0  0
  6 27  1  0  0  0  0
  7  8  1  0  0  0  0
  7 12  2  0  0  0  0
  8  9  1  0  0  0  0
  8 10  2  0  0  0  0
  9 20  1  0  0  0  0
 10 11  1  0  0  0  0
 11 14  2  0  0  0  0
 11 16  1  0  0  0  0
 12 14  1  0  0  0  0
 13 15  1  0  0  0  0
 15 21  2  0  0  0  0
 15 22  1  0  0  0  0
 17 18  1  0  0  0  0
 17 23  2  0  0  0  0
 17 24  1  0  0  0  0
 18 19  1  0  0  0  0
 18 25  2  0  0  0  0
 19 26  1  0  0  0  0
 19 28  2  0  0  0  0
 21 23  1  0  0  0  0
 22 24  2  0  0  0  0
 25 29  1  0  0  0  0
 27 31  1  0  0  0  0
 27 32  1  0  0  0  0
 28 30  1  0  0  0  0
 29 30  2  0  0  0  0
 31 33  1  0  0  0  0
 32 34  1  0  0  0  0
 33 34  1  0  0  0  0
M  END
> <PUBCHEM_COMPOUND_ID_TYPE>
0

> <PUBCHEM_TOTAL_CHARGE>
0

> <PUBCHEM_SUBSTANCE_ID>
310947279

> <PUBCHEM_SUBSTANCE_VERSION>
1

> <PUBCHEM_EXT_DATASOURCE_NAME>
4488

> <PUBCHEM_EXT_DATASOURCE_REGID>
SCHEMBL16125434

> <PUBCHEM_SUBSTANCE_COMMENT>
InChI=1S/C28H27N3O3/c1-18-25-16-21(27(32)29-22-6-2-3-7-22)14-15-26(25)31(30-18)17-19-10-12-20(13-11-19)23-8-4-5-9-24(23)28(33)34/h4-5,8-16,22H,2-3,6-7,17H2,1H3,(H,29,32)(H,33,34)
InChIKey=KTNUIQHPJOGECW-UHFFFAOYSA-N

> <PUBCHEM_SUBSTANCE_SYNONYM>
SCHEMBL16125434

> <PUBCHEM_XREF_EXT_ID>
SCHEMBL16125434

> <PUBCHEM_EXT_DATASOURCE_URL>
https://www.surechembl.org/

> <PUBCHEM_EXT_SUBSTANCE_URL>
https://www.surechembl.org/chemical/SCHEMBL16125434

> <PUBCHEM_CID_ASSOCIATIONS>
71576894  1

> <PUBCHEM_COORDINATE_TYPE>
1
3

$$$$
