310949479
  -OEChem-07211613022D

 12 13  0     0  0  0  0  0  0999 V2000
   -1.2198   -1.2846    0.0000 O   0  0  0  0  0  0  0  0  0  0  0  0
   -0.3123   -0.1650    0.0000 N   0  0  0  0  0  0  0  0  0  0  0  0
    1.7972    0.8485    0.0000 N   0  0  0  0  0  0  0  0  0  0  0  0
    0.7719    0.2829    0.0000 C   0  0  0  0  0  0  0  0  0  0  0  0
    0.4419   -0.4714    0.0000 C   0  0  0  0  0  0  0  0  0  0  0  0
    0.0177    0.6129    0.0000 C   0  0  0  0  0  0  0  0  0  0  0  0
    0.9959    1.0725    0.0000 C   0  0  0  0  0  0  0  0  0  0  0  0
    1.5733    0.0707    0.0000 C   0  0  0  0  0  0  0  0  0  0  0  0
   -1.0783   -0.4125    0.0000 C   0  0  0  0  0  0  0  0  0  0  0  0
    2.5044    1.2846    0.0000 C   0  0  0  0  0  0  0  0  0  0  0  0
   -1.7383    0.0825    0.0000 C   0  0  0  0  0  0  0  0  0  0  0  0
   -2.5044   -0.2357    0.0000 C   0  0  0  0  0  0  0  0  0  0  0  0
  1  9  2  0  0  0  0
  2  5  1  0  0  0  0
  2  6  1  0  0  0  0
  2  9  1  0  0  0  0
  3  7  1  0  0  0  0
  3  8  1  0  0  0  0
  3 10  1  0  0  0  0
  4  5  1  0  0  0  0
  4  6  1  0  0  0  0
  4  7  1  0  0  0  0
  4  8  1  0  0  0  0
  9 11  1  0  0  0  0
 11 12  1  0  0  0  0
M  END
> <PUBCHEM_COMPOUND_ID_TYPE>
0

> <PUBCHEM_TOTAL_CHARGE>
0

> <PUBCHEM_SUBSTANCE_ID>
310949479

> <PUBCHEM_SUBSTANCE_VERSION>
1

> <PUBCHEM_EXT_DATASOURCE_NAME>
4488

> <PUBCHEM_EXT_DATASOURCE_REGID>
SCHEMBL16127673

> <PUBCHEM_SUBSTANCE_COMMENT>
InChI=1S/C9H16N2O/c1-3-8(12)11-6-9(7-11)4-10(2)5-9/h3-7H2,1-2H3
InChIKey=NFCYQADOMJSRPS-UHFFFAOYSA-N

> <PUBCHEM_SUBSTANCE_SYNONYM>
SCHEMBL16127673

> <PUBCHEM_XREF_EXT_ID>
SCHEMBL16127673

> <PUBCHEM_EXT_DATASOURCE_URL>
https://www.surechembl.org/

> <PUBCHEM_EXT_SUBSTANCE_URL>
https://www.surechembl.org/chemical/SCHEMBL16127673

> <PUBCHEM_CID_ASSOCIATIONS>
117614921  1

> <PUBCHEM_COORDINATE_TYPE>
1
3

$$$$
