310944203
  -OEChem-07211613022D

 33 37  0     1  0  0  0  0  0999 V2000
    2.4265    1.1280    0.0000 O   0  0  0  0  0  0  0  0  0  0  0  0
    5.1557   -0.6438    0.0000 O   0  0  0  0  0  0  0  0  0  0  0  0
    5.7170    0.7318    0.0000 O   0  0  0  0  0  0  0  0  0  0  0  0
   -0.8419   -0.6438    0.0000 O   0  0  0  0  0  0  0  0  0  0  0  0
    3.0538   -0.4017    0.0000 N   0  0  0  0  0  0  0  0  0  0  0  0
    0.1706    0.5007    0.0000 N   0  0  0  0  0  0  0  0  0  0  0  0
   -4.4074    0.5778    0.0000 N   0  0  0  0  0  0  0  0  0  0  0  0
   -2.2725    1.0070    0.0000 N   0  0  0  0  0  0  0  0  0  0  0  0
   -3.2849   -0.3136    0.0000 N   0  0  0  0  0  0  0  0  0  0  0  0
   -4.9796   -0.0165    0.0000 N   0  0  0  0  0  0  0  0  0  0  0  0
   -5.7170    0.3466    0.0000 N   0  0  0  0  0  0  0  0  0  0  0  0
   -5.6069    1.1720    0.0000 N   0  0  0  0  0  0  0  0  0  0  0  0
    1.6452   -0.2036    0.0000 C   0  0  0  0  0  0  0  0  0  0  0  0
    2.3495    0.2806    0.0000 C   0  0  0  0  0  0  0  0  0  0  0  0
    3.8681   -0.3247    0.0000 C   0  0  0  0  0  0  0  0  0  0  0  0
    1.7002   -0.9740    0.0000 C   0  0  0  0  0  0  0  0  0  0  0  0
    2.4816   -1.2161    0.0000 C   0  0  0  0  0  0  0  0  0  0  0  0
    0.9849   -0.6768    0.0000 C   0  0  0  0  0  0  0  0  0  0  0  0
    1.5792    0.6217    0.0000 C   0  0  0  0  0  0  0  0  0  0  0  0
    4.2864    0.4017    0.0000 C   0  0  0  0  0  0  0  0  0  0  0  0
    4.4074   -0.9409    0.0000 C   0  0  0  0  0  0  0  0  0  0  0  0
    0.2366   -0.3136    0.0000 C   0  0  0  0  0  0  0  0  0  0  0  0
    0.8308    0.9740    0.0000 C   0  0  0  0  0  0  0  0  0  0  0  0
    5.0787    0.1816    0.0000 C   0  0  0  0  0  0  0  0  0  0  0  0
   -0.6438    0.7759    0.0000 C   0  0  0  0  0  0  0  0  0  0  0  0
   -1.1500    0.1266    0.0000 C   0  0  3  0  0  0  0  0  0  0  0  0
   -1.9644    0.2586    0.0000 C   0  0  0  0  0  0  0  0  0  0  0  0
    3.9672    1.1610    0.0000 C   0  0  0  0  0  0  0  0  0  0  0  0
   -3.6041    0.4677    0.0000 C   0  0  0  0  0  0  0  0  0  0  0  0
   -2.4705   -0.4127    0.0000 C   0  0  0  0  0  0  0  0  0  0  0  0
   -3.0868    1.1280    0.0000 C   0  0  0  0  0  0  0  0  0  0  0  0
   -4.7925    1.3151    0.0000 C   0  0  0  0  0  0  0  0  0  0  0  0
   -1.3591   -1.3151    0.0000 C   0  0  0  0  0  0  0  0  0  0  0  0
  1 14  2  0  0  0  0
  2 21  1  0  0  0  0
  2 24  1  0  0  0  0
  3 24  2  0  0  0  0
 26  4  1  1  0  0  0
  4 33  1  0  0  0  0
  5 14  1  0  0  0  0
  5 15  1  0  0  0  0
  5 17  1  0  0  0  0
  6 22  1  0  0  0  0
  6 23  1  0  0  0  0
  6 25  1  0  0  0  0
  7 10  1  0  0  0  0
  7 29  1  0  0  0  0
  7 32  1  0  0  0  0
  8 27  1  0  0  0  0
  8 31  2  0  0  0  0
  9 29  2  0  0  0  0
  9 30  1  0  0  0  0
 10 11  2  0  0  0  0
 11 12  1  0  0  0  0
 12 32  2  0  0  0  0
 13 14  1  0  0  0  0
 13 16  1  0  0  0  0
 13 18  1  0  0  0  0
 13 19  1  0  0  0  0
 15 20  2  0  0  0  0
 15 21  1  0  0  0  0
 16 17  1  0  0  0  0
 18 22  1  0  0  0  0
 19 23  1  0  0  0  0
 20 24  1  0  0  0  0
 20 28  1  0  0  0  0
 25 26  1  0  0  0  0
 26 27  1  0  0  0  0
 27 30  2  0  0  0  0
 29 31  1  0  0  0  0
M  END
> <PUBCHEM_COMPOUND_ID_TYPE>
0

> <PUBCHEM_TOTAL_CHARGE>
0

> <PUBCHEM_SUBSTANCE_ID>
310944203

> <PUBCHEM_SUBSTANCE_VERSION>
1

> <PUBCHEM_EXT_DATASOURCE_NAME>
4488

> <PUBCHEM_EXT_DATASOURCE_REGID>
SCHEMBL16122278

> <PUBCHEM_SUBSTANCE_COMMENT>
InChI=1S/C21H26N8O4/c1-14-16(12-33-19(14)30)28-8-5-21(20(28)31)3-6-27(7-4-21)11-17(32-2)15-9-23-18(10-22-15)29-13-24-25-26-29/h9-10,13,17H,3-8,11-12H2,1-2H3/t17-/m1/s1
InChIKey=QHFLYOJFASCFIF-QGZVFWFLSA-N

> <PUBCHEM_SUBSTANCE_SYNONYM>
SCHEMBL16122278

> <PUBCHEM_XREF_EXT_ID>
SCHEMBL16122278

> <PUBCHEM_EXT_DATASOURCE_URL>
https://www.surechembl.org/

> <PUBCHEM_EXT_SUBSTANCE_URL>
https://www.surechembl.org/chemical/SCHEMBL16122278

> <PUBCHEM_CID_ASSOCIATIONS>
117610474  1

> <PUBCHEM_COORDINATE_TYPE>
1
3

> <PUBCHEM_BONDANNOTATIONS>
26  4  5

$$$$
