310937406
  -OEChem-07211613022D

 18 20  0     0  0  0  0  0  0999 V2000
    2.2580   -1.6573    0.0000 O   0  0  0  0  0  0  0  0  0  0  0  0
    0.0621   -0.3936    0.0000 O   0  0  0  0  0  0  0  0  0  0  0  0
    2.2580   -4.1224    0.0000 N   0  0  0  0  0  0  0  0  0  0  0  0
    4.3917   -3.7288    0.0000 N   0  0  0  0  0  0  0  0  0  0  0  0
    1.5330   -2.9002    0.0000 C   0  0  0  0  0  0  0  0  0  0  0  0
    2.2580   -2.4859    0.0000 C   0  0  0  0  0  0  0  0  0  0  0  0
    0.8079   -2.4859    0.0000 C   0  0  0  0  0  0  0  0  0  0  0  0
    2.9624   -2.9002    0.0000 C   0  0  0  0  0  0  0  0  0  0  0  0
    1.5330   -3.7288    0.0000 C   0  0  0  0  0  0  0  0  0  0  0  0
    0.0000   -2.4859    0.0000 C   0  0  0  0  0  0  0  0  0  0  0  0
    0.3936   -1.7608    0.0000 C   0  0  0  0  0  0  0  0  0  0  0  0
    2.9624   -3.7288    0.0000 C   0  0  0  0  0  0  0  0  0  0  0  0
    1.5330   -1.2430    0.0000 C   0  0  0  0  0  0  0  0  0  0  0  0
    1.5122   -0.3936    0.0000 C   0  0  0  0  0  0  0  0  0  0  0  0
    0.8079   -1.6366    0.0000 C   0  0  0  0  0  0  0  0  0  0  0  0
    3.6666   -4.1431    0.0000 C   0  0  0  0  0  0  0  0  0  0  0  0
    0.8079    0.0000    0.0000 C   0  0  0  0  0  0  0  0  0  0  0  0
    0.1036   -1.2430    0.0000 C   0  0  0  0  0  0  0  0  0  0  0  0
  1  6  1  0  0  0  0
  1 13  1  0  0  0  0
  2 17  1  0  0  0  0
  2 18  1  0  0  0  0
  3  9  2  0  0  0  0
  3 12  1  0  0  0  0
  4 16  3  0  0  0  0
  5  6  2  0  0  0  0
  5  7  1  0  0  0  0
  5  9  1  0  0  0  0
  6  8  1  0  0  0  0
  7 10  1  0  0  0  0
  7 11  1  0  0  0  0
  8 12  2  0  0  0  0
 10 11  1  0  0  0  0
 12 16  1  0  0  0  0
 13 14  1  0  0  0  0
 13 15  1  0  0  0  0
 14 17  1  0  0  0  0
 15 18  1  0  0  0  0
M  END
> <PUBCHEM_COMPOUND_ID_TYPE>
0

> <PUBCHEM_TOTAL_CHARGE>
0

> <PUBCHEM_SUBSTANCE_ID>
310937406

> <PUBCHEM_SUBSTANCE_VERSION>
1

> <PUBCHEM_EXT_DATASOURCE_NAME>
4488

> <PUBCHEM_EXT_DATASOURCE_REGID>
SCHEMBL16115164

> <PUBCHEM_SUBSTANCE_COMMENT>
InChI=1S/C14H16N2O2/c15-8-11-7-14(13(9-16-11)10-1-2-10)18-12-3-5-17-6-4-12/h7,9-10,12H,1-6H2
InChIKey=JSYFFVDNLWHPDB-UHFFFAOYSA-N

> <PUBCHEM_SUBSTANCE_SYNONYM>
SCHEMBL16115164

> <PUBCHEM_XREF_EXT_ID>
SCHEMBL16115164

> <PUBCHEM_EXT_DATASOURCE_URL>
https://www.surechembl.org/

> <PUBCHEM_EXT_SUBSTANCE_URL>
https://www.surechembl.org/chemical/SCHEMBL16115164

> <PUBCHEM_CID_ASSOCIATIONS>
117605168  1

> <PUBCHEM_COORDINATE_TYPE>
1
3

$$$$
