310948504
  -OEChem-07211613022D

 36 40  0     1  0  0  0  0  0999 V2000
   -0.3437   -2.6464    0.0000 S   0  0  0  0  0  0  0  0  0  0  0  0
   -0.9349    2.3164    0.0000 O   0  0  0  0  0  0  0  0  0  0  0  0
   -1.0586   -3.0588    0.0000 O   0  0  0  0  0  0  0  0  0  0  0  0
   -0.3437   -3.4713    0.0000 O   0  0  0  0  0  0  0  0  0  0  0  0
    1.6497    1.3541    0.0000 N   0  0  0  0  0  0  0  0  0  0  0  0
    1.0998    0.7492    0.0000 N   0  0  0  0  0  0  0  0  0  0  0  0
   -0.3712    0.6530    0.0000 N   0  0  0  0  0  0  0  0  0  0  0  0
    0.1099    3.2925    0.0000 N   0  0  0  0  0  0  0  0  0  0  0  0
    1.8559   -0.8043    0.0000 N   0  0  0  0  0  0  0  0  0  0  0  0
    0.4125    1.9041    0.0000 C   0  0  0  0  0  0  0  0  0  0  0  0
    1.2235    2.0690    0.0000 C   0  0  0  0  0  0  0  0  0  0  0  0
    0.3299    1.0791    0.0000 C   0  0  0  0  0  0  0  0  0  0  0  0
   -0.1513    2.5089    0.0000 C   0  0  0  0  0  0  0  0  0  0  0  0
    2.4608    1.2716    0.0000 C   0  0  3  0  0  0  0  0  0  0  0  0
    1.4709    2.8526    0.0000 C   0  0  0  0  0  0  0  0  0  0  0  0
    2.8045    0.5431    0.0000 C   0  0  3  0  0  0  0  0  0  0  0  0
    0.9211    3.4713    0.0000 C   0  0  0  0  0  0  0  0  0  0  0  0
   -0.3574   -0.1718    0.0000 C   0  0  0  0  0  0  0  0  0  0  0  0
    2.9557    1.9453    0.0000 C   0  0  0  0  0  0  0  0  0  0  0  0
    3.6293    0.4605    0.0000 C   0  0  0  0  0  0  0  0  0  0  0  0
   -1.0723   -0.5843    0.0000 C   0  0  0  0  0  0  0  0  0  0  0  0
    0.3574   -0.5843    0.0000 C   0  0  0  0  0  0  0  0  0  0  0  0
    2.3371   -0.1306    0.0000 C   0  0  0  0  0  0  0  0  0  0  0  0
    3.7668    1.8628    0.0000 C   0  0  0  0  0  0  0  0  0  0  0  0
   -0.3437   -1.8078    0.0000 C   0  0  0  0  0  0  0  0  0  0  0  0
   -1.8284    2.9351    0.0000 C   0  0  0  0  0  0  0  0  0  0  0  0
    4.0968    1.1067    0.0000 C   0  0  0  0  0  0  0  0  0  0  0  0
   -1.0586   -1.4091    0.0000 C   0  0  0  0  0  0  0  0  0  0  0  0
    0.3574   -1.3954    0.0000 C   0  0  0  0  0  0  0  0  0  0  0  0
   -2.6395    2.5364    0.0000 C   0  0  0  0  0  0  0  0  0  0  0  0
    0.4812   -2.6189    0.0000 C   0  0  0  0  0  0  0  0  0  0  0  0
   -2.6808    1.7116    0.0000 C   0  0  0  0  0  0  0  0  0  0  0  0
   -3.3131    2.9626    0.0000 C   0  0  0  0  0  0  0  0  0  0  0  0
   -3.3957    1.3267    0.0000 C   0  0  0  0  0  0  0  0  0  0  0  0
   -4.0556    2.6052    0.0000 C   0  0  0  0  0  0  0  0  0  0  0  0
   -4.0968    1.7803    0.0000 C   0  0  0  0  0  0  0  0  0  0  0  0
  1  3  2  0  0  0  0
  1  4  2  0  0  0  0
  1 25  1  0  0  0  0
  1 31  1  0  0  0  0
  2 13  1  0  0  0  0
  2 26  1  0  0  0  0
  5  6  1  0  0  0  0
  5 11  1  0  0  0  0
 14  5  1  1  0  0  0
  6 12  2  0  0  0  0
  7 12  1  0  0  0  0
  7 18  1  0  0  0  0
  8 13  2  0  0  0  0
  8 17  1  0  0  0  0
  9 23  3  0  0  0  0
 10 11  2  0  0  0  0
 10 12  1  0  0  0  0
 10 13  1  0  0  0  0
 11 15  1  0  0  0  0
 14 16  1  0  0  0  0
 14 19  1  0  0  0  0
 15 17  2  0  0  0  0
 16 20  1  0  0  0  0
 16 23  1  6  0  0  0
 18 21  2  0  0  0  0
 18 22  1  0  0  0  0
 19 24  1  0  0  0  0
 20 27  1  0  0  0  0
 21 28  1  0  0  0  0
 22 29  2  0  0  0  0
 24 27  1  0  0  0  0
 25 28  2  0  0  0  0
 25 29  1  0  0  0  0
 26 30  1  0  0  0  0
 30 32  2  0  0  0  0
 30 33  1  0  0  0  0
 32 34  1  0  0  0  0
 33 35  2  0  0  0  0
 34 36  2  0  0  0  0
 35 36  1  0  0  0  0
M  END
> <PUBCHEM_COMPOUND_ID_TYPE>
0

> <PUBCHEM_TOTAL_CHARGE>
0

> <PUBCHEM_SUBSTANCE_ID>
310948504

> <PUBCHEM_SUBSTANCE_VERSION>
1

> <PUBCHEM_EXT_DATASOURCE_NAME>
4488

> <PUBCHEM_EXT_DATASOURCE_REGID>
SCHEMBL16126686

> <PUBCHEM_SUBSTANCE_COMMENT>
InChI=1S/C27H27N5O3S/c1-36(33,34)22-13-11-21(12-14-22)30-26-25-24(32(31-26)23-10-6-5-9-20(23)17-28)15-16-29-27(25)35-18-19-7-3-2-4-8-19/h2-4,7-8,11-16,20,23H,5-6,9-10,18H2,1H3,(H,30,31)/t20-,23+/m1/s1
InChIKey=YAWNATMYQDDCPP-OFNKIYASSA-N

> <PUBCHEM_SUBSTANCE_SYNONYM>
SCHEMBL16126686

> <PUBCHEM_XREF_EXT_ID>
SCHEMBL16126686

> <PUBCHEM_EXT_DATASOURCE_URL>
https://www.surechembl.org/

> <PUBCHEM_EXT_SUBSTANCE_URL>
https://www.surechembl.org/chemical/SCHEMBL16126686

> <PUBCHEM_CID_ASSOCIATIONS>
117614061  1

> <PUBCHEM_COORDINATE_TYPE>
1
3

> <PUBCHEM_BONDANNOTATIONS>
16  23  6
14  5  5

$$$$
