310943105
  -OEChem-07211613022D

 26 28  0     0  0  0  0  0  0999 V2000
   -1.0704    1.3423    0.0000 Cl  0  0  0  0  0  0  0  0  0  0  0  0
   -1.0874   -1.7331    0.0000 Cl  0  0  0  0  0  0  0  0  0  0  0  0
   -3.5681   -0.2039    0.0000 Cl  0  0  0  0  0  0  0  0  0  0  0  0
    0.9005    1.9880    0.0000 F   0  0  0  0  0  0  0  0  0  0  0  0
    2.2427    1.9880    0.0000 F   0  0  0  0  0  0  0  0  0  0  0  0
    2.3107    1.3253    0.0000 F   0  0  0  0  0  0  0  0  0  0  0  0
    2.3277   -1.7331    0.0000 F   0  0  0  0  0  0  0  0  0  0  0  0
    3.5681   -0.6797    0.0000 F   0  0  0  0  0  0  0  0  0  0  0  0
    2.8885   -1.9880    0.0000 F   0  0  0  0  0  0  0  0  0  0  0  0
    0.1359    0.5098    0.0000 N   0  0  0  0  0  0  0  0  0  0  0  0
    0.1359   -0.9344    0.0000 N   0  0  0  0  0  0  0  0  0  0  0  0
    0.8835    0.2039    0.0000 C   0  0  0  0  0  0  0  0  0  0  0  0
    0.8665   -0.6797    0.0000 C   0  0  0  0  0  0  0  0  0  0  0  0
    1.5632    0.6287    0.0000 C   0  0  0  0  0  0  0  0  0  0  0  0
   -0.3229   -0.2379    0.0000 C   0  0  0  0  0  0  0  0  0  0  0  0
    2.1918   -0.6967    0.0000 C   0  0  0  0  0  0  0  0  0  0  0  0
   -1.1044   -0.2379    0.0000 C   0  0  0  0  0  0  0  0  0  0  0  0
    1.5802    1.5292    0.0000 C   0  0  0  0  0  0  0  0  0  0  0  0
    1.5632   -1.1214    0.0000 C   0  0  0  0  0  0  0  0  0  0  0  0
    2.2088    0.1869    0.0000 C   0  0  0  0  0  0  0  0  0  0  0  0
    2.8885   -1.1384    0.0000 C   0  0  0  0  0  0  0  0  0  0  0  0
   -1.4612    0.5438    0.0000 C   0  0  0  0  0  0  0  0  0  0  0  0
   -1.4782   -1.0024    0.0000 C   0  0  0  0  0  0  0  0  0  0  0  0
   -2.2427    0.5268    0.0000 C   0  0  0  0  0  0  0  0  0  0  0  0
   -2.2427   -0.9855    0.0000 C   0  0  0  0  0  0  0  0  0  0  0  0
   -2.6335   -0.2379    0.0000 C   0  0  0  0  0  0  0  0  0  0  0  0
  1 22  1  0  0  0  0
  2 23  1  0  0  0  0
  3 26  1  0  0  0  0
  4 18  1  0  0  0  0
  5 18  1  0  0  0  0
  6 18  1  0  0  0  0
  7 21  1  0  0  0  0
  8 21  1  0  0  0  0
  9 21  1  0  0  0  0
 10 12  1  0  0  0  0
 10 15  2  0  0  0  0
 11 13  1  0  0  0  0
 11 15  1  0  0  0  0
 12 13  2  0  0  0  0
 12 14  1  0  0  0  0
 13 19  1  0  0  0  0
 14 18  1  0  0  0  0
 14 20  2  0  0  0  0
 15 17  1  0  0  0  0
 16 19  2  0  0  0  0
 16 20  1  0  0  0  0
 16 21  1  0  0  0  0
 17 22  2  0  0  0  0
 17 23  1  0  0  0  0
 22 24  1  0  0  0  0
 23 25  2  0  0  0  0
 24 26  2  0  0  0  0
 25 26  1  0  0  0  0
M  END
> <PUBCHEM_COMPOUND_ID_TYPE>
0

> <PUBCHEM_TOTAL_CHARGE>
0

> <PUBCHEM_SUBSTANCE_ID>
310943105

> <PUBCHEM_SUBSTANCE_VERSION>
1

> <PUBCHEM_EXT_DATASOURCE_NAME>
4488

> <PUBCHEM_EXT_DATASOURCE_REGID>
SCHEMBL16121164

> <PUBCHEM_SUBSTANCE_COMMENT>
InChI=1S/C15H5Cl3F6N2/c16-6-3-8(17)11(9(18)4-6)13-25-10-2-5(14(19,20)21)1-7(12(10)26-13)15(22,23)24/h1-4H,(H,25,26)
InChIKey=LXXZTIHZIVCSBN-UHFFFAOYSA-N

> <PUBCHEM_SUBSTANCE_SYNONYM>
SCHEMBL16121164

> <PUBCHEM_XREF_EXT_ID>
SCHEMBL16121164

> <PUBCHEM_EXT_DATASOURCE_URL>
https://www.surechembl.org/

> <PUBCHEM_EXT_SUBSTANCE_URL>
https://www.surechembl.org/chemical/SCHEMBL16121164

> <PUBCHEM_CID_ASSOCIATIONS>
117609536  1

> <PUBCHEM_COORDINATE_TYPE>
1
3

$$$$
