310938241
  -OEChem-07211613022D

 20 21  0     0  0  0  0  0  0999 V2000
    0.0000   -1.2723    0.0000 Br  0  0  0  0  0  0  0  0  0  0  0  0
    4.2660   -2.0956    0.0000 O   0  0  0  0  0  0  0  0  0  0  0  0
    2.1455   -4.1662    0.0000 O   0  0  0  0  0  0  0  0  0  0  0  0
    0.6985   -4.1662    0.0000 O   0  0  0  0  0  0  0  0  0  0  0  0
    2.9438   -1.4220    0.0000 N   0  0  0  0  0  0  0  0  0  0  0  0
    2.1455   -2.4948    0.0000 C   0  0  0  0  0  0  0  0  0  0  0  0
    2.9438   -2.7692    0.0000 C   0  0  0  0  0  0  0  0  0  0  0  0
    2.1455   -1.6715    0.0000 C   0  0  0  0  0  0  0  0  0  0  0  0
    3.4178   -2.0956    0.0000 C   0  0  0  0  0  0  0  0  0  0  0  0
    1.4220   -2.9189    0.0000 C   0  0  0  0  0  0  0  0  0  0  0  0
    1.4220   -1.2474    0.0000 C   0  0  0  0  0  0  0  0  0  0  0  0
    3.1933   -0.6237    0.0000 C   0  0  0  0  0  0  0  0  0  0  0  0
    0.7235   -2.4948    0.0000 C   0  0  0  0  0  0  0  0  0  0  0  0
    0.7235   -1.6715    0.0000 C   0  0  0  0  0  0  0  0  0  0  0  0
    1.4220   -3.7421    0.0000 C   0  0  0  0  0  0  0  0  0  0  0  0
    3.1933   -3.5426    0.0000 C   0  0  0  0  0  0  0  0  0  0  0  0
    3.7671   -2.8939    0.0000 C   0  0  0  0  0  0  0  0  0  0  0  0
    2.6444    0.0000    0.0000 C   0  0  0  0  0  0  0  0  0  0  0  0
    4.0166   -0.4490    0.0000 C   0  0  0  0  0  0  0  0  0  0  0  0
    2.1455   -4.9895    0.0000 C   0  0  0  0  0  0  0  0  0  0  0  0
  1 14  1  0  0  0  0
  2  9  2  0  0  0  0
  3 15  1  0  0  0  0
  3 20  1  0  0  0  0
  4 15  2  0  0  0  0
  5  8  1  0  0  0  0
  5  9  1  0  0  0  0
  5 12  1  0  0  0  0
  6  7  1  0  0  0  0
  6  8  2  0  0  0  0
  6 10  1  0  0  0  0
  7  9  1  0  0  0  0
  7 16  1  0  0  0  0
  7 17  1  0  0  0  0
  8 11  1  0  0  0  0
 10 13  2  0  0  0  0
 10 15  1  0  0  0  0
 11 14  2  0  0  0  0
 12 18  1  0  0  0  0
 12 19  1  0  0  0  0
 13 14  1  0  0  0  0
M  END
> <PUBCHEM_COMPOUND_ID_TYPE>
0

> <PUBCHEM_TOTAL_CHARGE>
0

> <PUBCHEM_SUBSTANCE_ID>
310938241

> <PUBCHEM_SUBSTANCE_VERSION>
1

> <PUBCHEM_EXT_DATASOURCE_NAME>
4488

> <PUBCHEM_EXT_DATASOURCE_REGID>
SCHEMBL16116106

> <PUBCHEM_SUBSTANCE_COMMENT>
InChI=1S/C15H18BrNO3/c1-8(2)17-11-7-9(16)6-10(13(18)20-5)12(11)15(3,4)14(17)19/h6-8H,1-5H3
InChIKey=JNELMNGSBLAYNX-UHFFFAOYSA-N

> <PUBCHEM_SUBSTANCE_SYNONYM>
SCHEMBL16116106

> <PUBCHEM_XREF_EXT_ID>
SCHEMBL16116106

> <PUBCHEM_EXT_DATASOURCE_URL>
https://www.surechembl.org/

> <PUBCHEM_EXT_SUBSTANCE_URL>
https://www.surechembl.org/chemical/SCHEMBL16116106

> <PUBCHEM_CID_ASSOCIATIONS>
117605760  1

> <PUBCHEM_COORDINATE_TYPE>
1
3

$$$$
