310949999
  -OEChem-07211613022D

 17 19  0     1  0  0  0  0  0999 V2000
   -2.9308    0.6652    0.0000 O   0  0  0  0  0  0  0  0  0  0  0  0
   -0.7829   -0.5820    0.0000 N   0  0  0  0  0  0  0  0  0  0  0  0
    2.0994    0.2633    0.0000 C   0  0  0  0  0  0  0  0  0  0  0  0
    1.3511    0.6513    0.0000 C   0  0  3  0  0  0  0  0  0  0  0  0
    2.0855   -0.5820    0.0000 C   0  0  3  0  0  0  0  0  0  0  0  0
    1.4342   -0.1247    0.0000 C   0  0  0  0  0  0  0  0  0  0  0  0
    0.6443   -0.5681    0.0000 C   0  0  0  0  0  0  0  0  0  0  0  0
    0.6721    0.2495    0.0000 C   0  0  0  0  0  0  0  0  0  0  0  0
    1.3788   -0.9838    0.0000 C   0  0  0  0  0  0  0  0  0  0  0  0
   -0.0485   -0.9838    0.0000 C   0  0  0  0  0  0  0  0  0  0  0  0
    2.5012    0.9838    0.0000 C   0  0  0  0  0  0  0  0  0  0  0  0
    2.9308    0.2633    0.0000 C   0  0  0  0  0  0  0  0  0  0  0  0
   -0.7829    0.2356    0.0000 C   0  0  0  0  0  0  0  0  0  0  0  0
   -1.4758   -0.9838    0.0000 C   0  0  0  0  0  0  0  0  0  0  0  0
   -2.1964    0.2495    0.0000 C   0  0  0  0  0  0  0  0  0  0  0  0
   -2.2241   -0.5820    0.0000 C   0  0  0  0  0  0  0  0  0  0  0  0
   -1.5174    0.6652    0.0000 C   0  0  0  0  0  0  0  0  0  0  0  0
  1 15  2  0  0  0  0
  2 10  1  0  0  0  0
  2 13  1  0  0  0  0
  2 14  1  0  0  0  0
  3  4  1  0  0  0  0
  3  5  1  0  0  0  0
  3 11  1  0  0  0  0
  3 12  1  0  0  0  0
  4  6  1  0  0  0  0
  4  8  1  1  0  0  0
  5  6  1  0  0  0  0
  5  9  1  1  0  0  0
  7  8  1  0  0  0  0
  7  9  1  0  0  0  0
  7 10  1  1  0  0  0
 13 17  1  0  0  0  0
 14 16  1  0  0  0  0
 15 16  1  0  0  0  0
 15 17  1  0  0  0  0
M  END
> <PUBCHEM_COMPOUND_ID_TYPE>
0

> <PUBCHEM_TOTAL_CHARGE>
0

> <PUBCHEM_SUBSTANCE_ID>
310949999

> <PUBCHEM_SUBSTANCE_VERSION>
1

> <PUBCHEM_EXT_DATASOURCE_NAME>
4488

> <PUBCHEM_EXT_DATASOURCE_REGID>
SCHEMBL16128228

> <PUBCHEM_SUBSTANCE_COMMENT>
InChI=1S/C15H25NO/c1-15(2)12-7-11(8-13(15)9-12)10-16-5-3-14(17)4-6-16/h11-13H,3-10H2,1-2H3/t11-,12+,13-
InChIKey=YMCFJNXVXSHBGP-CLLJXQQHSA-N

> <PUBCHEM_SUBSTANCE_SYNONYM>
SCHEMBL16128228

> <PUBCHEM_XREF_EXT_ID>
SCHEMBL16128228

> <PUBCHEM_EXT_DATASOURCE_URL>
https://www.surechembl.org/

> <PUBCHEM_EXT_SUBSTANCE_URL>
https://www.surechembl.org/chemical/SCHEMBL16128228

> <PUBCHEM_CID_ASSOCIATIONS>
117615236  1

> <PUBCHEM_COORDINATE_TYPE>
1
3

> <PUBCHEM_BONDANNOTATIONS>
4  8  5
5  9  5
7  10  5

$$$$
