310948922
  -OEChem-07211613022D

 53 56  0     1  0  0  0  0  0999 V2000
   -7.0741    1.7374    0.0000 S   0  0  0  0  0  0  0  0  0  0  0  0
   -4.2594    1.7249    0.0000 P   0  0  3  0  0  0  0  0  0  0  0  0
   -3.8484    1.0150    0.0000 O   0  0  0  0  0  0  0  0  0  0  0  0
   -6.2896    0.6539    0.0000 O   0  0  0  0  0  0  0  0  0  0  0  0
   -4.9818    1.3139    0.0000 O   0  0  0  0  0  0  0  0  0  0  0  0
   -4.2594    2.5594    0.0000 O   0  0  0  0  0  0  0  0  0  0  0  0
   -8.6808   -0.0312    0.0000 O   0  0  0  0  0  0  0  0  0  0  0  0
   -0.6851    2.3851    0.0000 O   0  0  0  0  0  0  0  0  0  0  0  0
   -7.2735   -0.4048    0.0000 N   0  0  0  0  0  0  0  0  0  0  0  0
   -3.4250    1.7249    0.0000 N   0  0  0  0  0  0  0  0  0  0  0  0
   -8.2946   -1.4136    0.0000 N   0  0  0  0  0  0  0  0  0  0  0  0
   -7.9210   -2.8085    0.0000 N   0  0  0  0  0  0  0  0  0  0  0  0
   -1.3824    1.1396    0.0000 N   0  0  0  0  0  0  0  0  0  0  0  0
   -4.2594    0.2927    0.0000 C   0  0  0  0  0  0  0  0  0  0  0  0
   -3.6741   -0.2927    0.0000 C   0  0  0  0  0  0  0  0  0  0  0  0
   -7.0493    0.4048    0.0000 C   0  0  3  0  0  0  0  0  0  0  0  0
   -3.8734   -1.1022    0.0000 C   0  0  0  0  0  0  0  0  0  0  0  0
   -6.2771    1.4883    0.0000 C   0  0  3  0  0  0  0  0  0  0  0  0
   -8.0581   -0.6164    0.0000 C   0  0  0  0  0  0  0  0  0  0  0  0
   -5.0441    0.0685    0.0000 C   0  0  0  0  0  0  0  0  0  0  0  0
   -7.5474    1.0649    0.0000 C   0  0  0  0  0  0  0  0  0  0  0  0
   -5.5547    1.8868    0.0000 C   0  0  0  0  0  0  0  0  0  0  0  0
   -2.8645   -0.0934    0.0000 C   0  0  0  0  0  0  0  0  0  0  0  0
   -4.6830   -1.3015    0.0000 C   0  0  0  0  0  0  0  0  0  0  0  0
   -6.6880   -0.9902    0.0000 C   0  0  0  0  0  0  0  0  0  0  0  0
   -3.2880   -1.6751    0.0000 C   0  0  0  0  0  0  0  0  0  0  0  0
   -5.2558   -0.7286    0.0000 C   0  0  0  0  0  0  0  0  0  0  0  0
   -7.6969   -1.9990    0.0000 C   0  0  0  0  0  0  0  0  0  0  0  0
   -6.9122   -1.7872    0.0000 C   0  0  0  0  0  0  0  0  0  0  0  0
   -2.2792   -0.6664    0.0000 C   0  0  0  0  0  0  0  0  0  0  0  0
   -2.4909   -1.4634    0.0000 C   0  0  0  0  0  0  0  0  0  0  0  0
   -2.8271    1.1396    0.0000 C   0  0  0  0  0  0  0  0  0  0  0  0
   -2.1173    1.5506    0.0000 C   0  0  0  0  0  0  0  0  0  0  0  0
   -0.6851    1.5506    0.0000 C   0  0  0  0  0  0  0  0  0  0  0  0
    0.0498    1.1396    0.0000 C   0  0  0  0  0  0  0  0  0  0  0  0
    0.7598    1.5506    0.0000 C   0  0  0  0  0  0  0  0  0  0  0  0
    0.7722    2.3975    0.0000 C   0  0  0  0  0  0  0  0  0  0  0  0
    1.4820    2.8085    0.0000 C   0  0  0  0  0  0  0  0  0  0  0  0
    2.2045    2.3851    0.0000 C   0  0  0  0  0  0  0  0  0  0  0  0
    2.2045    1.5631    0.0000 C   0  0  0  0  0  0  0  0  0  0  0  0
    2.9268    1.1396    0.0000 C   0  0  0  0  0  0  0  0  0  0  0  0
    3.6368    1.5506    0.0000 C   0  0  0  0  0  0  0  0  0  0  0  0
    3.6492    2.3975    0.0000 C   0  0  0  0  0  0  0  0  0  0  0  0
    4.3590    2.8085    0.0000 C   0  0  0  0  0  0  0  0  0  0  0  0
    5.0690    2.3851    0.0000 C   0  0  0  0  0  0  0  0  0  0  0  0
    5.0690    1.5631    0.0000 C   0  0  0  0  0  0  0  0  0  0  0  0
    5.8038    1.1396    0.0000 C   0  0  0  0  0  0  0  0  0  0  0  0
    6.5137    1.5506    0.0000 C   0  0  0  0  0  0  0  0  0  0  0  0
    6.5262    2.3975    0.0000 C   0  0  0  0  0  0  0  0  0  0  0  0
    7.2362    2.8085    0.0000 C   0  0  0  0  0  0  0  0  0  0  0  0
    7.9460    2.3851    0.0000 C   0  0  0  0  0  0  0  0  0  0  0  0
    7.9460    1.5631    0.0000 C   0  0  0  0  0  0  0  0  0  0  0  0
    8.6808    1.1521    0.0000 C   0  0  0  0  0  0  0  0  0  0  0  0
  1 18  1  0  0  0  0
  1 21  1  0  0  0  0
  2  3  1  0  0  0  0
  2  5  1  0  0  0  0
  2  6  2  0  0  0  0
  2 10  1  0  0  0  0
  3 14  1  0  0  0  0
  4 16  1  0  0  0  0
  4 18  1  0  0  0  0
  5 22  1  0  0  0  0
  7 19  2  0  0  0  0
  8 34  2  0  0  0  0
  9 16  1  0  0  0  0
  9 19  1  0  0  0  0
  9 25  1  0  0  0  0
 10 32  1  0  0  0  0
 11 19  1  0  0  0  0
 11 28  2  0  0  0  0
 12 28  1  0  0  0  0
 13 33  1  0  0  0  0
 13 34  1  0  0  0  0
 14 15  1  0  0  0  0
 14 20  2  0  0  0  0
 15 17  2  0  0  0  0
 15 23  1  0  0  0  0
 16 21  1  0  0  0  0
 17 24  1  0  0  0  0
 17 26  1  0  0  0  0
 18 22  1  6  0  0  0
 20 27  1  0  0  0  0
 23 30  2  0  0  0  0
 24 27  2  0  0  0  0
 25 29  2  0  0  0  0
 26 31  2  0  0  0  0
 28 29  1  0  0  0  0
 30 31  1  0  0  0  0
 32 33  1  0  0  0  0
 34 35  1  0  0  0  0
 35 36  1  0  0  0  0
 36 37  1  0  0  0  0
 37 38  1  0  0  0  0
 38 39  2  0  0  0  0
 39 40  1  0  0  0  0
 40 41  1  0  0  0  0
 41 42  2  0  0  0  0
 42 43  1  0  0  0  0
 43 44  1  0  0  0  0
 44 45  2  0  0  0  0
 45 46  1  0  0  0  0
 46 47  1  0  0  0  0
 47 48  2  0  0  0  0
 48 49  1  0  0  0  0
 49 50  1  0  0  0  0
 50 51  2  0  0  0  0
 51 52  1  0  0  0  0
 52 53  1  0  0  0  0
M  END
> <PUBCHEM_COMPOUND_ID_TYPE>
0

> <PUBCHEM_TOTAL_CHARGE>
0

> <PUBCHEM_SUBSTANCE_ID>
310948922

> <PUBCHEM_SUBSTANCE_VERSION>
1

> <PUBCHEM_EXT_DATASOURCE_NAME>
4488

> <PUBCHEM_EXT_DATASOURCE_REGID>
SCHEMBL16127108

> <PUBCHEM_SUBSTANCE_COMMENT>
InChI=1S/C40H52N5O6PS/c1-2-3-4-5-6-7-8-9-10-11-12-13-14-15-16-17-18-26-37(46)42-28-29-43-52(48,51-35-25-21-23-33-22-19-20-24-34(33)35)49-31-39-50-38(32-53-39)45-30-27-36(41)44-40(45)47/h3-4,6-7,9-10,12-13,15-16,19-25,27,30,38-39H,2,5,8,11,14,17-18,26,28-29,31-32H2,1H3,(H,42,46)(H,43,48)(H2,41,44,47)/b4-3-,7-6-,10-9-,13-12-,16-15-/t38?,39-,52?/m1/s1
InChIKey=BYFRZGLQBDMKIC-BEOIXTDXSA-N

> <PUBCHEM_SUBSTANCE_SYNONYM>
SCHEMBL16127108

> <PUBCHEM_XREF_EXT_ID>
SCHEMBL16127108

> <PUBCHEM_EXT_DATASOURCE_URL>
https://www.surechembl.org/

> <PUBCHEM_EXT_SUBSTANCE_URL>
https://www.surechembl.org/chemical/SCHEMBL16127108

> <PUBCHEM_CID_ASSOCIATIONS>
117614437  1

> <PUBCHEM_COORDINATE_TYPE>
1
3

> <PUBCHEM_BONDANNOTATIONS>
18  22  6

$$$$
