310941569
  -OEChem-07211613022D

 26 29  0     0  0  0  0  0  0999 V2000
    0.7647    1.5293    0.0000 S   0  0  0  0  0  0  0  0  0  0  0  0
   -1.5894   -1.1341    0.0000 O   0  0  0  0  0  0  0  0  0  0  0  0
   -0.1288   -1.1341    0.0000 O   0  0  0  0  0  0  0  0  0  0  0  0
    3.6686    0.5498    0.0000 O   0  0  0  0  0  0  0  0  0  0  0  0
   -4.4762   -1.1341    0.0000 O   0  0  0  0  0  0  0  0  0  0  0  0
    0.6272    0.1890    0.0000 N   0  0  0  0  0  0  0  0  0  0  0  0
    2.0190    0.7217    0.0000 N   0  0  0  0  0  0  0  0  0  0  0  0
   -0.8677    0.1203    0.0000 C   0  0  0  0  0  0  0  0  0  0  0  0
   -0.1461    0.5498    0.0000 C   0  0  0  0  0  0  0  0  0  0  0  0
   -2.3112    0.1203    0.0000 C   0  0  0  0  0  0  0  0  0  0  0  0
   -0.9021   -0.6874    0.0000 C   0  0  0  0  0  0  0  0  0  0  0  0
   -2.3112   -0.7045    0.0000 C   0  0  0  0  0  0  0  0  0  0  0  0
   -1.5894    0.5327    0.0000 C   0  0  0  0  0  0  0  0  0  0  0  0
    1.1770    0.8248    0.0000 C   0  0  0  0  0  0  0  0  0  0  0  0
   -0.0429    1.3747    0.0000 C   0  0  0  0  0  0  0  0  0  0  0  0
   -3.0500   -1.1169    0.0000 C   0  0  0  0  0  0  0  0  0  0  0  0
   -3.0328    0.5155    0.0000 C   0  0  0  0  0  0  0  0  0  0  0  0
    2.3283    0.0000    0.0000 C   0  0  0  0  0  0  0  0  0  0  0  0
   -3.7545   -0.7045    0.0000 C   0  0  0  0  0  0  0  0  0  0  0  0
   -3.7373    0.1203    0.0000 C   0  0  0  0  0  0  0  0  0  0  0  0
    3.1703   -0.1375    0.0000 C   0  0  0  0  0  0  0  0  0  0  0  0
    1.8816   -0.7045    0.0000 C   0  0  0  0  0  0  0  0  0  0  0  0
    3.5140   -0.8764    0.0000 C   0  0  0  0  0  0  0  0  0  0  0  0
    2.2080   -1.4606    0.0000 C   0  0  0  0  0  0  0  0  0  0  0  0
    3.0328   -1.5293    0.0000 C   0  0  0  0  0  0  0  0  0  0  0  0
    4.4762    0.4639    0.0000 C   0  0  0  0  0  0  0  0  0  0  0  0
  1 14  1  0  0  0  0
  1 15  1  0  0  0  0
  2 11  1  0  0  0  0
  2 12  1  0  0  0  0
  3 11  2  0  0  0  0
  4 21  1  0  0  0  0
  4 26  1  0  0  0  0
  5 19  1  0  0  0  0
  6  9  1  0  0  0  0
  6 14  2  0  0  0  0
  7 14  1  0  0  0  0
  7 18  1  0  0  0  0
  8  9  1  0  0  0  0
  8 11  1  0  0  0  0
  8 13  2  0  0  0  0
  9 15  2  0  0  0  0
 10 12  1  0  0  0  0
 10 13  1  0  0  0  0
 10 17  2  0  0  0  0
 12 16  2  0  0  0  0
 16 19  1  0  0  0  0
 17 20  1  0  0  0  0
 18 21  1  0  0  0  0
 18 22  2  0  0  0  0
 19 20  2  0  0  0  0
 21 23  2  0  0  0  0
 22 24  1  0  0  0  0
 23 25  1  0  0  0  0
 24 25  2  0  0  0  0
M  END
> <PUBCHEM_COMPOUND_ID_TYPE>
0

> <PUBCHEM_TOTAL_CHARGE>
0

> <PUBCHEM_SUBSTANCE_ID>
310941569

> <PUBCHEM_SUBSTANCE_VERSION>
1

> <PUBCHEM_EXT_DATASOURCE_NAME>
4488

> <PUBCHEM_EXT_DATASOURCE_REGID>
SCHEMBL16119600

> <PUBCHEM_SUBSTANCE_COMMENT>
InChI=1S/C19H14N2O4S/c1-24-16-5-3-2-4-14(16)20-19-21-15(10-26-19)13-8-11-6-7-12(22)9-17(11)25-18(13)23/h2-10,22H,1H3,(H,20,21)
InChIKey=YBFUJXKFTICENQ-UHFFFAOYSA-N

> <PUBCHEM_SUBSTANCE_SYNONYM>
SCHEMBL16119600

> <PUBCHEM_XREF_EXT_ID>
SCHEMBL16119600

> <PUBCHEM_EXT_DATASOURCE_URL>
https://www.surechembl.org/

> <PUBCHEM_EXT_SUBSTANCE_URL>
https://www.surechembl.org/chemical/SCHEMBL16119600

> <PUBCHEM_CID_ASSOCIATIONS>
86274742  1

> <PUBCHEM_COORDINATE_TYPE>
1
3

$$$$
