310942179
  -OEChem-07211613022D

 31 33  0     1  0  0  0  0  0999 V2000
    1.6374    0.1500    0.0000 Cl  0  0  0  0  0  0  0  0  0  0  0  0
    0.1875   -2.3374    0.0000 F   0  0  0  0  0  0  0  0  0  0  0  0
    1.6249   -1.5124    0.0000 O   0  0  0  0  0  0  0  0  0  0  0  0
   -0.5375    1.3999    0.0000 O   0  0  0  0  0  0  0  0  0  0  0  0
   -1.9624   -1.0874    0.0000 N   0  0  0  0  0  0  0  0  0  0  0  0
   -1.9624    1.4124    0.0000 N   0  0  0  0  0  0  0  0  0  0  0  0
   -3.4373    2.5748    0.0000 N   0  0  0  0  0  0  0  0  0  0  0  0
   -0.5249   -1.0874    0.0000 C   0  0  0  0  0  0  0  0  0  0  0  0
    0.1875   -1.4999    0.0000 C   0  0  0  0  0  0  0  0  0  0  0  0
    0.8999   -1.0874    0.0000 C   0  0  0  0  0  0  0  0  0  0  0  0
    0.9124   -0.2500    0.0000 C   0  0  0  0  0  0  0  0  0  0  0  0
   -1.2499   -1.4999    0.0000 C   0  0  3  0  0  0  0  0  0  0  0  0
   -0.5124   -0.2625    0.0000 C   0  0  0  0  0  0  0  0  0  0  0  0
    0.2000    0.1500    0.0000 C   0  0  0  0  0  0  0  0  0  0  0  0
    2.3624   -1.0874    0.0000 C   0  0  0  0  0  0  0  0  0  0  0  0
   -1.9749   -0.2500    0.0000 C   0  0  3  0  0  0  0  0  0  0  0  0
   -1.2499   -2.3499    0.0000 C   0  0  0  0  0  0  0  0  0  0  0  0
   -1.2499    0.1500    0.0000 C   0  0  0  0  0  0  0  0  0  0  0  0
   -1.2624    0.9875    0.0000 C   0  0  0  0  0  0  0  0  0  0  0  0
    2.3749   -0.2625    0.0000 C   0  0  0  0  0  0  0  0  0  0  0  0
    3.0748   -1.4999    0.0000 C   0  0  0  0  0  0  0  0  0  0  0  0
    3.0873    0.1500    0.0000 C   0  0  0  0  0  0  0  0  0  0  0  0
    3.7997   -1.0874    0.0000 C   0  0  0  0  0  0  0  0  0  0  0  0
   -2.6873    0.1500    0.0000 C   0  0  0  0  0  0  0  0  0  0  0  0
   -1.9499   -2.7623    0.0000 C   0  0  0  0  0  0  0  0  0  0  0  0
   -1.9749    2.2498    0.0000 C   0  0  0  0  0  0  0  0  0  0  0  0
   -2.6248    0.8874    0.0000 C   0  0  0  0  0  0  0  0  0  0  0  0
    3.7997   -0.2625    0.0000 C   0  0  0  0  0  0  0  0  0  0  0  0
   -2.6248    2.7623    0.0000 C   0  0  0  0  0  0  0  0  0  0  0  0
   -3.4373    1.0749    0.0000 C   0  0  0  0  0  0  0  0  0  0  0  0
   -3.7997    1.8249    0.0000 C   0  0  0  0  0  0  0  0  0  0  0  0
  1 11  1  0  0  0  0
  2  9  1  0  0  0  0
  3 10  1  0  0  0  0
  3 15  1  0  0  0  0
  4 19  2  0  0  0  0
 12  5  1  1  0  0  0
  5 16  1  0  0  0  0
  6 19  1  0  0  0  0
  6 26  1  0  0  0  0
  6 27  1  0  0  0  0
  7 29  1  0  0  0  0
  7 31  1  0  0  0  0
  8  9  2  0  0  0  0
  8 12  1  0  0  0  0
  8 13  1  0  0  0  0
  9 10  1  0  0  0  0
 10 11  2  0  0  0  0
 11 14  1  0  0  0  0
 12 17  1  0  0  0  0
 13 14  2  0  0  0  0
 15 20  2  0  0  0  0
 15 21  1  0  0  0  0
 16 18  1  0  0  0  0
 16 24  1  1  0  0  0
 17 25  1  0  0  0  0
 18 19  1  0  0  0  0
 20 22  1  0  0  0  0
 21 23  2  0  0  0  0
 22 28  2  0  0  0  0
 23 28  1  0  0  0  0
 26 29  1  0  0  0  0
 27 30  1  0  0  0  0
 30 31  1  0  0  0  0
M  END
> <PUBCHEM_COMPOUND_ID_TYPE>
0

> <PUBCHEM_TOTAL_CHARGE>
0

> <PUBCHEM_SUBSTANCE_ID>
310942179

> <PUBCHEM_SUBSTANCE_VERSION>
1

> <PUBCHEM_EXT_DATASOURCE_NAME>
4488

> <PUBCHEM_EXT_DATASOURCE_REGID>
SCHEMBL16120214

> <PUBCHEM_SUBSTANCE_COMMENT>
InChI=1S/C24H31ClFN3O2/c1-3-21(28-17(2)16-22(30)29-14-7-12-27-13-15-29)19-10-11-20(25)24(23(19)26)31-18-8-5-4-6-9-18/h4-6,8-11,17,21,27-28H,3,7,12-16H2,1-2H3/t17-,21+/m0/s1
InChIKey=ZOPLUTOMUWYJLQ-LAUBAEHRSA-N

> <PUBCHEM_SUBSTANCE_SYNONYM>
SCHEMBL16120214

> <PUBCHEM_XREF_EXT_ID>
SCHEMBL16120214

> <PUBCHEM_EXT_DATASOURCE_URL>
https://www.surechembl.org/

> <PUBCHEM_EXT_SUBSTANCE_URL>
https://www.surechembl.org/chemical/SCHEMBL16120214

> <PUBCHEM_CID_ASSOCIATIONS>
117608830  1

> <PUBCHEM_COORDINATE_TYPE>
1
3

> <PUBCHEM_BONDANNOTATIONS>
16  24  5
12  5  5

$$$$
