310942522
  -OEChem-07211613022D

 43 48  0     1  0  0  0  0  0999 V2000
    1.7946    1.0707    0.0000 O   0  0  0  0  0  0  0  0  0  0  0  0
    2.3074   -1.0556    0.0000 O   0  0  0  0  0  0  0  0  0  0  0  0
    1.0707   -0.9802    0.0000 O   0  0  0  0  0  0  0  0  0  0  0  0
    3.2122    0.7390    0.0000 N   0  0  0  0  0  0  0  0  0  0  0  0
    3.9059   -0.6032    0.0000 N   0  0  0  0  0  0  0  0  0  0  0  0
   -0.3318    0.6334    0.0000 N   0  0  3  0  0  0  0  0  0  0  0  0
    5.3386   -0.5128    0.0000 N   0  0  0  0  0  0  0  0  0  0  0  0
    5.9569    0.7842    0.0000 N   0  0  0  0  0  0  0  0  0  0  0  0
   -2.6693   -0.8747    0.0000 N   0  0  0  0  0  0  0  0  0  0  0  0
   -3.3328   -2.0661    0.0000 N   0  0  0  0  0  0  0  0  0  0  0  0
    3.8607    0.2262    0.0000 C   0  0  0  0  0  0  0  0  0  0  0  0
    2.4129    0.5279    0.0000 C   0  0  3  0  0  0  0  0  0  0  0  0
    4.5242    0.6786    0.0000 C   0  0  0  0  0  0  0  0  0  0  0  0
    4.3131    1.4628    0.0000 C   0  0  0  0  0  0  0  0  0  0  0  0
    2.0661   -0.2413    0.0000 C   0  0  3  0  0  0  0  0  0  0  0  0
    3.5138    1.5232    0.0000 C   0  0  0  0  0  0  0  0  0  0  0  0
    1.1009    0.6484    0.0000 C   0  0  3  0  0  0  0  0  0  0  0  0
    1.2668   -0.1659    0.0000 C   0  0  3  0  0  0  0  0  0  0  0  0
    5.2933    0.3318    0.0000 C   0  0  0  0  0  0  0  0  0  0  0  0
    0.3770    1.0556    0.0000 C   0  0  0  0  0  0  0  0  0  0  0  0
    4.8409    2.1264    0.0000 C   0  0  0  0  0  0  0  0  0  0  0  0
   -0.5580   -0.1810    0.0000 C   0  0  0  0  0  0  0  0  0  0  0  0
    4.6449   -0.9953    0.0000 C   0  0  0  0  0  0  0  0  0  0  0  0
   -0.8143   -1.2970    0.0000 C   0  0  0  0  0  0  0  0  0  0  0  0
   -1.2215   -0.5881    0.0000 C   0  0  0  0  0  0  0  0  0  0  0  0
   -0.1358   -0.8898    0.0000 C   0  0  0  0  0  0  0  0  0  0  0  0
   -1.0556    1.0556    0.0000 C   0  0  0  0  0  0  0  0  0  0  0  0
   -3.4837   -0.7088    0.0000 C   0  0  0  0  0  0  0  0  0  0  0  0
   -3.8908   -1.4477    0.0000 C   0  0  0  0  0  0  0  0  0  0  0  0
   -2.5939   -1.7042    0.0000 C   0  0  0  0  0  0  0  0  0  0  0  0
   -4.7353    0.0000    0.0000 C   0  0  0  0  0  0  0  0  0  0  0  0
   -3.9059   -0.0151    0.0000 C   0  0  0  0  0  0  0  0  0  0  0  0
   -1.0405   -2.1264    0.0000 C   0  0  0  0  0  0  0  0  0  0  0  0
   -5.1425    0.7239    0.0000 C   0  0  0  0  0  0  0  0  0  0  0  0
   -1.9002   -2.1113    0.0000 C   0  0  0  0  0  0  0  0  0  0  0  0
   -4.7203   -1.4326    0.0000 C   0  0  0  0  0  0  0  0  0  0  0  0
    5.6553    1.9454    0.0000 C   0  0  0  0  0  0  0  0  0  0  0  0
   -5.1124   -0.7239    0.0000 C   0  0  0  0  0  0  0  0  0  0  0  0
   -1.0556    1.8700    0.0000 C   0  0  0  0  0  0  0  0  0  0  0  0
   -1.7343    0.6183    0.0000 C   0  0  0  0  0  0  0  0  0  0  0  0
   -5.9569    0.6937    0.0000 C   0  0  0  0  0  0  0  0  0  0  0  0
   -5.5648    1.4176    0.0000 C   0  0  0  0  0  0  0  0  0  0  0  0
   -4.7353    1.4477    0.0000 C   0  0  0  0  0  0  0  0  0  0  0  0
 12  1  1  1  0  0  0
  1 17  1  0  0  0  0
 15  2  1  6  0  0  0
 18  3  1  6  0  0  0
  4 11  1  0  0  0  0
  4 12  1  0  0  0  0
  4 16  1  0  0  0  0
  5 11  1  0  0  0  0
  5 23  2  0  0  0  0
  6 20  1  0  0  0  0
  6 22  1  0  0  0  0
  6 27  1  0  0  0  0
  7 19  2  0  0  0  0
  7 23  1  0  0  0  0
  8 19  1  0  0  0  0
  9 28  1  0  0  0  0
  9 30  2  0  0  0  0
 10 29  1  0  0  0  0
 10 30  1  0  0  0  0
 11 13  2  0  0  0  0
 12 15  1  0  0  0  0
 13 14  1  0  0  0  0
 13 19  1  0  0  0  0
 14 16  2  0  0  0  0
 14 21  1  0  0  0  0
 15 18  1  0  0  0  0
 17 18  1  0  0  0  0
 17 20  1  1  0  0  0
 21 37  2  0  0  0  0
 22 25  1  0  0  0  0
 22 26  1  0  0  0  0
 24 25  1  0  0  0  0
 24 26  1  0  0  0  0
 24 33  1  0  0  0  0
 27 39  1  0  0  0  0
 27 40  1  0  0  0  0
 28 29  2  0  0  0  0
 28 32  1  0  0  0  0
 29 36  1  0  0  0  0
 30 35  1  0  0  0  0
 31 32  2  0  0  0  0
 31 34  1  0  0  0  0
 31 38  1  0  0  0  0
 33 35  1  0  0  0  0
 34 41  1  0  0  0  0
 34 42  1  0  0  0  0
 34 43  1  0  0  0  0
 36 38  2  0  0  0  0
M  END
> <PUBCHEM_COMPOUND_ID_TYPE>
0

> <PUBCHEM_TOTAL_CHARGE>
0

> <PUBCHEM_SUBSTANCE_ID>
310942522

> <PUBCHEM_SUBSTANCE_VERSION>
1

> <PUBCHEM_EXT_DATASOURCE_NAME>
4488

> <PUBCHEM_EXT_DATASOURCE_REGID>
SCHEMBL16120558

> <PUBCHEM_SUBSTANCE_COMMENT>
InChI=1S/C33H45N7O3/c1-7-20-15-40(31-27(20)30(34)35-17-36-31)32-29(42)28(41)25(43-32)16-39(18(2)3)22-12-19(13-22)8-11-26-37-23-10-9-21(33(4,5)6)14-24(23)38-26/h7,9-10,14-15,17-19,22,25,28-29,32,41-42H,1,8,11-13,16H2,2-6H3,(H,37,38)(H2,34,35,36)/t19?,22?,25-,28-,29-,32-/m1/s1
InChIKey=SDAXYDHGYJXMGP-BATNNMDHSA-N

> <PUBCHEM_SUBSTANCE_SYNONYM>
SCHEMBL16120558

> <PUBCHEM_XREF_EXT_ID>
SCHEMBL16120558

> <PUBCHEM_EXT_DATASOURCE_URL>
https://www.surechembl.org/

> <PUBCHEM_EXT_SUBSTANCE_URL>
https://www.surechembl.org/chemical/SCHEMBL16120558

> <PUBCHEM_CID_ASSOCIATIONS>
86272095  1

> <PUBCHEM_COORDINATE_TYPE>
1
3

> <PUBCHEM_BONDANNOTATIONS>
12  1  5
17  20  5
15  2  6
18  3  6

$$$$
