310928921
  -OEChem-07211613022D

  9  9  0     0  0  0  0  0  0999 V2000
   -0.5051   -0.9432    0.0000 S   0  0  0  0  0  0  0  0  0  0  0  0
    1.0101   -0.1227    0.0000 O   0  0  0  0  0  0  0  0  0  0  0  0
    0.2956    1.1148    0.0000 O   0  0  0  0  0  0  0  0  0  0  0  0
   -1.3121   -1.1148    0.0000 N   0  0  0  0  0  0  0  0  0  0  0  0
   -0.4189   -0.1227    0.0000 C   0  0  0  0  0  0  0  0  0  0  0  0
    0.2956    0.2898    0.0000 C   0  0  0  0  0  0  0  0  0  0  0  0
   -1.1725    0.2128    0.0000 C   0  0  0  0  0  0  0  0  0  0  0  0
   -1.7246   -0.4003    0.0000 C   0  0  0  0  0  0  0  0  0  0  0  0
    1.7246    0.2898    0.0000 C   0  0  0  0  0  0  0  0  0  0  0  0
  1  4  1  0  0  0  0
  1  5  1  0  0  0  0
  2  6  1  0  0  0  0
  2  9  1  0  0  0  0
  3  6  2  0  0  0  0
  4  8  2  0  0  0  0
  5  6  1  0  0  0  0
  5  7  2  0  0  0  0
  7  8  1  0  0  0  0
M  END
> <PUBCHEM_COMPOUND_ID_TYPE>
0

> <PUBCHEM_TOTAL_CHARGE>
0

> <PUBCHEM_SUBSTANCE_ID>
310928921

> <PUBCHEM_SUBSTANCE_VERSION>
1

> <PUBCHEM_EXT_DATASOURCE_NAME>
11752

> <PUBCHEM_EXT_DATASOURCE_REGID>
BD32123

> <PUBCHEM_SUBSTANCE_SYNONYM>
15901-66-3
Methyl isothiazole-5-carboxylate

> <PUBCHEM_GENERIC_REGISTRY_NAME>
15901-66-3

> <PUBCHEM_XREF_EXT_ID>
BD32123

> <PUBCHEM_EXT_DATASOURCE_URL>
http://www.bidepharmatech.com/en/index.html

> <PUBCHEM_EXT_SUBSTANCE_URL>
http://www.bidepharmatech.com/en/goodsview_goodscode_BD32123.html

> <PUBCHEM_CID_ASSOCIATIONS>
22367879  1

> <PUBCHEM_COORDINATE_TYPE>
1
3

$$$$
