310949252
  -OEChem-07211613022D

 43 49  0     0  0  0  0  0  0999 V2000
    0.0228    0.1746    0.0000 N   0  0  0  0  0  0  0  0  0  0  0  0
    2.1938   -0.3264    0.0000 N   0  0  0  0  0  0  0  0  0  0  0  0
   -0.0076   -3.9701    0.0000 N   0  0  0  0  0  0  0  0  0  0  0  0
   -0.6908    0.7212    0.0000 C   0  0  0  0  0  0  0  0  0  0  0  0
    0.6756    0.7212    0.0000 C   0  0  0  0  0  0  0  0  0  0  0  0
   -0.4023    1.5106    0.0000 C   0  0  0  0  0  0  0  0  0  0  0  0
    0.4175    1.4954    0.0000 C   0  0  0  0  0  0  0  0  0  0  0  0
    0.0076   -0.6300    0.0000 C   0  0  0  0  0  0  0  0  0  0  0  0
   -0.7059   -1.0399    0.0000 C   0  0  0  0  0  0  0  0  0  0  0  0
    0.7363   -1.0248    0.0000 C   0  0  0  0  0  0  0  0  0  0  0  0
   -0.9489    2.0875    0.0000 C   0  0  0  0  0  0  0  0  0  0  0  0
    0.9640    2.1178    0.0000 C   0  0  0  0  0  0  0  0  0  0  0  0
   -1.4802    0.5390    0.0000 C   0  0  0  0  0  0  0  0  0  0  0  0
    1.4802    0.5390    0.0000 C   0  0  0  0  0  0  0  0  0  0  0  0
   -1.4498   -0.6149    0.0000 C   0  0  0  0  0  0  0  0  0  0  0  0
   -1.7838    1.9660    0.0000 C   0  0  0  0  0  0  0  0  0  0  0  0
    1.7687    1.9357    0.0000 C   0  0  0  0  0  0  0  0  0  0  0  0
   -0.7212   -1.8597    0.0000 C   0  0  0  0  0  0  0  0  0  0  0  0
   -2.0268    1.1311    0.0000 C   0  0  0  0  0  0  0  0  0  0  0  0
    2.0572    1.1462    0.0000 C   0  0  0  0  0  0  0  0  0  0  0  0
    0.7059   -1.8750    0.0000 C   0  0  0  0  0  0  0  0  0  0  0  0
    0.0076   -2.2849    0.0000 C   0  0  0  0  0  0  0  0  0  0  0  0
   -2.1634   -1.0096    0.0000 C   0  0  0  0  0  0  0  0  0  0  0  0
   -1.4195    0.2050    0.0000 C   0  0  0  0  0  0  0  0  0  0  0  0
   -2.3759    2.5733    0.0000 C   0  0  0  0  0  0  0  0  0  0  0  0
    2.3456    2.5885    0.0000 C   0  0  0  0  0  0  0  0  0  0  0  0
    1.4498   -0.6604    0.0000 C   0  0  0  0  0  0  0  0  0  0  0  0
   -2.8618   -0.5997    0.0000 C   0  0  0  0  0  0  0  0  0  0  0  0
   -2.1482    0.6149    0.0000 C   0  0  0  0  0  0  0  0  0  0  0  0
   -0.0076   -3.1502    0.0000 C   0  0  0  0  0  0  0  0  0  0  0  0
   -2.1178    3.3476    0.0000 C   0  0  0  0  0  0  0  0  0  0  0  0
    3.1502    2.4215    0.0000 C   0  0  0  0  0  0  0  0  0  0  0  0
   -3.1350    2.4063    0.0000 C   0  0  0  0  0  0  0  0  0  0  0  0
    2.1027    3.3931    0.0000 C   0  0  0  0  0  0  0  0  0  0  0  0
   -2.8466    0.2201    0.0000 C   0  0  0  0  0  0  0  0  0  0  0  0
   -2.1482   -1.8597    0.0000 C   0  0  0  0  0  0  0  0  0  0  0  0
   -0.5845    0.0076    0.0000 C   0  0  0  0  0  0  0  0  0  0  0  0
   -2.6340    3.9548    0.0000 C   0  0  0  0  0  0  0  0  0  0  0  0
    3.7120    3.0288    0.0000 C   0  0  0  0  0  0  0  0  0  0  0  0
   -3.7120    3.0288    0.0000 C   0  0  0  0  0  0  0  0  0  0  0  0
    2.6340    3.9701    0.0000 C   0  0  0  0  0  0  0  0  0  0  0  0
   -3.4387    3.8030    0.0000 C   0  0  0  0  0  0  0  0  0  0  0  0
    3.4539    3.8183    0.0000 C   0  0  0  0  0  0  0  0  0  0  0  0
  1  4  1  0  0  0  0
  1  5  1  0  0  0  0
  1  8  1  0  0  0  0
  2 27  3  0  0  0  0
  3 30  3  0  0  0  0
  4  6  2  0  0  0  0
  4 13  1  0  0  0  0
  5  7  2  0  0  0  0
  5 14  1  0  0  0  0
  6  7  1  0  0  0  0
  6 11  1  0  0  0  0
  7 12  1  0  0  0  0
  8  9  1  0  0  0  0
  8 10  2  0  0  0  0
  9 15  1  0  0  0  0
  9 18  2  0  0  0  0
 10 21  1  0  0  0  0
 10 27  1  0  0  0  0
 11 16  2  0  0  0  0
 12 17  2  0  0  0  0
 13 19  2  0  0  0  0
 14 20  2  0  0  0  0
 15 23  1  0  0  0  0
 15 24  2  0  0  0  0
 16 19  1  0  0  0  0
 16 25  1  0  0  0  0
 17 20  1  0  0  0  0
 17 26  1  0  0  0  0
 18 22  1  0  0  0  0
 21 22  2  0  0  0  0
 22 30  1  0  0  0  0
 23 28  2  0  0  0  0
 23 36  1  0  0  0  0
 24 29  1  0  0  0  0
 24 37  1  0  0  0  0
 25 31  2  0  0  0  0
 25 33  1  0  0  0  0
 26 32  2  0  0  0  0
 26 34  1  0  0  0  0
 28 35  1  0  0  0  0
 29 35  2  0  0  0  0
 31 38  1  0  0  0  0
 32 39  1  0  0  0  0
 33 40  2  0  0  0  0
 34 41  2  0  0  0  0
 38 42  2  0  0  0  0
 39 43  2  0  0  0  0
 40 42  1  0  0  0  0
 41 43  1  0  0  0  0
M  END
> <PUBCHEM_COMPOUND_ID_TYPE>
0

> <PUBCHEM_TOTAL_CHARGE>
0

> <PUBCHEM_SUBSTANCE_ID>
310949252

> <PUBCHEM_SUBSTANCE_VERSION>
1

> <PUBCHEM_EXT_DATASOURCE_NAME>
4488

> <PUBCHEM_EXT_DATASOURCE_REGID>
SCHEMBL16127442

> <PUBCHEM_SUBSTANCE_COMMENT>
InChI=1S/C40H27N3/c1-26-10-9-11-27(2)39(26)36-21-28(24-41)20-33(25-42)40(36)43-37-18-16-31(29-12-5-3-6-13-29)22-34(37)35-23-32(17-19-38(35)43)30-14-7-4-8-15-30/h3-23H,1-2H3
InChIKey=TZTLWJLHFFFDSS-UHFFFAOYSA-N

> <PUBCHEM_SUBSTANCE_SYNONYM>
SCHEMBL16127442

> <PUBCHEM_XREF_EXT_ID>
SCHEMBL16127442

> <PUBCHEM_EXT_DATASOURCE_URL>
https://www.surechembl.org/

> <PUBCHEM_EXT_SUBSTANCE_URL>
https://www.surechembl.org/chemical/SCHEMBL16127442

> <PUBCHEM_CID_ASSOCIATIONS>
117614739  1

> <PUBCHEM_COORDINATE_TYPE>
1
3

$$$$
