310949073
  -OEChem-07211613022D

 20 21  0     0  0  0  0  0  0999 V2000
   -1.3826    0.6008    0.0000 Br  0  0  0  0  0  0  0  0  0  0  0  0
    1.8436   -0.1235    0.0000 F   0  0  0  0  0  0  0  0  0  0  0  0
   -1.0863   -0.1729    0.0000 F   0  0  0  0  0  0  0  0  0  0  0  0
   -1.0863   -1.7694    0.0000 F   0  0  0  0  0  0  0  0  0  0  0  0
    1.8600   -1.7366    0.0000 F   0  0  0  0  0  0  0  0  0  0  0  0
    0.3622   -2.5431    0.0000 F   0  0  0  0  0  0  0  0  0  0  0  0
   -1.8600    2.5431    0.0000 N   0  0  0  0  0  0  0  0  0  0  0  0
    0.3456   -0.1399    0.0000 C   0  0  0  0  0  0  0  0  0  0  0  0
    1.1028   -0.5185    0.0000 C   0  0  0  0  0  0  0  0  0  0  0  0
   -0.3786   -0.5515    0.0000 C   0  0  0  0  0  0  0  0  0  0  0  0
    0.3622    0.6667    0.0000 C   0  0  0  0  0  0  0  0  0  0  0  0
   -0.3786   -1.3415    0.0000 C   0  0  0  0  0  0  0  0  0  0  0  0
    1.0699   -1.3086    0.0000 C   0  0  0  0  0  0  0  0  0  0  0  0
    0.3622   -1.7201    0.0000 C   0  0  0  0  0  0  0  0  0  0  0  0
   -0.3951    1.0452    0.0000 C   0  0  0  0  0  0  0  0  0  0  0  0
    1.0863    1.0781    0.0000 C   0  0  0  0  0  0  0  0  0  0  0  0
   -0.3951    1.8353    0.0000 C   0  0  0  0  0  0  0  0  0  0  0  0
    1.0863    1.8189    0.0000 C   0  0  0  0  0  0  0  0  0  0  0  0
    0.3292    2.2304    0.0000 C   0  0  0  0  0  0  0  0  0  0  0  0
   -1.1357    2.1975    0.0000 C   0  0  0  0  0  0  0  0  0  0  0  0
  1 15  1  0  0  0  0
  2  9  1  0  0  0  0
  3 10  1  0  0  0  0
  4 12  1  0  0  0  0
  5 13  1  0  0  0  0
  6 14  1  0  0  0  0
  7 20  3  0  0  0  0
  8  9  2  0  0  0  0
  8 10  1  0  0  0  0
  8 11  1  0  0  0  0
  9 13  1  0  0  0  0
 10 12  2  0  0  0  0
 11 15  1  0  0  0  0
 11 16  2  0  0  0  0
 12 14  1  0  0  0  0
 13 14  2  0  0  0  0
 15 17  2  0  0  0  0
 16 18  1  0  0  0  0
 17 19  1  0  0  0  0
 17 20  1  0  0  0  0
 18 19  2  0  0  0  0
M  END
> <PUBCHEM_COMPOUND_ID_TYPE>
0

> <PUBCHEM_TOTAL_CHARGE>
0

> <PUBCHEM_SUBSTANCE_ID>
310949073

> <PUBCHEM_SUBSTANCE_VERSION>
1

> <PUBCHEM_EXT_DATASOURCE_NAME>
4488

> <PUBCHEM_EXT_DATASOURCE_REGID>
SCHEMBL16127263

> <PUBCHEM_SUBSTANCE_COMMENT>
InChI=1S/C13H3BrF5N/c14-8-5(4-20)2-1-3-6(8)7-9(15)11(17)13(19)12(18)10(7)16/h1-3H
InChIKey=PYKPCVWWWJABQK-UHFFFAOYSA-N

> <PUBCHEM_SUBSTANCE_SYNONYM>
SCHEMBL16127263

> <PUBCHEM_XREF_EXT_ID>
SCHEMBL16127263

> <PUBCHEM_EXT_DATASOURCE_URL>
https://www.surechembl.org/

> <PUBCHEM_EXT_SUBSTANCE_URL>
https://www.surechembl.org/chemical/SCHEMBL16127263

> <PUBCHEM_CID_ASSOCIATIONS>
117614578  1

> <PUBCHEM_COORDINATE_TYPE>
1
3

$$$$
