310933732
  -OEChem-07211613022D

 32 35  0     0  0  0  0  0  0999 V2000
    7.9756   -6.7892    0.0000 I   0  0  0  0  0  0  0  0  0  0  0  0
    6.2200   -7.1624    0.0000 O   0  0  0  0  0  0  0  0  0  0  0  0
    2.8611   -5.3493    0.0000 O   0  0  0  0  0  0  0  0  0  0  0  0
    6.1430   -5.6942    0.0000 N   0  0  0  0  0  0  0  0  0  0  0  0
    7.3625   -6.2372    0.0000 N   0  0  0  0  0  0  0  0  0  0  0  0
    6.6951   -5.0811    0.0000 N   0  0  0  0  0  0  0  0  0  0  0  0
    4.9870   -4.8543    0.0000 N   0  0  0  0  0  0  0  0  0  0  0  0
    1.8545   -3.0882    0.0000 N   0  0  0  0  0  0  0  0  0  0  0  0
    3.5724   -1.2375    0.0000 N   0  0  0  0  0  0  0  0  0  0  0  0
    4.2398   -1.7224    0.0000 N   0  0  0  0  0  0  0  0  0  0  0  0
    7.4488   -5.4167    0.0000 C   0  0  0  0  0  0  0  0  0  0  0  0
    6.5555   -6.4087    0.0000 C   0  0  0  0  0  0  0  0  0  0  0  0
    8.1632   -5.0042    0.0000 C   0  0  0  0  0  0  0  0  0  0  0  0
    5.3226   -5.6080    0.0000 C   0  0  0  0  0  0  0  0  0  0  0  0
    3.6816   -5.4355    0.0000 C   0  0  0  0  0  0  0  0  0  0  0  0
    4.8376   -6.2754    0.0000 C   0  0  0  0  0  0  0  0  0  0  0  0
    4.1665   -4.7681    0.0000 C   0  0  0  0  0  0  0  0  0  0  0  0
    8.8777   -4.5917    0.0000 C   0  0  0  0  0  0  0  0  0  0  0  0
    4.0172   -6.1892    0.0000 C   0  0  0  0  0  0  0  0  0  0  0  0
    8.5757   -5.7187    0.0000 C   0  0  0  0  0  0  0  0  0  0  0  0
    7.7507   -4.2897    0.0000 C   0  0  0  0  0  0  0  0  0  0  0  0
    2.5256   -4.5956    0.0000 C   0  0  0  0  0  0  0  0  0  0  0  0
    2.6749   -3.1745    0.0000 C   0  0  0  0  0  0  0  0  0  0  0  0
    3.1599   -2.5070    0.0000 C   0  0  0  0  0  0  0  0  0  0  0  0
    3.0105   -3.9282    0.0000 C   0  0  0  0  0  0  0  0  0  0  0  0
    1.7051   -4.5094    0.0000 C   0  0  0  0  0  0  0  0  0  0  0  0
    3.8310   -4.0144    0.0000 C   0  0  0  0  0  0  0  0  0  0  0  0
    2.9049   -1.7224    0.0000 C   0  0  0  0  0  0  0  0  0  0  0  0
    3.9849   -2.5070    0.0000 C   0  0  0  0  0  0  0  0  0  0  0  0
    1.3695   -3.7557    0.0000 C   0  0  0  0  0  0  0  0  0  0  0  0
    8.8777   -3.7667    0.0000 C   0  0  0  0  0  0  0  0  0  0  0  0
    3.5724   -0.4125    0.0000 C   0  0  0  0  0  0  0  0  0  0  0  0
  1  5  1  0  0  0  0
  2 12  2  0  0  0  0
  3 15  1  0  0  0  0
  3 22  1  0  0  0  0
  4  6  1  0  0  0  0
  4 12  1  0  0  0  0
  4 14  1  0  0  0  0
  5 11  1  0  0  0  0
  5 12  1  0  0  0  0
  6 11  2  0  0  0  0
  7 14  2  0  0  0  0
  7 17  1  0  0  0  0
  8 23  2  0  0  0  0
  8 30  1  0  0  0  0
  9 10  1  0  0  0  0
  9 28  1  0  0  0  0
  9 32  1  0  0  0  0
 10 29  2  0  0  0  0
 11 13  1  0  0  0  0
 13 18  1  0  0  0  0
 13 20  1  0  0  0  0
 13 21  1  0  0  0  0
 14 16  1  0  0  0  0
 15 17  2  0  0  0  0
 15 19  1  0  0  0  0
 16 19  2  0  0  0  0
 17 27  1  0  0  0  0
 18 31  1  0  0  0  0
 22 25  2  0  0  0  0
 22 26  1  0  0  0  0
 23 24  1  0  0  0  0
 23 25  1  0  0  0  0
 24 28  2  0  0  0  0
 24 29  1  0  0  0  0
 26 30  2  0  0  0  0
M  END
> <PUBCHEM_COMPOUND_ID_TYPE>
0

> <PUBCHEM_TOTAL_CHARGE>
0

> <PUBCHEM_SUBSTANCE_ID>
310933732

> <PUBCHEM_SUBSTANCE_VERSION>
1

> <PUBCHEM_EXT_DATASOURCE_NAME>
4488

> <PUBCHEM_EXT_DATASOURCE_REGID>
SCHEMBL16111167

> <PUBCHEM_SUBSTANCE_COMMENT>
InChI=1S/C22H24IN7O2/c1-6-22(3,4)20-27-30(21(31)29(20)23)19-8-7-18(14(2)26-19)32-16-9-10-24-17(11-16)15-12-25-28(5)13-15/h7-13H,6H2,1-5H3
InChIKey=CVDCWAKBLOUWGF-UHFFFAOYSA-N

> <PUBCHEM_SUBSTANCE_SYNONYM>
SCHEMBL16111167

> <PUBCHEM_XREF_EXT_ID>
SCHEMBL16111167

> <PUBCHEM_EXT_DATASOURCE_URL>
https://www.surechembl.org/

> <PUBCHEM_EXT_SUBSTANCE_URL>
https://www.surechembl.org/chemical/SCHEMBL16111167

> <PUBCHEM_CID_ASSOCIATIONS>
117602093  1

> <PUBCHEM_COORDINATE_TYPE>
1
3

$$$$
