310936600
  -OEChem-07211613022D

 25 27  0     0  0  0  0  0  0999 V2000
    0.9822   -6.8751    0.0000 F   0  0  0  0  0  0  0  0  0  0  0  0
    2.3179   -7.8572    0.0000 F   0  0  0  0  0  0  0  0  0  0  0  0
    4.0858   -4.7537    0.0000 O   0  0  0  0  0  0  0  0  0  0  0  0
    0.0000    0.0000    0.0000 O   0  0  0  0  0  0  0  0  0  0  0  0
    1.4929   -2.0036    0.0000 N   0  0  0  0  0  0  0  0  0  0  0  0
    3.4965   -3.4572    0.0000 N   0  0  0  0  0  0  0  0  0  0  0  0
    0.9036   -1.4536    0.0000 N   0  0  0  0  0  0  0  0  0  0  0  0
    2.0429   -0.7857    0.0000 N   0  0  0  0  0  0  0  0  0  0  0  0
    2.6715   -4.5965    0.0000 C   0  0  0  0  0  0  0  0  0  0  0  0
    2.5929   -5.4215    0.0000 C   0  0  0  0  0  0  0  0  0  0  0  0
    3.4572   -4.2822    0.0000 C   0  0  0  0  0  0  0  0  0  0  0  0
    2.0822   -3.3001    0.0000 C   0  0  0  0  0  0  0  0  0  0  0  0
    2.0429   -4.1251    0.0000 C   0  0  0  0  0  0  0  0  0  0  0  0
    1.8465   -5.7358    0.0000 C   0  0  0  0  0  0  0  0  0  0  0  0
    1.4143   -2.8286    0.0000 C   0  0  0  0  0  0  0  0  0  0  0  0
    2.8679   -2.9857    0.0000 C   0  0  0  0  0  0  0  0  0  0  0  0
    3.2608   -5.9322    0.0000 C   0  0  0  0  0  0  0  0  0  0  0  0
    1.7286   -6.5608    0.0000 C   0  0  0  0  0  0  0  0  0  0  0  0
    2.3964   -7.0322    0.0000 C   0  0  0  0  0  0  0  0  0  0  0  0
    3.1429   -6.7179    0.0000 C   0  0  0  0  0  0  0  0  0  0  0  0
    1.2179   -0.7071    0.0000 C   0  0  0  0  0  0  0  0  0  0  0  0
    2.2000   -1.6108    0.0000 C   0  0  0  0  0  0  0  0  0  0  0  0
    0.8250    0.0000    0.0000 C   0  0  0  0  0  0  0  0  0  0  0  0
    4.8715   -4.4393    0.0000 C   0  0  0  0  0  0  0  0  0  0  0  0
    4.9501   -3.6143    0.0000 C   0  0  0  0  0  0  0  0  0  0  0  0
  1 18  1  0  0  0  0
  2 19  1  0  0  0  0
  3 11  1  0  0  0  0
  3 24  1  0  0  0  0
  4 23  1  0  0  0  0
  5  7  1  0  0  0  0
  5 15  1  0  0  0  0
  5 22  1  0  0  0  0
  6 11  2  0  0  0  0
  6 16  1  0  0  0  0
  7 21  2  0  0  0  0
  8 21  1  0  0  0  0
  8 22  2  0  0  0  0
  9 10  1  0  0  0  0
  9 11  1  0  0  0  0
  9 13  2  0  0  0  0
 10 14  1  0  0  0  0
 10 17  2  0  0  0  0
 12 13  1  0  0  0  0
 12 15  1  0  0  0  0
 12 16  2  0  0  0  0
 14 18  2  0  0  0  0
 17 20  1  0  0  0  0
 18 19  1  0  0  0  0
 19 20  2  0  0  0  0
 21 23  1  0  0  0  0
 24 25  1  0  0  0  0
M  END
> <PUBCHEM_COMPOUND_ID_TYPE>
0

> <PUBCHEM_TOTAL_CHARGE>
0

> <PUBCHEM_SUBSTANCE_ID>
310936600

> <PUBCHEM_SUBSTANCE_VERSION>
1

> <PUBCHEM_EXT_DATASOURCE_NAME>
4488

> <PUBCHEM_EXT_DATASOURCE_REGID>
SCHEMBL16114260

> <PUBCHEM_SUBSTANCE_COMMENT>
InChI=1S/C17H16F2N4O2/c1-2-25-17-13(12-3-4-14(18)15(19)6-12)5-11(7-20-17)8-23-10-21-16(9-24)22-23/h3-7,10,24H,2,8-9H2,1H3
InChIKey=FMWNWYOREROOLP-UHFFFAOYSA-N

> <PUBCHEM_SUBSTANCE_SYNONYM>
SCHEMBL16114260

> <PUBCHEM_XREF_EXT_ID>
SCHEMBL16114260

> <PUBCHEM_EXT_DATASOURCE_URL>
https://www.surechembl.org/

> <PUBCHEM_EXT_SUBSTANCE_URL>
https://www.surechembl.org/chemical/SCHEMBL16114260

> <PUBCHEM_CID_ASSOCIATIONS>
117604519  1

> <PUBCHEM_COORDINATE_TYPE>
1
3

$$$$
