310930073
  -OEChem-07211613022D

 53 59  0     1  0  0  0  0  0999 V2000
    2.7831   -3.6867    0.0000 O   0  0  0  0  0  0  0  0  0  0  0  0
    4.2289   -1.2289    0.0000 O   0  0  0  0  0  0  0  0  0  0  0  0
    9.2891   -2.9277    0.0000 O   0  0  0  0  0  0  0  0  0  0  0  0
   10.0119   -4.1566    0.0000 O   0  0  0  0  0  0  0  0  0  0  0  0
    9.3252   -6.2168    0.0000 O   0  0  0  0  0  0  0  0  0  0  0  0
   10.0119   -4.9879    0.0000 O   0  0  0  0  0  0  0  0  0  0  0  0
    1.3012   -6.4698    0.0000 O   0  0  0  0  0  0  0  0  0  0  0  0
    0.0000   -5.8915    0.0000 O   0  0  0  0  0  0  0  0  0  0  0  0
    2.0964   -2.4578    0.0000 N   0  0  0  0  0  0  0  0  0  0  0  0
    8.6023   -4.1566    0.0000 N   0  0  0  0  0  0  0  0  0  0  0  0
    0.7591   -4.3373    0.0000 N   0  0  0  0  0  0  0  0  0  0  0  0
    3.5060   -1.6265    0.0000 C   0  0  0  0  0  0  0  0  0  0  0  0
    3.5060   -2.4578    0.0000 C   0  0  0  0  0  0  0  0  0  0  0  0
    2.8193   -1.2289    0.0000 C   0  0  0  0  0  0  0  0  0  0  0  0
    2.7831   -2.8554    0.0000 C   0  0  0  0  0  0  0  0  0  0  0  0
    2.0964   -1.6265    0.0000 C   0  0  0  0  0  0  0  0  0  0  0  0
    2.8193   -0.4337    0.0000 C   0  0  0  0  0  0  0  0  0  0  0  0
    4.2289   -2.8916    0.0000 C   0  0  0  0  0  0  0  0  0  0  0  0
    1.4096   -1.2289    0.0000 C   0  0  0  0  0  0  0  0  0  0  0  0
    2.0602   -4.0843    0.0000 C   0  0  3  0  0  0  0  0  0  0  0  0
    8.6023   -2.5301    0.0000 C   0  0  3  0  0  0  0  0  0  0  0  0
    7.8794   -5.3855    0.0000 C   0  0  0  0  0  0  0  0  0  0  0  0
    7.7710   -2.5301    0.0000 C   0  0  3  0  0  0  0  0  0  0  0  0
    8.6023   -4.9879    0.0000 C   0  0  3  0  0  0  0  0  0  0  0  0
    6.5782   -5.6385    0.0000 C   0  0  0  0  0  0  0  0  0  0  0  0
    7.0119   -6.3975    0.0000 C   0  0  0  0  0  0  0  0  0  0  0  0
    8.2047   -1.8072    0.0000 C   0  0  0  0  0  0  0  0  0  0  0  0
    7.1204   -5.0602    0.0000 C   0  0  0  0  0  0  0  0  0  0  0  0
    7.8071   -6.1806    0.0000 C   0  0  0  0  0  0  0  0  0  0  0  0
    2.1325    0.0000    0.0000 C   0  0  0  0  0  0  0  0  0  0  0  0
    1.4096   -0.3976    0.0000 C   0  0  0  0  0  0  0  0  0  0  0  0
    1.9880   -4.9156    0.0000 C   0  0  0  0  0  0  0  0  0  0  0  0
    1.1928   -5.0602    0.0000 C   0  0  3  0  0  0  0  0  0  0  0  0
    9.2891   -3.7590    0.0000 C   0  0  0  0  0  0  0  0  0  0  0  0
    4.9156   -1.6626    0.0000 C   0  0  0  0  0  0  0  0  0  0  0  0
    1.3373   -3.7590    0.0000 C   0  0  0  0  0  0  0  0  0  0  0  0
    4.9156   -2.4940    0.0000 C   0  0  0  0  0  0  0  0  0  0  0  0
    7.0481   -2.9277    0.0000 C   0  0  0  0  0  0  0  0  0  0  0  0
    9.3252   -5.3855    0.0000 C   0  0  0  0  0  0  0  0  0  0  0  0
    5.7469   -5.6746    0.0000 C   0  0  0  0  0  0  0  0  0  0  0  0
    6.5782   -7.0843    0.0000 C   0  0  0  0  0  0  0  0  0  0  0  0
    5.6385   -1.2651    0.0000 C   0  0  0  0  0  0  0  0  0  0  0  0
    0.8313   -5.8192    0.0000 C   0  0  0  0  0  0  0  0  0  0  0  0
    5.6385   -2.8916    0.0000 C   0  0  0  0  0  0  0  0  0  0  0  0
    6.3614   -2.4940    0.0000 C   0  0  0  0  0  0  0  0  0  0  0  0
    5.7831   -7.0843    0.0000 C   0  0  0  0  0  0  0  0  0  0  0  0
    5.3493   -6.3614    0.0000 C   0  0  0  0  0  0  0  0  0  0  0  0
    6.3614   -1.6626    0.0000 C   0  0  0  0  0  0  0  0  0  0  0  0
    5.6385   -0.4337    0.0000 C   0  0  0  0  0  0  0  0  0  0  0  0
    7.0843   -1.2651    0.0000 C   0  0  0  0  0  0  0  0  0  0  0  0
    6.3614    0.0000    0.0000 C   0  0  0  0  0  0  0  0  0  0  0  0
    7.0843   -0.4337    0.0000 C   0  0  0  0  0  0  0  0  0  0  0  0
    0.9397   -7.2289    0.0000 C   0  0  0  0  0  0  0  0  0  0  0  0
  1 15  1  0  0  0  0
 20  1  1  6  0  0  0
  2 12  1  0  0  0  0
  2 35  1  0  0  0  0
 21  3  1  1  0  0  0
  3 34  1  0  0  0  0
  4 34  2  0  0  0  0
  5 39  2  0  0  0  0
  6 39  1  0  0  0  0
  7 43  1  0  0  0  0
  7 53  1  0  0  0  0
  8 43  2  0  0  0  0
  9 15  1  0  0  0  0
  9 16  2  0  0  0  0
 24 10  1  6  0  0  0
 10 34  1  0  0  0  0
 11 33  1  0  0  0  0
 11 36  1  0  0  0  0
 12 13  1  0  0  0  0
 12 14  2  0  0  0  0
 13 15  2  0  0  0  0
 13 18  1  0  0  0  0
 14 16  1  0  0  0  0
 14 17  1  0  0  0  0
 16 19  1  0  0  0  0
 17 30  2  0  0  0  0
 18 37  3  0  0  0  0
 19 31  2  0  0  0  0
 20 32  1  0  0  0  0
 20 36  1  0  0  0  0
 21 23  1  0  0  0  0
 21 27  1  0  0  0  0
 22 24  1  0  0  0  0
 22 28  1  0  0  0  0
 22 29  1  0  0  0  0
 23 27  1  0  0  0  0
 23 38  1  6  0  0  0
 24 39  1  0  0  0  0
 25 26  2  0  0  0  0
 25 28  1  0  0  0  0
 25 40  1  0  0  0  0
 26 29  1  0  0  0  0
 26 41  1  0  0  0  0
 30 31  1  0  0  0  0
 32 33  1  0  0  0  0
 33 43  1  1  0  0  0
 35 42  1  0  0  0  0
 37 44  1  0  0  0  0
 38 45  1  0  0  0  0
 40 47  2  0  0  0  0
 41 46  2  0  0  0  0
 42 48  2  0  0  0  0
 42 49  1  0  0  0  0
 44 45  1  0  0  0  0
 46 47  1  0  0  0  0
 48 50  1  0  0  0  0
 49 51  2  0  0  0  0
 50 52  2  0  0  0  0
 51 52  1  0  0  0  0
M  END
> <PUBCHEM_COMPOUND_ID_TYPE>
0

> <PUBCHEM_TOTAL_CHARGE>
0

> <PUBCHEM_SUBSTANCE_ID>
310930073

> <PUBCHEM_SUBSTANCE_VERSION>
1

> <PUBCHEM_EXT_DATASOURCE_NAME>
4488

> <PUBCHEM_EXT_DATASOURCE_REGID>
SCHEMBL16107316

> <PUBCHEM_SUBSTANCE_COMMENT>
InChI=1S/C42H43N3O8/c1-50-41(48)35-23-31(24-43-35)52-39-33(38(32-17-10-11-19-34(32)44-39)51-25-26-12-4-2-5-13-26)18-7-3-6-16-29-22-36(29)53-42(49)45-37(40(46)47)30-20-27-14-8-9-15-28(27)21-30/h2,4-5,8-15,17,19,29-31,35-37,43H,3,6,16,20-25H2,1H3,(H,45,49)(H,46,47)/t29-,31-,35+,36-,37+/m1/s1
InChIKey=NZUABMBHXNEOMQ-RIJKDCLUSA-N

> <PUBCHEM_SUBSTANCE_SYNONYM>
SCHEMBL16107316

> <PUBCHEM_XREF_EXT_ID>
SCHEMBL16107316

> <PUBCHEM_EXT_DATASOURCE_URL>
https://www.surechembl.org/

> <PUBCHEM_EXT_SUBSTANCE_URL>
https://www.surechembl.org/chemical/SCHEMBL16107316

> <PUBCHEM_CID_ASSOCIATIONS>
117599310  1

> <PUBCHEM_COORDINATE_TYPE>
1
3

> <PUBCHEM_BONDANNOTATIONS>
20  1  6
24  10  6
23  38  6
21  3  5
33  43  5

$$$$
