310944907
  -OEChem-07211613022D

 15 16  0     0  0  0  0  0  0999 V2000
   -3.3682    0.4124    0.0000 S   0  0  0  0  0  0  0  0  0  0  0  0
   -2.5776   -0.6359    0.0000 N   0  0  0  0  0  0  0  0  0  0  0  0
   -1.2373    0.0000    0.0000 C   0  0  0  0  0  0  0  0  0  0  0  0
   -2.0965    0.0000    0.0000 C   0  0  0  0  0  0  0  0  0  0  0  0
   -0.8248    0.6702    0.0000 C   0  0  0  0  0  0  0  0  0  0  0  0
   -0.8077   -0.7046    0.0000 C   0  0  0  0  0  0  0  0  0  0  0  0
   -2.5776    0.6359    0.0000 C   0  0  0  0  0  0  0  0  0  0  0  0
    0.4296    0.0000    0.0000 C   0  0  0  0  0  0  0  0  0  0  0  0
    0.0172    0.6702    0.0000 C   0  0  0  0  0  0  0  0  0  0  0  0
    0.0172   -0.7046    0.0000 C   0  0  0  0  0  0  0  0  0  0  0  0
   -3.3682   -0.4124    0.0000 C   0  0  0  0  0  0  0  0  0  0  0  0
    1.2716   -0.0172    0.0000 C   0  0  0  0  0  0  0  0  0  0  0  0
    2.1309    0.0000    0.0000 C   0  0  0  0  0  0  0  0  0  0  0  0
    2.9557   -0.0172    0.0000 C   0  0  0  0  0  0  0  0  0  0  0  0
    3.3682    0.7046    0.0000 C   0  0  0  0  0  0  0  0  0  0  0  0
  1  7  1  0  0  0  0
  1 11  1  0  0  0  0
  2  4  1  0  0  0  0
  2 11  2  0  0  0  0
  3  4  1  0  0  0  0
  3  5  2  0  0  0  0
  3  6  1  0  0  0  0
  4  7  2  0  0  0  0
  5  9  1  0  0  0  0
  6 10  2  0  0  0  0
  8  9  2  0  0  0  0
  8 10  1  0  0  0  0
  8 12  1  0  0  0  0
 12 13  3  0  0  0  0
 13 14  1  0  0  0  0
 14 15  1  0  0  0  0
M  END
> <PUBCHEM_COMPOUND_ID_TYPE>
0

> <PUBCHEM_TOTAL_CHARGE>
0

> <PUBCHEM_SUBSTANCE_ID>
310944907

> <PUBCHEM_SUBSTANCE_VERSION>
1

> <PUBCHEM_EXT_DATASOURCE_NAME>
4488

> <PUBCHEM_EXT_DATASOURCE_REGID>
SCHEMBL16122992

> <PUBCHEM_SUBSTANCE_COMMENT>
InChI=1S/C13H11NS/c1-2-3-4-11-5-7-12(8-6-11)13-9-15-10-14-13/h5-10H,2H2,1H3
InChIKey=IXMULVSYQUQNGB-UHFFFAOYSA-N

> <PUBCHEM_SUBSTANCE_SYNONYM>
SCHEMBL16122992

> <PUBCHEM_XREF_EXT_ID>
SCHEMBL16122992

> <PUBCHEM_EXT_DATASOURCE_URL>
https://www.surechembl.org/

> <PUBCHEM_EXT_SUBSTANCE_URL>
https://www.surechembl.org/chemical/SCHEMBL16122992

> <PUBCHEM_CID_ASSOCIATIONS>
117611083  1

> <PUBCHEM_COORDINATE_TYPE>
1
3

$$$$
