310939912
  -OEChem-07211613022D

 26 28  0     0  0  0  0  0  0999 V2000
    1.4289    3.0584    0.0000 Cl  0  0  0  0  0  0  0  0  0  0  0  0
    1.4289    4.7084    0.0000 Cl  0  0  0  0  0  0  0  0  0  0  0  0
    0.0000   -3.8834    0.0000 O   0  0  0  0  0  0  0  0  0  0  0  0
   -1.4289    4.7084    0.0000 O   0  0  0  0  0  0  0  0  0  0  0  0
   -0.7145   -2.6459    0.0000 N   0  0  0  0  0  0  0  0  0  0  0  0
   -0.7145   -0.6541    0.0000 N   0  0  0  0  0  0  0  0  0  0  0  0
   -0.7145    0.9959    0.0000 N   0  0  0  0  0  0  0  0  0  0  0  0
   -1.4289    3.0584    0.0000 N   0  0  0  0  0  0  0  0  0  0  0  0
   -0.7145   -1.4791    0.0000 C   0  0  0  0  0  0  0  0  0  0  0  0
   -1.2978   -2.0625    0.0000 C   0  0  0  0  0  0  0  0  0  0  0  0
   -0.1311   -2.0625    0.0000 C   0  0  0  0  0  0  0  0  0  0  0  0
   -0.7145   -3.4709    0.0000 C   0  0  0  0  0  0  0  0  0  0  0  0
   -1.4289   -0.2416    0.0000 C   0  0  0  0  0  0  0  0  0  0  0  0
    0.0000   -0.2416    0.0000 C   0  0  0  0  0  0  0  0  0  0  0  0
   -0.7145    3.4709    0.0000 C   0  0  0  0  0  0  0  0  0  0  0  0
   -0.7145    4.2959    0.0000 C   0  0  0  0  0  0  0  0  0  0  0  0
    0.7145    3.4709    0.0000 C   0  0  0  0  0  0  0  0  0  0  0  0
    0.7145    4.2959    0.0000 C   0  0  0  0  0  0  0  0  0  0  0  0
   -1.4289    0.5834    0.0000 C   0  0  0  0  0  0  0  0  0  0  0  0
    0.0000    0.5834    0.0000 C   0  0  0  0  0  0  0  0  0  0  0  0
    0.0000    3.0584    0.0000 C   0  0  0  0  0  0  0  0  0  0  0  0
    0.0000    4.7084    0.0000 C   0  0  0  0  0  0  0  0  0  0  0  0
   -0.7145    1.8209    0.0000 C   0  0  0  0  0  0  0  0  0  0  0  0
   -1.4289   -3.8834    0.0000 C   0  0  0  0  0  0  0  0  0  0  0  0
   -1.4289    2.2334    0.0000 C   0  0  0  0  0  0  0  0  0  0  0  0
   -1.4289   -4.7084    0.0000 C   0  0  0  0  0  0  0  0  0  0  0  0
  1 17  1  0  0  0  0
  2 18  1  0  0  0  0
  3 12  2  0  0  0  0
  4 16  1  0  0  0  0
  5 10  1  0  0  0  0
  5 11  1  0  0  0  0
  5 12  1  0  0  0  0
  6  9  1  0  0  0  0
  6 13  1  0  0  0  0
  6 14  1  0  0  0  0
  7 19  1  0  0  0  0
  7 20  1  0  0  0  0
  7 23  1  0  0  0  0
  8 15  1  0  0  0  0
  8 25  1  0  0  0  0
  9 10  1  0  0  0  0
  9 11  1  0  0  0  0
 12 24  1  0  0  0  0
 13 19  1  0  0  0  0
 14 20  1  0  0  0  0
 15 16  1  0  0  0  0
 15 21  2  0  0  0  0
 16 22  2  0  0  0  0
 17 18  2  0  0  0  0
 17 21  1  0  0  0  0
 18 22  1  0  0  0  0
 23 25  1  0  0  0  0
 24 26  2  0  0  0  0
M  END
> <PUBCHEM_COMPOUND_ID_TYPE>
0

> <PUBCHEM_TOTAL_CHARGE>
0

> <PUBCHEM_SUBSTANCE_ID>
310939912

> <PUBCHEM_SUBSTANCE_VERSION>
1

> <PUBCHEM_EXT_DATASOURCE_NAME>
4488

> <PUBCHEM_EXT_DATASOURCE_REGID>
SCHEMBL16117842

> <PUBCHEM_SUBSTANCE_COMMENT>
InChI=1S/C18H24Cl2N4O2/c1-2-18(26)24-11-13(12-24)23-7-5-22(6-8-23)4-3-21-16-9-14(19)15(20)10-17(16)25/h2,9-10,13,21,25H,1,3-8,11-12H2
InChIKey=ZEYGJGVLFFBALW-UHFFFAOYSA-N

> <PUBCHEM_SUBSTANCE_SYNONYM>
SCHEMBL16117842

> <PUBCHEM_XREF_EXT_ID>
SCHEMBL16117842

> <PUBCHEM_EXT_DATASOURCE_URL>
https://www.surechembl.org/

> <PUBCHEM_EXT_SUBSTANCE_URL>
https://www.surechembl.org/chemical/SCHEMBL16117842

> <PUBCHEM_CID_ASSOCIATIONS>
86279748  1

> <PUBCHEM_COORDINATE_TYPE>
1
3

$$$$
