310942696
  -OEChem-07211613022D

 49 53  0     1  0  0  0  0  0999 V2000
   -4.0219    0.0884    0.0000 F   0  0  0  0  0  0  0  0  0  0  0  0
    2.9022   -1.1049    0.0000 F   0  0  0  0  0  0  0  0  0  0  0  0
   -3.6831   -3.2411    0.0000 F   0  0  0  0  0  0  0  0  0  0  0  0
    1.2669   -0.1915    0.0000 O   0  0  0  0  0  0  0  0  0  0  0  0
   -1.3407   -1.8562    0.0000 O   0  0  0  0  0  0  0  0  0  0  0  0
   -0.5157   -3.2852    0.0000 O   0  0  0  0  0  0  0  0  0  0  0  0
    3.5799    1.9888    0.0000 O   0  0  0  0  0  0  0  0  0  0  0  0
    3.5799   -0.9429    0.0000 O   0  0  0  0  0  0  0  0  0  0  0  0
    0.0147   -0.9134    0.0000 N   0  0  0  0  0  0  0  0  0  0  0  0
   -1.7236    0.4714    0.0000 N   0  0  0  0  0  0  0  0  0  0  0  0
   -1.7236   -0.8692    0.0000 N   0  0  0  0  0  0  0  0  0  0  0  0
    1.2522    1.2522    0.0000 N   0  0  0  0  0  0  0  0  0  0  0  0
    1.7973   -2.9464    0.0000 N   0  0  0  0  0  0  0  0  0  0  0  0
    3.3295    0.5304    0.0000 N   0  0  0  0  0  0  0  0  0  0  0  0
   -0.3978   -0.1915    0.0000 C   0  0  3  0  0  0  0  0  0  0  0  0
   -1.2375   -0.1768    0.0000 C   0  0  0  0  0  0  0  0  0  0  0  0
    0.0000    0.5450    0.0000 C   0  0  0  0  0  0  0  0  0  0  0  0
   -2.5192   -0.6040    0.0000 C   0  0  0  0  0  0  0  0  0  0  0  0
   -2.5045    0.2357    0.0000 C   0  0  0  0  0  0  0  0  0  0  0  0
    0.8250    0.5450    0.0000 C   0  0  0  0  0  0  0  0  0  0  0  0
   -3.1969   -1.0755    0.0000 C   0  0  0  0  0  0  0  0  0  0  0  0
   -0.5009   -1.8415    0.0000 C   0  0  0  0  0  0  0  0  0  0  0  0
    1.1049   -0.9134    0.0000 C   0  0  0  0  0  0  0  0  0  0  0  0
   -1.4732    1.2817    0.0000 C   0  0  0  0  0  0  0  0  0  0  0  0
   -0.7071    0.9281    0.0000 C   0  0  0  0  0  0  0  0  0  0  0  0
    0.0000    1.3700    0.0000 C   0  0  0  0  0  0  0  0  0  0  0  0
    1.5026   -1.6205    0.0000 C   0  0  3  0  0  0  0  0  0  0  0  0
   -3.9629   -0.7514    0.0000 C   0  0  0  0  0  0  0  0  0  0  0  0
   -0.1179   -2.5634    0.0000 C   0  0  3  0  0  0  0  0  0  0  0  0
   -3.1085   -1.9152    0.0000 C   0  0  0  0  0  0  0  0  0  0  0  0
   -2.0183    1.9005    0.0000 C   0  0  0  0  0  0  0  0  0  0  0  0
    2.3276   -1.7384    0.0000 C   0  0  3  0  0  0  0  0  0  0  0  0
   -3.7714   -2.4014    0.0000 C   0  0  0  0  0  0  0  0  0  0  0  0
   -4.6259   -1.2375    0.0000 C   0  0  0  0  0  0  0  0  0  0  0  0
    1.1933   -2.3866    0.0000 C   0  0  0  0  0  0  0  0  0  0  0  0
   -4.5375   -2.0625    0.0000 C   0  0  0  0  0  0  0  0  0  0  0  0
    2.1067    1.2375    0.0000 C   0  0  0  0  0  0  0  0  0  0  0  0
   -1.7679    2.6812    0.0000 C   0  0  0  0  0  0  0  0  0  0  0  0
   -2.8286    1.7236    0.0000 C   0  0  0  0  0  0  0  0  0  0  0  0
    2.5192   -2.5339    0.0000 C   0  0  0  0  0  0  0  0  0  0  0  0
    0.7071   -2.5634    0.0000 C   0  0  0  0  0  0  0  0  0  0  0  0
    2.5045    0.5450    0.0000 C   0  0  0  0  0  0  0  0  0  0  0  0
   -2.3129    3.2852    0.0000 C   0  0  0  0  0  0  0  0  0  0  0  0
   -3.3736    2.3424    0.0000 C   0  0  0  0  0  0  0  0  0  0  0  0
    3.8450   -0.1031    0.0000 C   0  0  0  0  0  0  0  0  0  0  0  0
    3.8304    1.1933    0.0000 C   0  0  0  0  0  0  0  0  0  0  0  0
   -3.1085    3.1232    0.0000 C   0  0  0  0  0  0  0  0  0  0  0  0
    4.6112    0.1179    0.0000 C   0  0  0  0  0  0  0  0  0  0  0  0
    4.6259    0.9429    0.0000 C   0  0  0  0  0  0  0  0  0  0  0  0
  1 28  1  0  0  0  0
 32  2  1  1  0  0  0
  3 33  1  0  0  0  0
  4 20  2  0  0  0  0
  5 22  2  0  0  0  0
 29  6  1  6  0  0  0
  7 46  2  0  0  0  0
  8 45  2  0  0  0  0
 15  9  1  1  0  0  0
  9 22  1  0  0  0  0
  9 23  1  0  0  0  0
 10 16  1  0  0  0  0
 10 19  1  0  0  0  0
 10 24  1  0  0  0  0
 11 16  2  0  0  0  0
 11 18  1  0  0  0  0
 12 20  1  0  0  0  0
 12 37  1  0  0  0  0
 13 35  1  0  0  0  0
 13 40  1  0  0  0  0
 14 42  1  0  0  0  0
 14 45  1  0  0  0  0
 14 46  1  0  0  0  0
 15 16  1  0  0  0  0
 15 17  1  0  0  0  0
 17 20  1  0  0  0  0
 17 25  1  0  0  0  0
 17 26  1  0  0  0  0
 18 19  2  0  0  0  0
 18 21  1  0  0  0  0
 21 28  2  0  0  0  0
 21 30  1  0  0  0  0
 22 29  1  0  0  0  0
 27 23  1  1  0  0  0
 24 31  1  0  0  0  0
 27 32  1  0  0  0  0
 27 35  1  0  0  0  0
 28 34  1  0  0  0  0
 29 41  1  0  0  0  0
 30 33  2  0  0  0  0
 31 38  2  0  0  0  0
 31 39  1  0  0  0  0
 32 40  1  0  0  0  0
 33 36  1  0  0  0  0
 34 36  2  0  0  0  0
 37 42  1  0  0  0  0
 38 43  1  0  0  0  0
 39 44  2  0  0  0  0
 43 47  2  0  0  0  0
 44 47  1  0  0  0  0
 45 48  1  0  0  0  0
 46 49  1  0  0  0  0
 48 49  2  0  0  0  0
M  END
> <PUBCHEM_COMPOUND_ID_TYPE>
0

> <PUBCHEM_TOTAL_CHARGE>
0

> <PUBCHEM_SUBSTANCE_ID>
310942696

> <PUBCHEM_SUBSTANCE_VERSION>
1

> <PUBCHEM_EXT_DATASOURCE_NAME>
4488

> <PUBCHEM_EXT_DATASOURCE_REGID>
SCHEMBL16120742

> <PUBCHEM_SUBSTANCE_COMMENT>
InChI=1S/C35H39F3N6O5/c1-21(45)33(48)44(19-23-16-39-17-27(23)38)31(35(2,3)34(49)40-13-14-43-29(46)11-12-30(43)47)32-41-28(25-15-24(36)9-10-26(25)37)20-42(32)18-22-7-5-4-6-8-22/h4-12,15,20-21,23,27,31,39,45H,13-14,16-19H2,1-3H3,(H,40,49)/t21-,23-,27-,31-/m0/s1
InChIKey=AGCBXJGALNPNTD-AGXMVRHVSA-N

> <PUBCHEM_SUBSTANCE_SYNONYM>
SCHEMBL16120742

> <PUBCHEM_XREF_EXT_ID>
SCHEMBL16120742

> <PUBCHEM_EXT_DATASOURCE_URL>
https://www.surechembl.org/

> <PUBCHEM_EXT_SUBSTANCE_URL>
https://www.surechembl.org/chemical/SCHEMBL16120742

> <PUBCHEM_CID_ASSOCIATIONS>
117609224  1

> <PUBCHEM_COORDINATE_TYPE>
1
3

> <PUBCHEM_BONDANNOTATIONS>
32  2  5
27  23  5
29  6  6
15  9  5

$$$$
