310944079
  -OEChem-07211613022D

 26 28  0     1  0  0  0  0  0999 V2000
    2.4843    0.8811    0.0000 O   0  0  0  0  0  0  0  0  0  0  0  0
   -2.5506   -0.3644    0.0000 N   0  0  0  0  0  0  0  0  0  0  0  0
   -2.6434    0.4571    0.0000 N   0  0  0  0  0  0  0  0  0  0  0  0
    0.3379   -0.3644    0.0000 N   0  0  3  0  0  0  0  0  0  0  0  0
   -3.3191   -0.7089    0.0000 C   0  0  0  0  0  0  0  0  0  0  0  0
   -3.8756   -0.0993    0.0000 C   0  0  0  0  0  0  0  0  0  0  0  0
   -3.4516    0.6294    0.0000 C   0  0  0  0  0  0  0  0  0  0  0  0
   -3.5708   -1.4906    0.0000 C   0  0  0  0  0  0  0  0  0  0  0  0
   -1.8086   -0.7752    0.0000 C   0  0  0  0  0  0  0  0  0  0  0  0
   -4.6706   -0.2848    0.0000 C   0  0  0  0  0  0  0  0  0  0  0  0
   -1.1196   -0.3644    0.0000 C   0  0  3  0  0  0  0  0  0  0  0  0
   -4.3526   -1.6761    0.0000 C   0  0  0  0  0  0  0  0  0  0  0  0
   -4.9224   -1.0534    0.0000 C   0  0  0  0  0  0  0  0  0  0  0  0
   -0.3776   -0.7752    0.0000 C   0  0  0  0  0  0  0  0  0  0  0  0
    3.9154    0.8944    0.0000 C   0  0  0  0  0  0  0  0  0  0  0  0
   -1.1064    0.4439    0.0000 C   0  0  0  0  0  0  0  0  0  0  0  0
    0.3379    0.4704    0.0000 C   0  0  0  0  0  0  0  0  0  0  0  0
    1.7689    0.4704    0.0000 C   0  0  3  0  0  0  0  0  0  0  0  0
    1.0534    0.8811    0.0000 C   0  0  0  0  0  0  0  0  0  0  0  0
    3.2131    0.4704    0.0000 C   0  0  0  0  0  0  0  0  0  0  0  0
    1.0401   -0.7486    0.0000 C   0  0  0  0  0  0  0  0  0  0  0  0
    4.1406    1.6761    0.0000 C   0  0  0  0  0  0  0  0  0  0  0  0
    4.7104    0.6691    0.0000 C   0  0  0  0  0  0  0  0  0  0  0  0
    4.9224    1.4774    0.0000 C   0  0  0  0  0  0  0  0  0  0  0  0
    1.7556   -0.3644    0.0000 C   0  0  0  0  0  0  0  0  0  0  0  0
    1.3581    0.0993    0.0000 C   0  0  0  0  0  0  0  0  0  0  0  0
  1 18  1  0  0  0  0
  1 20  1  0  0  0  0
  2  3  1  0  0  0  0
  2  5  1  0  0  0  0
  2  9  1  0  0  0  0
  3  7  2  0  0  0  0
  4 14  1  0  0  0  0
  4 17  1  0  0  0  0
  4 21  1  0  0  0  0
  5  6  2  0  0  0  0
  5  8  1  0  0  0  0
  6  7  1  0  0  0  0
  6 10  1  0  0  0  0
  8 12  2  0  0  0  0
  9 11  1  0  0  0  0
 10 13  2  0  0  0  0
 11 14  1  0  0  0  0
 11 16  1  6  0  0  0
 12 13  1  0  0  0  0
 15 20  1  0  0  0  0
 15 22  1  0  0  0  0
 15 23  1  0  0  0  0
 17 19  1  0  0  0  0
 18 19  1  0  0  0  0
 18 25  1  1  0  0  0
 21 26  1  0  0  0  0
 22 24  1  0  0  0  0
 23 24  1  0  0  0  0
M  END
> <PUBCHEM_COMPOUND_ID_TYPE>
0

> <PUBCHEM_TOTAL_CHARGE>
0

> <PUBCHEM_SUBSTANCE_ID>
310944079

> <PUBCHEM_SUBSTANCE_VERSION>
1

> <PUBCHEM_EXT_DATASOURCE_NAME>
4488

> <PUBCHEM_EXT_DATASOURCE_REGID>
SCHEMBL16122154

> <PUBCHEM_SUBSTANCE_COMMENT>
InChI=1S/C22H35N3O/c1-4-24(13-12-19(3)26-17-20-8-7-9-20)15-18(2)16-25-22-11-6-5-10-21(22)14-23-25/h5-6,10-11,14,18-20H,4,7-9,12-13,15-17H2,1-3H3/t18-,19+/m1/s1
InChIKey=HIUGEMZAZBIMHG-MOPGFXCFSA-N

> <PUBCHEM_SUBSTANCE_SYNONYM>
SCHEMBL16122154

> <PUBCHEM_XREF_EXT_ID>
SCHEMBL16122154

> <PUBCHEM_EXT_DATASOURCE_URL>
https://www.surechembl.org/

> <PUBCHEM_EXT_SUBSTANCE_URL>
https://www.surechembl.org/chemical/SCHEMBL16122154

> <PUBCHEM_CID_ASSOCIATIONS>
117610371  1

> <PUBCHEM_COORDINATE_TYPE>
1
3

> <PUBCHEM_BONDANNOTATIONS>
11  16  6
18  25  5

$$$$
