310940459
  -OEChem-07211613022D

 10 10  0     0  0  0  0  0  0999 V2000
    1.1117   -0.8893    0.0000 N   0  0  0  0  0  0  0  0  0  0  0  0
    0.4176    0.2820    0.0000 N   0  0  0  0  0  0  0  0  0  0  0  0
   -0.2658    0.7700    0.0000 N   0  0  0  0  0  0  0  0  0  0  0  0
    0.3200   -0.5531    0.0000 C   0  0  0  0  0  0  0  0  0  0  0  0
   -0.4285   -0.9001    0.0000 C   0  0  0  0  0  0  0  0  0  0  0  0
    1.6648   -0.2820    0.0000 C   0  0  0  0  0  0  0  0  0  0  0  0
    1.2418    0.4556    0.0000 C   0  0  0  0  0  0  0  0  0  0  0  0
   -1.1442   -0.3796    0.0000 C   0  0  0  0  0  0  0  0  0  0  0  0
   -1.0682    0.4230    0.0000 C   0  0  0  0  0  0  0  0  0  0  0  0
   -1.6648    0.9001    0.0000 C   0  0  0  0  0  0  0  0  0  0  0  0
  1  4  2  0  0  0  0
  1  6  1  0  0  0  0
  2  4  1  0  0  0  0
  2  7  1  0  0  0  0
  3  9  2  3  0  0  0
  4  5  1  0  0  0  0
  5  8  2  0  0  0  0
  6  7  2  0  0  0  0
  8  9  1  0  0  0  0
  9 10  1  0  0  0  0
M  END
> <PUBCHEM_COMPOUND_ID_TYPE>
0

> <PUBCHEM_TOTAL_CHARGE>
0

> <PUBCHEM_SUBSTANCE_ID>
310940459

> <PUBCHEM_SUBSTANCE_VERSION>
1

> <PUBCHEM_EXT_DATASOURCE_NAME>
4488

> <PUBCHEM_EXT_DATASOURCE_REGID>
SCHEMBL16118412

> <PUBCHEM_SUBSTANCE_COMMENT>
InChI=1S/C7H9N3/c1-6(8)2-3-7-9-4-5-10-7/h2-5,8H,1H3,(H,9,10)/b3-2-,8-6?
InChIKey=AOUDQKYQPXPTLZ-GIEIKEAHSA-N

> <PUBCHEM_SUBSTANCE_SYNONYM>
SCHEMBL16118412

> <PUBCHEM_XREF_EXT_ID>
SCHEMBL16118412

> <PUBCHEM_EXT_DATASOURCE_URL>
https://www.surechembl.org/

> <PUBCHEM_EXT_SUBSTANCE_URL>
https://www.surechembl.org/chemical/SCHEMBL16118412

> <PUBCHEM_CID_ASSOCIATIONS>
117607478  1

> <PUBCHEM_COORDINATE_TYPE>
1
3

$$$$
