310947546
  -OEChem-07211613022D

 48 53  0     1  0  0  0  0  0999 V2000
    0.4241   -7.0731    0.0000 P   0  0  3  0  0  0  0  0  0  0  0  0
    2.0874   -9.8701    0.0000 F   0  0  0  0  0  0  0  0  0  0  0  0
    2.9124   -7.8860    0.0000 O   0  0  0  0  0  0  0  0  0  0  0  0
    3.7374   -9.8701    0.0000 O   0  0  0  0  0  0  0  0  0  0  0  0
    1.0075   -7.6565    0.0000 O   0  0  0  0  0  0  0  0  0  0  0  0
    5.0789   -5.2285    0.0000 O   0  0  0  0  0  0  0  0  0  0  0  0
   -0.1593   -6.4898    0.0000 O   0  0  0  0  0  0  0  0  0  0  0  0
    1.0075   -6.4898    0.0000 O   0  0  0  0  0  0  0  0  0  0  0  0
   -0.8737   -9.7190    0.0000 O   0  0  0  0  0  0  0  0  0  0  0  0
   -1.5882   -8.4815    0.0000 O   0  0  0  0  0  0  0  0  0  0  0  0
    3.5798   -7.5460    0.0000 N   0  0  0  0  0  0  0  0  0  0  0  0
    3.5798   -6.2111    0.0000 N   0  0  0  0  0  0  0  0  0  0  0  0
    5.0789   -7.7035    0.0000 N   0  0  0  0  0  0  0  0  0  0  0  0
    5.7934   -6.4660    0.0000 N   0  0  0  0  0  0  0  0  0  0  0  0
   -0.1593   -7.6565    0.0000 N   0  0  0  0  0  0  0  0  0  0  0  0
    6.5079   -7.7035    0.0000 N   0  0  0  0  0  0  0  0  0  0  0  0
    3.5798   -8.3710    0.0000 C   0  0  3  0  0  0  0  0  0  0  0  0
    3.3249   -9.1556    0.0000 C   0  0  3  0  0  0  0  0  0  0  0  0
    2.4999   -9.1556    0.0000 C   0  0  3  0  0  0  0  0  0  0  0  0
    4.3645   -7.2910    0.0000 C   0  0  0  0  0  0  0  0  0  0  0  0
    2.2450   -8.3710    0.0000 C   0  0  3  0  0  0  0  0  0  0  0  0
    4.3645   -6.4660    0.0000 C   0  0  0  0  0  0  0  0  0  0  0  0
    3.0949   -6.8785    0.0000 C   0  0  0  0  0  0  0  0  0  0  0  0
    5.0789   -6.0535    0.0000 C   0  0  0  0  0  0  0  0  0  0  0  0
    4.0394   -8.7431    0.0000 C   0  0  0  0  0  0  0  0  0  0  0  0
    1.8325   -7.6565    0.0000 C   0  0  0  0  0  0  0  0  0  0  0  0
    5.7934   -7.2910    0.0000 C   0  0  0  0  0  0  0  0  0  0  0  0
   -0.1593   -5.6648    0.0000 C   0  0  0  0  0  0  0  0  0  0  0  0
   -0.8737   -5.2523    0.0000 C   0  0  0  0  0  0  0  0  0  0  0  0
   -0.8737   -4.4273    0.0000 C   0  0  0  0  0  0  0  0  0  0  0  0
   -0.1593   -8.4815    0.0000 C   0  0  3  0  0  0  0  0  0  0  0  0
    0.5552   -5.2523    0.0000 C   0  0  0  0  0  0  0  0  0  0  0  0
    5.7934   -4.8160    0.0000 C   0  0  0  0  0  0  0  0  0  0  0  0
   -1.5882   -5.6648    0.0000 C   0  0  0  0  0  0  0  0  0  0  0  0
   -0.1593   -4.0148    0.0000 C   0  0  0  0  0  0  0  0  0  0  0  0
    0.5552   -4.4273    0.0000 C   0  0  0  0  0  0  0  0  0  0  0  0
   -0.8737   -8.8940    0.0000 C   0  0  0  0  0  0  0  0  0  0  0  0
   -1.5882   -4.0148    0.0000 C   0  0  0  0  0  0  0  0  0  0  0  0
   -2.3027   -5.2523    0.0000 C   0  0  0  0  0  0  0  0  0  0  0  0
   -2.3027   -4.4273    0.0000 C   0  0  0  0  0  0  0  0  0  0  0  0
    0.5552   -8.8940    0.0000 C   0  0  0  0  0  0  0  0  0  0  0  0
   -1.5882  -10.1315    0.0000 C   0  0  0  0  0  0  0  0  0  0  0  0
   -2.3027   -9.7190    0.0000 C   0  0  0  0  0  0  0  0  0  0  0  0
   -2.3027   -8.8940    0.0000 C   0  0  0  0  0  0  0  0  0  0  0  0
   -3.0172  -10.1315    0.0000 C   0  0  0  0  0  0  0  0  0  0  0  0
   -3.0172   -8.4815    0.0000 C   0  0  0  0  0  0  0  0  0  0  0  0
   -3.7316   -9.7190    0.0000 C   0  0  0  0  0  0  0  0  0  0  0  0
   -3.7316   -8.8940    0.0000 C   0  0  0  0  0  0  0  0  0  0  0  0
  1  5  1  0  0  0  0
  1  7  1  0  0  0  0
  1  8  2  0  0  0  0
  1 15  1  0  0  0  0
 19  2  1  6  0  0  0
  3 17  1  0  0  0  0
  3 21  1  0  0  0  0
 18  4  1  6  0  0  0
  5 26  1  0  0  0  0
  6 24  1  0  0  0  0
  6 33  1  0  0  0  0
  7 28  1  0  0  0  0
  9 37  1  0  0  0  0
  9 42  1  0  0  0  0
 10 37  2  0  0  0  0
 11 17  1  0  0  0  0
 11 20  1  0  0  0  0
 11 23  1  0  0  0  0
 12 22  1  0  0  0  0
 12 23  2  0  0  0  0
 13 20  1  0  0  0  0
 13 27  2  0  0  0  0
 14 24  2  0  0  0  0
 14 27  1  0  0  0  0
 15 31  1  0  0  0  0
 16 27  1  0  0  0  0
 17 18  1  0  0  0  0
 18 19  1  0  0  0  0
 18 25  1  1  0  0  0
 19 21  1  0  0  0  0
 20 22  2  0  0  0  0
 21 26  1  1  0  0  0
 22 24  1  0  0  0  0
 28 29  1  0  0  0  0
 28 32  2  0  0  0  0
 29 30  2  0  0  0  0
 29 34  1  0  0  0  0
 30 35  1  0  0  0  0
 30 38  1  0  0  0  0
 31 37  1  0  0  0  0
 31 41  1  1  0  0  0
 32 36  1  0  0  0  0
 34 39  2  0  0  0  0
 35 36  2  0  0  0  0
 38 40  2  0  0  0  0
 39 40  1  0  0  0  0
 42 43  1  0  0  0  0
 43 44  2  0  0  0  0
 43 45  1  0  0  0  0
 44 46  1  0  0  0  0
 45 47  2  0  0  0  0
 46 48  2  0  0  0  0
 47 48  1  0  0  0  0
M  END
> <PUBCHEM_COMPOUND_ID_TYPE>
0

> <PUBCHEM_TOTAL_CHARGE>
0

> <PUBCHEM_SUBSTANCE_ID>
310947546

> <PUBCHEM_SUBSTANCE_VERSION>
1

> <PUBCHEM_EXT_DATASOURCE_NAME>
4488

> <PUBCHEM_EXT_DATASOURCE_REGID>
SCHEMBL16125709

> <PUBCHEM_SUBSTANCE_COMMENT>
InChI=1S/C32H34FN6O8P/c1-19(29(40)44-16-20-10-5-4-6-11-20)38-48(42,47-23-15-9-13-21-12-7-8-14-22(21)23)45-17-24-26(33)32(2,41)30(46-24)39-18-35-25-27(39)36-31(34)37-28(25)43-3/h4-15,18-19,24,26,30,41H,16-17H2,1-3H3,(H,38,42)(H2,34,36,37)/t19-,24+,26+,30?,32+,48?/m0/s1
InChIKey=JVRPLUKVYMZKBT-ZAFDXGGYSA-N

> <PUBCHEM_SUBSTANCE_SYNONYM>
SCHEMBL16125709

> <PUBCHEM_XREF_EXT_ID>
SCHEMBL16125709

> <PUBCHEM_EXT_DATASOURCE_URL>
https://www.surechembl.org/

> <PUBCHEM_EXT_SUBSTANCE_URL>
https://www.surechembl.org/chemical/SCHEMBL16125709

> <PUBCHEM_CID_ASSOCIATIONS>
117613268  1

> <PUBCHEM_COORDINATE_TYPE>
1
3

> <PUBCHEM_BONDANNOTATIONS>
18  25  5
19  2  6
21  26  5
31  41  5
18  4  6

$$$$
