310941199
  -OEChem-07211613022D

  8  9  0     1  0  0  0  0  0999 V2000
    1.7525    0.0000    0.0000 O   0  0  0  0  0  0  0  0  0  0  0  0
   -0.4639   -0.3951    0.0000 C   0  0  3  0  0  0  0  0  0  0  0  0
   -0.4124    0.3951    0.0000 C   0  0  3  0  0  0  0  0  0  0  0  0
    0.2406    0.0000    0.0000 C   0  0  3  0  0  0  0  0  0  0  0  0
   -1.2715   -0.6701    0.0000 C   0  0  0  0  0  0  0  0  0  0  0  0
   -1.2543    0.6873    0.0000 C   0  0  0  0  0  0  0  0  0  0  0  0
    1.0482   -0.4295    0.0000 C   0  0  0  0  0  0  0  0  0  0  0  0
   -1.7525    0.0000    0.0000 C   0  0  0  0  0  0  0  0  0  0  0  0
  1  7  2  0  0  0  0
  2  3  1  0  0  0  0
  2  4  1  0  0  0  0
  2  5  1  1  0  0  0
  3  4  1  0  0  0  0
  3  6  1  1  0  0  0
  4  7  1  6  0  0  0
  5  8  2  0  0  0  0
  6  8  1  0  0  0  0
M  END
> <PUBCHEM_COMPOUND_ID_TYPE>
0

> <PUBCHEM_TOTAL_CHARGE>
0

> <PUBCHEM_SUBSTANCE_ID>
310941199

> <PUBCHEM_SUBSTANCE_VERSION>
1

> <PUBCHEM_EXT_DATASOURCE_NAME>
4488

> <PUBCHEM_EXT_DATASOURCE_REGID>
SCHEMBL16119159

> <PUBCHEM_SUBSTANCE_COMMENT>
InChI=1S/C7H8O/c8-4-7-5-2-1-3-6(5)7/h1-2,4-7H,3H2/t5-,6+,7+/m0/s1
InChIKey=DVZTVIVLAFIUFZ-RRKCRQDMSA-N

> <PUBCHEM_SUBSTANCE_SYNONYM>
SCHEMBL16119159

> <PUBCHEM_XREF_EXT_ID>
SCHEMBL16119159

> <PUBCHEM_EXT_DATASOURCE_URL>
https://www.surechembl.org/

> <PUBCHEM_EXT_SUBSTANCE_URL>
https://www.surechembl.org/chemical/SCHEMBL16119159

> <PUBCHEM_CID_ASSOCIATIONS>
92253202  1

> <PUBCHEM_COORDINATE_TYPE>
1
3

> <PUBCHEM_BONDANNOTATIONS>
2  5  5
3  6  5
4  7  6

$$$$
