310933903
  -OEChem-07211613022D

 27 29  0     0  0  0  0  0  0999 V2000
    7.3235   -0.7324    0.0000 S   0  0  0  0  0  0  0  0  0  0  0  0
    1.6546   -2.1428    0.0000 F   0  0  0  0  0  0  0  0  0  0  0  0
    3.7160   -3.4990    0.0000 O   0  0  0  0  0  0  0  0  0  0  0  0
    4.3669    0.0000    0.0000 O   0  0  0  0  0  0  0  0  0  0  0  0
    8.1372   -0.7324    0.0000 O   0  0  0  0  0  0  0  0  0  0  0  0
    7.7032    0.0000    0.0000 O   0  0  0  0  0  0  0  0  0  0  0  0
    3.5532   -1.4376    0.0000 O   0  0  0  0  0  0  0  0  0  0  0  0
    5.2078   -1.4647    0.0000 N   0  0  0  0  0  0  0  0  0  0  0  0
    4.3398   -2.9294    0.0000 N   0  0  0  0  0  0  0  0  0  0  0  0
    4.3669   -1.4376    0.0000 N   0  0  0  0  0  0  0  0  0  0  0  0
    5.6147   -0.7324    0.0000 C   0  0  0  0  0  0  0  0  0  0  0  0
    4.8009   -0.7324    0.0000 C   0  0  0  0  0  0  0  0  0  0  0  0
    6.0487   -1.4376    0.0000 C   0  0  0  0  0  0  0  0  0  0  0  0
    6.0487   -0.0272    0.0000 C   0  0  0  0  0  0  0  0  0  0  0  0
    3.0108   -3.0922    0.0000 C   0  0  0  0  0  0  0  0  0  0  0  0
    6.8624   -1.4376    0.0000 C   0  0  0  0  0  0  0  0  0  0  0  0
    6.8624   -0.0272    0.0000 C   0  0  0  0  0  0  0  0  0  0  0  0
    3.9872   -2.1699    0.0000 C   0  0  0  0  0  0  0  0  0  0  0  0
    2.2513   -3.4447    0.0000 C   0  0  0  0  0  0  0  0  0  0  0  0
    4.5568   -1.6274    0.0000 C   0  0  0  0  0  0  0  0  0  0  0  0
    3.1464   -2.2784    0.0000 C   0  0  0  0  0  0  0  0  0  0  0  0
    1.5732   -2.9565    0.0000 C   0  0  0  0  0  0  0  0  0  0  0  0
    2.1699   -4.2584    0.0000 C   0  0  0  0  0  0  0  0  0  0  0  0
    0.8409   -3.3091    0.0000 C   0  0  0  0  0  0  0  0  0  0  0  0
    0.7595   -4.1229    0.0000 C   0  0  0  0  0  0  0  0  0  0  0  0
    1.4376   -4.6111    0.0000 C   0  0  0  0  0  0  0  0  0  0  0  0
    0.0000   -4.4754    0.0000 C   0  0  0  0  0  0  0  0  0  0  0  0
  1  5  2  0  0  0  0
  1  6  2  0  0  0  0
  1 16  1  0  0  0  0
  1 17  1  0  0  0  0
  2 22  1  0  0  0  0
  3  9  1  0  0  0  0
  3 15  1  0  0  0  0
  4 12  2  0  0  0  0
  7 10  1  0  0  0  0
  8 11  1  0  0  0  0
  8 20  1  0  0  0  0
  9 18  2  0  0  0  0
 10 12  1  0  0  0  0
 11 12  1  0  0  0  0
 11 13  1  0  0  0  0
 11 14  1  0  0  0  0
 13 16  1  0  0  0  0
 14 17  1  0  0  0  0
 15 19  1  0  0  0  0
 15 21  2  0  0  0  0
 18 20  1  0  0  0  0
 18 21  1  0  0  0  0
 19 22  1  0  0  0  0
 19 23  2  0  0  0  0
 22 24  2  0  0  0  0
 23 26  1  0  0  0  0
 24 25  1  0  0  0  0
 25 26  2  0  0  0  0
 25 27  1  0  0  0  0
M  END
> <PUBCHEM_COMPOUND_ID_TYPE>
0

> <PUBCHEM_TOTAL_CHARGE>
0

> <PUBCHEM_SUBSTANCE_ID>
310933903

> <PUBCHEM_SUBSTANCE_VERSION>
1

> <PUBCHEM_EXT_DATASOURCE_NAME>
4488

> <PUBCHEM_EXT_DATASOURCE_REGID>
SCHEMBL16111342

> <PUBCHEM_SUBSTANCE_COMMENT>
InChI=1S/C17H20FN3O5S/c1-11-2-3-13(14(18)8-11)15-9-12(21-26-15)10-19-17(16(22)20-23)4-6-27(24,25)7-5-17/h2-3,8-9,19,23H,4-7,10H2,1H3,(H,20,22)
InChIKey=RANVPUIVGPMODH-UHFFFAOYSA-N

> <PUBCHEM_SUBSTANCE_SYNONYM>
SCHEMBL16111342

> <PUBCHEM_XREF_EXT_ID>
SCHEMBL16111342

> <PUBCHEM_EXT_DATASOURCE_URL>
https://www.surechembl.org/

> <PUBCHEM_EXT_SUBSTANCE_URL>
https://www.surechembl.org/chemical/SCHEMBL16111342

> <PUBCHEM_CID_ASSOCIATIONS>
86272497  1

> <PUBCHEM_COORDINATE_TYPE>
1
3

$$$$
