310929723
  -OEChem-07211613022D

 56 62  0     1  0  0  0  0  0999 V2000
    4.8432   -0.9111    0.0000 S   0  0  0  0  0  0  0  0  0  0  0  0
    4.4595   -2.5415    0.0000 O   0  0  0  0  0  0  0  0  0  0  0  0
    5.0830   -1.7263    0.0000 O   0  0  0  0  0  0  0  0  0  0  0  0
    4.6514   -0.0959    0.0000 O   0  0  0  0  0  0  0  0  0  0  0  0
    4.3637   -3.1169    0.0000 O   0  0  0  0  0  0  0  0  0  0  0  0
    5.4666   -5.5145    0.0000 O   0  0  0  0  0  0  0  0  0  0  0  0
    1.3906   -3.9801    0.0000 O   0  0  0  0  0  0  0  0  0  0  0  0
    6.4257   -8.3917    0.0000 O   0  0  0  0  0  0  0  0  0  0  0  0
    0.9111   -7.5765    0.0000 O   0  0  0  0  0  0  0  0  0  0  0  0
    0.0000   -6.6654    0.0000 O   0  0  0  0  0  0  0  0  0  0  0  0
    2.9730   -2.9730    0.0000 N   0  0  0  0  0  0  0  0  0  0  0  0
    4.0760   -1.1509    0.0000 N   0  0  0  0  0  0  0  0  0  0  0  0
    2.6374   -4.2678    0.0000 N   0  0  0  0  0  0  0  0  0  0  0  0
    6.4257   -5.8981    0.0000 N   0  0  0  0  0  0  0  0  0  0  0  0
    0.9111   -5.8981    0.0000 N   0  0  0  0  0  0  0  0  0  0  0  0
    3.0689   -2.1578    0.0000 C   0  0  3  0  0  0  0  0  0  0  0  0
    2.3497   -1.7743    0.0000 C   0  0  3  0  0  0  0  0  0  0  0  0
    3.0689   -1.2947    0.0000 C   0  0  0  0  0  0  0  0  0  0  0  0
    3.8362   -1.9181    0.0000 C   0  0  0  0  0  0  0  0  0  0  0  0
    5.6584   -0.7193    0.0000 C   0  0  0  0  0  0  0  0  0  0  0  0
    3.6444   -3.4526    0.0000 C   0  0  0  0  0  0  0  0  0  0  0  0
    1.5345   -1.7743    0.0000 C   0  0  0  0  0  0  0  0  0  0  0  0
    6.2338   -0.0959    0.0000 C   0  0  0  0  0  0  0  0  0  0  0  0
    6.4736   -0.9111    0.0000 C   0  0  0  0  0  0  0  0  0  0  0  0
    3.5005   -4.2678    0.0000 C   0  0  3  0  0  0  0  0  0  0  0  0
    5.2268    0.0000    0.0000 C   0  0  0  0  0  0  0  0  0  0  0  0
    4.3157   -4.4595    0.0000 C   0  0  0  0  0  0  0  0  0  0  0  0
    4.9871   -4.8432    0.0000 C   0  0  3  0  0  0  0  0  0  0  0  0
    1.8702   -4.6514    0.0000 C   0  0  0  0  0  0  0  0  0  0  0  0
    3.9801   -3.8841    0.0000 C   0  0  0  0  0  0  0  0  0  0  0  0
    1.2947   -5.2268    0.0000 C   0  0  3  0  0  0  0  0  0  0  0  0
    1.1509   -2.4935    0.0000 C   0  0  0  0  0  0  0  0  0  0  0  0
    5.7543   -6.3297    0.0000 C   0  0  0  0  0  0  0  0  0  0  0  0
    0.6713   -4.7473    0.0000 C   0  0  0  0  0  0  0  0  0  0  0  0
    5.7543   -7.1929    0.0000 C   0  0  0  0  0  0  0  0  0  0  0  0
    6.4257   -7.5765    0.0000 C   0  0  0  0  0  0  0  0  0  0  0  0
    7.0970   -7.1929    0.0000 C   0  0  0  0  0  0  0  0  0  0  0  0
    7.0970   -6.3297    0.0000 C   0  0  0  0  0  0  0  0  0  0  0  0
    5.4666   -7.9601    0.0000 C   0  0  0  0  0  0  0  0  0  0  0  0
    0.8152   -6.7133    0.0000 C   0  0  0  0  0  0  0  0  0  0  0  0
    7.8642   -7.5765    0.0000 C   0  0  0  0  0  0  0  0  0  0  0  0
    7.8642   -5.8981    0.0000 C   0  0  0  0  0  0  0  0  0  0  0  0
    1.1509   -4.0760    0.0000 C   0  0  0  0  0  0  0  0  0  0  0  0
    0.0000   -4.2198    0.0000 C   0  0  0  0  0  0  0  0  0  0  0  0
    0.1439   -5.3707    0.0000 C   0  0  0  0  0  0  0  0  0  0  0  0
    8.5355   -7.1929    0.0000 C   0  0  0  0  0  0  0  0  0  0  0  0
    8.5355   -6.3297    0.0000 C   0  0  0  0  0  0  0  0  0  0  0  0
    4.9871   -8.5355    0.0000 C   0  0  0  0  0  0  0  0  0  0  0  0
    1.2947   -8.2478    0.0000 C   0  0  3  0  0  0  0  0  0  0  0  0
    1.8702   -8.8233    0.0000 C   0  0  3  0  0  0  0  0  0  0  0  0
    4.1719   -8.7274    0.0000 C   0  0  0  0  0  0  0  0  0  0  0  0
    0.6234   -8.6314    0.0000 C   0  0  0  0  0  0  0  0  0  0  0  0
    1.5824   -9.5905    0.0000 C   0  0  0  0  0  0  0  0  0  0  0  0
    2.6374   -9.1109    0.0000 C   0  0  0  0  0  0  0  0  0  0  0  0
    3.5005   -9.2068    0.0000 C   0  0  0  0  0  0  0  0  0  0  0  0
    0.7193   -9.4946    0.0000 C   0  0  0  0  0  0  0  0  0  0  0  0
  1  3  2  0  0  0  0
  1  4  2  0  0  0  0
  1 12  1  0  0  0  0
  1 20  1  0  0  0  0
  2 19  2  0  0  0  0
  5 21  2  0  0  0  0
  6 28  1  0  0  0  0
  6 33  1  0  0  0  0
  7 29  2  0  0  0  0
  8 36  1  0  0  0  0
  9 40  1  0  0  0  0
  9 49  1  0  0  0  0
 10 40  2  0  0  0  0
 16 11  1  1  0  0  0
 11 21  1  0  0  0  0
 12 19  1  0  0  0  0
 13 25  1  0  0  0  0
 13 29  1  0  0  0  0
 13 30  1  0  0  0  0
 14 33  1  0  0  0  0
 14 38  2  0  0  0  0
 15 31  1  0  0  0  0
 15 40  1  0  0  0  0
 16 17  1  0  0  0  0
 16 18  1  0  0  0  0
 16 19  1  6  0  0  0
 17 18  1  0  0  0  0
 17 22  1  6  0  0  0
 20 23  1  0  0  0  0
 20 24  1  0  0  0  0
 20 26  1  0  0  0  0
 25 21  1  6  0  0  0
 22 32  2  0  0  0  0
 23 24  1  0  0  0  0
 25 27  1  0  0  0  0
 28 27  1  1  0  0  0
 28 30  1  0  0  0  0
 29 31  1  0  0  0  0
 31 34  1  1  0  0  0
 33 35  2  0  0  0  0
 34 43  1  0  0  0  0
 34 44  1  0  0  0  0
 34 45  1  0  0  0  0
 35 36  1  0  0  0  0
 35 39  1  0  0  0  0
 36 37  2  0  0  0  0
 37 38  1  0  0  0  0
 37 41  1  0  0  0  0
 38 42  1  0  0  0  0
 39 48  1  0  0  0  0
 41 46  2  0  0  0  0
 42 47  2  0  0  0  0
 46 47  1  0  0  0  0
 48 51  2  0  0  0  0
 49 50  1  0  0  0  0
 49 52  1  1  0  0  0
 50 53  1  6  0  0  0
 50 54  1  0  0  0  0
 51 55  1  0  0  0  0
 52 56  1  0  0  0  0
 53 56  1  0  0  0  0
 54 55  1  0  0  0  0
M  END
> <PUBCHEM_COMPOUND_ID_TYPE>
0

> <PUBCHEM_TOTAL_CHARGE>
0

> <PUBCHEM_SUBSTANCE_ID>
310929723

> <PUBCHEM_SUBSTANCE_VERSION>
1

> <PUBCHEM_EXT_DATASOURCE_NAME>
4488

> <PUBCHEM_EXT_DATASOURCE_REGID>
SCHEMBL16106921

> <PUBCHEM_SUBSTANCE_COMMENT>
InChI=1S/C41H53N5O9S/c1-6-25-22-41(25,37(50)45-56(52,53)40(5)19-20-40)44-34(48)30-21-26-23-46(30)36(49)33(39(2,3)4)43-38(51)55-31-18-12-14-24(31)13-8-7-9-16-28-32(47)27-15-10-11-17-29(27)42-35(28)54-26/h6-7,9-11,15,17,24-26,30-31,33H,1,8,12-14,16,18-23H2,2-5H3,(H,42,47)(H,43,51)(H,44,48)(H,45,50)/b9-7+/t24-,25-,26-,30+,31-,33-,41-/m1/s1
InChIKey=FHJGPLPGWVQDHN-FNZRFVEESA-N

> <PUBCHEM_SUBSTANCE_SYNONYM>
SCHEMBL16106921

> <PUBCHEM_XREF_EXT_ID>
SCHEMBL16106921

> <PUBCHEM_EXT_DATASOURCE_URL>
https://www.surechembl.org/

> <PUBCHEM_EXT_SUBSTANCE_URL>
https://www.surechembl.org/chemical/SCHEMBL16106921

> <PUBCHEM_CID_ASSOCIATIONS>
117599019  1

> <PUBCHEM_COORDINATE_TYPE>
1
3

> <PUBCHEM_BONDANNOTATIONS>
16  11  5
16  19  6
17  22  6
25  21  6
28  27  5
31  34  5
49  52  5
50  53  6

$$$$
