310939949
  -OEChem-07211613022D

 30 33  0     0  0  0  0  0  0999 V2000
   -0.2880    5.2231    0.0000 Cl  0  0  0  0  0  0  0  0  0  0  0  0
   -1.8919    4.8381    0.0000 Cl  0  0  0  0  0  0  0  0  0  0  0  0
   -1.2250    2.0601    0.0000 O   0  0  0  0  0  0  0  0  0  0  0  0
    1.8919    1.7186    0.0000 O   0  0  0  0  0  0  0  0  0  0  0  0
    1.8919   -4.3981    0.0000 O   0  0  0  0  0  0  0  0  0  0  0  0
    0.4630    2.5436    0.0000 N   0  0  0  0  0  0  0  0  0  0  0  0
    1.1774   -1.1689    0.0000 N   0  0  0  0  0  0  0  0  0  0  0  0
    1.1774    0.4811    0.0000 N   0  0  0  0  0  0  0  0  0  0  0  0
    1.1774   -3.1606    0.0000 N   0  0  0  0  0  0  0  0  0  0  0  0
   -0.2045    3.0285    0.0000 C   0  0  0  0  0  0  0  0  0  0  0  0
    0.0505    3.8131    0.0000 C   0  0  0  0  0  0  0  0  0  0  0  0
   -1.0114    2.8570    0.0000 C   0  0  0  0  0  0  0  0  0  0  0  0
   -0.5016    4.4262    0.0000 C   0  0  0  0  0  0  0  0  0  0  0  0
   -1.3085    4.2547    0.0000 C   0  0  0  0  0  0  0  0  0  0  0  0
    0.8755    3.8131    0.0000 C   0  0  0  0  0  0  0  0  0  0  0  0
    1.1304    3.0285    0.0000 C   0  0  0  0  0  0  0  0  0  0  0  0
   -1.5635    3.4701    0.0000 C   0  0  0  0  0  0  0  0  0  0  0  0
    0.4630    1.7186    0.0000 C   0  0  0  0  0  0  0  0  0  0  0  0
    1.1774   -1.9939    0.0000 C   0  0  0  0  0  0  0  0  0  0  0  0
    1.1774    1.3061    0.0000 C   0  0  0  0  0  0  0  0  0  0  0  0
    0.5941   -2.5773    0.0000 C   0  0  0  0  0  0  0  0  0  0  0  0
    1.7608   -2.5773    0.0000 C   0  0  0  0  0  0  0  0  0  0  0  0
    0.4630   -0.7564    0.0000 C   0  0  0  0  0  0  0  0  0  0  0  0
    1.8919   -0.7564    0.0000 C   0  0  0  0  0  0  0  0  0  0  0  0
    0.4630    0.0686    0.0000 C   0  0  0  0  0  0  0  0  0  0  0  0
    1.8919    0.0686    0.0000 C   0  0  0  0  0  0  0  0  0  0  0  0
    1.1774   -3.9856    0.0000 C   0  0  0  0  0  0  0  0  0  0  0  0
   -0.6416    1.4767    0.0000 C   0  0  0  0  0  0  0  0  0  0  0  0
    0.4630   -4.3981    0.0000 C   0  0  0  0  0  0  0  0  0  0  0  0
    0.4630   -5.2231    0.0000 C   0  0  0  0  0  0  0  0  0  0  0  0
  1 13  1  0  0  0  0
  2 14  1  0  0  0  0
  3 12  1  0  0  0  0
  3 28  1  0  0  0  0
  4 20  2  0  0  0  0
  5 27  2  0  0  0  0
  6 10  1  0  0  0  0
  6 16  1  0  0  0  0
  6 18  1  0  0  0  0
  7 19  1  0  0  0  0
  7 23  1  0  0  0  0
  7 24  1  0  0  0  0
  8 20  1  0  0  0  0
  8 25  1  0  0  0  0
  8 26  1  0  0  0  0
  9 21  1  0  0  0  0
  9 22  1  0  0  0  0
  9 27  1  0  0  0  0
 10 11  2  0  0  0  0
 10 12  1  0  0  0  0
 11 13  1  0  0  0  0
 11 15  1  0  0  0  0
 12 17  2  0  0  0  0
 13 14  2  0  0  0  0
 14 17  1  0  0  0  0
 15 16  2  0  0  0  0
 18 20  1  0  0  0  0
 19 21  1  0  0  0  0
 19 22  1  0  0  0  0
 23 25  1  0  0  0  0
 24 26  1  0  0  0  0
 27 29  1  0  0  0  0
 29 30  2  0  0  0  0
M  END
> <PUBCHEM_COMPOUND_ID_TYPE>
0

> <PUBCHEM_TOTAL_CHARGE>
0

> <PUBCHEM_SUBSTANCE_ID>
310939949

> <PUBCHEM_SUBSTANCE_VERSION>
1

> <PUBCHEM_EXT_DATASOURCE_NAME>
4488

> <PUBCHEM_EXT_DATASOURCE_REGID>
SCHEMBL16117879

> <PUBCHEM_SUBSTANCE_COMMENT>
InChI=1S/C21H24Cl2N4O3/c1-3-18(28)27-11-14(12-27)24-6-8-25(9-7-24)19(29)13-26-5-4-15-20(23)16(22)10-17(30-2)21(15)26/h3-5,10,14H,1,6-9,11-13H2,2H3
InChIKey=OYSAUOUGTVBTJA-UHFFFAOYSA-N

> <PUBCHEM_SUBSTANCE_SYNONYM>
SCHEMBL16117879

> <PUBCHEM_XREF_EXT_ID>
SCHEMBL16117879

> <PUBCHEM_EXT_DATASOURCE_URL>
https://www.surechembl.org/

> <PUBCHEM_EXT_SUBSTANCE_URL>
https://www.surechembl.org/chemical/SCHEMBL16117879

> <PUBCHEM_CID_ASSOCIATIONS>
117607118  1

> <PUBCHEM_COORDINATE_TYPE>
1
3

$$$$
