310942214
  -OEChem-07211613022D

 30 32  0     1  0  0  0  0  0999 V2000
    0.7874    0.9061    0.0000 Cl  0  0  0  0  0  0  0  0  0  0  0  0
   -0.6499   -1.5934    0.0000 F   0  0  0  0  0  0  0  0  0  0  0  0
    0.7874   -0.7561    0.0000 O   0  0  0  0  0  0  0  0  0  0  0  0
   -4.2243   -0.3187    0.0000 O   0  0  0  0  0  0  0  0  0  0  0  0
   -2.8120   -0.3437    0.0000 N   0  0  0  0  0  0  0  0  0  0  0  0
    3.6869    1.7435    0.0000 N   0  0  0  0  0  0  0  0  0  0  0  0
    4.4867    2.0059    0.0000 N   0  0  0  0  0  0  0  0  0  0  0  0
   -4.9617    0.9186    0.0000 N   0  0  0  0  0  0  0  0  0  0  0  0
    0.0625   -0.3312    0.0000 C   0  0  0  0  0  0  0  0  0  0  0  0
   -0.6624   -0.7436    0.0000 C   0  0  0  0  0  0  0  0  0  0  0  0
   -1.3748   -0.3312    0.0000 C   0  0  0  0  0  0  0  0  0  0  0  0
    0.0750    0.5062    0.0000 C   0  0  0  0  0  0  0  0  0  0  0  0
   -2.0871   -0.7436    0.0000 C   0  0  3  0  0  0  0  0  0  0  0  0
   -1.3623    0.4937    0.0000 C   0  0  0  0  0  0  0  0  0  0  0  0
    1.5123   -0.3312    0.0000 C   0  0  0  0  0  0  0  0  0  0  0  0
   -0.6624    0.8936    0.0000 C   0  0  0  0  0  0  0  0  0  0  0  0
    2.9620    0.5062    0.0000 C   0  0  0  0  0  0  0  0  0  0  0  0
    3.6619    0.9186    0.0000 C   0  0  0  0  0  0  0  0  0  0  0  0
    2.2497   -0.7436    0.0000 C   0  0  0  0  0  0  0  0  0  0  0  0
    1.5248    0.4937    0.0000 C   0  0  0  0  0  0  0  0  0  0  0  0
    2.9620   -0.3312    0.0000 C   0  0  0  0  0  0  0  0  0  0  0  0
    2.2372    0.8936    0.0000 C   0  0  0  0  0  0  0  0  0  0  0  0
   -2.0871   -1.5934    0.0000 C   0  0  0  0  0  0  0  0  0  0  0  0
   -2.8120    0.5062    0.0000 C   0  0  3  0  0  0  0  0  0  0  0  0
    4.4743    0.6561    0.0000 C   0  0  0  0  0  0  0  0  0  0  0  0
    4.9617    1.3185    0.0000 C   0  0  0  0  0  0  0  0  0  0  0  0
   -3.5369    0.9061    0.0000 C   0  0  0  0  0  0  0  0  0  0  0  0
   -1.3748   -2.0059    0.0000 C   0  0  0  0  0  0  0  0  0  0  0  0
   -2.0871    0.9061    0.0000 C   0  0  0  0  0  0  0  0  0  0  0  0
   -4.2493    0.4937    0.0000 C   0  0  0  0  0  0  0  0  0  0  0  0
  1 12  1  0  0  0  0
  2 10  1  0  0  0  0
  3  9  1  0  0  0  0
  3 15  1  0  0  0  0
  4 30  2  0  0  0  0
 13  5  1  1  0  0  0
  5 24  1  0  0  0  0
  6  7  1  0  0  0  0
  6 18  1  0  0  0  0
  7 26  2  0  0  0  0
  8 30  1  0  0  0  0
  9 10  2  0  0  0  0
  9 12  1  0  0  0  0
 10 11  1  0  0  0  0
 11 13  1  0  0  0  0
 11 14  2  0  0  0  0
 12 16  2  0  0  0  0
 13 23  1  0  0  0  0
 14 16  1  0  0  0  0
 15 19  2  0  0  0  0
 15 20  1  0  0  0  0
 17 18  1  0  0  0  0
 17 21  2  0  0  0  0
 17 22  1  0  0  0  0
 18 25  2  0  0  0  0
 19 21  1  0  0  0  0
 20 22  2  0  0  0  0
 23 28  1  0  0  0  0
 24 27  1  0  0  0  0
 24 29  1  1  0  0  0
 25 26  1  0  0  0  0
 27 30  1  0  0  0  0
M  END
> <PUBCHEM_COMPOUND_ID_TYPE>
0

> <PUBCHEM_TOTAL_CHARGE>
0

> <PUBCHEM_SUBSTANCE_ID>
310942214

> <PUBCHEM_SUBSTANCE_VERSION>
1

> <PUBCHEM_EXT_DATASOURCE_NAME>
4488

> <PUBCHEM_EXT_DATASOURCE_REGID>
SCHEMBL16120249

> <PUBCHEM_SUBSTANCE_COMMENT>
InChI=1S/C22H24ClFN4O2/c1-3-18(27-13(2)12-20(25)29)16-8-9-17(23)22(21(16)24)30-15-6-4-14(5-7-15)19-10-11-26-28-19/h4-11,13,18,27H,3,12H2,1-2H3,(H2,25,29)(H,26,28)/t13-,18-/m1/s1
InChIKey=OZUTZMLVEMINNJ-FZKQIMNGSA-N

> <PUBCHEM_SUBSTANCE_SYNONYM>
SCHEMBL16120249

> <PUBCHEM_XREF_EXT_ID>
SCHEMBL16120249

> <PUBCHEM_EXT_DATASOURCE_URL>
https://www.surechembl.org/

> <PUBCHEM_EXT_SUBSTANCE_URL>
https://www.surechembl.org/chemical/SCHEMBL16120249

> <PUBCHEM_CID_ASSOCIATIONS>
117608865  1

> <PUBCHEM_COORDINATE_TYPE>
1
3

> <PUBCHEM_BONDANNOTATIONS>
24  29  5
13  5  5

$$$$
