310940223
  -OEChem-07211613022D

 21 24  0     0  0  0  0  0  0999 V2000
   -2.9439    0.1069    0.0000 O   0  0  0  0  0  0  0  0  0  0  0  0
   -0.8006   -1.1305    0.0000 N   0  0  0  0  0  0  0  0  0  0  0  0
   -1.5151    0.1069    0.0000 N   0  0  0  0  0  0  0  0  0  0  0  0
   -0.0160   -1.3855    0.0000 N   0  0  0  0  0  0  0  0  0  0  0  0
    2.5315   -1.4326    0.0000 N   0  0  0  0  0  0  0  0  0  0  0  0
   -0.0160   -0.0507    0.0000 C   0  0  0  0  0  0  0  0  0  0  0  0
   -0.8006   -0.3056    0.0000 C   0  0  0  0  0  0  0  0  0  0  0  0
    0.4689   -0.7181    0.0000 C   0  0  0  0  0  0  0  0  0  0  0  0
    0.1975    0.7462    0.0000 C   0  0  0  0  0  0  0  0  0  0  0  0
    1.2940   -0.7181    0.0000 C   0  0  0  0  0  0  0  0  0  0  0  0
    0.7810    1.3295    0.0000 C   0  0  0  0  0  0  0  0  0  0  0  0
   -0.0160    1.5430    0.0000 C   0  0  0  0  0  0  0  0  0  0  0  0
   -2.2294   -0.3056    0.0000 C   0  0  0  0  0  0  0  0  0  0  0  0
   -1.5151   -1.5430    0.0000 C   0  0  0  0  0  0  0  0  0  0  0  0
   -2.2294   -1.1305    0.0000 C   0  0  0  0  0  0  0  0  0  0  0  0
    1.7065   -0.0037    0.0000 C   0  0  0  0  0  0  0  0  0  0  0  0
    1.7065   -1.4326    0.0000 C   0  0  0  0  0  0  0  0  0  0  0  0
   -1.5151    0.9319    0.0000 C   0  0  0  0  0  0  0  0  0  0  0  0
    2.5315   -0.0037    0.0000 C   0  0  0  0  0  0  0  0  0  0  0  0
    2.9439   -0.7181    0.0000 C   0  0  0  0  0  0  0  0  0  0  0  0
    2.9439    0.7108    0.0000 C   0  0  0  0  0  0  0  0  0  0  0  0
  1 13  2  0  0  0  0
  2  4  1  0  0  0  0
  2  7  1  0  0  0  0
  2 14  1  0  0  0  0
  3  7  1  0  0  0  0
  3 13  1  0  0  0  0
  3 18  1  0  0  0  0
  4  8  2  0  0  0  0
  5 17  2  0  0  0  0
  5 20  1  0  0  0  0
  6  7  2  0  0  0  0
  6  8  1  0  0  0  0
  6  9  1  0  0  0  0
  8 10  1  0  0  0  0
  9 11  1  0  0  0  0
  9 12  1  0  0  0  0
 10 16  2  0  0  0  0
 10 17  1  0  0  0  0
 11 12  1  0  0  0  0
 13 15  1  0  0  0  0
 14 15  1  0  0  0  0
 16 19  1  0  0  0  0
 19 20  2  0  0  0  0
 19 21  1  0  0  0  0
M  END
> <PUBCHEM_COMPOUND_ID_TYPE>
0

> <PUBCHEM_TOTAL_CHARGE>
0

> <PUBCHEM_SUBSTANCE_ID>
310940223

> <PUBCHEM_SUBSTANCE_VERSION>
1

> <PUBCHEM_EXT_DATASOURCE_NAME>
4488

> <PUBCHEM_EXT_DATASOURCE_REGID>
SCHEMBL16118157

> <PUBCHEM_SUBSTANCE_COMMENT>
InChI=1S/C16H18N4O/c1-10-7-12(9-17-8-10)15-14(11-3-4-11)16-19(2)13(21)5-6-20(16)18-15/h7-9,11H,3-6H2,1-2H3
InChIKey=PPTULYZYVWDMIM-UHFFFAOYSA-N

> <PUBCHEM_SUBSTANCE_SYNONYM>
SCHEMBL16118157

> <PUBCHEM_XREF_EXT_ID>
SCHEMBL16118157

> <PUBCHEM_EXT_DATASOURCE_URL>
https://www.surechembl.org/

> <PUBCHEM_EXT_SUBSTANCE_URL>
https://www.surechembl.org/chemical/SCHEMBL16118157

> <PUBCHEM_CID_ASSOCIATIONS>
117607316  1

> <PUBCHEM_COORDINATE_TYPE>
1
3

$$$$
