310942022
  -OEChem-07211613022D

  9 10  0     0  0  0  0  0  0999 V2000
    0.8529   -0.6878    0.0000 O   0  0  0  0  0  0  0  0  0  0  0  0
    0.8529    0.6603    0.0000 N   0  0  0  0  0  0  0  0  0  0  0  0
    1.3481   -0.0138    0.0000 N   0  0  0  0  0  0  0  0  0  0  0  0
   -1.3481   -0.4402    0.0000 N   0  0  0  0  0  0  0  0  0  0  0  0
    0.0825   -0.4127    0.0000 C   0  0  0  0  0  0  0  0  0  0  0  0
    0.0825    0.4127    0.0000 C   0  0  0  0  0  0  0  0  0  0  0  0
   -0.6190   -0.8254    0.0000 C   0  0  0  0  0  0  0  0  0  0  0  0
   -0.6603    0.8254    0.0000 C   0  0  0  0  0  0  0  0  0  0  0  0
   -1.3481    0.4127    0.0000 C   0  0  0  0  0  0  0  0  0  0  0  0
  1  3  1  0  0  0  0
  1  5  1  0  0  0  0
  2  3  2  0  0  0  0
  2  6  1  0  0  0  0
  4  7  1  0  0  0  0
  4  9  1  0  0  0  0
  5  6  1  0  0  0  0
  5  7  2  0  0  0  0
  6  8  2  0  0  0  0
  8  9  1  0  0  0  0
M  END
> <PUBCHEM_COMPOUND_ID_TYPE>
0

> <PUBCHEM_TOTAL_CHARGE>
0

> <PUBCHEM_SUBSTANCE_ID>
310942022

> <PUBCHEM_SUBSTANCE_VERSION>
1

> <PUBCHEM_EXT_DATASOURCE_NAME>
4488

> <PUBCHEM_EXT_DATASOURCE_REGID>
SCHEMBL16120056

> <PUBCHEM_SUBSTANCE_COMMENT>
InChI=1S/C5H5N3O/c1-2-6-3-5-4(1)7-8-9-5/h1,3,6H,2H2
InChIKey=HJGOQTVFRCEUBE-UHFFFAOYSA-N

> <PUBCHEM_SUBSTANCE_SYNONYM>
SCHEMBL16120056

> <PUBCHEM_XREF_EXT_ID>
SCHEMBL16120056

> <PUBCHEM_EXT_DATASOURCE_URL>
https://www.surechembl.org/

> <PUBCHEM_EXT_SUBSTANCE_URL>
https://www.surechembl.org/chemical/SCHEMBL16120056

> <PUBCHEM_CID_ASSOCIATIONS>
117608711  1

> <PUBCHEM_COORDINATE_TYPE>
1
3

$$$$
