310940118
  -OEChem-07211613022D

 53 63  0     0  0  0  0  0  0999 V2000
   -6.4134  -17.4496    0.0000 O   0  0  0  0  0  0  0  0  0  0  0  0
  -10.4872  -13.3754    0.0000 N   0  0  0  0  0  0  0  0  0  0  0  0
   -1.4837  -13.4051    0.0000 N   0  0  0  0  0  0  0  0  0  0  0  0
   -2.5635  -12.6206    0.0000 N   0  0  0  0  0  0  0  0  0  0  0  0
  -10.3156  -12.5685    0.0000 C   0  0  0  0  0  0  0  0  0  0  0  0
  -11.3076  -13.4616    0.0000 C   0  0  0  0  0  0  0  0  0  0  0  0
  -11.0301  -12.1560    0.0000 C   0  0  0  0  0  0  0  0  0  0  0  0
  -11.6431  -12.7080    0.0000 C   0  0  0  0  0  0  0  0  0  0  0  0
   -6.8261  -16.1802    0.0000 C   0  0  0  0  0  0  0  0  0  0  0  0
   -6.0010  -16.1802    0.0000 C   0  0  0  0  0  0  0  0  0  0  0  0
   -9.9350  -13.9886    0.0000 C   0  0  0  0  0  0  0  0  0  0  0  0
   -2.3086  -13.4051    0.0000 C   0  0  0  0  0  0  0  0  0  0  0  0
   -7.0809  -16.9647    0.0000 C   0  0  0  0  0  0  0  0  0  0  0  0
   -5.7461  -16.9647    0.0000 C   0  0  0  0  0  0  0  0  0  0  0  0
   -1.2287  -12.6206    0.0000 C   0  0  0  0  0  0  0  0  0  0  0  0
   -1.8961  -12.1357    0.0000 C   0  0  0  0  0  0  0  0  0  0  0  0
   -8.1850  -15.7386    0.0000 C   0  0  0  0  0  0  0  0  0  0  0  0
   -2.8921  -13.9886    0.0000 C   0  0  0  0  0  0  0  0  0  0  0  0
   -7.3780  -15.5669    0.0000 C   0  0  0  0  0  0  0  0  0  0  0  0
   -4.6421  -15.7386    0.0000 C   0  0  0  0  0  0  0  0  0  0  0  0
   -8.7684  -15.1552    0.0000 C   0  0  0  0  0  0  0  0  0  0  0  0
   -5.4491  -15.5669    0.0000 C   0  0  0  0  0  0  0  0  0  0  0  0
   -9.6011  -12.1560    0.0000 C   0  0  0  0  0  0  0  0  0  0  0  0
  -11.7925  -14.1291    0.0000 C   0  0  0  0  0  0  0  0  0  0  0  0
  -11.0301  -11.3310    0.0000 C   0  0  0  0  0  0  0  0  0  0  0  0
  -12.4637  -12.6218    0.0000 C   0  0  0  0  0  0  0  0  0  0  0  0
   -1.0712  -14.1197    0.0000 C   0  0  0  0  0  0  0  0  0  0  0  0
   -4.0586  -15.1552    0.0000 C   0  0  0  0  0  0  0  0  0  0  0  0
   -9.1383  -13.7750    0.0000 C   0  0  0  0  0  0  0  0  0  0  0  0
  -10.1486  -14.7853    0.0000 C   0  0  0  0  0  0  0  0  0  0  0  0
   -7.8879  -17.1363    0.0000 C   0  0  0  0  0  0  0  0  0  0  0  0
   -4.9392  -17.1363    0.0000 C   0  0  0  0  0  0  0  0  0  0  0  0
   -8.4400  -16.5232    0.0000 C   0  0  0  0  0  0  0  0  0  0  0  0
   -8.5549  -14.3584    0.0000 C   0  0  0  0  0  0  0  0  0  0  0  0
   -9.5652  -15.3687    0.0000 C   0  0  0  0  0  0  0  0  0  0  0  0
   -4.3871  -16.5232    0.0000 C   0  0  0  0  0  0  0  0  0  0  0  0
   -0.4750  -12.2850    0.0000 C   0  0  0  0  0  0  0  0  0  0  0  0
   -2.6784  -14.7853    0.0000 C   0  0  0  0  0  0  0  0  0  0  0  0
   -3.6888  -13.7750    0.0000 C   0  0  0  0  0  0  0  0  0  0  0  0
   -9.6011  -11.3310    0.0000 C   0  0  0  0  0  0  0  0  0  0  0  0
  -12.6130  -14.0429    0.0000 C   0  0  0  0  0  0  0  0  0  0  0  0
  -10.3156  -10.9184    0.0000 C   0  0  0  0  0  0  0  0  0  0  0  0
  -12.9486  -13.2892    0.0000 C   0  0  0  0  0  0  0  0  0  0  0  0
   -3.2618  -15.3687    0.0000 C   0  0  0  0  0  0  0  0  0  0  0  0
   -4.2722  -14.3584    0.0000 C   0  0  0  0  0  0  0  0  0  0  0  0
   -1.8098  -11.3151    0.0000 C   0  0  0  0  0  0  0  0  0  0  0  0
   -1.4837  -14.8341    0.0000 C   0  0  0  0  0  0  0  0  0  0  0  0
   -0.2461  -14.1197    0.0000 C   0  0  0  0  0  0  0  0  0  0  0  0
   -0.3888  -11.4645    0.0000 C   0  0  0  0  0  0  0  0  0  0  0  0
   -1.0563  -10.9796    0.0000 C   0  0  0  0  0  0  0  0  0  0  0  0
   -1.0712  -15.5485    0.0000 C   0  0  0  0  0  0  0  0  0  0  0  0
    0.1664  -14.8341    0.0000 C   0  0  0  0  0  0  0  0  0  0  0  0
   -0.2461  -15.5485    0.0000 C   0  0  0  0  0  0  0  0  0  0  0  0
  1 13  1  0  0  0  0
  1 14  1  0  0  0  0
  2  5  1  0  0  0  0
  2  6  1  0  0  0  0
  2 11  1  0  0  0  0
  3 12  1  0  0  0  0
  3 15  1  0  0  0  0
  3 27  1  0  0  0  0
  4 12  2  0  0  0  0
  4 16  1  0  0  0  0
  5  7  2  0  0  0  0
  5 23  1  0  0  0  0
  6  8  2  0  0  0  0
  6 24  1  0  0  0  0
  7  8  1  0  0  0  0
  7 25  1  0  0  0  0
  8 26  1  0  0  0  0
  9 10  1  0  0  0  0
  9 13  1  0  0  0  0
  9 19  2  0  0  0  0
 10 14  2  0  0  0  0
 10 22  1  0  0  0  0
 11 29  2  0  0  0  0
 11 30  1  0  0  0  0
 12 18  1  0  0  0  0
 13 31  2  0  0  0  0
 14 32  1  0  0  0  0
 15 16  2  0  0  0  0
 15 37  1  0  0  0  0
 16 46  1  0  0  0  0
 17 19  1  0  0  0  0
 17 21  1  0  0  0  0
 17 33  2  0  0  0  0
 18 38  2  0  0  0  0
 18 39  1  0  0  0  0
 20 22  2  0  0  0  0
 20 28  1  0  0  0  0
 20 36  1  0  0  0  0
 21 34  2  0  0  0  0
 21 35  1  0  0  0  0
 23 40  2  0  0  0  0
 24 41  2  0  0  0  0
 25 42  2  0  0  0  0
 26 43  2  0  0  0  0
 27 47  2  0  0  0  0
 27 48  1  0  0  0  0
 28 44  2  0  0  0  0
 28 45  1  0  0  0  0
 29 34  1  0  0  0  0
 30 35  2  0  0  0  0
 31 33  1  0  0  0  0
 32 36  2  0  0  0  0
 37 49  2  0  0  0  0
 38 44  1  0  0  0  0
 39 45  2  0  0  0  0
 40 42  1  0  0  0  0
 41 43  1  0  0  0  0
 46 50  2  0  0  0  0
 47 51  1  0  0  0  0
 48 52  2  0  0  0  0
 49 50  1  0  0  0  0
 51 53  2  0  0  0  0
 52 53  1  0  0  0  0
M  END
> <PUBCHEM_COMPOUND_ID_TYPE>
0

> <PUBCHEM_TOTAL_CHARGE>
0

> <PUBCHEM_SUBSTANCE_ID>
310940118

> <PUBCHEM_SUBSTANCE_VERSION>
1

> <PUBCHEM_EXT_DATASOURCE_NAME>
4488

> <PUBCHEM_EXT_DATASOURCE_REGID>
SCHEMBL16118050

> <PUBCHEM_SUBSTANCE_COMMENT>
InChI=1S/C49H31N3O/c1-2-10-37(11-3-1)52-46-17-9-6-14-43(46)50-49(52)34-20-18-32(19-21-34)35-24-28-47-41(30-35)42-31-36(25-29-48(42)53-47)33-22-26-38(27-23-33)51-44-15-7-4-12-39(44)40-13-5-8-16-45(40)51/h1-31H
InChIKey=BWRGPQQWWSFTNY-UHFFFAOYSA-N

> <PUBCHEM_SUBSTANCE_SYNONYM>
SCHEMBL16118050

> <PUBCHEM_XREF_EXT_ID>
SCHEMBL16118050

> <PUBCHEM_EXT_DATASOURCE_URL>
https://www.surechembl.org/

> <PUBCHEM_EXT_SUBSTANCE_URL>
https://www.surechembl.org/chemical/SCHEMBL16118050

> <PUBCHEM_CID_ASSOCIATIONS>
117607245  1

> <PUBCHEM_COORDINATE_TYPE>
1
3

$$$$
