310948907
  -OEChem-07211613022D

 17 18  0     1  0  0  0  0  0999 V2000
   -0.6277    2.1601    0.0000 S   0  0  0  0  0  0  0  0  0  0  0  0
    0.1477    1.0893    0.0000 O   0  0  0  0  0  0  0  0  0  0  0  0
   -2.2277    0.4000    0.0000 O   0  0  0  0  0  0  0  0  0  0  0  0
    1.5631    1.9016    0.0000 O   0  0  0  0  0  0  0  0  0  0  0  0
   -0.8246    0.0431    0.0000 N   0  0  0  0  0  0  0  0  0  0  0  0
   -1.8339   -0.9662    0.0000 N   0  0  0  0  0  0  0  0  0  0  0  0
   -1.3416   -2.3323    0.0000 N   0  0  0  0  0  0  0  0  0  0  0  0
   -0.6031    0.8308    0.0000 C   0  0  3  0  0  0  0  0  0  0  0  0
   -1.6123   -0.1785    0.0000 C   0  0  0  0  0  0  0  0  0  0  0  0
    0.1477    1.9016    0.0000 C   0  0  3  0  0  0  0  0  0  0  0  0
   -1.1077    1.4954    0.0000 C   0  0  0  0  0  0  0  0  0  0  0  0
   -0.2585   -0.5354    0.0000 C   0  0  0  0  0  0  0  0  0  0  0  0
   -1.2677   -1.5323    0.0000 C   0  0  0  0  0  0  0  0  0  0  0  0
   -0.4800   -1.3354    0.0000 C   0  0  0  0  0  0  0  0  0  0  0  0
    0.8739    2.3077    0.0000 C   0  0  0  0  0  0  0  0  0  0  0  0
   -2.2769   -2.3323    0.0000 C   0  0  0  0  0  0  0  0  0  0  0  0
    2.2769    2.3323    0.0000 C   0  0  0  0  0  0  0  0  0  0  0  0
  1 10  1  0  0  0  0
  1 11  1  0  0  0  0
  8  2  1  6  0  0  0
  2 10  1  0  0  0  0
  3  9  2  0  0  0  0
  4 15  1  0  0  0  0
  4 17  1  0  0  0  0
  5  8  1  0  0  0  0
  5  9  1  0  0  0  0
  5 12  1  0  0  0  0
  6  9  1  0  0  0  0
  6 13  2  0  0  0  0
  7 13  1  0  0  0  0
  7 16  1  0  0  0  0
  8 11  1  0  0  0  0
 10 15  1  6  0  0  0
 12 14  2  0  0  0  0
 13 14  1  0  0  0  0
M  END
> <PUBCHEM_COMPOUND_ID_TYPE>
0

> <PUBCHEM_TOTAL_CHARGE>
0

> <PUBCHEM_SUBSTANCE_ID>
310948907

> <PUBCHEM_SUBSTANCE_VERSION>
1

> <PUBCHEM_EXT_DATASOURCE_NAME>
4488

> <PUBCHEM_EXT_DATASOURCE_REGID>
SCHEMBL16127092

> <PUBCHEM_SUBSTANCE_COMMENT>
InChI=1S/C10H15N3O3S/c1-11-7-3-4-13(10(14)12-7)8-6-17-9(16-8)5-15-2/h3-4,8-9H,5-6H2,1-2H3,(H,11,12,14)/t8-,9+/m0/s1
InChIKey=YUOGLYGBPUJPPC-DTWKUNHWSA-N

> <PUBCHEM_SUBSTANCE_SYNONYM>
SCHEMBL16127092

> <PUBCHEM_XREF_EXT_ID>
SCHEMBL16127092

> <PUBCHEM_EXT_DATASOURCE_URL>
https://www.surechembl.org/

> <PUBCHEM_EXT_SUBSTANCE_URL>
https://www.surechembl.org/chemical/SCHEMBL16127092

> <PUBCHEM_CID_ASSOCIATIONS>
117614425  1

> <PUBCHEM_COORDINATE_TYPE>
1
3

> <PUBCHEM_BONDANNOTATIONS>
10  15  6
8  2  6

$$$$
