310940880
  -OEChem-07211613022D

 44 47  0     1  0  0  0  0  0999 V2000
    3.8327    2.3809    0.0000 S   0  0  0  0  0  0  0  0  0  0  0  0
    5.1828   -1.3647    0.0000 O   0  0  0  0  0  0  0  0  0  0  0  0
    4.0505    0.5953    0.0000 O   0  0  0  0  0  0  0  0  0  0  0  0
    1.6840   -1.3647    0.0000 O   0  0  0  0  0  0  0  0  0  0  0  0
    0.2468    1.1324    0.0000 O   0  0  0  0  0  0  0  0  0  0  0  0
    3.4116    3.1068    0.0000 O   0  0  0  0  0  0  0  0  0  0  0  0
    4.2392    1.6550    0.0000 O   0  0  0  0  0  0  0  0  0  0  0  0
   -0.4791    0.7259    0.0000 O   0  0  0  0  0  0  0  0  0  0  0  0
   -2.6277   -1.3647    0.0000 O   0  0  0  0  0  0  0  0  0  0  0  0
   -5.4877   -1.3647    0.0000 O   0  0  0  0  0  0  0  0  0  0  0  0
    2.3954   -0.1162    0.0000 N   0  0  0  0  0  0  0  0  0  0  0  0
    0.2468   -0.5372    0.0000 N   0  0  0  0  0  0  0  0  0  0  0  0
   -1.9018   -0.1162    0.0000 N   0  0  0  0  0  0  0  0  0  0  0  0
   -4.0505   -0.5372    0.0000 N   0  0  0  0  0  0  0  0  0  0  0  0
    4.7618   -0.6388    0.0000 C   0  0  3  0  0  0  0  0  0  0  0  0
    4.0505   -0.2758    0.0000 C   0  0  0  0  0  0  0  0  0  0  0  0
    4.3698   -1.3502    0.0000 C   0  0  0  0  0  0  0  0  0  0  0  0
    3.3391   -0.6243    0.0000 C   0  0  3  0  0  0  0  0  0  0  0  0
    5.4877   -0.2178    0.0000 C   0  0  0  0  0  0  0  0  0  0  0  0
    0.9582   -0.0871    0.0000 C   0  0  3  0  0  0  0  0  0  0  0  0
    1.6840   -0.4791    0.0000 C   0  0  0  0  0  0  0  0  0  0  0  0
    3.3246   -1.6986    0.0000 C   0  0  0  0  0  0  0  0  0  0  0  0
    0.9727    0.7549    0.0000 C   0  0  3  0  0  0  0  0  0  0  0  0
    1.6840    1.1614    0.0000 C   0  0  0  0  0  0  0  0  0  0  0  0
    2.6132   -2.1196    0.0000 C   0  0  0  0  0  0  0  0  0  0  0  0
    3.1213    1.9889    0.0000 C   0  0  0  0  0  0  0  0  0  0  0  0
    1.6986    1.9889    0.0000 C   0  0  0  0  0  0  0  0  0  0  0  0
    2.3954    0.7549    0.0000 C   0  0  0  0  0  0  0  0  0  0  0  0
   -0.4791   -0.1162    0.0000 C   0  0  0  0  0  0  0  0  0  0  0  0
    2.3954    2.3809    0.0000 C   0  0  0  0  0  0  0  0  0  0  0  0
    3.1213    1.1614    0.0000 C   0  0  0  0  0  0  0  0  0  0  0  0
    1.8728   -1.8002    0.0000 C   0  0  0  0  0  0  0  0  0  0  0  0
    2.5116   -2.9471    0.0000 C   0  0  0  0  0  0  0  0  0  0  0  0
   -1.1614   -0.4936    0.0000 C   0  0  3  0  0  0  0  0  0  0  0  0
    1.3211   -2.4244    0.0000 C   0  0  0  0  0  0  0  0  0  0  0  0
    1.7131   -3.1068    0.0000 C   0  0  0  0  0  0  0  0  0  0  0  0
    4.5586    2.8165    0.0000 C   0  0  0  0  0  0  0  0  0  0  0  0
   -2.6132   -0.4791    0.0000 C   0  0  0  0  0  0  0  0  0  0  0  0
   -1.1904   -1.3211    0.0000 C   0  0  0  0  0  0  0  0  0  0  0  0
   -3.3536   -0.1017    0.0000 C   0  0  0  0  0  0  0  0  0  0  0  0
   -4.0505   -1.3357    0.0000 C   0  0  0  0  0  0  0  0  0  0  0  0
   -4.8054   -0.1017    0.0000 C   0  0  0  0  0  0  0  0  0  0  0  0
   -4.7473   -1.7421    0.0000 C   0  0  0  0  0  0  0  0  0  0  0  0
   -5.4732   -0.4936    0.0000 C   0  0  0  0  0  0  0  0  0  0  0  0
  1  6  2  0  0  0  0
  1  7  2  0  0  0  0
  1 26  1  0  0  0  0
  1 37  1  0  0  0  0
  2 15  1  0  0  0  0
  2 17  1  0  0  0  0
  3 16  2  0  0  0  0
  4 21  2  0  0  0  0
 23  5  1  6  0  0  0
  8 29  2  0  0  0  0
  9 38  2  0  0  0  0
 10 43  1  0  0  0  0
 10 44  1  0  0  0  0
 18 11  1  6  0  0  0
 11 21  1  0  0  0  0
 20 12  1  1  0  0  0
 12 29  1  0  0  0  0
 13 34  1  0  0  0  0
 13 38  1  0  0  0  0
 14 40  1  0  0  0  0
 14 41  1  0  0  0  0
 14 42  1  0  0  0  0
 15 16  1  6  0  0  0
 15 17  1  0  0  0  0
 15 19  1  1  0  0  0
 16 18  1  0  0  0  0
 18 22  1  0  0  0  0
 20 21  1  0  0  0  0
 20 23  1  0  0  0  0
 22 25  1  0  0  0  0
 23 24  1  0  0  0  0
 24 27  2  0  0  0  0
 24 28  1  0  0  0  0
 25 32  2  0  0  0  0
 25 33  1  0  0  0  0
 26 30  2  0  0  0  0
 26 31  1  0  0  0  0
 27 30  1  0  0  0  0
 28 31  2  0  0  0  0
 29 34  1  0  0  0  0
 32 35  1  0  0  0  0
 33 36  1  0  0  0  0
 34 39  1  6  0  0  0
 35 36  1  0  0  0  0
 38 40  1  0  0  0  0
 41 43  1  0  0  0  0
 42 44  1  0  0  0  0
M  END
> <PUBCHEM_COMPOUND_ID_TYPE>
0

> <PUBCHEM_TOTAL_CHARGE>
0

> <PUBCHEM_SUBSTANCE_ID>
310940880

> <PUBCHEM_SUBSTANCE_VERSION>
1

> <PUBCHEM_EXT_DATASOURCE_NAME>
4488

> <PUBCHEM_EXT_DATASOURCE_REGID>
SCHEMBL16118839

> <PUBCHEM_SUBSTANCE_COMMENT>
InChI=1S/C30H42N4O9S/c1-19(31-24(35)17-34-12-14-42-15-13-34)28(38)33-25(26(36)21-8-10-22(11-9-21)44(3,40)41)29(39)32-23(16-20-6-4-5-7-20)27(37)30(2)18-43-30/h6,8-11,19,23,25-26,36H,4-5,7,12-18H2,1-3H3,(H,31,35)(H,32,39)(H,33,38)/t19-,23-,25-,26+,30+/m0/s1
InChIKey=CITYCUSFMCGADU-UTIIJYGPSA-N

> <PUBCHEM_SUBSTANCE_SYNONYM>
SCHEMBL16118839

> <PUBCHEM_XREF_EXT_ID>
SCHEMBL16118839

> <PUBCHEM_EXT_DATASOURCE_URL>
https://www.surechembl.org/

> <PUBCHEM_EXT_SUBSTANCE_URL>
https://www.surechembl.org/chemical/SCHEMBL16118839

> <PUBCHEM_CID_ASSOCIATIONS>
117607797  1

> <PUBCHEM_COORDINATE_TYPE>
1
3

> <PUBCHEM_BONDANNOTATIONS>
18  11  6
20  12  5
15  16  6
15  19  5
34  39  6
23  5  6

$$$$
