310937065
  -OEChem-07211613022D

 24 28  0     0  0  0  0  0  0999 V2000
   -3.0367   -1.4045    0.0000 O   0  0  0  0  0  0  0  0  0  0  0  0
   -5.2136    0.0820    0.0000 O   0  0  0  0  0  0  0  0  0  0  0  0
    0.7145   -0.4125    0.0000 O   0  0  0  0  0  0  0  0  0  0  0  0
   -2.8972   -0.0770    0.0000 N   0  0  0  0  0  0  0  0  0  0  0  0
   -2.2297   -1.2330    0.0000 N   0  0  0  0  0  0  0  0  0  0  0  0
   -1.4290    0.8250    0.0000 N   0  0  0  0  0  0  0  0  0  0  0  0
   -3.9342   -1.3575    0.0000 N   0  0  0  0  0  0  0  0  0  0  0  0
   -4.2697   -0.6038    0.0000 C   0  0  0  0  0  0  0  0  0  0  0  0
   -3.4492   -0.6901    0.0000 C   0  0  0  0  0  0  0  0  0  0  0  0
   -2.1435   -0.4125    0.0000 C   0  0  0  0  0  0  0  0  0  0  0  0
   -1.4290    0.0000    0.0000 C   0  0  0  0  0  0  0  0  0  0  0  0
    0.0000    0.8250    0.0000 C   0  0  0  0  0  0  0  0  0  0  0  0
   -5.0845   -0.7329    0.0000 C   0  0  0  0  0  0  0  0  0  0  0  0
   -4.3988    0.2110    0.0000 C   0  0  0  0  0  0  0  0  0  0  0  0
    0.0000    0.0000    0.0000 C   0  0  0  0  0  0  0  0  0  0  0  0
    0.7145    1.2375    0.0000 C   0  0  0  0  0  0  0  0  0  0  0  0
   -0.7145   -0.4125    0.0000 C   0  0  0  0  0  0  0  0  0  0  0  0
   -0.7145    1.2375    0.0000 C   0  0  0  0  0  0  0  0  0  0  0  0
    1.1270    1.9520    0.0000 C   0  0  0  0  0  0  0  0  0  0  0  0
    1.5395    1.2375    0.0000 C   0  0  0  0  0  0  0  0  0  0  0  0
    1.4290    0.0000    0.0000 C   0  0  0  0  0  0  0  0  0  0  0  0
    2.1435   -0.4125    0.0000 C   0  0  0  0  0  0  0  0  0  0  0  0
    2.9685   -0.4125    0.0000 C   0  0  0  0  0  0  0  0  0  0  0  0
    2.5560   -1.1270    0.0000 C   0  0  0  0  0  0  0  0  0  0  0  0
  1  5  1  0  0  0  0
  1  9  1  0  0  0  0
  2 13  1  0  0  0  0
  2 14  1  0  0  0  0
  3 15  1  0  0  0  0
  3 21  1  0  0  0  0
  4  9  2  0  0  0  0
  4 10  1  0  0  0  0
  5 10  2  0  0  0  0
  6 11  2  0  0  0  0
  6 18  1  0  0  0  0
  7  8  1  0  0  0  0
  8  9  1  0  0  0  0
  8 13  1  0  0  0  0
  8 14  1  0  0  0  0
 10 11  1  0  0  0  0
 11 17  1  0  0  0  0
 12 15  1  0  0  0  0
 12 16  1  0  0  0  0
 12 18  2  0  0  0  0
 15 17  2  0  0  0  0
 16 19  1  0  0  0  0
 16 20  1  0  0  0  0
 19 20  1  0  0  0  0
 21 22  1  0  0  0  0
 22 23  1  0  0  0  0
 22 24  1  0  0  0  0
 23 24  1  0  0  0  0
M  END
> <PUBCHEM_COMPOUND_ID_TYPE>
0

> <PUBCHEM_TOTAL_CHARGE>
0

> <PUBCHEM_SUBSTANCE_ID>
310937065

> <PUBCHEM_SUBSTANCE_VERSION>
1

> <PUBCHEM_EXT_DATASOURCE_NAME>
4488

> <PUBCHEM_EXT_DATASOURCE_REGID>
SCHEMBL16114777

> <PUBCHEM_SUBSTANCE_COMMENT>
InChI=1S/C17H20N4O3/c18-17(8-22-9-17)16-20-15(21-24-16)13-5-14(23-7-10-1-2-10)12(6-19-13)11-3-4-11/h5-6,10-11H,1-4,7-9,18H2
InChIKey=POLBNZVUVRPJSZ-UHFFFAOYSA-N

> <PUBCHEM_SUBSTANCE_SYNONYM>
SCHEMBL16114777

> <PUBCHEM_XREF_EXT_ID>
SCHEMBL16114777

> <PUBCHEM_EXT_DATASOURCE_URL>
https://www.surechembl.org/

> <PUBCHEM_EXT_SUBSTANCE_URL>
https://www.surechembl.org/chemical/SCHEMBL16114777

> <PUBCHEM_CID_ASSOCIATIONS>
86275997  1

> <PUBCHEM_COORDINATE_TYPE>
1
3

$$$$
