310942354
  -OEChem-07211613022D

 19 20  0     0  0  0  0  0  0999 V2000
    0.3573   -1.8621    0.0000 O   0  0  0  0  0  0  0  0  0  0  0  0
    1.8689    0.6940    0.0000 O   0  0  0  0  0  0  0  0  0  0  0  0
   -1.0719    0.6115    0.0000 O   0  0  0  0  0  0  0  0  0  0  0  0
    2.4872   -0.6803    0.0000 O   0  0  0  0  0  0  0  0  0  0  0  0
    1.0719   -0.6115    0.0000 N   0  0  0  0  0  0  0  0  0  0  0  0
   -1.0719   -1.8483    0.0000 N   0  0  0  0  0  0  0  0  0  0  0  0
   -0.3436   -0.6115    0.0000 C   0  0  0  0  0  0  0  0  0  0  0  0
   -0.3573   -1.4360    0.0000 C   0  0  0  0  0  0  0  0  0  0  0  0
   -1.0719   -0.1993    0.0000 C   0  0  0  0  0  0  0  0  0  0  0  0
    0.3298   -0.2130    0.0000 C   0  0  0  0  0  0  0  0  0  0  0  0
    1.7865   -0.1993    0.0000 C   0  0  0  0  0  0  0  0  0  0  0  0
   -1.7865   -1.4360    0.0000 C   0  0  0  0  0  0  0  0  0  0  0  0
   -1.7590   -0.6115    0.0000 C   0  0  0  0  0  0  0  0  0  0  0  0
    1.1680    1.2161    0.0000 C   0  0  0  0  0  0  0  0  0  0  0  0
   -2.4872   -1.8758    0.0000 C   0  0  0  0  0  0  0  0  0  0  0  0
    1.5803    1.8758    0.0000 C   0  0  0  0  0  0  0  0  0  0  0  0
    0.7009    0.5429    0.0000 C   0  0  0  0  0  0  0  0  0  0  0  0
    0.4260    1.6834    0.0000 C   0  0  0  0  0  0  0  0  0  0  0  0
   -1.8139    1.0374    0.0000 C   0  0  0  0  0  0  0  0  0  0  0  0
  1  5  1  0  0  0  0
  1  8  1  0  0  0  0
  2 11  1  0  0  0  0
  2 14  1  0  0  0  0
  3  9  1  0  0  0  0
  3 19  1  0  0  0  0
  4 11  2  0  0  0  0
  5 10  1  0  0  0  0
  5 11  1  0  0  0  0
  6  8  2  0  0  0  0
  6 12  1  0  0  0  0
  7  8  1  0  0  0  0
  7  9  2  0  0  0  0
  7 10  1  0  0  0  0
  9 13  1  0  0  0  0
 12 13  2  0  0  0  0
 12 15  1  0  0  0  0
 14 16  1  0  0  0  0
 14 17  1  0  0  0  0
 14 18  1  0  0  0  0
M  END
> <PUBCHEM_COMPOUND_ID_TYPE>
0

> <PUBCHEM_TOTAL_CHARGE>
0

> <PUBCHEM_SUBSTANCE_ID>
310942354

> <PUBCHEM_SUBSTANCE_VERSION>
1

> <PUBCHEM_EXT_DATASOURCE_NAME>
4488

> <PUBCHEM_EXT_DATASOURCE_REGID>
SCHEMBL16120390

> <PUBCHEM_SUBSTANCE_COMMENT>
InChI=1S/C13H18N2O4/c1-8-6-10(17-5)9-7-15(19-11(9)14-8)12(16)18-13(2,3)4/h6H,7H2,1-5H3
InChIKey=SPKATPHYQOTCNR-UHFFFAOYSA-N

> <PUBCHEM_SUBSTANCE_SYNONYM>
SCHEMBL16120390

> <PUBCHEM_XREF_EXT_ID>
SCHEMBL16120390

> <PUBCHEM_EXT_DATASOURCE_URL>
https://www.surechembl.org/

> <PUBCHEM_EXT_SUBSTANCE_URL>
https://www.surechembl.org/chemical/SCHEMBL16120390

> <PUBCHEM_CID_ASSOCIATIONS>
117608975  1

> <PUBCHEM_COORDINATE_TYPE>
1
3

$$$$
