310945472
  -OEChem-07211613022D

 25 27  0     0  0  0  0  0  0999 V2000
   -1.0329    1.2288    0.0000 Cl  0  0  0  0  0  0  0  0  0  0  0  0
    1.1576    1.4426    0.0000 F   0  0  0  0  0  0  0  0  0  0  0  0
    2.0480    2.2439    0.0000 F   0  0  0  0  0  0  0  0  0  0  0  0
    2.9563    1.4426    0.0000 F   0  0  0  0  0  0  0  0  0  0  0  0
   -3.5974   -1.1398    0.0000 F   0  0  0  0  0  0  0  0  0  0  0  0
   -2.0302   -1.9412    0.0000 F   0  0  0  0  0  0  0  0  0  0  0  0
   -3.2591   -2.2439    0.0000 F   0  0  0  0  0  0  0  0  0  0  0  0
    0.4096    0.4987    0.0000 N   0  0  0  0  0  0  0  0  0  0  0  0
    0.3918   -0.8014    0.0000 N   0  0  0  0  0  0  0  0  0  0  0  0
    2.8316    0.2493    0.0000 N   0  0  0  0  0  0  0  0  0  0  0  0
    2.0302   -0.9617    0.0000 N   0  0  0  0  0  0  0  0  0  0  0  0
    1.2644    0.2137    0.0000 C   0  0  0  0  0  0  0  0  0  0  0  0
    1.2288   -0.5699    0.0000 C   0  0  0  0  0  0  0  0  0  0  0  0
    2.0302    0.6233    0.0000 C   0  0  0  0  0  0  0  0  0  0  0  0
   -0.1247   -0.1781    0.0000 C   0  0  0  0  0  0  0  0  0  0  0  0
   -1.0151   -0.1781    0.0000 C   0  0  0  0  0  0  0  0  0  0  0  0
    2.0302    1.4248    0.0000 C   0  0  0  0  0  0  0  0  0  0  0  0
    2.8138   -0.5699    0.0000 C   0  0  0  0  0  0  0  0  0  0  0  0
   -1.4782    0.4987    0.0000 C   0  0  0  0  0  0  0  0  0  0  0  0
   -1.4604   -0.8548    0.0000 C   0  0  0  0  0  0  0  0  0  0  0  0
   -2.3864   -0.8726    0.0000 C   0  0  0  0  0  0  0  0  0  0  0  0
   -2.8316   -1.5672    0.0000 C   0  0  0  0  0  0  0  0  0  0  0  0
   -2.3686    0.4809    0.0000 C   0  0  0  0  0  0  0  0  0  0  0  0
   -2.8138   -0.1781    0.0000 C   0  0  0  0  0  0  0  0  0  0  0  0
    3.5974   -0.9617    0.0000 C   0  0  0  0  0  0  0  0  0  0  0  0
  1 19  1  0  0  0  0
  2 17  1  0  0  0  0
  3 17  1  0  0  0  0
  4 17  1  0  0  0  0
  5 22  1  0  0  0  0
  6 22  1  0  0  0  0
  7 22  1  0  0  0  0
  8 12  1  0  0  0  0
  8 15  2  0  0  0  0
  9 13  1  0  0  0  0
  9 15  1  0  0  0  0
 10 14  2  0  0  0  0
 10 18  1  0  0  0  0
 11 13  1  0  0  0  0
 11 18  2  0  0  0  0
 12 13  2  0  0  0  0
 12 14  1  0  0  0  0
 14 17  1  0  0  0  0
 15 16  1  0  0  0  0
 16 19  2  0  0  0  0
 16 20  1  0  0  0  0
 18 25  1  0  0  0  0
 19 23  1  0  0  0  0
 20 21  2  0  0  0  0
 21 22  1  0  0  0  0
 21 24  1  0  0  0  0
 23 24  2  0  0  0  0
M  END
> <PUBCHEM_COMPOUND_ID_TYPE>
0

> <PUBCHEM_TOTAL_CHARGE>
0

> <PUBCHEM_SUBSTANCE_ID>
310945472

> <PUBCHEM_SUBSTANCE_VERSION>
1

> <PUBCHEM_EXT_DATASOURCE_NAME>
4488

> <PUBCHEM_EXT_DATASOURCE_REGID>
SCHEMBL16123570

> <PUBCHEM_SUBSTANCE_COMMENT>
InChI=1S/C14H7ClF6N4/c1-5-22-10(14(19,20)21)9-12(23-5)25-11(24-9)7-4-6(13(16,17)18)2-3-8(7)15/h2-4H,1H3,(H,22,23,24,25)
InChIKey=VWUJXQQXDNRYFD-UHFFFAOYSA-N

> <PUBCHEM_SUBSTANCE_SYNONYM>
SCHEMBL16123570

> <PUBCHEM_XREF_EXT_ID>
SCHEMBL16123570

> <PUBCHEM_EXT_DATASOURCE_URL>
https://www.surechembl.org/

> <PUBCHEM_EXT_SUBSTANCE_URL>
https://www.surechembl.org/chemical/SCHEMBL16123570

> <PUBCHEM_CID_ASSOCIATIONS>
117611517  1

> <PUBCHEM_COORDINATE_TYPE>
1
3

$$$$
