310937759
  -OEChem-07211613022D

 47 50  0     1  0  0  0  0  0999 V2000
    4.2024   -7.7706    0.0000 F   0  0  0  0  0  0  0  0  0  0  0  0
    5.6297   -7.9292    0.0000 F   0  0  0  0  0  0  0  0  0  0  0  0
    4.2817   -6.9777    0.0000 F   0  0  0  0  0  0  0  0  0  0  0  0
    8.2463   -6.7398    0.0000 F   0  0  0  0  0  0  0  0  0  0  0  0
    7.6517   -5.4315    0.0000 F   0  0  0  0  0  0  0  0  0  0  0  0
    7.4931   -7.0569    0.0000 F   0  0  0  0  0  0  0  0  0  0  0  0
    5.8280   -0.7136    0.0000 F   0  0  0  0  0  0  0  0  0  0  0  0
    4.5989    0.0000    0.0000 F   0  0  0  0  0  0  0  0  0  0  0  0
    5.4315   -1.4272    0.0000 F   0  0  0  0  0  0  0  0  0  0  0  0
    5.6297   -3.8853    0.0000 O   0  0  0  0  0  0  0  0  0  0  0  0
    5.2332   -2.4580    0.0000 O   0  0  0  0  0  0  0  0  0  0  0  0
    3.6078   -3.1717    0.0000 O   0  0  0  0  0  0  0  0  0  0  0  0
    0.0000   -1.1101    0.0000 O   0  0  0  0  0  0  0  0  0  0  0  0
    2.8942   -4.4007    0.0000 O   0  0  0  0  0  0  0  0  0  0  0  0
    4.3214   -3.6078    0.0000 N   0  0  0  0  0  0  0  0  0  0  0  0
    2.1805   -2.3391    0.0000 N   0  0  3  0  0  0  0  0  0  0  0  0
    2.8545   -1.1498    0.0000 N   0  0  0  0  0  0  0  0  0  0  0  0
    5.2332   -4.5989    0.0000 C   0  0  3  0  0  0  0  0  0  0  0  0
    4.4007   -4.4404    0.0000 C   0  0  3  0  0  0  0  0  0  0  0  0
    5.5504   -5.3522    0.0000 C   0  0  0  0  0  0  0  0  0  0  0  0
    5.0747   -3.2510    0.0000 C   0  0  0  0  0  0  0  0  0  0  0  0
    3.6078   -2.3787    0.0000 C   0  0  0  0  0  0  0  0  0  0  0  0
    2.8545   -1.9427    0.0000 C   0  0  0  0  0  0  0  0  0  0  0  0
    3.7664   -3.3699    0.0000 C   0  0  0  0  0  0  0  0  0  0  0  0
    5.4315   -6.7794    0.0000 C   0  0  0  0  0  0  0  0  0  0  0  0
    6.7001   -6.1848    0.0000 C   0  0  0  0  0  0  0  0  0  0  0  0
    6.3830   -5.4315    0.0000 C   0  0  0  0  0  0  0  0  0  0  0  0
    5.0747   -6.0262    0.0000 C   0  0  0  0  0  0  0  0  0  0  0  0
    6.2641   -6.8587    0.0000 C   0  0  0  0  0  0  0  0  0  0  0  0
    4.2817   -1.1101    0.0000 C   0  0  0  0  0  0  0  0  0  0  0  0
    4.2817   -1.9427    0.0000 C   0  0  0  0  0  0  0  0  0  0  0  0
    4.9557   -7.4534    0.0000 C   0  0  0  0  0  0  0  0  0  0  0  0
    7.5724   -6.2641    0.0000 C   0  0  0  0  0  0  0  0  0  0  0  0
    4.9954   -0.7136    0.0000 C   0  0  0  0  0  0  0  0  0  0  0  0
    1.4272   -1.9427    0.0000 C   0  0  0  0  0  0  0  0  0  0  0  0
    3.5681   -0.7136    0.0000 C   0  0  0  0  0  0  0  0  0  0  0  0
    3.8060   -4.9954    0.0000 C   0  0  0  0  0  0  0  0  0  0  0  0
    2.1805   -3.1717    0.0000 C   0  0  0  0  0  0  0  0  0  0  0  0
    2.8942   -3.6078    0.0000 C   0  0  0  0  0  0  0  0  0  0  0  0
    1.4272   -1.1101    0.0000 C   0  0  0  0  0  0  0  0  0  0  0  0
    0.7136   -2.3391    0.0000 C   0  0  0  0  0  0  0  0  0  0  0  0
    0.7136   -0.7136    0.0000 C   0  0  0  0  0  0  0  0  0  0  0  0
    0.0000   -1.9427    0.0000 C   0  0  0  0  0  0  0  0  0  0  0  0
    3.7664   -2.5373    0.0000 C   0  0  0  0  0  0  0  0  0  0  0  0
    4.4404   -2.3391    0.0000 C   0  0  0  0  0  0  0  0  0  0  0  0
    3.6078   -1.5462    0.0000 C   0  0  0  0  0  0  0  0  0  0  0  0
    2.7752   -2.3391    0.0000 C   0  0  0  0  0  0  0  0  0  0  0  0
  1 32  1  0  0  0  0
  2 32  1  0  0  0  0
  3 32  1  0  0  0  0
  4 33  1  0  0  0  0
  5 33  1  0  0  0  0
  6 33  1  0  0  0  0
  7 34  1  0  0  0  0
  8 34  1  0  0  0  0
  9 34  1  0  0  0  0
 18 10  1  6  0  0  0
 10 21  1  0  0  0  0
 11 21  2  0  0  0  0
 12 39  1  0  0  0  0
 12 44  1  0  0  0  0
 13 42  1  0  0  0  0
 13 43  1  0  0  0  0
 14 39  2  0  0  0  0
 15 19  1  0  0  0  0
 15 21  1  0  0  0  0
 15 24  1  0  0  0  0
 16 23  1  0  0  0  0
 16 35  1  0  0  0  0
 16 38  1  0  0  0  0
 17 23  1  0  0  0  0
 17 36  2  0  0  0  0
 18 19  1  0  0  0  0
 18 20  1  0  0  0  0
 19 37  1  6  0  0  0
 20 27  2  0  0  0  0
 20 28  1  0  0  0  0
 22 23  2  0  0  0  0
 22 24  1  0  0  0  0
 22 31  1  0  0  0  0
 25 28  2  0  0  0  0
 25 29  1  0  0  0  0
 25 32  1  0  0  0  0
 26 27  1  0  0  0  0
 26 29  2  0  0  0  0
 26 33  1  0  0  0  0
 30 31  2  0  0  0  0
 30 34  1  0  0  0  0
 30 36  1  0  0  0  0
 35 40  1  0  0  0  0
 35 41  1  0  0  0  0
 38 39  1  0  0  0  0
 40 42  1  0  0  0  0
 41 43  1  0  0  0  0
 44 45  1  0  0  0  0
 44 46  1  0  0  0  0
 44 47  1  0  0  0  0
M  END
> <PUBCHEM_COMPOUND_ID_TYPE>
0

> <PUBCHEM_TOTAL_CHARGE>
0

> <PUBCHEM_SUBSTANCE_ID>
310937759

> <PUBCHEM_SUBSTANCE_VERSION>
1

> <PUBCHEM_EXT_DATASOURCE_NAME>
4488

> <PUBCHEM_EXT_DATASOURCE_REGID>
SCHEMBL16115567

> <PUBCHEM_SUBSTANCE_COMMENT>
InChI=1S/C30H32F9N3O5/c1-16-24(17-9-19(28(31,32)33)12-20(10-17)29(34,35)36)46-26(44)41(16)14-18-11-21(30(37,38)39)13-40-25(18)42(22-5-7-45-8-6-22)15-23(43)47-27(2,3)4/h9-13,16,22,24H,5-8,14-15H2,1-4H3/t16-,24-/m0/s1
InChIKey=AMVRMNFDQYTDAI-FYSMJZIKSA-N

> <PUBCHEM_SUBSTANCE_SYNONYM>
SCHEMBL16115567

> <PUBCHEM_XREF_EXT_ID>
SCHEMBL16115567

> <PUBCHEM_EXT_DATASOURCE_URL>
https://www.surechembl.org/

> <PUBCHEM_EXT_SUBSTANCE_URL>
https://www.surechembl.org/chemical/SCHEMBL16115567

> <PUBCHEM_CID_ASSOCIATIONS>
117605418  1

> <PUBCHEM_COORDINATE_TYPE>
1
3

> <PUBCHEM_BONDANNOTATIONS>
18  10  6
19  37  6

$$$$
