310932698
  -OEChem-07211613022D

 30 32  0     0  0  0  0  0  0999 V2000
    2.6032    0.0000    0.0000 F   0  0  0  0  0  0  0  0  0  0  0  0
    3.9915   -2.7420    0.0000 O   0  0  0  0  0  0  0  0  0  0  0  0
    8.4689   -2.8114    0.0000 O   0  0  0  0  0  0  0  0  0  0  0  0
    9.2326   -6.5253    0.0000 O   0  0  0  0  0  0  0  0  0  0  0  0
    4.8940   -1.5966    0.0000 N   0  0  0  0  0  0  0  0  0  0  0  0
    4.8245   -0.7636    0.0000 N   0  0  0  0  0  0  0  0  0  0  0  0
    6.3517   -1.5966    0.0000 N   0  0  0  0  0  0  0  0  0  0  0  0
    7.7748   -4.0610    0.0000 N   0  0  0  0  0  0  0  0  0  0  0  0
    0.0000   -2.4643    0.0000 N   0  0  0  0  0  0  0  0  0  0  0  0
    3.6097   -1.3190    0.0000 C   0  0  0  0  0  0  0  0  0  0  0  0
    4.1651   -1.9437    0.0000 C   0  0  0  0  0  0  0  0  0  0  0  0
    2.7767   -1.4231    0.0000 C   0  0  0  0  0  0  0  0  0  0  0  0
    5.6228   -2.0131    0.0000 C   0  0  0  0  0  0  0  0  0  0  0  0
    3.9915   -0.6247    0.0000 C   0  0  0  0  0  0  0  0  0  0  0  0
    2.2908   -0.7636    0.0000 C   0  0  0  0  0  0  0  0  0  0  0  0
    2.4643   -2.1867    0.0000 C   0  0  0  0  0  0  0  0  0  0  0  0
    5.6228   -2.8114    0.0000 C   0  0  0  0  0  0  0  0  0  0  0  0
    1.4578   -0.8677    0.0000 C   0  0  0  0  0  0  0  0  0  0  0  0
    7.0459   -2.8114    0.0000 C   0  0  0  0  0  0  0  0  0  0  0  0
    1.1454   -1.5966    0.0000 C   0  0  0  0  0  0  0  0  0  0  0  0
    1.6313   -2.2561    0.0000 C   0  0  0  0  0  0  0  0  0  0  0  0
    7.0459   -2.0131    0.0000 C   0  0  0  0  0  0  0  0  0  0  0  0
    6.3517   -3.2279    0.0000 C   0  0  0  0  0  0  0  0  0  0  0  0
    7.7748   -3.2279    0.0000 C   0  0  0  0  0  0  0  0  0  0  0  0
    4.6163   -3.2626    0.0000 C   0  0  0  0  0  0  0  0  0  0  0  0
    0.3124   -1.7008    0.0000 C   0  0  0  0  0  0  0  0  0  0  0  0
    8.5036   -4.4775    0.0000 C   0  0  0  0  0  0  0  0  0  0  0  0
    8.5036   -5.3104    0.0000 C   0  0  0  0  0  0  0  0  0  0  0  0
    9.1979   -5.6922    0.0000 C   0  0  0  0  0  0  0  0  0  0  0  0
    9.9267   -6.9418    0.0000 C   0  0  0  0  0  0  0  0  0  0  0  0
  1 15  1  0  0  0  0
  2 11  1  0  0  0  0
  2 25  1  0  0  0  0
  3 24  2  0  0  0  0
  4 29  1  0  0  0  0
  4 30  1  0  0  0  0
  5  6  1  0  0  0  0
  5 11  1  0  0  0  0
  5 13  1  0  0  0  0
  6 14  2  0  0  0  0
  7 13  2  0  0  0  0
  7 22  1  0  0  0  0
  8 24  1  0  0  0  0
  8 27  1  0  0  0  0
  9 26  3  0  0  0  0
 10 11  2  0  0  0  0
 10 12  1  0  0  0  0
 10 14  1  0  0  0  0
 12 15  1  0  0  0  0
 12 16  2  0  0  0  0
 13 17  1  0  0  0  0
 15 18  2  0  0  0  0
 16 21  1  0  0  0  0
 17 23  2  0  0  0  0
 18 20  1  0  0  0  0
 19 22  2  0  0  0  0
 19 23  1  0  0  0  0
 19 24  1  0  0  0  0
 20 21  2  0  0  0  0
 20 26  1  0  0  0  0
 27 28  1  0  0  0  0
 28 29  1  0  0  0  0
M  END
> <PUBCHEM_COMPOUND_ID_TYPE>
0

> <PUBCHEM_TOTAL_CHARGE>
0

> <PUBCHEM_SUBSTANCE_ID>
310932698

> <PUBCHEM_SUBSTANCE_VERSION>
1

> <PUBCHEM_EXT_DATASOURCE_NAME>
4488

> <PUBCHEM_EXT_DATASOURCE_REGID>
SCHEMBL16110080

> <PUBCHEM_SUBSTANCE_COMMENT>
InChI=1S/C21H20FN5O3/c1-29-9-3-8-24-20(28)15-5-7-19(25-12-15)27-21(30-2)17(13-26-27)16-6-4-14(11-23)10-18(16)22/h4-7,10,12-13H,3,8-9H2,1-2H3,(H,24,28)
InChIKey=KOFWVXARKBXMGM-UHFFFAOYSA-N

> <PUBCHEM_SUBSTANCE_SYNONYM>
SCHEMBL16110080

> <PUBCHEM_XREF_EXT_ID>
SCHEMBL16110080

> <PUBCHEM_EXT_DATASOURCE_URL>
https://www.surechembl.org/

> <PUBCHEM_EXT_SUBSTANCE_URL>
https://www.surechembl.org/chemical/SCHEMBL16110080

> <PUBCHEM_CID_ASSOCIATIONS>
117601207  1

> <PUBCHEM_COORDINATE_TYPE>
1
3

$$$$
