310940981
  -OEChem-07211613022D

 41 44  0     1  0  0  0  0  0999 V2000
    5.2178    0.9925    0.0000 O   0  0  0  0  0  0  0  0  0  0  0  0
    4.0835   -0.9784    0.0000 O   0  0  0  0  0  0  0  0  0  0  0  0
    1.7015    0.9784    0.0000 O   0  0  0  0  0  0  0  0  0  0  0  0
   -0.4679   -1.1060    0.0000 O   0  0  0  0  0  0  0  0  0  0  0  0
   -2.6373    0.9784    0.0000 O   0  0  0  0  0  0  0  0  0  0  0  0
    3.8708   -2.7790    0.0000 O   0  0  0  0  0  0  0  0  0  0  0  0
   -5.5155   -1.5171    0.0000 O   0  0  0  0  0  0  0  0  0  0  0  0
    2.4246   -0.2694    0.0000 N   0  0  0  0  0  0  0  0  0  0  0  0
    0.2553    0.1418    0.0000 N   0  0  0  0  0  0  0  0  0  0  0  0
   -1.9000   -0.2694    0.0000 N   0  0  0  0  0  0  0  0  0  0  0  0
   -4.7924   -0.2694    0.0000 N   0  0  0  0  0  0  0  0  0  0  0  0
    4.7924    0.3119    0.0000 C   0  0  3  0  0  0  0  0  0  0  0  0
    4.0835   -0.1134    0.0000 C   0  0  0  0  0  0  0  0  0  0  0  0
    4.4238    1.0067    0.0000 C   0  0  0  0  0  0  0  0  0  0  0  0
    3.3604    0.2978    0.0000 C   0  0  3  0  0  0  0  0  0  0  0  0
    5.5155   -0.1134    0.0000 C   0  0  0  0  0  0  0  0  0  0  0  0
    3.3604    1.3754    0.0000 C   0  0  0  0  0  0  0  0  0  0  0  0
    1.7015    0.1418    0.0000 C   0  0  0  0  0  0  0  0  0  0  0  0
    0.9925   -0.2410    0.0000 C   0  0  3  0  0  0  0  0  0  0  0  0
    2.6373    1.8007    0.0000 C   0  0  0  0  0  0  0  0  0  0  0  0
    0.9784   -1.1060    0.0000 C   0  0  0  0  0  0  0  0  0  0  0  0
   -0.4537   -0.2268    0.0000 C   0  0  0  0  0  0  0  0  0  0  0  0
    1.7156   -1.4888    0.0000 C   0  0  0  0  0  0  0  0  0  0  0  0
    1.8858    1.4604    0.0000 C   0  0  0  0  0  0  0  0  0  0  0  0
    2.5522    2.6089    0.0000 C   0  0  0  0  0  0  0  0  0  0  0  0
   -1.1769    0.1702    0.0000 C   0  0  3  0  0  0  0  0  0  0  0  0
   -2.6089    0.1560    0.0000 C   0  0  0  0  0  0  0  0  0  0  0  0
   -3.3320   -0.2410    0.0000 C   0  0  3  0  0  0  0  0  0  0  0  0
    1.3470    2.0559    0.0000 C   0  0  0  0  0  0  0  0  0  0  0  0
    1.7440    2.7790    0.0000 C   0  0  0  0  0  0  0  0  0  0  0  0
    1.7298   -2.3395    0.0000 C   0  0  0  0  0  0  0  0  0  0  0  0
    2.4246   -1.1060    0.0000 C   0  0  0  0  0  0  0  0  0  0  0  0
    3.1335   -2.3253    0.0000 C   0  0  0  0  0  0  0  0  0  0  0  0
    2.4246   -2.7365    0.0000 C   0  0  0  0  0  0  0  0  0  0  0  0
    3.1477   -1.5030    0.0000 C   0  0  0  0  0  0  0  0  0  0  0  0
   -4.0977    0.1560    0.0000 C   0  0  0  0  0  0  0  0  0  0  0  0
   -3.3462   -1.0776    0.0000 C   0  0  0  0  0  0  0  0  0  0  0  0
   -1.1769    0.9784    0.0000 C   0  0  0  0  0  0  0  0  0  0  0  0
   -4.7783   -1.0776    0.0000 C   0  0  0  0  0  0  0  0  0  0  0  0
   -4.0551   -1.4888    0.0000 C   0  0  0  0  0  0  0  0  0  0  0  0
    4.6223   -2.3253    0.0000 C   0  0  0  0  0  0  0  0  0  0  0  0
  1 12  1  0  0  0  0
  1 14  1  0  0  0  0
  2 13  2  0  0  0  0
  3 18  2  0  0  0  0
  4 22  2  0  0  0  0
  5 27  2  0  0  0  0
  6 33  1  0  0  0  0
  6 41  1  0  0  0  0
  7 39  2  0  0  0  0
 15  8  1  1  0  0  0
  8 18  1  0  0  0  0
 19  9  1  6  0  0  0
  9 22  1  0  0  0  0
 10 26  1  0  0  0  0
 10 27  1  0  0  0  0
 11 36  1  0  0  0  0
 11 39  1  0  0  0  0
 12 13  1  1  0  0  0
 12 14  1  0  0  0  0
 12 16  1  6  0  0  0
 13 15  1  0  0  0  0
 15 17  1  0  0  0  0
 17 20  1  0  0  0  0
 18 19  1  0  0  0  0
 19 21  1  0  0  0  0
 20 24  1  0  0  0  0
 20 25  1  0  0  0  0
 21 23  1  0  0  0  0
 22 26  1  0  0  0  0
 23 31  2  0  0  0  0
 23 32  1  0  0  0  0
 24 29  1  0  0  0  0
 25 30  1  0  0  0  0
 26 38  1  6  0  0  0
 28 27  1  1  0  0  0
 28 36  1  0  0  0  0
 28 37  1  0  0  0  0
 29 30  1  0  0  0  0
 31 34  1  0  0  0  0
 32 35  2  0  0  0  0
 33 34  2  0  0  0  0
 33 35  1  0  0  0  0
 37 40  1  0  0  0  0
 39 40  1  0  0  0  0
M  END
> <PUBCHEM_COMPOUND_ID_TYPE>
0

> <PUBCHEM_TOTAL_CHARGE>
0

> <PUBCHEM_SUBSTANCE_ID>
310940981

> <PUBCHEM_SUBSTANCE_VERSION>
1

> <PUBCHEM_EXT_DATASOURCE_NAME>
4488

> <PUBCHEM_EXT_DATASOURCE_REGID>
SCHEMBL16118940

> <PUBCHEM_SUBSTANCE_COMMENT>
InChI=1S/C30H42N4O7/c1-18(32-28(38)21-10-13-25(35)31-16-21)27(37)34-24(15-20-8-11-22(40-3)12-9-20)29(39)33-23(14-19-6-4-5-7-19)26(36)30(2)17-41-30/h8-9,11-12,18-19,21,23-24H,4-7,10,13-17H2,1-3H3,(H,31,35)(H,32,38)(H,33,39)(H,34,37)/t18-,21+,23+,24+,30-/m1/s1
InChIKey=RKPFVMJLWKSSON-XUNDOJSBSA-N

> <PUBCHEM_SUBSTANCE_SYNONYM>
SCHEMBL16118940

> <PUBCHEM_XREF_EXT_ID>
SCHEMBL16118940

> <PUBCHEM_EXT_DATASOURCE_URL>
https://www.surechembl.org/

> <PUBCHEM_EXT_SUBSTANCE_URL>
https://www.surechembl.org/chemical/SCHEMBL16118940

> <PUBCHEM_CID_ASSOCIATIONS>
117607887  1

> <PUBCHEM_COORDINATE_TYPE>
1
3

> <PUBCHEM_BONDANNOTATIONS>
12  13  5
12  16  6
26  38  6
28  27  5
15  8  5
19  9  6

$$$$
