310945312
  -OEChem-07211613022D

 29 32  0     1  0  0  0  0  0999 V2000
    1.1835   -1.4781    0.0000 S   0  0  0  0  0  0  0  0  0  0  0  0
    2.7059   -2.1068    0.0000 O   0  0  0  0  0  0  0  0  0  0  0  0
   -0.8889    1.6157    0.0000 O   0  0  0  0  0  0  0  0  0  0  0  0
   -2.2050   -1.4487    0.0000 O   0  0  0  0  0  0  0  0  0  0  0  0
   -4.2381    1.4193    0.0000 O   0  0  0  0  0  0  0  0  0  0  0  0
    2.0577    0.4764    0.0000 N   0  0  0  0  0  0  0  0  0  0  0  0
    3.3443   -0.8594    0.0000 N   0  0  0  0  0  0  0  0  0  0  0  0
   -1.9496    0.6727    0.0000 N   0  0  0  0  0  0  0  0  0  0  0  0
   -3.6487    0.1228    0.0000 N   0  0  0  0  0  0  0  0  0  0  0  0
    0.7710   -0.2013    0.0000 C   0  0  0  0  0  0  0  0  0  0  0  0
    1.5961   -0.2210    0.0000 C   0  0  0  0  0  0  0  0  0  0  0  0
    1.8514   -0.9871    0.0000 C   0  0  0  0  0  0  0  0  0  0  0  0
    0.5058   -0.9871    0.0000 C   0  0  0  0  0  0  0  0  0  0  0  0
    0.2308    0.3879    0.0000 C   0  0  0  0  0  0  0  0  0  0  0  0
   -0.5844    0.2210    0.0000 C   0  0  0  0  0  0  0  0  0  0  0  0
    2.6371   -1.2719    0.0000 C   0  0  0  0  0  0  0  0  0  0  0  0
   -0.2799   -1.1638    0.0000 C   0  0  0  0  0  0  0  0  0  0  0  0
   -0.8299   -0.5549    0.0000 C   0  0  0  0  0  0  0  0  0  0  0  0
   -1.1442    0.8299    0.0000 C   0  0  0  0  0  0  0  0  0  0  0  0
    2.8532    0.5451    0.0000 C   0  0  0  0  0  0  0  0  0  0  0  0
    3.4523   -0.0343    0.0000 C   0  0  3  0  0  0  0  0  0  0  0  0
   -2.2050   -0.1130    0.0000 C   0  0  3  0  0  0  0  0  0  0  0  0
   -2.9809   -0.3585    0.0000 C   0  0  3  0  0  0  0  0  0  0  0  0
   -1.7237   -0.7907    0.0000 C   0  0  0  0  0  0  0  0  0  0  0  0
   -2.9809   -1.1835    0.0000 C   0  0  0  0  0  0  0  0  0  0  0  0
    4.2381    0.2013    0.0000 C   0  0  0  0  0  0  0  0  0  0  0  0
   -3.5604    0.9282    0.0000 C   0  0  0  0  0  0  0  0  0  0  0  0
   -2.8237    1.2621    0.0000 C   0  0  0  0  0  0  0  0  0  0  0  0
   -2.7844    2.1068    0.0000 C   0  0  0  0  0  0  0  0  0  0  0  0
  1 12  1  0  0  0  0
  1 13  1  0  0  0  0
  2 16  2  0  0  0  0
  3 19  2  0  0  0  0
  4 24  1  0  0  0  0
  4 25  1  0  0  0  0
  5 27  2  0  0  0  0
  6 11  1  0  0  0  0
  6 20  1  0  0  0  0
  7 16  1  0  0  0  0
  7 21  1  0  0  0  0
  8 19  1  0  0  0  0
  8 22  1  0  0  0  0
  9 23  1  0  0  0  0
  9 27  1  0  0  0  0
 10 11  1  0  0  0  0
 10 13  1  0  0  0  0
 10 14  2  0  0  0  0
 11 12  2  0  0  0  0
 12 16  1  0  0  0  0
 13 17  2  0  0  0  0
 14 15  1  0  0  0  0
 15 18  2  0  0  0  0
 15 19  1  0  0  0  0
 17 18  1  0  0  0  0
 20 21  1  0  0  0  0
 21 26  1  1  0  0  0
 22 23  1  0  0  0  0
 22 24  1  0  0  0  0
 23 25  1  0  0  0  0
 27 28  1  0  0  0  0
 28 29  2  0  0  0  0
M  END
> <PUBCHEM_COMPOUND_ID_TYPE>
0

> <PUBCHEM_TOTAL_CHARGE>
0

> <PUBCHEM_SUBSTANCE_ID>
310945312

> <PUBCHEM_SUBSTANCE_VERSION>
1

> <PUBCHEM_EXT_DATASOURCE_NAME>
4488

> <PUBCHEM_EXT_DATASOURCE_REGID>
SCHEMBL16123410

> <PUBCHEM_SUBSTANCE_COMMENT>
InChI=1S/C20H22N4O4S/c1-3-16(25)23-13-8-28-9-14(13)24-19(26)11-4-5-15-12(6-11)17-18(29-15)20(27)22-10(2)7-21-17/h3-6,10,13-14,21H,1,7-9H2,2H3,(H,22,27)(H,23,25)(H,24,26)/t10-,13?,14?/m1/s1
InChIKey=PUMVZFFETWAVMF-GWMXKSKGSA-N

> <PUBCHEM_SUBSTANCE_SYNONYM>
SCHEMBL16123410

> <PUBCHEM_XREF_EXT_ID>
SCHEMBL16123410

> <PUBCHEM_EXT_DATASOURCE_URL>
https://www.surechembl.org/

> <PUBCHEM_EXT_SUBSTANCE_URL>
https://www.surechembl.org/chemical/SCHEMBL16123410

> <PUBCHEM_CID_ASSOCIATIONS>
117611370  1

> <PUBCHEM_COORDINATE_TYPE>
1
3

> <PUBCHEM_BONDANNOTATIONS>
21  26  5

$$$$
