310941562
  -OEChem-07211613022D

 13 14  0     0  0  0  0  0  0999 V2000
    2.1397    0.0095    0.0000 Br  0  0  0  0  0  0  0  0  0  0  0  0
   -2.1397   -0.6912    0.0000 Cl  0  0  0  0  0  0  0  0  0  0  0  0
   -0.0757   -0.6912    0.0000 O   0  0  0  0  0  0  0  0  0  0  0  0
    1.1929   -1.4485    0.0000 O   0  0  0  0  0  0  0  0  0  0  0  0
   -0.5112    0.0284    0.0000 C   0  0  0  0  0  0  0  0  0  0  0  0
   -0.1136    0.7479    0.0000 C   0  0  0  0  0  0  0  0  0  0  0  0
    0.7195   -0.7101    0.0000 C   0  0  0  0  0  0  0  0  0  0  0  0
    1.1740    0.0284    0.0000 C   0  0  0  0  0  0  0  0  0  0  0  0
   -1.3634    0.0284    0.0000 C   0  0  0  0  0  0  0  0  0  0  0  0
    0.7384    0.7290    0.0000 C   0  0  0  0  0  0  0  0  0  0  0  0
   -0.5112    1.4485    0.0000 C   0  0  0  0  0  0  0  0  0  0  0  0
   -1.7421    0.7479    0.0000 C   0  0  0  0  0  0  0  0  0  0  0  0
   -1.3634    1.4485    0.0000 C   0  0  0  0  0  0  0  0  0  0  0  0
  1  8  1  0  0  0  0
  2  9  1  0  0  0  0
  3  5  1  0  0  0  0
  3  7  1  0  0  0  0
  4  7  2  0  0  0  0
  5  6  1  0  0  0  0
  5  9  2  0  0  0  0
  6 10  1  0  0  0  0
  6 11  2  0  0  0  0
  7  8  1  0  0  0  0
  8 10  2  0  0  0  0
  9 12  1  0  0  0  0
 11 13  1  0  0  0  0
 12 13  2  0  0  0  0
M  END
> <PUBCHEM_COMPOUND_ID_TYPE>
0

> <PUBCHEM_TOTAL_CHARGE>
0

> <PUBCHEM_SUBSTANCE_ID>
310941562

> <PUBCHEM_SUBSTANCE_VERSION>
1

> <PUBCHEM_EXT_DATASOURCE_NAME>
4488

> <PUBCHEM_EXT_DATASOURCE_REGID>
SCHEMBL16119593

> <PUBCHEM_SUBSTANCE_COMMENT>
InChI=1S/C9H4BrClO2/c10-6-4-5-2-1-3-7(11)8(5)13-9(6)12/h1-4H
InChIKey=PNBYETFKGWNJAL-UHFFFAOYSA-N

> <PUBCHEM_SUBSTANCE_SYNONYM>
SCHEMBL16119593

> <PUBCHEM_XREF_EXT_ID>
SCHEMBL16119593

> <PUBCHEM_EXT_DATASOURCE_URL>
https://www.surechembl.org/

> <PUBCHEM_EXT_SUBSTANCE_URL>
https://www.surechembl.org/chemical/SCHEMBL16119593

> <PUBCHEM_CID_ASSOCIATIONS>
91245554  1

> <PUBCHEM_COORDINATE_TYPE>
1
3

$$$$
