310932938
  -OEChem-07211613022D

 28 31  0     1  0  0  0  0  0999 V2000
    2.4990   -0.7289    0.0000 O   0  0  0  0  0  0  0  0  0  0  0  0
    6.2475   -3.8873    0.0000 N   0  0  0  0  0  0  0  0  0  0  0  0
    6.1781   -3.0890    0.0000 N   0  0  0  0  0  0  0  0  0  0  0  0
    3.7138   -2.9155    0.0000 N   0  0  0  0  0  0  0  0  0  0  0  0
    3.7138   -1.4578    0.0000 N   0  0  0  0  0  0  0  0  0  0  0  0
    4.4080   -6.1087    0.0000 N   0  0  0  0  0  0  0  0  0  0  0  0
    4.9980   -6.6293    0.0000 N   0  0  0  0  0  0  0  0  0  0  0  0
    2.4990   -2.1520    0.0000 N   0  0  0  0  0  0  0  0  0  0  0  0
    4.9286   -3.6444    0.0000 C   0  0  0  0  0  0  0  0  0  0  0  0
    5.5187   -4.2344    0.0000 C   0  0  0  0  0  0  0  0  0  0  0  0
    5.3798   -2.8808    0.0000 C   0  0  0  0  0  0  0  0  0  0  0  0
    5.3451   -5.0327    0.0000 C   0  0  0  0  0  0  0  0  0  0  0  0
    4.9286   -2.1866    0.0000 C   0  0  0  0  0  0  0  0  0  0  0  0
    4.1303   -3.6097    0.0000 C   0  0  0  0  0  0  0  0  0  0  0  0
    4.1303   -2.1866    0.0000 C   0  0  0  0  0  0  0  0  0  0  0  0
    5.9699   -5.5533    0.0000 C   0  0  0  0  0  0  0  0  0  0  0  0
    4.5468   -5.2757    0.0000 C   0  0  0  0  0  0  0  0  0  0  0  0
    5.8310   -6.3864    0.0000 C   0  0  0  0  0  0  0  0  0  0  0  0
    2.9155   -1.4578    0.0000 C   0  0  0  0  0  0  0  0  0  0  0  0
    1.6660   -2.1520    0.0000 C   0  0  3  0  0  0  0  0  0  0  0  0
    1.2495   -1.4578    0.0000 C   0  0  0  0  0  0  0  0  0  0  0  0
    6.4211   -6.9417    0.0000 C   0  0  0  0  0  0  0  0  0  0  0  0
    0.4165   -1.4231    0.0000 C   0  0  0  0  0  0  0  0  0  0  0  0
    1.6313   -0.7289    0.0000 C   0  0  0  0  0  0  0  0  0  0  0  0
    1.2495   -2.8808    0.0000 C   0  0  0  0  0  0  0  0  0  0  0  0
    0.0000   -0.7289    0.0000 C   0  0  0  0  0  0  0  0  0  0  0  0
    1.2495    0.0000    0.0000 C   0  0  0  0  0  0  0  0  0  0  0  0
    0.4165    0.0000    0.0000 C   0  0  0  0  0  0  0  0  0  0  0  0
  1 19  2  0  0  0  0
  2  3  1  0  0  0  0
  2 10  2  0  0  0  0
  3 11  1  0  0  0  0
  4 14  1  0  0  0  0
  4 15  2  0  0  0  0
  5 15  1  0  0  0  0
  5 19  1  0  0  0  0
  6  7  2  0  0  0  0
  6 17  1  0  0  0  0
  7 18  1  0  0  0  0
  8 19  1  0  0  0  0
  8 20  1  0  0  0  0
  9 10  1  0  0  0  0
  9 11  1  0  0  0  0
  9 14  2  0  0  0  0
 10 12  1  0  0  0  0
 11 13  2  0  0  0  0
 12 16  1  0  0  0  0
 12 17  2  0  0  0  0
 13 15  1  0  0  0  0
 16 18  2  0  0  0  0
 18 22  1  0  0  0  0
 20 21  1  0  0  0  0
 20 25  1  6  0  0  0
 21 23  2  0  0  0  0
 21 24  1  0  0  0  0
 23 26  1  0  0  0  0
 24 27  2  0  0  0  0
 26 28  2  0  0  0  0
 27 28  1  0  0  0  0
M  END
> <PUBCHEM_COMPOUND_ID_TYPE>
0

> <PUBCHEM_TOTAL_CHARGE>
0

> <PUBCHEM_SUBSTANCE_ID>
310932938

> <PUBCHEM_SUBSTANCE_VERSION>
1

> <PUBCHEM_EXT_DATASOURCE_NAME>
4488

> <PUBCHEM_EXT_DATASOURCE_REGID>
SCHEMBL16110333

> <PUBCHEM_SUBSTANCE_COMMENT>
InChI=1S/C20H19N7O/c1-12-8-15(10-22-25-12)19-16-11-21-18(9-17(16)26-27-19)24-20(28)23-13(2)14-6-4-3-5-7-14/h3-11,13H,1-2H3,(H,26,27)(H2,21,23,24,28)/t13-/m1/s1
InChIKey=YPOJJEWDQGHDGY-CYBMUJFWSA-N

> <PUBCHEM_SUBSTANCE_SYNONYM>
SCHEMBL16110333

> <PUBCHEM_XREF_EXT_ID>
SCHEMBL16110333

> <PUBCHEM_EXT_DATASOURCE_URL>
https://www.surechembl.org/

> <PUBCHEM_EXT_SUBSTANCE_URL>
https://www.surechembl.org/chemical/SCHEMBL16110333

> <PUBCHEM_CID_ASSOCIATIONS>
92044553  1

> <PUBCHEM_COORDINATE_TYPE>
1
3

> <PUBCHEM_BONDANNOTATIONS>
20  25  6

$$$$
