310932185
  -OEChem-07211613022D

 31 34  0     1  0  0  0  0  0999 V2000
    4.8262   -7.4661    0.0000 S   0  0  0  0  0  0  0  0  0  0  0  0
    4.0012   -7.3011    0.0000 O   0  0  0  0  0  0  0  0  0  0  0  0
    5.6511   -7.6312    0.0000 O   0  0  0  0  0  0  0  0  0  0  0  0
    2.4749   -0.7425    0.0000 O   0  0  0  0  0  0  0  0  0  0  0  0
    6.2699   -3.8774    0.0000 N   0  0  0  0  0  0  0  0  0  0  0  0
    6.1874   -3.0525    0.0000 N   0  0  0  0  0  0  0  0  0  0  0  0
    3.7124   -2.9287    0.0000 N   0  0  0  0  0  0  0  0  0  0  0  0
    3.7124   -1.4437    0.0000 N   0  0  0  0  0  0  0  0  0  0  0  0
    2.4749   -2.1450    0.0000 N   0  0  0  0  0  0  0  0  0  0  0  0
    4.9499   -3.6300    0.0000 C   0  0  0  0  0  0  0  0  0  0  0  0
    5.5274   -4.2074    0.0000 C   0  0  0  0  0  0  0  0  0  0  0  0
    5.3624   -2.8874    0.0000 C   0  0  0  0  0  0  0  0  0  0  0  0
    5.3624   -5.0324    0.0000 C   0  0  0  0  0  0  0  0  0  0  0  0
    4.1249   -3.5887    0.0000 C   0  0  0  0  0  0  0  0  0  0  0  0
    4.9499   -2.1862    0.0000 C   0  0  0  0  0  0  0  0  0  0  0  0
    4.1249   -2.1862    0.0000 C   0  0  0  0  0  0  0  0  0  0  0  0
    4.9912   -6.6412    0.0000 C   0  0  0  0  0  0  0  0  0  0  0  0
    5.9812   -5.5687    0.0000 C   0  0  0  0  0  0  0  0  0  0  0  0
    4.5787   -5.2800    0.0000 C   0  0  0  0  0  0  0  0  0  0  0  0
    5.8162   -6.3937    0.0000 C   0  0  0  0  0  0  0  0  0  0  0  0
    4.3725   -6.0636    0.0000 C   0  0  0  0  0  0  0  0  0  0  0  0
    2.8874   -1.4437    0.0000 C   0  0  0  0  0  0  0  0  0  0  0  0
    4.6612   -8.2499    0.0000 C   0  0  0  0  0  0  0  0  0  0  0  0
    1.6500   -2.1450    0.0000 C   0  0  3  0  0  0  0  0  0  0  0  0
    1.2375   -1.4437    0.0000 C   0  0  0  0  0  0  0  0  0  0  0  0
    0.4125   -1.4437    0.0000 C   0  0  0  0  0  0  0  0  0  0  0  0
    1.6500   -0.7013    0.0000 C   0  0  0  0  0  0  0  0  0  0  0  0
    1.2375   -2.8874    0.0000 C   0  0  0  0  0  0  0  0  0  0  0  0
    0.0000   -0.7013    0.0000 C   0  0  0  0  0  0  0  0  0  0  0  0
    1.2375    0.0000    0.0000 C   0  0  0  0  0  0  0  0  0  0  0  0
    0.4125    0.0000    0.0000 C   0  0  0  0  0  0  0  0  0  0  0  0
  1  2  2  0  0  0  0
  1  3  2  0  0  0  0
  1 17  1  0  0  0  0
  1 23  1  0  0  0  0
  4 22  2  0  0  0  0
  5  6  1  0  0  0  0
  5 11  2  0  0  0  0
  6 12  1  0  0  0  0
  7 14  1  0  0  0  0
  7 16  2  0  0  0  0
  8 16  1  0  0  0  0
  8 22  1  0  0  0  0
  9 22  1  0  0  0  0
  9 24  1  0  0  0  0
 10 11  1  0  0  0  0
 10 12  1  0  0  0  0
 10 14  2  0  0  0  0
 11 13  1  0  0  0  0
 12 15  2  0  0  0  0
 13 18  2  0  0  0  0
 13 19  1  0  0  0  0
 15 16  1  0  0  0  0
 17 20  2  0  0  0  0
 17 21  1  0  0  0  0
 18 20  1  0  0  0  0
 19 21  2  0  0  0  0
 24 25  1  0  0  0  0
 24 28  1  6  0  0  0
 25 26  2  0  0  0  0
 25 27  1  0  0  0  0
 26 29  1  0  0  0  0
 27 30  2  0  0  0  0
 29 31  2  0  0  0  0
 30 31  1  0  0  0  0
M  END
> <PUBCHEM_COMPOUND_ID_TYPE>
0

> <PUBCHEM_TOTAL_CHARGE>
0

> <PUBCHEM_SUBSTANCE_ID>
310932185

> <PUBCHEM_SUBSTANCE_VERSION>
1

> <PUBCHEM_EXT_DATASOURCE_NAME>
4488

> <PUBCHEM_EXT_DATASOURCE_REGID>
SCHEMBL16109540

> <PUBCHEM_SUBSTANCE_COMMENT>
InChI=1S/C22H21N5O3S/c1-14(15-6-4-3-5-7-15)24-22(28)25-20-12-19-18(13-23-20)21(27-26-19)16-8-10-17(11-9-16)31(2,29)30/h3-14H,1-2H3,(H,26,27)(H2,23,24,25,28)/t14-/m1/s1
InChIKey=DYXJSSYWNFPNKU-CQSZACIVSA-N

> <PUBCHEM_SUBSTANCE_SYNONYM>
SCHEMBL16109540

> <PUBCHEM_XREF_EXT_ID>
SCHEMBL16109540

> <PUBCHEM_EXT_DATASOURCE_URL>
https://www.surechembl.org/

> <PUBCHEM_EXT_SUBSTANCE_URL>
https://www.surechembl.org/chemical/SCHEMBL16109540

> <PUBCHEM_CID_ASSOCIATIONS>
92044551  1

> <PUBCHEM_COORDINATE_TYPE>
1
3

> <PUBCHEM_BONDANNOTATIONS>
24  28  6

$$$$
