310943788
  -OEChem-07211613022D

 17 18  0     0  0  0  0  0  0999 V2000
    0.8701   -1.0891    0.0000 O   0  0  0  0  0  0  0  0  0  0  0  0
    2.0603   -0.1684    0.0000 O   0  0  0  0  0  0  0  0  0  0  0  0
    2.3634    0.5389    0.0000 O   0  0  0  0  0  0  0  0  0  0  0  0
   -1.3866    0.8870    0.0000 N   0  0  0  0  0  0  0  0  0  0  0  0
   -0.2301    1.7178    0.0000 N   0  0  0  0  0  0  0  0  0  0  0  0
   -1.9367    1.5045    0.0000 N   0  0  0  0  0  0  0  0  0  0  0  0
   -2.6890    1.1677    0.0000 N   0  0  0  0  0  0  0  0  0  0  0  0
   -2.6104    0.3481    0.0000 N   0  0  0  0  0  0  0  0  0  0  0  0
   -0.5670    0.9544    0.0000 C   0  0  0  0  0  0  0  0  0  0  0  0
    0.7354    0.3705    0.0000 C   0  0  0  0  0  0  0  0  0  0  0  0
    1.0610    1.1340    0.0000 C   0  0  0  0  0  0  0  0  0  0  0  0
   -0.0954    0.3031    0.0000 C   0  0  0  0  0  0  0  0  0  0  0  0
    1.2182   -0.2919    0.0000 C   0  0  0  0  0  0  0  0  0  0  0  0
    0.5895    1.7964    0.0000 C   0  0  0  0  0  0  0  0  0  0  0  0
   -1.8021    0.1796    0.0000 C   0  0  0  0  0  0  0  0  0  0  0  0
    2.6890    1.2912    0.0000 C   0  0  0  0  0  0  0  0  0  0  0  0
    1.3978   -1.7964    0.0000 C   0  0  0  0  0  0  0  0  0  0  0  0
  1 13  1  0  0  0  0
  1 17  1  0  0  0  0
  2 13  2  0  0  0  0
  3 16  1  0  0  0  0
  4  6  1  0  0  0  0
  4  9  1  0  0  0  0
  4 15  1  0  0  0  0
  5  9  2  0  0  0  0
  5 14  1  0  0  0  0
  6  7  2  0  0  0  0
  7  8  1  0  0  0  0
  8 15  2  0  0  0  0
  9 12  1  0  0  0  0
 10 11  1  0  0  0  0
 10 12  2  0  0  0  0
 10 13  1  0  0  0  0
 11 14  2  0  0  0  0
 11 16  1  0  0  0  0
M  END
> <PUBCHEM_COMPOUND_ID_TYPE>
0

> <PUBCHEM_TOTAL_CHARGE>
0

> <PUBCHEM_SUBSTANCE_ID>
310943788

> <PUBCHEM_SUBSTANCE_VERSION>
1

> <PUBCHEM_EXT_DATASOURCE_NAME>
4488

> <PUBCHEM_EXT_DATASOURCE_REGID>
SCHEMBL16121858

> <PUBCHEM_SUBSTANCE_COMMENT>
InChI=1S/C9H9N5O3/c1-17-9(16)7-2-8(10-3-6(7)4-15)14-5-11-12-13-14/h2-3,5,15H,4H2,1H3
InChIKey=UMHYBVYBZYHSLZ-UHFFFAOYSA-N

> <PUBCHEM_SUBSTANCE_SYNONYM>
SCHEMBL16121858

> <PUBCHEM_XREF_EXT_ID>
SCHEMBL16121858

> <PUBCHEM_EXT_DATASOURCE_URL>
https://www.surechembl.org/

> <PUBCHEM_EXT_SUBSTANCE_URL>
https://www.surechembl.org/chemical/SCHEMBL16121858

> <PUBCHEM_CID_ASSOCIATIONS>
117610147  1

> <PUBCHEM_COORDINATE_TYPE>
1
3

$$$$
