310930168
  -OEChem-07211613022D

 26 30  0     0  0  0  0  0  0999 V2000
    2.9895   -0.2322    0.0000 O   0  0  0  0  0  0  0  0  0  0  0  0
    4.8761   -3.8022    0.0000 O   0  0  0  0  0  0  0  0  0  0  0  0
    0.0290   -1.5964    0.0000 O   0  0  0  0  0  0  0  0  0  0  0  0
    4.7019   -1.6253    0.0000 N   0  0  0  0  0  0  0  0  0  0  0  0
    4.4988   -2.4380    0.0000 N   0  0  0  0  0  0  0  0  0  0  0  0
    5.5436   -0.5805    0.0000 N   0  0  0  0  0  0  0  0  0  0  0  0
    6.8207   -5.8048    0.0000 N   0  0  0  0  0  0  0  0  0  0  0  0
    4.2666   -0.9578    0.0000 C   0  0  0  0  0  0  0  0  0  0  0  0
    3.4539   -0.8998    0.0000 C   0  0  0  0  0  0  0  0  0  0  0  0
    5.5146   -1.3931    0.0000 C   0  0  0  0  0  0  0  0  0  0  0  0
    2.1478   -1.2771    0.0000 C   0  0  0  0  0  0  0  0  0  0  0  0
    2.2059   -0.4064    0.0000 C   0  0  0  0  0  0  0  0  0  0  0  0
    2.9315   -1.5383    0.0000 C   0  0  0  0  0  0  0  0  0  0  0  0
    4.7890   -0.2902    0.0000 C   0  0  0  0  0  0  0  0  0  0  0  0
    5.0792   -2.9895    0.0000 C   0  0  0  0  0  0  0  0  0  0  0  0
    6.0951   -2.0027    0.0000 C   0  0  0  0  0  0  0  0  0  0  0  0
    5.8919   -2.7573    0.0000 C   0  0  0  0  0  0  0  0  0  0  0  0
    1.4222   -1.6544    0.0000 C   0  0  0  0  0  0  0  0  0  0  0  0
    1.4802    0.0000    0.0000 C   0  0  0  0  0  0  0  0  0  0  0  0
    0.7546   -1.2190    0.0000 C   0  0  0  0  0  0  0  0  0  0  0  0
    5.4565   -4.3826    0.0000 C   0  0  0  0  0  0  0  0  0  0  0  0
    0.7837   -0.3483    0.0000 C   0  0  0  0  0  0  0  0  0  0  0  0
    5.4565   -5.2243    0.0000 C   0  0  0  0  0  0  0  0  0  0  0  0
    6.2692   -4.3826    0.0000 C   0  0  0  0  0  0  0  0  0  0  0  0
    6.2402   -5.2243    0.0000 C   0  0  0  0  0  0  0  0  0  0  0  0
    0.0000   -2.4090    0.0000 C   0  0  0  0  0  0  0  0  0  0  0  0
  1  9  1  0  0  0  0
  1 12  1  0  0  0  0
  2 15  1  0  0  0  0
 21  2  1  1  0  0  0
  3 20  1  0  0  0  0
  3 26  1  0  0  0  0
  4  5  1  0  0  0  0
  4  8  1  0  0  0  0
  4 10  1  0  0  0  0
  5 15  2  0  0  0  0
  6 10  2  0  0  0  0
  6 14  1  0  0  0  0
 25  7  1  6  0  0  0
  8  9  1  0  0  0  0
  8 14  2  0  0  0  0
  9 13  2  0  0  0  0
 10 16  1  0  0  0  0
 11 12  2  0  0  0  0
 11 13  1  0  0  0  0
 11 18  1  0  0  0  0
 12 19  1  0  0  0  0
 15 17  1  0  0  0  0
 16 17  2  0  0  0  0
 18 20  2  0  0  0  0
 19 22  2  0  0  0  0
 20 22  1  0  0  0  0
 21 23  1  0  0  0  0
 21 24  1  0  0  0  0
 23 25  1  0  0  0  0
 24 25  1  0  0  0  0
M  END
> <PUBCHEM_COMPOUND_ID_TYPE>
0

> <PUBCHEM_TOTAL_CHARGE>
0

> <PUBCHEM_SUBSTANCE_ID>
310930168

> <PUBCHEM_SUBSTANCE_VERSION>
1

> <PUBCHEM_EXT_DATASOURCE_NAME>
4488

> <PUBCHEM_EXT_DATASOURCE_REGID>
SCHEMBL16107428

> <PUBCHEM_SUBSTANCE_COMMENT>
InChI=1S/C19H18N4O3/c1-24-13-2-3-16-11(6-13)7-17(26-16)15-10-21-18-4-5-19(22-23(15)18)25-14-8-12(20)9-14/h2-7,10,12,14H,8-9,20H2,1H3/t12-,14-
InChIKey=BTQWZDHVYFAXAO-MQMHXKEQSA-N

> <PUBCHEM_SUBSTANCE_SYNONYM>
SCHEMBL16107428

> <PUBCHEM_XREF_EXT_ID>
SCHEMBL16107428

> <PUBCHEM_EXT_DATASOURCE_URL>
https://www.surechembl.org/

> <PUBCHEM_EXT_SUBSTANCE_URL>
https://www.surechembl.org/chemical/SCHEMBL16107428

> <PUBCHEM_CID_ASSOCIATIONS>
71509282  1

> <PUBCHEM_COORDINATE_TYPE>
1
3

> <PUBCHEM_BONDANNOTATIONS>
21  2  5
25  7  6

$$$$
