310944784
  -OEChem-07211613022D

 34 37  0     0  0  0  0  0  0999 V2000
   -5.1352   -0.3418    0.0000 Cl  0  0  0  0  0  0  0  0  0  0  0  0
   -2.0174   -0.3418    0.0000 O   0  0  0  0  0  0  0  0  0  0  0  0
    4.8184   -0.9420    0.0000 O   0  0  0  0  0  0  0  0  0  0  0  0
    4.0514   -2.1590    0.0000 O   0  0  0  0  0  0  0  0  0  0  0  0
   -0.5836    2.1590    0.0000 O   0  0  0  0  0  0  0  0  0  0  0  0
    3.3513   -0.9253    0.0000 N   0  0  0  0  0  0  0  0  0  0  0  0
    1.6173    0.0917    0.0000 N   0  0  0  0  0  0  0  0  0  0  0  0
   -2.0008    1.3421    0.0000 N   0  0  0  0  0  0  0  0  0  0  0  0
    0.1667    0.9253    0.0000 N   0  0  0  0  0  0  0  0  0  0  0  0
   -4.9018    1.3421    0.0000 C   0  0  0  0  0  0  0  0  0  0  0  0
   -4.1682    0.9086    0.0000 C   0  0  0  0  0  0  0  0  0  0  0  0
   -5.2853    2.0424    0.0000 C   0  0  0  0  0  0  0  0  0  0  0  0
   -4.4850    2.0424    0.0000 C   0  0  0  0  0  0  0  0  0  0  0  0
   -4.1682    0.0750    0.0000 C   0  0  0  0  0  0  0  0  0  0  0  0
   -3.4346    1.3255    0.0000 C   0  0  0  0  0  0  0  0  0  0  0  0
   -2.7343    0.9253    0.0000 C   0  0  0  0  0  0  0  0  0  0  0  0
    2.3341   -0.3252    0.0000 C   0  0  0  0  0  0  0  0  0  0  0  0
   -2.7510    0.0917    0.0000 C   0  0  0  0  0  0  0  0  0  0  0  0
   -3.4346   -0.3252    0.0000 C   0  0  0  0  0  0  0  0  0  0  0  0
   -5.6020    0.9086    0.0000 C   0  0  0  0  0  0  0  0  0  0  0  0
    3.1345   -0.1250    0.0000 C   0  0  0  0  0  0  0  0  0  0  0  0
    2.5509   -1.1253    0.0000 C   0  0  0  0  0  0  0  0  0  0  0  0
    4.0514   -1.3421    0.0000 C   0  0  0  0  0  0  0  0  0  0  0  0
    1.6006    0.9253    0.0000 C   0  0  0  0  0  0  0  0  0  0  0  0
    0.9003   -0.3252    0.0000 C   0  0  0  0  0  0  0  0  0  0  0  0
   -0.5669    1.3255    0.0000 C   0  0  0  0  0  0  0  0  0  0  0  0
    0.8669    1.3255    0.0000 C   0  0  0  0  0  0  0  0  0  0  0  0
    0.1834    0.0750    0.0000 C   0  0  0  0  0  0  0  0  0  0  0  0
   -1.2671    0.9253    0.0000 C   0  0  0  0  0  0  0  0  0  0  0  0
    4.8352   -0.0917    0.0000 C   0  0  0  0  0  0  0  0  0  0  0  0
   -1.2838    0.0750    0.0000 C   0  0  0  0  0  0  0  0  0  0  0  0
    5.6020   -0.0584    0.0000 C   0  0  0  0  0  0  0  0  0  0  0  0
    4.0514   -0.0917    0.0000 C   0  0  0  0  0  0  0  0  0  0  0  0
    4.8184    0.7419    0.0000 C   0  0  0  0  0  0  0  0  0  0  0  0
  1 14  1  0  0  0  0
  2 18  1  0  0  0  0
  2 31  1  0  0  0  0
  3 23  1  0  0  0  0
  3 30  1  0  0  0  0
  4 23  2  0  0  0  0
  5 26  2  0  0  0  0
  6 21  1  0  0  0  0
  6 22  1  0  0  0  0
  6 23  1  0  0  0  0
  7 17  1  0  0  0  0
  7 24  1  0  0  0  0
  7 25  1  0  0  0  0
  8 16  1  0  0  0  0
  8 29  1  0  0  0  0
  9 26  1  0  0  0  0
  9 27  1  0  0  0  0
  9 28  1  0  0  0  0
 10 11  1  0  0  0  0
 10 12  1  0  0  0  0
 10 13  1  0  0  0  0
 10 20  1  0  0  0  0
 11 14  2  0  0  0  0
 11 15  1  0  0  0  0
 12 13  1  0  0  0  0
 14 19  1  0  0  0  0
 15 16  2  0  0  0  0
 16 18  1  0  0  0  0
 17 21  1  0  0  0  0
 17 22  1  0  0  0  0
 18 19  2  0  0  0  0
 24 27  1  0  0  0  0
 25 28  1  0  0  0  0
 26 29  1  0  0  0  0
 30 32  1  0  0  0  0
 30 33  1  0  0  0  0
 30 34  1  0  0  0  0
M  END
> <PUBCHEM_COMPOUND_ID_TYPE>
0

> <PUBCHEM_TOTAL_CHARGE>
0

> <PUBCHEM_SUBSTANCE_ID>
310944784

> <PUBCHEM_SUBSTANCE_VERSION>
1

> <PUBCHEM_EXT_DATASOURCE_NAME>
4488

> <PUBCHEM_EXT_DATASOURCE_REGID>
SCHEMBL16122863

> <PUBCHEM_SUBSTANCE_COMMENT>
InChI=1S/C25H37ClN4O4/c1-24(2,3)34-23(32)30-15-17(16-30)28-8-10-29(11-9-28)22(31)14-27-20-12-18(25(4)6-7-25)19(26)13-21(20)33-5/h12-13,17,27H,6-11,14-16H2,1-5H3
InChIKey=LDMCKIFYWNAENR-UHFFFAOYSA-N

> <PUBCHEM_SUBSTANCE_SYNONYM>
SCHEMBL16122863

> <PUBCHEM_XREF_EXT_ID>
SCHEMBL16122863

> <PUBCHEM_EXT_DATASOURCE_URL>
https://www.surechembl.org/

> <PUBCHEM_EXT_SUBSTANCE_URL>
https://www.surechembl.org/chemical/SCHEMBL16122863

> <PUBCHEM_CID_ASSOCIATIONS>
117610998  1

> <PUBCHEM_COORDINATE_TYPE>
1
3

$$$$
