310934750
  -OEChem-07211613022D

 33 36  0     1  0  0  0  0  0999 V2000
    4.0356   -5.7144    0.0000 O   0  0  0  0  0  0  0  0  0  0  0  0
    2.0662   -3.5513    0.0000 O   0  0  0  0  0  0  0  0  0  0  0  0
    4.5844   -0.7426    0.0000 N   0  0  3  0  0  0  0  0  0  0  0  0
    7.0381   -0.7748    0.0000 N   0  0  0  0  0  0  0  0  0  0  0  0
    5.8113   -0.0323    0.0000 N   0  0  0  0  0  0  0  0  0  0  0  0
    5.2947   -5.0042    0.0000 N   0  0  0  0  0  0  0  0  0  0  0  0
    2.0662   -2.1308    0.0000 N   0  0  0  0  0  0  0  0  0  0  0  0
    0.3874   -3.5191    0.0000 N   0  0  0  0  0  0  0  0  0  0  0  0
    5.7790   -1.4528    0.0000 C   0  0  0  0  0  0  0  0  0  0  0  0
    6.6184   -1.4851    0.0000 C   0  0  0  0  0  0  0  0  0  0  0  0
    5.3916   -0.7426    0.0000 C   0  0  0  0  0  0  0  0  0  0  0  0
    5.7790   -2.8733    0.0000 C   0  0  0  0  0  0  0  0  0  0  0  0
    7.0058   -2.1954    0.0000 C   0  0  0  0  0  0  0  0  0  0  0  0
    5.3593   -2.1631    0.0000 C   0  0  0  0  0  0  0  0  0  0  0  0
    6.5861   -2.9057    0.0000 C   0  0  0  0  0  0  0  0  0  0  0  0
    5.3270   -3.5837    0.0000 C   0  0  0  0  0  0  0  0  0  0  0  0
    6.6507   -0.0646    0.0000 C   0  0  0  0  0  0  0  0  0  0  0  0
    4.1648   -1.4528    0.0000 C   0  0  0  0  0  0  0  0  0  0  0  0
    4.1648   -0.0323    0.0000 C   0  0  0  0  0  0  0  0  0  0  0  0
    3.3253   -1.4206    0.0000 C   0  0  3  0  0  0  0  0  0  0  0  0
    5.7144   -4.3262    0.0000 C   0  0  0  0  0  0  0  0  0  0  0  0
    4.4876   -3.5837    0.0000 C   0  0  0  0  0  0  0  0  0  0  0  0
    7.8452   -2.1954    0.0000 C   0  0  0  0  0  0  0  0  0  0  0  0
    3.3577    0.0000    0.0000 C   0  0  0  0  0  0  0  0  0  0  0  0
    2.9379   -0.7103    0.0000 C   0  0  0  0  0  0  0  0  0  0  0  0
    4.4553   -5.0364    0.0000 C   0  0  0  0  0  0  0  0  0  0  0  0
    4.1002   -4.2939    0.0000 C   0  0  0  0  0  0  0  0  0  0  0  0
    2.9057   -2.1308    0.0000 C   0  0  0  0  0  0  0  0  0  0  0  0
    1.6466   -2.8411    0.0000 C   0  0  0  0  0  0  0  0  0  0  0  0
    0.8071   -2.8411    0.0000 C   0  0  0  0  0  0  0  0  0  0  0  0
    0.4197   -2.0986    0.0000 C   0  0  0  0  0  0  0  0  0  0  0  0
    0.0000   -2.8088    0.0000 C   0  0  0  0  0  0  0  0  0  0  0  0
    4.4553   -6.4570    0.0000 C   0  0  0  0  0  0  0  0  0  0  0  0
  1 26  1  0  0  0  0
  1 33  1  0  0  0  0
  2 29  2  0  0  0  0
  3 11  1  0  0  0  0
  3 18  1  0  0  0  0
  3 19  1  0  0  0  0
  4 10  2  0  0  0  0
  4 17  1  0  0  0  0
  5 11  1  0  0  0  0
  5 17  2  0  0  0  0
  6 21  1  0  0  0  0
  6 26  2  0  0  0  0
  7 28  1  0  0  0  0
  7 29  1  0  0  0  0
  8 30  1  0  0  0  0
  9 10  1  0  0  0  0
  9 11  2  0  0  0  0
  9 14  1  0  0  0  0
 10 13  1  0  0  0  0
 12 14  2  0  0  0  0
 12 15  1  0  0  0  0
 12 16  1  0  0  0  0
 13 15  2  0  0  0  0
 13 23  1  0  0  0  0
 16 21  2  0  0  0  0
 16 22  1  0  0  0  0
 18 20  1  0  0  0  0
 19 24  1  0  0  0  0
 20 25  1  0  0  0  0
 20 28  1  6  0  0  0
 22 27  2  0  0  0  0
 24 25  1  0  0  0  0
 26 27  1  0  0  0  0
 29 30  1  0  0  0  0
 30 31  1  0  0  0  0
 30 32  1  0  0  0  0
M  END
> <PUBCHEM_COMPOUND_ID_TYPE>
0

> <PUBCHEM_TOTAL_CHARGE>
0

> <PUBCHEM_SUBSTANCE_ID>
310934750

> <PUBCHEM_SUBSTANCE_VERSION>
1

> <PUBCHEM_EXT_DATASOURCE_NAME>
4488

> <PUBCHEM_EXT_DATASOURCE_REGID>
SCHEMBL16112251

> <PUBCHEM_SUBSTANCE_COMMENT>
InChI=1S/C25H32N6O2/c1-16-10-19(18-7-8-21(33-4)27-13-18)11-20-22(16)29-15-30-23(20)31-9-5-6-17(14-31)12-28-24(32)25(2,3)26/h7-8,10-11,13,15,17H,5-6,9,12,14,26H2,1-4H3,(H,28,32)/t17-/m0/s1
InChIKey=GUXJKAZXLPJSOH-KRWDZBQOSA-N

> <PUBCHEM_SUBSTANCE_SYNONYM>
SCHEMBL16112251

> <PUBCHEM_XREF_EXT_ID>
SCHEMBL16112251

> <PUBCHEM_EXT_DATASOURCE_URL>
https://www.surechembl.org/

> <PUBCHEM_EXT_SUBSTANCE_URL>
https://www.surechembl.org/chemical/SCHEMBL16112251

> <PUBCHEM_CID_ASSOCIATIONS>
117602902  1

> <PUBCHEM_COORDINATE_TYPE>
1
3

> <PUBCHEM_BONDANNOTATIONS>
20  28  6

$$$$
