310930560
  -OEChem-07211613022D

 22 24  0     0  0  0  0  0  0999 V2000
    0.0000   -1.2375    0.0000 O   0  5  0  0  0  0  0  0  0  0  0  0
    0.7037    0.0000    0.0000 O   0  0  0  0  0  0  0  0  0  0  0  0
    3.5670   -2.4023    0.0000 N   0  0  0  0  0  0  0  0  0  0  0  0
    0.7037   -0.8250    0.0000 N   0  3  0  0  0  0  0  0  0  0  0  0
    4.2707   -3.6155    0.0000 C   0  0  0  0  0  0  0  0  0  0  0  0
    3.5670   -3.2273    0.0000 C   0  0  0  0  0  0  0  0  0  0  0  0
    4.9744   -3.2030    0.0000 C   0  0  0  0  0  0  0  0  0  0  0  0
    2.8633   -2.0140    0.0000 C   0  0  0  0  0  0  0  0  0  0  0  0
    1.4074   -1.2375    0.0000 C   0  0  0  0  0  0  0  0  0  0  0  0
    4.2707   -4.4406    0.0000 C   0  0  0  0  0  0  0  0  0  0  0  0
    2.8633   -3.6155    0.0000 C   0  0  0  0  0  0  0  0  0  0  0  0
    2.1353   -2.4265    0.0000 C   0  0  0  0  0  0  0  0  0  0  0  0
    2.8391   -1.1890    0.0000 C   0  0  0  0  0  0  0  0  0  0  0  0
    1.4317   -2.0383    0.0000 C   0  0  0  0  0  0  0  0  0  0  0  0
    2.1111   -0.8008    0.0000 C   0  0  0  0  0  0  0  0  0  0  0  0
    4.9744   -2.3780    0.0000 C   0  0  0  0  0  0  0  0  0  0  0  0
    5.7024   -3.6155    0.0000 C   0  0  0  0  0  0  0  0  0  0  0  0
    3.5670   -4.8531    0.0000 C   0  0  0  0  0  0  0  0  0  0  0  0
    2.8633   -4.4406    0.0000 C   0  0  0  0  0  0  0  0  0  0  0  0
    5.6781   -1.9655    0.0000 C   0  0  0  0  0  0  0  0  0  0  0  0
    6.4060   -3.2030    0.0000 C   0  0  0  0  0  0  0  0  0  0  0  0
    6.4060   -2.3780    0.0000 C   0  0  0  0  0  0  0  0  0  0  0  0
  1  4  1  0  0  0  0
  2  4  2  0  0  0  0
  3  6  1  0  0  0  0
  3  8  1  0  0  0  0
  4  9  1  0  0  0  0
  5  6  1  0  0  0  0
  5  7  1  0  0  0  0
  5 10  2  0  0  0  0
  6 11  2  0  0  0  0
  7 16  2  0  0  0  0
  7 17  1  0  0  0  0
  8 12  2  0  0  0  0
  8 13  1  0  0  0  0
  9 14  2  0  0  0  0
  9 15  1  0  0  0  0
 10 18  1  0  0  0  0
 11 19  1  0  0  0  0
 12 14  1  0  0  0  0
 13 15  2  0  0  0  0
 16 20  1  0  0  0  0
 17 21  2  0  0  0  0
 18 19  2  0  0  0  0
 20 22  2  0  0  0  0
 21 22  1  0  0  0  0
M  CHG  2   1  -1   4   1
M  END
> <PUBCHEM_COMPOUND_ID_TYPE>
0

> <PUBCHEM_TOTAL_CHARGE>
0

> <PUBCHEM_SUBSTANCE_ID>
310930560

> <PUBCHEM_SUBSTANCE_VERSION>
1

> <PUBCHEM_EXT_DATASOURCE_NAME>
4488

> <PUBCHEM_EXT_DATASOURCE_REGID>
SCHEMBL16107854

> <PUBCHEM_SUBSTANCE_COMMENT>
InChI=1S/C18H14N2O2/c21-20(22)16-12-10-15(11-13-16)19-18-9-5-4-8-17(18)14-6-2-1-3-7-14/h1-13,19H
InChIKey=UAERRXVQMKIJGO-UHFFFAOYSA-N

> <PUBCHEM_SUBSTANCE_SYNONYM>
SCHEMBL16107854

> <PUBCHEM_XREF_EXT_ID>
SCHEMBL16107854

> <PUBCHEM_EXT_DATASOURCE_URL>
https://www.surechembl.org/

> <PUBCHEM_EXT_SUBSTANCE_URL>
https://www.surechembl.org/chemical/SCHEMBL16107854

> <PUBCHEM_CID_ASSOCIATIONS>
71518900  1

> <PUBCHEM_COORDINATE_TYPE>
1
3

$$$$
