310945108
  -OEChem-07211613022D

 32 36  0     0  0  0  0  0  0999 V2000
    4.5380    0.9411    0.0000 O   0  0  0  0  0  0  0  0  0  0  0  0
   -0.2161   -1.3175    0.0000 O   0  0  0  0  0  0  0  0  0  0  0  0
   -4.5380    1.1781    0.0000 O   0  0  0  0  0  0  0  0  0  0  0  0
    2.7256   -0.3137    0.0000 N   0  0  0  0  0  0  0  0  0  0  0  0
    4.3847   -0.4810    0.0000 N   0  0  0  0  0  0  0  0  0  0  0  0
   -0.9411   -0.0488    0.0000 N   0  0  0  0  0  0  0  0  0  0  0  0
   -3.8270   -0.0488    0.0000 N   0  0  0  0  0  0  0  0  0  0  0  0
    3.0602   -1.0805    0.0000 C   0  0  0  0  0  0  0  0  0  0  0  0
    1.9309   -0.0349    0.0000 C   0  0  0  0  0  0  0  0  0  0  0  0
    3.2136    0.3695    0.0000 C   0  0  0  0  0  0  0  0  0  0  0  0
    1.9449    0.7738    0.0000 C   0  0  0  0  0  0  0  0  0  0  0  0
    2.7117    1.0247    0.0000 C   0  0  0  0  0  0  0  0  0  0  0  0
    4.0222    0.2579    0.0000 C   0  0  0  0  0  0  0  0  0  0  0  0
    3.8968   -1.1642    0.0000 C   0  0  0  0  0  0  0  0  0  0  0  0
    2.2656   -1.2060    0.0000 C   0  0  0  0  0  0  0  0  0  0  0  0
    3.1857   -1.8891    0.0000 C   0  0  0  0  0  0  0  0  0  0  0  0
    1.2199   -0.4671    0.0000 C   0  0  0  0  0  0  0  0  0  0  0  0
    2.3771   -2.0285    0.0000 C   0  0  0  0  0  0  0  0  0  0  0  0
    0.4810   -0.0488    0.0000 C   0  0  0  0  0  0  0  0  0  0  0  0
    1.1920    1.1781    0.0000 C   0  0  0  0  0  0  0  0  0  0  0  0
    0.4949    0.7738    0.0000 C   0  0  0  0  0  0  0  0  0  0  0  0
   -0.2300   -0.4392    0.0000 C   0  0  0  0  0  0  0  0  0  0  0  0
   -1.6660   -0.4671    0.0000 C   0  0  0  0  0  0  0  0  0  0  0  0
   -3.1020   -0.4671    0.0000 C   0  0  0  0  0  0  0  0  0  0  0  0
   -2.3910   -0.0767    0.0000 C   0  0  0  0  0  0  0  0  0  0  0  0
   -1.6660   -1.3035    0.0000 C   0  0  0  0  0  0  0  0  0  0  0  0
   -3.1020   -1.3035    0.0000 C   0  0  0  0  0  0  0  0  0  0  0  0
   -2.3771   -1.7218    0.0000 C   0  0  0  0  0  0  0  0  0  0  0  0
   -3.8131    0.7738    0.0000 C   0  0  0  0  0  0  0  0  0  0  0  0
   -3.8270   -1.7497    0.0000 C   0  0  0  0  0  0  0  0  0  0  0  0
   -3.1160    1.1781    0.0000 C   0  0  0  0  0  0  0  0  0  0  0  0
   -3.1718    2.0285    0.0000 C   0  0  0  0  0  0  0  0  0  0  0  0
  1 13  2  0  0  0  0
  2 22  2  0  0  0  0
  3 29  2  0  0  0  0
  4  8  1  0  0  0  0
  4  9  1  0  0  0  0
  4 10  1  0  0  0  0
  5 13  1  0  0  0  0
  5 14  1  0  0  0  0
  6 22  1  0  0  0  0
  6 23  1  0  0  0  0
  7 24  1  0  0  0  0
  7 29  1  0  0  0  0
  8 14  1  0  0  0  0
  8 15  1  0  0  0  0
  8 16  1  0  0  0  0
  9 11  1  0  0  0  0
  9 17  2  0  0  0  0
 10 12  2  0  0  0  0
 10 13  1  0  0  0  0
 11 12  1  0  0  0  0
 11 20  2  0  0  0  0
 15 18  1  0  0  0  0
 16 18  1  0  0  0  0
 17 19  1  0  0  0  0
 19 21  2  0  0  0  0
 19 22  1  0  0  0  0
 20 21  1  0  0  0  0
 23 25  2  0  0  0  0
 23 26  1  0  0  0  0
 24 25  1  0  0  0  0
 24 27  2  0  0  0  0
 26 28  2  0  0  0  0
 27 28  1  0  0  0  0
 27 30  1  0  0  0  0
 29 31  1  0  0  0  0
 31 32  2  0  0  0  0
M  END
> <PUBCHEM_COMPOUND_ID_TYPE>
0

> <PUBCHEM_TOTAL_CHARGE>
0

> <PUBCHEM_SUBSTANCE_ID>
310945108

> <PUBCHEM_SUBSTANCE_VERSION>
1

> <PUBCHEM_EXT_DATASOURCE_NAME>
4488

> <PUBCHEM_EXT_DATASOURCE_REGID>
SCHEMBL16123198

> <PUBCHEM_SUBSTANCE_COMMENT>
InChI=1S/C25H24N4O3/c1-3-22(30)28-19-13-18(8-5-15(19)2)27-23(31)17-7-6-16-11-21-24(32)26-14-25(9-4-10-25)29(21)20(16)12-17/h3,5-8,11-13H,1,4,9-10,14H2,2H3,(H,26,32)(H,27,31)(H,28,30)
InChIKey=IUTMFOKYMHOJEG-UHFFFAOYSA-N

> <PUBCHEM_SUBSTANCE_SYNONYM>
SCHEMBL16123198

> <PUBCHEM_XREF_EXT_ID>
SCHEMBL16123198

> <PUBCHEM_EXT_DATASOURCE_URL>
https://www.surechembl.org/

> <PUBCHEM_EXT_SUBSTANCE_URL>
https://www.surechembl.org/chemical/SCHEMBL16123198

> <PUBCHEM_CID_ASSOCIATIONS>
117611204  1

> <PUBCHEM_COORDINATE_TYPE>
1
3

$$$$
