310930286
  -OEChem-07211613022D

 16 18  0     0  0  0  0  0  0999 V2000
    0.0702    0.0000    0.0000 N   0  0  0  0  0  0  0  0  0  0  0  0
    3.6685   -0.7197    0.0000 N   0  0  0  0  0  0  0  0  0  0  0  0
    1.6499   -1.4218    0.0000 C   0  0  0  0  0  0  0  0  0  0  0  0
    1.2111   -0.7197    0.0000 C   0  0  0  0  0  0  0  0  0  0  0  0
    1.2111   -2.1063    0.0000 C   0  0  0  0  0  0  0  0  0  0  0  0
    0.4564   -2.1063    0.0000 C   0  0  0  0  0  0  0  0  0  0  0  0
    0.4564   -0.7197    0.0000 C   0  0  0  0  0  0  0  0  0  0  0  0
    0.0000   -1.4218    0.0000 C   0  0  0  0  0  0  0  0  0  0  0  0
    2.4749   -1.4218    0.0000 C   0  0  0  0  0  0  0  0  0  0  0  0
    1.6499   -0.0176    0.0000 C   0  0  0  0  0  0  0  0  0  0  0  0
    2.8611   -0.7197    0.0000 C   0  0  0  0  0  0  0  0  0  0  0  0
    1.6499   -2.8084    0.0000 C   0  0  0  0  0  0  0  0  0  0  0  0
    0.0000   -2.8084    0.0000 C   0  0  0  0  0  0  0  0  0  0  0  0
    2.4749   -0.0176    0.0000 C   0  0  0  0  0  0  0  0  0  0  0  0
    1.2111   -3.5105    0.0000 C   0  0  0  0  0  0  0  0  0  0  0  0
    0.4564   -3.5105    0.0000 C   0  0  0  0  0  0  0  0  0  0  0  0
  1  7  1  0  0  0  0
  2 11  1  0  0  0  0
  3  4  1  0  0  0  0
  3  5  2  0  0  0  0
  3  9  1  0  0  0  0
  4  7  2  0  0  0  0
  4 10  1  0  0  0  0
  5  6  1  0  0  0  0
  5 12  1  0  0  0  0
  6  8  2  0  0  0  0
  6 13  1  0  0  0  0
  7  8  1  0  0  0  0
  9 11  2  0  0  0  0
 10 14  2  0  0  0  0
 11 14  1  0  0  0  0
 12 15  2  0  0  0  0
 13 16  2  0  0  0  0
 15 16  1  0  0  0  0
M  END
> <PUBCHEM_COMPOUND_ID_TYPE>
0

> <PUBCHEM_TOTAL_CHARGE>
0

> <PUBCHEM_SUBSTANCE_ID>
310930286

> <PUBCHEM_SUBSTANCE_VERSION>
1

> <PUBCHEM_EXT_DATASOURCE_NAME>
4488

> <PUBCHEM_EXT_DATASOURCE_REGID>
SCHEMBL16107564

> <PUBCHEM_SUBSTANCE_COMMENT>
InChI=1S/C14H12N2/c15-10-5-6-12-13(8-10)11-4-2-1-3-9(11)7-14(12)16/h1-8H,15-16H2
InChIKey=WHMUWUJYLXHCBV-UHFFFAOYSA-N

> <PUBCHEM_SUBSTANCE_SYNONYM>
SCHEMBL16107564

> <PUBCHEM_XREF_EXT_ID>
SCHEMBL16107564

> <PUBCHEM_EXT_DATASOURCE_URL>
https://www.surechembl.org/

> <PUBCHEM_EXT_SUBSTANCE_URL>
https://www.surechembl.org/chemical/SCHEMBL16107564

> <PUBCHEM_CID_ASSOCIATIONS>
117599468  1

> <PUBCHEM_COORDINATE_TYPE>
1
3

$$$$
