310948464
  -OEChem-07211613022D

 45 49  0     0  0  0  0  0  0999 V2000
   -2.5876   -3.1693    0.0000 S   0  0  0  0  0  0  0  0  0  0  0  0
   -0.8857    4.2460    0.0000 F   0  0  0  0  0  0  0  0  0  0  0  0
    0.2257    4.4196    0.0000 F   0  0  0  0  0  0  0  0  0  0  0  0
    0.3821    3.2909    0.0000 F   0  0  0  0  0  0  0  0  0  0  0  0
    3.2474   -3.0998    0.0000 F   0  0  0  0  0  0  0  0  0  0  0  0
    2.7091   -2.0752    0.0000 F   0  0  0  0  0  0  0  0  0  0  0  0
    2.2228   -3.5861    0.0000 F   0  0  0  0  0  0  0  0  0  0  0  0
    0.3473    1.8322    0.0000 O   0  0  0  0  0  0  0  0  0  0  0  0
   -2.9869   -2.5094    0.0000 O   0  0  0  0  0  0  0  0  0  0  0  0
   -2.1708   -3.8639    0.0000 O   0  0  0  0  0  0  0  0  0  0  0  0
    1.7019   -2.5962    0.0000 O   0  0  0  0  0  0  0  0  0  0  0  0
   -0.4516   -4.4196    0.0000 O   0  0  0  0  0  0  0  0  0  0  0  0
   -1.1635    1.8495    0.0000 N   0  0  0  0  0  0  0  0  0  0  0  0
   -0.4862    2.3357    0.0000 N   0  0  0  0  0  0  0  0  0  0  0  0
    1.5630    1.2938    0.0000 N   0  0  0  0  0  0  0  0  0  0  0  0
   -0.4516    0.5992    0.0000 C   0  0  0  0  0  0  0  0  0  0  0  0
   -1.1635    1.0159    0.0000 C   0  0  0  0  0  0  0  0  0  0  0  0
    0.2605    1.0159    0.0000 C   0  0  0  0  0  0  0  0  0  0  0  0
    1.0073    0.6686    0.0000 C   0  0  0  0  0  0  0  0  0  0  0  0
   -1.1635   -0.6512    0.0000 C   0  0  0  0  0  0  0  0  0  0  0  0
   -0.4516   -0.2344    0.0000 C   0  0  0  0  0  0  0  0  0  0  0  0
   -1.8408    2.3357    0.0000 C   0  0  0  0  0  0  0  0  0  0  0  0
   -0.7641    3.0998    0.0000 C   0  0  0  0  0  0  0  0  0  0  0  0
   -1.8582    0.5992    0.0000 C   0  0  0  0  0  0  0  0  0  0  0  0
    1.1982   -0.1303    0.0000 C   0  0  0  0  0  0  0  0  0  0  0  0
   -1.1809   -1.4848    0.0000 C   0  0  0  0  0  0  0  0  0  0  0  0
    1.1462    2.0058    0.0000 C   0  0  0  0  0  0  0  0  0  0  0  0
   -1.8582   -0.2344    0.0000 C   0  0  0  0  0  0  0  0  0  0  0  0
   -1.5630    3.1172    0.0000 C   0  0  0  0  0  0  0  0  0  0  0  0
   -0.2605    3.7771    0.0000 C   0  0  0  0  0  0  0  0  0  0  0  0
   -1.8755   -2.7352    0.0000 C   0  0  0  0  0  0  0  0  0  0  0  0
   -1.8582   -1.9016    0.0000 C   0  0  0  0  0  0  0  0  0  0  0  0
   -1.1635   -3.1520    0.0000 C   0  0  0  0  0  0  0  0  0  0  0  0
   -0.4516   -1.9016    0.0000 C   0  0  0  0  0  0  0  0  0  0  0  0
    0.6078   -0.6860    0.0000 C   0  0  0  0  0  0  0  0  0  0  0  0
    1.9624   -0.4081    0.0000 C   0  0  0  0  0  0  0  0  0  0  0  0
   -0.4516   -2.7352    0.0000 C   0  0  0  0  0  0  0  0  0  0  0  0
   -2.6223    2.0579    0.0000 C   0  0  0  0  0  0  0  0  0  0  0  0
    1.5282   -1.7800    0.0000 C   0  0  0  0  0  0  0  0  0  0  0  0
    1.4935    2.7873    0.0000 C   0  0  0  0  0  0  0  0  0  0  0  0
    0.7641   -1.5195    0.0000 C   0  0  0  0  0  0  0  0  0  0  0  0
    2.1360   -1.2070    0.0000 C   0  0  0  0  0  0  0  0  0  0  0  0
   -1.1635   -3.9855    0.0000 C   0  0  0  0  0  0  0  0  0  0  0  0
   -3.2474   -3.5861    0.0000 C   0  0  0  0  0  0  0  0  0  0  0  0
    2.4833   -2.8568    0.0000 C   0  0  0  0  0  0  0  0  0  0  0  0
  1  9  2  0  0  0  0
  1 10  2  0  0  0  0
  1 31  1  0  0  0  0
  1 44  1  0  0  0  0
  2 30  1  0  0  0  0
  3 30  1  0  0  0  0
  4 30  1  0  0  0  0
  5 45  1  0  0  0  0
  6 45  1  0  0  0  0
  7 45  1  0  0  0  0
  8 18  1  0  0  0  0
  8 27  1  0  0  0  0
 11 39  1  0  0  0  0
 11 45  1  0  0  0  0
 12 43  1  0  0  0  0
 13 14  1  0  0  0  0
 13 17  1  0  0  0  0
 13 22  1  0  0  0  0
 14 23  2  0  0  0  0
 15 19  1  0  0  0  0
 15 27  2  0  0  0  0
 16 17  1  0  0  0  0
 16 18  1  0  0  0  0
 16 21  2  0  0  0  0
 17 24  2  0  0  0  0
 18 19  2  0  0  0  0
 19 25  1  0  0  0  0
 20 21  1  0  0  0  0
 20 26  1  0  0  0  0
 20 28  2  0  0  0  0
 22 29  2  0  0  0  0
 22 38  1  0  0  0  0
 23 29  1  0  0  0  0
 23 30  1  0  0  0  0
 24 28  1  0  0  0  0
 25 35  2  0  0  0  0
 25 36  1  0  0  0  0
 26 32  2  0  0  0  0
 26 34  1  0  0  0  0
 27 40  1  0  0  0  0
 31 32  1  0  0  0  0
 31 33  2  0  0  0  0
 33 37  1  0  0  0  0
 33 43  1  0  0  0  0
 34 37  2  0  0  0  0
 35 41  1  0  0  0  0
 36 42  2  0  0  0  0
 39 41  2  0  0  0  0
 39 42  1  0  0  0  0
M  END
> <PUBCHEM_COMPOUND_ID_TYPE>
0

> <PUBCHEM_TOTAL_CHARGE>
0

> <PUBCHEM_SUBSTANCE_ID>
310948464

> <PUBCHEM_SUBSTANCE_VERSION>
1

> <PUBCHEM_EXT_DATASOURCE_NAME>
4488

> <PUBCHEM_EXT_DATASOURCE_REGID>
SCHEMBL16126645

> <PUBCHEM_SUBSTANCE_COMMENT>
InChI=1S/C30H23F6N3O5S/c1-16-12-26(29(31,32)33)38-39(16)24-11-8-19(20-4-5-21(15-40)25(14-20)45(3,41)42)13-23(24)28-27(37-17(2)43-28)18-6-9-22(10-7-18)44-30(34,35)36/h4-14,40H,15H2,1-3H3
InChIKey=CIMKZIIBKIMKBO-UHFFFAOYSA-N

> <PUBCHEM_SUBSTANCE_SYNONYM>
SCHEMBL16126645

> <PUBCHEM_XREF_EXT_ID>
SCHEMBL16126645

> <PUBCHEM_EXT_DATASOURCE_URL>
https://www.surechembl.org/

> <PUBCHEM_EXT_SUBSTANCE_URL>
https://www.surechembl.org/chemical/SCHEMBL16126645

> <PUBCHEM_CID_ASSOCIATIONS>
117614022  1

> <PUBCHEM_COORDINATE_TYPE>
1
3

$$$$
