310949013
  -OEChem-07211613022D

 30 33  0     1  0  0  0  0  0999 V2000
    0.9384    3.3411    0.0000 F   0  0  0  0  0  0  0  0  0  0  0  0
    1.1447    2.2481    0.0000 F   0  0  0  0  0  0  0  0  0  0  0  0
    0.0722    2.0418    0.0000 F   0  0  0  0  0  0  0  0  0  0  0  0
   -1.7634   -1.8562    0.0000 O   0  0  0  0  0  0  0  0  0  0  0  0
    1.7634   -3.1762    0.0000 O   0  0  0  0  0  0  0  0  0  0  0  0
    1.0828   -1.9181    0.0000 O   0  0  0  0  0  0  0  0  0  0  0  0
   -1.0003   -0.6394    0.0000 N   0  0  0  0  0  0  0  0  0  0  0  0
   -0.3403   -1.8974    0.0000 N   0  0  0  0  0  0  0  0  0  0  0  0
   -0.3816   -4.3930    0.0000 N   0  0  0  0  0  0  0  0  0  0  0  0
   -1.3921    0.7012    0.0000 C   0  0  3  0  0  0  0  0  0  0  0  0
   -0.5878    0.6600    0.0000 C   0  0  3  0  0  0  0  0  0  0  0  0
   -0.9797    1.9181    0.0000 C   0  0  0  0  0  0  0  0  0  0  0  0
   -0.8972    2.7637    0.0000 C   0  0  0  0  0  0  0  0  0  0  0  0
   -1.6191    1.4437    0.0000 C   0  0  0  0  0  0  0  0  0  0  0  0
   -0.3197    1.4025    0.0000 C   0  0  0  0  0  0  0  0  0  0  0  0
   -0.2166    3.1968    0.0000 C   0  0  0  0  0  0  0  0  0  0  0  0
   -1.6396   -0.1650    0.0000 C   0  0  0  0  0  0  0  0  0  0  0  0
   -0.3609   -0.1856    0.0000 C   0  0  0  0  0  0  0  0  0  0  0  0
    0.4847    2.7018    0.0000 C   0  0  0  0  0  0  0  0  0  0  0  0
   -1.0415   -1.4231    0.0000 C   0  0  0  0  0  0  0  0  0  0  0  0
   -1.6191    3.1762    0.0000 C   0  0  0  0  0  0  0  0  0  0  0  0
   -0.2166    3.9805    0.0000 C   0  0  0  0  0  0  0  0  0  0  0  0
   -0.3609   -2.7018    0.0000 C   0  0  0  0  0  0  0  0  0  0  0  0
    0.3403   -3.1555    0.0000 C   0  0  0  0  0  0  0  0  0  0  0  0
   -1.6191    3.9805    0.0000 C   0  0  0  0  0  0  0  0  0  0  0  0
   -0.8765    4.3930    0.0000 C   0  0  0  0  0  0  0  0  0  0  0  0
   -1.0828   -3.1349    0.0000 C   0  0  0  0  0  0  0  0  0  0  0  0
    1.0415   -2.7431    0.0000 C   0  0  0  0  0  0  0  0  0  0  0  0
    0.2990   -4.0012    0.0000 C   0  0  0  0  0  0  0  0  0  0  0  0
   -1.0828   -3.9599    0.0000 C   0  0  0  0  0  0  0  0  0  0  0  0
  1 19  1  0  0  0  0
  2 19  1  0  0  0  0
  3 19  1  0  0  0  0
  4 20  2  0  0  0  0
  5 28  2  0  0  0  0
  6 28  1  0  0  0  0
  7 17  1  0  0  0  0
  7 18  1  0  0  0  0
  7 20  1  0  0  0  0
  8 20  1  0  0  0  0
  8 23  1  0  0  0  0
  9 29  1  0  0  0  0
  9 30  2  0  0  0  0
 10 11  1  0  0  0  0
 10 14  1  0  0  0  0
 10 17  1  0  0  0  0
 11 15  1  0  0  0  0
 11 18  1  0  0  0  0
 12 13  1  0  0  0  0
 12 14  1  1  0  0  0
 12 15  1  0  0  0  0
 13 16  1  0  0  0  0
 13 21  2  0  0  0  0
 16 19  1  0  0  0  0
 16 22  2  0  0  0  0
 21 25  1  0  0  0  0
 22 26  1  0  0  0  0
 23 24  1  0  0  0  0
 23 27  2  0  0  0  0
 24 28  1  0  0  0  0
 24 29  2  0  0  0  0
 25 26  2  0  0  0  0
 27 30  1  0  0  0  0
M  END
> <PUBCHEM_COMPOUND_ID_TYPE>
0

> <PUBCHEM_TOTAL_CHARGE>
0

> <PUBCHEM_SUBSTANCE_ID>
310949013

> <PUBCHEM_SUBSTANCE_VERSION>
1

> <PUBCHEM_EXT_DATASOURCE_NAME>
4488

> <PUBCHEM_EXT_DATASOURCE_REGID>
SCHEMBL16127202

> <PUBCHEM_SUBSTANCE_COMMENT>
InChI=1S/C21H20F3N3O3/c22-21(23,24)17-4-2-1-3-15(17)12-7-13-10-27(11-14(13)8-12)20(30)26-18-5-6-25-9-16(18)19(28)29/h1-6,9,12-14H,7-8,10-11H2,(H,28,29)(H,25,26,30)
InChIKey=JZWRBLGQVCTHKC-UHFFFAOYSA-N

> <PUBCHEM_SUBSTANCE_SYNONYM>
SCHEMBL16127202

> <PUBCHEM_XREF_EXT_ID>
SCHEMBL16127202

> <PUBCHEM_EXT_DATASOURCE_URL>
https://www.surechembl.org/

> <PUBCHEM_EXT_SUBSTANCE_URL>
https://www.surechembl.org/chemical/SCHEMBL16127202

> <PUBCHEM_CID_ASSOCIATIONS>
117614521  1

> <PUBCHEM_COORDINATE_TYPE>
1
3

> <PUBCHEM_BONDANNOTATIONS>
12  14  5

$$$$
