310933415
  -OEChem-07211613022D

 63 70  0     1  0  0  0  0  0999 V2000
    5.2830  -13.0445    0.0000 Cl  0  0  0  0  0  0  0  0  0  0  0  0
    3.4567   -8.4789    0.0000 S   0  0  0  0  0  0  0  0  0  0  0  0
    8.0223   -7.5005    0.0000 O   0  0  0  0  0  0  0  0  0  0  0  0
    4.5003   -6.7831    0.0000 O   0  0  0  0  0  0  0  0  0  0  0  0
    4.8265   -8.0223    0.0000 N   0  0  0  0  0  0  0  0  0  0  0  0
    5.9352   -9.4572    0.0000 N   0  0  0  0  0  0  0  0  0  0  0  0
    4.4351   -2.4132    0.0000 N   0  3  0  0  0  0  0  0  0  0  0  0
    5.6743   -7.2397    0.0000 N   0  0  0  0  0  0  0  0  0  0  0  0
    5.4134   -6.8484    0.0000 N   0  0  0  0  0  0  0  0  0  0  0  0
    0.8479   -6.1309    0.0000 N   0  0  0  0  0  0  0  0  0  0  0  0
    6.6527   -7.0440    0.0000 N   0  0  0  0  0  0  0  0  0  0  0  0
    5.8700   -7.2397    0.0000 N   0  0  0  0  0  0  0  0  0  0  0  0
    4.3699   -8.6093    0.0000 C   0  0  0  0  0  0  0  0  0  0  0  0
    4.5003   -9.4572    0.0000 C   0  0  0  0  0  0  0  0  0  0  0  0
    5.6091   -8.0223    0.0000 C   0  0  0  0  0  0  0  0  0  0  0  0
    5.2178   -9.7181    0.0000 C   0  0  0  0  0  0  0  0  0  0  0  0
    3.7829   -9.8485    0.0000 C   0  0  0  0  0  0  0  0  0  0  0  0
    3.3263   -1.7610    0.0000 C   0  0  0  0  0  0  0  0  0  0  0  0
    6.1309   -8.6093    0.0000 C   0  0  3  0  0  0  0  0  0  0  0  0
    4.5656   -7.1744    0.0000 C   0  0  0  0  0  0  0  0  0  0  0  0
    3.1959   -9.2616    0.0000 C   0  0  0  0  0  0  0  0  0  0  0  0
    3.9133   -1.2392    0.0000 C   0  0  0  0  0  0  0  0  0  0  0  0
    3.5872   -2.5437    0.0000 C   0  0  0  0  0  0  0  0  0  0  0  0
    4.6308   -1.6305    0.0000 C   0  0  0  0  0  0  0  0  0  0  0  0
    1.9567   -5.4134    0.0000 C   0  0  0  0  0  0  0  0  0  0  0  0
    5.2178  -10.5660    0.0000 C   0  0  0  0  0  0  0  0  0  0  0  0
    2.1523   -6.2613    0.0000 C   0  0  0  0  0  0  0  0  0  0  0  0
    1.1740   -5.3482    0.0000 C   0  0  0  0  0  0  0  0  0  0  0  0
    1.4349   -6.6527    0.0000 C   0  0  0  0  0  0  0  0  0  0  0  0
    6.9788   -8.4789    0.0000 C   0  0  0  0  0  0  0  0  0  0  0  0
    3.9133   -0.3914    0.0000 C   0  0  0  0  0  0  0  0  0  0  0  0
    5.3482   -1.2392    0.0000 C   0  0  0  0  0  0  0  0  0  0  0  0
    3.1959   -3.2611    0.0000 C   0  0  0  0  0  0  0  0  0  0  0  0
    3.7176  -10.6312    0.0000 C   0  0  0  0  0  0  0  0  0  0  0  0
    4.9569   -3.0654    0.0000 C   0  0  0  0  0  0  0  0  0  0  0  0
    2.4785   -1.5653    0.0000 C   0  0  0  0  0  0  0  0  0  0  0  0
    3.0654   -0.9783    0.0000 C   0  0  0  0  0  0  0  0  0  0  0  0
    5.9352  -10.9574    0.0000 C   0  0  0  0  0  0  0  0  0  0  0  0
    4.5003  -10.9574    0.0000 C   0  0  0  0  0  0  0  0  0  0  0  0
    2.8698   -6.6527    0.0000 C   0  0  0  0  0  0  0  0  0  0  0  0
    3.7829   -6.9136    0.0000 C   0  0  0  0  0  0  0  0  0  0  0  0
    2.3480   -9.3920    0.0000 C   0  0  0  0  0  0  0  0  0  0  0  0
    0.7175   -4.6308    0.0000 C   0  0  0  0  0  0  0  0  0  0  0  0
    1.4349   -7.5005    0.0000 C   0  0  0  0  0  0  0  0  0  0  0  0
    2.4785   -4.8265    0.0000 C   0  0  0  0  0  0  0  0  0  0  0  0
    2.7394   -5.6743    0.0000 C   0  0  0  0  0  0  0  0  0  0  0  0
    4.6308    0.0000    0.0000 C   0  0  0  0  0  0  0  0  0  0  0  0
    7.2397   -7.6962    0.0000 C   0  0  0  0  0  0  0  0  0  0  0  0
    5.3482   -0.4566    0.0000 C   0  0  0  0  0  0  0  0  0  0  0  0
    0.0000   -6.2613    0.0000 C   0  0  0  0  0  0  0  0  0  0  0  0
    2.3480   -3.2611    0.0000 C   0  0  0  0  0  0  0  0  0  0  0  0
    2.8698   -7.4353    0.0000 C   0  0  0  0  0  0  0  0  0  0  0  0
    5.9352  -11.8052    0.0000 C   0  0  0  0  0  0  0  0  0  0  0  0
    4.5003  -11.8052    0.0000 C   0  0  0  0  0  0  0  0  0  0  0  0
    2.1523   -7.8919    0.0000 C   0  0  0  0  0  0  0  0  0  0  0  0
    5.2178  -12.1965    0.0000 C   0  0  0  0  0  0  0  0  0  0  0  0
    1.1740   -3.9785    0.0000 C   0  0  0  0  0  0  0  0  0  0  0  0
    4.6960   -3.8481    0.0000 C   0  0  0  0  0  0  0  0  0  0  0  0
    1.9567   -3.9133    0.0000 C   0  0  0  0  0  0  0  0  0  0  0  0
    5.2830   -4.4351    0.0000 C   0  0  0  0  0  0  0  0  0  0  0  0
    5.2830   -6.6527    0.0000 C   0  0  0  0  0  0  0  0  0  0  0  0
    5.0221   -5.2178    0.0000 C   0  0  0  0  0  0  0  0  0  0  0  0
    5.5439   -5.8048    0.0000 C   0  0  0  0  0  0  0  0  0  0  0  0
  1 56  1  0  0  0  0
  2 13  1  0  0  0  0
  2 21  1  0  0  0  0
  3 48  2  0  0  0  0
  4 61  2  0  0  0  0
  5 13  1  0  0  0  0
  5 15  1  0  0  0  0
  5 20  1  0  0  0  0
  6 16  2  0  0  0  0
  6 19  1  0  0  0  0
  7 23  2  0  0  0  0
  7 24  1  0  0  0  0
  7 35  1  0  0  0  0
  8  9  1  0  0  0  0
  8 15  2  0  0  0  0
  9 20  2  0  0  0  0
 10 28  1  0  0  0  0
 10 29  1  0  0  0  0
 10 50  1  0  0  0  0
 11 12  1  0  0  0  0
 11 48  1  0  0  0  0
 12 61  1  0  0  0  0
 13 14  2  0  0  0  0
 14 16  1  0  0  0  0
 14 17  1  0  0  0  0
 15 19  1  0  0  0  0
 16 26  1  0  0  0  0
 17 21  2  0  0  0  0
 17 34  1  0  0  0  0
 18 22  1  0  0  0  0
 18 23  1  0  0  0  0
 18 36  1  0  0  0  0
 18 37  1  0  0  0  0
 19 30  1  6  0  0  0
 20 41  1  0  0  0  0
 21 42  1  0  0  0  0
 22 24  2  0  0  0  0
 22 31  1  0  0  0  0
 23 33  1  0  0  0  0
 24 32  1  0  0  0  0
 25 27  1  0  0  0  0
 25 28  1  0  0  0  0
 25 45  1  0  0  0  0
 25 46  1  0  0  0  0
 26 38  2  0  0  0  0
 26 39  1  0  0  0  0
 27 29  2  0  0  0  0
 27 40  1  0  0  0  0
 28 43  2  0  0  0  0
 29 44  1  0  0  0  0
 30 48  1  0  0  0  0
 31 47  2  0  0  0  0
 32 49  2  0  0  0  0
 33 51  2  0  0  0  0
 35 58  1  0  0  0  0
 38 53  1  0  0  0  0
 39 54  2  0  0  0  0
 40 52  2  0  0  0  0
 43 57  1  0  0  0  0
 44 55  2  0  0  0  0
 47 49  1  0  0  0  0
 51 59  1  0  0  0  0
 52 55  1  0  0  0  0
 53 56  2  0  0  0  0
 54 56  1  0  0  0  0
 57 59  2  0  0  0  0
 58 60  1  0  0  0  0
 60 62  1  0  0  0  0
 61 63  1  0  0  0  0
 62 63  1  0  0  0  0
M  CHG  1   7   1
M  END
> <PUBCHEM_COMPOUND_ID_TYPE>
0

> <PUBCHEM_TOTAL_CHARGE>
1

> <PUBCHEM_SUBSTANCE_ID>
310933415

> <PUBCHEM_SUBSTANCE_VERSION>
1

> <PUBCHEM_EXT_DATASOURCE_NAME>
4488

> <PUBCHEM_EXT_DATASOURCE_REGID>
SCHEMBL16110831

> <PUBCHEM_SUBSTANCE_COMMENT>
InChI=1S/C51H55ClN8O2S/c1-32-33(2)63-49-46(32)47(35-26-28-36(52)29-27-35)53-39(48-57-54-34(3)60(48)49)31-45(62)56-55-44(61)25-13-10-18-30-59-41-22-17-15-20-38(41)51(6,7)43(59)24-12-9-11-23-42-50(4,5)37-19-14-16-21-40(37)58(42)8/h9,11-12,14-17,19-24,26-29,39H,10,13,18,25,30-31H2,1-8H3,(H-,55,56,61,62)/p+1/t39-/m0/s1
InChIKey=BJARPRPNAIDUBN-KDXMTYKHSA-O

> <PUBCHEM_SUBSTANCE_SYNONYM>
SCHEMBL16110831

> <PUBCHEM_XREF_EXT_ID>
SCHEMBL16110831

> <PUBCHEM_EXT_DATASOURCE_URL>
https://www.surechembl.org/

> <PUBCHEM_EXT_SUBSTANCE_URL>
https://www.surechembl.org/chemical/SCHEMBL16110831

> <PUBCHEM_CID_ASSOCIATIONS>
117601822  1

> <PUBCHEM_COORDINATE_TYPE>
1
3

> <PUBCHEM_BONDANNOTATIONS>
19  30  6

$$$$
