310943350
  -OEChem-07211613022D

  9  9  0     0  0  0  0  0  0999 V2000
    1.2724   -1.1545    0.0000 O   0  0  0  0  0  0  0  0  0  0  0  0
   -0.5655   -0.5184    0.0000 N   0  0  0  0  0  0  0  0  0  0  0  0
    1.0132   -0.3770    0.0000 N   0  0  0  0  0  0  0  0  0  0  0  0
    1.0132    0.9896    0.0000 N   0  0  0  0  0  0  0  0  0  0  0  0
    0.1885   -0.0707    0.0000 C   0  0  0  0  0  0  0  0  0  0  0  0
    0.2120    0.7540    0.0000 C   0  0  0  0  0  0  0  0  0  0  0  0
   -0.5655    1.1545    0.0000 C   0  0  0  0  0  0  0  0  0  0  0  0
   -1.2724   -0.0707    0.0000 C   0  0  0  0  0  0  0  0  0  0  0  0
   -1.2488    0.7540    0.0000 C   0  0  0  0  0  0  0  0  0  0  0  0
  1  3  1  0  0  0  0
  2  5  1  0  0  0  0
  2  8  2  0  0  0  0
  3  5  1  0  0  0  0
  4  6  1  0  0  0  0
  5  6  2  0  0  0  0
  6  7  1  0  0  0  0
  7  9  2  0  0  0  0
  8  9  1  0  0  0  0
M  END
> <PUBCHEM_COMPOUND_ID_TYPE>
0

> <PUBCHEM_TOTAL_CHARGE>
0

> <PUBCHEM_SUBSTANCE_ID>
310943350

> <PUBCHEM_SUBSTANCE_VERSION>
1

> <PUBCHEM_EXT_DATASOURCE_NAME>
4488

> <PUBCHEM_EXT_DATASOURCE_REGID>
SCHEMBL16121413

> <PUBCHEM_SUBSTANCE_COMMENT>
InChI=1S/C5H7N3O/c6-4-2-1-3-7-5(4)8-9/h1-3,9H,6H2,(H,7,8)
InChIKey=VEPYXXJARIQWID-UHFFFAOYSA-N

> <PUBCHEM_SUBSTANCE_SYNONYM>
SCHEMBL16121413

> <PUBCHEM_XREF_EXT_ID>
SCHEMBL16121413

> <PUBCHEM_EXT_DATASOURCE_URL>
https://www.surechembl.org/

> <PUBCHEM_EXT_SUBSTANCE_URL>
https://www.surechembl.org/chemical/SCHEMBL16121413

> <PUBCHEM_CID_ASSOCIATIONS>
117609774  1

> <PUBCHEM_COORDINATE_TYPE>
1
3

$$$$
