310936278
  -OEChem-07211613022D

 13 13  0     0  0  0  0  0  0999 V2000
    0.8246   -2.8486    0.0000 Br  0  0  0  0  0  0  0  0  0  0  0  0
    2.4739   -2.8736    0.0000 O   0  0  0  0  0  0  0  0  0  0  0  0
    0.0000    0.0000    0.0000 O   0  0  0  0  0  0  0  0  0  0  0  0
    2.4739   -1.4243    0.0000 N   0  0  0  0  0  0  0  0  0  0  0  0
    2.0740   -2.1740    0.0000 C   0  0  0  0  0  0  0  0  0  0  0  0
    1.2494   -2.1490    0.0000 C   0  0  0  0  0  0  0  0  0  0  0  0
    1.2494   -0.7246    0.0000 C   0  0  0  0  0  0  0  0  0  0  0  0
    0.8496   -1.4493    0.0000 C   0  0  0  0  0  0  0  0  0  0  0  0
    2.0740   -0.7496    0.0000 C   0  0  0  0  0  0  0  0  0  0  0  0
    0.8246    0.0000    0.0000 C   0  0  0  0  0  0  0  0  0  0  0  0
    2.0740   -3.5733    0.0000 C   0  0  0  0  0  0  0  0  0  0  0  0
    2.4739   -4.2730    0.0000 C   0  0  0  0  0  0  0  0  0  0  0  0
    2.0740   -4.9977    0.0000 C   0  0  0  0  0  0  0  0  0  0  0  0
  1  6  1  0  0  0  0
  2  5  1  0  0  0  0
  2 11  1  0  0  0  0
  3 10  1  0  0  0  0
  4  5  2  0  0  0  0
  4  9  1  0  0  0  0
  5  6  1  0  0  0  0
  6  8  2  0  0  0  0
  7  8  1  0  0  0  0
  7  9  2  0  0  0  0
  7 10  1  0  0  0  0
 11 12  1  0  0  0  0
 12 13  1  0  0  0  0
M  END
> <PUBCHEM_COMPOUND_ID_TYPE>
0

> <PUBCHEM_TOTAL_CHARGE>
0

> <PUBCHEM_SUBSTANCE_ID>
310936278

> <PUBCHEM_SUBSTANCE_VERSION>
1

> <PUBCHEM_EXT_DATASOURCE_NAME>
4488

> <PUBCHEM_EXT_DATASOURCE_REGID>
SCHEMBL16113899

> <PUBCHEM_SUBSTANCE_COMMENT>
InChI=1S/C9H12BrNO2/c1-2-3-13-9-8(10)4-7(6-12)5-11-9/h4-5,12H,2-3,6H2,1H3
InChIKey=SRXVCDMXBWPSMG-UHFFFAOYSA-N

> <PUBCHEM_SUBSTANCE_SYNONYM>
SCHEMBL16113899

> <PUBCHEM_XREF_EXT_ID>
SCHEMBL16113899

> <PUBCHEM_EXT_DATASOURCE_URL>
https://www.surechembl.org/

> <PUBCHEM_EXT_SUBSTANCE_URL>
https://www.surechembl.org/chemical/SCHEMBL16113899

> <PUBCHEM_CID_ASSOCIATIONS>
117604221  1

> <PUBCHEM_COORDINATE_TYPE>
1
3

$$$$
