310933325
  -OEChem-07211613022D

 26 27  0     0  0  0  0  0  0999 V2000
    2.1605   -2.8807    0.0000 I   0  0  0  0  0  0  0  0  0  0  0  0
    0.0000   -1.6522    0.0000 F   0  0  0  0  0  0  0  0  0  0  0  0
    0.7202   -0.4236    0.0000 F   0  0  0  0  0  0  0  0  0  0  0  0
    0.0000   -0.8261    0.0000 F   0  0  0  0  0  0  0  0  0  0  0  0
    5.8674   -3.8551    0.0000 O   0  0  0  0  0  0  0  0  0  0  0  0
    1.4403   -2.4571    0.0000 O   0  0  0  0  0  0  0  0  0  0  0  0
    2.8595    0.0000    0.0000 O   0  5  0  0  0  0  0  0  0  0  0  0
    4.2787    0.0000    0.0000 O   0  0  0  0  0  0  0  0  0  0  0  0
    2.1393   -1.2285    0.0000 N   0  0  0  0  0  0  0  0  0  0  0  0
    3.5585   -0.4024    0.0000 N   0  3  0  0  0  0  0  0  0  0  0  0
    6.2910   -3.1561    0.0000 N   0  0  0  0  0  0  0  0  0  0  0  0
    2.8595   -1.6522    0.0000 C   0  0  0  0  0  0  0  0  0  0  0  0
    3.5797   -1.2285    0.0000 C   0  0  0  0  0  0  0  0  0  0  0  0
    4.2787   -2.4571    0.0000 C   0  0  0  0  0  0  0  0  0  0  0  0
    2.8595   -2.4571    0.0000 C   0  0  0  0  0  0  0  0  0  0  0  0
    4.9989   -2.8807    0.0000 C   0  0  0  0  0  0  0  0  0  0  0  0
    4.2787   -1.6310    0.0000 C   0  0  0  0  0  0  0  0  0  0  0  0
    1.4403   -1.6522    0.0000 C   0  0  0  0  0  0  0  0  0  0  0  0
    3.5585   -2.8595    0.0000 C   0  0  0  0  0  0  0  0  0  0  0  0
    0.7202   -1.2285    0.0000 C   0  0  0  0  0  0  0  0  0  0  0  0
    5.0836   -3.6856    0.0000 C   0  0  0  0  0  0  0  0  0  0  0  0
    5.7403   -2.5418    0.0000 C   0  0  0  0  0  0  0  0  0  0  0  0
    2.1393   -0.4236    0.0000 C   0  0  0  0  0  0  0  0  0  0  0  0
    4.4694   -4.2364    0.0000 C   0  0  0  0  0  0  0  0  0  0  0  0
    5.9098   -1.7369    0.0000 C   0  0  0  0  0  0  0  0  0  0  0  0
    1.4192    0.0000    0.0000 C   0  0  0  0  0  0  0  0  0  0  0  0
  1 15  1  0  0  0  0
  2 20  1  0  0  0  0
  3 20  1  0  0  0  0
  4 20  1  0  0  0  0
  5 11  1  0  0  0  0
  5 21  1  0  0  0  0
  6 18  2  0  0  0  0
  7 10  1  0  0  0  0
  8 10  2  0  0  0  0
  9 12  1  0  0  0  0
  9 18  1  0  0  0  0
  9 23  1  0  0  0  0
 10 13  1  0  0  0  0
 11 22  2  0  0  0  0
 12 13  2  0  0  0  0
 12 15  1  0  0  0  0
 13 17  1  0  0  0  0
 14 16  1  0  0  0  0
 14 17  2  0  0  0  0
 14 19  1  0  0  0  0
 15 19  2  0  0  0  0
 16 21  2  0  0  0  0
 16 22  1  0  0  0  0
 18 20  1  0  0  0  0
 21 24  1  0  0  0  0
 22 25  1  0  0  0  0
 23 26  1  0  0  0  0
M  CHG  2   7  -1  10   1
M  END
> <PUBCHEM_COMPOUND_ID_TYPE>
0

> <PUBCHEM_TOTAL_CHARGE>
0

> <PUBCHEM_SUBSTANCE_ID>
310933325

> <PUBCHEM_SUBSTANCE_VERSION>
1

> <PUBCHEM_EXT_DATASOURCE_NAME>
4488

> <PUBCHEM_EXT_DATASOURCE_REGID>
SCHEMBL16110737

> <PUBCHEM_SUBSTANCE_COMMENT>
InChI=1S/C15H13F3IN3O4/c1-4-21(14(23)15(16,17)18)13-10(19)5-9(6-11(13)22(24)25)12-7(2)20-26-8(12)3/h5-6H,4H2,1-3H3
InChIKey=FSZCJNGCVKSQRJ-UHFFFAOYSA-N

> <PUBCHEM_SUBSTANCE_SYNONYM>
SCHEMBL16110737

> <PUBCHEM_XREF_EXT_ID>
SCHEMBL16110737

> <PUBCHEM_EXT_DATASOURCE_URL>
https://www.surechembl.org/

> <PUBCHEM_EXT_SUBSTANCE_URL>
https://www.surechembl.org/chemical/SCHEMBL16110737

> <PUBCHEM_CID_ASSOCIATIONS>
117601739  1

> <PUBCHEM_COORDINATE_TYPE>
1
3

$$$$
