310937175
  -OEChem-07211613022D

 25 27  0     0  0  0  0  0  0999 V2000
    3.6752   -7.0677    0.0000 Cl  0  0  0  0  0  0  0  0  0  0  0  0
    5.6895   -3.8872    0.0000 O   0  0  0  0  0  0  0  0  0  0  0  0
    0.8128    0.0000    0.0000 O   0  0  0  0  0  0  0  0  0  0  0  0
    2.1910   -2.3677    0.0000 N   0  0  0  0  0  0  0  0  0  0  0  0
    4.6293   -2.8978    0.0000 N   0  0  0  0  0  0  0  0  0  0  0  0
    2.1910   -1.0248    0.0000 N   0  0  0  0  0  0  0  0  0  0  0  0
    0.0000   -1.1662    0.0000 N   0  0  0  0  0  0  0  0  0  0  0  0
    4.3113   -4.2760    0.0000 C   0  0  0  0  0  0  0  0  0  0  0  0
    4.9120   -3.6752    0.0000 C   0  0  0  0  0  0  0  0  0  0  0  0
    3.2512   -3.3218    0.0000 C   0  0  0  0  0  0  0  0  0  0  0  0
    4.5587   -5.0888    0.0000 C   0  0  0  0  0  0  0  0  0  0  0  0
    3.5338   -4.1346    0.0000 C   0  0  0  0  0  0  0  0  0  0  0  0
    2.4383   -3.1805    0.0000 C   0  0  0  0  0  0  0  0  0  0  0  0
    1.4135   -1.3075    0.0000 C   0  0  0  0  0  0  0  0  0  0  0  0
    3.8165   -2.7210    0.0000 C   0  0  0  0  0  0  0  0  0  0  0  0
    1.4135   -2.1203    0.0000 C   0  0  0  0  0  0  0  0  0  0  0  0
    3.9933   -5.6895    0.0000 C   0  0  0  0  0  0  0  0  0  0  0  0
    2.6504   -1.6962    0.0000 C   0  0  0  0  0  0  0  0  0  0  0  0
    5.3715   -5.2654    0.0000 C   0  0  0  0  0  0  0  0  0  0  0  0
    4.2406   -6.4670    0.0000 C   0  0  0  0  0  0  0  0  0  0  0  0
    0.7421   -0.8128    0.0000 C   0  0  0  0  0  0  0  0  0  0  0  0
    5.6188   -6.0429    0.0000 C   0  0  0  0  0  0  0  0  0  0  0  0
    5.0534   -6.6436    0.0000 C   0  0  0  0  0  0  0  0  0  0  0  0
    6.2549   -3.2512    0.0000 C   0  0  0  0  0  0  0  0  0  0  0  0
    6.0075   -2.4737    0.0000 C   0  0  0  0  0  0  0  0  0  0  0  0
  1 20  1  0  0  0  0
  2  9  1  0  0  0  0
  2 24  1  0  0  0  0
  3 21  2  0  0  0  0
  4 13  1  0  0  0  0
  4 16  1  0  0  0  0
  4 18  1  0  0  0  0
  5  9  2  0  0  0  0
  5 15  1  0  0  0  0
  6 14  1  0  0  0  0
  6 18  2  0  0  0  0
  7 21  1  0  0  0  0
  8  9  1  0  0  0  0
  8 11  1  0  0  0  0
  8 12  2  0  0  0  0
 10 12  1  0  0  0  0
 10 13  1  0  0  0  0
 10 15  2  0  0  0  0
 11 17  1  0  0  0  0
 11 19  2  0  0  0  0
 14 16  2  0  0  0  0
 14 21  1  0  0  0  0
 17 20  2  0  0  0  0
 19 22  1  0  0  0  0
 20 23  1  0  0  0  0
 22 23  2  0  0  0  0
 24 25  1  0  0  0  0
M  END
> <PUBCHEM_COMPOUND_ID_TYPE>
0

> <PUBCHEM_TOTAL_CHARGE>
0

> <PUBCHEM_SUBSTANCE_ID>
310937175

> <PUBCHEM_SUBSTANCE_VERSION>
1

> <PUBCHEM_EXT_DATASOURCE_NAME>
4488

> <PUBCHEM_EXT_DATASOURCE_REGID>
SCHEMBL16114900

> <PUBCHEM_SUBSTANCE_COMMENT>
InChI=1S/C18H17ClN4O2/c1-2-25-18-15(13-4-3-5-14(19)7-13)6-12(8-21-18)9-23-10-16(17(20)24)22-11-23/h3-8,10-11H,2,9H2,1H3,(H2,20,24)
InChIKey=BBOQXRXQMIMFNU-UHFFFAOYSA-N

> <PUBCHEM_SUBSTANCE_SYNONYM>
SCHEMBL16114900

> <PUBCHEM_XREF_EXT_ID>
SCHEMBL16114900

> <PUBCHEM_EXT_DATASOURCE_URL>
https://www.surechembl.org/

> <PUBCHEM_EXT_SUBSTANCE_URL>
https://www.surechembl.org/chemical/SCHEMBL16114900

> <PUBCHEM_CID_ASSOCIATIONS>
117604994  1

> <PUBCHEM_COORDINATE_TYPE>
1
3

$$$$
