310944920
  -OEChem-07211613022D

 38 42  0     0  0  0  0  0  0999 V2000
    2.5102    2.6985    0.0000 O   0  0  0  0  0  0  0  0  0  0  0  0
   -4.6797   -2.2861    0.0000 O   0  0  0  0  0  0  0  0  0  0  0  0
    3.9625   -2.2681    0.0000 O   0  0  0  0  0  0  0  0  0  0  0  0
    4.6797   -1.0310    0.0000 O   0  0  0  0  0  0  0  0  0  0  0  0
    1.7930    1.4613    0.0000 N   0  0  0  0  0  0  0  0  0  0  0  0
   -3.2274   -1.4434    0.0000 N   0  0  0  0  0  0  0  0  0  0  0  0
   -0.3586    1.0310    0.0000 C   0  0  0  0  0  0  0  0  0  0  0  0
   -0.3765    0.2062    0.0000 C   0  0  0  0  0  0  0  0  0  0  0  0
    0.3406    1.4434    0.0000 C   0  0  0  0  0  0  0  0  0  0  0  0
   -1.1117    1.4613    0.0000 C   0  0  0  0  0  0  0  0  0  0  0  0
   -1.0758   -0.2062    0.0000 C   0  0  0  0  0  0  0  0  0  0  0  0
    0.3586   -0.2062    0.0000 C   0  0  0  0  0  0  0  0  0  0  0  0
    0.3586    2.2681    0.0000 C   0  0  0  0  0  0  0  0  0  0  0  0
   -1.8826    1.2462    0.0000 C   0  0  0  0  0  0  0  0  0  0  0  0
   -1.3089    2.2323    0.0000 C   0  0  0  0  0  0  0  0  0  0  0  0
    1.0758    1.0310    0.0000 C   0  0  0  0  0  0  0  0  0  0  0  0
   -1.8109    0.1883    0.0000 C   0  0  0  0  0  0  0  0  0  0  0  0
   -1.0937   -1.0489    0.0000 C   0  0  0  0  0  0  0  0  0  0  0  0
    0.3765   -1.0489    0.0000 C   0  0  0  0  0  0  0  0  0  0  0  0
    1.0758    0.1704    0.0000 C   0  0  0  0  0  0  0  0  0  0  0  0
   -2.0798    2.0171    0.0000 C   0  0  0  0  0  0  0  0  0  0  0  0
   -2.5281   -1.0489    0.0000 C   0  0  0  0  0  0  0  0  0  0  0  0
    1.0758    2.6805    0.0000 C   0  0  0  0  0  0  0  0  0  0  0  0
    1.7930    2.2681    0.0000 C   0  0  0  0  0  0  0  0  0  0  0  0
   -2.4922   -0.2241    0.0000 C   0  0  0  0  0  0  0  0  0  0  0  0
   -1.7751   -1.4434    0.0000 C   0  0  0  0  0  0  0  0  0  0  0  0
    1.7751   -1.0310    0.0000 C   0  0  0  0  0  0  0  0  0  0  0  0
    1.0579   -1.4434    0.0000 C   0  0  0  0  0  0  0  0  0  0  0  0
    1.7930   -0.2241    0.0000 C   0  0  0  0  0  0  0  0  0  0  0  0
   -0.3765    2.6626    0.0000 C   0  0  0  0  0  0  0  0  0  0  0  0
   -3.2453   -2.2861    0.0000 C   0  0  0  0  0  0  0  0  0  0  0  0
   -3.9625   -1.0489    0.0000 C   0  0  0  0  0  0  0  0  0  0  0  0
    2.5460   -1.4613    0.0000 C   0  0  0  0  0  0  0  0  0  0  0  0
   -3.9267   -2.6985    0.0000 C   0  0  0  0  0  0  0  0  0  0  0  0
   -4.6617   -1.4613    0.0000 C   0  0  0  0  0  0  0  0  0  0  0  0
    3.2274   -1.0489    0.0000 C   0  0  0  0  0  0  0  0  0  0  0  0
    3.2633    2.2681    0.0000 C   0  0  0  0  0  0  0  0  0  0  0  0
    3.9625   -1.4434    0.0000 C   0  0  0  0  0  0  0  0  0  0  0  0
  1 24  1  0  0  0  0
  1 37  1  0  0  0  0
  2 34  1  0  0  0  0
  2 35  1  0  0  0  0
  3 38  2  0  0  0  0
  4 38  1  0  0  0  0
  5 16  1  0  0  0  0
  5 24  2  0  0  0  0
  6 22  1  0  0  0  0
  6 31  1  0  0  0  0
  6 32  1  0  0  0  0
  7  8  2  0  0  0  0
  7  9  1  0  0  0  0
  7 10  1  0  0  0  0
  8 11  1  0  0  0  0
  8 12  1  0  0  0  0
  9 13  1  0  0  0  0
  9 16  2  0  0  0  0
 10 14  1  0  0  0  0
 10 15  1  0  0  0  0
 11 17  2  0  0  0  0
 11 18  1  0  0  0  0
 12 19  2  0  0  0  0
 12 20  1  0  0  0  0
 13 23  2  0  0  0  0
 13 30  1  0  0  0  0
 14 21  1  0  0  0  0
 15 21  1  0  0  0  0
 17 25  1  0  0  0  0
 18 26  2  0  0  0  0
 19 28  1  0  0  0  0
 20 29  2  0  0  0  0
 22 25  2  0  0  0  0
 22 26  1  0  0  0  0
 23 24  1  0  0  0  0
 27 28  2  0  0  0  0
 27 29  1  0  0  0  0
 27 33  1  0  0  0  0
 31 34  1  0  0  0  0
 32 35  1  0  0  0  0
 33 36  2  0  0  0  0
 36 38  1  0  0  0  0
M  END
> <PUBCHEM_COMPOUND_ID_TYPE>
0

> <PUBCHEM_TOTAL_CHARGE>
0

> <PUBCHEM_SUBSTANCE_ID>
310944920

> <PUBCHEM_SUBSTANCE_VERSION>
1

> <PUBCHEM_EXT_DATASOURCE_NAME>
4488

> <PUBCHEM_EXT_DATASOURCE_REGID>
SCHEMBL16123005

> <PUBCHEM_SUBSTANCE_COMMENT>
InChI=1S/C32H34N2O4/c1-22-20-29(37-2)33-21-28(22)32(24-4-3-5-24)31(25-9-6-23(7-10-25)8-15-30(35)36)26-11-13-27(14-12-26)34-16-18-38-19-17-34/h6-15,20-21,24H,3-5,16-19H2,1-2H3,(H,35,36)/b15-8+,32-31+
InChIKey=DVLCRLQAAWOMQI-GILXHREFSA-N

> <PUBCHEM_SUBSTANCE_SYNONYM>
SCHEMBL16123005

> <PUBCHEM_XREF_EXT_ID>
SCHEMBL16123005

> <PUBCHEM_EXT_DATASOURCE_URL>
https://www.surechembl.org/

> <PUBCHEM_EXT_SUBSTANCE_URL>
https://www.surechembl.org/chemical/SCHEMBL16123005

> <PUBCHEM_CID_ASSOCIATIONS>
86271556  1

> <PUBCHEM_COORDINATE_TYPE>
1
3

$$$$
