310940956
  -OEChem-07211613022D

 41 44  0     1  0  0  0  0  0999 V2000
    5.1654   -1.2098    0.0000 O   0  0  0  0  0  0  0  0  0  0  0  0
    4.0352    0.7462    0.0000 O   0  0  0  0  0  0  0  0  0  0  0  0
    1.6735   -1.1954    0.0000 O   0  0  0  0  0  0  0  0  0  0  0  0
   -0.4709    0.8621    0.0000 O   0  0  0  0  0  0  0  0  0  0  0  0
   -2.6153   -1.1954    0.0000 O   0  0  0  0  0  0  0  0  0  0  0  0
   -5.4842   -1.1954    0.0000 O   0  0  0  0  0  0  0  0  0  0  0  0
    2.3980    0.0363    0.0000 N   0  0  0  0  0  0  0  0  0  0  0  0
    0.2536   -0.3695    0.0000 N   0  0  0  0  0  0  0  0  0  0  0  0
   -1.9054    0.0363    0.0000 N   0  0  0  0  0  0  0  0  0  0  0  0
   -4.0498   -0.3695    0.0000 N   0  0  0  0  0  0  0  0  0  0  0  0
    4.5424    2.9340    0.0000 N   0  0  0  0  0  0  0  0  0  0  0  0
    4.7598   -0.4854    0.0000 C   0  0  3  0  0  0  0  0  0  0  0  0
    3.9918   -0.0652    0.0000 C   0  0  0  0  0  0  0  0  0  0  0  0
    4.3685   -1.1809    0.0000 C   0  0  0  0  0  0  0  0  0  0  0  0
    3.3543   -0.4564    0.0000 C   0  0  3  0  0  0  0  0  0  0  0  0
    5.4842   -0.0507    0.0000 C   0  0  0  0  0  0  0  0  0  0  0  0
    3.3398   -1.5431    0.0000 C   0  0  0  0  0  0  0  0  0  0  0  0
    1.6880   -0.3116    0.0000 C   0  0  0  0  0  0  0  0  0  0  0  0
    0.9490    0.0797    0.0000 C   0  0  3  0  0  0  0  0  0  0  0  0
    2.6153   -1.9488    0.0000 C   0  0  0  0  0  0  0  0  0  0  0  0
    0.9780    0.8911    0.0000 C   0  0  0  0  0  0  0  0  0  0  0  0
   -0.4709    0.0507    0.0000 C   0  0  0  0  0  0  0  0  0  0  0  0
    1.6880    1.3113    0.0000 C   0  0  0  0  0  0  0  0  0  0  0  0
    1.8619   -1.6301    0.0000 C   0  0  0  0  0  0  0  0  0  0  0  0
    2.5284   -2.7602    0.0000 C   0  0  0  0  0  0  0  0  0  0  0  0
   -1.1809   -0.3260    0.0000 C   0  0  3  0  0  0  0  0  0  0  0  0
    1.3258   -2.2386    0.0000 C   0  0  0  0  0  0  0  0  0  0  0  0
    1.7169   -2.9340    0.0000 C   0  0  0  0  0  0  0  0  0  0  0  0
    1.7025    2.1372    0.0000 C   0  0  0  0  0  0  0  0  0  0  0  0
    2.3980    0.9056    0.0000 C   0  0  0  0  0  0  0  0  0  0  0  0
    3.1224    2.1372    0.0000 C   0  0  0  0  0  0  0  0  0  0  0  0
   -2.6008   -0.3116    0.0000 C   0  0  0  0  0  0  0  0  0  0  0  0
    2.3834    2.5284    0.0000 C   0  0  0  0  0  0  0  0  0  0  0  0
    3.1224    1.3113    0.0000 C   0  0  0  0  0  0  0  0  0  0  0  0
   -3.3398    0.0652    0.0000 C   0  0  0  0  0  0  0  0  0  0  0  0
   -1.1809   -1.1519    0.0000 C   0  0  0  0  0  0  0  0  0  0  0  0
    3.8179    2.5428    0.0000 C   0  0  0  0  0  0  0  0  0  0  0  0
   -4.0352   -1.1664    0.0000 C   0  0  0  0  0  0  0  0  0  0  0  0
   -4.7887    0.0652    0.0000 C   0  0  0  0  0  0  0  0  0  0  0  0
   -4.7452   -1.5721    0.0000 C   0  0  0  0  0  0  0  0  0  0  0  0
   -5.4552   -0.3260    0.0000 C   0  0  0  0  0  0  0  0  0  0  0  0
  1 12  1  0  0  0  0
  1 14  1  0  0  0  0
  2 13  2  0  0  0  0
  3 18  2  0  0  0  0
  4 22  2  0  0  0  0
  5 32  2  0  0  0  0
  6 40  1  0  0  0  0
  6 41  1  0  0  0  0
 15  7  1  6  0  0  0
  7 18  1  0  0  0  0
 19  8  1  1  0  0  0
  8 22  1  0  0  0  0
  9 26  1  0  0  0  0
  9 32  1  0  0  0  0
 10 35  1  0  0  0  0
 10 38  1  0  0  0  0
 10 39  1  0  0  0  0
 11 37  3  0  0  0  0
 12 13  1  6  0  0  0
 12 14  1  0  0  0  0
 12 16  1  1  0  0  0
 13 15  1  0  0  0  0
 15 17  1  0  0  0  0
 17 20  1  0  0  0  0
 18 19  1  0  0  0  0
 19 21  1  0  0  0  0
 20 24  1  0  0  0  0
 20 25  1  0  0  0  0
 21 23  1  0  0  0  0
 22 26  1  0  0  0  0
 23 29  2  0  0  0  0
 23 30  1  0  0  0  0
 24 27  1  0  0  0  0
 25 28  1  0  0  0  0
 26 36  1  6  0  0  0
 27 28  1  0  0  0  0
 29 33  1  0  0  0  0
 30 34  2  0  0  0  0
 31 33  2  0  0  0  0
 31 34  1  0  0  0  0
 31 37  1  0  0  0  0
 32 35  1  0  0  0  0
 38 40  1  0  0  0  0
 39 41  1  0  0  0  0
M  END
> <PUBCHEM_COMPOUND_ID_TYPE>
0

> <PUBCHEM_TOTAL_CHARGE>
0

> <PUBCHEM_SUBSTANCE_ID>
310940956

> <PUBCHEM_SUBSTANCE_VERSION>
1

> <PUBCHEM_EXT_DATASOURCE_NAME>
4488

> <PUBCHEM_EXT_DATASOURCE_REGID>
SCHEMBL16118915

> <PUBCHEM_SUBSTANCE_COMMENT>
InChI=1S/C30H41N5O6/c1-20(32-26(36)18-35-11-13-40-14-12-35)28(38)34-25(16-22-7-9-23(17-31)10-8-22)29(39)33-24(15-21-5-3-4-6-21)27(37)30(2)19-41-30/h7-10,20-21,24-25H,3-6,11-16,18-19H2,1-2H3,(H,32,36)(H,33,39)(H,34,38)/t20-,24-,25-,30+/m0/s1
InChIKey=CIPNOTFPKFTVFC-NHPFZIKMSA-N

> <PUBCHEM_SUBSTANCE_SYNONYM>
SCHEMBL16118915

> <PUBCHEM_XREF_EXT_ID>
SCHEMBL16118915

> <PUBCHEM_EXT_DATASOURCE_URL>
https://www.surechembl.org/

> <PUBCHEM_EXT_SUBSTANCE_URL>
https://www.surechembl.org/chemical/SCHEMBL16118915

> <PUBCHEM_CID_ASSOCIATIONS>
117607864  1

> <PUBCHEM_COORDINATE_TYPE>
1
3

> <PUBCHEM_BONDANNOTATIONS>
12  13  6
12  16  5
26  36  6
15  7  6
19  8  5

$$$$
