310939248
  -OEChem-07211613022D

 30 32  0     1  0  0  0  0  0999 V2000
    1.0557   -0.3337    0.0000 Cl  0  0  0  0  0  0  0  0  0  0  0  0
   -1.8022   -0.3337    0.0000 F   0  0  0  0  0  0  0  0  0  0  0  0
   -0.3733    0.4913    0.0000 O   0  0  0  0  0  0  0  0  0  0  0  0
    3.2692    1.8863    0.0000 O   0  0  0  0  0  0  0  0  0  0  0  0
   -2.5167    1.2867    0.0000 O   0  0  0  0  0  0  0  0  0  0  0  0
   -2.5167   -1.5712    0.0000 N   0  0  0  0  0  0  0  0  0  0  0  0
    3.2692    3.2212    0.0000 N   0  0  0  0  0  0  0  0  0  0  0  0
   -3.7542    0.5722    0.0000 N   0  0  0  0  0  0  0  0  0  0  0  0
   -0.3733   -0.3337    0.0000 C   0  0  0  0  0  0  0  0  0  0  0  0
   -1.0877   -0.7462    0.0000 C   0  0  0  0  0  0  0  0  0  0  0  0
   -1.0877   -1.5712    0.0000 C   0  0  0  0  0  0  0  0  0  0  0  0
    0.3412   -0.7462    0.0000 C   0  0  0  0  0  0  0  0  0  0  0  0
   -1.8022   -1.9837    0.0000 C   0  0  3  0  0  0  0  0  0  0  0  0
   -0.3733   -1.9837    0.0000 C   0  0  0  0  0  0  0  0  0  0  0  0
    0.3412    0.9038    0.0000 C   0  0  0  0  0  0  0  0  0  0  0  0
    0.3412   -1.5712    0.0000 C   0  0  0  0  0  0  0  0  0  0  0  0
    1.7702    1.7288    0.0000 C   0  0  0  0  0  0  0  0  0  0  0  0
    2.4846    2.1413    0.0000 C   0  0  0  0  0  0  0  0  0  0  0  0
    1.0557    0.4913    0.0000 C   0  0  0  0  0  0  0  0  0  0  0  0
    0.3412    1.7288    0.0000 C   0  0  0  0  0  0  0  0  0  0  0  0
    1.7702    0.9038    0.0000 C   0  0  0  0  0  0  0  0  0  0  0  0
    1.0557    2.1413    0.0000 C   0  0  0  0  0  0  0  0  0  0  0  0
   -1.8022   -2.8087    0.0000 C   0  0  0  0  0  0  0  0  0  0  0  0
   -2.9292   -0.8567    0.0000 C   0  0  3  0  0  0  0  0  0  0  0  0
    2.4846    2.9663    0.0000 C   0  0  0  0  0  0  0  0  0  0  0  0
    3.7542    2.5538    0.0000 C   0  0  0  0  0  0  0  0  0  0  0  0
   -2.5167   -0.1423    0.0000 C   0  0  0  0  0  0  0  0  0  0  0  0
   -2.5167   -3.2212    0.0000 C   0  0  0  0  0  0  0  0  0  0  0  0
   -3.7542   -0.8567    0.0000 C   0  0  0  0  0  0  0  0  0  0  0  0
   -2.9292    0.5722    0.0000 C   0  0  0  0  0  0  0  0  0  0  0  0
  1 12  1  0  0  0  0
  2 10  1  0  0  0  0
  3  9  1  0  0  0  0
  3 15  1  0  0  0  0
  4 18  1  0  0  0  0
  4 26  1  0  0  0  0
  5 30  2  0  0  0  0
 13  6  1  1  0  0  0
  6 24  1  0  0  0  0
  7 25  1  0  0  0  0
  7 26  2  0  0  0  0
  8 30  1  0  0  0  0
  9 10  2  0  0  0  0
  9 12  1  0  0  0  0
 10 11  1  0  0  0  0
 11 13  1  0  0  0  0
 11 14  2  0  0  0  0
 12 16  2  0  0  0  0
 13 23  1  0  0  0  0
 14 16  1  0  0  0  0
 15 19  2  0  0  0  0
 15 20  1  0  0  0  0
 17 18  1  0  0  0  0
 17 21  2  0  0  0  0
 17 22  1  0  0  0  0
 18 25  2  0  0  0  0
 19 21  1  0  0  0  0
 20 22  2  0  0  0  0
 23 28  1  0  0  0  0
 24 27  1  0  0  0  0
 24 29  1  6  0  0  0
 27 30  1  0  0  0  0
M  END
> <PUBCHEM_COMPOUND_ID_TYPE>
0

> <PUBCHEM_TOTAL_CHARGE>
0

> <PUBCHEM_SUBSTANCE_ID>
310939248

> <PUBCHEM_SUBSTANCE_VERSION>
1

> <PUBCHEM_EXT_DATASOURCE_NAME>
4488

> <PUBCHEM_EXT_DATASOURCE_REGID>
SCHEMBL16117169

> <PUBCHEM_SUBSTANCE_COMMENT>
InChI=1S/C22H23ClFN3O3/c1-3-18(27-13(2)10-20(25)28)16-8-9-17(23)22(21(16)24)30-15-6-4-14(5-7-15)19-11-26-12-29-19/h4-9,11-13,18,27H,3,10H2,1-2H3,(H2,25,28)/t13-,18-/m1/s1
InChIKey=PYUBJJCQWWVDDA-FZKQIMNGSA-N

> <PUBCHEM_SUBSTANCE_SYNONYM>
SCHEMBL16117169

> <PUBCHEM_XREF_EXT_ID>
SCHEMBL16117169

> <PUBCHEM_EXT_DATASOURCE_URL>
https://www.surechembl.org/

> <PUBCHEM_EXT_SUBSTANCE_URL>
https://www.surechembl.org/chemical/SCHEMBL16117169

> <PUBCHEM_CID_ASSOCIATIONS>
117606596  1

> <PUBCHEM_COORDINATE_TYPE>
1
3

> <PUBCHEM_BONDANNOTATIONS>
24  29  6
13  6  5

$$$$
