310943274
  -OEChem-07211613022D

 34 37  0     0  0  0  0  0  0999 V2000
   -3.4863    0.0000    0.0000 Cl  0  0  0  0  0  0  0  0  0  0  0  0
    1.0744   -0.0146    0.0000 O   0  0  0  0  0  0  0  0  0  0  0  0
   -4.6558    2.4704    0.0000 O   0  0  0  0  0  0  0  0  0  0  0  0
   -3.2232    1.6518    0.0000 N   0  0  0  0  0  0  0  0  0  0  0  0
   -1.7907    0.0000    0.0000 N   0  0  0  0  0  0  0  0  0  0  0  0
    1.7907    1.2279    0.0000 N   0  0  0  0  0  0  0  0  0  0  0  0
    0.3581    2.8797    0.0000 N   0  0  0  0  0  0  0  0  0  0  0  0
    3.9395   -0.8186    0.0000 N   0  0  0  0  0  0  0  0  0  0  0  0
    4.6558   -2.8797    0.0000 N   0  0  0  0  0  0  0  0  0  0  0  0
   -0.3728    1.6518    0.0000 C   0  0  0  0  0  0  0  0  0  0  0  0
   -1.0744    1.2425    0.0000 C   0  0  0  0  0  0  0  0  0  0  0  0
   -2.5069    1.2425    0.0000 C   0  0  0  0  0  0  0  0  0  0  0  0
   -1.7907    1.6518    0.0000 C   0  0  0  0  0  0  0  0  0  0  0  0
   -0.3581    2.4704    0.0000 C   0  0  0  0  0  0  0  0  0  0  0  0
   -2.5216    0.4093    0.0000 C   0  0  0  0  0  0  0  0  0  0  0  0
    1.0598    1.6518    0.0000 C   0  0  0  0  0  0  0  0  0  0  0  0
    0.3728    1.2425    0.0000 C   0  0  0  0  0  0  0  0  0  0  0  0
   -1.0890    0.3947    0.0000 C   0  0  0  0  0  0  0  0  0  0  0  0
    3.2378   -1.2279    0.0000 C   0  0  0  0  0  0  0  0  0  0  0  0
    2.5216    0.0146    0.0000 C   0  0  0  0  0  0  0  0  0  0  0  0
    3.2086   -2.0611    0.0000 C   0  0  0  0  0  0  0  0  0  0  0  0
    1.8053    0.4239    0.0000 C   0  0  0  0  0  0  0  0  0  0  0  0
    1.0744    2.4558    0.0000 C   0  0  0  0  0  0  0  0  0  0  0  0
    2.5069   -0.8186    0.0000 C   0  0  0  0  0  0  0  0  0  0  0  0
   -3.2378    2.4704    0.0000 C   0  0  0  0  0  0  0  0  0  0  0  0
   -3.9249    1.2425    0.0000 C   0  0  0  0  0  0  0  0  0  0  0  0
    3.2086    0.4093    0.0000 C   0  0  0  0  0  0  0  0  0  0  0  0
    3.9395    0.0000    0.0000 C   0  0  0  0  0  0  0  0  0  0  0  0
   -1.0890    2.8651    0.0000 C   0  0  0  0  0  0  0  0  0  0  0  0
    3.9249   -2.4704    0.0000 C   0  0  0  0  0  0  0  0  0  0  0  0
   -3.9541    2.8797    0.0000 C   0  0  0  0  0  0  0  0  0  0  0  0
   -4.6558    1.6518    0.0000 C   0  0  0  0  0  0  0  0  0  0  0  0
    2.8285   -2.7920    0.0000 C   0  0  0  0  0  0  0  0  0  0  0  0
    2.3900   -2.0757    0.0000 C   0  0  0  0  0  0  0  0  0  0  0  0
  1 15  1  0  0  0  0
  2 22  2  0  0  0  0
  3 31  1  0  0  0  0
  3 32  1  0  0  0  0
  4 12  1  0  0  0  0
  4 25  1  0  0  0  0
  4 26  1  0  0  0  0
  5 15  2  0  0  0  0
  5 18  1  0  0  0  0
  6 16  1  0  0  0  0
  6 22  1  0  0  0  0
  7 14  1  0  0  0  0
  7 23  2  0  0  0  0
  8 19  2  0  0  0  0
  8 28  1  0  0  0  0
  9 30  3  0  0  0  0
 10 11  1  0  0  0  0
 10 14  2  0  0  0  0
 10 17  1  0  0  0  0
 11 13  1  0  0  0  0
 11 18  2  0  0  0  0
 12 13  2  0  0  0  0
 12 15  1  0  0  0  0
 14 29  1  0  0  0  0
 16 17  2  0  0  0  0
 16 23  1  0  0  0  0
 19 21  1  0  0  0  0
 19 24  1  0  0  0  0
 20 22  1  0  0  0  0
 20 24  2  0  0  0  0
 20 27  1  0  0  0  0
 21 30  1  0  0  0  0
 21 33  1  0  0  0  0
 21 34  1  0  0  0  0
 25 31  1  0  0  0  0
 26 32  1  0  0  0  0
 27 28  2  0  0  0  0
M  END
> <PUBCHEM_COMPOUND_ID_TYPE>
0

> <PUBCHEM_TOTAL_CHARGE>
0

> <PUBCHEM_SUBSTANCE_ID>
310943274

> <PUBCHEM_SUBSTANCE_VERSION>
1

> <PUBCHEM_EXT_DATASOURCE_NAME>
4488

> <PUBCHEM_EXT_DATASOURCE_REGID>
SCHEMBL16121336

> <PUBCHEM_SUBSTANCE_COMMENT>
InChI=1S/C25H25ClN6O2/c1-16-20(18-10-21(23(26)30-13-18)32-6-8-34-9-7-32)12-19(14-29-16)31-24(33)17-4-5-28-22(11-17)25(2,3)15-27/h4-5,10-14H,6-9H2,1-3H3,(H,31,33)
InChIKey=ZVGHQRKDLOSAQQ-UHFFFAOYSA-N

> <PUBCHEM_SUBSTANCE_SYNONYM>
SCHEMBL16121336

> <PUBCHEM_XREF_EXT_ID>
SCHEMBL16121336

> <PUBCHEM_EXT_DATASOURCE_URL>
https://www.surechembl.org/

> <PUBCHEM_EXT_SUBSTANCE_URL>
https://www.surechembl.org/chemical/SCHEMBL16121336

> <PUBCHEM_CID_ASSOCIATIONS>
117609699  1

> <PUBCHEM_COORDINATE_TYPE>
1
3

$$$$
