310943353
  -OEChem-07211613022D

 33 36  0     0  0  0  0  0  0999 V2000
    4.6260    1.4566    0.0000 F   0  0  0  0  0  0  0  0  0  0  0  0
    5.3433    0.2122    0.0000 F   0  0  0  0  0  0  0  0  0  0  0  0
   -3.9232   -1.0321    0.0000 O   0  0  0  0  0  0  0  0  0  0  0  0
    1.0687   -0.6222    0.0000 O   0  0  0  0  0  0  0  0  0  0  0  0
   -5.3433    1.4420    0.0000 O   0  0  0  0  0  0  0  0  0  0  0  0
   -2.5033   -1.0174    0.0000 N   0  0  0  0  0  0  0  0  0  0  0  0
   -3.9232    0.6222    0.0000 N   0  0  0  0  0  0  0  0  0  0  0  0
   -0.3659    1.8665    0.0000 N   0  0  0  0  0  0  0  0  0  0  0  0
    1.7713    0.6222    0.0000 N   0  0  0  0  0  0  0  0  0  0  0  0
   -1.7860    0.2269    0.0000 C   0  0  0  0  0  0  0  0  0  0  0  0
   -1.0833    0.6368    0.0000 C   0  0  0  0  0  0  0  0  0  0  0  0
   -3.2059    0.2269    0.0000 C   0  0  0  0  0  0  0  0  0  0  0  0
   -3.2059   -0.5928    0.0000 C   0  0  0  0  0  0  0  0  0  0  0  0
   -2.5033    0.6222    0.0000 C   0  0  0  0  0  0  0  0  0  0  0  0
   -1.7860   -0.6075    0.0000 C   0  0  0  0  0  0  0  0  0  0  0  0
   -1.0687    1.4566    0.0000 C   0  0  0  0  0  0  0  0  0  0  0  0
   -0.3367    0.2269    0.0000 C   0  0  0  0  0  0  0  0  0  0  0  0
    0.3367    0.6222    0.0000 C   0  0  0  0  0  0  0  0  0  0  0  0
    1.0687    0.2416    0.0000 C   0  0  0  0  0  0  0  0  0  0  0  0
    0.3514    1.4566    0.0000 C   0  0  0  0  0  0  0  0  0  0  0  0
   -3.9087    1.4420    0.0000 C   0  0  0  0  0  0  0  0  0  0  0  0
   -4.6113    0.2269    0.0000 C   0  0  0  0  0  0  0  0  0  0  0  0
    2.4886    0.2269    0.0000 C   0  0  0  0  0  0  0  0  0  0  0  0
   -2.4740   -1.8665    0.0000 C   0  0  0  0  0  0  0  0  0  0  0  0
   -1.8006    1.8518    0.0000 C   0  0  0  0  0  0  0  0  0  0  0  0
   -4.6260    1.8665    0.0000 C   0  0  0  0  0  0  0  0  0  0  0  0
   -5.3433    0.6368    0.0000 C   0  0  0  0  0  0  0  0  0  0  0  0
    3.1767    0.6075    0.0000 C   0  0  0  0  0  0  0  0  0  0  0  0
    3.9087    0.2269    0.0000 C   0  0  0  0  0  0  0  0  0  0  0  0
    2.4886   -0.6075    0.0000 C   0  0  0  0  0  0  0  0  0  0  0  0
    3.8940   -0.6075    0.0000 C   0  0  0  0  0  0  0  0  0  0  0  0
    4.6113    0.6368    0.0000 C   0  0  0  0  0  0  0  0  0  0  0  0
    3.2059   -1.0174    0.0000 C   0  0  0  0  0  0  0  0  0  0  0  0
  1 32  1  0  0  0  0
  2 32  1  0  0  0  0
  3 13  2  0  0  0  0
  4 19  2  0  0  0  0
  5 26  1  0  0  0  0
  5 27  1  0  0  0  0
  6 13  1  0  0  0  0
  6 15  1  0  0  0  0
  6 24  1  0  0  0  0
  7 12  1  0  0  0  0
  7 21  1  0  0  0  0
  7 22  1  0  0  0  0
  8 16  1  0  0  0  0
  8 20  2  0  0  0  0
  9 19  1  0  0  0  0
  9 23  1  0  0  0  0
 10 11  1  0  0  0  0
 10 14  1  0  0  0  0
 10 15  2  0  0  0  0
 11 16  2  0  0  0  0
 11 17  1  0  0  0  0
 12 13  1  0  0  0  0
 12 14  2  0  0  0  0
 16 25  1  0  0  0  0
 17 18  2  0  0  0  0
 18 19  1  0  0  0  0
 18 20  1  0  0  0  0
 21 26  1  0  0  0  0
 22 27  1  0  0  0  0
 23 28  1  0  0  0  0
 23 30  2  0  0  0  0
 28 29  2  0  0  0  0
 29 31  1  0  0  0  0
 29 32  1  0  0  0  0
 30 33  1  0  0  0  0
 31 33  2  0  0  0  0
M  END
> <PUBCHEM_COMPOUND_ID_TYPE>
0

> <PUBCHEM_TOTAL_CHARGE>
0

> <PUBCHEM_SUBSTANCE_ID>
310943353

> <PUBCHEM_SUBSTANCE_VERSION>
1

> <PUBCHEM_EXT_DATASOURCE_NAME>
4488

> <PUBCHEM_EXT_DATASOURCE_REGID>
SCHEMBL16121416

> <PUBCHEM_SUBSTANCE_COMMENT>
InChI=1S/C24H24F2N4O3/c1-15-20(18-12-21(24(32)29(2)14-18)30-6-8-33-9-7-30)11-17(13-27-15)23(31)28-19-5-3-4-16(10-19)22(25)26/h3-5,10-14,22H,6-9H2,1-2H3,(H,28,31)
InChIKey=XVSAYPCSLPSSHB-UHFFFAOYSA-N

> <PUBCHEM_SUBSTANCE_SYNONYM>
SCHEMBL16121416

> <PUBCHEM_XREF_EXT_ID>
SCHEMBL16121416

> <PUBCHEM_EXT_DATASOURCE_URL>
https://www.surechembl.org/

> <PUBCHEM_EXT_SUBSTANCE_URL>
https://www.surechembl.org/chemical/SCHEMBL16121416

> <PUBCHEM_CID_ASSOCIATIONS>
117609777  1

> <PUBCHEM_COORDINATE_TYPE>
1
3

$$$$
