310942872
  -OEChem-07211613022D

 39 42  0     0  0  0  0  0  0999 V2000
   -3.8133    2.5351    0.0000 Cl  0  0  0  0  0  0  0  0  0  0  0  0
    2.3556    2.4507    0.0000 S   0  0  0  0  0  0  0  0  0  0  0  0
    2.4401    4.1830    0.0000 S   0  0  0  0  0  0  0  0  0  0  0  0
    0.8979    3.2957    0.0000 F   0  0  0  0  0  0  0  0  0  0  0  0
    0.8556    0.0000    0.0000 F   0  0  0  0  0  0  0  0  0  0  0  0
   -0.6021    0.8451    0.0000 O   0  0  0  0  0  0  0  0  0  0  0  0
    1.9542    3.1689    0.0000 O   0  0  0  0  0  0  0  0  0  0  0  0
    2.7781    1.7324    0.0000 O   0  0  0  0  0  0  0  0  0  0  0  0
    0.1162   -1.2465    0.0000 O   0  0  0  0  0  0  0  0  0  0  0  0
    1.5528   -3.7394    0.0000 O   0  0  0  0  0  0  0  0  0  0  0  0
    0.7923   -4.9647    0.0000 O   0  0  0  0  0  0  0  0  0  0  0  0
    3.1161    2.8521    0.0000 N   0  0  0  0  0  0  0  0  0  0  0  0
    3.8133    4.1619    0.0000 N   0  0  0  0  0  0  0  0  0  0  0  0
   -2.1021   -1.6268    0.0000 N   0  0  0  0  0  0  0  0  0  0  0  0
    2.7148    4.9647    0.0000 N   0  0  0  0  0  0  0  0  0  0  0  0
   -0.6444   -2.4718    0.0000 N   0  0  0  0  0  0  0  0  0  0  0  0
    1.6373    2.0492    0.0000 C   0  0  0  0  0  0  0  0  0  0  0  0
    0.8979    2.4718    0.0000 C   0  0  0  0  0  0  0  0  0  0  0  0
    0.1373    1.2465    0.0000 C   0  0  0  0  0  0  0  0  0  0  0  0
    0.8767    0.8451    0.0000 C   0  0  0  0  0  0  0  0  0  0  0  0
    1.5950    1.2253    0.0000 C   0  0  0  0  0  0  0  0  0  0  0  0
    0.1795    2.0704    0.0000 C   0  0  0  0  0  0  0  0  0  0  0  0
   -1.3416    1.2676    0.0000 C   0  0  0  0  0  0  0  0  0  0  0  0
   -2.0809    0.8662    0.0000 C   0  0  0  0  0  0  0  0  0  0  0  0
   -2.1021    0.0422    0.0000 C   0  0  0  0  0  0  0  0  0  0  0  0
    3.1373    3.6971    0.0000 C   0  0  0  0  0  0  0  0  0  0  0  0
   -2.7993    1.2676    0.0000 C   0  0  0  0  0  0  0  0  0  0  0  0
   -1.3416    2.0704    0.0000 C   0  0  0  0  0  0  0  0  0  0  0  0
   -1.3416   -0.4014    0.0000 C   0  0  0  0  0  0  0  0  0  0  0  0
   -2.7781    2.1127    0.0000 C   0  0  0  0  0  0  0  0  0  0  0  0
   -1.3838   -1.2253    0.0000 C   0  0  0  0  0  0  0  0  0  0  0  0
   -2.7993   -0.3592    0.0000 C   0  0  0  0  0  0  0  0  0  0  0  0
   -2.0809    2.4929    0.0000 C   0  0  0  0  0  0  0  0  0  0  0  0
   -2.8203   -1.2253    0.0000 C   0  0  0  0  0  0  0  0  0  0  0  0
   -0.6444   -1.6478    0.0000 C   0  0  0  0  0  0  0  0  0  0  0  0
    3.5598    4.9436    0.0000 C   0  0  0  0  0  0  0  0  0  0  0  0
    0.0951   -2.9154    0.0000 C   0  0  0  0  0  0  0  0  0  0  0  0
    0.0739   -3.7182    0.0000 C   0  0  0  0  0  0  0  0  0  0  0  0
    0.7923   -4.1619    0.0000 C   0  0  0  0  0  0  0  0  0  0  0  0
  1 30  1  0  0  0  0
  2  7  2  0  0  0  0
  2  8  2  0  0  0  0
  2 12  1  0  0  0  0
  2 17  1  0  0  0  0
  3 15  1  0  0  0  0
  3 26  1  0  0  0  0
  4 18  1  0  0  0  0
  5 20  1  0  0  0  0
  6 19  1  0  0  0  0
  6 23  1  0  0  0  0
  9 35  2  0  0  0  0
 10 39  2  0  0  0  0
 11 39  1  0  0  0  0
 12 26  1  0  0  0  0
 13 26  2  0  0  0  0
 13 36  1  0  0  0  0
 14 31  1  0  0  0  0
 14 34  2  0  0  0  0
 15 36  2  0  0  0  0
 16 35  1  0  0  0  0
 16 37  1  0  0  0  0
 17 18  1  0  0  0  0
 17 21  2  0  0  0  0
 18 22  2  0  0  0  0
 19 20  2  0  0  0  0
 19 22  1  0  0  0  0
 20 21  1  0  0  0  0
 23 24  2  0  0  0  0
 23 28  1  0  0  0  0
 24 25  1  0  0  0  0
 24 27  1  0  0  0  0
 25 29  1  0  0  0  0
 25 32  2  0  0  0  0
 27 30  2  0  0  0  0
 28 33  2  0  0  0  0
 29 31  2  0  0  0  0
 30 33  1  0  0  0  0
 31 35  1  0  0  0  0
 32 34  1  0  0  0  0
 37 38  1  0  0  0  0
 38 39  1  0  0  0  0
M  END
> <PUBCHEM_COMPOUND_ID_TYPE>
0

> <PUBCHEM_TOTAL_CHARGE>
0

> <PUBCHEM_SUBSTANCE_ID>
310942872

> <PUBCHEM_SUBSTANCE_VERSION>
1

> <PUBCHEM_EXT_DATASOURCE_NAME>
4488

> <PUBCHEM_EXT_DATASOURCE_REGID>
SCHEMBL16120930

> <PUBCHEM_SUBSTANCE_COMMENT>
InChI=1S/C23H16ClF2N5O6S2/c24-13-1-2-18(14(8-13)12-3-5-27-17(7-12)22(34)28-6-4-21(32)33)37-19-9-16(26)20(10-15(19)25)39(35,36)31-23-29-11-30-38-23/h1-3,5,7-11H,4,6H2,(H,28,34)(H,32,33)(H,29,30,31)
InChIKey=JLSMERLIZSAYDJ-UHFFFAOYSA-N

> <PUBCHEM_SUBSTANCE_SYNONYM>
SCHEMBL16120930

> <PUBCHEM_XREF_EXT_ID>
SCHEMBL16120930

> <PUBCHEM_EXT_DATASOURCE_URL>
https://www.surechembl.org/

> <PUBCHEM_EXT_SUBSTANCE_URL>
https://www.surechembl.org/chemical/SCHEMBL16120930

> <PUBCHEM_CID_ASSOCIATIONS>
85471880  1

> <PUBCHEM_COORDINATE_TYPE>
1
3

$$$$
