310943432
  -OEChem-07211613022D

 35 38  0     0  0  0  0  0  0999 V2000
    4.3194   -2.0472    0.0000 F   0  0  0  0  0  0  0  0  0  0  0  0
    3.5208   -2.8602    0.0000 F   0  0  0  0  0  0  0  0  0  0  0  0
    2.7223   -2.0472    0.0000 F   0  0  0  0  0  0  0  0  0  0  0  0
   -2.8965    0.0000    0.0000 O   0  0  0  0  0  0  0  0  0  0  0  0
    1.3720    0.0000    0.0000 O   0  0  0  0  0  0  0  0  0  0  0  0
   -4.3194    2.4537    0.0000 O   0  0  0  0  0  0  0  0  0  0  0  0
   -2.8965    1.6406    0.0000 N   0  0  0  0  0  0  0  0  0  0  0  0
   -1.4736    0.0146    0.0000 N   0  0  0  0  0  0  0  0  0  0  0  0
    2.0835    1.2341    0.0000 N   0  0  0  0  0  0  0  0  0  0  0  0
    0.6606    2.8602    0.0000 N   0  0  0  0  0  0  0  0  0  0  0  0
    4.2177   -0.8131    0.0000 N   0  0  0  0  0  0  0  0  0  0  0  0
    4.2177    0.0000    0.0000 N   0  0  0  0  0  0  0  0  0  0  0  0
   -0.7477    1.2487    0.0000 C   0  0  0  0  0  0  0  0  0  0  0  0
   -0.0654    1.6406    0.0000 C   0  0  0  0  0  0  0  0  0  0  0  0
   -2.1705    1.2487    0.0000 C   0  0  0  0  0  0  0  0  0  0  0  0
   -2.1851    0.4210    0.0000 C   0  0  0  0  0  0  0  0  0  0  0  0
   -1.4882    1.6406    0.0000 C   0  0  0  0  0  0  0  0  0  0  0  0
   -0.0508    2.4682    0.0000 C   0  0  0  0  0  0  0  0  0  0  0  0
    1.3575    1.6406    0.0000 C   0  0  0  0  0  0  0  0  0  0  0  0
    0.6606    1.2487    0.0000 C   0  0  0  0  0  0  0  0  0  0  0  0
   -0.7623    0.4210    0.0000 C   0  0  0  0  0  0  0  0  0  0  0  0
    2.7949    0.0146    0.0000 C   0  0  0  0  0  0  0  0  0  0  0  0
    3.5063   -1.2196    0.0000 C   0  0  0  0  0  0  0  0  0  0  0  0
    2.0835    0.4356    0.0000 C   0  0  0  0  0  0  0  0  0  0  0  0
    3.5063   -2.0472    0.0000 C   0  0  0  0  0  0  0  0  0  0  0  0
    2.7949   -0.7985    0.0000 C   0  0  0  0  0  0  0  0  0  0  0  0
    1.3720    2.4537    0.0000 C   0  0  0  0  0  0  0  0  0  0  0  0
    3.4773    0.4065    0.0000 C   0  0  0  0  0  0  0  0  0  0  0  0
   -2.8965    2.4537    0.0000 C   0  0  0  0  0  0  0  0  0  0  0  0
   -3.5789    1.2487    0.0000 C   0  0  0  0  0  0  0  0  0  0  0  0
   -0.7767    2.8602    0.0000 C   0  0  0  0  0  0  0  0  0  0  0  0
   -3.6079    2.8602    0.0000 C   0  0  0  0  0  0  0  0  0  0  0  0
   -4.3194    1.6406    0.0000 C   0  0  0  0  0  0  0  0  0  0  0  0
   -3.5934    0.4210    0.0000 C   0  0  0  0  0  0  0  0  0  0  0  0
   -4.3048   -0.0146    0.0000 C   0  0  0  0  0  0  0  0  0  0  0  0
  1 25  1  0  0  0  0
  2 25  1  0  0  0  0
  3 25  1  0  0  0  0
  4 16  1  0  0  0  0
  4 34  1  0  0  0  0
  5 24  2  0  0  0  0
  6 32  1  0  0  0  0
  6 33  1  0  0  0  0
  7 15  1  0  0  0  0
  7 29  1  0  0  0  0
  7 30  1  0  0  0  0
  8 16  2  0  0  0  0
  8 21  1  0  0  0  0
  9 19  1  0  0  0  0
  9 24  1  0  0  0  0
 10 18  1  0  0  0  0
 10 27  2  0  0  0  0
 11 12  1  0  0  0  0
 11 23  2  0  0  0  0
 12 28  2  0  0  0  0
 13 14  1  0  0  0  0
 13 17  1  0  0  0  0
 13 21  2  0  0  0  0
 14 18  2  0  0  0  0
 14 20  1  0  0  0  0
 15 16  1  0  0  0  0
 15 17  2  0  0  0  0
 18 31  1  0  0  0  0
 19 20  2  0  0  0  0
 19 27  1  0  0  0  0
 22 24  1  0  0  0  0
 22 26  2  0  0  0  0
 22 28  1  0  0  0  0
 23 25  1  0  0  0  0
 23 26  1  0  0  0  0
 29 32  1  0  0  0  0
 30 33  1  0  0  0  0
 34 35  1  0  0  0  0
M  END
> <PUBCHEM_COMPOUND_ID_TYPE>
0

> <PUBCHEM_TOTAL_CHARGE>
0

> <PUBCHEM_SUBSTANCE_ID>
310943432

> <PUBCHEM_SUBSTANCE_VERSION>
1

> <PUBCHEM_EXT_DATASOURCE_NAME>
4488

> <PUBCHEM_EXT_DATASOURCE_REGID>
SCHEMBL16121496

> <PUBCHEM_SUBSTANCE_COMMENT>
InChI=1S/C23H23F3N6O3/c1-3-35-22-19(32-4-6-34-7-5-32)8-15(11-28-22)18-10-17(13-27-14(18)2)30-21(33)16-9-20(23(24,25)26)31-29-12-16/h8-13H,3-7H2,1-2H3,(H,30,33)
InChIKey=WNBAOVOWNKRVEC-UHFFFAOYSA-N

> <PUBCHEM_SUBSTANCE_SYNONYM>
SCHEMBL16121496

> <PUBCHEM_XREF_EXT_ID>
SCHEMBL16121496

> <PUBCHEM_EXT_DATASOURCE_URL>
https://www.surechembl.org/

> <PUBCHEM_EXT_SUBSTANCE_URL>
https://www.surechembl.org/chemical/SCHEMBL16121496

> <PUBCHEM_CID_ASSOCIATIONS>
117609856  1

> <PUBCHEM_COORDINATE_TYPE>
1
3

$$$$
