310949575
  -OEChem-07211613022D

 42 47  0     1  0  0  0  0  0999 V2000
   -1.4886    2.1364    0.0000 O   0  0  0  0  0  0  0  0  0  0  0  0
    4.5032   -0.2803    0.0000 O   0  0  0  0  0  0  0  0  0  0  0  0
    5.8362    0.1308    0.0000 O   0  0  0  0  0  0  0  0  0  0  0  0
    1.4762   -0.1931    0.0000 N   0  0  0  0  0  0  0  0  0  0  0  0
    1.9620    0.4796    0.0000 N   0  0  0  0  0  0  0  0  0  0  0  0
   -2.1862    0.9031    0.0000 N   0  0  0  0  0  0  0  0  0  0  0  0
    0.6664    0.0810    0.0000 C   0  0  0  0  0  0  0  0  0  0  0  0
    0.6789    0.9031    0.0000 C   0  0  0  0  0  0  0  0  0  0  0  0
    1.4638    1.1647    0.0000 C   0  0  0  0  0  0  0  0  0  0  0  0
   -0.7536    0.9031    0.0000 C   0  0  0  0  0  0  0  0  0  0  0  0
   -0.0436    1.3017    0.0000 C   0  0  0  0  0  0  0  0  0  0  0  0
   -0.0311   -0.3426    0.0000 C   0  0  0  0  0  0  0  0  0  0  0  0
   -2.9212    1.3143    0.0000 C   0  0  3  0  0  0  0  0  0  0  0  0
   -1.4886    1.3017    0.0000 C   0  0  0  0  0  0  0  0  0  0  0  0
   -0.7412    0.0685    0.0000 C   0  0  0  0  0  0  0  0  0  0  0  0
    1.6879   -0.9903    0.0000 C   0  0  0  0  0  0  0  0  0  0  0  0
   -2.9087    2.1489    0.0000 C   0  0  0  0  0  0  0  0  0  0  0  0
    2.4852   -1.2021    0.0000 C   0  0  0  0  0  0  0  0  0  0  0  0
   -3.6313    0.9031    0.0000 C   0  0  0  0  0  0  0  0  0  0  0  0
   -2.4977    2.8589    0.0000 C   0  0  0  0  0  0  0  0  0  0  0  0
   -3.3198    2.8589    0.0000 C   0  0  0  0  0  0  0  0  0  0  0  0
    4.0921   -1.6257    0.0000 C   0  0  0  0  0  0  0  0  0  0  0  0
    4.8895   -1.8499    0.0000 C   0  0  0  0  0  0  0  0  0  0  0  0
    1.8747    1.8623    0.0000 C   0  0  0  0  0  0  0  0  0  0  0  0
    2.7094   -1.9993    0.0000 C   0  0  0  0  0  0  0  0  0  0  0  0
    3.0707   -0.6291    0.0000 C   0  0  0  0  0  0  0  0  0  0  0  0
   -4.3662    1.3017    0.0000 C   0  0  0  0  0  0  0  0  0  0  0  0
    5.4749   -1.2520    0.0000 C   0  0  0  0  0  0  0  0  0  0  0  0
    3.5067   -2.2236    0.0000 C   0  0  0  0  0  0  0  0  0  0  0  0
    3.8804   -0.8408    0.0000 C   0  0  0  0  0  0  0  0  0  0  0  0
   -3.6313    0.0685    0.0000 C   0  0  0  0  0  0  0  0  0  0  0  0
   -5.0762    0.9031    0.0000 C   0  0  0  0  0  0  0  0  0  0  0  0
    5.1260   -2.6471    0.0000 C   0  0  0  0  0  0  0  0  0  0  0  0
   -4.3413   -0.3426    0.0000 C   0  0  0  0  0  0  0  0  0  0  0  0
    5.2631   -0.4672    0.0000 C   0  0  0  0  0  0  0  0  0  0  0  0
   -5.0637    0.0685    0.0000 C   0  0  0  0  0  0  0  0  0  0  0  0
    6.2845   -1.4886    0.0000 C   0  0  0  0  0  0  0  0  0  0  0  0
   -5.7988    1.3143    0.0000 C   0  0  0  0  0  0  0  0  0  0  0  0
    5.9234   -2.8589    0.0000 C   0  0  0  0  0  0  0  0  0  0  0  0
    6.4964   -2.2859    0.0000 C   0  0  0  0  0  0  0  0  0  0  0  0
   -6.4964    0.8907    0.0000 C   0  0  0  0  0  0  0  0  0  0  0  0
   -5.7988    2.1364    0.0000 C   0  0  0  0  0  0  0  0  0  0  0  0
  1 14  2  0  0  0  0
  2 35  2  0  0  0  0
  3 35  1  0  0  0  0
  4  5  1  0  0  0  0
  4  7  1  0  0  0  0
  4 16  1  0  0  0  0
  5  9  2  0  0  0  0
 13  6  1  6  0  0  0
  6 14  1  0  0  0  0
  7  8  1  0  0  0  0
  7 12  2  0  0  0  0
  8  9  1  0  0  0  0
  8 11  2  0  0  0  0
  9 24  1  0  0  0  0
 10 11  1  0  0  0  0
 10 14  1  0  0  0  0
 10 15  2  0  0  0  0
 12 15  1  0  0  0  0
 13 17  1  0  0  0  0
 13 19  1  0  0  0  0
 16 18  1  0  0  0  0
 17 20  1  0  0  0  0
 17 21  1  0  0  0  0
 18 25  2  0  0  0  0
 18 26  1  0  0  0  0
 19 27  2  0  0  0  0
 19 31  1  0  0  0  0
 20 21  1  0  0  0  0
 22 23  1  0  0  0  0
 22 29  2  0  0  0  0
 22 30  1  0  0  0  0
 23 28  1  0  0  0  0
 23 33  2  0  0  0  0
 25 29  1  0  0  0  0
 26 30  2  0  0  0  0
 27 32  1  0  0  0  0
 28 35  1  0  0  0  0
 28 37  2  0  0  0  0
 31 34  2  0  0  0  0
 32 36  2  0  0  0  0
 32 38  1  0  0  0  0
 33 39  1  0  0  0  0
 34 36  1  0  0  0  0
 37 40  1  0  0  0  0
 38 41  1  0  0  0  0
 38 42  1  0  0  0  0
 39 40  2  0  0  0  0
M  END
> <PUBCHEM_COMPOUND_ID_TYPE>
0

> <PUBCHEM_TOTAL_CHARGE>
0

> <PUBCHEM_SUBSTANCE_ID>
310949575

> <PUBCHEM_SUBSTANCE_VERSION>
1

> <PUBCHEM_EXT_DATASOURCE_NAME>
4488

> <PUBCHEM_EXT_DATASOURCE_REGID>
SCHEMBL16127771

> <PUBCHEM_SUBSTANCE_COMMENT>
InChI=1S/C36H35N3O3/c1-22(2)27-7-6-8-28(19-27)34(26-15-16-26)37-35(40)29-17-18-33-32(20-29)23(3)38-39(33)21-24-11-13-25(14-12-24)30-9-4-5-10-31(30)36(41)42/h4-14,17-20,22,26,34H,15-16,21H2,1-3H3,(H,37,40)(H,41,42)/t34-/m0/s1
InChIKey=PXELYBKILINUOZ-UMSFTDKQSA-N

> <PUBCHEM_SUBSTANCE_SYNONYM>
SCHEMBL16127771

> <PUBCHEM_XREF_EXT_ID>
SCHEMBL16127771

> <PUBCHEM_EXT_DATASOURCE_URL>
https://www.surechembl.org/

> <PUBCHEM_EXT_SUBSTANCE_URL>
https://www.surechembl.org/chemical/SCHEMBL16127771

> <PUBCHEM_CID_ASSOCIATIONS>
71578058  1

> <PUBCHEM_COORDINATE_TYPE>
1
3

> <PUBCHEM_BONDANNOTATIONS>
13  6  6

$$$$
