310933471
  -OEChem-07211613022D

 19 20  0     1  0  0  0  0  0999 V2000
    1.7798    1.0799    0.0000 S   0  0  0  0  0  0  0  0  0  0  0  0
    6.1368    2.0625    0.0000 F   0  0  0  0  0  0  0  0  0  0  0  0
    5.0098    2.3645    0.0000 F   0  0  0  0  0  0  0  0  0  0  0  0
    5.8348    0.9355    0.0000 F   0  0  0  0  0  0  0  0  0  0  0  0
    3.2789    1.2375    0.0000 O   0  0  0  0  0  0  0  0  0  0  0  0
    4.2954    1.9520    0.0000 O   0  0  0  0  0  0  0  0  0  0  0  0
    4.7079   -0.4125    0.0000 O   0  0  0  0  0  0  0  0  0  0  0  0
    1.7798   -0.2549    0.0000 N   0  0  0  0  0  0  0  0  0  0  0  0
    0.4699    0.4125    0.0000 N   0  0  0  0  0  0  0  0  0  0  0  0
    4.7079    1.2375    0.0000 C   0  0  3  0  0  0  0  0  0  0  0  0
    3.9934    0.8250    0.0000 C   0  0  3  0  0  0  0  0  0  0  0  0
    5.4223    1.6500    0.0000 C   0  0  0  0  0  0  0  0  0  0  0  0
    2.5645    0.8250    0.0000 C   0  0  3  0  0  0  0  0  0  0  0  0
    3.9934    0.0000    0.0000 C   0  0  3  0  0  0  0  0  0  0  0  0
    2.5645    0.0000    0.0000 C   0  0  3  0  0  0  0  0  0  0  0  0
    3.2789   -0.4125    0.0000 C   0  0  0  0  0  0  0  0  0  0  0  0
    1.2949    0.4125    0.0000 C   0  0  0  0  0  0  0  0  0  0  0  0
    5.1204    0.5230    0.0000 C   0  0  0  0  0  0  0  0  0  0  0  0
    0.0574   -0.3020    0.0000 C   0  0  0  0  0  0  0  0  0  0  0  0
 13  1  1  1  0  0  0
  1 17  1  0  0  0  0
  2 12  1  0  0  0  0
  3 12  1  0  0  0  0
  4 12  1  0  0  0  0
  5 11  1  0  0  0  0
  5 13  1  0  0  0  0
  6 10  1  0  0  0  0
 14  7  1  1  0  0  0
  8 15  1  0  0  0  0
  8 17  2  0  0  0  0
  9 17  1  0  0  0  0
  9 19  1  0  0  0  0
 11 10  1  6  0  0  0
 10 12  1  0  0  0  0
 10 18  1  0  0  0  0
 11 14  1  0  0  0  0
 13 15  1  0  0  0  0
 14 16  1  0  0  0  0
 15 16  1  1  0  0  0
M  END
> <PUBCHEM_COMPOUND_ID_TYPE>
0

> <PUBCHEM_TOTAL_CHARGE>
0

> <PUBCHEM_SUBSTANCE_ID>
310933471

> <PUBCHEM_SUBSTANCE_VERSION>
1

> <PUBCHEM_EXT_DATASOURCE_NAME>
4488

> <PUBCHEM_EXT_DATASOURCE_REGID>
SCHEMBL16110889

> <PUBCHEM_SUBSTANCE_COMMENT>
InChI=1S/C10H15F3N2O3S/c1-9(17,10(11,12)13)6-5(16)3-4-7(18-6)19-8(14-2)15-4/h4-7,16-17H,3H2,1-2H3,(H,14,15)/t4-,5+,6+,7-,9?/m1/s1
InChIKey=YWOZUIPPEPMOEX-ZUICFHLWSA-N

> <PUBCHEM_SUBSTANCE_SYNONYM>
SCHEMBL16110889

> <PUBCHEM_XREF_EXT_ID>
SCHEMBL16110889

> <PUBCHEM_EXT_DATASOURCE_URL>
https://www.surechembl.org/

> <PUBCHEM_EXT_SUBSTANCE_URL>
https://www.surechembl.org/chemical/SCHEMBL16110889

> <PUBCHEM_CID_ASSOCIATIONS>
117601868  1

> <PUBCHEM_COORDINATE_TYPE>
1
3

> <PUBCHEM_BONDANNOTATIONS>
13  1  5
11  10  6
15  16  5
14  7  5

$$$$
