310940318
  -OEChem-07211613022D

 15 16  0     0  0  0  0  0  0999 V2000
   -1.1223   -0.6236    0.0000 O   0  0  0  0  0  0  0  0  0  0  0  0
    0.3602    0.2910    0.0000 N   0  0  0  0  0  0  0  0  0  0  0  0
   -0.3602   -0.9422    0.0000 C   0  0  0  0  0  0  0  0  0  0  0  0
    1.0947    0.6928    0.0000 C   0  0  0  0  0  0  0  0  0  0  0  0
   -1.6766   -1.2332    0.0000 C   0  0  0  0  0  0  0  0  0  0  0  0
    1.0808    1.5381    0.0000 C   0  0  0  0  0  0  0  0  0  0  0  0
    0.3464   -0.5404    0.0000 C   0  0  0  0  0  0  0  0  0  0  0  0
   -0.4573   -1.7736    0.0000 C   0  0  0  0  0  0  0  0  0  0  0  0
   -1.2609   -1.9399    0.0000 C   0  0  0  0  0  0  0  0  0  0  0  0
    1.8013    0.3048    0.0000 C   0  0  0  0  0  0  0  0  0  0  0  0
    1.7875    1.9399    0.0000 C   0  0  0  0  0  0  0  0  0  0  0  0
    2.5080    0.7067    0.0000 C   0  0  0  0  0  0  0  0  0  0  0  0
    2.5080    1.5381    0.0000 C   0  0  0  0  0  0  0  0  0  0  0  0
   -2.5080   -1.1639    0.0000 C   0  0  0  0  0  0  0  0  0  0  0  0
    0.3602    1.9399    0.0000 C   0  0  0  0  0  0  0  0  0  0  0  0
  1  3  1  0  0  0  0
  1  5  1  0  0  0  0
  2  4  1  0  0  0  0
  2  7  2  0  0  0  0
  3  7  1  0  0  0  0
  3  8  2  0  0  0  0
  4  6  1  0  0  0  0
  4 10  2  0  0  0  0
  5  9  2  0  0  0  0
  5 14  1  0  0  0  0
  6 11  2  0  0  0  0
  6 15  1  0  0  0  0
  8  9  1  0  0  0  0
 10 12  1  0  0  0  0
 11 13  1  0  0  0  0
 12 13  2  0  0  0  0
M  END
> <PUBCHEM_COMPOUND_ID_TYPE>
0

> <PUBCHEM_TOTAL_CHARGE>
0

> <PUBCHEM_SUBSTANCE_ID>
310940318

> <PUBCHEM_SUBSTANCE_VERSION>
1

> <PUBCHEM_EXT_DATASOURCE_NAME>
4488

> <PUBCHEM_EXT_DATASOURCE_REGID>
SCHEMBL16118262

> <PUBCHEM_SUBSTANCE_COMMENT>
InChI=1S/C13H13NO/c1-10-5-3-4-6-13(10)14-9-12-8-7-11(2)15-12/h3-9H,1-2H3/b14-9+
InChIKey=NYDNPDAFJPVAMB-NTEUORMPSA-N

> <PUBCHEM_SUBSTANCE_SYNONYM>
SCHEMBL16118262

> <PUBCHEM_XREF_EXT_ID>
SCHEMBL16118262

> <PUBCHEM_EXT_DATASOURCE_URL>
https://www.surechembl.org/

> <PUBCHEM_EXT_SUBSTANCE_URL>
https://www.surechembl.org/chemical/SCHEMBL16118262

> <PUBCHEM_CID_ASSOCIATIONS>
86051396  1

> <PUBCHEM_COORDINATE_TYPE>
1
3

> <PUBCHEM_BONDANNOTATIONS>
2  4  3

$$$$
