310940129
  -OEChem-07211613022D

 68 81  0     0  0  0  0  0  0999 V2000
    7.2123    9.7242    0.0000 O   0  0  0  0  0  0  0  0  0  0  0  0
   11.9994   11.3905    0.0000 N   0  0  0  0  0  0  0  0  0  0  0  0
   10.2085   14.8636    0.0000 N   0  0  0  0  0  0  0  0  0  0  0  0
    3.1383   13.7987    0.0000 N   0  0  0  0  0  0  0  0  0  0  0  0
   12.4119   12.6601    0.0000 N   0  0  0  0  0  0  0  0  0  0  0  0
    8.9388   14.4510    0.0000 N   0  0  0  0  0  0  0  0  0  0  0  0
   11.7444   12.1751    0.0000 C   0  0  0  0  0  0  0  0  0  0  0  0
    9.7235   14.1960    0.0000 C   0  0  0  0  0  0  0  0  0  0  0  0
   10.9475   12.3887    0.0000 C   0  0  0  0  0  0  0  0  0  0  0  0
    9.9370   13.3992    0.0000 C   0  0  0  0  0  0  0  0  0  0  0  0
    9.5672   12.0188    0.0000 C   0  0  0  0  0  0  0  0  0  0  0  0
    3.3100   14.6058    0.0000 C   0  0  0  0  0  0  0  0  0  0  0  0
    2.3178   13.7124    0.0000 C   0  0  0  0  0  0  0  0  0  0  0  0
    7.6247   10.9938    0.0000 C   0  0  0  0  0  0  0  0  0  0  0  0
   12.8244   11.3905    0.0000 C   0  0  0  0  0  0  0  0  0  0  0  0
    9.7235   15.5310    0.0000 C   0  0  0  0  0  0  0  0  0  0  0  0
    2.5955   15.0182    0.0000 C   0  0  0  0  0  0  0  0  0  0  0  0
    1.9823   14.4662    0.0000 C   0  0  0  0  0  0  0  0  0  0  0  0
    6.7997   10.9938    0.0000 C   0  0  0  0  0  0  0  0  0  0  0  0
    8.9839   11.4354    0.0000 C   0  0  0  0  0  0  0  0  0  0  0  0
   10.7340   13.1855    0.0000 C   0  0  0  0  0  0  0  0  0  0  0  0
   13.0794   12.1751    0.0000 C   0  0  0  0  0  0  0  0  0  0  0  0
    8.9388   15.2760    0.0000 C   0  0  0  0  0  0  0  0  0  0  0  0
    7.8797   10.2091    0.0000 C   0  0  0  0  0  0  0  0  0  0  0  0
   10.3642   11.8052    0.0000 C   0  0  0  0  0  0  0  0  0  0  0  0
    9.3537   12.8157    0.0000 C   0  0  0  0  0  0  0  0  0  0  0  0
    6.5447   10.2091    0.0000 C   0  0  0  0  0  0  0  0  0  0  0  0
    3.6904   13.1855    0.0000 C   0  0  0  0  0  0  0  0  0  0  0  0
    8.1768   11.6070    0.0000 C   0  0  0  0  0  0  0  0  0  0  0  0
   11.5869   10.6760    0.0000 C   0  0  0  0  0  0  0  0  0  0  0  0
   11.0335   14.8636    0.0000 C   0  0  0  0  0  0  0  0  0  0  0  0
    5.4406   11.4354    0.0000 C   0  0  0  0  0  0  0  0  0  0  0  0
    6.2476   11.6070    0.0000 C   0  0  0  0  0  0  0  0  0  0  0  0
    9.2387   10.6508    0.0000 C   0  0  0  0  0  0  0  0  0  0  0  0
    8.6868   10.0376    0.0000 C   0  0  0  0  0  0  0  0  0  0  0  0
    4.8572   12.0188    0.0000 C   0  0  0  0  0  0  0  0  0  0  0  0
    4.0244   15.0182    0.0000 C   0  0  0  0  0  0  0  0  0  0  0  0
    1.8329   13.0450    0.0000 C   0  0  0  0  0  0  0  0  0  0  0  0
   13.3765   10.7774    0.0000 C   0  0  0  0  0  0  0  0  0  0  0  0
    9.8950   16.3379    0.0000 C   0  0  0  0  0  0  0  0  0  0  0  0
    2.5955   15.8433    0.0000 C   0  0  0  0  0  0  0  0  0  0  0  0
    1.1618   14.5524    0.0000 C   0  0  0  0  0  0  0  0  0  0  0  0
    5.7378   10.0376    0.0000 C   0  0  0  0  0  0  0  0  0  0  0  0
   13.8864   12.3467    0.0000 C   0  0  0  0  0  0  0  0  0  0  0  0
    8.3258   15.8281    0.0000 C   0  0  0  0  0  0  0  0  0  0  0  0
    3.4769   12.3887    0.0000 C   0  0  0  0  0  0  0  0  0  0  0  0
    4.4874   13.3992    0.0000 C   0  0  0  0  0  0  0  0  0  0  0  0
    5.1857   10.6508    0.0000 C   0  0  0  0  0  0  0  0  0  0  0  0
    4.0604   11.8052    0.0000 C   0  0  0  0  0  0  0  0  0  0  0  0
    5.0707   12.8157    0.0000 C   0  0  0  0  0  0  0  0  0  0  0  0
   10.7619   10.6760    0.0000 C   0  0  0  0  0  0  0  0  0  0  0  0
   11.9994    9.9614    0.0000 C   0  0  0  0  0  0  0  0  0  0  0  0
   11.4461   14.1490    0.0000 C   0  0  0  0  0  0  0  0  0  0  0  0
   11.4461   15.5780    0.0000 C   0  0  0  0  0  0  0  0  0  0  0  0
    4.0244   15.8433    0.0000 C   0  0  0  0  0  0  0  0  0  0  0  0
    1.0124   13.1313    0.0000 C   0  0  0  0  0  0  0  0  0  0  0  0
    3.3100   16.2558    0.0000 C   0  0  0  0  0  0  0  0  0  0  0  0
    0.6768   13.8850    0.0000 C   0  0  0  0  0  0  0  0  0  0  0  0
   14.1835   10.9489    0.0000 C   0  0  0  0  0  0  0  0  0  0  0  0
    9.2820   16.8900    0.0000 C   0  0  0  0  0  0  0  0  0  0  0  0
   14.4385   11.7336    0.0000 C   0  0  0  0  0  0  0  0  0  0  0  0
    8.4973   16.6350    0.0000 C   0  0  0  0  0  0  0  0  0  0  0  0
   10.3493    9.9614    0.0000 C   0  0  0  0  0  0  0  0  0  0  0  0
   11.5869    9.2469    0.0000 C   0  0  0  0  0  0  0  0  0  0  0  0
   12.2711   14.1490    0.0000 C   0  0  0  0  0  0  0  0  0  0  0  0
   12.2711   15.5780    0.0000 C   0  0  0  0  0  0  0  0  0  0  0  0
   10.7619    9.2469    0.0000 C   0  0  0  0  0  0  0  0  0  0  0  0
   12.6836   14.8636    0.0000 C   0  0  0  0  0  0  0  0  0  0  0  0
  1 24  1  0  0  0  0
  1 27  1  0  0  0  0
  2  7  1  0  0  0  0
  2 15  1  0  0  0  0
  2 30  1  0  0  0  0
  3  8  1  0  0  0  0
  3 16  1  0  0  0  0
  3 31  1  0  0  0  0
  4 12  1  0  0  0  0
  4 13  1  0  0  0  0
  4 28  1  0  0  0  0
  5  7  2  0  0  0  0
  5 22  1  0  0  0  0
  6  8  2  0  0  0  0
  6 23  1  0  0  0  0
  7  9  1  0  0  0  0
  8 10  1  0  0  0  0
  9 21  2  0  0  0  0
  9 25  1  0  0  0  0
 10 21  1  0  0  0  0
 10 26  2  0  0  0  0
 11 20  1  0  0  0  0
 11 25  2  0  0  0  0
 11 26  1  0  0  0  0
 12 17  2  0  0  0  0
 12 37  1  0  0  0  0
 13 18  2  0  0  0  0
 13 38  1  0  0  0  0
 14 19  1  0  0  0  0
 14 24  2  0  0  0  0
 14 29  1  0  0  0  0
 15 22  2  0  0  0  0
 15 39  1  0  0  0  0
 16 23  2  0  0  0  0
 16 40  1  0  0  0  0
 17 18  1  0  0  0  0
 17 41  1  0  0  0  0
 18 42  1  0  0  0  0
 19 27  2  0  0  0  0
 19 33  1  0  0  0  0
 20 29  2  0  0  0  0
 20 34  1  0  0  0  0
 22 44  1  0  0  0  0
 23 45  1  0  0  0  0
 24 35  1  0  0  0  0
 27 43  1  0  0  0  0
 28 46  2  0  0  0  0
 28 47  1  0  0  0  0
 30 51  2  0  0  0  0
 30 52  1  0  0  0  0
 31 53  2  0  0  0  0
 31 54  1  0  0  0  0
 32 33  2  0  0  0  0
 32 36  1  0  0  0  0
 32 48  1  0  0  0  0
 34 35  2  0  0  0  0
 36 49  2  0  0  0  0
 36 50  1  0  0  0  0
 37 55  2  0  0  0  0
 38 56  2  0  0  0  0
 39 59  2  0  0  0  0
 40 60  2  0  0  0  0
 41 57  2  0  0  0  0
 42 58  2  0  0  0  0
 43 48  2  0  0  0  0
 44 61  2  0  0  0  0
 45 62  2  0  0  0  0
 46 49  1  0  0  0  0
 47 50  2  0  0  0  0
 51 63  1  0  0  0  0
 52 64  2  0  0  0  0
 53 65  1  0  0  0  0
 54 66  2  0  0  0  0
 55 57  1  0  0  0  0
 56 58  1  0  0  0  0
 59 61  1  0  0  0  0
 60 62  1  0  0  0  0
 63 67  2  0  0  0  0
 64 67  1  0  0  0  0
 65 68  2  0  0  0  0
 66 68  1  0  0  0  0
M  END
> <PUBCHEM_COMPOUND_ID_TYPE>
0

> <PUBCHEM_TOTAL_CHARGE>
0

> <PUBCHEM_SUBSTANCE_ID>
310940129

> <PUBCHEM_SUBSTANCE_VERSION>
1

> <PUBCHEM_EXT_DATASOURCE_NAME>
4488

> <PUBCHEM_EXT_DATASOURCE_REGID>
SCHEMBL16118062

> <PUBCHEM_SUBSTANCE_COMMENT>
InChI=1S/C62H39N5O/c1-3-15-46(16-4-1)66-57-25-13-9-21-53(57)63-61(66)44-35-43(36-45(37-44)62-64-54-22-10-14-26-58(54)67(62)47-17-5-2-6-18-47)42-30-34-60-52(39-42)51-38-41(29-33-59(51)68-60)40-27-31-48(32-28-40)65-55-23-11-7-19-49(55)50-20-8-12-24-56(50)65/h1-39H
InChIKey=FEDKEQABBOEHTG-UHFFFAOYSA-N

> <PUBCHEM_SUBSTANCE_SYNONYM>
SCHEMBL16118062

> <PUBCHEM_XREF_EXT_ID>
SCHEMBL16118062

> <PUBCHEM_EXT_DATASOURCE_URL>
https://www.surechembl.org/

> <PUBCHEM_EXT_SUBSTANCE_URL>
https://www.surechembl.org/chemical/SCHEMBL16118062

> <PUBCHEM_CID_ASSOCIATIONS>
117607256  1

> <PUBCHEM_COORDINATE_TYPE>
1
3

$$$$
