310938986
  -OEChem-07211613022D

 29 33  0     0  0  0  0  0  0999 V2000
   -1.3108   -6.8726    0.0000 F   0  0  0  0  0  0  0  0  0  0  0  0
    1.1642   -5.4436    0.0000 F   0  0  0  0  0  0  0  0  0  0  0  0
   -1.3833   -4.0617    0.0000 O   0  0  0  0  0  0  0  0  0  0  0  0
   -1.3108   -5.4436    0.0000 N   0  0  0  0  0  0  0  0  0  0  0  0
   -3.2949   -6.2686    0.0000 N   0  0  0  0  0  0  0  0  0  0  0  0
    2.5412  -10.3436    0.0000 N   0  0  0  0  0  0  0  0  0  0  0  0
   -2.5804   -5.0311    0.0000 C   0  0  0  0  0  0  0  0  0  0  0  0
   -1.7958   -4.7762    0.0000 C   0  0  0  0  0  0  0  0  0  0  0  0
   -0.0733   -6.1581    0.0000 C   0  0  0  0  0  0  0  0  0  0  0  0
   -2.5804   -5.8561    0.0000 C   0  0  0  0  0  0  0  0  0  0  0  0
    0.7517   -7.5870    0.0000 C   0  0  0  0  0  0  0  0  0  0  0  0
   -0.4858   -5.4436    0.0000 C   0  0  0  0  0  0  0  0  0  0  0  0
   -1.7958   -6.1111    0.0000 C   0  0  0  0  0  0  0  0  0  0  0  0
    1.1642   -8.3015    0.0000 C   0  0  0  0  0  0  0  0  0  0  0  0
   -0.4858   -6.8726    0.0000 C   0  0  0  0  0  0  0  0  0  0  0  0
    0.7517   -6.1581    0.0000 C   0  0  0  0  0  0  0  0  0  0  0  0
    2.4017   -9.0160    0.0000 C   0  0  0  0  0  0  0  0  0  0  0  0
   -0.0733   -7.5870    0.0000 C   0  0  0  0  0  0  0  0  0  0  0  0
    1.1642   -6.8726    0.0000 C   0  0  0  0  0  0  0  0  0  0  0  0
    1.9892   -9.7305    0.0000 C   0  0  0  0  0  0  0  0  0  0  0  0
    1.9892   -8.3015    0.0000 C   0  0  0  0  0  0  0  0  0  0  0  0
   -3.2949   -4.6186    0.0000 C   0  0  0  0  0  0  0  0  0  0  0  0
    0.7517   -9.0160    0.0000 C   0  0  0  0  0  0  0  0  0  0  0  0
    1.1642   -9.7305    0.0000 C   0  0  0  0  0  0  0  0  0  0  0  0
    3.2086   -9.1875    0.0000 C   0  0  0  0  0  0  0  0  0  0  0  0
    3.2949  -10.0080    0.0000 C   0  0  0  0  0  0  0  0  0  0  0  0
   -4.0093   -5.0311    0.0000 C   0  0  0  0  0  0  0  0  0  0  0  0
   -4.0093   -5.8561    0.0000 C   0  0  0  0  0  0  0  0  0  0  0  0
    4.0093  -10.4205    0.0000 C   0  0  0  0  0  0  0  0  0  0  0  0
  1 15  1  0  0  0  0
  2 16  1  0  0  0  0
  3  8  2  0  0  0  0
  4  8  1  0  0  0  0
  4 12  1  0  0  0  0
  4 13  1  0  0  0  0
  5 10  2  0  0  0  0
  5 28  1  0  0  0  0
  6 20  1  0  0  0  0
  6 26  1  0  0  0  0
  7  8  1  0  0  0  0
  7 10  1  0  0  0  0
  7 22  2  0  0  0  0
  9 12  1  0  0  0  0
  9 15  2  0  0  0  0
  9 16  1  0  0  0  0
 10 13  1  0  0  0  0
 11 14  1  0  0  0  0
 11 18  2  0  0  0  0
 11 19  1  0  0  0  0
 14 21  2  0  0  0  0
 14 23  1  0  0  0  0
 15 18  1  0  0  0  0
 16 19  2  0  0  0  0
 17 20  2  0  0  0  0
 17 21  1  0  0  0  0
 17 25  1  0  0  0  0
 20 24  1  0  0  0  0
 22 27  1  0  0  0  0
 23 24  2  0  0  0  0
 25 26  1  0  0  0  0
 26 29  2  0  0  0  0
 27 28  2  0  0  0  0
M  END
> <PUBCHEM_COMPOUND_ID_TYPE>
0

> <PUBCHEM_TOTAL_CHARGE>
0

> <PUBCHEM_SUBSTANCE_ID>
310938986

> <PUBCHEM_SUBSTANCE_VERSION>
1

> <PUBCHEM_EXT_DATASOURCE_NAME>
4488

> <PUBCHEM_EXT_DATASOURCE_REGID>
SCHEMBL16116905

> <PUBCHEM_SUBSTANCE_COMMENT>
InChI=1S/C23H17F2N3O/c1-13-7-16-8-14(4-5-21(16)27-13)15-9-19(24)18(20(25)10-15)11-28-12-22-17(23(28)29)3-2-6-26-22/h2-6,8-10,27H,1,7,11-12H2
InChIKey=MXNFFFBNEBDPOU-UHFFFAOYSA-N

> <PUBCHEM_SUBSTANCE_SYNONYM>
SCHEMBL16116905

> <PUBCHEM_XREF_EXT_ID>
SCHEMBL16116905

> <PUBCHEM_EXT_DATASOURCE_URL>
https://www.surechembl.org/

> <PUBCHEM_EXT_SUBSTANCE_URL>
https://www.surechembl.org/chemical/SCHEMBL16116905

> <PUBCHEM_CID_ASSOCIATIONS>
117606370  1

> <PUBCHEM_COORDINATE_TYPE>
1
3

$$$$
