310946839
  -OEChem-07211613022D

 40 43  0     1  0  0  0  0  0999 V2000
   -2.2486   -4.1828    0.0000 S   0  0  0  0  0  0  0  0  0  0  0  0
    0.0953    0.4288    0.0000 F   0  0  0  0  0  0  0  0  0  0  0  0
   -1.1243   -2.1629    0.0000 O   0  0  0  0  0  0  0  0  0  0  0  0
    1.1243    3.2490    0.0000 O   0  0  0  0  0  0  0  0  0  0  0  0
    2.5535    3.0966    0.0000 O   0  0  0  0  0  0  0  0  0  0  0  0
   -2.9728   -4.6020    0.0000 O   0  0  0  0  0  0  0  0  0  0  0  0
   -1.8294   -4.9070    0.0000 O   0  0  0  0  0  0  0  0  0  0  0  0
    1.0481   -0.3906    0.0000 N   0  0  0  0  0  0  0  0  0  0  0  0
    1.2958   -1.1910    0.0000 N   0  0  0  0  0  0  0  0  0  0  0  0
    1.6960    1.9342    0.0000 N   0  0  0  0  0  0  0  0  0  0  0  0
    0.6288   -2.5059    0.0000 N   0  0  0  0  0  0  0  0  0  0  0  0
   -1.4102   -0.7527    0.0000 N   0  0  0  0  0  0  0  0  0  0  0  0
   -2.6678   -3.4587    0.0000 N   0  0  0  0  0  0  0  0  0  0  0  0
    3.5063   -0.6575    0.0000 N   0  0  0  0  0  0  0  0  0  0  0  0
    1.5436    0.2382    0.0000 C   0  0  3  0  0  0  0  0  0  0  0  0
    0.1906   -0.3906    0.0000 C   0  0  0  0  0  0  0  0  0  0  0  0
   -0.0953   -1.1910    0.0000 C   0  0  0  0  0  0  0  0  0  0  0  0
    0.6288   -1.6674    0.0000 C   0  0  0  0  0  0  0  0  0  0  0  0
    0.8575    0.7717    0.0000 C   0  0  3  0  0  0  0  0  0  0  0  0
    2.2677    0.6193    0.0000 C   0  0  0  0  0  0  0  0  0  0  0  0
   -0.8765   -1.3434    0.0000 C   0  0  0  0  0  0  0  0  0  0  0  0
    1.8865   -0.4859    0.0000 C   0  0  0  0  0  0  0  0  0  0  0  0
   -0.3240    0.2001    0.0000 C   0  0  0  0  0  0  0  0  0  0  0  0
    0.9528    1.5912    0.0000 C   0  0  0  0  0  0  0  0  0  0  0  0
    2.3630    1.4388    0.0000 C   0  0  0  0  0  0  0  0  0  0  0  0
   -1.1434    0.0477    0.0000 C   0  0  0  0  0  0  0  0  0  0  0  0
   -0.0953   -2.9251    0.0000 C   0  0  0  0  0  0  0  0  0  0  0  0
    1.7722    2.7536    0.0000 C   0  0  0  0  0  0  0  0  0  0  0  0
    2.6869   -0.6002    0.0000 C   0  0  0  0  0  0  0  0  0  0  0  0
   -1.5436   -3.7636    0.0000 C   0  0  0  0  0  0  0  0  0  0  0  0
   -0.8385   -2.5249    0.0000 C   0  0  0  0  0  0  0  0  0  0  0  0
   -0.1144   -3.7636    0.0000 C   0  0  0  0  0  0  0  0  0  0  0  0
   -1.5054   -2.9251    0.0000 C   0  0  0  0  0  0  0  0  0  0  0  0
   -0.8004   -4.1638    0.0000 C   0  0  0  0  0  0  0  0  0  0  0  0
    1.2005    4.1066    0.0000 C   0  0  0  0  0  0  0  0  0  0  0  0
   -3.5063   -3.4778    0.0000 C   0  0  0  0  0  0  0  0  0  0  0  0
   -2.2677   -2.7346    0.0000 C   0  0  0  0  0  0  0  0  0  0  0  0
    1.2767    4.9070    0.0000 C   0  0  0  0  0  0  0  0  0  0  0  0
    0.5145    4.5639    0.0000 C   0  0  0  0  0  0  0  0  0  0  0  0
    1.9819    4.4305    0.0000 C   0  0  0  0  0  0  0  0  0  0  0  0
  1  6  2  0  0  0  0
  1  7  2  0  0  0  0
  1 13  1  0  0  0  0
  1 30  1  0  0  0  0
 19  2  1  6  0  0  0
  3 21  2  0  0  0  0
  4 28  1  0  0  0  0
  4 35  1  0  0  0  0
  5 28  2  0  0  0  0
  8  9  1  0  0  0  0
  8 15  1  0  0  0  0
  8 16  1  0  0  0  0
  9 18  2  0  0  0  0
 10 24  1  0  0  0  0
 10 25  1  0  0  0  0
 10 28  1  0  0  0  0
 11 18  1  0  0  0  0
 11 27  1  0  0  0  0
 12 21  1  0  0  0  0
 12 26  1  0  0  0  0
 13 36  1  0  0  0  0
 13 37  1  0  0  0  0
 14 29  3  0  0  0  0
 15 19  1  0  0  0  0
 15 20  1  0  0  0  0
 15 22  1  1  0  0  0
 16 17  2  0  0  0  0
 16 23  1  0  0  0  0
 17 18  1  0  0  0  0
 17 21  1  0  0  0  0
 19 24  1  0  0  0  0
 20 25  1  0  0  0  0
 22 29  1  0  0  0  0
 23 26  2  0  0  0  0
 27 31  2  0  0  0  0
 27 32  1  0  0  0  0
 30 33  2  0  0  0  0
 30 34  1  0  0  0  0
 31 33  1  0  0  0  0
 32 34  2  0  0  0  0
 35 38  1  0  0  0  0
 35 39  1  0  0  0  0
 35 40  1  0  0  0  0
M  END
> <PUBCHEM_COMPOUND_ID_TYPE>
0

> <PUBCHEM_TOTAL_CHARGE>
0

> <PUBCHEM_SUBSTANCE_ID>
310946839

> <PUBCHEM_SUBSTANCE_VERSION>
1

> <PUBCHEM_EXT_DATASOURCE_NAME>
4488

> <PUBCHEM_EXT_DATASOURCE_REGID>
SCHEMBL16124963

> <PUBCHEM_SUBSTANCE_COMMENT>
InChI=1S/C26H32FN7O5S/c1-25(2,3)39-24(36)33-15-12-26(11-13-28,20(27)16-33)34-19-10-14-29-23(35)21(19)22(31-34)30-17-6-8-18(9-7-17)40(37,38)32(4)5/h6-10,14,20H,11-12,15-16H2,1-5H3,(H,29,35)(H,30,31)/t20-,26+/m1/s1
InChIKey=FPYHDWUSAOFILC-IBVKSMDESA-N

> <PUBCHEM_SUBSTANCE_SYNONYM>
SCHEMBL16124963

> <PUBCHEM_XREF_EXT_ID>
SCHEMBL16124963

> <PUBCHEM_EXT_DATASOURCE_URL>
https://www.surechembl.org/

> <PUBCHEM_EXT_SUBSTANCE_URL>
https://www.surechembl.org/chemical/SCHEMBL16124963

> <PUBCHEM_CID_ASSOCIATIONS>
117612698  1

> <PUBCHEM_COORDINATE_TYPE>
1
3

> <PUBCHEM_BONDANNOTATIONS>
15  22  5
19  2  6

$$$$
