310939414
  -OEChem-07211613022D

 68 74  0     1  0  0  0  0  0999 V2000
   11.4195    8.4294    0.0000 O   0  0  0  0  0  0  0  0  0  0  0  0
   10.1217    7.7752    0.0000 O   0  0  0  0  0  0  0  0  0  0  0  0
    8.1514    6.8084    0.0000 O   0  0  0  0  0  0  0  0  0  0  0  0
    7.1409    7.6302    0.0000 O   0  0  0  0  0  0  0  0  0  0  0  0
    7.5253   11.1538    0.0000 O   0  0  0  0  0  0  0  0  0  0  0  0
    4.9334    8.9280    0.0000 O   0  0  0  0  0  0  0  0  0  0  0  0
   10.8362    6.5377    0.0000 O   0  0  0  0  0  0  0  0  0  0  0  0
    6.7224    6.8084    0.0000 O   0  0  0  0  0  0  0  0  0  0  0  0
    6.0964   11.1538    0.0000 O   0  0  0  0  0  0  0  0  0  0  0  0
    4.5635   10.3082    0.0000 O   0  0  0  0  0  0  0  0  0  0  0  0
    3.3396    8.5009    0.0000 O   0  0  0  0  0  0  0  0  0  0  0  0
    4.7198    8.1311    0.0000 O   0  0  0  0  0  0  0  0  0  0  0  0
    1.1624    8.6573    0.0000 O   0  0  0  0  0  0  0  0  0  0  0  0
    2.5427    8.2874    0.0000 O   0  0  0  0  0  0  0  0  0  0  0  0
    4.2928    6.5373    0.0000 O   0  0  0  0  0  0  0  0  0  0  0  0
    3.2824    5.5269    0.0000 O   0  0  0  0  0  0  0  0  0  0  0  0
    2.1729    9.6677    0.0000 N   0  0  0  0  0  0  0  0  0  0  0  0
    9.4072    9.8377    0.0000 C   0  0  3  0  0  0  0  0  0  0  0  0
    9.4072    9.0127    0.0000 C   0  0  3  0  0  0  0  0  0  0  0  0
   10.1217    8.6002    0.0000 C   0  0  3  0  0  0  0  0  0  0  0  0
   10.1217   10.2502    0.0000 C   0  0  3  0  0  0  0  0  0  0  0  0
    9.4072   10.6627    0.0000 C   0  0  0  0  0  0  0  0  0  0  0  0
    8.1514    8.2135    0.0000 C   0  0  3  0  0  0  0  0  0  0  0  0
   10.8362    9.0127    0.0000 C   0  0  3  0  0  0  0  0  0  0  0  0
    7.3545    8.4271    0.0000 C   0  0  3  0  0  0  0  0  0  0  0  0
    8.7628   10.4394    0.0000 C   0  0  0  0  0  0  0  0  0  0  0  0
   10.8362    9.8377    0.0000 C   0  0  0  0  0  0  0  0  0  0  0  0
    7.7670    9.1415    0.0000 C   0  0  0  0  0  0  0  0  0  0  0  0
   10.7051    8.0169    0.0000 C   0  0  0  0  0  0  0  0  0  0  0  0
    7.3545    9.8560    0.0000 C   0  0  0  0  0  0  0  0  0  0  0  0
    7.9378   10.4394    0.0000 C   0  0  3  0  0  0  0  0  0  0  0  0
    6.5295    8.4271    0.0000 C   0  0  0  0  0  0  0  0  0  0  0  0
    6.5295    9.8560    0.0000 C   0  0  0  0  0  0  0  0  0  0  0  0
    6.1170    9.1415    0.0000 C   0  0  3  0  0  0  0  0  0  0  0  0
    8.4814    9.5540    0.0000 C   0  0  0  0  0  0  0  0  0  0  0  0
    8.4814    8.7290    0.0000 C   0  0  0  0  0  0  0  0  0  0  0  0
   10.8362    7.3627    0.0000 C   0  0  0  0  0  0  0  0  0  0  0  0
    7.4369    6.3959    0.0000 C   0  0  0  0  0  0  0  0  0  0  0  0
    6.1170   10.5705    0.0000 C   0  0  0  0  0  0  0  0  0  0  0  0
    6.8109   11.5663    0.0000 C   0  0  0  0  0  0  0  0  0  0  0  0
    7.4369    5.5709    0.0000 C   0  0  0  0  0  0  0  0  0  0  0  0
   11.5506    7.7752    0.0000 C   0  0  0  0  0  0  0  0  0  0  0  0
    4.3500    9.5114    0.0000 C   0  0  0  0  0  0  0  0  0  0  0  0
    3.5531    9.2978    0.0000 C   0  0  3  0  0  0  0  0  0  0  0  0
    6.7224    5.1584    0.0000 C   0  0  0  0  0  0  0  0  0  0  0  0
    8.1514    5.1584    0.0000 C   0  0  0  0  0  0  0  0  0  0  0  0
    6.8109   12.3913    0.0000 C   0  0  0  0  0  0  0  0  0  0  0  0
    2.9697    9.8812    0.0000 C   0  0  3  0  0  0  0  0  0  0  0  0
    6.7224    4.3334    0.0000 C   0  0  0  0  0  0  0  0  0  0  0  0
    8.1514    4.3334    0.0000 C   0  0  0  0  0  0  0  0  0  0  0  0
    7.4369    3.9209    0.0000 C   0  0  0  0  0  0  0  0  0  0  0  0
    3.1833   10.6781    0.0000 C   0  0  0  0  0  0  0  0  0  0  0  0
    3.9229    7.9176    0.0000 C   0  0  0  0  0  0  0  0  0  0  0  0
    2.5999   11.2614    0.0000 C   0  0  0  0  0  0  0  0  0  0  0  0
    3.9802   10.8916    0.0000 C   0  0  0  0  0  0  0  0  0  0  0  0
    1.9593    8.8708    0.0000 C   0  0  0  0  0  0  0  0  0  0  0  0
    3.7094    7.1207    0.0000 C   0  0  0  0  0  0  0  0  0  0  0  0
    2.8134   12.0583    0.0000 C   0  0  0  0  0  0  0  0  0  0  0  0
    4.1937   11.6885    0.0000 C   0  0  0  0  0  0  0  0  0  0  0  0
    3.6103   12.2719    0.0000 C   0  0  0  0  0  0  0  0  0  0  0  0
    0.9489    7.8604    0.0000 C   0  0  0  0  0  0  0  0  0  0  0  0
    4.0793    5.7404    0.0000 C   0  0  0  0  0  0  0  0  0  0  0  0
    1.5323    7.2770    0.0000 C   0  0  0  0  0  0  0  0  0  0  0  0
    0.1520    7.6468    0.0000 C   0  0  0  0  0  0  0  0  0  0  0  0
    0.7354    7.0635    0.0000 C   0  0  0  0  0  0  0  0  0  0  0  0
    4.6626    5.1571    0.0000 C   0  0  0  0  0  0  0  0  0  0  0  0
    4.4491    4.3602    0.0000 C   0  0  0  0  0  0  0  0  0  0  0  0
    5.0325    3.7768    0.0000 C   0  0  0  0  0  0  0  0  0  0  0  0
  1 24  1  0  0  0  0
  1 29  1  0  0  0  0
 20  2  1  6  0  0  0
  2 37  1  0  0  0  0
 23  3  1  6  0  0  0
  3 38  1  0  0  0  0
 25  4  1  1  0  0  0
 31  5  1  1  0  0  0
  5 40  1  0  0  0  0
 34  6  1  6  0  0  0
  6 43  1  0  0  0  0
  7 37  2  0  0  0  0
  8 38  2  0  0  0  0
  9 40  2  0  0  0  0
 10 43  2  0  0  0  0
 44 11  1  6  0  0  0
 11 53  1  0  0  0  0
 12 53  2  0  0  0  0
 13 56  1  0  0  0  0
 13 61  1  0  0  0  0
 14 56  2  0  0  0  0
 15 57  1  0  0  0  0
 15 62  1  0  0  0  0
 16 62  2  0  0  0  0
 48 17  1  1  0  0  0
 17 56  1  0  0  0  0
 18 19  1  0  0  0  0
 18 21  1  0  0  0  0
 18 22  1  0  0  0  0
 18 26  1  6  0  0  0
 19 20  1  0  0  0  0
 19 23  1  1  0  0  0
 20 24  1  0  0  0  0
 20 29  1  0  0  0  0
 21 22  1  0  0  0  0
 21 27  1  1  0  0  0
 23 25  1  0  0  0  0
 24 27  1  1  0  0  0
 25 28  1  0  0  0  0
 25 32  1  0  0  0  0
 26 31  1  0  0  0  0
 28 30  1  0  0  0  0
 28 35  1  0  0  0  0
 28 36  1  0  0  0  0
 30 31  1  0  0  0  0
 30 33  2  0  0  0  0
 32 34  1  0  0  0  0
 33 34  1  0  0  0  0
 33 39  1  0  0  0  0
 37 42  1  0  0  0  0
 38 41  1  0  0  0  0
 40 47  1  0  0  0  0
 41 45  2  0  0  0  0
 41 46  1  0  0  0  0
 43 44  1  0  0  0  0
 44 48  1  0  0  0  0
 45 49  1  0  0  0  0
 46 50  2  0  0  0  0
 48 52  1  0  0  0  0
 49 51  2  0  0  0  0
 50 51  1  0  0  0  0
 52 54  2  0  0  0  0
 52 55  1  0  0  0  0
 53 57  1  0  0  0  0
 54 58  1  0  0  0  0
 55 59  2  0  0  0  0
 58 60  2  0  0  0  0
 59 60  1  0  0  0  0
 61 63  1  0  0  0  0
 61 64  1  0  0  0  0
 61 65  1  0  0  0  0
 62 66  1  0  0  0  0
 66 67  1  0  0  0  0
 67 68  1  0  0  0  0
M  END
> <PUBCHEM_COMPOUND_ID_TYPE>
0

> <PUBCHEM_TOTAL_CHARGE>
0

> <PUBCHEM_SUBSTANCE_ID>
310939414

> <PUBCHEM_SUBSTANCE_VERSION>
1

> <PUBCHEM_EXT_DATASOURCE_NAME>
4488

> <PUBCHEM_EXT_DATASOURCE_REGID>
SCHEMBL16117336

> <PUBCHEM_SUBSTANCE_COMMENT>
InChI=1S/C51H63NO16/c1-10-17-37(55)61-26-38(56)65-41(40(31-18-13-11-14-19-31)52-46(59)68-47(5,6)7)45(58)64-34-25-51(60)43(66-44(57)32-20-15-12-16-21-32)42-49(23-33(49)22-36-50(42,27-62-36)67-30(4)54)24-35(63-29(3)53)39(28(34)2)48(51,8)9/h11-16,18-21,33-36,40-43,60H,10,17,22-27H2,1-9H3,(H,52,59)/t33-,34+,35+,36-,40+,41-,42+,43+,49-,50+,51-/m1/s1
InChIKey=GUHPMNJQXSAPKE-BCEQOYCRSA-N

> <PUBCHEM_SUBSTANCE_SYNONYM>
SCHEMBL16117336

> <PUBCHEM_XREF_EXT_ID>
SCHEMBL16117336

> <PUBCHEM_EXT_DATASOURCE_URL>
https://www.surechembl.org/

> <PUBCHEM_EXT_SUBSTANCE_URL>
https://www.surechembl.org/chemical/SCHEMBL16117336

> <PUBCHEM_CID_ASSOCIATIONS>
117606741  1

> <PUBCHEM_COORDINATE_TYPE>
1
3

> <PUBCHEM_BONDANNOTATIONS>
44  11  6
48  17  5
18  26  6
19  23  5
20  2  6
21  27  5
24  27  5
23  3  6
25  4  5
31  5  5
34  6  6

$$$$
