310949342
  -OEChem-07211613022D

 30 33  0     1  0  0  0  0  0999 V2000
    0.7432    2.8177    0.0000 F   0  0  0  0  0  0  0  0  0  0  0  0
    1.0115    1.7443    0.0000 F   0  0  0  0  0  0  0  0  0  0  0  0
   -0.0619    1.4966    0.0000 F   0  0  0  0  0  0  0  0  0  0  0  0
   -1.7753   -2.5288    0.0000 O   0  0  0  0  0  0  0  0  0  0  0  0
    1.7546   -3.7260    0.0000 O   0  0  0  0  0  0  0  0  0  0  0  0
    0.3922   -3.8292    0.0000 O   0  0  0  0  0  0  0  0  0  0  0  0
   -1.0734   -1.2695    0.0000 N   0  0  0  0  0  0  0  0  0  0  0  0
   -0.3509   -2.5288    0.0000 N   0  0  0  0  0  0  0  0  0  0  0  0
   -1.4862    0.0516    0.0000 C   0  0  3  0  0  0  0  0  0  0  0  0
   -0.6812    0.0310    0.0000 C   0  0  3  0  0  0  0  0  0  0  0  0
   -1.0528    1.3108    0.0000 C   0  0  0  0  0  0  0  0  0  0  0  0
   -1.0940    2.1778    0.0000 C   0  0  0  0  0  0  0  0  0  0  0  0
   -1.7340    0.8154    0.0000 C   0  0  0  0  0  0  0  0  0  0  0  0
   -0.4335    0.8154    0.0000 C   0  0  0  0  0  0  0  0  0  0  0  0
   -0.3922    2.6113    0.0000 C   0  0  0  0  0  0  0  0  0  0  0  0
   -1.7340   -0.7535    0.0000 C   0  0  0  0  0  0  0  0  0  0  0  0
   -0.4128   -0.7535    0.0000 C   0  0  0  0  0  0  0  0  0  0  0  0
    0.3303    2.1572    0.0000 C   0  0  0  0  0  0  0  0  0  0  0  0
   -1.0734   -2.0952    0.0000 C   0  0  0  0  0  0  0  0  0  0  0  0
   -1.7753    2.6113    0.0000 C   0  0  0  0  0  0  0  0  0  0  0  0
   -0.3716    3.4164    0.0000 C   0  0  0  0  0  0  0  0  0  0  0  0
    0.3509   -2.0746    0.0000 C   0  0  0  0  0  0  0  0  0  0  0  0
    1.0734   -2.5080    0.0000 C   0  0  0  0  0  0  0  0  0  0  0  0
   -1.7546    3.4576    0.0000 C   0  0  0  0  0  0  0  0  0  0  0  0
   -1.0528    3.8292    0.0000 C   0  0  0  0  0  0  0  0  0  0  0  0
    0.3716   -1.2489    0.0000 C   0  0  0  0  0  0  0  0  0  0  0  0
    1.0734   -3.3751    0.0000 C   0  0  0  0  0  0  0  0  0  0  0  0
    1.7753   -2.0952    0.0000 C   0  0  0  0  0  0  0  0  0  0  0  0
    1.0528   -0.8360    0.0000 C   0  0  0  0  0  0  0  0  0  0  0  0
    1.7753   -1.2695    0.0000 C   0  0  0  0  0  0  0  0  0  0  0  0
  1 18  1  0  0  0  0
  2 18  1  0  0  0  0
  3 18  1  0  0  0  0
  4 19  2  0  0  0  0
  5 27  2  0  0  0  0
  6 27  1  0  0  0  0
  7 16  1  0  0  0  0
  7 17  1  0  0  0  0
  7 19  1  0  0  0  0
  8 19  1  0  0  0  0
  8 22  1  0  0  0  0
  9 10  1  0  0  0  0
  9 13  1  0  0  0  0
  9 16  1  0  0  0  0
 10 14  1  0  0  0  0
 10 17  1  0  0  0  0
 11 12  1  0  0  0  0
 11 13  1  6  0  0  0
 11 14  1  0  0  0  0
 12 15  2  0  0  0  0
 12 20  1  0  0  0  0
 15 18  1  0  0  0  0
 15 21  1  0  0  0  0
 20 24  2  0  0  0  0
 21 25  2  0  0  0  0
 22 23  2  0  0  0  0
 22 26  1  0  0  0  0
 23 27  1  0  0  0  0
 23 28  1  0  0  0  0
 24 25  1  0  0  0  0
 26 29  2  0  0  0  0
 28 30  2  0  0  0  0
 29 30  1  0  0  0  0
M  END
> <PUBCHEM_COMPOUND_ID_TYPE>
0

> <PUBCHEM_TOTAL_CHARGE>
0

> <PUBCHEM_SUBSTANCE_ID>
310949342

> <PUBCHEM_SUBSTANCE_VERSION>
1

> <PUBCHEM_EXT_DATASOURCE_NAME>
4488

> <PUBCHEM_EXT_DATASOURCE_REGID>
SCHEMBL16127532

> <PUBCHEM_SUBSTANCE_COMMENT>
InChI=1S/C22H21F3N2O3/c23-22(24,25)18-7-3-1-5-16(18)13-9-14-11-27(12-15(14)10-13)21(30)26-19-8-4-2-6-17(19)20(28)29/h1-8,13-15H,9-12H2,(H,26,30)(H,28,29)
InChIKey=ZZZMLSGWZAFWHA-UHFFFAOYSA-N

> <PUBCHEM_SUBSTANCE_SYNONYM>
SCHEMBL16127532

> <PUBCHEM_XREF_EXT_ID>
SCHEMBL16127532

> <PUBCHEM_EXT_DATASOURCE_URL>
https://www.surechembl.org/

> <PUBCHEM_EXT_SUBSTANCE_URL>
https://www.surechembl.org/chemical/SCHEMBL16127532

> <PUBCHEM_CID_ASSOCIATIONS>
117614817  1

> <PUBCHEM_COORDINATE_TYPE>
1
3

> <PUBCHEM_BONDANNOTATIONS>
11  13  6

$$$$
