310937966
  -OEChem-07211613022D

 27 29  0     0  0  0  0  0  0999 V2000
    1.4363   -5.1209    0.0000 O   0  0  0  0  0  0  0  0  0  0  0  0
    0.7494   -3.8719    0.0000 O   0  0  0  0  0  0  0  0  0  0  0  0
    4.2778   -0.5933    0.0000 O   0  0  0  0  0  0  0  0  0  0  0  0
    3.2474   -1.5925    0.0000 O   0  0  0  0  0  0  0  0  0  0  0  0
    4.3715   -2.8103    0.0000 N   0  0  0  0  0  0  0  0  0  0  0  0
    2.1545   -3.8719    0.0000 N   0  0  0  0  0  0  0  0  0  0  0  0
    5.9015   -5.7454    0.0000 N   0  0  0  0  0  0  0  0  0  0  0  0
    3.6221   -3.8719    0.0000 C   0  0  0  0  0  0  0  0  0  0  0  0
    3.6221   -3.0288    0.0000 C   0  0  0  0  0  0  0  0  0  0  0  0
    4.3715   -4.1217    0.0000 C   0  0  0  0  0  0  0  0  0  0  0  0
    4.9023   -3.4660    0.0000 C   0  0  0  0  0  0  0  0  0  0  0  0
    2.8727   -4.3090    0.0000 C   0  0  0  0  0  0  0  0  0  0  0  0
    2.8727   -2.6229    0.0000 C   0  0  0  0  0  0  0  0  0  0  0  0
    4.7774   -4.8710    0.0000 C   0  0  0  0  0  0  0  0  0  0  0  0
    5.7142   -3.5596    0.0000 C   0  0  0  0  0  0  0  0  0  0  0  0
    4.6213   -1.9984    0.0000 C   0  0  0  0  0  0  0  0  0  0  0  0
    2.1545   -3.0288    0.0000 C   0  0  0  0  0  0  0  0  0  0  0  0
    5.5580   -4.9647    0.0000 C   0  0  0  0  0  0  0  0  0  0  0  0
    1.4363   -4.3090    0.0000 C   0  0  0  0  0  0  0  0  0  0  0  0
    6.0264   -4.3090    0.0000 C   0  0  0  0  0  0  0  0  0  0  0  0
    4.0592   -1.4051    0.0000 C   0  0  0  0  0  0  0  0  0  0  0  0
    0.7182   -5.5268    0.0000 C   0  0  0  0  0  0  0  0  0  0  0  0
    0.3122   -4.8086    0.0000 C   0  0  0  0  0  0  0  0  0  0  0  0
    0.0000   -5.9327    0.0000 C   0  0  0  0  0  0  0  0  0  0  0  0
    1.1241   -6.2450    0.0000 C   0  0  0  0  0  0  0  0  0  0  0  0
    3.7158    0.0000    0.0000 C   0  0  0  0  0  0  0  0  0  0  0  0
    2.9039   -0.1873    0.0000 C   0  0  0  0  0  0  0  0  0  0  0  0
  1 19  1  0  0  0  0
  1 22  1  0  0  0  0
  2 19  2  0  0  0  0
  3 21  1  0  0  0  0
  3 26  1  0  0  0  0
  4 21  2  0  0  0  0
  5  9  1  0  0  0  0
  5 11  1  0  0  0  0
  5 16  1  0  0  0  0
  6 12  1  0  0  0  0
  6 17  1  0  0  0  0
  6 19  1  0  0  0  0
  7 18  1  0  0  0  0
  8  9  2  0  0  0  0
  8 10  1  0  0  0  0
  8 12  1  0  0  0  0
  9 13  1  0  0  0  0
 10 11  2  0  0  0  0
 10 14  1  0  0  0  0
 11 15  1  0  0  0  0
 13 17  1  0  0  0  0
 14 18  2  0  0  0  0
 15 20  2  0  0  0  0
 16 21  1  0  0  0  0
 18 20  1  0  0  0  0
 22 23  1  0  0  0  0
 22 24  1  0  0  0  0
 22 25  1  0  0  0  0
 26 27  1  0  0  0  0
M  END
> <PUBCHEM_COMPOUND_ID_TYPE>
0

> <PUBCHEM_TOTAL_CHARGE>
0

> <PUBCHEM_SUBSTANCE_ID>
310937966

> <PUBCHEM_SUBSTANCE_VERSION>
1

> <PUBCHEM_EXT_DATASOURCE_NAME>
4488

> <PUBCHEM_EXT_DATASOURCE_REGID>
SCHEMBL16115798

> <PUBCHEM_SUBSTANCE_COMMENT>
InChI=1S/C20H27N3O4/c1-5-26-18(24)12-23-16-7-6-13(21)10-14(16)15-11-22(9-8-17(15)23)19(25)27-20(2,3)4/h6-7,10H,5,8-9,11-12,21H2,1-4H3
InChIKey=DGVQEOXIURCGCV-UHFFFAOYSA-N

> <PUBCHEM_SUBSTANCE_SYNONYM>
SCHEMBL16115798

> <PUBCHEM_XREF_EXT_ID>
SCHEMBL16115798

> <PUBCHEM_EXT_DATASOURCE_URL>
https://www.surechembl.org/

> <PUBCHEM_EXT_SUBSTANCE_URL>
https://www.surechembl.org/chemical/SCHEMBL16115798

> <PUBCHEM_CID_ASSOCIATIONS>
117605567  1

> <PUBCHEM_COORDINATE_TYPE>
1
3

$$$$
