310943642
  -OEChem-07211613022D

 38 42  0     0  0  0  0  0  0999 V2000
    4.2633   -1.8694    0.0000 F   0  0  0  0  0  0  0  0  0  0  0  0
    2.8421   -2.6983    0.0000 F   0  0  0  0  0  0  0  0  0  0  0  0
    4.2633   -2.6983    0.0000 F   0  0  0  0  0  0  0  0  0  0  0  0
   -4.2633    2.2754    0.0000 O   0  0  0  0  0  0  0  0  0  0  0  0
    1.4380   -0.2115    0.0000 O   0  0  0  0  0  0  0  0  0  0  0  0
   -0.6936    0.2115    0.0000 N   0  0  0  0  0  0  0  0  0  0  0  0
   -2.1147    0.2115    0.0000 N   0  0  0  0  0  0  0  0  0  0  0  0
   -2.8252    1.4464    0.0000 N   0  0  0  0  0  0  0  0  0  0  0  0
   -1.4042   -1.0404    0.0000 N   0  0  0  0  0  0  0  0  0  0  0  0
    0.7275    2.6983    0.0000 N   0  0  0  0  0  0  0  0  0  0  0  0
    2.1485    1.0404    0.0000 N   0  0  0  0  0  0  0  0  0  0  0  0
   -1.4042   -2.6983    0.0000 N   0  0  0  0  0  0  0  0  0  0  0  0
   -0.6936    1.0574    0.0000 C   0  0  0  0  0  0  0  0  0  0  0  0
    0.0000    1.4634    0.0000 C   0  0  0  0  0  0  0  0  0  0  0  0
   -2.1147    1.0574    0.0000 C   0  0  0  0  0  0  0  0  0  0  0  0
   -1.4042   -0.1945    0.0000 C   0  0  0  0  0  0  0  0  0  0  0  0
   -1.4211    1.4464    0.0000 C   0  0  0  0  0  0  0  0  0  0  0  0
    0.0169    2.2923    0.0000 C   0  0  0  0  0  0  0  0  0  0  0  0
    0.7106    1.0404    0.0000 C   0  0  0  0  0  0  0  0  0  0  0  0
    1.4380    1.4634    0.0000 C   0  0  0  0  0  0  0  0  0  0  0  0
    1.4380    2.2754    0.0000 C   0  0  0  0  0  0  0  0  0  0  0  0
    2.8591   -0.1945    0.0000 C   0  0  0  0  0  0  0  0  0  0  0  0
    2.1485    0.2284    0.0000 C   0  0  0  0  0  0  0  0  0  0  0  0
    3.5696   -1.4464    0.0000 C   0  0  0  0  0  0  0  0  0  0  0  0
   -2.8421    2.2923    0.0000 C   0  0  0  0  0  0  0  0  0  0  0  0
   -3.5188    1.0404    0.0000 C   0  0  0  0  0  0  0  0  0  0  0  0
   -0.6936   -1.4634    0.0000 C   0  0  0  0  0  0  0  0  0  0  0  0
   -2.1147   -1.4464    0.0000 C   0  0  0  0  0  0  0  0  0  0  0  0
    3.5696   -2.2585    0.0000 C   0  0  0  0  0  0  0  0  0  0  0  0
    2.8591   -1.0404    0.0000 C   0  0  0  0  0  0  0  0  0  0  0  0
   -0.7106    2.6814    0.0000 C   0  0  0  0  0  0  0  0  0  0  0  0
    3.5696    0.1945    0.0000 C   0  0  0  0  0  0  0  0  0  0  0  0
    4.2633   -1.0404    0.0000 C   0  0  0  0  0  0  0  0  0  0  0  0
    4.2633   -0.2115    0.0000 C   0  0  0  0  0  0  0  0  0  0  0  0
   -3.5696    2.6983    0.0000 C   0  0  0  0  0  0  0  0  0  0  0  0
   -4.2463    1.4464    0.0000 C   0  0  0  0  0  0  0  0  0  0  0  0
   -0.7106   -2.2923    0.0000 C   0  0  0  0  0  0  0  0  0  0  0  0
   -2.1147   -2.2923    0.0000 C   0  0  0  0  0  0  0  0  0  0  0  0
  1 29  1  0  0  0  0
  2 29  1  0  0  0  0
  3 29  1  0  0  0  0
  4 35  1  0  0  0  0
  4 36  1  0  0  0  0
  5 23  2  0  0  0  0
  6 13  1  0  0  0  0
  6 16  2  0  0  0  0
  7 15  2  0  0  0  0
  7 16  1  0  0  0  0
  8 15  1  0  0  0  0
  8 25  1  0  0  0  0
  8 26  1  0  0  0  0
  9 16  1  0  0  0  0
  9 27  1  0  0  0  0
  9 28  1  0  0  0  0
 10 18  2  0  0  0  0
 10 21  1  0  0  0  0
 11 20  1  0  0  0  0
 11 23  1  0  0  0  0
 12 37  1  0  0  0  0
 12 38  1  0  0  0  0
 13 14  1  0  0  0  0
 13 17  2  0  0  0  0
 14 18  1  0  0  0  0
 14 19  2  0  0  0  0
 15 17  1  0  0  0  0
 18 31  1  0  0  0  0
 19 20  1  0  0  0  0
 20 21  2  0  0  0  0
 22 23  1  0  0  0  0
 22 30  2  0  0  0  0
 22 32  1  0  0  0  0
 24 29  1  0  0  0  0
 24 30  1  0  0  0  0
 24 33  2  0  0  0  0
 25 35  1  0  0  0  0
 26 36  1  0  0  0  0
 27 37  1  0  0  0  0
 28 38  1  0  0  0  0
 32 34  2  0  0  0  0
 33 34  1  0  0  0  0
M  END
> <PUBCHEM_COMPOUND_ID_TYPE>
0

> <PUBCHEM_TOTAL_CHARGE>
0

> <PUBCHEM_SUBSTANCE_ID>
310943642

> <PUBCHEM_SUBSTANCE_VERSION>
1

> <PUBCHEM_EXT_DATASOURCE_NAME>
4488

> <PUBCHEM_EXT_DATASOURCE_REGID>
SCHEMBL16121710

> <PUBCHEM_SUBSTANCE_COMMENT>
InChI=1S/C26H28F3N7O2/c1-17-21(14-20(16-31-17)32-24(37)18-3-2-4-19(13-18)26(27,28)29)22-15-23(35-9-11-38-12-10-35)34-25(33-22)36-7-5-30-6-8-36/h2-4,13-16,30H,5-12H2,1H3,(H,32,37)
InChIKey=LXHOQYWCTXRQJV-UHFFFAOYSA-N

> <PUBCHEM_SUBSTANCE_SYNONYM>
SCHEMBL16121710

> <PUBCHEM_XREF_EXT_ID>
SCHEMBL16121710

> <PUBCHEM_EXT_DATASOURCE_URL>
https://www.surechembl.org/

> <PUBCHEM_EXT_SUBSTANCE_URL>
https://www.surechembl.org/chemical/SCHEMBL16121710

> <PUBCHEM_CID_ASSOCIATIONS>
117610033  1

> <PUBCHEM_COORDINATE_TYPE>
1
3

$$$$
