310931976
  -OEChem-07211613022D

 30 33  0     0  0  0  0  0  0999 V2000
    5.0681   -1.9447    0.0000 O   0  0  0  0  0  0  0  0  0  0  0  0
    0.9723   -3.6537    0.0000 O   0  0  0  0  0  0  0  0  0  0  0  0
    4.6850   -3.3591    0.0000 N   0  0  0  0  0  0  0  0  0  0  0  0
    5.0975   -4.0662    0.0000 N   0  0  0  0  0  0  0  0  0  0  0  0
    3.4180   -3.9189    0.0000 N   0  0  0  0  0  0  0  0  0  0  0  0
    1.1197   -2.2394    0.0000 N   0  0  0  0  0  0  0  0  0  0  0  0
    0.4714   -0.7366    0.0000 N   0  0  0  0  0  0  0  0  0  0  0  0
    8.8396   -0.6188    0.0000 N   0  0  0  0  0  0  0  0  0  0  0  0
    5.9815   -3.0939    0.0000 C   0  0  0  0  0  0  0  0  0  0  0  0
    5.2449   -2.7403    0.0000 C   0  0  0  0  0  0  0  0  0  0  0  0
    6.6887   -2.6813    0.0000 C   0  0  0  0  0  0  0  0  0  0  0  0
    3.8895   -3.2707    0.0000 C   0  0  0  0  0  0  0  0  0  0  0  0
    5.8931   -3.8895    0.0000 C   0  0  0  0  0  0  0  0  0  0  0  0
    6.6887   -1.8563    0.0000 C   0  0  0  0  0  0  0  0  0  0  0  0
    2.2688   -3.0939    0.0000 C   0  0  0  0  0  0  0  0  0  0  0  0
    3.5654   -2.5046    0.0000 C   0  0  0  0  0  0  0  0  0  0  0  0
    1.4438   -3.0055    0.0000 C   0  0  0  0  0  0  0  0  0  0  0  0
    7.4253   -3.0939    0.0000 C   0  0  0  0  0  0  0  0  0  0  0  0
    2.5930   -3.8600    0.0000 C   0  0  0  0  0  0  0  0  0  0  0  0
    2.7403   -2.4456    0.0000 C   0  0  0  0  0  0  0  0  0  0  0  0
    7.4253   -1.4438    0.0000 C   0  0  0  0  0  0  0  0  0  0  0  0
    8.1030   -1.8563    0.0000 C   0  0  0  0  0  0  0  0  0  0  0  0
    8.1030   -2.6813    0.0000 C   0  0  0  0  0  0  0  0  0  0  0  0
    1.6206   -1.5911    0.0000 C   0  0  0  0  0  0  0  0  0  0  0  0
    0.3241   -2.1510    0.0000 C   0  0  0  0  0  0  0  0  0  0  0  0
    5.9815   -1.4438    0.0000 C   0  0  0  0  0  0  0  0  0  0  0  0
    0.0000   -1.4143    0.0000 C   0  0  0  0  0  0  0  0  0  0  0  0
    1.2965   -0.8251    0.0000 C   0  0  0  0  0  0  0  0  0  0  0  0
    8.8396   -1.4438    0.0000 C   0  0  0  0  0  0  0  0  0  0  0  0
    0.1473    0.0000    0.0000 C   0  0  0  0  0  0  0  0  0  0  0  0
  1 10  1  0  0  0  0
  2 17  2  0  0  0  0
  3  4  1  0  0  0  0
  3 10  1  0  0  0  0
  3 12  1  0  0  0  0
  4 13  2  0  0  0  0
  5 12  1  0  0  0  0
  5 19  2  0  0  0  0
  6 17  1  0  0  0  0
  6 24  1  0  0  0  0
  6 25  1  0  0  0  0
  7 27  1  0  0  0  0
  7 28  1  0  0  0  0
  7 30  1  0  0  0  0
  8 29  3  0  0  0  0
  9 10  2  0  0  0  0
  9 11  1  0  0  0  0
  9 13  1  0  0  0  0
 11 14  2  0  0  0  0
 11 18  1  0  0  0  0
 12 16  2  0  0  0  0
 14 21  1  0  0  0  0
 14 26  1  0  0  0  0
 15 17  1  0  0  0  0
 15 19  1  0  0  0  0
 15 20  2  0  0  0  0
 16 20  1  0  0  0  0
 18 23  2  0  0  0  0
 21 22  2  0  0  0  0
 22 23  1  0  0  0  0
 22 29  1  0  0  0  0
 24 28  1  0  0  0  0
 25 27  1  0  0  0  0
M  END
> <PUBCHEM_COMPOUND_ID_TYPE>
0

> <PUBCHEM_TOTAL_CHARGE>
0

> <PUBCHEM_SUBSTANCE_ID>
310931976

> <PUBCHEM_SUBSTANCE_VERSION>
1

> <PUBCHEM_EXT_DATASOURCE_NAME>
4488

> <PUBCHEM_EXT_DATASOURCE_REGID>
SCHEMBL16109315

> <PUBCHEM_SUBSTANCE_COMMENT>
InChI=1S/C22H22N6O2/c1-15-11-16(12-23)3-5-18(15)19-14-25-28(22(19)30)20-6-4-17(13-24-20)21(29)27-9-7-26(2)8-10-27/h3-6,11,13-14,30H,7-10H2,1-2H3
InChIKey=KOTAMPMVFIDFFG-UHFFFAOYSA-N

> <PUBCHEM_SUBSTANCE_SYNONYM>
SCHEMBL16109315

> <PUBCHEM_XREF_EXT_ID>
SCHEMBL16109315

> <PUBCHEM_EXT_DATASOURCE_URL>
https://www.surechembl.org/

> <PUBCHEM_EXT_SUBSTANCE_URL>
https://www.surechembl.org/chemical/SCHEMBL16109315

> <PUBCHEM_CID_ASSOCIATIONS>
117600621  1

> <PUBCHEM_COORDINATE_TYPE>
1
3

$$$$
