310930655
  -OEChem-07211613022D

 34 37  0     0  0  0  0  0  0999 V2000
    5.8071   -3.5724    0.0000 S   0  0  0  0  0  0  0  0  0  0  0  0
    7.4571   -0.7144    0.0000 F   0  0  0  0  0  0  0  0  0  0  0  0
    7.8696   -1.4290    0.0000 F   0  0  0  0  0  0  0  0  0  0  0  0
    6.6321   -0.7144    0.0000 F   0  0  0  0  0  0  0  0  0  0  0  0
    6.6321   -2.1434    0.0000 O   0  0  0  0  0  0  0  0  0  0  0  0
    5.8071   -4.3974    0.0000 O   0  0  0  0  0  0  0  0  0  0  0  0
    5.8071   -2.7474    0.0000 O   0  0  0  0  0  0  0  0  0  0  0  0
    2.5071    0.7144    0.0000 O   0  0  0  0  0  0  0  0  0  0  0  0
    4.9821   -3.5724    0.0000 N   0  0  0  0  0  0  0  0  0  0  0  0
    0.7846    0.6674    0.0000 N   0  0  0  0  0  0  0  0  0  0  0  0
    2.5071   -0.7144    0.0000 N   0  0  0  0  0  0  0  0  0  0  0  0
   -1.4290   -0.4125    0.0000 N   0  0  0  0  0  0  0  0  0  0  0  0
    6.6321   -3.5724    0.0000 C   0  0  0  0  0  0  0  0  0  0  0  0
    7.0446   -2.8579    0.0000 C   0  0  0  0  0  0  0  0  0  0  0  0
    7.0446   -4.2868    0.0000 C   0  0  0  0  0  0  0  0  0  0  0  0
    0.0000   -0.4125    0.0000 C   0  0  0  0  0  0  0  0  0  0  0  0
    0.0000    0.4125    0.0000 C   0  0  0  0  0  0  0  0  0  0  0  0
    1.2696    0.0000    0.0000 C   0  0  0  0  0  0  0  0  0  0  0  0
    4.5696   -2.8579    0.0000 C   0  0  0  0  0  0  0  0  0  0  0  0
    7.8696   -2.8579    0.0000 C   0  0  0  0  0  0  0  0  0  0  0  0
    0.7846   -0.6674    0.0000 C   0  0  0  0  0  0  0  0  0  0  0  0
    7.0446   -1.4290    0.0000 C   0  0  0  0  0  0  0  0  0  0  0  0
    2.0946    0.0000    0.0000 C   0  0  0  0  0  0  0  0  0  0  0  0
    7.8696   -4.2868    0.0000 C   0  0  0  0  0  0  0  0  0  0  0  0
    8.2821   -3.5724    0.0000 C   0  0  0  0  0  0  0  0  0  0  0  0
    3.7446   -2.8579    0.0000 C   0  0  0  0  0  0  0  0  0  0  0  0
    4.9821   -2.1434    0.0000 C   0  0  0  0  0  0  0  0  0  0  0  0
    3.7446   -1.4290    0.0000 C   0  0  0  0  0  0  0  0  0  0  0  0
   -0.7144   -0.8250    0.0000 C   0  0  0  0  0  0  0  0  0  0  0  0
   -0.7144    0.8250    0.0000 C   0  0  0  0  0  0  0  0  0  0  0  0
    3.3321   -2.1434    0.0000 C   0  0  0  0  0  0  0  0  0  0  0  0
    4.5696   -1.4290    0.0000 C   0  0  0  0  0  0  0  0  0  0  0  0
    3.3321   -0.7144    0.0000 C   0  0  0  0  0  0  0  0  0  0  0  0
   -1.4290    0.4125    0.0000 C   0  0  0  0  0  0  0  0  0  0  0  0
  1  6  2  0  0  0  0
  1  7  2  0  0  0  0
  1  9  1  0  0  0  0
  1 13  1  0  0  0  0
  2 22  1  0  0  0  0
  3 22  1  0  0  0  0
  4 22  1  0  0  0  0
  5 14  1  0  0  0  0
  5 22  1  0  0  0  0
  8 23  2  0  0  0  0
  9 19  1  0  0  0  0
 10 17  1  0  0  0  0
 10 18  1  0  0  0  0
 11 23  1  0  0  0  0
 11 33  1  0  0  0  0
 12 29  2  0  0  0  0
 12 34  1  0  0  0  0
 13 14  1  0  0  0  0
 13 15  2  0  0  0  0
 14 20  2  0  0  0  0
 15 24  1  0  0  0  0
 16 17  2  0  0  0  0
 16 21  1  0  0  0  0
 16 29  1  0  0  0  0
 17 30  1  0  0  0  0
 18 21  2  0  0  0  0
 18 23  1  0  0  0  0
 19 26  2  0  0  0  0
 19 27  1  0  0  0  0
 20 25  1  0  0  0  0
 24 25  2  0  0  0  0
 26 31  1  0  0  0  0
 27 32  2  0  0  0  0
 28 31  2  0  0  0  0
 28 32  1  0  0  0  0
 28 33  1  0  0  0  0
 30 34  2  0  0  0  0
M  END
> <PUBCHEM_COMPOUND_ID_TYPE>
0

> <PUBCHEM_TOTAL_CHARGE>
0

> <PUBCHEM_SUBSTANCE_ID>
310930655

> <PUBCHEM_SUBSTANCE_VERSION>
1

> <PUBCHEM_EXT_DATASOURCE_NAME>
4488

> <PUBCHEM_EXT_DATASOURCE_REGID>
SCHEMBL16107952

> <PUBCHEM_SUBSTANCE_COMMENT>
InChI=1S/C22H17F3N4O4S/c23-22(24,25)33-19-3-1-2-4-20(19)34(31,32)29-16-7-5-14(6-8-16)12-27-21(30)18-11-15-13-26-10-9-17(15)28-18/h1-11,13,28-29H,12H2,(H,27,30)
InChIKey=SYLBXNWTNSSCFL-UHFFFAOYSA-N

> <PUBCHEM_SUBSTANCE_SYNONYM>
SCHEMBL16107952

> <PUBCHEM_XREF_EXT_ID>
SCHEMBL16107952

> <PUBCHEM_EXT_DATASOURCE_URL>
https://www.surechembl.org/

> <PUBCHEM_EXT_SUBSTANCE_URL>
https://www.surechembl.org/chemical/SCHEMBL16107952

> <PUBCHEM_CID_ASSOCIATIONS>
56943342  1

> <PUBCHEM_COORDINATE_TYPE>
1
3

$$$$
