310943936
  -OEChem-07211613022D

 29 32  0     0  0  0  0  0  0999 V2000
    0.0150    3.0714    0.0000 F   0  0  0  0  0  0  0  0  0  0  0  0
    0.7492   -0.6143    0.0000 N   0  0  0  0  0  0  0  0  0  0  0  0
   -0.7192   -0.6143    0.0000 N   0  0  0  0  0  0  0  0  0  0  0  0
    2.2175    2.5620    0.0000 N   0  0  0  0  0  0  0  0  0  0  0  0
   -2.1275    2.6070    0.0000 N   0  0  0  0  0  0  0  0  0  0  0  0
   -0.0150   -0.1798    0.0000 C   0  0  0  0  0  0  0  0  0  0  0  0
    0.0150    0.6293    0.0000 C   0  0  0  0  0  0  0  0  0  0  0  0
    0.7342   -1.4233    0.0000 C   0  0  0  0  0  0  0  0  0  0  0  0
   -0.7492   -1.4233    0.0000 C   0  0  0  0  0  0  0  0  0  0  0  0
    0.7342    1.8729    0.0000 C   0  0  0  0  0  0  0  0  0  0  0  0
   -0.7042    1.8729    0.0000 C   0  0  0  0  0  0  0  0  0  0  0  0
    0.0000    2.2624    0.0000 C   0  0  0  0  0  0  0  0  0  0  0  0
    0.7342    1.0338    0.0000 C   0  0  0  0  0  0  0  0  0  0  0  0
   -0.7192    1.0487    0.0000 C   0  0  0  0  0  0  0  0  0  0  0  0
    0.0000   -1.8279    0.0000 C   0  0  0  0  0  0  0  0  0  0  0  0
    1.4833   -1.8579    0.0000 C   0  0  0  0  0  0  0  0  0  0  0  0
   -1.4233   -1.8279    0.0000 C   0  0  0  0  0  0  0  0  0  0  0  0
    1.4833    2.2474    0.0000 C   0  0  0  0  0  0  0  0  0  0  0  0
   -1.4233    2.2474    0.0000 C   0  0  0  0  0  0  0  0  0  0  0  0
    1.4833   -2.6669    0.0000 C   0  0  0  0  0  0  0  0  0  0  0  0
    2.1874   -1.4383    0.0000 C   0  0  0  0  0  0  0  0  0  0  0  0
   -2.1724   -1.4383    0.0000 C   0  0  0  0  0  0  0  0  0  0  0  0
   -1.4533   -2.6669    0.0000 C   0  0  0  0  0  0  0  0  0  0  0  0
    2.2024   -3.0714    0.0000 C   0  0  0  0  0  0  0  0  0  0  0  0
    2.8917   -1.8429    0.0000 C   0  0  0  0  0  0  0  0  0  0  0  0
   -2.8917   -1.8429    0.0000 C   0  0  0  0  0  0  0  0  0  0  0  0
   -2.1575   -3.0565    0.0000 C   0  0  0  0  0  0  0  0  0  0  0  0
    2.8917   -2.6818    0.0000 C   0  0  0  0  0  0  0  0  0  0  0  0
   -2.8767   -2.6669    0.0000 C   0  0  0  0  0  0  0  0  0  0  0  0
  1 12  1  0  0  0  0
  2  6  1  0  0  0  0
  2  8  2  0  0  0  0
  3  6  2  0  0  0  0
  3  9  1  0  0  0  0
  4 18  3  0  0  0  0
  5 19  3  0  0  0  0
  6  7  1  0  0  0  0
  7 13  2  0  0  0  0
  7 14  1  0  0  0  0
  8 15  1  0  0  0  0
  8 16  1  0  0  0  0
  9 15  2  0  0  0  0
  9 17  1  0  0  0  0
 10 12  2  0  0  0  0
 10 13  1  0  0  0  0
 10 18  1  0  0  0  0
 11 12  1  0  0  0  0
 11 14  2  0  0  0  0
 11 19  1  0  0  0  0
 16 20  2  0  0  0  0
 16 21  1  0  0  0  0
 17 22  2  0  0  0  0
 17 23  1  0  0  0  0
 20 24  1  0  0  0  0
 21 25  2  0  0  0  0
 22 26  1  0  0  0  0
 23 27  2  0  0  0  0
 24 28  2  0  0  0  0
 25 28  1  0  0  0  0
 26 29  2  0  0  0  0
 27 29  1  0  0  0  0
M  END
> <PUBCHEM_COMPOUND_ID_TYPE>
0

> <PUBCHEM_TOTAL_CHARGE>
0

> <PUBCHEM_SUBSTANCE_ID>
310943936

> <PUBCHEM_SUBSTANCE_VERSION>
1

> <PUBCHEM_EXT_DATASOURCE_NAME>
4488

> <PUBCHEM_EXT_DATASOURCE_REGID>
SCHEMBL16122007

> <PUBCHEM_SUBSTANCE_COMMENT>
InChI=1S/C24H13FN4/c25-23-19(14-26)11-18(12-20(23)15-27)24-28-21(16-7-3-1-4-8-16)13-22(29-24)17-9-5-2-6-10-17/h1-13H
InChIKey=KJOANERGNROXQA-UHFFFAOYSA-N

> <PUBCHEM_SUBSTANCE_SYNONYM>
SCHEMBL16122007

> <PUBCHEM_XREF_EXT_ID>
SCHEMBL16122007

> <PUBCHEM_EXT_DATASOURCE_URL>
https://www.surechembl.org/

> <PUBCHEM_EXT_SUBSTANCE_URL>
https://www.surechembl.org/chemical/SCHEMBL16122007

> <PUBCHEM_CID_ASSOCIATIONS>
117610244  1

> <PUBCHEM_COORDINATE_TYPE>
1
3

$$$$
