310945372
  -OEChem-07211613022D

 11 11  0     1  0  0  0  0  0999 V2000
   -1.4580   -0.4096    0.0000 O   0  0  0  0  0  0  0  0  0  0  0  0
   -0.0694   -0.0625    0.0000 N   0  0  0  0  0  0  0  0  0  0  0  0
    1.9301    0.8678    0.0000 N   0  0  0  0  0  0  0  0  0  0  0  0
   -0.8609    0.1875    0.0000 C   0  0  0  0  0  0  0  0  0  0  0  0
    0.5277    0.5068    0.0000 C   0  0  0  0  0  0  0  0  0  0  0  0
    1.3330    0.2986    0.0000 C   0  0  3  0  0  0  0  0  0  0  0  0
    0.1528   -0.8262    0.0000 C   0  0  0  0  0  0  0  0  0  0  0  0
    1.5552   -0.4513    0.0000 C   0  0  0  0  0  0  0  0  0  0  0  0
    0.9720   -1.0345    0.0000 C   0  0  0  0  0  0  0  0  0  0  0  0
   -1.0831    0.9095    0.0000 C   0  0  0  0  0  0  0  0  0  0  0  0
   -1.9301    1.0345    0.0000 C   0  0  0  0  0  0  0  0  0  0  0  0
  1  4  2  0  0  0  0
  2  4  1  0  0  0  0
  2  5  1  0  0  0  0
  2  7  1  0  0  0  0
  6  3  1  1  0  0  0
  4 10  1  0  0  0  0
  5  6  1  0  0  0  0
  6  8  1  0  0  0  0
  7  9  1  0  0  0  0
  8  9  1  0  0  0  0
 10 11  2  0  0  0  0
M  END
> <PUBCHEM_COMPOUND_ID_TYPE>
0

> <PUBCHEM_TOTAL_CHARGE>
0

> <PUBCHEM_SUBSTANCE_ID>
310945372

> <PUBCHEM_SUBSTANCE_VERSION>
1

> <PUBCHEM_EXT_DATASOURCE_NAME>
4488

> <PUBCHEM_EXT_DATASOURCE_REGID>
SCHEMBL16123470

> <PUBCHEM_SUBSTANCE_COMMENT>
InChI=1S/C8H14N2O/c1-2-8(11)10-5-3-4-7(9)6-10/h2,7H,1,3-6,9H2/t7-/m0/s1
InChIKey=PEXKXXDOKRZDFT-ZETCQYMHSA-N

> <PUBCHEM_SUBSTANCE_SYNONYM>
SCHEMBL16123470

> <PUBCHEM_XREF_EXT_ID>
SCHEMBL16123470

> <PUBCHEM_EXT_DATASOURCE_URL>
https://www.surechembl.org/

> <PUBCHEM_EXT_SUBSTANCE_URL>
https://www.surechembl.org/chemical/SCHEMBL16123470

> <PUBCHEM_CID_ASSOCIATIONS>
93674638  1

> <PUBCHEM_COORDINATE_TYPE>
1
3

> <PUBCHEM_BONDANNOTATIONS>
6  3  5

$$$$
