310940507
  -OEChem-07211613022D

 26 28  0     0  0  0  0  0  0999 V2000
   -1.8264   -1.4430    0.0000 O   0  0  0  0  0  0  0  0  0  0  0  0
   -0.3625   -3.9386    0.0000 O   0  0  0  0  0  0  0  0  0  0  0  0
   -1.1014   -0.2022    0.0000 N   0  0  0  0  0  0  0  0  0  0  0  0
    0.4462    2.2934    0.0000 N   0  0  0  0  0  0  0  0  0  0  0  0
    1.1293    2.7396    0.0000 N   0  3  0  0  0  0  0  0  0  0  0  0
    1.0735   -3.9386    0.0000 N   0  0  0  0  0  0  0  0  0  0  0  0
    1.8264    3.1718    0.0000 N   0  5  0  0  0  0  0  0  0  0  0  0
   -1.1153    1.4569    0.0000 C   0  0  0  0  0  0  0  0  0  0  0  0
   -1.1014   -1.0107    0.0000 C   0  0  0  0  0  0  0  0  0  0  0  0
   -1.1153    2.2794    0.0000 C   0  0  0  0  0  0  0  0  0  0  0  0
   -0.3765   -1.4430    0.0000 C   0  0  0  0  0  0  0  0  0  0  0  0
   -0.3765    2.6978    0.0000 C   0  0  0  0  0  0  0  0  0  0  0  0
   -0.3625    0.2440    0.0000 C   0  0  0  0  0  0  0  0  0  0  0  0
   -1.8125    0.2161    0.0000 C   0  0  0  0  0  0  0  0  0  0  0  0
   -0.3765    1.0387    0.0000 C   0  0  0  0  0  0  0  0  0  0  0  0
   -1.8125    1.0526    0.0000 C   0  0  0  0  0  0  0  0  0  0  0  0
   -0.3625   -2.2655    0.0000 C   0  0  0  0  0  0  0  0  0  0  0  0
    0.3625   -2.6698    0.0000 C   0  0  0  0  0  0  0  0  0  0  0  0
    0.3625   -1.0387    0.0000 C   0  0  0  0  0  0  0  0  0  0  0  0
   -1.8125    2.6978    0.0000 C   0  0  0  0  0  0  0  0  0  0  0  0
   -0.3765    3.5202    0.0000 C   0  0  0  0  0  0  0  0  0  0  0  0
    1.0456   -2.2794    0.0000 C   0  0  0  0  0  0  0  0  0  0  0  0
    1.0595   -1.4430    0.0000 C   0  0  0  0  0  0  0  0  0  0  0  0
    0.3486   -3.5064    0.0000 C   0  0  0  0  0  0  0  0  0  0  0  0
   -1.8125    3.5202    0.0000 C   0  0  0  0  0  0  0  0  0  0  0  0
   -1.1014    3.9386    0.0000 C   0  0  0  0  0  0  0  0  0  0  0  0
  1  9  2  0  0  0  0
  2 24  2  0  0  0  0
  3  9  1  0  0  0  0
  3 13  1  0  0  0  0
  3 14  1  0  0  0  0
  4  5  2  0  0  0  0
  4 12  1  0  0  0  0
  5  7  2  0  0  0  0
  6 24  1  0  0  0  0
  8 10  1  0  0  0  0
  8 15  1  0  0  0  0
  8 16  1  0  0  0  0
  9 11  1  0  0  0  0
 10 12  2  0  0  0  0
 10 20  1  0  0  0  0
 11 17  2  0  0  0  0
 11 19  1  0  0  0  0
 12 21  1  0  0  0  0
 13 15  1  0  0  0  0
 14 16  1  0  0  0  0
 17 18  1  0  0  0  0
 18 22  2  0  0  0  0
 18 24  1  0  0  0  0
 19 23  2  0  0  0  0
 20 25  2  0  0  0  0
 21 26  2  0  0  0  0
 22 23  1  0  0  0  0
 25 26  1  0  0  0  0
M  CHG  2   5   1   7  -1
M  END
> <PUBCHEM_COMPOUND_ID_TYPE>
0

> <PUBCHEM_TOTAL_CHARGE>
0

> <PUBCHEM_SUBSTANCE_ID>
310940507

> <PUBCHEM_SUBSTANCE_VERSION>
1

> <PUBCHEM_EXT_DATASOURCE_NAME>
4488

> <PUBCHEM_EXT_DATASOURCE_REGID>
SCHEMBL16118461

> <PUBCHEM_SUBSTANCE_COMMENT>
InChI=1S/C19H19N5O2/c20-18(25)14-4-3-5-15(12-14)19(26)24-10-8-13(9-11-24)16-6-1-2-7-17(16)22-23-21/h1-7,12-13H,8-11H2,(H2,20,25)
InChIKey=PDNSMOJKWRJNPO-UHFFFAOYSA-N

> <PUBCHEM_SUBSTANCE_SYNONYM>
SCHEMBL16118461

> <PUBCHEM_XREF_EXT_ID>
SCHEMBL16118461

> <PUBCHEM_EXT_DATASOURCE_URL>
https://www.surechembl.org/

> <PUBCHEM_EXT_SUBSTANCE_URL>
https://www.surechembl.org/chemical/SCHEMBL16118461

> <PUBCHEM_CID_ASSOCIATIONS>
117607522  1

> <PUBCHEM_COORDINATE_TYPE>
1
3

$$$$
