310941821
  -OEChem-07211613022D

 29 33  0     0  0  0  0  0  0999 V2000
    3.5284    0.7867    0.0000 S   0  0  0  0  0  0  0  0  0  0  0  0
   -0.8859   -0.6492    0.0000 O   0  0  0  0  0  0  0  0  0  0  0  0
    4.3075    1.0463    0.0000 O   0  0  0  0  0  0  0  0  0  0  0  0
    3.6964    1.5962    0.0000 O   0  0  0  0  0  0  0  0  0  0  0  0
    1.2831    0.6034    0.0000 N   0  0  0  0  0  0  0  0  0  0  0  0
    0.7485    1.8253    0.0000 N   0  0  0  0  0  0  0  0  0  0  0  0
    1.5733    1.9017    0.0000 N   0  0  0  0  0  0  0  0  0  0  0  0
    2.7036    0.9700    0.0000 N   0  0  0  0  0  0  0  0  0  0  0  0
   -2.3523   -0.6339    0.0000 C   0  0  0  0  0  0  0  0  0  0  0  0
    0.5652    1.0157    0.0000 C   0  0  0  0  0  0  0  0  0  0  0  0
   -0.1833   -0.2367    0.0000 C   0  0  0  0  0  0  0  0  0  0  0  0
    1.8940    1.1685    0.0000 C   0  0  0  0  0  0  0  0  0  0  0  0
    0.5652   -0.6339    0.0000 C   0  0  0  0  0  0  0  0  0  0  0  0
   -3.5284   -0.1451    0.0000 C   0  0  0  0  0  0  0  0  0  0  0  0
   -3.9103   -0.6339    0.0000 C   0  0  0  0  0  0  0  0  0  0  0  0
   -3.1466   -1.6420    0.0000 C   0  0  0  0  0  0  0  0  0  0  0  0
   -2.7342    0.0535    0.0000 C   0  0  0  0  0  0  0  0  0  0  0  0
   -3.0855   -0.4200    0.0000 C   0  0  0  0  0  0  0  0  0  0  0  0
   -2.3523   -1.4588    0.0000 C   0  0  0  0  0  0  0  0  0  0  0  0
    1.2678   -0.2367    0.0000 C   0  0  0  0  0  0  0  0  0  0  0  0
   -0.1528    0.6034    0.0000 C   0  0  0  0  0  0  0  0  0  0  0  0
   -1.6191   -0.2367    0.0000 C   0  0  0  0  0  0  0  0  0  0  0  0
   -4.3075    0.0535    0.0000 C   0  0  0  0  0  0  0  0  0  0  0  0
   -3.5438   -0.9852    0.0000 C   0  0  0  0  0  0  0  0  0  0  0  0
   -3.9256   -1.4588    0.0000 C   0  0  0  0  0  0  0  0  0  0  0  0
    0.5499   -1.4588    0.0000 C   0  0  0  0  0  0  0  0  0  0  0  0
   -0.1680   -1.8865    0.0000 C   0  0  0  0  0  0  0  0  0  0  0  0
    1.2525   -1.9017    0.0000 C   0  0  0  0  0  0  0  0  0  0  0  0
    3.7881   -0.0077    0.0000 C   0  0  0  0  0  0  0  0  0  0  0  0
  1  3  2  0  0  0  0
  1  4  2  0  0  0  0
  1  8  1  0  0  0  0
  1 29  1  0  0  0  0
  2 11  1  0  0  0  0
  2 22  1  0  0  0  0
  5 10  1  0  0  0  0
  5 12  1  0  0  0  0
  5 20  1  0  0  0  0
  6  7  1  0  0  0  0
  6 10  2  0  0  0  0
  7 12  2  0  0  0  0
  8 12  1  0  0  0  0
  9 17  1  0  0  0  0
  9 18  1  0  0  0  0
  9 19  1  0  0  0  0
  9 22  1  0  0  0  0
 10 21  1  0  0  0  0
 11 13  1  0  0  0  0
 11 21  2  0  0  0  0
 13 20  2  0  0  0  0
 13 26  1  0  0  0  0
 14 17  1  0  0  0  0
 14 23  1  1  0  0  0
 14 24  1  0  0  0  0
 15 18  1  0  0  0  0
 15 23  1  0  0  0  0
 15 25  1  0  0  0  0
 16 19  1  0  0  0  0
 16 24  1  0  0  0  0
 16 25  1  0  0  0  0
 26 27  2  0  0  0  0
 26 28  1  0  0  0  0
M  END
> <PUBCHEM_COMPOUND_ID_TYPE>
0

> <PUBCHEM_TOTAL_CHARGE>
0

> <PUBCHEM_SUBSTANCE_ID>
310941821

> <PUBCHEM_SUBSTANCE_VERSION>
1

> <PUBCHEM_EXT_DATASOURCE_NAME>
4488

> <PUBCHEM_EXT_DATASOURCE_REGID>
SCHEMBL16119853

> <PUBCHEM_SUBSTANCE_COMMENT>
InChI=1S/C21H28N4O3S/c1-13(2)17-11-25-19(22-23-20(25)24-29(3,26)27)7-18(17)28-12-21-8-14-4-15(9-21)6-16(5-14)10-21/h7,11,14-16H,1,4-6,8-10,12H2,2-3H3,(H,23,24)/t14-,15?,16?,21?
InChIKey=OCVMBVUADFSISS-IIQXKVQHSA-N

> <PUBCHEM_SUBSTANCE_SYNONYM>
SCHEMBL16119853

> <PUBCHEM_XREF_EXT_ID>
SCHEMBL16119853

> <PUBCHEM_EXT_DATASOURCE_URL>
https://www.surechembl.org/

> <PUBCHEM_EXT_SUBSTANCE_URL>
https://www.surechembl.org/chemical/SCHEMBL16119853

> <PUBCHEM_CID_ASSOCIATIONS>
86270325  1

> <PUBCHEM_COORDINATE_TYPE>
1
3

> <PUBCHEM_BONDANNOTATIONS>
14  23  5

$$$$
