310943204
  -OEChem-07211613022D

 38 41  0     0  0  0  0  0  0999 V2000
    4.2668    1.0188    0.0000 F   0  0  0  0  0  0  0  0  0  0  0  0
    4.9714    0.6052    0.0000 F   0  0  0  0  0  0  0  0  0  0  0  0
    4.9714   -0.2069    0.0000 F   0  0  0  0  0  0  0  0  0  0  0  0
    4.2514   -1.4478    0.0000 O   0  0  0  0  0  0  0  0  0  0  0  0
    0.7124   -0.2069    0.0000 O   0  0  0  0  0  0  0  0  0  0  0  0
   -4.9714    2.2597    0.0000 O   0  0  0  0  0  0  0  0  0  0  0  0
    2.8419   -1.4478    0.0000 N   0  0  0  0  0  0  0  0  0  0  0  0
   -1.4171    0.1915    0.0000 N   0  0  0  0  0  0  0  0  0  0  0  0
    1.4325    1.0188    0.0000 N   0  0  0  0  0  0  0  0  0  0  0  0
   -3.5467    1.4325    0.0000 N   0  0  0  0  0  0  0  0  0  0  0  0
   -2.8266    0.1915    0.0000 N   0  0  0  0  0  0  0  0  0  0  0  0
    0.0077    2.6581    0.0000 N   0  0  0  0  0  0  0  0  0  0  0  0
   -2.1219   -1.0341    0.0000 N   0  0  0  0  0  0  0  0  0  0  0  0
    3.5620   -0.2069    0.0000 C   0  0  0  0  0  0  0  0  0  0  0  0
    3.5314   -1.0188    0.0000 C   0  0  0  0  0  0  0  0  0  0  0  0
    2.1372   -0.2069    0.0000 C   0  0  0  0  0  0  0  0  0  0  0  0
   -0.7124    1.4325    0.0000 C   0  0  0  0  0  0  0  0  0  0  0  0
    4.2821    0.2069    0.0000 C   0  0  0  0  0  0  0  0  0  0  0  0
   -1.4171    1.0341    0.0000 C   0  0  0  0  0  0  0  0  0  0  0  0
    2.8419    0.2069    0.0000 C   0  0  0  0  0  0  0  0  0  0  0  0
    1.4325    0.2222    0.0000 C   0  0  0  0  0  0  0  0  0  0  0  0
    2.1372   -1.0341    0.0000 C   0  0  0  0  0  0  0  0  0  0  0  0
    0.6971    1.4325    0.0000 C   0  0  0  0  0  0  0  0  0  0  0  0
   -2.8266    1.0341    0.0000 C   0  0  0  0  0  0  0  0  0  0  0  0
   -0.6971    2.2597    0.0000 C   0  0  0  0  0  0  0  0  0  0  0  0
    0.0230    1.0341    0.0000 C   0  0  0  0  0  0  0  0  0  0  0  0
   -2.1372    1.4325    0.0000 C   0  0  0  0  0  0  0  0  0  0  0  0
   -2.1219   -0.2069    0.0000 C   0  0  0  0  0  0  0  0  0  0  0  0
    0.7277    2.2444    0.0000 C   0  0  0  0  0  0  0  0  0  0  0  0
    2.8419   -2.2597    0.0000 C   0  0  0  0  0  0  0  0  0  0  0  0
   -3.5467    2.2444    0.0000 C   0  0  0  0  0  0  0  0  0  0  0  0
   -4.2361    1.0341    0.0000 C   0  0  0  0  0  0  0  0  0  0  0  0
   -1.4325    2.6581    0.0000 C   0  0  0  0  0  0  0  0  0  0  0  0
   -4.2514    2.6734    0.0000 C   0  0  0  0  0  0  0  0  0  0  0  0
   -4.9561    1.4325    0.0000 C   0  0  0  0  0  0  0  0  0  0  0  0
    3.5773   -2.6734    0.0000 C   0  0  0  0  0  0  0  0  0  0  0  0
   -1.4325   -1.4325    0.0000 C   0  0  0  0  0  0  0  0  0  0  0  0
   -1.4018   -2.2750    0.0000 C   0  0  0  0  0  0  0  0  0  0  0  0
  1 18  1  0  0  0  0
  2 18  1  0  0  0  0
  3 18  1  0  0  0  0
  4 15  2  0  0  0  0
  5 21  2  0  0  0  0
  6 34  1  0  0  0  0
  6 35  1  0  0  0  0
  7 15  1  0  0  0  0
  7 22  1  0  0  0  0
  7 30  1  0  0  0  0
  8 19  2  0  0  0  0
  8 28  1  0  0  0  0
  9 21  1  0  0  0  0
  9 23  1  0  0  0  0
 10 24  1  0  0  0  0
 10 31  1  0  0  0  0
 10 32  1  0  0  0  0
 11 24  1  0  0  0  0
 11 28  2  0  0  0  0
 12 25  1  0  0  0  0
 12 29  2  0  0  0  0
 13 28  1  0  0  0  0
 13 37  1  0  0  0  0
 14 15  1  0  0  0  0
 14 18  1  0  0  0  0
 14 20  2  0  0  0  0
 16 20  1  0  0  0  0
 16 21  1  0  0  0  0
 16 22  2  0  0  0  0
 17 19  1  0  0  0  0
 17 25  2  0  0  0  0
 17 26  1  0  0  0  0
 19 27  1  0  0  0  0
 23 26  2  0  0  0  0
 23 29  1  0  0  0  0
 24 27  2  0  0  0  0
 25 33  1  0  0  0  0
 30 36  1  0  0  0  0
 31 34  1  0  0  0  0
 32 35  1  0  0  0  0
 37 38  1  0  0  0  0
M  END
> <PUBCHEM_COMPOUND_ID_TYPE>
0

> <PUBCHEM_TOTAL_CHARGE>
0

> <PUBCHEM_SUBSTANCE_ID>
310943204

> <PUBCHEM_SUBSTANCE_VERSION>
1

> <PUBCHEM_EXT_DATASOURCE_NAME>
4488

> <PUBCHEM_EXT_DATASOURCE_REGID>
SCHEMBL16121265

> <PUBCHEM_SUBSTANCE_COMMENT>
InChI=1S/C25H28F3N7O3/c1-4-29-24-32-20(12-21(33-24)35-6-8-38-9-7-35)18-11-17(13-30-15(18)3)31-22(36)16-10-19(25(26,27)28)23(37)34(5-2)14-16/h10-14H,4-9H2,1-3H3,(H,31,36)(H,29,32,33)
InChIKey=FNCZCULRMIPACE-UHFFFAOYSA-N

> <PUBCHEM_SUBSTANCE_SYNONYM>
SCHEMBL16121265

> <PUBCHEM_XREF_EXT_ID>
SCHEMBL16121265

> <PUBCHEM_EXT_DATASOURCE_URL>
https://www.surechembl.org/

> <PUBCHEM_EXT_SUBSTANCE_URL>
https://www.surechembl.org/chemical/SCHEMBL16121265

> <PUBCHEM_CID_ASSOCIATIONS>
117609630  1

> <PUBCHEM_COORDINATE_TYPE>
1
3

$$$$
