310928805
  -OEChem-07211613022D

 12 13  0     0  0  0  0  0  0999 V2000
    0.3966    0.6674    0.0000 N   0  0  0  0  0  0  0  0  0  0  0  0
    2.5315   -0.0000    0.0000 N   0  0  0  0  0  0  0  0  0  0  0  0
   -0.3881    0.4125    0.0000 C   0  0  0  0  0  0  0  0  0  0  0  0
   -0.3881   -0.4125    0.0000 C   0  0  0  0  0  0  0  0  0  0  0  0
    0.8815   -0.0000    0.0000 C   0  0  0  0  0  0  0  0  0  0  0  0
    0.3966   -0.6674    0.0000 C   0  0  0  0  0  0  0  0  0  0  0  0
   -1.1025    0.8250    0.0000 C   0  0  0  0  0  0  0  0  0  0  0  0
   -1.1025   -0.8250    0.0000 C   0  0  0  0  0  0  0  0  0  0  0  0
   -1.8170    0.4125    0.0000 C   0  0  0  0  0  0  0  0  0  0  0  0
   -1.8170   -0.4125    0.0000 C   0  0  0  0  0  0  0  0  0  0  0  0
    1.7065   -0.0000    0.0000 C   0  0  0  0  0  0  0  0  0  0  0  0
   -2.5315    0.8250    0.0000 C   0  0  0  0  0  0  0  0  0  0  0  0
  1  3  1  0  0  0  0
  1  5  1  0  0  0  0
  2 11  3  0  0  0  0
  3  4  2  0  0  0  0
  3  7  1  0  0  0  0
  4  6  1  0  0  0  0
  4  8  1  0  0  0  0
  5  6  2  0  0  0  0
  5 11  1  0  0  0  0
  7  9  2  0  0  0  0
  8 10  2  0  0  0  0
  9 10  1  0  0  0  0
  9 12  1  0  0  0  0
M  END
> <PUBCHEM_COMPOUND_ID_TYPE>
0

> <PUBCHEM_TOTAL_CHARGE>
0

> <PUBCHEM_SUBSTANCE_ID>
310928805

> <PUBCHEM_SUBSTANCE_VERSION>
1

> <PUBCHEM_EXT_DATASOURCE_NAME>
11752

> <PUBCHEM_EXT_DATASOURCE_REGID>
BD260401

> <PUBCHEM_SUBSTANCE_SYNONYM>
1513412-80-0
6-Methyl-1H-indole-2-carbonitrile

> <PUBCHEM_GENERIC_REGISTRY_NAME>
1513412-80-0

> <PUBCHEM_XREF_EXT_ID>
BD260401

> <PUBCHEM_EXT_DATASOURCE_URL>
http://www.bidepharmatech.com/en/index.html

> <PUBCHEM_EXT_SUBSTANCE_URL>
http://www.bidepharmatech.com/en/goodsview_goodscode_BD260401.html

> <PUBCHEM_CID_ASSOCIATIONS>
53641882  1

> <PUBCHEM_COORDINATE_TYPE>
1
3

$$$$
