310947433
  -OEChem-07211613022D

 24 25  0     0  0  0  0  0  0999 V2000
    0.0000   -9.6615    0.0000 O   0  0  0  0  0  0  0  0  0  0  0  0
   -1.4289   -8.8365    0.0000 O   0  0  0  0  0  0  0  0  0  0  0  0
    3.5724  -10.8990    0.0000 O   0  0  0  0  0  0  0  0  0  0  0  0
   -3.5724   -8.4240    0.0000 O   0  0  0  0  0  0  0  0  0  0  0  0
   -2.1434  -10.0740    0.0000 N   0  0  0  0  0  0  0  0  0  0  0  0
    2.8579  -12.1365    0.0000 N   0  0  0  0  0  0  0  0  0  0  0  0
   -2.1434  -10.8990    0.0000 C   0  0  0  0  0  0  0  0  0  0  0  0
   -1.4289   -9.6615    0.0000 C   0  0  0  0  0  0  0  0  0  0  0  0
    0.7145  -10.0740    0.0000 C   0  0  0  0  0  0  0  0  0  0  0  0
    2.1434  -10.8990    0.0000 C   0  0  0  0  0  0  0  0  0  0  0  0
   -0.7145  -10.0740    0.0000 C   0  0  0  0  0  0  0  0  0  0  0  0
    1.4289   -9.6615    0.0000 C   0  0  0  0  0  0  0  0  0  0  0  0
    0.7145  -10.8990    0.0000 C   0  0  0  0  0  0  0  0  0  0  0  0
    2.1434  -10.0740    0.0000 C   0  0  0  0  0  0  0  0  0  0  0  0
    1.4289  -11.3115    0.0000 C   0  0  0  0  0  0  0  0  0  0  0  0
   -2.8579   -9.6615    0.0000 C   0  0  0  0  0  0  0  0  0  0  0  0
    2.8579  -11.3115    0.0000 C   0  0  0  0  0  0  0  0  0  0  0  0
   -2.8579  -11.3115    0.0000 C   0  0  0  0  0  0  0  0  0  0  0  0
   -1.4289  -11.3115    0.0000 C   0  0  0  0  0  0  0  0  0  0  0  0
   -2.8579  -12.1365    0.0000 C   0  0  0  0  0  0  0  0  0  0  0  0
   -1.4289  -12.1365    0.0000 C   0  0  0  0  0  0  0  0  0  0  0  0
   -2.1434  -12.5490    0.0000 C   0  0  0  0  0  0  0  0  0  0  0  0
   -2.8579   -8.8365    0.0000 C   0  0  0  0  0  0  0  0  0  0  0  0
    3.5724  -12.5490    0.0000 C   0  0  0  0  0  0  0  0  0  0  0  0
  1  9  1  0  0  0  0
  1 11  1  0  0  0  0
  2  8  2  0  0  0  0
  3 17  2  0  0  0  0
  4 23  1  0  0  0  0
  5  7  1  0  0  0  0
  5  8  1  0  0  0  0
  5 16  1  0  0  0  0
  6 17  1  0  0  0  0
  6 24  1  0  0  0  0
  7 18  2  0  0  0  0
  7 19  1  0  0  0  0
  8 11  1  0  0  0  0
  9 12  2  0  0  0  0
  9 13  1  0  0  0  0
 10 14  2  0  0  0  0
 10 15  1  0  0  0  0
 10 17  1  0  0  0  0
 12 14  1  0  0  0  0
 13 15  2  0  0  0  0
 16 23  1  0  0  0  0
 18 20  1  0  0  0  0
 19 21  2  0  0  0  0
 20 22  2  0  0  0  0
 21 22  1  0  0  0  0
M  END
> <PUBCHEM_COMPOUND_ID_TYPE>
0

> <PUBCHEM_TOTAL_CHARGE>
0

> <PUBCHEM_SUBSTANCE_ID>
310947433

> <PUBCHEM_SUBSTANCE_VERSION>
1

> <PUBCHEM_EXT_DATASOURCE_NAME>
4488

> <PUBCHEM_EXT_DATASOURCE_REGID>
SCHEMBL16125594

> <PUBCHEM_SUBSTANCE_COMMENT>
InChI=1S/C18H20N2O4/c1-19-18(23)14-7-9-16(10-8-14)24-13-17(22)20(11-12-21)15-5-3-2-4-6-15/h2-10,21H,11-13H2,1H3,(H,19,23)
InChIKey=PVANEOGNJDUWOP-UHFFFAOYSA-N

> <PUBCHEM_SUBSTANCE_SYNONYM>
SCHEMBL16125594

> <PUBCHEM_XREF_EXT_ID>
SCHEMBL16125594

> <PUBCHEM_EXT_DATASOURCE_URL>
https://www.surechembl.org/

> <PUBCHEM_EXT_SUBSTANCE_URL>
https://www.surechembl.org/chemical/SCHEMBL16125594

> <PUBCHEM_CID_ASSOCIATIONS>
117613165  1

> <PUBCHEM_COORDINATE_TYPE>
1
3

$$$$
