310930403
  -OEChem-07211613022D

 20 22  0     1  0  0  0  0  0999 V2000
    2.8381   -2.8796    0.0000 N   0  0  0  0  0  0  0  0  0  0  0  0
    2.1131   -2.4859    0.0000 N   0  0  0  0  0  0  0  0  0  0  0  0
    0.7044   -2.4653    0.0000 N   0  0  0  0  0  0  0  0  0  0  0  0
    3.6047   -3.9776    0.0000 N   0  0  0  0  0  0  0  0  0  0  0  0
    4.1019   -3.3146    0.0000 N   0  0  0  0  0  0  0  0  0  0  0  0
    2.8381   -3.7497    0.0000 C   0  0  0  0  0  0  0  0  0  0  0  0
    1.4087   -2.8796    0.0000 C   0  0  0  0  0  0  0  0  0  0  0  0
    3.6047   -2.6517    0.0000 C   0  0  0  0  0  0  0  0  0  0  0  0
    2.1131   -4.1433    0.0000 C   0  0  0  0  0  0  0  0  0  0  0  0
    1.4087   -3.7497    0.0000 C   0  0  0  0  0  0  0  0  0  0  0  0
    0.7044   -1.6573    0.0000 C   0  0  3  0  0  0  0  0  0  0  0  0
    1.4294   -1.2430    0.0000 C   0  0  0  0  0  0  0  0  0  0  0  0
    3.8740   -1.8645    0.0000 C   0  0  0  0  0  0  0  0  0  0  0  0
    0.0000   -2.8796    0.0000 C   0  0  0  0  0  0  0  0  0  0  0  0
    1.4294   -0.4143    0.0000 C   0  0  0  0  0  0  0  0  0  0  0  0
    2.1338   -1.6366    0.0000 C   0  0  0  0  0  0  0  0  0  0  0  0
    0.0000   -1.2430    0.0000 C   0  0  0  0  0  0  0  0  0  0  0  0
    2.1338    0.0000    0.0000 C   0  0  0  0  0  0  0  0  0  0  0  0
    2.8381   -1.2430    0.0000 C   0  0  0  0  0  0  0  0  0  0  0  0
    2.8589   -0.4143    0.0000 C   0  0  0  0  0  0  0  0  0  0  0  0
  1  2  1  0  0  0  0
  1  6  1  0  0  0  0
  1  8  1  0  0  0  0
  2  7  2  0  0  0  0
  3  7  1  0  0  0  0
  3 11  1  0  0  0  0
  3 14  1  0  0  0  0
  4  5  1  0  0  0  0
  4  6  2  0  0  0  0
  5  8  2  0  0  0  0
  6  9  1  0  0  0  0
  7 10  1  0  0  0  0
  8 13  1  0  0  0  0
  9 10  2  0  0  0  0
 11 12  1  0  0  0  0
 11 17  1  1  0  0  0
 12 15  2  0  0  0  0
 12 16  1  0  0  0  0
 15 18  1  0  0  0  0
 16 19  2  0  0  0  0
 18 20  2  0  0  0  0
 19 20  1  0  0  0  0
M  END
> <PUBCHEM_COMPOUND_ID_TYPE>
0

> <PUBCHEM_TOTAL_CHARGE>
0

> <PUBCHEM_SUBSTANCE_ID>
310930403

> <PUBCHEM_SUBSTANCE_VERSION>
1

> <PUBCHEM_EXT_DATASOURCE_NAME>
4488

> <PUBCHEM_EXT_DATASOURCE_REGID>
SCHEMBL16107690

> <PUBCHEM_SUBSTANCE_COMMENT>
InChI=1S/C15H17N5/c1-11(13-7-5-4-6-8-13)19(3)15-10-9-14-17-16-12(2)20(14)18-15/h4-11H,1-3H3/t11-/m0/s1
InChIKey=AEFMHHWKTVNVRQ-NSHDSACASA-N

> <PUBCHEM_SUBSTANCE_SYNONYM>
SCHEMBL16107690

> <PUBCHEM_XREF_EXT_ID>
SCHEMBL16107690

> <PUBCHEM_EXT_DATASOURCE_URL>
https://www.surechembl.org/

> <PUBCHEM_EXT_SUBSTANCE_URL>
https://www.surechembl.org/chemical/SCHEMBL16107690

> <PUBCHEM_CID_ASSOCIATIONS>
71499137  1

> <PUBCHEM_COORDINATE_TYPE>
1
3

> <PUBCHEM_BONDANNOTATIONS>
11  17  5

$$$$
