310942574
  -OEChem-07211613022D

 82 87  0     1  0  0  0  0  0999 V2000
    4.0640   -0.1535    0.0000 F   0  0  0  0  0  0  0  0  0  0  0  0
    2.8653    4.8753    0.0000 F   0  0  0  0  0  0  0  0  0  0  0  0
    6.5345   -2.3609    0.0000 F   0  0  0  0  0  0  0  0  0  0  0  0
    9.7360    2.6679    0.0000 F   0  0  0  0  0  0  0  0  0  0  0  0
    2.7483    2.0978    0.0000 O   0  0  0  0  0  0  0  0  0  0  0  0
    4.1956    0.4459    0.0000 O   0  0  0  0  0  0  0  0  0  0  0  0
    0.9063    1.8785    0.0000 O   0  0  0  0  0  0  0  0  0  0  0  0
    0.1900    3.1211    0.0000 O   0  0  0  0  0  0  0  0  0  0  0  0
   -1.2426   -1.8493    0.0000 O   0  0  0  0  0  0  0  0  0  0  0  0
   -1.9589   -2.2586    0.0000 O   0  0  0  0  0  0  0  0  0  0  0  0
   -7.8941   -4.8753    0.0000 O   0  0  0  0  0  0  0  0  0  0  0  0
   -9.3413   -2.3609    0.0000 O   0  0  0  0  0  0  0  0  0  0  0  0
   -4.1078   -4.3344    0.0000 O   0  0  0  0  0  0  0  0  0  0  0  0
    3.0553   -4.3344    0.0000 O   0  0  0  0  0  0  0  0  0  0  0  0
    6.3153    1.5276    0.0000 N   0  0  0  0  0  0  0  0  0  0  0  0
    4.0932    2.5656    0.0000 N   0  0  0  0  0  0  0  0  0  0  0  0
    5.0873    0.9722    0.0000 N   0  0  0  0  0  0  0  0  0  0  0  0
    1.6227    3.1211    0.0000 N   0  0  0  0  0  0  0  0  0  0  0  0
    0.1900   -1.8346    0.0000 N   0  0  0  0  0  0  0  0  0  0  0  0
   -8.4204   -3.5012    0.0000 N   0  0  0  0  0  0  0  0  0  0  0  0
   -1.2426   -3.5012    0.0000 N   0  0  0  0  0  0  0  0  0  0  0  0
   -3.4061   -3.0772    0.0000 N   0  0  0  0  0  0  0  0  0  0  0  0
    2.3390   -3.0772    0.0000 N   0  0  0  0  0  0  0  0  0  0  0  0
    3.7716   -3.0772    0.0000 N   0  0  0  0  0  0  0  0  0  0  0  0
    5.1750    2.4194    0.0000 C   0  0  3  0  0  0  0  0  0  0  0  0
    5.4966    1.7177    0.0000 C   0  0  0  0  0  0  0  0  0  0  0  0
    5.6574    3.1503    0.0000 C   0  0  0  0  0  0  0  0  0  0  0  0
    5.6428    0.3727    0.0000 C   0  0  0  0  0  0  0  0  0  0  0  0
    6.3883    0.6944    0.0000 C   0  0  0  0  0  0  0  0  0  0  0  0
    5.4673   -0.4459    0.0000 C   0  0  0  0  0  0  0  0  0  0  0  0
    3.4646    1.7031    0.0000 C   0  0  0  0  0  0  0  0  0  0  0  0
    3.7570    3.3404    0.0000 C   0  0  0  0  0  0  0  0  0  0  0  0
    6.9438    2.0832    0.0000 C   0  0  0  0  0  0  0  0  0  0  0  0
    2.9237    3.3988    0.0000 C   0  0  3  0  0  0  0  0  0  0  0  0
    4.6926   -0.7090    0.0000 C   0  0  0  0  0  0  0  0  0  0  0  0
    6.0814   -1.0014    0.0000 C   0  0  0  0  0  0  0  0  0  0  0  0
    7.7187    1.8200    0.0000 C   0  0  0  0  0  0  0  0  0  0  0  0
    2.4998    4.1297    0.0000 C   0  0  3  0  0  0  0  0  0  0  0  0
    5.3065    3.8812    0.0000 C   0  0  0  0  0  0  0  0  0  0  0  0
    6.1398    3.8082    0.0000 C   0  0  0  0  0  0  0  0  0  0  0  0
    6.4907    3.0480    0.0000 C   0  0  0  0  0  0  0  0  0  0  0  0
    3.4646    0.8552    0.0000 C   0  0  3  0  0  0  0  0  0  0  0  0
    2.3829    2.7995    0.0000 C   0  0  0  0  0  0  0  0  0  0  0  0
    5.9059   -1.7908    0.0000 C   0  0  0  0  0  0  0  0  0  0  0  0
    1.7104    3.9543    0.0000 C   0  0  0  0  0  0  0  0  0  0  0  0
    4.5172   -1.5130    0.0000 C   0  0  0  0  0  0  0  0  0  0  0  0
    5.1165   -2.0539    0.0000 C   0  0  0  0  0  0  0  0  0  0  0  0
    8.3326    2.3609    0.0000 C   0  0  0  0  0  0  0  0  0  0  0  0
    0.9210    2.7117    0.0000 C   0  0  0  0  0  0  0  0  0  0  0  0
    7.8941    1.0160    0.0000 C   0  0  0  0  0  0  0  0  0  0  0  0
    9.1221    2.1270    0.0000 C   0  0  0  0  0  0  0  0  0  0  0  0
    2.7629    0.4166    0.0000 C   0  0  0  0  0  0  0  0  0  0  0  0
    8.6835    0.7675    0.0000 C   0  0  0  0  0  0  0  0  0  0  0  0
    9.2828    1.3083    0.0000 C   0  0  0  0  0  0  0  0  0  0  0  0
    0.2046    1.4838    0.0000 C   0  0  0  0  0  0  0  0  0  0  0  0
    0.1754    0.6505    0.0000 C   0  0  0  0  0  0  0  0  0  0  0  0
   -0.5263    0.2266    0.0000 C   0  0  0  0  0  0  0  0  0  0  0  0
    0.8917    0.2266    0.0000 C   0  0  0  0  0  0  0  0  0  0  0  0
    0.1900   -1.0014    0.0000 C   0  0  0  0  0  0  0  0  0  0  0  0
   -0.5263   -0.5920    0.0000 C   0  0  0  0  0  0  0  0  0  0  0  0
    0.8917   -0.5920    0.0000 C   0  0  0  0  0  0  0  0  0  0  0  0
   -0.4824   -2.2147    0.0000 C   0  0  0  0  0  0  0  0  0  0  0  0
   -0.5263   -3.0772    0.0000 C   0  0  3  0  0  0  0  0  0  0  0  0
   -1.9735   -3.1065    0.0000 C   0  0  0  0  0  0  0  0  0  0  0  0
   -2.6752   -3.4865    0.0000 C   0  0  3  0  0  0  0  0  0  0  0  0
   -8.5519   -4.3052    0.0000 C   0  0  0  0  0  0  0  0  0  0  0  0
   -9.1805   -3.1795    0.0000 C   0  0  0  0  0  0  0  0  0  0  0  0
    0.2046   -3.4865    0.0000 C   0  0  0  0  0  0  0  0  0  0  0  0
   -2.6898   -4.3198    0.0000 C   0  0  0  0  0  0  0  0  0  0  0  0
   -9.3267   -4.4806    0.0000 C   0  0  0  0  0  0  0  0  0  0  0  0
   -9.7360   -3.7643    0.0000 C   0  0  0  0  0  0  0  0  0  0  0  0
   -7.7040   -3.0772    0.0000 C   0  0  0  0  0  0  0  0  0  0  0  0
   -4.1078   -3.4719    0.0000 C   0  0  0  0  0  0  0  0  0  0  0  0
    0.9063   -3.0772    0.0000 C   0  0  0  0  0  0  0  0  0  0  0  0
   -6.9731   -3.4865    0.0000 C   0  0  0  0  0  0  0  0  0  0  0  0
   -4.8241   -3.0772    0.0000 C   0  0  0  0  0  0  0  0  0  0  0  0
   -3.4061   -4.7292    0.0000 C   0  0  0  0  0  0  0  0  0  0  0  0
   -1.9443   -4.7584    0.0000 C   0  0  0  0  0  0  0  0  0  0  0  0
   -6.2714   -3.0772    0.0000 C   0  0  0  0  0  0  0  0  0  0  0  0
   -5.5551   -3.4865    0.0000 C   0  0  0  0  0  0  0  0  0  0  0  0
    1.6373   -3.4865    0.0000 C   0  0  0  0  0  0  0  0  0  0  0  0
    3.0553   -3.4573    0.0000 C   0  0  0  0  0  0  0  0  0  0  0  0
  1 35  1  0  0  0  0
 38  2  1  6  0  0  0
  3 44  1  0  0  0  0
  4 51  1  0  0  0  0
  5 31  2  0  0  0  0
 42  6  1  6  0  0  0
  7 49  1  0  0  0  0
  7 55  1  0  0  0  0
  8 49  2  0  0  0  0
  9 62  2  0  0  0  0
 10 64  2  0  0  0  0
 11 66  2  0  0  0  0
 12 67  2  0  0  0  0
 13 73  2  0  0  0  0
 14 82  2  0  0  0  0
 15 26  1  0  0  0  0
 15 29  1  0  0  0  0
 15 33  1  0  0  0  0
 25 16  1  6  0  0  0
 16 31  1  0  0  0  0
 16 32  1  0  0  0  0
 17 26  2  0  0  0  0
 17 28  1  0  0  0  0
 18 43  1  0  0  0  0
 18 45  1  0  0  0  0
 18 49  1  0  0  0  0
 19 59  1  0  0  0  0
 19 62  1  0  0  0  0
 20 66  1  0  0  0  0
 20 67  1  0  0  0  0
 20 72  1  0  0  0  0
 63 21  1  6  0  0  0
 21 64  1  0  0  0  0
 65 22  1  6  0  0  0
 22 73  1  0  0  0  0
 23 81  1  0  0  0  0
 23 82  1  0  0  0  0
 24 82  1  0  0  0  0
 25 26  1  0  0  0  0
 25 27  1  0  0  0  0
 27 39  1  0  0  0  0
 27 40  1  0  0  0  0
 27 41  1  0  0  0  0
 28 29  2  0  0  0  0
 28 30  1  0  0  0  0
 30 35  1  0  0  0  0
 30 36  2  0  0  0  0
 31 42  1  0  0  0  0
 34 32  1  6  0  0  0
 33 37  1  0  0  0  0
 34 38  1  0  0  0  0
 34 43  1  0  0  0  0
 35 46  2  0  0  0  0
 36 44  1  0  0  0  0
 37 48  1  0  0  0  0
 37 50  2  0  0  0  0
 38 45  1  0  0  0  0
 42 52  1  0  0  0  0
 44 47  2  0  0  0  0
 46 47  1  0  0  0  0
 48 51  2  0  0  0  0
 50 53  1  0  0  0  0
 51 54  1  0  0  0  0
 53 54  2  0  0  0  0
 55 56  1  0  0  0  0
 56 57  2  0  0  0  0
 56 58  1  0  0  0  0
 57 60  1  0  0  0  0
 58 61  2  0  0  0  0
 59 60  2  0  0  0  0
 59 61  1  0  0  0  0
 62 63  1  0  0  0  0
 63 68  1  0  0  0  0
 64 65  1  0  0  0  0
 65 69  1  0  0  0  0
 66 70  1  0  0  0  0
 67 71  1  0  0  0  0
 68 74  1  0  0  0  0
 69 77  1  0  0  0  0
 69 78  1  0  0  0  0
 70 71  2  0  0  0  0
 72 75  1  0  0  0  0
 73 76  1  0  0  0  0
 74 81  1  0  0  0  0
 75 79  1  0  0  0  0
 76 80  1  0  0  0  0
 79 80  1  0  0  0  0
M  END
> <PUBCHEM_COMPOUND_ID_TYPE>
0

> <PUBCHEM_TOTAL_CHARGE>
0

> <PUBCHEM_SUBSTANCE_ID>
310942574

> <PUBCHEM_SUBSTANCE_VERSION>
1

> <PUBCHEM_EXT_DATASOURCE_NAME>
4488

> <PUBCHEM_EXT_DATASOURCE_REGID>
SCHEMBL16120619

> <PUBCHEM_SUBSTANCE_COMMENT>
InChI=1S/C58H72F4N10O10/c1-34(2)50(68-47(74)15-8-7-9-25-71-48(75)22-23-49(71)76)54(78)67-45(14-11-24-64-56(63)80)53(77)65-41-19-16-36(17-20-41)33-82-57(81)70-29-38(44(62)31-70)30-72(55(79)35(3)73)51(58(4,5)6)52-66-46(42-27-40(60)18-21-43(42)61)32-69(52)28-37-12-10-13-39(59)26-37/h10,12-13,16-23,26-27,32,34-35,38,44-45,50-51,73H,7-9,11,14-15,24-25,28-31,33H2,1-6H3,(H,65,77)(H,67,78)(H,68,74)(H3,63,64,80)/t35-,38+,44+,45+,50+,51+/m1/s1
InChIKey=QEGCKDUVLXGSFI-IYABKILTSA-N

> <PUBCHEM_SUBSTANCE_SYNONYM>
SCHEMBL16120619

> <PUBCHEM_XREF_EXT_ID>
SCHEMBL16120619

> <PUBCHEM_EXT_DATASOURCE_URL>
https://www.surechembl.org/

> <PUBCHEM_EXT_SUBSTANCE_URL>
https://www.surechembl.org/chemical/SCHEMBL16120619

> <PUBCHEM_CID_ASSOCIATIONS>
117609128  1

> <PUBCHEM_COORDINATE_TYPE>
1
3

> <PUBCHEM_BONDANNOTATIONS>
25  16  6
38  2  6
63  21  6
65  22  6
34  32  6
42  6  6

$$$$
