310933592
  -OEChem-07211613022D

 43 48  0     1  0  0  0  0  0999 V2000
    0.0000   -3.0146    0.0000 Cl  0  0  0  0  0  0  0  0  0  0  0  0
    1.6184   -2.8877    0.0000 F   0  0  0  0  0  0  0  0  0  0  0  0
    4.5378   -5.7436    0.0000 O   0  0  0  0  0  0  0  0  0  0  0  0
    3.8397   -3.6810    0.0000 O   0  0  0  0  0  0  0  0  0  0  0  0
    9.4881   -4.5378    0.0000 O   0  0  0  0  0  0  0  0  0  0  0  0
    7.3938    0.0000    0.0000 O   0  0  0  0  0  0  0  0  0  0  0  0
    8.1236   -1.2059    0.0000 O   0  0  0  0  0  0  0  0  0  0  0  0
    5.2676   -4.5061    0.0000 N   0  0  0  0  0  0  0  0  0  0  0  0
    2.5703   -4.2205    0.0000 N   0  0  0  0  0  0  0  0  0  0  0  0
    8.0919   -3.7127    0.0000 N   0  0  0  0  0  0  0  0  0  0  0  0
    3.9349   -3.8397    0.0000 N   0  0  0  0  0  0  0  0  0  0  0  0
    4.5696   -2.4434    0.0000 N   0  0  0  0  0  0  0  0  0  0  0  0
    2.9512   -3.4906    0.0000 N   0  0  0  0  0  0  0  0  0  0  0  0
    5.2676   -3.6810    0.0000 C   0  0  3  0  0  0  0  0  0  0  0  0
    5.9657   -3.2685    0.0000 C   0  0  0  0  0  0  0  0  0  0  0  0
    6.6956   -3.6810    0.0000 C   0  0  0  0  0  0  0  0  0  0  0  0
    4.5696   -4.9186    0.0000 C   0  0  0  0  0  0  0  0  0  0  0  0
    7.3938   -3.3002    0.0000 C   0  0  0  0  0  0  0  0  0  0  0  0
    4.5696   -3.2685    0.0000 C   0  0  0  0  0  0  0  0  0  0  0  0
    3.8397   -4.4743    0.0000 C   0  0  0  0  0  0  0  0  0  0  0  0
    5.9657   -4.9186    0.0000 C   0  0  0  0  0  0  0  0  0  0  0  0
    6.6956   -4.5061    0.0000 C   0  0  0  0  0  0  0  0  0  0  0  0
    6.1245   -2.6338    0.0000 C   0  0  0  0  0  0  0  0  0  0  0  0
    3.1098   -4.8234    0.0000 C   0  0  0  0  0  0  0  0  0  0  0  0
    7.3938   -2.4752    0.0000 C   0  0  0  0  0  0  0  0  0  0  0  0
    1.7453   -4.2839    0.0000 C   0  0  0  0  0  0  0  0  0  0  0  0
    6.8543   -2.2213    0.0000 C   0  0  0  0  0  0  0  0  0  0  0  0
    1.2693   -3.6176    0.0000 C   0  0  0  0  0  0  0  0  0  0  0  0
    5.2676   -2.0309    0.0000 C   0  0  0  0  0  0  0  0  0  0  0  0
    8.7900   -3.3002    0.0000 C   0  0  0  0  0  0  0  0  0  0  0  0
    8.0601   -4.5061    0.0000 C   0  0  0  0  0  0  0  0  0  0  0  0
    1.3962   -5.0455    0.0000 C   0  0  0  0  0  0  0  0  0  0  0  0
    0.4442   -3.7127    0.0000 C   0  0  0  0  0  0  0  0  0  0  0  0
    0.6029   -5.1090    0.0000 C   0  0  0  0  0  0  0  0  0  0  0  0
    0.0952   -4.4426    0.0000 C   0  0  0  0  0  0  0  0  0  0  0  0
    5.2676   -1.2059    0.0000 C   0  0  0  0  0  0  0  0  0  0  0  0
    5.9975   -2.4434    0.0000 C   0  0  0  0  0  0  0  0  0  0  0  0
    9.5199   -3.7127    0.0000 C   0  0  0  0  0  0  0  0  0  0  0  0
    8.7582   -4.9503    0.0000 C   0  0  0  0  0  0  0  0  0  0  0  0
    6.6956   -1.2059    0.0000 C   0  0  0  0  0  0  0  0  0  0  0  0
    5.9975   -0.7933    0.0000 C   0  0  0  0  0  0  0  0  0  0  0  0
    6.6956   -2.0309    0.0000 C   0  0  0  0  0  0  0  0  0  0  0  0
    7.3938   -0.7933    0.0000 C   0  0  0  0  0  0  0  0  0  0  0  0
  1 33  1  0  0  0  0
  2 28  1  0  0  0  0
  3 17  2  0  0  0  0
  4 19  2  0  0  0  0
  5 38  1  0  0  0  0
  5 39  1  0  0  0  0
  6 43  2  0  0  0  0
  7 43  1  0  0  0  0
  8 14  1  0  0  0  0
  8 17  1  0  0  0  0
  8 21  1  0  0  0  0
  9 13  1  0  0  0  0
  9 24  1  0  0  0  0
  9 26  1  0  0  0  0
 10 18  1  0  0  0  0
 10 30  1  0  0  0  0
 10 31  1  0  0  0  0
 11 13  2  0  0  0  0
 11 20  1  0  0  0  0
 12 19  1  0  0  0  0
 12 29  1  0  0  0  0
 14 15  1  0  0  0  0
 14 19  1  6  0  0  0
 15 16  2  0  0  0  0
 15 23  1  0  0  0  0
 16 18  1  0  0  0  0
 16 22  1  0  0  0  0
 17 20  1  0  0  0  0
 18 25  2  0  0  0  0
 20 24  2  0  0  0  0
 21 22  1  0  0  0  0
 23 27  2  0  0  0  0
 25 27  1  0  0  0  0
 26 28  1  0  0  0  0
 26 32  2  0  0  0  0
 28 33  2  0  0  0  0
 29 36  2  0  0  0  0
 29 37  1  0  0  0  0
 30 38  1  0  0  0  0
 31 39  1  0  0  0  0
 32 34  1  0  0  0  0
 33 35  1  0  0  0  0
 34 35  2  0  0  0  0
 36 41  1  0  0  0  0
 37 42  2  0  0  0  0
 40 41  2  0  0  0  0
 40 42  1  0  0  0  0
 40 43  1  0  0  0  0
M  END
> <PUBCHEM_COMPOUND_ID_TYPE>
0

> <PUBCHEM_TOTAL_CHARGE>
0

> <PUBCHEM_SUBSTANCE_ID>
310933592

> <PUBCHEM_SUBSTANCE_VERSION>
1

> <PUBCHEM_EXT_DATASOURCE_NAME>
4488

> <PUBCHEM_EXT_DATASOURCE_REGID>
SCHEMBL16111020

> <PUBCHEM_SUBSTANCE_COMMENT>
InChI=1S/C30H26ClFN6O5/c31-22-4-2-6-25(26(22)32)38-17-23(34-35-38)29(40)37-12-11-20-21(3-1-5-24(20)36-13-15-43-16-14-36)27(37)28(39)33-19-9-7-18(8-10-19)30(41)42/h1-10,17,27H,11-16H2,(H,33,39)(H,41,42)/t27-/m0/s1
InChIKey=UCSKYPRDSCVAMS-MHZLTWQESA-N

> <PUBCHEM_SUBSTANCE_SYNONYM>
SCHEMBL16111020

> <PUBCHEM_XREF_EXT_ID>
SCHEMBL16111020

> <PUBCHEM_EXT_DATASOURCE_URL>
https://www.surechembl.org/

> <PUBCHEM_EXT_SUBSTANCE_URL>
https://www.surechembl.org/chemical/SCHEMBL16111020

> <PUBCHEM_CID_ASSOCIATIONS>
117601974  1

> <PUBCHEM_COORDINATE_TYPE>
1
3

> <PUBCHEM_BONDANNOTATIONS>
14  19  6

$$$$
