310938577
  -OEChem-07211613022D

 20 22  0     0  0  0  0  0  0999 V2000
    1.6383   -4.0104    0.0000 O   0  0  0  0  0  0  0  0  0  0  0  0
    0.2094   -4.0104    0.0000 O   0  0  0  0  0  0  0  0  0  0  0  0
    1.6383   -1.5354    0.0000 N   0  0  0  0  0  0  0  0  0  0  0  0
    2.4230   -2.6154    0.0000 N   0  0  0  0  0  0  0  0  0  0  0  0
    0.9239   -1.1229    0.0000 N   0  0  0  0  0  0  0  0  0  0  0  0
    1.6383   -2.3604    0.0000 C   0  0  0  0  0  0  0  0  0  0  0  0
    2.9079   -1.9479    0.0000 C   0  0  0  0  0  0  0  0  0  0  0  0
    0.9239   -2.7729    0.0000 C   0  0  0  0  0  0  0  0  0  0  0  0
    2.4230   -1.2805    0.0000 C   0  0  0  0  0  0  0  0  0  0  0  0
    3.7329   -1.9479    0.0000 C   0  0  0  0  0  0  0  0  0  0  0  0
    0.9239   -3.5979    0.0000 C   0  0  0  0  0  0  0  0  0  0  0  0
    0.2094   -2.3604    0.0000 C   0  0  0  0  0  0  0  0  0  0  0  0
    4.1454   -1.2335    0.0000 C   0  0  0  0  0  0  0  0  0  0  0  0
    0.2094   -1.5354    0.0000 C   0  0  0  0  0  0  0  0  0  0  0  0
    4.1454   -2.6624    0.0000 C   0  0  0  0  0  0  0  0  0  0  0  0
    4.9704   -1.2335    0.0000 C   0  0  0  0  0  0  0  0  0  0  0  0
    4.9704   -2.6624    0.0000 C   0  0  0  0  0  0  0  0  0  0  0  0
    5.3829   -1.9479    0.0000 C   0  0  0  0  0  0  0  0  0  0  0  0
    3.7329   -0.5190    0.0000 C   0  0  0  0  0  0  0  0  0  0  0  0
    2.3528   -3.5979    0.0000 C   0  0  0  0  0  0  0  0  0  0  0  0
  1 11  1  0  0  0  0
  1 20  1  0  0  0  0
  2 11  2  0  0  0  0
  3  5  1  0  0  0  0
  3  6  1  0  0  0  0
  3  9  1  0  0  0  0
  4  6  2  0  0  0  0
  4  7  1  0  0  0  0
  5 14  2  0  0  0  0
  6  8  1  0  0  0  0
  7  9  2  0  0  0  0
  7 10  1  0  0  0  0
  8 11  1  0  0  0  0
  8 12  2  0  0  0  0
 10 13  1  0  0  0  0
 10 15  2  0  0  0  0
 12 14  1  0  0  0  0
 13 16  2  0  0  0  0
 13 19  1  0  0  0  0
 15 17  1  0  0  0  0
 16 18  1  0  0  0  0
 17 18  2  0  0  0  0
M  END
> <PUBCHEM_COMPOUND_ID_TYPE>
0

> <PUBCHEM_TOTAL_CHARGE>
0

> <PUBCHEM_SUBSTANCE_ID>
310938577

> <PUBCHEM_SUBSTANCE_VERSION>
1

> <PUBCHEM_EXT_DATASOURCE_NAME>
4488

> <PUBCHEM_EXT_DATASOURCE_REGID>
SCHEMBL16116491

> <PUBCHEM_SUBSTANCE_COMMENT>
InChI=1S/C15H13N3O2/c1-10-5-3-4-6-11(10)13-9-18-14(17-13)12(7-8-16-18)15(19)20-2/h3-9H,1-2H3
InChIKey=IPAIAAQFPTYQKM-UHFFFAOYSA-N

> <PUBCHEM_SUBSTANCE_SYNONYM>
SCHEMBL16116491

> <PUBCHEM_XREF_EXT_ID>
SCHEMBL16116491

> <PUBCHEM_EXT_DATASOURCE_URL>
https://www.surechembl.org/

> <PUBCHEM_EXT_SUBSTANCE_URL>
https://www.surechembl.org/chemical/SCHEMBL16116491

> <PUBCHEM_CID_ASSOCIATIONS>
117606014  1

> <PUBCHEM_COORDINATE_TYPE>
1
3

$$$$
