310936735
  -OEChem-07211613022D

 19 20  0     0  0  0  0  0  0999 V2000
    0.0000   -0.6898    0.0000 Cl  0  0  0  0  0  0  0  0  0  0  0  0
    2.4229   -3.5372    0.0000 O   0  0  0  0  0  0  0  0  0  0  0  0
    4.9167   -0.7428    0.0000 O   0  0  0  0  0  0  0  0  0  0  0  0
    1.2204   -2.8297    0.0000 N   0  0  0  0  0  0  0  0  0  0  0  0
    4.8990   -2.1223    0.0000 N   0  0  0  0  0  0  0  0  0  0  0  0
    2.4583   -2.1223    0.0000 C   0  0  0  0  0  0  0  0  0  0  0  0
    3.2719   -2.1223    0.0000 C   0  0  0  0  0  0  0  0  0  0  0  0
    2.0162   -2.8297    0.0000 C   0  0  0  0  0  0  0  0  0  0  0  0
    2.0162   -1.4149    0.0000 C   0  0  0  0  0  0  0  0  0  0  0  0
    1.2204   -1.4149    0.0000 C   0  0  0  0  0  0  0  0  0  0  0  0
    3.6786   -1.3972    0.0000 C   0  0  0  0  0  0  0  0  0  0  0  0
    4.4922   -1.4325    0.0000 C   0  0  0  0  0  0  0  0  0  0  0  0
    3.6610   -2.8121    0.0000 C   0  0  0  0  0  0  0  0  0  0  0  0
    0.7959   -2.1223    0.0000 C   0  0  0  0  0  0  0  0  0  0  0  0
    4.4922   -2.8474    0.0000 C   0  0  0  0  0  0  0  0  0  0  0  0
    0.8312   -0.7074    0.0000 C   0  0  0  0  0  0  0  0  0  0  0  0
    3.2365   -3.5372    0.0000 C   0  0  0  0  0  0  0  0  0  0  0  0
    4.5452   -0.0177    0.0000 C   0  0  0  0  0  0  0  0  0  0  0  0
    3.7140    0.0000    0.0000 C   0  0  0  0  0  0  0  0  0  0  0  0
  1 16  1  0  0  0  0
  2  8  1  0  0  0  0
  2 17  1  0  0  0  0
  3 12  1  0  0  0  0
  3 18  1  0  0  0  0
  4  8  1  0  0  0  0
  4 14  2  0  0  0  0
  5 12  1  0  0  0  0
  5 15  2  0  0  0  0
  6  7  1  0  0  0  0
  6  8  2  0  0  0  0
  6  9  1  0  0  0  0
  7 11  1  0  0  0  0
  7 13  2  0  0  0  0
  9 10  2  0  0  0  0
 10 14  1  0  0  0  0
 10 16  1  0  0  0  0
 11 12  2  0  0  0  0
 13 15  1  0  0  0  0
 18 19  1  0  0  0  0
M  END
> <PUBCHEM_COMPOUND_ID_TYPE>
0

> <PUBCHEM_TOTAL_CHARGE>
0

> <PUBCHEM_SUBSTANCE_ID>
310936735

> <PUBCHEM_SUBSTANCE_VERSION>
1

> <PUBCHEM_EXT_DATASOURCE_NAME>
4488

> <PUBCHEM_EXT_DATASOURCE_REGID>
SCHEMBL16114415

> <PUBCHEM_SUBSTANCE_COMMENT>
InChI=1S/C14H15ClN2O2/c1-3-19-13-7-11(4-5-16-13)12-6-10(8-15)9-17-14(12)18-2/h4-7,9H,3,8H2,1-2H3
InChIKey=BCRPOKRRENJWLJ-UHFFFAOYSA-N

> <PUBCHEM_SUBSTANCE_SYNONYM>
SCHEMBL16114415

> <PUBCHEM_XREF_EXT_ID>
SCHEMBL16114415

> <PUBCHEM_EXT_DATASOURCE_URL>
https://www.surechembl.org/

> <PUBCHEM_EXT_SUBSTANCE_URL>
https://www.surechembl.org/chemical/SCHEMBL16114415

> <PUBCHEM_CID_ASSOCIATIONS>
117604634  1

> <PUBCHEM_COORDINATE_TYPE>
1
3

$$$$
