310937320
  -OEChem-07211613022D

 16 17  0     0  0  0  0  0  0999 V2000
    5.3410   -1.4790    0.0000 O   0  0  0  0  0  0  0  0  0  0  0  0
    5.3410   -2.9170    0.0000 O   0  0  0  0  0  0  0  0  0  0  0  0
    3.6360   -2.8759    0.0000 N   0  0  0  0  0  0  0  0  0  0  0  0
    0.8628   -0.3492    0.0000 N   0  0  0  0  0  0  0  0  0  0  0  0
    2.8554   -1.7872    0.0000 C   0  0  0  0  0  0  0  0  0  0  0  0
    4.1084   -2.1980    0.0000 C   0  0  0  0  0  0  0  0  0  0  0  0
    2.1775   -1.3147    0.0000 C   0  0  0  0  0  0  0  0  0  0  0  0
    3.6360   -1.5201    0.0000 C   0  0  0  0  0  0  0  0  0  0  0  0
    2.8554   -2.6089    0.0000 C   0  0  0  0  0  0  0  0  0  0  0  0
    4.9302   -2.1980    0.0000 C   0  0  0  0  0  0  0  0  0  0  0  0
    1.4380   -1.6639    0.0000 C   0  0  0  0  0  0  0  0  0  0  0  0
    2.2802   -0.5136    0.0000 C   0  0  0  0  0  0  0  0  0  0  0  0
    0.7601   -1.1504    0.0000 C   0  0  0  0  0  0  0  0  0  0  0  0
    1.6023    0.0000    0.0000 C   0  0  0  0  0  0  0  0  0  0  0  0
    0.0000   -1.4790    0.0000 C   0  0  0  0  0  0  0  0  0  0  0  0
    6.1627   -1.4790    0.0000 C   0  0  0  0  0  0  0  0  0  0  0  0
  1 10  1  0  0  0  0
  1 16  1  0  0  0  0
  2 10  2  0  0  0  0
  3  6  1  0  0  0  0
  3  9  1  0  0  0  0
  4 13  1  0  0  0  0
  4 14  2  0  0  0  0
  5  7  1  0  0  0  0
  5  8  1  0  0  0  0
  5  9  2  0  0  0  0
  6  8  2  0  0  0  0
  6 10  1  0  0  0  0
  7 11  1  0  0  0  0
  7 12  2  0  0  0  0
 11 13  2  0  0  0  0
 12 14  1  0  0  0  0
 13 15  1  0  0  0  0
M  END
> <PUBCHEM_COMPOUND_ID_TYPE>
0

> <PUBCHEM_TOTAL_CHARGE>
0

> <PUBCHEM_SUBSTANCE_ID>
310937320

> <PUBCHEM_SUBSTANCE_VERSION>
1

> <PUBCHEM_EXT_DATASOURCE_NAME>
4488

> <PUBCHEM_EXT_DATASOURCE_REGID>
SCHEMBL16115068

> <PUBCHEM_SUBSTANCE_COMMENT>
InChI=1S/C12H12N2O2/c1-8-5-9(3-4-13-8)10-6-11(14-7-10)12(15)16-2/h3-7,14H,1-2H3
InChIKey=LZNXZMCTWJXVEK-UHFFFAOYSA-N

> <PUBCHEM_SUBSTANCE_SYNONYM>
SCHEMBL16115068

> <PUBCHEM_XREF_EXT_ID>
SCHEMBL16115068

> <PUBCHEM_EXT_DATASOURCE_URL>
https://www.surechembl.org/

> <PUBCHEM_EXT_SUBSTANCE_URL>
https://www.surechembl.org/chemical/SCHEMBL16115068

> <PUBCHEM_CID_ASSOCIATIONS>
117605102  1

> <PUBCHEM_COORDINATE_TYPE>
1
3

$$$$
