310946139
  -OEChem-07211613022D

 36 42  0     0  0  0  0  0  0999 V2000
    1.0449    5.6975    0.0000 O   0  0  0  0  0  0  0  0  0  0  0  0
    0.0623    4.1984    0.0000 N   0  0  0  0  0  0  0  0  0  0  0  0
   -2.3947    2.5980    0.0000 C   0  0  0  0  0  0  0  0  0  0  0  0
   -1.5877    2.7695    0.0000 C   0  0  0  0  0  0  0  0  0  0  0  0
   -1.1752    2.0550    0.0000 C   0  0  0  0  0  0  0  0  0  0  0  0
   -2.4809    1.7775    0.0000 C   0  0  0  0  0  0  0  0  0  0  0  0
   -1.7272    1.4419    0.0000 C   0  0  0  0  0  0  0  0  0  0  0  0
   -0.3502    3.4839    0.0000 C   0  0  0  0  0  0  0  0  0  0  0  0
    0.8873    4.1984    0.0000 C   0  0  0  0  0  0  0  0  0  0  0  0
    1.2998    4.9129    0.0000 C   0  0  0  0  0  0  0  0  0  0  0  0
   -1.1752    3.4839    0.0000 C   0  0  0  0  0  0  0  0  0  0  0  0
    2.1248    4.9129    0.0000 C   0  0  0  0  0  0  0  0  0  0  0  0
    2.3797    5.6975    0.0000 C   0  0  0  0  0  0  0  0  0  0  0  0
   -0.3502    2.0550    0.0000 C   0  0  0  0  0  0  0  0  0  0  0  0
    1.7123    6.1824    0.0000 C   0  0  0  0  0  0  0  0  0  0  0  0
    0.0623    2.7695    0.0000 C   0  0  0  0  0  0  0  0  0  0  0  0
   -0.3502    4.9129    0.0000 C   0  0  0  0  0  0  0  0  0  0  0  0
   -3.1483    1.2925    0.0000 C   0  0  0  0  0  0  0  0  0  0  0  0
   -1.6410    0.6214    0.0000 C   0  0  0  0  0  0  0  0  0  0  0  0
   -2.3947    3.4230    0.0000 C   0  0  0  0  0  0  0  0  0  0  0  0
   -3.2197    2.5980    0.0000 C   0  0  0  0  0  0  0  0  0  0  0  0
    1.2998    3.4839    0.0000 C   0  0  0  0  0  0  0  0  0  0  0  0
    2.5373    4.1984    0.0000 C   0  0  0  0  0  0  0  0  0  0  0  0
    2.1248    3.4839    0.0000 C   0  0  0  0  0  0  0  0  0  0  0  0
    3.1334    6.0331    0.0000 C   0  0  0  0  0  0  0  0  0  0  0  0
   -3.0621    0.4721    0.0000 C   0  0  0  0  0  0  0  0  0  0  0  0
   -2.3084    0.1365    0.0000 C   0  0  0  0  0  0  0  0  0  0  0  0
    1.7985    7.0029    0.0000 C   0  0  0  0  0  0  0  0  0  0  0  0
   -1.1752    4.9129    0.0000 C   0  0  0  0  0  0  0  0  0  0  0  0
    0.0623    5.6274    0.0000 C   0  0  0  0  0  0  0  0  0  0  0  0
    3.2197    6.8536    0.0000 C   0  0  0  0  0  0  0  0  0  0  0  0
   -1.5877    5.6274    0.0000 C   0  0  0  0  0  0  0  0  0  0  0  0
    2.5522    7.3385    0.0000 C   0  0  0  0  0  0  0  0  0  0  0  0
   -0.3502    6.3418    0.0000 C   0  0  0  0  0  0  0  0  0  0  0  0
   -1.1752    6.3418    0.0000 C   0  0  0  0  0  0  0  0  0  0  0  0
   -2.4127    5.6274    0.0000 C   0  0  0  0  0  0  0  0  0  0  0  0
  1 10  1  0  0  0  0
  1 15  1  0  0  0  0
  2  8  1  0  0  0  0
  2  9  1  0  0  0  0
  2 17  1  0  0  0  0
  3  4  1  0  0  0  0
  3  6  1  0  0  0  0
  3 20  1  0  0  0  0
  3 21  1  0  0  0  0
  4  5  2  0  0  0  0
  4 11  1  0  0  0  0
  5  7  1  0  0  0  0
  5 14  1  0  0  0  0
  6  7  2  0  0  0  0
  6 18  1  0  0  0  0
  7 19  1  0  0  0  0
  8 11  2  0  0  0  0
  8 16  1  0  0  0  0
  9 10  1  0  0  0  0
  9 22  2  0  0  0  0
 10 12  2  0  0  0  0
 12 13  1  0  0  0  0
 12 23  1  0  0  0  0
 13 15  2  0  0  0  0
 13 25  1  0  0  0  0
 14 16  2  0  0  0  0
 15 28  1  0  0  0  0
 17 29  1  0  0  0  0
 17 30  2  0  0  0  0
 18 26  2  0  0  0  0
 19 27  2  0  0  0  0
 22 24  1  0  0  0  0
 23 24  2  0  0  0  0
 25 31  2  0  0  0  0
 26 27  1  0  0  0  0
 28 33  2  0  0  0  0
 29 32  2  0  0  0  0
 30 34  1  0  0  0  0
 31 33  1  0  0  0  0
 32 35  1  0  0  0  0
 32 36  1  0  0  0  0
 34 35  2  0  0  0  0
M  END
> <PUBCHEM_COMPOUND_ID_TYPE>
0

> <PUBCHEM_TOTAL_CHARGE>
0

> <PUBCHEM_SUBSTANCE_ID>
310946139

> <PUBCHEM_SUBSTANCE_VERSION>
1

> <PUBCHEM_EXT_DATASOURCE_NAME>
4488

> <PUBCHEM_EXT_DATASOURCE_REGID>
SCHEMBL16124248

> <PUBCHEM_SUBSTANCE_COMMENT>
InChI=1S/C34H27NO/c1-22-10-8-11-23(20-22)35(31-16-9-14-28-27-13-5-7-17-32(27)36-33(28)31)24-18-19-26-25-12-4-6-15-29(25)34(2,3)30(26)21-24/h4-21H,1-3H3
InChIKey=NAEKWALHICOHKV-UHFFFAOYSA-N

> <PUBCHEM_SUBSTANCE_SYNONYM>
SCHEMBL16124248

> <PUBCHEM_XREF_EXT_ID>
SCHEMBL16124248

> <PUBCHEM_EXT_DATASOURCE_URL>
https://www.surechembl.org/

> <PUBCHEM_EXT_SUBSTANCE_URL>
https://www.surechembl.org/chemical/SCHEMBL16124248

> <PUBCHEM_CID_ASSOCIATIONS>
117612096  1

> <PUBCHEM_COORDINATE_TYPE>
1
3

$$$$
