310935395
  -OEChem-07211613022D

 33 36  0     0  0  0  0  0  0999 V2000
   11.7331   -1.6426    0.0000 F   0  0  0  0  0  0  0  0  0  0  0  0
    7.9394   -1.0169    0.0000 O   0  0  0  0  0  0  0  0  0  0  0  0
    7.6656   -3.7155    0.0000 O   0  0  0  0  0  0  0  0  0  0  0  0
    5.0453   -2.5031    0.0000 O   0  0  0  0  0  0  0  0  0  0  0  0
    2.8550   -1.2516    0.0000 O   0  0  0  0  0  0  0  0  0  0  0  0
    2.1511    0.0000    0.0000 O   0  0  0  0  0  0  0  0  0  0  0  0
    8.9954   -3.2853    0.0000 N   0  0  0  0  0  0  0  0  0  0  0  0
    7.9394   -2.3075    0.0000 C   0  0  0  0  0  0  0  0  0  0  0  0
    7.1572   -2.0729    0.0000 C   0  0  0  0  0  0  0  0  0  0  0  0
    8.4087   -1.6426    0.0000 C   0  0  0  0  0  0  0  0  0  0  0  0
    7.1572   -1.2516    0.0000 C   0  0  0  0  0  0  0  0  0  0  0  0
    9.2301   -1.6426    0.0000 C   0  0  0  0  0  0  0  0  0  0  0  0
    6.4141   -2.5031    0.0000 C   0  0  0  0  0  0  0  0  0  0  0  0
    8.2132   -3.0897    0.0000 C   0  0  0  0  0  0  0  0  0  0  0  0
    6.4141   -0.8604    0.0000 C   0  0  0  0  0  0  0  0  0  0  0  0
    5.7101   -1.2516    0.0000 C   0  0  0  0  0  0  0  0  0  0  0  0
    5.7492   -2.1119    0.0000 C   0  0  0  0  0  0  0  0  0  0  0  0
    9.6603   -0.9387    0.0000 C   0  0  0  0  0  0  0  0  0  0  0  0
    9.6603   -2.3466    0.0000 C   0  0  0  0  0  0  0  0  0  0  0  0
    5.0061   -0.8213    0.0000 C   0  0  0  0  0  0  0  0  0  0  0  0
   10.4816   -0.9387    0.0000 C   0  0  0  0  0  0  0  0  0  0  0  0
   10.4816   -2.3466    0.0000 C   0  0  0  0  0  0  0  0  0  0  0  0
   10.9118   -1.6426    0.0000 C   0  0  0  0  0  0  0  0  0  0  0  0
    4.3022   -1.2516    0.0000 C   0  0  0  0  0  0  0  0  0  0  0  0
    9.2691   -4.0675    0.0000 C   0  0  0  0  0  0  0  0  0  0  0  0
    3.5981   -0.8213    0.0000 C   0  0  0  0  0  0  0  0  0  0  0  0
    2.1511   -0.8213    0.0000 C   0  0  0  0  0  0  0  0  0  0  0  0
    1.4471   -1.2516    0.0000 C   0  0  0  0  0  0  0  0  0  0  0  0
    0.7431   -0.8213    0.0000 C   0  0  0  0  0  0  0  0  0  0  0  0
    1.4471   -2.0729    0.0000 C   0  0  0  0  0  0  0  0  0  0  0  0
    0.0000   -1.2516    0.0000 C   0  0  0  0  0  0  0  0  0  0  0  0
    0.7431   -2.4639    0.0000 C   0  0  0  0  0  0  0  0  0  0  0  0
    0.0000   -2.0729    0.0000 C   0  0  0  0  0  0  0  0  0  0  0  0
  1 23  1  0  0  0  0
  2 10  1  0  0  0  0
  2 11  1  0  0  0  0
  3 14  2  0  0  0  0
  4 17  1  0  0  0  0
  5 26  1  0  0  0  0
  5 27  1  0  0  0  0
  6 27  2  0  0  0  0
  7 14  1  0  0  0  0
  7 25  1  0  0  0  0
  8  9  1  0  0  0  0
  8 10  2  0  0  0  0
  8 14  1  0  0  0  0
  9 11  2  0  0  0  0
  9 13  1  0  0  0  0
 10 12  1  0  0  0  0
 11 15  1  0  0  0  0
 12 18  2  0  0  0  0
 12 19  1  0  0  0  0
 13 17  2  0  0  0  0
 15 16  2  0  0  0  0
 16 17  1  0  0  0  0
 16 20  1  0  0  0  0
 18 21  1  0  0  0  0
 19 22  2  0  0  0  0
 20 24  1  0  0  0  0
 21 23  2  0  0  0  0
 22 23  1  0  0  0  0
 24 26  1  0  0  0  0
 27 28  1  0  0  0  0
 28 29  2  0  0  0  0
 28 30  1  0  0  0  0
 29 31  1  0  0  0  0
 30 32  2  0  0  0  0
 31 33  2  0  0  0  0
 32 33  1  0  0  0  0
M  END
> <PUBCHEM_COMPOUND_ID_TYPE>
0

> <PUBCHEM_TOTAL_CHARGE>
0

> <PUBCHEM_SUBSTANCE_ID>
310935395

> <PUBCHEM_SUBSTANCE_VERSION>
1

> <PUBCHEM_EXT_DATASOURCE_NAME>
4488

> <PUBCHEM_EXT_DATASOURCE_REGID>
SCHEMBL16112935

> <PUBCHEM_SUBSTANCE_COMMENT>
InChI=1S/C26H22FNO5/c1-28-25(30)23-20-15-21(29)18(8-5-13-32-26(31)17-6-3-2-4-7-17)14-22(20)33-24(23)16-9-11-19(27)12-10-16/h2-4,6-7,9-12,14-15,29H,5,8,13H2,1H3,(H,28,30)
InChIKey=LXORGNJUFXVIDP-UHFFFAOYSA-N

> <PUBCHEM_SUBSTANCE_SYNONYM>
SCHEMBL16112935

> <PUBCHEM_XREF_EXT_ID>
SCHEMBL16112935

> <PUBCHEM_EXT_DATASOURCE_URL>
https://www.surechembl.org/

> <PUBCHEM_EXT_SUBSTANCE_URL>
https://www.surechembl.org/chemical/SCHEMBL16112935

> <PUBCHEM_CID_ASSOCIATIONS>
117603444  1

> <PUBCHEM_COORDINATE_TYPE>
1
3

$$$$
