310940882
  -OEChem-07211613022D

 41 43  0     1  0  0  0  0  0999 V2000
    3.6327    1.1630    0.0000 O   0  0  0  0  0  0  0  0  0  0  0  0
    2.1822   -0.5096    0.0000 O   0  0  0  0  0  0  0  0  0  0  0  0
    0.0000    1.5681    0.0000 O   0  0  0  0  0  0  0  0  0  0  0  0
   -2.1822   -0.5096    0.0000 O   0  0  0  0  0  0  0  0  0  0  0  0
   -1.6022   -1.4930    0.0000 O   0  0  0  0  0  0  0  0  0  0  0  0
    2.1822   -2.1692    0.0000 O   0  0  0  0  0  0  0  0  0  0  0  0
   -2.1015   -2.3141    0.0000 O   0  0  0  0  0  0  0  0  0  0  0  0
    0.7318    0.3267    0.0000 N   0  0  0  0  0  0  0  0  0  0  0  0
   -1.4504    0.7449    0.0000 N   0  0  0  0  0  0  0  0  0  0  0  0
   -3.6327    0.3267    0.0000 N   0  0  0  0  0  0  0  0  0  0  0  0
   -1.4635    2.3783    0.0000 N   0  0  0  0  0  0  0  0  0  0  0  0
    2.9140    0.7449    0.0000 C   0  0  3  0  0  0  0  0  0  0  0  0
    2.1822    0.3528    0.0000 C   0  0  0  0  0  0  0  0  0  0  0  0
    3.6196    0.3398    0.0000 C   0  0  0  0  0  0  0  0  0  0  0  0
    1.4374    0.7449    0.0000 C   0  0  3  0  0  0  0  0  0  0  0  0
    2.3260    1.3329    0.0000 C   0  0  0  0  0  0  0  0  0  0  0  0
    1.4766    1.5812    0.0000 C   0  0  0  0  0  0  0  0  0  0  0  0
    0.0000    0.7187    0.0000 C   0  0  0  0  0  0  0  0  0  0  0  0
   -0.7187    0.3267    0.0000 C   0  0  3  0  0  0  0  0  0  0  0  0
    2.1822    1.9993    0.0000 C   0  0  0  0  0  0  0  0  0  0  0  0
   -0.7318   -0.5227    0.0000 C   0  0  0  0  0  0  0  0  0  0  0  0
   -2.1692    0.3528    0.0000 C   0  0  0  0  0  0  0  0  0  0  0  0
    0.0131   -0.9277    0.0000 C   0  0  0  0  0  0  0  0  0  0  0  0
    2.2737    2.8225    0.0000 C   0  0  0  0  0  0  0  0  0  0  0  0
    2.9663    1.6595    0.0000 C   0  0  0  0  0  0  0  0  0  0  0  0
   -2.9140    0.7449    0.0000 C   0  0  3  0  0  0  0  0  0  0  0  0
    3.0970    2.9924    0.0000 C   0  0  0  0  0  0  0  0  0  0  0  0
    3.5020    2.2737    0.0000 C   0  0  0  0  0  0  0  0  0  0  0  0
    0.0131   -1.7511    0.0000 C   0  0  0  0  0  0  0  0  0  0  0  0
    0.7187   -0.5227    0.0000 C   0  0  0  0  0  0  0  0  0  0  0  0
   -2.1015   -1.7815    0.0000 C   0  0  0  0  0  0  0  0  0  0  0  0
   -2.8879    1.5812    0.0000 C   0  0  0  0  0  0  0  0  0  0  0  0
    1.4374   -1.7511    0.0000 C   0  0  0  0  0  0  0  0  0  0  0  0
    0.7318   -2.1561    0.0000 C   0  0  0  0  0  0  0  0  0  0  0  0
    1.4504   -0.9277    0.0000 C   0  0  0  0  0  0  0  0  0  0  0  0
   -1.5911   -0.9382    0.0000 C   0  0  0  0  0  0  0  0  0  0  0  0
   -2.1822    1.9862    0.0000 C   0  0  0  0  0  0  0  0  0  0  0  0
   -1.0918   -0.9160    0.0000 C   0  0  0  0  0  0  0  0  0  0  0  0
   -2.1015   -0.9382    0.0000 C   0  0  0  0  0  0  0  0  0  0  0  0
   -1.6022   -0.3945    0.0000 C   0  0  0  0  0  0  0  0  0  0  0  0
    2.1953   -2.9924    0.0000 C   0  0  0  0  0  0  0  0  0  0  0  0
  1 12  1  0  0  0  0
  1 14  1  0  0  0  0
  2 13  2  0  0  0  0
  3 18  2  0  0  0  0
  4 22  2  0  0  0  0
  5 31  1  0  0  0  0
  5 36  1  0  0  0  0
  6 33  1  0  0  0  0
  6 41  1  0  0  0  0
  7 31  2  0  0  0  0
 15  8  1  1  0  0  0
  8 18  1  0  0  0  0
 19  9  1  6  0  0  0
  9 22  1  0  0  0  0
 26 10  1  1  0  0  0
 10 31  1  0  0  0  0
 11 37  3  0  0  0  0
 12 13  1  6  0  0  0
 12 14  1  0  0  0  0
 12 16  1  1  0  0  0
 13 15  1  0  0  0  0
 15 17  1  0  0  0  0
 17 20  1  0  0  0  0
 18 19  1  0  0  0  0
 19 21  1  0  0  0  0
 20 24  2  0  0  0  0
 20 25  1  0  0  0  0
 21 23  1  0  0  0  0
 22 26  1  0  0  0  0
 23 29  2  0  0  0  0
 23 30  1  0  0  0  0
 24 27  1  0  0  0  0
 25 28  1  0  0  0  0
 26 32  1  0  0  0  0
 27 28  1  0  0  0  0
 29 34  1  0  0  0  0
 30 35  2  0  0  0  0
 32 37  1  0  0  0  0
 33 34  2  0  0  0  0
 33 35  1  0  0  0  0
 36 38  1  0  0  0  0
 36 39  1  0  0  0  0
 36 40  1  0  0  0  0
M  END
> <PUBCHEM_COMPOUND_ID_TYPE>
0

> <PUBCHEM_TOTAL_CHARGE>
0

> <PUBCHEM_SUBSTANCE_ID>
310940882

> <PUBCHEM_SUBSTANCE_VERSION>
1

> <PUBCHEM_EXT_DATASOURCE_NAME>
4488

> <PUBCHEM_EXT_DATASOURCE_REGID>
SCHEMBL16118841

> <PUBCHEM_SUBSTANCE_COMMENT>
InChI=1S/C30H40N4O7/c1-29(2,3)41-28(38)34-22(14-15-31)26(36)33-24(17-20-10-12-21(39-5)13-11-20)27(37)32-23(16-19-8-6-7-9-19)25(35)30(4)18-40-30/h8,10-13,22-24H,6-7,9,14,16-18H2,1-5H3,(H,32,37)(H,33,36)(H,34,38)/t22-,23-,24-,30+/m0/s1
InChIKey=ROVVFNCEUMIAIK-ZUHGBKBGSA-N

> <PUBCHEM_SUBSTANCE_SYNONYM>
SCHEMBL16118841

> <PUBCHEM_XREF_EXT_ID>
SCHEMBL16118841

> <PUBCHEM_EXT_DATASOURCE_URL>
https://www.surechembl.org/

> <PUBCHEM_EXT_SUBSTANCE_URL>
https://www.surechembl.org/chemical/SCHEMBL16118841

> <PUBCHEM_CID_ASSOCIATIONS>
117607799  1

> <PUBCHEM_COORDINATE_TYPE>
1
3

> <PUBCHEM_BONDANNOTATIONS>
26  10  5
12  13  6
12  16  5
15  8  5
19  9  6

$$$$
