310935473
  -OEChem-07211613022D

 26 28  0     0  0  0  0  0  0999 V2000
    0.8150   -2.6593    0.0000 Cl  0  0  0  0  0  0  0  0  0  0  0  0
    0.8578   -4.1176    0.0000 Cl  0  0  0  0  0  0  0  0  0  0  0  0
    1.6728   -2.6593    0.0000 Cl  0  0  0  0  0  0  0  0  0  0  0  0
    4.1605    0.0000    0.0000 O   0  0  0  0  0  0  0  0  0  0  0  0
    2.7022   -3.3456    0.0000 N   0  0  0  0  0  0  0  0  0  0  0  0
    1.9730   -4.5894    0.0000 N   0  0  0  0  0  0  0  0  0  0  0  0
    3.4313   -4.5894    0.0000 N   0  0  0  0  0  0  0  0  0  0  0  0
    4.1605   -3.3456    0.0000 N   0  0  0  0  0  0  0  0  0  0  0  0
    2.7451   -5.8762    0.0000 N   0  0  0  0  0  0  0  0  0  0  0  0
    1.3296   -7.5490    0.0000 N   0  0  0  0  0  0  0  0  0  0  0  0
    1.9730   -3.7745    0.0000 C   0  0  0  0  0  0  0  0  0  0  0  0
    1.2439   -3.3885    0.0000 C   0  0  0  0  0  0  0  0  0  0  0  0
    3.4313   -3.7745    0.0000 C   0  0  0  0  0  0  0  0  0  0  0  0
    2.7022   -5.0183    0.0000 C   0  0  0  0  0  0  0  0  0  0  0  0
    4.1605   -2.5306    0.0000 C   0  0  0  0  0  0  0  0  0  0  0  0
    4.8468   -2.1017    0.0000 C   0  0  0  0  0  0  0  0  0  0  0  0
    3.4313   -2.1017    0.0000 C   0  0  0  0  0  0  0  0  0  0  0  0
    2.0159   -6.3051    0.0000 C   0  0  0  0  0  0  0  0  0  0  0  0
    4.1605   -0.8578    0.0000 C   0  0  0  0  0  0  0  0  0  0  0  0
    4.8468   -1.2868    0.0000 C   0  0  0  0  0  0  0  0  0  0  0  0
    3.4313   -1.2868    0.0000 C   0  0  0  0  0  0  0  0  0  0  0  0
    2.0159   -7.1200    0.0000 C   0  0  0  0  0  0  0  0  0  0  0  0
    1.2439   -8.4068    0.0000 C   0  0  0  0  0  0  0  0  0  0  0  0
    0.5147   -7.2487    0.0000 C   0  0  0  0  0  0  0  0  0  0  0  0
    0.3861   -8.5784    0.0000 C   0  0  0  0  0  0  0  0  0  0  0  0
    0.0000   -7.8492    0.0000 C   0  0  0  0  0  0  0  0  0  0  0  0
  1 12  1  0  0  0  0
  2 12  1  0  0  0  0
  3 12  1  0  0  0  0
  4 19  1  0  0  0  0
  5 11  1  0  0  0  0
  5 13  2  0  0  0  0
  6 11  2  0  0  0  0
  6 14  1  0  0  0  0
  7 13  1  0  0  0  0
  7 14  2  0  0  0  0
  8 13  1  0  0  0  0
  8 15  1  0  0  0  0
  9 14  1  0  0  0  0
  9 18  1  0  0  0  0
 10 22  1  0  0  0  0
 10 23  1  0  0  0  0
 10 24  1  0  0  0  0
 11 12  1  0  0  0  0
 15 16  2  0  0  0  0
 15 17  1  0  0  0  0
 16 20  1  0  0  0  0
 17 21  2  0  0  0  0
 18 22  1  0  0  0  0
 19 20  2  0  0  0  0
 19 21  1  0  0  0  0
 23 25  1  0  0  0  0
 24 26  1  0  0  0  0
 25 26  1  0  0  0  0
M  END
> <PUBCHEM_COMPOUND_ID_TYPE>
0

> <PUBCHEM_TOTAL_CHARGE>
0

> <PUBCHEM_SUBSTANCE_ID>
310935473

> <PUBCHEM_SUBSTANCE_VERSION>
1

> <PUBCHEM_EXT_DATASOURCE_NAME>
4488

> <PUBCHEM_EXT_DATASOURCE_REGID>
SCHEMBL16113026

> <PUBCHEM_SUBSTANCE_COMMENT>
InChI=1S/C16H19Cl3N6O/c17-16(18,19)13-22-14(20-7-10-25-8-1-2-9-25)24-15(23-13)21-11-3-5-12(26)6-4-11/h3-6,26H,1-2,7-10H2,(H2,20,21,22,23,24)
InChIKey=PUCZETBTDPSQAC-UHFFFAOYSA-N

> <PUBCHEM_SUBSTANCE_SYNONYM>
SCHEMBL16113026

> <PUBCHEM_XREF_EXT_ID>
SCHEMBL16113026

> <PUBCHEM_EXT_DATASOURCE_URL>
https://www.surechembl.org/

> <PUBCHEM_EXT_SUBSTANCE_URL>
https://www.surechembl.org/chemical/SCHEMBL16113026

> <PUBCHEM_CID_ASSOCIATIONS>
117603511  1

> <PUBCHEM_COORDINATE_TYPE>
1
3

$$$$
