310933772
  -OEChem-07211613022D

 29 31  0     0  0  0  0  0  0999 V2000
    1.4142   -7.8567    0.0000 F   0  0  0  0  0  0  0  0  0  0  0  0
    0.0000   -5.3819    0.0000 F   0  0  0  0  0  0  0  0  0  0  0  0
    3.5355   -5.8140    0.0000 O   0  0  0  0  0  0  0  0  0  0  0  0
    6.5210   -3.2606    0.0000 O   0  0  0  0  0  0  0  0  0  0  0  0
    2.8284   -4.5569    0.0000 O   0  0  0  0  0  0  0  0  0  0  0  0
    7.9352   -1.6499    0.0000 O   0  0  0  0  0  0  0  0  0  0  0  0
    6.5210   -1.6499    0.0000 O   0  0  0  0  0  0  0  0  0  0  0  0
    4.2426   -5.3819    0.0000 C   0  0  0  0  0  0  0  0  0  0  0  0
    5.8140   -4.4783    0.0000 C   0  0  0  0  0  0  0  0  0  0  0  0
    4.2426   -4.4783    0.0000 C   0  0  0  0  0  0  0  0  0  0  0  0
    5.0283   -5.8533    0.0000 C   0  0  0  0  0  0  0  0  0  0  0  0
    4.6354   -4.7926    0.0000 C   0  0  0  0  0  0  0  0  0  0  0  0
    5.0283   -4.0462    0.0000 C   0  0  0  0  0  0  0  0  0  0  0  0
    5.8140   -5.3819    0.0000 C   0  0  0  0  0  0  0  0  0  0  0  0
    5.1069   -4.4783    0.0000 C   0  0  0  0  0  0  0  0  0  0  0  0
    6.5210   -4.0855    0.0000 C   0  0  0  0  0  0  0  0  0  0  0  0
    2.8284   -5.3819    0.0000 C   0  0  0  0  0  0  0  0  0  0  0  0
    2.1213   -5.8140    0.0000 C   0  0  0  0  0  0  0  0  0  0  0  0
    1.4142   -5.3819    0.0000 C   0  0  0  0  0  0  0  0  0  0  0  0
    2.1213   -6.6389    0.0000 C   0  0  0  0  0  0  0  0  0  0  0  0
    1.4142   -7.0317    0.0000 C   0  0  0  0  0  0  0  0  0  0  0  0
    0.7071   -5.8140    0.0000 C   0  0  0  0  0  0  0  0  0  0  0  0
    0.7071   -6.6389    0.0000 C   0  0  0  0  0  0  0  0  0  0  0  0
    7.2281   -2.8677    0.0000 C   0  0  0  0  0  0  0  0  0  0  0  0
    7.2281   -2.0427    0.0000 C   0  0  0  0  0  0  0  0  0  0  0  0
    7.9746   -0.8249    0.0000 C   0  0  0  0  0  0  0  0  0  0  0  0
    7.9746    0.0000    0.0000 C   0  0  0  0  0  0  0  0  0  0  0  0
    8.7995   -0.8249    0.0000 C   0  0  0  0  0  0  0  0  0  0  0  0
    7.1496   -0.8249    0.0000 C   0  0  0  0  0  0  0  0  0  0  0  0
  1 21  1  0  0  0  0
  2 22  1  0  0  0  0
  3  8  1  0  0  0  0
  3 17  1  0  0  0  0
  4 16  1  0  0  0  0
  4 24  1  0  0  0  0
  5 17  2  0  0  0  0
  6 25  1  0  0  0  0
  6 26  1  0  0  0  0
  7 25  2  0  0  0  0
  8 10  1  0  0  0  0
  8 11  1  0  0  0  0
  8 12  1  0  0  0  0
  9 13  1  0  0  0  0
  9 14  1  0  0  0  0
  9 15  1  0  0  0  0
  9 16  1  0  0  0  0
 10 13  1  0  0  0  0
 11 14  1  0  0  0  0
 12 15  1  0  0  0  0
 17 18  1  0  0  0  0
 18 19  2  0  0  0  0
 18 20  1  0  0  0  0
 19 22  1  0  0  0  0
 20 21  2  0  0  0  0
 21 23  1  0  0  0  0
 22 23  2  0  0  0  0
 24 25  1  0  0  0  0
 26 27  1  0  0  0  0
 26 28  1  0  0  0  0
 26 29  1  0  0  0  0
M  END
> <PUBCHEM_COMPOUND_ID_TYPE>
0

> <PUBCHEM_TOTAL_CHARGE>
0

> <PUBCHEM_SUBSTANCE_ID>
310933772

> <PUBCHEM_SUBSTANCE_VERSION>
1

> <PUBCHEM_EXT_DATASOURCE_NAME>
4488

> <PUBCHEM_EXT_DATASOURCE_REGID>
SCHEMBL16111208

> <PUBCHEM_SUBSTANCE_COMMENT>
InChI=1S/C22H28F2O5/c1-20(2,3)28-18(25)13-27-14-21-4-7-22(8-5-21,9-6-21)29-19(26)15-10-16(23)12-17(24)11-15/h10-12H,4-9,13-14H2,1-3H3
InChIKey=WNIHYBIAXYRONP-UHFFFAOYSA-N

> <PUBCHEM_SUBSTANCE_SYNONYM>
SCHEMBL16111208

> <PUBCHEM_XREF_EXT_ID>
SCHEMBL16111208

> <PUBCHEM_EXT_DATASOURCE_URL>
https://www.surechembl.org/

> <PUBCHEM_EXT_SUBSTANCE_URL>
https://www.surechembl.org/chemical/SCHEMBL16111208

> <PUBCHEM_CID_ASSOCIATIONS>
86288731  1

> <PUBCHEM_COORDINATE_TYPE>
1
3

$$$$
