310943894
  -OEChem-07211613022D

 32 36  0     1  0  0  0  0  0999 V2000
    2.5586    0.7834    0.0000 O   0  0  0  0  0  0  0  0  0  0  0  0
    5.4515    0.0931    0.0000 O   0  0  0  0  0  0  0  0  0  0  0  0
    5.4843    1.5615    0.0000 O   0  0  0  0  0  0  0  0  0  0  0  0
   -0.6630   -1.5615    0.0000 O   0  0  0  0  0  0  0  0  0  0  0  0
    3.3914   -0.4328    0.0000 N   0  0  0  0  0  0  0  0  0  0  0  0
    0.4657   -0.3014    0.0000 N   0  0  0  0  0  0  0  0  0  0  0  0
   -4.1695   -0.1918    0.0000 N   0  0  0  0  0  0  0  0  0  0  0  0
   -2.0217    0.1370    0.0000 N   0  0  0  0  0  0  0  0  0  0  0  0
   -2.8326    0.2794    0.0000 N   0  0  0  0  0  0  0  0  0  0  0  0
   -4.5201    0.5424    0.0000 N   0  0  0  0  0  0  0  0  0  0  0  0
   -5.3310    0.4328    0.0000 N   0  0  0  0  0  0  0  0  0  0  0  0
   -5.4843   -0.3781    0.0000 N   0  0  0  0  0  0  0  0  0  0  0  0
    2.0656   -0.5863    0.0000 C   0  0  0  0  0  0  0  0  0  0  0  0
    2.6682   -0.0493    0.0000 C   0  0  0  0  0  0  0  0  0  0  0  0
    4.1256   -0.0602    0.0000 C   0  0  0  0  0  0  0  0  0  0  0  0
    2.4272   -1.3313    0.0000 C   0  0  0  0  0  0  0  0  0  0  0  0
    3.2380   -1.2328    0.0000 C   0  0  0  0  0  0  0  0  0  0  0  0
    1.5395   -1.2218    0.0000 C   0  0  0  0  0  0  0  0  0  0  0  0
    1.8025    0.1808    0.0000 C   0  0  0  0  0  0  0  0  0  0  0  0
    4.2790    0.7506    0.0000 C   0  0  0  0  0  0  0  0  0  0  0  0
    4.8488   -0.4657    0.0000 C   0  0  0  0  0  0  0  0  0  0  0  0
    5.0790    0.8273    0.0000 C   0  0  0  0  0  0  0  0  0  0  0  0
    0.7287   -1.0574    0.0000 C   0  0  0  0  0  0  0  0  0  0  0  0
    0.9917    0.3342    0.0000 C   0  0  0  0  0  0  0  0  0  0  0  0
   -0.4110   -0.1479    0.0000 C   0  0  0  0  0  0  0  0  0  0  0  0
   -0.9369   -0.7726    0.0000 C   0  0  3  0  0  0  0  0  0  0  0  0
   -1.7478   -0.6081    0.0000 C   0  0  0  0  0  0  0  0  0  0  0  0
    3.7092    1.3533    0.0000 C   0  0  0  0  0  0  0  0  0  0  0  0
   -3.3695   -0.3342    0.0000 C   0  0  0  0  0  0  0  0  0  0  0  0
   -2.2737   -1.2546    0.0000 C   0  0  0  0  0  0  0  0  0  0  0  0
   -3.0846   -1.1013    0.0000 C   0  0  0  0  0  0  0  0  0  0  0  0
   -4.7502   -0.7506    0.0000 C   0  0  0  0  0  0  0  0  0  0  0  0
  1 14  2  0  0  0  0
  2 21  1  0  0  0  0
  2 22  1  0  0  0  0
  3 22  2  0  0  0  0
 26  4  1  6  0  0  0
  5 14  1  0  0  0  0
  5 15  1  0  0  0  0
  5 17  1  0  0  0  0
  6 23  1  0  0  0  0
  6 24  1  0  0  0  0
  6 25  1  0  0  0  0
  7 10  1  0  0  0  0
  7 29  1  0  0  0  0
  7 32  1  0  0  0  0
  8  9  2  0  0  0  0
  8 27  1  0  0  0  0
  9 29  1  0  0  0  0
 10 11  2  0  0  0  0
 11 12  1  0  0  0  0
 12 32  2  0  0  0  0
 13 14  1  0  0  0  0
 13 16  1  0  0  0  0
 13 18  1  0  0  0  0
 13 19  1  0  0  0  0
 15 20  2  0  0  0  0
 15 21  1  0  0  0  0
 16 17  1  0  0  0  0
 18 23  1  0  0  0  0
 19 24  1  0  0  0  0
 20 22  1  0  0  0  0
 20 28  1  0  0  0  0
 25 26  1  0  0  0  0
 26 27  1  0  0  0  0
 27 30  2  0  0  0  0
 29 31  2  0  0  0  0
 30 31  1  0  0  0  0
M  END
> <PUBCHEM_COMPOUND_ID_TYPE>
0

> <PUBCHEM_TOTAL_CHARGE>
0

> <PUBCHEM_SUBSTANCE_ID>
310943894

> <PUBCHEM_SUBSTANCE_VERSION>
1

> <PUBCHEM_EXT_DATASOURCE_NAME>
4488

> <PUBCHEM_EXT_DATASOURCE_REGID>
SCHEMBL16121965

> <PUBCHEM_SUBSTANCE_COMMENT>
InChI=1S/C20H24N8O4/c1-13-15(11-32-18(13)30)27-9-6-20(19(27)31)4-7-26(8-5-20)10-16(29)14-2-3-17(23-22-14)28-12-21-24-25-28/h2-3,12,16,29H,4-11H2,1H3/t16-/m0/s1
InChIKey=YLOSSAUMNXTFGU-INIZCTEOSA-N

> <PUBCHEM_SUBSTANCE_SYNONYM>
SCHEMBL16121965

> <PUBCHEM_XREF_EXT_ID>
SCHEMBL16121965

> <PUBCHEM_EXT_DATASOURCE_URL>
https://www.surechembl.org/

> <PUBCHEM_EXT_SUBSTANCE_URL>
https://www.surechembl.org/chemical/SCHEMBL16121965

> <PUBCHEM_CID_ASSOCIATIONS>
86271366  1

> <PUBCHEM_COORDINATE_TYPE>
1
3

> <PUBCHEM_BONDANNOTATIONS>
26  4  6

$$$$
