310946927
  -OEChem-07211613022D

 37 41  0     1  0  0  0  0  0999 V2000
   -2.9531    2.9718    0.0000 O   0  0  0  0  0  0  0  0  0  0  0  0
   -2.9531   -1.7719    0.0000 O   0  0  0  0  0  0  0  0  0  0  0  0
    2.2406    0.1594    0.0000 O   0  0  0  0  0  0  0  0  0  0  0  0
    4.2655   -2.7656    0.0000 O   0  0  0  0  0  0  0  0  0  0  0  0
   -2.2406    0.9094    0.0000 N   0  0  0  0  0  0  0  0  0  0  0  0
   -1.5656    0.4219    0.0000 N   0  0  0  0  0  0  0  0  0  0  0  0
   -1.3406   -1.0219    0.0000 N   0  0  0  0  0  0  0  0  0  0  0  0
   -4.0218   -0.7968    0.0000 N   0  0  0  0  0  0  0  0  0  0  0  0
    2.4468   -1.2469    0.0000 N   0  0  0  0  0  0  0  0  0  0  0  0
   -0.1219    2.1094    0.0000 N   0  0  0  0  0  0  0  0  0  0  0  0
   -2.9156    0.4031    0.0000 C   0  0  0  0  0  0  0  0  0  0  0  0
   -2.2406    1.7344    0.0000 C   0  0  3  0  0  0  0  0  0  0  0  0
   -2.6718   -0.3281    0.0000 C   0  0  0  0  0  0  0  0  0  0  0  0
   -1.8281   -0.3656    0.0000 C   0  0  0  0  0  0  0  0  0  0  0  0
   -3.2343   -0.9656    0.0000 C   0  0  0  0  0  0  0  0  0  0  0  0
   -3.7218    0.5906    0.0000 C   0  0  0  0  0  0  0  0  0  0  0  0
   -2.9531    2.1468    0.0000 C   0  0  0  0  0  0  0  0  0  0  0  0
   -1.5281    2.1468    0.0000 C   0  0  0  0  0  0  0  0  0  0  0  0
   -1.5469    1.3031    0.0000 C   0  0  0  0  0  0  0  0  0  0  0  0
   -0.5531   -0.9469    0.0000 C   0  0  0  0  0  0  0  0  0  0  0  0
   -4.2655   -0.0093    0.0000 C   0  0  0  0  0  0  0  0  0  0  0  0
   -1.5281    2.9718    0.0000 C   0  0  0  0  0  0  0  0  0  0  0  0
    1.1156   -0.7031    0.0000 C   0  0  0  0  0  0  0  0  0  0  0  0
   -0.1969   -0.1781    0.0000 C   0  0  0  0  0  0  0  0  0  0  0  0
    0.5906   -0.0656    0.0000 C   0  0  0  0  0  0  0  0  0  0  0  0
    0.0093   -1.5844    0.0000 C   0  0  0  0  0  0  0  0  0  0  0  0
   -0.8156    1.7344    0.0000 C   0  0  0  0  0  0  0  0  0  0  0  0
   -2.2406    3.3844    0.0000 C   0  0  0  0  0  0  0  0  0  0  0  0
    1.9218   -0.6094    0.0000 C   0  0  0  0  0  0  0  0  0  0  0  0
    0.7968   -1.4719    0.0000 C   0  0  0  0  0  0  0  0  0  0  0  0
    3.4593   -2.5594    0.0000 C   0  0  0  0  0  0  0  0  0  0  0  0
    2.1468   -2.0344    0.0000 C   0  0  0  0  0  0  0  0  0  0  0  0
    3.2531   -1.1343    0.0000 C   0  0  0  0  0  0  0  0  0  0  0  0
    0.9094    0.7031    0.0000 C   0  0  0  0  0  0  0  0  0  0  0  0
    2.6718   -2.6718    0.0000 C   0  0  0  0  0  0  0  0  0  0  0  0
    3.7781   -1.7719    0.0000 C   0  0  0  0  0  0  0  0  0  0  0  0
    3.4593   -3.3844    0.0000 C   0  0  0  0  0  0  0  0  0  0  0  0
  1 17  1  0  0  0  0
  1 28  1  0  0  0  0
  2 15  2  0  0  0  0
  3 29  2  0  0  0  0
  4 31  1  0  0  0  0
  5  6  1  0  0  0  0
  5 11  1  0  0  0  0
  5 12  1  0  0  0  0
  6 14  2  0  0  0  0
  7 14  1  0  0  0  0
  7 20  1  0  0  0  0
  8 15  1  0  0  0  0
  8 21  1  0  0  0  0
  9 29  1  0  0  0  0
  9 32  1  0  0  0  0
  9 33  1  0  0  0  0
 10 27  3  0  0  0  0
 11 13  2  0  0  0  0
 11 16  1  0  0  0  0
 12 17  1  0  0  0  0
 12 18  1  0  0  0  0
 12 19  1  6  0  0  0
 13 14  1  0  0  0  0
 13 15  1  0  0  0  0
 16 21  2  0  0  0  0
 18 22  1  0  0  0  0
 19 27  1  0  0  0  0
 20 24  1  0  0  0  0
 20 26  2  0  0  0  0
 22 28  1  0  0  0  0
 23 25  1  0  0  0  0
 23 29  1  0  0  0  0
 23 30  2  0  0  0  0
 24 25  2  0  0  0  0
 25 34  1  0  0  0  0
 26 30  1  0  0  0  0
 31 35  1  0  0  0  0
 31 36  1  0  0  0  0
 31 37  1  0  0  0  0
 32 35  1  0  0  0  0
 33 36  1  0  0  0  0
M  END
> <PUBCHEM_COMPOUND_ID_TYPE>
0

> <PUBCHEM_TOTAL_CHARGE>
0

> <PUBCHEM_SUBSTANCE_ID>
310946927

> <PUBCHEM_SUBSTANCE_VERSION>
1

> <PUBCHEM_EXT_DATASOURCE_NAME>
4488

> <PUBCHEM_EXT_DATASOURCE_REGID>
SCHEMBL16125051

> <PUBCHEM_SUBSTANCE_COMMENT>
InChI=1S/C27H32N6O4/c1-18-16-19(4-5-20(18)25(35)32-13-9-26(2,36)10-14-32)30-23-22-21(6-12-29-24(22)34)33(31-23)27(8-11-28)7-3-15-37-17-27/h4-6,12,16,36H,3,7-10,13-15,17H2,1-2H3,(H,29,34)(H,30,31)/t27-/m0/s1
InChIKey=ZSVSNFGNUVQIJW-MHZLTWQESA-N

> <PUBCHEM_SUBSTANCE_SYNONYM>
SCHEMBL16125051

> <PUBCHEM_XREF_EXT_ID>
SCHEMBL16125051

> <PUBCHEM_EXT_DATASOURCE_URL>
https://www.surechembl.org/

> <PUBCHEM_EXT_SUBSTANCE_URL>
https://www.surechembl.org/chemical/SCHEMBL16125051

> <PUBCHEM_CID_ASSOCIATIONS>
117612782  1

> <PUBCHEM_COORDINATE_TYPE>
1
3

> <PUBCHEM_BONDANNOTATIONS>
12  19  6

$$$$
