310943523
  -OEChem-07211613022D

 38 41  0     0  0  0  0  0  0999 V2000
   -4.9930   -1.2580    0.0000 F   0  0  0  0  0  0  0  0  0  0  0  0
   -4.2786   -2.5004    0.0000 F   0  0  0  0  0  0  0  0  0  0  0  0
   -3.5642   -0.4193    0.0000 O   0  0  0  0  0  0  0  0  0  0  0  0
    2.1510    2.0656    0.0000 O   0  0  0  0  0  0  0  0  0  0  0  0
   -4.9930    2.0656    0.0000 O   0  0  0  0  0  0  0  0  0  0  0  0
   -3.5642    1.2424    0.0000 N   0  0  0  0  0  0  0  0  0  0  0  0
   -2.1354   -0.4193    0.0000 N   0  0  0  0  0  0  0  0  0  0  0  0
    0.0078    2.4849    0.0000 N   0  0  0  0  0  0  0  0  0  0  0  0
    1.4365    0.8231    0.0000 N   0  0  0  0  0  0  0  0  0  0  0  0
    4.2942    0.0000    0.0000 N   0  0  0  0  0  0  0  0  0  0  0  0
    4.2942    0.8231    0.0000 N   0  0  0  0  0  0  0  0  0  0  0  0
    4.9930   -2.0656    0.0000 N   0  0  0  0  0  0  0  0  0  0  0  0
   -1.4210    0.8387    0.0000 C   0  0  0  0  0  0  0  0  0  0  0  0
   -0.7222    1.2424    0.0000 C   0  0  0  0  0  0  0  0  0  0  0  0
   -2.8499    0.8387    0.0000 C   0  0  0  0  0  0  0  0  0  0  0  0
   -2.8653    0.0000    0.0000 C   0  0  0  0  0  0  0  0  0  0  0  0
   -2.1510    1.2424    0.0000 C   0  0  0  0  0  0  0  0  0  0  0  0
   -0.7067    2.0811    0.0000 C   0  0  0  0  0  0  0  0  0  0  0  0
    0.0233    0.8387    0.0000 C   0  0  0  0  0  0  0  0  0  0  0  0
    0.7067    1.2580    0.0000 C   0  0  0  0  0  0  0  0  0  0  0  0
   -1.4365    0.0000    0.0000 C   0  0  0  0  0  0  0  0  0  0  0  0
    3.5797   -0.4038    0.0000 C   0  0  0  0  0  0  0  0  0  0  0  0
    2.8653    0.8387    0.0000 C   0  0  0  0  0  0  0  0  0  0  0  0
    3.5797   -1.2269    0.0000 C   0  0  0  0  0  0  0  0  0  0  0  0
    2.1354    1.2269    0.0000 C   0  0  0  0  0  0  0  0  0  0  0  0
    0.7377    2.0656    0.0000 C   0  0  0  0  0  0  0  0  0  0  0  0
    2.8653    0.0155    0.0000 C   0  0  0  0  0  0  0  0  0  0  0  0
   -3.5797    2.0811    0.0000 C   0  0  0  0  0  0  0  0  0  0  0  0
   -4.2786    0.8387    0.0000 C   0  0  0  0  0  0  0  0  0  0  0  0
    3.5642    1.2424    0.0000 C   0  0  0  0  0  0  0  0  0  0  0  0
   -1.4365    2.4849    0.0000 C   0  0  0  0  0  0  0  0  0  0  0  0
    4.2942   -1.6617    0.0000 C   0  0  0  0  0  0  0  0  0  0  0  0
   -4.2786    2.5004    0.0000 C   0  0  0  0  0  0  0  0  0  0  0  0
   -4.9930    1.2424    0.0000 C   0  0  0  0  0  0  0  0  0  0  0  0
   -3.5797   -1.2424    0.0000 C   0  0  0  0  0  0  0  0  0  0  0  0
    2.8808   -1.6773    0.0000 C   0  0  0  0  0  0  0  0  0  0  0  0
    4.3097   -0.8231    0.0000 C   0  0  0  0  0  0  0  0  0  0  0  0
   -4.2786   -1.6462    0.0000 C   0  0  0  0  0  0  0  0  0  0  0  0
  1 38  1  0  0  0  0
  2 38  1  0  0  0  0
  3 16  1  0  0  0  0
  3 35  1  0  0  0  0
  4 25  2  0  0  0  0
  5 33  1  0  0  0  0
  5 34  1  0  0  0  0
  6 15  1  0  0  0  0
  6 28  1  0  0  0  0
  6 29  1  0  0  0  0
  7 16  2  0  0  0  0
  7 21  1  0  0  0  0
  8 18  2  0  0  0  0
  8 26  1  0  0  0  0
  9 20  1  0  0  0  0
  9 25  1  0  0  0  0
 10 11  1  0  0  0  0
 10 22  2  0  0  0  0
 11 30  2  0  0  0  0
 12 32  3  0  0  0  0
 13 14  1  0  0  0  0
 13 17  1  0  0  0  0
 13 21  2  0  0  0  0
 14 18  1  0  0  0  0
 14 19  2  0  0  0  0
 15 16  1  0  0  0  0
 15 17  2  0  0  0  0
 18 31  1  0  0  0  0
 19 20  1  0  0  0  0
 20 26  2  0  0  0  0
 22 24  1  0  0  0  0
 22 27  1  0  0  0  0
 23 25  1  0  0  0  0
 23 27  2  0  0  0  0
 23 30  1  0  0  0  0
 24 32  1  0  0  0  0
 24 36  1  0  0  0  0
 24 37  1  0  0  0  0
 28 33  1  0  0  0  0
 29 34  1  0  0  0  0
 35 38  1  0  0  0  0
M  END
> <PUBCHEM_COMPOUND_ID_TYPE>
0

> <PUBCHEM_TOTAL_CHARGE>
0

> <PUBCHEM_SUBSTANCE_ID>
310943523

> <PUBCHEM_SUBSTANCE_VERSION>
1

> <PUBCHEM_EXT_DATASOURCE_NAME>
4488

> <PUBCHEM_EXT_DATASOURCE_REGID>
SCHEMBL16121589

> <PUBCHEM_SUBSTANCE_COMMENT>
InChI=1S/C26H27F2N7O3/c1-16-20(17-8-21(35-4-6-37-7-5-35)25(31-11-17)38-14-23(27)28)10-19(13-30-16)33-24(36)18-9-22(34-32-12-18)26(2,3)15-29/h8-13,23H,4-7,14H2,1-3H3,(H,33,36)
InChIKey=HGVDXYGGURBFCP-UHFFFAOYSA-N

> <PUBCHEM_SUBSTANCE_SYNONYM>
SCHEMBL16121589

> <PUBCHEM_XREF_EXT_ID>
SCHEMBL16121589

> <PUBCHEM_EXT_DATASOURCE_URL>
https://www.surechembl.org/

> <PUBCHEM_EXT_SUBSTANCE_URL>
https://www.surechembl.org/chemical/SCHEMBL16121589

> <PUBCHEM_CID_ASSOCIATIONS>
117609937  1

> <PUBCHEM_COORDINATE_TYPE>
1
3

$$$$
