310941514
  -OEChem-07211613022D

 27 30  0     0  0  0  0  0  0999 V2000
   -2.1002    2.1592    0.0000 Br  0  0  0  0  0  0  0  0  0  0  0  0
   -1.6139   -2.2919    0.0000 O   0  0  0  0  0  0  0  0  0  0  0  0
    0.5380    1.3928    0.0000 O   0  0  0  0  0  0  0  0  0  0  0  0
   -0.0663   -1.4960    0.0000 N   0  0  0  0  0  0  0  0  0  0  0  0
   -2.6603   -1.2454    0.0000 N   0  0  0  0  0  0  0  0  0  0  0  0
   -0.3316    0.6411    0.0000 N   0  0  0  0  0  0  0  0  0  0  0  0
    2.7045    1.6581    0.0000 N   0  0  0  0  0  0  0  0  0  0  0  0
   -1.3928   -0.8180    0.0000 C   0  0  0  0  0  0  0  0  0  0  0  0
   -0.5527   -0.8328    0.0000 C   0  0  0  0  0  0  0  0  0  0  0  0
   -1.8792   -0.1548    0.0000 C   0  0  0  0  0  0  0  0  0  0  0  0
   -0.0663   -0.1401    0.0000 C   0  0  0  0  0  0  0  0  0  0  0  0
    0.7296   -0.4053    0.0000 C   0  0  0  0  0  0  0  0  0  0  0  0
   -1.8792   -1.4665    0.0000 C   0  0  0  0  0  0  0  0  0  0  0  0
   -2.6456   -0.3906    0.0000 C   0  0  0  0  0  0  0  0  0  0  0  0
    0.7001   -1.2307    0.0000 C   0  0  0  0  0  0  0  0  0  0  0  0
   -1.7023    0.6706    0.0000 C   0  0  0  0  0  0  0  0  0  0  0  0
   -3.2499    0.1401    0.0000 C   0  0  0  0  0  0  0  0  0  0  0  0
    1.4370   -0.0074    0.0000 C   0  0  0  0  0  0  0  0  0  0  0  0
    1.4223   -1.6433    0.0000 C   0  0  0  0  0  0  0  0  0  0  0  0
   -2.3066    1.2307    0.0000 C   0  0  0  0  0  0  0  0  0  0  0  0
   -3.0877    0.9653    0.0000 C   0  0  0  0  0  0  0  0  0  0  0  0
    2.1445   -0.4053    0.0000 C   0  0  0  0  0  0  0  0  0  0  0  0
    2.1445   -1.2454    0.0000 C   0  0  0  0  0  0  0  0  0  0  0  0
    1.3486    1.2160    0.0000 C   0  0  0  0  0  0  0  0  0  0  0  0
    1.8939    1.8350    0.0000 C   0  0  0  0  0  0  0  0  0  0  0  0
    3.2499    2.2919    0.0000 C   0  0  0  0  0  0  0  0  0  0  0  0
    2.9698    0.8475    0.0000 C   0  0  0  0  0  0  0  0  0  0  0  0
  1 20  1  0  0  0  0
  2 13  2  0  0  0  0
  3  6  1  0  0  0  0
  3 24  1  0  0  0  0
  4  9  1  0  0  0  0
  4 15  1  0  0  0  0
  5 13  1  0  0  0  0
  5 14  1  0  0  0  0
  6 11  2  0  0  0  0
  7 25  1  0  0  0  0
  7 26  1  0  0  0  0
  7 27  1  0  0  0  0
  8  9  2  0  0  0  0
  8 10  1  0  0  0  0
  8 13  1  0  0  0  0
  9 11  1  0  0  0  0
 10 14  2  0  0  0  0
 10 16  1  0  0  0  0
 11 12  1  0  0  0  0
 12 15  2  0  0  0  0
 12 18  1  0  0  0  0
 14 17  1  0  0  0  0
 15 19  1  0  0  0  0
 16 20  2  0  0  0  0
 17 21  2  0  0  0  0
 18 22  2  0  0  0  0
 19 23  2  0  0  0  0
 20 21  1  0  0  0  0
 22 23  1  0  0  0  0
 24 25  1  0  0  0  0
M  END
> <PUBCHEM_COMPOUND_ID_TYPE>
0

> <PUBCHEM_TOTAL_CHARGE>
0

> <PUBCHEM_SUBSTANCE_ID>
310941514

> <PUBCHEM_SUBSTANCE_VERSION>
1

> <PUBCHEM_EXT_DATASOURCE_NAME>
4488

> <PUBCHEM_EXT_DATASOURCE_REGID>
SCHEMBL16119545

> <PUBCHEM_SUBSTANCE_COMMENT>
InChI=1S/C20H19BrN4O2/c1-25(2)9-10-27-24-18-13-5-3-4-6-15(13)22-19(18)17-14-11-12(21)7-8-16(14)23-20(17)26/h3-8,11,22H,9-10H2,1-2H3,(H,23,26)/b19-17-,24-18+
InChIKey=QPUKFUYGUZSLFD-FTCCNZMVSA-N

> <PUBCHEM_SUBSTANCE_SYNONYM>
SCHEMBL16119545

> <PUBCHEM_XREF_EXT_ID>
SCHEMBL16119545

> <PUBCHEM_EXT_DATASOURCE_URL>
https://www.surechembl.org/

> <PUBCHEM_EXT_SUBSTANCE_URL>
https://www.surechembl.org/chemical/SCHEMBL16119545

> <PUBCHEM_CID_ASSOCIATIONS>
117608333  1

> <PUBCHEM_COORDINATE_TYPE>
1
3

$$$$
