310948698
  -OEChem-07211613022D

 38 41  0     1  0  0  0  0  0999 V2000
    3.9181    0.4671    0.0000 F   0  0  0  0  0  0  0  0  0  0  0  0
    4.2388   -0.6344    0.0000 F   0  0  0  0  0  0  0  0  0  0  0  0
    3.1233   -0.9272    0.0000 F   0  0  0  0  0  0  0  0  0  0  0  0
   -4.2667    0.2161    0.0000 O   0  0  0  0  0  0  0  0  0  0  0  0
   -3.0117   -0.4114    0.0000 O   0  0  0  0  0  0  0  0  0  0  0  0
   -0.0976    2.6701    0.0000 O   0  0  0  0  0  0  0  0  0  0  0  0
    0.6135   -0.2161    0.0000 N   0  0  3  0  0  0  0  0  0  0  0  0
    0.6135    1.4432    0.0000 N   0  0  0  0  0  0  0  0  0  0  0  0
   -2.3146    1.4292    0.0000 C   0  0  3  0  0  0  0  0  0  0  0  0
   -3.0117    1.0527    0.0000 C   0  0  3  0  0  0  0  0  0  0  0  0
   -1.5616    1.0249    0.0000 C   0  0  0  0  0  0  0  0  0  0  0  0
   -3.0117    1.8335    0.0000 C   0  0  0  0  0  0  0  0  0  0  0  0
   -0.1115    0.2161    0.0000 C   0  0  0  0  0  0  0  0  0  0  0  0
   -0.0976    1.0249    0.0000 C   0  0  0  0  0  0  0  0  0  0  0  0
   -0.8505    1.4292    0.0000 C   0  0  0  0  0  0  0  0  0  0  0  0
   -1.5616    0.2161    0.0000 C   0  0  0  0  0  0  0  0  0  0  0  0
   -3.4161    0.2997    0.0000 C   0  0  0  0  0  0  0  0  0  0  0  0
   -0.8226   -0.2022    0.0000 C   0  0  0  0  0  0  0  0  0  0  0  0
    0.6135   -1.0387    0.0000 C   0  0  0  0  0  0  0  0  0  0  0  0
    1.3246    0.2022    0.0000 C   0  0  0  0  0  0  0  0  0  0  0  0
    0.6414    2.2658    0.0000 C   0  0  0  0  0  0  0  0  0  0  0  0
    2.0776   -0.2022    0.0000 C   0  0  3  0  0  0  0  0  0  0  0  0
   -0.0976   -1.4571    0.0000 C   0  0  0  0  0  0  0  0  0  0  0  0
    1.3386   -1.4571    0.0000 C   0  0  0  0  0  0  0  0  0  0  0  0
    1.3386    2.6841    0.0000 C   0  0  0  0  0  0  0  0  0  0  0  0
    2.7887    0.2022    0.0000 C   0  0  0  0  0  0  0  0  0  0  0  0
   -0.0976   -2.2797    0.0000 C   0  0  0  0  0  0  0  0  0  0  0  0
    1.3386   -2.2797    0.0000 C   0  0  0  0  0  0  0  0  0  0  0  0
    2.0776    2.2658    0.0000 C   0  0  0  0  0  0  0  0  0  0  0  0
    3.5137   -0.2301    0.0000 C   0  0  0  0  0  0  0  0  0  0  0  0
    0.6275   -2.6841    0.0000 C   0  0  0  0  0  0  0  0  0  0  0  0
    2.0915   -1.0527    0.0000 C   0  0  0  0  0  0  0  0  0  0  0  0
    2.0776    1.4432    0.0000 C   0  0  0  0  0  0  0  0  0  0  0  0
    2.7887    2.6701    0.0000 C   0  0  0  0  0  0  0  0  0  0  0  0
    3.5137    1.4571    0.0000 C   0  0  0  0  0  0  0  0  0  0  0  0
    2.8026    1.0387    0.0000 C   0  0  0  0  0  0  0  0  0  0  0  0
    3.5137    2.2658    0.0000 C   0  0  0  0  0  0  0  0  0  0  0  0
    4.2667    1.0249    0.0000 C   0  0  0  0  0  0  0  0  0  0  0  0
  1 30  1  0  0  0  0
  2 30  1  0  0  0  0
  3 30  1  0  0  0  0
  4 17  2  0  0  0  0
  5 17  1  0  0  0  0
  6 21  2  0  0  0  0
  7 13  1  0  0  0  0
  7 19  1  0  0  0  0
  7 20  1  0  0  0  0
  8 14  1  0  0  0  0
  8 21  1  0  0  0  0
  9 10  1  0  0  0  0
  9 11  1  0  0  0  0
  9 12  1  6  0  0  0
 10 12  1  0  0  0  0
 10 17  1  6  0  0  0
 11 15  1  0  0  0  0
 11 16  2  0  0  0  0
 13 14  1  0  0  0  0
 13 18  2  0  0  0  0
 14 15  2  0  0  0  0
 16 18  1  0  0  0  0
 19 23  1  0  0  0  0
 19 24  1  0  0  0  0
 20 22  1  0  0  0  0
 21 25  1  0  0  0  0
 22 26  1  0  0  0  0
 22 32  1  0  0  0  0
 23 27  1  0  0  0  0
 24 28  1  0  0  0  0
 25 29  1  0  0  0  0
 26 30  1  0  0  0  0
 27 31  1  0  0  0  0
 28 31  1  0  0  0  0
 29 33  2  0  0  0  0
 29 34  1  0  0  0  0
 33 36  1  0  0  0  0
 34 37  2  0  0  0  0
 35 36  2  0  0  0  0
 35 37  1  0  0  0  0
 35 38  1  0  0  0  0
M  END
> <PUBCHEM_COMPOUND_ID_TYPE>
0

> <PUBCHEM_TOTAL_CHARGE>
0

> <PUBCHEM_SUBSTANCE_ID>
310948698

> <PUBCHEM_SUBSTANCE_VERSION>
1

> <PUBCHEM_EXT_DATASOURCE_NAME>
4488

> <PUBCHEM_EXT_DATASOURCE_REGID>
SCHEMBL16126882

> <PUBCHEM_SUBSTANCE_COMMENT>
InChI=1S/C30H37F3N2O3/c1-19-8-10-21(11-9-19)14-28(36)34-26-15-22(24-16-25(24)29(37)38)12-13-27(26)35(23-6-4-3-5-7-23)18-20(2)17-30(31,32)33/h8-13,15,20,23-25H,3-7,14,16-18H2,1-2H3,(H,34,36)(H,37,38)/t20?,24-,25-/m1/s1
InChIKey=UXTJFVQBOXPSAX-PXTZOULZSA-N

> <PUBCHEM_SUBSTANCE_SYNONYM>
SCHEMBL16126882

> <PUBCHEM_XREF_EXT_ID>
SCHEMBL16126882

> <PUBCHEM_EXT_DATASOURCE_URL>
https://www.surechembl.org/

> <PUBCHEM_EXT_SUBSTANCE_URL>
https://www.surechembl.org/chemical/SCHEMBL16126882

> <PUBCHEM_CID_ASSOCIATIONS>
117614239  1

> <PUBCHEM_COORDINATE_TYPE>
1
3

> <PUBCHEM_BONDANNOTATIONS>
10  17  6
9  12  6

$$$$
