310933825
  -OEChem-07211613022D

 29 31  0     0  0  0  0  0  0999 V2000
    0.0359   -7.1738    0.0000 Cl  0  0  0  0  0  0  0  0  0  0  0  0
    4.5195   -0.7174    0.0000 S   0  0  0  0  0  0  0  0  0  0  0  0
    0.0000   -4.3043    0.0000 F   0  0  0  0  0  0  0  0  0  0  0  0
    1.6141    0.0000    0.0000 O   0  0  0  0  0  0  0  0  0  0  0  0
    5.3804   -0.7174    0.0000 O   0  0  0  0  0  0  0  0  0  0  0  0
    4.9499    0.0000    0.0000 O   0  0  0  0  0  0  0  0  0  0  0  0
    1.2554   -2.1522    0.0000 O   0  0  0  0  0  0  0  0  0  0  0  0
    0.7891   -1.4348    0.0000 O   0  0  0  0  0  0  0  0  0  0  0  0
    2.4750   -2.8695    0.0000 N   0  0  0  0  0  0  0  0  0  0  0  0
    1.6141   -1.4348    0.0000 N   0  0  0  0  0  0  0  0  0  0  0  0
    2.8336   -0.7174    0.0000 C   0  0  0  0  0  0  0  0  0  0  0  0
    2.0087   -0.7174    0.0000 C   0  0  0  0  0  0  0  0  0  0  0  0
    3.2999   -1.4348    0.0000 C   0  0  0  0  0  0  0  0  0  0  0  0
    3.2999    0.0000    0.0000 C   0  0  0  0  0  0  0  0  0  0  0  0
    2.4391   -1.4348    0.0000 C   0  0  0  0  0  0  0  0  0  0  0  0
    4.0891   -1.4348    0.0000 C   0  0  0  0  0  0  0  0  0  0  0  0
    4.0891    0.0000    0.0000 C   0  0  0  0  0  0  0  0  0  0  0  0
    1.6500   -4.3043    0.0000 C   0  0  0  0  0  0  0  0  0  0  0  0
    1.2554   -5.0217    0.0000 C   0  0  0  0  0  0  0  0  0  0  0  0
    2.8695   -2.1522    0.0000 C   0  0  0  0  0  0  0  0  0  0  0  0
    1.6500   -2.8695    0.0000 C   0  0  0  0  0  0  0  0  0  0  0  0
    1.2196   -3.5869    0.0000 C   0  0  0  0  0  0  0  0  0  0  0  0
    2.9054   -3.5869    0.0000 C   0  0  0  0  0  0  0  0  0  0  0  0
    0.4304   -5.0217    0.0000 C   0  0  0  0  0  0  0  0  0  0  0  0
    2.4750   -4.3043    0.0000 C   0  0  0  0  0  0  0  0  0  0  0  0
    1.6859   -5.7391    0.0000 C   0  0  0  0  0  0  0  0  0  0  0  0
    0.0359   -5.7391    0.0000 C   0  0  0  0  0  0  0  0  0  0  0  0
    0.4304   -6.4565    0.0000 C   0  0  0  0  0  0  0  0  0  0  0  0
    1.2554   -6.4565    0.0000 C   0  0  0  0  0  0  0  0  0  0  0  0
  1 28  1  0  0  0  0
  2  5  2  0  0  0  0
  2  6  2  0  0  0  0
  2 16  1  0  0  0  0
  2 17  1  0  0  0  0
  3 24  1  0  0  0  0
  4 12  2  0  0  0  0
  7 21  2  0  0  0  0
  8 10  1  0  0  0  0
  9 20  1  0  0  0  0
  9 21  1  0  0  0  0
  9 23  1  0  0  0  0
 10 12  1  0  0  0  0
 11 12  1  0  0  0  0
 11 13  1  0  0  0  0
 11 14  1  0  0  0  0
 11 15  1  0  0  0  0
 13 16  1  0  0  0  0
 14 17  1  0  0  0  0
 15 20  1  0  0  0  0
 18 19  1  0  0  0  0
 18 22  2  0  0  0  0
 18 25  1  0  0  0  0
 19 24  1  0  0  0  0
 19 26  2  0  0  0  0
 21 22  1  0  0  0  0
 23 25  2  0  0  0  0
 24 27  2  0  0  0  0
 26 29  1  0  0  0  0
 27 28  1  0  0  0  0
 28 29  2  0  0  0  0
M  END
> <PUBCHEM_COMPOUND_ID_TYPE>
0

> <PUBCHEM_TOTAL_CHARGE>
0

> <PUBCHEM_SUBSTANCE_ID>
310933825

> <PUBCHEM_SUBSTANCE_VERSION>
1

> <PUBCHEM_EXT_DATASOURCE_NAME>
4488

> <PUBCHEM_EXT_DATASOURCE_REGID>
SCHEMBL16111263

> <PUBCHEM_SUBSTANCE_COMMENT>
InChI=1S/C19H20ClFN2O5S/c20-14-1-2-15(16(21)12-14)13-3-7-23(17(24)11-13)8-4-19(18(25)22-26)5-9-29(27,28)10-6-19/h1-3,7,11-12,26H,4-6,8-10H2,(H,22,25)
InChIKey=UNOBNJILYAZLKA-UHFFFAOYSA-N

> <PUBCHEM_SUBSTANCE_SYNONYM>
SCHEMBL16111263

> <PUBCHEM_XREF_EXT_ID>
SCHEMBL16111263

> <PUBCHEM_EXT_DATASOURCE_URL>
https://www.surechembl.org/

> <PUBCHEM_EXT_SUBSTANCE_URL>
https://www.surechembl.org/chemical/SCHEMBL16111263

> <PUBCHEM_CID_ASSOCIATIONS>
117602173  1

> <PUBCHEM_COORDINATE_TYPE>
1
3

$$$$
