310942427
  -OEChem-07211613022D

 24 26  0     0  0  0  0  0  0999 V2000
    0.3548    0.0310    0.0000 N   0  0  0  0  0  0  0  0  0  0  0  0
    1.8007    0.0310    0.0000 N   0  0  0  0  0  0  0  0  0  0  0  0
   -0.3637    1.2640    0.0000 N   0  0  0  0  0  0  0  0  0  0  0  0
   -1.0910    0.0310    0.0000 N   0  0  0  0  0  0  0  0  0  0  0  0
    3.9652    2.0624    0.0000 N   0  0  0  0  0  0  0  0  0  0  0  0
    1.0822    0.4480    0.0000 C   0  0  0  0  0  0  0  0  0  0  0  0
    1.0910    1.2729    0.0000 C   0  0  0  0  0  0  0  0  0  0  0  0
   -0.3637    0.4480    0.0000 C   0  0  0  0  0  0  0  0  0  0  0  0
    0.3548    1.6721    0.0000 C   0  0  0  0  0  0  0  0  0  0  0  0
    1.7919   -0.7939    0.0000 C   0  0  0  0  0  0  0  0  0  0  0  0
    1.8007    1.6721    0.0000 C   0  0  0  0  0  0  0  0  0  0  0  0
    1.1265   -1.2818    0.0000 C   0  0  0  0  0  0  0  0  0  0  0  0
    2.4660   -1.2818    0.0000 C   0  0  0  0  0  0  0  0  0  0  0  0
   -1.8096    0.4391    0.0000 C   0  0  0  0  0  0  0  0  0  0  0  0
   -2.5281    0.0310    0.0000 C   0  0  0  0  0  0  0  0  0  0  0  0
    2.5458    1.2729    0.0000 C   0  0  0  0  0  0  0  0  0  0  0  0
    1.3838   -2.0624    0.0000 C   0  0  0  0  0  0  0  0  0  0  0  0
    2.2088   -2.0624    0.0000 C   0  0  0  0  0  0  0  0  0  0  0  0
   -3.2555    0.4391    0.0000 C   0  0  0  0  0  0  0  0  0  0  0  0
   -2.5281   -0.7939    0.0000 C   0  0  0  0  0  0  0  0  0  0  0  0
   -3.9652    0.0310    0.0000 C   0  0  0  0  0  0  0  0  0  0  0  0
   -3.2466   -1.2019    0.0000 C   0  0  0  0  0  0  0  0  0  0  0  0
    3.2555    1.6810    0.0000 C   0  0  0  0  0  0  0  0  0  0  0  0
   -3.9652   -0.7939    0.0000 C   0  0  0  0  0  0  0  0  0  0  0  0
  1  6  2  0  0  0  0
  1  8  1  0  0  0  0
  2  6  1  0  0  0  0
  2 10  1  0  0  0  0
  3  8  2  0  0  0  0
  3  9  1  0  0  0  0
  4  8  1  0  0  0  0
  4 14  1  0  0  0  0
  5 23  3  0  0  0  0
  6  7  1  0  0  0  0
  7  9  2  0  0  0  0
  7 11  1  0  0  0  0
 10 12  1  0  0  0  0
 10 13  1  0  0  0  0
 11 16  2  0  0  0  0
 12 17  1  0  0  0  0
 13 18  1  0  0  0  0
 14 15  1  0  0  0  0
 15 19  2  0  0  0  0
 15 20  1  0  0  0  0
 16 23  1  0  0  0  0
 17 18  1  0  0  0  0
 19 21  1  0  0  0  0
 20 22  2  0  0  0  0
 21 24  2  0  0  0  0
 22 24  1  0  0  0  0
M  END
> <PUBCHEM_COMPOUND_ID_TYPE>
0

> <PUBCHEM_TOTAL_CHARGE>
0

> <PUBCHEM_SUBSTANCE_ID>
310942427

> <PUBCHEM_SUBSTANCE_VERSION>
1

> <PUBCHEM_EXT_DATASOURCE_NAME>
4488

> <PUBCHEM_EXT_DATASOURCE_REGID>
SCHEMBL16120463

> <PUBCHEM_SUBSTANCE_COMMENT>
InChI=1S/C19H21N5/c20-12-6-9-16-14-22-19(21-13-15-7-2-1-3-8-15)24-18(16)23-17-10-4-5-11-17/h1-3,6-9,14,17H,4-5,10-11,13H2,(H2,21,22,23,24)/b9-6+
InChIKey=AFEUHYQDMCAKAB-RMKNXTFCSA-N

> <PUBCHEM_SUBSTANCE_SYNONYM>
SCHEMBL16120463

> <PUBCHEM_XREF_EXT_ID>
SCHEMBL16120463

> <PUBCHEM_EXT_DATASOURCE_URL>
https://www.surechembl.org/

> <PUBCHEM_EXT_SUBSTANCE_URL>
https://www.surechembl.org/chemical/SCHEMBL16120463

> <PUBCHEM_CID_ASSOCIATIONS>
117609025  1

> <PUBCHEM_COORDINATE_TYPE>
1
3

$$$$
