310929627
  -OEChem-07211613022D

 70 77  0     1  0  0  0  0  0999 V2000
   -2.3860   -3.7235    0.0000 S   0  0  0  0  0  0  0  0  0  0  0  0
   -1.4290    4.1250    0.0000 P   0  0  0  0  0  0  0  0  0  0  0  0
   -1.5610   -5.1524    0.0000 O   0  0  0  0  0  0  0  0  0  0  0  0
    1.4290   -0.8250    0.0000 O   0  0  0  0  0  0  0  0  0  0  0  0
    1.3265   -4.4380    0.0000 O   0  0  0  0  0  0  0  0  0  0  0  0
   -2.3860   -2.8985    0.0000 O   0  0  0  0  0  0  0  0  0  0  0  0
   -2.3860   -4.5485    0.0000 O   0  0  0  0  0  0  0  0  0  0  0  0
    2.8579   -4.1250    0.0000 O   0  0  0  0  0  0  0  0  0  0  0  0
    4.2868   -0.8250    0.0000 O   0  0  0  0  0  0  0  0  0  0  0  0
    0.0000    1.6500    0.0000 O   0  0  0  0  0  0  0  0  0  0  0  0
    5.0013   -2.0625    0.0000 O   0  0  0  0  0  0  0  0  0  0  0  0
   -2.1434    4.5375    0.0000 O   0  0  0  0  0  0  0  0  0  0  0  0
   -2.1434    3.7125    0.0000 O   0  0  0  0  0  0  0  0  0  0  0  0
   -0.7144    4.5375    0.0000 O   0  0  0  0  0  0  0  0  0  0  0  0
    0.0890   -3.7235    0.0000 N   0  0  0  0  0  0  0  0  0  0  0  0
    2.1434   -2.8875    0.0000 N   0  0  0  0  0  0  0  0  0  0  0  0
   -1.5610   -3.7235    0.0000 N   0  0  0  0  0  0  0  0  0  0  0  0
    0.0000   -0.8250    0.0000 N   0  0  0  0  0  0  0  0  0  0  0  0
    3.5724   -2.0625    0.0000 N   0  0  0  0  0  0  0  0  0  0  0  0
   -0.3235   -4.4380    0.0000 C   0  0  3  0  0  0  0  0  0  0  0  0
    0.3909   -4.8505    0.0000 C   0  0  3  0  0  0  0  0  0  0  0  0
   -0.3235   -5.2630    0.0000 C   0  0  0  0  0  0  0  0  0  0  0  0
   -1.1485   -4.4380    0.0000 C   0  0  0  0  0  0  0  0  0  0  0  0
    0.9140   -3.7235    0.0000 C   0  0  0  0  0  0  0  0  0  0  0  0
    1.3265   -3.0090    0.0000 C   0  0  3  0  0  0  0  0  0  0  0  0
    1.4290   -1.6500    0.0000 C   0  0  3  0  0  0  0  0  0  0  0  0
    1.2159   -4.8505    0.0000 C   0  0  0  0  0  0  0  0  0  0  0  0
    0.9140   -2.2945    0.0000 C   0  0  0  0  0  0  0  0  0  0  0  0
    2.1434   -2.0625    0.0000 C   0  0  0  0  0  0  0  0  0  0  0  0
    2.8579   -3.3000    0.0000 C   0  0  0  0  0  0  0  0  0  0  0  0
   -3.2110   -3.7235    0.0000 C   0  0  0  0  0  0  0  0  0  0  0  0
    0.7144   -0.4125    0.0000 C   0  0  0  0  0  0  0  0  0  0  0  0
    3.5724   -2.8875    0.0000 C   0  0  3  0  0  0  0  0  0  0  0  0
    0.7144    0.4125    0.0000 C   0  0  0  0  0  0  0  0  0  0  0  0
   -3.9255   -4.1360    0.0000 C   0  0  0  0  0  0  0  0  0  0  0  0
   -3.9255   -3.3110    0.0000 C   0  0  0  0  0  0  0  0  0  0  0  0
    0.0000    0.8250    0.0000 C   0  0  0  0  0  0  0  0  0  0  0  0
    5.0013   -0.4125    0.0000 C   0  0  3  0  0  0  0  0  0  0  0  0
    1.6284   -5.5649    0.0000 C   0  0  0  0  0  0  0  0  0  0  0  0
    5.0013    0.4125    0.0000 C   0  0  3  0  0  0  0  0  0  0  0  0
   -0.7144    0.4125    0.0000 C   0  0  0  0  0  0  0  0  0  0  0  0
   -0.7144   -0.4125    0.0000 C   0  0  0  0  0  0  0  0  0  0  0  0
    4.2868   -3.3000    0.0000 C   0  0  0  0  0  0  0  0  0  0  0  0
    4.2868   -1.6500    0.0000 C   0  0  0  0  0  0  0  0  0  0  0  0
    1.4290    0.8250    0.0000 C   0  0  0  0  0  0  0  0  0  0  0  0
    5.7859   -0.6674    0.0000 C   0  0  0  0  0  0  0  0  0  0  0  0
    5.7859    0.6674    0.0000 C   0  0  0  0  0  0  0  0  0  0  0  0
   -1.4290    0.8250    0.0000 C   0  0  0  0  0  0  0  0  0  0  0  0
    4.2868    0.8250    0.0000 C   0  0  0  0  0  0  0  0  0  0  0  0
   -1.4290   -0.8250    0.0000 C   0  0  0  0  0  0  0  0  0  0  0  0
    5.0405   -2.9645    0.0000 C   0  0  0  0  0  0  0  0  0  0  0  0
    4.3731   -4.1205    0.0000 C   0  0  0  0  0  0  0  0  0  0  0  0
    6.2708    0.0000    0.0000 C   0  0  0  0  0  0  0  0  0  0  0  0
    2.1434    0.4125    0.0000 C   0  0  0  0  0  0  0  0  0  0  0  0
   -2.1434    0.4125    0.0000 C   0  0  0  0  0  0  0  0  0  0  0  0
   -2.1434   -0.4125    0.0000 C   0  0  0  0  0  0  0  0  0  0  0  0
    5.5926   -3.5776    0.0000 C   0  0  0  0  0  0  0  0  0  0  0  0
    5.1801   -4.2920    0.0000 C   0  0  0  0  0  0  0  0  0  0  0  0
    3.5724    0.4125    0.0000 C   0  0  0  0  0  0  0  0  0  0  0  0
   -0.7144    2.0625    0.0000 C   0  0  0  0  0  0  0  0  0  0  0  0
    2.8579    0.8250    0.0000 C   0  0  0  0  0  0  0  0  0  0  0  0
   -0.7144    2.8875    0.0000 C   0  0  0  0  0  0  0  0  0  0  0  0
   -1.4290    3.3000    0.0000 C   0  0  0  0  0  0  0  0  0  0  0  0
   -2.1434    5.3625    0.0000 C   0  0  0  0  0  0  0  0  0  0  0  0
   -2.8579    4.1250    0.0000 C   0  0  0  0  0  0  0  0  0  0  0  0
   -2.8579    5.7750    0.0000 C   0  0  0  0  0  0  0  0  0  0  0  0
   -3.5724    3.7125    0.0000 C   0  0  0  0  0  0  0  0  0  0  0  0
    0.6504   -1.3772    0.0000 H   0  0  0  0  0  0  0  0  0  0  0  0
    5.0875   -1.2330    0.0000 H   0  0  0  0  0  0  0  0  0  0  0  0
    5.0875    1.2330    0.0000 H   0  0  0  0  0  0  0  0  0  0  0  0
  1  6  2  0  0  0  0
  1  7  2  0  0  0  0
  1 17  1  0  0  0  0
  1 31  1  0  0  0  0
  2 12  1  0  0  0  0
  2 13  1  0  0  0  0
  2 14  2  0  0  0  0
  2 63  1  0  0  0  0
  3 23  2  0  0  0  0
  4 26  1  0  0  0  0
  4 32  1  0  0  0  0
  5 24  2  0  0  0  0
  8 30  2  0  0  0  0
  9 38  1  0  0  0  0
  9 44  1  0  0  0  0
 10 37  1  0  0  0  0
 10 60  1  0  0  0  0
 11 44  2  0  0  0  0
 12 64  1  0  0  0  0
 13 65  1  0  0  0  0
 20 15  1  1  0  0  0
 15 24  1  0  0  0  0
 16 25  1  0  0  0  0
 16 29  1  0  0  0  0
 16 30  1  0  0  0  0
 17 23  1  0  0  0  0
 18 32  2  0  0  0  0
 18 42  1  0  0  0  0
 19 33  1  0  0  0  0
 19 44  1  0  0  0  0
 20 21  1  0  0  0  0
 20 22  1  0  0  0  0
 20 23  1  6  0  0  0
 21 22  1  0  0  0  0
 21 27  1  6  0  0  0
 25 24  1  6  0  0  0
 25 28  1  0  0  0  0
 26 28  1  0  0  0  0
 26 29  1  0  0  0  0
 26 68  1  6  0  0  0
 27 39  2  0  0  0  0
 33 30  1  1  0  0  0
 31 35  1  0  0  0  0
 31 36  1  0  0  0  0
 32 34  1  0  0  0  0
 33 43  1  0  0  0  0
 34 37  2  0  0  0  0
 34 45  1  0  0  0  0
 35 36  1  0  0  0  0
 37 41  1  0  0  0  0
 38 40  1  0  0  0  0
 38 46  1  0  0  0  0
 38 69  1  6  0  0  0
 40 47  1  0  0  0  0
 40 49  1  0  0  0  0
 40 70  1  1  0  0  0
 41 42  1  0  0  0  0
 41 48  2  0  0  0  0
 42 50  2  0  0  0  0
 43 51  1  0  0  0  0
 43 52  1  0  0  0  0
 45 54  1  0  0  0  0
 46 53  1  0  0  0  0
 47 53  1  0  0  0  0
 48 55  1  0  0  0  0
 49 59  1  0  0  0  0
 50 56  1  0  0  0  0
 51 57  1  0  0  0  0
 52 58  1  0  0  0  0
 54 61  2  0  0  0  0
 55 56  2  0  0  0  0
 57 58  1  0  0  0  0
 59 61  1  0  0  0  0
 60 62  1  0  0  0  0
 62 63  1  0  0  0  0
 64 66  1  0  0  0  0
 65 67  1  0  0  0  0
M  END
> <PUBCHEM_COMPOUND_ID_TYPE>
0

> <PUBCHEM_TOTAL_CHARGE>
0

> <PUBCHEM_SUBSTANCE_ID>
310929627

> <PUBCHEM_SUBSTANCE_VERSION>
1

> <PUBCHEM_EXT_DATASOURCE_NAME>
4488

> <PUBCHEM_EXT_DATASOURCE_REGID>
SCHEMBL16106815

> <PUBCHEM_SUBSTANCE_COMMENT>
InChI=1S/C48H66N5O12PS/c1-4-33-29-48(33,46(56)52-67(59,60)35-24-25-35)51-43(54)39-28-34-30-53(39)45(55)41(32-17-10-11-18-32)50-47(57)65-40-23-14-19-31(40)16-8-7-9-21-37-42(36-20-12-13-22-38(36)49-44(37)64-34)61-26-15-27-66(58,62-5-2)63-6-3/h4,7,9,12-13,20,22,31-35,39-41H,1,5-6,8,10-11,14-19,21,23-30H2,2-3H3,(H,50,57)(H,51,54)(H,52,56)/b9-7+/t31-,33-,34-,39+,40-,41+,48-/m1/s1
InChIKey=DUMONUHWMKOGLB-RZTRLPMASA-N

> <PUBCHEM_SUBSTANCE_SYNONYM>
SCHEMBL16106815

> <PUBCHEM_XREF_EXT_ID>
SCHEMBL16106815

> <PUBCHEM_EXT_DATASOURCE_URL>
https://www.surechembl.org/

> <PUBCHEM_EXT_SUBSTANCE_URL>
https://www.surechembl.org/chemical/SCHEMBL16106815

> <PUBCHEM_CID_ASSOCIATIONS>
117598932  1

> <PUBCHEM_COORDINATE_TYPE>
1
3

> <PUBCHEM_BONDANNOTATIONS>
20  15  5
20  23  6
21  27  6
25  24  6
26  68  6
33  30  5
38  69  6
40  70  5

$$$$
