310949583
  -OEChem-07211613022D

 30 33  0     1  0  0  0  0  0999 V2000
   -2.3464    2.3391    0.0000 Cl  0  0  0  0  0  0  0  0  0  0  0  0
   -4.2001    0.8091    0.0000 F   0  0  0  0  0  0  0  0  0  0  0  0
   -4.5090    1.9419    0.0000 F   0  0  0  0  0  0  0  0  0  0  0  0
   -3.3762    2.2508    0.0000 F   0  0  0  0  0  0  0  0  0  0  0  0
   -0.9194    2.3538    0.0000 O   0  0  0  0  0  0  0  0  0  0  0  0
    2.0228    0.0147    0.0000 N   0  0  0  0  0  0  0  0  0  0  0  0
   -0.1986    1.1034    0.0000 N   0  0  0  0  0  0  0  0  0  0  0  0
    2.0228    1.3681    0.0000 N   0  0  0  0  0  0  0  0  0  0  0  0
    2.5082    0.6915    0.0000 N   0  0  0  0  0  0  0  0  0  0  0  0
    3.0820   -1.0298    0.0000 N   0  0  0  0  0  0  0  0  0  0  0  0
   -3.0820    0.2648    0.0000 N   0  0  0  0  0  0  0  0  0  0  0  0
    3.0820   -1.8683    0.0000 N   0  0  0  0  0  0  0  0  0  0  0  0
    1.2284    0.2795    0.0000 C   0  0  0  0  0  0  0  0  0  0  0  0
    1.2578    1.1034    0.0000 C   0  0  0  0  0  0  0  0  0  0  0  0
   -0.9341    1.5005    0.0000 C   0  0  0  0  0  0  0  0  0  0  0  0
   -1.6256    1.1034    0.0000 C   0  0  0  0  0  0  0  0  0  0  0  0
   -0.1986    0.2648    0.0000 C   0  0  3  0  0  0  0  0  0  0  0  0
    0.5075    1.5153    0.0000 C   0  0  0  0  0  0  0  0  0  0  0  0
    0.5222   -0.1471    0.0000 C   0  0  0  0  0  0  0  0  0  0  0  0
    2.2876   -0.7650    0.0000 C   0  0  0  0  0  0  0  0  0  0  0  0
   -2.3611    1.5153    0.0000 C   0  0  0  0  0  0  0  0  0  0  0  0
   -3.0673    1.1034    0.0000 C   0  0  0  0  0  0  0  0  0  0  0  0
   -3.7881    1.5153    0.0000 C   0  0  0  0  0  0  0  0  0  0  0  0
   -1.6403    0.2648    0.0000 C   0  0  0  0  0  0  0  0  0  0  0  0
    1.8169   -1.4711    0.0000 C   0  0  0  0  0  0  0  0  0  0  0  0
   -2.3464   -0.1471    0.0000 C   0  0  0  0  0  0  0  0  0  0  0  0
   -0.8753   -0.1324    0.0000 C   0  0  0  0  0  0  0  0  0  0  0  0
    2.3023   -2.1184    0.0000 C   0  0  0  0  0  0  0  0  0  0  0  0
    3.7734   -2.3538    0.0000 C   0  0  0  0  0  0  0  0  0  0  0  0
    4.5090   -2.0007    0.0000 C   0  0  0  0  0  0  0  0  0  0  0  0
  1 21  1  0  0  0  0
  2 23  1  0  0  0  0
  3 23  1  0  0  0  0
  4 23  1  0  0  0  0
  5 15  2  0  0  0  0
  6  9  1  0  0  0  0
  6 13  1  0  0  0  0
  6 20  1  0  0  0  0
  7 15  1  0  0  0  0
  7 17  1  0  0  0  0
  7 18  1  0  0  0  0
  8  9  2  0  0  0  0
  8 14  1  0  0  0  0
 10 12  1  0  0  0  0
 10 20  2  0  0  0  0
 11 22  2  0  0  0  0
 11 26  1  0  0  0  0
 12 28  1  0  0  0  0
 12 29  1  0  0  0  0
 13 14  2  0  0  0  0
 13 19  1  0  0  0  0
 14 18  1  0  0  0  0
 15 16  1  0  0  0  0
 16 21  2  0  0  0  0
 16 24  1  0  0  0  0
 17 19  1  0  0  0  0
 17 27  1  6  0  0  0
 20 25  1  0  0  0  0
 21 22  1  0  0  0  0
 22 23  1  0  0  0  0
 24 26  2  0  0  0  0
 25 28  2  0  0  0  0
 29 30  1  0  0  0  0
M  END
> <PUBCHEM_COMPOUND_ID_TYPE>
0

> <PUBCHEM_TOTAL_CHARGE>
0

> <PUBCHEM_SUBSTANCE_ID>
310949583

> <PUBCHEM_SUBSTANCE_VERSION>
1

> <PUBCHEM_EXT_DATASOURCE_NAME>
4488

> <PUBCHEM_EXT_DATASOURCE_REGID>
SCHEMBL16127780

> <PUBCHEM_SUBSTANCE_COMMENT>
InChI=1S/C18H17ClF3N7O/c1-3-27-7-5-14(25-27)29-13-8-10(2)28(9-12(13)24-26-29)17(30)11-4-6-23-16(15(11)19)18(20,21)22/h4-7,10H,3,8-9H2,1-2H3/t10-/m0/s1
InChIKey=ZOJCNUSMYFQWPW-JTQLQIEISA-N

> <PUBCHEM_SUBSTANCE_SYNONYM>
SCHEMBL16127780

> <PUBCHEM_XREF_EXT_ID>
SCHEMBL16127780

> <PUBCHEM_EXT_DATASOURCE_URL>
https://www.surechembl.org/

> <PUBCHEM_EXT_SUBSTANCE_URL>
https://www.surechembl.org/chemical/SCHEMBL16127780

> <PUBCHEM_CID_ASSOCIATIONS>
117614990  1

> <PUBCHEM_COORDINATE_TYPE>
1
3

> <PUBCHEM_BONDANNOTATIONS>
17  27  6

$$$$
