310928706
  -OEChem-07211613022D

 18 19  0     0  0  0  0  0  0999 V2000
    1.7013    1.4073    0.0000 I   0  0  0  0  0  0  0  0  0  0  0  0
    0.7761    1.9147    0.0000 Br  0  0  0  0  0  0  0  0  0  0  0  0
   -2.0818    0.2647    0.0000 F   0  0  0  0  0  0  0  0  0  0  0  0
    0.8623   -0.5557    0.0000 N   0  0  0  0  0  0  0  0  0  0  0  0
    1.6693   -0.7273    0.0000 N   0  0  0  0  0  0  0  0  0  0  0  0
    0.7761    0.2647    0.0000 C   0  0  0  0  0  0  0  0  0  0  0  0
    0.0616    0.6772    0.0000 C   0  0  0  0  0  0  0  0  0  0  0  0
    1.5298    0.6003    0.0000 C   0  0  0  0  0  0  0  0  0  0  0  0
    0.2492   -1.1078    0.0000 C   0  0  0  0  0  0  0  0  0  0  0  0
    0.0616    1.5022    0.0000 C   0  0  0  0  0  0  0  0  0  0  0  0
    2.0818   -0.0128    0.0000 C   0  0  0  0  0  0  0  0  0  0  0  0
   -0.6529    0.2647    0.0000 C   0  0  0  0  0  0  0  0  0  0  0  0
   -1.3673    0.6772    0.0000 C   0  0  0  0  0  0  0  0  0  0  0  0
   -0.6529    1.9147    0.0000 C   0  0  0  0  0  0  0  0  0  0  0  0
   -1.3673    1.5022    0.0000 C   0  0  0  0  0  0  0  0  0  0  0  0
    0.4208   -1.9147    0.0000 C   0  0  0  0  0  0  0  0  0  0  0  0
   -0.3639   -1.6598    0.0000 C   0  0  0  0  0  0  0  0  0  0  0  0
   -0.5354   -0.8528    0.0000 C   0  0  0  0  0  0  0  0  0  0  0  0
  1  8  1  0  0  0  0
  2 10  1  0  0  0  0
  3 13  1  0  0  0  0
  4  5  1  0  0  0  0
  4  6  1  0  0  0  0
  4  9  1  0  0  0  0
  5 11  2  0  0  0  0
  6  7  1  0  0  0  0
  6  8  2  0  0  0  0
  7 10  1  0  0  0  0
  7 12  2  0  0  0  0
  8 11  1  0  0  0  0
  9 16  1  0  0  0  0
  9 17  1  0  0  0  0
  9 18  1  0  0  0  0
 10 14  2  0  0  0  0
 12 13  1  0  0  0  0
 13 15  2  0  0  0  0
 14 15  1  0  0  0  0
M  END
> <PUBCHEM_COMPOUND_ID_TYPE>
0

> <PUBCHEM_TOTAL_CHARGE>
0

> <PUBCHEM_SUBSTANCE_ID>
310928706

> <PUBCHEM_SUBSTANCE_VERSION>
1

> <PUBCHEM_EXT_DATASOURCE_NAME>
11752

> <PUBCHEM_EXT_DATASOURCE_REGID>
BD233006

> <PUBCHEM_SUBSTANCE_SYNONYM>
1245643-25-7
5-(2-Bromo-5-fluorophenyl)-1-(tert-butyl)-4-iodo-1H-pyrazole

> <PUBCHEM_GENERIC_REGISTRY_NAME>
1245643-25-7

> <PUBCHEM_XREF_EXT_ID>
BD233006

> <PUBCHEM_EXT_DATASOURCE_URL>
http://www.bidepharmatech.com/en/index.html

> <PUBCHEM_EXT_SUBSTANCE_URL>
http://www.bidepharmatech.com/en/goodsview_goodscode_BD233006.html

> <PUBCHEM_CID_ASSOCIATIONS>
46935950  1

> <PUBCHEM_COORDINATE_TYPE>
1
3

$$$$
