310930215
  -OEChem-07211613022D

 25 29  0     1  0  0  0  0  0999 V2000
    2.1441   -6.2536    0.0000 O   0  0  0  0  0  0  0  0  0  0  0  0
    2.0727   -2.1441    0.0000 O   0  0  0  0  0  0  0  0  0  0  0  0
    1.2507   -4.1810    0.0000 N   0  0  0  0  0  0  0  0  0  0  0  0
    1.7510   -3.5378    0.0000 N   0  0  0  0  0  0  0  0  0  0  0  0
    0.0000   -4.7527    0.0000 N   0  0  0  0  0  0  0  0  0  0  0  0
    3.1447   -0.6789    0.0000 N   0  0  0  0  0  0  0  0  0  0  0  0
    1.2865   -5.0029    0.0000 C   0  0  0  0  0  0  0  0  0  0  0  0
    2.0369   -5.4317    0.0000 C   0  0  0  0  0  0  0  0  0  0  0  0
    0.3931   -4.0023    0.0000 C   0  0  0  0  0  0  0  0  0  0  0  0
    0.5360   -5.3602    0.0000 C   0  0  0  0  0  0  0  0  0  0  0  0
    2.9303   -6.4323    0.0000 C   0  0  0  0  0  0  0  0  0  0  0  0
    3.3591   -5.6819    0.0000 C   0  0  0  0  0  0  0  0  0  0  0  0
    2.7873   -5.1101    0.0000 C   0  0  0  0  0  0  0  0  0  0  0  0
    1.5009   -2.7873    0.0000 C   0  0  0  0  0  0  0  0  0  0  0  0
    0.1430   -3.2161    0.0000 C   0  0  0  0  0  0  0  0  0  0  0  0
    0.6789   -2.6086    0.0000 C   0  0  0  0  0  0  0  0  0  0  0  0
    1.8225   -1.3579    0.0000 C   0  0  3  0  0  0  0  0  0  0  0  0
    3.3948   -7.1470    0.0000 C   0  0  0  0  0  0  0  0  0  0  0  0
    4.2167   -5.6819    0.0000 C   0  0  0  0  0  0  0  0  0  0  0  0
    2.2871   -0.6789    0.0000 C   0  0  3  0  0  0  0  0  0  0  0  0
    4.1810   -7.1470    0.0000 C   0  0  0  0  0  0  0  0  0  0  0  0
    4.6098   -6.3966    0.0000 C   0  0  0  0  0  0  0  0  0  0  0  0
    1.0363   -1.1078    0.0000 C   0  0  0  0  0  0  0  0  0  0  0  0
    1.8225    0.0000    0.0000 C   0  0  0  0  0  0  0  0  0  0  0  0
    1.0363   -0.2501    0.0000 C   0  0  0  0  0  0  0  0  0  0  0  0
  1  8  1  0  0  0  0
  1 11  1  0  0  0  0
  2 14  1  0  0  0  0
 17  2  1  6  0  0  0
  3  4  1  0  0  0  0
  3  7  1  0  0  0  0
  3  9  1  0  0  0  0
  4 14  2  0  0  0  0
  5  9  2  0  0  0  0
  5 10  1  0  0  0  0
 20  6  1  6  0  0  0
  7  8  1  0  0  0  0
  7 10  2  0  0  0  0
  8 13  2  0  0  0  0
  9 15  1  0  0  0  0
 11 12  2  0  0  0  0
 11 18  1  0  0  0  0
 12 13  1  0  0  0  0
 12 19  1  0  0  0  0
 14 16  1  0  0  0  0
 15 16  2  0  0  0  0
 17 20  1  0  0  0  0
 17 23  1  0  0  0  0
 18 21  2  0  0  0  0
 19 22  2  0  0  0  0
 20 24  1  0  0  0  0
 21 22  1  0  0  0  0
 23 25  1  0  0  0  0
 24 25  1  0  0  0  0
M  END
> <PUBCHEM_COMPOUND_ID_TYPE>
0

> <PUBCHEM_TOTAL_CHARGE>
0

> <PUBCHEM_SUBSTANCE_ID>
310930215

> <PUBCHEM_SUBSTANCE_VERSION>
1

> <PUBCHEM_EXT_DATASOURCE_NAME>
4488

> <PUBCHEM_EXT_DATASOURCE_REGID>
SCHEMBL16107482

> <PUBCHEM_SUBSTANCE_COMMENT>
InChI=1S/C19H18N4O2/c20-13-5-3-7-16(13)25-19-9-8-18-21-11-14(23(18)22-19)17-10-12-4-1-2-6-15(12)24-17/h1-2,4,6,8-11,13,16H,3,5,7,20H2/t13-,16+/m0/s1
InChIKey=BCUZWVGODXHEOL-XJKSGUPXSA-N

> <PUBCHEM_SUBSTANCE_SYNONYM>
SCHEMBL16107482

> <PUBCHEM_XREF_EXT_ID>
SCHEMBL16107482

> <PUBCHEM_EXT_DATASOURCE_URL>
https://www.surechembl.org/

> <PUBCHEM_EXT_SUBSTANCE_URL>
https://www.surechembl.org/chemical/SCHEMBL16107482

> <PUBCHEM_CID_ASSOCIATIONS>
71509144  1

> <PUBCHEM_COORDINATE_TYPE>
1
3

> <PUBCHEM_BONDANNOTATIONS>
17  2  6
20  6  6

$$$$
