310937183
  -OEChem-07211613022D

 10 10  0     0  0  0  0  0  0999 V2000
    2.8858    0.0000    0.0000 I   0  0  0  0  0  0  0  0  0  0  0  0
    0.4123   -1.4241    0.0000 O   0  0  0  0  0  0  0  0  0  0  0  0
    3.7477   -1.4241    0.0000 O   0  0  0  0  0  0  0  0  0  0  0  0
    1.6740   -2.1362    0.0000 N   0  0  0  0  0  0  0  0  0  0  0  0
    2.4860   -0.7245    0.0000 C   0  0  0  0  0  0  0  0  0  0  0  0
    2.9233   -1.4241    0.0000 C   0  0  0  0  0  0  0  0  0  0  0  0
    1.2368   -1.4241    0.0000 C   0  0  0  0  0  0  0  0  0  0  0  0
    1.6740   -0.7245    0.0000 C   0  0  0  0  0  0  0  0  0  0  0  0
    2.4860   -2.1362    0.0000 C   0  0  0  0  0  0  0  0  0  0  0  0
    0.0000   -2.1487    0.0000 C   0  0  0  0  0  0  0  0  0  0  0  0
  1  5  1  0  0  0  0
  2  7  1  0  0  0  0
  2 10  1  0  0  0  0
  3  6  1  0  0  0  0
  4  7  2  0  0  0  0
  4  9  1  0  0  0  0
  5  6  1  0  0  0  0
  5  8  2  0  0  0  0
  6  9  2  0  0  0  0
  7  8  1  0  0  0  0
M  END
> <PUBCHEM_COMPOUND_ID_TYPE>
0

> <PUBCHEM_TOTAL_CHARGE>
0

> <PUBCHEM_SUBSTANCE_ID>
310937183

> <PUBCHEM_SUBSTANCE_VERSION>
1

> <PUBCHEM_EXT_DATASOURCE_NAME>
4488

> <PUBCHEM_EXT_DATASOURCE_REGID>
SCHEMBL16114910

> <PUBCHEM_SUBSTANCE_COMMENT>
InChI=1S/C6H6INO2/c1-10-6-2-4(7)5(9)3-8-6/h2-3,9H,1H3
InChIKey=AUEKKHSBTAFFDU-UHFFFAOYSA-N

> <PUBCHEM_SUBSTANCE_SYNONYM>
SCHEMBL16114910

> <PUBCHEM_XREF_EXT_ID>
SCHEMBL16114910

> <PUBCHEM_EXT_DATASOURCE_URL>
https://www.surechembl.org/

> <PUBCHEM_EXT_SUBSTANCE_URL>
https://www.surechembl.org/chemical/SCHEMBL16114910

> <PUBCHEM_CID_ASSOCIATIONS>
12027786  1

> <PUBCHEM_COORDINATE_TYPE>
1
3

$$$$
