310949175
  -OEChem-07211613022D

 29 30  0     0  0  0  0  0  0999 V2000
    1.1729    0.3860    0.0000 S   0  0  0  0  0  0  0  0  0  0  0  0
    2.6426    1.1580    0.0000 O   0  0  0  0  0  0  0  0  0  0  0  0
    2.1527    0.3860    0.0000 O   0  0  0  0  0  0  0  0  0  0  0  0
    0.0891    0.3860    0.0000 O   0  0  0  0  0  0  0  0  0  0  0  0
    1.2174    3.6521    0.0000 O   0  0  0  0  0  0  0  0  0  0  0  0
   -0.4157    3.7561    0.0000 O   0  0  0  0  0  0  0  0  0  0  0  0
    1.1877   -0.7868    0.0000 N   0  0  0  0  0  0  0  0  0  0  0  0
    1.4252   -3.7561    0.0000 N   0  0  0  0  0  0  0  0  0  0  0  0
    1.2026    1.1877    0.0000 C   0  0  0  0  0  0  0  0  0  0  0  0
    0.5048    2.4645    0.0000 C   0  0  0  0  0  0  0  0  0  0  0  0
    1.9300    1.6034    0.0000 C   0  0  0  0  0  0  0  0  0  0  0  0
    0.5048    1.6182    0.0000 C   0  0  0  0  0  0  0  0  0  0  0  0
    1.2322    2.8653    0.0000 C   0  0  0  0  0  0  0  0  0  0  0  0
   -0.4454    2.8950    0.0000 C   0  0  0  0  0  0  0  0  0  0  0  0
    1.9449    2.4199    0.0000 C   0  0  0  0  0  0  0  0  0  0  0  0
   -1.1729    2.5090    0.0000 C   0  0  0  0  0  0  0  0  0  0  0  0
   -1.2026    1.6627    0.0000 C   0  0  0  0  0  0  0  0  0  0  0  0
   -1.8855    2.9247    0.0000 C   0  0  0  0  0  0  0  0  0  0  0  0
    1.4252   -1.2322    0.0000 C   0  0  0  0  0  0  0  0  0  0  0  0
   -1.9152    1.2619    0.0000 C   0  0  0  0  0  0  0  0  0  0  0  0
   -2.6129    2.5387    0.0000 C   0  0  0  0  0  0  0  0  0  0  0  0
   -2.6426    1.7073    0.0000 C   0  0  0  0  0  0  0  0  0  0  0  0
    3.3701    1.5589    0.0000 C   0  0  0  0  0  0  0  0  0  0  0  0
    1.1877   -1.6627    0.0000 C   0  0  0  0  0  0  0  0  0  0  0  0
   -3.3701    1.2916    0.0000 C   0  0  0  0  0  0  0  0  0  0  0  0
    1.4252   -2.0785    0.0000 C   0  0  0  0  0  0  0  0  0  0  0  0
    1.1877   -2.5090    0.0000 C   0  0  0  0  0  0  0  0  0  0  0  0
    1.4252   -2.9247    0.0000 C   0  0  0  0  0  0  0  0  0  0  0  0
    1.1877   -3.3404    0.0000 C   0  0  0  0  0  0  0  0  0  0  0  0
  1  3  2  0  0  0  0
  1  4  2  0  0  0  0
  1  7  1  0  0  0  0
  1  9  1  0  0  0  0
  2 11  1  0  0  0  0
  2 23  1  0  0  0  0
  5 13  1  0  0  0  0
  6 14  2  0  0  0  0
  7 19  1  0  0  0  0
  8 29  1  0  0  0  0
  9 11  2  0  0  0  0
  9 12  1  0  0  0  0
 10 12  2  0  0  0  0
 10 13  1  0  0  0  0
 10 14  1  0  0  0  0
 11 15  1  0  0  0  0
 13 15  2  0  0  0  0
 14 16  1  0  0  0  0
 16 17  2  0  0  0  0
 16 18  1  0  0  0  0
 17 20  1  0  0  0  0
 18 21  2  0  0  0  0
 19 24  1  0  0  0  0
 20 22  2  0  0  0  0
 21 22  1  0  0  0  0
 22 25  1  0  0  0  0
 24 26  1  0  0  0  0
 26 27  1  0  0  0  0
 27 28  1  0  0  0  0
 28 29  1  0  0  0  0
M  END
> <PUBCHEM_COMPOUND_ID_TYPE>
0

> <PUBCHEM_TOTAL_CHARGE>
0

> <PUBCHEM_SUBSTANCE_ID>
310949175

> <PUBCHEM_SUBSTANCE_VERSION>
1

> <PUBCHEM_EXT_DATASOURCE_NAME>
4488

> <PUBCHEM_EXT_DATASOURCE_REGID>
SCHEMBL16127365

> <PUBCHEM_SUBSTANCE_COMMENT>
InChI=1S/C21H28N2O5S/c1-15-7-9-16(10-8-15)21(25)17-13-20(19(28-2)14-18(17)24)29(26,27)23-12-6-4-3-5-11-22/h7-10,13-14,23-24H,3-6,11-12,22H2,1-2H3
InChIKey=JNGBYWRATCMVFY-UHFFFAOYSA-N

> <PUBCHEM_SUBSTANCE_SYNONYM>
SCHEMBL16127365

> <PUBCHEM_XREF_EXT_ID>
SCHEMBL16127365

> <PUBCHEM_EXT_DATASOURCE_URL>
https://www.surechembl.org/

> <PUBCHEM_EXT_SUBSTANCE_URL>
https://www.surechembl.org/chemical/SCHEMBL16127365

> <PUBCHEM_CID_ASSOCIATIONS>
86273298  1

> <PUBCHEM_COORDINATE_TYPE>
1
3

$$$$
