310941656
  -OEChem-07211613022D

 26 29  0     0  0  0  0  0  0999 V2000
   -3.2996   -1.6410    0.0000 Br  0  0  0  0  0  0  0  0  0  0  0  0
    0.4588    1.8527    0.0000 S   0  0  0  0  0  0  0  0  0  0  0  0
   -1.8703   -0.8117    0.0000 O   0  0  0  0  0  0  0  0  0  0  0  0
   -0.4411   -0.8117    0.0000 O   0  0  0  0  0  0  0  0  0  0  0  0
    0.3352    0.5117    0.0000 N   0  0  0  0  0  0  0  0  0  0  0  0
    1.7116    1.0410    0.0000 N   0  0  0  0  0  0  0  0  0  0  0  0
   -1.1469    0.4411    0.0000 C   0  0  0  0  0  0  0  0  0  0  0  0
   -0.4588    0.8469    0.0000 C   0  0  0  0  0  0  0  0  0  0  0  0
   -2.5938   -0.3706    0.0000 C   0  0  0  0  0  0  0  0  0  0  0  0
   -2.5762    0.4235    0.0000 C   0  0  0  0  0  0  0  0  0  0  0  0
   -1.1822   -0.3882    0.0000 C   0  0  0  0  0  0  0  0  0  0  0  0
   -1.8527    0.8293    0.0000 C   0  0  0  0  0  0  0  0  0  0  0  0
    0.8646    1.1469    0.0000 C   0  0  0  0  0  0  0  0  0  0  0  0
   -3.2996   -0.7941    0.0000 C   0  0  0  0  0  0  0  0  0  0  0  0
   -0.3529    1.6762    0.0000 C   0  0  0  0  0  0  0  0  0  0  0  0
   -3.3172    0.8293    0.0000 C   0  0  0  0  0  0  0  0  0  0  0  0
   -4.0230   -0.3882    0.0000 C   0  0  0  0  0  0  0  0  0  0  0  0
    2.0115    0.3000    0.0000 C   0  0  0  0  0  0  0  0  0  0  0  0
   -4.0054    0.4235    0.0000 C   0  0  0  0  0  0  0  0  0  0  0  0
    1.5527   -0.4058    0.0000 C   0  0  0  0  0  0  0  0  0  0  0  0
    2.8585    0.1765    0.0000 C   0  0  0  0  0  0  0  0  0  0  0  0
    1.8880   -1.1293    0.0000 C   0  0  0  0  0  0  0  0  0  0  0  0
    3.1761   -0.5646    0.0000 C   0  0  0  0  0  0  0  0  0  0  0  0
    2.6997   -1.2175    0.0000 C   0  0  0  0  0  0  0  0  0  0  0  0
    1.4645   -1.8527    0.0000 C   0  0  0  0  0  0  0  0  0  0  0  0
    4.0230   -0.5470    0.0000 C   0  0  0  0  0  0  0  0  0  0  0  0
  1 14  1  0  0  0  0
  2 13  1  0  0  0  0
  2 15  1  0  0  0  0
  3  9  1  0  0  0  0
  3 11  1  0  0  0  0
  4 11  2  0  0  0  0
  5  8  1  0  0  0  0
  5 13  2  0  0  0  0
  6 13  1  0  0  0  0
  6 18  1  0  0  0  0
  7  8  1  0  0  0  0
  7 11  1  0  0  0  0
  7 12  2  0  0  0  0
  8 15  2  0  0  0  0
  9 10  1  0  0  0  0
  9 14  2  0  0  0  0
 10 12  1  0  0  0  0
 10 16  2  0  0  0  0
 14 17  1  0  0  0  0
 16 19  1  0  0  0  0
 17 19  2  0  0  0  0
 18 20  2  0  0  0  0
 18 21  1  0  0  0  0
 20 22  1  0  0  0  0
 21 23  2  0  0  0  0
 22 24  2  0  0  0  0
 22 25  1  0  0  0  0
 23 24  1  0  0  0  0
 23 26  1  0  0  0  0
M  END
> <PUBCHEM_COMPOUND_ID_TYPE>
0

> <PUBCHEM_TOTAL_CHARGE>
0

> <PUBCHEM_SUBSTANCE_ID>
310941656

> <PUBCHEM_SUBSTANCE_VERSION>
1

> <PUBCHEM_EXT_DATASOURCE_NAME>
4488

> <PUBCHEM_EXT_DATASOURCE_REGID>
SCHEMBL16119687

> <PUBCHEM_SUBSTANCE_COMMENT>
InChI=1S/C20H15BrN2O2S/c1-11-6-12(2)8-14(7-11)22-20-23-17(10-26-20)15-9-13-4-3-5-16(21)18(13)25-19(15)24/h3-10H,1-2H3,(H,22,23)
InChIKey=JHOBEGLQBNTHKG-UHFFFAOYSA-N

> <PUBCHEM_SUBSTANCE_SYNONYM>
SCHEMBL16119687

> <PUBCHEM_XREF_EXT_ID>
SCHEMBL16119687

> <PUBCHEM_EXT_DATASOURCE_URL>
https://www.surechembl.org/

> <PUBCHEM_EXT_SUBSTANCE_URL>
https://www.surechembl.org/chemical/SCHEMBL16119687

> <PUBCHEM_CID_ASSOCIATIONS>
117608438  1

> <PUBCHEM_COORDINATE_TYPE>
1
3

$$$$
