310938446
  -OEChem-07211613022D

 45 48  0     1  0  0  0  0  0999 V2000
    1.4290    1.8975    0.0000 O   0  0  0  0  0  0  0  0  0  0  0  0
    2.7169    4.2007    0.0000 O   0  0  0  0  0  0  0  0  0  0  0  0
    0.7145    1.2375    0.0000 O   0  0  0  0  0  0  0  0  0  0  0  0
   -1.4290   -0.8250    0.0000 O   0  0  0  0  0  0  0  0  0  0  0  0
    5.6443    0.8663    0.0000 O   0  0  0  0  0  0  0  0  0  0  0  0
    6.3588   -0.3713    0.0000 O   0  0  0  0  0  0  0  0  0  0  0  0
    3.0722    2.0213    0.0000 N   0  0  0  0  0  0  0  0  0  0  0  0
    1.4290    0.0000    0.0000 N   0  0  0  0  0  0  0  0  0  0  0  0
    1.7607    3.1388    0.0000 N   0  0  0  0  0  0  0  0  0  0  0  0
   -0.7145    0.4125    0.0000 N   0  0  0  0  0  0  0  0  0  0  0  0
   -0.2606    4.0278    0.0000 N   0  0  0  0  0  0  0  0  0  0  0  0
    0.0849    2.7385    0.0000 N   0  0  0  0  0  0  0  0  0  0  0  0
   -0.9526    3.5785    0.0000 N   0  0  0  0  0  0  0  0  0  0  0  0
   -0.7390    2.7817    0.0000 N   0  0  0  0  0  0  0  0  0  0  0  0
    3.8259    1.6857    0.0000 C   0  0  0  0  0  0  0  0  0  0  0  0
    3.1585    2.8417    0.0000 C   0  0  3  0  0  0  0  0  0  0  0  0
    4.3779    2.2988    0.0000 C   0  0  0  0  0  0  0  0  0  0  0  0
    2.1434    1.4850    0.0000 C   0  0  0  0  0  0  0  0  0  0  0  0
    3.9654    3.0133    0.0000 C   0  0  0  0  0  0  0  0  0  0  0  0
    2.5454    3.3938    0.0000 C   0  0  0  0  0  0  0  0  0  0  0  0
    2.1434    0.4125    0.0000 C   0  0  3  0  0  0  0  0  0  0  0  0
    4.0809    0.9011    0.0000 C   0  0  0  0  0  0  0  0  0  0  0  0
    5.1849    2.1273    0.0000 C   0  0  0  0  0  0  0  0  0  0  0  0
    4.8878    0.7295    0.0000 C   0  0  0  0  0  0  0  0  0  0  0  0
    5.4398    1.3426    0.0000 C   0  0  0  0  0  0  0  0  0  0  0  0
    3.0722   -0.1238    0.0000 C   0  0  0  0  0  0  0  0  0  0  0  0
    0.7145    0.4125    0.0000 C   0  0  0  0  0  0  0  0  0  0  0  0
    0.0000    0.0000    0.0000 C   0  0  3  0  0  0  0  0  0  0  0  0
    1.1774    3.7222    0.0000 C   0  0  0  0  0  0  0  0  0  0  0  0
    3.7867    0.2888    0.0000 C   0  0  0  0  0  0  0  0  0  0  0  0
    0.0000   -0.8250    0.0000 C   0  0  3  0  0  0  0  0  0  0  0  0
    0.3805    3.5087    0.0000 C   0  0  0  0  0  0  0  0  0  0  0  0
   -1.4290    0.0000    0.0000 C   0  0  0  0  0  0  0  0  0  0  0  0
    4.9299   -0.3713    0.0000 C   0  0  0  0  0  0  0  0  0  0  0  0
   -0.7145   -1.2375    0.0000 C   0  0  0  0  0  0  0  0  0  0  0  0
    0.7145   -1.2375    0.0000 C   0  0  0  0  0  0  0  0  0  0  0  0
   -2.1434    0.4125    0.0000 C   0  0  0  0  0  0  0  0  0  0  0  0
   -2.8579    0.0000    0.0000 C   0  0  0  0  0  0  0  0  0  0  0  0
    5.6443    0.0413    0.0000 C   0  0  0  0  0  0  0  0  0  0  0  0
   -0.7145   -2.0625    0.0000 C   0  0  0  0  0  0  0  0  0  0  0  0
   -3.5724    0.4125    0.0000 C   0  0  0  0  0  0  0  0  0  0  0  0
   -2.8579   -0.8250    0.0000 C   0  0  0  0  0  0  0  0  0  0  0  0
   -4.2868    0.0000    0.0000 C   0  0  0  0  0  0  0  0  0  0  0  0
   -3.5724   -1.2375    0.0000 C   0  0  0  0  0  0  0  0  0  0  0  0
   -4.2868   -0.8250    0.0000 C   0  0  0  0  0  0  0  0  0  0  0  0
  1 18  2  0  0  0  0
  2 20  2  0  0  0  0
  3 27  2  0  0  0  0
  4 33  2  0  0  0  0
  5 39  2  0  0  0  0
  6 39  1  0  0  0  0
  7 15  1  0  0  0  0
  7 16  1  0  0  0  0
  7 18  1  0  0  0  0
  8 21  1  0  0  0  0
  8 27  1  0  0  0  0
  9 20  1  0  0  0  0
  9 29  1  0  0  0  0
 28 10  1  6  0  0  0
 10 33  1  0  0  0  0
 11 13  2  0  0  0  0
 11 32  1  0  0  0  0
 12 14  1  0  0  0  0
 12 32  2  0  0  0  0
 13 14  1  0  0  0  0
 15 17  2  0  0  0  0
 15 22  1  0  0  0  0
 16 19  1  0  0  0  0
 16 20  1  6  0  0  0
 17 19  1  0  0  0  0
 17 23  1  0  0  0  0
 18 21  1  0  0  0  0
 21 26  1  0  0  0  0
 22 24  2  0  0  0  0
 23 25  2  0  0  0  0
 24 25  1  0  0  0  0
 26 30  1  0  0  0  0
 27 28  1  0  0  0  0
 28 31  1  0  0  0  0
 29 32  1  0  0  0  0
 30 34  1  0  0  0  0
 31 35  1  0  0  0  0
 31 36  1  1  0  0  0
 33 37  1  0  0  0  0
 34 39  1  0  0  0  0
 35 40  1  0  0  0  0
 37 38  1  0  0  0  0
 38 41  2  0  0  0  0
 38 42  1  0  0  0  0
 41 43  1  0  0  0  0
 42 44  2  0  0  0  0
 43 45  2  0  0  0  0
 44 45  1  0  0  0  0
M  END
> <PUBCHEM_COMPOUND_ID_TYPE>
0

> <PUBCHEM_TOTAL_CHARGE>
0

> <PUBCHEM_SUBSTANCE_ID>
310938446

> <PUBCHEM_SUBSTANCE_VERSION>
1

> <PUBCHEM_EXT_DATASOURCE_NAME>
4488

> <PUBCHEM_EXT_DATASOURCE_REGID>
SCHEMBL16116344

> <PUBCHEM_SUBSTANCE_COMMENT>
InChI=1S/C31H38N8O6/c1-3-19(2)28(34-26(40)16-20-10-5-4-6-11-20)30(44)33-22(13-9-15-27(41)42)31(45)39-23-14-8-7-12-21(23)17-24(39)29(43)32-18-25-35-37-38-36-25/h4-8,10-12,14,19,22,24,28H,3,9,13,15-18H2,1-2H3,(H,32,43)(H,33,44)(H,34,40)(H,41,42)(H,35,36,37,38)/t19-,22?,24-,28-/m0/s1
InChIKey=QNMAXZJKICUFSA-BBLOVHTKSA-N

> <PUBCHEM_SUBSTANCE_SYNONYM>
SCHEMBL16116344

> <PUBCHEM_XREF_EXT_ID>
SCHEMBL16116344

> <PUBCHEM_EXT_DATASOURCE_URL>
https://www.surechembl.org/

> <PUBCHEM_EXT_SUBSTANCE_URL>
https://www.surechembl.org/chemical/SCHEMBL16116344

> <PUBCHEM_CID_ASSOCIATIONS>
117605909  1

> <PUBCHEM_COORDINATE_TYPE>
1
3

> <PUBCHEM_BONDANNOTATIONS>
28  10  6
16  20  6
31  36  5

$$$$
