310938886
  -OEChem-07211613022D

 20 20  0     1  0  0  0  0  0999 V2000
   -1.2165   -1.7327    0.0000 O   0  0  0  0  0  0  0  0  0  0  0  0
    3.1188    0.7594    0.0000 O   0  0  0  0  0  0  0  0  0  0  0  0
   -0.1254    1.7327    0.0000 O   0  0  0  0  0  0  0  0  0  0  0  0
   -0.4940    0.3466    0.0000 N   0  0  0  0  0  0  0  0  0  0  0  0
   -1.9391   -0.4793    0.0000 N   0  0  0  0  0  0  0  0  0  0  0  0
   -2.6617   -0.9069    0.0000 N   0  0  0  0  0  0  0  0  0  0  0  0
   -0.5087   -0.4940    0.0000 C   0  0  3  0  0  0  0  0  0  0  0  0
    0.9511   -0.4793    0.0000 C   0  0  0  0  0  0  0  0  0  0  0  0
    0.2433   -0.8922    0.0000 C   0  0  0  0  0  0  0  0  0  0  0  0
   -1.2165   -0.8774    0.0000 C   0  0  0  0  0  0  0  0  0  0  0  0
    0.9511    0.3466    0.0000 C   0  0  0  0  0  0  0  0  0  0  0  0
    1.6885   -0.8922    0.0000 C   0  0  0  0  0  0  0  0  0  0  0  0
    2.3962    0.3466    0.0000 C   0  0  0  0  0  0  0  0  0  0  0  0
    1.6737    0.7447    0.0000 C   0  0  0  0  0  0  0  0  0  0  0  0
    2.3815   -0.4793    0.0000 C   0  0  0  0  0  0  0  0  0  0  0  0
    0.0958    0.9364    0.0000 C   0  0  0  0  0  0  0  0  0  0  0  0
    0.9216    0.7299    0.0000 C   0  0  0  0  0  0  0  0  0  0  0  0
   -3.3548   -0.5235    0.0000 C   0  0  0  0  0  0  0  0  0  0  0  0
    3.6939    0.4203    0.0000 C   0  0  0  0  0  0  0  0  0  0  0  0
   -3.6939   -0.8479    0.0000 C   0  0  0  0  0  0  0  0  0  0  0  0
  1 10  2  0  0  0  0
  2 13  1  0  0  0  0
  2 19  1  0  0  0  0
  3 16  2  0  0  0  0
  7  4  1  6  0  0  0
  4 16  1  0  0  0  0
  5  6  1  0  0  0  0
  5 10  1  0  0  0  0
  6 18  1  0  0  0  0
  7  9  1  0  0  0  0
  7 10  1  0  0  0  0
  8  9  1  0  0  0  0
  8 11  2  0  0  0  0
  8 12  1  0  0  0  0
 11 14  1  0  0  0  0
 12 15  2  0  0  0  0
 13 14  2  0  0  0  0
 13 15  1  0  0  0  0
 16 17  1  0  0  0  0
 18 20  1  0  0  0  0
M  END
> <PUBCHEM_COMPOUND_ID_TYPE>
0

> <PUBCHEM_TOTAL_CHARGE>
0

> <PUBCHEM_SUBSTANCE_ID>
310938886

> <PUBCHEM_SUBSTANCE_VERSION>
1

> <PUBCHEM_EXT_DATASOURCE_NAME>
4488

> <PUBCHEM_EXT_DATASOURCE_REGID>
SCHEMBL16116805

> <PUBCHEM_SUBSTANCE_COMMENT>
InChI=1S/C14H21N3O3/c1-4-15-17-14(19)13(16-10(2)18)9-11-5-7-12(20-3)8-6-11/h5-8,13,15H,4,9H2,1-3H3,(H,16,18)(H,17,19)/t13-/m1/s1
InChIKey=FURSHJWJJWIVFY-CYBMUJFWSA-N

> <PUBCHEM_SUBSTANCE_SYNONYM>
SCHEMBL16116805

> <PUBCHEM_XREF_EXT_ID>
SCHEMBL16116805

> <PUBCHEM_EXT_DATASOURCE_URL>
https://www.surechembl.org/

> <PUBCHEM_EXT_SUBSTANCE_URL>
https://www.surechembl.org/chemical/SCHEMBL16116805

> <PUBCHEM_CID_ASSOCIATIONS>
117606284  1

> <PUBCHEM_COORDINATE_TYPE>
1
3

> <PUBCHEM_BONDANNOTATIONS>
20  18  3
7  4  6

$$$$
