310937026
  -OEChem-07211613022D

 15 17  0     1  0  0  0  0  0999 V2000
    1.2808   -3.8200    0.0000 S   0  0  0  0  0  0  0  0  0  0  0  0
    1.8651   -2.1123    0.0000 N   0  0  0  0  0  0  0  0  0  0  0  0
    0.5618   -1.6628    0.0000 N   0  0  0  0  0  0  0  0  0  0  0  0
    1.0561   -1.0112    0.0000 N   0  0  0  0  0  0  0  0  0  0  0  0
    0.0000   -3.3931    0.0000 N   0  0  0  0  0  0  0  0  0  0  0  0
    3.2807   -1.2359    0.0000 N   0  0  0  0  0  0  0  0  0  0  0  0
    0.8090   -4.4942    0.0000 N   0  0  0  0  0  0  0  0  0  0  0  0
    1.0561   -2.3370    0.0000 C   0  0  0  0  0  0  0  0  0  0  0  0
    1.8651   -1.2359    0.0000 C   0  0  0  0  0  0  0  0  0  0  0  0
    0.8090   -3.1234    0.0000 C   0  0  0  0  0  0  0  0  0  0  0  0
    2.5841   -0.8314    0.0000 C   0  0  3  0  0  0  0  0  0  0  0  0
    2.5841   -2.5167    0.0000 C   0  0  0  0  0  0  0  0  0  0  0  0
    3.2807   -2.1123    0.0000 C   0  0  0  0  0  0  0  0  0  0  0  0
    0.0000   -4.2245    0.0000 C   0  0  0  0  0  0  0  0  0  0  0  0
    2.6066    0.0000    0.0000 C   0  0  0  0  0  0  0  0  0  0  0  0
  1  7  1  0  0  0  0
  1 10  1  0  0  0  0
  2  8  1  0  0  0  0
  2  9  1  0  0  0  0
  2 12  1  0  0  0  0
  3  4  1  0  0  0  0
  3  8  2  0  0  0  0
  4  9  2  0  0  0  0
  5 10  2  0  0  0  0
  5 14  1  0  0  0  0
  6 11  1  0  0  0  0
  6 13  1  0  0  0  0
  7 14  2  0  0  0  0
  8 10  1  0  0  0  0
  9 11  1  0  0  0  0
 11 15  1  1  0  0  0
 12 13  1  0  0  0  0
M  END
> <PUBCHEM_COMPOUND_ID_TYPE>
0

> <PUBCHEM_TOTAL_CHARGE>
0

> <PUBCHEM_SUBSTANCE_ID>
310937026

> <PUBCHEM_SUBSTANCE_VERSION>
1

> <PUBCHEM_EXT_DATASOURCE_NAME>
4488

> <PUBCHEM_EXT_DATASOURCE_REGID>
SCHEMBL16114736

> <PUBCHEM_SUBSTANCE_COMMENT>
InChI=1S/C8H10N6S/c1-5-6-12-13-7(8-10-4-11-15-8)14(6)3-2-9-5/h4-5,9H,2-3H2,1H3/t5-/m1/s1
InChIKey=DXSHQIQZDQRARP-RXMQYKEDSA-N

> <PUBCHEM_SUBSTANCE_SYNONYM>
SCHEMBL16114736

> <PUBCHEM_XREF_EXT_ID>
SCHEMBL16114736

> <PUBCHEM_EXT_DATASOURCE_URL>
https://www.surechembl.org/

> <PUBCHEM_EXT_SUBSTANCE_URL>
https://www.surechembl.org/chemical/SCHEMBL16114736

> <PUBCHEM_CID_ASSOCIATIONS>
117604876  1

> <PUBCHEM_COORDINATE_TYPE>
1
3

> <PUBCHEM_BONDANNOTATIONS>
11  15  5

$$$$
