310940003
  -OEChem-07211613022D

 18 19  0     0  0  0  0  0  0999 V2000
   -3.8851   -3.9526    0.0000 Cl  0  0  0  0  0  0  0  0  0  0  0  0
   -1.7417   -5.1901    0.0000 O   0  0  0  0  0  0  0  0  0  0  0  0
   -0.3128   -1.8901    0.0000 O   0  0  0  0  0  0  0  0  0  0  0  0
    0.4017   -3.1276    0.0000 O   0  0  0  0  0  0  0  0  0  0  0  0
   -2.4562   -3.1276    0.0000 C   0  0  0  0  0  0  0  0  0  0  0  0
   -3.1707   -2.7151    0.0000 C   0  0  0  0  0  0  0  0  0  0  0  0
   -1.0272   -3.1276    0.0000 C   0  0  0  0  0  0  0  0  0  0  0  0
   -1.7417   -2.7151    0.0000 C   0  0  0  0  0  0  0  0  0  0  0  0
   -1.7417   -4.3651    0.0000 C   0  0  0  0  0  0  0  0  0  0  0  0
   -2.4562   -3.9526    0.0000 C   0  0  0  0  0  0  0  0  0  0  0  0
   -3.8851   -3.1276    0.0000 C   0  0  0  0  0  0  0  0  0  0  0  0
   -1.0272   -3.9526    0.0000 C   0  0  0  0  0  0  0  0  0  0  0  0
   -0.3128   -2.7151    0.0000 C   0  0  0  0  0  0  0  0  0  0  0  0
   -3.1707   -1.8901    0.0000 C   0  0  0  0  0  0  0  0  0  0  0  0
   -4.5996   -2.7151    0.0000 C   0  0  0  0  0  0  0  0  0  0  0  0
   -3.8851   -1.4776    0.0000 C   0  0  0  0  0  0  0  0  0  0  0  0
   -4.5996   -1.8901    0.0000 C   0  0  0  0  0  0  0  0  0  0  0  0
   -1.0272   -5.6026    0.0000 C   0  0  0  0  0  0  0  0  0  0  0  0
  1 11  1  0  0  0  0
  2  9  1  0  0  0  0
  2 18  1  0  0  0  0
  3 13  2  0  0  0  0
  4 13  1  0  0  0  0
  5  6  1  0  0  0  0
  5  8  1  0  0  0  0
  5 10  2  0  0  0  0
  6 11  1  0  0  0  0
  6 14  2  0  0  0  0
  7  8  2  0  0  0  0
  7 12  1  0  0  0  0
  7 13  1  0  0  0  0
  9 10  1  0  0  0  0
  9 12  2  0  0  0  0
 11 15  2  0  0  0  0
 14 16  1  0  0  0  0
 15 17  1  0  0  0  0
 16 17  2  0  0  0  0
M  END
> <PUBCHEM_COMPOUND_ID_TYPE>
0

> <PUBCHEM_TOTAL_CHARGE>
0

> <PUBCHEM_SUBSTANCE_ID>
310940003

> <PUBCHEM_SUBSTANCE_VERSION>
1

> <PUBCHEM_EXT_DATASOURCE_NAME>
4488

> <PUBCHEM_EXT_DATASOURCE_REGID>
SCHEMBL16117933

> <PUBCHEM_SUBSTANCE_COMMENT>
InChI=1S/C14H11ClO3/c1-18-11-7-9(6-10(8-11)14(16)17)12-4-2-3-5-13(12)15/h2-8H,1H3,(H,16,17)
InChIKey=GBMMCQXWMOLNEV-UHFFFAOYSA-N

> <PUBCHEM_SUBSTANCE_SYNONYM>
SCHEMBL16117933

> <PUBCHEM_XREF_EXT_ID>
SCHEMBL16117933

> <PUBCHEM_EXT_DATASOURCE_URL>
https://www.surechembl.org/

> <PUBCHEM_EXT_SUBSTANCE_URL>
https://www.surechembl.org/chemical/SCHEMBL16117933

> <PUBCHEM_CID_ASSOCIATIONS>
53225804  1

> <PUBCHEM_COORDINATE_TYPE>
1
3

$$$$
