310933433
  -OEChem-07211613022D

 22 25  0     0  0  0  0  0  0999 V2000
    1.7294    1.3485    0.0000 O   0  0  0  0  0  0  0  0  0  0  0  0
    0.0000    0.8772    0.0000 N   0  0  0  0  0  0  0  0  0  0  0  0
    2.0264   -0.0493    0.0000 N   0  0  0  0  0  0  0  0  0  0  0  0
    1.7715   -0.8339    0.0000 N   0  0  0  0  0  0  0  0  0  0  0  0
    0.6674    0.3923    0.0000 C   0  0  0  0  0  0  0  0  0  0  0  0
    0.4125   -0.3923    0.0000 C   0  0  0  0  0  0  0  0  0  0  0  0
   -0.4125   -0.3923    0.0000 C   0  0  0  0  0  0  0  0  0  0  0  0
   -0.6674    0.3923    0.0000 C   0  0  0  0  0  0  0  0  0  0  0  0
    1.4744    0.5638    0.0000 C   0  0  0  0  0  0  0  0  0  0  0  0
    0.9645   -1.0054    0.0000 C   0  0  0  0  0  0  0  0  0  0  0  0
    2.8334    0.1223    0.0000 C   0  0  0  0  0  0  0  0  0  0  0  0
   -0.9645   -1.0054    0.0000 C   0  0  0  0  0  0  0  0  0  0  0  0
   -1.4744    0.5638    0.0000 C   0  0  0  0  0  0  0  0  0  0  0  0
    0.0000    1.7022    0.0000 C   0  0  0  0  0  0  0  0  0  0  0  0
   -1.7715   -0.8339    0.0000 C   0  0  0  0  0  0  0  0  0  0  0  0
   -2.0264   -0.0493    0.0000 C   0  0  0  0  0  0  0  0  0  0  0  0
    3.3855   -0.4908    0.0000 C   0  0  0  0  0  0  0  0  0  0  0  0
    3.0883    0.9069    0.0000 C   0  0  0  0  0  0  0  0  0  0  0  0
    4.1924   -0.3193    0.0000 C   0  0  0  0  0  0  0  0  0  0  0  0
    3.8954    1.0784    0.0000 C   0  0  0  0  0  0  0  0  0  0  0  0
    4.4473    0.4653    0.0000 C   0  0  0  0  0  0  0  0  0  0  0  0
    5.2543    0.6368    0.0000 C   0  0  0  0  0  0  0  0  0  0  0  0
  1  9  2  0  0  0  0
  2  5  1  0  0  0  0
  2  8  1  0  0  0  0
  2 14  1  0  0  0  0
  3  4  1  0  0  0  0
  3  9  1  0  0  0  0
  3 11  1  0  0  0  0
  4 10  2  0  0  0  0
  5  6  2  0  0  0  0
  5  9  1  0  0  0  0
  6  7  1  0  0  0  0
  6 10  1  0  0  0  0
  7  8  2  0  0  0  0
  7 12  1  0  0  0  0
  8 13  1  0  0  0  0
 11 17  2  0  0  0  0
 11 18  1  0  0  0  0
 12 15  2  0  0  0  0
 13 16  2  0  0  0  0
 15 16  1  0  0  0  0
 17 19  1  0  0  0  0
 18 20  2  0  0  0  0
 19 21  2  0  0  0  0
 20 21  1  0  0  0  0
 21 22  1  0  0  0  0
M  END
> <PUBCHEM_COMPOUND_ID_TYPE>
0

> <PUBCHEM_TOTAL_CHARGE>
0

> <PUBCHEM_SUBSTANCE_ID>
310933433

> <PUBCHEM_SUBSTANCE_VERSION>
1

> <PUBCHEM_EXT_DATASOURCE_NAME>
4488

> <PUBCHEM_EXT_DATASOURCE_REGID>
SCHEMBL16110851

> <PUBCHEM_SUBSTANCE_COMMENT>
InChI=1S/C18H15N3O/c1-12-7-9-13(10-8-12)21-18(22)17-15(11-19-21)14-5-3-4-6-16(14)20(17)2/h3-11H,1-2H3
InChIKey=YHNUEPIQQBXSMK-UHFFFAOYSA-N

> <PUBCHEM_SUBSTANCE_SYNONYM>
SCHEMBL16110851

> <PUBCHEM_XREF_EXT_ID>
SCHEMBL16110851

> <PUBCHEM_EXT_DATASOURCE_URL>
https://www.surechembl.org/

> <PUBCHEM_EXT_SUBSTANCE_URL>
https://www.surechembl.org/chemical/SCHEMBL16110851

> <PUBCHEM_CID_ASSOCIATIONS>
117601835  1

> <PUBCHEM_COORDINATE_TYPE>
1
3

$$$$
