310931397
  -OEChem-07211613022D

 26 29  0     0  0  0  0  0  0999 V2000
    2.1120   -6.5999    0.0000 S   0  0  0  0  0  0  0  0  0  0  0  0
    2.8380   -3.6960    0.0000 O   0  0  0  0  0  0  0  0  0  0  0  0
    2.1120   -4.9499    0.0000 N   0  0  0  0  0  0  0  0  0  0  0  0
    1.4190   -3.6960    0.0000 N   0  0  0  0  0  0  0  0  0  0  0  0
    2.8380   -5.3460    0.0000 C   0  0  0  0  0  0  0  0  0  0  0  0
    1.3860   -5.3460    0.0000 C   0  0  0  0  0  0  0  0  0  0  0  0
    1.3860   -6.1710    0.0000 C   0  0  0  0  0  0  0  0  0  0  0  0
    2.8380   -6.1710    0.0000 C   0  0  0  0  0  0  0  0  0  0  0  0
    2.1120   -4.1249    0.0000 C   0  0  0  0  0  0  0  0  0  0  0  0
    3.5640   -4.9499    0.0000 C   0  0  0  0  0  0  0  0  0  0  0  0
    0.6600   -4.9499    0.0000 C   0  0  0  0  0  0  0  0  0  0  0  0
    0.6600   -6.5999    0.0000 C   0  0  0  0  0  0  0  0  0  0  0  0
    3.5640   -6.5999    0.0000 C   0  0  0  0  0  0  0  0  0  0  0  0
    4.2240   -5.3460    0.0000 C   0  0  0  0  0  0  0  0  0  0  0  0
    0.0000   -5.3460    0.0000 C   0  0  0  0  0  0  0  0  0  0  0  0
    0.0000   -6.1710    0.0000 C   0  0  0  0  0  0  0  0  0  0  0  0
    4.2240   -6.1710    0.0000 C   0  0  0  0  0  0  0  0  0  0  0  0
    1.4190   -2.9040    0.0000 C   0  0  0  0  0  0  0  0  0  0  0  0
    2.1120   -2.4750    0.0000 C   0  0  0  0  0  0  0  0  0  0  0  0
    2.8380   -1.2540    0.0000 C   0  0  0  0  0  0  0  0  0  0  0  0
    2.1120   -1.6500    0.0000 C   0  0  0  0  0  0  0  0  0  0  0  0
    2.8380   -0.3960    0.0000 C   0  0  0  0  0  0  0  0  0  0  0  0
    3.5310   -1.6500    0.0000 C   0  0  0  0  0  0  0  0  0  0  0  0
    3.5310    0.0000    0.0000 C   0  0  0  0  0  0  0  0  0  0  0  0
    4.2240   -1.2210    0.0000 C   0  0  0  0  0  0  0  0  0  0  0  0
    4.2569   -0.3960    0.0000 C   0  0  0  0  0  0  0  0  0  0  0  0
  1  7  1  0  0  0  0
  1  8  1  0  0  0  0
  2  9  2  0  0  0  0
  3  5  1  0  0  0  0
  3  6  1  0  0  0  0
  3  9  1  0  0  0  0
  4  9  1  0  0  0  0
  4 18  1  0  0  0  0
  5  8  2  0  0  0  0
  5 10  1  0  0  0  0
  6  7  2  0  0  0  0
  6 11  1  0  0  0  0
  7 12  1  0  0  0  0
  8 13  1  0  0  0  0
 10 14  2  0  0  0  0
 11 15  2  0  0  0  0
 12 16  2  0  0  0  0
 13 17  2  0  0  0  0
 14 17  1  0  0  0  0
 15 16  1  0  0  0  0
 18 19  1  0  0  0  0
 19 21  1  0  0  0  0
 20 21  1  0  0  0  0
 20 22  2  0  0  0  0
 20 23  1  0  0  0  0
 22 24  1  0  0  0  0
 23 25  2  0  0  0  0
 24 26  2  0  0  0  0
 25 26  1  0  0  0  0
M  END
> <PUBCHEM_COMPOUND_ID_TYPE>
0

> <PUBCHEM_TOTAL_CHARGE>
0

> <PUBCHEM_SUBSTANCE_ID>
310931397

> <PUBCHEM_SUBSTANCE_VERSION>
1

> <PUBCHEM_EXT_DATASOURCE_NAME>
4488

> <PUBCHEM_EXT_DATASOURCE_REGID>
SCHEMBL16108721

> <PUBCHEM_SUBSTANCE_COMMENT>
InChI=1S/C22H20N2OS/c25-22(23-16-8-11-17-9-2-1-3-10-17)24-18-12-4-6-14-20(18)26-21-15-7-5-13-19(21)24/h1-7,9-10,12-15H,8,11,16H2,(H,23,25)
InChIKey=WYTYMTVDUJAELB-UHFFFAOYSA-N

> <PUBCHEM_SUBSTANCE_SYNONYM>
SCHEMBL16108721

> <PUBCHEM_XREF_EXT_ID>
SCHEMBL16108721

> <PUBCHEM_EXT_DATASOURCE_URL>
https://www.surechembl.org/

> <PUBCHEM_EXT_SUBSTANCE_URL>
https://www.surechembl.org/chemical/SCHEMBL16108721

> <PUBCHEM_CID_ASSOCIATIONS>
1939666  1

> <PUBCHEM_COORDINATE_TYPE>
1
3

$$$$
