310935749
  -OEChem-07211613022D

 44 49  0     1  0  0  0  0  0999 V2000
    6.1653   -3.1920    0.0000 F   0  0  0  0  0  0  0  0  0  0  0  0
    4.0228   -1.1369    0.0000 O   0  0  0  0  0  0  0  0  0  0  0  0
    6.1216   -4.8535    0.0000 O   0  0  0  0  0  0  0  0  0  0  0  0
    4.7224   -3.1920    0.0000 O   0  0  0  0  0  0  0  0  0  0  0  0
    5.4657   -1.9677    0.0000 O   0  0  0  0  0  0  0  0  0  0  0  0
    1.8802   -3.1920    0.0000 N   0  0  0  0  0  0  0  0  0  0  0  0
    1.2680   -3.7604    0.0000 N   0  0  0  0  0  0  0  0  0  0  0  0
    3.3231   -3.1920    0.0000 C   0  0  0  0  0  0  0  0  0  0  0  0
    2.5798   -3.5855    0.0000 C   0  0  0  0  0  0  0  0  0  0  0  0
    3.3231   -2.3612    0.0000 C   0  0  0  0  0  0  0  0  0  0  0  0
    4.0228   -3.5855    0.0000 C   0  0  0  0  0  0  0  0  0  0  0  0
    2.5798   -1.9677    0.0000 C   0  0  0  0  0  0  0  0  0  0  0  0
    4.0228   -4.4163    0.0000 C   0  0  0  0  0  0  0  0  0  0  0  0
    4.0228   -1.9677    0.0000 C   0  0  3  0  0  0  0  0  0  0  0  0
    1.6178   -4.5037    0.0000 C   0  0  0  0  0  0  0  0  0  0  0  0
    2.4486   -4.4163    0.0000 C   0  0  0  0  0  0  0  0  0  0  0  0
    1.8802   -2.3612    0.0000 C   0  0  0  0  0  0  0  0  0  0  0  0
    4.7224   -4.8535    0.0000 C   0  0  0  0  0  0  0  0  0  0  0  0
    4.8973   -3.3668    0.0000 C   0  0  0  0  0  0  0  0  0  0  0  0
    5.4220   -4.4600    0.0000 C   0  0  0  0  0  0  0  0  0  0  0  0
    5.4220   -3.6292    0.0000 C   0  0  0  0  0  0  0  0  0  0  0  0
    1.2243   -5.2034    0.0000 C   0  0  0  0  0  0  0  0  0  0  0  0
    4.7224   -2.3612    0.0000 C   0  0  0  0  0  0  0  0  0  0  0  0
    4.7224   -5.6406    0.0000 C   0  0  0  0  0  0  0  0  0  0  0  0
    2.5798   -1.1369    0.0000 C   0  0  0  0  0  0  0  0  0  0  0  0
    3.3231   -4.8535    0.0000 C   0  0  0  0  0  0  0  0  0  0  0  0
    1.6178   -5.9030    0.0000 C   0  0  0  0  0  0  0  0  0  0  0  0
    3.3231   -0.6996    0.0000 C   0  0  0  0  0  0  0  0  0  0  0  0
    0.3936   -5.2034    0.0000 C   0  0  0  0  0  0  0  0  0  0  0  0
    1.2243   -6.6025    0.0000 C   0  0  0  0  0  0  0  0  0  0  0  0
    5.4220   -6.0778    0.0000 C   0  0  0  0  0  0  0  0  0  0  0  0
    6.1216   -5.6406    0.0000 C   0  0  0  0  0  0  0  0  0  0  0  0
    1.6178   -7.3459    0.0000 C   0  0  0  0  0  0  0  0  0  0  0  0
    0.0000   -5.9030    0.0000 C   0  0  0  0  0  0  0  0  0  0  0  0
    0.3936   -6.6025    0.0000 C   0  0  0  0  0  0  0  0  0  0  0  0
    2.6235   -0.3061    0.0000 C   0  0  0  0  0  0  0  0  0  0  0  0
    3.7604    0.0000    0.0000 C   0  0  0  0  0  0  0  0  0  0  0  0
    2.8859   -1.3992    0.0000 C   0  0  0  0  0  0  0  0  0  0  0  0
    1.2243   -8.0455    0.0000 C   0  0  0  0  0  0  0  0  0  0  0  0
    2.4486   -7.3459    0.0000 C   0  0  0  0  0  0  0  0  0  0  0  0
    1.6178   -8.7451    0.0000 C   0  0  0  0  0  0  0  0  0  0  0  0
    2.8421   -8.0455    0.0000 C   0  0  0  0  0  0  0  0  0  0  0  0
    2.4486   -8.7451    0.0000 C   0  0  0  0  0  0  0  0  0  0  0  0
    0.3936   -8.0455    0.0000 C   0  0  0  0  0  0  0  0  0  0  0  0
  1 21  1  0  0  0  0
 14  2  1  6  0  0  0
  2 28  1  0  0  0  0
  3 20  1  0  0  0  0
  3 32  1  0  0  0  0
  4 23  2  0  0  0  0
  5 23  1  0  0  0  0
  6  7  1  0  0  0  0
  6  9  1  0  0  0  0
  6 17  1  0  0  0  0
  7 15  2  0  0  0  0
  8  9  1  0  0  0  0
  8 10  2  0  0  0  0
  8 11  1  0  0  0  0
  9 16  2  0  0  0  0
 10 12  1  0  0  0  0
 10 14  1  0  0  0  0
 11 13  2  0  0  0  0
 11 19  1  0  0  0  0
 12 17  2  0  0  0  0
 12 25  1  0  0  0  0
 13 18  1  0  0  0  0
 13 26  1  0  0  0  0
 14 23  1  0  0  0  0
 15 16  1  0  0  0  0
 15 22  1  0  0  0  0
 18 20  2  0  0  0  0
 18 24  1  0  0  0  0
 19 21  2  0  0  0  0
 20 21  1  0  0  0  0
 22 27  2  0  0  0  0
 22 29  1  0  0  0  0
 24 31  1  0  0  0  0
 27 30  1  0  0  0  0
 28 36  1  0  0  0  0
 28 37  1  0  0  0  0
 28 38  1  0  0  0  0
 29 34  2  0  0  0  0
 30 33  1  0  0  0  0
 30 35  2  0  0  0  0
 31 32  1  0  0  0  0
 33 39  1  0  0  0  0
 33 40  2  0  0  0  0
 34 35  1  0  0  0  0
 39 41  2  0  0  0  0
 39 44  1  0  0  0  0
 40 42  1  0  0  0  0
 41 43  1  0  0  0  0
 42 43  2  0  0  0  0
M  END
> <PUBCHEM_COMPOUND_ID_TYPE>
0

> <PUBCHEM_TOTAL_CHARGE>
0

> <PUBCHEM_SUBSTANCE_ID>
310935749

> <PUBCHEM_SUBSTANCE_VERSION>
1

> <PUBCHEM_EXT_DATASOURCE_NAME>
4488

> <PUBCHEM_EXT_DATASOURCE_REGID>
SCHEMBL16113333

> <PUBCHEM_SUBSTANCE_COMMENT>
InChI=1S/C37H37FN2O4/c1-21-11-7-8-14-26(21)24-12-9-13-25(17-24)30-19-31-33(28-18-29(38)34-27(23(28)3)15-10-16-43-34)32(22(2)20-40(31)39-30)35(36(41)42)44-37(4,5)6/h7-9,11-14,17-20,35H,10,15-16H2,1-6H3,(H,41,42)/t35-/m0/s1
InChIKey=QETAKGCWTITPHK-DHUJRADRSA-N

> <PUBCHEM_SUBSTANCE_SYNONYM>
SCHEMBL16113333

> <PUBCHEM_XREF_EXT_ID>
SCHEMBL16113333

> <PUBCHEM_EXT_DATASOURCE_URL>
https://www.surechembl.org/

> <PUBCHEM_EXT_SUBSTANCE_URL>
https://www.surechembl.org/chemical/SCHEMBL16113333

> <PUBCHEM_CID_ASSOCIATIONS>
86302145  1

> <PUBCHEM_COORDINATE_TYPE>
1
3

> <PUBCHEM_BONDANNOTATIONS>
14  2  6

$$$$
