310931637
  -OEChem-07211613022D

 29 32  0     0  0  0  0  0  0999 V2000
    3.9793   -2.0982    0.0000 O   0  0  0  0  0  0  0  0  0  0  0  0
    8.4290   -2.2067    0.0000 O   0  0  0  0  0  0  0  0  0  0  0  0
    4.8838   -0.9767    0.0000 N   0  0  0  0  0  0  0  0  0  0  0  0
    4.8114   -0.1447    0.0000 N   0  0  0  0  0  0  0  0  0  0  0  0
    6.2946   -0.9767    0.0000 N   0  0  0  0  0  0  0  0  0  0  0  0
    7.7055   -3.4367    0.0000 N   0  0  0  0  0  0  0  0  0  0  0  0
    0.0000   -1.8088    0.0000 N   0  0  0  0  0  0  0  0  0  0  0  0
    4.1602   -1.3023    0.0000 C   0  0  0  0  0  0  0  0  0  0  0  0
    3.5814   -0.7235    0.0000 C   0  0  0  0  0  0  0  0  0  0  0  0
    5.5711   -1.3747    0.0000 C   0  0  0  0  0  0  0  0  0  0  0  0
    2.7856   -0.7959    0.0000 C   0  0  0  0  0  0  0  0  0  0  0  0
    3.9793    0.0000    0.0000 C   0  0  0  0  0  0  0  0  0  0  0  0
    5.5711   -2.2067    0.0000 C   0  0  0  0  0  0  0  0  0  0  0  0
    7.0181   -2.2067    0.0000 C   0  0  0  0  0  0  0  0  0  0  0  0
    2.4600   -1.5556    0.0000 C   0  0  0  0  0  0  0  0  0  0  0  0
    2.2791   -0.1447    0.0000 C   0  0  0  0  0  0  0  0  0  0  0  0
    7.0181   -1.3747    0.0000 C   0  0  0  0  0  0  0  0  0  0  0  0
    6.2946   -2.6047    0.0000 C   0  0  0  0  0  0  0  0  0  0  0  0
    7.7055   -2.6047    0.0000 C   0  0  0  0  0  0  0  0  0  0  0  0
    1.1576   -0.9767    0.0000 C   0  0  0  0  0  0  0  0  0  0  0  0
    1.6279   -1.6279    0.0000 C   0  0  0  0  0  0  0  0  0  0  0  0
    1.4832   -0.2532    0.0000 C   0  0  0  0  0  0  0  0  0  0  0  0
    9.1525   -3.4367    0.0000 C   0  0  0  0  0  0  0  0  0  0  0  0
    8.4290   -3.8347    0.0000 C   0  0  0  0  0  0  0  0  0  0  0  0
   10.1654   -2.8579    0.0000 C   0  0  0  0  0  0  0  0  0  0  0  0
    9.3334   -2.6408    0.0000 C   0  0  0  0  0  0  0  0  0  0  0  0
    9.9484   -3.6538    0.0000 C   0  0  0  0  0  0  0  0  0  0  0  0
    0.3256   -1.0853    0.0000 C   0  0  0  0  0  0  0  0  0  0  0  0
   10.8528   -2.4238    0.0000 C   0  0  0  0  0  0  0  0  0  0  0  0
  1  8  1  0  0  0  0
  2 19  2  0  0  0  0
  3  4  1  0  0  0  0
  3  8  1  0  0  0  0
  3 10  1  0  0  0  0
  4 12  2  0  0  0  0
  5 10  2  0  0  0  0
  5 17  1  0  0  0  0
  6 19  1  0  0  0  0
  6 24  1  0  0  0  0
  7 28  3  0  0  0  0
  8  9  2  0  0  0  0
  9 11  1  0  0  0  0
  9 12  1  0  0  0  0
 10 13  1  0  0  0  0
 11 15  2  0  0  0  0
 11 16  1  0  0  0  0
 13 18  2  0  0  0  0
 14 17  2  0  0  0  0
 14 18  1  0  0  0  0
 14 19  1  0  0  0  0
 15 21  1  0  0  0  0
 16 22  2  0  0  0  0
 20 21  2  0  0  0  0
 20 22  1  0  0  0  0
 20 28  1  0  0  0  0
 23 24  1  0  0  0  0
 23 26  1  0  0  0  0
 23 27  1  0  0  0  0
 25 26  1  0  0  0  0
 25 27  1  0  0  0  0
 25 29  1  0  0  0  0
M  END
> <PUBCHEM_COMPOUND_ID_TYPE>
0

> <PUBCHEM_TOTAL_CHARGE>
0

> <PUBCHEM_SUBSTANCE_ID>
310931637

> <PUBCHEM_SUBSTANCE_VERSION>
1

> <PUBCHEM_EXT_DATASOURCE_NAME>
4488

> <PUBCHEM_EXT_DATASOURCE_REGID>
SCHEMBL16108963

> <PUBCHEM_SUBSTANCE_COMMENT>
InChI=1S/C22H21N5O2/c1-14-8-16(9-14)11-25-21(28)18-6-7-20(24-12-18)27-22(29)19(13-26-27)17-4-2-15(10-23)3-5-17/h2-7,12-14,16,29H,8-9,11H2,1H3,(H,25,28)
InChIKey=SCJYCGQGEYPPTO-UHFFFAOYSA-N

> <PUBCHEM_SUBSTANCE_SYNONYM>
SCHEMBL16108963

> <PUBCHEM_XREF_EXT_ID>
SCHEMBL16108963

> <PUBCHEM_EXT_DATASOURCE_URL>
https://www.surechembl.org/

> <PUBCHEM_EXT_SUBSTANCE_URL>
https://www.surechembl.org/chemical/SCHEMBL16108963

> <PUBCHEM_CID_ASSOCIATIONS>
117600351  1

> <PUBCHEM_COORDINATE_TYPE>
1
3

$$$$
