310929321
  -OEChem-07211613022D

 36 40  0     0  0  0  0  0  0999 V2000
    1.5749   -4.9123    0.0000 S   0  0  0  0  0  0  0  0  0  0  0  0
    1.5749   -4.0873    0.0000 O   0  0  0  0  0  0  0  0  0  0  0  0
    1.5374   -5.7373    0.0000 O   0  0  0  0  0  0  0  0  0  0  0  0
    6.6372   -2.1374    0.0000 O   0  0  0  0  0  0  0  0  0  0  0  0
    4.0123   -6.4122    0.0000 O   0  0  0  0  0  0  0  0  0  0  0  0
    9.9746   -0.7500    0.0000 O   0  0  0  0  0  0  0  0  0  0  0  0
   11.2495   -1.4624    0.0000 O   0  0  0  0  0  0  0  0  0  0  0  0
    4.0873   -3.5248    0.0000 N   0  0  0  0  0  0  0  0  0  0  0  0
    5.3623   -2.8499    0.0000 N   0  0  0  0  0  0  0  0  0  0  0  0
    9.9746   -2.1749    0.0000 N   0  0  0  0  0  0  0  0  0  0  0  0
    5.3247   -4.2748    0.0000 N   0  0  0  0  0  0  0  0  0  0  0  0
    0.7125   -4.8748    0.0000 C   0  0  0  0  0  0  0  0  0  0  0  0
    2.3999   -4.9497    0.0000 C   0  0  0  0  0  0  0  0  0  0  0  0
    0.0000   -5.2873    0.0000 C   0  0  0  0  0  0  0  0  0  0  0  0
    0.0000   -4.4623    0.0000 C   0  0  0  0  0  0  0  0  0  0  0  0
    2.8124   -4.1998    0.0000 C   0  0  0  0  0  0  0  0  0  0  0  0
    2.8124   -5.6622    0.0000 C   0  0  0  0  0  0  0  0  0  0  0  0
    3.6749   -4.2373    0.0000 C   0  0  0  0  0  0  0  0  0  0  0  0
    7.9122   -1.4624    0.0000 C   0  0  0  0  0  0  0  0  0  0  0  0
    8.7371   -1.4624    0.0000 C   0  0  0  0  0  0  0  0  0  0  0  0
    3.6373   -5.6997    0.0000 C   0  0  0  0  0  0  0  0  0  0  0  0
    7.4622   -2.1749    0.0000 C   0  0  0  0  0  0  0  0  0  0  0  0
    4.0498   -4.9873    0.0000 C   0  0  0  0  0  0  0  0  0  0  0  0
    9.1496   -2.1749    0.0000 C   0  0  0  0  0  0  0  0  0  0  0  0
    4.9123   -3.5624    0.0000 C   0  0  0  0  0  0  0  0  0  0  0  0
    6.1872   -2.8499    0.0000 C   0  0  0  0  0  0  0  0  0  0  0  0
    7.8746   -2.8873    0.0000 C   0  0  0  0  0  0  0  0  0  0  0  0
    8.6996   -2.8873    0.0000 C   0  0  0  0  0  0  0  0  0  0  0  0
    7.4996   -0.7500    0.0000 C   0  0  0  0  0  0  0  0  0  0  0  0
    9.1496   -0.7500    0.0000 C   0  0  0  0  0  0  0  0  0  0  0  0
    6.6372   -3.5998    0.0000 C   0  0  0  0  0  0  0  0  0  0  0  0
    7.9122    0.0000    0.0000 C   0  0  0  0  0  0  0  0  0  0  0  0
    8.7371    0.0000    0.0000 C   0  0  0  0  0  0  0  0  0  0  0  0
    6.1497   -4.3123    0.0000 C   0  0  0  0  0  0  0  0  0  0  0  0
   10.3871   -1.4624    0.0000 C   0  0  0  0  0  0  0  0  0  0  0  0
    4.8373   -6.4497    0.0000 C   0  0  0  0  0  0  0  0  0  0  0  0
  1  2  2  0  0  0  0
  1  3  2  0  0  0  0
  1 12  1  0  0  0  0
  1 13  1  0  0  0  0
  4 22  1  0  0  0  0
  4 26  1  0  0  0  0
  5 21  1  0  0  0  0
  5 36  1  0  0  0  0
  6 35  2  0  0  0  0
  7 35  1  0  0  0  0
  8 18  1  0  0  0  0
  8 25  1  0  0  0  0
  9 25  1  0  0  0  0
  9 26  2  0  0  0  0
 10 24  1  0  0  0  0
 10 35  1  0  0  0  0
 11 25  2  0  0  0  0
 11 34  1  0  0  0  0
 12 14  1  0  0  0  0
 12 15  1  0  0  0  0
 13 16  2  0  0  0  0
 13 17  1  0  0  0  0
 14 15  1  0  0  0  0
 16 18  1  0  0  0  0
 17 21  2  0  0  0  0
 18 23  2  0  0  0  0
 19 20  2  0  0  0  0
 19 22  1  0  0  0  0
 19 29  1  0  0  0  0
 20 24  1  0  0  0  0
 20 30  1  0  0  0  0
 21 23  1  0  0  0  0
 22 27  2  0  0  0  0
 24 28  2  0  0  0  0
 26 31  1  0  0  0  0
 27 28  1  0  0  0  0
 29 32  2  0  0  0  0
 30 33  2  0  0  0  0
 31 34  2  0  0  0  0
 32 33  1  0  0  0  0
M  END
> <PUBCHEM_COMPOUND_ID_TYPE>
0

> <PUBCHEM_TOTAL_CHARGE>
0

> <PUBCHEM_SUBSTANCE_ID>
310929321

> <PUBCHEM_SUBSTANCE_VERSION>
1

> <PUBCHEM_EXT_DATASOURCE_NAME>
4488

> <PUBCHEM_EXT_DATASOURCE_REGID>
SCHEMBL16106487

> <PUBCHEM_SUBSTANCE_COMMENT>
InChI=1S/C25H22N4O6S/c1-34-16-12-15(13-18(14-16)36(32,33)17-6-7-17)27-24-26-11-10-23(29-24)35-22-9-8-21(28-25(30)31)19-4-2-3-5-20(19)22/h2-5,8-14,17,28H,6-7H2,1H3,(H,30,31)(H,26,27,29)
InChIKey=VHEQVCZRYCQTBH-UHFFFAOYSA-N

> <PUBCHEM_SUBSTANCE_SYNONYM>
SCHEMBL16106487

> <PUBCHEM_XREF_EXT_ID>
SCHEMBL16106487

> <PUBCHEM_EXT_DATASOURCE_URL>
https://www.surechembl.org/

> <PUBCHEM_EXT_SUBSTANCE_URL>
https://www.surechembl.org/chemical/SCHEMBL16106487

> <PUBCHEM_CID_ASSOCIATIONS>
117598717  1

> <PUBCHEM_COORDINATE_TYPE>
1
3

$$$$
