310929599
  -OEChem-07211613022D

 13 14  0     0  0  0  0  0  0999 V2000
    1.6699   -2.8545    0.0000 O   0  0  0  0  0  0  0  0  0  0  0  0
    3.7251   -0.7136    0.0000 O   0  0  0  0  0  0  0  0  0  0  0  0
    2.4691   -1.4415    0.0000 N   0  0  0  0  0  0  0  0  0  0  0  0
    1.6413   -1.4415    0.0000 C   0  0  0  0  0  0  0  0  0  0  0  0
    1.2274   -0.7279    0.0000 C   0  0  0  0  0  0  0  0  0  0  0  0
    1.2417   -2.1408    0.0000 C   0  0  0  0  0  0  0  0  0  0  0  0
    2.8973   -0.7136    0.0000 C   0  0  0  0  0  0  0  0  0  0  0  0
    1.6413   -0.0143    0.0000 C   0  0  0  0  0  0  0  0  0  0  0  0
    0.4282   -0.7279    0.0000 C   0  0  0  0  0  0  0  0  0  0  0  0
    0.4282   -2.1551    0.0000 C   0  0  0  0  0  0  0  0  0  0  0  0
    2.4834    0.0000    0.0000 C   0  0  0  0  0  0  0  0  0  0  0  0
    0.0000   -1.4415    0.0000 C   0  0  0  0  0  0  0  0  0  0  0  0
    2.4977   -2.8545    0.0000 C   0  0  0  0  0  0  0  0  0  0  0  0
  1  6  1  0  0  0  0
  1 13  1  0  0  0  0
  2  7  1  0  0  0  0
  3  4  2  0  0  0  0
  3  7  1  0  0  0  0
  4  5  1  0  0  0  0
  4  6  1  0  0  0  0
  5  8  2  0  0  0  0
  5  9  1  0  0  0  0
  6 10  2  0  0  0  0
  7 11  2  0  0  0  0
  8 11  1  0  0  0  0
  9 12  2  0  0  0  0
 10 12  1  0  0  0  0
M  END
> <PUBCHEM_COMPOUND_ID_TYPE>
0

> <PUBCHEM_TOTAL_CHARGE>
0

> <PUBCHEM_SUBSTANCE_ID>
310929599

> <PUBCHEM_SUBSTANCE_VERSION>
1

> <PUBCHEM_EXT_DATASOURCE_NAME>
4488

> <PUBCHEM_EXT_DATASOURCE_REGID>
SCHEMBL16106785

> <PUBCHEM_SUBSTANCE_COMMENT>
InChI=1S/C10H9NO2/c1-13-8-4-2-3-7-5-6-9(12)11-10(7)8/h2-6H,1H3,(H,11,12)
InChIKey=CRFVOPJWKSACNO-UHFFFAOYSA-N

> <PUBCHEM_SUBSTANCE_SYNONYM>
SCHEMBL16106785

> <PUBCHEM_XREF_EXT_ID>
SCHEMBL16106785

> <PUBCHEM_EXT_DATASOURCE_URL>
https://www.surechembl.org/

> <PUBCHEM_EXT_SUBSTANCE_URL>
https://www.surechembl.org/chemical/SCHEMBL16106785

> <PUBCHEM_CID_ASSOCIATIONS>
3585266  1

> <PUBCHEM_COORDINATE_TYPE>
1
3

$$$$
