310948237
  -OEChem-07211613022D

 45 49  0     0  0  0  0  0  0999 V2000
   -2.5883   -3.1727    0.0000 S   0  0  0  0  0  0  0  0  0  0  0  0
    0.2671   -3.1727    0.0000 F   0  0  0  0  0  0  0  0  0  0  0  0
   -0.9017    4.2413    0.0000 F   0  0  0  0  0  0  0  0  0  0  0  0
    0.2004    4.4250    0.0000 F   0  0  0  0  0  0  0  0  0  0  0  0
    0.3841    3.3063    0.0000 F   0  0  0  0  0  0  0  0  0  0  0  0
    3.2562   -3.1225    0.0000 F   0  0  0  0  0  0  0  0  0  0  0  0
    2.7218   -2.1040    0.0000 F   0  0  0  0  0  0  0  0  0  0  0  0
    2.2208   -3.6068    0.0000 F   0  0  0  0  0  0  0  0  0  0  0  0
    1.5529    1.2691    0.0000 O   0  0  0  0  0  0  0  0  0  0  0  0
   -2.9890   -2.5047    0.0000 O   0  0  0  0  0  0  0  0  0  0  0  0
   -2.1708   -3.8740    0.0000 O   0  0  0  0  0  0  0  0  0  0  0  0
    1.7032   -2.6049    0.0000 O   0  0  0  0  0  0  0  0  0  0  0  0
   -0.4508   -4.4250    0.0000 O   0  0  0  0  0  0  0  0  0  0  0  0
   -1.1522    1.8368    0.0000 N   0  0  0  0  0  0  0  0  0  0  0  0
    0.3507    1.8368    0.0000 N   0  0  0  0  0  0  0  0  0  0  0  0
   -0.5010    2.3210    0.0000 N   0  0  0  0  0  0  0  0  0  0  0  0
   -0.4342    0.5844    0.0000 C   0  0  0  0  0  0  0  0  0  0  0  0
    0.2671    1.0019    0.0000 C   0  0  0  0  0  0  0  0  0  0  0  0
   -1.1689    1.0019    0.0000 C   0  0  0  0  0  0  0  0  0  0  0  0
    1.0186    0.6512    0.0000 C   0  0  0  0  0  0  0  0  0  0  0  0
   -1.1522   -0.6679    0.0000 C   0  0  0  0  0  0  0  0  0  0  0  0
   -0.4508   -0.2505    0.0000 C   0  0  0  0  0  0  0  0  0  0  0  0
   -1.1689   -1.5029    0.0000 C   0  0  0  0  0  0  0  0  0  0  0  0
   -1.8702   -2.7385    0.0000 C   0  0  0  0  0  0  0  0  0  0  0  0
   -1.8702    0.5844    0.0000 C   0  0  0  0  0  0  0  0  0  0  0  0
    1.1856   -0.1336    0.0000 C   0  0  0  0  0  0  0  0  0  0  0  0
   -1.8702   -0.2505    0.0000 C   0  0  0  0  0  0  0  0  0  0  0  0
    1.1354    2.0038    0.0000 C   0  0  0  0  0  0  0  0  0  0  0  0
   -1.1522   -3.1559    0.0000 C   0  0  0  0  0  0  0  0  0  0  0  0
   -1.8535   -1.9203    0.0000 C   0  0  0  0  0  0  0  0  0  0  0  0
   -0.7514    3.1059    0.0000 C   0  0  0  0  0  0  0  0  0  0  0  0
   -0.4508   -2.7385    0.0000 C   0  0  0  0  0  0  0  0  0  0  0  0
   -0.4508   -1.9203    0.0000 C   0  0  0  0  0  0  0  0  0  0  0  0
   -1.8201    2.3044    0.0000 C   0  0  0  0  0  0  0  0  0  0  0  0
   -0.2671    3.7738    0.0000 C   0  0  0  0  0  0  0  0  0  0  0  0
   -1.5696    3.1059    0.0000 C   0  0  0  0  0  0  0  0  0  0  0  0
    0.5844   -0.7180    0.0000 C   0  0  0  0  0  0  0  0  0  0  0  0
    1.9704   -0.4175    0.0000 C   0  0  0  0  0  0  0  0  0  0  0  0
   -1.1522   -3.9909    0.0000 C   0  0  0  0  0  0  0  0  0  0  0  0
    1.5363   -1.7700    0.0000 C   0  0  0  0  0  0  0  0  0  0  0  0
    0.7514   -1.5195    0.0000 C   0  0  0  0  0  0  0  0  0  0  0  0
    2.1374   -1.2357    0.0000 C   0  0  0  0  0  0  0  0  0  0  0  0
    1.5195    2.7719    0.0000 C   0  0  0  0  0  0  0  0  0  0  0  0
   -3.2562   -3.5901    0.0000 C   0  0  0  0  0  0  0  0  0  0  0  0
    2.4713   -2.8721    0.0000 C   0  0  0  0  0  0  0  0  0  0  0  0
  1 10  2  0  0  0  0
  1 11  2  0  0  0  0
  1 24  1  0  0  0  0
  1 44  1  0  0  0  0
  2 32  1  0  0  0  0
  3 35  1  0  0  0  0
  4 35  1  0  0  0  0
  5 35  1  0  0  0  0
  6 45  1  0  0  0  0
  7 45  1  0  0  0  0
  8 45  1  0  0  0  0
  9 20  1  0  0  0  0
  9 28  1  0  0  0  0
 12 40  1  0  0  0  0
 12 45  1  0  0  0  0
 13 39  1  0  0  0  0
 14 16  1  0  0  0  0
 14 19  1  0  0  0  0
 14 34  1  0  0  0  0
 15 18  1  0  0  0  0
 15 28  2  0  0  0  0
 16 31  2  0  0  0  0
 17 18  1  0  0  0  0
 17 19  1  0  0  0  0
 17 22  2  0  0  0  0
 18 20  2  0  0  0  0
 19 25  2  0  0  0  0
 20 26  1  0  0  0  0
 21 22  1  0  0  0  0
 21 23  1  0  0  0  0
 21 27  2  0  0  0  0
 23 30  2  0  0  0  0
 23 33  1  0  0  0  0
 24 29  2  0  0  0  0
 24 30  1  0  0  0  0
 25 27  1  0  0  0  0
 26 37  2  0  0  0  0
 26 38  1  0  0  0  0
 28 43  1  0  0  0  0
 29 32  1  0  0  0  0
 29 39  1  0  0  0  0
 31 35  1  0  0  0  0
 31 36  1  0  0  0  0
 32 33  2  0  0  0  0
 34 36  2  0  0  0  0
 37 41  1  0  0  0  0
 38 42  2  0  0  0  0
 40 41  2  0  0  0  0
 40 42  1  0  0  0  0
M  END
> <PUBCHEM_COMPOUND_ID_TYPE>
0

> <PUBCHEM_TOTAL_CHARGE>
0

> <PUBCHEM_SUBSTANCE_ID>
310948237

> <PUBCHEM_SUBSTANCE_VERSION>
1

> <PUBCHEM_EXT_DATASOURCE_NAME>
4488

> <PUBCHEM_EXT_DATASOURCE_REGID>
SCHEMBL16126414

> <PUBCHEM_SUBSTANCE_COMMENT>
InChI=1S/C29H20F7N3O5S/c1-15-37-26(27(43-15)16-3-6-19(7-4-16)44-29(34,35)36)20-11-17(5-8-23(20)39-10-9-25(38-39)28(31,32)33)18-12-22(30)21(14-40)24(13-18)45(2,41)42/h3-13,40H,14H2,1-2H3
InChIKey=FCEXOYGJWWWILM-UHFFFAOYSA-N

> <PUBCHEM_SUBSTANCE_SYNONYM>
SCHEMBL16126414

> <PUBCHEM_XREF_EXT_ID>
SCHEMBL16126414

> <PUBCHEM_EXT_DATASOURCE_URL>
https://www.surechembl.org/

> <PUBCHEM_EXT_SUBSTANCE_URL>
https://www.surechembl.org/chemical/SCHEMBL16126414

> <PUBCHEM_CID_ASSOCIATIONS>
117613817  1

> <PUBCHEM_COORDINATE_TYPE>
1
3

$$$$
