310948092
  -OEChem-07211613022D

 45 50  0     0  0  0  0  0  0999 V2000
   -2.7226   -3.1667    0.0000 S   0  0  0  0  0  0  0  0  0  0  0  0
    3.3792   -2.5296    0.0000 F   0  0  0  0  0  0  0  0  0  0  0  0
    2.5489   -3.2825    0.0000 F   0  0  0  0  0  0  0  0  0  0  0  0
    0.1352   -3.1474    0.0000 F   0  0  0  0  0  0  0  0  0  0  0  0
   -1.0427    4.2287    0.0000 F   0  0  0  0  0  0  0  0  0  0  0  0
    0.0579    4.4026    0.0000 F   0  0  0  0  0  0  0  0  0  0  0  0
    0.2317    3.3019    0.0000 F   0  0  0  0  0  0  0  0  0  0  0  0
    0.2124    1.8151    0.0000 O   0  0  0  0  0  0  0  0  0  0  0  0
    2.7226   -1.6413    0.0000 O   0  0  0  0  0  0  0  0  0  0  0  0
    1.7379   -2.5296    0.0000 O   0  0  0  0  0  0  0  0  0  0  0  0
   -3.1281   -2.5103    0.0000 O   0  0  0  0  0  0  0  0  0  0  0  0
   -2.2978   -3.8426    0.0000 O   0  0  0  0  0  0  0  0  0  0  0  0
   -0.5793   -4.4026    0.0000 O   0  0  0  0  0  0  0  0  0  0  0  0
   -1.2938    1.8344    0.0000 N   0  0  0  0  0  0  0  0  0  0  0  0
    1.4289    1.2744    0.0000 N   0  0  0  0  0  0  0  0  0  0  0  0
   -0.6371    2.3171    0.0000 N   0  0  0  0  0  0  0  0  0  0  0  0
    0.1158    1.0041    0.0000 C   0  0  0  0  0  0  0  0  0  0  0  0
   -0.5793    0.5985    0.0000 C   0  0  0  0  0  0  0  0  0  0  0  0
    0.8882    0.6565    0.0000 C   0  0  0  0  0  0  0  0  0  0  0  0
   -1.2938    1.0041    0.0000 C   0  0  0  0  0  0  0  0  0  0  0  0
    1.0620   -0.1158    0.0000 C   0  0  0  0  0  0  0  0  0  0  0  0
   -1.2938   -0.6564    0.0000 C   0  0  0  0  0  0  0  0  0  0  0  0
   -0.5793   -0.2317    0.0000 C   0  0  0  0  0  0  0  0  0  0  0  0
    2.0082   -1.1972    0.0000 C   0  0  0  0  0  0  0  0  0  0  0  0
    1.3903   -1.7764    0.0000 C   0  0  0  0  0  0  0  0  0  0  0  0
   -1.2938   -1.4869    0.0000 C   0  0  0  0  0  0  0  0  0  0  0  0
    1.8344   -0.4056    0.0000 C   0  0  0  0  0  0  0  0  0  0  0  0
    1.0234    1.9889    0.0000 C   0  0  0  0  0  0  0  0  0  0  0  0
    2.5489   -2.4330    0.0000 C   0  0  0  0  0  0  0  0  0  0  0  0
   -1.9889    0.5985    0.0000 C   0  0  0  0  0  0  0  0  0  0  0  0
   -2.0082   -2.7226    0.0000 C   0  0  0  0  0  0  0  0  0  0  0  0
   -1.9889   -0.2317    0.0000 C   0  0  0  0  0  0  0  0  0  0  0  0
    0.4635   -0.6951    0.0000 C   0  0  0  0  0  0  0  0  0  0  0  0
   -1.9889   -1.8923    0.0000 C   0  0  0  0  0  0  0  0  0  0  0  0
   -1.2938   -3.1474    0.0000 C   0  0  0  0  0  0  0  0  0  0  0  0
    0.6178   -1.5062    0.0000 C   0  0  0  0  0  0  0  0  0  0  0  0
   -0.8882    3.1088    0.0000 C   0  0  0  0  0  0  0  0  0  0  0  0
   -0.5793   -1.9116    0.0000 C   0  0  0  0  0  0  0  0  0  0  0  0
   -0.5985   -2.7226    0.0000 C   0  0  0  0  0  0  0  0  0  0  0  0
   -1.9502    2.3171    0.0000 C   0  0  0  0  0  0  0  0  0  0  0  0
   -1.6992    3.1088    0.0000 C   0  0  0  0  0  0  0  0  0  0  0  0
   -0.4056    3.7653    0.0000 C   0  0  0  0  0  0  0  0  0  0  0  0
    1.3710    2.7806    0.0000 C   0  0  0  0  0  0  0  0  0  0  0  0
   -1.2938   -3.9585    0.0000 C   0  0  0  0  0  0  0  0  0  0  0  0
   -3.3792   -3.5916    0.0000 C   0  0  0  0  0  0  0  0  0  0  0  0
  1 11  2  0  0  0  0
  1 12  2  0  0  0  0
  1 31  1  0  0  0  0
  1 45  1  0  0  0  0
  2 29  1  0  0  0  0
  3 29  1  0  0  0  0
  4 39  1  0  0  0  0
  5 42  1  0  0  0  0
  6 42  1  0  0  0  0
  7 42  1  0  0  0  0
  8 17  1  0  0  0  0
  8 28  1  0  0  0  0
  9 24  1  0  0  0  0
  9 29  1  0  0  0  0
 10 25  1  0  0  0  0
 10 29  1  0  0  0  0
 13 44  1  0  0  0  0
 14 16  1  0  0  0  0
 14 20  1  0  0  0  0
 14 40  1  0  0  0  0
 15 19  1  0  0  0  0
 15 28  2  0  0  0  0
 16 37  2  0  0  0  0
 17 18  1  0  0  0  0
 17 19  2  0  0  0  0
 18 20  1  0  0  0  0
 18 23  2  0  0  0  0
 19 21  1  0  0  0  0
 20 30  2  0  0  0  0
 21 27  1  0  0  0  0
 21 33  2  0  0  0  0
 22 23  1  0  0  0  0
 22 26  1  0  0  0  0
 22 32  2  0  0  0  0
 24 25  1  0  0  0  0
 24 27  2  0  0  0  0
 25 36  2  0  0  0  0
 26 34  1  0  0  0  0
 26 38  2  0  0  0  0
 28 43  1  0  0  0  0
 30 32  1  0  0  0  0
 31 34  2  0  0  0  0
 31 35  1  0  0  0  0
 33 36  1  0  0  0  0
 35 39  2  0  0  0  0
 35 44  1  0  0  0  0
 37 41  1  0  0  0  0
 37 42  1  0  0  0  0
 38 39  1  0  0  0  0
 40 41  2  0  0  0  0
M  END
> <PUBCHEM_COMPOUND_ID_TYPE>
0

> <PUBCHEM_TOTAL_CHARGE>
0

> <PUBCHEM_SUBSTANCE_ID>
310948092

> <PUBCHEM_SUBSTANCE_VERSION>
1

> <PUBCHEM_EXT_DATASOURCE_NAME>
4488

> <PUBCHEM_EXT_DATASOURCE_REGID>
SCHEMBL16126268

> <PUBCHEM_SUBSTANCE_COMMENT>
InChI=1S/C29H19F6N3O6S/c1-14-36-26(16-4-6-22-23(11-16)44-29(34,35)43-22)27(42-14)18-9-15(3-5-21(18)38-8-7-25(37-38)28(31,32)33)17-10-20(30)19(13-39)24(12-17)45(2,40)41/h3-12,39H,13H2,1-2H3
InChIKey=ASJYQWSQHARSBL-UHFFFAOYSA-N

> <PUBCHEM_SUBSTANCE_SYNONYM>
SCHEMBL16126268

> <PUBCHEM_XREF_EXT_ID>
SCHEMBL16126268

> <PUBCHEM_EXT_DATASOURCE_URL>
https://www.surechembl.org/

> <PUBCHEM_EXT_SUBSTANCE_URL>
https://www.surechembl.org/chemical/SCHEMBL16126268

> <PUBCHEM_CID_ASSOCIATIONS>
117613711  1

> <PUBCHEM_COORDINATE_TYPE>
1
3

$$$$
