310928711
  -OEChem-07211613022D

 13 14  0     0  0  0  0  0  0999 V2000
   -1.3492   -1.0313    0.0000 O   0  0  0  0  0  0  0  0  0  0  0  0
    0.0797   -1.0313    0.0000 O   0  0  0  0  0  0  0  0  0  0  0  0
   -1.3492    0.6188    0.0000 N   0  0  0  0  0  0  0  0  0  0  0  0
    0.8643    1.6987    0.0000 N   0  0  0  0  0  0  0  0  0  0  0  0
    0.0797    0.6188    0.0000 C   0  0  0  0  0  0  0  0  0  0  0  0
   -0.6348    0.2062    0.0000 C   0  0  0  0  0  0  0  0  0  0  0  0
    0.0797    1.4438    0.0000 C   0  0  0  0  0  0  0  0  0  0  0  0
   -0.6348   -0.6188    0.0000 C   0  0  0  0  0  0  0  0  0  0  0  0
    0.8643    0.3638    0.0000 C   0  0  0  0  0  0  0  0  0  0  0  0
   -0.6348    1.8563    0.0000 C   0  0  0  0  0  0  0  0  0  0  0  0
   -1.3492    1.4437    0.0000 C   0  0  0  0  0  0  0  0  0  0  0  0
    1.3492    1.0313    0.0000 C   0  0  0  0  0  0  0  0  0  0  0  0
   -1.3492   -1.8563    0.0000 C   0  0  0  0  0  0  0  0  0  0  0  0
  1  8  1  0  0  0  0
  1 13  1  0  0  0  0
  2  8  2  0  0  0  0
  3  6  1  0  0  0  0
  3 11  2  0  0  0  0
  4  7  1  0  0  0  0
  4 12  1  0  0  0  0
  5  6  2  0  0  0  0
  5  7  1  0  0  0  0
  5  9  1  0  0  0  0
  6  8  1  0  0  0  0
  7 10  2  0  0  0  0
  9 12  2  0  0  0  0
 10 11  1  0  0  0  0
M  END
> <PUBCHEM_COMPOUND_ID_TYPE>
0

> <PUBCHEM_TOTAL_CHARGE>
0

> <PUBCHEM_SUBSTANCE_ID>
310928711

> <PUBCHEM_SUBSTANCE_VERSION>
1

> <PUBCHEM_EXT_DATASOURCE_NAME>
11752

> <PUBCHEM_EXT_DATASOURCE_REGID>
BD188002

> <PUBCHEM_SUBSTANCE_SYNONYM>
1040682-92-5
Methyl 1H-pyrrolo[3,2-c]pyridine-4-carboxylate

> <PUBCHEM_GENERIC_REGISTRY_NAME>
1040682-92-5

> <PUBCHEM_XREF_EXT_ID>
BD188002

> <PUBCHEM_EXT_DATASOURCE_URL>
http://www.bidepharmatech.com/en/index.html

> <PUBCHEM_EXT_SUBSTANCE_URL>
http://www.bidepharmatech.com/en/goodsview_goodscode_BD188002.html

> <PUBCHEM_CID_ASSOCIATIONS>
26076445  1

> <PUBCHEM_COORDINATE_TYPE>
1
3

$$$$
