310938424
  -OEChem-07211613022D

 33 36  0     0  0  0  0  0  0999 V2000
    9.6426   -1.7473    0.0000 F   0  0  0  0  0  0  0  0  0  0  0  0
    4.6272   -5.0801    0.0000 O   0  0  0  0  0  0  0  0  0  0  0  0
    0.0000   -4.8213    0.0000 O   0  0  0  0  0  0  0  0  0  0  0  0
    7.9924   -1.3914    0.0000 N   0  0  0  0  0  0  0  0  0  0  0  0
    7.7011   -2.7828    0.0000 N   0  0  0  0  0  0  0  0  0  0  0  0
    8.7690   -3.7535    0.0000 N   0  0  0  0  0  0  0  0  0  0  0  0
    7.3775   -4.2065    0.0000 N   0  0  0  0  0  0  0  0  0  0  0  0
    7.9924   -0.0647    0.0000 N   0  0  0  0  0  0  0  0  0  0  0  0
    9.7073    0.0000    0.0000 N   0  0  0  0  0  0  0  0  0  0  0  0
    2.4268   -5.3390    0.0000 N   0  0  0  0  0  0  0  0  0  0  0  0
    8.2512   -2.2003    0.0000 C   0  0  0  0  0  0  0  0  0  0  0  0
    9.0601   -2.3621    0.0000 C   0  0  0  0  0  0  0  0  0  0  0  0
    8.4777   -0.7119    0.0000 C   0  0  0  0  0  0  0  0  0  0  0  0
    7.9277   -3.5917    0.0000 C   0  0  0  0  0  0  0  0  0  0  0  0
    7.2158   -1.1325    0.0000 C   0  0  0  0  0  0  0  0  0  0  0  0
    9.3190   -3.1710    0.0000 C   0  0  0  0  0  0  0  0  0  0  0  0
    6.5686   -4.0447    0.0000 C   0  0  0  0  0  0  0  0  0  0  0  0
    7.2158   -0.3236    0.0000 C   0  0  0  0  0  0  0  0  0  0  0  0
    9.3190   -0.7119    0.0000 C   0  0  0  0  0  0  0  0  0  0  0  0
    5.2096   -4.4654    0.0000 C   0  0  0  0  0  0  0  0  0  0  0  0
    5.9862   -4.6595    0.0000 C   0  0  0  0  0  0  0  0  0  0  0  0
    6.3098   -3.2357    0.0000 C   0  0  0  0  0  0  0  0  0  0  0  0
    5.5008   -3.0740    0.0000 C   0  0  0  0  0  0  0  0  0  0  0  0
    4.9507   -3.6888    0.0000 C   0  0  0  0  0  0  0  0  0  0  0  0
    5.2420   -2.2650    0.0000 C   0  0  0  0  0  0  0  0  0  0  0  0
    3.8182   -4.9183    0.0000 C   0  0  0  0  0  0  0  0  0  0  0  0
    3.2681   -5.5332    0.0000 C   0  0  0  0  0  0  0  0  0  0  0  0
    1.8768   -5.9538    0.0000 C   0  0  0  0  0  0  0  0  0  0  0  0
    2.2003   -4.5625    0.0000 C   0  0  0  0  0  0  0  0  0  0  0  0
    0.8089   -4.9831    0.0000 C   0  0  0  0  0  0  0  0  0  0  0  0
    1.0678   -5.7920    0.0000 C   0  0  0  0  0  0  0  0  0  0  0  0
    1.3914   -4.3683    0.0000 C   0  0  0  0  0  0  0  0  0  0  0  0
    4.4330   -2.1033    0.0000 C   0  0  0  0  0  0  0  0  0  0  0  0
  1 12  1  0  0  0  0
  2 20  1  0  0  0  0
  2 26  1  0  0  0  0
  3 30  1  0  0  0  0
  4 11  1  0  0  0  0
  4 13  1  0  0  0  0
  4 15  1  0  0  0  0
  5 11  2  0  0  0  0
  5 14  1  0  0  0  0
  6 14  2  0  0  0  0
  6 16  1  0  0  0  0
  7 14  1  0  0  0  0
  7 17  1  0  0  0  0
  8 13  2  0  0  0  0
  8 18  1  0  0  0  0
  9 19  3  0  0  0  0
 10 27  1  0  0  0  0
 10 28  1  0  0  0  0
 10 29  1  0  0  0  0
 11 12  1  0  0  0  0
 12 16  2  0  0  0  0
 13 19  1  0  0  0  0
 15 18  2  0  0  0  0
 17 21  2  0  0  0  0
 17 22  1  0  0  0  0
 20 21  1  0  0  0  0
 20 24  2  0  0  0  0
 22 23  2  0  0  0  0
 23 24  1  0  0  0  0
 23 25  1  0  0  0  0
 25 33  1  0  0  0  0
 26 27  1  0  0  0  0
 28 31  1  0  0  0  0
 29 32  1  0  0  0  0
 30 31  1  0  0  0  0
 30 32  1  0  0  0  0
M  END
> <PUBCHEM_COMPOUND_ID_TYPE>
0

> <PUBCHEM_TOTAL_CHARGE>
0

> <PUBCHEM_SUBSTANCE_ID>
310938424

> <PUBCHEM_SUBSTANCE_VERSION>
1

> <PUBCHEM_EXT_DATASOURCE_NAME>
4488

> <PUBCHEM_EXT_DATASOURCE_REGID>
SCHEMBL16116317

> <PUBCHEM_SUBSTANCE_COMMENT>
InChI=1S/C23H26FN7O2/c1-2-16-11-17(13-19(12-16)33-10-9-30-6-3-18(32)4-7-30)28-23-27-15-20(24)22(29-23)31-8-5-26-21(31)14-25/h5,8,11-13,15,18,32H,2-4,6-7,9-10H2,1H3,(H,27,28,29)
InChIKey=GTMBPEYMUKOHBX-UHFFFAOYSA-N

> <PUBCHEM_SUBSTANCE_SYNONYM>
SCHEMBL16116317

> <PUBCHEM_XREF_EXT_ID>
SCHEMBL16116317

> <PUBCHEM_EXT_DATASOURCE_URL>
https://www.surechembl.org/

> <PUBCHEM_EXT_SUBSTANCE_URL>
https://www.surechembl.org/chemical/SCHEMBL16116317

> <PUBCHEM_CID_ASSOCIATIONS>
86300532  1

> <PUBCHEM_COORDINATE_TYPE>
1
3

$$$$
