310947705
  -OEChem-07211613022D

 44 48  0     1  0  0  0  0  0999 V2000
   -4.3090   -2.2930    0.0000 Cl  0  0  0  0  0  0  0  0  0  0  0  0
    0.9837   -3.5400    0.0000 Cl  0  0  0  0  0  0  0  0  0  0  0  0
   -2.6047    1.8774    0.0000 S   0  0  0  0  0  0  0  0  0  0  0  0
    2.4523    0.5473    0.0000 S   0  0  0  0  0  0  0  0  0  0  0  0
   -4.0318   -0.6166    0.0000 F   0  0  0  0  0  0  0  0  0  0  0  0
    0.2632   -0.6305    0.0000 O   0  0  0  0  0  0  0  0  0  0  0  0
   -0.4572    1.4617    0.0000 O   0  0  0  0  0  0  0  0  0  0  0  0
   -3.3114    2.2930    0.0000 O   0  0  0  0  0  0  0  0  0  0  0  0
   -3.1867    1.2816    0.0000 O   0  0  0  0  0  0  0  0  0  0  0  0
    4.1566    0.7690    0.0000 O   0  0  0  0  0  0  0  0  0  0  0  0
    4.3090   -0.6581    0.0000 O   0  0  0  0  0  0  0  0  0  0  0  0
   -1.1639    0.2147    0.0000 N   0  0  0  0  0  0  0  0  0  0  0  0
    1.7874   -0.6166    0.0000 N   0  0  0  0  0  0  0  0  0  0  0  0
   -1.1639   -0.6027    0.0000 C   0  0  3  0  0  0  0  0  0  0  0  0
    0.2494    0.2147    0.0000 C   0  0  3  0  0  0  0  0  0  0  0  0
   -0.4711    0.6166    0.0000 C   0  0  0  0  0  0  0  0  0  0  0  0
   -0.4572   -1.0322    0.0000 C   0  0  3  0  0  0  0  0  0  0  0  0
   -1.8843    0.6442    0.0000 C   0  0  3  0  0  0  0  0  0  0  0  0
   -1.8982   -1.0322    0.0000 C   0  0  0  0  0  0  0  0  0  0  0  0
   -2.6602    0.1870    0.0000 C   0  0  0  0  0  0  0  0  0  0  0  0
   -0.4434   -1.8774    0.0000 C   0  0  0  0  0  0  0  0  0  0  0  0
    0.9699    0.6166    0.0000 C   0  0  0  0  0  0  0  0  0  0  0  0
   -1.8843    1.4617    0.0000 C   0  0  0  0  0  0  0  0  0  0  0  0
   -3.4084    0.2147    0.0000 C   0  0  0  0  0  0  0  0  0  0  0  0
   -3.0066   -0.4780    0.0000 C   0  0  0  0  0  0  0  0  0  0  0  0
    0.4849    1.0184    0.0000 C   0  0  0  0  0  0  0  0  0  0  0  0
    1.7042    0.2147    0.0000 C   0  0  0  0  0  0  0  0  0  0  0  0
   -2.6047   -0.6305    0.0000 C   0  0  0  0  0  0  0  0  0  0  0  0
   -1.8843   -1.8636    0.0000 C   0  0  0  0  0  0  0  0  0  0  0  0
   -2.6047    2.7364    0.0000 C   0  0  0  0  0  0  0  0  0  0  0  0
    0.2632   -2.2930    0.0000 C   0  0  0  0  0  0  0  0  0  0  0  0
   -1.1639   -2.2930    0.0000 C   0  0  0  0  0  0  0  0  0  0  0  0
   -3.3114   -1.0322    0.0000 C   0  0  0  0  0  0  0  0  0  0  0  0
   -3.3114   -1.8636    0.0000 C   0  0  0  0  0  0  0  0  0  0  0  0
   -2.5910   -2.2792    0.0000 C   0  0  0  0  0  0  0  0  0  0  0  0
    0.2494   -3.1105    0.0000 C   0  0  0  0  0  0  0  0  0  0  0  0
    2.9927   -0.0623    0.0000 C   0  0  0  0  0  0  0  0  0  0  0  0
   -1.1639   -3.1244    0.0000 C   0  0  0  0  0  0  0  0  0  0  0  0
    2.5910   -0.7829    0.0000 C   0  0  0  0  0  0  0  0  0  0  0  0
   -0.4434   -3.5261    0.0000 C   0  0  0  0  0  0  0  0  0  0  0  0
   -3.3114    3.1521    0.0000 C   0  0  0  0  0  0  0  0  0  0  0  0
   -2.8265    3.5400    0.0000 C   0  0  0  0  0  0  0  0  0  0  0  0
   -1.8704    3.1521    0.0000 C   0  0  0  0  0  0  0  0  0  0  0  0
    3.8102    0.0069    0.0000 C   0  0  0  0  0  0  0  0  0  0  0  0
  1 34  1  0  0  0  0
  2 36  1  0  0  0  0
  3  8  2  0  0  0  0
  3  9  2  0  0  0  0
  3 23  1  0  0  0  0
  3 30  1  0  0  0  0
  4 27  1  0  0  0  0
  4 37  1  0  0  0  0
  5 33  1  0  0  0  0
  6 15  1  0  0  0  0
 17  6  1  6  0  0  0
  7 16  2  0  0  0  0
 10 44  2  0  0  0  0
 11 44  1  0  0  0  0
 14 12  1  1  0  0  0
 12 16  1  0  0  0  0
 12 18  1  0  0  0  0
 13 27  2  0  0  0  0
 13 39  1  0  0  0  0
 14 17  1  0  0  0  0
 14 19  1  0  0  0  0
 15 16  1  0  0  0  0
 15 22  1  6  0  0  0
 15 26  1  1  0  0  0
 17 21  1  0  0  0  0
 18 20  1  0  0  0  0
 18 23  1  1  0  0  0
 19 28  2  0  0  0  0
 19 29  1  0  0  0  0
 20 24  1  0  0  0  0
 20 25  1  0  0  0  0
 21 31  1  0  0  0  0
 21 32  2  0  0  0  0
 22 27  1  0  0  0  0
 24 25  1  0  0  0  0
 28 33  1  0  0  0  0
 29 35  2  0  0  0  0
 30 41  1  0  0  0  0
 30 42  1  0  0  0  0
 30 43  1  0  0  0  0
 31 36  2  0  0  0  0
 32 38  1  0  0  0  0
 33 34  2  0  0  0  0
 34 35  1  0  0  0  0
 36 40  1  0  0  0  0
 37 39  2  0  0  0  0
 37 44  1  0  0  0  0
 38 40  2  0  0  0  0
M  END
> <PUBCHEM_COMPOUND_ID_TYPE>
0

> <PUBCHEM_TOTAL_CHARGE>
0

> <PUBCHEM_SUBSTANCE_ID>
310947705

> <PUBCHEM_SUBSTANCE_VERSION>
1

> <PUBCHEM_EXT_DATASOURCE_NAME>
4488

> <PUBCHEM_EXT_DATASOURCE_REGID>
SCHEMBL16125876

> <PUBCHEM_SUBSTANCE_COMMENT>
InChI=1S/C31H33Cl2FN2O6S2/c1-30(2,3)44(40,41)16-23(17-8-9-17)36-26(18-10-11-21(33)22(34)13-18)27(19-6-5-7-20(32)12-19)42-31(4,29(36)39)14-25-35-15-24(43-25)28(37)38/h5-7,10-13,15,17,23,26-27H,8-9,14,16H2,1-4H3,(H,37,38)/t23-,26-,27-,31+/m1/s1
InChIKey=GOYFACGYNALWDU-PHSVCASQSA-N

> <PUBCHEM_SUBSTANCE_SYNONYM>
SCHEMBL16125876

> <PUBCHEM_XREF_EXT_ID>
SCHEMBL16125876

> <PUBCHEM_EXT_DATASOURCE_URL>
https://www.surechembl.org/

> <PUBCHEM_EXT_SUBSTANCE_URL>
https://www.surechembl.org/chemical/SCHEMBL16125876

> <PUBCHEM_CID_ASSOCIATIONS>
86294332  1

> <PUBCHEM_COORDINATE_TYPE>
1
3

> <PUBCHEM_BONDANNOTATIONS>
14  12  5
15  22  6
15  26  5
18  23  5
17  6  6

$$$$
