310949782
  -OEChem-07211613022D

 14 15  0     1  0  0  0  0  0999 V2000
   -2.2290   -1.3387    0.0000 N   0  0  0  0  0  0  0  0  0  0  0  0
   -0.0872   -0.0810    0.0000 C   0  0  3  0  0  0  0  0  0  0  0  0
   -0.0872   -0.9153    0.0000 C   0  0  0  0  0  0  0  0  0  0  0  0
    0.6350    0.3176    0.0000 C   0  0  3  0  0  0  0  0  0  0  0  0
   -0.7969    0.3176    0.0000 C   0  0  0  0  0  0  0  0  0  0  0  0
    1.3574   -0.0810    0.0000 C   0  0  3  0  0  0  0  0  0  0  0  0
   -0.7969   -1.3262    0.0000 C   0  0  0  0  0  0  0  0  0  0  0  0
    0.6475   -1.3262    0.0000 C   0  0  0  0  0  0  0  0  0  0  0  0
   -1.5193   -0.9153    0.0000 C   0  0  0  0  0  0  0  0  0  0  0  0
    1.3574   -0.9153    0.0000 C   0  0  0  0  0  0  0  0  0  0  0  0
   -1.5068   -0.0934    0.0000 C   0  0  0  0  0  0  0  0  0  0  0  0
   -0.0747    0.7285    0.0000 C   0  0  0  0  0  0  0  0  0  0  0  0
    0.6475    1.3387    0.0000 C   0  0  0  0  0  0  0  0  0  0  0  0
    2.2290    0.3176    0.0000 C   0  0  0  0  0  0  0  0  0  0  0  0
  1  9  2  3  0  0  0
  2  3  1  0  0  0  0
  2  4  1  0  0  0  0
  2  5  1  0  0  0  0
  2 12  1  1  0  0  0
  3  7  2  0  0  0  0
  3  8  1  0  0  0  0
  4  6  1  0  0  0  0
  4 13  1  0  0  0  0
  5 11  2  0  0  0  0
  6 10  1  0  0  0  0
  6 14  1  0  0  0  0
  7  9  1  0  0  0  0
  8 10  2  0  0  0  0
  9 11  1  0  0  0  0
M  END
> <PUBCHEM_COMPOUND_ID_TYPE>
0

> <PUBCHEM_TOTAL_CHARGE>
0

> <PUBCHEM_SUBSTANCE_ID>
310949782

> <PUBCHEM_SUBSTANCE_VERSION>
1

> <PUBCHEM_EXT_DATASOURCE_NAME>
4488

> <PUBCHEM_EXT_DATASOURCE_REGID>
SCHEMBL16127980

> <PUBCHEM_SUBSTANCE_COMMENT>
InChI=1S/C13H17N/c1-9-4-5-11-8-12(14)6-7-13(11,3)10(9)2/h4-10,14H,1-3H3/t9?,10?,13-/m1/s1
InChIKey=SDTNWNRXZZVPAG-SRHKJQAYSA-N

> <PUBCHEM_SUBSTANCE_SYNONYM>
SCHEMBL16127980

> <PUBCHEM_XREF_EXT_ID>
SCHEMBL16127980

> <PUBCHEM_EXT_DATASOURCE_URL>
https://www.surechembl.org/

> <PUBCHEM_EXT_SUBSTANCE_URL>
https://www.surechembl.org/chemical/SCHEMBL16127980

> <PUBCHEM_CID_ASSOCIATIONS>
117615106  1

> <PUBCHEM_COORDINATE_TYPE>
1
3

> <PUBCHEM_BONDANNOTATIONS>
2  12  5

$$$$
