310934090
  -OEChem-07211613022D

 59 65  0     0  0  0  0  0  0999 V2000
    1.6077    3.0545    0.0000 S   0  0  0  0  0  0  0  0  0  0  0  0
    3.8685    4.1407    0.0000 S   0  0  0  0  0  0  0  0  0  0  0  0
    9.0689    2.3176    0.0000 P   0  0  0  0  0  0  0  0  0  0  0  0
    9.5539    2.9850    0.0000 O   0  0  0  0  0  0  0  0  0  0  0  0
    8.7334    3.0712    0.0000 O   0  0  0  0  0  0  0  0  0  0  0  0
    9.4045    1.5639    0.0000 O   0  0  0  0  0  0  0  0  0  0  0  0
    3.1540    3.7282    0.0000 N   0  0  0  0  0  0  0  0  0  0  0  0
    4.4816    3.5887    0.0000 N   0  0  0  0  0  0  0  0  0  0  0  0
   -1.6517    5.0911    0.0000 N   0  0  0  0  0  0  0  0  0  0  0  0
    7.5773    3.9112    0.0000 N   0  0  0  0  0  0  0  0  0  0  0  0
    2.8407    2.2538    0.0000 C   0  0  0  0  0  0  0  0  0  0  0  0
    3.3256    2.9213    0.0000 C   0  0  0  0  0  0  0  0  0  0  0  0
    4.1460    2.8350    0.0000 C   0  0  0  0  0  0  0  0  0  0  0  0
    2.0202    2.3401    0.0000 C   0  0  0  0  0  0  0  0  0  0  0  0
    4.4816    2.0814    0.0000 C   0  0  0  0  0  0  0  0  0  0  0  0
    0.8007    2.8830    0.0000 C   0  0  0  0  0  0  0  0  0  0  0  0
    0.7145    2.0625    0.0000 C   0  0  0  0  0  0  0  0  0  0  0  0
    1.4681    1.7270    0.0000 C   0  0  0  0  0  0  0  0  0  0  0  0
    3.1762    1.5001    0.0000 C   0  0  0  0  0  0  0  0  0  0  0  0
    5.3021    1.9951    0.0000 C   0  0  0  0  0  0  0  0  0  0  0  0
    3.9967    1.4139    0.0000 C   0  0  0  0  0  0  0  0  0  0  0  0
    0.1876    3.4350    0.0000 C   0  0  0  0  0  0  0  0  0  0  0  0
    0.0000    1.6500    0.0000 C   0  0  0  0  0  0  0  0  0  0  0  0
   -1.0386    4.5391    0.0000 C   0  0  0  0  0  0  0  0  0  0  0  0
    0.3591    4.2420    0.0000 C   0  0  0  0  0  0  0  0  0  0  0  0
   -0.5970    3.1801    0.0000 C   0  0  0  0  0  0  0  0  0  0  0  0
    5.7870    2.6625    0.0000 C   0  0  0  0  0  0  0  0  0  0  0  0
    5.6376    1.2414    0.0000 C   0  0  0  0  0  0  0  0  0  0  0  0
   -0.2540    4.7940    0.0000 C   0  0  0  0  0  0  0  0  0  0  0  0
   -1.2101    3.7321    0.0000 C   0  0  0  0  0  0  0  0  0  0  0  0
    6.9431    1.8226    0.0000 C   0  0  0  0  0  0  0  0  0  0  0  0
    6.6075    2.5763    0.0000 C   0  0  0  0  0  0  0  0  0  0  0  0
    6.4582    1.1552    0.0000 C   0  0  0  0  0  0  0  0  0  0  0  0
   -1.4802    5.8981    0.0000 C   0  0  0  0  0  0  0  0  0  0  0  0
   -2.4363    4.8362    0.0000 C   0  0  0  0  0  0  0  0  0  0  0  0
   -0.7145    2.0625    0.0000 C   0  0  0  0  0  0  0  0  0  0  0  0
    7.7636    1.7364    0.0000 C   0  0  0  0  0  0  0  0  0  0  0  0
    8.2485    2.4038    0.0000 C   0  0  0  0  0  0  0  0  0  0  0  0
   -0.6955    6.1530    0.0000 C   0  0  0  0  0  0  0  0  0  0  0  0
   -3.0494    5.3882    0.0000 C   0  0  0  0  0  0  0  0  0  0  0  0
   -2.0933    6.4502    0.0000 C   0  0  0  0  0  0  0  0  0  0  0  0
   -2.6078    4.0292    0.0000 C   0  0  0  0  0  0  0  0  0  0  0  0
   -1.4290    1.6500    0.0000 C   0  0  0  0  0  0  0  0  0  0  0  0
    7.9129    3.1575    0.0000 C   0  0  0  0  0  0  0  0  0  0  0  0
   -0.5240    6.9600    0.0000 C   0  0  0  0  0  0  0  0  0  0  0  0
   -3.8340    5.1333    0.0000 C   0  0  0  0  0  0  0  0  0  0  0  0
   -1.9217    7.2571    0.0000 C   0  0  0  0  0  0  0  0  0  0  0  0
   -3.3925    3.7743    0.0000 C   0  0  0  0  0  0  0  0  0  0  0  0
   -1.1371    7.5120    0.0000 C   0  0  0  0  0  0  0  0  0  0  0  0
   -4.0056    4.3263    0.0000 C   0  0  0  0  0  0  0  0  0  0  0  0
   -2.1434    2.0625    0.0000 C   0  0  0  0  0  0  0  0  0  0  0  0
   10.3744    2.8988    0.0000 C   0  0  0  0  0  0  0  0  0  0  0  0
    9.2183    3.7387    0.0000 C   0  0  0  0  0  0  0  0  0  0  0  0
   -2.8579    1.6500    0.0000 C   0  0  0  0  0  0  0  0  0  0  0  0
   10.8593    3.5662    0.0000 C   0  0  0  0  0  0  0  0  0  0  0  0
    8.8828    4.4924    0.0000 C   0  0  0  0  0  0  0  0  0  0  0  0
   -3.5724    2.0625    0.0000 C   0  0  0  0  0  0  0  0  0  0  0  0
   -4.2868    1.6500    0.0000 C   0  0  0  0  0  0  0  0  0  0  0  0
   -5.0013    2.0625    0.0000 C   0  0  0  0  0  0  0  0  0  0  0  0
  1 14  1  0  0  0  0
  1 16  1  0  0  0  0
  2  7  1  0  0  0  0
  2  8  1  0  0  0  0
  3  4  1  0  0  0  0
  3  5  1  0  0  0  0
  3  6  2  0  0  0  0
  3 38  1  0  0  0  0
  4 52  1  0  0  0  0
  5 53  1  0  0  0  0
  7 12  2  0  0  0  0
  8 13  2  0  0  0  0
  9 24  1  0  0  0  0
  9 34  1  0  0  0  0
  9 35  1  0  0  0  0
 10 44  3  0  0  0  0
 11 12  1  0  0  0  0
 11 14  1  0  0  0  0
 11 19  2  0  0  0  0
 12 13  1  0  0  0  0
 13 15  1  0  0  0  0
 14 18  2  0  0  0  0
 15 20  1  0  0  0  0
 15 21  2  0  0  0  0
 16 17  2  0  0  0  0
 16 22  1  0  0  0  0
 17 18  1  0  0  0  0
 17 23  1  0  0  0  0
 19 21  1  0  0  0  0
 20 27  2  0  0  0  0
 20 28  1  0  0  0  0
 22 25  2  0  0  0  0
 22 26  1  0  0  0  0
 23 36  1  0  0  0  0
 24 29  2  0  0  0  0
 24 30  1  0  0  0  0
 25 29  1  0  0  0  0
 26 30  2  0  0  0  0
 27 32  1  0  0  0  0
 28 33  2  0  0  0  0
 31 32  2  0  0  0  0
 31 33  1  0  0  0  0
 31 37  1  0  0  0  0
 34 39  2  0  0  0  0
 34 41  1  0  0  0  0
 35 40  2  0  0  0  0
 35 42  1  0  0  0  0
 36 43  1  0  0  0  0
 37 38  2  3  0  0  0
 38 44  1  0  0  0  0
 39 45  1  0  0  0  0
 40 46  1  0  0  0  0
 41 47  2  0  0  0  0
 42 48  2  0  0  0  0
 43 51  1  0  0  0  0
 45 49  2  0  0  0  0
 46 50  2  0  0  0  0
 47 49  1  0  0  0  0
 48 50  1  0  0  0  0
 51 54  1  0  0  0  0
 52 55  1  0  0  0  0
 53 56  1  0  0  0  0
 54 57  1  0  0  0  0
 57 58  1  0  0  0  0
 58 59  1  0  0  0  0
M  END
> <PUBCHEM_COMPOUND_ID_TYPE>
0

> <PUBCHEM_TOTAL_CHARGE>
0

> <PUBCHEM_SUBSTANCE_ID>
310934090

> <PUBCHEM_SUBSTANCE_VERSION>
1

> <PUBCHEM_EXT_DATASOURCE_NAME>
4488

> <PUBCHEM_EXT_DATASOURCE_REGID>
SCHEMBL16111536

> <PUBCHEM_SUBSTANCE_COMMENT>
InChI=1S/C49H49N4O3PS2/c1-4-7-8-9-10-13-18-39-34-46(58-49(39)38-27-29-42(30-28-38)53(40-19-14-11-15-20-40)41-21-16-12-17-22-41)45-32-31-44(47-48(45)52-59-51-47)37-25-23-36(24-26-37)33-43(35-50)57(54,55-5-2)56-6-3/h11-12,14-17,19-34H,4-10,13,18H2,1-3H3/b43-33+
InChIKey=QJMKSMFTBOIDPC-FXLOMAGBSA-N

> <PUBCHEM_SUBSTANCE_SYNONYM>
SCHEMBL16111536

> <PUBCHEM_XREF_EXT_ID>
SCHEMBL16111536

> <PUBCHEM_EXT_DATASOURCE_URL>
https://www.surechembl.org/

> <PUBCHEM_EXT_SUBSTANCE_URL>
https://www.surechembl.org/chemical/SCHEMBL16111536

> <PUBCHEM_CID_ASSOCIATIONS>
117602375  1

> <PUBCHEM_COORDINATE_TYPE>
1
3

> <PUBCHEM_BONDANNOTATIONS>
37  38  1

$$$$
