310933933
  -OEChem-07211613022D

 23 25  0     0  0  0  0  0  0999 V2000
    6.5088   -3.8596    0.0000 S   0  0  0  0  0  0  0  0  0  0  0  0
    3.5627   -1.6671    0.0000 O   0  0  0  0  0  0  0  0  0  0  0  0
    3.6084   -3.1288    0.0000 O   0  0  0  0  0  0  0  0  0  0  0  0
    2.7862   -4.5676    0.0000 O   0  0  0  0  0  0  0  0  0  0  0  0
    4.4305   -3.1288    0.0000 N   0  0  0  0  0  0  0  0  0  0  0  0
    2.9461   -1.0962    0.0000 N   0  0  0  0  0  0  0  0  0  0  0  0
    3.6084   -4.5676    0.0000 N   0  0  0  0  0  0  0  0  0  0  0  0
    4.8416   -3.8596    0.0000 C   0  0  0  0  0  0  0  0  0  0  0  0
    4.0194   -3.8596    0.0000 C   0  0  0  0  0  0  0  0  0  0  0  0
    5.2755   -4.5676    0.0000 C   0  0  0  0  0  0  0  0  0  0  0  0
    5.2755   -3.1516    0.0000 C   0  0  0  0  0  0  0  0  0  0  0  0
    3.2201   -2.3980    0.0000 C   0  0  0  0  0  0  0  0  0  0  0  0
    2.2381   -1.5073    0.0000 C   0  0  0  0  0  0  0  0  0  0  0  0
    3.7911   -3.2887    0.0000 C   0  0  0  0  0  0  0  0  0  0  0  0
    2.3980   -2.3295    0.0000 C   0  0  0  0  0  0  0  0  0  0  0  0
    1.4844   -1.1647    0.0000 C   0  0  0  0  0  0  0  0  0  0  0  0
    6.0748   -4.5676    0.0000 C   0  0  0  0  0  0  0  0  0  0  0  0
    6.0748   -3.1516    0.0000 C   0  0  0  0  0  0  0  0  0  0  0  0
    0.8222   -1.6215    0.0000 C   0  0  0  0  0  0  0  0  0  0  0  0
    1.3931   -0.3426    0.0000 C   0  0  0  0  0  0  0  0  0  0  0  0
    0.0685   -1.2789    0.0000 C   0  0  0  0  0  0  0  0  0  0  0  0
    0.6851    0.0000    0.0000 C   0  0  0  0  0  0  0  0  0  0  0  0
    0.0000   -0.4567    0.0000 C   0  0  0  0  0  0  0  0  0  0  0  0
  1 17  1  0  0  0  0
  1 18  1  0  0  0  0
  2  6  1  0  0  0  0
  2 12  1  0  0  0  0
  3  9  2  0  0  0  0
  4  7  1  0  0  0  0
  5  8  1  0  0  0  0
  5 14  1  0  0  0  0
  6 13  2  0  0  0  0
  7  9  1  0  0  0  0
  8  9  1  0  0  0  0
  8 10  1  0  0  0  0
  8 11  1  0  0  0  0
 10 17  1  0  0  0  0
 11 18  1  0  0  0  0
 12 14  1  0  0  0  0
 12 15  2  0  0  0  0
 13 15  1  0  0  0  0
 13 16  1  0  0  0  0
 16 19  2  0  0  0  0
 16 20  1  0  0  0  0
 19 21  1  0  0  0  0
 20 22  2  0  0  0  0
 21 23  2  0  0  0  0
 22 23  1  0  0  0  0
M  END
> <PUBCHEM_COMPOUND_ID_TYPE>
0

> <PUBCHEM_TOTAL_CHARGE>
0

> <PUBCHEM_SUBSTANCE_ID>
310933933

> <PUBCHEM_SUBSTANCE_VERSION>
1

> <PUBCHEM_EXT_DATASOURCE_NAME>
4488

> <PUBCHEM_EXT_DATASOURCE_REGID>
SCHEMBL16111372

> <PUBCHEM_SUBSTANCE_COMMENT>
InChI=1S/C16H19N3O3S/c20-15(18-21)16(6-8-23-9-7-16)17-11-13-10-14(19-22-13)12-4-2-1-3-5-12/h1-5,10,17,21H,6-9,11H2,(H,18,20)
InChIKey=UUXPTUPSKNLEOB-UHFFFAOYSA-N

> <PUBCHEM_SUBSTANCE_SYNONYM>
SCHEMBL16111372

> <PUBCHEM_XREF_EXT_ID>
SCHEMBL16111372

> <PUBCHEM_EXT_DATASOURCE_URL>
https://www.surechembl.org/

> <PUBCHEM_EXT_SUBSTANCE_URL>
https://www.surechembl.org/chemical/SCHEMBL16111372

> <PUBCHEM_CID_ASSOCIATIONS>
117602256  1

> <PUBCHEM_COORDINATE_TYPE>
1
3

$$$$
