310942517
  -OEChem-07211613022D

 18 19  0     1  0  0  0  0  0999 V2000
   -0.4733   -0.1923    0.0000 O   0  0  0  0  0  0  0  0  0  0  0  0
    3.1944   -1.5972    0.0000 O   0  0  0  0  0  0  0  0  0  0  0  0
   -0.0887   -1.4640    0.0000 O   0  0  0  0  0  0  0  0  0  0  0  0
    1.4640   -0.5620    0.0000 N   0  0  0  0  0  0  0  0  0  0  0  0
    2.7063   -0.2958    0.0000 C   0  0  3  0  0  0  0  0  0  0  0  0
    2.5732   -1.0796    0.0000 C   0  0  3  0  0  0  0  0  0  0  0  0
    1.9817    0.0148    0.0000 C   0  0  0  0  0  0  0  0  0  0  0  0
    1.8486   -1.2126    0.0000 C   0  0  0  0  0  0  0  0  0  0  0  0
    0.0739   -0.7690    0.0000 C   0  0  0  0  0  0  0  0  0  0  0  0
    3.3570    0.0887    0.0000 C   0  0  0  0  0  0  0  0  0  0  0  0
   -1.3458   -0.4141    0.0000 C   0  0  0  0  0  0  0  0  0  0  0  0
   -1.9225    0.1775    0.0000 C   0  0  0  0  0  0  0  0  0  0  0  0
   -1.7155    1.0204    0.0000 C   0  0  0  0  0  0  0  0  0  0  0  0
   -2.7507   -0.0444    0.0000 C   0  0  0  0  0  0  0  0  0  0  0  0
    3.2831    0.8725    0.0000 C   0  0  0  0  0  0  0  0  0  0  0  0
   -2.3218    1.5972    0.0000 C   0  0  0  0  0  0  0  0  0  0  0  0
   -3.3570    0.5472    0.0000 C   0  0  0  0  0  0  0  0  0  0  0  0
   -3.1499    1.3458    0.0000 C   0  0  0  0  0  0  0  0  0  0  0  0
  1  9  1  0  0  0  0
  1 11  1  0  0  0  0
  2  6  1  0  0  0  0
  3  9  2  0  0  0  0
  4  7  1  0  0  0  0
  4  8  1  0  0  0  0
  4  9  1  0  0  0  0
  5  6  1  0  0  0  0
  5  7  1  0  0  0  0
  5 10  1  1  0  0  0
  6  8  1  0  0  0  0
 10 15  2  0  0  0  0
 11 12  1  0  0  0  0
 12 13  2  0  0  0  0
 12 14  1  0  0  0  0
 13 16  1  0  0  0  0
 14 17  2  0  0  0  0
 16 18  2  0  0  0  0
 17 18  1  0  0  0  0
M  END
> <PUBCHEM_COMPOUND_ID_TYPE>
0

> <PUBCHEM_TOTAL_CHARGE>
0

> <PUBCHEM_SUBSTANCE_ID>
310942517

> <PUBCHEM_SUBSTANCE_VERSION>
1

> <PUBCHEM_EXT_DATASOURCE_NAME>
4488

> <PUBCHEM_EXT_DATASOURCE_REGID>
SCHEMBL16120553

> <PUBCHEM_SUBSTANCE_COMMENT>
InChI=1S/C14H17NO3/c1-2-12-8-15(9-13(12)16)14(17)18-10-11-6-4-3-5-7-11/h2-7,12-13,16H,1,8-10H2/t12-,13?/m1/s1
InChIKey=SURBGBXZQCEZPR-PZORYLMUSA-N

> <PUBCHEM_SUBSTANCE_SYNONYM>
SCHEMBL16120553

> <PUBCHEM_XREF_EXT_ID>
SCHEMBL16120553

> <PUBCHEM_EXT_DATASOURCE_URL>
https://www.surechembl.org/

> <PUBCHEM_EXT_SUBSTANCE_URL>
https://www.surechembl.org/chemical/SCHEMBL16120553

> <PUBCHEM_CID_ASSOCIATIONS>
117609081  1

> <PUBCHEM_COORDINATE_TYPE>
1
3

> <PUBCHEM_BONDANNOTATIONS>
6  2  3
5  10  5

$$$$
