310940211
  -OEChem-07211613022D

 29 31  0     0  0  0  0  0  0999 V2000
   -1.1453   -0.9274    0.0000 S   0  0  0  0  0  0  0  0  0  0  0  0
   -1.1577    2.3963    0.0000 O   0  0  0  0  0  0  0  0  0  0  0  0
   -0.7219   -2.1971    0.0000 C   0  0  0  0  0  0  0  0  0  0  0  0
   -0.4731   -1.4129    0.0000 C   0  0  0  0  0  0  0  0  0  0  0  0
   -1.5685   -2.1846    0.0000 C   0  0  0  0  0  0  0  0  0  0  0  0
   -1.1453   -0.0809    0.0000 C   0  0  0  0  0  0  0  0  0  0  0  0
   -1.1453    1.5623    0.0000 C   0  0  0  0  0  0  0  0  0  0  0  0
   -0.4232    1.1639    0.0000 C   0  0  0  0  0  0  0  0  0  0  0  0
   -1.8673    1.1514    0.0000 C   0  0  0  0  0  0  0  0  0  0  0  0
   -1.8175   -1.4253    0.0000 C   0  0  0  0  0  0  0  0  0  0  0  0
   -0.4232    0.3299    0.0000 C   0  0  0  0  0  0  0  0  0  0  0  0
   -1.8548    0.3299    0.0000 C   0  0  0  0  0  0  0  0  0  0  0  0
   -0.1618   -2.8071    0.0000 C   0  0  0  0  0  0  0  0  0  0  0  0
    0.3362   -1.2511    0.0000 C   0  0  0  0  0  0  0  0  0  0  0  0
   -2.1163   -2.8071    0.0000 C   0  0  0  0  0  0  0  0  0  0  0  0
    0.6349   -2.6453    0.0000 C   0  0  0  0  0  0  0  0  0  0  0  0
    0.8963   -1.8486    0.0000 C   0  0  0  0  0  0  0  0  0  0  0  0
   -2.6266   -1.2511    0.0000 C   0  0  0  0  0  0  0  0  0  0  0  0
   -2.9129   -2.6453    0.0000 C   0  0  0  0  0  0  0  0  0  0  0  0
   -3.1744   -1.8611    0.0000 C   0  0  0  0  0  0  0  0  0  0  0  0
    0.2988    1.5623    0.0000 C   0  0  0  0  0  0  0  0  0  0  0  0
   -2.5768    1.5499    0.0000 C   0  0  0  0  0  0  0  0  0  0  0  0
   -1.3444   -1.0643    0.0000 C   0  0  0  0  0  0  0  0  0  0  0  0
   -0.4357    2.8071    0.0000 C   0  0  0  0  0  0  0  0  0  0  0  0
    0.2988    2.3963    0.0000 C   0  0  0  0  0  0  0  0  0  0  0  0
    1.0083    2.8071    0.0000 C   0  0  0  0  0  0  0  0  0  0  0  0
    1.7428    2.3963    0.0000 C   0  0  0  0  0  0  0  0  0  0  0  0
    2.4399    2.8071    0.0000 C   0  0  0  0  0  0  0  0  0  0  0  0
    3.1744    2.3963    0.0000 C   0  0  0  0  0  0  0  0  0  0  0  0
  1  4  1  0  0  0  0
  1  6  1  0  0  0  0
  2  7  1  0  0  0  0
  2 24  1  0  0  0  0
  3  4  2  0  0  0  0
  3  5  1  0  0  0  0
  3 13  1  0  0  0  0
  4 14  1  0  0  0  0
  5 10  2  0  0  0  0
  5 15  1  0  0  0  0
  6 11  2  0  0  0  0
  6 12  1  0  0  0  0
  7  8  2  0  0  0  0
  7  9  1  0  0  0  0
  8 11  1  0  0  0  0
  8 21  1  0  0  0  0
  9 12  2  0  0  0  0
  9 22  1  0  0  0  0
 10 18  1  0  0  0  0
 10 23  1  0  0  0  0
 13 16  2  0  0  0  0
 14 17  2  0  0  0  0
 15 19  2  0  0  0  0
 16 17  1  0  0  0  0
 18 20  2  0  0  0  0
 19 20  1  0  0  0  0
 24 25  1  0  0  0  0
 25 26  1  0  0  0  0
 26 27  1  0  0  0  0
 27 28  1  0  0  0  0
 28 29  1  0  0  0  0
M  END
> <PUBCHEM_COMPOUND_ID_TYPE>
0

> <PUBCHEM_TOTAL_CHARGE>
0

> <PUBCHEM_SUBSTANCE_ID>
310940211

> <PUBCHEM_SUBSTANCE_VERSION>
1

> <PUBCHEM_EXT_DATASOURCE_NAME>
4488

> <PUBCHEM_EXT_DATASOURCE_REGID>
SCHEMBL16118145

> <PUBCHEM_SUBSTANCE_COMMENT>
InChI=1S/C27H32OS/c1-5-6-7-12-17-28-27-21(3)18-23(19-22(27)4)29-26-16-11-10-15-25(26)24-14-9-8-13-20(24)2/h8-11,13-16,18-19H,5-7,12,17H2,1-4H3
InChIKey=LRWUHCVCQHEFKG-UHFFFAOYSA-N

> <PUBCHEM_SUBSTANCE_SYNONYM>
SCHEMBL16118145

> <PUBCHEM_XREF_EXT_ID>
SCHEMBL16118145

> <PUBCHEM_EXT_DATASOURCE_URL>
https://www.surechembl.org/

> <PUBCHEM_EXT_SUBSTANCE_URL>
https://www.surechembl.org/chemical/SCHEMBL16118145

> <PUBCHEM_CID_ASSOCIATIONS>
117607311  1

> <PUBCHEM_COORDINATE_TYPE>
1
3

$$$$
