310942542
  -OEChem-07211613022D

 35 38  0     0  0  0  0  0  0999 V2000
    3.2469    0.6698    0.0000 S   0  0  0  0  0  0  0  0  0  0  0  0
    4.7019    1.4948    0.0000 F   0  0  0  0  0  0  0  0  0  0  0  0
    6.1480   -0.9803    0.0000 F   0  0  0  0  0  0  0  0  0  0  0  0
    2.8389    1.3795    0.0000 O   0  0  0  0  0  0  0  0  0  0  0  0
    3.6728    1.3795    0.0000 O   0  0  0  0  0  0  0  0  0  0  0  0
    0.3637   -0.9803    0.0000 N   0  0  0  0  0  0  0  0  0  0  0  0
   -0.3637    0.2528    0.0000 N   0  0  0  0  0  0  0  0  0  0  0  0
   -1.0823   -0.9803    0.0000 N   0  0  0  0  0  0  0  0  0  0  0  0
   -3.9744    0.6698    0.0000 N   0  0  0  0  0  0  0  0  0  0  0  0
    1.8098   -0.9803    0.0000 N   0  0  0  0  0  0  0  0  0  0  0  0
   -5.4205    1.4948    0.0000 N   0  0  0  0  0  0  0  0  0  0  0  0
    3.9922    0.2528    0.0000 C   0  0  0  0  0  0  0  0  0  0  0  0
    4.7019    0.6698    0.0000 C   0  0  0  0  0  0  0  0  0  0  0  0
    1.1000    0.2528    0.0000 C   0  0  0  0  0  0  0  0  0  0  0  0
    2.5550    0.2617    0.0000 C   0  0  0  0  0  0  0  0  0  0  0  0
    1.0912   -0.5633    0.0000 C   0  0  0  0  0  0  0  0  0  0  0  0
    3.9922   -0.5722    0.0000 C   0  0  0  0  0  0  0  0  0  0  0  0
    1.8098    0.6609    0.0000 C   0  0  0  0  0  0  0  0  0  0  0  0
   -0.3548   -0.5633    0.0000 C   0  0  0  0  0  0  0  0  0  0  0  0
    5.4293    0.2528    0.0000 C   0  0  0  0  0  0  0  0  0  0  0  0
    5.4293   -0.5633    0.0000 C   0  0  0  0  0  0  0  0  0  0  0  0
    0.3637    0.6609    0.0000 C   0  0  0  0  0  0  0  0  0  0  0  0
    4.7019   -0.9714    0.0000 C   0  0  0  0  0  0  0  0  0  0  0  0
   -1.8009   -0.5633    0.0000 C   0  0  0  0  0  0  0  0  0  0  0  0
   -3.2381    0.2528    0.0000 C   0  0  0  0  0  0  0  0  0  0  0  0
   -2.5284   -0.9714    0.0000 C   0  0  0  0  0  0  0  0  0  0  0  0
   -1.8009    0.2528    0.0000 C   0  0  0  0  0  0  0  0  0  0  0  0
   -3.2381   -0.5722    0.0000 C   0  0  0  0  0  0  0  0  0  0  0  0
   -2.5284    0.6609    0.0000 C   0  0  0  0  0  0  0  0  0  0  0  0
   -4.6753    0.2617    0.0000 C   0  0  0  0  0  0  0  0  0  0  0  0
   -3.9744    1.4859    0.0000 C   0  0  0  0  0  0  0  0  0  0  0  0
   -5.4205    0.6698    0.0000 C   0  0  0  0  0  0  0  0  0  0  0  0
   -4.7019    1.9030    0.0000 C   0  0  0  0  0  0  0  0  0  0  0  0
    1.8009   -1.9030    0.0000 C   0  0  0  0  0  0  0  0  0  0  0  0
   -6.1480    1.8941    0.0000 C   0  0  0  0  0  0  0  0  0  0  0  0
  1  4  2  0  0  0  0
  1  5  2  0  0  0  0
  1 12  1  0  0  0  0
  1 15  1  0  0  0  0
  2 13  1  0  0  0  0
  3 21  1  0  0  0  0
  6 16  2  0  0  0  0
  6 19  1  0  0  0  0
  7 19  2  0  0  0  0
  7 22  1  0  0  0  0
  8 19  1  0  0  0  0
  8 24  1  0  0  0  0
  9 25  1  0  0  0  0
  9 30  1  0  0  0  0
  9 31  1  0  0  0  0
 10 16  1  0  0  0  0
 10 34  1  0  0  0  0
 11 32  1  0  0  0  0
 11 33  1  0  0  0  0
 11 35  1  0  0  0  0
 12 13  1  0  0  0  0
 12 17  2  0  0  0  0
 13 20  2  0  0  0  0
 14 16  1  0  0  0  0
 14 18  1  0  0  0  0
 14 22  2  0  0  0  0
 15 18  2  0  0  0  0
 17 23  1  0  0  0  0
 20 21  1  0  0  0  0
 21 23  2  0  0  0  0
 24 26  2  0  0  0  0
 24 27  1  0  0  0  0
 25 28  2  0  0  0  0
 25 29  1  0  0  0  0
 26 28  1  0  0  0  0
 27 29  2  0  0  0  0
 30 32  1  0  0  0  0
 31 33  1  0  0  0  0
M  END
> <PUBCHEM_COMPOUND_ID_TYPE>
0

> <PUBCHEM_TOTAL_CHARGE>
0

> <PUBCHEM_SUBSTANCE_ID>
310942542

> <PUBCHEM_SUBSTANCE_VERSION>
1

> <PUBCHEM_EXT_DATASOURCE_NAME>
4488

> <PUBCHEM_EXT_DATASOURCE_REGID>
SCHEMBL16120582

> <PUBCHEM_SUBSTANCE_COMMENT>
InChI=1S/C24H26F2N6O2S/c1-27-23-17(9-14-35(33,34)22-8-3-18(25)15-21(22)26)16-28-24(30-23)29-19-4-6-20(7-5-19)32-12-10-31(2)11-13-32/h3-9,14-16H,10-13H2,1-2H3,(H2,27,28,29,30)/b14-9+
InChIKey=DSJNCNQCEYCVHK-NTEUORMPSA-N

> <PUBCHEM_SUBSTANCE_SYNONYM>
SCHEMBL16120582

> <PUBCHEM_XREF_EXT_ID>
SCHEMBL16120582

> <PUBCHEM_EXT_DATASOURCE_URL>
https://www.surechembl.org/

> <PUBCHEM_EXT_SUBSTANCE_URL>
https://www.surechembl.org/chemical/SCHEMBL16120582

> <PUBCHEM_CID_ASSOCIATIONS>
117609100  1

> <PUBCHEM_COORDINATE_TYPE>
1
3

$$$$
