310947691
  -OEChem-07211613022D

 46 50  0     1  0  0  0  0  0999 V2000
   -5.0074   -2.2977    0.0000 Cl  0  0  0  0  0  0  0  0  0  0  0  0
    0.3143   -3.5548    0.0000 Cl  0  0  0  0  0  0  0  0  0  0  0  0
   -3.3034    1.8926    0.0000 S   0  0  0  0  0  0  0  0  0  0  0  0
    1.7948    0.5517    0.0000 S   0  0  0  0  0  0  0  0  0  0  0  0
   -4.7421   -0.6216    0.0000 F   0  0  0  0  0  0  0  0  0  0  0  0
   -0.3981   -0.6216    0.0000 O   0  0  0  0  0  0  0  0  0  0  0  0
   -1.1244    1.4736    0.0000 O   0  0  0  0  0  0  0  0  0  0  0  0
   -3.8900    1.3060    0.0000 O   0  0  0  0  0  0  0  0  0  0  0  0
   -4.0157    2.3116    0.0000 O   0  0  0  0  0  0  0  0  0  0  0  0
    3.6805   -0.6495    0.0000 O   0  0  0  0  0  0  0  0  0  0  0  0
    3.5269    0.7892    0.0000 O   0  0  0  0  0  0  0  0  0  0  0  0
   -1.8508    0.2165    0.0000 N   0  0  0  0  0  0  0  0  0  0  0  0
    1.1244   -0.6076    0.0000 N   0  0  0  0  0  0  0  0  0  0  0  0
   -1.8508   -0.6076    0.0000 C   0  0  3  0  0  0  0  0  0  0  0  0
   -0.4120    0.2304    0.0000 C   0  0  3  0  0  0  0  0  0  0  0  0
   -1.1384    0.6216    0.0000 C   0  0  0  0  0  0  0  0  0  0  0  0
   -1.1104   -1.0266    0.0000 C   0  0  3  0  0  0  0  0  0  0  0  0
   -2.5771    0.6495    0.0000 C   0  0  3  0  0  0  0  0  0  0  0  0
   -2.5910   -1.0406    0.0000 C   0  0  0  0  0  0  0  0  0  0  0  0
   -3.3453    0.2026    0.0000 C   0  0  0  0  0  0  0  0  0  0  0  0
   -1.1384   -1.8926    0.0000 C   0  0  0  0  0  0  0  0  0  0  0  0
    0.3003    0.6216    0.0000 C   0  0  0  0  0  0  0  0  0  0  0  0
   -2.5771    1.4736    0.0000 C   0  0  0  0  0  0  0  0  0  0  0  0
   -4.1135    0.2026    0.0000 C   0  0  0  0  0  0  0  0  0  0  0  0
   -3.7085   -0.4819    0.0000 C   0  0  0  0  0  0  0  0  0  0  0  0
   -0.1885    1.0406    0.0000 C   0  0  0  0  0  0  0  0  0  0  0  0
    1.0546    0.2304    0.0000 C   0  0  0  0  0  0  0  0  0  0  0  0
   -3.3034   -0.6355    0.0000 C   0  0  0  0  0  0  0  0  0  0  0  0
   -2.5771   -1.8647    0.0000 C   0  0  0  0  0  0  0  0  0  0  0  0
   -3.3034    2.7587    0.0000 C   0  0  0  0  0  0  0  0  0  0  0  0
   -0.4120   -2.2977    0.0000 C   0  0  0  0  0  0  0  0  0  0  0  0
   -1.8508   -2.2977    0.0000 C   0  0  0  0  0  0  0  0  0  0  0  0
   -4.0157   -1.0406    0.0000 C   0  0  0  0  0  0  0  0  0  0  0  0
   -4.0157   -1.8786    0.0000 C   0  0  0  0  0  0  0  0  0  0  0  0
   -3.2755   -2.2837    0.0000 C   0  0  0  0  0  0  0  0  0  0  0  0
   -0.4120   -3.1218    0.0000 C   0  0  0  0  0  0  0  0  0  0  0  0
    2.3536   -0.0629    0.0000 C   0  0  0  0  0  0  0  0  0  0  0  0
   -1.8508   -3.1218    0.0000 C   0  0  0  0  0  0  0  0  0  0  0  0
    1.9485   -0.7752    0.0000 C   0  0  0  0  0  0  0  0  0  0  0  0
   -1.1104   -3.5408    0.0000 C   0  0  0  0  0  0  0  0  0  0  0  0
   -3.5269    3.5548    0.0000 C   0  0  0  0  0  0  0  0  0  0  0  0
   -4.0297    3.1358    0.0000 C   0  0  0  0  0  0  0  0  0  0  0  0
   -2.5491    3.1497    0.0000 C   0  0  0  0  0  0  0  0  0  0  0  0
    3.1637    0.0210    0.0000 C   0  0  0  0  0  0  0  0  0  0  0  0
    4.5046   -0.5797    0.0000 C   0  0  0  0  0  0  0  0  0  0  0  0
    5.0074   -1.2641    0.0000 C   0  0  0  0  0  0  0  0  0  0  0  0
  1 34  1  0  0  0  0
  2 36  1  0  0  0  0
  3  8  2  0  0  0  0
  3  9  2  0  0  0  0
  3 23  1  0  0  0  0
  3 30  1  0  0  0  0
  4 27  1  0  0  0  0
  4 37  1  0  0  0  0
  5 33  1  0  0  0  0
  6 15  1  0  0  0  0
 17  6  1  6  0  0  0
  7 16  2  0  0  0  0
 10 44  1  0  0  0  0
 10 45  1  0  0  0  0
 11 44  2  0  0  0  0
 14 12  1  1  0  0  0
 12 16  1  0  0  0  0
 12 18  1  0  0  0  0
 13 27  2  0  0  0  0
 13 39  1  0  0  0  0
 14 17  1  0  0  0  0
 14 19  1  0  0  0  0
 15 16  1  0  0  0  0
 15 22  1  6  0  0  0
 15 26  1  1  0  0  0
 17 21  1  0  0  0  0
 18 20  1  0  0  0  0
 18 23  1  1  0  0  0
 19 28  2  0  0  0  0
 19 29  1  0  0  0  0
 20 24  1  0  0  0  0
 20 25  1  0  0  0  0
 21 31  1  0  0  0  0
 21 32  2  0  0  0  0
 22 27  1  0  0  0  0
 24 25  1  0  0  0  0
 28 33  1  0  0  0  0
 29 35  2  0  0  0  0
 30 41  1  0  0  0  0
 30 42  1  0  0  0  0
 30 43  1  0  0  0  0
 31 36  2  0  0  0  0
 32 38  1  0  0  0  0
 33 34  2  0  0  0  0
 34 35  1  0  0  0  0
 36 40  1  0  0  0  0
 37 39  2  0  0  0  0
 37 44  1  0  0  0  0
 38 40  2  0  0  0  0
 45 46  1  0  0  0  0
M  END
> <PUBCHEM_COMPOUND_ID_TYPE>
0

> <PUBCHEM_TOTAL_CHARGE>
0

> <PUBCHEM_SUBSTANCE_ID>
310947691

> <PUBCHEM_SUBSTANCE_VERSION>
1

> <PUBCHEM_EXT_DATASOURCE_NAME>
4488

> <PUBCHEM_EXT_DATASOURCE_REGID>
SCHEMBL16125862

> <PUBCHEM_SUBSTANCE_COMMENT>
InChI=1S/C33H37Cl2FN2O6S2/c1-6-43-30(39)26-17-37-27(45-26)16-33(5)31(40)38(25(19-10-11-19)18-46(41,42)32(2,3)4)28(20-12-13-23(35)24(36)15-20)29(44-33)21-8-7-9-22(34)14-21/h7-9,12-15,17,19,25,28-29H,6,10-11,16,18H2,1-5H3/t25-,28-,29-,33+/m1/s1
InChIKey=QWURHNRLTGSKSM-PBVIRBFBSA-N

> <PUBCHEM_SUBSTANCE_SYNONYM>
SCHEMBL16125862

> <PUBCHEM_XREF_EXT_ID>
SCHEMBL16125862

> <PUBCHEM_EXT_DATASOURCE_URL>
https://www.surechembl.org/

> <PUBCHEM_EXT_SUBSTANCE_URL>
https://www.surechembl.org/chemical/SCHEMBL16125862

> <PUBCHEM_CID_ASSOCIATIONS>
117613404  1

> <PUBCHEM_COORDINATE_TYPE>
1
3

> <PUBCHEM_BONDANNOTATIONS>
14  12  5
15  22  6
15  26  5
18  23  5
17  6  6

$$$$
