310928857
  -OEChem-07211613022D

 21 23  0     0  0  0  0  0  0999 V2000
    1.9787   -0.7538    0.0000 O   0  0  0  0  0  0  0  0  0  0  0  0
    1.8392    0.5738    0.0000 O   0  0  0  0  0  0  0  0  0  0  0  0
   -0.6995    0.0506    0.0000 N   0  0  0  0  0  0  0  0  0  0  0  0
   -0.6133   -0.7699    0.0000 N   0  0  0  0  0  0  0  0  0  0  0  0
   -2.1284   -0.7744    0.0000 N   0  0  0  0  0  0  0  0  0  0  0  0
    2.7324   -0.4182    0.0000 C   0  0  0  0  0  0  0  0  0  0  0  0
    2.6462    0.4023    0.0000 C   0  0  0  0  0  0  0  0  0  0  0  0
    0.6062   -0.2269    0.0000 C   0  0  0  0  0  0  0  0  0  0  0  0
    0.0542    0.3862    0.0000 C   0  0  0  0  0  0  0  0  0  0  0  0
    0.1937   -0.9414    0.0000 C   0  0  0  0  0  0  0  0  0  0  0  0
    3.5574   -0.4182    0.0000 C   0  0  0  0  0  0  0  0  0  0  0  0
    3.1449   -1.1327    0.0000 C   0  0  0  0  0  0  0  0  0  0  0  0
    2.9011    1.1869    0.0000 C   0  0  0  0  0  0  0  0  0  0  0  0
    3.4531    0.5738    0.0000 C   0  0  0  0  0  0  0  0  0  0  0  0
   -1.4140    0.4631    0.0000 C   0  0  0  0  0  0  0  0  0  0  0  0
   -2.1284    0.0506    0.0000 C   0  0  0  0  0  0  0  0  0  0  0  0
   -2.8429    0.4631    0.0000 C   0  0  0  0  0  0  0  0  0  0  0  0
   -2.8429   -1.1869    0.0000 C   0  0  0  0  0  0  0  0  0  0  0  0
   -3.5574    0.0506    0.0000 C   0  0  0  0  0  0  0  0  0  0  0  0
   -3.5574   -0.7744    0.0000 C   0  0  0  0  0  0  0  0  0  0  0  0
    1.4267   -0.1407    0.0000 B   0  0  0  0  0  0  0  0  0  0  0  0
  1  6  1  0  0  0  0
  1 21  1  0  0  0  0
  2  7  1  0  0  0  0
  2 21  1  0  0  0  0
  3  4  1  0  0  0  0
  3  9  1  0  0  0  0
  3 15  1  0  0  0  0
  4 10  2  0  0  0  0
  5 16  2  0  0  0  0
  5 18  1  0  0  0  0
  6  7  1  0  0  0  0
  6 11  1  0  0  0  0
  6 12  1  0  0  0  0
  7 13  1  0  0  0  0
  7 14  1  0  0  0  0
  8  9  2  0  0  0  0
  8 10  1  0  0  0  0
  8 21  1  0  0  0  0
 15 16  1  0  0  0  0
 16 17  1  0  0  0  0
 17 19  2  0  0  0  0
 18 20  2  0  0  0  0
 19 20  1  0  0  0  0
M  END
> <PUBCHEM_COMPOUND_ID_TYPE>
0

> <PUBCHEM_TOTAL_CHARGE>
0

> <PUBCHEM_SUBSTANCE_ID>
310928857

> <PUBCHEM_SUBSTANCE_VERSION>
1

> <PUBCHEM_EXT_DATASOURCE_NAME>
11752

> <PUBCHEM_EXT_DATASOURCE_REGID>
BD238574

> <PUBCHEM_SUBSTANCE_SYNONYM>
2-((4-(4,4,5,5-Tetramethyl-1,3,2-dioxaborolan-2-yl)-1H-pyrazol-1-yl)methyl)pyridine
864754-22-3

> <PUBCHEM_GENERIC_REGISTRY_NAME>
864754-22-3

> <PUBCHEM_XREF_EXT_ID>
BD238574

> <PUBCHEM_EXT_DATASOURCE_URL>
http://www.bidepharmatech.com/en/index.html

> <PUBCHEM_EXT_SUBSTANCE_URL>
http://www.bidepharmatech.com/en/goodsview_goodscode_BD238574.html

> <PUBCHEM_CID_ASSOCIATIONS>
17999186  1

> <PUBCHEM_COORDINATE_TYPE>
1
3

$$$$
