310932802
  -OEChem-07211613022D

 33 36  0     1  0  0  0  0  0999 V2000
    8.8345   -0.0682    0.0000 F   0  0  0  0  0  0  0  0  0  0  0  0
    6.4468   -1.3985    0.0000 O   0  0  0  0  0  0  0  0  0  0  0  0
    2.3195   -3.1040    0.0000 O   0  0  0  0  0  0  0  0  0  0  0  0
    6.0716   -2.8311    0.0000 N   0  0  0  0  0  0  0  0  0  0  0  0
    6.4809   -3.5475    0.0000 N   0  0  0  0  0  0  0  0  0  0  0  0
    4.7754   -3.3769    0.0000 N   0  0  0  0  0  0  0  0  0  0  0  0
    2.4559   -1.7055    0.0000 N   0  0  0  0  0  0  0  0  0  0  0  0
    0.5117   -0.7504    0.0000 N   0  0  0  0  0  0  0  0  0  0  0  0
   10.2330   -0.0682    0.0000 N   0  0  0  0  0  0  0  0  0  0  0  0
    7.3678   -2.5241    0.0000 C   0  0  0  0  0  0  0  0  0  0  0  0
    6.6173   -2.2171    0.0000 C   0  0  0  0  0  0  0  0  0  0  0  0
    8.0841   -2.1148    0.0000 C   0  0  0  0  0  0  0  0  0  0  0  0
    5.2529   -2.7288    0.0000 C   0  0  0  0  0  0  0  0  0  0  0  0
    8.0841   -1.2961    0.0000 C   0  0  0  0  0  0  0  0  0  0  0  0
    7.2995   -3.3428    0.0000 C   0  0  0  0  0  0  0  0  0  0  0  0
    8.8345   -0.8869    0.0000 C   0  0  0  0  0  0  0  0  0  0  0  0
    8.8345   -2.5241    0.0000 C   0  0  0  0  0  0  0  0  0  0  0  0
    9.5167   -1.2961    0.0000 C   0  0  0  0  0  0  0  0  0  0  0  0
    3.6157   -2.5582    0.0000 C   0  0  0  0  0  0  0  0  0  0  0  0
    4.9459   -1.9443    0.0000 C   0  0  0  0  0  0  0  0  0  0  0  0
    2.7970   -2.4559    0.0000 C   0  0  0  0  0  0  0  0  0  0  0  0
    9.5167   -2.1148    0.0000 C   0  0  0  0  0  0  0  0  0  0  0  0
    3.9567   -3.3087    0.0000 C   0  0  0  0  0  0  0  0  0  0  0  0
    4.0932   -1.8760    0.0000 C   0  0  0  0  0  0  0  0  0  0  0  0
    7.3678   -0.8869    0.0000 C   0  0  0  0  0  0  0  0  0  0  0  0
    1.6373   -1.6031    0.0000 C   0  0  0  0  0  0  0  0  0  0  0  0
   10.2330   -0.8869    0.0000 C   0  0  0  0  0  0  0  0  0  0  0  0
    1.3303   -0.8528    0.0000 C   0  0  3  0  0  0  0  0  0  0  0  0
    2.9676   -1.0233    0.0000 C   0  0  0  0  0  0  0  0  0  0  0  0
    1.8419   -0.1706    0.0000 C   0  0  0  0  0  0  0  0  0  0  0  0
    2.6606   -0.2729    0.0000 C   0  0  0  0  0  0  0  0  0  0  0  0
    0.1706    0.0000    0.0000 C   0  0  0  0  0  0  0  0  0  0  0  0
    0.0000   -1.4326    0.0000 C   0  0  0  0  0  0  0  0  0  0  0  0
  1 16  1  0  0  0  0
  2 11  1  0  0  0  0
  3 21  2  0  0  0  0
  4  5  1  0  0  0  0
  4 11  1  0  0  0  0
  4 13  1  0  0  0  0
  5 15  2  0  0  0  0
  6 13  1  0  0  0  0
  6 23  2  0  0  0  0
  7 21  1  0  0  0  0
  7 26  1  0  0  0  0
  7 29  1  0  0  0  0
 28  8  1  6  0  0  0
  8 32  1  0  0  0  0
  8 33  1  0  0  0  0
  9 27  3  0  0  0  0
 10 11  2  0  0  0  0
 10 12  1  0  0  0  0
 10 15  1  0  0  0  0
 12 14  2  0  0  0  0
 12 17  1  0  0  0  0
 13 20  2  0  0  0  0
 14 16  1  0  0  0  0
 14 25  1  0  0  0  0
 16 18  2  0  0  0  0
 17 22  2  0  0  0  0
 18 22  1  0  0  0  0
 18 27  1  0  0  0  0
 19 21  1  0  0  0  0
 19 23  1  0  0  0  0
 19 24  2  0  0  0  0
 20 24  1  0  0  0  0
 26 28  1  0  0  0  0
 28 30  1  0  0  0  0
 29 31  1  0  0  0  0
 30 31  1  0  0  0  0
M  END
> <PUBCHEM_COMPOUND_ID_TYPE>
0

> <PUBCHEM_TOTAL_CHARGE>
0

> <PUBCHEM_SUBSTANCE_ID>
310932802

> <PUBCHEM_SUBSTANCE_VERSION>
1

> <PUBCHEM_EXT_DATASOURCE_NAME>
4488

> <PUBCHEM_EXT_DATASOURCE_REGID>
SCHEMBL16110190

> <PUBCHEM_SUBSTANCE_COMMENT>
InChI=1S/C24H25FN6O2/c1-15-19(8-6-16(11-26)22(15)25)20-13-28-31(24(20)33)21-9-7-17(12-27-21)23(32)30-10-4-5-18(14-30)29(2)3/h6-9,12-13,18,33H,4-5,10,14H2,1-3H3/t18-/m1/s1
InChIKey=ZSBXMUKUOMVAOC-GOSISDBHSA-N

> <PUBCHEM_SUBSTANCE_SYNONYM>
SCHEMBL16110190

> <PUBCHEM_XREF_EXT_ID>
SCHEMBL16110190

> <PUBCHEM_EXT_DATASOURCE_URL>
https://www.surechembl.org/

> <PUBCHEM_EXT_SUBSTANCE_URL>
https://www.surechembl.org/chemical/SCHEMBL16110190

> <PUBCHEM_CID_ASSOCIATIONS>
117601292  1

> <PUBCHEM_COORDINATE_TYPE>
1
3

> <PUBCHEM_BONDANNOTATIONS>
28  8  6

$$$$
