310941956
  -OEChem-07211613022D

 18 19  0     0  0  0  0  0  0999 V2000
   -0.0075   -1.4250    0.0000 O   0  5  0  0  0  0  0  0  0  0  0  0
   -1.2825   -2.1300    0.0000 O   0  0  0  0  0  0  0  0  0  0  0  0
    2.5425    1.4250    0.0000 O   0  0  0  0  0  0  0  0  0  0  0  0
   -1.2675    0.7050    0.0000 N   0  0  0  0  0  0  0  0  0  0  0  0
   -0.8625   -1.4400    0.0000 N   0  3  0  0  0  0  0  0  0  0  0  0
   -0.8625    0.0300    0.0000 C   0  0  0  0  0  0  0  0  0  0  0  0
   -0.0075    0.0300    0.0000 C   0  0  0  0  0  0  0  0  0  0  0  0
   -1.2825   -0.7050    0.0000 C   0  0  0  0  0  0  0  0  0  0  0  0
    0.4275    0.7200    0.0000 C   0  0  0  0  0  0  0  0  0  0  0  0
    1.2525    0.7200    0.0000 C   0  0  0  0  0  0  0  0  0  0  0  0
    0.4275   -0.6750    0.0000 C   0  0  0  0  0  0  0  0  0  0  0  0
   -2.1375   -0.6750    0.0000 C   0  0  0  0  0  0  0  0  0  0  0  0
    1.6725    0.0300    0.0000 C   0  0  0  0  0  0  0  0  0  0  0  0
   -2.1225    0.7200    0.0000 C   0  0  0  0  0  0  0  0  0  0  0  0
    1.2525   -0.6750    0.0000 C   0  0  0  0  0  0  0  0  0  0  0  0
   -2.5425    0.0000    0.0000 C   0  0  0  0  0  0  0  0  0  0  0  0
    1.6575    1.4400    0.0000 C   0  0  0  0  0  0  0  0  0  0  0  0
    1.2375    2.1300    0.0000 C   0  0  0  0  0  0  0  0  0  0  0  0
  1  5  1  0  0  0  0
  2  5  2  0  0  0  0
  3 17  2  0  0  0  0
  4  6  2  0  0  0  0
  4 14  1  0  0  0  0
  5  8  1  0  0  0  0
  6  7  1  0  0  0  0
  6  8  1  0  0  0  0
  7  9  2  0  0  0  0
  7 11  1  0  0  0  0
  8 12  2  0  0  0  0
  9 10  1  0  0  0  0
 10 13  2  0  0  0  0
 10 17  1  0  0  0  0
 11 15  2  0  0  0  0
 12 16  1  0  0  0  0
 13 15  1  0  0  0  0
 14 16  2  0  0  0  0
 17 18  1  0  0  0  0
M  CHG  2   1  -1   5   1
M  END
> <PUBCHEM_COMPOUND_ID_TYPE>
0

> <PUBCHEM_TOTAL_CHARGE>
0

> <PUBCHEM_SUBSTANCE_ID>
310941956

> <PUBCHEM_SUBSTANCE_VERSION>
1

> <PUBCHEM_EXT_DATASOURCE_NAME>
4488

> <PUBCHEM_EXT_DATASOURCE_REGID>
SCHEMBL16119989

> <PUBCHEM_SUBSTANCE_COMMENT>
InChI=1S/C13H10N2O3/c1-9(16)10-4-2-5-11(8-10)13-12(15(17)18)6-3-7-14-13/h2-8H,1H3
InChIKey=BSPDCXHHNPMIRX-UHFFFAOYSA-N

> <PUBCHEM_SUBSTANCE_SYNONYM>
SCHEMBL16119989

> <PUBCHEM_XREF_EXT_ID>
SCHEMBL16119989

> <PUBCHEM_EXT_DATASOURCE_URL>
https://www.surechembl.org/

> <PUBCHEM_EXT_SUBSTANCE_URL>
https://www.surechembl.org/chemical/SCHEMBL16119989

> <PUBCHEM_CID_ASSOCIATIONS>
117608673  1

> <PUBCHEM_COORDINATE_TYPE>
1
3

$$$$
