310943287
  -OEChem-07211613022D

 37 40  0     0  0  0  0  0  0999 V2000
   -3.2233   -0.0073    0.0000 O   0  0  0  0  0  0  0  0  0  0  0  0
   -4.6560    2.4632    0.0000 O   0  0  0  0  0  0  0  0  0  0  0  0
    1.0745   -0.0073    0.0000 O   0  0  0  0  0  0  0  0  0  0  0  0
   -3.9397   -2.0539    0.0000 O   0  0  0  0  0  0  0  0  0  0  0  0
   -3.2380    1.6446    0.0000 N   0  0  0  0  0  0  0  0  0  0  0  0
   -1.7908   -0.0073    0.0000 N   0  0  0  0  0  0  0  0  0  0  0  0
    0.3582    2.8725    0.0000 N   0  0  0  0  0  0  0  0  0  0  0  0
    1.7908    1.2352    0.0000 N   0  0  0  0  0  0  0  0  0  0  0  0
    3.9397   -0.8260    0.0000 N   0  0  0  0  0  0  0  0  0  0  0  0
    4.6560   -2.8725    0.0000 N   0  0  0  0  0  0  0  0  0  0  0  0
   -1.0745    1.2352    0.0000 C   0  0  0  0  0  0  0  0  0  0  0  0
   -0.3728    1.6446    0.0000 C   0  0  0  0  0  0  0  0  0  0  0  0
   -2.5070    1.2352    0.0000 C   0  0  0  0  0  0  0  0  0  0  0  0
   -2.5217    0.4166    0.0000 C   0  0  0  0  0  0  0  0  0  0  0  0
   -1.7908    1.6446    0.0000 C   0  0  0  0  0  0  0  0  0  0  0  0
   -0.3582    2.4779    0.0000 C   0  0  0  0  0  0  0  0  0  0  0  0
    0.3582    1.2352    0.0000 C   0  0  0  0  0  0  0  0  0  0  0  0
    1.0599    1.6446    0.0000 C   0  0  0  0  0  0  0  0  0  0  0  0
   -1.0891    0.4020    0.0000 C   0  0  0  0  0  0  0  0  0  0  0  0
    2.5217   -0.0073    0.0000 C   0  0  0  0  0  0  0  0  0  0  0  0
    3.2380   -1.2352    0.0000 C   0  0  0  0  0  0  0  0  0  0  0  0
    1.8053    0.4312    0.0000 C   0  0  0  0  0  0  0  0  0  0  0  0
    3.2233   -2.0685    0.0000 C   0  0  0  0  0  0  0  0  0  0  0  0
    1.0745    2.4632    0.0000 C   0  0  0  0  0  0  0  0  0  0  0  0
    2.5070   -0.8260    0.0000 C   0  0  0  0  0  0  0  0  0  0  0  0
   -3.2233    2.4632    0.0000 C   0  0  0  0  0  0  0  0  0  0  0  0
   -3.9397    1.2352    0.0000 C   0  0  0  0  0  0  0  0  0  0  0  0
    3.2087    0.4020    0.0000 C   0  0  0  0  0  0  0  0  0  0  0  0
   -1.0891    2.8579    0.0000 C   0  0  0  0  0  0  0  0  0  0  0  0
    3.9397   -0.0073    0.0000 C   0  0  0  0  0  0  0  0  0  0  0  0
   -3.9543    2.8725    0.0000 C   0  0  0  0  0  0  0  0  0  0  0  0
   -4.6560    1.6446    0.0000 C   0  0  0  0  0  0  0  0  0  0  0  0
    3.9250   -2.4779    0.0000 C   0  0  0  0  0  0  0  0  0  0  0  0
   -3.2380   -0.8260    0.0000 C   0  0  0  0  0  0  0  0  0  0  0  0
    3.0333   -2.8725    0.0000 C   0  0  0  0  0  0  0  0  0  0  0  0
    2.5070   -2.4924    0.0000 C   0  0  0  0  0  0  0  0  0  0  0  0
   -3.9250   -1.2352    0.0000 C   0  0  0  0  0  0  0  0  0  0  0  0
  1 14  1  0  0  0  0
  1 34  1  0  0  0  0
  2 31  1  0  0  0  0
  2 32  1  0  0  0  0
  3 22  2  0  0  0  0
  4 37  1  0  0  0  0
  5 13  1  0  0  0  0
  5 26  1  0  0  0  0
  5 27  1  0  0  0  0
  6 14  2  0  0  0  0
  6 19  1  0  0  0  0
  7 16  1  0  0  0  0
  7 24  2  0  0  0  0
  8 18  1  0  0  0  0
  8 22  1  0  0  0  0
  9 21  2  0  0  0  0
  9 30  1  0  0  0  0
 10 33  3  0  0  0  0
 11 12  1  0  0  0  0
 11 15  1  0  0  0  0
 11 19  2  0  0  0  0
 12 16  2  0  0  0  0
 12 17  1  0  0  0  0
 13 14  1  0  0  0  0
 13 15  2  0  0  0  0
 16 29  1  0  0  0  0
 17 18  2  0  0  0  0
 18 24  1  0  0  0  0
 20 22  1  0  0  0  0
 20 25  2  0  0  0  0
 20 28  1  0  0  0  0
 21 23  1  0  0  0  0
 21 25  1  0  0  0  0
 23 33  1  0  0  0  0
 23 35  1  0  0  0  0
 23 36  1  0  0  0  0
 26 31  1  0  0  0  0
 27 32  1  0  0  0  0
 28 30  2  0  0  0  0
 34 37  1  0  0  0  0
M  END
> <PUBCHEM_COMPOUND_ID_TYPE>
0

> <PUBCHEM_TOTAL_CHARGE>
0

> <PUBCHEM_SUBSTANCE_ID>
310943287

> <PUBCHEM_SUBSTANCE_VERSION>
1

> <PUBCHEM_EXT_DATASOURCE_NAME>
4488

> <PUBCHEM_EXT_DATASOURCE_REGID>
SCHEMBL16121349

> <PUBCHEM_SUBSTANCE_COMMENT>
InChI=1S/C27H30N6O4/c1-18-22(20-12-23(33-6-9-36-10-7-33)26(31-15-20)37-11-8-34)14-21(16-30-18)32-25(35)19-4-5-29-24(13-19)27(2,3)17-28/h4-5,12-16,34H,6-11H2,1-3H3,(H,32,35)
InChIKey=UWRWUQWAWZLJMD-UHFFFAOYSA-N

> <PUBCHEM_SUBSTANCE_SYNONYM>
SCHEMBL16121349

> <PUBCHEM_XREF_EXT_ID>
SCHEMBL16121349

> <PUBCHEM_EXT_DATASOURCE_URL>
https://www.surechembl.org/

> <PUBCHEM_EXT_SUBSTANCE_URL>
https://www.surechembl.org/chemical/SCHEMBL16121349

> <PUBCHEM_CID_ASSOCIATIONS>
117609712  1

> <PUBCHEM_COORDINATE_TYPE>
1
3

$$$$
