310943738
  -OEChem-07211613022D

 42 45  0     1  0  0  0  0  0999 V2000
    4.7932   -1.0210    0.0000 F   0  0  0  0  0  0  0  0  0  0  0  0
    3.9990   -1.8293    0.0000 F   0  0  0  0  0  0  0  0  0  0  0  0
    3.2049   -1.0210    0.0000 F   0  0  0  0  0  0  0  0  0  0  0  0
   -3.3325   -0.1985    0.0000 O   0  0  0  0  0  0  0  0  0  0  0  0
   -1.8719   -1.0068    0.0000 O   0  0  0  0  0  0  0  0  0  0  0  0
   -4.7932    2.2264    0.0000 O   0  0  0  0  0  0  0  0  0  0  0  0
   -3.3325   -2.6235    0.0000 O   0  0  0  0  0  0  0  0  0  0  0  0
    2.5242    2.1980    0.0000 O   0  0  0  0  0  0  0  0  0  0  0  0
   -3.3325    1.4181    0.0000 N   0  0  0  0  0  0  0  0  0  0  0  0
   -1.8719   -0.1985    0.0000 N   0  0  0  0  0  0  0  0  0  0  0  0
    1.8010    0.9927    0.0000 N   0  0  0  0  0  0  0  0  0  0  0  0
   -2.5951    1.0068    0.0000 C   0  0  0  0  0  0  0  0  0  0  0  0
   -2.6093    0.1985    0.0000 C   0  0  0  0  0  0  0  0  0  0  0  0
   -1.1345    1.0068    0.0000 C   0  0  0  0  0  0  0  0  0  0  0  0
   -1.8719    1.4181    0.0000 C   0  0  0  0  0  0  0  0  0  0  0  0
   -0.4112    1.4039    0.0000 C   0  0  0  0  0  0  0  0  0  0  0  0
   -1.1486    0.1985    0.0000 C   0  0  0  0  0  0  0  0  0  0  0  0
   -3.3325   -1.0068    0.0000 C   0  0  3  0  0  0  0  0  0  0  0  0
    0.3403    0.9927    0.0000 C   0  0  0  0  0  0  0  0  0  0  0  0
   -0.3829    2.2123    0.0000 C   0  0  0  0  0  0  0  0  0  0  0  0
   -2.5951   -1.4181    0.0000 C   0  0  3  0  0  0  0  0  0  0  0  0
   -3.3467    2.2264    0.0000 C   0  0  0  0  0  0  0  0  0  0  0  0
   -4.0557    1.0068    0.0000 C   0  0  0  0  0  0  0  0  0  0  0  0
    1.0494    1.4039    0.0000 C   0  0  0  0  0  0  0  0  0  0  0  0
    3.9849   -0.2127    0.0000 C   0  0  0  0  0  0  0  0  0  0  0  0
    3.2616    0.9927    0.0000 C   0  0  0  0  0  0  0  0  0  0  0  0
    2.5100    1.3755    0.0000 C   0  0  0  0  0  0  0  0  0  0  0  0
    3.9849   -1.0210    0.0000 C   0  0  0  0  0  0  0  0  0  0  0  0
    3.2616    0.1843    0.0000 C   0  0  0  0  0  0  0  0  0  0  0  0
   -4.0557   -1.4039    0.0000 C   0  0  0  0  0  0  0  0  0  0  0  0
    4.7081    0.1843    0.0000 C   0  0  0  0  0  0  0  0  0  0  0  0
    3.9706    1.3898    0.0000 C   0  0  0  0  0  0  0  0  0  0  0  0
   -4.0700    2.6235    0.0000 C   0  0  0  0  0  0  0  0  0  0  0  0
   -4.7932    1.4181    0.0000 C   0  0  0  0  0  0  0  0  0  0  0  0
   -2.6093   -2.2264    0.0000 C   0  0  0  0  0  0  0  0  0  0  0  0
    4.7081    0.9785    0.0000 C   0  0  0  0  0  0  0  0  0  0  0  0
   -4.0557   -2.2264    0.0000 C   0  0  0  0  0  0  0  0  0  0  0  0
    1.0778    2.1980    0.0000 C   0  0  0  0  0  0  0  0  0  0  0  0
   -1.1345    2.5951    0.0000 C   0  0  0  0  0  0  0  0  0  0  0  0
    0.0992    2.4533    0.0000 C   0  0  0  0  0  0  0  0  0  0  0  0
   -1.1345   -1.4323    0.0000 C   0  0  0  0  0  0  0  0  0  0  0  0
    0.5389    2.3966    0.0000 C   0  0  0  0  0  0  0  0  0  0  0  0
  1 28  1  0  0  0  0
  2 28  1  0  0  0  0
  3 28  1  0  0  0  0
  4 13  1  0  0  0  0
 18  4  1  6  0  0  0
 21  5  1  1  0  0  0
  5 41  1  0  0  0  0
  6 33  1  0  0  0  0
  6 34  1  0  0  0  0
  7 35  1  0  0  0  0
  7 37  1  0  0  0  0
  8 27  2  0  0  0  0
  9 12  1  0  0  0  0
  9 22  1  0  0  0  0
  9 23  1  0  0  0  0
 10 13  1  0  0  0  0
 10 17  2  0  0  0  0
 11 24  1  0  0  0  0
 11 27  1  0  0  0  0
 12 13  2  0  0  0  0
 12 15  1  0  0  0  0
 14 15  2  0  0  0  0
 14 16  1  0  0  0  0
 14 17  1  0  0  0  0
 16 19  1  0  0  0  0
 16 20  2  0  0  0  0
 18 21  1  0  0  0  0
 18 30  1  0  0  0  0
 19 24  2  0  0  0  0
 20 39  1  0  0  0  0
 20 40  1  0  0  0  0
 21 35  1  0  0  0  0
 22 33  1  0  0  0  0
 23 34  1  0  0  0  0
 24 38  1  0  0  0  0
 25 28  1  0  0  0  0
 25 29  1  0  0  0  0
 25 31  2  0  0  0  0
 26 27  1  0  0  0  0
 26 29  2  0  0  0  0
 26 32  1  0  0  0  0
 30 37  1  0  0  0  0
 31 36  1  0  0  0  0
 32 36  2  0  0  0  0
 38 42  2  0  0  0  0
M  END
> <PUBCHEM_COMPOUND_ID_TYPE>
0

> <PUBCHEM_TOTAL_CHARGE>
0

> <PUBCHEM_SUBSTANCE_ID>
310943738

> <PUBCHEM_SUBSTANCE_VERSION>
1

> <PUBCHEM_EXT_DATASOURCE_NAME>
4488

> <PUBCHEM_EXT_DATASOURCE_REGID>
SCHEMBL16121806

> <PUBCHEM_SUBSTANCE_COMMENT>
InChI=1S/C31H36F3N3O5/c1-5-24(36-29(38)21-7-6-8-23(15-21)31(32,33)34)17-25(20(2)3)22-16-26(37-10-13-40-14-11-37)30(35-18-22)42-27-9-12-41-19-28(27)39-4/h5-8,15-18,27-28H,1,9-14,19H2,2-4H3,(H,36,38)/b24-17+/t27-,28-/m0/s1
InChIKey=QHQQQLCHBSOKCK-QXLJVUGGSA-N

> <PUBCHEM_SUBSTANCE_SYNONYM>
SCHEMBL16121806

> <PUBCHEM_XREF_EXT_ID>
SCHEMBL16121806

> <PUBCHEM_EXT_DATASOURCE_URL>
https://www.surechembl.org/

> <PUBCHEM_EXT_SUBSTANCE_URL>
https://www.surechembl.org/chemical/SCHEMBL16121806

> <PUBCHEM_CID_ASSOCIATIONS>
117610103  1

> <PUBCHEM_COORDINATE_TYPE>
1
3

> <PUBCHEM_BONDANNOTATIONS>
18  4  6
21  5  5

$$$$
