310944601
  -OEChem-07211613022D

 23 24  0     0  0  0  0  0  0999 V2000
   -4.0053   -0.6428    0.0000 Cl  0  0  0  0  0  0  0  0  0  0  0  0
   -0.9890   -0.6428    0.0000 F   0  0  0  0  0  0  0  0  0  0  0  0
    0.4327    1.8296    0.0000 O   0  0  0  0  0  0  0  0  0  0  0  0
    4.0053   -0.2349    0.0000 O   0  0  0  0  0  0  0  0  0  0  0  0
    1.1621    0.5933    0.0000 N   0  0  0  0  0  0  0  0  0  0  0  0
    2.6084   -0.2226    0.0000 N   0  0  0  0  0  0  0  0  0  0  0  0
   -0.9766    1.0137    0.0000 N   0  0  0  0  0  0  0  0  0  0  0  0
   -1.6936    0.6057    0.0000 C   0  0  0  0  0  0  0  0  0  0  0  0
   -1.7060   -0.2226    0.0000 C   0  0  0  0  0  0  0  0  0  0  0  0
    0.4327    1.0014    0.0000 C   0  0  0  0  0  0  0  0  0  0  0  0
   -3.1152    0.5933    0.0000 C   0  0  0  0  0  0  0  0  0  0  0  0
   -3.1400   -0.2226    0.0000 C   0  0  0  0  0  0  0  0  0  0  0  0
   -2.3982    1.0014    0.0000 C   0  0  0  0  0  0  0  0  0  0  0  0
   -2.3982   -0.6305    0.0000 C   0  0  0  0  0  0  0  0  0  0  0  0
    1.1621   -0.2226    0.0000 C   0  0  0  0  0  0  0  0  0  0  0  0
    1.8791    1.0014    0.0000 C   0  0  0  0  0  0  0  0  0  0  0  0
   -0.2596    0.5933    0.0000 C   0  0  0  0  0  0  0  0  0  0  0  0
    1.8914   -0.6428    0.0000 C   0  0  0  0  0  0  0  0  0  0  0  0
    2.5960    0.5933    0.0000 C   0  0  0  0  0  0  0  0  0  0  0  0
    3.3007   -0.6428    0.0000 C   0  0  0  0  0  0  0  0  0  0  0  0
   -3.8323    1.0014    0.0000 C   0  0  0  0  0  0  0  0  0  0  0  0
    3.3131   -1.4711    0.0000 C   0  0  0  0  0  0  0  0  0  0  0  0
    2.5713   -1.8296    0.0000 C   0  0  0  0  0  0  0  0  0  0  0  0
  1 12  1  0  0  0  0
  2  9  1  0  0  0  0
  3 10  2  0  0  0  0
  4 20  2  0  0  0  0
  5 10  1  0  0  0  0
  5 15  1  0  0  0  0
  5 16  1  0  0  0  0
  6 18  1  0  0  0  0
  6 19  1  0  0  0  0
  6 20  1  0  0  0  0
  7  8  1  0  0  0  0
  7 17  1  0  0  0  0
  8  9  1  0  0  0  0
  8 13  2  0  0  0  0
  9 14  2  0  0  0  0
 10 17  1  0  0  0  0
 11 12  2  0  0  0  0
 11 13  1  0  0  0  0
 11 21  1  0  0  0  0
 12 14  1  0  0  0  0
 15 18  1  0  0  0  0
 16 19  1  0  0  0  0
 20 22  1  0  0  0  0
 22 23  2  0  0  0  0
M  END
> <PUBCHEM_COMPOUND_ID_TYPE>
0

> <PUBCHEM_TOTAL_CHARGE>
0

> <PUBCHEM_SUBSTANCE_ID>
310944601

> <PUBCHEM_SUBSTANCE_VERSION>
1

> <PUBCHEM_EXT_DATASOURCE_NAME>
4488

> <PUBCHEM_EXT_DATASOURCE_REGID>
SCHEMBL16122679

> <PUBCHEM_SUBSTANCE_COMMENT>
InChI=1S/C16H19ClFN3O2/c1-3-15(22)20-4-6-21(7-5-20)16(23)10-19-14-8-11(2)12(17)9-13(14)18/h3,8-9,19H,1,4-7,10H2,2H3
InChIKey=SNOIBSGRGNXSPB-UHFFFAOYSA-N

> <PUBCHEM_SUBSTANCE_SYNONYM>
SCHEMBL16122679

> <PUBCHEM_XREF_EXT_ID>
SCHEMBL16122679

> <PUBCHEM_EXT_DATASOURCE_URL>
https://www.surechembl.org/

> <PUBCHEM_EXT_SUBSTANCE_URL>
https://www.surechembl.org/chemical/SCHEMBL16122679

> <PUBCHEM_CID_ASSOCIATIONS>
117610831  1

> <PUBCHEM_COORDINATE_TYPE>
1
3

$$$$
