310931247
  -OEChem-07211613022D

 13 13  0     0  0  0  0  0  0999 V2000
    0.0000    0.0000    0.0000 S   0  0  0  0  0  0  0  0  0  0  0  0
    1.2448   -0.7237    0.0000 N   0  0  0  0  0  0  0  0  0  0  0  0
    0.0000   -1.4329    0.0000 N   0  0  0  0  0  0  0  0  0  0  0  0
    2.4896   -1.4619    0.0000 C   0  0  0  0  0  0  0  0  0  0  0  0
    2.8948   -2.1711    0.0000 C   0  0  0  0  0  0  0  0  0  0  0  0
    3.7198   -2.1711    0.0000 C   0  0  0  0  0  0  0  0  0  0  0  0
    1.6501   -1.4474    0.0000 C   0  0  0  0  0  0  0  0  0  0  0  0
    2.9093   -0.7382    0.0000 C   0  0  0  0  0  0  0  0  0  0  0  0
    4.1396   -1.4619    0.0000 C   0  0  0  0  0  0  0  0  0  0  0  0
    3.7198   -0.7382    0.0000 C   0  0  0  0  0  0  0  0  0  0  0  0
    0.4053   -0.7237    0.0000 C   0  0  0  0  0  0  0  0  0  0  0  0
    2.4751   -2.8803    0.0000 C   0  0  0  0  0  0  0  0  0  0  0  0
    4.1396   -2.8948    0.0000 C   0  0  0  0  0  0  0  0  0  0  0  0
  1 11  2  0  0  0  0
  2  7  1  0  0  0  0
  2 11  1  0  0  0  0
  3 11  1  0  0  0  0
  4  5  2  0  0  0  0
  4  7  1  0  0  0  0
  4  8  1  0  0  0  0
  5  6  1  0  0  0  0
  5 12  1  0  0  0  0
  6  9  2  0  0  0  0
  6 13  1  0  0  0  0
  8 10  2  0  0  0  0
  9 10  1  0  0  0  0
M  END
> <PUBCHEM_COMPOUND_ID_TYPE>
0

> <PUBCHEM_TOTAL_CHARGE>
0

> <PUBCHEM_SUBSTANCE_ID>
310931247

> <PUBCHEM_SUBSTANCE_VERSION>
1

> <PUBCHEM_EXT_DATASOURCE_NAME>
4488

> <PUBCHEM_EXT_DATASOURCE_REGID>
SCHEMBL16108558

> <PUBCHEM_SUBSTANCE_COMMENT>
InChI=1S/C10H14N2S/c1-7-4-3-5-9(8(7)2)6-12-10(11)13/h3-5H,6H2,1-2H3,(H3,11,12,13)
InChIKey=UFKMXSRGUOAAJX-UHFFFAOYSA-N

> <PUBCHEM_SUBSTANCE_SYNONYM>
SCHEMBL16108558

> <PUBCHEM_XREF_EXT_ID>
SCHEMBL16108558

> <PUBCHEM_EXT_DATASOURCE_URL>
https://www.surechembl.org/

> <PUBCHEM_EXT_SUBSTANCE_URL>
https://www.surechembl.org/chemical/SCHEMBL16108558

> <PUBCHEM_CID_ASSOCIATIONS>
117600084  1

> <PUBCHEM_COORDINATE_TYPE>
1
3

$$$$
