310931086
  -OEChem-07211613022D

 35 39  0     0  0  0  0  0  0999 V2000
    6.4017   -5.8396    0.0000 F   0  0  0  0  0  0  0  0  0  0  0  0
    0.7182   -2.5606    0.0000 F   0  0  0  0  0  0  0  0  0  0  0  0
    0.0313   -3.8098    0.0000 F   0  0  0  0  0  0  0  0  0  0  0  0
    0.0000   -2.9667    0.0000 F   0  0  0  0  0  0  0  0  0  0  0  0
    4.9964   -5.8396    0.0000 O   0  0  0  0  0  0  0  0  0  0  0  0
    1.4365   -4.6217    0.0000 O   0  0  0  0  0  0  0  0  0  0  0  0
    4.2782   -4.5905    0.0000 N   0  0  0  0  0  0  0  0  0  0  0  0
    4.9964   -3.3726    0.0000 N   0  0  0  0  0  0  0  0  0  0  0  0
    3.5912   -2.5606    0.0000 N   0  0  0  0  0  0  0  0  0  0  0  0
    2.1859   -2.5606    0.0000 N   0  0  0  0  0  0  0  0  0  0  0  0
    2.3421   -0.0937    0.0000 N   0  0  0  0  0  0  0  0  0  0  0  0
    1.4677   -1.3115    0.0000 N   0  0  0  0  0  0  0  0  0  0  0  0
    5.7147   -4.5905    0.0000 C   0  0  0  0  0  0  0  0  0  0  0  0
    4.9964   -4.9964    0.0000 C   0  0  0  0  0  0  0  0  0  0  0  0
    4.2782   -3.7786    0.0000 C   0  0  0  0  0  0  0  0  0  0  0  0
    5.7147   -3.7786    0.0000 C   0  0  0  0  0  0  0  0  0  0  0  0
    3.5600   -4.9964    0.0000 C   0  0  0  0  0  0  0  0  0  0  0  0
    6.4017   -4.9964    0.0000 C   0  0  0  0  0  0  0  0  0  0  0  0
    3.5600   -3.3726    0.0000 C   0  0  0  0  0  0  0  0  0  0  0  0
    6.4017   -3.3726    0.0000 C   0  0  0  0  0  0  0  0  0  0  0  0
    2.8730   -4.6217    0.0000 C   0  0  0  0  0  0  0  0  0  0  0  0
    2.8730   -2.1547    0.0000 C   0  0  0  0  0  0  0  0  0  0  0  0
    2.9042   -1.3115    0.0000 C   0  0  0  0  0  0  0  0  0  0  0  0
    3.5600   -5.8396    0.0000 C   0  0  0  0  0  0  0  0  0  0  0  0
    7.1199   -4.5905    0.0000 C   0  0  0  0  0  0  0  0  0  0  0  0
    2.1547   -5.0277    0.0000 C   0  0  0  0  0  0  0  0  0  0  0  0
    2.1547   -0.9056    0.0000 C   0  0  0  0  0  0  0  0  0  0  0  0
    7.1199   -3.7786    0.0000 C   0  0  0  0  0  0  0  0  0  0  0  0
    2.8730   -6.2456    0.0000 C   0  0  0  0  0  0  0  0  0  0  0  0
    2.1547   -5.8396    0.0000 C   0  0  0  0  0  0  0  0  0  0  0  0
    3.4975   -0.7495    0.0000 C   0  0  0  0  0  0  0  0  0  0  0  0
    1.4365   -2.1235    0.0000 C   0  0  0  0  0  0  0  0  0  0  0  0
    3.1540    0.0000    0.0000 C   0  0  0  0  0  0  0  0  0  0  0  0
    1.4365   -3.8098    0.0000 C   0  0  0  0  0  0  0  0  0  0  0  0
    0.7182   -3.3726    0.0000 C   0  0  0  0  0  0  0  0  0  0  0  0
  1 18  1  0  0  0  0
  2 35  1  0  0  0  0
  3 35  1  0  0  0  0
  4 35  1  0  0  0  0
  5 14  2  0  0  0  0
  6 26  1  0  0  0  0
  6 34  1  0  0  0  0
  7 14  1  0  0  0  0
  7 15  1  0  0  0  0
  7 17  1  0  0  0  0
  8 15  2  0  0  0  0
  8 16  1  0  0  0  0
  9 19  1  0  0  0  0
  9 22  1  0  0  0  0
 10 22  1  0  0  0  0
 10 32  2  0  0  0  0
 11 27  1  0  0  0  0
 11 33  1  0  0  0  0
 12 27  2  0  0  0  0
 12 32  1  0  0  0  0
 13 14  1  0  0  0  0
 13 16  2  0  0  0  0
 13 18  1  0  0  0  0
 15 19  1  0  0  0  0
 16 20  1  0  0  0  0
 17 21  1  0  0  0  0
 17 24  2  0  0  0  0
 18 25  2  0  0  0  0
 20 28  2  0  0  0  0
 21 26  2  0  0  0  0
 22 23  2  0  0  0  0
 23 27  1  0  0  0  0
 23 31  1  0  0  0  0
 24 29  1  0  0  0  0
 25 28  1  0  0  0  0
 26 30  1  0  0  0  0
 29 30  2  0  0  0  0
 31 33  2  0  0  0  0
 34 35  1  0  0  0  0
M  END
> <PUBCHEM_COMPOUND_ID_TYPE>
0

> <PUBCHEM_TOTAL_CHARGE>
0

> <PUBCHEM_SUBSTANCE_ID>
310931086

> <PUBCHEM_SUBSTANCE_VERSION>
1

> <PUBCHEM_EXT_DATASOURCE_NAME>
4488

> <PUBCHEM_EXT_DATASOURCE_REGID>
SCHEMBL16108390

> <PUBCHEM_SUBSTANCE_COMMENT>
InChI=1S/C23H16F4N6O2/c24-16-5-2-6-17-19(16)22(34)33(13-3-1-4-14(9-13)35-11-23(25,26)27)18(32-17)10-29-21-15-7-8-28-20(15)30-12-31-21/h1-9,12H,10-11H2,(H2,28,29,30,31)
InChIKey=ZFAZRLXBWYALAV-UHFFFAOYSA-N

> <PUBCHEM_SUBSTANCE_SYNONYM>
SCHEMBL16108390

> <PUBCHEM_XREF_EXT_ID>
SCHEMBL16108390

> <PUBCHEM_EXT_DATASOURCE_URL>
https://www.surechembl.org/

> <PUBCHEM_EXT_SUBSTANCE_URL>
https://www.surechembl.org/chemical/SCHEMBL16108390

> <PUBCHEM_CID_ASSOCIATIONS>
86272864  1

> <PUBCHEM_COORDINATE_TYPE>
1
3

$$$$
