310948828
  -OEChem-07211613022D

 22 24  0     1  0  0  0  0  0999 V2000
    0.2383    0.8614    0.0000 O   0  0  0  0  0  0  0  0  0  0  0  0
    1.6679    2.5110    0.0000 O   0  0  0  0  0  0  0  0  0  0  0  0
   -0.4949    2.0895    0.0000 O   0  0  0  0  0  0  0  0  0  0  0  0
    1.6679    0.0367    0.0000 O   0  0  0  0  0  0  0  0  0  0  0  0
    3.0976    0.8614    0.0000 O   0  0  0  0  0  0  0  0  0  0  0  0
    0.9531    1.2647    0.0000 C   0  0  3  0  0  0  0  0  0  0  0  0
    0.9531    2.0895    0.0000 C   0  0  3  0  0  0  0  0  0  0  0  0
    1.6679    0.8614    0.0000 C   0  0  3  0  0  0  0  0  0  0  0  0
   -0.4949    1.2830    0.0000 C   0  0  3  0  0  0  0  0  0  0  0  0
    2.3644    1.2647    0.0000 C   0  0  3  0  0  0  0  0  0  0  0  0
    0.2200    2.4927    0.0000 C   0  0  0  0  0  0  0  0  0  0  0  0
   -1.5580    0.8614    0.0000 C   0  0  0  0  0  0  0  0  0  0  0  0
    2.3828    2.0895    0.0000 C   0  0  0  0  0  0  0  0  0  0  0  0
   -2.1995    1.3563    0.0000 C   0  0  0  0  0  0  0  0  0  0  0  0
   -1.6679    0.0367    0.0000 C   0  0  0  0  0  0  0  0  0  0  0  0
    2.3461   -0.3849    0.0000 C   0  0  0  0  0  0  0  0  0  0  0  0
   -2.9693    1.0448    0.0000 C   0  0  0  0  0  0  0  0  0  0  0  0
   -2.4377   -0.2566    0.0000 C   0  0  0  0  0  0  0  0  0  0  0  0
   -3.0976    0.2383    0.0000 C   0  0  0  0  0  0  0  0  0  0  0  0
    2.3095   -1.2280    0.0000 C   0  0  0  0  0  0  0  0  0  0  0  0
    3.0610   -1.6679    0.0000 C   0  0  0  0  0  0  0  0  0  0  0  0
    3.0243   -2.5110    0.0000 C   0  0  0  0  0  0  0  0  0  0  0  0
  6  1  1  6  0  0  0
  9  1  1  6  0  0  0
  7  2  1  1  0  0  0
  2 13  1  0  0  0  0
  3  9  1  0  0  0  0
  3 11  1  0  0  0  0
  8  4  1  1  0  0  0
  4 16  1  0  0  0  0
 10  5  1  1  0  0  0
  6  7  1  0  0  0  0
  6  8  1  0  0  0  0
  7 11  1  0  0  0  0
  8 10  1  0  0  0  0
  9 12  1  0  0  0  0
 10 13  1  0  0  0  0
 12 14  2  0  0  0  0
 12 15  1  0  0  0  0
 14 17  1  0  0  0  0
 15 18  2  0  0  0  0
 16 20  1  0  0  0  0
 17 19  2  0  0  0  0
 18 19  1  0  0  0  0
 20 21  1  0  0  0  0
 21 22  1  0  0  0  0
M  END
> <PUBCHEM_COMPOUND_ID_TYPE>
0

> <PUBCHEM_TOTAL_CHARGE>
0

> <PUBCHEM_SUBSTANCE_ID>
310948828

> <PUBCHEM_SUBSTANCE_VERSION>
1

> <PUBCHEM_EXT_DATASOURCE_NAME>
4488

> <PUBCHEM_EXT_DATASOURCE_REGID>
SCHEMBL16127012

> <PUBCHEM_SUBSTANCE_COMMENT>
InChI=1S/C17H24O5/c1-2-3-9-19-15-13(18)10-20-14-11-21-17(22-16(14)15)12-7-5-4-6-8-12/h4-8,13-18H,2-3,9-11H2,1H3/t13-,14-,15-,16-,17-/m1/s1
InChIKey=NJAYMZYKVNEBCH-WRQOLXDDSA-N

> <PUBCHEM_SUBSTANCE_SYNONYM>
SCHEMBL16127012

> <PUBCHEM_XREF_EXT_ID>
SCHEMBL16127012

> <PUBCHEM_EXT_DATASOURCE_URL>
https://www.surechembl.org/

> <PUBCHEM_EXT_SUBSTANCE_URL>
https://www.surechembl.org/chemical/SCHEMBL16127012

> <PUBCHEM_CID_ASSOCIATIONS>
117614365  1

> <PUBCHEM_COORDINATE_TYPE>
1
3

> <PUBCHEM_BONDANNOTATIONS>
6  1  6
9  1  6
7  2  5
8  4  5
10  5  5

$$$$
