310933808
  -OEChem-07211613022D

 15 17  0     0  0  0  0  0  0999 V2000
    2.1375   -2.4938    0.0000 N   0  0  0  0  0  0  0  0  0  0  0  0
    2.5313   -3.7501    0.0000 N   0  0  0  0  0  0  0  0  0  0  0  0
    1.7063   -3.7501    0.0000 N   0  0  0  0  0  0  0  0  0  0  0  0
    0.0000   -0.4125    0.0000 N   0  0  0  0  0  0  0  0  0  0  0  0
    2.1563   -1.6688    0.0000 C   0  0  0  0  0  0  0  0  0  0  0  0
    1.4626   -1.2375    0.0000 C   0  0  0  0  0  0  0  0  0  0  0  0
    1.4626   -0.4125    0.0000 C   0  0  0  0  0  0  0  0  0  0  0  0
    2.8688   -1.2375    0.0000 C   0  0  0  0  0  0  0  0  0  0  0  0
    0.7313   -1.6688    0.0000 C   0  0  0  0  0  0  0  0  0  0  0  0
    1.4626   -2.9625    0.0000 C   0  0  0  0  0  0  0  0  0  0  0  0
    2.8126   -2.9813    0.0000 C   0  0  0  0  0  0  0  0  0  0  0  0
    2.1563    0.0000    0.0000 C   0  0  0  0  0  0  0  0  0  0  0  0
    0.7313    0.0000    0.0000 C   0  0  0  0  0  0  0  0  0  0  0  0
    2.8688   -0.4125    0.0000 C   0  0  0  0  0  0  0  0  0  0  0  0
    0.0000   -1.2375    0.0000 C   0  0  0  0  0  0  0  0  0  0  0  0
  1  5  1  0  0  0  0
  1 10  1  0  0  0  0
  1 11  1  0  0  0  0
  2  3  1  0  0  0  0
  2 11  2  0  0  0  0
  3 10  2  0  0  0  0
  4 13  2  0  0  0  0
  4 15  1  0  0  0  0
  5  6  1  0  0  0  0
  5  8  2  0  0  0  0
  6  7  2  0  0  0  0
  6  9  1  0  0  0  0
  7 12  1  0  0  0  0
  7 13  1  0  0  0  0
  8 14  1  0  0  0  0
  9 15  2  0  0  0  0
 12 14  2  0  0  0  0
M  END
> <PUBCHEM_COMPOUND_ID_TYPE>
0

> <PUBCHEM_TOTAL_CHARGE>
0

> <PUBCHEM_SUBSTANCE_ID>
310933808

> <PUBCHEM_SUBSTANCE_VERSION>
1

> <PUBCHEM_EXT_DATASOURCE_NAME>
4488

> <PUBCHEM_EXT_DATASOURCE_REGID>
SCHEMBL16111246

> <PUBCHEM_SUBSTANCE_COMMENT>
InChI=1S/C11H8N4/c1-2-9-6-12-5-4-10(9)11(3-1)15-7-13-14-8-15/h1-8H
InChIKey=DGHKYYQHKOCKCH-UHFFFAOYSA-N

> <PUBCHEM_SUBSTANCE_SYNONYM>
SCHEMBL16111246

> <PUBCHEM_XREF_EXT_ID>
SCHEMBL16111246

> <PUBCHEM_EXT_DATASOURCE_URL>
https://www.surechembl.org/

> <PUBCHEM_EXT_SUBSTANCE_URL>
https://www.surechembl.org/chemical/SCHEMBL16111246

> <PUBCHEM_CID_ASSOCIATIONS>
117602156  1

> <PUBCHEM_COORDINATE_TYPE>
1
3

$$$$
