310941662
  -OEChem-07211613022D

 27 30  0     0  0  0  0  0  0999 V2000
   -2.8869   -1.7393    0.0000 Cl  0  0  0  0  0  0  0  0  0  0  0  0
   -4.5902   -0.8965    0.0000 Cl  0  0  0  0  0  0  0  0  0  0  0  0
    0.8786    1.7393    0.0000 S   0  0  0  0  0  0  0  0  0  0  0  0
   -1.4524   -0.8965    0.0000 O   0  0  0  0  0  0  0  0  0  0  0  0
   -0.0179   -0.8965    0.0000 O   0  0  0  0  0  0  0  0  0  0  0  0
    3.7654    0.7710    0.0000 O   0  0  0  0  0  0  0  0  0  0  0  0
    0.7352    0.3944    0.0000 N   0  0  0  0  0  0  0  0  0  0  0  0
    2.1158    0.9144    0.0000 N   0  0  0  0  0  0  0  0  0  0  0  0
   -0.7173    0.3407    0.0000 C   0  0  0  0  0  0  0  0  0  0  0  0
   -2.1875   -0.4841    0.0000 C   0  0  0  0  0  0  0  0  0  0  0  0
   -2.1696    0.3407    0.0000 C   0  0  0  0  0  0  0  0  0  0  0  0
   -0.0538    0.7352    0.0000 C   0  0  0  0  0  0  0  0  0  0  0  0
   -0.7710   -0.4841    0.0000 C   0  0  0  0  0  0  0  0  0  0  0  0
   -1.4704    0.7352    0.0000 C   0  0  0  0  0  0  0  0  0  0  0  0
   -2.8869   -0.8965    0.0000 C   0  0  0  0  0  0  0  0  0  0  0  0
   -3.6041   -0.5021    0.0000 C   0  0  0  0  0  0  0  0  0  0  0  0
    1.2731    1.0400    0.0000 C   0  0  0  0  0  0  0  0  0  0  0  0
   -2.8510    0.7173    0.0000 C   0  0  0  0  0  0  0  0  0  0  0  0
    0.0717    1.5779    0.0000 C   0  0  0  0  0  0  0  0  0  0  0  0
   -3.5683    0.3407    0.0000 C   0  0  0  0  0  0  0  0  0  0  0  0
    2.4565    0.1793    0.0000 C   0  0  0  0  0  0  0  0  0  0  0  0
    3.2634    0.0896    0.0000 C   0  0  0  0  0  0  0  0  0  0  0  0
    1.9723   -0.4841    0.0000 C   0  0  0  0  0  0  0  0  0  0  0  0
    3.6041   -0.6635    0.0000 C   0  0  0  0  0  0  0  0  0  0  0  0
    2.3131   -1.2372    0.0000 C   0  0  0  0  0  0  0  0  0  0  0  0
    3.1379   -1.3269    0.0000 C   0  0  0  0  0  0  0  0  0  0  0  0
    4.5902    0.6814    0.0000 C   0  0  0  0  0  0  0  0  0  0  0  0
  1 15  1  0  0  0  0
  2 16  1  0  0  0  0
  3 17  1  0  0  0  0
  3 19  1  0  0  0  0
  4 10  1  0  0  0  0
  4 13  1  0  0  0  0
  5 13  2  0  0  0  0
  6 22  1  0  0  0  0
  6 27  1  0  0  0  0
  7 12  1  0  0  0  0
  7 17  2  0  0  0  0
  8 17  1  0  0  0  0
  8 21  1  0  0  0  0
  9 12  1  0  0  0  0
  9 13  1  0  0  0  0
  9 14  2  0  0  0  0
 10 11  1  0  0  0  0
 10 15  2  0  0  0  0
 11 14  1  0  0  0  0
 11 18  2  0  0  0  0
 12 19  2  0  0  0  0
 15 16  1  0  0  0  0
 16 20  2  0  0  0  0
 18 20  1  0  0  0  0
 21 22  1  0  0  0  0
 21 23  2  0  0  0  0
 22 24  2  0  0  0  0
 23 25  1  0  0  0  0
 24 26  1  0  0  0  0
 25 26  2  0  0  0  0
M  END
> <PUBCHEM_COMPOUND_ID_TYPE>
0

> <PUBCHEM_TOTAL_CHARGE>
0

> <PUBCHEM_SUBSTANCE_ID>
310941662

> <PUBCHEM_SUBSTANCE_VERSION>
1

> <PUBCHEM_EXT_DATASOURCE_NAME>
4488

> <PUBCHEM_EXT_DATASOURCE_REGID>
SCHEMBL16119693

> <PUBCHEM_SUBSTANCE_COMMENT>
InChI=1S/C19H12Cl2N2O3S/c1-25-15-5-3-2-4-13(15)22-19-23-14(9-27-19)11-8-10-6-7-12(20)16(21)17(10)26-18(11)24/h2-9H,1H3,(H,22,23)
InChIKey=DCZIKWYNCAHRIP-UHFFFAOYSA-N

> <PUBCHEM_SUBSTANCE_SYNONYM>
SCHEMBL16119693

> <PUBCHEM_XREF_EXT_ID>
SCHEMBL16119693

> <PUBCHEM_EXT_DATASOURCE_URL>
https://www.surechembl.org/

> <PUBCHEM_EXT_SUBSTANCE_URL>
https://www.surechembl.org/chemical/SCHEMBL16119693

> <PUBCHEM_CID_ASSOCIATIONS>
117608444  1

> <PUBCHEM_COORDINATE_TYPE>
1
3

$$$$
