310945178
  -OEChem-07211613022D

 29 32  0     0  0  0  0  0  0999 V2000
   -0.9353   -1.1618    0.0000 S   0  0  0  0  0  0  0  0  0  0  0  0
    5.2921    1.0804    0.0000 O   0  0  0  0  0  0  0  0  0  0  0  0
    0.5751   -1.1618    0.0000 O   0  0  0  0  0  0  0  0  0  0  0  0
   -4.6066   -0.3601    0.0000 O   0  0  0  0  0  0  0  0  0  0  0  0
    3.5029   -0.1743    0.0000 N   0  0  0  0  0  0  0  0  0  0  0  0
    5.1410   -0.3485    0.0000 N   0  0  0  0  0  0  0  0  0  0  0  0
   -0.1336    0.0929    0.0000 N   0  0  0  0  0  0  0  0  0  0  0  0
   -1.5975    0.0116    0.0000 N   0  0  0  0  0  0  0  0  0  0  0  0
   -3.3053    0.2439    0.0000 N   0  0  0  0  0  0  0  0  0  0  0  0
    2.7129    0.0929    0.0000 C   0  0  0  0  0  0  0  0  0  0  0  0
    3.9908    0.5112    0.0000 C   0  0  0  0  0  0  0  0  0  0  0  0
    2.7245    0.9178    0.0000 C   0  0  0  0  0  0  0  0  0  0  0  0
    3.5145    1.1735    0.0000 C   0  0  0  0  0  0  0  0  0  0  0  0
    2.0041   -0.3137    0.0000 C   0  0  0  0  0  0  0  0  0  0  0  0
    1.2838    0.0929    0.0000 C   0  0  0  0  0  0  0  0  0  0  0  0
    4.7925    0.4066    0.0000 C   0  0  0  0  0  0  0  0  0  0  0  0
    1.9925    1.3245    0.0000 C   0  0  0  0  0  0  0  0  0  0  0  0
    3.8398   -0.9294    0.0000 C   0  0  0  0  0  0  0  0  0  0  0  0
    1.2954    0.9178    0.0000 C   0  0  0  0  0  0  0  0  0  0  0  0
    0.5867   -0.3020    0.0000 C   0  0  0  0  0  0  0  0  0  0  0  0
    4.6647   -1.0108    0.0000 C   0  0  0  0  0  0  0  0  0  0  0  0
   -0.8423   -0.3253    0.0000 C   0  0  0  0  0  0  0  0  0  0  0  0
   -2.1551   -0.6157    0.0000 C   0  0  0  0  0  0  0  0  0  0  0  0
   -1.7369   -1.3245    0.0000 C   0  0  0  0  0  0  0  0  0  0  0  0
   -2.9684   -0.5112    0.0000 C   0  0  0  0  0  0  0  0  0  0  0  0
   -4.1070    0.3485    0.0000 C   0  0  0  0  0  0  0  0  0  0  0  0
   -2.8058    0.9294    0.0000 C   0  0  0  0  0  0  0  0  0  0  0  0
   -4.4556    1.0804    0.0000 C   0  0  0  0  0  0  0  0  0  0  0  0
   -5.2921    1.1037    0.0000 C   0  0  0  0  0  0  0  0  0  0  0  0
  1 22  1  0  0  0  0
  1 24  1  0  0  0  0
  2 16  2  0  0  0  0
  3 20  2  0  0  0  0
  4 26  2  0  0  0  0
  5 10  1  0  0  0  0
  5 11  1  0  0  0  0
  5 18  1  0  0  0  0
  6 16  1  0  0  0  0
  6 21  1  0  0  0  0
  7 20  1  0  0  0  0
  7 22  1  0  0  0  0
  8 22  2  0  0  0  0
  8 23  1  0  0  0  0
  9 25  1  0  0  0  0
  9 26  1  0  0  0  0
  9 27  1  0  0  0  0
 10 12  1  0  0  0  0
 10 14  2  0  0  0  0
 11 13  2  0  0  0  0
 11 16  1  0  0  0  0
 12 13  1  0  0  0  0
 12 17  2  0  0  0  0
 14 15  1  0  0  0  0
 15 19  2  0  0  0  0
 15 20  1  0  0  0  0
 17 19  1  0  0  0  0
 18 21  1  0  0  0  0
 23 24  2  0  0  0  0
 23 25  1  0  0  0  0
 26 28  1  0  0  0  0
 28 29  2  0  0  0  0
M  END
> <PUBCHEM_COMPOUND_ID_TYPE>
0

> <PUBCHEM_TOTAL_CHARGE>
0

> <PUBCHEM_SUBSTANCE_ID>
310945178

> <PUBCHEM_SUBSTANCE_VERSION>
1

> <PUBCHEM_EXT_DATASOURCE_NAME>
4488

> <PUBCHEM_EXT_DATASOURCE_REGID>
SCHEMBL16123268

> <PUBCHEM_SUBSTANCE_COMMENT>
InChI=1S/C20H19N5O3S/c1-3-17(26)24(2)10-14-11-29-20(22-14)23-18(27)13-5-4-12-8-16-19(28)21-6-7-25(16)15(12)9-13/h3-5,8-9,11H,1,6-7,10H2,2H3,(H,21,28)(H,22,23,27)
InChIKey=SMFQMCNZWYXNPH-UHFFFAOYSA-N

> <PUBCHEM_SUBSTANCE_SYNONYM>
SCHEMBL16123268

> <PUBCHEM_XREF_EXT_ID>
SCHEMBL16123268

> <PUBCHEM_EXT_DATASOURCE_URL>
https://www.surechembl.org/

> <PUBCHEM_EXT_SUBSTANCE_URL>
https://www.surechembl.org/chemical/SCHEMBL16123268

> <PUBCHEM_CID_ASSOCIATIONS>
117611264  1

> <PUBCHEM_COORDINATE_TYPE>
1
3

$$$$
