310945160
  -OEChem-07211613022D

 16 16  0     0  0  0  0  0  0999 V2000
    0.7159   -1.4247    0.0000 S   0  0  0  0  0  0  0  0  0  0  0  0
    0.8141    1.1019    0.0000 O   0  0  0  0  0  0  0  0  0  0  0  0
   -2.4985    0.1053    0.0000 O   0  0  0  0  0  0  0  0  0  0  0  0
    0.0561   -0.2176    0.0000 N   0  0  0  0  0  0  0  0  0  0  0  0
    1.5440   -0.1474    0.0000 N   0  0  0  0  0  0  0  0  0  0  0  0
   -1.3335   -0.7509    0.0000 N   0  0  0  0  0  0  0  0  0  0  0  0
    0.8281   -0.5684    0.0000 C   0  0  0  0  0  0  0  0  0  0  0  0
   -0.5053   -0.8492    0.0000 C   0  0  0  0  0  0  0  0  0  0  0  0
   -0.0983   -1.5650    0.0000 C   0  0  0  0  0  0  0  0  0  0  0  0
    1.5581    0.6808    0.0000 C   0  0  0  0  0  0  0  0  0  0  0  0
   -1.6563    0.0070    0.0000 C   0  0  0  0  0  0  0  0  0  0  0  0
    2.2598    1.1019    0.0000 C   0  0  0  0  0  0  0  0  0  0  0  0
   -1.1791    0.7229    0.0000 C   0  0  0  0  0  0  0  0  0  0  0  0
    2.0212    1.5650    0.0000 C   0  0  0  0  0  0  0  0  0  0  0  0
    2.4985    0.6948    0.0000 C   0  0  0  0  0  0  0  0  0  0  0  0
   -1.5721    1.4528    0.0000 C   0  0  0  0  0  0  0  0  0  0  0  0
  1  7  1  0  0  0  0
  1  9  1  0  0  0  0
  2 10  2  0  0  0  0
  3 11  2  0  0  0  0
  4  7  2  0  0  0  0
  4  8  1  0  0  0  0
  5  7  1  0  0  0  0
  5 10  1  0  0  0  0
  6  8  1  0  0  0  0
  6 11  1  0  0  0  0
  8  9  2  0  0  0  0
 10 12  1  0  0  0  0
 11 13  1  0  0  0  0
 12 14  1  0  0  0  0
 12 15  1  0  0  0  0
 13 16  2  0  0  0  0
M  END
> <PUBCHEM_COMPOUND_ID_TYPE>
0

> <PUBCHEM_TOTAL_CHARGE>
0

> <PUBCHEM_SUBSTANCE_ID>
310945160

> <PUBCHEM_SUBSTANCE_VERSION>
1

> <PUBCHEM_EXT_DATASOURCE_NAME>
4488

> <PUBCHEM_EXT_DATASOURCE_REGID>
SCHEMBL16123250

> <PUBCHEM_SUBSTANCE_COMMENT>
InChI=1S/C10H13N3O2S/c1-4-8(14)11-7-5-16-10(12-7)13-9(15)6(2)3/h4-6H,1H2,2-3H3,(H,11,14)(H,12,13,15)
InChIKey=YTKUJBSDPLHRQM-UHFFFAOYSA-N

> <PUBCHEM_SUBSTANCE_SYNONYM>
SCHEMBL16123250

> <PUBCHEM_XREF_EXT_ID>
SCHEMBL16123250

> <PUBCHEM_EXT_DATASOURCE_URL>
https://www.surechembl.org/

> <PUBCHEM_EXT_SUBSTANCE_URL>
https://www.surechembl.org/chemical/SCHEMBL16123250

> <PUBCHEM_CID_ASSOCIATIONS>
117611246  1

> <PUBCHEM_COORDINATE_TYPE>
1
3

$$$$
