310930618
  -OEChem-07211613022D

 31 35  0     1  0  0  0  0  0999 V2000
    4.2651   -5.8645    0.0000 F   0  0  0  0  0  0  0  0  0  0  0  0
    2.8852   -5.8645    0.0000 O   0  0  0  0  0  0  0  0  0  0  0  0
    2.1325   -4.6101    0.0000 N   0  0  0  0  0  0  0  0  0  0  0  0
    2.8852   -3.3870    0.0000 N   0  0  0  0  0  0  0  0  0  0  0  0
    1.4426   -2.5716    0.0000 N   0  0  0  0  0  0  0  0  0  0  0  0
    3.6065   -1.3485    0.0000 N   0  0  0  0  0  0  0  0  0  0  0  0
    2.7284   -0.1254    0.0000 N   0  0  0  0  0  0  0  0  0  0  0  0
    2.1325   -3.7947    0.0000 C   0  0  0  0  0  0  0  0  0  0  0  0
    3.5752   -4.6101    0.0000 C   0  0  0  0  0  0  0  0  0  0  0  0
    2.8852   -5.0178    0.0000 C   0  0  0  0  0  0  0  0  0  0  0  0
    3.5752   -3.7947    0.0000 C   0  0  0  0  0  0  0  0  0  0  0  0
    1.4426   -3.3870    0.0000 C   0  0  3  0  0  0  0  0  0  0  0  0
    1.4426   -5.0178    0.0000 C   0  0  0  0  0  0  0  0  0  0  0  0
    4.2651   -5.0178    0.0000 C   0  0  0  0  0  0  0  0  0  0  0  0
    2.1639   -2.1639    0.0000 C   0  0  0  0  0  0  0  0  0  0  0  0
    4.2651   -3.3870    0.0000 C   0  0  0  0  0  0  0  0  0  0  0  0
    2.1325   -1.3172    0.0000 C   0  0  0  0  0  0  0  0  0  0  0  0
    4.9864   -4.6101    0.0000 C   0  0  0  0  0  0  0  0  0  0  0  0
    2.8852   -0.9095    0.0000 C   0  0  0  0  0  0  0  0  0  0  0  0
    1.4426   -5.8645    0.0000 C   0  0  0  0  0  0  0  0  0  0  0  0
    0.8781   -4.7982    0.0000 C   0  0  0  0  0  0  0  0  0  0  0  0
    0.7213   -3.7947    0.0000 C   0  0  0  0  0  0  0  0  0  0  0  0
    4.9864   -3.7947    0.0000 C   0  0  0  0  0  0  0  0  0  0  0  0
    2.8225   -2.5716    0.0000 C   0  0  0  0  0  0  0  0  0  0  0  0
    1.5680   -0.7527    0.0000 C   0  0  0  0  0  0  0  0  0  0  0  0
    3.5752   -2.1639    0.0000 C   0  0  0  0  0  0  0  0  0  0  0  0
    1.9130    0.0000    0.0000 C   0  0  0  0  0  0  0  0  0  0  0  0
    0.7213   -6.2722    0.0000 C   0  0  0  0  0  0  0  0  0  0  0  0
    0.0000   -5.0491    0.0000 C   0  0  0  0  0  0  0  0  0  0  0  0
    0.0000   -5.8645    0.0000 C   0  0  0  0  0  0  0  0  0  0  0  0
    0.7213   -4.6101    0.0000 C   0  0  0  0  0  0  0  0  0  0  0  0
  1 14  1  0  0  0  0
  2 10  2  0  0  0  0
  3  8  1  0  0  0  0
  3 10  1  0  0  0  0
  3 13  1  0  0  0  0
  4  8  2  0  0  0  0
  4 11  1  0  0  0  0
 12  5  1  6  0  0  0
  5 15  1  0  0  0  0
  6 19  1  0  0  0  0
  6 26  2  0  0  0  0
  7 19  1  0  0  0  0
  7 27  1  0  0  0  0
  8 12  1  0  0  0  0
  9 10  1  0  0  0  0
  9 11  2  0  0  0  0
  9 14  1  0  0  0  0
 11 16  1  0  0  0  0
 12 22  1  0  0  0  0
 13 20  2  0  0  0  0
 13 21  1  0  0  0  0
 14 18  2  0  0  0  0
 15 17  1  0  0  0  0
 15 24  2  0  0  0  0
 16 23  2  0  0  0  0
 17 19  2  0  0  0  0
 17 25  1  0  0  0  0
 18 23  1  0  0  0  0
 20 28  1  0  0  0  0
 21 29  2  0  0  0  0
 22 31  1  0  0  0  0
 24 26  1  0  0  0  0
 25 27  2  0  0  0  0
 28 30  2  0  0  0  0
 29 30  1  0  0  0  0
M  END
> <PUBCHEM_COMPOUND_ID_TYPE>
0

> <PUBCHEM_TOTAL_CHARGE>
0

> <PUBCHEM_SUBSTANCE_ID>
310930618

> <PUBCHEM_SUBSTANCE_VERSION>
1

> <PUBCHEM_EXT_DATASOURCE_NAME>
4488

> <PUBCHEM_EXT_DATASOURCE_REGID>
SCHEMBL16107915

> <PUBCHEM_SUBSTANCE_COMMENT>
InChI=1S/C24H20FN5O/c1-2-18(28-19-12-14-27-22-16(19)11-13-26-22)23-29-20-10-6-9-17(25)21(20)24(31)30(23)15-7-4-3-5-8-15/h3-14,18H,2H2,1H3,(H2,26,27,28)/t18-/m0/s1
InChIKey=MWZRKOLMEVHUCV-SFHVURJKSA-N

> <PUBCHEM_SUBSTANCE_SYNONYM>
SCHEMBL16107915

> <PUBCHEM_XREF_EXT_ID>
SCHEMBL16107915

> <PUBCHEM_EXT_DATASOURCE_URL>
https://www.surechembl.org/

> <PUBCHEM_EXT_SUBSTANCE_URL>
https://www.surechembl.org/chemical/SCHEMBL16107915

> <PUBCHEM_CID_ASSOCIATIONS>
86272385  1

> <PUBCHEM_COORDINATE_TYPE>
1
3

> <PUBCHEM_BONDANNOTATIONS>
12  5  6

$$$$
