310947629
  -OEChem-07211613022D

 39 43  0     1  0  0  0  0  0999 V2000
    0.8451   -2.7309    0.0000 Cl  0  0  0  0  0  0  0  0  0  0  0  0
   -4.4630   -1.4737    0.0000 Cl  0  0  0  0  0  0  0  0  0  0  0  0
    0.1187    0.2165    0.0000 O   0  0  0  0  0  0  0  0  0  0  0  0
   -0.5937    2.3119    0.0000 O   0  0  0  0  0  0  0  0  0  0  0  0
   -2.7449    2.7309    0.0000 O   0  0  0  0  0  0  0  0  0  0  0  0
    3.7227   -1.0547    0.0000 O   0  0  0  0  0  0  0  0  0  0  0  0
    4.4351    0.2165    0.0000 O   0  0  0  0  0  0  0  0  0  0  0  0
   -1.3201    1.0547    0.0000 N   0  0  0  0  0  0  0  0  0  0  0  0
    2.2839    1.4737    0.0000 N   0  0  0  0  0  0  0  0  0  0  0  0
    0.1187    1.0686    0.0000 C   0  0  3  0  0  0  0  0  0  0  0  0
   -1.3201    0.2305    0.0000 C   0  0  3  0  0  0  0  0  0  0  0  0
   -0.6077    1.4598    0.0000 C   0  0  0  0  0  0  0  0  0  0  0  0
   -0.5937   -0.2026    0.0000 C   0  0  3  0  0  0  0  0  0  0  0  0
   -2.0325    1.5017    0.0000 C   0  0  3  0  0  0  0  0  0  0  0  0
   -2.0604   -0.2026    0.0000 C   0  0  0  0  0  0  0  0  0  0  0  0
   -0.6077   -1.0547    0.0000 C   0  0  0  0  0  0  0  0  0  0  0  0
   -2.8008    1.0267    0.0000 C   0  0  0  0  0  0  0  0  0  0  0  0
    0.8312    1.4598    0.0000 C   0  0  0  0  0  0  0  0  0  0  0  0
    0.3422    1.8788    0.0000 C   0  0  0  0  0  0  0  0  0  0  0  0
   -3.5691    1.0407    0.0000 C   0  0  0  0  0  0  0  0  0  0  0  0
   -3.1640    0.3562    0.0000 C   0  0  0  0  0  0  0  0  0  0  0  0
    1.5715    1.0547    0.0000 C   0  0  0  0  0  0  0  0  0  0  0  0
   -2.0325    2.3258    0.0000 C   0  0  0  0  0  0  0  0  0  0  0  0
   -2.7728    0.2026    0.0000 C   0  0  0  0  0  0  0  0  0  0  0  0
   -2.0465   -1.0407    0.0000 C   0  0  0  0  0  0  0  0  0  0  0  0
    0.1187   -1.4737    0.0000 C   0  0  0  0  0  0  0  0  0  0  0  0
   -1.3061   -1.4737    0.0000 C   0  0  0  0  0  0  0  0  0  0  0  0
    0.1187   -2.2979    0.0000 C   0  0  0  0  0  0  0  0  0  0  0  0
   -3.4712   -0.2026    0.0000 C   0  0  0  0  0  0  0  0  0  0  0  0
   -2.7449   -1.4598    0.0000 C   0  0  0  0  0  0  0  0  0  0  0  0
    1.5715    0.2165    0.0000 C   0  0  0  0  0  0  0  0  0  0  0  0
   -3.4712   -1.0407    0.0000 C   0  0  0  0  0  0  0  0  0  0  0  0
   -1.3061   -2.2979    0.0000 C   0  0  0  0  0  0  0  0  0  0  0  0
   -0.5797   -2.7170    0.0000 C   0  0  0  0  0  0  0  0  0  0  0  0
    2.9963    0.2305    0.0000 C   0  0  0  0  0  0  0  0  0  0  0  0
    3.0103    1.0547    0.0000 C   0  0  0  0  0  0  0  0  0  0  0  0
    2.2979   -0.2026    0.0000 C   0  0  0  0  0  0  0  0  0  0  0  0
    3.6947   -0.2026    0.0000 C   0  0  0  0  0  0  0  0  0  0  0  0
    4.4630   -1.4877    0.0000 C   0  0  0  0  0  0  0  0  0  0  0  0
  1 28  1  0  0  0  0
  2 32  1  0  0  0  0
  3 10  1  0  0  0  0
 13  3  1  6  0  0  0
  4 12  2  0  0  0  0
  5 23  1  0  0  0  0
  6 38  1  0  0  0  0
  6 39  1  0  0  0  0
  7 38  2  0  0  0  0
 11  8  1  1  0  0  0
  8 12  1  0  0  0  0
  8 14  1  0  0  0  0
  9 22  1  0  0  0  0
  9 36  2  0  0  0  0
 10 12  1  0  0  0  0
 10 18  1  6  0  0  0
 10 19  1  1  0  0  0
 11 13  1  0  0  0  0
 11 15  1  0  0  0  0
 13 16  1  0  0  0  0
 14 17  1  0  0  0  0
 14 23  1  1  0  0  0
 15 24  2  0  0  0  0
 15 25  1  0  0  0  0
 16 26  1  0  0  0  0
 16 27  2  0  0  0  0
 17 20  1  0  0  0  0
 17 21  1  0  0  0  0
 18 22  1  0  0  0  0
 20 21  1  0  0  0  0
 22 31  2  0  0  0  0
 24 29  1  0  0  0  0
 25 30  2  0  0  0  0
 26 28  2  0  0  0  0
 27 33  1  0  0  0  0
 28 34  1  0  0  0  0
 29 32  2  0  0  0  0
 30 32  1  0  0  0  0
 31 37  1  0  0  0  0
 33 34  2  0  0  0  0
 35 36  1  0  0  0  0
 35 37  2  0  0  0  0
 35 38  1  0  0  0  0
M  END
> <PUBCHEM_COMPOUND_ID_TYPE>
0

> <PUBCHEM_TOTAL_CHARGE>
0

> <PUBCHEM_SUBSTANCE_ID>
310947629

> <PUBCHEM_SUBSTANCE_VERSION>
1

> <PUBCHEM_EXT_DATASOURCE_NAME>
4488

> <PUBCHEM_EXT_DATASOURCE_REGID>
SCHEMBL16125795

> <PUBCHEM_SUBSTANCE_COMMENT>
InChI=1S/C30H30Cl2N2O5/c1-30(15-24-13-10-21(16-33-24)28(36)38-2)29(37)34(25(17-35)18-6-7-18)26(19-8-11-22(31)12-9-19)27(39-30)20-4-3-5-23(32)14-20/h3-5,8-14,16,18,25-27,35H,6-7,15,17H2,1-2H3/t25-,26-,27-,30+/m1/s1
InChIKey=KMAQYCFCKOVUGU-LCQQBMRFSA-N

> <PUBCHEM_SUBSTANCE_SYNONYM>
SCHEMBL16125795

> <PUBCHEM_XREF_EXT_ID>
SCHEMBL16125795

> <PUBCHEM_EXT_DATASOURCE_URL>
https://www.surechembl.org/

> <PUBCHEM_EXT_SUBSTANCE_URL>
https://www.surechembl.org/chemical/SCHEMBL16125795

> <PUBCHEM_CID_ASSOCIATIONS>
117613345  1

> <PUBCHEM_COORDINATE_TYPE>
1
3

> <PUBCHEM_BONDANNOTATIONS>
10  18  6
10  19  5
14  23  5
13  3  6
11  8  5

$$$$
