310934510
  -OEChem-07211613022D

 17 18  0     1  0  0  0  0  0999 V2000
    0.9123    2.8009    0.0000 O   0  0  0  0  0  0  0  0  0  0  0  0
   -1.2072    3.0558    0.0000 O   0  0  0  0  0  0  0  0  0  0  0  0
   -0.6525    1.3488    0.0000 O   0  0  0  0  0  0  0  0  0  0  0  0
    1.8588    2.9428    0.0000 O   0  0  0  0  0  0  0  0  0  0  0  0
   -1.1141    3.7274    0.0000 O   0  0  0  0  0  0  0  0  0  0  0  0
    0.7969    3.8989    0.0000 N   0  0  0  0  0  0  0  0  0  0  0  0
    2.1559    4.3405    0.0000 N   0  0  0  0  0  0  0  0  0  0  0  0
    1.0940    5.2966    0.0000 N   0  0  0  0  0  0  0  0  0  0  0  0
    2.4530    5.7382    0.0000 N   0  0  0  0  0  0  0  0  0  0  0  0
    0.2449    3.2858    0.0000 C   0  0  3  0  0  0  0  0  0  0  0  0
   -0.4226    2.8009    0.0000 C   0  0  3  0  0  0  0  0  0  0  0  0
   -0.1676    2.0163    0.0000 C   0  0  3  0  0  0  0  0  0  0  0  0
    1.6039    3.7274    0.0000 C   0  0  0  0  0  0  0  0  0  0  0  0
   -0.3071    3.8989    0.0000 C   0  0  0  0  0  0  0  0  0  0  0  0
    0.6574    2.0163    0.0000 C   0  0  0  0  0  0  0  0  0  0  0  0
    0.5420    4.6835    0.0000 C   0  0  0  0  0  0  0  0  0  0  0  0
    1.9010    5.1251    0.0000 C   0  0  0  0  0  0  0  0  0  0  0  0
  1 10  1  0  0  0  0
  1 15  1  0  0  0  0
 11  2  1  6  0  0  0
 12  3  1  6  0  0  0
  4 13  2  0  0  0  0
  5 14  1  0  0  0  0
  6 10  1  0  0  0  0
  6 13  1  0  0  0  0
  6 16  1  0  0  0  0
  7 13  1  0  0  0  0
  7 17  2  0  0  0  0
  8 16  2  0  0  0  0
  8 17  1  0  0  0  0
  9 17  1  0  0  0  0
 10 11  1  0  0  0  0
 10 14  1  6  0  0  0
 11 12  1  0  0  0  0
 12 15  1  0  0  0  0
M  END
> <PUBCHEM_COMPOUND_ID_TYPE>
0

> <PUBCHEM_TOTAL_CHARGE>
0

> <PUBCHEM_SUBSTANCE_ID>
310934510

> <PUBCHEM_SUBSTANCE_VERSION>
1

> <PUBCHEM_EXT_DATASOURCE_NAME>
4488

> <PUBCHEM_EXT_DATASOURCE_REGID>
SCHEMBL16111995

> <PUBCHEM_SUBSTANCE_COMMENT>
InChI=1S/C8H12N4O5/c9-6-10-3-12(7(16)11-6)8(2-13)5(15)4(14)1-17-8/h3-5,13-15H,1-2H2,(H2,9,11,16)/t4-,5-,8-/m0/s1
InChIKey=ABUKMBJUGADLCR-YQJDLUKNSA-N

> <PUBCHEM_SUBSTANCE_SYNONYM>
SCHEMBL16111995

> <PUBCHEM_XREF_EXT_ID>
SCHEMBL16111995

> <PUBCHEM_EXT_DATASOURCE_URL>
https://www.surechembl.org/

> <PUBCHEM_EXT_SUBSTANCE_URL>
https://www.surechembl.org/chemical/SCHEMBL16111995

> <PUBCHEM_CID_ASSOCIATIONS>
117602708  1

> <PUBCHEM_COORDINATE_TYPE>
1
3

> <PUBCHEM_BONDANNOTATIONS>
10  14  6
11  2  6
12  3  6

$$$$
