310946036
  -OEChem-07211613022D

 37 40  0     1  0  0  0  0  0999 V2000
    3.6423    1.4514    0.0000 O   0  0  0  0  0  0  0  0  0  0  0  0
    1.3754    1.4514    0.0000 O   0  0  0  0  0  0  0  0  0  0  0  0
    0.6566    1.0367    0.0000 O   0  0  0  0  0  0  0  0  0  0  0  0
   -0.0622    1.4514    0.0000 O   0  0  0  0  0  0  0  0  0  0  0  0
   -2.2186    0.2074    0.0000 O   0  0  0  0  0  0  0  0  0  0  0  0
   -2.9374   -2.6955    0.0000 O   0  0  0  0  0  0  0  0  0  0  0  0
    1.3754   -0.1935    0.0000 N   0  0  0  0  0  0  0  0  0  0  0  0
   -0.7810    0.2212    0.0000 N   0  0  0  0  0  0  0  0  0  0  0  0
   -1.4998    2.2946    0.0000 N   0  0  0  0  0  0  0  0  0  0  0  0
    2.8268    1.4653    0.0000 C   0  0  3  0  0  0  0  0  0  0  0  0
    2.0803    0.9814    0.0000 C   0  0  0  0  0  0  0  0  0  0  0  0
    3.2415    0.7602    0.0000 C   0  0  0  0  0  0  0  0  0  0  0  0
    2.0942    0.2212    0.0000 C   0  0  3  0  0  0  0  0  0  0  0  0
    2.8130    2.2808    0.0000 C   0  0  0  0  0  0  0  0  0  0  0  0
    2.8130   -0.1797    0.0000 C   0  0  0  0  0  0  0  0  0  0  0  0
    0.6428    0.1935    0.0000 C   0  0  0  0  0  0  0  0  0  0  0  0
   -0.0484   -0.1935    0.0000 C   0  0  3  0  0  0  0  0  0  0  0  0
    2.8130   -1.0229    0.0000 C   0  0  0  0  0  0  0  0  0  0  0  0
   -0.7672    1.0229    0.0000 C   0  0  0  0  0  0  0  0  0  0  0  0
   -1.5136    1.4653    0.0000 C   0  0  3  0  0  0  0  0  0  0  0  0
   -0.0484   -1.0229    0.0000 C   0  0  0  0  0  0  0  0  0  0  0  0
   -0.7672   -1.4376    0.0000 C   0  0  0  0  0  0  0  0  0  0  0  0
   -2.2047    1.0506    0.0000 C   0  0  3  0  0  0  0  0  0  0  0  0
    3.5318   -1.4514    0.0000 C   0  0  0  0  0  0  0  0  0  0  0  0
    2.1080   -1.4514    0.0000 C   0  0  0  0  0  0  0  0  0  0  0  0
   -1.4998   -1.0367    0.0000 C   0  0  0  0  0  0  0  0  0  0  0  0
   -0.7810   -2.2669    0.0000 C   0  0  0  0  0  0  0  0  0  0  0  0
   -2.9235    1.4653    0.0000 C   0  0  0  0  0  0  0  0  0  0  0  0
   -2.2047   -2.2669    0.0000 C   0  0  0  0  0  0  0  0  0  0  0  0
   -2.2186    2.6955    0.0000 C   0  0  0  0  0  0  0  0  0  0  0  0
   -2.2047   -1.4376    0.0000 C   0  0  0  0  0  0  0  0  0  0  0  0
   -1.4860   -2.6817    0.0000 C   0  0  0  0  0  0  0  0  0  0  0  0
    3.5318   -2.2669    0.0000 C   0  0  0  0  0  0  0  0  0  0  0  0
    2.1080   -2.2669    0.0000 C   0  0  0  0  0  0  0  0  0  0  0  0
   -2.9235    2.2946    0.0000 C   0  0  0  0  0  0  0  0  0  0  0  0
    2.8268   -2.6678    0.0000 C   0  0  0  0  0  0  0  0  0  0  0  0
   -3.6423   -2.2669    0.0000 C   0  0  0  0  0  0  0  0  0  0  0  0
  1 10  1  0  0  0  0
  1 12  1  0  0  0  0
  2 11  2  0  0  0  0
  3 16  2  0  0  0  0
  4 19  2  0  0  0  0
 23  5  1  1  0  0  0
  6 29  1  0  0  0  0
  6 37  1  0  0  0  0
 13  7  1  6  0  0  0
  7 16  1  0  0  0  0
 17  8  1  6  0  0  0
  8 19  1  0  0  0  0
  9 20  1  0  0  0  0
  9 30  1  0  0  0  0
 10 11  1  6  0  0  0
 10 12  1  0  0  0  0
 10 14  1  1  0  0  0
 11 13  1  0  0  0  0
 13 15  1  0  0  0  0
 15 18  1  0  0  0  0
 16 17  1  0  0  0  0
 17 21  1  0  0  0  0
 18 24  2  0  0  0  0
 18 25  1  0  0  0  0
 20 19  1  1  0  0  0
 20 23  1  0  0  0  0
 21 22  1  0  0  0  0
 22 26  2  0  0  0  0
 22 27  1  0  0  0  0
 23 28  1  0  0  0  0
 24 33  1  0  0  0  0
 25 34  2  0  0  0  0
 26 31  1  0  0  0  0
 27 32  2  0  0  0  0
 28 35  1  0  0  0  0
 29 31  2  0  0  0  0
 29 32  1  0  0  0  0
 30 35  1  0  0  0  0
 33 36  2  0  0  0  0
 34 36  1  0  0  0  0
M  END
> <PUBCHEM_COMPOUND_ID_TYPE>
0

> <PUBCHEM_TOTAL_CHARGE>
0

> <PUBCHEM_SUBSTANCE_ID>
310946036

> <PUBCHEM_SUBSTANCE_VERSION>
1

> <PUBCHEM_EXT_DATASOURCE_NAME>
4488

> <PUBCHEM_EXT_DATASOURCE_REGID>
SCHEMBL16124142

> <PUBCHEM_SUBSTANCE_COMMENT>
InChI=1S/C28H35N3O6/c1-28(17-37-28)25(33)21(15-18-7-4-3-5-8-18)30-26(34)22(16-19-10-12-20(36-2)13-11-19)31-27(35)24-23(32)9-6-14-29-24/h3-5,7-8,10-13,21-24,29,32H,6,9,14-17H2,1-2H3,(H,30,34)(H,31,35)/t21-,22-,23-,24+,28+/m0/s1
InChIKey=ZMAZGEWABACCKS-SXFUUEIQSA-N

> <PUBCHEM_SUBSTANCE_SYNONYM>
SCHEMBL16124142

> <PUBCHEM_XREF_EXT_ID>
SCHEMBL16124142

> <PUBCHEM_EXT_DATASOURCE_URL>
https://www.surechembl.org/

> <PUBCHEM_EXT_SUBSTANCE_URL>
https://www.surechembl.org/chemical/SCHEMBL16124142

> <PUBCHEM_CID_ASSOCIATIONS>
117612007  1

> <PUBCHEM_COORDINATE_TYPE>
1
3

> <PUBCHEM_BONDANNOTATIONS>
10  11  6
10  14  5
20  19  5
23  5  5
13  7  6
17  8  6

$$$$
