310945305
  -OEChem-07211613022D

 29 34  0     1  0  0  0  0  0999 V2000
    2.1067    1.2197    0.0000 S   0  0  0  0  0  0  0  0  0  0  0  0
    3.7330    1.0534    0.0000 O   0  0  0  0  0  0  0  0  0  0  0  0
   -1.1088    0.5914    0.0000 N   0  0  0  0  0  0  0  0  0  0  0  0
    1.9220   -0.9055    0.0000 N   0  0  0  0  0  0  0  0  0  0  0  0
    3.7145   -0.3696    0.0000 N   0  0  0  0  0  0  0  0  0  0  0  0
   -2.6612    1.0164    0.0000 N   0  0  0  0  0  0  0  0  0  0  0  0
    1.0903    0.3511    0.0000 C   0  0  0  0  0  0  0  0  0  0  0  0
    1.8480   -0.0739    0.0000 C   0  0  0  0  0  0  0  0  0  0  0  0
    0.2772    0.2217    0.0000 C   0  0  0  0  0  0  0  0  0  0  0  0
    1.2936    1.1643    0.0000 C   0  0  0  0  0  0  0  0  0  0  0  0
    2.4579    0.4805    0.0000 C   0  0  0  0  0  0  0  0  0  0  0  0
   -0.3326    0.7946    0.0000 C   0  0  0  0  0  0  0  0  0  0  0  0
   -1.3675   -0.2033    0.0000 C   0  0  0  0  0  0  0  0  0  0  0  0
    0.7392    1.7556    0.0000 C   0  0  0  0  0  0  0  0  0  0  0  0
    3.3079    0.3326    0.0000 C   0  0  0  0  0  0  0  0  0  0  0  0
    0.0554   -0.6098    0.0000 C   0  0  0  0  0  0  0  0  0  0  0  0
   -0.0739    1.5709    0.0000 C   0  0  0  0  0  0  0  0  0  0  0  0
   -2.1437   -0.4066    0.0000 C   0  0  0  0  0  0  0  0  0  0  0  0
   -0.7577   -0.8131    0.0000 C   0  0  0  0  0  0  0  0  0  0  0  0
   -2.7536    0.1848    0.0000 C   0  0  0  0  0  0  0  0  0  0  0  0
   -3.5298   -0.0185    0.0000 C   0  0  0  0  0  0  0  0  0  0  0  0
    2.6427   -1.3860    0.0000 C   0  0  0  0  0  0  0  0  0  0  0  0
    3.4004   -1.1643    0.0000 C   0  0  3  0  0  0  0  0  0  0  0  0
   -2.3655   -1.2012    0.0000 C   0  0  0  0  0  0  0  0  0  0  0  0
   -3.7330   -0.8501    0.0000 C   0  0  0  0  0  0  0  0  0  0  0  0
   -3.9548    0.6283    0.0000 C   0  0  0  0  0  0  0  0  0  0  0  0
   -3.1416   -1.4045    0.0000 C   0  0  0  0  0  0  0  0  0  0  0  0
   -3.4373    1.2936    0.0000 C   0  0  0  0  0  0  0  0  0  0  0  0
    3.9548   -1.7556    0.0000 C   0  0  0  0  0  0  0  0  0  0  0  0
  1 10  1  0  0  0  0
  1 11  1  0  0  0  0
  2 15  2  0  0  0  0
  3 12  1  0  0  0  0
  3 13  2  0  0  0  0
  4  8  1  0  0  0  0
  4 22  1  0  0  0  0
  5 15  1  0  0  0  0
  5 23  1  0  0  0  0
  6 20  1  0  0  0  0
  6 28  1  0  0  0  0
  7  8  1  0  0  0  0
  7  9  1  0  0  0  0
  7 10  2  0  0  0  0
  8 11  2  0  0  0  0
  9 12  2  0  0  0  0
  9 16  1  0  0  0  0
 10 14  1  0  0  0  0
 11 15  1  0  0  0  0
 12 17  1  0  0  0  0
 13 18  1  0  0  0  0
 13 19  1  0  0  0  0
 14 17  2  0  0  0  0
 16 19  2  0  0  0  0
 18 20  1  0  0  0  0
 18 24  2  0  0  0  0
 20 21  2  0  0  0  0
 21 25  1  0  0  0  0
 21 26  1  0  0  0  0
 22 23  1  0  0  0  0
 23 29  1  6  0  0  0
 24 27  1  0  0  0  0
 25 27  2  0  0  0  0
 26 28  1  0  0  0  0
M  END
> <PUBCHEM_COMPOUND_ID_TYPE>
0

> <PUBCHEM_TOTAL_CHARGE>
0

> <PUBCHEM_SUBSTANCE_ID>
310945305

> <PUBCHEM_SUBSTANCE_VERSION>
1

> <PUBCHEM_EXT_DATASOURCE_NAME>
4488

> <PUBCHEM_EXT_DATASOURCE_REGID>
SCHEMBL16123403

> <PUBCHEM_SUBSTANCE_COMMENT>
InChI=1S/C23H20N4OS/c1-12-11-25-21-19-14-5-6-17(15-4-2-3-13-9-10-24-20(13)15)27-16(14)7-8-18(19)29-22(21)23(28)26-12/h2-8,12,24-25H,9-11H2,1H3,(H,26,28)/t12-/m1/s1
InChIKey=CZARDOCYOLZQQY-GFCCVEGCSA-N

> <PUBCHEM_SUBSTANCE_SYNONYM>
SCHEMBL16123403

> <PUBCHEM_XREF_EXT_ID>
SCHEMBL16123403

> <PUBCHEM_EXT_DATASOURCE_URL>
https://www.surechembl.org/

> <PUBCHEM_EXT_SUBSTANCE_URL>
https://www.surechembl.org/chemical/SCHEMBL16123403

> <PUBCHEM_CID_ASSOCIATIONS>
117611364  1

> <PUBCHEM_COORDINATE_TYPE>
1
3

> <PUBCHEM_BONDANNOTATIONS>
23  29  6

$$$$
