310931095
  -OEChem-07211613022D

 32 35  0     0  0  0  0  0  0999 V2000
    3.6451   -2.4426    0.0000 S   0  0  0  0  0  0  0  0  0  0  0  0
    0.0000   -4.0585    0.0000 F   0  0  0  0  0  0  0  0  0  0  0  0
    1.2025   -4.7349    0.0000 F   0  0  0  0  0  0  0  0  0  0  0  0
    0.4134   -3.3445    0.0000 F   0  0  0  0  0  0  0  0  0  0  0  0
    4.0585   -3.2317    0.0000 O   0  0  0  0  0  0  0  0  0  0  0  0
    3.2317   -1.7286    0.0000 O   0  0  0  0  0  0  0  0  0  0  0  0
    7.8915    0.0000    0.0000 O   0  0  0  0  0  0  0  0  0  0  0  0
    2.9311   -3.6451    0.0000 N   0  0  0  0  0  0  0  0  0  0  0  0
    9.2818   -2.4426    0.0000 N   0  0  0  0  0  0  0  0  0  0  0  0
   10.7850   -2.2923    0.0000 N   0  0  0  0  0  0  0  0  0  0  0  0
    7.1774   -1.2025    0.0000 N   0  0  0  0  0  0  0  0  0  0  0  0
   11.2735   -1.6535    0.0000 N   0  0  0  0  0  0  0  0  0  0  0  0
    2.9311   -2.8184    0.0000 C   0  0  0  0  0  0  0  0  0  0  0  0
    4.3215   -2.0293    0.0000 C   0  0  0  0  0  0  0  0  0  0  0  0
    1.5031   -3.6451    0.0000 C   0  0  0  0  0  0  0  0  0  0  0  0
    2.2171   -2.4050    0.0000 C   0  0  0  0  0  0  0  0  0  0  0  0
    0.7892   -4.0585    0.0000 C   0  0  0  0  0  0  0  0  0  0  0  0
    5.0355   -2.4426    0.0000 C   0  0  0  0  0  0  0  0  0  0  0  0
    4.3215   -1.2025    0.0000 C   0  0  0  0  0  0  0  0  0  0  0  0
    2.2171   -4.0585    0.0000 C   0  0  0  0  0  0  0  0  0  0  0  0
    1.5031   -2.8184    0.0000 C   0  0  0  0  0  0  0  0  0  0  0  0
    9.9959   -1.2025    0.0000 C   0  0  0  0  0  0  0  0  0  0  0  0
    9.9959   -2.0668    0.0000 C   0  0  0  0  0  0  0  0  0  0  0  0
    8.6054   -1.2025    0.0000 C   0  0  0  0  0  0  0  0  0  0  0  0
    5.7495   -1.2025    0.0000 C   0  0  0  0  0  0  0  0  0  0  0  0
    9.2818   -0.8267    0.0000 C   0  0  0  0  0  0  0  0  0  0  0  0
    5.7495   -2.0293    0.0000 C   0  0  0  0  0  0  0  0  0  0  0  0
    5.0355   -0.7892    0.0000 C   0  0  0  0  0  0  0  0  0  0  0  0
    7.8915   -0.7892    0.0000 C   0  0  0  0  0  0  0  0  0  0  0  0
    8.6054   -2.0668    0.0000 C   0  0  0  0  0  0  0  0  0  0  0  0
   10.7850   -0.9771    0.0000 C   0  0  0  0  0  0  0  0  0  0  0  0
    6.4635   -0.7892    0.0000 C   0  0  0  0  0  0  0  0  0  0  0  0
  1  5  2  0  0  0  0
  1  6  2  0  0  0  0
  1 13  1  0  0  0  0
  1 14  1  0  0  0  0
  2 17  1  0  0  0  0
  3 17  1  0  0  0  0
  4 17  1  0  0  0  0
  7 29  2  0  0  0  0
  8 13  1  0  0  0  0
  8 20  2  0  0  0  0
  9 23  1  0  0  0  0
  9 30  2  0  0  0  0
 10 12  1  0  0  0  0
 10 23  1  0  0  0  0
 11 29  1  0  0  0  0
 11 32  1  0  0  0  0
 12 31  2  0  0  0  0
 13 16  2  0  0  0  0
 14 18  2  0  0  0  0
 14 19  1  0  0  0  0
 15 17  1  0  0  0  0
 15 20  1  0  0  0  0
 15 21  2  0  0  0  0
 16 21  1  0  0  0  0
 18 27  1  0  0  0  0
 19 28  2  0  0  0  0
 22 23  2  0  0  0  0
 22 26  1  0  0  0  0
 22 31  1  0  0  0  0
 24 26  2  0  0  0  0
 24 29  1  0  0  0  0
 24 30  1  0  0  0  0
 25 27  2  0  0  0  0
 25 28  1  0  0  0  0
 25 32  1  0  0  0  0
M  END
> <PUBCHEM_COMPOUND_ID_TYPE>
0

> <PUBCHEM_TOTAL_CHARGE>
0

> <PUBCHEM_SUBSTANCE_ID>
310931095

> <PUBCHEM_SUBSTANCE_VERSION>
1

> <PUBCHEM_EXT_DATASOURCE_NAME>
4488

> <PUBCHEM_EXT_DATASOURCE_REGID>
SCHEMBL16108399

> <PUBCHEM_SUBSTANCE_COMMENT>
InChI=1S/C20H14F3N5O3S/c21-20(22,23)15-3-6-17(24-11-15)32(30,31)16-4-1-12(2-5-16)8-26-19(29)14-7-13-10-27-28-18(13)25-9-14/h1-7,9-11H,8H2,(H,26,29)(H,25,27,28)
InChIKey=VMBDLIKWCLGHKH-UHFFFAOYSA-N

> <PUBCHEM_SUBSTANCE_SYNONYM>
SCHEMBL16108399

> <PUBCHEM_XREF_EXT_ID>
SCHEMBL16108399

> <PUBCHEM_EXT_DATASOURCE_URL>
https://www.surechembl.org/

> <PUBCHEM_EXT_SUBSTANCE_URL>
https://www.surechembl.org/chemical/SCHEMBL16108399

> <PUBCHEM_CID_ASSOCIATIONS>
117599991  1

> <PUBCHEM_COORDINATE_TYPE>
1
3

$$$$
