310931715
  -OEChem-07211613022D

 33 36  0     0  0  0  0  0  0999 V2000
    8.0917   -0.7298    0.0000 F   0  0  0  0  0  0  0  0  0  0  0  0
    5.7435   -2.0626    0.0000 O   0  0  0  0  0  0  0  0  0  0  0  0
    1.6183   -3.7761    0.0000 O   0  0  0  0  0  0  0  0  0  0  0  0
    5.3627   -3.4588    0.0000 N   0  0  0  0  0  0  0  0  0  0  0  0
    5.7752   -4.1886    0.0000 N   0  0  0  0  0  0  0  0  0  0  0  0
    4.0935   -4.0299    0.0000 N   0  0  0  0  0  0  0  0  0  0  0  0
    1.7770   -2.3482    0.0000 N   0  0  0  0  0  0  0  0  0  0  0  0
    1.1424   -0.8568    0.0000 N   0  0  0  0  0  0  0  0  0  0  0  0
    9.5196   -0.7298    0.0000 N   0  0  0  0  0  0  0  0  0  0  0  0
    6.6637   -3.1732    0.0000 C   0  0  0  0  0  0  0  0  0  0  0  0
    5.9022   -2.8558    0.0000 C   0  0  0  0  0  0  0  0  0  0  0  0
    7.3618   -2.7607    0.0000 C   0  0  0  0  0  0  0  0  0  0  0  0
    4.5377   -3.3636    0.0000 C   0  0  0  0  0  0  0  0  0  0  0  0
    7.3618   -1.9674    0.0000 C   0  0  0  0  0  0  0  0  0  0  0  0
    6.5685   -3.9982    0.0000 C   0  0  0  0  0  0  0  0  0  0  0  0
    8.0917   -1.5549    0.0000 C   0  0  0  0  0  0  0  0  0  0  0  0
    8.0917   -3.1732    0.0000 C   0  0  0  0  0  0  0  0  0  0  0  0
    8.7897   -1.9674    0.0000 C   0  0  0  0  0  0  0  0  0  0  0  0
    2.9194   -3.2050    0.0000 C   0  0  0  0  0  0  0  0  0  0  0  0
    4.2204   -2.6020    0.0000 C   0  0  0  0  0  0  0  0  0  0  0  0
    8.7897   -2.7607    0.0000 C   0  0  0  0  0  0  0  0  0  0  0  0
    2.1260   -3.1097    0.0000 C   0  0  0  0  0  0  0  0  0  0  0  0
    3.2684   -3.9665    0.0000 C   0  0  0  0  0  0  0  0  0  0  0  0
    3.3953   -2.5385    0.0000 C   0  0  0  0  0  0  0  0  0  0  0  0
    6.6637   -1.5549    0.0000 C   0  0  0  0  0  0  0  0  0  0  0  0
    9.5196   -1.5549    0.0000 C   0  0  0  0  0  0  0  0  0  0  0  0
    2.2847   -1.7135    0.0000 C   0  0  0  0  0  0  0  0  0  0  0  0
    0.9837   -2.2529    0.0000 C   0  0  0  0  0  0  0  0  0  0  0  0
    4.9502   -1.8087    0.0000 C   0  0  0  0  0  0  0  0  0  0  0  0
    0.6346   -1.4914    0.0000 C   0  0  0  0  0  0  0  0  0  0  0  0
    1.9674   -0.9519    0.0000 C   0  0  0  0  0  0  0  0  0  0  0  0
    0.7933   -0.0952    0.0000 C   0  0  0  0  0  0  0  0  0  0  0  0
    0.0000    0.0000    0.0000 C   0  0  0  0  0  0  0  0  0  0  0  0
  1 16  1  0  0  0  0
  2 11  1  0  0  0  0
  2 29  1  0  0  0  0
  3 22  2  0  0  0  0
  4  5  1  0  0  0  0
  4 11  1  0  0  0  0
  4 13  1  0  0  0  0
  5 15  2  0  0  0  0
  6 13  1  0  0  0  0
  6 23  2  0  0  0  0
  7 22  1  0  0  0  0
  7 27  1  0  0  0  0
  7 28  1  0  0  0  0
  8 30  1  0  0  0  0
  8 31  1  0  0  0  0
  8 32  1  0  0  0  0
  9 26  3  0  0  0  0
 10 11  2  0  0  0  0
 10 12  1  0  0  0  0
 10 15  1  0  0  0  0
 12 14  2  0  0  0  0
 12 17  1  0  0  0  0
 13 20  2  0  0  0  0
 14 16  1  0  0  0  0
 14 25  1  0  0  0  0
 16 18  2  0  0  0  0
 17 21  2  0  0  0  0
 18 21  1  0  0  0  0
 18 26  1  0  0  0  0
 19 22  1  0  0  0  0
 19 23  1  0  0  0  0
 19 24  2  0  0  0  0
 20 24  1  0  0  0  0
 27 31  1  0  0  0  0
 28 30  1  0  0  0  0
 32 33  1  0  0  0  0
M  END
> <PUBCHEM_COMPOUND_ID_TYPE>
0

> <PUBCHEM_TOTAL_CHARGE>
0

> <PUBCHEM_SUBSTANCE_ID>
310931715

> <PUBCHEM_SUBSTANCE_VERSION>
1

> <PUBCHEM_EXT_DATASOURCE_NAME>
4488

> <PUBCHEM_EXT_DATASOURCE_REGID>
SCHEMBL16109044

> <PUBCHEM_SUBSTANCE_COMMENT>
InChI=1S/C24H25FN6O2/c1-4-29-9-11-30(12-10-29)23(32)18-6-8-21(27-14-18)31-24(33-3)20(15-28-31)19-7-5-17(13-26)22(25)16(19)2/h5-8,14-15H,4,9-12H2,1-3H3
InChIKey=GHSLPRPHQCLCHO-UHFFFAOYSA-N

> <PUBCHEM_SUBSTANCE_SYNONYM>
SCHEMBL16109044

> <PUBCHEM_XREF_EXT_ID>
SCHEMBL16109044

> <PUBCHEM_EXT_DATASOURCE_URL>
https://www.surechembl.org/

> <PUBCHEM_EXT_SUBSTANCE_URL>
https://www.surechembl.org/chemical/SCHEMBL16109044

> <PUBCHEM_CID_ASSOCIATIONS>
117600414  1

> <PUBCHEM_COORDINATE_TYPE>
1
3

$$$$
