310940873
  -OEChem-07211613022D

 45 48  0     1  0  0  0  0  0999 V2000
    5.0883    0.6780    0.0000 O   0  0  0  0  0  0  0  0  0  0  0  0
    3.9465   -1.2917    0.0000 O   0  0  0  0  0  0  0  0  0  0  0  0
    1.7913    0.7778    0.0000 O   0  0  0  0  0  0  0  0  0  0  0  0
    0.3497   -1.7056    0.0000 O   0  0  0  0  0  0  0  0  0  0  0  0
   -0.3640   -1.2917    0.0000 O   0  0  0  0  0  0  0  0  0  0  0  0
    3.9465   -2.9473    0.0000 O   0  0  0  0  0  0  0  0  0  0  0  0
   -0.3640    1.1918    0.0000 O   0  0  0  0  0  0  0  0  0  0  0  0
   -2.5192    0.7778    0.0000 O   0  0  0  0  0  0  0  0  0  0  0  0
   -5.3880    0.7778    0.0000 O   0  0  0  0  0  0  0  0  0  0  0  0
    2.5192   -0.4638    0.0000 N   0  0  0  0  0  0  0  0  0  0  0  0
    0.3640   -0.0500    0.0000 N   0  0  0  0  0  0  0  0  0  0  0  0
   -1.7913   -0.4638    0.0000 N   0  0  0  0  0  0  0  0  0  0  0  0
   -3.9465   -0.0500    0.0000 N   0  0  0  0  0  0  0  0  0  0  0  0
    4.6601    0.0072    0.0000 C   0  0  3  0  0  0  0  0  0  0  0  0
    3.9465   -0.4210    0.0000 C   0  0  0  0  0  0  0  0  0  0  0  0
    4.2890    0.6780    0.0000 C   0  0  0  0  0  0  0  0  0  0  0  0
    3.2328   -0.0214    0.0000 C   0  0  3  0  0  0  0  0  0  0  0  0
    5.3880   -0.4353    0.0000 C   0  0  0  0  0  0  0  0  0  0  0  0
    1.0918   -0.4353    0.0000 C   0  0  3  0  0  0  0  0  0  0  0  0
    1.7913   -0.0357    0.0000 C   0  0  0  0  0  0  0  0  0  0  0  0
    3.2328    1.3060    0.0000 C   0  0  0  0  0  0  0  0  0  0  0  0
    1.0776   -1.2632    0.0000 C   0  0  3  0  0  0  0  0  0  0  0  0
    1.8055   -1.6771    0.0000 C   0  0  0  0  0  0  0  0  0  0  0  0
    2.5049    1.7198    0.0000 C   0  0  0  0  0  0  0  0  0  0  0  0
   -0.3497   -0.4210    0.0000 C   0  0  0  0  0  0  0  0  0  0  0  0
   -1.0776   -0.0214    0.0000 C   0  0  3  0  0  0  0  0  0  0  0  0
    2.5192   -1.2917    0.0000 C   0  0  0  0  0  0  0  0  0  0  0  0
    1.8198   -2.5192    0.0000 C   0  0  0  0  0  0  0  0  0  0  0  0
    1.8055    1.3060    0.0000 C   0  0  0  0  0  0  0  0  0  0  0  0
    2.5192    2.5335    0.0000 C   0  0  0  0  0  0  0  0  0  0  0  0
   -1.0633    0.8207    0.0000 C   0  0  3  0  0  0  0  0  0  0  0  0
    3.2471   -2.5049    0.0000 C   0  0  0  0  0  0  0  0  0  0  0  0
    3.2471   -1.6913    0.0000 C   0  0  0  0  0  0  0  0  0  0  0  0
    2.5335   -2.9188    0.0000 C   0  0  0  0  0  0  0  0  0  0  0  0
   -2.5192   -0.0500    0.0000 C   0  0  0  0  0  0  0  0  0  0  0  0
    1.0918    1.7198    0.0000 C   0  0  0  0  0  0  0  0  0  0  0  0
    1.7913    2.9473    0.0000 C   0  0  0  0  0  0  0  0  0  0  0  0
    1.0918    2.5335    0.0000 C   0  0  0  0  0  0  0  0  0  0  0  0
   -3.2185   -0.4353    0.0000 C   0  0  0  0  0  0  0  0  0  0  0  0
   -1.8055    1.2060    0.0000 C   0  0  0  0  0  0  0  0  0  0  0  0
   -3.9465    0.7922    0.0000 C   0  0  0  0  0  0  0  0  0  0  0  0
   -4.6601   -0.4353    0.0000 C   0  0  0  0  0  0  0  0  0  0  0  0
    4.7029   -2.5049    0.0000 C   0  0  0  0  0  0  0  0  0  0  0  0
   -4.6886    1.2203    0.0000 C   0  0  0  0  0  0  0  0  0  0  0  0
   -5.3738   -0.0214    0.0000 C   0  0  0  0  0  0  0  0  0  0  0  0
  1 14  1  0  0  0  0
  1 16  1  0  0  0  0
  2 15  2  0  0  0  0
  3 20  2  0  0  0  0
 22  4  1  1  0  0  0
  5 25  2  0  0  0  0
  6 32  1  0  0  0  0
  6 43  1  0  0  0  0
 31  7  1  1  0  0  0
  8 35  2  0  0  0  0
  9 44  1  0  0  0  0
  9 45  1  0  0  0  0
 17 10  1  1  0  0  0
 10 20  1  0  0  0  0
 19 11  1  6  0  0  0
 11 25  1  0  0  0  0
 26 12  1  1  0  0  0
 12 35  1  0  0  0  0
 13 39  1  0  0  0  0
 13 41  1  0  0  0  0
 13 42  1  0  0  0  0
 14 15  1  1  0  0  0
 14 16  1  0  0  0  0
 14 18  1  6  0  0  0
 15 17  1  0  0  0  0
 17 21  1  0  0  0  0
 19 20  1  0  0  0  0
 19 22  1  0  0  0  0
 21 24  1  0  0  0  0
 22 23  1  0  0  0  0
 23 27  2  0  0  0  0
 23 28  1  0  0  0  0
 24 29  2  0  0  0  0
 24 30  1  0  0  0  0
 25 26  1  0  0  0  0
 26 31  1  0  0  0  0
 27 33  1  0  0  0  0
 28 34  2  0  0  0  0
 29 36  1  0  0  0  0
 30 37  1  0  0  0  0
 31 40  1  0  0  0  0
 32 33  2  0  0  0  0
 32 34  1  0  0  0  0
 35 39  1  0  0  0  0
 36 38  1  0  0  0  0
 37 38  1  0  0  0  0
 41 44  1  0  0  0  0
 42 45  1  0  0  0  0
M  END
> <PUBCHEM_COMPOUND_ID_TYPE>
0

> <PUBCHEM_TOTAL_CHARGE>
0

> <PUBCHEM_SUBSTANCE_ID>
310940873

> <PUBCHEM_SUBSTANCE_VERSION>
1

> <PUBCHEM_EXT_DATASOURCE_NAME>
4488

> <PUBCHEM_EXT_DATASOURCE_REGID>
SCHEMBL16118832

> <PUBCHEM_SUBSTANCE_COMMENT>
InChI=1S/C32H46N4O9/c1-20(37)26(34-25(38)18-36-13-15-44-16-14-36)30(41)35-27(28(39)22-9-11-23(43-3)12-10-22)31(42)33-24(29(40)32(2)19-45-32)17-21-7-5-4-6-8-21/h7,9-12,20,24,26-28,37,39H,4-6,8,13-19H2,1-3H3,(H,33,42)(H,34,38)(H,35,41)/t20-,24+,26+,27+,28-,32-/m1/s1
InChIKey=NQHOTFCNEWLMGW-YEDDMSSWSA-N

> <PUBCHEM_SUBSTANCE_SYNONYM>
SCHEMBL16118832

> <PUBCHEM_XREF_EXT_ID>
SCHEMBL16118832

> <PUBCHEM_EXT_DATASOURCE_URL>
https://www.surechembl.org/

> <PUBCHEM_EXT_SUBSTANCE_URL>
https://www.surechembl.org/chemical/SCHEMBL16118832

> <PUBCHEM_CID_ASSOCIATIONS>
117607790  1

> <PUBCHEM_COORDINATE_TYPE>
1
3

> <PUBCHEM_BONDANNOTATIONS>
17  10  5
19  11  6
26  12  5
14  15  5
14  18  6
22  4  5
31  7  5

$$$$
