310935124
  -OEChem-07211613022D

 26 28  0     0  0  0  0  0  0999 V2000
    8.7446   -0.7287    0.0000 F   0  0  0  0  0  0  0  0  0  0  0  0
    0.0000   -1.4866    0.0000 F   0  0  0  0  0  0  0  0  0  0  0  0
    7.5204   -2.9149    0.0000 O   0  0  0  0  0  0  0  0  0  0  0  0
    7.5204   -1.4866    0.0000 O   0  0  0  0  0  0  0  0  0  0  0  0
    3.7602   -2.1862    0.0000 O   0  0  0  0  0  0  0  0  0  0  0  0
    6.2669   -2.1862    0.0000 C   0  0  0  0  0  0  0  0  0  0  0  0
    6.6750   -1.4575    0.0000 C   0  0  0  0  0  0  0  0  0  0  0  0
    7.1123   -2.1862    0.0000 C   0  0  0  0  0  0  0  0  0  0  0  0
    7.6952   -1.6032    0.0000 C   0  0  0  0  0  0  0  0  0  0  0  0
    5.8297   -2.9149    0.0000 C   0  0  0  0  0  0  0  0  0  0  0  0
    5.8297   -1.4866    0.0000 C   0  0  0  0  0  0  0  0  0  0  0  0
    6.2669   -0.7287    0.0000 C   0  0  0  0  0  0  0  0  0  0  0  0
    7.9284   -0.7287    0.0000 C   0  0  0  0  0  0  0  0  0  0  0  0
    4.5764   -2.1862    0.0000 C   0  0  0  0  0  0  0  0  0  0  0  0
    5.0135   -2.9149    0.0000 C   0  0  0  0  0  0  0  0  0  0  0  0
    5.0135   -1.4866    0.0000 C   0  0  0  0  0  0  0  0  0  0  0  0
    6.6750   -0.0292    0.0000 C   0  0  0  0  0  0  0  0  0  0  0  0
    7.4912    0.0000    0.0000 C   0  0  0  0  0  0  0  0  0  0  0  0
    7.9284   -2.1570    0.0000 C   0  0  0  0  0  0  0  0  0  0  0  0
    3.3229   -1.4575    0.0000 C   0  0  0  0  0  0  0  0  0  0  0  0
    2.5068   -1.4575    0.0000 C   0  0  0  0  0  0  0  0  0  0  0  0
    2.0695   -0.7579    0.0000 C   0  0  0  0  0  0  0  0  0  0  0  0
    2.0695   -2.1862    0.0000 C   0  0  0  0  0  0  0  0  0  0  0  0
    0.8453   -1.4866    0.0000 C   0  0  0  0  0  0  0  0  0  0  0  0
    1.2534   -0.7579    0.0000 C   0  0  0  0  0  0  0  0  0  0  0  0
    1.2534   -2.1862    0.0000 C   0  0  0  0  0  0  0  0  0  0  0  0
  1 13  1  0  0  0  0
  2 24  1  0  0  0  0
  3  8  2  0  0  0  0
  4  8  1  0  0  0  0
  5 14  1  0  0  0  0
  5 20  1  0  0  0  0
  6  7  1  0  0  0  0
  6  8  1  0  0  0  0
  6 10  1  0  0  0  0
  6 11  1  0  0  0  0
  7  9  1  0  0  0  0
  7 12  2  0  0  0  0
  9 13  2  0  0  0  0
  9 19  1  0  0  0  0
 10 15  1  0  0  0  0
 11 16  1  0  0  0  0
 12 17  1  0  0  0  0
 13 18  1  0  0  0  0
 14 15  1  0  0  0  0
 14 16  1  0  0  0  0
 17 18  2  0  0  0  0
 20 21  1  0  0  0  0
 21 22  2  0  0  0  0
 21 23  1  0  0  0  0
 22 25  1  0  0  0  0
 23 26  2  0  0  0  0
 24 25  2  0  0  0  0
 24 26  1  0  0  0  0
M  END
> <PUBCHEM_COMPOUND_ID_TYPE>
0

> <PUBCHEM_TOTAL_CHARGE>
0

> <PUBCHEM_SUBSTANCE_ID>
310935124

> <PUBCHEM_SUBSTANCE_VERSION>
1

> <PUBCHEM_EXT_DATASOURCE_NAME>
4488

> <PUBCHEM_EXT_DATASOURCE_REGID>
SCHEMBL16112651

> <PUBCHEM_SUBSTANCE_COMMENT>
InChI=1S/C21H22F2O3/c1-14-18(3-2-4-19(14)23)21(20(24)25)11-9-17(10-12-21)26-13-15-5-7-16(22)8-6-15/h2-8,17H,9-13H2,1H3,(H,24,25)
InChIKey=BKNWIWSZQHISNU-UHFFFAOYSA-N

> <PUBCHEM_SUBSTANCE_SYNONYM>
SCHEMBL16112651

> <PUBCHEM_XREF_EXT_ID>
SCHEMBL16112651

> <PUBCHEM_EXT_DATASOURCE_URL>
https://www.surechembl.org/

> <PUBCHEM_EXT_SUBSTANCE_URL>
https://www.surechembl.org/chemical/SCHEMBL16112651

> <PUBCHEM_CID_ASSOCIATIONS>
117603213  1

> <PUBCHEM_COORDINATE_TYPE>
1
3

$$$$
