310935891
  -OEChem-07211613022D

 24 26  0     0  0  0  0  0  0999 V2000
    2.6535   -0.6714    0.0000 O   0  0  0  0  0  0  0  0  0  0  0  0
    0.3517   -2.3018    0.0000 O   0  0  0  0  0  0  0  0  0  0  0  0
    5.9463   -3.9322    0.0000 O   0  0  0  0  0  0  0  0  0  0  0  0
    4.0921   -2.6855    0.0000 N   0  0  0  0  0  0  0  0  0  0  0  0
    5.1791   -3.4527    0.0000 N   0  0  0  0  0  0  0  0  0  0  0  0
    4.9233   -2.6535    0.0000 N   0  0  0  0  0  0  0  0  0  0  0  0
    4.5077   -3.9322    0.0000 C   0  0  0  0  0  0  0  0  0  0  0  0
    4.5077   -4.7635    0.0000 C   0  0  0  0  0  0  0  0  0  0  0  0
    2.8133   -2.0780    0.0000 C   0  0  0  0  0  0  0  0  0  0  0  0
    3.8363   -3.4527    0.0000 C   0  0  0  0  0  0  0  0  0  0  0  0
    3.6445   -2.0141    0.0000 C   0  0  0  0  0  0  0  0  0  0  0  0
    2.3338   -1.4067    0.0000 C   0  0  0  0  0  0  0  0  0  0  0  0
    5.2110   -5.1471    0.0000 C   0  0  0  0  0  0  0  0  0  0  0  0
    3.8044   -5.1471    0.0000 C   0  0  0  0  0  0  0  0  0  0  0  0
    2.4616   -2.8133    0.0000 C   0  0  0  0  0  0  0  0  0  0  0  0
    1.5026   -1.5026    0.0000 C   0  0  0  0  0  0  0  0  0  0  0  0
    1.1509   -2.2379    0.0000 C   0  0  0  0  0  0  0  0  0  0  0  0
    1.6624   -2.9092    0.0000 C   0  0  0  0  0  0  0  0  0  0  0  0
    5.2110   -5.9783    0.0000 C   0  0  0  0  0  0  0  0  0  0  0  0
    5.9463   -4.7635    0.0000 C   0  0  0  0  0  0  0  0  0  0  0  0
    3.8044   -5.9783    0.0000 C   0  0  0  0  0  0  0  0  0  0  0  0
    4.5077   -6.3939    0.0000 C   0  0  0  0  0  0  0  0  0  0  0  0
    2.2059    0.0000    0.0000 C   0  0  0  0  0  0  0  0  0  0  0  0
    0.0000   -3.0691    0.0000 C   0  0  0  0  0  0  0  0  0  0  0  0
  1 12  1  0  0  0  0
  1 23  1  0  0  0  0
  2 17  1  0  0  0  0
  2 24  1  0  0  0  0
  3 20  2  0  0  0  0
  4  6  1  0  0  0  0
  4 10  1  0  0  0  0
  4 11  1  0  0  0  0
  5  6  2  0  0  0  0
  5  7  1  0  0  0  0
  7  8  1  0  0  0  0
  7 10  2  0  0  0  0
  8 13  2  0  0  0  0
  8 14  1  0  0  0  0
  9 11  1  0  0  0  0
  9 12  2  0  0  0  0
  9 15  1  0  0  0  0
 12 16  1  0  0  0  0
 13 19  1  0  0  0  0
 13 20  1  0  0  0  0
 14 21  2  0  0  0  0
 15 18  2  0  0  0  0
 16 17  2  0  0  0  0
 17 18  1  0  0  0  0
 19 22  2  0  0  0  0
 21 22  1  0  0  0  0
M  END
> <PUBCHEM_COMPOUND_ID_TYPE>
0

> <PUBCHEM_TOTAL_CHARGE>
0

> <PUBCHEM_SUBSTANCE_ID>
310935891

> <PUBCHEM_SUBSTANCE_VERSION>
1

> <PUBCHEM_EXT_DATASOURCE_NAME>
4488

> <PUBCHEM_EXT_DATASOURCE_REGID>
SCHEMBL16113485

> <PUBCHEM_SUBSTANCE_COMMENT>
InChI=1S/C18H17N3O3/c1-23-15-8-7-13(18(9-15)24-2)10-21-11-17(19-20-21)16-6-4-3-5-14(16)12-22/h3-9,11-12H,10H2,1-2H3
InChIKey=ILVFLZDFZBBHEF-UHFFFAOYSA-N

> <PUBCHEM_SUBSTANCE_SYNONYM>
SCHEMBL16113485

> <PUBCHEM_XREF_EXT_ID>
SCHEMBL16113485

> <PUBCHEM_EXT_DATASOURCE_URL>
https://www.surechembl.org/

> <PUBCHEM_EXT_SUBSTANCE_URL>
https://www.surechembl.org/chemical/SCHEMBL16113485

> <PUBCHEM_CID_ASSOCIATIONS>
117603878  1

> <PUBCHEM_COORDINATE_TYPE>
1
3

$$$$
