310931252
  -OEChem-07211613022D

 32 36  0     0  0  0  0  0  0999 V2000
    4.2421   -2.4813    0.0000 S   0  0  0  0  0  0  0  0  0  0  0  0
    4.6823   -3.2816    0.0000 O   0  0  0  0  0  0  0  0  0  0  0  0
    3.8419   -1.8009    0.0000 O   0  0  0  0  0  0  0  0  0  0  0  0
    8.5643    0.0000    0.0000 O   0  0  0  0  0  0  0  0  0  0  0  0
    1.3207   -2.6413    0.0000 N   0  0  0  0  0  0  0  0  0  0  0  0
    0.8004   -3.3216    0.0000 N   0  0  0  0  0  0  0  0  0  0  0  0
   10.6854   -1.2406    0.0000 N   0  0  0  0  0  0  0  0  0  0  0  0
    9.9650   -2.5213    0.0000 N   0  0  0  0  0  0  0  0  0  0  0  0
   11.4857   -2.3612    0.0000 N   0  0  0  0  0  0  0  0  0  0  0  0
    7.8439   -1.2406    0.0000 N   0  0  0  0  0  0  0  0  0  0  0  0
    3.5218   -2.9215    0.0000 C   0  0  0  0  0  0  0  0  0  0  0  0
    4.9625   -2.0810    0.0000 C   0  0  0  0  0  0  0  0  0  0  0  0
    2.0810   -2.8814    0.0000 C   0  0  0  0  0  0  0  0  0  0  0  0
    2.0810   -3.7619    0.0000 C   0  0  0  0  0  0  0  0  0  0  0  0
    2.8414   -2.4813    0.0000 C   0  0  0  0  0  0  0  0  0  0  0  0
    3.5218   -3.7619    0.0000 C   0  0  0  0  0  0  0  0  0  0  0  0
    2.8014   -4.1621    0.0000 C   0  0  0  0  0  0  0  0  0  0  0  0
    1.2807   -3.9620    0.0000 C   0  0  0  0  0  0  0  0  0  0  0  0
    5.6828   -2.5213    0.0000 C   0  0  0  0  0  0  0  0  0  0  0  0
    4.9625   -1.2406    0.0000 C   0  0  0  0  0  0  0  0  0  0  0  0
   10.6854   -2.1210    0.0000 C   0  0  0  0  0  0  0  0  0  0  0  0
    9.2846   -1.2406    0.0000 C   0  0  0  0  0  0  0  0  0  0  0  0
    6.4032   -1.2406    0.0000 C   0  0  0  0  0  0  0  0  0  0  0  0
    9.9650   -0.8404    0.0000 C   0  0  0  0  0  0  0  0  0  0  0  0
    6.4032   -2.0810    0.0000 C   0  0  0  0  0  0  0  0  0  0  0  0
    5.6828   -0.8404    0.0000 C   0  0  0  0  0  0  0  0  0  0  0  0
    8.5643   -0.8404    0.0000 C   0  0  0  0  0  0  0  0  0  0  0  0
    9.2846   -2.1210    0.0000 C   0  0  0  0  0  0  0  0  0  0  0  0
   11.4857   -1.0405    0.0000 C   0  0  0  0  0  0  0  0  0  0  0  0
    7.1236   -0.8404    0.0000 C   0  0  0  0  0  0  0  0  0  0  0  0
   12.0060   -1.6808    0.0000 C   0  0  0  0  0  0  0  0  0  0  0  0
    0.0000   -3.2816    0.0000 C   0  0  0  0  0  0  0  0  0  0  0  0
  1  2  2  0  0  0  0
  1  3  2  0  0  0  0
  1 11  1  0  0  0  0
  1 12  1  0  0  0  0
  4 27  2  0  0  0  0
  5  6  1  0  0  0  0
  5 13  2  0  0  0  0
  6 18  1  0  0  0  0
  6 32  1  0  0  0  0
  7 21  1  0  0  0  0
  7 24  1  0  0  0  0
  7 29  1  0  0  0  0
  8 21  1  0  0  0  0
  8 28  2  0  0  0  0
  9 21  2  0  0  0  0
  9 31  1  0  0  0  0
 10 27  1  0  0  0  0
 10 30  1  0  0  0  0
 11 15  2  0  0  0  0
 11 16  1  0  0  0  0
 12 19  2  0  0  0  0
 12 20  1  0  0  0  0
 13 14  1  0  0  0  0
 13 15  1  0  0  0  0
 14 17  1  0  0  0  0
 14 18  2  0  0  0  0
 16 17  2  0  0  0  0
 19 25  1  0  0  0  0
 20 26  2  0  0  0  0
 22 24  2  0  0  0  0
 22 27  1  0  0  0  0
 22 28  1  0  0  0  0
 23 25  2  0  0  0  0
 23 26  1  0  0  0  0
 23 30  1  0  0  0  0
 29 31  2  0  0  0  0
M  END
> <PUBCHEM_COMPOUND_ID_TYPE>
0

> <PUBCHEM_TOTAL_CHARGE>
0

> <PUBCHEM_SUBSTANCE_ID>
310931252

> <PUBCHEM_SUBSTANCE_VERSION>
1

> <PUBCHEM_EXT_DATASOURCE_NAME>
4488

> <PUBCHEM_EXT_DATASOURCE_REGID>
SCHEMBL16108566

> <PUBCHEM_SUBSTANCE_COMMENT>
InChI=1S/C22H18N6O3S/c1-27-13-16-4-7-19(10-20(16)26-27)32(30,31)18-5-2-15(3-6-18)11-24-21(29)17-12-25-22-23-8-9-28(22)14-17/h2-10,12-14H,11H2,1H3,(H,24,29)
InChIKey=FTIMRHFZSHDVEV-UHFFFAOYSA-N

> <PUBCHEM_SUBSTANCE_SYNONYM>
SCHEMBL16108566

> <PUBCHEM_XREF_EXT_ID>
SCHEMBL16108566

> <PUBCHEM_EXT_DATASOURCE_URL>
https://www.surechembl.org/

> <PUBCHEM_EXT_SUBSTANCE_URL>
https://www.surechembl.org/chemical/SCHEMBL16108566

> <PUBCHEM_CID_ASSOCIATIONS>
90034174  1

> <PUBCHEM_COORDINATE_TYPE>
1
3

$$$$
