310941107
  -OEChem-07211613022D

 15 16  0     1  0  0  0  0  0999 V2000
    1.4479   -0.1990    0.0000 O   0  0  0  0  0  0  0  0  0  0  0  0
    0.0069   -1.8734    0.0000 O   0  0  0  0  0  0  0  0  0  0  0  0
   -1.4479   -1.0363    0.0000 N   0  0  0  0  0  0  0  0  0  0  0  0
    0.7205   -0.6108    0.0000 C   0  0  3  0  0  0  0  0  0  0  0  0
   -0.0069   -1.0088    0.0000 C   0  0  0  0  0  0  0  0  0  0  0  0
    1.4343   -1.0225    0.0000 C   0  0  0  0  0  0  0  0  0  0  0  0
   -0.7343   -0.6108    0.0000 C   0  0  3  0  0  0  0  0  0  0  0  0
    0.1304   -0.0343    0.0000 C   0  0  0  0  0  0  0  0  0  0  0  0
   -0.7068    0.2265    0.0000 C   0  0  0  0  0  0  0  0  0  0  0  0
   -0.0069    0.6382    0.0000 C   0  0  0  0  0  0  0  0  0  0  0  0
    0.0069    1.4617    0.0000 C   0  0  0  0  0  0  0  0  0  0  0  0
    0.6931    0.2265    0.0000 C   0  0  0  0  0  0  0  0  0  0  0  0
    0.7343    1.8734    0.0000 C   0  0  0  0  0  0  0  0  0  0  0  0
    1.4343    0.6382    0.0000 C   0  0  0  0  0  0  0  0  0  0  0  0
    1.4343    1.4617    0.0000 C   0  0  0  0  0  0  0  0  0  0  0  0
  1  4  1  0  0  0  0
  1  6  1  0  0  0  0
  2  5  2  0  0  0  0
  7  3  1  1  0  0  0
  4  5  1  6  0  0  0
  4  6  1  0  0  0  0
  4  8  1  1  0  0  0
  5  7  1  0  0  0  0
  7  9  1  0  0  0  0
  9 10  1  0  0  0  0
 10 11  2  0  0  0  0
 10 12  1  0  0  0  0
 11 13  1  0  0  0  0
 12 14  1  0  0  0  0
 13 15  1  0  0  0  0
 14 15  1  0  0  0  0
M  END
> <PUBCHEM_COMPOUND_ID_TYPE>
0

> <PUBCHEM_TOTAL_CHARGE>
0

> <PUBCHEM_SUBSTANCE_ID>
310941107

> <PUBCHEM_SUBSTANCE_VERSION>
1

> <PUBCHEM_EXT_DATASOURCE_NAME>
4488

> <PUBCHEM_EXT_DATASOURCE_REGID>
SCHEMBL16119067

> <PUBCHEM_SUBSTANCE_COMMENT>
InChI=1S/C12H19NO2/c1-12(8-15-12)11(14)10(13)7-9-5-3-2-4-6-9/h5,10H,2-4,6-8,13H2,1H3/t10-,12+/m0/s1
InChIKey=QAGAGCPKHVZDPQ-CMPLNLGQSA-N

> <PUBCHEM_SUBSTANCE_SYNONYM>
SCHEMBL16119067

> <PUBCHEM_XREF_EXT_ID>
SCHEMBL16119067

> <PUBCHEM_EXT_DATASOURCE_URL>
https://www.surechembl.org/

> <PUBCHEM_EXT_SUBSTANCE_URL>
https://www.surechembl.org/chemical/SCHEMBL16119067

> <PUBCHEM_CID_ASSOCIATIONS>
117607990  1

> <PUBCHEM_COORDINATE_TYPE>
1
3

> <PUBCHEM_BONDANNOTATIONS>
7  3  5
4  5  6
4  8  5

$$$$
