310944051
  -OEChem-07211613022D

 12 13  0     1  0  0  0  0  0999 V2000
   -0.1443    0.7078    0.0000 O   0  0  0  0  0  0  0  0  0  0  0  0
   -2.2057   -0.7214    0.0000 N   0  0  0  0  0  0  0  0  0  0  0  0
   -1.4224   -1.0925    0.0000 C   0  0  3  0  0  0  0  0  0  0  0  0
   -2.1369    0.1580    0.0000 C   0  0  3  0  0  0  0  0  0  0  0  0
   -0.7489    0.1168    0.0000 C   0  0  0  0  0  0  0  0  0  0  0  0
   -1.4635    0.5291    0.0000 C   0  0  0  0  0  0  0  0  0  0  0  0
   -0.7489   -0.7214    0.0000 C   0  0  0  0  0  0  0  0  0  0  0  0
   -0.9551   -0.5291    0.0000 C   0  0  0  0  0  0  0  0  0  0  0  0
   -1.4224    0.2955    0.0000 C   0  0  0  0  0  0  0  0  0  0  0  0
    0.6528    0.5016    0.0000 C   0  0  0  0  0  0  0  0  0  0  0  0
    1.2574    1.0925    0.0000 C   0  0  0  0  0  0  0  0  0  0  0  0
    2.2057    0.8451    0.0000 C   0  0  0  0  0  0  0  0  0  0  0  0
  5  1  1  1  0  0  0
  1 10  1  0  0  0  0
  3  2  1  6  0  0  0
  4  2  1  6  0  0  0
  3  7  1  0  0  0  0
  3  8  1  0  0  0  0
  4  6  1  0  0  0  0
  4  9  1  0  0  0  0
  5  6  1  0  0  0  0
  5  7  1  0  0  0  0
  8  9  1  0  0  0  0
 10 11  1  0  0  0  0
 11 12  1  0  0  0  0
M  END
> <PUBCHEM_COMPOUND_ID_TYPE>
0

> <PUBCHEM_TOTAL_CHARGE>
0

> <PUBCHEM_SUBSTANCE_ID>
310944051

> <PUBCHEM_SUBSTANCE_VERSION>
1

> <PUBCHEM_EXT_DATASOURCE_NAME>
4488

> <PUBCHEM_EXT_DATASOURCE_REGID>
SCHEMBL16122124

> <PUBCHEM_SUBSTANCE_COMMENT>
InChI=1S/C10H19NO/c1-2-5-12-10-6-8-3-4-9(7-10)11-8/h8-11H,2-7H2,1H3/t8-,9+,10+
InChIKey=OPJXHXOMKSYVLV-MYJAWHEDSA-N

> <PUBCHEM_SUBSTANCE_SYNONYM>
SCHEMBL16122124

> <PUBCHEM_XREF_EXT_ID>
SCHEMBL16122124

> <PUBCHEM_EXT_DATASOURCE_URL>
https://www.surechembl.org/

> <PUBCHEM_EXT_SUBSTANCE_URL>
https://www.surechembl.org/chemical/SCHEMBL16122124

> <PUBCHEM_CID_ASSOCIATIONS>
117610347  1

> <PUBCHEM_COORDINATE_TYPE>
1
3

> <PUBCHEM_BONDANNOTATIONS>
5  1  5
3  2  6
4  2  6

$$$$
