310937421
  -OEChem-07211613022D

 43 46  0     1  0  0  0  0  0999 V2000
    2.4822    7.3405    0.0000 F   0  0  0  0  0  0  0  0  0  0  0  0
    1.6617    7.2543    0.0000 F   0  0  0  0  0  0  0  0  0  0  0  0
    2.9672    6.6731    0.0000 F   0  0  0  0  0  0  0  0  0  0  0  0
   -0.9859    4.8208    0.0000 F   0  0  0  0  0  0  0  0  0  0  0  0
   -0.5010    4.1533    0.0000 F   0  0  0  0  0  0  0  0  0  0  0  0
   -0.6503    5.5745    0.0000 F   0  0  0  0  0  0  0  0  0  0  0  0
    6.4303    2.0625    0.0000 F   0  0  0  0  0  0  0  0  0  0  0  0
    5.7159    2.4750    0.0000 F   0  0  0  0  0  0  0  0  0  0  0  0
    6.4303    1.2375    0.0000 F   0  0  0  0  0  0  0  0  0  0  0  0
    3.2704    3.7446    0.0000 O   0  0  0  0  0  0  0  0  0  0  0  0
    4.3100    2.7050    0.0000 O   0  0  0  0  0  0  0  0  0  0  0  0
    0.7145    1.2375    0.0000 O   0  0  0  0  0  0  0  0  0  0  0  0
    2.8579    2.4750    0.0000 N   0  0  0  0  0  0  0  0  0  0  0  0
    4.2869    0.0000    0.0000 N   0  0  0  0  0  0  0  0  0  0  0  0
    2.8579    0.0000    0.0000 N   0  0  0  0  0  0  0  0  0  0  0  0
    2.4454    3.7446    0.0000 C   0  0  3  0  0  0  0  0  0  0  0  0
    2.1905    2.9600    0.0000 C   0  0  3  0  0  0  0  0  0  0  0  0
    1.9605    4.4120    0.0000 C   0  0  0  0  0  0  0  0  0  0  0  0
    3.5254    2.9600    0.0000 C   0  0  0  0  0  0  0  0  0  0  0  0
    1.8111    5.8332    0.0000 C   0  0  0  0  0  0  0  0  0  0  0  0
    0.6551    4.9933    0.0000 C   0  0  0  0  0  0  0  0  0  0  0  0
    1.1400    4.3258    0.0000 C   0  0  0  0  0  0  0  0  0  0  0  0
    2.2961    5.1657    0.0000 C   0  0  0  0  0  0  0  0  0  0  0  0
    2.8579    1.6500    0.0000 C   0  0  0  0  0  0  0  0  0  0  0  0
    3.5724    1.2375    0.0000 C   0  0  0  0  0  0  0  0  0  0  0  0
    0.9906    5.7469    0.0000 C   0  0  0  0  0  0  0  0  0  0  0  0
    2.1467    6.5869    0.0000 C   0  0  0  0  0  0  0  0  0  0  0  0
   -0.1654    4.9070    0.0000 C   0  0  0  0  0  0  0  0  0  0  0  0
    3.5724    0.4125    0.0000 C   0  0  0  0  0  0  0  0  0  0  0  0
    5.0013    1.2375    0.0000 C   0  0  0  0  0  0  0  0  0  0  0  0
    4.2869    1.6500    0.0000 C   0  0  0  0  0  0  0  0  0  0  0  0
    1.4058    2.7050    0.0000 C   0  0  0  0  0  0  0  0  0  0  0  0
    5.7159    1.6500    0.0000 C   0  0  0  0  0  0  0  0  0  0  0  0
    5.0013    0.4125    0.0000 C   0  0  0  0  0  0  0  0  0  0  0  0
    2.1434    0.4125    0.0000 C   0  0  3  0  0  0  0  0  0  0  0  0
    1.4290    0.0000    0.0000 C   0  0  0  0  0  0  0  0  0  0  0  0
    2.1434    1.2375    0.0000 C   0  0  0  0  0  0  0  0  0  0  0  0
    0.7145    0.4125    0.0000 C   0  0  3  0  0  0  0  0  0  0  0  0
    1.4290    1.6500    0.0000 C   0  0  0  0  0  0  0  0  0  0  0  0
    0.0000    0.0000    0.0000 C   0  0  0  0  0  0  0  0  0  0  0  0
   -0.7145    0.4125    0.0000 C   0  0  0  0  0  0  0  0  0  0  0  0
   -1.4290    0.0000    0.0000 C   0  0  0  0  0  0  0  0  0  0  0  0
   -2.1434    0.4125    0.0000 C   0  0  0  0  0  0  0  0  0  0  0  0
  1 27  1  0  0  0  0
  2 27  1  0  0  0  0
  3 27  1  0  0  0  0
  4 28  1  0  0  0  0
  5 28  1  0  0  0  0
  6 28  1  0  0  0  0
  7 33  1  0  0  0  0
  8 33  1  0  0  0  0
  9 33  1  0  0  0  0
 16 10  1  1  0  0  0
 10 19  1  0  0  0  0
 11 19  2  0  0  0  0
 12 38  1  0  0  0  0
 12 39  1  0  0  0  0
 13 17  1  0  0  0  0
 13 19  1  0  0  0  0
 13 24  1  0  0  0  0
 14 29  2  0  0  0  0
 14 34  1  0  0  0  0
 15 29  1  0  0  0  0
 15 35  1  0  0  0  0
 16 17  1  0  0  0  0
 16 18  1  0  0  0  0
 17 32  1  1  0  0  0
 18 22  2  0  0  0  0
 18 23  1  0  0  0  0
 20 23  2  0  0  0  0
 20 26  1  0  0  0  0
 20 27  1  0  0  0  0
 21 22  1  0  0  0  0
 21 26  2  0  0  0  0
 21 28  1  0  0  0  0
 24 25  1  0  0  0  0
 25 29  1  0  0  0  0
 25 31  2  0  0  0  0
 30 31  1  0  0  0  0
 30 33  1  0  0  0  0
 30 34  2  0  0  0  0
 35 36  1  0  0  0  0
 35 37  1  0  0  0  0
 36 38  1  0  0  0  0
 37 39  1  0  0  0  0
 38 40  1  0  0  0  0
 40 41  1  0  0  0  0
 41 42  1  0  0  0  0
 42 43  1  0  0  0  0
M  END
> <PUBCHEM_COMPOUND_ID_TYPE>
0

> <PUBCHEM_TOTAL_CHARGE>
0

> <PUBCHEM_SUBSTANCE_ID>
310937421

> <PUBCHEM_SUBSTANCE_VERSION>
1

> <PUBCHEM_EXT_DATASOURCE_NAME>
4488

> <PUBCHEM_EXT_DATASOURCE_REGID>
SCHEMBL16115180

> <PUBCHEM_SUBSTANCE_COMMENT>
InChI=1S/C28H30F9N3O3/c1-3-4-5-22-12-21(6-7-42-22)39-24-17(10-20(13-38-24)28(35,36)37)14-40-15(2)23(43-25(40)41)16-8-18(26(29,30)31)11-19(9-16)27(32,33)34/h8-11,13,15,21-23H,3-7,12,14H2,1-2H3,(H,38,39)/t15-,21?,22?,23-/m0/s1
InChIKey=PAOHTAPAKISFNH-JPFFWHBCSA-N

> <PUBCHEM_SUBSTANCE_SYNONYM>
SCHEMBL16115180

> <PUBCHEM_XREF_EXT_ID>
SCHEMBL16115180

> <PUBCHEM_EXT_DATASOURCE_URL>
https://www.surechembl.org/

> <PUBCHEM_EXT_SUBSTANCE_URL>
https://www.surechembl.org/chemical/SCHEMBL16115180

> <PUBCHEM_CID_ASSOCIATIONS>
85472651  1

> <PUBCHEM_COORDINATE_TYPE>
1
3

> <PUBCHEM_BONDANNOTATIONS>
16  10  5
17  32  5

$$$$
