310937895
  -OEChem-07211613022D

 28 31  0     0  0  0  0  0  0999 V2000
    1.4235   -0.8590    0.0000 F   0  0  0  0  0  0  0  0  0  0  0  0
    2.1352   -2.0862    0.0000 F   0  0  0  0  0  0  0  0  0  0  0  0
    2.1352   -0.4418    0.0000 F   0  0  0  0  0  0  0  0  0  0  0  0
    4.2214    0.0000    0.0000 O   0  0  0  0  0  0  0  0  0  0  0  0
    3.5587   -1.2271    0.0000 N   0  0  0  0  0  0  0  0  0  0  0  0
    4.2214   -3.2642    0.0000 N   0  0  0  0  0  0  0  0  0  0  0  0
    5.7430   -2.3316    0.0000 N   0  0  0  0  0  0  0  0  0  0  0  0
    6.2094   -1.6444    0.0000 N   0  0  0  0  0  0  0  0  0  0  0  0
    2.1107   -4.4668    0.0000 N   0  0  0  0  0  0  0  0  0  0  0  0
    0.6872   -2.0125    0.0000 N   0  0  0  0  0  0  0  0  0  0  0  0
    3.5587   -2.0616    0.0000 C   0  0  0  0  0  0  0  0  0  0  0  0
    4.2214   -2.4788    0.0000 C   0  0  0  0  0  0  0  0  0  0  0  0
    4.9577   -2.0616    0.0000 C   0  0  0  0  0  0  0  0  0  0  0  0
    4.9577   -1.2271    0.0000 C   0  0  0  0  0  0  0  0  0  0  0  0
    4.2214   -0.8099    0.0000 C   0  0  0  0  0  0  0  0  0  0  0  0
    2.8224   -2.4788    0.0000 C   0  0  0  0  0  0  0  0  0  0  0  0
    2.8224   -3.2642    0.0000 C   0  0  0  0  0  0  0  0  0  0  0  0
    2.8470   -0.8344    0.0000 C   0  0  0  0  0  0  0  0  0  0  0  0
    5.7430   -0.9817    0.0000 C   0  0  0  0  0  0  0  0  0  0  0  0
    3.5587   -3.6815    0.0000 C   0  0  0  0  0  0  0  0  0  0  0  0
    2.1107   -3.6815    0.0000 C   0  0  0  0  0  0  0  0  0  0  0  0
    2.1352   -1.2517    0.0000 C   0  0  0  0  0  0  0  0  0  0  0  0
    1.3990   -3.2397    0.0000 C   0  0  0  0  0  0  0  0  0  0  0  0
    0.7118   -3.6815    0.0000 C   0  0  0  0  0  0  0  0  0  0  0  0
    1.3990   -2.4297    0.0000 C   0  0  0  0  0  0  0  0  0  0  0  0
    1.4235   -4.9086    0.0000 C   0  0  0  0  0  0  0  0  0  0  0  0
    0.7118   -4.4913    0.0000 C   0  0  0  0  0  0  0  0  0  0  0  0
    0.0000   -2.4297    0.0000 C   0  0  0  0  0  0  0  0  0  0  0  0
  1 22  1  0  0  0  0
  2 22  1  0  0  0  0
  3 22  1  0  0  0  0
  4 15  2  0  0  0  0
  5 11  1  0  0  0  0
  5 15  1  0  0  0  0
  5 18  1  0  0  0  0
  6 12  2  0  0  0  0
  6 20  1  0  0  0  0
  7  8  1  0  0  0  0
  7 13  1  0  0  0  0
  8 19  2  0  0  0  0
  9 21  1  0  0  0  0
  9 26  2  0  0  0  0
 10 25  1  0  0  0  0
 10 28  1  0  0  0  0
 11 12  1  0  0  0  0
 11 16  2  0  0  0  0
 12 13  1  0  0  0  0
 13 14  2  0  0  0  0
 14 15  1  0  0  0  0
 14 19  1  0  0  0  0
 16 17  1  0  0  0  0
 17 20  2  0  0  0  0
 17 21  1  0  0  0  0
 18 22  1  0  0  0  0
 21 23  2  0  0  0  0
 23 24  1  0  0  0  0
 23 25  1  0  0  0  0
 24 27  2  0  0  0  0
 26 27  1  0  0  0  0
M  END
> <PUBCHEM_COMPOUND_ID_TYPE>
0

> <PUBCHEM_TOTAL_CHARGE>
0

> <PUBCHEM_SUBSTANCE_ID>
310937895

> <PUBCHEM_SUBSTANCE_VERSION>
1

> <PUBCHEM_EXT_DATASOURCE_NAME>
4488

> <PUBCHEM_EXT_DATASOURCE_REGID>
SCHEMBL16115724

> <PUBCHEM_SUBSTANCE_COMMENT>
InChI=1S/C18H15F3N6O/c1-22-6-10-3-2-4-23-14(10)11-5-13-16(24-7-11)15-12(8-25-26-15)17(28)27(13)9-18(19,20)21/h2-5,7-8,22H,6,9H2,1H3,(H,25,26)
InChIKey=GMCPSQPZQNXCAP-UHFFFAOYSA-N

> <PUBCHEM_SUBSTANCE_SYNONYM>
SCHEMBL16115724

> <PUBCHEM_XREF_EXT_ID>
SCHEMBL16115724

> <PUBCHEM_EXT_DATASOURCE_URL>
https://www.surechembl.org/

> <PUBCHEM_EXT_SUBSTANCE_URL>
https://www.surechembl.org/chemical/SCHEMBL16115724

> <PUBCHEM_CID_ASSOCIATIONS>
86298959  1

> <PUBCHEM_COORDINATE_TYPE>
1
3

$$$$
