310933072
  -OEChem-07211613022D

 18 18  0     0  0  0  0  0  0999 V2000
    0.0270   -4.1617    0.0000 F   0  0  0  0  0  0  0  0  0  0  0  0
    2.8646   -1.6755    0.0000 O   0  0  0  0  0  0  0  0  0  0  0  0
    2.1619   -0.4324    0.0000 O   0  0  0  0  0  0  0  0  0  0  0  0
    0.7297   -0.4054    0.0000 N   0  0  0  0  0  0  0  0  0  0  0  0
    2.1619   -5.4048    0.0000 N   0  0  0  0  0  0  0  0  0  0  0  0
    1.4593   -2.4862    0.0000 C   0  0  0  0  0  0  0  0  0  0  0  0
    1.4593   -1.6755    0.0000 C   0  0  0  0  0  0  0  0  0  0  0  0
    0.7297   -3.7293    0.0000 C   0  0  0  0  0  0  0  0  0  0  0  0
    0.7297   -2.9186    0.0000 C   0  0  0  0  0  0  0  0  0  0  0  0
    1.4593   -4.1617    0.0000 C   0  0  0  0  0  0  0  0  0  0  0  0
    2.1619   -1.2431    0.0000 C   0  0  0  0  0  0  0  0  0  0  0  0
    2.1619   -2.9186    0.0000 C   0  0  0  0  0  0  0  0  0  0  0  0
    2.1619   -3.7293    0.0000 C   0  0  0  0  0  0  0  0  0  0  0  0
    0.7297   -1.2431    0.0000 C   0  0  0  0  0  0  0  0  0  0  0  0
    1.4593   -4.9994    0.0000 C   0  0  0  0  0  0  0  0  0  0  0  0
    1.4323    0.0000    0.0000 C   0  0  0  0  0  0  0  0  0  0  0  0
    0.0000    0.0000    0.0000 C   0  0  0  0  0  0  0  0  0  0  0  0
    3.5942   -1.2431    0.0000 C   0  0  0  0  0  0  0  0  0  0  0  0
  1  8  1  0  0  0  0
  2 11  1  0  0  0  0
  2 18  1  0  0  0  0
  3 11  2  0  0  0  0
  4 14  1  0  0  0  0
  4 16  1  0  0  0  0
  4 17  1  0  0  0  0
  5 15  3  0  0  0  0
  6  7  1  0  0  0  0
  6  9  1  0  0  0  0
  6 12  2  0  0  0  0
  7 11  1  0  0  0  0
  7 14  2  0  0  0  0
  8  9  2  0  0  0  0
  8 10  1  0  0  0  0
 10 13  2  0  0  0  0
 10 15  1  0  0  0  0
 12 13  1  0  0  0  0
M  END
> <PUBCHEM_COMPOUND_ID_TYPE>
0

> <PUBCHEM_TOTAL_CHARGE>
0

> <PUBCHEM_SUBSTANCE_ID>
310933072

> <PUBCHEM_SUBSTANCE_VERSION>
1

> <PUBCHEM_EXT_DATASOURCE_NAME>
4488

> <PUBCHEM_EXT_DATASOURCE_REGID>
SCHEMBL16110474

> <PUBCHEM_SUBSTANCE_COMMENT>
InChI=1S/C13H13FN2O2/c1-16(2)8-11(13(17)18-3)9-4-5-10(7-15)12(14)6-9/h4-6,8H,1-3H3/b11-8-
InChIKey=KWQXHALCTUTRFV-FLIBITNWSA-N

> <PUBCHEM_SUBSTANCE_SYNONYM>
SCHEMBL16110474

> <PUBCHEM_XREF_EXT_ID>
SCHEMBL16110474

> <PUBCHEM_EXT_DATASOURCE_URL>
https://www.surechembl.org/

> <PUBCHEM_EXT_SUBSTANCE_URL>
https://www.surechembl.org/chemical/SCHEMBL16110474

> <PUBCHEM_CID_ASSOCIATIONS>
117601532  1

> <PUBCHEM_COORDINATE_TYPE>
1
3

$$$$
