310939006
  -OEChem-07211613022D

 27 31  0     0  0  0  0  0  0999 V2000
   -1.0783   -8.0976    0.0000 F   0  0  0  0  0  0  0  0  0  0  0  0
   -1.1507   -5.2867    0.0000 O   0  0  0  0  0  0  0  0  0  0  0  0
   -1.0783   -6.6686    0.0000 N   0  0  0  0  0  0  0  0  0  0  0  0
   -3.0623   -7.4936    0.0000 N   0  0  0  0  0  0  0  0  0  0  0  0
    3.5274  -11.2330    0.0000 N   0  0  0  0  0  0  0  0  0  0  0  0
   -2.3478   -6.2561    0.0000 C   0  0  0  0  0  0  0  0  0  0  0  0
   -1.5632   -6.0012    0.0000 C   0  0  0  0  0  0  0  0  0  0  0  0
   -2.3478   -7.0811    0.0000 C   0  0  0  0  0  0  0  0  0  0  0  0
   -1.5632   -7.3361    0.0000 C   0  0  0  0  0  0  0  0  0  0  0  0
    0.1592   -7.3831    0.0000 C   0  0  0  0  0  0  0  0  0  0  0  0
   -0.2533   -6.6686    0.0000 C   0  0  0  0  0  0  0  0  0  0  0  0
    0.9842   -8.8120    0.0000 C   0  0  0  0  0  0  0  0  0  0  0  0
    1.3967   -9.5265    0.0000 C   0  0  0  0  0  0  0  0  0  0  0  0
   -0.2533   -8.0976    0.0000 C   0  0  0  0  0  0  0  0  0  0  0  0
   -3.0623   -5.8436    0.0000 C   0  0  0  0  0  0  0  0  0  0  0  0
    2.6342  -10.2410    0.0000 C   0  0  0  0  0  0  0  0  0  0  0  0
    0.1592   -8.8120    0.0000 C   0  0  0  0  0  0  0  0  0  0  0  0
    2.2217  -10.9555    0.0000 C   0  0  0  0  0  0  0  0  0  0  0  0
    0.9842   -7.3831    0.0000 C   0  0  0  0  0  0  0  0  0  0  0  0
    2.2217   -9.5265    0.0000 C   0  0  0  0  0  0  0  0  0  0  0  0
    1.3967   -8.0976    0.0000 C   0  0  0  0  0  0  0  0  0  0  0  0
    0.9842  -10.2410    0.0000 C   0  0  0  0  0  0  0  0  0  0  0  0
    1.3967  -10.9555    0.0000 C   0  0  0  0  0  0  0  0  0  0  0  0
   -3.7768   -6.2561    0.0000 C   0  0  0  0  0  0  0  0  0  0  0  0
   -3.7768   -7.0811    0.0000 C   0  0  0  0  0  0  0  0  0  0  0  0
    3.4412  -10.4125    0.0000 C   0  0  0  0  0  0  0  0  0  0  0  0
    2.7737  -11.5686    0.0000 C   0  0  0  0  0  0  0  0  0  0  0  0
  1 14  1  0  0  0  0
  2  7  2  0  0  0  0
  3  7  1  0  0  0  0
  3  9  1  0  0  0  0
  3 11  1  0  0  0  0
  4  8  2  0  0  0  0
  4 25  1  0  0  0  0
  5 26  1  0  0  0  0
  5 27  2  0  0  0  0
  6  7  1  0  0  0  0
  6  8  1  0  0  0  0
  6 15  2  0  0  0  0
  8  9  1  0  0  0  0
 10 11  1  0  0  0  0
 10 14  1  0  0  0  0
 10 19  2  0  0  0  0
 12 13  1  0  0  0  0
 12 17  1  0  0  0  0
 12 21  2  0  0  0  0
 13 20  2  0  0  0  0
 13 22  1  0  0  0  0
 14 17  2  0  0  0  0
 15 24  1  0  0  0  0
 16 18  2  0  0  0  0
 16 20  1  0  0  0  0
 16 26  1  0  0  0  0
 18 23  1  0  0  0  0
 18 27  1  0  0  0  0
 19 21  1  0  0  0  0
 22 23  2  0  0  0  0
 24 25  2  0  0  0  0
M  END
> <PUBCHEM_COMPOUND_ID_TYPE>
0

> <PUBCHEM_TOTAL_CHARGE>
0

> <PUBCHEM_SUBSTANCE_ID>
310939006

> <PUBCHEM_SUBSTANCE_VERSION>
1

> <PUBCHEM_EXT_DATASOURCE_NAME>
4488

> <PUBCHEM_EXT_DATASOURCE_REGID>
SCHEMBL16116925

> <PUBCHEM_SUBSTANCE_COMMENT>
InChI=1S/C22H16FN3O/c23-20-9-15(14-3-5-16-10-24-11-18(16)8-14)4-6-17(20)12-26-13-21-19(22(26)27)2-1-7-25-21/h1-10H,11-13H2
InChIKey=BGWYENBEKBECNQ-UHFFFAOYSA-N

> <PUBCHEM_SUBSTANCE_SYNONYM>
SCHEMBL16116925

> <PUBCHEM_XREF_EXT_ID>
SCHEMBL16116925

> <PUBCHEM_EXT_DATASOURCE_URL>
https://www.surechembl.org/

> <PUBCHEM_EXT_SUBSTANCE_URL>
https://www.surechembl.org/chemical/SCHEMBL16116925

> <PUBCHEM_CID_ASSOCIATIONS>
117606390  1

> <PUBCHEM_COORDINATE_TYPE>
1
3

$$$$
