310942978
  -OEChem-07211613022D

 27 30  0     1  0  0  0  0  0999 V2000
   -1.4549   -1.0499    0.0000 O   0  0  0  0  0  0  0  0  0  0  0  0
   -0.0450    3.4349    0.0000 O   0  0  0  0  0  0  0  0  0  0  0  0
    0.0300    1.2749    0.0000 N   0  0  0  0  0  0  0  0  0  0  0  0
    0.5100    0.6149    0.0000 N   0  0  0  0  0  0  0  0  0  0  0  0
    0.3000   -0.8400    0.0000 N   0  0  0  0  0  0  0  0  0  0  0  0
   -2.1899    0.1800    0.0000 N   0  0  0  0  0  0  0  0  0  0  0  0
    2.1899    1.0199    0.0000 N   0  0  0  0  0  0  0  0  0  0  0  0
   -0.7650    0.1950    0.0000 C   0  0  0  0  0  0  0  0  0  0  0  0
   -0.7500    1.0199    0.0000 C   0  0  0  0  0  0  0  0  0  0  0  0
    0.0300   -0.0600    0.0000 C   0  0  0  0  0  0  0  0  0  0  0  0
    0.2700    2.0700    0.0000 C   0  0  3  0  0  0  0  0  0  0  0  0
   -1.4549   -0.2099    0.0000 C   0  0  0  0  0  0  0  0  0  0  0  0
   -1.4849    1.4099    0.0000 C   0  0  0  0  0  0  0  0  0  0  0  0
    1.0800    2.2349    0.0000 C   0  0  3  0  0  0  0  0  0  0  0  0
   -0.2849    2.6548    0.0000 C   0  0  0  0  0  0  0  0  0  0  0  0
   -2.1749    1.0050    0.0000 C   0  0  0  0  0  0  0  0  0  0  0  0
   -0.2549   -1.4549    0.0000 C   0  0  0  0  0  0  0  0  0  0  0  0
    1.3199    3.0298    0.0000 C   0  0  0  0  0  0  0  0  0  0  0  0
    1.6198    1.6198    0.0000 C   0  0  0  0  0  0  0  0  0  0  0  0
    0.0150   -2.2199    0.0000 C   0  0  0  0  0  0  0  0  0  0  0  0
   -1.0499   -1.2899    0.0000 C   0  0  0  0  0  0  0  0  0  0  0  0
    0.7500    3.6298    0.0000 C   0  0  0  0  0  0  0  0  0  0  0  0
   -0.5399   -2.8348    0.0000 C   0  0  0  0  0  0  0  0  0  0  0  0
   -1.3199   -2.6548    0.0000 C   0  0  0  0  0  0  0  0  0  0  0  0
   -1.5749   -1.8749    0.0000 C   0  0  0  0  0  0  0  0  0  0  0  0
   -0.2400   -3.6298    0.0000 C   0  0  0  0  0  0  0  0  0  0  0  0
   -1.8598   -3.2998    0.0000 C   0  0  0  0  0  0  0  0  0  0  0  0
  1 12  2  0  0  0  0
  2 15  1  0  0  0  0
  2 22  1  0  0  0  0
  3  4  1  0  0  0  0
  3  9  1  0  0  0  0
 11  3  1  1  0  0  0
  4 10  2  0  0  0  0
  5 10  1  0  0  0  0
  5 17  1  0  0  0  0
  6 12  1  0  0  0  0
  6 16  1  0  0  0  0
  7 19  3  0  0  0  0
  8  9  2  0  0  0  0
  8 10  1  0  0  0  0
  8 12  1  0  0  0  0
  9 13  1  0  0  0  0
 11 14  1  0  0  0  0
 11 15  1  0  0  0  0
 13 16  2  0  0  0  0
 14 18  1  0  0  0  0
 14 19  1  6  0  0  0
 17 20  1  0  0  0  0
 17 21  2  0  0  0  0
 18 22  1  0  0  0  0
 20 23  2  0  0  0  0
 21 25  1  0  0  0  0
 23 24  1  0  0  0  0
 23 26  1  0  0  0  0
 24 25  2  0  0  0  0
 24 27  1  0  0  0  0
M  END
> <PUBCHEM_COMPOUND_ID_TYPE>
0

> <PUBCHEM_TOTAL_CHARGE>
0

> <PUBCHEM_SUBSTANCE_ID>
310942978

> <PUBCHEM_SUBSTANCE_VERSION>
1

> <PUBCHEM_EXT_DATASOURCE_NAME>
4488

> <PUBCHEM_EXT_DATASOURCE_REGID>
SCHEMBL16121037

> <PUBCHEM_SUBSTANCE_COMMENT>
InChI=1S/C20H21N5O2/c1-12-3-4-15(9-13(12)2)23-19-18-16(5-7-22-20(18)26)25(24-19)17-11-27-8-6-14(17)10-21/h3-5,7,9,14,17H,6,8,11H2,1-2H3,(H,22,26)(H,23,24)/t14-,17+/m1/s1
InChIKey=DXVXXWQBLURGJX-PBHICJAKSA-N

> <PUBCHEM_SUBSTANCE_SYNONYM>
SCHEMBL16121037

> <PUBCHEM_XREF_EXT_ID>
SCHEMBL16121037

> <PUBCHEM_EXT_DATASOURCE_URL>
https://www.surechembl.org/

> <PUBCHEM_EXT_SUBSTANCE_URL>
https://www.surechembl.org/chemical/SCHEMBL16121037

> <PUBCHEM_CID_ASSOCIATIONS>
117609440  1

> <PUBCHEM_COORDINATE_TYPE>
1
3

> <PUBCHEM_BONDANNOTATIONS>
14  19  6
11  3  5

$$$$
