310936116
  -OEChem-07211613022D

 17 18  0     0  0  0  0  0  0999 V2000
    2.1945   -2.1058    0.0000 S   0  0  0  0  0  0  0  0  0  0  0  0
    0.8423   -3.1255    0.0000 O   0  0  0  0  0  0  0  0  0  0  0  0
    0.0000   -1.9728    0.0000 O   0  0  0  0  0  0  0  0  0  0  0  0
    5.1427    0.0000    0.0000 O   0  0  0  0  0  0  0  0  0  0  0  0
    3.5024   -1.4187    0.0000 N   0  0  0  0  0  0  0  0  0  0  0  0
    2.1945   -0.7537    0.0000 N   0  0  0  0  0  0  0  0  0  0  0  0
    5.1427   -1.4187    0.0000 N   0  0  0  0  0  0  0  0  0  0  0  0
    2.6822   -1.4187    0.0000 C   0  0  0  0  0  0  0  0  0  0  0  0
    1.4187   -1.8399    0.0000 C   0  0  0  0  0  0  0  0  0  0  0  0
    1.4187   -1.0197    0.0000 C   0  0  0  0  0  0  0  0  0  0  0  0
    0.7537   -2.3053    0.0000 C   0  0  0  0  0  0  0  0  0  0  0  0
    3.9013   -0.7093    0.0000 C   0  0  0  0  0  0  0  0  0  0  0  0
    3.9013   -2.1502    0.0000 C   0  0  0  0  0  0  0  0  0  0  0  0
    4.7437   -0.7093    0.0000 C   0  0  0  0  0  0  0  0  0  0  0  0
    4.7437   -2.1502    0.0000 C   0  0  0  0  0  0  0  0  0  0  0  0
    0.1552   -3.6132    0.0000 C   0  0  0  0  0  0  0  0  0  0  0  0
    0.2660   -4.4333    0.0000 C   0  0  0  0  0  0  0  0  0  0  0  0
  1  8  1  0  0  0  0
  1  9  1  0  0  0  0
  2 11  1  0  0  0  0
  2 16  1  0  0  0  0
  3 11  2  0  0  0  0
  4 14  2  0  0  0  0
  5  8  1  0  0  0  0
  5 12  1  0  0  0  0
  5 13  1  0  0  0  0
  6  8  2  0  0  0  0
  6 10  1  0  0  0  0
  7 14  1  0  0  0  0
  7 15  1  0  0  0  0
  9 10  2  0  0  0  0
  9 11  1  0  0  0  0
 12 14  1  0  0  0  0
 13 15  1  0  0  0  0
 16 17  1  0  0  0  0
M  END
> <PUBCHEM_COMPOUND_ID_TYPE>
0

> <PUBCHEM_TOTAL_CHARGE>
0

> <PUBCHEM_SUBSTANCE_ID>
310936116

> <PUBCHEM_SUBSTANCE_VERSION>
1

> <PUBCHEM_EXT_DATASOURCE_NAME>
4488

> <PUBCHEM_EXT_DATASOURCE_REGID>
SCHEMBL16113724

> <PUBCHEM_SUBSTANCE_COMMENT>
InChI=1S/C10H13N3O3S/c1-2-16-9(15)7-5-12-10(17-7)13-4-3-11-8(14)6-13/h5H,2-4,6H2,1H3,(H,11,14)
InChIKey=GWJHMDXRTKDNRY-UHFFFAOYSA-N

> <PUBCHEM_SUBSTANCE_SYNONYM>
SCHEMBL16113724

> <PUBCHEM_XREF_EXT_ID>
SCHEMBL16113724

> <PUBCHEM_EXT_DATASOURCE_URL>
https://www.surechembl.org/

> <PUBCHEM_EXT_SUBSTANCE_URL>
https://www.surechembl.org/chemical/SCHEMBL16113724

> <PUBCHEM_CID_ASSOCIATIONS>
117604081  1

> <PUBCHEM_COORDINATE_TYPE>
1
3

$$$$
