310942083
  -OEChem-07211613022D

 22 25  0     0  0  0  0  0  0999 V2000
   -1.9761   -2.8797    0.0000 F   0  0  0  0  0  0  0  0  0  0  0  0
    2.5761    1.7849    0.0000 O   0  0  0  0  0  0  0  0  0  0  0  0
   -0.5437   -0.4049    0.0000 N   0  0  0  0  0  0  0  0  0  0  0  0
   -1.5111    1.4849    0.0000 N   0  0  0  0  0  0  0  0  0  0  0  0
    1.5036    2.7222    0.0000 N   0  0  0  0  0  0  0  0  0  0  0  0
   -0.1237    0.8699    0.0000 C   0  0  0  0  0  0  0  0  0  0  0  0
    0.1237    0.0900    0.0000 C   0  0  0  0  0  0  0  0  0  0  0  0
   -0.9637    0.8775    0.0000 C   0  0  0  0  0  0  0  0  0  0  0  0
   -1.2187    0.0900    0.0000 C   0  0  0  0  0  0  0  0  0  0  0  0
    0.4237    1.4923    0.0000 C   0  0  0  0  0  0  0  0  0  0  0  0
    1.2261    1.3349    0.0000 C   0  0  0  0  0  0  0  0  0  0  0  0
    0.9412   -0.0750    0.0000 C   0  0  0  0  0  0  0  0  0  0  0  0
    1.4811    0.5249    0.0000 C   0  0  0  0  0  0  0  0  0  0  0  0
    1.7511    1.9574    0.0000 C   0  0  0  0  0  0  0  0  0  0  0  0
   -2.0361   -0.0825    0.0000 C   0  0  0  0  0  0  0  0  0  0  0  0
    0.1613    2.2499    0.0000 C   0  0  0  0  0  0  0  0  0  0  0  0
   -0.5437   -1.2224    0.0000 C   0  0  0  0  0  0  0  0  0  0  0  0
   -2.3136    1.3199    0.0000 C   0  0  0  0  0  0  0  0  0  0  0  0
   -2.5761    0.5249    0.0000 C   0  0  0  0  0  0  0  0  0  0  0  0
    0.7012    2.8797    0.0000 C   0  0  0  0  0  0  0  0  0  0  0  0
   -1.2487   -1.6424    0.0000 C   0  0  0  0  0  0  0  0  0  0  0  0
   -1.2637   -2.4673    0.0000 C   0  0  0  0  0  0  0  0  0  0  0  0
  1 22  1  0  0  0  0
  2 14  2  0  0  0  0
  3  7  1  0  0  0  0
  3  9  1  0  0  0  0
  3 17  1  0  0  0  0
  4  8  2  0  0  0  0
  4 18  1  0  0  0  0
  5 14  1  0  0  0  0
  5 20  1  0  0  0  0
  6  7  2  0  0  0  0
  6  8  1  0  0  0  0
  6 10  1  0  0  0  0
  7 12  1  0  0  0  0
  8  9  1  0  0  0  0
  9 15  2  0  0  0  0
 10 11  2  0  0  0  0
 10 16  1  0  0  0  0
 11 13  1  0  0  0  0
 11 14  1  0  0  0  0
 12 13  2  0  0  0  0
 15 19  1  0  0  0  0
 16 20  1  0  0  0  0
 17 21  1  0  0  0  0
 18 19  2  0  0  0  0
 21 22  1  0  0  0  0
M  END
> <PUBCHEM_COMPOUND_ID_TYPE>
0

> <PUBCHEM_TOTAL_CHARGE>
0

> <PUBCHEM_SUBSTANCE_ID>
310942083

> <PUBCHEM_SUBSTANCE_VERSION>
1

> <PUBCHEM_EXT_DATASOURCE_NAME>
4488

> <PUBCHEM_EXT_DATASOURCE_REGID>
SCHEMBL16120118

> <PUBCHEM_SUBSTANCE_COMMENT>
InChI=1S/C17H16FN3O/c18-7-2-10-21-13-5-4-12-11(6-9-20-17(12)22)15(13)16-14(21)3-1-8-19-16/h1,3-5,8H,2,6-7,9-10H2,(H,20,22)
InChIKey=MGJYKAAJEKQPMN-UHFFFAOYSA-N

> <PUBCHEM_SUBSTANCE_SYNONYM>
SCHEMBL16120118

> <PUBCHEM_XREF_EXT_ID>
SCHEMBL16120118

> <PUBCHEM_EXT_DATASOURCE_URL>
https://www.surechembl.org/

> <PUBCHEM_EXT_SUBSTANCE_URL>
https://www.surechembl.org/chemical/SCHEMBL16120118

> <PUBCHEM_CID_ASSOCIATIONS>
86273802  1

> <PUBCHEM_COORDINATE_TYPE>
1
3

$$$$
