310949467
  -OEChem-07211613022D

 17 19  0     1  0  0  0  0  0999 V2000
    2.1709   -1.8931    0.0000 F   0  0  0  0  0  0  0  0  0  0  0  0
    0.0365    0.0220    0.0000 N   0  0  0  0  0  0  0  0  0  0  0  0
    0.5190    0.6797    0.0000 N   0  0  0  0  0  0  0  0  0  0  0  0
    0.0365    1.3522    0.0000 N   0  0  0  0  0  0  0  0  0  0  0  0
   -0.2558   -1.3814    0.0000 N   0  0  0  0  0  0  0  0  0  0  0  0
   -2.1709    1.0891    0.0000 N   0  0  0  0  0  0  0  0  0  0  0  0
   -0.7528    0.2705    0.0000 C   0  0  0  0  0  0  0  0  0  0  0  0
   -0.7382    1.1037    0.0000 C   0  0  0  0  0  0  0  0  0  0  0  0
    0.2851   -0.7382    0.0000 C   0  0  0  0  0  0  0  0  0  0  0  0
   -1.4545    1.5130    0.0000 C   0  0  3  0  0  0  0  0  0  0  0  0
   -1.4545   -0.1389    0.0000 C   0  0  0  0  0  0  0  0  0  0  0  0
    1.1037   -0.9429    0.0000 C   0  0  0  0  0  0  0  0  0  0  0  0
   -2.1709    0.2705    0.0000 C   0  0  0  0  0  0  0  0  0  0  0  0
    1.3522   -1.7030    0.0000 C   0  0  0  0  0  0  0  0  0  0  0  0
    0.0073   -2.1562    0.0000 C   0  0  0  0  0  0  0  0  0  0  0  0
    0.8113   -2.3316    0.0000 C   0  0  0  0  0  0  0  0  0  0  0  0
   -1.4545    2.3316    0.0000 C   0  0  0  0  0  0  0  0  0  0  0  0
  1 14  1  0  0  0  0
  2  3  1  0  0  0  0
  2  7  1  0  0  0  0
  2  9  1  0  0  0  0
  3  4  2  0  0  0  0
  4  8  1  0  0  0  0
  5  9  2  0  0  0  0
  5 15  1  0  0  0  0
  6 10  1  0  0  0  0
  6 13  1  0  0  0  0
  7  8  2  0  0  0  0
  7 11  1  0  0  0  0
  8 10  1  0  0  0  0
  9 12  1  0  0  0  0
 10 17  1  1  0  0  0
 11 13  1  0  0  0  0
 12 14  2  0  0  0  0
 14 16  1  0  0  0  0
 15 16  2  0  0  0  0
M  END
> <PUBCHEM_COMPOUND_ID_TYPE>
0

> <PUBCHEM_TOTAL_CHARGE>
0

> <PUBCHEM_SUBSTANCE_ID>
310949467

> <PUBCHEM_SUBSTANCE_VERSION>
1

> <PUBCHEM_EXT_DATASOURCE_NAME>
4488

> <PUBCHEM_EXT_DATASOURCE_REGID>
SCHEMBL16127661

> <PUBCHEM_SUBSTANCE_COMMENT>
InChI=1S/C11H12FN5/c1-7-11-9(3-5-13-7)17(16-15-11)10-6-8(12)2-4-14-10/h2,4,6-7,13H,3,5H2,1H3/t7-/m0/s1
InChIKey=BDDJBPRIKWWSAL-ZETCQYMHSA-N

> <PUBCHEM_SUBSTANCE_SYNONYM>
SCHEMBL16127661

> <PUBCHEM_XREF_EXT_ID>
SCHEMBL16127661

> <PUBCHEM_EXT_DATASOURCE_URL>
https://www.surechembl.org/

> <PUBCHEM_EXT_SUBSTANCE_URL>
https://www.surechembl.org/chemical/SCHEMBL16127661

> <PUBCHEM_CID_ASSOCIATIONS>
117614911  1

> <PUBCHEM_COORDINATE_TYPE>
1
3

> <PUBCHEM_BONDANNOTATIONS>
10  17  5

$$$$
