310931937
  -OEChem-07211613022D

 30 33  0     0  0  0  0  0  0999 V2000
    3.6251   -2.1203    0.0000 O   0  0  0  0  0  0  0  0  0  0  0  0
    0.9234   -2.3597    0.0000 O   0  0  0  0  0  0  0  0  0  0  0  0
    8.0709   -2.1887    0.0000 O   0  0  0  0  0  0  0  0  0  0  0  0
   10.2596   -2.5991    0.0000 O   0  0  0  0  0  0  0  0  0  0  0  0
    4.5484   -0.9576    0.0000 N   0  0  0  0  0  0  0  0  0  0  0  0
    4.4458   -0.1368    0.0000 N   0  0  0  0  0  0  0  0  0  0  0  0
    5.9506   -0.9576    0.0000 N   0  0  0  0  0  0  0  0  0  0  0  0
    0.8208   -0.9576    0.0000 N   0  0  0  0  0  0  0  0  0  0  0  0
    7.3869   -3.4199    0.0000 N   0  0  0  0  0  0  0  0  0  0  0  0
    3.2147   -0.7182    0.0000 C   0  0  0  0  0  0  0  0  0  0  0  0
    3.7961   -1.2995    0.0000 C   0  0  0  0  0  0  0  0  0  0  0  0
    2.4281   -0.7866    0.0000 C   0  0  0  0  0  0  0  0  0  0  0  0
    5.2324   -1.3679    0.0000 C   0  0  0  0  0  0  0  0  0  0  0  0
    3.6251    0.0000    0.0000 C   0  0  0  0  0  0  0  0  0  0  0  0
    2.0861   -1.5732    0.0000 C   0  0  0  0  0  0  0  0  0  0  0  0
    5.2324   -2.1887    0.0000 C   0  0  0  0  0  0  0  0  0  0  0  0
    1.9493   -0.1368    0.0000 C   0  0  0  0  0  0  0  0  0  0  0  0
    6.6688   -2.1887    0.0000 C   0  0  0  0  0  0  0  0  0  0  0  0
    1.2653   -1.6074    0.0000 C   0  0  0  0  0  0  0  0  0  0  0  0
    6.6688   -1.3679    0.0000 C   0  0  0  0  0  0  0  0  0  0  0  0
    5.9506   -2.5991    0.0000 C   0  0  0  0  0  0  0  0  0  0  0  0
    1.1286   -0.2052    0.0000 C   0  0  0  0  0  0  0  0  0  0  0  0
    7.3869   -2.5991    0.0000 C   0  0  0  0  0  0  0  0  0  0  0  0
    0.0000   -1.0602    0.0000 C   0  0  0  0  0  0  0  0  0  0  0  0
    8.1051   -3.8303    0.0000 C   0  0  0  0  0  0  0  0  0  0  0  0
    8.8233   -3.4199    0.0000 C   0  0  0  0  0  0  0  0  0  0  0  0
    9.5415   -3.8303    0.0000 C   0  0  0  0  0  0  0  0  0  0  0  0
    8.8233   -2.5991    0.0000 C   0  0  0  0  0  0  0  0  0  0  0  0
   10.2254   -3.4199    0.0000 C   0  0  0  0  0  0  0  0  0  0  0  0
    9.5415   -2.1887    0.0000 C   0  0  0  0  0  0  0  0  0  0  0  0
  1 11  1  0  0  0  0
  2 19  2  0  0  0  0
  3 23  2  0  0  0  0
  4 29  1  0  0  0  0
  4 30  1  0  0  0  0
  5  6  1  0  0  0  0
  5 11  1  0  0  0  0
  5 13  1  0  0  0  0
  6 14  2  0  0  0  0
  7 13  2  0  0  0  0
  7 20  1  0  0  0  0
  8 19  1  0  0  0  0
  8 22  1  0  0  0  0
  8 24  1  0  0  0  0
  9 23  1  0  0  0  0
  9 25  1  0  0  0  0
 10 11  2  0  0  0  0
 10 12  1  0  0  0  0
 10 14  1  0  0  0  0
 12 15  2  0  0  0  0
 12 17  1  0  0  0  0
 13 16  1  0  0  0  0
 15 19  1  0  0  0  0
 16 21  2  0  0  0  0
 17 22  2  0  0  0  0
 18 20  2  0  0  0  0
 18 21  1  0  0  0  0
 18 23  1  0  0  0  0
 25 26  1  0  0  0  0
 26 27  1  0  0  0  0
 26 28  1  0  0  0  0
 27 29  1  0  0  0  0
 28 30  1  0  0  0  0
M  END
> <PUBCHEM_COMPOUND_ID_TYPE>
0

> <PUBCHEM_TOTAL_CHARGE>
0

> <PUBCHEM_SUBSTANCE_ID>
310931937

> <PUBCHEM_SUBSTANCE_VERSION>
1

> <PUBCHEM_EXT_DATASOURCE_NAME>
4488

> <PUBCHEM_EXT_DATASOURCE_REGID>
SCHEMBL16109273

> <PUBCHEM_SUBSTANCE_COMMENT>
InChI=1S/C21H23N5O4/c1-25-7-4-15(10-19(25)27)17-13-24-26(21(17)29)18-3-2-16(12-22-18)20(28)23-11-14-5-8-30-9-6-14/h2-4,7,10,12-14,29H,5-6,8-9,11H2,1H3,(H,23,28)
InChIKey=DDIKIPUPYGFRII-UHFFFAOYSA-N

> <PUBCHEM_SUBSTANCE_SYNONYM>
SCHEMBL16109273

> <PUBCHEM_XREF_EXT_ID>
SCHEMBL16109273

> <PUBCHEM_EXT_DATASOURCE_URL>
https://www.surechembl.org/

> <PUBCHEM_EXT_SUBSTANCE_URL>
https://www.surechembl.org/chemical/SCHEMBL16109273

> <PUBCHEM_CID_ASSOCIATIONS>
117600588  1

> <PUBCHEM_COORDINATE_TYPE>
1
3

$$$$
