310949066
  -OEChem-07211613022D

 31 35  0     0  0  0  0  0  0999 V2000
    0.7779    0.2141    0.0000 N   0  0  0  0  0  0  0  0  0  0  0  0
   -1.2776    1.1420    0.0000 N   0  0  0  0  0  0  0  0  0  0  0  0
    2.9191   -0.2569    0.0000 N   0  0  0  0  0  0  0  0  0  0  0  0
   -1.3917   -0.2854    0.0000 N   0  0  0  0  0  0  0  0  0  0  0  0
    0.7208   -3.9540    0.0000 N   0  0  0  0  0  0  0  0  0  0  0  0
    0.0642    0.7280    0.0000 C   0  0  0  0  0  0  0  0  0  0  0  0
    1.4489    0.7280    0.0000 C   0  0  0  0  0  0  0  0  0  0  0  0
    0.3639    1.5274    0.0000 C   0  0  0  0  0  0  0  0  0  0  0  0
    1.1919    1.4988    0.0000 C   0  0  0  0  0  0  0  0  0  0  0  0
    0.7636   -0.6138    0.0000 C   0  0  0  0  0  0  0  0  0  0  0  0
    1.4917   -1.0420    0.0000 C   0  0  0  0  0  0  0  0  0  0  0  0
    0.0500   -1.0135    0.0000 C   0  0  0  0  0  0  0  0  0  0  0  0
   -0.1927    2.1125    0.0000 C   0  0  0  0  0  0  0  0  0  0  0  0
   -0.6923    0.5424    0.0000 C   0  0  0  0  0  0  0  0  0  0  0  0
    2.2625    0.5567    0.0000 C   0  0  0  0  0  0  0  0  0  0  0  0
   -1.0350    1.9699    0.0000 C   0  0  0  0  0  0  0  0  0  0  0  0
    1.7486    2.0983    0.0000 C   0  0  0  0  0  0  0  0  0  0  0  0
    1.4774   -1.8556    0.0000 C   0  0  0  0  0  0  0  0  0  0  0  0
    0.0500   -1.8556    0.0000 C   0  0  0  0  0  0  0  0  0  0  0  0
    0.7636   -2.2695    0.0000 C   0  0  0  0  0  0  0  0  0  0  0  0
   -1.5773    2.5837    0.0000 C   0  0  0  0  0  0  0  0  0  0  0  0
    2.7906    1.1420    0.0000 C   0  0  0  0  0  0  0  0  0  0  0  0
    2.5623    1.9413    0.0000 C   0  0  0  0  0  0  0  0  0  0  0  0
    2.2053   -0.6280    0.0000 C   0  0  0  0  0  0  0  0  0  0  0  0
   -0.6780   -0.6280    0.0000 C   0  0  0  0  0  0  0  0  0  0  0  0
   -1.3204    3.3688    0.0000 C   0  0  0  0  0  0  0  0  0  0  0  0
   -2.3767    2.4267    0.0000 C   0  0  0  0  0  0  0  0  0  0  0  0
    0.7351   -3.1403    0.0000 C   0  0  0  0  0  0  0  0  0  0  0  0
   -1.8485    3.9540    0.0000 C   0  0  0  0  0  0  0  0  0  0  0  0
   -2.9191    3.0119    0.0000 C   0  0  0  0  0  0  0  0  0  0  0  0
   -2.6479    3.7970    0.0000 C   0  0  0  0  0  0  0  0  0  0  0  0
  1  6  1  0  0  0  0
  1  7  1  0  0  0  0
  1 10  1  0  0  0  0
  2 14  2  0  0  0  0
  2 16  1  0  0  0  0
  3 24  3  0  0  0  0
  4 25  3  0  0  0  0
  5 28  3  0  0  0  0
  6  8  2  0  0  0  0
  6 14  1  0  0  0  0
  7  9  2  0  0  0  0
  7 15  1  0  0  0  0
  8  9  1  0  0  0  0
  8 13  1  0  0  0  0
  9 17  1  0  0  0  0
 10 11  2  0  0  0  0
 10 12  1  0  0  0  0
 11 18  1  0  0  0  0
 11 24  1  0  0  0  0
 12 19  2  0  0  0  0
 12 25  1  0  0  0  0
 13 16  2  0  0  0  0
 15 22  2  0  0  0  0
 16 21  1  0  0  0  0
 17 23  2  0  0  0  0
 18 20  2  0  0  0  0
 19 20  1  0  0  0  0
 20 28  1  0  0  0  0
 21 26  2  0  0  0  0
 21 27  1  0  0  0  0
 22 23  1  0  0  0  0
 26 29  1  0  0  0  0
 27 30  2  0  0  0  0
 29 31  2  0  0  0  0
 30 31  1  0  0  0  0
M  END
> <PUBCHEM_COMPOUND_ID_TYPE>
0

> <PUBCHEM_TOTAL_CHARGE>
0

> <PUBCHEM_SUBSTANCE_ID>
310949066

> <PUBCHEM_SUBSTANCE_VERSION>
1

> <PUBCHEM_EXT_DATASOURCE_NAME>
4488

> <PUBCHEM_EXT_DATASOURCE_REGID>
SCHEMBL16127256

> <PUBCHEM_SUBSTANCE_COMMENT>
InChI=1S/C26H13N5/c27-13-17-10-19(14-28)26(20(11-17)15-29)31-24-9-5-4-8-21(24)22-12-23(30-16-25(22)31)18-6-2-1-3-7-18/h1-12,16H
InChIKey=PQCURKDZQLORHM-UHFFFAOYSA-N

> <PUBCHEM_SUBSTANCE_SYNONYM>
SCHEMBL16127256

> <PUBCHEM_XREF_EXT_ID>
SCHEMBL16127256

> <PUBCHEM_EXT_DATASOURCE_URL>
https://www.surechembl.org/

> <PUBCHEM_EXT_SUBSTANCE_URL>
https://www.surechembl.org/chemical/SCHEMBL16127256

> <PUBCHEM_CID_ASSOCIATIONS>
117614571  1

> <PUBCHEM_COORDINATE_TYPE>
1
3

$$$$
