310948992
  -OEChem-07211613022D

 31 34  0     1  0  0  0  0  0999 V2000
   -0.0728    0.6032    0.0000 I   0  0  0  0  0  0  0  0  0  0  0  0
    0.8633    3.4322    0.0000 F   0  0  0  0  0  0  0  0  0  0  0  0
    1.1129    2.3297    0.0000 F   0  0  0  0  0  0  0  0  0  0  0  0
    0.0312    2.1009    0.0000 F   0  0  0  0  0  0  0  0  0  0  0  0
   -1.7785   -1.9553    0.0000 O   0  0  0  0  0  0  0  0  0  0  0  0
    1.7785   -3.1826    0.0000 O   0  0  0  0  0  0  0  0  0  0  0  0
    1.0505   -1.9345    0.0000 O   0  0  0  0  0  0  0  0  0  0  0  0
   -1.0713   -0.6656    0.0000 N   0  0  0  0  0  0  0  0  0  0  0  0
   -0.3640   -1.9345    0.0000 N   0  0  0  0  0  0  0  0  0  0  0  0
   -1.0713   -3.2242    0.0000 N   0  0  0  0  0  0  0  0  0  0  0  0
   -0.6344    0.6656    0.0000 C   0  0  3  0  0  0  0  0  0  0  0  0
   -1.4249    0.6448    0.0000 C   0  0  3  0  0  0  0  0  0  0  0  0
   -1.0505    1.9553    0.0000 C   0  0  3  0  0  0  0  0  0  0  0  0
   -0.3640    1.3937    0.0000 C   0  0  0  0  0  0  0  0  0  0  0  0
   -0.3848   -0.2080    0.0000 C   0  0  0  0  0  0  0  0  0  0  0  0
   -1.6745    1.4561    0.0000 C   0  0  0  0  0  0  0  0  0  0  0  0
   -0.9881    2.8290    0.0000 C   0  0  0  0  0  0  0  0  0  0  0  0
   -1.7161   -0.1456    0.0000 C   0  0  0  0  0  0  0  0  0  0  0  0
   -0.2808    3.2242    0.0000 C   0  0  0  0  0  0  0  0  0  0  0  0
   -1.0921   -1.4977    0.0000 C   0  0  0  0  0  0  0  0  0  0  0  0
    0.4264    2.7666    0.0000 C   0  0  0  0  0  0  0  0  0  0  0  0
   -1.6953    3.2450    0.0000 C   0  0  0  0  0  0  0  0  0  0  0  0
   -0.2600    4.0354    0.0000 C   0  0  0  0  0  0  0  0  0  0  0  0
   -0.3848   -2.7874    0.0000 C   0  0  0  0  0  0  0  0  0  0  0  0
   -1.6745    4.0562    0.0000 C   0  0  0  0  0  0  0  0  0  0  0  0
    0.3224   -3.2450    0.0000 C   0  0  0  0  0  0  0  0  0  0  0  0
   -0.9465    4.4723    0.0000 C   0  0  0  0  0  0  0  0  0  0  0  0
    1.0089   -2.7874    0.0000 C   0  0  0  0  0  0  0  0  0  0  0  0
    0.3224   -4.0562    0.0000 C   0  0  0  0  0  0  0  0  0  0  0  0
   -1.0713   -4.0770    0.0000 C   0  0  0  0  0  0  0  0  0  0  0  0
   -0.3224   -4.4723    0.0000 C   0  0  0  0  0  0  0  0  0  0  0  0
 11  1  1  6  0  0  0
  2 21  1  0  0  0  0
  3 21  1  0  0  0  0
  4 21  1  0  0  0  0
  5 20  2  0  0  0  0
  6 28  2  0  0  0  0
  7 28  1  0  0  0  0
  8 15  1  0  0  0  0
  8 18  1  0  0  0  0
  8 20  1  0  0  0  0
  9 20  1  0  0  0  0
  9 24  1  0  0  0  0
 10 24  2  0  0  0  0
 10 30  1  0  0  0  0
 11 12  1  0  0  0  0
 11 14  1  0  0  0  0
 11 15  1  0  0  0  0
 12 16  1  0  0  0  0
 12 18  1  0  0  0  0
 13 14  1  0  0  0  0
 13 16  1  1  0  0  0
 13 17  1  0  0  0  0
 17 19  2  0  0  0  0
 17 22  1  0  0  0  0
 19 21  1  0  0  0  0
 19 23  1  0  0  0  0
 22 25  2  0  0  0  0
 23 27  2  0  0  0  0
 24 26  1  0  0  0  0
 25 27  1  0  0  0  0
 26 28  1  0  0  0  0
 26 29  2  0  0  0  0
 29 31  1  0  0  0  0
 30 31  2  0  0  0  0
M  END
> <PUBCHEM_COMPOUND_ID_TYPE>
0

> <PUBCHEM_TOTAL_CHARGE>
0

> <PUBCHEM_SUBSTANCE_ID>
310948992

> <PUBCHEM_SUBSTANCE_VERSION>
1

> <PUBCHEM_EXT_DATASOURCE_NAME>
4488

> <PUBCHEM_EXT_DATASOURCE_REGID>
SCHEMBL16127180

> <PUBCHEM_SUBSTANCE_COMMENT>
InChI=1S/C21H19F3IN3O3/c22-21(23,24)16-6-2-1-4-14(16)12-8-13-10-28(11-20(13,25)9-12)19(31)27-17-15(18(29)30)5-3-7-26-17/h1-7,12-13H,8-11H2,(H,29,30)(H,26,27,31)/t12-,13?,20-/m1/s1
InChIKey=HTGFMKPQHGJMRO-LWLHABHJSA-N

> <PUBCHEM_SUBSTANCE_SYNONYM>
SCHEMBL16127180

> <PUBCHEM_XREF_EXT_ID>
SCHEMBL16127180

> <PUBCHEM_EXT_DATASOURCE_URL>
https://www.surechembl.org/

> <PUBCHEM_EXT_SUBSTANCE_URL>
https://www.surechembl.org/chemical/SCHEMBL16127180

> <PUBCHEM_CID_ASSOCIATIONS>
117614501  1

> <PUBCHEM_COORDINATE_TYPE>
1
3

> <PUBCHEM_BONDANNOTATIONS>
11  1  6
13  16  5

$$$$
