310931059
  -OEChem-07211613022D

 32 35  0     0  0  0  0  0  0999 V2000
    6.3705   -3.6460    0.0000 S   0  0  0  0  0  0  0  0  0  0  0  0
    6.3705    0.0000    0.0000 F   0  0  0  0  0  0  0  0  0  0  0  0
    5.6493   -1.2420    0.0000 F   0  0  0  0  0  0  0  0  0  0  0  0
    7.0916   -0.4407    0.0000 F   0  0  0  0  0  0  0  0  0  0  0  0
    5.6092   -3.2053    0.0000 O   0  0  0  0  0  0  0  0  0  0  0  0
    7.0516   -4.0867    0.0000 O   0  0  0  0  0  0  0  0  0  0  0  0
    2.1636   -7.8529    0.0000 O   0  0  0  0  0  0  0  0  0  0  0  0
    3.9265   -7.8930    0.0000 O   0  0  0  0  0  0  0  0  0  0  0  0
    6.3705   -2.2838    0.0000 N   0  0  0  0  0  0  0  0  0  0  0  0
    3.9265   -6.4907    0.0000 N   0  0  0  0  0  0  0  0  0  0  0  0
    0.0000   -7.6125    0.0000 N   0  0  0  0  0  0  0  0  0  0  0  0
    6.7711   -2.9648    0.0000 C   0  0  0  0  0  0  0  0  0  0  0  0
    5.9698   -4.3672    0.0000 C   0  0  0  0  0  0  0  0  0  0  0  0
    6.7711   -1.5225    0.0000 C   0  0  0  0  0  0  0  0  0  0  0  0
    6.3705   -0.8414    0.0000 C   0  0  0  0  0  0  0  0  0  0  0  0
    7.6125   -2.9648    0.0000 C   0  0  0  0  0  0  0  0  0  0  0  0
    2.6844   -7.2119    0.0000 C   0  0  0  0  0  0  0  0  0  0  0  0
    1.4023   -7.6125    0.0000 C   0  0  0  0  0  0  0  0  0  0  0  0
    1.4023   -6.7711    0.0000 C   0  0  0  0  0  0  0  0  0  0  0  0
    5.1284   -4.3672    0.0000 C   0  0  0  0  0  0  0  0  0  0  0  0
    6.3705   -5.0884    0.0000 C   0  0  0  0  0  0  0  0  0  0  0  0
    7.6125   -1.5626    0.0000 C   0  0  0  0  0  0  0  0  0  0  0  0
    2.1636   -6.5307    0.0000 C   0  0  0  0  0  0  0  0  0  0  0  0
    5.1284   -5.7695    0.0000 C   0  0  0  0  0  0  0  0  0  0  0  0
    8.0131   -2.2437    0.0000 C   0  0  0  0  0  0  0  0  0  0  0  0
    3.4857   -7.2119    0.0000 C   0  0  0  0  0  0  0  0  0  0  0  0
    4.7278   -5.0483    0.0000 C   0  0  0  0  0  0  0  0  0  0  0  0
    5.9698   -5.7695    0.0000 C   0  0  0  0  0  0  0  0  0  0  0  0
    0.6811   -8.0131    0.0000 C   0  0  0  0  0  0  0  0  0  0  0  0
    0.6811   -6.3705    0.0000 C   0  0  0  0  0  0  0  0  0  0  0  0
    4.7278   -6.4907    0.0000 C   0  0  0  0  0  0  0  0  0  0  0  0
    0.0000   -6.7711    0.0000 C   0  0  0  0  0  0  0  0  0  0  0  0
  1  5  2  0  0  0  0
  1  6  2  0  0  0  0
  1 12  1  0  0  0  0
  1 13  1  0  0  0  0
  2 15  1  0  0  0  0
  3 15  1  0  0  0  0
  4 15  1  0  0  0  0
  7 17  1  0  0  0  0
  7 18  1  0  0  0  0
  8 26  2  0  0  0  0
  9 12  1  0  0  0  0
  9 14  2  0  0  0  0
 10 26  1  0  0  0  0
 10 31  1  0  0  0  0
 11 29  1  0  0  0  0
 11 32  2  0  0  0  0
 12 16  2  0  0  0  0
 13 20  2  0  0  0  0
 13 21  1  0  0  0  0
 14 15  1  0  0  0  0
 14 22  1  0  0  0  0
 16 25  1  0  0  0  0
 17 23  2  0  0  0  0
 17 26  1  0  0  0  0
 18 19  1  0  0  0  0
 18 29  2  0  0  0  0
 19 23  1  0  0  0  0
 19 30  2  0  0  0  0
 20 27  1  0  0  0  0
 21 28  2  0  0  0  0
 22 25  2  0  0  0  0
 24 27  2  0  0  0  0
 24 28  1  0  0  0  0
 24 31  1  0  0  0  0
 30 32  1  0  0  0  0
M  END
> <PUBCHEM_COMPOUND_ID_TYPE>
0

> <PUBCHEM_TOTAL_CHARGE>
0

> <PUBCHEM_SUBSTANCE_ID>
310931059

> <PUBCHEM_SUBSTANCE_VERSION>
1

> <PUBCHEM_EXT_DATASOURCE_NAME>
4488

> <PUBCHEM_EXT_DATASOURCE_REGID>
SCHEMBL16108361

> <PUBCHEM_SUBSTANCE_COMMENT>
InChI=1S/C21H14F3N3O4S/c22-21(23,24)18-2-1-3-19(27-18)32(29,30)15-6-4-13(5-7-15)11-26-20(28)16-10-14-8-9-25-12-17(14)31-16/h1-10,12H,11H2,(H,26,28)
InChIKey=HUXCCKAIPJELHA-UHFFFAOYSA-N

> <PUBCHEM_SUBSTANCE_SYNONYM>
SCHEMBL16108361

> <PUBCHEM_XREF_EXT_ID>
SCHEMBL16108361

> <PUBCHEM_EXT_DATASOURCE_URL>
https://www.surechembl.org/

> <PUBCHEM_EXT_SUBSTANCE_URL>
https://www.surechembl.org/chemical/SCHEMBL16108361

> <PUBCHEM_CID_ASSOCIATIONS>
117599966  1

> <PUBCHEM_COORDINATE_TYPE>
1
3

$$$$
