310943504
  -OEChem-07211613022D

 34 38  0     0  0  0  0  0  0999 V2000
    4.5961    1.5349    0.0000 F   0  0  0  0  0  0  0  0  0  0  0  0
    5.3466    0.2388    0.0000 F   0  0  0  0  0  0  0  0  0  0  0  0
   -5.3466    1.4667    0.0000 O   0  0  0  0  0  0  0  0  0  0  0  0
    1.7310    1.4667    0.0000 O   0  0  0  0  0  0  0  0  0  0  0  0
   -2.5155   -1.0062    0.0000 N   0  0  0  0  0  0  0  0  0  0  0  0
   -3.9310    0.6481    0.0000 N   0  0  0  0  0  0  0  0  0  0  0  0
   -3.8287   -1.1427    0.0000 N   0  0  0  0  0  0  0  0  0  0  0  0
    1.0147    0.2388    0.0000 N   0  0  0  0  0  0  0  0  0  0  0  0
    3.8458   -0.5799    0.0000 N   0  0  0  0  0  0  0  0  0  0  0  0
   -3.2318   -0.5969    0.0000 C   0  0  0  0  0  0  0  0  0  0  0  0
   -3.2148    0.2388    0.0000 C   0  0  0  0  0  0  0  0  0  0  0  0
   -1.7992    0.2388    0.0000 C   0  0  0  0  0  0  0  0  0  0  0  0
   -1.1171    0.6481    0.0000 C   0  0  0  0  0  0  0  0  0  0  0  0
   -2.5325    0.6481    0.0000 C   0  0  0  0  0  0  0  0  0  0  0  0
   -1.8162   -0.5969    0.0000 C   0  0  0  0  0  0  0  0  0  0  0  0
   -1.1000    1.4837    0.0000 C   0  0  0  0  0  0  0  0  0  0  0  0
   -2.6861   -1.8248    0.0000 C   0  0  0  0  0  0  0  0  0  0  0  0
   -0.4008    0.2558    0.0000 C   0  0  0  0  0  0  0  0  0  0  0  0
    0.3155    0.6481    0.0000 C   0  0  0  0  0  0  0  0  0  0  0  0
   -3.4876   -1.9101    0.0000 C   0  0  0  0  0  0  0  0  0  0  0  0
   -3.9140    1.4667    0.0000 C   0  0  0  0  0  0  0  0  0  0  0  0
   -4.6473    0.2388    0.0000 C   0  0  0  0  0  0  0  0  0  0  0  0
   -0.4008    1.8760    0.0000 C   0  0  0  0  0  0  0  0  0  0  0  0
    0.3155    1.4667    0.0000 C   0  0  0  0  0  0  0  0  0  0  0  0
    1.7140    0.6310    0.0000 C   0  0  0  0  0  0  0  0  0  0  0  0
    2.4473    0.2388    0.0000 C   0  0  0  0  0  0  0  0  0  0  0  0
   -1.7992    1.9101    0.0000 C   0  0  0  0  0  0  0  0  0  0  0  0
   -4.6303    1.8930    0.0000 C   0  0  0  0  0  0  0  0  0  0  0  0
   -5.3466    0.6651    0.0000 C   0  0  0  0  0  0  0  0  0  0  0  0
    3.1295    0.6481    0.0000 C   0  0  0  0  0  0  0  0  0  0  0  0
    3.8628    0.2388    0.0000 C   0  0  0  0  0  0  0  0  0  0  0  0
    2.4473   -0.5969    0.0000 C   0  0  0  0  0  0  0  0  0  0  0  0
    4.5961    0.6822    0.0000 C   0  0  0  0  0  0  0  0  0  0  0  0
    3.1977   -1.0233    0.0000 C   0  0  0  0  0  0  0  0  0  0  0  0
  1 33  1  0  0  0  0
  2 33  1  0  0  0  0
  3 28  1  0  0  0  0
  3 29  1  0  0  0  0
  4 25  2  0  0  0  0
  5 10  1  0  0  0  0
  5 15  1  0  0  0  0
  5 17  1  0  0  0  0
  6 11  1  0  0  0  0
  6 21  1  0  0  0  0
  6 22  1  0  0  0  0
  7 10  2  0  0  0  0
  7 20  1  0  0  0  0
  8 19  1  0  0  0  0
  8 25  1  0  0  0  0
  9 31  2  0  0  0  0
  9 34  1  0  0  0  0
 10 11  1  0  0  0  0
 11 14  2  0  0  0  0
 12 13  1  0  0  0  0
 12 14  1  0  0  0  0
 12 15  2  0  0  0  0
 13 16  2  0  0  0  0
 13 18  1  0  0  0  0
 16 23  1  0  0  0  0
 16 27  1  0  0  0  0
 17 20  2  0  0  0  0
 18 19  2  0  0  0  0
 19 24  1  0  0  0  0
 21 28  1  0  0  0  0
 22 29  1  0  0  0  0
 23 24  2  0  0  0  0
 25 26  1  0  0  0  0
 26 30  2  0  0  0  0
 26 32  1  0  0  0  0
 30 31  1  0  0  0  0
 31 33  1  0  0  0  0
 32 34  2  0  0  0  0
M  END
> <PUBCHEM_COMPOUND_ID_TYPE>
0

> <PUBCHEM_TOTAL_CHARGE>
0

> <PUBCHEM_SUBSTANCE_ID>
310943504

> <PUBCHEM_SUBSTANCE_VERSION>
1

> <PUBCHEM_EXT_DATASOURCE_NAME>
4488

> <PUBCHEM_EXT_DATASOURCE_REGID>
SCHEMBL16121570

> <PUBCHEM_SUBSTANCE_COMMENT>
InChI=1S/C25H23F2N5O2/c1-16-2-3-19(30-25(33)17-4-5-28-21(12-17)23(26)27)14-20(16)18-13-22(31-8-10-34-11-9-31)24-29-6-7-32(24)15-18/h2-7,12-15,23H,8-11H2,1H3,(H,30,33)
InChIKey=OGXWUFWZKYNULL-UHFFFAOYSA-N

> <PUBCHEM_SUBSTANCE_SYNONYM>
SCHEMBL16121570

> <PUBCHEM_XREF_EXT_ID>
SCHEMBL16121570

> <PUBCHEM_EXT_DATASOURCE_URL>
https://www.surechembl.org/

> <PUBCHEM_EXT_SUBSTANCE_URL>
https://www.surechembl.org/chemical/SCHEMBL16121570

> <PUBCHEM_CID_ASSOCIATIONS>
117609923  1

> <PUBCHEM_COORDINATE_TYPE>
1
3

$$$$
