310929334
  -OEChem-07211613022D

 24 25  0     0  0  0  0  0  0999 V2000
    6.3667   -9.4321    0.0000 Cl  0  0  0  0  0  0  0  0  0  0  0  0
    6.3667   -6.1781    0.0000 O   0  0  0  0  0  0  0  0  0  0  0  0
    0.0000    0.0000    0.0000 O   0  0  0  0  0  0  0  0  0  0  0  0
    4.9519   -6.9797    0.0000 N   0  0  0  0  0  0  0  0  0  0  0  0
    5.6592   -7.4042    0.0000 C   0  0  0  0  0  0  0  0  0  0  0  0
    5.6592   -8.2059    0.0000 C   0  0  0  0  0  0  0  0  0  0  0  0
    6.3667   -6.9797    0.0000 C   0  0  0  0  0  0  0  0  0  0  0  0
    6.3667   -8.6304    0.0000 C   0  0  0  0  0  0  0  0  0  0  0  0
    4.2445   -7.4042    0.0000 C   0  0  0  0  0  0  0  0  0  0  0  0
    4.9519   -8.6304    0.0000 C   0  0  0  0  0  0  0  0  0  0  0  0
    7.0741   -7.4042    0.0000 C   0  0  0  0  0  0  0  0  0  0  0  0
    7.0741   -8.2059    0.0000 C   0  0  0  0  0  0  0  0  0  0  0  0
    4.2445   -8.2059    0.0000 C   0  0  0  0  0  0  0  0  0  0  0  0
    3.5370   -6.9797    0.0000 C   0  0  0  0  0  0  0  0  0  0  0  0
    3.5370   -6.1781    0.0000 C   0  0  0  0  0  0  0  0  0  0  0  0
    2.8296   -5.7536    0.0000 C   0  0  0  0  0  0  0  0  0  0  0  0
    2.8296   -4.9519    0.0000 C   0  0  0  0  0  0  0  0  0  0  0  0
    2.1222   -4.5274    0.0000 C   0  0  0  0  0  0  0  0  0  0  0  0
    2.1222   -3.6785    0.0000 C   0  0  0  0  0  0  0  0  0  0  0  0
    1.4148   -3.3012    0.0000 C   0  0  0  0  0  0  0  0  0  0  0  0
    1.4148   -2.4523    0.0000 C   0  0  0  0  0  0  0  0  0  0  0  0
    0.7074   -2.0751    0.0000 C   0  0  0  0  0  0  0  0  0  0  0  0
    0.7074   -1.2262    0.0000 C   0  0  0  0  0  0  0  0  0  0  0  0
    0.0000   -0.8489    0.0000 C   0  0  0  0  0  0  0  0  0  0  0  0
  1  8  1  0  0  0  0
  2  7  1  0  0  0  0
  3 24  1  0  0  0  0
  4  5  2  0  0  0  0
  4  9  1  0  0  0  0
  5  6  1  0  0  0  0
  5  7  1  0  0  0  0
  6  8  1  0  0  0  0
  6 10  2  0  0  0  0
  7 11  2  0  0  0  0
  8 12  2  0  0  0  0
  9 13  2  0  0  0  0
  9 14  1  0  0  0  0
 10 13  1  0  0  0  0
 11 12  1  0  0  0  0
 14 15  1  0  0  0  0
 15 16  1  0  0  0  0
 16 17  1  0  0  0  0
 17 18  1  0  0  0  0
 18 19  1  0  0  0  0
 19 20  1  0  0  0  0
 20 21  1  0  0  0  0
 21 22  1  0  0  0  0
 22 23  1  0  0  0  0
 23 24  1  0  0  0  0
M  END
> <PUBCHEM_COMPOUND_ID_TYPE>
0

> <PUBCHEM_TOTAL_CHARGE>
0

> <PUBCHEM_SUBSTANCE_ID>
310929334

> <PUBCHEM_SUBSTANCE_VERSION>
1

> <PUBCHEM_EXT_DATASOURCE_NAME>
4488

> <PUBCHEM_EXT_DATASOURCE_REGID>
SCHEMBL16106500

> <PUBCHEM_SUBSTANCE_COMMENT>
InChI=1S/C20H28ClNO2/c21-18-13-14-19(24)20-17(18)12-11-16(22-20)10-8-6-4-2-1-3-5-7-9-15-23/h11-14,23-24H,1-10,15H2
InChIKey=OAHVXRMKYQBQHP-UHFFFAOYSA-N

> <PUBCHEM_SUBSTANCE_SYNONYM>
SCHEMBL16106500

> <PUBCHEM_XREF_EXT_ID>
SCHEMBL16106500

> <PUBCHEM_EXT_DATASOURCE_URL>
https://www.surechembl.org/

> <PUBCHEM_EXT_SUBSTANCE_URL>
https://www.surechembl.org/chemical/SCHEMBL16106500

> <PUBCHEM_CID_ASSOCIATIONS>
85471654  1

> <PUBCHEM_COORDINATE_TYPE>
1
3

$$$$
