310941133
  -OEChem-07211613022D

 44 47  0     1  0  0  0  0  0999 V2000
    5.0906    0.6680    0.0000 O   0  0  0  0  0  0  0  0  0  0  0  0
    3.9516   -1.2867    0.0000 O   0  0  0  0  0  0  0  0  0  0  0  0
    1.8000    0.7804    0.0000 O   0  0  0  0  0  0  0  0  0  0  0  0
    1.0828   -2.9461    0.0000 O   0  0  0  0  0  0  0  0  0  0  0  0
    3.9516   -2.9461    0.0000 O   0  0  0  0  0  0  0  0  0  0  0  0
   -0.3515   -1.2867    0.0000 O   0  0  0  0  0  0  0  0  0  0  0  0
   -2.5031    0.7804    0.0000 O   0  0  0  0  0  0  0  0  0  0  0  0
   -5.3719    0.7804    0.0000 O   0  0  0  0  0  0  0  0  0  0  0  0
    2.5313   -0.4430    0.0000 N   0  0  0  0  0  0  0  0  0  0  0  0
    0.3797   -0.0211    0.0000 N   0  0  0  0  0  0  0  0  0  0  0  0
   -1.7859   -0.4430    0.0000 N   0  0  0  0  0  0  0  0  0  0  0  0
   -3.9375   -0.0211    0.0000 N   0  0  0  0  0  0  0  0  0  0  0  0
    4.6547   -0.0070    0.0000 C   0  0  3  0  0  0  0  0  0  0  0  0
    3.9516   -0.4289    0.0000 C   0  0  0  0  0  0  0  0  0  0  0  0
    4.2891    0.6821    0.0000 C   0  0  0  0  0  0  0  0  0  0  0  0
    3.2343   -0.0211    0.0000 C   0  0  3  0  0  0  0  0  0  0  0  0
    5.3719   -0.4148    0.0000 C   0  0  0  0  0  0  0  0  0  0  0  0
    3.2343    1.3007    0.0000 C   0  0  0  0  0  0  0  0  0  0  0  0
    1.8000   -0.0492    0.0000 C   0  0  0  0  0  0  0  0  0  0  0  0
    1.1110   -0.4289    0.0000 C   0  0  3  0  0  0  0  0  0  0  0  0
    2.5031    1.7226    0.0000 C   0  0  0  0  0  0  0  0  0  0  0  0
    1.8140   -1.6804    0.0000 C   0  0  0  0  0  0  0  0  0  0  0  0
    1.0828   -1.2867    0.0000 C   0  0  0  0  0  0  0  0  0  0  0  0
    1.8000   -2.5102    0.0000 C   0  0  0  0  0  0  0  0  0  0  0  0
   -0.3375   -0.4148    0.0000 C   0  0  0  0  0  0  0  0  0  0  0  0
    2.5172   -1.2867    0.0000 C   0  0  0  0  0  0  0  0  0  0  0  0
    2.5453   -2.9180    0.0000 C   0  0  0  0  0  0  0  0  0  0  0  0
    1.8000    1.3148    0.0000 C   0  0  0  0  0  0  0  0  0  0  0  0
    2.5172    2.5383    0.0000 C   0  0  0  0  0  0  0  0  0  0  0  0
    3.2343   -2.4961    0.0000 C   0  0  0  0  0  0  0  0  0  0  0  0
   -1.0828   -0.0352    0.0000 C   0  0  3  0  0  0  0  0  0  0  0  0
    3.2343   -1.6804    0.0000 C   0  0  0  0  0  0  0  0  0  0  0  0
    1.0969    1.7226    0.0000 C   0  0  0  0  0  0  0  0  0  0  0  0
    1.8000    2.9461    0.0000 C   0  0  0  0  0  0  0  0  0  0  0  0
    1.0969    2.5524    0.0000 C   0  0  0  0  0  0  0  0  0  0  0  0
   -2.5172   -0.0492    0.0000 C   0  0  0  0  0  0  0  0  0  0  0  0
   -1.0547    0.7945    0.0000 C   0  0  0  0  0  0  0  0  0  0  0  0
   -3.1921   -0.4289    0.0000 C   0  0  0  0  0  0  0  0  0  0  0  0
    0.3656   -2.5102    0.0000 C   0  0  0  0  0  0  0  0  0  0  0  0
    4.6828   -2.4961    0.0000 C   0  0  0  0  0  0  0  0  0  0  0  0
   -4.6265   -0.4289    0.0000 C   0  0  0  0  0  0  0  0  0  0  0  0
   -3.9375    0.8086    0.0000 C   0  0  0  0  0  0  0  0  0  0  0  0
   -5.3719   -0.0211    0.0000 C   0  0  0  0  0  0  0  0  0  0  0  0
   -4.6547    1.2164    0.0000 C   0  0  0  0  0  0  0  0  0  0  0  0
  1 13  1  0  0  0  0
  1 15  1  0  0  0  0
  2 14  2  0  0  0  0
  3 19  2  0  0  0  0
  4 24  1  0  0  0  0
  4 39  1  0  0  0  0
  5 30  1  0  0  0  0
  5 40  1  0  0  0  0
  6 25  2  0  0  0  0
  7 36  2  0  0  0  0
  8 43  1  0  0  0  0
  8 44  1  0  0  0  0
 16  9  1  1  0  0  0
  9 19  1  0  0  0  0
 20 10  1  6  0  0  0
 10 25  1  0  0  0  0
 11 31  1  0  0  0  0
 11 36  1  0  0  0  0
 12 38  1  0  0  0  0
 12 41  1  0  0  0  0
 12 42  1  0  0  0  0
 13 14  1  1  0  0  0
 13 15  1  0  0  0  0
 13 17  1  6  0  0  0
 14 16  1  0  0  0  0
 16 18  1  0  0  0  0
 18 21  1  0  0  0  0
 19 20  1  0  0  0  0
 20 23  1  0  0  0  0
 21 28  2  0  0  0  0
 21 29  1  0  0  0  0
 22 23  1  0  0  0  0
 22 24  1  0  0  0  0
 22 26  2  0  0  0  0
 24 27  2  0  0  0  0
 25 31  1  0  0  0  0
 26 32  1  0  0  0  0
 27 30  1  0  0  0  0
 28 33  1  0  0  0  0
 29 34  2  0  0  0  0
 30 32  2  0  0  0  0
 31 37  1  1  0  0  0
 33 35  2  0  0  0  0
 34 35  1  0  0  0  0
 36 38  1  0  0  0  0
 41 43  1  0  0  0  0
 42 44  1  0  0  0  0
M  END
> <PUBCHEM_COMPOUND_ID_TYPE>
0

> <PUBCHEM_TOTAL_CHARGE>
0

> <PUBCHEM_SUBSTANCE_ID>
310941133

> <PUBCHEM_SUBSTANCE_VERSION>
1

> <PUBCHEM_EXT_DATASOURCE_NAME>
4488

> <PUBCHEM_EXT_DATASOURCE_REGID>
SCHEMBL16119093

> <PUBCHEM_SUBSTANCE_COMMENT>
InChI=1S/C32H42N4O8/c1-21(33-28(37)19-36-12-14-43-15-13-36)30(39)35-26(17-23-10-11-24(41-3)18-27(23)42-4)31(40)34-25(29(38)32(2)20-44-32)16-22-8-6-5-7-9-22/h5-11,18,21,25-26H,12-17,19-20H2,1-4H3,(H,33,37)(H,34,40)(H,35,39)/t21-,25-,26-,32+/m0/s1
InChIKey=ILHDQBNUJBQIMZ-ZRZOWIJMSA-N

> <PUBCHEM_SUBSTANCE_SYNONYM>
SCHEMBL16119093

> <PUBCHEM_XREF_EXT_ID>
SCHEMBL16119093

> <PUBCHEM_EXT_DATASOURCE_URL>
https://www.surechembl.org/

> <PUBCHEM_EXT_SUBSTANCE_URL>
https://www.surechembl.org/chemical/SCHEMBL16119093

> <PUBCHEM_CID_ASSOCIATIONS>
117608016  1

> <PUBCHEM_COORDINATE_TYPE>
1
3

> <PUBCHEM_BONDANNOTATIONS>
20  10  6
13  14  5
13  17  6
31  37  5
16  9  5

$$$$
