310949553
  -OEChem-07211613022D

 41 45  0     1  0  0  0  0  0999 V2000
   -1.4885    2.4974    0.0000 O   0  0  0  0  0  0  0  0  0  0  0  0
    4.5027    0.0809    0.0000 O   0  0  0  0  0  0  0  0  0  0  0  0
    5.8356    0.4920    0.0000 O   0  0  0  0  0  0  0  0  0  0  0  0
    1.4760    0.1681    0.0000 N   0  0  0  0  0  0  0  0  0  0  0  0
    1.9619    0.8408    0.0000 N   0  0  0  0  0  0  0  0  0  0  0  0
   -2.1860    1.2643    0.0000 N   0  0  0  0  0  0  0  0  0  0  0  0
    0.6789    0.4422    0.0000 C   0  0  0  0  0  0  0  0  0  0  0  0
    0.6789    1.2643    0.0000 C   0  0  0  0  0  0  0  0  0  0  0  0
    1.4635    1.5134    0.0000 C   0  0  0  0  0  0  0  0  0  0  0  0
   -0.0436    1.6628    0.0000 C   0  0  0  0  0  0  0  0  0  0  0  0
   -0.7536    1.2643    0.0000 C   0  0  0  0  0  0  0  0  0  0  0  0
   -0.0311    0.0187    0.0000 C   0  0  0  0  0  0  0  0  0  0  0  0
    1.6877   -0.6289    0.0000 C   0  0  0  0  0  0  0  0  0  0  0  0
   -0.7412    0.4297    0.0000 C   0  0  0  0  0  0  0  0  0  0  0  0
   -1.4760    1.6628    0.0000 C   0  0  0  0  0  0  0  0  0  0  0  0
    2.4850   -0.8408    0.0000 C   0  0  0  0  0  0  0  0  0  0  0  0
    4.0917   -1.2643    0.0000 C   0  0  0  0  0  0  0  0  0  0  0  0
    4.9013   -1.4885    0.0000 C   0  0  0  0  0  0  0  0  0  0  0  0
    1.8746    2.2234    0.0000 C   0  0  0  0  0  0  0  0  0  0  0  0
    2.7092   -1.6379    0.0000 C   0  0  0  0  0  0  0  0  0  0  0  0
    3.0703   -0.2678    0.0000 C   0  0  0  0  0  0  0  0  0  0  0  0
    5.4743   -0.8906    0.0000 C   0  0  0  0  0  0  0  0  0  0  0  0
   -2.9208    1.6753    0.0000 C   0  0  3  0  0  0  0  0  0  0  0  0
    3.5063   -1.8621    0.0000 C   0  0  0  0  0  0  0  0  0  0  0  0
    3.8800   -0.4795    0.0000 C   0  0  0  0  0  0  0  0  0  0  0  0
   -3.6309    1.2643    0.0000 C   0  0  0  0  0  0  0  0  0  0  0  0
   -5.0758    1.2643    0.0000 C   0  0  0  0  0  0  0  0  0  0  0  0
   -4.3532    1.6628    0.0000 C   0  0  0  0  0  0  0  0  0  0  0  0
    5.1131   -2.2857    0.0000 C   0  0  0  0  0  0  0  0  0  0  0  0
   -5.7856    1.6753    0.0000 C   0  0  0  0  0  0  0  0  0  0  0  0
    5.2625   -0.1058    0.0000 C   0  0  0  0  0  0  0  0  0  0  0  0
    6.2840   -1.1273    0.0000 C   0  0  0  0  0  0  0  0  0  0  0  0
   -3.6309    0.4297    0.0000 C   0  0  0  0  0  0  0  0  0  0  0  0
   -5.0633    0.4297    0.0000 C   0  0  0  0  0  0  0  0  0  0  0  0
    5.9228   -2.4974    0.0000 C   0  0  0  0  0  0  0  0  0  0  0  0
   -4.3408    0.0187    0.0000 C   0  0  0  0  0  0  0  0  0  0  0  0
    6.4957   -1.9243    0.0000 C   0  0  0  0  0  0  0  0  0  0  0  0
   -2.9084    2.4974    0.0000 C   0  0  0  0  0  0  0  0  0  0  0  0
   -6.4957    1.2518    0.0000 C   0  0  0  0  0  0  0  0  0  0  0  0
   -5.7981    2.4974    0.0000 C   0  0  0  0  0  0  0  0  0  0  0  0
   -5.0758    2.0864    0.0000 C   0  0  0  0  0  0  0  0  0  0  0  0
  1 15  2  0  0  0  0
  2 31  2  0  0  0  0
  3 31  1  0  0  0  0
  4  5  1  0  0  0  0
  4  7  1  0  0  0  0
  4 13  1  0  0  0  0
  5  9  2  0  0  0  0
  6 15  1  0  0  0  0
  6 23  1  0  0  0  0
  7  8  1  0  0  0  0
  7 12  2  0  0  0  0
  8  9  1  0  0  0  0
  8 10  2  0  0  0  0
  9 19  1  0  0  0  0
 10 11  1  0  0  0  0
 11 14  2  0  0  0  0
 11 15  1  0  0  0  0
 12 14  1  0  0  0  0
 13 16  1  0  0  0  0
 16 20  2  0  0  0  0
 16 21  1  0  0  0  0
 17 18  1  0  0  0  0
 17 24  2  0  0  0  0
 17 25  1  0  0  0  0
 18 22  1  0  0  0  0
 18 29  2  0  0  0  0
 20 24  1  0  0  0  0
 21 25  2  0  0  0  0
 22 31  1  0  0  0  0
 22 32  2  0  0  0  0
 23 26  1  0  0  0  0
 23 38  1  6  0  0  0
 26 28  2  0  0  0  0
 26 33  1  0  0  0  0
 27 28  1  0  0  0  0
 27 30  1  0  0  0  0
 27 34  2  0  0  0  0
 29 35  1  0  0  0  0
 30 39  1  0  0  0  0
 30 40  1  0  0  0  0
 30 41  1  0  0  0  0
 32 37  1  0  0  0  0
 33 36  2  0  0  0  0
 34 36  1  0  0  0  0
 35 37  2  0  0  0  0
M  END
> <PUBCHEM_COMPOUND_ID_TYPE>
0

> <PUBCHEM_TOTAL_CHARGE>
0

> <PUBCHEM_SUBSTANCE_ID>
310949553

> <PUBCHEM_SUBSTANCE_VERSION>
1

> <PUBCHEM_EXT_DATASOURCE_NAME>
4488

> <PUBCHEM_EXT_DATASOURCE_REGID>
SCHEMBL16127748

> <PUBCHEM_SUBSTANCE_COMMENT>
InChI=1S/C35H35N3O3/c1-22(26-9-8-10-28(19-26)35(3,4)5)36-33(39)27-17-18-32-31(20-27)23(2)37-38(32)21-24-13-15-25(16-14-24)29-11-6-7-12-30(29)34(40)41/h6-20,22H,21H2,1-5H3,(H,36,39)(H,40,41)/t22-/m0/s1
InChIKey=PNNQRIMQQRUEAI-QFIPXVFZSA-N

> <PUBCHEM_SUBSTANCE_SYNONYM>
SCHEMBL16127748

> <PUBCHEM_XREF_EXT_ID>
SCHEMBL16127748

> <PUBCHEM_EXT_DATASOURCE_URL>
https://www.surechembl.org/

> <PUBCHEM_EXT_SUBSTANCE_URL>
https://www.surechembl.org/chemical/SCHEMBL16127748

> <PUBCHEM_CID_ASSOCIATIONS>
71577898  1

> <PUBCHEM_COORDINATE_TYPE>
1
3

> <PUBCHEM_BONDANNOTATIONS>
23  38  6

$$$$
