310938065
  -OEChem-07211613022D

 26 29  0     0  0  0  0  0  0999 V2000
    0.0000   -4.8840    0.0000 Cl  0  0  0  0  0  0  0  0  0  0  0  0
    1.3990   -0.8590    0.0000 F   0  0  0  0  0  0  0  0  0  0  0  0
    2.1352   -2.0862    0.0000 F   0  0  0  0  0  0  0  0  0  0  0  0
    2.1107   -0.4418    0.0000 F   0  0  0  0  0  0  0  0  0  0  0  0
    4.1969    0.0000    0.0000 O   0  0  0  0  0  0  0  0  0  0  0  0
    3.5341   -1.2271    0.0000 N   0  0  0  0  0  0  0  0  0  0  0  0
    4.2214   -3.2642    0.0000 N   0  0  0  0  0  0  0  0  0  0  0  0
    5.7185   -2.3316    0.0000 N   0  0  0  0  0  0  0  0  0  0  0  0
    6.1848   -1.6444    0.0000 N   0  0  0  0  0  0  0  0  0  0  0  0
    2.1107   -4.4668    0.0000 N   0  0  0  0  0  0  0  0  0  0  0  0
    3.5341   -2.0616    0.0000 C   0  0  0  0  0  0  0  0  0  0  0  0
    4.2214   -2.4788    0.0000 C   0  0  0  0  0  0  0  0  0  0  0  0
    4.9331   -2.0616    0.0000 C   0  0  0  0  0  0  0  0  0  0  0  0
    4.9331   -1.2271    0.0000 C   0  0  0  0  0  0  0  0  0  0  0  0
    4.2214   -0.8099    0.0000 C   0  0  0  0  0  0  0  0  0  0  0  0
    2.7979   -2.4788    0.0000 C   0  0  0  0  0  0  0  0  0  0  0  0
    2.7979   -3.2642    0.0000 C   0  0  0  0  0  0  0  0  0  0  0  0
    2.8224   -0.8344    0.0000 C   0  0  0  0  0  0  0  0  0  0  0  0
    5.7185   -0.9817    0.0000 C   0  0  0  0  0  0  0  0  0  0  0  0
    3.5341   -3.6814    0.0000 C   0  0  0  0  0  0  0  0  0  0  0  0
    2.1107   -1.2517    0.0000 C   0  0  0  0  0  0  0  0  0  0  0  0
    2.0862   -3.6814    0.0000 C   0  0  0  0  0  0  0  0  0  0  0  0
    1.3990   -3.2396    0.0000 C   0  0  0  0  0  0  0  0  0  0  0  0
    1.3990   -4.9086    0.0000 C   0  0  0  0  0  0  0  0  0  0  0  0
    0.6872   -3.6814    0.0000 C   0  0  0  0  0  0  0  0  0  0  0  0
    0.7117   -4.4914    0.0000 C   0  0  0  0  0  0  0  0  0  0  0  0
  1 26  1  0  0  0  0
  2 21  1  0  0  0  0
  3 21  1  0  0  0  0
  4 21  1  0  0  0  0
  5 15  2  0  0  0  0
  6 11  1  0  0  0  0
  6 15  1  0  0  0  0
  6 18  1  0  0  0  0
  7 12  2  0  0  0  0
  7 20  1  0  0  0  0
  8  9  1  0  0  0  0
  8 13  1  0  0  0  0
  9 19  2  0  0  0  0
 10 22  1  0  0  0  0
 10 24  2  0  0  0  0
 11 12  1  0  0  0  0
 11 16  2  0  0  0  0
 12 13  1  0  0  0  0
 13 14  2  0  0  0  0
 14 15  1  0  0  0  0
 14 19  1  0  0  0  0
 16 17  1  0  0  0  0
 17 20  2  0  0  0  0
 17 22  1  0  0  0  0
 18 21  1  0  0  0  0
 22 23  2  0  0  0  0
 23 25  1  0  0  0  0
 24 26  1  0  0  0  0
 25 26  2  0  0  0  0
M  END
> <PUBCHEM_COMPOUND_ID_TYPE>
0

> <PUBCHEM_TOTAL_CHARGE>
0

> <PUBCHEM_SUBSTANCE_ID>
310938065

> <PUBCHEM_SUBSTANCE_VERSION>
1

> <PUBCHEM_EXT_DATASOURCE_NAME>
4488

> <PUBCHEM_EXT_DATASOURCE_REGID>
SCHEMBL16115906

> <PUBCHEM_SUBSTANCE_COMMENT>
InChI=1S/C16H9ClF3N5O/c17-9-1-2-11(21-5-9)8-3-12-14(22-4-8)13-10(6-23-24-13)15(26)25(12)7-16(18,19)20/h1-6H,7H2,(H,23,24)
InChIKey=GJBZNZMTNFDTNQ-UHFFFAOYSA-N

> <PUBCHEM_SUBSTANCE_SYNONYM>
SCHEMBL16115906

> <PUBCHEM_XREF_EXT_ID>
SCHEMBL16115906

> <PUBCHEM_EXT_DATASOURCE_URL>
https://www.surechembl.org/

> <PUBCHEM_EXT_SUBSTANCE_URL>
https://www.surechembl.org/chemical/SCHEMBL16115906

> <PUBCHEM_CID_ASSOCIATIONS>
86298961  1

> <PUBCHEM_COORDINATE_TYPE>
1
3

$$$$
