310949238
  -OEChem-07211613022D

 30 33  0     0  0  0  0  0  0999 V2000
    1.1783    0.0299    0.0000 F   0  0  0  0  0  0  0  0  0  0  0  0
    2.2549   -0.2930    0.0000 F   0  0  0  0  0  0  0  0  0  0  0  0
    1.9319   -1.3817    0.0000 F   0  0  0  0  0  0  0  0  0  0  0  0
   -1.8362   -1.4415    0.0000 F   0  0  0  0  0  0  0  0  0  0  0  0
   -2.3028   -0.4127    0.0000 F   0  0  0  0  0  0  0  0  0  0  0  0
   -1.2621    0.0419    0.0000 F   0  0  0  0  0  0  0  0  0  0  0  0
    0.1256    0.1376    0.0000 N   0  0  0  0  0  0  0  0  0  0  0  0
    0.1137   -0.6639    0.0000 C   0  0  0  0  0  0  0  0  0  0  0  0
    0.1376    1.7166    0.0000 C   0  0  0  0  0  0  0  0  0  0  0  0
    0.8553    0.4964    0.0000 C   0  0  0  0  0  0  0  0  0  0  0  0
   -0.6520    0.4725    0.0000 C   0  0  0  0  0  0  0  0  0  0  0  0
   -0.5802    1.3099    0.0000 C   0  0  0  0  0  0  0  0  0  0  0  0
    0.7955    1.3338    0.0000 C   0  0  0  0  0  0  0  0  0  0  0  0
    0.8553   -1.0706    0.0000 C   0  0  0  0  0  0  0  0  0  0  0  0
   -0.5802   -1.0706    0.0000 C   0  0  0  0  0  0  0  0  0  0  0  0
    1.5492   -0.6759    0.0000 C   0  0  0  0  0  0  0  0  0  0  0  0
   -1.5492   -0.6878    0.0000 C   0  0  0  0  0  0  0  0  0  0  0  0
   -1.3578    0.1256    0.0000 C   0  0  0  0  0  0  0  0  0  0  0  0
    1.6209    0.1734    0.0000 C   0  0  0  0  0  0  0  0  0  0  0  0
   -1.2621    1.7525    0.0000 C   0  0  0  0  0  0  0  0  0  0  0  0
    1.4654    1.8003    0.0000 C   0  0  0  0  0  0  0  0  0  0  0  0
    0.8434   -1.8961    0.0000 C   0  0  0  0  0  0  0  0  0  0  0  0
   -0.5921   -1.9080    0.0000 C   0  0  0  0  0  0  0  0  0  0  0  0
   -0.4606    2.3028    0.0000 C   0  0  0  0  0  0  0  0  0  0  0  0
    0.8553    2.1353    0.0000 C   0  0  0  0  0  0  0  0  0  0  0  0
    0.1256   -2.3028    0.0000 C   0  0  0  0  0  0  0  0  0  0  0  0
   -2.0636    0.5682    0.0000 C   0  0  0  0  0  0  0  0  0  0  0  0
    2.3028    0.6878    0.0000 C   0  0  0  0  0  0  0  0  0  0  0  0
   -2.0037    1.3936    0.0000 C   0  0  0  0  0  0  0  0  0  0  0  0
    2.2071    1.4774    0.0000 C   0  0  0  0  0  0  0  0  0  0  0  0
  1 16  1  0  0  0  0
  2 16  1  0  0  0  0
  3 16  1  0  0  0  0
  4 17  1  0  0  0  0
  5 17  1  0  0  0  0
  6 17  1  0  0  0  0
  7  8  1  0  0  0  0
  7 10  1  0  0  0  0
  7 11  1  0  0  0  0
  8 14  2  0  0  0  0
  8 15  1  0  0  0  0
  9 12  1  0  0  0  0
  9 13  1  0  0  0  0
  9 24  1  0  0  0  0
  9 25  1  0  0  0  0
 10 13  2  0  0  0  0
 10 19  1  0  0  0  0
 11 12  2  0  0  0  0
 11 18  1  0  0  0  0
 12 20  1  0  0  0  0
 13 21  1  0  0  0  0
 14 16  1  0  0  0  0
 14 22  1  0  0  0  0
 15 17  1  0  0  0  0
 15 23  2  0  0  0  0
 18 27  2  0  0  0  0
 19 28  2  0  0  0  0
 20 29  2  0  0  0  0
 21 30  2  0  0  0  0
 22 26  2  0  0  0  0
 23 26  1  0  0  0  0
 27 29  1  0  0  0  0
 28 30  1  0  0  0  0
M  END
> <PUBCHEM_COMPOUND_ID_TYPE>
0

> <PUBCHEM_TOTAL_CHARGE>
0

> <PUBCHEM_SUBSTANCE_ID>
310949238

> <PUBCHEM_SUBSTANCE_VERSION>
1

> <PUBCHEM_EXT_DATASOURCE_NAME>
4488

> <PUBCHEM_EXT_DATASOURCE_REGID>
SCHEMBL16127428

> <PUBCHEM_SUBSTANCE_COMMENT>
InChI=1S/C23H17F6N/c1-21(2)14-8-3-5-12-18(14)30(19-13-6-4-9-15(19)21)20-16(22(24,25)26)10-7-11-17(20)23(27,28)29/h3-13H,1-2H3
InChIKey=RPCNUJDTGATUSA-UHFFFAOYSA-N

> <PUBCHEM_SUBSTANCE_SYNONYM>
SCHEMBL16127428

> <PUBCHEM_XREF_EXT_ID>
SCHEMBL16127428

> <PUBCHEM_EXT_DATASOURCE_URL>
https://www.surechembl.org/

> <PUBCHEM_EXT_SUBSTANCE_URL>
https://www.surechembl.org/chemical/SCHEMBL16127428

> <PUBCHEM_CID_ASSOCIATIONS>
117614726  1

> <PUBCHEM_COORDINATE_TYPE>
1
3

$$$$
