310939976
  -OEChem-07211613022D

 25 27  0     0  0  0  0  0  0999 V2000
   -2.1822    1.5938    0.0000 Cl  0  0  0  0  0  0  0  0  0  0  0  0
   -4.5157   -0.7397    0.0000 Cl  0  0  0  0  0  0  0  0  0  0  0  0
    0.2288    1.6500    0.0000 O   0  0  0  0  0  0  0  0  0  0  0  0
    3.0867   -1.6500    0.0000 O   0  0  0  0  0  0  0  0  0  0  0  0
    0.9433    0.4125    0.0000 N   0  0  0  0  0  0  0  0  0  0  0  0
   -0.4856   -0.4125    0.0000 N   0  0  0  0  0  0  0  0  0  0  0  0
    2.3723   -0.4125    0.0000 N   0  0  0  0  0  0  0  0  0  0  0  0
   -1.7552    0.0000    0.0000 C   0  0  0  0  0  0  0  0  0  0  0  0
   -0.4856    0.4125    0.0000 C   0  0  0  0  0  0  0  0  0  0  0  0
   -2.5521    0.2135    0.0000 C   0  0  0  0  0  0  0  0  0  0  0  0
    0.2288    0.8250    0.0000 C   0  0  0  0  0  0  0  0  0  0  0  0
   -1.2702    0.6674    0.0000 C   0  0  0  0  0  0  0  0  0  0  0  0
   -1.2702   -0.6674    0.0000 C   0  0  0  0  0  0  0  0  0  0  0  0
   -2.7656    1.0104    0.0000 C   0  0  0  0  0  0  0  0  0  0  0  0
   -3.1354   -0.3698    0.0000 C   0  0  0  0  0  0  0  0  0  0  0  0
    0.9433   -0.4125    0.0000 C   0  0  0  0  0  0  0  0  0  0  0  0
    1.6578    0.8250    0.0000 C   0  0  0  0  0  0  0  0  0  0  0  0
   -3.9323   -0.1563    0.0000 C   0  0  0  0  0  0  0  0  0  0  0  0
    1.6578   -0.8250    0.0000 C   0  0  0  0  0  0  0  0  0  0  0  0
    2.3723    0.4125    0.0000 C   0  0  0  0  0  0  0  0  0  0  0  0
   -3.5625    1.2239    0.0000 C   0  0  0  0  0  0  0  0  0  0  0  0
   -4.1458    0.6406    0.0000 C   0  0  0  0  0  0  0  0  0  0  0  0
    3.0867   -0.8250    0.0000 C   0  0  0  0  0  0  0  0  0  0  0  0
    3.8012   -0.4125    0.0000 C   0  0  0  0  0  0  0  0  0  0  0  0
    4.5157   -0.8250    0.0000 C   0  0  0  0  0  0  0  0  0  0  0  0
  1 14  1  0  0  0  0
  2 18  1  0  0  0  0
  3 11  2  0  0  0  0
  4 23  2  0  0  0  0
  5 11  1  0  0  0  0
  5 16  1  0  0  0  0
  5 17  1  0  0  0  0
  6  9  1  0  0  0  0
  6 13  1  0  0  0  0
  7 19  1  0  0  0  0
  7 20  1  0  0  0  0
  7 23  1  0  0  0  0
  8 10  1  0  0  0  0
  8 12  1  0  0  0  0
  8 13  2  0  0  0  0
  9 11  1  0  0  0  0
  9 12  2  0  0  0  0
 10 14  2  0  0  0  0
 10 15  1  0  0  0  0
 14 21  1  0  0  0  0
 15 18  2  0  0  0  0
 16 19  1  0  0  0  0
 17 20  1  0  0  0  0
 18 22  1  0  0  0  0
 21 22  2  0  0  0  0
 23 24  1  0  0  0  0
 24 25  2  0  0  0  0
M  END
> <PUBCHEM_COMPOUND_ID_TYPE>
0

> <PUBCHEM_TOTAL_CHARGE>
0

> <PUBCHEM_SUBSTANCE_ID>
310939976

> <PUBCHEM_SUBSTANCE_VERSION>
1

> <PUBCHEM_EXT_DATASOURCE_NAME>
4488

> <PUBCHEM_EXT_DATASOURCE_REGID>
SCHEMBL16117906

> <PUBCHEM_SUBSTANCE_COMMENT>
InChI=1S/C18H17Cl2N3O2/c1-2-17(24)22-5-7-23(8-6-22)18(25)16-9-12(11-21-16)14-10-13(19)3-4-15(14)20/h2-4,9-11,21H,1,5-8H2
InChIKey=PSKXALGYGOTVPN-UHFFFAOYSA-N

> <PUBCHEM_SUBSTANCE_SYNONYM>
SCHEMBL16117906

> <PUBCHEM_XREF_EXT_ID>
SCHEMBL16117906

> <PUBCHEM_EXT_DATASOURCE_URL>
https://www.surechembl.org/

> <PUBCHEM_EXT_SUBSTANCE_URL>
https://www.surechembl.org/chemical/SCHEMBL16117906

> <PUBCHEM_CID_ASSOCIATIONS>
117607142  1

> <PUBCHEM_COORDINATE_TYPE>
1
3

$$$$
