310943313
  -OEChem-07211613022D

 33 37  0     0  0  0  0  0  0999 V2000
   -2.8803   -0.0663    0.0000 O   0  0  0  0  0  0  0  0  0  0  0  0
   -4.3241    2.4088    0.0000 O   0  0  0  0  0  0  0  0  0  0  0  0
    1.4365   -0.0663    0.0000 O   0  0  0  0  0  0  0  0  0  0  0  0
   -1.4512   -0.0516    0.0000 N   0  0  0  0  0  0  0  0  0  0  0  0
   -2.8803    1.5838    0.0000 N   0  0  0  0  0  0  0  0  0  0  0  0
    2.1583    1.1860    0.0000 N   0  0  0  0  0  0  0  0  0  0  0  0
    4.3241   -0.8766    0.0000 N   0  0  0  0  0  0  0  0  0  0  0  0
   -0.7146    1.1860    0.0000 C   0  0  0  0  0  0  0  0  0  0  0  0
   -2.1583    1.1860    0.0000 C   0  0  0  0  0  0  0  0  0  0  0  0
   -0.0221    1.5838    0.0000 C   0  0  0  0  0  0  0  0  0  0  0  0
   -2.1583    0.3757    0.0000 C   0  0  0  0  0  0  0  0  0  0  0  0
   -1.4512    1.5838    0.0000 C   0  0  0  0  0  0  0  0  0  0  0  0
   -0.7293    0.3609    0.0000 C   0  0  0  0  0  0  0  0  0  0  0  0
    0.0074    2.4236    0.0000 C   0  0  0  0  0  0  0  0  0  0  0  0
    0.7146    1.1860    0.0000 C   0  0  0  0  0  0  0  0  0  0  0  0
    1.4217    1.5985    0.0000 C   0  0  0  0  0  0  0  0  0  0  0  0
    3.6022   -1.2892    0.0000 C   0  0  0  0  0  0  0  0  0  0  0  0
    3.5875   -2.1289    0.0000 C   0  0  0  0  0  0  0  0  0  0  0  0
    2.8803   -0.0516    0.0000 C   0  0  0  0  0  0  0  0  0  0  0  0
    0.7146    2.8066    0.0000 C   0  0  0  0  0  0  0  0  0  0  0  0
    2.1583    0.3757    0.0000 C   0  0  0  0  0  0  0  0  0  0  0  0
    1.4365    2.4088    0.0000 C   0  0  0  0  0  0  0  0  0  0  0  0
    2.8803   -0.8766    0.0000 C   0  0  0  0  0  0  0  0  0  0  0  0
   -2.8950    2.4088    0.0000 C   0  0  0  0  0  0  0  0  0  0  0  0
   -3.6022    1.1860    0.0000 C   0  0  0  0  0  0  0  0  0  0  0  0
    3.2044   -2.8213    0.0000 C   0  0  0  0  0  0  0  0  0  0  0  0
    4.0000   -2.8066    0.0000 C   0  0  0  0  0  0  0  0  0  0  0  0
   -1.4365   -0.8913    0.0000 C   0  0  0  0  0  0  0  0  0  0  0  0
    3.6022    0.3609    0.0000 C   0  0  0  0  0  0  0  0  0  0  0  0
   -0.7293    2.8213    0.0000 C   0  0  0  0  0  0  0  0  0  0  0  0
    4.3094   -0.0516    0.0000 C   0  0  0  0  0  0  0  0  0  0  0  0
   -3.6316    2.8213    0.0000 C   0  0  0  0  0  0  0  0  0  0  0  0
   -4.3241    1.5838    0.0000 C   0  0  0  0  0  0  0  0  0  0  0  0
  1 11  2  0  0  0  0
  2 32  1  0  0  0  0
  2 33  1  0  0  0  0
  3 21  2  0  0  0  0
  4 11  1  0  0  0  0
  4 13  1  0  0  0  0
  4 28  1  0  0  0  0
  5  9  1  0  0  0  0
  5 24  1  0  0  0  0
  5 25  1  0  0  0  0
  6 16  1  0  0  0  0
  6 21  1  0  0  0  0
  7 17  2  0  0  0  0
  7 31  1  0  0  0  0
  8 10  1  0  0  0  0
  8 12  1  0  0  0  0
  8 13  2  0  0  0  0
  9 11  1  0  0  0  0
  9 12  2  0  0  0  0
 10 14  1  0  0  0  0
 10 15  2  0  0  0  0
 14 20  2  0  0  0  0
 14 30  1  0  0  0  0
 15 16  1  0  0  0  0
 16 22  2  0  0  0  0
 17 18  1  0  0  0  0
 17 23  1  0  0  0  0
 18 26  1  0  0  0  0
 18 27  1  0  0  0  0
 19 21  1  0  0  0  0
 19 23  2  0  0  0  0
 19 29  1  0  0  0  0
 20 22  1  0  0  0  0
 24 32  1  0  0  0  0
 25 33  1  0  0  0  0
 26 27  1  0  0  0  0
 29 31  2  0  0  0  0
M  END
> <PUBCHEM_COMPOUND_ID_TYPE>
0

> <PUBCHEM_TOTAL_CHARGE>
0

> <PUBCHEM_SUBSTANCE_ID>
310943313

> <PUBCHEM_SUBSTANCE_VERSION>
1

> <PUBCHEM_EXT_DATASOURCE_NAME>
4488

> <PUBCHEM_EXT_DATASOURCE_REGID>
SCHEMBL16121375

> <PUBCHEM_SUBSTANCE_COMMENT>
InChI=1S/C26H28N4O3/c1-17-3-6-21(28-25(31)19-7-8-27-23(13-19)18-4-5-18)15-22(17)20-14-24(26(32)29(2)16-20)30-9-11-33-12-10-30/h3,6-8,13-16,18H,4-5,9-12H2,1-2H3,(H,28,31)
InChIKey=GWXFGKFOQBVKAH-UHFFFAOYSA-N

> <PUBCHEM_SUBSTANCE_SYNONYM>
SCHEMBL16121375

> <PUBCHEM_XREF_EXT_ID>
SCHEMBL16121375

> <PUBCHEM_EXT_DATASOURCE_URL>
https://www.surechembl.org/

> <PUBCHEM_EXT_SUBSTANCE_URL>
https://www.surechembl.org/chemical/SCHEMBL16121375

> <PUBCHEM_CID_ASSOCIATIONS>
117609738  1

> <PUBCHEM_COORDINATE_TYPE>
1
3

$$$$
