310942414
  -OEChem-07211613022D

 40 41  0     0  0  0  0  0  0999 V2000
    7.2522    0.4342    0.0000 S   0  0  0  0  0  0  0  0  0  0  0  0
    3.5572    1.5364    0.0000 O   0  0  0  0  0  0  0  0  0  0  0  0
   -7.3964   -1.1268    0.0000 O   0  0  0  0  0  0  0  0  0  0  0  0
    1.3903   -0.5553    0.0000 O   0  0  0  0  0  0  0  0  0  0  0  0
   -7.8969   -1.9498    0.0000 O   0  0  0  0  0  0  0  0  0  0  0  0
   -6.5634    0.6972    0.0000 O   0  0  0  0  0  0  0  0  0  0  0  0
   -2.2296    0.6972    0.0000 O   0  0  0  0  0  0  0  0  0  0  0  0
   -4.3964    0.2839    0.0000 O   0  0  0  0  0  0  0  0  0  0  0  0
    7.2648    1.7869    0.0000 N   0  0  0  0  0  0  0  0  0  0  0  0
    4.3088    0.2839    0.0000 N   0  0  0  0  0  0  0  0  0  0  0  0
    9.4317    1.1231    0.0000 N   0  0  0  0  0  0  0  0  0  0  0  0
    0.6764    0.6972    0.0000 N   0  0  0  0  0  0  0  0  0  0  0  0
   -9.4317    0.6972    0.0000 N   0  0  0  0  0  0  0  0  0  0  0  0
    6.4506    0.7098    0.0000 C   0  0  0  0  0  0  0  0  0  0  0  0
    6.4632    1.5364    0.0000 C   0  0  0  0  0  0  0  0  0  0  0  0
    7.7408    1.1356    0.0000 C   0  0  0  0  0  0  0  0  0  0  0  0
    5.7492    0.2839    0.0000 C   0  0  0  0  0  0  0  0  0  0  0  0
    5.0227    0.7098    0.0000 C   0  0  0  0  0  0  0  0  0  0  0  0
    5.7367    1.9498    0.0000 C   0  0  0  0  0  0  0  0  0  0  0  0
    5.0353    1.5364    0.0000 C   0  0  0  0  0  0  0  0  0  0  0  0
    8.5800    1.1106    0.0000 C   0  0  0  0  0  0  0  0  0  0  0  0
    3.5698    0.6847    0.0000 C   0  0  0  0  0  0  0  0  0  0  0  0
    2.8558    0.2839    0.0000 C   0  0  0  0  0  0  0  0  0  0  0  0
    2.1168    0.6972    0.0000 C   0  0  0  0  0  0  0  0  0  0  0  0
    1.4029    0.3089    0.0000 C   0  0  0  0  0  0  0  0  0  0  0  0
   -7.3853   -0.5707    0.0000 C   0  0  0  0  0  0  0  0  0  0  0  0
   -7.8969   -1.4160    0.0000 C   0  0  0  0  0  0  0  0  0  0  0  0
   -6.8848   -0.5484    0.0000 C   0  0  0  0  0  0  0  0  0  0  0  0
   -7.8969   -0.5707    0.0000 C   0  0  0  0  0  0  0  0  0  0  0  0
   -7.3964   -0.0257    0.0000 C   0  0  0  0  0  0  0  0  0  0  0  0
   -0.0376    0.2839    0.0000 C   0  0  0  0  0  0  0  0  0  0  0  0
   -8.7177    0.2839    0.0000 C   0  0  0  0  0  0  0  0  0  0  0  0
   -8.0038    0.6972    0.0000 C   0  0  0  0  0  0  0  0  0  0  0  0
   -0.7766    0.6972    0.0000 C   0  0  0  0  0  0  0  0  0  0  0  0
   -7.2648    0.2839    0.0000 C   0  0  0  0  0  0  0  0  0  0  0  0
   -1.4905    0.2839    0.0000 C   0  0  0  0  0  0  0  0  0  0  0  0
   -5.8244    0.2839    0.0000 C   0  0  0  0  0  0  0  0  0  0  0  0
   -2.9310    0.2839    0.0000 C   0  0  0  0  0  0  0  0  0  0  0  0
   -5.1104    0.6972    0.0000 C   0  0  0  0  0  0  0  0  0  0  0  0
   -3.6700    0.6972    0.0000 C   0  0  0  0  0  0  0  0  0  0  0  0
  1 14  1  0  0  0  0
  1 16  1  0  0  0  0
  2 22  2  0  0  0  0
  3 26  1  0  0  0  0
  3 27  1  0  0  0  0
  4 25  2  0  0  0  0
  5 27  2  0  0  0  0
  6 35  1  0  0  0  0
  6 37  1  0  0  0  0
  7 36  1  0  0  0  0
  7 38  1  0  0  0  0
  8 39  1  0  0  0  0
  8 40  1  0  0  0  0
  9 15  1  0  0  0  0
  9 16  2  0  0  0  0
 10 18  1  0  0  0  0
 10 22  1  0  0  0  0
 11 21  3  0  0  0  0
 12 25  1  0  0  0  0
 12 31  1  0  0  0  0
 13 27  1  0  0  0  0
 13 32  1  0  0  0  0
 14 15  1  0  0  0  0
 14 17  2  0  0  0  0
 15 19  2  0  0  0  0
 16 21  1  0  0  0  0
 17 18  1  0  0  0  0
 18 20  2  0  0  0  0
 19 20  1  0  0  0  0
 22 23  1  0  0  0  0
 23 24  1  0  0  0  0
 24 25  1  0  0  0  0
 26 28  1  0  0  0  0
 26 29  1  0  0  0  0
 26 30  1  0  0  0  0
 31 34  1  0  0  0  0
 32 33  1  0  0  0  0
 33 35  1  0  0  0  0
 34 36  1  0  0  0  0
 37 39  1  0  0  0  0
 38 40  1  0  0  0  0
M  END
> <PUBCHEM_COMPOUND_ID_TYPE>
0

> <PUBCHEM_TOTAL_CHARGE>
0

> <PUBCHEM_SUBSTANCE_ID>
310942414

> <PUBCHEM_SUBSTANCE_VERSION>
1

> <PUBCHEM_EXT_DATASOURCE_NAME>
4488

> <PUBCHEM_EXT_DATASOURCE_REGID>
SCHEMBL16120450

> <PUBCHEM_SUBSTANCE_COMMENT>
InChI=1S/C27H39N5O7S/c1-27(2,3)39-26(35)30-11-5-13-37-15-17-38-16-14-36-12-4-10-29-23(33)8-9-24(34)31-20-6-7-21-22(18-20)40-25(19-28)32-21/h6-7,18H,4-5,8-17H2,1-3H3,(H,29,33)(H,30,35)(H,31,34)
InChIKey=YKMSJIOAPDMSRW-UHFFFAOYSA-N

> <PUBCHEM_SUBSTANCE_SYNONYM>
SCHEMBL16120450

> <PUBCHEM_XREF_EXT_ID>
SCHEMBL16120450

> <PUBCHEM_EXT_DATASOURCE_URL>
https://www.surechembl.org/

> <PUBCHEM_EXT_SUBSTANCE_URL>
https://www.surechembl.org/chemical/SCHEMBL16120450

> <PUBCHEM_CID_ASSOCIATIONS>
86726266  1

> <PUBCHEM_COORDINATE_TYPE>
1
3

$$$$
