310943959
  -OEChem-07211613022D

 13 13  0     0  0  0  0  0  0999 V2000
   -0.7303    2.0218    0.0000 F   0  0  0  0  0  0  0  0  0  0  0  0
    1.4606    1.5485    0.0000 N   0  0  0  0  0  0  0  0  0  0  0  0
   -0.7303   -2.0218    0.0000 N   0  0  0  0  0  0  0  0  0  0  0  0
   -0.0135    0.0203    0.0000 C   0  0  0  0  0  0  0  0  0  0  0  0
   -0.0135    0.8317    0.0000 C   0  0  0  0  0  0  0  0  0  0  0  0
   -0.7168   -0.3854    0.0000 C   0  0  0  0  0  0  0  0  0  0  0  0
   -0.7303    1.2239    0.0000 C   0  0  0  0  0  0  0  0  0  0  0  0
   -1.4606    0.0203    0.0000 C   0  0  0  0  0  0  0  0  0  0  0  0
   -1.4606    0.8182    0.0000 C   0  0  0  0  0  0  0  0  0  0  0  0
    0.7303    1.2103    0.0000 C   0  0  0  0  0  0  0  0  0  0  0  0
    0.7168   -0.3854    0.0000 C   0  0  0  0  0  0  0  0  0  0  0  0
   -0.7303   -1.2103    0.0000 C   0  0  0  0  0  0  0  0  0  0  0  0
    0.7438   -1.2103    0.0000 C   0  0  0  0  0  0  0  0  0  0  0  0
  1  7  1  0  0  0  0
  2 10  3  0  0  0  0
  3 12  3  0  0  0  0
  4  5  1  0  0  0  0
  4  6  2  0  0  0  0
  4 11  1  0  0  0  0
  5  7  2  0  0  0  0
  5 10  1  0  0  0  0
  6  8  1  0  0  0  0
  6 12  1  0  0  0  0
  7  9  1  0  0  0  0
  8  9  2  0  0  0  0
 11 13  1  0  0  0  0
M  END
> <PUBCHEM_COMPOUND_ID_TYPE>
0

> <PUBCHEM_TOTAL_CHARGE>
0

> <PUBCHEM_SUBSTANCE_ID>
310943959

> <PUBCHEM_SUBSTANCE_VERSION>
1

> <PUBCHEM_EXT_DATASOURCE_NAME>
4488

> <PUBCHEM_EXT_DATASOURCE_REGID>
SCHEMBL16122030

> <PUBCHEM_SUBSTANCE_COMMENT>
InChI=1S/C10H7FN2/c1-2-8-7(5-12)3-4-10(11)9(8)6-13/h3-4H,2H2,1H3
InChIKey=RZYJOEJTGYQYSQ-UHFFFAOYSA-N

> <PUBCHEM_SUBSTANCE_SYNONYM>
SCHEMBL16122030

> <PUBCHEM_XREF_EXT_ID>
SCHEMBL16122030

> <PUBCHEM_EXT_DATASOURCE_URL>
https://www.surechembl.org/

> <PUBCHEM_EXT_SUBSTANCE_URL>
https://www.surechembl.org/chemical/SCHEMBL16122030

> <PUBCHEM_CID_ASSOCIATIONS>
117610266  1

> <PUBCHEM_COORDINATE_TYPE>
1
3

$$$$
