310941781
  -OEChem-07211613022D

 21 23  0     0  0  0  0  0  0999 V2000
    0.3642    0.5979    0.0000 N   0  0  0  0  0  0  0  0  0  0  0  0
   -0.3367    0.1993    0.0000 C   0  0  0  0  0  0  0  0  0  0  0  0
   -1.0789    0.6116    0.0000 C   0  0  0  0  0  0  0  0  0  0  0  0
   -0.3504   -0.6390    0.0000 C   0  0  0  0  0  0  0  0  0  0  0  0
    1.7935    1.4361    0.0000 C   0  0  0  0  0  0  0  0  0  0  0  0
    1.1063    0.1993    0.0000 C   0  0  0  0  0  0  0  0  0  0  0  0
    0.3780    1.4361    0.0000 C   0  0  0  0  0  0  0  0  0  0  0  0
    1.7935    0.5979    0.0000 C   0  0  0  0  0  0  0  0  0  0  0  0
    1.0513    1.8347    0.0000 C   0  0  0  0  0  0  0  0  0  0  0  0
   -1.0789    1.4087    0.0000 C   0  0  0  0  0  0  0  0  0  0  0  0
   -1.0651   -1.0513    0.0000 C   0  0  0  0  0  0  0  0  0  0  0  0
   -1.7522    0.1993    0.0000 C   0  0  0  0  0  0  0  0  0  0  0  0
    0.3642   -1.0651    0.0000 C   0  0  0  0  0  0  0  0  0  0  0  0
   -1.7935    1.8209    0.0000 C   0  0  0  0  0  0  0  0  0  0  0  0
   -1.0651   -1.8897    0.0000 C   0  0  0  0  0  0  0  0  0  0  0  0
   -2.4944    0.5979    0.0000 C   0  0  0  0  0  0  0  0  0  0  0  0
    0.3642   -1.8759    0.0000 C   0  0  0  0  0  0  0  0  0  0  0  0
    1.8072    2.2745    0.0000 C   0  0  0  0  0  0  0  0  0  0  0  0
    2.4944    1.8484    0.0000 C   0  0  0  0  0  0  0  0  0  0  0  0
   -2.4944    1.4087    0.0000 C   0  0  0  0  0  0  0  0  0  0  0  0
   -0.3504   -2.2745    0.0000 C   0  0  0  0  0  0  0  0  0  0  0  0
  1  2  1  0  0  0  0
  1  6  1  0  0  0  0
  1  7  1  0  0  0  0
  2  3  1  0  0  0  0
  2  4  1  0  0  0  0
  3 10  2  0  0  0  0
  3 12  1  0  0  0  0
  4 11  2  0  0  0  0
  4 13  1  0  0  0  0
  5  8  1  0  0  0  0
  5  9  1  0  0  0  0
  5 18  1  0  0  0  0
  5 19  1  0  0  0  0
  6  8  1  0  0  0  0
  7  9  1  0  0  0  0
 10 14  1  0  0  0  0
 11 15  1  0  0  0  0
 12 16  2  0  0  0  0
 13 17  2  0  0  0  0
 14 20  2  0  0  0  0
 15 21  2  0  0  0  0
 16 20  1  0  0  0  0
 17 21  1  0  0  0  0
M  END
> <PUBCHEM_COMPOUND_ID_TYPE>
0

> <PUBCHEM_TOTAL_CHARGE>
0

> <PUBCHEM_SUBSTANCE_ID>
310941781

> <PUBCHEM_SUBSTANCE_VERSION>
1

> <PUBCHEM_EXT_DATASOURCE_NAME>
4488

> <PUBCHEM_EXT_DATASOURCE_REGID>
SCHEMBL16119812

> <PUBCHEM_SUBSTANCE_COMMENT>
InChI=1S/C20H25N/c1-20(2)13-15-21(16-14-20)19(17-9-5-3-6-10-17)18-11-7-4-8-12-18/h3-12,19H,13-16H2,1-2H3
InChIKey=MXHRQCVOTDGEHG-UHFFFAOYSA-N

> <PUBCHEM_SUBSTANCE_SYNONYM>
SCHEMBL16119812

> <PUBCHEM_XREF_EXT_ID>
SCHEMBL16119812

> <PUBCHEM_EXT_DATASOURCE_URL>
https://www.surechembl.org/

> <PUBCHEM_EXT_SUBSTANCE_URL>
https://www.surechembl.org/chemical/SCHEMBL16119812

> <PUBCHEM_CID_ASSOCIATIONS>
117608533  1

> <PUBCHEM_COORDINATE_TYPE>
1
3

$$$$
