310946912
  -OEChem-07211613022D

 34 38  0     0  0  0  0  0  0999 V2000
   -2.8600    0.2558    0.0000 O   0  0  0  0  0  0  0  0  0  0  0  0
    2.8033    0.0566    0.0000 O   0  0  0  0  0  0  0  0  0  0  0  0
    0.3983    7.1839    0.0000 O   0  0  0  0  0  0  0  0  0  0  0  0
   -3.8704   -0.7546    0.0000 O   0  0  0  0  0  0  0  0  0  0  0  0
   -0.8392    3.6115    0.0000 N   0  0  0  0  0  0  0  0  0  0  0  0
   -1.3241    2.9441    0.0000 N   0  0  0  0  0  0  0  0  0  0  0  0
    1.3744    2.5316    0.0000 N   0  0  0  0  0  0  0  0  0  0  0  0
    0.6599    1.2941    0.0000 N   0  0  0  0  0  0  0  0  0  0  0  0
   -0.4694    0.8964    0.0000 N   0  0  0  0  0  0  0  0  0  0  0  0
   -0.0546    2.5316    0.0000 C   0  0  0  0  0  0  0  0  0  0  0  0
   -0.8392    2.2767    0.0000 C   0  0  0  0  0  0  0  0  0  0  0  0
   -0.0546    3.3566    0.0000 C   0  0  0  0  0  0  0  0  0  0  0  0
    0.6599    2.1191    0.0000 C   0  0  0  0  0  0  0  0  0  0  0  0
   -1.0527    1.4798    0.0000 C   0  0  0  0  0  0  0  0  0  0  0  0
    0.6599    3.7691    0.0000 C   0  0  0  0  0  0  0  0  0  0  0  0
   -1.2517    4.3260    0.0000 C   0  0  0  0  0  0  0  0  0  0  0  0
    1.3744    3.3566    0.0000 C   0  0  0  0  0  0  0  0  0  0  0  0
   -1.8496    1.2663    0.0000 C   0  0  0  0  0  0  0  0  0  0  0  0
   -0.8392    5.0405    0.0000 C   0  0  0  0  0  0  0  0  0  0  0  0
   -2.0631    0.4694    0.0000 C   0  0  0  0  0  0  0  0  0  0  0  0
    1.3744    0.8816    0.0000 C   0  0  0  0  0  0  0  0  0  0  0  0
   -0.6829    0.0995    0.0000 C   0  0  0  0  0  0  0  0  0  0  0  0
   -1.4798   -0.1140    0.0000 C   0  0  0  0  0  0  0  0  0  0  0  0
   -0.0142    5.0405    0.0000 C   0  0  0  0  0  0  0  0  0  0  0  0
   -1.2517    5.7550    0.0000 C   0  0  0  0  0  0  0  0  0  0  0  0
    1.3744    0.0566    0.0000 C   0  0  0  0  0  0  0  0  0  0  0  0
    2.0888    1.2941    0.0000 C   0  0  0  0  0  0  0  0  0  0  0  0
    0.3983    5.7550    0.0000 C   0  0  0  0  0  0  0  0  0  0  0  0
   -0.8392    6.4694    0.0000 C   0  0  0  0  0  0  0  0  0  0  0  0
   -0.0142    6.4694    0.0000 C   0  0  0  0  0  0  0  0  0  0  0  0
    2.8033    0.8816    0.0000 C   0  0  0  0  0  0  0  0  0  0  0  0
    2.0888   -0.3559    0.0000 C   0  0  0  0  0  0  0  0  0  0  0  0
   -3.0736   -0.5410    0.0000 C   0  0  0  0  0  0  0  0  0  0  0  0
   -0.0142    7.8984    0.0000 C   0  0  0  0  0  0  0  0  0  0  0  0
  1 20  1  0  0  0  0
  1 33  1  0  0  0  0
  2 31  1  0  0  0  0
  2 32  1  0  0  0  0
  3 30  1  0  0  0  0
  3 34  1  0  0  0  0
  4 33  2  0  0  0  0
  5  6  1  0  0  0  0
  5 12  1  0  0  0  0
  5 16  1  0  0  0  0
  6 11  2  0  0  0  0
  7 13  2  0  0  0  0
  7 17  1  0  0  0  0
  8 13  1  0  0  0  0
  8 21  1  0  0  0  0
  9 14  1  0  0  0  0
  9 22  2  0  0  0  0
 10 11  1  0  0  0  0
 10 12  2  0  0  0  0
 10 13  1  0  0  0  0
 11 14  1  0  0  0  0
 12 15  1  0  0  0  0
 14 18  2  0  0  0  0
 15 17  2  0  0  0  0
 16 19  1  0  0  0  0
 18 20  1  0  0  0  0
 19 24  2  0  0  0  0
 19 25  1  0  0  0  0
 20 23  2  0  0  0  0
 21 26  1  0  0  0  0
 21 27  1  0  0  0  0
 22 23  1  0  0  0  0
 24 28  1  0  0  0  0
 25 29  2  0  0  0  0
 26 32  1  0  0  0  0
 27 31  1  0  0  0  0
 28 30  2  0  0  0  0
 29 30  1  0  0  0  0
M  END
> <PUBCHEM_COMPOUND_ID_TYPE>
0

> <PUBCHEM_TOTAL_CHARGE>
0

> <PUBCHEM_SUBSTANCE_ID>
310946912

> <PUBCHEM_SUBSTANCE_VERSION>
1

> <PUBCHEM_EXT_DATASOURCE_NAME>
4488

> <PUBCHEM_EXT_DATASOURCE_REGID>
SCHEMBL16125036

> <PUBCHEM_SUBSTANCE_COMMENT>
InChI=1S/C25H25N5O4/c1-32-19-4-2-17(3-5-19)15-30-22-7-11-27-25(28-18-8-12-33-13-9-18)23(22)24(29-30)21-14-20(34-16-31)6-10-26-21/h2-7,10-11,14,16,18H,8-9,12-13,15H2,1H3,(H,27,28)
InChIKey=XKTPJHWCLDSVOO-UHFFFAOYSA-N

> <PUBCHEM_SUBSTANCE_SYNONYM>
SCHEMBL16125036

> <PUBCHEM_XREF_EXT_ID>
SCHEMBL16125036

> <PUBCHEM_EXT_DATASOURCE_URL>
https://www.surechembl.org/

> <PUBCHEM_EXT_SUBSTANCE_URL>
https://www.surechembl.org/chemical/SCHEMBL16125036

> <PUBCHEM_CID_ASSOCIATIONS>
117612770  1

> <PUBCHEM_COORDINATE_TYPE>
1
3

$$$$
