310947289
  -OEChem-07211613022D

 36 40  0     0  0  0  0  0  0999 V2000
   -2.3433    2.2322    0.0000 O   0  0  0  0  0  0  0  0  0  0  0  0
    3.8547    0.0847    0.0000 O   0  0  0  0  0  0  0  0  0  0  0  0
    5.2836    0.0847    0.0000 O   0  0  0  0  0  0  0  0  0  0  0  0
    0.5847   -0.0852    0.0000 N   0  0  0  0  0  0  0  0  0  0  0  0
    1.0696    0.5822    0.0000 N   0  0  0  0  0  0  0  0  0  0  0  0
   -3.0578    0.9947    0.0000 N   0  0  0  0  0  0  0  0  0  0  0  0
   -0.1999    0.1697    0.0000 C   0  0  0  0  0  0  0  0  0  0  0  0
   -0.1999    0.9947    0.0000 C   0  0  0  0  0  0  0  0  0  0  0  0
    0.5847    1.2497    0.0000 C   0  0  0  0  0  0  0  0  0  0  0  0
   -0.9144    1.4072    0.0000 C   0  0  0  0  0  0  0  0  0  0  0  0
   -1.6289    0.9947    0.0000 C   0  0  0  0  0  0  0  0  0  0  0  0
   -0.9144   -0.2428    0.0000 C   0  0  0  0  0  0  0  0  0  0  0  0
    0.7982   -0.8821    0.0000 C   0  0  0  0  0  0  0  0  0  0  0  0
   -1.6289    0.1697    0.0000 C   0  0  0  0  0  0  0  0  0  0  0  0
    1.5951   -1.0956    0.0000 C   0  0  0  0  0  0  0  0  0  0  0  0
   -2.3433    1.4072    0.0000 C   0  0  0  0  0  0  0  0  0  0  0  0
    3.1889   -1.5227    0.0000 C   0  0  0  0  0  0  0  0  0  0  0  0
    3.9858   -1.7362    0.0000 C   0  0  0  0  0  0  0  0  0  0  0  0
    0.9972    1.9641    0.0000 C   0  0  0  0  0  0  0  0  0  0  0  0
    4.5691   -1.1528    0.0000 C   0  0  0  0  0  0  0  0  0  0  0  0
    1.8086   -1.8925    0.0000 C   0  0  0  0  0  0  0  0  0  0  0  0
    2.1785   -0.5123    0.0000 C   0  0  0  0  0  0  0  0  0  0  0  0
    2.6055   -2.1060    0.0000 C   0  0  0  0  0  0  0  0  0  0  0  0
    2.9754   -0.7258    0.0000 C   0  0  0  0  0  0  0  0  0  0  0  0
    4.1993   -2.5331    0.0000 C   0  0  0  0  0  0  0  0  0  0  0  0
    4.5691   -0.3278    0.0000 C   0  0  0  0  0  0  0  0  0  0  0  0
    5.3660   -1.3664    0.0000 C   0  0  0  0  0  0  0  0  0  0  0  0
   -3.7723    1.4072    0.0000 C   0  0  0  0  0  0  0  0  0  0  0  0
    4.9962   -2.7466    0.0000 C   0  0  0  0  0  0  0  0  0  0  0  0
    5.5796   -2.1632    0.0000 C   0  0  0  0  0  0  0  0  0  0  0  0
   -3.7723    2.2322    0.0000 C   0  0  0  0  0  0  0  0  0  0  0  0
   -4.4173    0.8929    0.0000 C   0  0  0  0  0  0  0  0  0  0  0  0
   -4.4173    2.7466    0.0000 C   0  0  0  0  0  0  0  0  0  0  0  0
   -5.2216    1.0764    0.0000 C   0  0  0  0  0  0  0  0  0  0  0  0
   -5.2216    2.5630    0.0000 C   0  0  0  0  0  0  0  0  0  0  0  0
   -5.5796    1.8197    0.0000 C   0  0  0  0  0  0  0  0  0  0  0  0
  1 16  2  0  0  0  0
  2 26  2  0  0  0  0
  3 26  1  0  0  0  0
  4  5  1  0  0  0  0
  4  7  1  0  0  0  0
  4 13  1  0  0  0  0
  5  9  2  0  0  0  0
  6 16  1  0  0  0  0
  6 28  1  0  0  0  0
  7  8  1  0  0  0  0
  7 12  2  0  0  0  0
  8  9  1  0  0  0  0
  8 10  2  0  0  0  0
  9 19  1  0  0  0  0
 10 11  1  0  0  0  0
 11 14  2  0  0  0  0
 11 16  1  0  0  0  0
 12 14  1  0  0  0  0
 13 15  1  0  0  0  0
 15 21  2  0  0  0  0
 15 22  1  0  0  0  0
 17 18  1  0  0  0  0
 17 23  2  0  0  0  0
 17 24  1  0  0  0  0
 18 20  1  0  0  0  0
 18 25  2  0  0  0  0
 20 26  1  0  0  0  0
 20 27  2  0  0  0  0
 21 23  1  0  0  0  0
 22 24  2  0  0  0  0
 25 29  1  0  0  0  0
 27 30  1  0  0  0  0
 28 31  1  0  0  0  0
 28 32  1  0  0  0  0
 29 30  2  0  0  0  0
 31 33  1  0  0  0  0
 32 34  1  0  0  0  0
 33 35  1  0  0  0  0
 34 36  1  0  0  0  0
 35 36  1  0  0  0  0
M  END
> <PUBCHEM_COMPOUND_ID_TYPE>
0

> <PUBCHEM_TOTAL_CHARGE>
0

> <PUBCHEM_SUBSTANCE_ID>
310947289

> <PUBCHEM_SUBSTANCE_VERSION>
1

> <PUBCHEM_EXT_DATASOURCE_NAME>
4488

> <PUBCHEM_EXT_DATASOURCE_REGID>
SCHEMBL16125444

> <PUBCHEM_SUBSTANCE_COMMENT>
InChI=1S/C30H31N3O3/c1-20-27-18-23(29(34)31-24-8-4-2-3-5-9-24)16-17-28(27)33(32-20)19-21-12-14-22(15-13-21)25-10-6-7-11-26(25)30(35)36/h6-7,10-18,24H,2-5,8-9,19H2,1H3,(H,31,34)(H,35,36)
InChIKey=UEOVYTWJYFZXAA-UHFFFAOYSA-N

> <PUBCHEM_SUBSTANCE_SYNONYM>
SCHEMBL16125444

> <PUBCHEM_XREF_EXT_ID>
SCHEMBL16125444

> <PUBCHEM_EXT_DATASOURCE_URL>
https://www.surechembl.org/

> <PUBCHEM_EXT_SUBSTANCE_URL>
https://www.surechembl.org/chemical/SCHEMBL16125444

> <PUBCHEM_CID_ASSOCIATIONS>
71576897  1

> <PUBCHEM_COORDINATE_TYPE>
1
3

$$$$
