310929243
  -OEChem-07211613022D

 17 17  0     0  0  0  0  0  0999 V2000
    2.4372   -0.7055    0.0000 O   0  0  0  0  0  0  0  0  0  0  0  0
    0.0000   -0.7055    0.0000 O   0  5  0  0  0  0  0  0  0  0  0  0
    1.2399    0.0000    0.0000 O   0  0  0  0  0  0  0  0  0  0  0  0
    0.8124   -0.7055    0.0000 N   0  3  0  0  0  0  0  0  0  0  0  0
    1.2186   -1.4324    0.0000 C   0  0  0  0  0  0  0  0  0  0  0  0
    2.0310   -1.4324    0.0000 C   0  0  0  0  0  0  0  0  0  0  0  0
    1.2186   -2.8434    0.0000 C   0  0  0  0  0  0  0  0  0  0  0  0
    2.4800   -2.1379    0.0000 C   0  0  0  0  0  0  0  0  0  0  0  0
    0.7910   -2.1379    0.0000 C   0  0  0  0  0  0  0  0  0  0  0  0
    0.8124   -3.5703    0.0000 C   0  0  0  0  0  0  0  0  0  0  0  0
    2.0310   -2.8434    0.0000 C   0  0  0  0  0  0  0  0  0  0  0  0
    3.2924   -2.1379    0.0000 C   0  0  0  0  0  0  0  0  0  0  0  0
    0.0855   -3.1427    0.0000 C   0  0  0  0  0  0  0  0  0  0  0  0
    0.4276   -4.2758    0.0000 C   0  0  0  0  0  0  0  0  0  0  0  0
    1.5393   -3.9765    0.0000 C   0  0  0  0  0  0  0  0  0  0  0  0
    2.0096    0.0000    0.0000 C   0  0  0  0  0  0  0  0  0  0  0  0
    3.7199   -1.4110    0.0000 C   0  0  0  0  0  0  0  0  0  0  0  0
  1  6  1  0  0  0  0
  1 16  1  0  0  0  0
  2  4  1  0  0  0  0
  3  4  2  0  0  0  0
  4  5  1  0  0  0  0
  5  6  2  0  0  0  0
  5  9  1  0  0  0  0
  6  8  1  0  0  0  0
  7  9  2  0  0  0  0
  7 10  1  0  0  0  0
  7 11  1  0  0  0  0
  8 11  2  0  0  0  0
  8 12  1  0  0  0  0
 10 13  1  0  0  0  0
 10 14  1  0  0  0  0
 10 15  1  0  0  0  0
 12 17  3  0  0  0  0
M  CHG  2   2  -1   4   1
M  END
> <PUBCHEM_COMPOUND_ID_TYPE>
0

> <PUBCHEM_TOTAL_CHARGE>
0

> <PUBCHEM_SUBSTANCE_ID>
310929243

> <PUBCHEM_SUBSTANCE_VERSION>
1

> <PUBCHEM_EXT_DATASOURCE_NAME>
4488

> <PUBCHEM_EXT_DATASOURCE_REGID>
SCHEMBL16106407

> <PUBCHEM_SUBSTANCE_COMMENT>
InChI=1S/C13H15NO3/c1-6-9-7-10(13(2,3)4)8-11(14(15)16)12(9)17-5/h1,7-8H,2-5H3
InChIKey=KTBXOHRIKZCZMJ-UHFFFAOYSA-N

> <PUBCHEM_SUBSTANCE_SYNONYM>
SCHEMBL16106407

> <PUBCHEM_XREF_EXT_ID>
SCHEMBL16106407

> <PUBCHEM_EXT_DATASOURCE_URL>
https://www.surechembl.org/

> <PUBCHEM_EXT_SUBSTANCE_URL>
https://www.surechembl.org/chemical/SCHEMBL16106407

> <PUBCHEM_CID_ASSOCIATIONS>
117598678  1

> <PUBCHEM_COORDINATE_TYPE>
1
3

$$$$
