310938750
  -OEChem-07211613022D

 20 21  0     0  0  0  0  0  0999 V2000
    2.1831    3.1089    0.0000 S   0  0  0  0  0  0  0  0  0  0  0  0
   -0.2195    0.4485    0.0000 F   0  0  0  0  0  0  0  0  0  0  0  0
   -0.9591   -2.3120    0.0000 O   0  0  0  0  0  0  0  0  0  0  0  0
   -1.2299    1.4589    0.0000 N   0  0  0  0  0  0  0  0  0  0  0  0
   -0.4453    1.2040    0.0000 N   0  0  0  0  0  0  0  0  0  0  0  0
   -2.1831   -0.5047    0.0000 N   0  0  0  0  0  0  0  0  0  0  0  0
    0.7541    2.2839    0.0000 N   0  0  0  0  0  0  0  0  0  0  0  0
   -1.5997    0.0787    0.0000 C   0  0  0  0  0  0  0  0  0  0  0  0
   -0.8028   -0.1349    0.0000 C   0  0  0  0  0  0  0  0  0  0  0  0
   -1.8132    0.8755    0.0000 C   0  0  0  0  0  0  0  0  0  0  0  0
    0.0397    1.8714    0.0000 C   0  0  0  0  0  0  0  0  0  0  0  0
   -1.1727   -1.5151    0.0000 C   0  0  0  0  0  0  0  0  0  0  0  0
   -0.5893   -0.9318    0.0000 C   0  0  0  0  0  0  0  0  0  0  0  0
   -1.2299    2.2839    0.0000 C   0  0  0  0  0  0  0  0  0  0  0  0
   -1.9696   -1.3016    0.0000 C   0  0  0  0  0  0  0  0  0  0  0  0
   -0.4453    2.5388    0.0000 C   0  0  0  0  0  0  0  0  0  0  0  0
    1.4240    2.6706    0.0000 C   0  0  0  0  0  0  0  0  0  0  0  0
   -0.1341   -2.3120    0.0000 C   0  0  0  0  0  0  0  0  0  0  0  0
    1.5133    2.7222    0.0000 C   0  0  0  0  0  0  0  0  0  0  0  0
    0.0794   -3.1089    0.0000 C   0  0  0  0  0  0  0  0  0  0  0  0
  1 19  2  0  0  0  0
  2  9  1  0  0  0  0
  3 12  1  0  0  0  0
  3 18  1  0  0  0  0
  4  5  1  0  0  0  0
  4 10  1  0  0  0  0
  4 14  1  0  0  0  0
  5 11  2  0  0  0  0
  6  8  1  0  0  0  0
  6 15  2  0  0  0  0
  7 11  1  0  0  0  0
  7 17  2  3  0  0  0
  8  9  2  0  0  0  0
  8 10  1  0  0  0  0
  9 13  1  0  0  0  0
 11 16  1  0  0  0  0
 12 13  2  0  0  0  0
 12 15  1  0  0  0  0
 14 16  2  0  0  0  0
 17 19  1  0  0  0  0
 18 20  1  0  0  0  0
M  END
> <PUBCHEM_COMPOUND_ID_TYPE>
0

> <PUBCHEM_TOTAL_CHARGE>
0

> <PUBCHEM_SUBSTANCE_ID>
310938750

> <PUBCHEM_SUBSTANCE_VERSION>
1

> <PUBCHEM_EXT_DATASOURCE_NAME>
4488

> <PUBCHEM_EXT_DATASOURCE_REGID>
SCHEMBL16116666

> <PUBCHEM_SUBSTANCE_COMMENT>
InChI=1S/C13H13FN4OS/c1-2-19-10-7-11(14)12(16-8-10)9-18-5-3-13(17-18)15-4-6-20/h3-8H,2,9H2,1H3
InChIKey=YHYHNURJMBYYJY-UHFFFAOYSA-N

> <PUBCHEM_SUBSTANCE_SYNONYM>
SCHEMBL16116666

> <PUBCHEM_XREF_EXT_ID>
SCHEMBL16116666

> <PUBCHEM_EXT_DATASOURCE_URL>
https://www.surechembl.org/

> <PUBCHEM_EXT_SUBSTANCE_URL>
https://www.surechembl.org/chemical/SCHEMBL16116666

> <PUBCHEM_CID_ASSOCIATIONS>
117606164  1

> <PUBCHEM_COORDINATE_TYPE>
1
3

$$$$
