310945558
  -OEChem-07211613022D

  9  8  0     1  0  0  0  0  0999 V2000
   -1.1190   -0.9055    0.0000 I   0  0  0  0  0  0  0  0  0  0  0  0
    0.4123   -1.6711    0.0000 O   0  0  0  0  0  0  0  0  0  0  0  0
    1.0748   -0.3902    0.0000 N   0  0  0  0  0  0  0  0  0  0  0  0
   -0.3534   -0.4490    0.0000 C   0  0  3  0  0  0  0  0  0  0  0  0
    0.3828   -0.8172    0.0000 C   0  0  0  0  0  0  0  0  0  0  0  0
   -0.3681    0.3607    0.0000 C   0  0  0  0  0  0  0  0  0  0  0  0
    0.3092    0.8318    0.0000 C   0  0  0  0  0  0  0  0  0  0  0  0
    0.3092    1.6711    0.0000 C   0  0  0  0  0  0  0  0  0  0  0  0
    1.1190    0.5080    0.0000 C   0  0  0  0  0  0  0  0  0  0  0  0
  4  1  1  6  0  0  0
  2  5  2  0  0  0  0
  3  5  1  0  0  0  0
  4  5  1  0  0  0  0
  4  6  1  0  0  0  0
  6  7  1  0  0  0  0
  7  8  1  0  0  0  0
  7  9  1  0  0  0  0
M  END
> <PUBCHEM_COMPOUND_ID_TYPE>
0

> <PUBCHEM_TOTAL_CHARGE>
0

> <PUBCHEM_SUBSTANCE_ID>
310945558

> <PUBCHEM_SUBSTANCE_VERSION>
1

> <PUBCHEM_EXT_DATASOURCE_NAME>
4488

> <PUBCHEM_EXT_DATASOURCE_REGID>
SCHEMBL16123656

> <PUBCHEM_SUBSTANCE_COMMENT>
InChI=1S/C6H12INO/c1-4(2)3-5(7)6(8)9/h4-5H,3H2,1-2H3,(H2,8,9)/t5-/m1/s1
InChIKey=FYTOVYNWFIRNEL-RXMQYKEDSA-N

> <PUBCHEM_SUBSTANCE_SYNONYM>
SCHEMBL16123656

> <PUBCHEM_XREF_EXT_ID>
SCHEMBL16123656

> <PUBCHEM_EXT_DATASOURCE_URL>
https://www.surechembl.org/

> <PUBCHEM_EXT_SUBSTANCE_URL>
https://www.surechembl.org/chemical/SCHEMBL16123656

> <PUBCHEM_CID_ASSOCIATIONS>
117611593  1

> <PUBCHEM_COORDINATE_TYPE>
1
3

> <PUBCHEM_BONDANNOTATIONS>
4  1  6

$$$$
