310944590
  -OEChem-07211613022D

 32 34  0     0  0  0  0  0  0999 V2000
   -4.3455   -0.3400    0.0000 Cl  0  0  0  0  0  0  0  0  0  0  0  0
   -4.4450    0.2073    0.0000 F   0  0  0  0  0  0  0  0  0  0  0  0
   -5.5231    0.5224    0.0000 F   0  0  0  0  0  0  0  0  0  0  0  0
   -5.1914    1.6005    0.0000 F   0  0  0  0  0  0  0  0  0  0  0  0
   -1.2605   -0.3234    0.0000 O   0  0  0  0  0  0  0  0  0  0  0  0
    4.7768   -2.1644    0.0000 O   0  0  0  0  0  0  0  0  0  0  0  0
    0.1824    2.1644    0.0000 O   0  0  0  0  0  0  0  0  0  0  0  0
    2.3552    0.0912    0.0000 N   0  0  0  0  0  0  0  0  0  0  0  0
    4.0967   -0.9039    0.0000 N   0  0  0  0  0  0  0  0  0  0  0  0
    0.9288    0.9205    0.0000 N   0  0  0  0  0  0  0  0  0  0  0  0
   -1.2439    1.3351    0.0000 N   0  0  0  0  0  0  0  0  0  0  0  0
    3.0684   -0.3400    0.0000 C   0  0  0  0  0  0  0  0  0  0  0  0
    3.2840   -1.1196    0.0000 C   0  0  0  0  0  0  0  0  0  0  0  0
    3.8645   -0.1244    0.0000 C   0  0  0  0  0  0  0  0  0  0  0  0
   -1.9572    0.9205    0.0000 C   0  0  0  0  0  0  0  0  0  0  0  0
   -3.3835    0.9205    0.0000 C   0  0  0  0  0  0  0  0  0  0  0  0
   -1.9737    0.1078    0.0000 C   0  0  0  0  0  0  0  0  0  0  0  0
   -3.4001    0.0912    0.0000 C   0  0  0  0  0  0  0  0  0  0  0  0
   -2.6869    1.3186    0.0000 C   0  0  0  0  0  0  0  0  0  0  0  0
    4.7933   -1.3020    0.0000 C   0  0  0  0  0  0  0  0  0  0  0  0
    2.3386    0.9205    0.0000 C   0  0  0  0  0  0  0  0  0  0  0  0
    1.6420   -0.3234    0.0000 C   0  0  0  0  0  0  0  0  0  0  0  0
   -2.6703   -0.3234    0.0000 C   0  0  0  0  0  0  0  0  0  0  0  0
    0.1824    1.3186    0.0000 C   0  0  0  0  0  0  0  0  0  0  0  0
    1.6254    1.3351    0.0000 C   0  0  0  0  0  0  0  0  0  0  0  0
    0.9122    0.0912    0.0000 C   0  0  0  0  0  0  0  0  0  0  0  0
   -4.1133    1.3351    0.0000 C   0  0  0  0  0  0  0  0  0  0  0  0
   -4.8265    0.9205    0.0000 C   0  0  0  0  0  0  0  0  0  0  0  0
   -0.5141    0.9205    0.0000 C   0  0  0  0  0  0  0  0  0  0  0  0
    5.5231   -0.9205    0.0000 C   0  0  0  0  0  0  0  0  0  0  0  0
   -1.2274   -1.1527    0.0000 C   0  0  0  0  0  0  0  0  0  0  0  0
    5.4733   -0.0912    0.0000 C   0  0  0  0  0  0  0  0  0  0  0  0
  1 18  1  0  0  0  0
  2 28  1  0  0  0  0
  3 28  1  0  0  0  0
  4 28  1  0  0  0  0
  5 17  1  0  0  0  0
  5 31  1  0  0  0  0
  6 20  2  0  0  0  0
  7 24  2  0  0  0  0
  8 12  1  0  0  0  0
  8 21  1  0  0  0  0
  8 22  1  0  0  0  0
  9 13  1  0  0  0  0
  9 14  1  0  0  0  0
  9 20  1  0  0  0  0
 10 24  1  0  0  0  0
 10 25  1  0  0  0  0
 10 26  1  0  0  0  0
 11 15  1  0  0  0  0
 11 29  1  0  0  0  0
 12 13  1  0  0  0  0
 12 14  1  0  0  0  0
 15 17  1  0  0  0  0
 15 19  2  0  0  0  0
 16 18  2  0  0  0  0
 16 19  1  0  0  0  0
 16 27  1  0  0  0  0
 17 23  2  0  0  0  0
 18 23  1  0  0  0  0
 20 30  1  0  0  0  0
 21 25  1  0  0  0  0
 22 26  1  0  0  0  0
 24 29  1  0  0  0  0
 27 28  1  0  0  0  0
 30 32  2  0  0  0  0
M  END
> <PUBCHEM_COMPOUND_ID_TYPE>
0

> <PUBCHEM_TOTAL_CHARGE>
0

> <PUBCHEM_SUBSTANCE_ID>
310944590

> <PUBCHEM_SUBSTANCE_VERSION>
1

> <PUBCHEM_EXT_DATASOURCE_NAME>
4488

> <PUBCHEM_EXT_DATASOURCE_REGID>
SCHEMBL16122668

> <PUBCHEM_SUBSTANCE_COMMENT>
InChI=1S/C21H26ClF3N4O3/c1-3-19(30)29-12-15(13-29)27-4-6-28(7-5-27)20(31)11-26-17-8-14(10-21(23,24)25)16(22)9-18(17)32-2/h3,8-9,15,26H,1,4-7,10-13H2,2H3
InChIKey=KKYNKAWGGKBKFG-UHFFFAOYSA-N

> <PUBCHEM_SUBSTANCE_SYNONYM>
SCHEMBL16122668

> <PUBCHEM_XREF_EXT_ID>
SCHEMBL16122668

> <PUBCHEM_EXT_DATASOURCE_URL>
https://www.surechembl.org/

> <PUBCHEM_EXT_SUBSTANCE_URL>
https://www.surechembl.org/chemical/SCHEMBL16122668

> <PUBCHEM_CID_ASSOCIATIONS>
117610820  1

> <PUBCHEM_COORDINATE_TYPE>
1
3

$$$$
