310944275
  -OEChem-07211613022D

 24 25  0     1  0  0  0  0  0999 V2000
   -3.6745    1.6379    0.0000 Cl  0  0  0  0  0  0  0  0  0  0  0  0
   -3.6745   -0.0187    0.0000 Cl  0  0  0  0  0  0  0  0  0  0  0  0
   -0.6352   -0.0187    0.0000 O   0  0  0  0  0  0  0  0  0  0  0  0
    0.7972    2.4725    0.0000 O   0  0  0  0  0  0  0  0  0  0  0  0
    3.6745   -0.8533    0.0000 O   0  0  0  0  0  0  0  0  0  0  0  0
    1.5320    1.2269    0.0000 N   0  0  0  0  0  0  0  0  0  0  0  0
   -0.6228    1.6379    0.0000 N   0  0  0  0  0  0  0  0  0  0  0  0
    2.2546   -0.8533    0.0000 N   0  0  0  0  0  0  0  0  0  0  0  0
   -1.3453    1.2394    0.0000 C   0  0  0  0  0  0  0  0  0  0  0  0
   -1.3577    0.4048    0.0000 C   0  0  0  0  0  0  0  0  0  0  0  0
   -2.7777    1.2269    0.0000 C   0  0  0  0  0  0  0  0  0  0  0  0
   -2.7901    0.4048    0.0000 C   0  0  0  0  0  0  0  0  0  0  0  0
   -2.0677    1.6379    0.0000 C   0  0  0  0  0  0  0  0  0  0  0  0
    0.8097    1.6255    0.0000 C   0  0  0  0  0  0  0  0  0  0  0  0
   -2.0553   -0.0062    0.0000 C   0  0  0  0  0  0  0  0  0  0  0  0
    2.2546   -0.0062    0.0000 C   0  0  3  0  0  0  0  0  0  0  0  0
    1.5445    0.3923    0.0000 C   0  0  0  0  0  0  0  0  0  0  0  0
    0.0997    1.2269    0.0000 C   0  0  0  0  0  0  0  0  0  0  0  0
    2.2421    1.6379    0.0000 C   0  0  0  0  0  0  0  0  0  0  0  0
    2.9645    0.3923    0.0000 C   0  0  0  0  0  0  0  0  0  0  0  0
    2.9645    1.2269    0.0000 C   0  0  0  0  0  0  0  0  0  0  0  0
    2.9520   -1.2643    0.0000 C   0  0  0  0  0  0  0  0  0  0  0  0
    2.9645   -2.0989    0.0000 C   0  0  0  0  0  0  0  0  0  0  0  0
    2.2297   -2.4725    0.0000 C   0  0  0  0  0  0  0  0  0  0  0  0
  1 11  1  0  0  0  0
  2 12  1  0  0  0  0
  3 10  1  0  0  0  0
  4 14  2  0  0  0  0
  5 22  2  0  0  0  0
  6 14  1  0  0  0  0
  6 17  1  0  0  0  0
  6 19  1  0  0  0  0
  7  9  1  0  0  0  0
  7 18  1  0  0  0  0
 16  8  1  1  0  0  0
  8 22  1  0  0  0  0
  9 10  2  0  0  0  0
  9 13  1  0  0  0  0
 10 15  1  0  0  0  0
 11 12  1  0  0  0  0
 11 13  2  0  0  0  0
 12 15  2  0  0  0  0
 14 18  1  0  0  0  0
 16 17  1  0  0  0  0
 16 20  1  0  0  0  0
 19 21  1  0  0  0  0
 20 21  1  0  0  0  0
 22 23  1  0  0  0  0
 23 24  2  0  0  0  0
M  END
> <PUBCHEM_COMPOUND_ID_TYPE>
0

> <PUBCHEM_TOTAL_CHARGE>
0

> <PUBCHEM_SUBSTANCE_ID>
310944275

> <PUBCHEM_SUBSTANCE_VERSION>
1

> <PUBCHEM_EXT_DATASOURCE_NAME>
4488

> <PUBCHEM_EXT_DATASOURCE_REGID>
SCHEMBL16122350

> <PUBCHEM_SUBSTANCE_COMMENT>
InChI=1S/C16H19Cl2N3O3/c1-2-15(23)20-10-4-3-5-21(9-10)16(24)8-19-13-6-11(17)12(18)7-14(13)22/h2,6-7,10,19,22H,1,3-5,8-9H2,(H,20,23)/t10-/m1/s1
InChIKey=UYOUZKAQAXKIJD-SNVBAGLBSA-N

> <PUBCHEM_SUBSTANCE_SYNONYM>
SCHEMBL16122350

> <PUBCHEM_XREF_EXT_ID>
SCHEMBL16122350

> <PUBCHEM_EXT_DATASOURCE_URL>
https://www.surechembl.org/

> <PUBCHEM_EXT_SUBSTANCE_URL>
https://www.surechembl.org/chemical/SCHEMBL16122350

> <PUBCHEM_CID_ASSOCIATIONS>
117610544  1

> <PUBCHEM_COORDINATE_TYPE>
1
3

> <PUBCHEM_BONDANNOTATIONS>
16  8  5

$$$$
