310949515
  -OEChem-07211613022D

 26 28  0     0  0  0  0  0  0999 V2000
   -0.3728    1.2454    0.0000 S   0  0  0  0  0  0  0  0  0  0  0  0
    2.5304   -2.9429    0.0000 F   0  0  0  0  0  0  0  0  0  0  0  0
   -0.8011    1.9752    0.0000 O   0  0  0  0  0  0  0  0  0  0  0  0
    0.0397    0.5156    0.0000 O   0  0  0  0  0  0  0  0  0  0  0  0
   -1.1184   -1.6737    0.0000 O   0  0  0  0  0  0  0  0  0  0  0  0
    0.3411    1.6579    0.0000 N   0  0  0  0  0  0  0  0  0  0  0  0
   -0.3887   -0.4204    0.0000 N   0  0  0  0  0  0  0  0  0  0  0  0
    1.8165    2.4987    0.0000 N   0  0  0  0  0  0  0  0  0  0  0  0
   -1.1184    0.8329    0.0000 C   0  0  0  0  0  0  0  0  0  0  0  0
   -1.1184   -0.0079    0.0000 C   0  0  0  0  0  0  0  0  0  0  0  0
   -1.8483    1.2295    0.0000 C   0  0  0  0  0  0  0  0  0  0  0  0
    1.0868    1.2454    0.0000 C   0  0  0  0  0  0  0  0  0  0  0  0
    0.3569    2.4987    0.0000 C   0  0  0  0  0  0  0  0  0  0  0  0
   -1.8483   -0.4204    0.0000 C   0  0  0  0  0  0  0  0  0  0  0  0
   -0.3887   -1.2454    0.0000 C   0  0  0  0  0  0  0  0  0  0  0  0
   -2.5622    0.8170    0.0000 C   0  0  0  0  0  0  0  0  0  0  0  0
    0.3569   -1.6896    0.0000 C   0  0  0  0  0  0  0  0  0  0  0  0
   -2.5622   -0.0079    0.0000 C   0  0  0  0  0  0  0  0  0  0  0  0
    1.8006    1.6420    0.0000 C   0  0  0  0  0  0  0  0  0  0  0  0
    1.0709    2.9112    0.0000 C   0  0  0  0  0  0  0  0  0  0  0  0
    1.0709   -1.2771    0.0000 C   0  0  0  0  0  0  0  0  0  0  0  0
    0.3569   -2.5146    0.0000 C   0  0  0  0  0  0  0  0  0  0  0  0
    1.8006   -2.5146    0.0000 C   0  0  0  0  0  0  0  0  0  0  0  0
    1.8006   -1.6896    0.0000 C   0  0  0  0  0  0  0  0  0  0  0  0
    1.0709   -2.9270    0.0000 C   0  0  0  0  0  0  0  0  0  0  0  0
    2.5622    2.9429    0.0000 C   0  0  0  0  0  0  0  0  0  0  0  0
  1  3  2  0  0  0  0
  1  4  2  0  0  0  0
  1  6  1  0  0  0  0
  1  9  1  0  0  0  0
  2 23  1  0  0  0  0
  5 15  2  0  0  0  0
  6 12  1  0  0  0  0
  6 13  1  0  0  0  0
  7 10  1  0  0  0  0
  7 15  1  0  0  0  0
  8 19  1  0  0  0  0
  8 20  1  0  0  0  0
  8 26  1  0  0  0  0
  9 10  1  0  0  0  0
  9 11  2  0  0  0  0
 10 14  2  0  0  0  0
 11 16  1  0  0  0  0
 12 19  1  0  0  0  0
 13 20  1  0  0  0  0
 14 18  1  0  0  0  0
 15 17  1  0  0  0  0
 16 18  2  0  0  0  0
 17 21  2  0  0  0  0
 17 22  1  0  0  0  0
 21 24  1  0  0  0  0
 22 25  2  0  0  0  0
 23 24  2  0  0  0  0
 23 25  1  0  0  0  0
M  END
> <PUBCHEM_COMPOUND_ID_TYPE>
0

> <PUBCHEM_TOTAL_CHARGE>
0

> <PUBCHEM_SUBSTANCE_ID>
310949515

> <PUBCHEM_SUBSTANCE_VERSION>
1

> <PUBCHEM_EXT_DATASOURCE_NAME>
4488

> <PUBCHEM_EXT_DATASOURCE_REGID>
SCHEMBL16127710

> <PUBCHEM_SUBSTANCE_COMMENT>
InChI=1S/C18H20FN3O3S/c1-21-10-12-22(13-11-21)26(24,25)17-5-3-2-4-16(17)20-18(23)14-6-8-15(19)9-7-14/h2-9H,10-13H2,1H3,(H,20,23)
InChIKey=VPWPTLRDXGCCIN-UHFFFAOYSA-N

> <PUBCHEM_SUBSTANCE_SYNONYM>
SCHEMBL16127710

> <PUBCHEM_XREF_EXT_ID>
SCHEMBL16127710

> <PUBCHEM_EXT_DATASOURCE_URL>
https://www.surechembl.org/

> <PUBCHEM_EXT_SUBSTANCE_URL>
https://www.surechembl.org/chemical/SCHEMBL16127710

> <PUBCHEM_CID_ASSOCIATIONS>
117614951  1

> <PUBCHEM_COORDINATE_TYPE>
1
3

$$$$
