310942581
  -OEChem-07211613022D

 42 47  0     1  0  0  0  0  0999 V2000
    4.9178    2.0912    0.0000 F   0  0  0  0  0  0  0  0  0  0  0  0
    1.8231    1.0648    0.0000 O   0  0  0  0  0  0  0  0  0  0  0  0
    2.3133   -1.0341    0.0000 O   0  0  0  0  0  0  0  0  0  0  0  0
    1.0724   -0.9422    0.0000 O   0  0  0  0  0  0  0  0  0  0  0  0
    3.2632    0.7277    0.0000 N   0  0  0  0  0  0  0  0  0  0  0  0
    3.9679   -0.6052    0.0000 N   0  0  0  0  0  0  0  0  0  0  0  0
   -0.3371    0.6205    0.0000 N   0  0  3  0  0  0  0  0  0  0  0  0
    5.4080   -0.5285    0.0000 N   0  0  0  0  0  0  0  0  0  0  0  0
    6.0667    0.7583    0.0000 N   0  0  0  0  0  0  0  0  0  0  0  0
   -2.7117   -0.8656    0.0000 N   0  0  0  0  0  0  0  0  0  0  0  0
   -3.3857   -2.0146    0.0000 N   0  0  0  0  0  0  0  0  0  0  0  0
    2.4666    0.5285    0.0000 C   0  0  3  0  0  0  0  0  0  0  0  0
    3.9220    0.2375    0.0000 C   0  0  0  0  0  0  0  0  0  0  0  0
    4.6114    0.6818    0.0000 C   0  0  0  0  0  0  0  0  0  0  0  0
    2.0989   -0.2375    0.0000 C   0  0  3  0  0  0  0  0  0  0  0  0
    4.3969    1.4477    0.0000 C   0  0  0  0  0  0  0  0  0  0  0  0
    1.1184    0.6511    0.0000 C   0  0  3  0  0  0  0  0  0  0  0  0
    3.5696    1.4937    0.0000 C   0  0  0  0  0  0  0  0  0  0  0  0
    1.2716   -0.1455    0.0000 C   0  0  3  0  0  0  0  0  0  0  0  0
    5.3773    0.2988    0.0000 C   0  0  0  0  0  0  0  0  0  0  0  0
    0.3830    1.0494    0.0000 C   0  0  0  0  0  0  0  0  0  0  0  0
   -0.5668   -0.1762    0.0000 C   0  0  0  0  0  0  0  0  0  0  0  0
    4.7186   -0.9575    0.0000 C   0  0  0  0  0  0  0  0  0  0  0  0
   -0.8120   -1.2639    0.0000 C   0  0  0  0  0  0  0  0  0  0  0  0
   -1.2562   -0.5898    0.0000 C   0  0  0  0  0  0  0  0  0  0  0  0
   -0.1532   -0.8809    0.0000 C   0  0  0  0  0  0  0  0  0  0  0  0
   -1.0724    1.0341    0.0000 C   0  0  0  0  0  0  0  0  0  0  0  0
   -3.5696   -0.6970    0.0000 C   0  0  0  0  0  0  0  0  0  0  0  0
   -3.9679   -1.4018    0.0000 C   0  0  0  0  0  0  0  0  0  0  0  0
   -2.6351   -1.6776    0.0000 C   0  0  0  0  0  0  0  0  0  0  0  0
   -4.8258    0.0076    0.0000 C   0  0  0  0  0  0  0  0  0  0  0  0
   -1.0417   -2.0912    0.0000 C   0  0  0  0  0  0  0  0  0  0  0  0
   -3.9833    0.0076    0.0000 C   0  0  0  0  0  0  0  0  0  0  0  0
   -1.8997   -2.0758    0.0000 C   0  0  0  0  0  0  0  0  0  0  0  0
   -5.2548    0.7431    0.0000 C   0  0  0  0  0  0  0  0  0  0  0  0
   -4.8105   -1.3864    0.0000 C   0  0  0  0  0  0  0  0  0  0  0  0
   -5.2242   -0.6970    0.0000 C   0  0  0  0  0  0  0  0  0  0  0  0
   -1.0724    1.8461    0.0000 C   0  0  0  0  0  0  0  0  0  0  0  0
   -1.7924    0.6205    0.0000 C   0  0  0  0  0  0  0  0  0  0  0  0
   -6.0667    0.6818    0.0000 C   0  0  0  0  0  0  0  0  0  0  0  0
   -5.6685    1.4018    0.0000 C   0  0  0  0  0  0  0  0  0  0  0  0
   -4.7952    1.4325    0.0000 C   0  0  0  0  0  0  0  0  0  0  0  0
  1 16  1  0  0  0  0
 12  2  1  1  0  0  0
  2 17  1  0  0  0  0
 15  3  1  6  0  0  0
 19  4  1  6  0  0  0
  5 12  1  0  0  0  0
  5 13  1  0  0  0  0
  5 18  1  0  0  0  0
  6 13  1  0  0  0  0
  6 23  2  0  0  0  0
  7 21  1  0  0  0  0
 22  7  1  1  0  0  0
  7 27  1  0  0  0  0
  8 20  2  0  0  0  0
  8 23  1  0  0  0  0
  9 20  1  0  0  0  0
 10 28  1  0  0  0  0
 10 30  2  0  0  0  0
 11 29  1  0  0  0  0
 11 30  1  0  0  0  0
 12 15  1  0  0  0  0
 13 14  2  0  0  0  0
 14 16  1  0  0  0  0
 14 20  1  0  0  0  0
 15 19  1  0  0  0  0
 16 18  2  0  0  0  0
 17 19  1  0  0  0  0
 17 21  1  1  0  0  0
 22 25  1  0  0  0  0
 22 26  1  0  0  0  0
 24 25  1  0  0  0  0
 24 26  1  0  0  0  0
 24 32  1  6  0  0  0
 27 38  1  0  0  0  0
 27 39  1  0  0  0  0
 28 29  2  0  0  0  0
 28 33  1  0  0  0  0
 29 36  1  0  0  0  0
 30 34  1  0  0  0  0
 31 33  2  0  0  0  0
 31 35  1  0  0  0  0
 31 37  1  0  0  0  0
 32 34  1  0  0  0  0
 35 40  1  0  0  0  0
 35 41  1  0  0  0  0
 35 42  1  0  0  0  0
 36 37  2  0  0  0  0
M  END
> <PUBCHEM_COMPOUND_ID_TYPE>
0

> <PUBCHEM_TOTAL_CHARGE>
0

> <PUBCHEM_SUBSTANCE_ID>
310942581

> <PUBCHEM_SUBSTANCE_VERSION>
1

> <PUBCHEM_EXT_DATASOURCE_NAME>
4488

> <PUBCHEM_EXT_DATASOURCE_REGID>
SCHEMBL16120626

> <PUBCHEM_SUBSTANCE_COMMENT>
InChI=1S/C31H42FN7O3/c1-16(2)38(14-23-26(40)27(41)30(42-23)39-13-20(32)25-28(33)34-15-35-29(25)39)19-10-17(11-19)6-9-24-36-21-8-7-18(31(3,4)5)12-22(21)37-24/h7-8,12-13,15-17,19,23,26-27,30,40-41H,6,9-11,14H2,1-5H3,(H,36,37)(H2,33,34,35)/t17-,19-,23-,26-,27-,30-/m1/s1
InChIKey=SWHPMWAKIXWJIA-XENOUKJNSA-N

> <PUBCHEM_SUBSTANCE_SYNONYM>
SCHEMBL16120626

> <PUBCHEM_XREF_EXT_ID>
SCHEMBL16120626

> <PUBCHEM_EXT_DATASOURCE_URL>
https://www.surechembl.org/

> <PUBCHEM_EXT_SUBSTANCE_URL>
https://www.surechembl.org/chemical/SCHEMBL16120626

> <PUBCHEM_CID_ASSOCIATIONS>
86274481  1

> <PUBCHEM_COORDINATE_TYPE>
1
3

> <PUBCHEM_BONDANNOTATIONS>
17  21  5
12  2  5
24  32  6
15  3  6
19  4  6
22  7  5

$$$$
