310945912
  -OEChem-07211613022D

 39 42  0     1  0  0  0  0  0999 V2000
    4.7832    0.9774    0.0000 O   0  0  0  0  0  0  0  0  0  0  0  0
    3.6463   -0.9774    0.0000 O   0  0  0  0  0  0  0  0  0  0  0  0
    1.2755    0.9636    0.0000 O   0  0  0  0  0  0  0  0  0  0  0  0
   -4.5198    0.0624    0.0000 O   0  0  0  0  0  0  0  0  0  0  0  0
   -0.8873   -1.1022    0.0000 O   0  0  0  0  0  0  0  0  0  0  0  0
   -3.0363    0.9636    0.0000 O   0  0  0  0  0  0  0  0  0  0  0  0
    3.4384   -2.7660    0.0000 O   0  0  0  0  0  0  0  0  0  0  0  0
    1.9964   -0.2704    0.0000 N   0  0  0  0  0  0  0  0  0  0  0  0
   -0.1664    0.1456    0.0000 N   0  0  0  0  0  0  0  0  0  0  0  0
   -2.3153   -0.2704    0.0000 N   0  0  0  0  0  0  0  0  0  0  0  0
   -5.0744   -0.5477    0.0000 N   0  0  0  0  0  0  0  0  0  0  0  0
    4.3535    0.3120    0.0000 C   0  0  3  0  0  0  0  0  0  0  0  0
    3.6463   -0.1179    0.0000 C   0  0  0  0  0  0  0  0  0  0  0  0
    3.9791    0.9913    0.0000 C   0  0  0  0  0  0  0  0  0  0  0  0
    2.9254    0.2842    0.0000 C   0  0  3  0  0  0  0  0  0  0  0  0
    5.0744   -0.1179    0.0000 C   0  0  0  0  0  0  0  0  0  0  0  0
    2.9254    1.3657    0.0000 C   0  0  0  0  0  0  0  0  0  0  0  0
    1.2755    0.1456    0.0000 C   0  0  0  0  0  0  0  0  0  0  0  0
    0.5685   -0.2426    0.0000 C   0  0  3  0  0  0  0  0  0  0  0  0
    2.2044    1.7955    0.0000 C   0  0  0  0  0  0  0  0  0  0  0  0
    0.5546   -1.1022    0.0000 C   0  0  0  0  0  0  0  0  0  0  0  0
   -0.8734   -0.2288    0.0000 C   0  0  0  0  0  0  0  0  0  0  0  0
    1.2894   -1.4904    0.0000 C   0  0  0  0  0  0  0  0  0  0  0  0
   -1.6083    0.1595    0.0000 C   0  0  3  0  0  0  0  0  0  0  0  0
    1.4558    1.4488    0.0000 C   0  0  0  0  0  0  0  0  0  0  0  0
    2.1212    2.5996    0.0000 C   0  0  0  0  0  0  0  0  0  0  0  0
   -3.0502    0.1456    0.0000 C   0  0  0  0  0  0  0  0  0  0  0  0
   -3.7434   -0.2426    0.0000 C   0  0  0  0  0  0  0  0  0  0  0  0
    0.9150    2.0588    0.0000 C   0  0  0  0  0  0  0  0  0  0  0  0
    1.3310    2.7660    0.0000 C   0  0  0  0  0  0  0  0  0  0  0  0
    1.2894   -2.3223    0.0000 C   0  0  0  0  0  0  0  0  0  0  0  0
    1.9964   -1.1022    0.0000 C   0  0  0  0  0  0  0  0  0  0  0  0
    2.7174   -2.3084    0.0000 C   0  0  0  0  0  0  0  0  0  0  0  0
    1.9964   -2.7244    0.0000 C   0  0  0  0  0  0  0  0  0  0  0  0
    2.7174   -1.5043    0.0000 C   0  0  0  0  0  0  0  0  0  0  0  0
   -3.8543   -1.0745    0.0000 C   0  0  0  0  0  0  0  0  0  0  0  0
   -1.5944    0.9774    0.0000 C   0  0  0  0  0  0  0  0  0  0  0  0
   -4.6446   -1.2409    0.0000 C   0  0  0  0  0  0  0  0  0  0  0  0
    4.1871   -2.3361    0.0000 C   0  0  0  0  0  0  0  0  0  0  0  0
  1 12  1  0  0  0  0
  1 14  1  0  0  0  0
  2 13  2  0  0  0  0
  3 18  2  0  0  0  0
  4 11  1  0  0  0  0
  4 28  1  0  0  0  0
  5 22  2  0  0  0  0
  6 27  2  0  0  0  0
  7 33  1  0  0  0  0
  7 39  1  0  0  0  0
 15  8  1  1  0  0  0
  8 18  1  0  0  0  0
 19  9  1  6  0  0  0
  9 22  1  0  0  0  0
 10 24  1  0  0  0  0
 10 27  1  0  0  0  0
 11 38  2  0  0  0  0
 12 13  1  1  0  0  0
 12 14  1  0  0  0  0
 12 16  1  6  0  0  0
 13 15  1  0  0  0  0
 15 17  1  0  0  0  0
 17 20  1  0  0  0  0
 18 19  1  0  0  0  0
 19 21  1  0  0  0  0
 20 25  1  0  0  0  0
 20 26  1  0  0  0  0
 21 23  1  0  0  0  0
 22 24  1  0  0  0  0
 23 31  2  0  0  0  0
 23 32  1  0  0  0  0
 24 37  1  6  0  0  0
 25 29  1  0  0  0  0
 26 30  1  0  0  0  0
 27 28  1  0  0  0  0
 28 36  2  0  0  0  0
 29 30  1  0  0  0  0
 31 34  1  0  0  0  0
 32 35  2  0  0  0  0
 33 34  2  0  0  0  0
 33 35  1  0  0  0  0
 36 38  1  0  0  0  0
M  END
> <PUBCHEM_COMPOUND_ID_TYPE>
0

> <PUBCHEM_TOTAL_CHARGE>
0

> <PUBCHEM_SUBSTANCE_ID>
310945912

> <PUBCHEM_SUBSTANCE_VERSION>
1

> <PUBCHEM_EXT_DATASOURCE_NAME>
4488

> <PUBCHEM_EXT_DATASOURCE_REGID>
SCHEMBL16124017

> <PUBCHEM_SUBSTANCE_COMMENT>
InChI=1S/C28H36N4O7/c1-17(30-27(36)23-12-13-29-39-23)25(34)32-22(15-19-8-10-20(37-3)11-9-19)26(35)31-21(14-18-6-4-5-7-18)24(33)28(2)16-38-28/h8-13,17-18,21-22H,4-7,14-16H2,1-3H3,(H,30,36)(H,31,35)(H,32,34)/t17-,21+,22+,28-/m1/s1
InChIKey=PUOOSUZLHLPKCX-FLJRQHSUSA-N

> <PUBCHEM_SUBSTANCE_SYNONYM>
SCHEMBL16124017

> <PUBCHEM_XREF_EXT_ID>
SCHEMBL16124017

> <PUBCHEM_EXT_DATASOURCE_URL>
https://www.surechembl.org/

> <PUBCHEM_EXT_SUBSTANCE_URL>
https://www.surechembl.org/chemical/SCHEMBL16124017

> <PUBCHEM_CID_ASSOCIATIONS>
117611895  1

> <PUBCHEM_COORDINATE_TYPE>
1
3

> <PUBCHEM_BONDANNOTATIONS>
12  13  5
12  16  6
24  37  6
15  8  5
19  9  6

$$$$
