310949263
  -OEChem-07211613022D

 37 42  0     0  0  0  0  0  0999 V2000
    0.0268   -0.2410    0.0000 N   0  0  0  0  0  0  0  0  0  0  0  0
   -2.1425   -0.7365    0.0000 N   0  0  0  0  0  0  0  0  0  0  0  0
    2.1960   -0.6829    0.0000 N   0  0  0  0  0  0  0  0  0  0  0  0
    0.7097    0.2946    0.0000 C   0  0  0  0  0  0  0  0  0  0  0  0
   -0.6695    0.2678    0.0000 C   0  0  0  0  0  0  0  0  0  0  0  0
    0.4285    1.0444    0.0000 C   0  0  0  0  0  0  0  0  0  0  0  0
   -0.4151    1.0578    0.0000 C   0  0  0  0  0  0  0  0  0  0  0  0
    0.0268   -1.0444    0.0000 C   0  0  0  0  0  0  0  0  0  0  0  0
   -0.6963   -1.4595    0.0000 C   0  0  0  0  0  0  0  0  0  0  0  0
    0.7632   -1.4595    0.0000 C   0  0  0  0  0  0  0  0  0  0  0  0
    1.0043    1.6872    0.0000 C   0  0  0  0  0  0  0  0  0  0  0  0
   -0.9775    1.6604    0.0000 C   0  0  0  0  0  0  0  0  0  0  0  0
    1.5131    0.1339    0.0000 C   0  0  0  0  0  0  0  0  0  0  0  0
   -1.4997    0.0937    0.0000 C   0  0  0  0  0  0  0  0  0  0  0  0
    1.8077    1.5131    0.0000 C   0  0  0  0  0  0  0  0  0  0  0  0
   -1.7809    1.4729    0.0000 C   0  0  0  0  0  0  0  0  0  0  0  0
   -0.7231   -2.3031    0.0000 C   0  0  0  0  0  0  0  0  0  0  0  0
    2.0621    0.7231    0.0000 C   0  0  0  0  0  0  0  0  0  0  0  0
   -2.0353    0.6963    0.0000 C   0  0  0  0  0  0  0  0  0  0  0  0
    0.0268   -2.7048    0.0000 C   0  0  0  0  0  0  0  0  0  0  0  0
    0.7365   -2.2764    0.0000 C   0  0  0  0  0  0  0  0  0  0  0  0
    2.3835    2.1826    0.0000 C   0  0  0  0  0  0  0  0  0  0  0  0
   -2.3701    2.1023    0.0000 C   0  0  0  0  0  0  0  0  0  0  0  0
   -1.4194   -1.0846    0.0000 C   0  0  0  0  0  0  0  0  0  0  0  0
    1.4729   -1.0578    0.0000 C   0  0  0  0  0  0  0  0  0  0  0  0
   -1.4328   -2.7316    0.0000 C   0  0  0  0  0  0  0  0  0  0  0  0
    0.0268   -3.5350    0.0000 C   0  0  0  0  0  0  0  0  0  0  0  0
    3.2003    2.0085    0.0000 C   0  0  0  0  0  0  0  0  0  0  0  0
   -2.1157    2.8789    0.0000 C   0  0  0  0  0  0  0  0  0  0  0  0
    2.1157    2.9191    0.0000 C   0  0  0  0  0  0  0  0  0  0  0  0
   -3.1467    1.9282    0.0000 C   0  0  0  0  0  0  0  0  0  0  0  0
    3.7225    2.5977    0.0000 C   0  0  0  0  0  0  0  0  0  0  0  0
   -2.6781    3.4815    0.0000 C   0  0  0  0  0  0  0  0  0  0  0  0
    2.6781    3.5350    0.0000 C   0  0  0  0  0  0  0  0  0  0  0  0
   -3.7225    2.5040    0.0000 C   0  0  0  0  0  0  0  0  0  0  0  0
    3.4815    3.4011    0.0000 C   0  0  0  0  0  0  0  0  0  0  0  0
   -3.4815    3.2940    0.0000 C   0  0  0  0  0  0  0  0  0  0  0  0
  1  4  1  0  0  0  0
  1  5  1  0  0  0  0
  1  8  1  0  0  0  0
  2 24  3  0  0  0  0
  3 25  3  0  0  0  0
  4  6  2  0  0  0  0
  4 13  1  0  0  0  0
  5  7  2  0  0  0  0
  5 14  1  0  0  0  0
  6  7  1  0  0  0  0
  6 11  1  0  0  0  0
  7 12  1  0  0  0  0
  8  9  1  0  0  0  0
  8 10  2  0  0  0  0
  9 17  2  0  0  0  0
  9 24  1  0  0  0  0
 10 21  1  0  0  0  0
 10 25  1  0  0  0  0
 11 15  2  0  0  0  0
 12 16  2  0  0  0  0
 13 18  2  0  0  0  0
 14 19  2  0  0  0  0
 15 18  1  0  0  0  0
 15 22  1  0  0  0  0
 16 19  1  0  0  0  0
 16 23  1  0  0  0  0
 17 20  1  0  0  0  0
 17 26  1  0  0  0  0
 20 21  2  0  0  0  0
 20 27  1  0  0  0  0
 22 28  2  0  0  0  0
 22 30  1  0  0  0  0
 23 29  2  0  0  0  0
 23 31  1  0  0  0  0
 28 32  1  0  0  0  0
 29 33  1  0  0  0  0
 30 34  2  0  0  0  0
 31 35  2  0  0  0  0
 32 36  2  0  0  0  0
 33 37  2  0  0  0  0
 34 36  1  0  0  0  0
 35 37  1  0  0  0  0
M  END
> <PUBCHEM_COMPOUND_ID_TYPE>
0

> <PUBCHEM_TOTAL_CHARGE>
0

> <PUBCHEM_SUBSTANCE_ID>
310949263

> <PUBCHEM_SUBSTANCE_VERSION>
1

> <PUBCHEM_EXT_DATASOURCE_NAME>
4488

> <PUBCHEM_EXT_DATASOURCE_REGID>
SCHEMBL16127453

> <PUBCHEM_SUBSTANCE_COMMENT>
InChI=1S/C34H23N3/c1-22-17-28(20-35)34(31(21-36)23(22)2)37-32-15-13-26(24-9-5-3-6-10-24)18-29(32)30-19-27(14-16-33(30)37)25-11-7-4-8-12-25/h3-19H,1-2H3
InChIKey=ZLILYWIFJLPDSX-UHFFFAOYSA-N

> <PUBCHEM_SUBSTANCE_SYNONYM>
SCHEMBL16127453

> <PUBCHEM_XREF_EXT_ID>
SCHEMBL16127453

> <PUBCHEM_EXT_DATASOURCE_URL>
https://www.surechembl.org/

> <PUBCHEM_EXT_SUBSTANCE_URL>
https://www.surechembl.org/chemical/SCHEMBL16127453

> <PUBCHEM_CID_ASSOCIATIONS>
117614749  1

> <PUBCHEM_COORDINATE_TYPE>
1
3

$$$$
