310932809
  -OEChem-07211613022D

 32 35  0     0  0  0  0  0  0999 V2000
    3.9874   -2.7084    0.0000 O   0  0  0  0  0  0  0  0  0  0  0  0
    8.4263   -2.7837    0.0000 O   0  0  0  0  0  0  0  0  0  0  0  0
   11.2853   -5.2664    0.0000 O   0  0  0  0  0  0  0  0  0  0  0  0
    4.8903   -1.5799    0.0000 N   0  0  0  0  0  0  0  0  0  0  0  0
    4.8150   -0.7523    0.0000 N   0  0  0  0  0  0  0  0  0  0  0  0
    6.3197   -1.5799    0.0000 N   0  0  0  0  0  0  0  0  0  0  0  0
    7.7492   -4.0251    0.0000 N   0  0  0  0  0  0  0  0  0  0  0  0
    0.0000   -2.4075    0.0000 N   0  0  0  0  0  0  0  0  0  0  0  0
    3.5737   -1.3166    0.0000 C   0  0  0  0  0  0  0  0  0  0  0  0
    4.1379   -1.9185    0.0000 C   0  0  0  0  0  0  0  0  0  0  0  0
    2.7837   -1.3919    0.0000 C   0  0  0  0  0  0  0  0  0  0  0  0
    5.6050   -1.9937    0.0000 C   0  0  0  0  0  0  0  0  0  0  0  0
    3.9874   -0.6019    0.0000 C   0  0  0  0  0  0  0  0  0  0  0  0
    2.2947   -0.7523    0.0000 C   0  0  0  0  0  0  0  0  0  0  0  0
    2.4452   -2.1442    0.0000 C   0  0  0  0  0  0  0  0  0  0  0  0
    5.6050   -2.7837    0.0000 C   0  0  0  0  0  0  0  0  0  0  0  0
    6.9968   -2.7837    0.0000 C   0  0  0  0  0  0  0  0  0  0  0  0
    1.4671   -0.8276    0.0000 C   0  0  0  0  0  0  0  0  0  0  0  0
    1.1662   -1.5799    0.0000 C   0  0  0  0  0  0  0  0  0  0  0  0
    6.9968   -1.9937    0.0000 C   0  0  0  0  0  0  0  0  0  0  0  0
    6.3197   -3.1975    0.0000 C   0  0  0  0  0  0  0  0  0  0  0  0
    1.6552   -2.2570    0.0000 C   0  0  0  0  0  0  0  0  0  0  0  0
    7.7492   -3.1975    0.0000 C   0  0  0  0  0  0  0  0  0  0  0  0
    2.6332    0.0000    0.0000 C   0  0  0  0  0  0  0  0  0  0  0  0
    0.3386   -1.6928    0.0000 C   0  0  0  0  0  0  0  0  0  0  0  0
    8.4263   -4.4388    0.0000 C   0  0  0  0  0  0  0  0  0  0  0  0
    9.1410   -4.0251    0.0000 C   0  0  0  0  0  0  0  0  0  0  0  0
    9.8558   -4.4388    0.0000 C   0  0  0  0  0  0  0  0  0  0  0  0
    9.8934   -5.2288    0.0000 C   0  0  0  0  0  0  0  0  0  0  0  0
   10.5705   -4.0251    0.0000 C   0  0  0  0  0  0  0  0  0  0  0  0
   10.5705   -5.6426    0.0000 C   0  0  0  0  0  0  0  0  0  0  0  0
   11.2853   -4.4388    0.0000 C   0  0  0  0  0  0  0  0  0  0  0  0
  1 10  1  0  0  0  0
  2 23  2  0  0  0  0
  3 31  1  0  0  0  0
  3 32  1  0  0  0  0
  4  5  1  0  0  0  0
  4 10  1  0  0  0  0
  4 12  1  0  0  0  0
  5 13  2  0  0  0  0
  6 12  2  0  0  0  0
  6 20  1  0  0  0  0
  7 23  1  0  0  0  0
  7 26  1  0  0  0  0
  8 25  3  0  0  0  0
  9 10  2  0  0  0  0
  9 11  1  0  0  0  0
  9 13  1  0  0  0  0
 11 14  1  0  0  0  0
 11 15  2  0  0  0  0
 12 16  1  0  0  0  0
 14 18  2  0  0  0  0
 14 24  1  0  0  0  0
 15 22  1  0  0  0  0
 16 21  2  0  0  0  0
 17 20  2  0  0  0  0
 17 21  1  0  0  0  0
 17 23  1  0  0  0  0
 18 19  1  0  0  0  0
 19 22  2  0  0  0  0
 19 25  1  0  0  0  0
 26 27  1  0  0  0  0
 27 28  1  0  0  0  0
 28 29  1  0  0  0  0
 28 30  1  0  0  0  0
 29 31  1  0  0  0  0
 30 32  1  0  0  0  0
M  END
> <PUBCHEM_COMPOUND_ID_TYPE>
0

> <PUBCHEM_TOTAL_CHARGE>
0

> <PUBCHEM_SUBSTANCE_ID>
310932809

> <PUBCHEM_SUBSTANCE_VERSION>
1

> <PUBCHEM_EXT_DATASOURCE_NAME>
4488

> <PUBCHEM_EXT_DATASOURCE_REGID>
SCHEMBL16110197

> <PUBCHEM_SUBSTANCE_COMMENT>
InChI=1S/C24H25N5O3/c1-16-12-18(13-25)2-4-20(16)21-15-28-29(24(21)31)22-5-3-19(14-27-22)23(30)26-9-6-17-7-10-32-11-8-17/h2-5,12,14-15,17,31H,6-11H2,1H3,(H,26,30)
InChIKey=XYUMGRDQEDSCQA-UHFFFAOYSA-N

> <PUBCHEM_SUBSTANCE_SYNONYM>
SCHEMBL16110197

> <PUBCHEM_XREF_EXT_ID>
SCHEMBL16110197

> <PUBCHEM_EXT_DATASOURCE_URL>
https://www.surechembl.org/

> <PUBCHEM_EXT_SUBSTANCE_URL>
https://www.surechembl.org/chemical/SCHEMBL16110197

> <PUBCHEM_CID_ASSOCIATIONS>
117601299  1

> <PUBCHEM_COORDINATE_TYPE>
1
3

$$$$
