310945222
  -OEChem-07211613022D

 34 37  0     1  0  0  0  0  0999 V2000
   -0.6337   -1.6999    0.0000 S   0  0  0  0  0  0  0  0  0  0  0  0
    1.0159   -1.7803    0.0000 O   0  0  0  0  0  0  0  0  0  0  0  0
   -2.4844    0.5934    0.0000 O   0  0  0  0  0  0  0  0  0  0  0  0
    2.8062   -0.2313    0.0000 O   0  0  0  0  0  0  0  0  0  0  0  0
   -1.7199    1.8205    0.0000 O   0  0  0  0  0  0  0  0  0  0  0  0
    2.0217   -1.4584    0.0000 O   0  0  0  0  0  0  0  0  0  0  0  0
   -0.4325    0.4727    0.0000 N   0  0  0  0  0  0  0  0  0  0  0  0
    1.2170   -0.4124    0.0000 N   0  0  0  0  0  0  0  0  0  0  0  0
   -3.5908   -0.1911    0.0000 N   0  0  0  0  0  0  0  0  0  0  0  0
   -0.6739   -0.3520    0.0000 C   0  0  0  0  0  0  0  0  0  0  0  0
   -1.4182   -0.5934    0.0000 C   0  0  0  0  0  0  0  0  0  0  0  0
   -0.1710   -1.0159    0.0000 C   0  0  0  0  0  0  0  0  0  0  0  0
   -1.4384   -1.4182    0.0000 C   0  0  0  0  0  0  0  0  0  0  0  0
   -2.1424   -0.1911    0.0000 C   0  0  0  0  0  0  0  0  0  0  0  0
    0.6739   -1.0360    0.0000 C   0  0  0  0  0  0  0  0  0  0  0  0
   -2.8464   -0.5934    0.0000 C   0  0  0  0  0  0  0  0  0  0  0  0
    1.0561    0.4124    0.0000 C   0  0  3  0  0  0  0  0  0  0  0  0
    0.2917    0.7946    0.0000 C   0  0  0  0  0  0  0  0  0  0  0  0
   -2.1424   -1.8205    0.0000 C   0  0  0  0  0  0  0  0  0  0  0  0
   -1.7199    1.0159    0.0000 C   0  0  0  0  0  0  0  0  0  0  0  0
   -2.8464   -1.4182    0.0000 C   0  0  0  0  0  0  0  0  0  0  0  0
    2.0217   -0.6337    0.0000 C   0  0  0  0  0  0  0  0  0  0  0  0
   -2.1424    0.6337    0.0000 C   0  0  0  0  0  0  0  0  0  0  0  0
   -2.8666    1.0561    0.0000 C   0  0  0  0  0  0  0  0  0  0  0  0
    1.7401    0.8952    0.0000 C   0  0  0  0  0  0  0  0  0  0  0  0
   -3.5706    0.6538    0.0000 C   0  0  0  0  0  0  0  0  0  0  0  0
   -2.5045   -0.2715    0.0000 C   0  0  0  0  0  0  0  0  0  0  0  0
    2.8264    0.6337    0.0000 C   0  0  0  0  0  0  0  0  0  0  0  0
   -3.2689   -0.3118    0.0000 C   0  0  0  0  0  0  0  0  0  0  0  0
   -1.7199   -0.2715    0.0000 C   0  0  0  0  0  0  0  0  0  0  0  0
   -2.4844   -1.1165    0.0000 C   0  0  0  0  0  0  0  0  0  0  0  0
    3.5908    0.6739    0.0000 C   0  0  0  0  0  0  0  0  0  0  0  0
    2.0217    0.6337    0.0000 C   0  0  0  0  0  0  0  0  0  0  0  0
    2.8062    1.4785    0.0000 C   0  0  0  0  0  0  0  0  0  0  0  0
  1 12  1  0  0  0  0
  1 13  1  0  0  0  0
  2 15  2  0  0  0  0
  3 20  1  0  0  0  0
  3 27  1  0  0  0  0
  4 22  1  0  0  0  0
  4 28  1  0  0  0  0
  5 20  2  0  0  0  0
  6 22  2  0  0  0  0
  7 10  1  0  0  0  0
  7 18  1  0  0  0  0
  7 20  1  0  0  0  0
  8 15  1  0  0  0  0
  8 17  1  0  0  0  0
  8 22  1  0  0  0  0
  9 16  2  0  0  0  0
  9 26  1  0  0  0  0
 10 11  1  0  0  0  0
 10 12  2  0  0  0  0
 11 13  2  0  0  0  0
 11 14  1  0  0  0  0
 12 15  1  0  0  0  0
 13 19  1  0  0  0  0
 14 16  1  0  0  0  0
 14 23  2  0  0  0  0
 16 21  1  0  0  0  0
 17 18  1  0  0  0  0
 17 25  1  1  0  0  0
 19 21  2  0  0  0  0
 23 24  1  0  0  0  0
 24 26  2  0  0  0  0
 27 29  1  0  0  0  0
 27 30  1  0  0  0  0
 27 31  1  0  0  0  0
 28 32  1  0  0  0  0
 28 33  1  0  0  0  0
 28 34  1  0  0  0  0
M  END
> <PUBCHEM_COMPOUND_ID_TYPE>
0

> <PUBCHEM_TOTAL_CHARGE>
0

> <PUBCHEM_SUBSTANCE_ID>
310945222

> <PUBCHEM_SUBSTANCE_VERSION>
1

> <PUBCHEM_EXT_DATASOURCE_NAME>
4488

> <PUBCHEM_EXT_DATASOURCE_REGID>
SCHEMBL16123312

> <PUBCHEM_SUBSTANCE_COMMENT>
InChI=1S/C25H29N3O5S/c1-14-13-27(22(30)32-24(2,3)4)19-18-15-9-8-12-26-16(15)10-11-17(18)34-20(19)21(29)28(14)23(31)33-25(5,6)7/h8-12,14H,13H2,1-7H3/t14-/m1/s1
InChIKey=UAALNWUICZUDDM-CQSZACIVSA-N

> <PUBCHEM_SUBSTANCE_SYNONYM>
SCHEMBL16123312

> <PUBCHEM_XREF_EXT_ID>
SCHEMBL16123312

> <PUBCHEM_EXT_DATASOURCE_URL>
https://www.surechembl.org/

> <PUBCHEM_EXT_SUBSTANCE_URL>
https://www.surechembl.org/chemical/SCHEMBL16123312

> <PUBCHEM_CID_ASSOCIATIONS>
117611296  1

> <PUBCHEM_COORDINATE_TYPE>
1
3

> <PUBCHEM_BONDANNOTATIONS>
17  25  5

$$$$
