310933346
  -OEChem-07211613022D

 17 18  0     0  0  0  0  0  0999 V2000
    3.7459   -2.8595    0.0000 I   0  0  0  0  0  0  0  0  0  0  0  0
    0.0000   -1.0200    0.0000 O   0  0  0  0  0  0  0  0  0  0  0  0
    0.0000   -1.8562    0.0000 N   0  0  0  0  0  0  0  0  0  0  0  0
    4.5987   -1.4381    0.0000 N   0  0  0  0  0  0  0  0  0  0  0  0
    3.7459   -0.0167    0.0000 N   0  0  0  0  0  0  0  0  0  0  0  0
    1.2709   -1.4381    0.0000 C   0  0  0  0  0  0  0  0  0  0  0  0
    2.0903   -1.4381    0.0000 C   0  0  0  0  0  0  0  0  0  0  0  0
    0.7693   -0.7860    0.0000 C   0  0  0  0  0  0  0  0  0  0  0  0
    0.7860   -2.0903    0.0000 C   0  0  0  0  0  0  0  0  0  0  0  0
    3.7792   -1.4381    0.0000 C   0  0  0  0  0  0  0  0  0  0  0  0
    3.3445   -2.1405    0.0000 C   0  0  0  0  0  0  0  0  0  0  0  0
    3.3445   -0.7358    0.0000 C   0  0  0  0  0  0  0  0  0  0  0  0
    2.5251   -2.1405    0.0000 C   0  0  0  0  0  0  0  0  0  0  0  0
    2.5251   -0.7358    0.0000 C   0  0  0  0  0  0  0  0  0  0  0  0
    1.0200    0.0000    0.0000 C   0  0  0  0  0  0  0  0  0  0  0  0
    1.0368   -2.8763    0.0000 C   0  0  0  0  0  0  0  0  0  0  0  0
    5.0168   -2.1572    0.0000 C   0  0  0  0  0  0  0  0  0  0  0  0
  1 11  1  0  0  0  0
  2  3  1  0  0  0  0
  2  8  1  0  0  0  0
  3  9  2  0  0  0  0
  4 10  1  0  0  0  0
  4 17  1  0  0  0  0
  5 12  1  0  0  0  0
  6  7  1  0  0  0  0
  6  8  2  0  0  0  0
  6  9  1  0  0  0  0
  7 13  2  0  0  0  0
  7 14  1  0  0  0  0
  8 15  1  0  0  0  0
  9 16  1  0  0  0  0
 10 11  2  0  0  0  0
 10 12  1  0  0  0  0
 11 13  1  0  0  0  0
 12 14  2  0  0  0  0
M  END
> <PUBCHEM_COMPOUND_ID_TYPE>
0

> <PUBCHEM_TOTAL_CHARGE>
0

> <PUBCHEM_SUBSTANCE_ID>
310933346

> <PUBCHEM_SUBSTANCE_VERSION>
1

> <PUBCHEM_EXT_DATASOURCE_NAME>
4488

> <PUBCHEM_EXT_DATASOURCE_REGID>
SCHEMBL16110759

> <PUBCHEM_SUBSTANCE_COMMENT>
InChI=1S/C12H14IN3O/c1-6-11(7(2)17-16-6)8-4-9(13)12(15-3)10(14)5-8/h4-5,15H,14H2,1-3H3
InChIKey=CQMUGGFREDOFCM-UHFFFAOYSA-N

> <PUBCHEM_SUBSTANCE_SYNONYM>
SCHEMBL16110759

> <PUBCHEM_XREF_EXT_ID>
SCHEMBL16110759

> <PUBCHEM_EXT_DATASOURCE_URL>
https://www.surechembl.org/

> <PUBCHEM_EXT_SUBSTANCE_URL>
https://www.surechembl.org/chemical/SCHEMBL16110759

> <PUBCHEM_CID_ASSOCIATIONS>
117601757  1

> <PUBCHEM_COORDINATE_TYPE>
1
3

$$$$
