310948773
  -OEChem-07211613022D

 25 28  0     1  0  0  0  0  0999 V2000
   -0.4153   -2.5538    0.0000 O   0  0  0  0  0  0  0  0  0  0  0  0
    1.0935   -0.2145    0.0000 N   0  0  0  0  0  0  0  0  0  0  0  0
    1.5780   -0.8928    0.0000 N   0  0  0  0  0  0  0  0  0  0  0  0
   -1.1350   -1.3080    0.0000 N   0  0  0  0  0  0  0  0  0  0  0  0
    1.3565   -2.3462    0.0000 N   0  0  0  0  0  0  0  0  0  0  0  0
    3.2528   -0.4913    0.0000 N   0  0  0  0  0  0  0  0  0  0  0  0
    0.3183   -0.4775    0.0000 C   0  0  0  0  0  0  0  0  0  0  0  0
    1.8687    2.1524    0.0000 C   0  0  0  0  0  0  0  0  0  0  0  0
    0.2907   -1.2942    0.0000 C   0  0  0  0  0  0  0  0  0  0  0  0
    1.3426    0.5744    0.0000 C   0  0  3  0  0  0  0  0  0  0  0  0
    1.0935   -1.5572    0.0000 C   0  0  0  0  0  0  0  0  0  0  0  0
    2.1593    0.7405    0.0000 C   0  0  3  0  0  0  0  0  0  0  0  0
   -0.4153   -1.7095    0.0000 C   0  0  0  0  0  0  0  0  0  0  0  0
    2.4085    1.5434    0.0000 C   0  0  0  0  0  0  0  0  0  0  0  0
    1.7026    2.9413    0.0000 C   0  0  0  0  0  0  0  0  0  0  0  0
    2.4638    2.6922    0.0000 C   0  0  0  0  0  0  0  0  0  0  0  0
    1.0658    1.9586    0.0000 C   0  0  0  0  0  0  0  0  0  0  0  0
    0.8028    1.1835    0.0000 C   0  0  0  0  0  0  0  0  0  0  0  0
   -0.4291   -0.0623    0.0000 C   0  0  0  0  0  0  0  0  0  0  0  0
   -1.1350   -0.4775    0.0000 C   0  0  0  0  0  0  0  0  0  0  0  0
    2.7130    0.1177    0.0000 C   0  0  0  0  0  0  0  0  0  0  0  0
   -1.1074   -2.9413    0.0000 C   0  0  0  0  0  0  0  0  0  0  0  0
   -1.8133   -2.5122    0.0000 C   0  0  0  0  0  0  0  0  0  0  0  0
   -2.5330   -2.9275    0.0000 C   0  0  0  0  0  0  0  0  0  0  0  0
   -3.2528   -2.4984    0.0000 C   0  0  0  0  0  0  0  0  0  0  0  0
  1 13  1  0  0  0  0
  1 22  1  0  0  0  0
  2  3  1  0  0  0  0
  2  7  1  0  0  0  0
 10  2  1  6  0  0  0
  3 11  2  0  0  0  0
  4 13  2  0  0  0  0
  4 20  1  0  0  0  0
  5 11  1  0  0  0  0
  6 21  3  0  0  0  0
  7  9  2  0  0  0  0
  7 19  1  0  0  0  0
  8 14  1  0  0  0  0
  8 15  1  0  0  0  0
  8 16  1  0  0  0  0
  8 17  1  0  0  0  0
  9 11  1  0  0  0  0
  9 13  1  0  0  0  0
 10 12  1  0  0  0  0
 10 18  1  0  0  0  0
 12 14  1  0  0  0  0
 12 21  1  6  0  0  0
 15 16  1  0  0  0  0
 17 18  1  0  0  0  0
 19 20  2  0  0  0  0
 22 23  1  0  0  0  0
 23 24  1  0  0  0  0
 24 25  1  0  0  0  0
M  END
> <PUBCHEM_COMPOUND_ID_TYPE>
0

> <PUBCHEM_TOTAL_CHARGE>
0

> <PUBCHEM_SUBSTANCE_ID>
310948773

> <PUBCHEM_SUBSTANCE_VERSION>
1

> <PUBCHEM_EXT_DATASOURCE_NAME>
4488

> <PUBCHEM_EXT_DATASOURCE_REGID>
SCHEMBL16126957

> <PUBCHEM_SUBSTANCE_COMMENT>
InChI=1S/C19H25N5O/c1-2-3-10-25-18-16-15(5-9-22-18)24(23-17(16)21)14-4-6-19(7-8-19)11-13(14)12-20/h5,9,13-14H,2-4,6-8,10-11H2,1H3,(H2,21,23)/t13-,14-/m1/s1
InChIKey=YXMZQPLNXKBWDW-ZIAGYGMSSA-N

> <PUBCHEM_SUBSTANCE_SYNONYM>
SCHEMBL16126957

> <PUBCHEM_XREF_EXT_ID>
SCHEMBL16126957

> <PUBCHEM_EXT_DATASOURCE_URL>
https://www.surechembl.org/

> <PUBCHEM_EXT_SUBSTANCE_URL>
https://www.surechembl.org/chemical/SCHEMBL16126957

> <PUBCHEM_CID_ASSOCIATIONS>
117614315  1

> <PUBCHEM_COORDINATE_TYPE>
1
3

> <PUBCHEM_BONDANNOTATIONS>
12  21  6
10  2  6

$$$$
