310945814
  -OEChem-07211613022D

 20 19  0     1  0  0  0  0  0999 V2000
   -2.4990   -0.3154    0.0000 F   0  0  0  0  0  0  0  0  0  0  0  0
   -3.5827   -0.0404    0.0000 F   0  0  0  0  0  0  0  0  0  0  0  0
   -3.2915    1.0433    0.0000 F   0  0  0  0  0  0  0  0  0  0  0  0
   -2.5960    1.5123    0.0000 O   0  0  0  0  0  0  0  0  0  0  0  0
   -0.7359    1.6256    0.0000 O   0  0  0  0  0  0  0  0  0  0  0  0
    2.1431    0.8007    0.0000 O   0  0  0  0  0  0  0  0  0  0  0  0
    1.4152   -0.4610    0.0000 O   0  0  0  0  0  0  0  0  0  0  0  0
   -0.0242    0.3963    0.0000 N   0  0  0  0  0  0  0  0  0  0  0  0
   -2.1755    0.8168    0.0000 C   0  0  3  0  0  0  0  0  0  0  0  0
   -2.9033    0.3801    0.0000 C   0  0  0  0  0  0  0  0  0  0  0  0
   -1.4638    0.3801    0.0000 C   0  0  0  0  0  0  0  0  0  0  0  0
   -0.7359    0.7845    0.0000 C   0  0  0  0  0  0  0  0  0  0  0  0
   -1.7711    1.5285    0.0000 C   0  0  0  0  0  0  0  0  0  0  0  0
    0.7036    0.8007    0.0000 C   0  0  3  0  0  0  0  0  0  0  0  0
    1.4314    0.3963    0.0000 C   0  0  0  0  0  0  0  0  0  0  0  0
    0.7198    1.6094    0.0000 C   0  0  0  0  0  0  0  0  0  0  0  0
    2.8386    0.4124    0.0000 C   0  0  0  0  0  0  0  0  0  0  0  0
    2.8548   -0.4124    0.0000 C   0  0  0  0  0  0  0  0  0  0  0  0
    3.5827   -0.8007    0.0000 C   0  0  0  0  0  0  0  0  0  0  0  0
    3.5827   -1.6256    0.0000 C   0  0  0  0  0  0  0  0  0  0  0  0
  1 10  1  0  0  0  0
  2 10  1  0  0  0  0
  3 10  1  0  0  0  0
  4  9  1  0  0  0  0
  5 12  2  0  0  0  0
  6 15  1  0  0  0  0
  6 17  1  0  0  0  0
  7 15  2  0  0  0  0
  8 12  1  0  0  0  0
  8 14  1  0  0  0  0
  9 10  1  0  0  0  0
  9 11  1  0  0  0  0
  9 13  1  0  0  0  0
 11 12  1  0  0  0  0
 14 15  1  0  0  0  0
 14 16  1  6  0  0  0
 17 18  1  0  0  0  0
 18 19  1  0  0  0  0
 19 20  1  0  0  0  0
M  END
> <PUBCHEM_COMPOUND_ID_TYPE>
0

> <PUBCHEM_TOTAL_CHARGE>
0

> <PUBCHEM_SUBSTANCE_ID>
310945814

> <PUBCHEM_SUBSTANCE_VERSION>
1

> <PUBCHEM_EXT_DATASOURCE_NAME>
4488

> <PUBCHEM_EXT_DATASOURCE_REGID>
SCHEMBL16123918

> <PUBCHEM_SUBSTANCE_COMMENT>
InChI=1S/C12H20F3NO4/c1-4-5-6-20-10(18)8(2)16-9(17)7-11(3,19)12(13,14)15/h8,19H,4-7H2,1-3H3,(H,16,17)/t8-,11?/m1/s1
InChIKey=KSTOLTYKMPDILU-RZZZFEHKSA-N

> <PUBCHEM_SUBSTANCE_SYNONYM>
SCHEMBL16123918

> <PUBCHEM_XREF_EXT_ID>
SCHEMBL16123918

> <PUBCHEM_EXT_DATASOURCE_URL>
https://www.surechembl.org/

> <PUBCHEM_EXT_SUBSTANCE_URL>
https://www.surechembl.org/chemical/SCHEMBL16123918

> <PUBCHEM_CID_ASSOCIATIONS>
117611800  1

> <PUBCHEM_COORDINATE_TYPE>
1
3

> <PUBCHEM_BONDANNOTATIONS>
14  16  6

$$$$
