310949570
  -OEChem-07211613022D

 43 48  0     0  0  0  0  0  0999 V2000
   -1.4804   -0.6923    0.0000 O   0  0  0  0  0  0  0  0  0  0  0  0
    4.5001    0.2062    0.0000 O   0  0  0  0  0  0  0  0  0  0  0  0
    5.8111    0.6334    0.0000 O   0  0  0  0  0  0  0  0  0  0  0  0
    1.4804    0.3094    0.0000 N   0  0  0  0  0  0  0  0  0  0  0  0
   -2.1874    0.5598    0.0000 N   0  0  0  0  0  0  0  0  0  0  0  0
    1.9665    0.9722    0.0000 N   0  0  0  0  0  0  0  0  0  0  0  0
    0.6702    0.5744    0.0000 C   0  0  0  0  0  0  0  0  0  0  0  0
   -2.8945    0.1325    0.0000 C   0  0  0  0  0  0  0  0  0  0  0  0
    0.6997    1.3994    0.0000 C   0  0  0  0  0  0  0  0  0  0  0  0
   -0.7586    0.5598    0.0000 C   0  0  0  0  0  0  0  0  0  0  0  0
    1.4656    1.6351    0.0000 C   0  0  0  0  0  0  0  0  0  0  0  0
   -3.6310    0.5744    0.0000 C   0  0  0  0  0  0  0  0  0  0  0  0
   -0.0368    0.1473    0.0000 C   0  0  0  0  0  0  0  0  0  0  0  0
   -1.4656    0.1620    0.0000 C   0  0  0  0  0  0  0  0  0  0  0  0
   -0.0516    1.7824    0.0000 C   0  0  0  0  0  0  0  0  0  0  0  0
   -0.7439    1.3847    0.0000 C   0  0  0  0  0  0  0  0  0  0  0  0
   -3.5573   -0.3535    0.0000 C   0  0  0  0  0  0  0  0  0  0  0  0
   -2.2464   -0.3535    0.0000 C   0  0  0  0  0  0  0  0  0  0  0  0
    1.6866   -0.4861    0.0000 C   0  0  0  0  0  0  0  0  0  0  0  0
   -4.3381    0.1473    0.0000 C   0  0  0  0  0  0  0  0  0  0  0  0
    2.4821   -0.7071    0.0000 C   0  0  0  0  0  0  0  0  0  0  0  0
   -3.6310    1.3847    0.0000 C   0  0  0  0  0  0  0  0  0  0  0  0
   -3.3069   -1.1342    0.0000 C   0  0  0  0  0  0  0  0  0  0  0  0
   -2.4968   -1.1342    0.0000 C   0  0  0  0  0  0  0  0  0  0  0  0
   -5.0598    0.5598    0.0000 C   0  0  0  0  0  0  0  0  0  0  0  0
    4.0729   -1.1342    0.0000 C   0  0  0  0  0  0  0  0  0  0  0  0
    1.8781    2.3569    0.0000 C   0  0  0  0  0  0  0  0  0  0  0  0
    4.8831   -1.3552    0.0000 C   0  0  0  0  0  0  0  0  0  0  0  0
    2.7177   -1.5025    0.0000 C   0  0  0  0  0  0  0  0  0  0  0  0
    3.0712   -0.1473    0.0000 C   0  0  0  0  0  0  0  0  0  0  0  0
   -4.3381    1.7971    0.0000 C   0  0  0  0  0  0  0  0  0  0  0  0
   -5.0452    1.3847    0.0000 C   0  0  0  0  0  0  0  0  0  0  0  0
    5.4723   -0.7660    0.0000 C   0  0  0  0  0  0  0  0  0  0  0  0
    3.4984   -1.7234    0.0000 C   0  0  0  0  0  0  0  0  0  0  0  0
    3.8667   -0.3535    0.0000 C   0  0  0  0  0  0  0  0  0  0  0  0
   -5.7816    0.1473    0.0000 C   0  0  0  0  0  0  0  0  0  0  0  0
    5.1188   -2.1506    0.0000 C   0  0  0  0  0  0  0  0  0  0  0  0
    5.2514    0.0295    0.0000 C   0  0  0  0  0  0  0  0  0  0  0  0
    6.2677   -0.9870    0.0000 C   0  0  0  0  0  0  0  0  0  0  0  0
    5.9142   -2.3569    0.0000 C   0  0  0  0  0  0  0  0  0  0  0  0
    6.4887   -1.7824    0.0000 C   0  0  0  0  0  0  0  0  0  0  0  0
   -5.7669   -0.6776    0.0000 C   0  0  0  0  0  0  0  0  0  0  0  0
   -6.4887    0.5451    0.0000 C   0  0  0  0  0  0  0  0  0  0  0  0
  1 14  2  0  0  0  0
  2 38  2  0  0  0  0
  3 38  1  0  0  0  0
  4  6  1  0  0  0  0
  4  7  1  0  0  0  0
  4 19  1  0  0  0  0
  5  8  1  0  0  0  0
  5 14  1  0  0  0  0
  6 11  2  0  0  0  0
  7  9  1  0  0  0  0
  7 13  2  0  0  0  0
  8 12  1  0  0  0  0
  8 17  1  0  0  0  0
  8 18  1  0  0  0  0
  9 11  1  0  0  0  0
  9 15  2  0  0  0  0
 10 13  1  0  0  0  0
 10 14  1  0  0  0  0
 10 16  2  0  0  0  0
 11 27  1  0  0  0  0
 12 20  2  0  0  0  0
 12 22  1  0  0  0  0
 15 16  1  0  0  0  0
 17 23  1  0  0  0  0
 18 24  1  0  0  0  0
 19 21  1  0  0  0  0
 20 25  1  0  0  0  0
 21 29  2  0  0  0  0
 21 30  1  0  0  0  0
 22 31  2  0  0  0  0
 23 24  1  0  0  0  0
 25 32  2  0  0  0  0
 25 36  1  0  0  0  0
 26 28  1  0  0  0  0
 26 34  2  0  0  0  0
 26 35  1  0  0  0  0
 28 33  1  0  0  0  0
 28 37  2  0  0  0  0
 29 34  1  0  0  0  0
 30 35  2  0  0  0  0
 31 32  1  0  0  0  0
 33 38  1  0  0  0  0
 33 39  2  0  0  0  0
 36 42  1  0  0  0  0
 36 43  1  0  0  0  0
 37 40  1  0  0  0  0
 39 41  1  0  0  0  0
 40 41  2  0  0  0  0
M  END
> <PUBCHEM_COMPOUND_ID_TYPE>
0

> <PUBCHEM_TOTAL_CHARGE>
0

> <PUBCHEM_SUBSTANCE_ID>
310949570

> <PUBCHEM_SUBSTANCE_VERSION>
1

> <PUBCHEM_EXT_DATASOURCE_NAME>
4488

> <PUBCHEM_EXT_DATASOURCE_REGID>
SCHEMBL16127766

> <PUBCHEM_SUBSTANCE_COMMENT>
InChI=1S/C37H37N3O3/c1-24(2)28-9-8-10-30(21-28)37(19-6-7-20-37)38-35(41)29-17-18-31-25(3)39-40(34(31)22-29)23-26-13-15-27(16-14-26)32-11-4-5-12-33(32)36(42)43/h4-5,8-18,21-22,24H,6-7,19-20,23H2,1-3H3,(H,38,41)(H,42,43)
InChIKey=JYELZYJPBXUTDY-UHFFFAOYSA-N

> <PUBCHEM_SUBSTANCE_SYNONYM>
SCHEMBL16127766

> <PUBCHEM_XREF_EXT_ID>
SCHEMBL16127766

> <PUBCHEM_EXT_DATASOURCE_URL>
https://www.surechembl.org/

> <PUBCHEM_EXT_SUBSTANCE_URL>
https://www.surechembl.org/chemical/SCHEMBL16127766

> <PUBCHEM_CID_ASSOCIATIONS>
71578142  1

> <PUBCHEM_COORDINATE_TYPE>
1
3

$$$$
