310933667
  -OEChem-07211613022D

 34 38  0     0  0  0  0  0  0999 V2000
    5.2877    0.0281    0.0000 O   0  0  0  0  0  0  0  0  0  0  0  0
    2.1015   -2.4082    0.0000 O   0  0  0  0  0  0  0  0  0  0  0  0
   -2.1434   -0.8250    0.0000 O   0  0  0  0  0  0  0  0  0  0  0  0
    4.0546    0.8288    0.0000 N   0  0  0  0  0  0  0  0  0  0  0  0
    3.8832    1.6357    0.0000 N   0  0  0  0  0  0  0  0  0  0  0  0
    3.7576   -0.5690    0.0000 N   0  0  0  0  0  0  0  0  0  0  0  0
    1.0396   -1.4521    0.0000 N   0  0  0  0  0  0  0  0  0  0  0  0
    9.2455    2.3538    0.0000 N   0  0  0  0  0  0  0  0  0  0  0  0
    4.8752    0.7426    0.0000 C   0  0  0  0  0  0  0  0  0  0  0  0
    5.2107    1.4963    0.0000 C   0  0  0  0  0  0  0  0  0  0  0  0
    3.5027    0.2157    0.0000 C   0  0  0  0  0  0  0  0  0  0  0  0
    0.0000   -0.4125    0.0000 C   0  0  0  0  0  0  0  0  0  0  0  0
    0.7846   -0.6674    0.0000 C   0  0  0  0  0  0  0  0  0  0  0  0
    6.0177    1.6677    0.0000 C   0  0  0  0  0  0  0  0  0  0  0  0
    0.0000    0.4125    0.0000 C   0  0  0  0  0  0  0  0  0  0  0  0
    4.5976    2.0482    0.0000 C   0  0  0  0  0  0  0  0  0  0  0  0
    2.3986   -1.0105    0.0000 C   0  0  0  0  0  0  0  0  0  0  0  0
    1.8465   -1.6236    0.0000 C   0  0  0  0  0  0  0  0  0  0  0  0
    2.6957    0.3872    0.0000 C   0  0  0  0  0  0  0  0  0  0  0  0
    1.2696    0.0000    0.0000 C   0  0  0  0  0  0  0  0  0  0  0  0
   -0.7144   -0.8250    0.0000 C   0  0  0  0  0  0  0  0  0  0  0  0
    0.7846    0.6674    0.0000 C   0  0  0  0  0  0  0  0  0  0  0  0
    3.2055   -1.1820    0.0000 C   0  0  0  0  0  0  0  0  0  0  0  0
    2.1436   -0.2259    0.0000 C   0  0  0  0  0  0  0  0  0  0  0  0
   -1.4290   -0.4125    0.0000 C   0  0  0  0  0  0  0  0  0  0  0  0
   -0.7144    0.8250    0.0000 C   0  0  0  0  0  0  0  0  0  0  0  0
    6.5697    1.0546    0.0000 C   0  0  0  0  0  0  0  0  0  0  0  0
    6.2726    2.4524    0.0000 C   0  0  0  0  0  0  0  0  0  0  0  0
   -1.4290    0.4125    0.0000 C   0  0  0  0  0  0  0  0  0  0  0  0
    7.6316    2.0108    0.0000 C   0  0  0  0  0  0  0  0  0  0  0  0
    7.3767    1.2262    0.0000 C   0  0  0  0  0  0  0  0  0  0  0  0
    7.0796    2.6239    0.0000 C   0  0  0  0  0  0  0  0  0  0  0  0
    8.4386    2.1824    0.0000 C   0  0  0  0  0  0  0  0  0  0  0  0
   -2.8579   -0.4125    0.0000 C   0  0  0  0  0  0  0  0  0  0  0  0
  1  9  1  0  0  0  0
  2 18  2  0  0  0  0
  3 25  1  0  0  0  0
  3 34  1  0  0  0  0
  4  5  1  0  0  0  0
  4  9  1  0  0  0  0
  4 11  1  0  0  0  0
  5 16  2  0  0  0  0
  6 11  2  0  0  0  0
  6 23  1  0  0  0  0
  7 13  1  0  0  0  0
  7 18  1  0  0  0  0
  8 33  3  0  0  0  0
  9 10  2  0  0  0  0
 10 14  1  0  0  0  0
 10 16  1  0  0  0  0
 11 19  1  0  0  0  0
 12 13  2  0  0  0  0
 12 15  1  0  0  0  0
 12 21  1  0  0  0  0
 13 20  1  0  0  0  0
 14 27  2  0  0  0  0
 14 28  1  0  0  0  0
 15 22  1  0  0  0  0
 15 26  2  0  0  0  0
 17 18  1  0  0  0  0
 17 23  2  0  0  0  0
 17 24  1  0  0  0  0
 19 24  2  0  0  0  0
 20 22  1  0  0  0  0
 21 25  1  0  0  0  0
 25 29  2  0  0  0  0
 26 29  1  0  0  0  0
 27 31  1  0  0  0  0
 28 32  2  0  0  0  0
 30 31  2  0  0  0  0
 30 32  1  0  0  0  0
 30 33  1  0  0  0  0
M  END
> <PUBCHEM_COMPOUND_ID_TYPE>
0

> <PUBCHEM_TOTAL_CHARGE>
0

> <PUBCHEM_SUBSTANCE_ID>
310933667

> <PUBCHEM_SUBSTANCE_VERSION>
1

> <PUBCHEM_EXT_DATASOURCE_NAME>
4488

> <PUBCHEM_EXT_DATASOURCE_REGID>
SCHEMBL16111100

> <PUBCHEM_SUBSTANCE_COMMENT>
InChI=1S/C26H21N5O3/c1-34-20-9-6-17-7-10-23(21(17)12-20)30-25(32)19-8-11-24(28-14-19)31-26(33)22(15-29-31)18-4-2-16(13-27)3-5-18/h2-6,8-9,11,14-15,33H,7,10,12H2,1H3,(H,30,32)
InChIKey=VUJQUWBOWGARFK-UHFFFAOYSA-N

> <PUBCHEM_SUBSTANCE_SYNONYM>
SCHEMBL16111100

> <PUBCHEM_XREF_EXT_ID>
SCHEMBL16111100

> <PUBCHEM_EXT_DATASOURCE_URL>
https://www.surechembl.org/

> <PUBCHEM_EXT_SUBSTANCE_URL>
https://www.surechembl.org/chemical/SCHEMBL16111100

> <PUBCHEM_CID_ASSOCIATIONS>
117602037  1

> <PUBCHEM_COORDINATE_TYPE>
1
3

$$$$
