310935046
  -OEChem-07211613022D

 55 60  0     1  0  0  0  0  0999 V2000
  -14.9348    2.5072    0.0000 I   0  0  0  0  0  0  0  0  0  0  0  0
  -14.9348    0.8572    0.0000 Cl  0  0  0  0  0  0  0  0  0  0  0  0
    1.1931    2.5859    0.0000 O   0  0  0  0  0  0  0  0  0  0  0  0
    0.5639    4.6259    0.0000 O   0  0  0  0  0  0  0  0  0  0  0  0
   -0.7700    3.4249    0.0000 O   0  0  0  0  0  0  0  0  0  0  0  0
    4.8435    4.1651    0.0000 O   0  0  0  0  0  0  0  0  0  0  0  0
   -0.3494   -0.1387    0.0000 O   0  0  0  0  0  0  0  0  0  0  0  0
   -2.2733   -0.6542    0.0000 O   0  0  0  0  0  0  0  0  0  0  0  0
  -12.0769    0.8572    0.0000 O   0  0  0  0  0  0  0  0  0  0  0  0
  -10.6480    3.3322    0.0000 O   0  0  0  0  0  0  0  0  0  0  0  0
   -5.6467    2.0947    0.0000 O   0  0  0  0  0  0  0  0  0  0  0  0
    2.1182    3.7285    0.0000 N   0  0  0  0  0  0  0  0  0  0  0  0
    3.1102    4.6217    0.0000 N   0  0  0  0  0  0  0  0  0  0  0  0
    3.0042    2.5090    0.0000 N   0  0  0  0  0  0  0  0  0  0  0  0
    4.4020    2.8061    0.0000 N   0  0  0  0  0  0  0  0  0  0  0  0
   -0.8650    1.7852    0.0000 N   0  0  0  0  0  0  0  0  0  0  0  0
   -2.7888    1.2697    0.0000 N   0  0  0  0  0  0  0  0  0  0  0  0
    3.9604    1.4471    0.0000 N   0  0  0  0  0  0  0  0  0  0  0  0
  -12.0769    2.5072    0.0000 N   0  0  0  0  0  0  0  0  0  0  0  0
   -4.9322    0.8572    0.0000 N   0  0  0  0  0  0  0  0  0  0  0  0
   -9.9335    2.0947    0.0000 N   0  0  0  0  0  0  0  0  0  0  0  0
   -8.5046    1.2697    0.0000 N   0  0  0  0  0  0  0  0  0  0  0  0
    1.3645    3.3929    0.0000 C   0  0  3  0  0  0  0  0  0  0  0  0
    2.8327    3.3160    0.0000 C   0  0  0  0  0  0  0  0  0  0  0  0
    3.4458    3.8680    0.0000 C   0  0  0  0  0  0  0  0  0  0  0  0
    0.6501    3.8054    0.0000 C   0  0  3  0  0  0  0  0  0  0  0  0
    0.3725    2.4997    0.0000 C   0  0  3  0  0  0  0  0  0  0  0  0
    0.0370    3.2534    0.0000 C   0  0  3  0  0  0  0  0  0  0  0  0
    2.2898    4.5354    0.0000 C   0  0  0  0  0  0  0  0  0  0  0  0
    4.2304    3.6130    0.0000 C   0  0  0  0  0  0  0  0  0  0  0  0
   -1.2775    1.0707    0.0000 C   0  0  0  0  0  0  0  0  0  0  0  0
   -2.0743    0.8572    0.0000 C   0  0  0  0  0  0  0  0  0  0  0  0
   -1.0639    0.2738    0.0000 C   0  0  0  0  0  0  0  0  0  0  0  0
   -1.8608    0.0603    0.0000 C   0  0  0  0  0  0  0  0  0  0  0  0
    3.7889    2.2540    0.0000 C   0  0  0  0  0  0  0  0  0  0  0  0
   -0.0400    1.7852    0.0000 C   0  0  0  0  0  0  0  0  0  0  0  0
   -3.5032    0.8572    0.0000 C   0  0  0  0  0  0  0  0  0  0  0  0
   -4.2178    1.2697    0.0000 C   0  0  0  0  0  0  0  0  0  0  0  0
  -12.7914    2.0947    0.0000 C   0  0  0  0  0  0  0  0  0  0  0  0
  -12.7914    1.2697    0.0000 C   0  0  0  0  0  0  0  0  0  0  0  0
  -14.2203    2.0947    0.0000 C   0  0  0  0  0  0  0  0  0  0  0  0
  -14.2203    1.2697    0.0000 C   0  0  0  0  0  0  0  0  0  0  0  0
  -13.5058    2.5072    0.0000 C   0  0  0  0  0  0  0  0  0  0  0  0
  -13.5058    0.8572    0.0000 C   0  0  0  0  0  0  0  0  0  0  0  0
  -10.6480    2.5072    0.0000 C   0  0  0  0  0  0  0  0  0  0  0  0
  -11.3624    2.0947    0.0000 C   0  0  0  0  0  0  0  0  0  0  0  0
   -5.6467    1.2697    0.0000 C   0  0  0  0  0  0  0  0  0  0  0  0
   -9.9335    1.2697    0.0000 C   0  0  0  0  0  0  0  0  0  0  0  0
   -9.2190    2.5072    0.0000 C   0  0  0  0  0  0  0  0  0  0  0  0
   -9.2190    0.8572    0.0000 C   0  0  0  0  0  0  0  0  0  0  0  0
   -8.5046    2.0947    0.0000 C   0  0  0  0  0  0  0  0  0  0  0  0
   -6.3612    0.8572    0.0000 C   0  0  0  0  0  0  0  0  0  0  0  0
   -7.7901    0.8572    0.0000 C   0  0  0  0  0  0  0  0  0  0  0  0
   -7.0756    1.2697    0.0000 C   0  0  0  0  0  0  0  0  0  0  0  0
  -11.3624    1.2697    0.0000 C   0  0  0  0  0  0  0  0  0  0  0  0
  1 41  1  0  0  0  0
  2 42  1  0  0  0  0
 23  3  1  6  0  0  0
  3 27  1  0  0  0  0
  4 26  1  0  0  0  0
  5 28  1  0  0  0  0
  6 30  2  0  0  0  0
  7 33  2  0  0  0  0
  8 34  2  0  0  0  0
  9 40  1  0  0  0  0
  9 55  1  0  0  0  0
 10 45  2  0  0  0  0
 11 47  2  0  0  0  0
 12 23  1  0  0  0  0
 12 24  1  0  0  0  0
 12 29  1  0  0  0  0
 13 25  1  0  0  0  0
 13 29  2  0  0  0  0
 14 24  1  0  0  0  0
 14 35  2  0  0  0  0
 15 30  1  0  0  0  0
 15 35  1  0  0  0  0
 16 31  1  0  0  0  0
 16 36  1  0  0  0  0
 17 32  1  0  0  0  0
 17 37  1  0  0  0  0
 18 35  1  0  0  0  0
 19 39  1  0  0  0  0
 19 46  1  0  0  0  0
 20 38  1  0  0  0  0
 20 47  1  0  0  0  0
 21 45  1  0  0  0  0
 21 48  1  0  0  0  0
 21 49  1  0  0  0  0
 22 50  1  0  0  0  0
 22 51  1  0  0  0  0
 22 53  1  0  0  0  0
 23 26  1  0  0  0  0
 24 25  2  0  0  0  0
 25 30  1  0  0  0  0
 26 28  1  0  0  0  0
 27 28  1  0  0  0  0
 27 36  1  6  0  0  0
 31 32  2  0  0  0  0
 31 33  1  0  0  0  0
 32 34  1  0  0  0  0
 33 34  1  0  0  0  0
 37 38  1  0  0  0  0
 39 40  1  0  0  0  0
 39 43  2  0  0  0  0
 40 44  2  0  0  0  0
 41 42  2  0  0  0  0
 41 43  1  0  0  0  0
 42 44  1  0  0  0  0
 45 46  1  0  0  0  0
 47 52  1  0  0  0  0
 48 50  1  0  0  0  0
 49 51  1  0  0  0  0
 52 54  2  0  0  0  0
 53 54  1  0  0  0  0
M  END
> <PUBCHEM_COMPOUND_ID_TYPE>
0

> <PUBCHEM_TOTAL_CHARGE>
0

> <PUBCHEM_SUBSTANCE_ID>
310935046

> <PUBCHEM_SUBSTANCE_VERSION>
1

> <PUBCHEM_EXT_DATASOURCE_NAME>
4488

> <PUBCHEM_EXT_DATASOURCE_REGID>
SCHEMBL16112566

> <PUBCHEM_SUBSTANCE_COMMENT>
InChI=1S/C33H39ClIN11O9/c1-54-19-11-16(34)17(35)12-18(19)39-14-22(48)45-9-7-44(8-10-45)6-2-3-21(47)37-4-5-38-23-24(28(51)27(23)50)40-13-20-26(49)29(52)32(55-20)46-15-41-25-30(46)42-33(36)43-31(25)53/h2-3,11-12,15,20,26,29,32,38-40,49,52H,4-10,13-14H2,1H3,(H,37,47)(H3,36,42,43,53)/b3-2+/t20-,26?,29?,32-/m1/s1
InChIKey=IKNMWDVVHYPYJP-KNAVMDAKSA-N

> <PUBCHEM_SUBSTANCE_SYNONYM>
SCHEMBL16112566

> <PUBCHEM_XREF_EXT_ID>
SCHEMBL16112566

> <PUBCHEM_EXT_DATASOURCE_URL>
https://www.surechembl.org/

> <PUBCHEM_EXT_SUBSTANCE_URL>
https://www.surechembl.org/chemical/SCHEMBL16112566

> <PUBCHEM_CID_ASSOCIATIONS>
117603150  1

> <PUBCHEM_COORDINATE_TYPE>
1
3

> <PUBCHEM_BONDANNOTATIONS>
27  36  6
23  3  6

$$$$
