310931526
  -OEChem-07211613022D

 19 21  0     0  0  0  0  0  0999 V2000
    2.3055   -3.7242    0.0000 O   0  0  0  0  0  0  0  0  0  0  0  0
    1.5739   -1.6404    0.0000 O   0  0  0  0  0  0  0  0  0  0  0  0
    5.9188    0.0000    0.0000 N   0  0  0  0  0  0  0  0  0  0  0  0
    2.3055   -2.9040    0.0000 C   0  0  0  0  0  0  0  0  0  0  0  0
    1.5739   -2.4828    0.0000 C   0  0  0  0  0  0  0  0  0  0  0  0
    0.8424   -2.9040    0.0000 C   0  0  0  0  0  0  0  0  0  0  0  0
    3.0148   -2.4828    0.0000 C   0  0  0  0  0  0  0  0  0  0  0  0
    4.4557   -1.6404    0.0000 C   0  0  0  0  0  0  0  0  0  0  0  0
    5.1873   -1.2193    0.0000 C   0  0  0  0  0  0  0  0  0  0  0  0
    0.4434   -3.5912    0.0000 C   0  0  0  0  0  0  0  0  0  0  0  0
    0.0000   -2.9040    0.0000 C   0  0  0  0  0  0  0  0  0  0  0  0
    3.0370   -1.6404    0.0000 C   0  0  0  0  0  0  0  0  0  0  0  0
    3.7464   -2.8818    0.0000 C   0  0  0  0  0  0  0  0  0  0  0  0
    3.7464   -1.2193    0.0000 C   0  0  0  0  0  0  0  0  0  0  0  0
    4.4557   -2.4828    0.0000 C   0  0  0  0  0  0  0  0  0  0  0  0
    5.2095   -0.3990    0.0000 C   0  0  0  0  0  0  0  0  0  0  0  0
    5.9188   -1.6404    0.0000 C   0  0  0  0  0  0  0  0  0  0  0  0
    6.6282   -1.2193    0.0000 C   0  0  0  0  0  0  0  0  0  0  0  0
    6.6504   -0.3990    0.0000 C   0  0  0  0  0  0  0  0  0  0  0  0
  1  4  2  0  0  0  0
  2  5  2  0  0  0  0
  3 16  1  0  0  0  0
  3 19  2  0  0  0  0
  4  5  1  0  0  0  0
  4  7  1  0  0  0  0
  5  6  1  0  0  0  0
  6 10  1  0  0  0  0
  6 11  1  0  0  0  0
  7 12  2  0  0  0  0
  7 13  1  0  0  0  0
  8  9  1  0  0  0  0
  8 14  2  0  0  0  0
  8 15  1  0  0  0  0
  9 16  2  0  0  0  0
  9 17  1  0  0  0  0
 10 11  1  0  0  0  0
 12 14  1  0  0  0  0
 13 15  2  0  0  0  0
 17 18  2  0  0  0  0
 18 19  1  0  0  0  0
M  END
> <PUBCHEM_COMPOUND_ID_TYPE>
0

> <PUBCHEM_TOTAL_CHARGE>
0

> <PUBCHEM_SUBSTANCE_ID>
310931526

> <PUBCHEM_SUBSTANCE_VERSION>
1

> <PUBCHEM_EXT_DATASOURCE_NAME>
4488

> <PUBCHEM_EXT_DATASOURCE_REGID>
SCHEMBL16108852

> <PUBCHEM_SUBSTANCE_COMMENT>
InChI=1S/C16H13NO2/c18-15(16(19)13-7-8-13)12-5-3-11(4-6-12)14-2-1-9-17-10-14/h1-6,9-10,13H,7-8H2
InChIKey=ZDJXOJBJRQATGE-UHFFFAOYSA-N

> <PUBCHEM_SUBSTANCE_SYNONYM>
SCHEMBL16108852

> <PUBCHEM_XREF_EXT_ID>
SCHEMBL16108852

> <PUBCHEM_EXT_DATASOURCE_URL>
https://www.surechembl.org/

> <PUBCHEM_EXT_SUBSTANCE_URL>
https://www.surechembl.org/chemical/SCHEMBL16108852

> <PUBCHEM_CID_ASSOCIATIONS>
117600282  1

> <PUBCHEM_COORDINATE_TYPE>
1
3

$$$$
