310937665
  -OEChem-07211613022D

 20 23  0     0  0  0  0  0  0999 V2000
    3.5320   -1.9834    0.0000 O   0  0  0  0  0  0  0  0  0  0  0  0
    1.9290   -4.5373    0.0000 O   0  0  0  0  0  0  0  0  0  0  0  0
    1.1683   -2.5268    0.0000 N   0  0  0  0  0  0  0  0  0  0  0  0
    0.6792   -4.1569    0.0000 N   0  0  0  0  0  0  0  0  0  0  0  0
    1.4400   -5.2166    0.0000 N   0  0  0  0  0  0  0  0  0  0  0  0
    2.1736   -1.5758    0.0000 C   0  0  0  0  0  0  0  0  0  0  0  0
    2.7441   -2.1736    0.0000 C   0  0  0  0  0  0  0  0  0  0  0  0
    1.6845   -3.0973    0.0000 C   0  0  0  0  0  0  0  0  0  0  0  0
    2.4453   -0.7879    0.0000 C   0  0  0  0  0  0  0  0  0  0  0  0
    1.4400   -3.8852    0.0000 C   0  0  0  0  0  0  0  0  0  0  0  0
    2.4996   -2.9615    0.0000 C   0  0  0  0  0  0  0  0  0  0  0  0
    1.3857   -1.7388    0.0000 C   0  0  0  0  0  0  0  0  0  0  0  0
    2.2823    0.0000    0.0000 C   0  0  0  0  0  0  0  0  0  0  0  0
    3.0702   -0.2445    0.0000 C   0  0  0  0  0  0  0  0  0  0  0  0
    0.6792   -4.9448    0.0000 C   0  0  0  0  0  0  0  0  0  0  0  0
    4.5645   -1.0053    0.0000 C   0  0  0  0  0  0  0  0  0  0  0  0
    3.7494   -1.1955    0.0000 C   0  0  0  0  0  0  0  0  0  0  0  0
    5.1350   -0.4619    0.0000 C   0  0  0  0  0  0  0  0  0  0  0  0
    5.3524   -1.2498    0.0000 C   0  0  0  0  0  0  0  0  0  0  0  0
    0.0000   -5.4339    0.0000 C   0  0  0  0  0  0  0  0  0  0  0  0
  1  7  1  0  0  0  0
  1 17  1  0  0  0  0
  2  5  1  0  0  0  0
  2 10  1  0  0  0  0
  3  8  1  0  0  0  0
  3 12  2  0  0  0  0
  4 10  2  0  0  0  0
  4 15  1  0  0  0  0
  5 15  2  0  0  0  0
  6  7  2  0  0  0  0
  6  9  1  0  0  0  0
  6 12  1  0  0  0  0
  7 11  1  0  0  0  0
  8 10  1  0  0  0  0
  8 11  2  0  0  0  0
  9 13  1  0  0  0  0
  9 14  1  0  0  0  0
 13 14  1  0  0  0  0
 15 20  1  0  0  0  0
 16 17  1  0  0  0  0
 16 18  1  0  0  0  0
 16 19  1  0  0  0  0
 18 19  1  0  0  0  0
M  END
> <PUBCHEM_COMPOUND_ID_TYPE>
0

> <PUBCHEM_TOTAL_CHARGE>
0

> <PUBCHEM_SUBSTANCE_ID>
310937665

> <PUBCHEM_SUBSTANCE_VERSION>
1

> <PUBCHEM_EXT_DATASOURCE_NAME>
4488

> <PUBCHEM_EXT_DATASOURCE_REGID>
SCHEMBL16115455

> <PUBCHEM_SUBSTANCE_COMMENT>
InChI=1S/C15H17N3O2/c1-9-17-15(20-18-9)13-6-14(19-8-10-2-3-10)12(7-16-13)11-4-5-11/h6-7,10-11H,2-5,8H2,1H3
InChIKey=QVMMRHICIJCFLC-UHFFFAOYSA-N

> <PUBCHEM_SUBSTANCE_SYNONYM>
SCHEMBL16115455

> <PUBCHEM_XREF_EXT_ID>
SCHEMBL16115455

> <PUBCHEM_EXT_DATASOURCE_URL>
https://www.surechembl.org/

> <PUBCHEM_EXT_SUBSTANCE_URL>
https://www.surechembl.org/chemical/SCHEMBL16115455

> <PUBCHEM_CID_ASSOCIATIONS>
86273749  1

> <PUBCHEM_COORDINATE_TYPE>
1
3

$$$$
