310929813
  -OEChem-07211613022D

 70 78  0     1  0  0  0  0  0999 V2000
    9.7825    0.6979    0.0000 Br  0  0  0  0  0  0  0  0  0  0  0  0
    9.2539    6.3698    0.0000 S   0  0  0  0  0  0  0  0  0  0  0  0
    8.1077    5.1829    0.0000 O   0  0  0  0  0  0  0  0  0  0  0  0
    5.4388    6.0031    0.0000 O   0  0  0  0  0  0  0  0  0  0  0  0
    5.4957    2.3479    0.0000 O   0  0  0  0  0  0  0  0  0  0  0  0
    4.0668    5.6479    0.0000 O   0  0  0  0  0  0  0  0  0  0  0  0
    9.4535    7.1703    0.0000 O   0  0  0  0  0  0  0  0  0  0  0  0
   10.0544    6.1703    0.0000 O   0  0  0  0  0  0  0  0  0  0  0  0
    2.6680    2.4606    0.0000 O   0  0  0  0  0  0  0  0  0  0  0  0
    6.9246   -0.1271    0.0000 O   0  0  0  0  0  0  0  0  0  0  0  0
    1.9233    3.5854    0.0000 O   0  0  0  0  0  0  0  0  0  0  0  0
    6.7442    5.4219    0.0000 N   0  0  0  0  0  0  0  0  0  0  0  0
    4.7812    4.4104    0.0000 N   0  0  0  0  0  0  0  0  0  0  0  0
    8.4534    6.5694    0.0000 N   0  0  0  0  0  0  0  0  0  0  0  0
    3.3523    3.5854    0.0000 N   0  0  0  0  0  0  0  0  0  0  0  0
    6.9246    2.3479    0.0000 N   0  0  0  0  0  0  0  0  0  0  0  0
    7.0798    6.1756    0.0000 C   0  0  3  0  0  0  0  0  0  0  0  0
    6.3958    6.6369    0.0000 C   0  0  3  0  0  0  0  0  0  0  0  0
    7.1373    6.9985    0.0000 C   0  0  0  0  0  0  0  0  0  0  0  0
    7.8803    5.9760    0.0000 C   0  0  0  0  0  0  0  0  0  0  0  0
    5.5882    4.5820    0.0000 C   0  0  3  0  0  0  0  0  0  0  0  0
    5.9238    5.3356    0.0000 C   0  0  0  0  0  0  0  0  0  0  0  0
    5.5728    6.6944    0.0000 C   0  0  0  0  0  0  0  0  0  0  0  0
    5.4957    3.1729    0.0000 C   0  0  3  0  0  0  0  0  0  0  0  0
    6.0007    3.8675    0.0000 C   0  0  0  0  0  0  0  0  0  0  0  0
    4.7812    3.5854    0.0000 C   0  0  0  0  0  0  0  0  0  0  0  0
    4.0668    4.8229    0.0000 C   0  0  0  0  0  0  0  0  0  0  0  0
    3.3523    4.4104    0.0000 C   0  0  3  0  0  0  0  0  0  0  0  0
    9.0543    5.5693    0.0000 C   0  0  0  0  0  0  0  0  0  0  0  0
    5.2112    7.4359    0.0000 C   0  0  0  0  0  0  0  0  0  0  0  0
    2.6378    4.8229    0.0000 C   0  0  0  0  0  0  0  0  0  0  0  0
    6.2102    1.9354    0.0000 C   0  0  0  0  0  0  0  0  0  0  0  0
    8.4812    4.9759    0.0000 C   0  0  0  0  0  0  0  0  0  0  0  0
    9.2817    4.7763    0.0000 C   0  0  0  0  0  0  0  0  0  0  0  0
    6.2102    1.1104    0.0000 C   0  0  0  0  0  0  0  0  0  0  0  0
    2.6378    3.1729    0.0000 C   0  0  0  0  0  0  0  0  0  0  0  0
    6.9246    0.6979    0.0000 C   0  0  0  0  0  0  0  0  0  0  0  0
    2.5516    5.6434    0.0000 C   0  0  0  0  0  0  0  0  0  0  0  0
    1.8841    4.4874    0.0000 C   0  0  0  0  0  0  0  0  0  0  0  0
    7.6391    1.1104    0.0000 C   0  0  0  0  0  0  0  0  0  0  0  0
    7.6391    1.9354    0.0000 C   0  0  0  0  0  0  0  0  0  0  0  0
    3.3523    1.9354    0.0000 C   0  0  3  0  0  0  0  0  0  0  0  0
    3.3523    1.1104    0.0000 C   0  0  3  0  0  0  0  0  0  0  0  0
    5.4957    0.6979    0.0000 C   0  0  0  0  0  0  0  0  0  0  0  0
    1.7446    5.8150    0.0000 C   0  0  0  0  0  0  0  0  0  0  0  0
    1.3321    5.1005    0.0000 C   0  0  0  0  0  0  0  0  0  0  0  0
    8.3536    0.6979    0.0000 C   0  0  0  0  0  0  0  0  0  0  0  0
    8.3536    2.3479    0.0000 C   0  0  0  0  0  0  0  0  0  0  0  0
    2.5677    2.1904    0.0000 C   0  0  0  0  0  0  0  0  0  0  0  0
    2.5677    0.8555    0.0000 C   0  0  0  0  0  0  0  0  0  0  0  0
    4.0668    0.6979    0.0000 C   0  0  0  0  0  0  0  0  0  0  0  0
    9.0681    1.1104    0.0000 C   0  0  0  0  0  0  0  0  0  0  0  0
    2.0827    1.5229    0.0000 C   0  0  0  0  0  0  0  0  0  0  0  0
    9.0681    1.9354    0.0000 C   0  0  0  0  0  0  0  0  0  0  0  0
    5.4957   -0.1271    0.0000 C   0  0  0  0  0  0  0  0  0  0  0  0
    7.6391   -0.5396    0.0000 C   0  0  0  0  0  0  0  0  0  0  0  0
    4.0668   -0.1271    0.0000 C   0  0  0  0  0  0  0  0  0  0  0  0
    4.7812   -0.5396    0.0000 C   0  0  0  0  0  0  0  0  0  0  0  0
    7.6391   -1.3646    0.0000 C   0  0  0  0  0  0  0  0  0  0  0  0
    6.9246   -1.7771    0.0000 C   0  0  0  0  0  0  0  0  0  0  0  0
    8.3536   -1.7771    0.0000 C   0  0  0  0  0  0  0  0  0  0  0  0
    6.9246   -2.6021    0.0000 C   0  0  0  0  0  0  0  0  0  0  0  0
    8.3536   -2.6021    0.0000 C   0  0  0  0  0  0  0  0  0  0  0  0
    7.6391   -3.0146    0.0000 C   0  0  0  0  0  0  0  0  0  0  0  0
    6.1272    5.8568    0.0000 H   0  0  0  0  0  0  0  0  0  0  0  0
    6.4121    4.6251    0.0000 H   0  0  0  0  0  0  0  0  0  0  0  0
    6.2803    2.9179    0.0000 H   0  0  0  0  0  0  0  0  0  0  0  0
    3.3523    5.2354    0.0000 H   0  0  0  0  0  0  0  0  0  0  0  0
    3.0399    2.6990    0.0000 H   0  0  0  0  0  0  0  0  0  0  0  0
    3.2660    0.2900    0.0000 H   0  0  0  0  0  0  0  0  0  0  0  0
  1 52  1  0  0  0  0
  2  7  2  0  0  0  0
  2  8  2  0  0  0  0
  2 14  1  0  0  0  0
  2 29  1  0  0  0  0
  3 20  2  0  0  0  0
  4 22  2  0  0  0  0
  5 24  1  0  0  0  0
  5 32  1  0  0  0  0
  6 27  2  0  0  0  0
  9 36  1  0  0  0  0
  9 42  1  0  0  0  0
 10 37  1  0  0  0  0
 10 56  1  0  0  0  0
 11 36  2  0  0  0  0
 17 12  1  1  0  0  0
 12 22  1  0  0  0  0
 13 21  1  0  0  0  0
 13 26  1  0  0  0  0
 13 27  1  0  0  0  0
 14 20  1  0  0  0  0
 15 28  1  0  0  0  0
 15 36  1  0  0  0  0
 16 32  2  0  0  0  0
 16 41  1  0  0  0  0
 17 18  1  0  0  0  0
 17 19  1  0  0  0  0
 17 20  1  6  0  0  0
 18 19  1  0  0  0  0
 18 23  1  6  0  0  0
 18 65  1  1  0  0  0
 21 22  1  0  0  0  0
 21 25  1  0  0  0  0
 21 66  1  1  0  0  0
 23 30  2  0  0  0  0
 24 25  1  0  0  0  0
 24 26  1  0  0  0  0
 24 67  1  6  0  0  0
 27 28  1  0  0  0  0
 28 31  1  0  0  0  0
 28 68  1  6  0  0  0
 29 33  1  0  0  0  0
 29 34  1  0  0  0  0
 31 38  1  0  0  0  0
 31 39  1  0  0  0  0
 32 35  1  0  0  0  0
 33 34  1  0  0  0  0
 35 37  2  0  0  0  0
 35 44  1  0  0  0  0
 37 40  1  0  0  0  0
 38 45  1  0  0  0  0
 39 46  1  0  0  0  0
 40 41  2  0  0  0  0
 40 47  1  0  0  0  0
 41 48  1  0  0  0  0
 42 43  1  0  0  0  0
 42 49  1  0  0  0  0
 42 69  1  6  0  0  0
 43 50  1  0  0  0  0
 43 51  1  0  0  0  0
 43 70  1  1  0  0  0
 44 55  1  0  0  0  0
 45 46  1  0  0  0  0
 47 52  2  0  0  0  0
 48 54  2  0  0  0  0
 49 53  1  0  0  0  0
 50 53  1  0  0  0  0
 51 57  1  0  0  0  0
 52 54  1  0  0  0  0
 55 58  2  0  0  0  0
 56 59  1  0  0  0  0
 57 58  1  0  0  0  0
 59 60  2  0  0  0  0
 59 61  1  0  0  0  0
 60 62  1  0  0  0  0
 61 63  2  0  0  0  0
 62 64  2  0  0  0  0
 63 64  1  0  0  0  0
M  END
> <PUBCHEM_COMPOUND_ID_TYPE>
0

> <PUBCHEM_TOTAL_CHARGE>
0

> <PUBCHEM_SUBSTANCE_ID>
310929813

> <PUBCHEM_SUBSTANCE_VERSION>
1

> <PUBCHEM_EXT_DATASOURCE_NAME>
4488

> <PUBCHEM_EXT_DATASOURCE_REGID>
SCHEMBL16107021

> <PUBCHEM_SUBSTANCE_COMMENT>
InChI=1S/C48H56BrN5O9S/c1-2-32-26-48(32,46(57)53-64(59,60)35-21-22-35)52-43(55)39-25-34-27-54(39)45(56)41(31-15-9-10-16-31)51-47(58)63-40-19-11-17-30(40)14-7-4-8-18-36-42(61-28-29-12-5-3-6-13-29)37-24-33(49)20-23-38(37)50-44(36)62-34/h2-6,8,12-13,20,23-24,30-32,34-35,39-41H,1,7,9-11,14-19,21-22,25-28H2,(H,51,58)(H,52,55)(H,53,57)/t30-,32-,34-,39+,40-,41+,48-/m1/s1
InChIKey=CBPLWGIVNTYBPL-OZWUGWIGSA-N

> <PUBCHEM_SUBSTANCE_SYNONYM>
SCHEMBL16107021

> <PUBCHEM_XREF_EXT_ID>
SCHEMBL16107021

> <PUBCHEM_EXT_DATASOURCE_URL>
https://www.surechembl.org/

> <PUBCHEM_EXT_SUBSTANCE_URL>
https://www.surechembl.org/chemical/SCHEMBL16107021

> <PUBCHEM_CID_ASSOCIATIONS>
117599090  1

> <PUBCHEM_COORDINATE_TYPE>
1
3

> <PUBCHEM_BONDANNOTATIONS>
17  12  5
17  20  6
18  23  6
18  65  5
21  66  5
24  67  6
28  68  6
42  69  6
43  70  5
58  57  3

$$$$
