310946074
  -OEChem-07211613022D

 30 34  0     1  0  0  0  0  0999 V2000
    0.4708    2.6608    0.0000 F   0  0  0  0  0  0  0  0  0  0  0  0
    0.7573    1.5760    0.0000 F   0  0  0  0  0  0  0  0  0  0  0  0
   -0.3479    1.3100    0.0000 F   0  0  0  0  0  0  0  0  0  0  0  0
   -2.0877   -2.5789    0.0000 O   0  0  0  0  0  0  0  0  0  0  0  0
   -1.3714   -1.3509    0.0000 N   0  0  0  0  0  0  0  0  0  0  0  0
    0.1432   -2.3129    0.0000 N   0  0  0  0  0  0  0  0  0  0  0  0
   -0.6550   -3.3977    0.0000 N   0  0  0  0  0  0  0  0  0  0  0  0
    0.1432   -3.6637    0.0000 N   0  0  0  0  0  0  0  0  0  0  0  0
   -1.7807   -0.0409    0.0000 C   0  0  3  0  0  0  0  0  0  0  0  0
   -0.9620   -0.0409    0.0000 C   0  0  3  0  0  0  0  0  0  0  0  0
   -0.6346   -2.5585    0.0000 C   0  0  0  0  0  0  0  0  0  0  0  0
   -1.3919    1.2075    0.0000 C   0  0  0  0  0  0  0  0  0  0  0  0
   -1.3509   -2.1491    0.0000 C   0  0  0  0  0  0  0  0  0  0  0  0
   -1.3509    2.0672    0.0000 C   0  0  0  0  0  0  0  0  0  0  0  0
   -2.0468   -0.8596    0.0000 C   0  0  0  0  0  0  0  0  0  0  0  0
   -0.6959   -0.8596    0.0000 C   0  0  0  0  0  0  0  0  0  0  0  0
   -2.0263    0.7164    0.0000 C   0  0  0  0  0  0  0  0  0  0  0  0
   -0.7164    0.6959    0.0000 C   0  0  0  0  0  0  0  0  0  0  0  0
    0.6141   -2.9678    0.0000 C   0  0  0  0  0  0  0  0  0  0  0  0
   -0.6755    2.4562    0.0000 C   0  0  0  0  0  0  0  0  0  0  0  0
    0.0409    1.9854    0.0000 C   0  0  0  0  0  0  0  0  0  0  0  0
    0.4708   -1.5555    0.0000 C   0  0  0  0  0  0  0  0  0  0  0  0
    1.4532   -2.8859    0.0000 C   0  0  0  0  0  0  0  0  0  0  0  0
   -2.0877    2.4153    0.0000 C   0  0  0  0  0  0  0  0  0  0  0  0
    1.7807   -2.1082    0.0000 C   0  0  0  0  0  0  0  0  0  0  0  0
   -0.6550    3.2340    0.0000 C   0  0  0  0  0  0  0  0  0  0  0  0
    1.2895   -1.4737    0.0000 C   0  0  0  0  0  0  0  0  0  0  0  0
   -2.0672    3.2544    0.0000 C   0  0  0  0  0  0  0  0  0  0  0  0
   -1.3714    3.6637    0.0000 C   0  0  0  0  0  0  0  0  0  0  0  0
    2.6199   -2.0672    0.0000 C   0  0  0  0  0  0  0  0  0  0  0  0
  1 21  1  0  0  0  0
  2 21  1  0  0  0  0
  3 21  1  0  0  0  0
  4 13  2  0  0  0  0
  5 13  1  0  0  0  0
  5 15  1  0  0  0  0
  5 16  1  0  0  0  0
  6 11  1  0  0  0  0
  6 19  1  0  0  0  0
  6 22  1  0  0  0  0
  7  8  1  0  0  0  0
  7 11  2  0  0  0  0
  8 19  2  0  0  0  0
  9 10  1  0  0  0  0
  9 15  1  0  0  0  0
  9 17  1  1  0  0  0
 10 16  1  0  0  0  0
 10 18  1  1  0  0  0
 11 13  1  0  0  0  0
 12 14  1  0  0  0  0
 12 17  1  1  0  0  0
 12 18  1  0  0  0  0
 14 20  2  0  0  0  0
 14 24  1  0  0  0  0
 19 23  1  0  0  0  0
 20 21  1  0  0  0  0
 20 26  1  0  0  0  0
 22 27  2  0  0  0  0
 23 25  2  0  0  0  0
 24 28  2  0  0  0  0
 25 27  1  0  0  0  0
 25 30  1  0  0  0  0
 26 29  2  0  0  0  0
 28 29  1  0  0  0  0
M  END
> <PUBCHEM_COMPOUND_ID_TYPE>
0

> <PUBCHEM_TOTAL_CHARGE>
0

> <PUBCHEM_SUBSTANCE_ID>
310946074

> <PUBCHEM_SUBSTANCE_VERSION>
1

> <PUBCHEM_EXT_DATASOURCE_NAME>
4488

> <PUBCHEM_EXT_DATASOURCE_REGID>
SCHEMBL16124181

> <PUBCHEM_SUBSTANCE_COMMENT>
InChI=1S/C22H21F3N4O/c1-13-6-7-29-19(8-13)26-27-20(29)21(30)28-11-15-9-14(10-16(15)12-28)17-4-2-3-5-18(17)22(23,24)25/h2-8,14-16H,9-12H2,1H3/t14-,15-,16+
InChIKey=FFHVKVSTLZQLKG-PHZGNYQRSA-N

> <PUBCHEM_SUBSTANCE_SYNONYM>
SCHEMBL16124181

> <PUBCHEM_XREF_EXT_ID>
SCHEMBL16124181

> <PUBCHEM_EXT_DATASOURCE_URL>
https://www.surechembl.org/

> <PUBCHEM_EXT_SUBSTANCE_URL>
https://www.surechembl.org/chemical/SCHEMBL16124181

> <PUBCHEM_CID_ASSOCIATIONS>
86303818  1

> <PUBCHEM_COORDINATE_TYPE>
1
3

> <PUBCHEM_BONDANNOTATIONS>
10  18  5
12  17  5
9  17  5

$$$$
