310947045
  -OEChem-07211613022D

 39 42  0     0  0  0  0  0  0999 V2000
   -1.8574   -1.7991    0.0000 S   0  0  0  0  0  0  0  0  0  0  0  0
    4.8556   -5.2611    0.0000 S   0  0  0  0  0  0  0  0  0  0  0  0
   -3.0950   -5.3716    0.0000 F   0  0  0  0  0  0  0  0  0  0  0  0
   -4.7451   -5.3716    0.0000 O   0  0  0  0  0  0  0  0  0  0  0  0
   -4.7451   -2.5137    0.0000 O   0  0  0  0  0  0  0  0  0  0  0  0
   -2.5720   -1.3866    0.0000 O   0  0  0  0  0  0  0  0  0  0  0  0
   -1.1430   -2.2117    0.0000 O   0  0  0  0  0  0  0  0  0  0  0  0
    4.4431   -4.5465    0.0000 O   0  0  0  0  0  0  0  0  0  0  0  0
    5.2681   -5.9754    0.0000 O   0  0  0  0  0  0  0  0  0  0  0  0
   -2.2700   -3.9426    0.0000 N   0  0  0  0  0  0  0  0  0  0  0  0
   -1.0325   -4.6570    0.0000 N   0  0  0  0  0  0  0  0  0  0  0  0
    0.2050   -5.3716    0.0000 N   0  0  0  0  0  0  0  0  0  0  0  0
   -0.6199   -6.8005    0.0000 N   0  0  0  0  0  0  0  0  0  0  0  0
    2.7121   -5.6736    0.0000 N   0  0  0  0  0  0  0  0  0  0  0  0
    2.7121   -6.4985    0.0000 N   0  0  0  0  0  0  0  0  0  0  0  0
   -3.0950   -3.9426    0.0000 C   0  0  0  0  0  0  0  0  0  0  0  0
   -1.8574   -4.6570    0.0000 C   0  0  0  0  0  0  0  0  0  0  0  0
   -0.6199   -5.3716    0.0000 C   0  0  0  0  0  0  0  0  0  0  0  0
   -1.0325   -6.0860    0.0000 C   0  0  0  0  0  0  0  0  0  0  0  0
   -3.5076   -4.6570    0.0000 C   0  0  0  0  0  0  0  0  0  0  0  0
    0.6175   -6.0860    0.0000 C   0  0  0  0  0  0  0  0  0  0  0  0
   -4.3326   -4.6570    0.0000 C   0  0  0  0  0  0  0  0  0  0  0  0
   -3.5076   -3.2280    0.0000 C   0  0  0  0  0  0  0  0  0  0  0  0
   -2.2700   -5.3716    0.0000 C   0  0  0  0  0  0  0  0  0  0  0  0
    1.4426   -6.0860    0.0000 C   0  0  0  0  0  0  0  0  0  0  0  0
   -1.8574   -6.0860    0.0000 C   0  0  0  0  0  0  0  0  0  0  0  0
   -4.3326   -3.2280    0.0000 C   0  0  0  0  0  0  0  0  0  0  0  0
   -1.8574   -3.2280    0.0000 C   0  0  0  0  0  0  0  0  0  0  0  0
    0.2050   -6.8005    0.0000 C   0  0  0  0  0  0  0  0  0  0  0  0
   -4.7451   -3.9426    0.0000 C   0  0  0  0  0  0  0  0  0  0  0  0
    1.9275   -5.4186    0.0000 C   0  0  0  0  0  0  0  0  0  0  0  0
    1.9275   -6.7535    0.0000 C   0  0  0  0  0  0  0  0  0  0  0  0
   -2.2700   -2.5137    0.0000 C   0  0  0  0  0  0  0  0  0  0  0  0
    3.4267   -5.2611    0.0000 C   0  0  0  0  0  0  0  0  0  0  0  0
    4.1411   -5.6736    0.0000 C   0  0  0  0  0  0  0  0  0  0  0  0
   -5.5700   -5.3716    0.0000 C   0  0  0  0  0  0  0  0  0  0  0  0
   -4.3326   -1.7991    0.0000 C   0  0  0  0  0  0  0  0  0  0  0  0
   -1.4450   -1.0846    0.0000 C   0  0  0  0  0  0  0  0  0  0  0  0
    5.5700   -4.8486    0.0000 C   0  0  0  0  0  0  0  0  0  0  0  0
  1  6  2  0  0  0  0
  1  7  2  0  0  0  0
  1 33  1  0  0  0  0
  1 38  1  0  0  0  0
  2  8  2  0  0  0  0
  2  9  2  0  0  0  0
  2 35  1  0  0  0  0
  2 39  1  0  0  0  0
  3 20  1  0  0  0  0
  4 22  1  0  0  0  0
  4 36  1  0  0  0  0
  5 27  1  0  0  0  0
  5 37  1  0  0  0  0
 10 16  1  0  0  0  0
 10 17  1  0  0  0  0
 10 28  1  0  0  0  0
 11 17  2  0  0  0  0
 11 18  1  0  0  0  0
 12 18  2  0  0  0  0
 12 21  1  0  0  0  0
 13 19  2  0  0  0  0
 13 29  1  0  0  0  0
 14 15  1  0  0  0  0
 14 31  1  0  0  0  0
 14 34  1  0  0  0  0
 15 32  2  0  0  0  0
 16 20  1  0  0  0  0
 16 23  2  0  0  0  0
 17 24  1  0  0  0  0
 18 19  1  0  0  0  0
 19 26  1  0  0  0  0
 20 22  2  0  0  0  0
 21 25  1  0  0  0  0
 21 29  2  0  0  0  0
 22 30  1  0  0  0  0
 23 27  1  0  0  0  0
 24 26  2  0  0  0  0
 25 31  2  0  0  0  0
 25 32  1  0  0  0  0
 27 30  2  0  0  0  0
 28 33  1  0  0  0  0
 34 35  1  0  0  0  0
M  END
> <PUBCHEM_COMPOUND_ID_TYPE>
0

> <PUBCHEM_TOTAL_CHARGE>
0

> <PUBCHEM_SUBSTANCE_ID>
310947045

> <PUBCHEM_SUBSTANCE_VERSION>
1

> <PUBCHEM_EXT_DATASOURCE_NAME>
4488

> <PUBCHEM_EXT_DATASOURCE_REGID>
SCHEMBL16125198

> <PUBCHEM_SUBSTANCE_COMMENT>
InChI=1S/C24H27FN6O6S2/c1-36-17-11-20(23(25)21(12-17)37-2)31(8-10-39(4,34)35)22-6-5-18-24(29-22)28-19(14-26-18)16-13-27-30(15-16)7-9-38(3,32)33/h5-6,11-15H,7-10H2,1-4H3
InChIKey=VLPKSARHZQZKNE-UHFFFAOYSA-N

> <PUBCHEM_SUBSTANCE_SYNONYM>
SCHEMBL16125198

> <PUBCHEM_XREF_EXT_ID>
SCHEMBL16125198

> <PUBCHEM_EXT_DATASOURCE_URL>
https://www.surechembl.org/

> <PUBCHEM_EXT_SUBSTANCE_URL>
https://www.surechembl.org/chemical/SCHEMBL16125198

> <PUBCHEM_CID_ASSOCIATIONS>
117612896  1

> <PUBCHEM_COORDINATE_TYPE>
1
3

$$$$
