310932491
  -OEChem-07211613022D

 10 11  0     1  0  0  0  0  0999 V2000
    1.6616   -0.8219    0.0000 N   0  0  3  0  0  0  0  0  0  0  0  0
    2.5549   -2.7515    0.0000 N   0  0  0  0  0  0  0  0  0  0  0  0
    1.2507   -2.0905    0.0000 C   0  0  3  0  0  0  0  0  0  0  0  0
    0.7682   -2.7515    0.0000 C   0  0  0  0  0  0  0  0  0  0  0  0
    2.0725   -2.0905    0.0000 C   0  0  3  0  0  0  0  0  0  0  0  0
    0.9827   -1.3043    0.0000 C   0  0  0  0  0  0  0  0  0  0  0  0
    2.3227   -1.3043    0.0000 C   0  0  0  0  0  0  0  0  0  0  0  0
    0.6611   -3.5734    0.0000 C   0  0  0  0  0  0  0  0  0  0  0  0
    0.0000   -3.1088    0.0000 C   0  0  0  0  0  0  0  0  0  0  0  0
    1.6616    0.0000    0.0000 C   0  0  0  0  0  0  0  0  0  0  0  0
  1  6  1  0  0  0  0
  1  7  1  0  0  0  0
  1 10  1  0  0  0  0
  5  2  1  1  0  0  0
  3  4  1  0  0  0  0
  3  5  1  0  0  0  0
  3  6  1  6  0  0  0
  4  8  1  0  0  0  0
  4  9  1  0  0  0  0
  5  7  1  0  0  0  0
  8  9  1  0  0  0  0
M  END
> <PUBCHEM_COMPOUND_ID_TYPE>
0

> <PUBCHEM_TOTAL_CHARGE>
0

> <PUBCHEM_SUBSTANCE_ID>
310932491

> <PUBCHEM_SUBSTANCE_VERSION>
1

> <PUBCHEM_EXT_DATASOURCE_NAME>
4488

> <PUBCHEM_EXT_DATASOURCE_REGID>
SCHEMBL16109863

> <PUBCHEM_SUBSTANCE_COMMENT>
InChI=1S/C8H16N2/c1-10-4-7(6-2-3-6)8(9)5-10/h6-8H,2-5,9H2,1H3/t7-,8+/m0/s1
InChIKey=GFPZTONKVISKKM-JGVFFNPUSA-N

> <PUBCHEM_SUBSTANCE_SYNONYM>
SCHEMBL16109863

> <PUBCHEM_XREF_EXT_ID>
SCHEMBL16109863

> <PUBCHEM_EXT_DATASOURCE_URL>
https://www.surechembl.org/

> <PUBCHEM_EXT_SUBSTANCE_URL>
https://www.surechembl.org/chemical/SCHEMBL16109863

> <PUBCHEM_CID_ASSOCIATIONS>
96637192  1

> <PUBCHEM_COORDINATE_TYPE>
1
3

> <PUBCHEM_BONDANNOTATIONS>
5  2  5
3  6  6

$$$$
