310929224
  -OEChem-07211613022D

 27 28  0     0  0  0  0  0  0999 V2000
    7.8593    0.4125    0.0000 F   0  0  0  0  0  0  0  0  0  0  0  0
    7.8593    1.2375    0.0000 F   0  0  0  0  0  0  0  0  0  0  0  0
    7.1448    1.6500    0.0000 F   0  0  0  0  0  0  0  0  0  0  0  0
    6.4303    0.4125    0.0000 O   0  0  0  0  0  0  0  0  0  0  0  0
   -4.2869   -0.8250    0.0000 O   0  0  0  0  0  0  0  0  0  0  0  0
    5.0013   -0.4125    0.0000 N   0  0  0  0  0  0  0  0  0  0  0  0
    5.7158   -0.8250    0.0000 C   0  0  0  0  0  0  0  0  0  0  0  0
    6.4303   -0.4125    0.0000 C   0  0  0  0  0  0  0  0  0  0  0  0
    5.7158   -1.6500    0.0000 C   0  0  0  0  0  0  0  0  0  0  0  0
    4.2869   -0.8250    0.0000 C   0  0  0  0  0  0  0  0  0  0  0  0
    5.0013   -2.0625    0.0000 C   0  0  0  0  0  0  0  0  0  0  0  0
    7.1448   -0.8250    0.0000 C   0  0  0  0  0  0  0  0  0  0  0  0
    6.4303   -2.0625    0.0000 C   0  0  0  0  0  0  0  0  0  0  0  0
    7.1448    0.8250    0.0000 C   0  0  0  0  0  0  0  0  0  0  0  0
    4.2869   -1.6500    0.0000 C   0  0  0  0  0  0  0  0  0  0  0  0
    7.1448   -1.6500    0.0000 C   0  0  0  0  0  0  0  0  0  0  0  0
    3.5724   -0.4125    0.0000 C   0  0  0  0  0  0  0  0  0  0  0  0
    2.8579   -0.8250    0.0000 C   0  0  0  0  0  0  0  0  0  0  0  0
    2.1434   -0.4125    0.0000 C   0  0  0  0  0  0  0  0  0  0  0  0
    1.4290   -0.8250    0.0000 C   0  0  0  0  0  0  0  0  0  0  0  0
    0.7145   -0.4125    0.0000 C   0  0  0  0  0  0  0  0  0  0  0  0
    0.0000   -0.8250    0.0000 C   0  0  0  0  0  0  0  0  0  0  0  0
   -0.7145   -0.4125    0.0000 C   0  0  0  0  0  0  0  0  0  0  0  0
   -1.4290   -0.8250    0.0000 C   0  0  0  0  0  0  0  0  0  0  0  0
   -2.1434   -0.4125    0.0000 C   0  0  0  0  0  0  0  0  0  0  0  0
   -2.8579   -0.8250    0.0000 C   0  0  0  0  0  0  0  0  0  0  0  0
   -3.5724   -0.4125    0.0000 C   0  0  0  0  0  0  0  0  0  0  0  0
  1 14  1  0  0  0  0
  2 14  1  0  0  0  0
  3 14  1  0  0  0  0
  4  8  1  0  0  0  0
  4 14  1  0  0  0  0
  5 27  1  0  0  0  0
  6  7  1  0  0  0  0
  6 10  2  0  0  0  0
  7  8  2  0  0  0  0
  7  9  1  0  0  0  0
  8 12  1  0  0  0  0
  9 11  1  0  0  0  0
  9 13  2  0  0  0  0
 10 15  1  0  0  0  0
 10 17  1  0  0  0  0
 11 15  2  0  0  0  0
 12 16  2  0  0  0  0
 13 16  1  0  0  0  0
 17 18  1  0  0  0  0
 18 19  1  0  0  0  0
 19 20  1  0  0  0  0
 20 21  1  0  0  0  0
 21 22  1  0  0  0  0
 22 23  1  0  0  0  0
 23 24  1  0  0  0  0
 24 25  1  0  0  0  0
 25 26  1  0  0  0  0
 26 27  1  0  0  0  0
M  END
> <PUBCHEM_COMPOUND_ID_TYPE>
0

> <PUBCHEM_TOTAL_CHARGE>
0

> <PUBCHEM_SUBSTANCE_ID>
310929224

> <PUBCHEM_SUBSTANCE_VERSION>
1

> <PUBCHEM_EXT_DATASOURCE_NAME>
4488

> <PUBCHEM_EXT_DATASOURCE_REGID>
SCHEMBL16106387

> <PUBCHEM_SUBSTANCE_COMMENT>
InChI=1S/C21H28F3NO2/c22-21(23,24)27-19-13-10-11-17-14-15-18(25-20(17)19)12-8-6-4-2-1-3-5-7-9-16-26/h10-11,13-15,26H,1-9,12,16H2
InChIKey=IILBBARQDQWEKG-UHFFFAOYSA-N

> <PUBCHEM_SUBSTANCE_SYNONYM>
SCHEMBL16106387

> <PUBCHEM_XREF_EXT_ID>
SCHEMBL16106387

> <PUBCHEM_EXT_DATASOURCE_URL>
https://www.surechembl.org/

> <PUBCHEM_EXT_SUBSTANCE_URL>
https://www.surechembl.org/chemical/SCHEMBL16106387

> <PUBCHEM_CID_ASSOCIATIONS>
117598667  1

> <PUBCHEM_COORDINATE_TYPE>
1
3

$$$$
