310940669
  -OEChem-07211613022D

 17 18  0     0  0  0  0  0  0999 V2000
   -2.5515    0.2200    0.0000 O   0  0  0  0  0  0  0  0  0  0  0  0
   -1.7862   -1.1065    0.0000 O   0  0  0  0  0  0  0  0  0  0  0  0
    2.8451   -0.4948    0.0000 O   0  0  0  0  0  0  0  0  0  0  0  0
    2.3503   -1.3084    0.0000 O   0  0  0  0  0  0  0  0  0  0  0  0
    0.8329    1.3084    0.0000 N   0  0  0  0  0  0  0  0  0  0  0  0
   -1.0038    0.2710    0.0000 C   0  0  0  0  0  0  0  0  0  0  0  0
    0.0166    0.8663    0.0000 C   0  0  0  0  0  0  0  0  0  0  0  0
   -0.7828    1.0703    0.0000 C   0  0  0  0  0  0  0  0  0  0  0  0
   -0.1705    0.0159    0.0000 C   0  0  0  0  0  0  0  0  0  0  0  0
   -0.5617    0.7642    0.0000 C   0  0  0  0  0  0  0  0  0  0  0  0
   -1.8032   -0.1882    0.0000 C   0  0  0  0  0  0  0  0  0  0  0  0
    2.3503   -0.7806    0.0000 C   0  0  0  0  0  0  0  0  0  0  0  0
    2.8560    0.0550    0.0000 C   0  0  0  0  0  0  0  0  0  0  0  0
   -3.3508   -0.2052    0.0000 C   0  0  0  0  0  0  0  0  0  0  0  0
    3.3508    0.0769    0.0000 C   0  0  0  0  0  0  0  0  0  0  0  0
    2.3503    0.0550    0.0000 C   0  0  0  0  0  0  0  0  0  0  0  0
    2.8451    0.5937    0.0000 C   0  0  0  0  0  0  0  0  0  0  0  0
  1 11  1  0  0  0  0
  1 14  1  0  0  0  0
  2 11  2  0  0  0  0
  3 12  1  0  0  0  0
  3 13  1  0  0  0  0
  4 12  2  0  0  0  0
  5  7  1  0  0  0  0
  5 12  1  0  0  0  0
  6  8  1  0  0  0  0
  6  9  1  0  0  0  0
  6 10  1  0  0  0  0
  6 11  1  0  0  0  0
  7  8  1  0  0  0  0
  7  9  1  0  0  0  0
  7 10  1  0  0  0  0
 13 15  1  0  0  0  0
 13 16  1  0  0  0  0
 13 17  1  0  0  0  0
M  END
> <PUBCHEM_COMPOUND_ID_TYPE>
0

> <PUBCHEM_TOTAL_CHARGE>
0

> <PUBCHEM_SUBSTANCE_ID>
310940669

> <PUBCHEM_SUBSTANCE_VERSION>
1

> <PUBCHEM_EXT_DATASOURCE_NAME>
4488

> <PUBCHEM_EXT_DATASOURCE_REGID>
SCHEMBL16118624

> <PUBCHEM_SUBSTANCE_COMMENT>
InChI=1S/C12H19NO4/c1-10(2,3)17-9(15)13-12-5-11(6-12,7-12)8(14)16-4/h5-7H2,1-4H3,(H,13,15)
InChIKey=KDOXMPLTEPMVQD-UHFFFAOYSA-N

> <PUBCHEM_SUBSTANCE_SYNONYM>
SCHEMBL16118624

> <PUBCHEM_XREF_EXT_ID>
SCHEMBL16118624

> <PUBCHEM_EXT_DATASOURCE_URL>
https://www.surechembl.org/

> <PUBCHEM_EXT_SUBSTANCE_URL>
https://www.surechembl.org/chemical/SCHEMBL16118624

> <PUBCHEM_CID_ASSOCIATIONS>
12085062  1

> <PUBCHEM_COORDINATE_TYPE>
1
3

$$$$
