310946703
  -OEChem-07211613022D

 48 53  0     0  0  0  0  0  0999 V2000
   -1.8920   -4.7405    0.0000 S   0  0  0  0  0  0  0  0  0  0  0  0
    0.9659    0.2095    0.0000 S   0  0  0  0  0  0  0  0  0  0  0  0
   -3.3209   -2.2655    0.0000 O   0  0  0  0  0  0  0  0  0  0  0  0
   -2.3045   -4.0261    0.0000 O   0  0  0  0  0  0  0  0  0  0  0  0
   -1.4795   -5.4550    0.0000 O   0  0  0  0  0  0  0  0  0  0  0  0
   -1.1775   -4.3280    0.0000 O   0  0  0  0  0  0  0  0  0  0  0  0
    1.7909    0.2095    0.0000 O   0  0  0  0  0  0  0  0  0  0  0  0
    0.1409    0.2095    0.0000 O   0  0  0  0  0  0  0  0  0  0  0  0
    0.9659    1.0345    0.0000 O   0  0  0  0  0  0  0  0  0  0  0  0
    1.6804   -4.3280    0.0000 O   0  0  0  0  0  0  0  0  0  0  0  0
   -0.4631   -2.2655    0.0000 N   0  3  0  0  0  0  0  0  0  0  0  0
   -6.1788   -2.2655    0.0000 N   0  0  0  0  0  0  0  0  0  0  0  0
    0.9659   -3.0905    0.0000 N   0  0  0  0  0  0  0  0  0  0  0  0
   -3.3209   -3.9155    0.0000 C   0  0  0  0  0  0  0  0  0  0  0  0
   -2.6065   -3.5030    0.0000 C   0  0  0  0  0  0  0  0  0  0  0  0
   -4.0354   -3.5030    0.0000 C   0  0  0  0  0  0  0  0  0  0  0  0
   -2.6065   -2.6780    0.0000 C   0  0  0  0  0  0  0  0  0  0  0  0
   -3.3209   -4.7405    0.0000 C   0  0  0  0  0  0  0  0  0  0  0  0
   -4.0354   -2.6780    0.0000 C   0  0  0  0  0  0  0  0  0  0  0  0
   -2.6065   -5.1530    0.0000 C   0  0  0  0  0  0  0  0  0  0  0  0
   -1.1775   -2.6780    0.0000 C   0  0  0  0  0  0  0  0  0  0  0  0
   -1.8920   -2.2655    0.0000 C   0  0  0  0  0  0  0  0  0  0  0  0
   -1.8920   -3.9155    0.0000 C   0  0  0  0  0  0  0  0  0  0  0  0
   -4.7499   -3.9155    0.0000 C   0  0  0  0  0  0  0  0  0  0  0  0
   -4.7499   -2.2655    0.0000 C   0  0  0  0  0  0  0  0  0  0  0  0
   -1.1775   -3.5030    0.0000 C   0  0  0  0  0  0  0  0  0  0  0  0
   -4.0354   -5.1530    0.0000 C   0  0  0  0  0  0  0  0  0  0  0  0
   -5.4644   -2.6780    0.0000 C   0  0  0  0  0  0  0  0  0  0  0  0
    0.2514   -1.8530    0.0000 C   0  0  0  0  0  0  0  0  0  0  0  0
   -5.4644   -3.5030    0.0000 C   0  0  0  0  0  0  0  0  0  0  0  0
   -2.6065   -5.9780    0.0000 C   0  0  0  0  0  0  0  0  0  0  0  0
    0.9659   -2.2655    0.0000 C   0  0  0  0  0  0  0  0  0  0  0  0
   -4.0354   -5.9780    0.0000 C   0  0  0  0  0  0  0  0  0  0  0  0
    0.2514   -1.0280    0.0000 C   0  0  0  0  0  0  0  0  0  0  0  0
    0.9659   -0.6155    0.0000 C   0  0  0  0  0  0  0  0  0  0  0  0
   -3.3209   -6.3905    0.0000 C   0  0  0  0  0  0  0  0  0  0  0  0
    1.6804   -1.8530    0.0000 C   0  0  0  0  0  0  0  0  0  0  0  0
   -0.8756   -1.5511    0.0000 C   0  0  0  0  0  0  0  0  0  0  0  0
    1.6804   -1.0280    0.0000 C   0  0  0  0  0  0  0  0  0  0  0  0
   -6.8933   -1.8530    0.0000 C   0  0  0  0  0  0  0  0  0  0  0  0
   -6.8933   -1.0280    0.0000 C   0  0  0  0  0  0  0  0  0  0  0  0
    1.6804   -3.5030    0.0000 C   0  0  0  0  0  0  0  0  0  0  0  0
   -7.6078   -2.2655    0.0000 C   0  0  0  0  0  0  0  0  0  0  0  0
   -7.6078   -0.6155    0.0000 C   0  0  0  0  0  0  0  0  0  0  0  0
   -8.3222   -1.8530    0.0000 C   0  0  0  0  0  0  0  0  0  0  0  0
   -8.3222   -1.0280    0.0000 C   0  0  0  0  0  0  0  0  0  0  0  0
   -6.1788   -0.6155    0.0000 C   0  0  0  0  0  0  0  0  0  0  0  0
    2.3948   -3.0905    0.0000 C   0  0  0  0  0  0  0  0  0  0  0  0
  1  4  2  0  0  0  0
  1  5  2  0  0  0  0
  1  6  1  0  0  0  0
  1 20  1  0  0  0  0
  2  7  2  0  0  0  0
  2  8  2  0  0  0  0
  2  9  1  0  0  0  0
  2 35  1  0  0  0  0
  3 17  1  0  0  0  0
  3 19  1  0  0  0  0
 10 42  2  0  0  0  0
 11 21  2  0  0  0  0
 11 29  1  0  0  0  0
 11 38  1  0  0  0  0
 12 28  1  0  0  0  0
 12 40  1  0  0  0  0
 13 32  1  0  0  0  0
 13 42  1  0  0  0  0
 14 15  2  0  0  0  0
 14 16  1  0  0  0  0
 14 18  1  0  0  0  0
 15 17  1  0  0  0  0
 15 23  1  0  0  0  0
 16 19  2  0  0  0  0
 16 24  1  0  0  0  0
 17 22  2  0  0  0  0
 18 20  1  0  0  0  0
 18 27  2  0  0  0  0
 19 25  1  0  0  0  0
 20 31  2  0  0  0  0
 21 22  1  0  0  0  0
 21 26  1  0  0  0  0
 23 26  2  0  0  0  0
 24 30  2  0  0  0  0
 25 28  2  0  0  0  0
 27 33  1  0  0  0  0
 28 30  1  0  0  0  0
 29 32  2  0  0  0  0
 29 34  1  0  0  0  0
 31 36  1  0  0  0  0
 32 37  1  0  0  0  0
 33 36  2  0  0  0  0
 34 35  2  0  0  0  0
 35 39  1  0  0  0  0
 37 39  2  0  0  0  0
 40 41  2  0  0  0  0
 40 43  1  0  0  0  0
 41 44  1  0  0  0  0
 41 47  1  0  0  0  0
 42 48  1  0  0  0  0
 43 45  2  0  0  0  0
 44 46  2  0  0  0  0
 45 46  1  0  0  0  0
M  CHG  1  11   1
M  END
> <PUBCHEM_COMPOUND_ID_TYPE>
0

> <PUBCHEM_TOTAL_CHARGE>
1

> <PUBCHEM_SUBSTANCE_ID>
310946703

> <PUBCHEM_SUBSTANCE_VERSION>
1

> <PUBCHEM_EXT_DATASOURCE_NAME>
4488

> <PUBCHEM_EXT_DATASOURCE_REGID>
SCHEMBL16124827

> <PUBCHEM_SUBSTANCE_COMMENT>
InChI=1S/C35H29N3O8S2/c1-21-8-4-6-10-29(21)37-23-12-15-26-32(18-23)46-33-19-24(13-16-27(33)35(26)28-9-5-7-11-34(28)48(43,44)45)38(3)31-20-25(47(40,41)42)14-17-30(31)36-22(2)39/h4-20H,1-3H3,(H3,36,39,40,41,42,43,44,45)/p+1
InChIKey=PDKJJZKVXXNEAJ-UHFFFAOYSA-O

> <PUBCHEM_SUBSTANCE_SYNONYM>
SCHEMBL16124827

> <PUBCHEM_XREF_EXT_ID>
SCHEMBL16124827

> <PUBCHEM_EXT_DATASOURCE_URL>
https://www.surechembl.org/

> <PUBCHEM_EXT_SUBSTANCE_URL>
https://www.surechembl.org/chemical/SCHEMBL16124827

> <PUBCHEM_CID_ASSOCIATIONS>
117612594  1

> <PUBCHEM_COORDINATE_TYPE>
1
3

$$$$
