310946033
  -OEChem-07211613022D

 38 41  0     1  0  0  0  0  0999 V2000
    3.6266    1.4313    0.0000 O   0  0  0  0  0  0  0  0  0  0  0  0
    1.3832    1.4313    0.0000 O   0  0  0  0  0  0  0  0  0  0  0  0
   -2.6081    0.3028    0.0000 O   0  0  0  0  0  0  0  0  0  0  0  0
    0.6675    1.0185    0.0000 O   0  0  0  0  0  0  0  0  0  0  0  0
   -0.0481    1.4313    0.0000 O   0  0  0  0  0  0  0  0  0  0  0  0
   -2.9109   -2.6839    0.0000 O   0  0  0  0  0  0  0  0  0  0  0  0
    1.3832   -0.2065    0.0000 N   0  0  0  0  0  0  0  0  0  0  0  0
   -0.7639    0.2065    0.0000 N   0  0  0  0  0  0  0  0  0  0  0  0
   -1.4796    2.2709    0.0000 N   0  0  0  0  0  0  0  0  0  0  0  0
    2.8284    1.4452    0.0000 C   0  0  3  0  0  0  0  0  0  0  0  0
    2.0714    0.9772    0.0000 C   0  0  0  0  0  0  0  0  0  0  0  0
    3.2413    0.7570    0.0000 C   0  0  0  0  0  0  0  0  0  0  0  0
    2.0852    0.2065    0.0000 C   0  0  3  0  0  0  0  0  0  0  0  0
    2.8146    2.2709    0.0000 C   0  0  0  0  0  0  0  0  0  0  0  0
   -1.4796    1.4452    0.0000 C   0  0  3  0  0  0  0  0  0  0  0  0
   -2.1953    1.0460    0.0000 C   0  0  3  0  0  0  0  0  0  0  0  0
    0.6675    0.1927    0.0000 C   0  0  0  0  0  0  0  0  0  0  0  0
   -0.0344   -0.1927    0.0000 C   0  0  3  0  0  0  0  0  0  0  0  0
    2.8008   -0.1927    0.0000 C   0  0  0  0  0  0  0  0  0  0  0  0
   -0.7363    0.9910    0.0000 C   0  0  0  0  0  0  0  0  0  0  0  0
    2.8146   -1.0322    0.0000 C   0  0  0  0  0  0  0  0  0  0  0  0
   -0.0206   -1.0322    0.0000 C   0  0  0  0  0  0  0  0  0  0  0  0
   -2.8971    1.4589    0.0000 C   0  0  0  0  0  0  0  0  0  0  0  0
   -0.7501   -1.4313    0.0000 C   0  0  0  0  0  0  0  0  0  0  0  0
   -2.2090    2.6839    0.0000 C   0  0  0  0  0  0  0  0  0  0  0  0
   -1.7961    0.3579    0.0000 C   0  0  0  0  0  0  0  0  0  0  0  0
   -2.8971    2.2847    0.0000 C   0  0  0  0  0  0  0  0  0  0  0  0
    3.5165   -1.4313    0.0000 C   0  0  0  0  0  0  0  0  0  0  0  0
    2.0989   -1.4452    0.0000 C   0  0  0  0  0  0  0  0  0  0  0  0
   -1.4796   -1.0460    0.0000 C   0  0  0  0  0  0  0  0  0  0  0  0
   -0.7639   -2.2572    0.0000 C   0  0  0  0  0  0  0  0  0  0  0  0
   -2.1953   -2.2572    0.0000 C   0  0  0  0  0  0  0  0  0  0  0  0
   -2.1814   -1.4313    0.0000 C   0  0  0  0  0  0  0  0  0  0  0  0
   -1.4658   -2.6700    0.0000 C   0  0  0  0  0  0  0  0  0  0  0  0
    3.5165   -2.2572    0.0000 C   0  0  0  0  0  0  0  0  0  0  0  0
    2.0989   -2.2572    0.0000 C   0  0  0  0  0  0  0  0  0  0  0  0
    2.8284   -2.6700    0.0000 C   0  0  0  0  0  0  0  0  0  0  0  0
   -3.6266   -2.2847    0.0000 C   0  0  0  0  0  0  0  0  0  0  0  0
  1 10  1  0  0  0  0
  1 12  1  0  0  0  0
  2 11  2  0  0  0  0
 16  3  1  1  0  0  0
  4 17  2  0  0  0  0
  5 20  2  0  0  0  0
  6 32  1  0  0  0  0
  6 38  1  0  0  0  0
 13  7  1  6  0  0  0
  7 17  1  0  0  0  0
 18  8  1  6  0  0  0
  8 20  1  0  0  0  0
  9 15  1  0  0  0  0
  9 25  1  0  0  0  0
 10 11  1  6  0  0  0
 10 12  1  0  0  0  0
 10 14  1  1  0  0  0
 11 13  1  0  0  0  0
 13 19  1  0  0  0  0
 15 16  1  0  0  0  0
 15 20  1  6  0  0  0
 16 23  1  0  0  0  0
 16 26  1  6  0  0  0
 17 18  1  0  0  0  0
 18 22  1  0  0  0  0
 19 21  1  0  0  0  0
 21 28  2  0  0  0  0
 21 29  1  0  0  0  0
 22 24  1  0  0  0  0
 23 27  1  0  0  0  0
 24 30  2  0  0  0  0
 24 31  1  0  0  0  0
 25 27  1  0  0  0  0
 28 35  1  0  0  0  0
 29 36  2  0  0  0  0
 30 33  1  0  0  0  0
 31 34  2  0  0  0  0
 32 33  2  0  0  0  0
 32 34  1  0  0  0  0
 35 37  2  0  0  0  0
 36 37  1  0  0  0  0
M  END
> <PUBCHEM_COMPOUND_ID_TYPE>
0

> <PUBCHEM_TOTAL_CHARGE>
0

> <PUBCHEM_SUBSTANCE_ID>
310946033

> <PUBCHEM_SUBSTANCE_VERSION>
1

> <PUBCHEM_EXT_DATASOURCE_NAME>
4488

> <PUBCHEM_EXT_DATASOURCE_REGID>
SCHEMBL16124139

> <PUBCHEM_SUBSTANCE_COMMENT>
InChI=1S/C29H37N3O6/c1-28(36)14-7-15-30-24(28)27(35)32-23(17-20-10-12-21(37-3)13-11-20)26(34)31-22(25(33)29(2)18-38-29)16-19-8-5-4-6-9-19/h4-6,8-13,22-24,30,36H,7,14-18H2,1-3H3,(H,31,34)(H,32,35)/t22-,23-,24+,28-,29+/m0/s1
InChIKey=DVHXUPQSYAIDCE-LLDYCXCWSA-N

> <PUBCHEM_SUBSTANCE_SYNONYM>
SCHEMBL16124139

> <PUBCHEM_XREF_EXT_ID>
SCHEMBL16124139

> <PUBCHEM_EXT_DATASOURCE_URL>
https://www.surechembl.org/

> <PUBCHEM_EXT_SUBSTANCE_URL>
https://www.surechembl.org/chemical/SCHEMBL16124139

> <PUBCHEM_CID_ASSOCIATIONS>
117612004  1

> <PUBCHEM_COORDINATE_TYPE>
1
3

> <PUBCHEM_BONDANNOTATIONS>
10  11  6
10  14  5
15  20  6
16  26  6
16  3  5
13  7  6
18  8  6

$$$$
