310935224
  -OEChem-07211613022D

 23 25  0     0  0  0  0  0  0999 V2000
    5.1389   -2.0132    0.0000 S   0  0  0  0  0  0  0  0  0  0  0  0
    6.5164   -4.5561    0.0000 O   0  0  0  0  0  0  0  0  0  0  0  0
    4.0793   -0.6622    0.0000 N   0  0  0  0  0  0  0  0  0  0  0  0
    6.4634   -2.0132    0.0000 N   0  0  0  0  0  0  0  0  0  0  0  0
    5.4038   -1.2450    0.0000 C   0  0  0  0  0  0  0  0  0  0  0  0
    5.8011   -2.4900    0.0000 C   0  0  0  0  0  0  0  0  0  0  0  0
    2.4635   -0.7946    0.0000 C   0  0  0  0  0  0  0  0  0  0  0  0
    4.9270   -0.5828    0.0000 C   0  0  0  0  0  0  0  0  0  0  0  0
    1.6423   -0.9006    0.0000 C   0  0  0  0  0  0  0  0  0  0  0  0
    6.1985   -1.2450    0.0000 C   0  0  0  0  0  0  0  0  0  0  0  0
    3.7614   -1.4040    0.0000 C   0  0  0  0  0  0  0  0  0  0  0  0
    3.6290    0.0000    0.0000 C   0  0  0  0  0  0  0  0  0  0  0  0
    2.9403   -1.4834    0.0000 C   0  0  0  0  0  0  0  0  0  0  0  0
    2.8078   -0.0530    0.0000 C   0  0  0  0  0  0  0  0  0  0  0  0
    5.8011   -3.3111    0.0000 C   0  0  0  0  0  0  0  0  0  0  0  0
    1.2980   -1.6423    0.0000 C   0  0  0  0  0  0  0  0  0  0  0  0
    1.1655   -0.2119    0.0000 C   0  0  0  0  0  0  0  0  0  0  0  0
    6.5164   -3.7350    0.0000 C   0  0  0  0  0  0  0  0  0  0  0  0
    0.4768   -1.7218    0.0000 C   0  0  0  0  0  0  0  0  0  0  0  0
    0.3443   -0.2914    0.0000 C   0  0  0  0  0  0  0  0  0  0  0  0
    0.0000   -1.0331    0.0000 C   0  0  0  0  0  0  0  0  0  0  0  0
    7.2316   -3.3111    0.0000 C   0  0  0  0  0  0  0  0  0  0  0  0
    7.9468   -3.7350    0.0000 C   0  0  0  0  0  0  0  0  0  0  0  0
  1  5  1  0  0  0  0
  1  6  1  0  0  0  0
  2 18  2  0  0  0  0
  3  8  1  0  0  0  0
  3 11  1  0  0  0  0
  3 12  1  0  0  0  0
  4  6  2  0  0  0  0
  4 10  1  0  0  0  0
  5  8  1  0  0  0  0
  5 10  2  0  0  0  0
  6 15  1  0  0  0  0
  7  9  1  0  0  0  0
  7 13  1  0  0  0  0
  7 14  1  0  0  0  0
  9 16  2  0  0  0  0
  9 17  1  0  0  0  0
 11 13  1  0  0  0  0
 12 14  1  0  0  0  0
 15 18  1  0  0  0  0
 16 19  1  0  0  0  0
 17 20  2  0  0  0  0
 18 22  1  0  0  0  0
 19 21  2  0  0  0  0
 20 21  1  0  0  0  0
 22 23  1  0  0  0  0
M  END
> <PUBCHEM_COMPOUND_ID_TYPE>
0

> <PUBCHEM_TOTAL_CHARGE>
0

> <PUBCHEM_SUBSTANCE_ID>
310935224

> <PUBCHEM_SUBSTANCE_VERSION>
1

> <PUBCHEM_EXT_DATASOURCE_NAME>
4488

> <PUBCHEM_EXT_DATASOURCE_REGID>
SCHEMBL16112752

> <PUBCHEM_SUBSTANCE_COMMENT>
InChI=1S/C19H24N2OS/c1-2-17(22)12-19-20-13-18(23-19)14-21-10-8-16(9-11-21)15-6-4-3-5-7-15/h3-7,13,16H,2,8-12,14H2,1H3
InChIKey=ICIHPKZSRUTFGV-UHFFFAOYSA-N

> <PUBCHEM_SUBSTANCE_SYNONYM>
SCHEMBL16112752

> <PUBCHEM_XREF_EXT_ID>
SCHEMBL16112752

> <PUBCHEM_EXT_DATASOURCE_URL>
https://www.surechembl.org/

> <PUBCHEM_EXT_SUBSTANCE_URL>
https://www.surechembl.org/chemical/SCHEMBL16112752

> <PUBCHEM_CID_ASSOCIATIONS>
86274808  1

> <PUBCHEM_COORDINATE_TYPE>
1
3

$$$$
