310947559
  -OEChem-07211613022D

 21 23  0     1  0  0  0  0  0999 V2000
   -1.8169   -4.7239    0.0000 F   0  0  0  0  0  0  0  0  0  0  0  0
   -0.9919   -2.7399    0.0000 O   0  0  0  0  0  0  0  0  0  0  0  0
   -0.1669   -4.7239    0.0000 O   0  0  0  0  0  0  0  0  0  0  0  0
    1.1746   -0.0824    0.0000 O   0  0  0  0  0  0  0  0  0  0  0  0
   -0.3245   -2.3998    0.0000 N   0  0  0  0  0  0  0  0  0  0  0  0
   -0.3245   -1.0649    0.0000 N   0  0  0  0  0  0  0  0  0  0  0  0
    1.1746   -2.5574    0.0000 N   0  0  0  0  0  0  0  0  0  0  0  0
    1.8891   -1.3199    0.0000 N   0  0  0  0  0  0  0  0  0  0  0  0
   -0.3245   -3.2248    0.0000 C   0  0  3  0  0  0  0  0  0  0  0  0
   -0.5794   -4.0094    0.0000 C   0  0  3  0  0  0  0  0  0  0  0  0
    0.4602   -2.1449    0.0000 C   0  0  0  0  0  0  0  0  0  0  0  0
   -1.4044   -4.0094    0.0000 C   0  0  3  0  0  0  0  0  0  0  0  0
    0.4602   -1.3199    0.0000 C   0  0  0  0  0  0  0  0  0  0  0  0
   -1.6593   -3.2248    0.0000 C   0  0  3  0  0  0  0  0  0  0  0  0
   -0.8094   -1.7324    0.0000 C   0  0  0  0  0  0  0  0  0  0  0  0
    1.1746   -0.9074    0.0000 C   0  0  0  0  0  0  0  0  0  0  0  0
    0.2175   -3.7959    0.0000 C   0  0  0  0  0  0  0  0  0  0  0  0
    1.8891   -2.1449    0.0000 C   0  0  0  0  0  0  0  0  0  0  0  0
   -2.2427   -2.6415    0.0000 C   0  0  0  0  0  0  0  0  0  0  0  0
    2.6036   -2.5574    0.0000 C   0  0  0  0  0  0  0  0  0  0  0  0
   -3.0396   -2.8550    0.0000 C   0  0  0  0  0  0  0  0  0  0  0  0
 12  1  1  6  0  0  0
  9  2  1  6  0  0  0
  2 14  1  0  0  0  0
 10  3  1  6  0  0  0
  4 16  2  0  0  0  0
  5  9  1  0  0  0  0
  5 11  1  0  0  0  0
  5 15  1  0  0  0  0
  6 13  1  0  0  0  0
  6 15  2  0  0  0  0
  7 11  1  0  0  0  0
  7 18  2  0  0  0  0
  8 16  1  0  0  0  0
  8 18  1  0  0  0  0
  9 10  1  0  0  0  0
 10 12  1  0  0  0  0
 10 17  1  1  0  0  0
 11 13  2  0  0  0  0
 12 14  1  0  0  0  0
 13 16  1  0  0  0  0
 14 19  1  1  0  0  0
 18 20  1  0  0  0  0
 19 21  1  0  0  0  0
M  END
> <PUBCHEM_COMPOUND_ID_TYPE>
0

> <PUBCHEM_TOTAL_CHARGE>
0

> <PUBCHEM_SUBSTANCE_ID>
310947559

> <PUBCHEM_SUBSTANCE_VERSION>
1

> <PUBCHEM_EXT_DATASOURCE_NAME>
4488

> <PUBCHEM_EXT_DATASOURCE_REGID>
SCHEMBL16125722

> <PUBCHEM_SUBSTANCE_COMMENT>
InChI=1S/C13H17FN4O3/c1-4-7-9(14)13(3,20)12(21-7)18-5-15-8-10(18)16-6(2)17-11(8)19/h5,7,9,12,20H,4H2,1-3H3,(H,16,17,19)/t7-,9-,12-,13-/m1/s1
InChIKey=PHMDDWCLBIITPS-NHULRPGXSA-N

> <PUBCHEM_SUBSTANCE_SYNONYM>
SCHEMBL16125722

> <PUBCHEM_XREF_EXT_ID>
SCHEMBL16125722

> <PUBCHEM_EXT_DATASOURCE_URL>
https://www.surechembl.org/

> <PUBCHEM_EXT_SUBSTANCE_URL>
https://www.surechembl.org/chemical/SCHEMBL16125722

> <PUBCHEM_CID_ASSOCIATIONS>
117613281  1

> <PUBCHEM_COORDINATE_TYPE>
1
3

> <PUBCHEM_BONDANNOTATIONS>
12  1  6
10  17  5
14  19  5
9  2  6
10  3  6

$$$$
