310935017
  -OEChem-07211613022D

 27 29  0     0  0  0  0  0  0999 V2000
   -0.4962    3.6395    0.0000 F   0  0  0  0  0  0  0  0  0  0  0  0
   -5.7158   -1.6500    0.0000 F   0  0  0  0  0  0  0  0  0  0  0  0
   -2.1434   -0.4125    0.0000 O   0  0  0  0  0  0  0  0  0  0  0  0
    1.0947   -0.0935    0.0000 O   0  0  0  0  0  0  0  0  0  0  0  0
    1.3427    1.3138    0.0000 O   0  0  0  0  0  0  0  0  0  0  0  0
    0.0000    0.8250    0.0000 C   0  0  0  0  0  0  0  0  0  0  0  0
    0.2822    1.6003    0.0000 C   0  0  0  0  0  0  0  0  0  0  0  0
   -1.4290    0.0000    0.0000 C   0  0  0  0  0  0  0  0  0  0  0  0
    0.0000    0.0000    0.0000 C   0  0  0  0  0  0  0  0  0  0  0  0
   -0.7144    1.2375    0.0000 C   0  0  0  0  0  0  0  0  0  0  0  0
    0.8124    0.6817    0.0000 C   0  0  0  0  0  0  0  0  0  0  0  0
   -0.2481    2.2322    0.0000 C   0  0  0  0  0  0  0  0  0  0  0  0
   -0.7144   -0.4125    0.0000 C   0  0  0  0  0  0  0  0  0  0  0  0
   -1.4290    0.8250    0.0000 C   0  0  0  0  0  0  0  0  0  0  0  0
    1.0947    1.7435    0.0000 C   0  0  0  0  0  0  0  0  0  0  0  0
    0.0341    3.0075    0.0000 C   0  0  0  0  0  0  0  0  0  0  0  0
    1.3768    2.5187    0.0000 C   0  0  0  0  0  0  0  0  0  0  0  0
    0.8465    3.1507    0.0000 C   0  0  0  0  0  0  0  0  0  0  0  0
   -1.4290   -0.8250    0.0000 C   0  0  0  0  0  0  0  0  0  0  0  0
   -1.0606    2.0890    0.0000 C   0  0  0  0  0  0  0  0  0  0  0  0
   -2.8579    0.0000    0.0000 C   0  0  0  0  0  0  0  0  0  0  0  0
   -3.5724   -0.4125    0.0000 C   0  0  0  0  0  0  0  0  0  0  0  0
   -4.2868    0.0000    0.0000 C   0  0  0  0  0  0  0  0  0  0  0  0
   -3.5724   -1.2375    0.0000 C   0  0  0  0  0  0  0  0  0  0  0  0
   -5.0013   -1.2375    0.0000 C   0  0  0  0  0  0  0  0  0  0  0  0
   -5.0013   -0.4125    0.0000 C   0  0  0  0  0  0  0  0  0  0  0  0
   -4.2868   -1.6500    0.0000 C   0  0  0  0  0  0  0  0  0  0  0  0
  1 16  1  0  0  0  0
  2 25  1  0  0  0  0
  8  3  1  6  0  0  0
  3 21  1  0  0  0  0
  4 11  2  0  0  0  0
  5 11  1  0  0  0  0
  6  7  1  0  0  0  0
  6  9  1  0  0  0  0
  6 10  1  0  0  0  0
  6 11  1  1  0  0  0
  7 12  1  0  0  0  0
  7 15  2  0  0  0  0
  8 13  1  0  0  0  0
  8 14  1  0  0  0  0
  8 19  1  1  0  0  0
  9 13  1  0  0  0  0
 10 14  1  0  0  0  0
 12 16  2  0  0  0  0
 12 20  1  0  0  0  0
 15 17  1  0  0  0  0
 16 18  1  0  0  0  0
 17 18  2  0  0  0  0
 21 22  1  0  0  0  0
 22 23  2  0  0  0  0
 22 24  1  0  0  0  0
 23 26  1  0  0  0  0
 24 27  2  0  0  0  0
 25 26  2  0  0  0  0
 25 27  1  0  0  0  0
M  END
> <PUBCHEM_COMPOUND_ID_TYPE>
0

> <PUBCHEM_TOTAL_CHARGE>
0

> <PUBCHEM_SUBSTANCE_ID>
310935017

> <PUBCHEM_SUBSTANCE_VERSION>
1

> <PUBCHEM_EXT_DATASOURCE_NAME>
4488

> <PUBCHEM_EXT_DATASOURCE_REGID>
SCHEMBL16112536

> <PUBCHEM_SUBSTANCE_COMMENT>
InChI=1S/C22H24F2O3/c1-15-18(4-3-5-19(15)24)22(20(25)26)12-10-21(2,11-13-22)27-14-16-6-8-17(23)9-7-16/h3-9H,10-14H2,1-2H3,(H,25,26)/t21-,22-
InChIKey=LCDQBUPZWNIDHY-HZCBDIJESA-N

> <PUBCHEM_SUBSTANCE_SYNONYM>
SCHEMBL16112536

> <PUBCHEM_XREF_EXT_ID>
SCHEMBL16112536

> <PUBCHEM_EXT_DATASOURCE_URL>
https://www.surechembl.org/

> <PUBCHEM_EXT_SUBSTANCE_URL>
https://www.surechembl.org/chemical/SCHEMBL16112536

> <PUBCHEM_CID_ASSOCIATIONS>
117603128  1

> <PUBCHEM_COORDINATE_TYPE>
1
3

> <PUBCHEM_BONDANNOTATIONS>
8  3  6
6  11  5
8  19  5

$$$$
