310941421
  -OEChem-07211613022D

 21 22  0     1  0  0  0  0  0999 V2000
    1.4483    0.7929    0.0000 O   0  0  0  0  0  0  0  0  0  0  0  0
    0.0000   -0.8879    0.0000 O   0  0  0  0  0  0  0  0  0  0  0  0
    0.5821   -1.8492    0.0000 O   0  0  0  0  0  0  0  0  0  0  0  0
    0.0828   -2.6704    0.0000 O   0  0  0  0  0  0  0  0  0  0  0  0
   -1.4483   -0.0297    0.0000 N   0  0  0  0  0  0  0  0  0  0  0  0
    0.7331    0.4173    0.0000 C   0  0  3  0  0  0  0  0  0  0  0  0
    0.0000    0.0061    0.0000 C   0  0  0  0  0  0  0  0  0  0  0  0
    1.4483    0.0061    0.0000 C   0  0  0  0  0  0  0  0  0  0  0  0
   -0.7331    0.4173    0.0000 C   0  0  3  0  0  0  0  0  0  0  0  0
    0.1430    0.9896    0.0000 C   0  0  0  0  0  0  0  0  0  0  0  0
   -0.7152    1.2578    0.0000 C   0  0  0  0  0  0  0  0  0  0  0  0
    0.0828   -2.1378    0.0000 C   0  0  0  0  0  0  0  0  0  0  0  0
    0.0000    1.6690    0.0000 C   0  0  0  0  0  0  0  0  0  0  0  0
    0.5932   -1.2945    0.0000 C   0  0  0  0  0  0  0  0  0  0  0  0
    0.1073    2.5094    0.0000 C   0  0  0  0  0  0  0  0  0  0  0  0
    0.7867    1.3472    0.0000 C   0  0  0  0  0  0  0  0  0  0  0  0
    0.9298    2.6704    0.0000 C   0  0  0  0  0  0  0  0  0  0  0  0
    1.3231    1.9372    0.0000 C   0  0  0  0  0  0  0  0  0  0  0  0
    1.0925   -1.2723    0.0000 C   0  0  0  0  0  0  0  0  0  0  0  0
    0.0828   -1.2945    0.0000 C   0  0  0  0  0  0  0  0  0  0  0  0
    0.5821   -0.7509    0.0000 C   0  0  0  0  0  0  0  0  0  0  0  0
  1  6  1  0  0  0  0
  1  8  1  0  0  0  0
  2  7  2  0  0  0  0
  3 12  1  0  0  0  0
  3 14  1  0  0  0  0
  4 12  2  0  0  0  0
  9  5  1  1  0  0  0
  5 12  1  0  0  0  0
  6  7  1  6  0  0  0
  6  8  1  0  0  0  0
  6 10  1  1  0  0  0
  7  9  1  0  0  0  0
  9 11  1  0  0  0  0
 11 13  1  0  0  0  0
 13 15  1  0  0  0  0
 13 16  1  0  0  0  0
 14 19  1  0  0  0  0
 14 20  1  0  0  0  0
 14 21  1  0  0  0  0
 15 17  1  0  0  0  0
 16 18  1  0  0  0  0
 17 18  1  0  0  0  0
M  END
> <PUBCHEM_COMPOUND_ID_TYPE>
0

> <PUBCHEM_TOTAL_CHARGE>
0

> <PUBCHEM_SUBSTANCE_ID>
310941421

> <PUBCHEM_SUBSTANCE_VERSION>
1

> <PUBCHEM_EXT_DATASOURCE_NAME>
4488

> <PUBCHEM_EXT_DATASOURCE_REGID>
SCHEMBL16119381

> <PUBCHEM_SUBSTANCE_COMMENT>
InChI=1S/C16H27NO4/c1-15(2,3)21-14(19)17-12(9-11-7-5-6-8-11)13(18)16(4)10-20-16/h11-12H,5-10H2,1-4H3,(H,17,19)/t12-,16+/m0/s1
InChIKey=DQLKFBZCHSHHSW-BLLLJJGKSA-N

> <PUBCHEM_SUBSTANCE_SYNONYM>
SCHEMBL16119381

> <PUBCHEM_XREF_EXT_ID>
SCHEMBL16119381

> <PUBCHEM_EXT_DATASOURCE_URL>
https://www.surechembl.org/

> <PUBCHEM_EXT_SUBSTANCE_URL>
https://www.surechembl.org/chemical/SCHEMBL16119381

> <PUBCHEM_CID_ASSOCIATIONS>
117608246  1

> <PUBCHEM_COORDINATE_TYPE>
1
3

> <PUBCHEM_BONDANNOTATIONS>
9  5  5
6  10  5
6  7  6

$$$$
