310949608
  -OEChem-07211613022D

 31 36  0     1  0  0  0  0  0999 V2000
   -1.2886    1.3995    0.0000 N   0  0  0  0  0  0  0  0  0  0  0  0
   -1.2748    2.7436    0.0000 N   0  0  0  0  0  0  0  0  0  0  0  0
   -0.5404   -0.9838    0.0000 N   0  0  0  0  0  0  0  0  0  0  0  0
    1.3025    1.6489    0.0000 N   0  0  0  0  0  0  0  0  0  0  0  0
   -0.7898    2.0785    0.0000 C   0  0  0  0  0  0  0  0  0  0  0  0
   -2.0785    1.6766    0.0000 C   0  0  0  0  0  0  0  0  0  0  0  0
   -2.0646    2.4942    0.0000 C   0  0  0  0  0  0  0  0  0  0  0  0
   -1.0393    0.6374    0.0000 C   0  0  0  0  0  0  0  0  0  0  0  0
    0.0554    2.0508    0.0000 C   0  0  3  0  0  0  0  0  0  0  0  0
   -2.7851    1.2609    0.0000 C   0  0  0  0  0  0  0  0  0  0  0  0
   -2.7851    2.8960    0.0000 C   0  0  0  0  0  0  0  0  0  0  0  0
   -1.5658    0.0000    0.0000 C   0  0  0  0  0  0  0  0  0  0  0  0
   -0.2079    0.4295    0.0000 C   0  0  0  0  0  0  0  0  0  0  0  0
    0.5543    1.3995    0.0000 C   0  0  0  0  0  0  0  0  0  0  0  0
    0.5266    2.7159    0.0000 C   0  0  0  0  0  0  0  0  0  0  0  0
   -3.5057    1.6766    0.0000 C   0  0  0  0  0  0  0  0  0  0  0  0
   -3.4918    2.5080    0.0000 C   0  0  0  0  0  0  0  0  0  0  0  0
   -1.3441   -0.7898    0.0000 C   0  0  0  0  0  0  0  0  0  0  0  0
    0.0415   -0.3741    0.0000 C   0  0  0  0  0  0  0  0  0  0  0  0
    1.3302    2.4803    0.0000 C   0  0  0  0  0  0  0  0  0  0  0  0
    0.5404   -1.9399    0.0000 C   0  0  0  0  0  0  0  0  0  0  0  0
   -0.2771   -1.7598    0.0000 C   0  0  0  0  0  0  0  0  0  0  0  0
    1.8984   -1.4965    0.0000 C   0  0  0  0  0  0  0  0  0  0  0  0
    2.1478   -2.3002    0.0000 C   0  0  0  0  0  0  0  0  0  0  0  0
    1.0947   -1.3302    0.0000 C   0  0  0  0  0  0  0  0  0  0  0  0
    0.7898   -2.7159    0.0000 C   0  0  0  0  0  0  0  0  0  0  0  0
    1.6074   -2.8960    0.0000 C   0  0  0  0  0  0  0  0  0  0  0  0
    2.4665   -0.9007    0.0000 C   0  0  0  0  0  0  0  0  0  0  0  0
    2.9792   -2.4665    0.0000 C   0  0  0  0  0  0  0  0  0  0  0  0
    3.2701   -1.0670    0.0000 C   0  0  0  0  0  0  0  0  0  0  0  0
    3.5057   -1.8707    0.0000 C   0  0  0  0  0  0  0  0  0  0  0  0
  1  5  1  0  0  0  0
  1  6  1  0  0  0  0
  1  8  1  0  0  0  0
  2  5  2  0  0  0  0
  2  7  1  0  0  0  0
  3 18  1  0  0  0  0
  3 19  1  0  0  0  0
  3 22  1  0  0  0  0
  4 14  1  0  0  0  0
  4 20  1  0  0  0  0
  9  5  1  6  0  0  0
  6  7  1  0  0  0  0
  6 10  2  0  0  0  0
  7 11  2  0  0  0  0
  8 12  1  0  0  0  0
  8 13  1  0  0  0  0
  9 14  1  0  0  0  0
  9 15  1  0  0  0  0
 10 16  1  0  0  0  0
 11 17  1  0  0  0  0
 12 18  1  0  0  0  0
 13 19  1  0  0  0  0
 15 20  1  0  0  0  0
 16 17  2  0  0  0  0
 21 22  1  0  0  0  0
 21 25  2  0  0  0  0
 21 26  1  0  0  0  0
 23 24  2  0  0  0  0
 23 25  1  0  0  0  0
 23 28  1  0  0  0  0
 24 27  1  0  0  0  0
 24 29  1  0  0  0  0
 26 27  2  0  0  0  0
 28 30  2  0  0  0  0
 29 31  2  0  0  0  0
 30 31  1  0  0  0  0
M  END
> <PUBCHEM_COMPOUND_ID_TYPE>
0

> <PUBCHEM_TOTAL_CHARGE>
0

> <PUBCHEM_SUBSTANCE_ID>
310949608

> <PUBCHEM_SUBSTANCE_VERSION>
1

> <PUBCHEM_EXT_DATASOURCE_NAME>
4488

> <PUBCHEM_EXT_DATASOURCE_REGID>
SCHEMBL16127805

> <PUBCHEM_SUBSTANCE_COMMENT>
InChI=1S/C27H30N4/c1-2-6-22-17-20(9-10-21(22)5-1)19-30-15-12-24(13-16-30)31-26-8-4-3-7-25(26)29-27(31)23-11-14-28-18-23/h1-10,17,23-24,28H,11-16,18-19H2/t23-/m1/s1
InChIKey=GGESSVVGRFSPNS-HSZRJFAPSA-N

> <PUBCHEM_SUBSTANCE_SYNONYM>
SCHEMBL16127805

> <PUBCHEM_XREF_EXT_ID>
SCHEMBL16127805

> <PUBCHEM_EXT_DATASOURCE_URL>
https://www.surechembl.org/

> <PUBCHEM_EXT_SUBSTANCE_URL>
https://www.surechembl.org/chemical/SCHEMBL16127805

> <PUBCHEM_CID_ASSOCIATIONS>
86275496  1

> <PUBCHEM_COORDINATE_TYPE>
1
3

> <PUBCHEM_BONDANNOTATIONS>
9  5  6

$$$$
