310948214
  -OEChem-07211613022D

 45 49  0     0  0  0  0  0  0999 V2000
   -2.6105   -3.1647    0.0000 S   0  0  0  0  0  0  0  0  0  0  0  0
   -0.9119    4.2554    0.0000 F   0  0  0  0  0  0  0  0  0  0  0  0
    0.2146    4.4163    0.0000 F   0  0  0  0  0  0  0  0  0  0  0  0
    0.3754    3.2899    0.0000 F   0  0  0  0  0  0  0  0  0  0  0  0
    3.2899   -3.1111    0.0000 F   0  0  0  0  0  0  0  0  0  0  0  0
    2.7356   -2.0920    0.0000 F   0  0  0  0  0  0  0  0  0  0  0  0
    2.2350   -3.6118    0.0000 F   0  0  0  0  0  0  0  0  0  0  0  0
    1.5913    1.2695    0.0000 O   0  0  0  0  0  0  0  0  0  0  0  0
   -3.0038   -2.4853    0.0000 O   0  0  0  0  0  0  0  0  0  0  0  0
   -2.1992   -3.8800    0.0000 O   0  0  0  0  0  0  0  0  0  0  0  0
    1.7165   -2.6105    0.0000 O   0  0  0  0  0  0  0  0  0  0  0  0
   -0.4470   -4.4163    0.0000 O   0  0  0  0  0  0  0  0  0  0  0  0
   -1.1622    1.8237    0.0000 N   0  0  0  0  0  0  0  0  0  0  0  0
   -0.5006    2.3244    0.0000 N   0  0  0  0  0  0  0  0  0  0  0  0
    0.3576    1.8237    0.0000 N   0  0  0  0  0  0  0  0  0  0  0  0
   -0.4470    0.5900    0.0000 C   0  0  0  0  0  0  0  0  0  0  0  0
   -1.1622    1.0012    0.0000 C   0  0  0  0  0  0  0  0  0  0  0  0
    0.2682    1.0012    0.0000 C   0  0  0  0  0  0  0  0  0  0  0  0
    1.0371    0.6795    0.0000 C   0  0  0  0  0  0  0  0  0  0  0  0
   -1.1622   -0.6616    0.0000 C   0  0  0  0  0  0  0  0  0  0  0  0
   -0.4470   -0.2504    0.0000 C   0  0  0  0  0  0  0  0  0  0  0  0
   -1.8416    2.3423    0.0000 C   0  0  0  0  0  0  0  0  0  0  0  0
   -0.7510    3.1112    0.0000 C   0  0  0  0  0  0  0  0  0  0  0  0
   -1.8595    0.5900    0.0000 C   0  0  0  0  0  0  0  0  0  0  0  0
    1.2158   -0.1430    0.0000 C   0  0  0  0  0  0  0  0  0  0  0  0
   -1.1622   -1.5019    0.0000 C   0  0  0  0  0  0  0  0  0  0  0  0
    1.1622    1.9847    0.0000 C   0  0  0  0  0  0  0  0  0  0  0  0
   -1.8595   -0.2504    0.0000 C   0  0  0  0  0  0  0  0  0  0  0  0
   -1.5735    3.1112    0.0000 C   0  0  0  0  0  0  0  0  0  0  0  0
   -0.2682    3.7727    0.0000 C   0  0  0  0  0  0  0  0  0  0  0  0
   -1.8774   -2.7356    0.0000 C   0  0  0  0  0  0  0  0  0  0  0  0
   -1.8774   -1.9131    0.0000 C   0  0  0  0  0  0  0  0  0  0  0  0
   -1.1443   -3.1469    0.0000 C   0  0  0  0  0  0  0  0  0  0  0  0
   -0.4470   -1.9131    0.0000 C   0  0  0  0  0  0  0  0  0  0  0  0
    0.6079   -0.6973    0.0000 C   0  0  0  0  0  0  0  0  0  0  0  0
    1.9847   -0.4112    0.0000 C   0  0  0  0  0  0  0  0  0  0  0  0
   -0.4470   -2.7535    0.0000 C   0  0  0  0  0  0  0  0  0  0  0  0
   -2.6284    2.0383    0.0000 C   0  0  0  0  0  0  0  0  0  0  0  0
    1.5377   -1.7880    0.0000 C   0  0  0  0  0  0  0  0  0  0  0  0
    1.5198    2.7714    0.0000 C   0  0  0  0  0  0  0  0  0  0  0  0
    0.7688   -1.5198    0.0000 C   0  0  0  0  0  0  0  0  0  0  0  0
    2.1635   -1.2158    0.0000 C   0  0  0  0  0  0  0  0  0  0  0  0
   -1.1622   -3.9872    0.0000 C   0  0  0  0  0  0  0  0  0  0  0  0
   -3.2899   -3.5760    0.0000 C   0  0  0  0  0  0  0  0  0  0  0  0
    2.5032   -2.8608    0.0000 C   0  0  0  0  0  0  0  0  0  0  0  0
  1  9  2  0  0  0  0
  1 10  2  0  0  0  0
  1 31  1  0  0  0  0
  1 44  1  0  0  0  0
  2 30  1  0  0  0  0
  3 30  1  0  0  0  0
  4 30  1  0  0  0  0
  5 45  1  0  0  0  0
  6 45  1  0  0  0  0
  7 45  1  0  0  0  0
  8 19  1  0  0  0  0
  8 27  1  0  0  0  0
 11 39  1  0  0  0  0
 11 45  1  0  0  0  0
 12 43  1  0  0  0  0
 13 14  1  0  0  0  0
 13 17  1  0  0  0  0
 13 22  1  0  0  0  0
 14 23  2  0  0  0  0
 15 18  1  0  0  0  0
 15 27  2  0  0  0  0
 16 17  1  0  0  0  0
 16 18  1  0  0  0  0
 16 21  2  0  0  0  0
 17 24  2  0  0  0  0
 18 19  2  0  0  0  0
 19 25  1  0  0  0  0
 20 21  1  0  0  0  0
 20 26  1  0  0  0  0
 20 28  2  0  0  0  0
 22 29  2  0  0  0  0
 22 38  1  0  0  0  0
 23 29  1  0  0  0  0
 23 30  1  0  0  0  0
 24 28  1  0  0  0  0
 25 35  2  0  0  0  0
 25 36  1  0  0  0  0
 26 32  2  0  0  0  0
 26 34  1  0  0  0  0
 27 40  1  0  0  0  0
 31 32  1  0  0  0  0
 31 33  2  0  0  0  0
 33 37  1  0  0  0  0
 33 43  1  0  0  0  0
 34 37  2  0  0  0  0
 35 41  1  0  0  0  0
 36 42  2  0  0  0  0
 39 41  2  0  0  0  0
 39 42  1  0  0  0  0
M  END
> <PUBCHEM_COMPOUND_ID_TYPE>
0

> <PUBCHEM_TOTAL_CHARGE>
0

> <PUBCHEM_SUBSTANCE_ID>
310948214

> <PUBCHEM_SUBSTANCE_VERSION>
1

> <PUBCHEM_EXT_DATASOURCE_NAME>
4488

> <PUBCHEM_EXT_DATASOURCE_REGID>
SCHEMBL16126391

> <PUBCHEM_SUBSTANCE_COMMENT>
InChI=1S/C30H23F6N3O5S/c1-16-12-26(29(31,32)33)38-39(16)24-11-8-19(20-4-5-21(15-40)25(14-20)45(3,41)42)13-23(24)27-28(43-17(2)37-27)18-6-9-22(10-7-18)44-30(34,35)36/h4-14,40H,15H2,1-3H3
InChIKey=LGXMPWTVYBQOTJ-UHFFFAOYSA-N

> <PUBCHEM_SUBSTANCE_SYNONYM>
SCHEMBL16126391

> <PUBCHEM_XREF_EXT_ID>
SCHEMBL16126391

> <PUBCHEM_EXT_DATASOURCE_URL>
https://www.surechembl.org/

> <PUBCHEM_EXT_SUBSTANCE_URL>
https://www.surechembl.org/chemical/SCHEMBL16126391

> <PUBCHEM_CID_ASSOCIATIONS>
117613794  1

> <PUBCHEM_COORDINATE_TYPE>
1
3

$$$$
