310942511
  -OEChem-07211613022D

 55 59  0     1  0  0  0  0  0999 V2000
   -4.3843   -0.6846    0.0000 F   0  0  0  0  0  0  0  0  0  0  0  0
    2.5053   -1.8644    0.0000 F   0  0  0  0  0  0  0  0  0  0  0  0
   -4.0493   -3.9764    0.0000 F   0  0  0  0  0  0  0  0  0  0  0  0
   -1.7333   -2.5927    0.0000 O   0  0  0  0  0  0  0  0  0  0  0  0
    1.6896    0.4661    0.0000 O   0  0  0  0  0  0  0  0  0  0  0  0
   -0.9031   -4.0347    0.0000 O   0  0  0  0  0  0  0  0  0  0  0  0
    2.6947   -0.5389    0.0000 O   0  0  0  0  0  0  0  0  0  0  0  0
    0.4661    2.5344    0.0000 O   0  0  0  0  0  0  0  0  0  0  0  0
    3.2773    3.2918    0.0000 O   0  0  0  0  0  0  0  0  0  0  0  0
    4.9815   -0.3496    0.0000 O   0  0  0  0  0  0  0  0  0  0  0  0
   -2.0829   -0.2913    0.0000 N   0  0  0  0  0  0  0  0  0  0  0  0
   -0.3642   -1.6751    0.0000 N   0  0  0  0  0  0  0  0  0  0  0  0
   -2.0975   -1.6314    0.0000 N   0  0  0  0  0  0  0  0  0  0  0  0
    1.4129   -3.6997    0.0000 N   0  0  0  0  0  0  0  0  0  0  0  0
    3.1753    0.8740    0.0000 N   0  0  0  0  0  0  0  0  0  0  0  0
    1.9518    2.6947    0.0000 N   0  0  0  0  0  0  0  0  0  0  0  0
   -0.7866   -0.9468    0.0000 C   0  0  3  0  0  0  0  0  0  0  0  0
   -1.6168   -0.9468    0.0000 C   0  0  0  0  0  0  0  0  0  0  0  0
   -0.3787   -0.2185    0.0000 C   0  0  0  0  0  0  0  0  0  0  0  0
   -2.8986   -1.3546    0.0000 C   0  0  0  0  0  0  0  0  0  0  0  0
   -2.8695   -0.5244    0.0000 C   0  0  0  0  0  0  0  0  0  0  0  0
   -3.5540   -1.8353    0.0000 C   0  0  0  0  0  0  0  0  0  0  0  0
   -0.8885   -2.6073    0.0000 C   0  0  0  0  0  0  0  0  0  0  0  0
    0.7137   -1.6751    0.0000 C   0  0  0  0  0  0  0  0  0  0  0  0
   -1.8353    0.5098    0.0000 C   0  0  0  0  0  0  0  0  0  0  0  0
    0.4515   -0.2331    0.0000 C   0  0  0  0  0  0  0  0  0  0  0  0
   -4.3115   -1.5003    0.0000 C   0  0  0  0  0  0  0  0  0  0  0  0
    1.1070   -2.3742    0.0000 C   0  0  3  0  0  0  0  0  0  0  0  0
   -1.0924    0.1748    0.0000 C   0  0  0  0  0  0  0  0  0  0  0  0
   -0.3642    0.5972    0.0000 C   0  0  0  0  0  0  0  0  0  0  0  0
   -3.4812   -2.6655    0.0000 C   0  0  0  0  0  0  0  0  0  0  0  0
   -0.4953   -3.2918    0.0000 C   0  0  3  0  0  0  0  0  0  0  0  0
   -2.3888    1.1216    0.0000 C   0  0  0  0  0  0  0  0  0  0  0  0
    1.9373   -2.5053    0.0000 C   0  0  3  0  0  0  0  0  0  0  0  0
   -4.1367   -3.1608    0.0000 C   0  0  0  0  0  0  0  0  0  0  0  0
    0.8594    0.4661    0.0000 C   0  0  0  0  0  0  0  0  0  0  0  0
   -4.9815   -1.9955    0.0000 C   0  0  0  0  0  0  0  0  0  0  0  0
    0.8011   -3.1316    0.0000 C   0  0  0  0  0  0  0  0  0  0  0  0
   -4.8941   -2.8258    0.0000 C   0  0  0  0  0  0  0  0  0  0  0  0
   -2.1411    1.8936    0.0000 C   0  0  0  0  0  0  0  0  0  0  0  0
   -3.2045    0.9613    0.0000 C   0  0  0  0  0  0  0  0  0  0  0  0
    2.1120   -3.2773    0.0000 C   0  0  0  0  0  0  0  0  0  0  0  0
    0.3204   -3.3210    0.0000 C   0  0  0  0  0  0  0  0  0  0  0  0
    2.4907    0.2767    0.0000 C   0  0  0  0  0  0  0  0  0  0  0  0
   -2.6801    2.5053    0.0000 C   0  0  0  0  0  0  0  0  0  0  0  0
   -3.7434    1.5585    0.0000 C   0  0  0  0  0  0  0  0  0  0  0  0
   -3.4812    2.3451    0.0000 C   0  0  0  0  0  0  0  0  0  0  0  0
    1.1798    3.0151    0.0000 C   0  0  0  0  0  0  0  0  0  0  0  0
    2.4180    3.3502    0.0000 C   0  0  0  0  0  0  0  0  0  0  0  0
    2.9569    1.6751    0.0000 C   0  0  0  0  0  0  0  0  0  0  0  0
    2.1558    1.8936    0.0000 C   0  0  0  0  0  0  0  0  0  0  0  0
    3.9764    0.6555    0.0000 C   0  0  0  0  0  0  0  0  0  0  0  0
    1.2089    3.8162    0.0000 C   0  0  0  0  0  0  0  0  0  0  0  0
    2.0100    4.0347    0.0000 C   0  0  0  0  0  0  0  0  0  0  0  0
    4.1804   -0.1311    0.0000 C   0  0  0  0  0  0  0  0  0  0  0  0
  1 27  1  0  0  0  0
 34  2  1  1  0  0  0
  3 35  1  0  0  0  0
  4 23  2  0  0  0  0
  5 36  1  0  0  0  0
  5 44  1  0  0  0  0
 32  6  1  6  0  0  0
  7 44  2  0  0  0  0
  8 48  2  0  0  0  0
  9 49  2  0  0  0  0
 10 55  1  0  0  0  0
 11 18  1  0  0  0  0
 11 21  1  0  0  0  0
 11 25  1  0  0  0  0
 17 12  1  1  0  0  0
 12 23  1  0  0  0  0
 12 24  1  0  0  0  0
 13 18  2  0  0  0  0
 13 20  1  0  0  0  0
 14 38  1  0  0  0  0
 14 42  1  0  0  0  0
 15 44  1  0  0  0  0
 15 50  1  0  0  0  0
 15 52  1  0  0  0  0
 16 48  1  0  0  0  0
 16 49  1  0  0  0  0
 16 51  1  0  0  0  0
 17 18  1  0  0  0  0
 17 19  1  0  0  0  0
 19 26  1  0  0  0  0
 19 29  1  0  0  0  0
 19 30  1  0  0  0  0
 20 21  2  0  0  0  0
 20 22  1  0  0  0  0
 22 27  2  0  0  0  0
 22 31  1  0  0  0  0
 23 32  1  0  0  0  0
 28 24  1  1  0  0  0
 25 33  1  0  0  0  0
 26 36  1  0  0  0  0
 27 37  1  0  0  0  0
 28 34  1  0  0  0  0
 28 38  1  0  0  0  0
 31 35  2  0  0  0  0
 32 43  1  0  0  0  0
 33 40  2  0  0  0  0
 33 41  1  0  0  0  0
 34 42  1  0  0  0  0
 35 39  1  0  0  0  0
 37 39  2  0  0  0  0
 40 45  1  0  0  0  0
 41 46  2  0  0  0  0
 45 47  2  0  0  0  0
 46 47  1  0  0  0  0
 48 53  1  0  0  0  0
 49 54  1  0  0  0  0
 50 51  1  0  0  0  0
 52 55  1  0  0  0  0
 53 54  2  0  0  0  0
M  END
> <PUBCHEM_COMPOUND_ID_TYPE>
0

> <PUBCHEM_TOTAL_CHARGE>
0

> <PUBCHEM_SUBSTANCE_ID>
310942511

> <PUBCHEM_SUBSTANCE_VERSION>
1

> <PUBCHEM_EXT_DATASOURCE_NAME>
4488

> <PUBCHEM_EXT_DATASOURCE_REGID>
SCHEMBL16120547

> <PUBCHEM_SUBSTANCE_COMMENT>
InChI=1S/C39H47F3N6O7/c1-25(50)37(53)48(23-27-20-43-21-31(27)42)35(39(2,3)13-18-55-38(54)45(16-17-49)14-15-47-33(51)11-12-34(47)52)36-44-32(29-19-28(40)9-10-30(29)41)24-46(36)22-26-7-5-4-6-8-26/h4-12,19,24-25,27,31,35,43,49-50H,13-18,20-23H2,1-3H3/t25-,27-,31-,35-/m0/s1
InChIKey=OOAISJCNRXNBCQ-FGAJOIMPSA-N

> <PUBCHEM_SUBSTANCE_SYNONYM>
SCHEMBL16120547

> <PUBCHEM_XREF_EXT_ID>
SCHEMBL16120547

> <PUBCHEM_EXT_DATASOURCE_URL>
https://www.surechembl.org/

> <PUBCHEM_EXT_SUBSTANCE_URL>
https://www.surechembl.org/chemical/SCHEMBL16120547

> <PUBCHEM_CID_ASSOCIATIONS>
117609078  1

> <PUBCHEM_COORDINATE_TYPE>
1
3

> <PUBCHEM_BONDANNOTATIONS>
17  12  5
34  2  5
28  24  5
32  6  6

$$$$
