310942434
  -OEChem-07211613022D

 18 19  0     0  0  0  0  0  0999 V2000
   -2.2097   -0.8857    0.0000 S   0  0  0  0  0  0  0  0  0  0  0  0
    1.3861    0.3454    0.0000 O   0  0  0  0  0  0  0  0  0  0  0  0
    0.6687    1.5853    0.0000 O   0  0  0  0  0  0  0  0  0  0  0  0
   -0.7749   -0.8857    0.0000 N   0  0  0  0  0  0  0  0  0  0  0  0
    0.6687   -0.8857    0.0000 N   0  0  0  0  0  0  0  0  0  0  0  0
   -1.4923    0.3454    0.0000 N   0  0  0  0  0  0  0  0  0  0  0  0
   -0.0398    0.3454    0.0000 C   0  0  0  0  0  0  0  0  0  0  0  0
   -0.0487   -0.4782    0.0000 C   0  0  0  0  0  0  0  0  0  0  0  0
    0.6687    0.7528    0.0000 C   0  0  0  0  0  0  0  0  0  0  0  0
   -1.4923   -0.4782    0.0000 C   0  0  0  0  0  0  0  0  0  0  0  0
   -0.7661    0.7528    0.0000 C   0  0  0  0  0  0  0  0  0  0  0  0
    2.1300   -0.8946    0.0000 C   0  0  0  0  0  0  0  0  0  0  0  0
    1.3861   -0.4782    0.0000 C   0  0  0  0  0  0  0  0  0  0  0  0
    2.9448   -0.8946    0.0000 C   0  0  0  0  0  0  0  0  0  0  0  0
    2.5462   -1.5853    0.0000 C   0  0  0  0  0  0  0  0  0  0  0  0
    2.1212    0.7528    0.0000 C   0  0  0  0  0  0  0  0  0  0  0  0
   -2.9448   -0.4871    0.0000 C   0  0  0  0  0  0  0  0  0  0  0  0
    2.8474    0.3277    0.0000 C   0  0  0  0  0  0  0  0  0  0  0  0
  1 10  1  0  0  0  0
  1 17  1  0  0  0  0
  2  9  1  0  0  0  0
  2 16  1  0  0  0  0
  3  9  2  0  0  0  0
  4  8  2  0  0  0  0
  4 10  1  0  0  0  0
  5  8  1  0  0  0  0
  5 13  1  0  0  0  0
  6 10  2  0  0  0  0
  6 11  1  0  0  0  0
  7  8  1  0  0  0  0
  7  9  1  0  0  0  0
  7 11  2  0  0  0  0
 12 13  1  0  0  0  0
 12 14  1  0  0  0  0
 12 15  1  0  0  0  0
 14 15  1  0  0  0  0
 16 18  1  0  0  0  0
M  END
> <PUBCHEM_COMPOUND_ID_TYPE>
0

> <PUBCHEM_TOTAL_CHARGE>
0

> <PUBCHEM_SUBSTANCE_ID>
310942434

> <PUBCHEM_SUBSTANCE_VERSION>
1

> <PUBCHEM_EXT_DATASOURCE_NAME>
4488

> <PUBCHEM_EXT_DATASOURCE_REGID>
SCHEMBL16120470

> <PUBCHEM_SUBSTANCE_COMMENT>
InChI=1S/C12H17N3O2S/c1-3-17-11(16)9-7-14-12(18-2)15-10(9)13-6-8-4-5-8/h7-8H,3-6H2,1-2H3,(H,13,14,15)
InChIKey=TWKXNXJUOIKUOD-UHFFFAOYSA-N

> <PUBCHEM_SUBSTANCE_SYNONYM>
SCHEMBL16120470

> <PUBCHEM_XREF_EXT_ID>
SCHEMBL16120470

> <PUBCHEM_EXT_DATASOURCE_URL>
https://www.surechembl.org/

> <PUBCHEM_EXT_SUBSTANCE_URL>
https://www.surechembl.org/chemical/SCHEMBL16120470

> <PUBCHEM_CID_ASSOCIATIONS>
117609030  1

> <PUBCHEM_COORDINATE_TYPE>
1
3

$$$$
