310948546
  -OEChem-07211613022D

 43 48  0     0  0  0  0  0  0999 V2000
    3.4030   -2.0143    0.0000 S   0  0  0  0  0  0  0  0  0  0  0  0
    3.8567    1.6430    0.0000 F   0  0  0  0  0  0  0  0  0  0  0  0
    3.4992    0.5981    0.0000 F   0  0  0  0  0  0  0  0  0  0  0  0
   -1.5468    0.9418    0.0000 O   0  0  0  0  0  0  0  0  0  0  0  0
    2.4405    0.8456    0.0000 O   0  0  0  0  0  0  0  0  0  0  0  0
    2.8530    2.0967    0.0000 O   0  0  0  0  0  0  0  0  0  0  0  0
   -2.9630    0.9693    0.0000 O   0  0  0  0  0  0  0  0  0  0  0  0
    2.6880   -2.4267    0.0000 O   0  0  0  0  0  0  0  0  0  0  0  0
    3.8154   -2.7293    0.0000 O   0  0  0  0  0  0  0  0  0  0  0  0
   -0.9968    2.1655    0.0000 N   0  0  0  0  0  0  0  0  0  0  0  0
   -2.0143   -1.2581    0.0000 N   0  0  0  0  0  0  0  0  0  0  0  0
   -2.7979   -0.9968    0.0000 N   0  0  0  0  0  0  0  0  0  0  0  0
   -0.7356    0.8456    0.0000 C   0  0  0  0  0  0  0  0  0  0  0  0
   -0.3093    0.1444    0.0000 C   0  0  0  0  0  0  0  0  0  0  0  0
   -0.3781    1.6155    0.0000 C   0  0  0  0  0  0  0  0  0  0  0  0
   -0.7218   -0.5843    0.0000 C   0  0  0  0  0  0  0  0  0  0  0  0
   -1.5468   -0.5706    0.0000 C   0  0  0  0  0  0  0  0  0  0  0  0
    0.4194    1.7805    0.0000 C   0  0  0  0  0  0  0  0  0  0  0  0
    1.7530    1.3406    0.0000 C   0  0  0  0  0  0  0  0  0  0  0  0
    0.5156    0.1306    0.0000 C   0  0  0  0  0  0  0  0  0  0  0  0
    2.0143    2.1105    0.0000 C   0  0  0  0  0  0  0  0  0  0  0  0
    0.9280   -0.5706    0.0000 C   0  0  0  0  0  0  0  0  0  0  0  0
    0.9693    1.1480    0.0000 C   0  0  0  0  0  0  0  0  0  0  0  0
   -1.6980    1.7530    0.0000 C   0  0  0  0  0  0  0  0  0  0  0  0
    3.1005    1.3268    0.0000 C   0  0  0  0  0  0  0  0  0  0  0  0
   -0.2956   -1.2993    0.0000 C   0  0  0  0  0  0  0  0  0  0  0  0
   -2.7979   -0.1581    0.0000 C   0  0  0  0  0  0  0  0  0  0  0  0
   -2.0143    0.0756    0.0000 C   0  0  0  0  0  0  0  0  0  0  0  0
    0.6806    2.5505    0.0000 C   0  0  0  0  0  0  0  0  0  0  0  0
    0.5293   -1.2718    0.0000 C   0  0  0  0  0  0  0  0  0  0  0  0
    1.7530   -0.5706    0.0000 C   0  0  0  0  0  0  0  0  0  0  0  0
    1.4780    2.7293    0.0000 C   0  0  0  0  0  0  0  0  0  0  0  0
   -3.4716    0.3231    0.0000 C   0  0  0  0  0  0  0  0  0  0  0  0
    2.1655   -1.2718    0.0000 C   0  0  0  0  0  0  0  0  0  0  0  0
    2.9904   -1.2856    0.0000 C   0  0  0  0  0  0  0  0  0  0  0  0
    2.1655    0.1306    0.0000 C   0  0  0  0  0  0  0  0  0  0  0  0
   -1.7393   -2.0555    0.0000 C   0  0  0  0  0  0  0  0  0  0  0  0
   -2.4680    2.1105    0.0000 C   0  0  0  0  0  0  0  0  0  0  0  0
    3.3892   -0.5568    0.0000 C   0  0  0  0  0  0  0  0  0  0  0  0
    2.9904    0.1306    0.0000 C   0  0  0  0  0  0  0  0  0  0  0  0
   -3.9804   -0.3644    0.0000 C   0  0  0  0  0  0  0  0  0  0  0  0
   -4.1316    0.8318    0.0000 C   0  0  0  0  0  0  0  0  0  0  0  0
    4.1316   -1.5743    0.0000 C   0  0  0  0  0  0  0  0  0  0  0  0
  1  8  2  0  0  0  0
  1  9  2  0  0  0  0
  1 35  1  0  0  0  0
  1 43  1  0  0  0  0
  2 25  1  0  0  0  0
  3 25  1  0  0  0  0
  4 13  1  0  0  0  0
  4 24  1  0  0  0  0
  5 19  1  0  0  0  0
  5 25  1  0  0  0  0
  6 21  1  0  0  0  0
  6 25  1  0  0  0  0
  7 33  1  0  0  0  0
 10 15  1  0  0  0  0
 10 24  2  0  0  0  0
 11 12  1  0  0  0  0
 11 17  1  0  0  0  0
 11 37  1  0  0  0  0
 12 27  2  0  0  0  0
 13 14  1  0  0  0  0
 13 15  2  0  0  0  0
 14 16  1  0  0  0  0
 14 20  2  0  0  0  0
 15 18  1  0  0  0  0
 16 17  1  0  0  0  0
 16 26  2  0  0  0  0
 17 28  2  0  0  0  0
 18 23  1  0  0  0  0
 18 29  2  0  0  0  0
 19 21  1  0  0  0  0
 19 23  2  0  0  0  0
 20 22  1  0  0  0  0
 21 32  2  0  0  0  0
 22 30  2  0  0  0  0
 22 31  1  0  0  0  0
 24 38  1  0  0  0  0
 26 30  1  0  0  0  0
 27 28  1  0  0  0  0
 27 33  1  0  0  0  0
 29 32  1  0  0  0  0
 31 34  2  0  0  0  0
 31 36  1  0  0  0  0
 33 41  1  0  0  0  0
 33 42  1  0  0  0  0
 34 35  1  0  0  0  0
 35 39  2  0  0  0  0
 36 40  2  0  0  0  0
 39 40  1  0  0  0  0
M  END
> <PUBCHEM_COMPOUND_ID_TYPE>
0

> <PUBCHEM_TOTAL_CHARGE>
0

> <PUBCHEM_SUBSTANCE_ID>
310948546

> <PUBCHEM_SUBSTANCE_VERSION>
1

> <PUBCHEM_EXT_DATASOURCE_NAME>
4488

> <PUBCHEM_EXT_DATASOURCE_REGID>
SCHEMBL16126728

> <PUBCHEM_SUBSTANCE_COMMENT>
InChI=1S/C31H27F2N3O6S/c1-17-34-28(20-10-12-25-26(15-20)42-31(32,33)41-25)29(40-17)23-14-19(18-7-6-8-21(13-18)43(5,38)39)9-11-22(23)24-16-27(30(2,3)37)35-36(24)4/h6-16,37H,1-5H3
InChIKey=DFIDGHFCTIZJPV-UHFFFAOYSA-N

> <PUBCHEM_SUBSTANCE_SYNONYM>
SCHEMBL16126728

> <PUBCHEM_XREF_EXT_ID>
SCHEMBL16126728

> <PUBCHEM_EXT_DATASOURCE_URL>
https://www.surechembl.org/

> <PUBCHEM_EXT_SUBSTANCE_URL>
https://www.surechembl.org/chemical/SCHEMBL16126728

> <PUBCHEM_CID_ASSOCIATIONS>
86275847  1

> <PUBCHEM_COORDINATE_TYPE>
1
3

$$$$
