310932189
  -OEChem-07211613022D

 28 32  0     1  0  0  0  0  0999 V2000
    0.0000   -2.8915    0.0000 F   0  0  0  0  0  0  0  0  0  0  0  0
    0.8313   -4.3733    0.0000 O   0  0  0  0  0  0  0  0  0  0  0  0
    4.1926   -4.3733    0.0000 O   0  0  0  0  0  0  0  0  0  0  0  0
    3.2890    0.0000    0.0000 O   0  0  0  0  0  0  0  0  0  0  0  0
    2.9637   -5.0600    0.0000 N   0  0  0  0  0  0  0  0  0  0  0  0
    4.1565   -5.7829    0.0000 N   0  0  0  0  0  0  0  0  0  0  0  0
    2.4939   -7.2286    0.0000 N   0  0  0  0  0  0  0  0  0  0  0  0
    2.4939   -4.3733    0.0000 C   0  0  3  0  0  0  0  0  0  0  0  0
    2.0963   -3.6143    0.0000 C   0  0  0  0  0  0  0  0  0  0  0  0
    2.0963   -5.0962    0.0000 C   0  0  0  0  0  0  0  0  0  0  0  0
    1.2650   -3.6143    0.0000 C   0  0  0  0  0  0  0  0  0  0  0  0
    1.2650   -5.0962    0.0000 C   0  0  0  0  0  0  0  0  0  0  0  0
    2.9637   -3.6505    0.0000 C   0  0  0  0  0  0  0  0  0  0  0  0
    2.4939   -2.8915    0.0000 C   0  0  0  0  0  0  0  0  0  0  0  0
    0.8313   -2.8915    0.0000 C   0  0  0  0  0  0  0  0  0  0  0  0
    2.0963   -2.2047    0.0000 C   0  0  0  0  0  0  0  0  0  0  0  0
    2.4939   -5.8191    0.0000 C   0  0  0  0  0  0  0  0  0  0  0  0
    3.7589   -5.0600    0.0000 C   0  0  0  0  0  0  0  0  0  0  0  0
    1.2650   -2.2047    0.0000 C   0  0  0  0  0  0  0  0  0  0  0  0
    0.8313   -5.8191    0.0000 C   0  0  0  0  0  0  0  0  0  0  0  0
    2.0963   -6.5058    0.0000 C   0  0  0  0  0  0  0  0  0  0  0  0
    3.7589   -3.6505    0.0000 C   0  0  0  0  0  0  0  0  0  0  0  0
    2.4939   -1.4819    0.0000 C   0  0  0  0  0  0  0  0  0  0  0  0
    1.2650   -6.5058    0.0000 C   0  0  0  0  0  0  0  0  0  0  0  0
    3.3252   -1.4457    0.0000 C   0  0  0  0  0  0  0  0  0  0  0  0
    2.0602   -0.7590    0.0000 C   0  0  0  0  0  0  0  0  0  0  0  0
    3.7228   -0.7229    0.0000 C   0  0  0  0  0  0  0  0  0  0  0  0
    2.4577   -0.0361    0.0000 C   0  0  0  0  0  0  0  0  0  0  0  0
  1 15  1  0  0  0  0
  2 11  1  0  0  0  0
  2 12  1  0  0  0  0
  3 18  1  0  0  0  0
  3 22  1  0  0  0  0
  4 27  1  0  0  0  0
  4 28  1  0  0  0  0
  8  5  1  1  0  0  0
  5 18  2  0  0  0  0
  6 18  1  0  0  0  0
  7 21  1  0  0  0  0
  8  9  1  0  0  0  0
  8 10  1  0  0  0  0
  8 13  1  0  0  0  0
  9 11  2  0  0  0  0
  9 14  1  0  0  0  0
 10 12  2  0  0  0  0
 10 17  1  0  0  0  0
 11 15  1  0  0  0  0
 12 20  1  0  0  0  0
 13 22  1  0  0  0  0
 14 16  2  0  0  0  0
 15 19  2  0  0  0  0
 16 19  1  0  0  0  0
 16 23  1  0  0  0  0
 17 21  2  0  0  0  0
 20 24  2  0  0  0  0
 21 24  1  0  0  0  0
 23 25  1  0  0  0  0
 23 26  1  0  0  0  0
 25 27  1  0  0  0  0
 26 28  1  0  0  0  0
M  END
> <PUBCHEM_COMPOUND_ID_TYPE>
0

> <PUBCHEM_TOTAL_CHARGE>
0

> <PUBCHEM_SUBSTANCE_ID>
310932189

> <PUBCHEM_SUBSTANCE_VERSION>
1

> <PUBCHEM_EXT_DATASOURCE_NAME>
4488

> <PUBCHEM_EXT_DATASOURCE_REGID>
SCHEMBL16109545

> <PUBCHEM_SUBSTANCE_COMMENT>
InChI=1S/C21H22FN3O3/c22-17-10-13(12-3-6-26-7-4-12)9-16-19(17)28-18-2-1-14(23)11-15(18)21(16)5-8-27-20(24)25-21/h1-2,9-12H,3-8,23H2,(H2,24,25)/t21-/m0/s1
InChIKey=QPKZJHQBAPWNDG-NRFANRHFSA-N

> <PUBCHEM_SUBSTANCE_SYNONYM>
SCHEMBL16109545

> <PUBCHEM_XREF_EXT_ID>
SCHEMBL16109545

> <PUBCHEM_EXT_DATASOURCE_URL>
https://www.surechembl.org/

> <PUBCHEM_EXT_SUBSTANCE_URL>
https://www.surechembl.org/chemical/SCHEMBL16109545

> <PUBCHEM_CID_ASSOCIATIONS>
117600782  1

> <PUBCHEM_COORDINATE_TYPE>
1
3

> <PUBCHEM_BONDANNOTATIONS>
8  5  5

$$$$
