310932516
  -OEChem-07211613022D

 38 40  0     1  0  0  0  0  0999 V2000
   -5.1418   -7.1914    0.0000 O   0  0  0  0  0  0  0  0  0  0  0  0
   -5.1418   -0.6432    0.0000 O   0  0  0  0  0  0  0  0  0  0  0  0
   -6.4920    1.0718    0.0000 O   0  0  0  0  0  0  0  0  0  0  0  0
   -5.4118    0.1363    0.0000 O   0  0  0  0  0  0  0  0  0  0  0  0
   -8.9224    1.5395    0.0000 O   0  0  0  0  0  0  0  0  0  0  0  0
   -9.1925    0.1363    0.0000 O   0  0  0  0  0  0  0  0  0  0  0  0
   -5.6819    3.0986    0.0000 O   0  0  0  0  0  0  0  0  0  0  0  0
  -10.8127    2.6309    0.0000 O   0  0  0  0  0  0  0  0  0  0  0  0
   -4.0616   -5.9442    0.0000 N   0  0  0  0  0  0  0  0  0  0  0  0
   -2.7114   -7.6592    0.0000 N   0  0  0  0  0  0  0  0  0  0  0  0
   -2.4413   -6.2560    0.0000 N   0  0  0  0  0  0  0  0  0  0  0  0
   -4.0616   -8.1269    0.0000 N   0  0  0  0  0  0  0  0  0  0  0  0
   -4.6017   -4.3851    0.0000 N   0  0  0  0  0  0  0  0  0  0  0  0
   -2.9814   -9.0624    0.0000 N   0  0  0  0  0  0  0  0  0  0  0  0
   -6.4920   -1.1109    0.0000 N   0  0  0  0  0  0  0  0  0  0  0  0
   -3.7916   -6.7237    0.0000 C   0  0  0  0  0  0  0  0  0  0  0  0
   -2.9814   -6.8796    0.0000 C   0  0  0  0  0  0  0  0  0  0  0  0
   -4.3317   -7.3474    0.0000 C   0  0  0  0  0  0  0  0  0  0  0  0
   -3.5215   -5.3205    0.0000 C   0  0  0  0  0  0  0  0  0  0  0  0
   -3.2515   -8.2828    0.0000 C   0  0  0  0  0  0  0  0  0  0  0  0
   -2.7114   -5.4764    0.0000 C   0  0  0  0  0  0  0  0  0  0  0  0
   -3.7916   -4.5410    0.0000 C   0  0  0  0  0  0  0  0  0  0  0  0
   -4.8717   -3.6055    0.0000 C   0  0  0  0  0  0  0  0  0  0  0  0
   -5.4118   -2.0464    0.0000 C   0  0  0  0  0  0  0  0  0  0  0  0
   -5.6819   -1.2668    0.0000 C   0  0  0  0  0  0  0  0  0  0  0  0
   -6.7621   -0.3314    0.0000 C   0  0  3  0  0  0  0  0  0  0  0  0
   -5.9519   -2.6700    0.0000 C   0  0  0  0  0  0  0  0  0  0  0  0
   -4.6017   -2.2023    0.0000 C   0  0  0  0  0  0  0  0  0  0  0  0
   -5.6819   -3.4496    0.0000 C   0  0  0  0  0  0  0  0  0  0  0  0
   -4.3317   -2.9819    0.0000 C   0  0  0  0  0  0  0  0  0  0  0  0
   -6.2220    0.2923    0.0000 C   0  0  0  0  0  0  0  0  0  0  0  0
   -7.5722   -0.1755    0.0000 C   0  0  0  0  0  0  0  0  0  0  0  0
   -7.8422    0.6041    0.0000 C   0  0  0  0  0  0  0  0  0  0  0  0
   -8.6524    0.7600    0.0000 C   0  0  0  0  0  0  0  0  0  0  0  0
   -5.9519    1.6954    0.0000 C   0  0  0  0  0  0  0  0  0  0  0  0
   -6.2220    2.4750    0.0000 C   0  0  0  0  0  0  0  0  0  0  0  0
   -9.7325    1.6954    0.0000 C   0  0  0  0  0  0  0  0  0  0  0  0
  -10.0026    2.4750    0.0000 C   0  0  0  0  0  0  0  0  0  0  0  0
  1 18  2  0  0  0  0
  2 25  2  0  0  0  0
  3 31  1  0  0  0  0
  3 35  1  0  0  0  0
  4 31  2  0  0  0  0
  5 34  1  0  0  0  0
  5 37  1  0  0  0  0
  6 34  2  0  0  0  0
  7 36  1  0  0  0  0
  8 38  1  0  0  0  0
  9 16  2  0  0  0  0
  9 19  1  0  0  0  0
 10 17  1  0  0  0  0
 10 20  1  0  0  0  0
 11 17  2  0  0  0  0
 11 21  1  0  0  0  0
 12 18  1  0  0  0  0
 12 20  2  0  0  0  0
 13 22  1  0  0  0  0
 13 23  1  0  0  0  0
 14 20  1  0  0  0  0
 15 25  1  0  0  0  0
 26 15  1  1  0  0  0
 16 17  1  0  0  0  0
 16 18  1  0  0  0  0
 19 21  2  0  0  0  0
 19 22  1  0  0  0  0
 23 29  2  0  0  0  0
 23 30  1  0  0  0  0
 24 25  1  0  0  0  0
 24 27  2  0  0  0  0
 24 28  1  0  0  0  0
 26 31  1  0  0  0  0
 26 32  1  0  0  0  0
 27 29  1  0  0  0  0
 28 30  2  0  0  0  0
 32 33  1  0  0  0  0
 33 34  1  0  0  0  0
 35 36  1  0  0  0  0
 37 38  1  0  0  0  0
M  END
> <PUBCHEM_COMPOUND_ID_TYPE>
0

> <PUBCHEM_TOTAL_CHARGE>
0

> <PUBCHEM_SUBSTANCE_ID>
310932516

> <PUBCHEM_SUBSTANCE_VERSION>
1

> <PUBCHEM_EXT_DATASOURCE_NAME>
4488

> <PUBCHEM_EXT_DATASOURCE_REGID>
SCHEMBL16109891

> <PUBCHEM_SUBSTANCE_COMMENT>
InChI=1S/C23H27N7O8/c24-23-29-19-18(21(35)30-23)27-15(12-26-19)11-25-14-3-1-13(2-4-14)20(34)28-16(22(36)38-10-8-32)5-6-17(33)37-9-7-31/h1-4,12,16,25,31-32H,5-11H2,(H,28,34)(H3,24,26,29,30,35)/t16-/m0/s1
InChIKey=JKKMMQSSVJDVGR-INIZCTEOSA-N

> <PUBCHEM_SUBSTANCE_SYNONYM>
SCHEMBL16109891

> <PUBCHEM_XREF_EXT_ID>
SCHEMBL16109891

> <PUBCHEM_EXT_DATASOURCE_URL>
https://www.surechembl.org/

> <PUBCHEM_EXT_SUBSTANCE_URL>
https://www.surechembl.org/chemical/SCHEMBL16109891

> <PUBCHEM_CID_ASSOCIATIONS>
117601051  1

> <PUBCHEM_COORDINATE_TYPE>
1
3

> <PUBCHEM_BONDANNOTATIONS>
26  15  5

$$$$
