310934106
  -OEChem-07211613022D

 28 31  0     0  0  0  0  0  0999 V2000
    0.8250   -1.6500    0.0000 O   0  0  0  0  0  0  0  0  0  0  0  0
    2.2172   -1.6500    0.0000 O   0  0  0  0  0  0  0  0  0  0  0  0
    2.2172   -9.0234    0.0000 N   0  0  0  0  0  0  0  0  0  0  0  0
    0.7734   -9.0234    0.0000 N   0  0  0  0  0  0  0  0  0  0  0  0
    2.7844   -9.5390    0.0000 N   0  0  0  0  0  0  0  0  0  0  0  0
    1.4953   -2.8359    0.0000 N   0  0  0  0  0  0  0  0  0  0  0  0
    1.4953   -7.7859    0.0000 C   0  0  0  0  0  0  0  0  0  0  0  0
    1.4953   -6.9609    0.0000 C   0  0  0  0  0  0  0  0  0  0  0  0
    1.4437   -9.4359    0.0000 C   0  0  0  0  0  0  0  0  0  0  0  0
    2.2172   -8.1984    0.0000 C   0  0  0  0  0  0  0  0  0  0  0  0
    1.4953   -5.3109    0.0000 C   0  0  0  0  0  0  0  0  0  0  0  0
    1.4953   -4.4859    0.0000 C   0  0  0  0  0  0  0  0  0  0  0  0
    0.7734   -8.1984    0.0000 C   0  0  0  0  0  0  0  0  0  0  0  0
    2.2172   -6.5484    0.0000 C   0  0  0  0  0  0  0  0  0  0  0  0
    0.8250   -6.5484    0.0000 C   0  0  0  0  0  0  0  0  0  0  0  0
    1.6500  -10.2093    0.0000 C   0  0  0  0  0  0  0  0  0  0  0  0
    2.2172   -5.7234    0.0000 C   0  0  0  0  0  0  0  0  0  0  0  0
    0.8250   -5.7234    0.0000 C   0  0  0  0  0  0  0  0  0  0  0  0
    2.2172   -4.0734    0.0000 C   0  0  0  0  0  0  0  0  0  0  0  0
    0.8250   -4.0734    0.0000 C   0  0  0  0  0  0  0  0  0  0  0  0
    2.4750  -10.3124    0.0000 C   0  0  0  0  0  0  0  0  0  0  0  0
    1.4953   -2.0625    0.0000 C   0  0  0  0  0  0  0  0  0  0  0  0
    2.2172   -3.2484    0.0000 C   0  0  0  0  0  0  0  0  0  0  0  0
    0.8250   -3.2484    0.0000 C   0  0  0  0  0  0  0  0  0  0  0  0
    0.8250   -0.8250    0.0000 C   0  0  0  0  0  0  0  0  0  0  0  0
    1.6500   -0.8250    0.0000 C   0  0  0  0  0  0  0  0  0  0  0  0
    0.8250    0.0000    0.0000 C   0  0  0  0  0  0  0  0  0  0  0  0
    0.0000   -0.8250    0.0000 C   0  0  0  0  0  0  0  0  0  0  0  0
  1 22  1  0  0  0  0
  1 25  1  0  0  0  0
  2 22  2  0  0  0  0
  3  5  1  0  0  0  0
  3  9  1  0  0  0  0
  3 10  1  0  0  0  0
  4  9  1  0  0  0  0
  4 13  2  0  0  0  0
  5 21  2  0  0  0  0
  6 22  1  0  0  0  0
  6 23  1  0  0  0  0
  6 24  1  0  0  0  0
  7  8  1  0  0  0  0
  7 10  2  0  0  0  0
  7 13  1  0  0  0  0
  8 14  2  0  0  0  0
  8 15  1  0  0  0  0
  9 16  2  0  0  0  0
 11 12  1  0  0  0  0
 11 17  2  0  0  0  0
 11 18  1  0  0  0  0
 12 19  1  0  0  0  0
 12 20  1  0  0  0  0
 14 17  1  0  0  0  0
 15 18  2  0  0  0  0
 16 21  1  0  0  0  0
 19 23  1  0  0  0  0
 20 24  1  0  0  0  0
 25 26  1  0  0  0  0
 25 27  1  0  0  0  0
 25 28  1  0  0  0  0
M  END
> <PUBCHEM_COMPOUND_ID_TYPE>
0

> <PUBCHEM_TOTAL_CHARGE>
0

> <PUBCHEM_SUBSTANCE_ID>
310934106

> <PUBCHEM_SUBSTANCE_VERSION>
1

> <PUBCHEM_EXT_DATASOURCE_NAME>
4488

> <PUBCHEM_EXT_DATASOURCE_REGID>
SCHEMBL16111552

> <PUBCHEM_SUBSTANCE_COMMENT>
InChI=1S/C22H26N4O2/c1-22(2,3)28-21(27)25-12-9-18(10-13-25)16-4-6-17(7-5-16)19-14-23-20-8-11-24-26(20)15-19/h4-8,11,14-15,18H,9-10,12-13H2,1-3H3
InChIKey=XSJZABOQFZMJTP-UHFFFAOYSA-N

> <PUBCHEM_SUBSTANCE_SYNONYM>
SCHEMBL16111552

> <PUBCHEM_XREF_EXT_ID>
SCHEMBL16111552

> <PUBCHEM_EXT_DATASOURCE_URL>
https://www.surechembl.org/

> <PUBCHEM_EXT_SUBSTANCE_URL>
https://www.surechembl.org/chemical/SCHEMBL16111552

> <PUBCHEM_CID_ASSOCIATIONS>
117602386  1

> <PUBCHEM_COORDINATE_TYPE>
1
3

$$$$
