310931329
  -OEChem-07211613022D

 13 14  0     0  0  0  0  0  0999 V2000
    2.8369   -2.4751    0.0000 O   0  0  0  0  0  0  0  0  0  0  0  0
    0.0000    0.0000    0.0000 O   0  0  0  0  0  0  0  0  0  0  0  0
    1.4329    0.0000    0.0000 N   0  0  0  0  0  0  0  0  0  0  0  0
    0.7092   -1.2447    0.0000 N   0  0  0  0  0  0  0  0  0  0  0  0
    2.1566   -1.2447    0.0000 C   0  0  0  0  0  0  0  0  0  0  0  0
    2.1566   -0.4197    0.0000 C   0  0  0  0  0  0  0  0  0  0  0  0
    2.8514   -1.6501    0.0000 C   0  0  0  0  0  0  0  0  0  0  0  0
    1.4329   -1.6501    0.0000 C   0  0  0  0  0  0  0  0  0  0  0  0
    0.7092   -0.4197    0.0000 C   0  0  0  0  0  0  0  0  0  0  0  0
    2.8514    0.0000    0.0000 C   0  0  0  0  0  0  0  0  0  0  0  0
    3.5751   -1.2447    0.0000 C   0  0  0  0  0  0  0  0  0  0  0  0
    3.5751   -0.4197    0.0000 C   0  0  0  0  0  0  0  0  0  0  0  0
    3.5606   -2.8948    0.0000 C   0  0  0  0  0  0  0  0  0  0  0  0
  1  7  1  0  0  0  0
  1 13  1  0  0  0  0
  2  9  2  0  0  0  0
  3  6  1  0  0  0  0
  3  9  1  0  0  0  0
  4  8  2  0  0  0  0
  4  9  1  0  0  0  0
  5  6  2  0  0  0  0
  5  7  1  0  0  0  0
  5  8  1  0  0  0  0
  6 10  1  0  0  0  0
  7 11  2  0  0  0  0
 10 12  2  0  0  0  0
 11 12  1  0  0  0  0
M  END
> <PUBCHEM_COMPOUND_ID_TYPE>
0

> <PUBCHEM_TOTAL_CHARGE>
0

> <PUBCHEM_SUBSTANCE_ID>
310931329

> <PUBCHEM_SUBSTANCE_VERSION>
1

> <PUBCHEM_EXT_DATASOURCE_NAME>
4488

> <PUBCHEM_EXT_DATASOURCE_REGID>
SCHEMBL16108649

> <PUBCHEM_SUBSTANCE_COMMENT>
InChI=1S/C9H8N2O2/c1-13-8-4-2-3-7-6(8)5-10-9(12)11-7/h2-5H,1H3,(H,10,11,12)
InChIKey=VGTBVSZAOWRHPY-UHFFFAOYSA-N

> <PUBCHEM_SUBSTANCE_SYNONYM>
SCHEMBL16108649

> <PUBCHEM_XREF_EXT_ID>
SCHEMBL16108649

> <PUBCHEM_EXT_DATASOURCE_URL>
https://www.surechembl.org/

> <PUBCHEM_EXT_SUBSTANCE_URL>
https://www.surechembl.org/chemical/SCHEMBL16108649

> <PUBCHEM_CID_ASSOCIATIONS>
70404273  1

> <PUBCHEM_COORDINATE_TYPE>
1
3

$$$$
