310942832
  -OEChem-07211613022D

 51 56  0     1  0  0  0  0  0999 V2000
   -5.0130    1.0628    0.0000 F   0  0  0  0  0  0  0  0  0  0  0  0
   -5.0130   -2.2653    0.0000 F   0  0  0  0  0  0  0  0  0  0  0  0
   -2.4960   -0.6991    0.0000 O   0  0  0  0  0  0  0  0  0  0  0  0
    0.0070    2.4331    0.0000 O   0  0  0  0  0  0  0  0  0  0  0  0
   -2.7058   -1.9297    0.0000 O   0  0  0  0  0  0  0  0  0  0  0  0
    1.5731   -3.4539    0.0000 O   0  0  0  0  0  0  0  0  0  0  0  0
    3.8803   -4.0552    0.0000 O   0  0  0  0  0  0  0  0  0  0  0  0
    5.4046   -1.5941    0.0000 O   0  0  0  0  0  0  0  0  0  0  0  0
   -2.6918    1.2165    0.0000 N   0  0  0  0  0  0  0  0  0  0  0  0
   -1.1257   -0.3356    0.0000 N   0  0  0  0  0  0  0  0  0  0  0  0
   -2.8316   -0.1119    0.0000 N   0  0  0  0  0  0  0  0  0  0  0  0
    0.1189   -2.5170    0.0000 N   0  0  0  0  0  0  0  0  0  0  0  0
    2.3142   -2.2373    0.0000 N   0  0  0  0  0  0  0  0  0  0  0  0
    4.4397   -2.6988    0.0000 N   0  0  0  0  0  0  0  0  0  0  0  0
   -2.2723    0.5174    0.0000 C   0  0  0  0  0  0  0  0  0  0  0  0
   -1.4472    0.4195    0.0000 C   0  0  3  0  0  0  0  0  0  0  0  0
   -3.5867    0.2378    0.0000 C   0  0  0  0  0  0  0  0  0  0  0  0
   -0.9718    1.1187    0.0000 C   0  0  0  0  0  0  0  0  0  0  0  0
   -3.4888    1.0628    0.0000 C   0  0  0  0  0  0  0  0  0  0  0  0
   -4.2998   -0.1818    0.0000 C   0  0  0  0  0  0  0  0  0  0  0  0
   -1.6990   -0.9089    0.0000 C   0  0  0  0  0  0  0  0  0  0  0  0
   -2.3562    1.9856    0.0000 C   0  0  0  0  0  0  0  0  0  0  0  0
   -0.2866   -0.4335    0.0000 C   0  0  0  0  0  0  0  0  0  0  0  0
   -5.0130    0.2378    0.0000 C   0  0  0  0  0  0  0  0  0  0  0  0
    0.0070   -1.1606    0.0000 C   0  0  3  0  0  0  0  0  0  0  0  0
   -4.3139   -1.0068    0.0000 C   0  0  0  0  0  0  0  0  0  0  0  0
   -1.3074    1.8458    0.0000 C   0  0  0  0  0  0  0  0  0  0  0  0
   -0.1468    1.0208    0.0000 C   0  0  0  0  0  0  0  0  0  0  0  0
   -2.8456    2.6568    0.0000 C   0  0  0  0  0  0  0  0  0  0  0  0
   -1.9087   -1.7059    0.0000 C   0  0  3  0  0  0  0  0  0  0  0  0
   -5.0130   -1.4123    0.0000 C   0  0  0  0  0  0  0  0  0  0  0  0
    0.8180   -1.3843    0.0000 C   0  0  0  0  0  0  0  0  0  0  0  0
   -5.7402   -0.1818    0.0000 C   0  0  0  0  0  0  0  0  0  0  0  0
    0.8740   -2.1953    0.0000 C   0  0  3  0  0  0  0  0  0  0  0  0
   -0.4125   -1.8878    0.0000 C   0  0  0  0  0  0  0  0  0  0  0  0
   -0.8180    2.5170    0.0000 C   0  0  0  0  0  0  0  0  0  0  0  0
    0.3426    1.6780    0.0000 C   0  0  0  0  0  0  0  0  0  0  0  0
   -5.7402   -1.0068    0.0000 C   0  0  0  0  0  0  0  0  0  0  0  0
   -3.6427    2.5729    0.0000 C   0  0  0  0  0  0  0  0  0  0  0  0
   -2.4960    3.3979    0.0000 C   0  0  0  0  0  0  0  0  0  0  0  0
    1.6011   -2.6009    0.0000 C   0  0  0  0  0  0  0  0  0  0  0  0
   -1.3354   -2.2933    0.0000 C   0  0  0  0  0  0  0  0  0  0  0  0
   -4.1181    3.2161    0.0000 C   0  0  0  0  0  0  0  0  0  0  0  0
   -2.9715    4.0552    0.0000 C   0  0  0  0  0  0  0  0  0  0  0  0
   -3.7965    3.9713    0.0000 C   0  0  0  0  0  0  0  0  0  0  0  0
    4.5236   -3.4959    0.0000 C   0  0  0  0  0  0  0  0  0  0  0  0
    5.1948   -2.4051    0.0000 C   0  0  0  0  0  0  0  0  0  0  0  0
    3.0274   -2.6568    0.0000 C   0  0  0  0  0  0  0  0  0  0  0  0
    3.7265   -2.2793    0.0000 C   0  0  0  0  0  0  0  0  0  0  0  0
    5.3066   -3.7056    0.0000 C   0  0  0  0  0  0  0  0  0  0  0  0
    5.7402   -3.0064    0.0000 C   0  0  0  0  0  0  0  0  0  0  0  0
  1 24  1  0  0  0  0
  2 31  1  0  0  0  0
  3 21  2  0  0  0  0
  4 36  1  0  0  0  0
  4 37  1  0  0  0  0
 30  5  1  6  0  0  0
  6 41  2  0  0  0  0
  7 46  2  0  0  0  0
  8 47  2  0  0  0  0
  9 15  1  0  0  0  0
  9 19  1  0  0  0  0
  9 22  1  0  0  0  0
 16 10  1  1  0  0  0
 10 21  1  0  0  0  0
 10 23  1  0  0  0  0
 11 15  2  0  0  0  0
 11 17  1  0  0  0  0
 12 34  1  0  0  0  0
 12 35  1  0  0  0  0
 13 41  1  0  0  0  0
 13 48  1  0  0  0  0
 14 46  1  0  0  0  0
 14 47  1  0  0  0  0
 14 49  1  0  0  0  0
 15 16  1  0  0  0  0
 16 18  1  0  0  0  0
 17 19  2  0  0  0  0
 17 20  1  0  0  0  0
 18 27  1  0  0  0  0
 18 28  1  0  0  0  0
 20 24  2  0  0  0  0
 20 26  1  0  0  0  0
 21 30  1  0  0  0  0
 22 29  1  0  0  0  0
 23 25  1  0  0  0  0
 24 33  1  0  0  0  0
 25 32  1  0  0  0  0
 25 35  1  0  0  0  0
 26 31  2  0  0  0  0
 27 36  1  0  0  0  0
 28 37  1  0  0  0  0
 29 39  2  0  0  0  0
 29 40  1  0  0  0  0
 30 42  1  0  0  0  0
 31 38  1  0  0  0  0
 32 34  1  0  0  0  0
 33 38  2  0  0  0  0
 34 41  1  0  0  0  0
 39 43  1  0  0  0  0
 40 44  2  0  0  0  0
 43 45  2  0  0  0  0
 44 45  1  0  0  0  0
 46 50  1  0  0  0  0
 47 51  1  0  0  0  0
 48 49  1  0  0  0  0
 50 51  2  0  0  0  0
M  END
> <PUBCHEM_COMPOUND_ID_TYPE>
0

> <PUBCHEM_TOTAL_CHARGE>
0

> <PUBCHEM_SUBSTANCE_ID>
310942832

> <PUBCHEM_SUBSTANCE_VERSION>
1

> <PUBCHEM_EXT_DATASOURCE_NAME>
4488

> <PUBCHEM_EXT_DATASOURCE_REGID>
SCHEMBL16120887

> <PUBCHEM_SUBSTANCE_COMMENT>
InChI=1S/C37H42F2N6O6/c1-23(46)37(50)45(21-25-17-30(41-19-25)36(49)40-13-14-44-32(47)9-10-33(44)48)34(26-11-15-51-16-12-26)35-42-31(28-18-27(38)7-8-29(28)39)22-43(35)20-24-5-3-2-4-6-24/h2-10,18,22-23,25-26,30,34,41,46H,11-17,19-21H2,1H3,(H,40,49)/t23-,25?,30?,34+/m0/s1
InChIKey=UINRYSQOLIRVNE-GGGUAXSJSA-N

> <PUBCHEM_SUBSTANCE_SYNONYM>
SCHEMBL16120887

> <PUBCHEM_XREF_EXT_ID>
SCHEMBL16120887

> <PUBCHEM_EXT_DATASOURCE_URL>
https://www.surechembl.org/

> <PUBCHEM_EXT_SUBSTANCE_URL>
https://www.surechembl.org/chemical/SCHEMBL16120887

> <PUBCHEM_CID_ASSOCIATIONS>
117609331  1

> <PUBCHEM_COORDINATE_TYPE>
1
3

> <PUBCHEM_BONDANNOTATIONS>
16  10  5
30  5  6

$$$$
