310944370
  -OEChem-07211613022D

 37 43  0     0  0  0  0  0  0999 V2000
    1.7273    3.4620    0.0000 F   0  0  0  0  0  0  0  0  0  0  0  0
    0.2342    0.9881    0.0000 N   0  0  0  0  0  0  0  0  0  0  0  0
   -1.7273   -1.1052    0.0000 N   0  0  0  0  0  0  0  0  0  0  0  0
   -0.4684    2.9936    0.0000 N   0  0  0  0  0  0  0  0  0  0  0  0
    3.9231    2.9789    0.0000 N   0  0  0  0  0  0  0  0  0  0  0  0
   -0.7173    0.0366    0.0000 C   0  0  0  0  0  0  0  0  0  0  0  0
   -0.9954   -0.7539    0.0000 C   0  0  0  0  0  0  0  0  0  0  0  0
    0.1318    0.1976    0.0000 C   0  0  0  0  0  0  0  0  0  0  0  0
   -0.4099   -1.3541    0.0000 C   0  0  0  0  0  0  0  0  0  0  0  0
   -1.1271    0.7392    0.0000 C   0  0  0  0  0  0  0  0  0  0  0  0
   -0.5563    1.3541    0.0000 C   0  0  0  0  0  0  0  0  0  0  0  0
   -0.8344   -2.1007    0.0000 C   0  0  0  0  0  0  0  0  0  0  0  0
   -1.6542   -1.8810    0.0000 C   0  0  0  0  0  0  0  0  0  0  0  0
    0.9808    1.4273    0.0000 C   0  0  0  0  0  0  0  0  0  0  0  0
    0.7026   -0.4172    0.0000 C   0  0  0  0  0  0  0  0  0  0  0  0
    0.4392   -1.1931    0.0000 C   0  0  0  0  0  0  0  0  0  0  0  0
   -2.4739   -0.6660    0.0000 C   0  0  0  0  0  0  0  0  0  0  0  0
   -1.9176    0.9149    0.0000 C   0  0  0  0  0  0  0  0  0  0  0  0
   -0.8197    2.1153    0.0000 C   0  0  0  0  0  0  0  0  0  0  0  0
    0.9954    2.2470    0.0000 C   0  0  0  0  0  0  0  0  0  0  0  0
   -0.5855   -2.8765    0.0000 C   0  0  0  0  0  0  0  0  0  0  0  0
   -2.2104   -2.5252    0.0000 C   0  0  0  0  0  0  0  0  0  0  0  0
    1.7127    1.0320    0.0000 C   0  0  0  0  0  0  0  0  0  0  0  0
    1.6981    2.6569    0.0000 C   0  0  0  0  0  0  0  0  0  0  0  0
   -2.1811    1.6761    0.0000 C   0  0  0  0  0  0  0  0  0  0  0  0
   -1.6395    2.2763    0.0000 C   0  0  0  0  0  0  0  0  0  0  0  0
   -2.4739    0.1537    0.0000 C   0  0  0  0  0  0  0  0  0  0  0  0
   -3.2058   -1.0613    0.0000 C   0  0  0  0  0  0  0  0  0  0  0  0
   -1.1418   -3.4620    0.0000 C   0  0  0  0  0  0  0  0  0  0  0  0
   -1.9469   -3.2863    0.0000 C   0  0  0  0  0  0  0  0  0  0  0  0
    2.4592    2.2470    0.0000 C   0  0  0  0  0  0  0  0  0  0  0  0
    2.4446    1.4273    0.0000 C   0  0  0  0  0  0  0  0  0  0  0  0
    0.2489    2.6423    0.0000 C   0  0  0  0  0  0  0  0  0  0  0  0
   -3.2058    0.5636    0.0000 C   0  0  0  0  0  0  0  0  0  0  0  0
   -3.9231   -0.6514    0.0000 C   0  0  0  0  0  0  0  0  0  0  0  0
    3.1912    2.6276    0.0000 C   0  0  0  0  0  0  0  0  0  0  0  0
   -3.9231    0.1684    0.0000 C   0  0  0  0  0  0  0  0  0  0  0  0
  1 24  1  0  0  0  0
  2  8  1  0  0  0  0
  2 11  1  0  0  0  0
  2 14  1  0  0  0  0
  3  7  1  0  0  0  0
  3 13  1  0  0  0  0
  3 17  1  0  0  0  0
  4 33  3  0  0  0  0
  5 36  3  0  0  0  0
  6  7  1  0  0  0  0
  6  8  2  0  0  0  0
  6 10  1  0  0  0  0
  7  9  2  0  0  0  0
  8 15  1  0  0  0  0
  9 12  1  0  0  0  0
  9 16  1  0  0  0  0
 10 11  2  0  0  0  0
 10 18  1  0  0  0  0
 11 19  1  0  0  0  0
 12 13  2  0  0  0  0
 12 21  1  0  0  0  0
 13 22  1  0  0  0  0
 14 20  2  0  0  0  0
 14 23  1  0  0  0  0
 15 16  2  0  0  0  0
 17 27  2  0  0  0  0
 17 28  1  0  0  0  0
 18 25  2  0  0  0  0
 19 26  2  0  0  0  0
 20 24  1  0  0  0  0
 20 33  1  0  0  0  0
 21 29  2  0  0  0  0
 22 30  2  0  0  0  0
 23 32  2  0  0  0  0
 24 31  2  0  0  0  0
 25 26  1  0  0  0  0
 27 34  1  0  0  0  0
 28 35  2  0  0  0  0
 29 30  1  0  0  0  0
 31 32  1  0  0  0  0
 31 36  1  0  0  0  0
 34 37  2  0  0  0  0
 35 37  1  0  0  0  0
M  END
> <PUBCHEM_COMPOUND_ID_TYPE>
0

> <PUBCHEM_TOTAL_CHARGE>
0

> <PUBCHEM_SUBSTANCE_ID>
310944370

> <PUBCHEM_SUBSTANCE_VERSION>
1

> <PUBCHEM_EXT_DATASOURCE_NAME>
4488

> <PUBCHEM_EXT_DATASOURCE_REGID>
SCHEMBL16122445

> <PUBCHEM_SUBSTANCE_COMMENT>
InChI=1S/C32H17FN4/c33-31-20(18-34)14-16-28(25(31)19-35)37-27-13-7-5-11-24(27)30-29(37)17-15-23-22-10-4-6-12-26(22)36(32(23)30)21-8-2-1-3-9-21/h1-17H
InChIKey=FRBSHRMHYGAPSX-UHFFFAOYSA-N

> <PUBCHEM_SUBSTANCE_SYNONYM>
SCHEMBL16122445

> <PUBCHEM_XREF_EXT_ID>
SCHEMBL16122445

> <PUBCHEM_EXT_DATASOURCE_URL>
https://www.surechembl.org/

> <PUBCHEM_EXT_SUBSTANCE_URL>
https://www.surechembl.org/chemical/SCHEMBL16122445

> <PUBCHEM_CID_ASSOCIATIONS>
117610627  1

> <PUBCHEM_COORDINATE_TYPE>
1
3

$$$$
