310931119
  -OEChem-07211613022D

 35 39  0     1  0  0  0  0  0999 V2000
    6.3704   -5.8396    0.0000 F   0  0  0  0  0  0  0  0  0  0  0  0
    0.7182   -2.5607    0.0000 F   0  0  0  0  0  0  0  0  0  0  0  0
    0.0000   -3.8098    0.0000 F   0  0  0  0  0  0  0  0  0  0  0  0
    4.9965   -5.8396    0.0000 O   0  0  0  0  0  0  0  0  0  0  0  0
    1.4365   -4.6217    0.0000 O   0  0  0  0  0  0  0  0  0  0  0  0
    4.2782   -4.5905    0.0000 N   0  0  0  0  0  0  0  0  0  0  0  0
    4.9965   -3.3726    0.0000 N   0  0  0  0  0  0  0  0  0  0  0  0
    3.5600   -2.5607    0.0000 N   0  0  0  0  0  0  0  0  0  0  0  0
    2.1859   -2.5607    0.0000 N   0  0  0  0  0  0  0  0  0  0  0  0
    1.4365   -1.3116    0.0000 N   0  0  0  0  0  0  0  0  0  0  0  0
    2.3421   -0.0937    0.0000 N   0  0  0  0  0  0  0  0  0  0  0  0
    4.2782   -3.7786    0.0000 C   0  0  0  0  0  0  0  0  0  0  0  0
    5.7147   -4.5905    0.0000 C   0  0  0  0  0  0  0  0  0  0  0  0
    4.9965   -4.9965    0.0000 C   0  0  0  0  0  0  0  0  0  0  0  0
    5.7147   -3.7786    0.0000 C   0  0  0  0  0  0  0  0  0  0  0  0
    3.5600   -4.9965    0.0000 C   0  0  0  0  0  0  0  0  0  0  0  0
    3.5600   -3.3726    0.0000 C   0  0  3  0  0  0  0  0  0  0  0  0
    6.4017   -4.9965    0.0000 C   0  0  0  0  0  0  0  0  0  0  0  0
    6.4017   -3.3726    0.0000 C   0  0  0  0  0  0  0  0  0  0  0  0
    2.8730   -2.1547    0.0000 C   0  0  0  0  0  0  0  0  0  0  0  0
    2.8730   -1.3116    0.0000 C   0  0  0  0  0  0  0  0  0  0  0  0
    2.8418   -4.6217    0.0000 C   0  0  0  0  0  0  0  0  0  0  0  0
    3.5600   -5.8396    0.0000 C   0  0  0  0  0  0  0  0  0  0  0  0
    7.1199   -4.5905    0.0000 C   0  0  0  0  0  0  0  0  0  0  0  0
    2.1235   -0.9056    0.0000 C   0  0  0  0  0  0  0  0  0  0  0  0
    7.1199   -3.7786    0.0000 C   0  0  0  0  0  0  0  0  0  0  0  0
    2.1547   -5.0277    0.0000 C   0  0  0  0  0  0  0  0  0  0  0  0
    2.8418   -3.7786    0.0000 C   0  0  0  0  0  0  0  0  0  0  0  0
    3.4663   -0.7494    0.0000 C   0  0  0  0  0  0  0  0  0  0  0  0
    2.8730   -6.2455    0.0000 C   0  0  0  0  0  0  0  0  0  0  0  0
    2.1547   -5.8396    0.0000 C   0  0  0  0  0  0  0  0  0  0  0  0
    1.4365   -2.1235    0.0000 C   0  0  0  0  0  0  0  0  0  0  0  0
    3.1228    0.0000    0.0000 C   0  0  0  0  0  0  0  0  0  0  0  0
    1.4365   -3.8098    0.0000 C   0  0  0  0  0  0  0  0  0  0  0  0
    0.7182   -3.3726    0.0000 C   0  0  0  0  0  0  0  0  0  0  0  0
  1 18  1  0  0  0  0
  2 35  1  0  0  0  0
  3 35  1  0  0  0  0
  4 14  2  0  0  0  0
  5 27  1  0  0  0  0
  5 34  1  0  0  0  0
  6 12  1  0  0  0  0
  6 14  1  0  0  0  0
  6 16  1  0  0  0  0
  7 12  2  0  0  0  0
  7 15  1  0  0  0  0
  8 17  1  0  0  0  0
  8 20  1  0  0  0  0
  9 20  1  0  0  0  0
  9 32  2  0  0  0  0
 10 25  2  0  0  0  0
 10 32  1  0  0  0  0
 11 25  1  0  0  0  0
 11 33  1  0  0  0  0
 12 17  1  0  0  0  0
 13 14  1  0  0  0  0
 13 15  2  0  0  0  0
 13 18  1  0  0  0  0
 15 19  1  0  0  0  0
 16 22  1  0  0  0  0
 16 23  2  0  0  0  0
 17 28  1  6  0  0  0
 18 24  2  0  0  0  0
 19 26  2  0  0  0  0
 20 21  2  0  0  0  0
 21 25  1  0  0  0  0
 21 29  1  0  0  0  0
 22 27  2  0  0  0  0
 23 30  1  0  0  0  0
 24 26  1  0  0  0  0
 27 31  1  0  0  0  0
 29 33  2  0  0  0  0
 30 31  2  0  0  0  0
 34 35  1  0  0  0  0
M  END
> <PUBCHEM_COMPOUND_ID_TYPE>
0

> <PUBCHEM_TOTAL_CHARGE>
0

> <PUBCHEM_SUBSTANCE_ID>
310931119

> <PUBCHEM_SUBSTANCE_VERSION>
1

> <PUBCHEM_EXT_DATASOURCE_NAME>
4488

> <PUBCHEM_EXT_DATASOURCE_REGID>
SCHEMBL16108423

> <PUBCHEM_SUBSTANCE_COMMENT>
InChI=1S/C24H19F3N6O2/c1-13(31-22-16-8-9-28-21(16)29-12-30-22)23-32-18-7-3-6-17(25)20(18)24(34)33(23)14-4-2-5-15(10-14)35-11-19(26)27/h2-10,12-13,19H,11H2,1H3,(H2,28,29,30,31)/t13-/m0/s1
InChIKey=UWBHWQXDFIKEAO-ZDUSSCGKSA-N

> <PUBCHEM_SUBSTANCE_SYNONYM>
SCHEMBL16108423

> <PUBCHEM_XREF_EXT_ID>
SCHEMBL16108423

> <PUBCHEM_EXT_DATASOURCE_URL>
https://www.surechembl.org/

> <PUBCHEM_EXT_SUBSTANCE_URL>
https://www.surechembl.org/chemical/SCHEMBL16108423

> <PUBCHEM_CID_ASSOCIATIONS>
117600005  1

> <PUBCHEM_COORDINATE_TYPE>
1
3

> <PUBCHEM_BONDANNOTATIONS>
17  28  6

$$$$
