310940512
  -OEChem-07211613022D

 28 30  0     0  0  0  0  0  0999 V2000
    0.5499    2.5633    0.0000 F   0  0  0  0  0  0  0  0  0  0  0  0
    0.8409    1.5121    0.0000 F   0  0  0  0  0  0  0  0  0  0  0  0
   -0.2264    1.2371    0.0000 F   0  0  0  0  0  0  0  0  0  0  0  0
   -2.0054   -1.8032    0.0000 O   0  0  0  0  0  0  0  0  0  0  0  0
   -1.2776   -0.5742    0.0000 N   0  0  0  0  0  0  0  0  0  0  0  0
    1.5849   -2.0782    0.0000 N   0  0  0  0  0  0  0  0  0  0  0  0
   -1.2776    1.9003    0.0000 C   0  0  0  0  0  0  0  0  0  0  0  0
   -0.5661    2.3207    0.0000 C   0  0  0  0  0  0  0  0  0  0  0  0
   -1.2938    1.0593    0.0000 C   0  0  0  0  0  0  0  0  0  0  0  0
    0.1456    1.9003    0.0000 C   0  0  0  0  0  0  0  0  0  0  0  0
   -1.9892    2.3045    0.0000 C   0  0  0  0  0  0  0  0  0  0  0  0
   -0.5499    0.6550    0.0000 C   0  0  0  0  0  0  0  0  0  0  0  0
   -1.9892    0.6388    0.0000 C   0  0  0  0  0  0  0  0  0  0  0  0
   -0.5499    3.0808    0.0000 C   0  0  0  0  0  0  0  0  0  0  0  0
   -1.2938   -1.3827    0.0000 C   0  0  0  0  0  0  0  0  0  0  0  0
   -0.5661   -0.1698    0.0000 C   0  0  0  0  0  0  0  0  0  0  0  0
   -2.0054   -0.1536    0.0000 C   0  0  0  0  0  0  0  0  0  0  0  0
   -0.5661   -1.8032    0.0000 C   0  0  0  0  0  0  0  0  0  0  0  0
   -1.9731    3.1294    0.0000 C   0  0  0  0  0  0  0  0  0  0  0  0
   -1.2614    3.5175    0.0000 C   0  0  0  0  0  0  0  0  0  0  0  0
    0.7439   -2.0620    0.0000 C   0  0  0  0  0  0  0  0  0  0  0  0
    0.1456   -1.4798    0.0000 C   0  0  0  0  0  0  0  0  0  0  0  0
    0.3396   -2.8058    0.0000 C   0  0  0  0  0  0  0  0  0  0  0  0
   -0.4690   -2.4824    0.0000 C   0  0  0  0  0  0  0  0  0  0  0  0
    0.7439   -3.5013    0.0000 C   0  0  0  0  0  0  0  0  0  0  0  0
    2.0054   -2.7897    0.0000 C   0  0  0  0  0  0  0  0  0  0  0  0
    1.5849   -3.5175    0.0000 C   0  0  0  0  0  0  0  0  0  0  0  0
   -0.3558   -2.6603    0.0000 C   0  0  0  0  0  0  0  0  0  0  0  0
  1 10  1  0  0  0  0
  2 10  1  0  0  0  0
  3 10  1  0  0  0  0
  4 15  2  0  0  0  0
  5 15  1  0  0  0  0
  5 16  1  0  0  0  0
  5 17  1  0  0  0  0
  6 21  1  0  0  0  0
  6 26  2  0  0  0  0
  7  8  2  0  0  0  0
  7  9  1  0  0  0  0
  7 11  1  0  0  0  0
  8 10  1  0  0  0  0
  8 14  1  0  0  0  0
  9 12  1  0  0  0  0
  9 13  1  0  0  0  0
 11 19  2  0  0  0  0
 12 16  1  0  0  0  0
 13 17  1  0  0  0  0
 14 20  2  0  0  0  0
 15 18  1  0  0  0  0
 18 22  2  0  0  0  0
 18 24  1  0  0  0  0
 19 20  1  0  0  0  0
 21 22  1  0  0  0  0
 21 23  2  0  0  0  0
 23 25  1  0  0  0  0
 23 28  1  0  0  0  0
 25 27  2  0  0  0  0
 26 27  1  0  0  0  0
M  END
> <PUBCHEM_COMPOUND_ID_TYPE>
0

> <PUBCHEM_TOTAL_CHARGE>
0

> <PUBCHEM_SUBSTANCE_ID>
310940512

> <PUBCHEM_SUBSTANCE_VERSION>
1

> <PUBCHEM_EXT_DATASOURCE_NAME>
4488

> <PUBCHEM_EXT_DATASOURCE_REGID>
SCHEMBL16118466

> <PUBCHEM_SUBSTANCE_COMMENT>
InChI=1S/C22H23F3N2O/c1-15-6-5-11-26-20(15)14-16(2)21(28)27-12-9-17(10-13-27)18-7-3-4-8-19(18)22(23,24)25/h3-8,11,14,17H,9-10,12-13H2,1-2H3/b16-14+
InChIKey=QBKWIJDJVAUUHE-JQIJEIRASA-N

> <PUBCHEM_SUBSTANCE_SYNONYM>
SCHEMBL16118466

> <PUBCHEM_XREF_EXT_ID>
SCHEMBL16118466

> <PUBCHEM_EXT_DATASOURCE_URL>
https://www.surechembl.org/

> <PUBCHEM_EXT_SUBSTANCE_URL>
https://www.surechembl.org/chemical/SCHEMBL16118466

> <PUBCHEM_CID_ASSOCIATIONS>
117607527  1

> <PUBCHEM_COORDINATE_TYPE>
1
3

$$$$
