310939918
  -OEChem-07211613022D

 27 29  0     0  0  0  0  0  0999 V2000
   -1.4289    4.7084    0.0000 Cl  0  0  0  0  0  0  0  0  0  0  0  0
    1.4289    3.0584    0.0000 Cl  0  0  0  0  0  0  0  0  0  0  0  0
    1.4289    4.7084    0.0000 Cl  0  0  0  0  0  0  0  0  0  0  0  0
    0.0000   -3.8834    0.0000 O   0  0  0  0  0  0  0  0  0  0  0  0
    0.0000    2.2334    0.0000 O   0  0  0  0  0  0  0  0  0  0  0  0
   -0.7145   -0.6541    0.0000 N   0  0  0  0  0  0  0  0  0  0  0  0
   -0.7145   -2.6459    0.0000 N   0  0  0  0  0  0  0  0  0  0  0  0
   -0.7145    0.9959    0.0000 N   0  0  0  0  0  0  0  0  0  0  0  0
   -1.4289    3.0584    0.0000 N   0  0  0  0  0  0  0  0  0  0  0  0
   -0.7145   -1.4791    0.0000 C   0  0  0  0  0  0  0  0  0  0  0  0
   -1.2978   -2.0625    0.0000 C   0  0  0  0  0  0  0  0  0  0  0  0
   -0.1311   -2.0625    0.0000 C   0  0  0  0  0  0  0  0  0  0  0  0
   -0.7145   -3.4709    0.0000 C   0  0  0  0  0  0  0  0  0  0  0  0
   -1.4289   -0.2416    0.0000 C   0  0  0  0  0  0  0  0  0  0  0  0
    0.0000   -0.2416    0.0000 C   0  0  0  0  0  0  0  0  0  0  0  0
   -0.7145    3.4709    0.0000 C   0  0  0  0  0  0  0  0  0  0  0  0
   -0.7145    1.8209    0.0000 C   0  0  0  0  0  0  0  0  0  0  0  0
   -0.7145    4.2959    0.0000 C   0  0  0  0  0  0  0  0  0  0  0  0
   -1.4289    0.5834    0.0000 C   0  0  0  0  0  0  0  0  0  0  0  0
    0.0000    0.5834    0.0000 C   0  0  0  0  0  0  0  0  0  0  0  0
    0.7145    3.4709    0.0000 C   0  0  0  0  0  0  0  0  0  0  0  0
    0.7145    4.2959    0.0000 C   0  0  0  0  0  0  0  0  0  0  0  0
    0.0000    3.0584    0.0000 C   0  0  0  0  0  0  0  0  0  0  0  0
    0.0000    4.7084    0.0000 C   0  0  0  0  0  0  0  0  0  0  0  0
   -1.4289    2.2334    0.0000 C   0  0  0  0  0  0  0  0  0  0  0  0
   -1.4289   -3.8834    0.0000 C   0  0  0  0  0  0  0  0  0  0  0  0
   -1.4289   -4.7084    0.0000 C   0  0  0  0  0  0  0  0  0  0  0  0
  1 18  1  0  0  0  0
  2 21  1  0  0  0  0
  3 22  1  0  0  0  0
  4 13  2  0  0  0  0
  5 17  2  0  0  0  0
  6 10  1  0  0  0  0
  6 14  1  0  0  0  0
  6 15  1  0  0  0  0
  7 11  1  0  0  0  0
  7 12  1  0  0  0  0
  7 13  1  0  0  0  0
  8 17  1  0  0  0  0
  8 19  1  0  0  0  0
  8 20  1  0  0  0  0
  9 16  1  0  0  0  0
  9 25  1  0  0  0  0
 10 11  1  0  0  0  0
 10 12  1  0  0  0  0
 13 26  1  0  0  0  0
 14 19  1  0  0  0  0
 15 20  1  0  0  0  0
 16 18  1  0  0  0  0
 16 23  2  0  0  0  0
 17 25  1  0  0  0  0
 18 24  2  0  0  0  0
 21 22  2  0  0  0  0
 21 23  1  0  0  0  0
 22 24  1  0  0  0  0
 26 27  2  0  0  0  0
M  END
> <PUBCHEM_COMPOUND_ID_TYPE>
0

> <PUBCHEM_TOTAL_CHARGE>
0

> <PUBCHEM_SUBSTANCE_ID>
310939918

> <PUBCHEM_SUBSTANCE_VERSION>
1

> <PUBCHEM_EXT_DATASOURCE_NAME>
4488

> <PUBCHEM_EXT_DATASOURCE_REGID>
SCHEMBL16117848

> <PUBCHEM_SUBSTANCE_COMMENT>
InChI=1S/C18H21Cl3N4O2/c1-2-17(26)25-10-12(11-25)23-3-5-24(6-4-23)18(27)9-22-16-8-14(20)13(19)7-15(16)21/h2,7-8,12,22H,1,3-6,9-11H2
InChIKey=FSZKEPISXQCSQX-UHFFFAOYSA-N

> <PUBCHEM_SUBSTANCE_SYNONYM>
SCHEMBL16117848

> <PUBCHEM_XREF_EXT_ID>
SCHEMBL16117848

> <PUBCHEM_EXT_DATASOURCE_URL>
https://www.surechembl.org/

> <PUBCHEM_EXT_SUBSTANCE_URL>
https://www.surechembl.org/chemical/SCHEMBL16117848

> <PUBCHEM_CID_ASSOCIATIONS>
86279813  1

> <PUBCHEM_COORDINATE_TYPE>
1
3

$$$$
