310945127
  -OEChem-07211613022D

 31 34  0     1  0  0  0  0  0999 V2000
    2.1291   -2.4273    0.0000 S   0  0  0  0  0  0  0  0  0  0  0  0
    3.8074   -2.5244    0.0000 O   0  0  0  0  0  0  0  0  0  0  0  0
   -0.8391   -0.1248    0.0000 O   0  0  0  0  0  0  0  0  0  0  0  0
   -1.6852    1.0958    0.0000 O   0  0  0  0  0  0  0  0  0  0  0  0
    2.3649   -0.2913    0.0000 N   0  0  0  0  0  0  0  0  0  0  0  0
    4.0154   -1.1651    0.0000 N   0  0  0  0  0  0  0  0  0  0  0  0
   -1.5604   -1.3454    0.0000 N   0  0  0  0  0  0  0  0  0  0  0  0
   -3.7658   -1.0403    0.0000 N   0  0  0  0  0  0  0  0  0  0  0  0
   -3.1416    1.0264    0.0000 N   0  0  0  0  0  0  0  0  0  0  0  0
    1.3385   -1.3593    0.0000 C   0  0  0  0  0  0  0  0  0  0  0  0
    2.1430   -1.1235    0.0000 C   0  0  0  0  0  0  0  0  0  0  0  0
    2.6145   -1.7754    0.0000 C   0  0  0  0  0  0  0  0  0  0  0  0
    1.3246   -2.1637    0.0000 C   0  0  0  0  0  0  0  0  0  0  0  0
    0.6033   -0.9571    0.0000 C   0  0  0  0  0  0  0  0  0  0  0  0
    3.4606   -1.7754    0.0000 C   0  0  0  0  0  0  0  0  0  0  0  0
   -0.1040   -1.3454    0.0000 C   0  0  0  0  0  0  0  0  0  0  0  0
    0.6172   -2.5799    0.0000 C   0  0  0  0  0  0  0  0  0  0  0  0
   -0.1040   -2.1776    0.0000 C   0  0  0  0  0  0  0  0  0  0  0  0
   -0.8391   -0.9709    0.0000 C   0  0  0  0  0  0  0  0  0  0  0  0
    3.1138    0.0278    0.0000 C   0  0  0  0  0  0  0  0  0  0  0  0
    3.8906   -0.3607    0.0000 C   0  0  3  0  0  0  0  0  0  0  0  0
   -2.3233   -0.9709    0.0000 C   0  0  0  0  0  0  0  0  0  0  0  0
   -3.1138    0.2081    0.0000 C   0  0  0  0  0  0  0  0  0  0  0  0
   -2.3510   -0.1664    0.0000 C   0  0  0  0  0  0  0  0  0  0  0  0
   -3.7935   -0.2219    0.0000 C   0  0  0  0  0  0  0  0  0  0  0  0
   -3.0168   -1.4148    0.0000 C   0  0  0  0  0  0  0  0  0  0  0  0
    4.5564    0.1110    0.0000 C   0  0  0  0  0  0  0  0  0  0  0  0
   -2.4620    1.4841    0.0000 C   0  0  0  0  0  0  0  0  0  0  0  0
   -4.5564    0.1248    0.0000 C   0  0  0  0  0  0  0  0  0  0  0  0
   -2.4759    2.2747    0.0000 C   0  0  0  0  0  0  0  0  0  0  0  0
   -3.2664    2.5799    0.0000 C   0  0  0  0  0  0  0  0  0  0  0  0
  1 12  1  0  0  0  0
  1 13  1  0  0  0  0
  2 15  2  0  0  0  0
  3 19  2  0  0  0  0
  4 28  2  0  0  0  0
  5 11  1  0  0  0  0
  5 20  1  0  0  0  0
  6 15  1  0  0  0  0
  6 21  1  0  0  0  0
  7 19  1  0  0  0  0
  7 22  1  0  0  0  0
  8 25  1  0  0  0  0
  8 26  2  0  0  0  0
  9 23  1  0  0  0  0
  9 28  1  0  0  0  0
 10 11  1  0  0  0  0
 10 13  1  0  0  0  0
 10 14  2  0  0  0  0
 11 12  2  0  0  0  0
 12 15  1  0  0  0  0
 13 17  2  0  0  0  0
 14 16  1  0  0  0  0
 16 18  2  0  0  0  0
 16 19  1  0  0  0  0
 17 18  1  0  0  0  0
 20 21  1  0  0  0  0
 21 27  1  1  0  0  0
 22 24  2  0  0  0  0
 22 26  1  0  0  0  0
 23 24  1  0  0  0  0
 23 25  2  0  0  0  0
 25 29  1  0  0  0  0
 28 30  1  0  0  0  0
 30 31  2  0  0  0  0
M  END
> <PUBCHEM_COMPOUND_ID_TYPE>
0

> <PUBCHEM_TOTAL_CHARGE>
0

> <PUBCHEM_SUBSTANCE_ID>
310945127

> <PUBCHEM_SUBSTANCE_VERSION>
1

> <PUBCHEM_EXT_DATASOURCE_NAME>
4488

> <PUBCHEM_EXT_DATASOURCE_REGID>
SCHEMBL16123217

> <PUBCHEM_SUBSTANCE_COMMENT>
InChI=1S/C22H21N5O3S/c1-4-18(28)27-16-8-14(10-23-12(16)3)26-21(29)13-5-6-17-15(7-13)19-20(31-17)22(30)25-11(2)9-24-19/h4-8,10-11,24H,1,9H2,2-3H3,(H,25,30)(H,26,29)(H,27,28)/t11-/m1/s1
InChIKey=GQTWAPUMZYUXLV-LLVKDONJSA-N

> <PUBCHEM_SUBSTANCE_SYNONYM>
SCHEMBL16123217

> <PUBCHEM_XREF_EXT_ID>
SCHEMBL16123217

> <PUBCHEM_EXT_DATASOURCE_URL>
https://www.surechembl.org/

> <PUBCHEM_EXT_SUBSTANCE_URL>
https://www.surechembl.org/chemical/SCHEMBL16123217

> <PUBCHEM_CID_ASSOCIATIONS>
117611222  1

> <PUBCHEM_COORDINATE_TYPE>
1
3

> <PUBCHEM_BONDANNOTATIONS>
21  27  5

$$$$
