310933635
  -OEChem-07211613022D

 28 32  0     0  0  0  0  0  0999 V2000
   -0.3025   -0.4039    0.0000 O   0  0  0  0  0  0  0  0  0  0  0  0
    3.1382   -4.0570    0.0000 O   0  0  0  0  0  0  0  0  0  0  0  0
   -0.5996   -1.8016    0.0000 N   0  0  0  0  0  0  0  0  0  0  0  0
    1.4269   -0.8751    0.0000 N   0  0  0  0  0  0  0  0  0  0  0  0
   -0.3446   -2.5862    0.0000 N   0  0  0  0  0  0  0  0  0  0  0  0
    1.5242   -3.7139    0.0000 N   0  0  0  0  0  0  0  0  0  0  0  0
    1.0144   -2.1447    0.0000 C   0  0  0  0  0  0  0  0  0  0  0  0
    0.7594   -1.3601    0.0000 C   0  0  0  0  0  0  0  0  0  0  0  0
    1.8394   -2.1447    0.0000 C   0  0  0  0  0  0  0  0  0  0  0  0
    0.4623   -2.7578    0.0000 C   0  0  0  0  0  0  0  0  0  0  0  0
   -0.0476   -1.1885    0.0000 C   0  0  0  0  0  0  0  0  0  0  0  0
    2.0943   -1.3601    0.0000 C   0  0  0  0  0  0  0  0  0  0  0  0
   -1.4066   -1.6301    0.0000 C   0  0  0  0  0  0  0  0  0  0  0  0
    2.3914   -2.7578    0.0000 C   0  0  0  0  0  0  0  0  0  0  0  0
    0.7173   -3.5424    0.0000 C   0  0  0  0  0  0  0  0  0  0  0  0
    2.9013   -1.1885    0.0000 C   0  0  0  0  0  0  0  0  0  0  0  0
    3.1984   -2.5862    0.0000 C   0  0  0  0  0  0  0  0  0  0  0  0
    3.4533   -1.8016    0.0000 C   0  0  0  0  0  0  0  0  0  0  0  0
   -1.9586   -2.2432    0.0000 C   0  0  0  0  0  0  0  0  0  0  0  0
   -1.6615   -0.8455    0.0000 C   0  0  0  0  0  0  0  0  0  0  0  0
   -2.7656   -2.0717    0.0000 C   0  0  0  0  0  0  0  0  0  0  0  0
   -2.4685   -0.6739    0.0000 C   0  0  0  0  0  0  0  0  0  0  0  0
   -3.0205   -1.2870    0.0000 C   0  0  0  0  0  0  0  0  0  0  0  0
    1.7792   -4.4985    0.0000 C   0  0  0  0  0  0  0  0  0  0  0  0
    2.0763   -3.1008    0.0000 C   0  0  0  0  0  0  0  0  0  0  0  0
    2.5861   -4.6701    0.0000 C   0  0  0  0  0  0  0  0  0  0  0  0
    2.8832   -3.2723    0.0000 C   0  0  0  0  0  0  0  0  0  0  0  0
   -3.8275   -1.1155    0.0000 C   0  0  0  0  0  0  0  0  0  0  0  0
  1 11  2  0  0  0  0
  2 26  1  0  0  0  0
  2 27  1  0  0  0  0
  3  5  1  0  0  0  0
  3 11  1  0  0  0  0
  3 13  1  0  0  0  0
  4  8  1  0  0  0  0
  4 12  1  0  0  0  0
  5 10  2  0  0  0  0
  6 15  1  0  0  0  0
  6 24  1  0  0  0  0
  6 25  1  0  0  0  0
  7  8  2  0  0  0  0
  7  9  1  0  0  0  0
  7 10  1  0  0  0  0
  8 11  1  0  0  0  0
  9 12  2  0  0  0  0
  9 14  1  0  0  0  0
 10 15  1  0  0  0  0
 12 16  1  0  0  0  0
 13 19  2  0  0  0  0
 13 20  1  0  0  0  0
 14 17  2  0  0  0  0
 16 18  2  0  0  0  0
 17 18  1  0  0  0  0
 19 21  1  0  0  0  0
 20 22  2  0  0  0  0
 21 23  2  0  0  0  0
 22 23  1  0  0  0  0
 23 28  1  0  0  0  0
 24 26  1  0  0  0  0
 25 27  1  0  0  0  0
M  END
> <PUBCHEM_COMPOUND_ID_TYPE>
0

> <PUBCHEM_TOTAL_CHARGE>
0

> <PUBCHEM_SUBSTANCE_ID>
310933635

> <PUBCHEM_SUBSTANCE_VERSION>
1

> <PUBCHEM_EXT_DATASOURCE_NAME>
4488

> <PUBCHEM_EXT_DATASOURCE_REGID>
SCHEMBL16111066

> <PUBCHEM_SUBSTANCE_COMMENT>
InChI=1S/C22H22N4O2/c1-15-6-8-16(9-7-15)26-22(27)21-20(17-4-2-3-5-18(17)23-21)19(24-26)14-25-10-12-28-13-11-25/h2-9,23H,10-14H2,1H3
InChIKey=QJFZRXQYEDXGGX-UHFFFAOYSA-N

> <PUBCHEM_SUBSTANCE_SYNONYM>
SCHEMBL16111066

> <PUBCHEM_XREF_EXT_ID>
SCHEMBL16111066

> <PUBCHEM_EXT_DATASOURCE_URL>
https://www.surechembl.org/

> <PUBCHEM_EXT_SUBSTANCE_URL>
https://www.surechembl.org/chemical/SCHEMBL16111066

> <PUBCHEM_CID_ASSOCIATIONS>
117602008  1

> <PUBCHEM_COORDINATE_TYPE>
1
3

$$$$
