310947513
  -OEChem-07211613022D

 29 32  0     1  0  0  0  0  0999 V2000
    1.3926    3.7497    0.0000 Cl  0  0  0  0  0  0  0  0  0  0  0  0
   -1.5989   -0.8918    0.0000 F   0  0  0  0  0  0  0  0  0  0  0  0
   -0.7739    1.0922    0.0000 O   0  0  0  0  0  0  0  0  0  0  0  0
    0.0511   -0.8918    0.0000 O   0  0  0  0  0  0  0  0  0  0  0  0
   -1.1864   -1.6063    0.0000 O   0  0  0  0  0  0  0  0  0  0  0  0
   -0.1065    1.4323    0.0000 N   0  0  0  0  0  0  0  0  0  0  0  0
   -0.1065    2.7671    0.0000 N   0  0  0  0  0  0  0  0  0  0  0  0
    1.3926    1.2747    0.0000 N   0  0  0  0  0  0  0  0  0  0  0  0
    2.1071    2.5122    0.0000 N   0  0  0  0  0  0  0  0  0  0  0  0
    2.8216    1.2747    0.0000 N   0  0  0  0  0  0  0  0  0  0  0  0
   -0.3614   -0.1774    0.0000 C   0  0  3  0  0  0  0  0  0  0  0  0
   -0.1065    0.6073    0.0000 C   0  0  3  0  0  0  0  0  0  0  0  0
   -1.1864   -0.1774    0.0000 C   0  0  3  0  0  0  0  0  0  0  0  0
    0.6782    1.6872    0.0000 C   0  0  0  0  0  0  0  0  0  0  0  0
   -1.4413    0.6073    0.0000 C   0  0  3  0  0  0  0  0  0  0  0  0
    0.6782    2.5122    0.0000 C   0  0  0  0  0  0  0  0  0  0  0  0
   -0.5914    2.0997    0.0000 C   0  0  0  0  0  0  0  0  0  0  0  0
    1.3926    2.9247    0.0000 C   0  0  0  0  0  0  0  0  0  0  0  0
    0.4355    0.0362    0.0000 C   0  0  0  0  0  0  0  0  0  0  0  0
   -0.3614   -1.6063    0.0000 C   0  0  0  0  0  0  0  0  0  0  0  0
    2.1071    1.6872    0.0000 C   0  0  0  0  0  0  0  0  0  0  0  0
   -2.0247    1.1906    0.0000 C   0  0  0  0  0  0  0  0  0  0  0  0
    0.0511   -2.3208    0.0000 C   0  0  0  0  0  0  0  0  0  0  0  0
   -2.8216    0.9771    0.0000 C   0  0  0  0  0  0  0  0  0  0  0  0
   -0.3614   -3.0352    0.0000 C   0  0  0  0  0  0  0  0  0  0  0  0
    0.8761   -2.3208    0.0000 C   0  0  0  0  0  0  0  0  0  0  0  0
    0.0511   -3.7497    0.0000 C   0  0  0  0  0  0  0  0  0  0  0  0
    1.2886   -3.0352    0.0000 C   0  0  0  0  0  0  0  0  0  0  0  0
    0.8761   -3.7497    0.0000 C   0  0  0  0  0  0  0  0  0  0  0  0
  1 18  1  0  0  0  0
 13  2  1  6  0  0  0
 12  3  1  6  0  0  0
  3 15  1  0  0  0  0
 11  4  1  6  0  0  0
  4 20  1  0  0  0  0
  5 20  2  0  0  0  0
  6 12  1  0  0  0  0
  6 14  1  0  0  0  0
  6 17  1  0  0  0  0
  7 16  1  0  0  0  0
  7 17  2  0  0  0  0
  8 14  1  0  0  0  0
  8 21  2  0  0  0  0
  9 18  2  0  0  0  0
  9 21  1  0  0  0  0
 10 21  1  0  0  0  0
 11 12  1  0  0  0  0
 11 13  1  0  0  0  0
 11 19  1  1  0  0  0
 13 15  1  0  0  0  0
 14 16  2  0  0  0  0
 15 22  1  1  0  0  0
 16 18  1  0  0  0  0
 20 23  1  0  0  0  0
 22 24  1  0  0  0  0
 23 25  2  0  0  0  0
 23 26  1  0  0  0  0
 25 27  1  0  0  0  0
 26 28  2  0  0  0  0
 27 29  2  0  0  0  0
 28 29  1  0  0  0  0
M  END
> <PUBCHEM_COMPOUND_ID_TYPE>
0

> <PUBCHEM_TOTAL_CHARGE>
0

> <PUBCHEM_SUBSTANCE_ID>
310947513

> <PUBCHEM_SUBSTANCE_VERSION>
1

> <PUBCHEM_EXT_DATASOURCE_NAME>
4488

> <PUBCHEM_EXT_DATASOURCE_REGID>
SCHEMBL16125675

> <PUBCHEM_SUBSTANCE_COMMENT>
InChI=1S/C19H19ClFN5O3/c1-3-11-13(21)19(2,29-16(27)10-7-5-4-6-8-10)17(28-11)26-9-23-12-14(20)24-18(22)25-15(12)26/h4-9,11,13,17H,3H2,1-2H3,(H2,22,24,25)/t11-,13-,17-,19-/m1/s1
InChIKey=FWXNASQHKAUMPN-ZYCAIKTBSA-N

> <PUBCHEM_SUBSTANCE_SYNONYM>
SCHEMBL16125675

> <PUBCHEM_XREF_EXT_ID>
SCHEMBL16125675

> <PUBCHEM_EXT_DATASOURCE_URL>
https://www.surechembl.org/

> <PUBCHEM_EXT_SUBSTANCE_URL>
https://www.surechembl.org/chemical/SCHEMBL16125675

> <PUBCHEM_CID_ASSOCIATIONS>
117613236  1

> <PUBCHEM_COORDINATE_TYPE>
1
3

> <PUBCHEM_BONDANNOTATIONS>
11  19  5
15  22  5
13  2  6
12  3  6
11  4  6

$$$$
