310949633
  -OEChem-07211613022D

 22 23  0     0  0  0  0  0  0999 V2000
    2.5671   -0.6045    0.0000 F   0  0  0  0  0  0  0  0  0  0  0  0
    3.2924    0.6186    0.0000 F   0  0  0  0  0  0  0  0  0  0  0  0
    3.2924   -0.1920    0.0000 F   0  0  0  0  0  0  0  0  0  0  0  0
   -1.1022    1.4435    0.0000 O   0  0  0  0  0  0  0  0  0  0  0  0
   -1.1022   -1.8418    0.0000 O   0  0  0  0  0  0  0  0  0  0  0  0
   -0.3769    0.2204    0.0000 N   0  0  0  0  0  0  0  0  0  0  0  0
    1.8133    0.6329    0.0000 C   0  0  0  0  0  0  0  0  0  0  0  0
   -1.8418    0.2062    0.0000 C   0  0  0  0  0  0  0  0  0  0  0  0
    2.5813    0.2062    0.0000 C   0  0  0  0  0  0  0  0  0  0  0  0
    0.3484    0.6329    0.0000 C   0  0  0  0  0  0  0  0  0  0  0  0
   -1.1164    0.6186    0.0000 C   0  0  0  0  0  0  0  0  0  0  0  0
   -1.8418   -0.5902    0.0000 C   0  0  0  0  0  0  0  0  0  0  0  0
    1.1022    0.2204    0.0000 C   0  0  0  0  0  0  0  0  0  0  0  0
    1.8133    1.4435    0.0000 C   0  0  0  0  0  0  0  0  0  0  0  0
    0.3627    1.4435    0.0000 C   0  0  0  0  0  0  0  0  0  0  0  0
   -2.5813    0.6045    0.0000 C   0  0  0  0  0  0  0  0  0  0  0  0
   -1.1022   -1.0026    0.0000 C   0  0  0  0  0  0  0  0  0  0  0  0
   -2.5528   -1.0026    0.0000 C   0  0  0  0  0  0  0  0  0  0  0  0
    1.0880    1.8418    0.0000 C   0  0  0  0  0  0  0  0  0  0  0  0
   -3.2924    0.2062    0.0000 C   0  0  0  0  0  0  0  0  0  0  0  0
   -3.2924   -0.6186    0.0000 C   0  0  0  0  0  0  0  0  0  0  0  0
   -0.6045   -0.7467    0.0000 C   0  0  0  0  0  0  0  0  0  0  0  0
  1  9  1  0  0  0  0
  2  9  1  0  0  0  0
  3  9  1  0  0  0  0
  4 11  2  0  0  0  0
  5 17  2  0  0  0  0
  6 10  1  0  0  0  0
  6 11  1  0  0  0  0
  7  9  1  0  0  0  0
  7 13  2  0  0  0  0
  7 14  1  0  0  0  0
  8 11  1  0  0  0  0
  8 12  1  0  0  0  0
  8 16  2  0  0  0  0
 10 13  1  0  0  0  0
 10 15  2  0  0  0  0
 12 17  1  0  0  0  0
 12 18  2  0  0  0  0
 14 19  2  0  0  0  0
 15 19  1  0  0  0  0
 16 20  1  0  0  0  0
 17 22  1  0  0  0  0
 18 21  1  0  0  0  0
 20 21  2  0  0  0  0
M  END
> <PUBCHEM_COMPOUND_ID_TYPE>
0

> <PUBCHEM_TOTAL_CHARGE>
0

> <PUBCHEM_SUBSTANCE_ID>
310949633

> <PUBCHEM_SUBSTANCE_VERSION>
1

> <PUBCHEM_EXT_DATASOURCE_NAME>
4488

> <PUBCHEM_EXT_DATASOURCE_REGID>
SCHEMBL16127831

> <PUBCHEM_SUBSTANCE_COMMENT>
InChI=1S/C16H12F3NO2/c1-10(21)13-7-2-3-8-14(13)15(22)20-12-6-4-5-11(9-12)16(17,18)19/h2-9H,1H3,(H,20,22)
InChIKey=SYXNEXOGNBEROR-UHFFFAOYSA-N

> <PUBCHEM_SUBSTANCE_SYNONYM>
SCHEMBL16127831

> <PUBCHEM_XREF_EXT_ID>
SCHEMBL16127831

> <PUBCHEM_EXT_DATASOURCE_URL>
https://www.surechembl.org/

> <PUBCHEM_EXT_SUBSTANCE_URL>
https://www.surechembl.org/chemical/SCHEMBL16127831

> <PUBCHEM_CID_ASSOCIATIONS>
117615018  1

> <PUBCHEM_COORDINATE_TYPE>
1
3

$$$$
