310939763
  -OEChem-07211613022D

 15 16  0     0  0  0  0  0  0999 V2000
    3.4215    2.8187    0.0000 Cl  0  0  0  0  0  0  0  0  0  0  0  0
    2.9116    4.3879    0.0000 Cl  0  0  0  0  0  0  0  0  0  0  0  0
    0.1755    3.3333    0.0000 N   0  0  0  0  0  0  0  0  0  0  0  0
    1.2555    2.5486    0.0000 C   0  0  0  0  0  0  0  0  0  0  0  0
    0.5880    2.0637    0.0000 C   0  0  0  0  0  0  0  0  0  0  0  0
    1.0005    3.3333    0.0000 C   0  0  0  0  0  0  0  0  0  0  0  0
    0.5880    1.2387    0.0000 C   0  0  0  0  0  0  0  0  0  0  0  0
    2.0624    2.3771    0.0000 C   0  0  0  0  0  0  0  0  0  0  0  0
   -0.0794    2.5486    0.0000 C   0  0  0  0  0  0  0  0  0  0  0  0
    2.6145    2.9902    0.0000 C   0  0  0  0  0  0  0  0  0  0  0  0
    1.5526    3.9464    0.0000 C   0  0  0  0  0  0  0  0  0  0  0  0
    2.3595    3.7748    0.0000 C   0  0  0  0  0  0  0  0  0  0  0  0
    1.4130    1.2387    0.0000 C   0  0  0  0  0  0  0  0  0  0  0  0
   -0.2370    1.2387    0.0000 C   0  0  0  0  0  0  0  0  0  0  0  0
    0.5880    0.4137    0.0000 C   0  0  0  0  0  0  0  0  0  0  0  0
  1 10  1  0  0  0  0
  2 12  1  0  0  0  0
  3  6  1  0  0  0  0
  3  9  1  0  0  0  0
  4  5  1  0  0  0  0
  4  6  2  0  0  0  0
  4  8  1  0  0  0  0
  5  7  1  0  0  0  0
  5  9  2  0  0  0  0
  6 11  1  0  0  0  0
  7 13  1  0  0  0  0
  7 14  1  0  0  0  0
  7 15  1  0  0  0  0
  8 10  2  0  0  0  0
 10 12  1  0  0  0  0
 11 12  2  0  0  0  0
M  END
> <PUBCHEM_COMPOUND_ID_TYPE>
0

> <PUBCHEM_TOTAL_CHARGE>
0

> <PUBCHEM_SUBSTANCE_ID>
310939763

> <PUBCHEM_SUBSTANCE_VERSION>
1

> <PUBCHEM_EXT_DATASOURCE_NAME>
4488

> <PUBCHEM_EXT_DATASOURCE_REGID>
SCHEMBL16117693

> <PUBCHEM_SUBSTANCE_COMMENT>
InChI=1S/C12H13Cl2N/c1-12(2,3)8-6-15-11-5-10(14)9(13)4-7(8)11/h4-6,15H,1-3H3
InChIKey=CODWWADPZNAQDA-UHFFFAOYSA-N

> <PUBCHEM_SUBSTANCE_SYNONYM>
SCHEMBL16117693

> <PUBCHEM_XREF_EXT_ID>
SCHEMBL16117693

> <PUBCHEM_EXT_DATASOURCE_URL>
https://www.surechembl.org/

> <PUBCHEM_EXT_SUBSTANCE_URL>
https://www.surechembl.org/chemical/SCHEMBL16117693

> <PUBCHEM_CID_ASSOCIATIONS>
117606985  1

> <PUBCHEM_COORDINATE_TYPE>
1
3

> <PUBCHEM_BONDANNOTATIONS>
7  13  3
7  14  3

$$$$
