310937697
  -OEChem-07211613022D

 14 15  0     0  0  0  0  0  0999 V2000
    0.7408   -1.6669    0.0000 O   0  0  0  0  0  0  0  0  0  0  0  0
    0.7408    0.0000    0.0000 O   0  0  0  0  0  0  0  0  0  0  0  0
    3.6030   -2.5086    0.0000 N   0  0  0  0  0  0  0  0  0  0  0  0
    4.3270   -2.9296    0.0000 N   0  3  0  0  0  0  0  0  0  0  0  0
    5.0510   -3.3505    0.0000 N   0  5  0  0  0  0  0  0  0  0  0  0
    1.4648   -1.2459    0.0000 C   0  0  0  0  0  0  0  0  0  0  0  0
    1.4648   -0.4209    0.0000 C   0  0  0  0  0  0  0  0  0  0  0  0
    2.8791   -1.2459    0.0000 C   0  0  0  0  0  0  0  0  0  0  0  0
    2.1551   -1.6669    0.0000 C   0  0  0  0  0  0  0  0  0  0  0  0
    2.1551    0.0000    0.0000 C   0  0  0  0  0  0  0  0  0  0  0  0
    2.8791   -0.4209    0.0000 C   0  0  0  0  0  0  0  0  0  0  0  0
    0.0000   -1.2459    0.0000 C   0  0  0  0  0  0  0  0  0  0  0  0
    0.0000   -0.4209    0.0000 C   0  0  0  0  0  0  0  0  0  0  0  0
    3.6030   -1.6669    0.0000 C   0  0  0  0  0  0  0  0  0  0  0  0
  1  6  1  0  0  0  0
  1 12  1  0  0  0  0
  2  7  1  0  0  0  0
  2 13  1  0  0  0  0
  3  4  2  0  0  0  0
  3 14  1  0  0  0  0
  4  5  2  0  0  0  0
  6  7  2  0  0  0  0
  6  9  1  0  0  0  0
  7 10  1  0  0  0  0
  8  9  2  0  0  0  0
  8 11  1  0  0  0  0
  8 14  1  0  0  0  0
 10 11  2  0  0  0  0
 12 13  1  0  0  0  0
M  CHG  2   4   1   5  -1
M  END
> <PUBCHEM_COMPOUND_ID_TYPE>
0

> <PUBCHEM_TOTAL_CHARGE>
0

> <PUBCHEM_SUBSTANCE_ID>
310937697

> <PUBCHEM_SUBSTANCE_VERSION>
1

> <PUBCHEM_EXT_DATASOURCE_NAME>
4488

> <PUBCHEM_EXT_DATASOURCE_REGID>
SCHEMBL16115490

> <PUBCHEM_SUBSTANCE_COMMENT>
InChI=1S/C9H9N3O2/c10-12-11-6-7-1-2-8-9(5-7)14-4-3-13-8/h1-2,5H,3-4,6H2
InChIKey=XXAIRPPNDALDMP-UHFFFAOYSA-N

> <PUBCHEM_SUBSTANCE_SYNONYM>
SCHEMBL16115490

> <PUBCHEM_XREF_EXT_ID>
SCHEMBL16115490

> <PUBCHEM_EXT_DATASOURCE_URL>
https://www.surechembl.org/

> <PUBCHEM_EXT_SUBSTANCE_URL>
https://www.surechembl.org/chemical/SCHEMBL16115490

> <PUBCHEM_CID_ASSOCIATIONS>
117605378  1

> <PUBCHEM_COORDINATE_TYPE>
1
3

$$$$
