310947370
  -OEChem-07211613022D

 18 19  0     1  0  0  0  0  0999 V2000
    0.0797    1.2375    0.0000 O   0  0  0  0  0  0  0  0  0  0  0  0
   -2.7782    0.4125    0.0000 O   0  0  0  0  0  0  0  0  0  0  0  0
    3.0077   -1.0799    0.0000 N   0  0  0  0  0  0  0  0  0  0  0  0
    3.4927   -0.4125    0.0000 N   0  0  0  0  0  0  0  0  0  0  0  0
   -0.6348    0.0000    0.0000 N   0  0  0  0  0  0  0  0  0  0  0  0
    2.2231    0.0000    0.0000 C   0  0  0  0  0  0  0  0  0  0  0  0
    2.2231   -0.8250    0.0000 C   0  0  0  0  0  0  0  0  0  0  0  0
    0.7942    0.0000    0.0000 C   0  0  0  0  0  0  0  0  0  0  0  0
    3.0077    0.2549    0.0000 C   0  0  0  0  0  0  0  0  0  0  0  0
    1.5086    0.4125    0.0000 C   0  0  0  0  0  0  0  0  0  0  0  0
    1.5086   -1.2375    0.0000 C   0  0  0  0  0  0  0  0  0  0  0  0
    0.0797    0.4125    0.0000 C   0  0  0  0  0  0  0  0  0  0  0  0
    0.7942   -0.8250    0.0000 C   0  0  0  0  0  0  0  0  0  0  0  0
    3.4202    0.9694    0.0000 C   0  0  0  0  0  0  0  0  0  0  0  0
   -1.3492    0.4125    0.0000 C   0  0  3  0  0  0  0  0  0  0  0  0
   -2.0637    0.0000    0.0000 C   0  0  0  0  0  0  0  0  0  0  0  0
   -1.3492    1.2375    0.0000 C   0  0  0  0  0  0  0  0  0  0  0  0
   -3.4927    0.0000    0.0000 C   0  0  0  0  0  0  0  0  0  0  0  0
  1 12  2  0  0  0  0
  2 16  1  0  0  0  0
  2 18  1  0  0  0  0
  3  4  1  0  0  0  0
  3  7  1  0  0  0  0
  4  9  2  0  0  0  0
  5 12  1  0  0  0  0
  5 15  1  0  0  0  0
  6  7  1  0  0  0  0
  6  9  1  0  0  0  0
  6 10  2  0  0  0  0
  7 11  2  0  0  0  0
  8 10  1  0  0  0  0
  8 12  1  0  0  0  0
  8 13  2  0  0  0  0
  9 14  1  0  0  0  0
 11 13  1  0  0  0  0
 15 16  1  0  0  0  0
 15 17  1  6  0  0  0
M  END
> <PUBCHEM_COMPOUND_ID_TYPE>
0

> <PUBCHEM_TOTAL_CHARGE>
0

> <PUBCHEM_SUBSTANCE_ID>
310947370

> <PUBCHEM_SUBSTANCE_VERSION>
1

> <PUBCHEM_EXT_DATASOURCE_NAME>
4488

> <PUBCHEM_EXT_DATASOURCE_REGID>
SCHEMBL16125526

> <PUBCHEM_SUBSTANCE_COMMENT>
InChI=1S/C13H17N3O2/c1-8(7-18-3)14-13(17)10-4-5-12-11(6-10)9(2)15-16-12/h4-6,8H,7H2,1-3H3,(H,14,17)(H,15,16)/t8-/m0/s1
InChIKey=BEUADXNVNXQKOU-QMMMGPOBSA-N

> <PUBCHEM_SUBSTANCE_SYNONYM>
SCHEMBL16125526

> <PUBCHEM_XREF_EXT_ID>
SCHEMBL16125526

> <PUBCHEM_EXT_DATASOURCE_URL>
https://www.surechembl.org/

> <PUBCHEM_EXT_SUBSTANCE_URL>
https://www.surechembl.org/chemical/SCHEMBL16125526

> <PUBCHEM_CID_ASSOCIATIONS>
117613115  1

> <PUBCHEM_COORDINATE_TYPE>
1
3

> <PUBCHEM_BONDANNOTATIONS>
15  17  6

$$$$
