310936791
  -OEChem-07211613022D

 36 39  0     1  0  0  0  0  0999 V2000
    0.5314    0.2971    0.0000 O   0  0  0  0  0  0  0  0  0  0  0  0
    0.7434   -0.5605    0.0000 O   0  0  0  0  0  0  0  0  0  0  0  0
    6.5402    2.4343    0.0000 O   0  0  0  0  0  0  0  0  0  0  0  0
    4.5538    0.2202    0.0000 O   0  0  0  0  0  0  0  0  0  0  0  0
    7.8019    1.7635    0.0000 O   0  0  0  0  0  0  0  0  0  0  0  0
    5.7656    0.9775    0.0000 O   0  0  0  0  0  0  0  0  0  0  0  0
    3.3523    3.5854    0.0000 N   0  0  0  0  0  0  0  0  0  0  0  0
    3.3523    4.4104    0.0000 N   0  3  0  0  0  0  0  0  0  0  0  0
    3.3523    5.2354    0.0000 N   0  5  0  0  0  0  0  0  0  0  0  0
    1.9233    1.1104    0.0000 C   0  0  3  0  0  0  0  0  0  0  0  0
    1.1387    0.8555    0.0000 C   0  0  3  0  0  0  0  0  0  0  0  0
    1.9233    1.9354    0.0000 C   0  0  3  0  0  0  0  0  0  0  0  0
    2.6378    2.3479    0.0000 C   0  0  3  0  0  0  0  0  0  0  0  0
    3.3523    1.9354    0.0000 C   0  0  3  0  0  0  0  0  0  0  0  0
    4.0668    2.3479    0.0000 C   0  0  3  0  0  0  0  0  0  0  0  0
    2.6378    0.6979    0.0000 C   0  0  0  0  0  0  0  0  0  0  0  0
    1.3018    0.0468    0.0000 C   0  0  0  0  0  0  0  0  0  0  0  0
    0.6538    1.5229    0.0000 C   0  0  0  0  0  0  0  0  0  0  0  0
    1.1387    2.1904    0.0000 C   0  0  0  0  0  0  0  0  0  0  0  0
    3.3523    1.1104    0.0000 C   0  0  0  0  0  0  0  0  0  0  0  0
    1.8371    0.2900    0.0000 C   0  0  0  0  0  0  0  0  0  0  0  0
    4.5039    1.6483    0.0000 C   0  0  3  0  0  0  0  0  0  0  0  0
    2.6378    3.1729    0.0000 C   0  0  0  0  0  0  0  0  0  0  0  0
    4.4541    3.0764    0.0000 C   0  0  0  0  0  0  0  0  0  0  0  0
    2.0519   -0.2967    0.0000 C   0  0  0  0  0  0  0  0  0  0  0  0
    3.3253    2.7096    0.0000 C   0  0  0  0  0  0  0  0  0  0  0  0
    5.3284    1.6771    0.0000 C   0  0  0  0  0  0  0  0  0  0  0  0
    5.7158    2.4055    0.0000 C   0  0  3  0  0  0  0  0  0  0  0  0
    5.2786    3.1052    0.0000 C   0  0  0  0  0  0  0  0  0  0  0  0
    4.1166    0.9199    0.0000 C   0  0  0  0  0  0  0  0  0  0  0  0
    1.1484   -1.2793    0.0000 C   0  0  0  0  0  0  0  0  0  0  0  0
    1.9571   -1.1162    0.0000 C   0  0  0  0  0  0  0  0  0  0  0  0
    6.9774    1.7347    0.0000 C   0  0  0  0  0  0  0  0  0  0  0  0
    5.3783    0.2490    0.0000 C   0  0  0  0  0  0  0  0  0  0  0  0
    6.5901    1.0062    0.0000 C   0  0  0  0  0  0  0  0  0  0  0  0
    5.8155   -0.4506    0.0000 C   0  0  0  0  0  0  0  0  0  0  0  0
 11  1  1  1  0  0  0
  2 17  1  0  0  0  0
  2 31  1  0  0  0  0
 28  3  1  6  0  0  0
  3 33  1  0  0  0  0
  4 30  1  0  0  0  0
  4 34  1  0  0  0  0
  5 33  2  0  0  0  0
  6 34  2  0  0  0  0
  7  8  2  0  0  0  0
  7 23  1  0  0  0  0
  8  9  2  0  0  0  0
 10 11  1  0  0  0  0
 10 12  1  0  0  0  0
 10 16  1  0  0  0  0
 10 21  1  1  0  0  0
 11 17  1  0  0  0  0
 11 18  1  0  0  0  0
 12 13  1  0  0  0  0
 12 19  1  1  0  0  0
 13 14  1  0  0  0  0
 13 23  1  6  0  0  0
 14 15  1  0  0  0  0
 14 20  1  1  0  0  0
 15 22  1  0  0  0  0
 15 24  1  0  0  0  0
 15 26  1  6  0  0  0
 16 20  1  0  0  0  0
 17 25  2  0  0  0  0
 18 19  1  0  0  0  0
 22 27  1  0  0  0  0
 22 30  1  6  0  0  0
 24 29  1  0  0  0  0
 25 32  1  0  0  0  0
 27 28  1  0  0  0  0
 28 29  1  0  0  0  0
 31 32  2  0  0  0  0
 33 35  1  0  0  0  0
 34 36  1  0  0  0  0
M  CHG  2   8   1   9  -1
M  END
> <PUBCHEM_COMPOUND_ID_TYPE>
0

> <PUBCHEM_TOTAL_CHARGE>
0

> <PUBCHEM_SUBSTANCE_ID>
310936791

> <PUBCHEM_SUBSTANCE_VERSION>
1

> <PUBCHEM_EXT_DATASOURCE_NAME>
4488

> <PUBCHEM_EXT_DATASOURCE_REGID>
SCHEMBL16114477

> <PUBCHEM_SUBSTANCE_COMMENT>
InChI=1S/C27H39N3O6/c1-17(31)35-16-19-14-20(36-18(2)32)7-10-25(19,3)22-8-11-26(4)23(21(22)15-29-30-28)9-12-27(26,33)24-6-5-13-34-24/h5-6,13,19-23,33H,7-12,14-16H2,1-4H3/t19-,20+,21-,22+,23+,25+,26+,27-/m1/s1
InChIKey=MGJHFSZCGDCGRW-YNTYLYRLSA-N

> <PUBCHEM_SUBSTANCE_SYNONYM>
SCHEMBL16114477

> <PUBCHEM_XREF_EXT_ID>
SCHEMBL16114477

> <PUBCHEM_EXT_DATASOURCE_URL>
https://www.surechembl.org/

> <PUBCHEM_EXT_SUBSTANCE_URL>
https://www.surechembl.org/chemical/SCHEMBL16114477

> <PUBCHEM_CID_ASSOCIATIONS>
117604686  1

> <PUBCHEM_COORDINATE_TYPE>
1
3

> <PUBCHEM_BONDANNOTATIONS>
11  1  5
10  21  5
12  19  5
13  23  6
14  20  5
15  26  6
22  30  6
28  3  6

$$$$
