310948166
  -OEChem-07211613022D

 27 30  0     1  0  0  0  0  0999 V2000
   -1.4906   -1.3033    0.0000 O   0  0  0  0  0  0  0  0  0  0  0  0
    1.0561    4.1947    0.0000 O   0  0  0  0  0  0  0  0  0  0  0  0
    0.0225    1.0486    0.0000 N   0  0  0  0  0  0  0  0  0  0  0  0
    0.5168    0.3745    0.0000 N   0  0  0  0  0  0  0  0  0  0  0  0
   -2.2097   -0.0449    0.0000 N   0  0  0  0  0  0  0  0  0  0  0  0
    0.2921   -1.0936    0.0000 N   0  0  0  0  0  0  0  0  0  0  0  0
    2.2097    0.7790    0.0000 N   0  0  0  0  0  0  0  0  0  0  0  0
   -0.7566    0.7940    0.0000 C   0  0  0  0  0  0  0  0  0  0  0  0
   -0.7716   -0.0449    0.0000 C   0  0  0  0  0  0  0  0  0  0  0  0
    0.0225   -0.2996    0.0000 C   0  0  0  0  0  0  0  0  0  0  0  0
    0.2771    1.8427    0.0000 C   0  0  3  0  0  0  0  0  0  0  0  0
   -1.4756   -0.4494    0.0000 C   0  0  0  0  0  0  0  0  0  0  0  0
   -1.5056    1.1985    0.0000 C   0  0  0  0  0  0  0  0  0  0  0  0
    1.1011    2.0075    0.0000 C   0  0  3  0  0  0  0  0  0  0  0  0
   -0.2472    2.4568    0.0000 C   0  0  0  0  0  0  0  0  0  0  0  0
   -2.1948    0.7940    0.0000 C   0  0  0  0  0  0  0  0  0  0  0  0
    1.3558    2.8015    0.0000 C   0  0  0  0  0  0  0  0  0  0  0  0
    0.8015    3.4007    0.0000 C   0  0  3  0  0  0  0  0  0  0  0  0
    0.0075    3.2359    0.0000 C   0  0  0  0  0  0  0  0  0  0  0  0
    1.6555    1.3932    0.0000 C   0  0  0  0  0  0  0  0  0  0  0  0
   -0.7566   -1.7079    0.0000 C   0  0  0  0  0  0  0  0  0  0  0  0
   -0.7716   -2.5317    0.0000 C   0  0  0  0  0  0  0  0  0  0  0  0
   -1.4756   -2.9663    0.0000 C   0  0  0  0  0  0  0  0  0  0  0  0
   -0.0524   -2.9663    0.0000 C   0  0  0  0  0  0  0  0  0  0  0  0
   -1.4756   -3.7902    0.0000 C   0  0  0  0  0  0  0  0  0  0  0  0
   -0.0524   -3.7902    0.0000 C   0  0  0  0  0  0  0  0  0  0  0  0
   -0.7566   -4.1947    0.0000 C   0  0  0  0  0  0  0  0  0  0  0  0
  1 12  1  0  0  0  0
  1 21  1  0  0  0  0
 18  2  1  6  0  0  0
  3  4  1  0  0  0  0
  3  8  1  0  0  0  0
 11  3  1  6  0  0  0
  4 10  2  0  0  0  0
  5 12  1  0  0  0  0
  5 16  2  0  0  0  0
  6 10  1  0  0  0  0
  7 20  3  0  0  0  0
  8  9  1  0  0  0  0
  8 13  2  0  0  0  0
  9 10  1  0  0  0  0
  9 12  2  0  0  0  0
 11 14  1  0  0  0  0
 11 15  1  0  0  0  0
 13 16  1  0  0  0  0
 14 17  1  0  0  0  0
 14 20  1  1  0  0  0
 15 19  1  0  0  0  0
 17 18  1  0  0  0  0
 18 19  1  0  0  0  0
 21 22  1  0  0  0  0
 22 23  2  0  0  0  0
 22 24  1  0  0  0  0
 23 25  1  0  0  0  0
 24 26  2  0  0  0  0
 25 27  2  0  0  0  0
 26 27  1  0  0  0  0
M  END
> <PUBCHEM_COMPOUND_ID_TYPE>
0

> <PUBCHEM_TOTAL_CHARGE>
0

> <PUBCHEM_SUBSTANCE_ID>
310948166

> <PUBCHEM_SUBSTANCE_VERSION>
1

> <PUBCHEM_EXT_DATASOURCE_NAME>
4488

> <PUBCHEM_EXT_DATASOURCE_REGID>
SCHEMBL16126343

> <PUBCHEM_SUBSTANCE_COMMENT>
InChI=1S/C20H21N5O2/c21-11-14-10-15(26)6-7-16(14)25-17-8-9-23-20(18(17)19(22)24-25)27-12-13-4-2-1-3-5-13/h1-5,8-9,14-16,26H,6-7,10,12H2,(H2,22,24)/t14-,15-,16+/m0/s1
InChIKey=PIYYULBMGGGQSW-HRCADAONSA-N

> <PUBCHEM_SUBSTANCE_SYNONYM>
SCHEMBL16126343

> <PUBCHEM_XREF_EXT_ID>
SCHEMBL16126343

> <PUBCHEM_EXT_DATASOURCE_URL>
https://www.surechembl.org/

> <PUBCHEM_EXT_SUBSTANCE_URL>
https://www.surechembl.org/chemical/SCHEMBL16126343

> <PUBCHEM_CID_ASSOCIATIONS>
117613764  1

> <PUBCHEM_COORDINATE_TYPE>
1
3

> <PUBCHEM_BONDANNOTATIONS>
14  20  5
18  2  6
11  3  6

$$$$
