310942116
  -OEChem-07211613022D

 30 31  0     1  0  0  0  0  0999 V2000
    1.3762    0.8345    0.0000 Cl  0  0  0  0  0  0  0  0  0  0  0  0
   -0.0685   -1.6565    0.0000 F   0  0  0  0  0  0  0  0  0  0  0  0
    1.3638   -0.8221    0.0000 O   0  0  0  0  0  0  0  0  0  0  0  0
   -0.7909    2.0799    0.0000 O   0  0  0  0  0  0  0  0  0  0  0  0
   -2.2107   -0.4109    0.0000 N   0  0  0  0  0  0  0  0  0  0  0  0
    4.3777    0.8345    0.0000 N   0  0  0  0  0  0  0  0  0  0  0  0
   -2.2232    2.0799    0.0000 N   0  0  0  0  0  0  0  0  0  0  0  0
   -4.3777    1.6689    0.0000 N   0  0  0  0  0  0  0  0  0  0  0  0
    0.6413   -0.3985    0.0000 C   0  0  0  0  0  0  0  0  0  0  0  0
   -0.0810   -0.8096    0.0000 C   0  0  0  0  0  0  0  0  0  0  0  0
   -0.7909   -0.3985    0.0000 C   0  0  0  0  0  0  0  0  0  0  0  0
    0.6539    0.4359    0.0000 C   0  0  0  0  0  0  0  0  0  0  0  0
   -1.4883   -0.8096    0.0000 C   0  0  3  0  0  0  0  0  0  0  0  0
   -0.7785    0.4235    0.0000 C   0  0  0  0  0  0  0  0  0  0  0  0
   -0.0685    0.8345    0.0000 C   0  0  0  0  0  0  0  0  0  0  0  0
    2.0862   -0.3985    0.0000 C   0  0  0  0  0  0  0  0  0  0  0  0
    2.8209   -0.8096    0.0000 C   0  0  0  0  0  0  0  0  0  0  0  0
    3.5184   -0.3985    0.0000 C   0  0  0  0  0  0  0  0  0  0  0  0
    2.0986    0.4235    0.0000 C   0  0  0  0  0  0  0  0  0  0  0  0
   -1.5132   -1.6565    0.0000 C   0  0  0  0  0  0  0  0  0  0  0  0
    3.5309    0.4359    0.0000 C   0  0  0  0  0  0  0  0  0  0  0  0
   -2.2107    0.4235    0.0000 C   0  0  3  0  0  0  0  0  0  0  0  0
    2.8085    0.8345    0.0000 C   0  0  0  0  0  0  0  0  0  0  0  0
   -1.5008    0.8345    0.0000 C   0  0  0  0  0  0  0  0  0  0  0  0
    4.2532   -0.8221    0.0000 C   0  0  0  0  0  0  0  0  0  0  0  0
   -2.2107   -2.0799    0.0000 C   0  0  0  0  0  0  0  0  0  0  0  0
   -1.5132    1.6689    0.0000 C   0  0  0  0  0  0  0  0  0  0  0  0
   -2.9330    0.8345    0.0000 C   0  0  0  0  0  0  0  0  0  0  0  0
   -2.9330    1.6689    0.0000 C   0  0  0  0  0  0  0  0  0  0  0  0
   -3.6679    2.0799    0.0000 C   0  0  0  0  0  0  0  0  0  0  0  0
  1 12  1  0  0  0  0
  2 10  1  0  0  0  0
  3  9  1  0  0  0  0
  3 16  1  0  0  0  0
  4 27  2  0  0  0  0
 13  5  1  1  0  0  0
  5 22  1  0  0  0  0
  6 21  1  0  0  0  0
  7 27  1  0  0  0  0
  7 29  1  0  0  0  0
  8 30  1  0  0  0  0
  9 10  1  0  0  0  0
  9 12  2  0  0  0  0
 10 11  2  0  0  0  0
 11 13  1  0  0  0  0
 11 14  1  0  0  0  0
 12 15  1  0  0  0  0
 13 20  1  0  0  0  0
 14 15  2  0  0  0  0
 16 17  1  0  0  0  0
 16 19  2  0  0  0  0
 17 18  2  0  0  0  0
 18 21  1  0  0  0  0
 18 25  1  0  0  0  0
 19 23  1  0  0  0  0
 20 26  1  0  0  0  0
 21 23  2  0  0  0  0
 22 24  1  0  0  0  0
 22 28  1  6  0  0  0
 24 27  1  0  0  0  0
 29 30  1  0  0  0  0
M  END
> <PUBCHEM_COMPOUND_ID_TYPE>
0

> <PUBCHEM_TOTAL_CHARGE>
0

> <PUBCHEM_SUBSTANCE_ID>
310942116

> <PUBCHEM_SUBSTANCE_VERSION>
1

> <PUBCHEM_EXT_DATASOURCE_NAME>
4488

> <PUBCHEM_EXT_DATASOURCE_REGID>
SCHEMBL16120151

> <PUBCHEM_SUBSTANCE_COMMENT>
InChI=1S/C22H30ClFN4O2/c1-4-19(28-14(3)12-20(29)27-10-9-25)16-6-7-17(23)22(21(16)24)30-15-5-8-18(26)13(2)11-15/h5-8,11,14,19,28H,4,9-10,12,25-26H2,1-3H3,(H,27,29)/t14-,19-/m1/s1
InChIKey=PQBNEWLARLKYRJ-AUUYWEPGSA-N

> <PUBCHEM_SUBSTANCE_SYNONYM>
SCHEMBL16120151

> <PUBCHEM_XREF_EXT_ID>
SCHEMBL16120151

> <PUBCHEM_EXT_DATASOURCE_URL>
https://www.surechembl.org/

> <PUBCHEM_EXT_SUBSTANCE_URL>
https://www.surechembl.org/chemical/SCHEMBL16120151

> <PUBCHEM_CID_ASSOCIATIONS>
117608776  1

> <PUBCHEM_COORDINATE_TYPE>
1
3

> <PUBCHEM_BONDANNOTATIONS>
22  28  6
13  5  5

$$$$
