310932624
  -OEChem-07211613022D

 32 35  0     0  0  0  0  0  0999 V2000
    5.7431   -2.6336    0.0000 O   0  0  0  0  0  0  0  0  0  0  0  0
    1.6182   -4.3470    0.0000 O   0  0  0  0  0  0  0  0  0  0  0  0
    5.3623   -4.0297    0.0000 N   0  0  0  0  0  0  0  0  0  0  0  0
    5.7749   -4.7595    0.0000 N   0  0  0  0  0  0  0  0  0  0  0  0
    4.0932   -4.6008    0.0000 N   0  0  0  0  0  0  0  0  0  0  0  0
    1.7769   -2.9192    0.0000 N   0  0  0  0  0  0  0  0  0  0  0  0
    0.7932   -0.6663    0.0000 N   0  0  0  0  0  0  0  0  0  0  0  0
    9.5190   -1.3009    0.0000 N   0  0  0  0  0  0  0  0  0  0  0  0
    6.6633   -3.7441    0.0000 C   0  0  0  0  0  0  0  0  0  0  0  0
    5.9018   -3.4269    0.0000 C   0  0  0  0  0  0  0  0  0  0  0  0
    7.3613   -3.3317    0.0000 C   0  0  0  0  0  0  0  0  0  0  0  0
    4.5374   -3.9345    0.0000 C   0  0  0  0  0  0  0  0  0  0  0  0
    6.5681   -4.5691    0.0000 C   0  0  0  0  0  0  0  0  0  0  0  0
    7.3613   -2.5067    0.0000 C   0  0  0  0  0  0  0  0  0  0  0  0
    2.9192   -3.7758    0.0000 C   0  0  0  0  0  0  0  0  0  0  0  0
    4.2201   -3.1730    0.0000 C   0  0  0  0  0  0  0  0  0  0  0  0
    2.1259   -3.6807    0.0000 C   0  0  0  0  0  0  0  0  0  0  0  0
    8.0911   -3.7441    0.0000 C   0  0  0  0  0  0  0  0  0  0  0  0
    3.2682   -4.5374    0.0000 C   0  0  0  0  0  0  0  0  0  0  0  0
    3.3951   -3.1095    0.0000 C   0  0  0  0  0  0  0  0  0  0  0  0
    8.0911   -2.0942    0.0000 C   0  0  0  0  0  0  0  0  0  0  0  0
    8.7892   -2.5067    0.0000 C   0  0  0  0  0  0  0  0  0  0  0  0
    8.7892   -3.3317    0.0000 C   0  0  0  0  0  0  0  0  0  0  0  0
    0.9519   -2.8240    0.0000 C   0  0  0  0  0  0  0  0  0  0  0  0
    2.2845   -2.2528    0.0000 C   0  0  0  0  0  0  0  0  0  0  0  0
    6.6633   -2.0942    0.0000 C   0  0  0  0  0  0  0  0  0  0  0  0
    1.1423   -1.3961    0.0000 C   0  0  0  0  0  0  0  0  0  0  0  0
    0.6346   -2.0625    0.0000 C   0  0  0  0  0  0  0  0  0  0  0  0
    1.9673   -1.5230    0.0000 C   0  0  0  0  0  0  0  0  0  0  0  0
    9.5190   -2.0942    0.0000 C   0  0  0  0  0  0  0  0  0  0  0  0
    1.3009    0.0000    0.0000 C   0  0  0  0  0  0  0  0  0  0  0  0
    0.0000   -0.5712    0.0000 C   0  0  0  0  0  0  0  0  0  0  0  0
  1 10  1  0  0  0  0
  2 17  2  0  0  0  0
  3  4  1  0  0  0  0
  3 10  1  0  0  0  0
  3 12  1  0  0  0  0
  4 13  2  0  0  0  0
  5 12  1  0  0  0  0
  5 19  2  0  0  0  0
  6 17  1  0  0  0  0
  6 24  1  0  0  0  0
  6 25  1  0  0  0  0
  7 27  1  0  0  0  0
  7 31  1  0  0  0  0
  7 32  1  0  0  0  0
  8 30  3  0  0  0  0
  9 10  2  0  0  0  0
  9 11  1  0  0  0  0
  9 13  1  0  0  0  0
 11 14  2  0  0  0  0
 11 18  1  0  0  0  0
 12 16  2  0  0  0  0
 14 21  1  0  0  0  0
 14 26  1  0  0  0  0
 15 17  1  0  0  0  0
 15 19  1  0  0  0  0
 15 20  2  0  0  0  0
 16 20  1  0  0  0  0
 18 23  2  0  0  0  0
 21 22  2  0  0  0  0
 22 23  1  0  0  0  0
 22 30  1  0  0  0  0
 24 28  1  0  0  0  0
 25 29  1  0  0  0  0
 27 28  1  0  0  0  0
 27 29  1  0  0  0  0
M  END
> <PUBCHEM_COMPOUND_ID_TYPE>
0

> <PUBCHEM_TOTAL_CHARGE>
0

> <PUBCHEM_SUBSTANCE_ID>
310932624

> <PUBCHEM_SUBSTANCE_VERSION>
1

> <PUBCHEM_EXT_DATASOURCE_NAME>
4488

> <PUBCHEM_EXT_DATASOURCE_REGID>
SCHEMBL16110002

> <PUBCHEM_SUBSTANCE_COMMENT>
InChI=1S/C24H26N6O2/c1-16-12-17(13-25)4-6-20(16)21-15-27-30(24(21)32)22-7-5-18(14-26-22)23(31)29-10-8-19(9-11-29)28(2)3/h4-7,12,14-15,19,32H,8-11H2,1-3H3
InChIKey=WETMGGMFLXVAFQ-UHFFFAOYSA-N

> <PUBCHEM_SUBSTANCE_SYNONYM>
SCHEMBL16110002

> <PUBCHEM_XREF_EXT_ID>
SCHEMBL16110002

> <PUBCHEM_EXT_DATASOURCE_URL>
https://www.surechembl.org/

> <PUBCHEM_EXT_SUBSTANCE_URL>
https://www.surechembl.org/chemical/SCHEMBL16110002

> <PUBCHEM_CID_ASSOCIATIONS>
117601144  1

> <PUBCHEM_COORDINATE_TYPE>
1
3

$$$$
