310949995
  -OEChem-07211613022D

 24 26  0     0  0  0  0  0  0999 V2000
   -4.2105    0.4601    0.0000 F   0  0  0  0  0  0  0  0  0  0  0  0
   -1.3385    0.4601    0.0000 N   0  0  0  0  0  0  0  0  0  0  0  0
    0.8086   -0.7808    0.0000 N   0  0  0  0  0  0  0  0  0  0  0  0
   -2.7745    1.2827    0.0000 N   0  0  0  0  0  0  0  0  0  0  0  0
   -2.0495    0.0558    0.0000 C   0  0  0  0  0  0  0  0  0  0  0  0
   -2.7745    0.4601    0.0000 C   0  0  0  0  0  0  0  0  0  0  0  0
   -0.6135    0.0558    0.0000 C   0  0  0  0  0  0  0  0  0  0  0  0
   -3.4716    0.0558    0.0000 C   0  0  0  0  0  0  0  0  0  0  0  0
   -2.0635   -0.7808    0.0000 C   0  0  0  0  0  0  0  0  0  0  0  0
   -0.6274   -0.7808    0.0000 C   0  0  0  0  0  0  0  0  0  0  0  0
    0.0836    0.4601    0.0000 C   0  0  0  0  0  0  0  0  0  0  0  0
    0.8086    0.0418    0.0000 C   0  0  0  0  0  0  0  0  0  0  0  0
    0.1116   -1.1851    0.0000 C   0  0  0  0  0  0  0  0  0  0  0  0
   -3.4716   -0.7808    0.0000 C   0  0  0  0  0  0  0  0  0  0  0  0
   -2.7605   -1.1851    0.0000 C   0  0  0  0  0  0  0  0  0  0  0  0
    1.5336   -1.1851    0.0000 C   0  0  0  0  0  0  0  0  0  0  0  0
    2.2447   -0.7668    0.0000 C   0  0  0  0  0  0  0  0  0  0  0  0
    2.9139   -1.2827    0.0000 C   0  0  0  0  0  0  0  0  0  0  0  0
    2.1471    0.0418    0.0000 C   0  0  0  0  0  0  0  0  0  0  0  0
    2.6351    0.6832    0.0000 C   0  0  0  0  0  0  0  0  0  0  0  0
    3.7226   -1.1711    0.0000 C   0  0  0  0  0  0  0  0  0  0  0  0
    3.4577    0.7947    0.0000 C   0  0  0  0  0  0  0  0  0  0  0  0
    4.2105   -0.5159    0.0000 C   0  0  0  0  0  0  0  0  0  0  0  0
    4.1130    0.2928    0.0000 C   0  0  0  0  0  0  0  0  0  0  0  0
  1  8  1  0  0  0  0
  2  5  1  0  0  0  0
  2  7  1  0  0  0  0
  3 12  1  0  0  0  0
  3 13  1  0  0  0  0
  3 16  1  0  0  0  0
  4  6  1  0  0  0  0
  5  6  2  0  0  0  0
  5  9  1  0  0  0  0
  6  8  1  0  0  0  0
  7 10  1  0  0  0  0
  7 11  1  0  0  0  0
  8 14  2  0  0  0  0
  9 15  2  0  0  0  0
 10 13  1  0  0  0  0
 11 12  1  0  0  0  0
 14 15  1  0  0  0  0
 16 17  1  0  0  0  0
 17 18  1  0  0  0  0
 17 19  1  0  0  0  0
 18 21  1  0  0  0  0
 19 20  1  0  0  0  0
 20 22  1  0  0  0  0
 21 23  1  0  0  0  0
 22 24  1  0  0  0  0
 23 24  1  0  0  0  0
M  END
> <PUBCHEM_COMPOUND_ID_TYPE>
0

> <PUBCHEM_TOTAL_CHARGE>
0

> <PUBCHEM_SUBSTANCE_ID>
310949995

> <PUBCHEM_SUBSTANCE_VERSION>
1

> <PUBCHEM_EXT_DATASOURCE_NAME>
4488

> <PUBCHEM_EXT_DATASOURCE_REGID>
SCHEMBL16128224

> <PUBCHEM_SUBSTANCE_COMMENT>
InChI=1S/C20H32FN3/c21-18-9-6-10-19(20(18)22)23-17-11-13-24(14-12-17)15-16-7-4-2-1-3-5-8-16/h6,9-10,16-17,23H,1-5,7-8,11-15,22H2
InChIKey=AJJHIDCLCPGBBP-UHFFFAOYSA-N

> <PUBCHEM_SUBSTANCE_SYNONYM>
SCHEMBL16128224

> <PUBCHEM_XREF_EXT_ID>
SCHEMBL16128224

> <PUBCHEM_EXT_DATASOURCE_URL>
https://www.surechembl.org/

> <PUBCHEM_EXT_SUBSTANCE_URL>
https://www.surechembl.org/chemical/SCHEMBL16128224

> <PUBCHEM_CID_ASSOCIATIONS>
117615233  1

> <PUBCHEM_COORDINATE_TYPE>
1
3

$$$$
