310946675
  -OEChem-07211613022D

 29 33  0     0  0  0  0  0  0999 V2000
    2.3264   12.8320    0.0000 S   0  0  0  0  0  0  0  0  0  0  0  0
   -1.3861   17.7392    0.0000 O   0  0  0  0  0  0  0  0  0  0  0  0
    1.1613   13.4994    0.0000 O   0  0  0  0  0  0  0  0  0  0  0  0
    1.1613   16.3573    0.0000 N   0  0  0  0  0  0  0  0  0  0  0  0
   -0.0762   15.6428    0.0000 N   0  0  0  0  0  0  0  0  0  0  0  0
   -0.0762   17.0718    0.0000 N   0  0  0  0  0  0  0  0  0  0  0  0
    2.3988   14.2139    0.0000 N   0  0  0  0  0  0  0  0  0  0  0  0
   -1.3861   16.4043    0.0000 N   0  0  0  0  0  0  0  0  0  0  0  0
    3.5959   13.2445    0.0000 N   0  0  0  0  0  0  0  0  0  0  0  0
    1.5738   15.6428    0.0000 C   0  0  0  0  0  0  0  0  0  0  0  0
    1.1613   14.9283    0.0000 C   0  0  0  0  0  0  0  0  0  0  0  0
    0.3363   14.9283    0.0000 C   0  0  0  0  0  0  0  0  0  0  0  0
    0.3363   16.3573    0.0000 C   0  0  0  0  0  0  0  0  0  0  0  0
    1.5738   14.2139    0.0000 C   0  0  0  0  0  0  0  0  0  0  0  0
    2.0587   14.9754    0.0000 C   0  0  0  0  0  0  0  0  0  0  0  0
    2.0587   16.3103    0.0000 C   0  0  0  0  0  0  0  0  0  0  0  0
   -0.9012   17.0718    0.0000 C   0  0  0  0  0  0  0  0  0  0  0  0
    2.8433   15.2303    0.0000 C   0  0  0  0  0  0  0  0  0  0  0  0
    2.8433   16.0553    0.0000 C   0  0  0  0  0  0  0  0  0  0  0  0
   -2.1708   17.4843    0.0000 C   0  0  0  0  0  0  0  0  0  0  0  0
   -2.1708   16.6593    0.0000 C   0  0  0  0  0  0  0  0  0  0  0  0
   -0.0762   14.2139    0.0000 C   0  0  0  0  0  0  0  0  0  0  0  0
    2.8113   13.4994    0.0000 C   0  0  0  0  0  0  0  0  0  0  0  0
   -2.8852   17.8968    0.0000 C   0  0  0  0  0  0  0  0  0  0  0  0
   -2.8852   16.2468    0.0000 C   0  0  0  0  0  0  0  0  0  0  0  0
   -3.5997   17.4843    0.0000 C   0  0  0  0  0  0  0  0  0  0  0  0
   -3.5997   16.6593    0.0000 C   0  0  0  0  0  0  0  0  0  0  0  0
    2.8113   12.1645    0.0000 C   0  0  0  0  0  0  0  0  0  0  0  0
    3.5959   12.4195    0.0000 C   0  0  0  0  0  0  0  0  0  0  0  0
  1 23  1  0  0  0  0
  1 28  1  0  0  0  0
  2 17  1  0  0  0  0
  2 20  1  0  0  0  0
  3 14  2  0  0  0  0
  4 10  1  0  0  0  0
  4 13  2  0  0  0  0
  5 12  1  0  0  0  0
  5 13  1  0  0  0  0
  6 13  1  0  0  0  0
  6 17  1  0  0  0  0
  7 14  1  0  0  0  0
  7 23  1  0  0  0  0
  8 17  2  0  0  0  0
  8 21  1  0  0  0  0
  9 23  2  0  0  0  0
  9 29  1  0  0  0  0
 10 11  1  0  0  0  0
 10 15  1  0  0  0  0
 10 16  1  0  0  0  0
 11 12  2  0  0  0  0
 11 14  1  0  0  0  0
 12 22  1  0  0  0  0
 15 18  1  0  0  0  0
 16 19  1  0  0  0  0
 18 19  1  0  0  0  0
 20 21  1  0  0  0  0
 20 24  2  0  0  0  0
 21 25  2  0  0  0  0
 24 26  1  0  0  0  0
 25 27  1  0  0  0  0
 26 27  2  0  0  0  0
 28 29  2  0  0  0  0
M  END
> <PUBCHEM_COMPOUND_ID_TYPE>
0

> <PUBCHEM_TOTAL_CHARGE>
0

> <PUBCHEM_SUBSTANCE_ID>
310946675

> <PUBCHEM_SUBSTANCE_VERSION>
1

> <PUBCHEM_EXT_DATASOURCE_NAME>
4488

> <PUBCHEM_EXT_DATASOURCE_REGID>
SCHEMBL16124796

> <PUBCHEM_SUBSTANCE_COMMENT>
InChI=1S/C20H20N6O2S/c1-12-15(16(27)24-19-21-10-11-29-19)20(8-4-5-9-20)26-17(22-12)25-18-23-13-6-2-3-7-14(13)28-18/h2-3,6-7,10-11H,4-5,8-9H2,1H3,(H,21,24,27)(H2,22,23,25,26)
InChIKey=OMRWVERRHABGBH-UHFFFAOYSA-N

> <PUBCHEM_SUBSTANCE_SYNONYM>
SCHEMBL16124796

> <PUBCHEM_XREF_EXT_ID>
SCHEMBL16124796

> <PUBCHEM_EXT_DATASOURCE_URL>
https://www.surechembl.org/

> <PUBCHEM_EXT_SUBSTANCE_URL>
https://www.surechembl.org/chemical/SCHEMBL16124796

> <PUBCHEM_CID_ASSOCIATIONS>
117612573  1

> <PUBCHEM_COORDINATE_TYPE>
1
3

$$$$
