310948649
  -OEChem-07211613022D

 33 35  0     1  0  0  0  0  0999 V2000
   -1.7847   -0.7878    0.0000 F   0  0  0  0  0  0  0  0  0  0  0  0
   -4.2526    0.0348    0.0000 O   0  0  0  0  0  0  0  0  0  0  0  0
   -3.0116   -0.6065    0.0000 O   0  0  0  0  0  0  0  0  0  0  0  0
   -0.1116    2.4609    0.0000 O   0  0  0  0  0  0  0  0  0  0  0  0
    0.6134   -0.4113    0.0000 N   0  0  0  0  0  0  0  0  0  0  0  0
    0.6134    1.2339    0.0000 N   0  0  0  0  0  0  0  0  0  0  0  0
    1.3385    2.4748    0.0000 N   0  0  0  0  0  0  0  0  0  0  0  0
   -2.3284    1.2479    0.0000 C   0  0  3  0  0  0  0  0  0  0  0  0
   -1.5337    0.8157    0.0000 C   0  0  0  0  0  0  0  0  0  0  0  0
   -3.0116    0.8436    0.0000 C   0  0  3  0  0  0  0  0  0  0  0  0
   -2.9977    1.6383    0.0000 C   0  0  0  0  0  0  0  0  0  0  0  0
   -1.5616   -0.0069    0.0000 C   0  0  0  0  0  0  0  0  0  0  0  0
   -0.1116    0.8296    0.0000 C   0  0  0  0  0  0  0  0  0  0  0  0
   -0.1255    0.0209    0.0000 C   0  0  0  0  0  0  0  0  0  0  0  0
   -0.8366    1.2339    0.0000 C   0  0  0  0  0  0  0  0  0  0  0  0
   -0.8645   -0.3973    0.0000 C   0  0  0  0  0  0  0  0  0  0  0  0
   -3.4438    0.0907    0.0000 C   0  0  0  0  0  0  0  0  0  0  0  0
    0.6274    2.0566    0.0000 C   0  0  0  0  0  0  0  0  0  0  0  0
    0.5996   -1.2339    0.0000 C   0  0  0  0  0  0  0  0  0  0  0  0
    1.3385    0.0069    0.0000 C   0  0  0  0  0  0  0  0  0  0  0  0
   -0.1116   -1.6383    0.0000 C   0  0  0  0  0  0  0  0  0  0  0  0
    2.0635   -0.3973    0.0000 C   0  0  0  0  0  0  0  0  0  0  0  0
    2.0635    2.0705    0.0000 C   0  0  0  0  0  0  0  0  0  0  0  0
    2.0635    1.2479    0.0000 C   0  0  0  0  0  0  0  0  0  0  0  0
    2.7746    2.4609    0.0000 C   0  0  0  0  0  0  0  0  0  0  0  0
   -0.8505   -1.2479    0.0000 C   0  0  0  0  0  0  0  0  0  0  0  0
   -0.0976   -2.4748    0.0000 C   0  0  0  0  0  0  0  0  0  0  0  0
    2.7885    0.0209    0.0000 C   0  0  0  0  0  0  0  0  0  0  0  0
    2.0775   -1.2479    0.0000 C   0  0  0  0  0  0  0  0  0  0  0  0
    3.4857    1.2479    0.0000 C   0  0  0  0  0  0  0  0  0  0  0  0
    2.7885    0.8296    0.0000 C   0  0  0  0  0  0  0  0  0  0  0  0
    3.4997    2.0566    0.0000 C   0  0  0  0  0  0  0  0  0  0  0  0
    4.2526    0.8296    0.0000 C   0  0  0  0  0  0  0  0  0  0  0  0
  1 12  1  0  0  0  0
  2 17  2  0  0  0  0
  3 17  1  0  0  0  0
  4 18  2  0  0  0  0
  5 14  1  0  0  0  0
  5 19  1  0  0  0  0
  5 20  1  0  0  0  0
  6 13  1  0  0  0  0
  6 18  1  0  0  0  0
  7 18  1  0  0  0  0
  7 23  1  0  0  0  0
  8  9  1  0  0  0  0
  8 10  1  0  0  0  0
  8 11  1  1  0  0  0
  9 12  2  0  0  0  0
  9 15  1  0  0  0  0
 10 11  1  0  0  0  0
 10 17  1  1  0  0  0
 12 16  1  0  0  0  0
 13 14  1  0  0  0  0
 13 15  2  0  0  0  0
 14 16  2  0  0  0  0
 19 21  1  0  0  0  0
 20 22  1  0  0  0  0
 21 26  1  0  0  0  0
 21 27  1  0  0  0  0
 22 28  1  0  0  0  0
 22 29  1  0  0  0  0
 23 24  2  0  0  0  0
 23 25  1  0  0  0  0
 24 31  1  0  0  0  0
 25 32  2  0  0  0  0
 30 31  2  0  0  0  0
 30 32  1  0  0  0  0
 30 33  1  0  0  0  0
M  END
> <PUBCHEM_COMPOUND_ID_TYPE>
0

> <PUBCHEM_TOTAL_CHARGE>
0

> <PUBCHEM_SUBSTANCE_ID>
310948649

> <PUBCHEM_SUBSTANCE_VERSION>
1

> <PUBCHEM_EXT_DATASOURCE_NAME>
4488

> <PUBCHEM_EXT_DATASOURCE_REGID>
SCHEMBL16126833

> <PUBCHEM_SUBSTANCE_COMMENT>
InChI=1S/C26H34FN3O3/c1-15(2)13-30(14-16(3)4)24-12-22(27)20(19-10-21(19)25(31)32)11-23(24)29-26(33)28-18-8-6-17(5)7-9-18/h6-9,11-12,15-16,19,21H,10,13-14H2,1-5H3,(H,31,32)(H2,28,29,33)/t19-,21-/m0/s1
InChIKey=OIFLLZVKUMLLPE-FPOVZHCZSA-N

> <PUBCHEM_SUBSTANCE_SYNONYM>
SCHEMBL16126833

> <PUBCHEM_XREF_EXT_ID>
SCHEMBL16126833

> <PUBCHEM_EXT_DATASOURCE_URL>
https://www.surechembl.org/

> <PUBCHEM_EXT_SUBSTANCE_URL>
https://www.surechembl.org/chemical/SCHEMBL16126833

> <PUBCHEM_CID_ASSOCIATIONS>
117614193  1

> <PUBCHEM_COORDINATE_TYPE>
1
3

> <PUBCHEM_BONDANNOTATIONS>
10  17  5
8  11  5

$$$$
