310949806
  -OEChem-07211613022D

 21 22  0     0  0  0  0  0  0999 V2000
   -0.8396   -0.7251    0.0000 O   0  0  0  0  0  0  0  0  0  0  0  0
    2.8569    0.0272    0.0000 O   0  0  0  0  0  0  0  0  0  0  0  0
    2.8678   -1.4230    0.0000 O   0  0  0  0  0  0  0  0  0  0  0  0
   -0.8505    0.6924    0.0000 N   0  0  0  0  0  0  0  0  0  0  0  0
   -3.3040   -0.7469    0.0000 N   0  0  0  0  0  0  0  0  0  0  0  0
   -1.2649   -0.0054    0.0000 C   0  0  0  0  0  0  0  0  0  0  0  0
   -0.0218   -0.6924    0.0000 C   0  0  0  0  0  0  0  0  0  0  0  0
   -2.0936    0.0054    0.0000 C   0  0  0  0  0  0  0  0  0  0  0  0
    1.6138   -0.6597    0.0000 C   0  0  0  0  0  0  0  0  0  0  0  0
    0.3926   -1.4012    0.0000 C   0  0  0  0  0  0  0  0  0  0  0  0
    0.3817    0.0163    0.0000 C   0  0  0  0  0  0  0  0  0  0  0  0
    1.2213   -1.3794    0.0000 C   0  0  0  0  0  0  0  0  0  0  0  0
    1.1886    0.0490    0.0000 C   0  0  0  0  0  0  0  0  0  0  0  0
    2.4535   -0.6815    0.0000 C   0  0  0  0  0  0  0  0  0  0  0  0
   -2.4970    0.7033    0.0000 C   0  0  0  0  0  0  0  0  0  0  0  0
   -2.4970   -0.7142    0.0000 C   0  0  0  0  0  0  0  0  0  0  0  0
   -1.2758    1.4230    0.0000 C   0  0  0  0  0  0  0  0  0  0  0  0
   -2.0936    1.4230    0.0000 C   0  0  0  0  0  0  0  0  0  0  0  0
    3.6965    0.0272    0.0000 C   0  0  0  0  0  0  0  0  0  0  0  0
   -4.1217   -0.0490    0.0000 C   0  0  0  0  0  0  0  0  0  0  0  0
    4.1217   -0.6815    0.0000 C   0  0  0  0  0  0  0  0  0  0  0  0
  1  6  1  0  0  0  0
  1  7  1  0  0  0  0
  2 14  1  0  0  0  0
  2 19  1  0  0  0  0
  3 14  2  0  0  0  0
  4  6  1  0  0  0  0
  4 17  2  0  0  0  0
  5 16  1  0  0  0  0
  5 20  1  0  0  0  0
  6  8  2  0  0  0  0
  7 10  2  0  0  0  0
  7 11  1  0  0  0  0
  8 15  1  0  0  0  0
  8 16  1  0  0  0  0
  9 12  2  0  0  0  0
  9 13  1  0  0  0  0
  9 14  1  0  0  0  0
 10 12  1  0  0  0  0
 11 13  2  0  0  0  0
 15 18  2  0  0  0  0
 17 18  1  0  0  0  0
 19 21  1  0  0  0  0
M  END
> <PUBCHEM_COMPOUND_ID_TYPE>
0

> <PUBCHEM_TOTAL_CHARGE>
0

> <PUBCHEM_SUBSTANCE_ID>
310949806

> <PUBCHEM_SUBSTANCE_VERSION>
1

> <PUBCHEM_EXT_DATASOURCE_NAME>
4488

> <PUBCHEM_EXT_DATASOURCE_REGID>
SCHEMBL16128004

> <PUBCHEM_SUBSTANCE_COMMENT>
InChI=1S/C16H18N2O3/c1-3-20-16(19)12-6-8-14(9-7-12)21-15-13(11-17-2)5-4-10-18-15/h4-10,17H,3,11H2,1-2H3
InChIKey=QABYRIFWZVRDNU-UHFFFAOYSA-N

> <PUBCHEM_SUBSTANCE_SYNONYM>
SCHEMBL16128004

> <PUBCHEM_XREF_EXT_ID>
SCHEMBL16128004

> <PUBCHEM_EXT_DATASOURCE_URL>
https://www.surechembl.org/

> <PUBCHEM_EXT_SUBSTANCE_URL>
https://www.surechembl.org/chemical/SCHEMBL16128004

> <PUBCHEM_CID_ASSOCIATIONS>
117615127  1

> <PUBCHEM_COORDINATE_TYPE>
1
3

$$$$
