310947766
  -OEChem-07211613022D

 25 26  0     1  0  0  0  0  0999 V2000
    3.6739   -1.2992    0.0000 S   0  0  0  0  0  0  0  0  0  0  0  0
   -1.4732    1.1873    0.0000 O   0  0  0  0  0  0  0  0  0  0  0  0
    2.8285   -1.2992    0.0000 O   0  0  0  0  0  0  0  0  0  0  0  0
   -0.0310   -1.2992    0.0000 O   0  0  0  0  0  0  0  0  0  0  0  0
   -0.0310    2.0203    0.0000 O   0  0  0  0  0  0  0  0  0  0  0  0
    4.0717   -2.0203    0.0000 O   0  0  0  0  0  0  0  0  0  0  0  0
    4.0717   -0.5782    0.0000 O   0  0  0  0  0  0  0  0  0  0  0  0
    4.4945   -1.2992    0.0000 O   0  0  0  0  0  0  0  0  0  0  0  0
    0.7025   -0.0559    0.0000 N   0  0  0  0  0  0  0  0  0  0  0  0
   -0.7397    0.7770    0.0000 N   0  0  0  0  0  0  0  0  0  0  0  0
    2.1322   -0.8765    0.0000 N   0  0  0  0  0  0  0  0  0  0  0  0
   -4.2707    0.8144    0.0000 N   0  0  0  0  0  0  0  0  0  0  0  0
   -2.9031    1.1998    0.0000 C   0  0  0  0  0  0  0  0  0  0  0  0
    0.7025    0.7770    0.0000 C   0  0  3  0  0  0  0  0  0  0  0  0
   -3.4625    1.7716    0.0000 C   0  0  0  0  0  0  0  0  0  0  0  0
   -2.6917    1.9831    0.0000 C   0  0  0  0  0  0  0  0  0  0  0  0
   -2.1820    0.7770    0.0000 C   0  0  0  0  0  0  0  0  0  0  0  0
   -0.0684    1.1750    0.0000 C   0  0  0  0  0  0  0  0  0  0  0  0
    0.7149   -0.8641    0.0000 C   0  0  0  0  0  0  0  0  0  0  0  0
   -3.4750    0.6030    0.0000 C   0  0  0  0  0  0  0  0  0  0  0  0
    1.4236   -0.4663    0.0000 C   0  0  0  0  0  0  0  0  0  0  0  0
    1.3987    1.1873    0.0000 C   0  0  0  0  0  0  0  0  0  0  0  0
    2.1197   -0.0684    0.0000 C   0  0  0  0  0  0  0  0  0  0  0  0
    2.1322    0.7770    0.0000 C   0  0  0  0  0  0  0  0  0  0  0  0
   -4.4945    1.6100    0.0000 C   0  0  0  0  0  0  0  0  0  0  0  0
  1  3  1  0  0  0  0
  1  6  2  0  0  0  0
  1  7  2  0  0  0  0
  1  8  1  0  0  0  0
  2 10  1  0  0  0  0
  2 17  1  0  0  0  0
  3 11  1  0  0  0  0
  4 19  2  0  0  0  0
  5 18  2  0  0  0  0
  9 14  1  0  0  0  0
  9 19  1  0  0  0  0
  9 21  1  0  0  0  0
 10 18  1  0  0  0  0
 11 19  1  0  0  0  0
 12 20  1  0  0  0  0
 12 25  1  0  0  0  0
 13 15  1  0  0  0  0
 13 16  1  0  0  0  0
 13 17  1  0  0  0  0
 13 20  1  0  0  0  0
 14 18  1  6  0  0  0
 14 22  1  0  0  0  0
 15 16  1  0  0  0  0
 21 23  1  0  0  0  0
 22 24  1  0  0  0  0
 23 24  1  0  0  0  0
M  END
> <PUBCHEM_COMPOUND_ID_TYPE>
0

> <PUBCHEM_TOTAL_CHARGE>
0

> <PUBCHEM_SUBSTANCE_ID>
310947766

> <PUBCHEM_SUBSTANCE_VERSION>
1

> <PUBCHEM_EXT_DATASOURCE_NAME>
4488

> <PUBCHEM_EXT_DATASOURCE_REGID>
SCHEMBL16125938

> <PUBCHEM_SUBSTANCE_COMMENT>
InChI=1S/C13H24N4O7S/c1-14-8-13(5-6-13)9-23-15-11(18)10-4-2-3-7-17(10)12(19)16-24-25(20,21)22/h10,14H,2-9H2,1H3,(H,15,18)(H,16,19)(H,20,21,22)/t10-/m0/s1
InChIKey=CANLUXSOCHPGSY-JTQLQIEISA-N

> <PUBCHEM_SUBSTANCE_SYNONYM>
SCHEMBL16125938

> <PUBCHEM_XREF_EXT_ID>
SCHEMBL16125938

> <PUBCHEM_EXT_DATASOURCE_URL>
https://www.surechembl.org/

> <PUBCHEM_EXT_SUBSTANCE_URL>
https://www.surechembl.org/chemical/SCHEMBL16125938

> <PUBCHEM_CID_ASSOCIATIONS>
117613441  1

> <PUBCHEM_COORDINATE_TYPE>
1
3

> <PUBCHEM_BONDANNOTATIONS>
14  18  6

$$$$
