310944069
  -OEChem-07211613022D

 26 30  0     1  0  0  0  0  0999 V2000
    2.6146    0.9270    0.0000 O   0  0  0  0  0  0  0  0  0  0  0  0
    0.4283   -0.3388    0.0000 N   0  0  0  0  0  0  0  0  0  0  0  0
   -2.4868   -0.3388    0.0000 N   0  0  0  0  0  0  0  0  0  0  0  0
   -2.5763    0.4922    0.0000 N   0  0  0  0  0  0  0  0  0  0  0  0
    1.1699   -0.7096    0.0000 C   0  0  3  0  0  0  0  0  0  0  0  0
    0.4666    0.5306    0.0000 C   0  0  3  0  0  0  0  0  0  0  0  0
    1.8859    0.5306    0.0000 C   0  0  0  0  0  0  0  0  0  0  0  0
   -3.2539   -0.6585    0.0000 C   0  0  0  0  0  0  0  0  0  0  0  0
    1.1443    0.9398    0.0000 C   0  0  0  0  0  0  0  0  0  0  0  0
    1.8732   -0.3132    0.0000 C   0  0  0  0  0  0  0  0  0  0  0  0
    1.5662   -0.0192    0.0000 C   0  0  0  0  0  0  0  0  0  0  0  0
    1.2593    0.5178    0.0000 C   0  0  0  0  0  0  0  0  0  0  0  0
   -0.2877   -0.7352    0.0000 C   0  0  0  0  0  0  0  0  0  0  0  0
   -3.8293   -0.0448    0.0000 C   0  0  0  0  0  0  0  0  0  0  0  0
   -1.0548   -0.3260    0.0000 C   0  0  3  0  0  0  0  0  0  0  0  0
   -1.7451   -0.7480    0.0000 C   0  0  0  0  0  0  0  0  0  0  0  0
   -3.3946    0.6840    0.0000 C   0  0  0  0  0  0  0  0  0  0  0  0
   -3.5224   -1.4639    0.0000 C   0  0  0  0  0  0  0  0  0  0  0  0
   -4.6347   -0.2237    0.0000 C   0  0  0  0  0  0  0  0  0  0  0  0
    4.0722    0.9398    0.0000 C   0  0  0  0  0  0  0  0  0  0  0  0
    3.3562    0.5178    0.0000 C   0  0  0  0  0  0  0  0  0  0  0  0
   -4.3152   -1.6429    0.0000 C   0  0  0  0  0  0  0  0  0  0  0  0
   -4.8905   -1.0293    0.0000 C   0  0  0  0  0  0  0  0  0  0  0  0
   -1.0293    0.4922    0.0000 C   0  0  0  0  0  0  0  0  0  0  0  0
    4.4814    1.6429    0.0000 C   0  0  0  0  0  0  0  0  0  0  0  0
    4.8905    0.9653    0.0000 C   0  0  0  0  0  0  0  0  0  0  0  0
  7  1  1  1  0  0  0
  1 21  1  0  0  0  0
  5  2  1  6  0  0  0
  6  2  1  6  0  0  0
  2 13  1  0  0  0  0
  3  4  1  0  0  0  0
  3  8  1  0  0  0  0
  3 16  1  0  0  0  0
  4 17  2  0  0  0  0
  5 10  1  0  0  0  0
  5 11  1  0  0  0  0
  6  9  1  0  0  0  0
  6 12  1  0  0  0  0
  7  9  1  0  0  0  0
  7 10  1  0  0  0  0
  8 14  2  0  0  0  0
  8 18  1  0  0  0  0
 11 12  1  0  0  0  0
 13 15  1  0  0  0  0
 14 17  1  0  0  0  0
 14 19  1  0  0  0  0
 15 16  1  0  0  0  0
 15 24  1  6  0  0  0
 18 22  2  0  0  0  0
 19 23  2  0  0  0  0
 20 21  1  0  0  0  0
 20 25  1  0  0  0  0
 20 26  1  0  0  0  0
 22 23  1  0  0  0  0
 25 26  1  0  0  0  0
M  END
> <PUBCHEM_COMPOUND_ID_TYPE>
0

> <PUBCHEM_TOTAL_CHARGE>
0

> <PUBCHEM_SUBSTANCE_ID>
310944069

> <PUBCHEM_SUBSTANCE_VERSION>
1

> <PUBCHEM_EXT_DATASOURCE_NAME>
4488

> <PUBCHEM_EXT_DATASOURCE_REGID>
SCHEMBL16122144

> <PUBCHEM_SUBSTANCE_COMMENT>
InChI=1S/C22H31N3O/c1-16(14-25-22-5-3-2-4-18(22)12-23-25)13-24-19-8-9-20(24)11-21(10-19)26-15-17-6-7-17/h2-5,12,16-17,19-21H,6-11,13-15H2,1H3/t16-,19-,20+,21+/m1/s1
InChIKey=PQHQGXDWBGRYCG-DBOLQNLKSA-N

> <PUBCHEM_SUBSTANCE_SYNONYM>
SCHEMBL16122144

> <PUBCHEM_XREF_EXT_ID>
SCHEMBL16122144

> <PUBCHEM_EXT_DATASOURCE_URL>
https://www.surechembl.org/

> <PUBCHEM_EXT_SUBSTANCE_URL>
https://www.surechembl.org/chemical/SCHEMBL16122144

> <PUBCHEM_CID_ASSOCIATIONS>
78425833  1

> <PUBCHEM_COORDINATE_TYPE>
1
3

> <PUBCHEM_BONDANNOTATIONS>
7  1  5
15  24  6
5  2  6
6  2  6

$$$$
