310940461
  -OEChem-07211613022D

 28 31  0     0  0  0  0  0  0999 V2000
    2.0338   -3.0150    0.0000 Cl  0  0  0  0  0  0  0  0  0  0  0  0
    0.5621    2.1974    0.0000 F   0  0  0  0  0  0  0  0  0  0  0  0
    0.8074    1.1140    0.0000 F   0  0  0  0  0  0  0  0  0  0  0  0
   -0.3169    0.8892    0.0000 F   0  0  0  0  0  0  0  0  0  0  0  0
   -2.0338   -2.2587    0.0000 O   0  0  0  0  0  0  0  0  0  0  0  0
   -1.3389   -0.9913    0.0000 N   0  0  0  0  0  0  0  0  0  0  0  0
   -0.5212   -3.1172    0.0000 N   0  0  0  0  0  0  0  0  0  0  0  0
    0.2759   -3.2807    0.0000 N   0  0  0  0  0  0  0  0  0  0  0  0
   -0.6030   -2.1769    0.0000 C   0  0  0  0  0  0  0  0  0  0  0  0
    0.1328   -1.8499    0.0000 C   0  0  0  0  0  0  0  0  0  0  0  0
    0.7052   -2.4426    0.0000 C   0  0  0  0  0  0  0  0  0  0  0  0
   -1.2979   -1.7272    0.0000 C   0  0  0  0  0  0  0  0  0  0  0  0
   -1.2979    1.6046    0.0000 C   0  0  0  0  0  0  0  0  0  0  0  0
   -0.6030    2.0338    0.0000 C   0  0  0  0  0  0  0  0  0  0  0  0
    1.5024   -2.2995    0.0000 C   0  0  0  0  0  0  0  0  0  0  0  0
   -1.2979    0.7870    0.0000 C   0  0  0  0  0  0  0  0  0  0  0  0
    0.3986   -1.0527    0.0000 C   0  0  0  0  0  0  0  0  0  0  0  0
    0.1124    1.5433    0.0000 C   0  0  0  0  0  0  0  0  0  0  0  0
   -0.6030   -0.5212    0.0000 C   0  0  0  0  0  0  0  0  0  0  0  0
   -2.0134   -0.5008    0.0000 C   0  0  0  0  0  0  0  0  0  0  0  0
   -0.5826    0.3373    0.0000 C   0  0  0  0  0  0  0  0  0  0  0  0
   -1.9929    0.3577    0.0000 C   0  0  0  0  0  0  0  0  0  0  0  0
    1.7477   -1.5024    0.0000 C   0  0  0  0  0  0  0  0  0  0  0  0
    1.1958   -0.8892    0.0000 C   0  0  0  0  0  0  0  0  0  0  0  0
   -1.9725    2.0543    0.0000 C   0  0  0  0  0  0  0  0  0  0  0  0
   -0.5826    2.8719    0.0000 C   0  0  0  0  0  0  0  0  0  0  0  0
   -1.9929    2.8310    0.0000 C   0  0  0  0  0  0  0  0  0  0  0  0
   -1.2979    3.2807    0.0000 C   0  0  0  0  0  0  0  0  0  0  0  0
  1 15  1  0  0  0  0
  2 18  1  0  0  0  0
  3 18  1  0  0  0  0
  4 18  1  0  0  0  0
  5 12  2  0  0  0  0
  6 12  1  0  0  0  0
  6 19  1  0  0  0  0
  6 20  1  0  0  0  0
  7  8  1  0  0  0  0
  7  9  2  0  0  0  0
  8 11  1  0  0  0  0
  9 10  1  0  0  0  0
  9 12  1  0  0  0  0
 10 11  1  0  0  0  0
 10 17  2  0  0  0  0
 11 15  2  0  0  0  0
 13 14  2  0  0  0  0
 13 16  1  0  0  0  0
 13 25  1  0  0  0  0
 14 18  1  0  0  0  0
 14 26  1  0  0  0  0
 15 23  1  0  0  0  0
 16 21  1  0  0  0  0
 16 22  1  0  0  0  0
 17 24  1  0  0  0  0
 19 21  1  0  0  0  0
 20 22  1  0  0  0  0
 23 24  2  0  0  0  0
 25 27  2  0  0  0  0
 26 28  2  0  0  0  0
 27 28  1  0  0  0  0
M  END
> <PUBCHEM_COMPOUND_ID_TYPE>
0

> <PUBCHEM_TOTAL_CHARGE>
0

> <PUBCHEM_SUBSTANCE_ID>
310940461

> <PUBCHEM_SUBSTANCE_VERSION>
1

> <PUBCHEM_EXT_DATASOURCE_NAME>
4488

> <PUBCHEM_EXT_DATASOURCE_REGID>
SCHEMBL16118414

> <PUBCHEM_SUBSTANCE_COMMENT>
InChI=1S/C20H17ClF3N3O/c21-16-7-3-5-14-17(16)25-26-18(14)19(28)27-10-8-12(9-11-27)13-4-1-2-6-15(13)20(22,23)24/h1-7,12H,8-11H2,(H,25,26)
InChIKey=VEWXOEFELYWRTQ-UHFFFAOYSA-N

> <PUBCHEM_SUBSTANCE_SYNONYM>
SCHEMBL16118414

> <PUBCHEM_XREF_EXT_ID>
SCHEMBL16118414

> <PUBCHEM_EXT_DATASOURCE_URL>
https://www.surechembl.org/

> <PUBCHEM_EXT_SUBSTANCE_URL>
https://www.surechembl.org/chemical/SCHEMBL16118414

> <PUBCHEM_CID_ASSOCIATIONS>
117607480  1

> <PUBCHEM_COORDINATE_TYPE>
1
3

$$$$
