310929477
  -OEChem-07211613022D

 63 71  0     1  0  0  0  0  0999 V2000
    1.0945   -5.3171    0.0000 S   0  0  0  0  0  0  0  0  0  0  0  0
    1.1870   -3.6697    0.0000 O   0  0  0  0  0  0  0  0  0  0  0  0
   -1.2278   -2.2682    0.0000 O   0  0  0  0  0  0  0  0  0  0  0  0
   -0.0216    0.8226    0.0000 O   0  0  0  0  0  0  0  0  0  0  0  0
    0.6426   -6.0074    0.0000 O   0  0  0  0  0  0  0  0  0  0  0  0
    1.5464   -4.6269    0.0000 O   0  0  0  0  0  0  0  0  0  0  0  0
    1.4525   -2.4575    0.0000 O   0  0  0  0  0  0  0  0  0  0  0  0
    4.2988   -1.5933    0.0000 O   0  0  0  0  0  0  0  0  0  0  0  0
    3.5674   -0.3657    0.0000 O   0  0  0  0  0  0  0  0  0  0  0  0
    2.8360    0.8619    0.0000 O   0  0  0  0  0  0  0  0  0  0  0  0
    0.0855   -2.8314    0.0000 N   0  0  0  0  0  0  0  0  0  0  0  0
    0.4043   -4.8653    0.0000 N   0  0  0  0  0  0  0  0  0  0  0  0
    0.7211   -1.2299    0.0000 N   0  0  0  0  0  0  0  0  0  0  0  0
    2.8700   -1.6129    0.0000 N   0  0  0  0  0  0  0  0  0  0  0  0
    0.6757    2.0698    0.0000 N   0  0  0  0  0  0  0  0  0  0  0  0
   -0.2397   -3.5897    0.0000 C   0  0  3  0  0  0  0  0  0  0  0  0
   -1.0429   -3.4011    0.0000 C   0  0  3  0  0  0  0  0  0  0  0  0
   -0.8046   -4.1909    0.0000 C   0  0  0  0  0  0  0  0  0  0  0  0
   -1.6441   -2.8362    0.0000 C   0  0  0  0  0  0  0  0  0  0  0  0
    0.4505   -4.0416    0.0000 C   0  0  0  0  0  0  0  0  0  0  0  0
   -1.8824   -2.0464    0.0000 C   0  0  0  0  0  0  0  0  0  0  0  0
   -2.4473   -2.6477    0.0000 C   0  0  0  0  0  0  0  0  0  0  0  0
   -0.4086   -2.1707    0.0000 C   0  0  0  0  0  0  0  0  0  0  0  0
   -0.0834   -1.4125    0.0000 C   0  0  3  0  0  0  0  0  0  0  0  0
   -0.5057   -0.7038    0.0000 C   0  0  0  0  0  0  0  0  0  0  0  0
   -0.0103   -0.0024    0.0000 C   0  0  3  0  0  0  0  0  0  0  0  0
    0.7098   -0.4050    0.0000 C   0  0  0  0  0  0  0  0  0  0  0  0
    1.4412   -1.6326    0.0000 C   0  0  0  0  0  0  0  0  0  0  0  0
    2.1499   -1.2103    0.0000 C   0  0  3  0  0  0  0  0  0  0  0  0
    1.7848   -5.7690    0.0000 C   0  0  0  0  0  0  0  0  0  0  0  0
    2.1613   -2.0352    0.0000 C   0  0  0  0  0  0  0  0  0  0  0  0
    2.1566   -6.5055    0.0000 C   0  0  0  0  0  0  0  0  0  0  0  0
    2.6085   -5.8153    0.0000 C   0  0  0  0  0  0  0  0  0  0  0  0
    0.6871    1.2448    0.0000 C   0  0  0  0  0  0  0  0  0  0  0  0
    1.4072    0.8422    0.0000 C   0  0  0  0  0  0  0  0  0  0  0  0
    3.5787   -1.1906    0.0000 C   0  0  0  0  0  0  0  0  0  0  0  0
    1.6678   -2.6920    0.0000 C   0  0  0  0  0  0  0  0  0  0  0  0
    2.8353   -2.5109    0.0000 C   0  0  0  0  0  0  0  0  0  0  0  0
    5.0075   -1.1710    0.0000 C   0  0  3  0  0  0  0  0  0  0  0  0
    2.1159    1.2645    0.0000 C   0  0  0  0  0  0  0  0  0  0  0  0
    1.3845    2.4921    0.0000 C   0  0  0  0  0  0  0  0  0  0  0  0
    4.9962   -0.3461    0.0000 C   0  0  3  0  0  0  0  0  0  0  0  0
    2.1046    2.0894    0.0000 C   0  0  0  0  0  0  0  0  0  0  0  0
    1.7663   -3.3103    0.0000 C   0  0  0  0  0  0  0  0  0  0  0  0
    2.5912   -3.2989    0.0000 C   0  0  0  0  0  0  0  0  0  0  0  0
    1.8650    1.5086    0.0000 C   0  0  0  0  0  0  0  0  0  0  0  0
    5.7956   -1.4151    0.0000 C   0  0  0  0  0  0  0  0  0  0  0  0
    5.7772   -0.0804    0.0000 C   0  0  0  0  0  0  0  0  0  0  0  0
    1.3731    3.3170    0.0000 C   0  0  0  0  0  0  0  0  0  0  0  0
    4.2761    0.0566    0.0000 C   0  0  0  0  0  0  0  0  0  0  0  0
    2.8133    2.5117    0.0000 C   0  0  0  0  0  0  0  0  0  0  0  0
    6.2713   -0.7411    0.0000 C   0  0  0  0  0  0  0  0  0  0  0  0
    2.5851    1.1059    0.0000 C   0  0  0  0  0  0  0  0  0  0  0  0
    2.0819    3.7393    0.0000 C   0  0  0  0  0  0  0  0  0  0  0  0
    2.8019    3.3366    0.0000 C   0  0  0  0  0  0  0  0  0  0  0  0
    4.2648    0.8815    0.0000 C   0  0  0  0  0  0  0  0  0  0  0  0
    3.5447    1.2841    0.0000 C   0  0  0  0  0  0  0  0  0  0  0  0
   -0.6529   -2.6741    0.0000 H   0  0  0  0  0  0  0  0  0  0  0  0
   -0.9066   -1.4670    0.0000 H   0  0  0  0  0  0  0  0  0  0  0  0
   -0.7983    0.2419    0.0000 H   0  0  0  0  0  0  0  0  0  0  0  0
    1.7473   -1.9303    0.0000 H   0  0  0  0  0  0  0  0  0  0  0  0
    5.1050   -1.9902    0.0000 H   0  0  0  0  0  0  0  0  0  0  0  0
    5.0711    0.4755    0.0000 H   0  0  0  0  0  0  0  0  0  0  0  0
  1  5  2  0  0  0  0
  1  6  2  0  0  0  0
  1 12  1  0  0  0  0
  1 30  1  0  0  0  0
  2 20  2  0  0  0  0
  3 23  2  0  0  0  0
  4 26  1  0  0  0  0
  4 34  1  0  0  0  0
  7 28  2  0  0  0  0
  8 36  1  0  0  0  0
  8 39  1  0  0  0  0
  9 36  2  0  0  0  0
 10 40  1  0  0  0  0
 16 11  1  6  0  0  0
 11 23  1  0  0  0  0
 12 20  1  0  0  0  0
 13 24  1  0  0  0  0
 13 27  1  0  0  0  0
 13 28  1  0  0  0  0
 14 29  1  0  0  0  0
 14 36  1  0  0  0  0
 15 34  2  0  0  0  0
 15 41  1  0  0  0  0
 16 17  1  0  0  0  0
 16 18  1  0  0  0  0
 16 20  1  1  0  0  0
 17 18  1  0  0  0  0
 17 19  1  0  0  0  0
 17 58  1  6  0  0  0
 19 21  1  0  0  0  0
 19 22  1  0  0  0  0
 21 22  1  0  0  0  0
 23 24  1  0  0  0  0
 24 25  1  0  0  0  0
 24 59  1  1  0  0  0
 25 26  1  0  0  0  0
 26 27  1  0  0  0  0
 26 60  1  6  0  0  0
 28 29  1  0  0  0  0
 29 31  1  0  0  0  0
 29 61  1  6  0  0  0
 30 32  1  0  0  0  0
 30 33  1  0  0  0  0
 31 37  1  0  0  0  0
 31 38  1  0  0  0  0
 32 33  1  0  0  0  0
 34 35  1  0  0  0  0
 35 40  2  0  0  0  0
 35 46  1  0  0  0  0
 37 44  1  0  0  0  0
 38 45  1  0  0  0  0
 39 42  1  0  0  0  0
 39 47  1  0  0  0  0
 39 62  1  6  0  0  0
 40 43  1  0  0  0  0
 41 43  2  0  0  0  0
 41 49  1  0  0  0  0
 42 48  1  0  0  0  0
 42 50  1  0  0  0  0
 42 63  1  1  0  0  0
 43 51  1  0  0  0  0
 44 45  1  0  0  0  0
 46 53  1  0  0  0  0
 47 52  1  0  0  0  0
 48 52  1  0  0  0  0
 49 54  2  0  0  0  0
 50 56  1  0  0  0  0
 51 55  2  0  0  0  0
 53 57  2  0  0  0  0
 54 55  1  0  0  0  0
 56 57  1  0  0  0  0
M  END
> <PUBCHEM_COMPOUND_ID_TYPE>
0

> <PUBCHEM_TOTAL_CHARGE>
0

> <PUBCHEM_SUBSTANCE_ID>
310929477

> <PUBCHEM_SUBSTANCE_VERSION>
1

> <PUBCHEM_EXT_DATASOURCE_NAME>
4488

> <PUBCHEM_EXT_DATASOURCE_REGID>
SCHEMBL16106651

> <PUBCHEM_SUBSTANCE_COMMENT>
InChI=1S/C42H53N5O9S/c48-36-29-13-6-7-15-32(29)43-38-30(36)14-3-1-2-9-25-12-8-16-34(25)56-41(52)44-35(26-10-4-5-11-26)39(50)47-23-27(55-38)21-33(47)37(49)45-42(22-31(42)24-17-18-24)40(51)46-57(53,54)28-19-20-28/h1,3,6-7,13,15,24-28,31,33-35H,2,4-5,8-12,14,16-23H2,(H,43,48)(H,44,52)(H,45,49)(H,46,51)/t25-,27-,31+,33+,34-,35+,42-/m1/s1
InChIKey=MBGOTHOOTJXBKO-ZQZURNHASA-N

> <PUBCHEM_SUBSTANCE_SYNONYM>
SCHEMBL16106651

> <PUBCHEM_XREF_EXT_ID>
SCHEMBL16106651

> <PUBCHEM_EXT_DATASOURCE_URL>
https://www.surechembl.org/

> <PUBCHEM_EXT_SUBSTANCE_URL>
https://www.surechembl.org/chemical/SCHEMBL16106651

> <PUBCHEM_CID_ASSOCIATIONS>
117598813  1

> <PUBCHEM_COORDINATE_TYPE>
1
3

> <PUBCHEM_BONDANNOTATIONS>
16  11  6
16  20  5
17  58  6
24  59  5
26  60  6
29  61  6
39  62  6
42  63  5
57  56  3

$$$$
