310945171
  -OEChem-07211613022D

 15 15  0     0  0  0  0  0  0999 V2000
   -0.5984    1.7547    0.0000 O   0  0  0  0  0  0  0  0  0  0  0  0
    0.3567   -1.9158    0.0000 O   0  0  0  0  0  0  0  0  0  0  0  0
   -0.8169   -1.1104    0.0000 N   0  0  0  0  0  0  0  0  0  0  0  0
   -0.3567   -0.3855    0.0000 C   0  0  0  0  0  0  0  0  0  0  0  0
    0.4603   -0.4545    0.0000 C   0  0  0  0  0  0  0  0  0  0  0  0
   -0.2531    1.0528    0.0000 C   0  0  0  0  0  0  0  0  0  0  0  0
   -0.7019    0.3625    0.0000 C   0  0  0  0  0  0  0  0  0  0  0  0
    0.9205    0.2474    0.0000 C   0  0  0  0  0  0  0  0  0  0  0  0
    0.5754    0.9722    0.0000 C   0  0  0  0  0  0  0  0  0  0  0  0
   -0.4833   -1.8123    0.0000 C   0  0  0  0  0  0  0  0  0  0  0  0
    0.7249   -0.9147    0.0000 C   0  0  0  0  0  0  0  0  0  0  0  0
   -0.9205   -2.5141    0.0000 C   0  0  0  0  0  0  0  0  0  0  0  0
   -0.1381    2.4681    0.0000 C   0  0  0  0  0  0  0  0  0  0  0  0
   -0.5063   -3.2276    0.0000 C   0  0  0  0  0  0  0  0  0  0  0  0
   -0.4948    3.2276    0.0000 C   0  0  0  0  0  0  0  0  0  0  0  0
  1  6  1  0  0  0  0
  1 13  1  0  0  0  0
  2 10  2  0  0  0  0
  3  4  1  0  0  0  0
  3 10  1  0  0  0  0
  4  5  1  0  0  0  0
  4  7  2  0  0  0  0
  5  8  2  0  0  0  0
  5 11  1  0  0  0  0
  6  7  1  0  0  0  0
  6  9  2  0  0  0  0
  8  9  1  0  0  0  0
 10 12  1  0  0  0  0
 12 14  2  0  0  0  0
 13 15  1  0  0  0  0
M  END
> <PUBCHEM_COMPOUND_ID_TYPE>
0

> <PUBCHEM_TOTAL_CHARGE>
0

> <PUBCHEM_SUBSTANCE_ID>
310945171

> <PUBCHEM_SUBSTANCE_VERSION>
1

> <PUBCHEM_EXT_DATASOURCE_NAME>
4488

> <PUBCHEM_EXT_DATASOURCE_REGID>
SCHEMBL16123261

> <PUBCHEM_SUBSTANCE_COMMENT>
InChI=1S/C12H15NO2/c1-4-12(14)13-11-8-10(15-5-2)7-6-9(11)3/h4,6-8H,1,5H2,2-3H3,(H,13,14)
InChIKey=JTJFJLVRNGLIAK-UHFFFAOYSA-N

> <PUBCHEM_SUBSTANCE_SYNONYM>
SCHEMBL16123261

> <PUBCHEM_XREF_EXT_ID>
SCHEMBL16123261

> <PUBCHEM_EXT_DATASOURCE_URL>
https://www.surechembl.org/

> <PUBCHEM_EXT_SUBSTANCE_URL>
https://www.surechembl.org/chemical/SCHEMBL16123261

> <PUBCHEM_CID_ASSOCIATIONS>
117611257  1

> <PUBCHEM_COORDINATE_TYPE>
1
3

$$$$
