310935855
  -OEChem-07211613022D

 14 14  0     0  0  0  0  0  0999 V2000
    0.7191   -3.6853    0.0000 Br  0  0  0  0  0  0  0  0  0  0  0  0
    0.7191   -2.0449    0.0000 O   0  0  0  0  0  0  0  0  0  0  0  0
    4.2695   -3.2583    0.0000 O   0  0  0  0  0  0  0  0  0  0  0  0
    3.5504   -4.4942    0.0000 O   0  0  0  0  0  0  0  0  0  0  0  0
    2.1347   -2.0449    0.0000 N   0  0  0  0  0  0  0  0  0  0  0  0
    1.4157   -2.4494    0.0000 C   0  0  0  0  0  0  0  0  0  0  0  0
    1.4157   -3.2583    0.0000 C   0  0  0  0  0  0  0  0  0  0  0  0
    2.8314   -3.2583    0.0000 C   0  0  0  0  0  0  0  0  0  0  0  0
    2.1347   -3.6628    0.0000 C   0  0  0  0  0  0  0  0  0  0  0  0
    2.8314   -2.4494    0.0000 C   0  0  0  0  0  0  0  0  0  0  0  0
    3.5504   -3.6628    0.0000 C   0  0  0  0  0  0  0  0  0  0  0  0
    0.7191   -1.2359    0.0000 C   0  0  0  0  0  0  0  0  0  0  0  0
    0.0000   -0.8315    0.0000 C   0  0  0  0  0  0  0  0  0  0  0  0
    0.0000    0.0000    0.0000 C   0  0  0  0  0  0  0  0  0  0  0  0
  1  7  1  0  0  0  0
  2  6  1  0  0  0  0
  2 12  1  0  0  0  0
  3 11  2  0  0  0  0
  4 11  1  0  0  0  0
  5  6  2  0  0  0  0
  5 10  1  0  0  0  0
  6  7  1  0  0  0  0
  7  9  2  0  0  0  0
  8  9  1  0  0  0  0
  8 10  2  0  0  0  0
  8 11  1  0  0  0  0
 12 13  1  0  0  0  0
 13 14  1  0  0  0  0
M  END
> <PUBCHEM_COMPOUND_ID_TYPE>
0

> <PUBCHEM_TOTAL_CHARGE>
0

> <PUBCHEM_SUBSTANCE_ID>
310935855

> <PUBCHEM_SUBSTANCE_VERSION>
1

> <PUBCHEM_EXT_DATASOURCE_NAME>
4488

> <PUBCHEM_EXT_DATASOURCE_REGID>
SCHEMBL16113447

> <PUBCHEM_SUBSTANCE_COMMENT>
InChI=1S/C9H10BrNO3/c1-2-3-14-8-7(10)4-6(5-11-8)9(12)13/h4-5H,2-3H2,1H3,(H,12,13)
InChIKey=BTAAVNUHXUJXHJ-UHFFFAOYSA-N

> <PUBCHEM_SUBSTANCE_SYNONYM>
SCHEMBL16113447

> <PUBCHEM_XREF_EXT_ID>
SCHEMBL16113447

> <PUBCHEM_EXT_DATASOURCE_URL>
https://www.surechembl.org/

> <PUBCHEM_EXT_SUBSTANCE_URL>
https://www.surechembl.org/chemical/SCHEMBL16113447

> <PUBCHEM_CID_ASSOCIATIONS>
117603846  1

> <PUBCHEM_COORDINATE_TYPE>
1
3

$$$$
