310929034
  -OEChem-07211613022D

 17 17  0     0  0  0  0  0  0999 V2000
    0.0000   -3.5707    0.0000 O   0  0  0  0  0  0  0  0  0  0  0  0
    3.3141   -0.7056    0.0000 O   0  0  0  0  0  0  0  0  0  0  0  0
    4.5329   -1.4325    0.0000 O   0  0  0  0  0  0  0  0  0  0  0  0
    3.3141   -2.1381    0.0000 N   0  0  0  0  0  0  0  0  0  0  0  0
    1.2401   -4.2763    0.0000 N   0  0  0  0  0  0  0  0  0  0  0  0
    1.2401   -1.4325    0.0000 C   0  0  0  0  0  0  0  0  0  0  0  0
    1.2401   -2.8651    0.0000 C   0  0  0  0  0  0  0  0  0  0  0  0
    2.4803   -2.1381    0.0000 C   0  0  0  0  0  0  0  0  0  0  0  0
    0.8339   -0.7056    0.0000 C   0  0  0  0  0  0  0  0  0  0  0  0
    0.8339   -2.1381    0.0000 C   0  0  0  0  0  0  0  0  0  0  0  0
    2.0526   -1.4325    0.0000 C   0  0  0  0  0  0  0  0  0  0  0  0
    2.0526   -2.8651    0.0000 C   0  0  0  0  0  0  0  0  0  0  0  0
    0.8339   -3.5707    0.0000 C   0  0  0  0  0  0  0  0  0  0  0  0
    3.7204   -1.4325    0.0000 C   0  0  0  0  0  0  0  0  0  0  0  0
    1.5608   -0.2993    0.0000 C   0  0  0  0  0  0  0  0  0  0  0  0
    0.4276    0.0000    0.0000 C   0  0  0  0  0  0  0  0  0  0  0  0
    0.1283   -1.1332    0.0000 C   0  0  0  0  0  0  0  0  0  0  0  0
  1 13  2  0  0  0  0
  2 14  2  0  0  0  0
  3 14  1  0  0  0  0
  4  8  1  0  0  0  0
  4 14  1  0  0  0  0
  5 13  1  0  0  0  0
  6  9  1  0  0  0  0
  6 10  1  0  0  0  0
  6 11  2  0  0  0  0
  7 10  2  0  0  0  0
  7 12  1  0  0  0  0
  7 13  1  0  0  0  0
  8 11  1  0  0  0  0
  8 12  2  0  0  0  0
  9 15  1  0  0  0  0
  9 16  1  0  0  0  0
  9 17  1  0  0  0  0
M  END
> <PUBCHEM_COMPOUND_ID_TYPE>
0

> <PUBCHEM_TOTAL_CHARGE>
0

> <PUBCHEM_SUBSTANCE_ID>
310929034

> <PUBCHEM_SUBSTANCE_VERSION>
1

> <PUBCHEM_EXT_DATASOURCE_NAME>
4488

> <PUBCHEM_EXT_DATASOURCE_REGID>
SCHEMBL16106196

> <PUBCHEM_SUBSTANCE_COMMENT>
InChI=1S/C12H16N2O3/c1-12(2,3)8-4-7(10(13)15)5-9(6-8)14-11(16)17/h4-6,14H,1-3H3,(H2,13,15)(H,16,17)
InChIKey=IRKHAVZCWTZIJR-UHFFFAOYSA-N

> <PUBCHEM_SUBSTANCE_SYNONYM>
SCHEMBL16106196

> <PUBCHEM_XREF_EXT_ID>
SCHEMBL16106196

> <PUBCHEM_EXT_DATASOURCE_URL>
https://www.surechembl.org/

> <PUBCHEM_EXT_SUBSTANCE_URL>
https://www.surechembl.org/chemical/SCHEMBL16106196

> <PUBCHEM_CID_ASSOCIATIONS>
117598553  1

> <PUBCHEM_COORDINATE_TYPE>
1
3

$$$$
