310930159
  -OEChem-07211613022D

 16 18  0     0  0  0  0  0  0999 V2000
    0.0000   -2.1093    0.0000 O   0  0  0  0  0  0  0  0  0  0  0  0
    3.7334    0.0000    0.0000 O   0  0  0  0  0  0  0  0  0  0  0  0
    2.4890   -2.1093    0.0000 C   0  0  0  0  0  0  0  0  0  0  0  0
    2.0249   -2.8053    0.0000 C   0  0  0  0  0  0  0  0  0  0  0  0
    2.0249   -1.4132    0.0000 C   0  0  0  0  0  0  0  0  0  0  0  0
    1.2656   -2.8053    0.0000 C   0  0  0  0  0  0  0  0  0  0  0  0
    0.8226   -2.1093    0.0000 C   0  0  0  0  0  0  0  0  0  0  0  0
    1.2656   -1.4132    0.0000 C   0  0  0  0  0  0  0  0  0  0  0  0
    3.3116   -2.1093    0.0000 C   0  0  0  0  0  0  0  0  0  0  0  0
    2.4890   -0.6961    0.0000 C   0  0  0  0  0  0  0  0  0  0  0  0
    2.4890   -3.5225    0.0000 C   0  0  0  0  0  0  0  0  0  0  0  0
    0.8226   -3.5225    0.0000 C   0  0  0  0  0  0  0  0  0  0  0  0
    3.3116   -0.6961    0.0000 C   0  0  0  0  0  0  0  0  0  0  0  0
    3.6912   -1.4132    0.0000 C   0  0  0  0  0  0  0  0  0  0  0  0
    2.0249   -4.2186    0.0000 C   0  0  0  0  0  0  0  0  0  0  0  0
    1.2656   -4.2186    0.0000 C   0  0  0  0  0  0  0  0  0  0  0  0
  1  7  1  0  0  0  0
  2 13  1  0  0  0  0
  3  4  2  0  0  0  0
  3  5  1  0  0  0  0
  3  9  1  0  0  0  0
  4  6  1  0  0  0  0
  4 11  1  0  0  0  0
  5  8  2  0  0  0  0
  5 10  1  0  0  0  0
  6  7  2  0  0  0  0
  6 12  1  0  0  0  0
  7  8  1  0  0  0  0
  9 14  2  0  0  0  0
 10 13  2  0  0  0  0
 11 15  2  0  0  0  0
 12 16  2  0  0  0  0
 13 14  1  0  0  0  0
 15 16  1  0  0  0  0
M  END
> <PUBCHEM_COMPOUND_ID_TYPE>
0

> <PUBCHEM_TOTAL_CHARGE>
0

> <PUBCHEM_SUBSTANCE_ID>
310930159

> <PUBCHEM_SUBSTANCE_VERSION>
1

> <PUBCHEM_EXT_DATASOURCE_NAME>
4488

> <PUBCHEM_EXT_DATASOURCE_REGID>
SCHEMBL16107419

> <PUBCHEM_SUBSTANCE_COMMENT>
InChI=1S/C14H10O2/c15-10-5-6-11-9(7-10)8-14(16)13-4-2-1-3-12(11)13/h1-8,15-16H
InChIKey=JQMOAZUCUQQAQB-UHFFFAOYSA-N

> <PUBCHEM_SUBSTANCE_SYNONYM>
SCHEMBL16107419

> <PUBCHEM_XREF_EXT_ID>
SCHEMBL16107419

> <PUBCHEM_EXT_DATASOURCE_URL>
https://www.surechembl.org/

> <PUBCHEM_EXT_SUBSTANCE_URL>
https://www.surechembl.org/chemical/SCHEMBL16107419

> <PUBCHEM_CID_ASSOCIATIONS>
17827108  1

> <PUBCHEM_COORDINATE_TYPE>
1
3

$$$$
