310928759
  -OEChem-07211613022D

 13 13  0     0  0  0  0  0  0999 V2000
    1.7158   -0.1227    0.0000 O   0  0  0  0  0  0  0  0  0  0  0  0
    1.0013    1.1148    0.0000 O   0  0  0  0  0  0  0  0  0  0  0  0
    0.2006   -0.9432    0.0000 N   0  0  0  0  0  0  0  0  0  0  0  0
   -0.6064   -1.1148    0.0000 N   0  0  0  0  0  0  0  0  0  0  0  0
    0.2869   -0.1227    0.0000 C   0  0  0  0  0  0  0  0  0  0  0  0
   -1.0189   -0.4003    0.0000 C   0  0  0  0  0  0  0  0  0  0  0  0
    1.0013    0.2898    0.0000 C   0  0  0  0  0  0  0  0  0  0  0  0
   -0.4668    0.2128    0.0000 C   0  0  0  0  0  0  0  0  0  0  0  0
   -1.8393   -0.3140    0.0000 C   0  0  0  0  0  0  0  0  0  0  0  0
    2.4303    0.2898    0.0000 C   0  0  0  0  0  0  0  0  0  0  0  0
   -2.3243   -0.9815    0.0000 C   0  0  0  0  0  0  0  0  0  0  0  0
    3.1447   -0.1227    0.0000 C   0  0  0  0  0  0  0  0  0  0  0  0
   -3.1447   -0.8952    0.0000 C   0  0  0  0  0  0  0  0  0  0  0  0
  1  7  1  0  0  0  0
  1 10  1  0  0  0  0
  2  7  2  0  0  0  0
  3  4  1  0  0  0  0
  3  5  1  0  0  0  0
  4  6  2  0  0  0  0
  5  7  1  0  0  0  0
  5  8  2  0  0  0  0
  6  8  1  0  0  0  0
  6  9  1  0  0  0  0
  9 11  1  0  0  0  0
 10 12  1  0  0  0  0
 11 13  1  0  0  0  0
M  END
> <PUBCHEM_COMPOUND_ID_TYPE>
0

> <PUBCHEM_TOTAL_CHARGE>
0

> <PUBCHEM_SUBSTANCE_ID>
310928759

> <PUBCHEM_SUBSTANCE_VERSION>
1

> <PUBCHEM_EXT_DATASOURCE_NAME>
11752

> <PUBCHEM_EXT_DATASOURCE_REGID>
BD23150

> <PUBCHEM_SUBSTANCE_SYNONYM>
92945-27-2
Ethyl 3-propyl-1H-pyrazole-5-carboxylate

> <PUBCHEM_GENERIC_REGISTRY_NAME>
92945-27-2

> <PUBCHEM_XREF_EXT_ID>
BD23150

> <PUBCHEM_EXT_DATASOURCE_URL>
http://www.bidepharmatech.com/en/index.html

> <PUBCHEM_EXT_SUBSTANCE_URL>
http://www.bidepharmatech.com/en/goodsview_goodscode_BD23150.html

> <PUBCHEM_CID_ASSOCIATIONS>
7365260  1

> <PUBCHEM_COORDINATE_TYPE>
1
3

$$$$
