310947988
  -OEChem-07211613022D

 33 37  0     1  0  0  0  0  0999 V2000
   -2.1948   -0.5505    0.0000 O   0  0  0  0  0  0  0  0  0  0  0  0
   -2.4884    1.6369    0.0000 O   0  0  0  0  0  0  0  0  0  0  0  0
   -3.2078   -1.2552    0.0000 O   0  0  0  0  0  0  0  0  0  0  0  0
    2.5178    1.2112    0.0000 O   0  0  0  0  0  0  0  0  0  0  0  0
    1.7984    2.4591    0.0000 O   0  0  0  0  0  0  0  0  0  0  0  0
    1.0643   -1.3140    0.0000 N   0  0  3  0  0  0  0  0  0  0  0  0
   -2.5031   -2.5031    0.0000 N   0  0  0  0  0  0  0  0  0  0  0  0
   -1.0643   -0.8148    0.0000 C   0  0  3  0  0  0  0  0  0  0  0  0
   -1.0643    0.0074    0.0000 C   0  0  0  0  0  0  0  0  0  0  0  0
   -1.7837   -1.2405    0.0000 C   0  0  3  0  0  0  0  0  0  0  0  0
   -0.3450   -1.2405    0.0000 C   0  0  3  0  0  0  0  0  0  0  0  0
   -1.7837    0.4038    0.0000 C   0  0  0  0  0  0  0  0  0  0  0  0
   -0.3744    0.4184    0.0000 C   0  0  0  0  0  0  0  0  0  0  0  0
    0.3450   -0.8295    0.0000 C   0  0  3  0  0  0  0  0  0  0  0  0
   -0.4918   -0.3744    0.0000 C   0  0  0  0  0  0  0  0  0  0  0  0
   -1.7837   -2.0627    0.0000 C   0  0  3  0  0  0  0  0  0  0  0  0
    0.3597   -0.0074    0.0000 C   0  0  0  0  0  0  0  0  0  0  0  0
   -0.3450    1.2405    0.0000 C   0  0  0  0  0  0  0  0  0  0  0  0
   -1.7837    1.2405    0.0000 C   0  0  0  0  0  0  0  0  0  0  0  0
   -0.3597   -2.0627    0.0000 C   0  0  0  0  0  0  0  0  0  0  0  0
    0.8148   -0.3744    0.0000 C   0  0  0  0  0  0  0  0  0  0  0  0
   -1.0643   -2.4737    0.0000 C   0  0  0  0  0  0  0  0  0  0  0  0
   -1.0790    1.6369    0.0000 C   0  0  0  0  0  0  0  0  0  0  0  0
    0.3597    1.6516    0.0000 C   0  0  0  0  0  0  0  0  0  0  0  0
    1.8865   -1.0497    0.0000 C   0  0  0  0  0  0  0  0  0  0  0  0
   -3.2225   -2.0774    0.0000 C   0  0  0  0  0  0  0  0  0  0  0  0
    1.0790    1.2405    0.0000 C   0  0  0  0  0  0  0  0  0  0  0  0
    1.7837    1.6369    0.0000 C   0  0  0  0  0  0  0  0  0  0  0  0
   -3.9565   -2.4737    0.0000 C   0  0  0  0  0  0  0  0  0  0  0  0
    3.2225    1.6663    0.0000 C   0  0  0  0  0  0  0  0  0  0  0  0
    3.9565    1.2258    0.0000 C   0  0  0  0  0  0  0  0  0  0  0  0
    3.2225    2.5031    0.0000 C   0  0  0  0  0  0  0  0  0  0  0  0
    3.9565    2.0480    0.0000 C   0  0  0  0  0  0  0  0  0  0  0  0
 10  1  1  6  0  0  0
  1 12  1  0  0  0  0
  2 19  1  0  0  0  0
  3 26  2  0  0  0  0
  4 28  1  0  0  0  0
  4 30  1  0  0  0  0
  5 28  2  0  0  0  0
 14  6  1  1  0  0  0
  6 21  1  0  0  0  0
  6 25  1  0  0  0  0
 16  7  1  6  0  0  0
  7 26  1  0  0  0  0
  8  9  1  6  0  0  0
  8 10  1  0  0  0  0
  8 11  1  0  0  0  0
  8 15  1  0  0  0  0
  9 12  1  0  0  0  0
  9 13  2  0  0  0  0
 10 16  1  0  0  0  0
 11 14  1  0  0  0  0
 11 20  1  0  0  0  0
 12 19  2  0  0  0  0
 13 17  1  0  0  0  0
 13 18  1  0  0  0  0
 14 17  1  0  0  0  0
 15 21  1  0  0  0  0
 16 22  1  0  0  0  0
 18 23  2  0  0  0  0
 18 24  1  0  0  0  0
 19 23  1  0  0  0  0
 20 22  1  0  0  0  0
 24 27  1  0  0  0  0
 26 29  1  0  0  0  0
 27 28  1  0  0  0  0
 30 31  1  0  0  0  0
 30 32  1  0  0  0  0
 30 33  1  0  0  0  0
M  END
> <PUBCHEM_COMPOUND_ID_TYPE>
0

> <PUBCHEM_TOTAL_CHARGE>
0

> <PUBCHEM_SUBSTANCE_ID>
310947988

> <PUBCHEM_SUBSTANCE_VERSION>
1

> <PUBCHEM_EXT_DATASOURCE_NAME>
4488

> <PUBCHEM_EXT_DATASOURCE_REGID>
SCHEMBL16126162

> <PUBCHEM_SUBSTANCE_COMMENT>
InChI=1S/C26H36N2O5/c1-14(29)27-18-8-7-17-19-13-16-15(6-9-21(31)33-25(2,3)4)12-20(30)23-22(16)26(17,24(18)32-23)10-11-28(19)5/h12,17-19,24,30H,6-11,13H2,1-5H3,(H,27,29)/t17?,18-,19+,24-,26-/m0/s1
InChIKey=GXPJUHLSTMQCNO-PZAGMLMSSA-N

> <PUBCHEM_SUBSTANCE_SYNONYM>
SCHEMBL16126162

> <PUBCHEM_XREF_EXT_ID>
SCHEMBL16126162

> <PUBCHEM_EXT_DATASOURCE_URL>
https://www.surechembl.org/

> <PUBCHEM_EXT_SUBSTANCE_URL>
https://www.surechembl.org/chemical/SCHEMBL16126162

> <PUBCHEM_CID_ASSOCIATIONS>
117613634  1

> <PUBCHEM_COORDINATE_TYPE>
1
3

> <PUBCHEM_BONDANNOTATIONS>
10  1  6
14  6  5
16  7  6
8  9  6

$$$$
