310934348
  -OEChem-07211613022D

 34 37  0     1  0  0  0  0  0999 V2000
    3.4491    3.7125    0.0000 O   0  0  0  0  0  0  0  0  0  0  0  0
    4.1636    4.1250    0.0000 O   0  0  0  0  0  0  0  0  0  0  0  0
    5.5926    4.1250    0.0000 O   0  0  0  0  0  0  0  0  0  0  0  0
    4.1636    2.4750    0.0000 N   0  0  0  0  0  0  0  0  0  0  0  0
    0.5912    1.2375    0.0000 N   0  0  0  0  0  0  0  0  0  0  0  0
   -0.9239    0.4170    0.0000 N   0  0  0  0  0  0  0  0  0  0  0  0
   -2.1434    0.9599    0.0000 N   0  0  0  0  0  0  0  0  0  0  0  0
    2.7346    1.6500    0.0000 C   0  0  0  0  0  0  0  0  0  0  0  0
    3.4491    1.2375    0.0000 C   0  0  0  0  0  0  0  0  0  0  0  0
    2.7346    2.4750    0.0000 C   0  0  0  0  0  0  0  0  0  0  0  0
    3.4491    0.4125    0.0000 C   0  0  0  0  0  0  0  0  0  0  0  0
    4.1636    0.0000    0.0000 C   0  0  0  0  0  0  0  0  0  0  0  0
    2.0202    1.2375    0.0000 C   0  0  0  0  0  0  0  0  0  0  0  0
    3.4491    2.8875    0.0000 C   0  0  0  0  0  0  0  0  0  0  0  0
    1.3057    1.6500    0.0000 C   0  0  0  0  0  0  0  0  0  0  0  0
    4.1636    1.6500    0.0000 C   0  0  0  0  0  0  0  0  0  0  0  0
    2.0202    2.8875    0.0000 C   0  0  0  0  0  0  0  0  0  0  0  0
    1.3057    2.4750    0.0000 C   0  0  0  0  0  0  0  0  0  0  0  0
    2.7346    0.0000    0.0000 C   0  0  0  0  0  0  0  0  0  0  0  0
    4.8780    0.4125    0.0000 C   0  0  0  0  0  0  0  0  0  0  0  0
    4.8780    1.2375    0.0000 C   0  0  0  0  0  0  0  0  0  0  0  0
    4.1636   -0.8250    0.0000 C   0  0  0  0  0  0  0  0  0  0  0  0
    4.8780    2.8875    0.0000 C   0  0  3  0  0  0  0  0  0  0  0  0
    2.7346   -0.8250    0.0000 C   0  0  0  0  0  0  0  0  0  0  0  0
    3.4491   -1.2375    0.0000 C   0  0  0  0  0  0  0  0  0  0  0  0
   -0.1232    1.6500    0.0000 C   0  0  0  0  0  0  0  0  0  0  0  0
    4.8780    3.7125    0.0000 C   0  0  0  0  0  0  0  0  0  0  0  0
    5.5926    2.4750    0.0000 C   0  0  0  0  0  0  0  0  0  0  0  0
   -0.8377    1.2375    0.0000 C   0  0  0  0  0  0  0  0  0  0  0  0
    6.3070    2.8875    0.0000 C   0  0  0  0  0  0  0  0  0  0  0  0
   -1.5914    1.5730    0.0000 C   0  0  0  0  0  0  0  0  0  0  0  0
   -1.7309    0.2455    0.0000 C   0  0  0  0  0  0  0  0  0  0  0  0
    6.3070    3.7125    0.0000 C   0  0  0  0  0  0  0  0  0  0  0  0
    7.0215    2.4750    0.0000 C   0  0  0  0  0  0  0  0  0  0  0  0
  1 14  2  0  0  0  0
  2 27  2  0  0  0  0
  3 27  1  0  0  0  0
  4 14  1  0  0  0  0
 23  4  1  6  0  0  0
  5 15  1  0  0  0  0
  5 26  1  0  0  0  0
  6 29  1  0  0  0  0
  6 32  1  0  0  0  0
  7 31  1  0  0  0  0
  7 32  2  0  0  0  0
  8  9  1  0  0  0  0
  8 10  1  0  0  0  0
  8 13  2  0  0  0  0
  9 11  2  0  0  0  0
  9 16  1  0  0  0  0
 10 14  1  0  0  0  0
 10 17  2  0  0  0  0
 11 12  1  0  0  0  0
 11 19  1  0  0  0  0
 12 20  2  0  0  0  0
 12 22  1  0  0  0  0
 13 15  1  0  0  0  0
 15 18  2  0  0  0  0
 16 21  2  0  0  0  0
 17 18  1  0  0  0  0
 19 24  2  0  0  0  0
 20 21  1  0  0  0  0
 22 25  2  0  0  0  0
 23 27  1  0  0  0  0
 23 28  1  0  0  0  0
 24 25  1  0  0  0  0
 26 29  1  0  0  0  0
 28 30  1  0  0  0  0
 29 31  2  0  0  0  0
 30 33  1  0  0  0  0
 30 34  1  0  0  0  0
M  END
> <PUBCHEM_COMPOUND_ID_TYPE>
0

> <PUBCHEM_TOTAL_CHARGE>
0

> <PUBCHEM_SUBSTANCE_ID>
310934348

> <PUBCHEM_SUBSTANCE_VERSION>
1

> <PUBCHEM_EXT_DATASOURCE_NAME>
4488

> <PUBCHEM_EXT_DATASOURCE_REGID>
SCHEMBL16111812

> <PUBCHEM_SUBSTANCE_COMMENT>
InChI=1S/C27H28N4O3/c1-17(2)12-25(27(33)34)31-26(32)23-11-10-19(29-15-20-14-28-16-30-20)13-24(23)22-9-5-7-18-6-3-4-8-21(18)22/h3-11,13-14,16-17,25,29H,12,15H2,1-2H3,(H,28,30)(H,31,32)(H,33,34)/t25-/m0/s1
InChIKey=ODTFPKNIFYMEHP-VWLOTQADSA-N

> <PUBCHEM_SUBSTANCE_SYNONYM>
SCHEMBL16111812

> <PUBCHEM_XREF_EXT_ID>
SCHEMBL16111812

> <PUBCHEM_EXT_DATASOURCE_URL>
https://www.surechembl.org/

> <PUBCHEM_EXT_SUBSTANCE_URL>
https://www.surechembl.org/chemical/SCHEMBL16111812

> <PUBCHEM_CID_ASSOCIATIONS>
9846868  1

> <PUBCHEM_COORDINATE_TYPE>
1
3

> <PUBCHEM_BONDANNOTATIONS>
23  4  6

$$$$
