310935969
  -OEChem-07211613022D

 22 23  0     0  0  0  0  0  0999 V2000
    2.9463   -7.8569    0.0000 F   0  0  0  0  0  0  0  0  0  0  0  0
    4.3998   -5.3820    0.0000 F   0  0  0  0  0  0  0  0  0  0  0  0
    0.8250   -1.6499    0.0000 O   0  0  0  0  0  0  0  0  0  0  0  0
    2.2785   -1.6499    0.0000 O   0  0  0  0  0  0  0  0  0  0  0  0
    1.5321   -2.8677    0.0000 N   0  0  0  0  0  0  0  0  0  0  0  0
    1.5321   -4.5177    0.0000 C   0  0  0  0  0  0  0  0  0  0  0  0
    2.2392   -5.7748    0.0000 C   0  0  0  0  0  0  0  0  0  0  0  0
    1.5321   -2.0428    0.0000 C   0  0  0  0  0  0  0  0  0  0  0  0
    1.5321   -5.3820    0.0000 C   0  0  0  0  0  0  0  0  0  0  0  0
    2.2785   -3.2999    0.0000 C   0  0  0  0  0  0  0  0  0  0  0  0
    0.8250   -3.2999    0.0000 C   0  0  0  0  0  0  0  0  0  0  0  0
    2.2785   -4.1249    0.0000 C   0  0  0  0  0  0  0  0  0  0  0  0
    0.8250   -4.1249    0.0000 C   0  0  0  0  0  0  0  0  0  0  0  0
    2.9856   -5.3820    0.0000 C   0  0  0  0  0  0  0  0  0  0  0  0
    2.2392   -6.5998    0.0000 C   0  0  0  0  0  0  0  0  0  0  0  0
    2.9856   -7.0319    0.0000 C   0  0  0  0  0  0  0  0  0  0  0  0
    3.6927   -5.7748    0.0000 C   0  0  0  0  0  0  0  0  0  0  0  0
    0.8250   -0.8250    0.0000 C   0  0  0  0  0  0  0  0  0  0  0  0
    3.6927   -6.5998    0.0000 C   0  0  0  0  0  0  0  0  0  0  0  0
    1.6892   -0.8250    0.0000 C   0  0  0  0  0  0  0  0  0  0  0  0
    0.8250    0.0000    0.0000 C   0  0  0  0  0  0  0  0  0  0  0  0
    0.0000   -0.8250    0.0000 C   0  0  0  0  0  0  0  0  0  0  0  0
  1 16  1  0  0  0  0
  2 17  1  0  0  0  0
  3  8  1  0  0  0  0
  3 18  1  0  0  0  0
  4  8  2  0  0  0  0
  5  8  1  0  0  0  0
  5 10  1  0  0  0  0
  5 11  1  0  0  0  0
  6  9  2  0  0  0  0
  6 12  1  0  0  0  0
  6 13  1  0  0  0  0
  7  9  1  0  0  0  0
  7 14  2  0  0  0  0
  7 15  1  0  0  0  0
 10 12  1  0  0  0  0
 11 13  1  0  0  0  0
 14 17  1  0  0  0  0
 15 16  2  0  0  0  0
 16 19  1  0  0  0  0
 17 19  2  0  0  0  0
 18 20  1  0  0  0  0
 18 21  1  0  0  0  0
 18 22  1  0  0  0  0
M  END
> <PUBCHEM_COMPOUND_ID_TYPE>
0

> <PUBCHEM_TOTAL_CHARGE>
0

> <PUBCHEM_SUBSTANCE_ID>
310935969

> <PUBCHEM_SUBSTANCE_VERSION>
1

> <PUBCHEM_EXT_DATASOURCE_NAME>
4488

> <PUBCHEM_EXT_DATASOURCE_REGID>
SCHEMBL16113568

> <PUBCHEM_SUBSTANCE_COMMENT>
InChI=1S/C17H21F2NO2/c1-17(2,3)22-16(21)20-6-4-12(5-7-20)8-13-9-14(18)11-15(19)10-13/h8-11H,4-7H2,1-3H3
InChIKey=AHDFICDJFYRDPS-UHFFFAOYSA-N

> <PUBCHEM_SUBSTANCE_SYNONYM>
SCHEMBL16113568

> <PUBCHEM_XREF_EXT_ID>
SCHEMBL16113568

> <PUBCHEM_EXT_DATASOURCE_URL>
https://www.surechembl.org/

> <PUBCHEM_EXT_SUBSTANCE_URL>
https://www.surechembl.org/chemical/SCHEMBL16113568

> <PUBCHEM_CID_ASSOCIATIONS>
117603944  1

> <PUBCHEM_COORDINATE_TYPE>
1
3

$$$$
