310932883
  -OEChem-07211613022D

 31 34  0     0  0  0  0  0  0999 V2000
    2.8652   -2.1148    0.0000 O   0  0  0  0  0  0  0  0  0  0  0  0
    0.1023   -2.3876    0.0000 O   0  0  0  0  0  0  0  0  0  0  0  0
    7.3335   -2.2171    0.0000 O   0  0  0  0  0  0  0  0  0  0  0  0
    3.7520   -0.9550    0.0000 N   0  0  0  0  0  0  0  0  0  0  0  0
    3.6838   -0.1364    0.0000 N   0  0  0  0  0  0  0  0  0  0  0  0
    5.1846   -0.9550    0.0000 N   0  0  0  0  0  0  0  0  0  0  0  0
    0.0000   -0.9892    0.0000 N   0  0  0  0  0  0  0  0  0  0  0  0
    6.6172   -3.4450    0.0000 N   0  0  0  0  0  0  0  0  0  0  0  0
    8.8002   -4.6729    0.0000 N   0  0  0  0  0  0  0  0  0  0  0  0
    2.4218   -0.7163    0.0000 C   0  0  0  0  0  0  0  0  0  0  0  0
    3.0016   -1.2961    0.0000 C   0  0  0  0  0  0  0  0  0  0  0  0
    4.4683   -1.3985    0.0000 C   0  0  0  0  0  0  0  0  0  0  0  0
    1.6031   -0.7845    0.0000 C   0  0  0  0  0  0  0  0  0  0  0  0
    2.8652    0.0000    0.0000 C   0  0  0  0  0  0  0  0  0  0  0  0
    4.4683   -2.2171    0.0000 C   0  0  0  0  0  0  0  0  0  0  0  0
    5.9009   -2.2171    0.0000 C   0  0  0  0  0  0  0  0  0  0  0  0
    1.2961   -1.5690    0.0000 C   0  0  0  0  0  0  0  0  0  0  0  0
    1.1597   -0.1364    0.0000 C   0  0  0  0  0  0  0  0  0  0  0  0
    5.9009   -1.3985    0.0000 C   0  0  0  0  0  0  0  0  0  0  0  0
    5.1846   -2.6264    0.0000 C   0  0  0  0  0  0  0  0  0  0  0  0
    0.4434   -1.6372    0.0000 C   0  0  0  0  0  0  0  0  0  0  0  0
    6.6172   -2.6264    0.0000 C   0  0  0  0  0  0  0  0  0  0  0  0
    0.3070   -0.2047    0.0000 C   0  0  0  0  0  0  0  0  0  0  0  0
    7.3676   -3.8543    0.0000 C   0  0  0  0  0  0  0  0  0  0  0  0
    7.3676   -4.7071    0.0000 C   0  0  0  0  0  0  0  0  0  0  0  0
    8.0497   -3.4450    0.0000 C   0  0  0  0  0  0  0  0  0  0  0  0
    8.0497   -5.1164    0.0000 C   0  0  0  0  0  0  0  0  0  0  0  0
    8.8002   -3.8543    0.0000 C   0  0  0  0  0  0  0  0  0  0  0  0
    0.5799   -3.0698    0.0000 C   0  0  0  0  0  0  0  0  0  0  0  0
    9.4823   -5.1164    0.0000 C   0  0  0  0  0  0  0  0  0  0  0  0
   10.2328   -4.6729    0.0000 C   0  0  0  0  0  0  0  0  0  0  0  0
  1 11  1  0  0  0  0
  2 21  1  0  0  0  0
  2 29  1  0  0  0  0
  3 22  2  0  0  0  0
  4  5  1  0  0  0  0
  4 11  1  0  0  0  0
  4 12  1  0  0  0  0
  5 14  2  0  0  0  0
  6 12  2  0  0  0  0
  6 19  1  0  0  0  0
  7 21  1  0  0  0  0
  7 23  2  0  0  0  0
  8 22  1  0  0  0  0
  8 24  1  0  0  0  0
  9 27  1  0  0  0  0
  9 28  1  0  0  0  0
  9 30  1  0  0  0  0
 10 11  2  0  0  0  0
 10 13  1  0  0  0  0
 10 14  1  0  0  0  0
 12 15  1  0  0  0  0
 13 17  1  0  0  0  0
 13 18  2  0  0  0  0
 15 20  2  0  0  0  0
 16 19  2  0  0  0  0
 16 20  1  0  0  0  0
 16 22  1  0  0  0  0
 17 21  2  0  0  0  0
 18 23  1  0  0  0  0
 24 25  1  0  0  0  0
 24 26  1  0  0  0  0
 25 27  1  0  0  0  0
 26 28  1  0  0  0  0
 30 31  1  0  0  0  0
M  END
> <PUBCHEM_COMPOUND_ID_TYPE>
0

> <PUBCHEM_TOTAL_CHARGE>
0

> <PUBCHEM_SUBSTANCE_ID>
310932883

> <PUBCHEM_SUBSTANCE_VERSION>
1

> <PUBCHEM_EXT_DATASOURCE_NAME>
4488

> <PUBCHEM_EXT_DATASOURCE_REGID>
SCHEMBL16110276

> <PUBCHEM_SUBSTANCE_COMMENT>
InChI=1S/C22H26N6O3/c1-3-27-10-7-17(8-11-27)26-21(29)16-4-5-19(24-13-16)28-22(30)18(14-25-28)15-6-9-23-20(12-15)31-2/h4-6,9,12-14,17,30H,3,7-8,10-11H2,1-2H3,(H,26,29)
InChIKey=AOZAFPYSXJOPAI-UHFFFAOYSA-N

> <PUBCHEM_SUBSTANCE_SYNONYM>
SCHEMBL16110276

> <PUBCHEM_XREF_EXT_ID>
SCHEMBL16110276

> <PUBCHEM_EXT_DATASOURCE_URL>
https://www.surechembl.org/

> <PUBCHEM_EXT_SUBSTANCE_URL>
https://www.surechembl.org/chemical/SCHEMBL16110276

> <PUBCHEM_CID_ASSOCIATIONS>
117601366  1

> <PUBCHEM_COORDINATE_TYPE>
1
3

$$$$
