310947135
  -OEChem-07211613022D

 53 56  0     1  0  0  0  0  0999 V2000
   -4.1089    0.1119    0.0000 P   0  0  3  0  0  0  0  0  0  0  0  0
   -3.8954   -0.6850    0.0000 O   0  0  0  0  0  0  0  0  0  0  0  0
   -5.4067   -0.0590    0.0000 O   0  0  0  0  0  0  0  0  0  0  0  0
   -4.1089    0.9369    0.0000 O   0  0  0  0  0  0  0  0  0  0  0  0
   -0.4260    0.9369    0.0000 O   0  0  0  0  0  0  0  0  0  0  0  0
   -6.8357    0.7660    0.0000 N   0  0  0  0  0  0  0  0  0  0  0  0
   -6.4232    2.0355    0.0000 N   0  0  0  0  0  0  0  0  0  0  0  0
   -8.3101    1.0794    0.0000 N   0  0  0  0  0  0  0  0  0  0  0  0
   -8.6072    2.4771    0.0000 N   0  0  0  0  0  0  0  0  0  0  0  0
   -3.2839    0.1119    0.0000 N   0  0  0  0  0  0  0  0  0  0  0  0
   -7.5867    3.4455    0.0000 N   0  0  0  0  0  0  0  0  0  0  0  0
   -1.1405   -0.3006    0.0000 N   0  0  0  0  0  0  0  0  0  0  0  0
   -7.5031    1.2509    0.0000 C   0  0  0  0  0  0  0  0  0  0  0  0
   -7.2482    2.0355    0.0000 C   0  0  0  0  0  0  0  0  0  0  0  0
   -7.8002    2.6486    0.0000 C   0  0  0  0  0  0  0  0  0  0  0  0
   -4.1089   -1.4819    0.0000 C   0  0  0  0  0  0  0  0  0  0  0  0
   -3.5255   -2.0653    0.0000 C   0  0  0  0  0  0  0  0  0  0  0  0
   -6.1682    1.2509    0.0000 C   0  0  0  0  0  0  0  0  0  0  0  0
   -6.8357   -0.0590    0.0000 C   0  0  0  0  0  0  0  0  0  0  0  0
   -3.7391   -2.8622    0.0000 C   0  0  0  0  0  0  0  0  0  0  0  0
   -6.1212   -0.4715    0.0000 C   0  0  3  0  0  0  0  0  0  0  0  0
   -8.8621    1.6925    0.0000 C   0  0  0  0  0  0  0  0  0  0  0  0
   -4.6923   -0.4715    0.0000 C   0  0  0  0  0  0  0  0  0  0  0  0
   -4.9058   -1.6954    0.0000 C   0  0  0  0  0  0  0  0  0  0  0  0
   -2.7286   -1.8518    0.0000 C   0  0  0  0  0  0  0  0  0  0  0  0
   -4.5359   -3.0757    0.0000 C   0  0  0  0  0  0  0  0  0  0  0  0
   -3.1557   -3.4455    0.0000 C   0  0  0  0  0  0  0  0  0  0  0  0
   -5.1193   -2.4923    0.0000 C   0  0  0  0  0  0  0  0  0  0  0  0
   -2.1453   -2.4351    0.0000 C   0  0  0  0  0  0  0  0  0  0  0  0
   -2.3588   -3.2320    0.0000 C   0  0  0  0  0  0  0  0  0  0  0  0
   -5.7087   -1.1860    0.0000 C   0  0  0  0  0  0  0  0  0  0  0  0
   -2.5694   -0.3006    0.0000 C   0  0  0  0  0  0  0  0  0  0  0  0
   -1.8550    0.1119    0.0000 C   0  0  0  0  0  0  0  0  0  0  0  0
   -0.4260    0.1119    0.0000 C   0  0  0  0  0  0  0  0  0  0  0  0
    0.2885   -0.3006    0.0000 C   0  0  0  0  0  0  0  0  0  0  0  0
    1.0029    0.1119    0.0000 C   0  0  0  0  0  0  0  0  0  0  0  0
    1.0029    0.9369    0.0000 C   0  0  0  0  0  0  0  0  0  0  0  0
    1.7174    1.3494    0.0000 C   0  0  0  0  0  0  0  0  0  0  0  0
    2.4319    0.9369    0.0000 C   0  0  0  0  0  0  0  0  0  0  0  0
    2.4319    0.1119    0.0000 C   0  0  0  0  0  0  0  0  0  0  0  0
    3.1463   -0.3006    0.0000 C   0  0  0  0  0  0  0  0  0  0  0  0
    3.8608    0.1119    0.0000 C   0  0  0  0  0  0  0  0  0  0  0  0
    3.8608    0.9369    0.0000 C   0  0  0  0  0  0  0  0  0  0  0  0
    4.5753    1.3494    0.0000 C   0  0  0  0  0  0  0  0  0  0  0  0
    5.2898    0.9369    0.0000 C   0  0  0  0  0  0  0  0  0  0  0  0
    5.2898    0.1119    0.0000 C   0  0  0  0  0  0  0  0  0  0  0  0
    6.0042   -0.3006    0.0000 C   0  0  0  0  0  0  0  0  0  0  0  0
    6.7187    0.1119    0.0000 C   0  0  0  0  0  0  0  0  0  0  0  0
    6.7187    0.9369    0.0000 C   0  0  0  0  0  0  0  0  0  0  0  0
    7.4332    1.3494    0.0000 C   0  0  0  0  0  0  0  0  0  0  0  0
    8.1476    0.9369    0.0000 C   0  0  0  0  0  0  0  0  0  0  0  0
    8.1476    0.1119    0.0000 C   0  0  0  0  0  0  0  0  0  0  0  0
    8.8621   -0.3006    0.0000 C   0  0  0  0  0  0  0  0  0  0  0  0
  1  2  1  0  0  0  0
  1  4  2  0  0  0  0
  1 10  1  0  0  0  0
  1 23  1  0  0  0  0
  2 16  1  0  0  0  0
  3 21  1  0  0  0  0
  3 23  1  0  0  0  0
  5 34  2  0  0  0  0
  6 13  1  0  0  0  0
  6 18  1  0  0  0  0
  6 19  1  0  0  0  0
  7 14  1  0  0  0  0
  7 18  2  0  0  0  0
  8 13  1  0  0  0  0
  8 22  2  0  0  0  0
  9 15  2  0  0  0  0
  9 22  1  0  0  0  0
 10 32  1  0  0  0  0
 11 15  1  0  0  0  0
 12 33  1  0  0  0  0
 12 34  1  0  0  0  0
 13 14  2  0  0  0  0
 14 15  1  0  0  0  0
 16 17  2  0  0  0  0
 16 24  1  0  0  0  0
 17 20  1  0  0  0  0
 17 25  1  0  0  0  0
 19 21  1  0  0  0  0
 20 26  2  0  0  0  0
 20 27  1  0  0  0  0
 21 31  1  6  0  0  0
 24 28  2  0  0  0  0
 25 29  2  0  0  0  0
 26 28  1  0  0  0  0
 27 30  2  0  0  0  0
 29 30  1  0  0  0  0
 32 33  1  0  0  0  0
 34 35  1  0  0  0  0
 35 36  1  0  0  0  0
 36 37  1  0  0  0  0
 37 38  1  0  0  0  0
 38 39  2  0  0  0  0
 39 40  1  0  0  0  0
 40 41  1  0  0  0  0
 41 42  2  0  0  0  0
 42 43  1  0  0  0  0
 43 44  1  0  0  0  0
 44 45  2  0  0  0  0
 45 46  1  0  0  0  0
 46 47  1  0  0  0  0
 47 48  2  0  0  0  0
 48 49  1  0  0  0  0
 49 50  1  0  0  0  0
 50 51  2  0  0  0  0
 51 52  1  0  0  0  0
 52 53  1  0  0  0  0
M  END
> <PUBCHEM_COMPOUND_ID_TYPE>
0

> <PUBCHEM_TOTAL_CHARGE>
0

> <PUBCHEM_SUBSTANCE_ID>
310947135

> <PUBCHEM_SUBSTANCE_VERSION>
1

> <PUBCHEM_EXT_DATASOURCE_NAME>
4488

> <PUBCHEM_EXT_DATASOURCE_REGID>
SCHEMBL16125289

> <PUBCHEM_SUBSTANCE_COMMENT>
InChI=1S/C41H54N7O4P/c1-3-4-5-6-7-8-9-10-11-12-13-14-15-16-17-18-19-27-38(49)43-28-29-47-53(50,52-37-26-22-24-35-23-20-21-25-36(35)37)33-51-34(2)30-48-32-46-39-40(42)44-31-45-41(39)48/h4-5,7-8,10-11,13-14,16-17,20-26,31-32,34H,3,6,9,12,15,18-19,27-30,33H2,1-2H3,(H,43,49)(H,47,50)(H2,42,44,45)/b5-4-,8-7-,11-10-,14-13-,17-16-/t34-,53?/m1/s1
InChIKey=ZCYFBWCBAJUGLB-QOWAWBOFSA-N

> <PUBCHEM_SUBSTANCE_SYNONYM>
SCHEMBL16125289

> <PUBCHEM_XREF_EXT_ID>
SCHEMBL16125289

> <PUBCHEM_EXT_DATASOURCE_URL>
https://www.surechembl.org/

> <PUBCHEM_EXT_SUBSTANCE_URL>
https://www.surechembl.org/chemical/SCHEMBL16125289

> <PUBCHEM_CID_ASSOCIATIONS>
86270690  1

> <PUBCHEM_COORDINATE_TYPE>
1
3

> <PUBCHEM_BONDANNOTATIONS>
21  31  6

$$$$
