310941412
  -OEChem-07211613022D

 20 20  0     1  0  0  0  0  0999 V2000
    2.1278   -1.7574    0.0000 O   0  0  0  0  0  0  0  0  0  0  0  0
    1.5349    0.8885    0.0000 O   0  0  0  0  0  0  0  0  0  0  0  0
   -2.2323   -0.1082    0.0000 O   0  0  0  0  0  0  0  0  0  0  0  0
    1.6289   -2.5778    0.0000 O   0  0  0  0  0  0  0  0  0  0  0  0
    0.0990    0.0607    0.0000 N   0  0  0  0  0  0  0  0  0  0  0  0
    0.1159    0.9391    0.0000 C   0  0  3  0  0  0  0  0  0  0  0  0
    0.8085    1.3446    0.0000 C   0  0  0  0  0  0  0  0  0  0  0  0
   -0.6274    1.3277    0.0000 C   0  0  0  0  0  0  0  0  0  0  0  0
   -1.3200    0.9223    0.0000 C   0  0  3  0  0  0  0  0  0  0  0  0
    1.6289   -2.0457    0.0000 C   0  0  0  0  0  0  0  0  0  0  0  0
    2.1388   -1.2031    0.0000 C   0  0  0  0  0  0  0  0  0  0  0  0
    0.8423    2.1555    0.0000 C   0  0  0  0  0  0  0  0  0  0  0  0
   -1.4214    0.0945    0.0000 C   0  0  0  0  0  0  0  0  0  0  0  0
   -2.0802    1.2432    0.0000 C   0  0  0  0  0  0  0  0  0  0  0  0
   -2.6377    0.6351    0.0000 C   0  0  0  0  0  0  0  0  0  0  0  0
    2.6377   -1.1809    0.0000 C   0  0  0  0  0  0  0  0  0  0  0  0
    1.6289   -1.2031    0.0000 C   0  0  0  0  0  0  0  0  0  0  0  0
    2.1278   -0.6599    0.0000 C   0  0  0  0  0  0  0  0  0  0  0  0
    0.0990    2.5778    0.0000 C   0  0  0  0  0  0  0  0  0  0  0  0
    1.5687    2.5778    0.0000 C   0  0  0  0  0  0  0  0  0  0  0  0
  1 10  1  0  0  0  0
  1 11  1  0  0  0  0
  2  7  2  0  0  0  0
  3 13  1  0  0  0  0
  3 15  1  0  0  0  0
  4 10  2  0  0  0  0
  6  5  1  1  0  0  0
  5 10  1  0  0  0  0
  6  7  1  0  0  0  0
  6  8  1  0  0  0  0
  7 12  1  0  0  0  0
  9  8  1  1  0  0  0
  9 13  1  0  0  0  0
  9 14  1  0  0  0  0
 11 16  1  0  0  0  0
 11 17  1  0  0  0  0
 11 18  1  0  0  0  0
 12 19  2  0  0  0  0
 12 20  1  0  0  0  0
 14 15  1  0  0  0  0
M  END
> <PUBCHEM_COMPOUND_ID_TYPE>
0

> <PUBCHEM_TOTAL_CHARGE>
0

> <PUBCHEM_SUBSTANCE_ID>
310941412

> <PUBCHEM_SUBSTANCE_VERSION>
1

> <PUBCHEM_EXT_DATASOURCE_NAME>
4488

> <PUBCHEM_EXT_DATASOURCE_REGID>
SCHEMBL16119372

> <PUBCHEM_SUBSTANCE_COMMENT>
InChI=1S/C15H25NO4/c1-10(2)13(17)12(8-11-6-7-19-9-11)16-14(18)20-15(3,4)5/h11-12H,1,6-9H2,2-5H3,(H,16,18)/t11-,12-/m0/s1
InChIKey=RUIFWOBQXXSNLJ-RYUDHWBXSA-N

> <PUBCHEM_SUBSTANCE_SYNONYM>
SCHEMBL16119372

> <PUBCHEM_XREF_EXT_ID>
SCHEMBL16119372

> <PUBCHEM_EXT_DATASOURCE_URL>
https://www.surechembl.org/

> <PUBCHEM_EXT_SUBSTANCE_URL>
https://www.surechembl.org/chemical/SCHEMBL16119372

> <PUBCHEM_CID_ASSOCIATIONS>
117608237  1

> <PUBCHEM_COORDINATE_TYPE>
1
3

> <PUBCHEM_BONDANNOTATIONS>
6  5  5
9  8  5

$$$$
