310940173
  -OEChem-07211613022D

 37 40  0     1  0  0  0  0  0999 V2000
    3.3898    2.0715    0.0000 S   0  0  0  0  0  0  0  0  0  0  0  0
   -2.2060    0.9595    0.0000 O   0  0  0  0  0  0  0  0  0  0  0  0
    1.3810   -2.4481    0.0000 O   0  0  0  0  0  0  0  0  0  0  0  0
   -3.9996   -0.2780    0.0000 O   0  0  0  0  0  0  0  0  0  0  0  0
   -3.8381    1.1389    0.0000 O   0  0  0  0  0  0  0  0  0  0  0  0
    2.6723    2.4840    0.0000 O   0  0  0  0  0  0  0  0  0  0  0  0
    3.8023    2.7889    0.0000 O   0  0  0  0  0  0  0  0  0  0  0  0
   -0.3766   -0.3677    0.0000 N   0  0  0  0  0  0  0  0  0  0  0  0
    0.4125   -0.0986    0.0000 N   0  0  0  0  0  0  0  0  0  0  0  0
    1.7398   -0.7623    0.0000 N   0  0  0  0  0  0  0  0  0  0  0  0
   -0.0179   -2.7889    0.0000 N   0  0  0  0  0  0  0  0  0  0  0  0
   -0.1076    2.0894    0.0000 N   0  0  0  0  0  0  0  0  0  0  0  0
   -1.0402    0.1345    0.0000 C   0  0  3  0  0  0  0  0  0  0  0  0
   -0.3766   -1.1748    0.0000 C   0  0  0  0  0  0  0  0  0  0  0  0
    0.4125   -1.4259    0.0000 C   0  0  0  0  0  0  0  0  0  0  0  0
    0.8968   -0.7444    0.0000 C   0  0  0  0  0  0  0  0  0  0  0  0
    0.5740   -2.2150    0.0000 C   0  0  0  0  0  0  0  0  0  0  0  0
   -1.3631    0.8698    0.0000 C   0  0  0  0  0  0  0  0  0  0  0  0
   -1.5245   -0.5291    0.0000 C   0  0  0  0  0  0  0  0  0  0  0  0
   -0.9685   -1.7487    0.0000 C   0  0  0  0  0  0  0  0  0  0  0  0
   -0.2511    0.4394    0.0000 C   0  0  0  0  0  0  0  0  0  0  0  0
   -2.6723    0.2601    0.0000 C   0  0  3  0  0  0  0  0  0  0  0  0
   -2.3495   -0.4394    0.0000 C   0  0  0  0  0  0  0  0  0  0  0  0
   -0.8071   -2.5199    0.0000 C   0  0  0  0  0  0  0  0  0  0  0  0
    2.1523   -0.0448    0.0000 C   0  0  0  0  0  0  0  0  0  0  0  0
   -3.5153    0.3856    0.0000 C   0  0  0  0  0  0  0  0  0  0  0  0
   -0.1794    1.2644    0.0000 C   0  0  0  0  0  0  0  0  0  0  0  0
    2.9773   -0.0448    0.0000 C   0  0  0  0  0  0  0  0  0  0  0  0
    1.7398    0.6547    0.0000 C   0  0  0  0  0  0  0  0  0  0  0  0
    2.9594    1.3720    0.0000 C   0  0  0  0  0  0  0  0  0  0  0  0
    3.3719    0.6726    0.0000 C   0  0  0  0  0  0  0  0  0  0  0  0
    2.1523    1.3541    0.0000 C   0  0  0  0  0  0  0  0  0  0  0  0
   -3.6409   -1.0313    0.0000 C   0  0  0  0  0  0  0  0  0  0  0  0
    4.1252    1.6410    0.0000 C   0  0  0  0  0  0  0  0  0  0  0  0
   -4.1252   -1.7128    0.0000 C   0  0  0  0  0  0  0  0  0  0  0  0
   -3.3001   -1.7846    0.0000 C   0  0  0  0  0  0  0  0  0  0  0  0
   -2.8159   -1.1030    0.0000 C   0  0  0  0  0  0  0  0  0  0  0  0
  1  6  2  0  0  0  0
  1  7  2  0  0  0  0
  1 30  1  0  0  0  0
  1 34  1  0  0  0  0
  2 18  1  0  0  0  0
  2 22  1  0  0  0  0
  3 17  2  0  0  0  0
  4 26  1  0  0  0  0
  4 33  1  0  0  0  0
  5 26  2  0  0  0  0
  8  9  1  0  0  0  0
  8 13  1  0  0  0  0
  8 14  1  0  0  0  0
  9 16  2  0  0  0  0
 10 16  1  0  0  0  0
 10 25  1  0  0  0  0
 11 17  1  0  0  0  0
 11 24  1  0  0  0  0
 12 27  3  0  0  0  0
 13 18  1  0  0  0  0
 13 19  1  0  0  0  0
 13 21  1  6  0  0  0
 14 15  2  0  0  0  0
 14 20  1  0  0  0  0
 15 16  1  0  0  0  0
 15 17  1  0  0  0  0
 19 23  1  0  0  0  0
 20 24  2  0  0  0  0
 21 27  1  0  0  0  0
 22 23  1  0  0  0  0
 22 26  1  6  0  0  0
 25 28  2  0  0  0  0
 25 29  1  0  0  0  0
 28 31  1  0  0  0  0
 29 32  2  0  0  0  0
 30 31  2  0  0  0  0
 30 32  1  0  0  0  0
 33 35  1  0  0  0  0
 33 36  1  0  0  0  0
 33 37  1  0  0  0  0
M  END
> <PUBCHEM_COMPOUND_ID_TYPE>
0

> <PUBCHEM_TOTAL_CHARGE>
0

> <PUBCHEM_SUBSTANCE_ID>
310940173

> <PUBCHEM_SUBSTANCE_VERSION>
1

> <PUBCHEM_EXT_DATASOURCE_NAME>
4488

> <PUBCHEM_EXT_DATASOURCE_REGID>
SCHEMBL16118107

> <PUBCHEM_SUBSTANCE_COMMENT>
InChI=1S/C25H29N5O6S/c1-24(2,3)36-23(32)19-9-11-25(12-13-26,15-35-19)30-18-10-14-27-22(31)20(18)21(29-30)28-16-5-7-17(8-6-16)37(4,33)34/h5-8,10,14,19H,9,11-12,15H2,1-4H3,(H,27,31)(H,28,29)/t19-,25-/m1/s1
InChIKey=SIDAYICSLPDCMZ-KBMIEXCESA-N

> <PUBCHEM_SUBSTANCE_SYNONYM>
SCHEMBL16118107

> <PUBCHEM_XREF_EXT_ID>
SCHEMBL16118107

> <PUBCHEM_EXT_DATASOURCE_URL>
https://www.surechembl.org/

> <PUBCHEM_EXT_SUBSTANCE_URL>
https://www.surechembl.org/chemical/SCHEMBL16118107

> <PUBCHEM_CID_ASSOCIATIONS>
117607284  1

> <PUBCHEM_COORDINATE_TYPE>
1
3

> <PUBCHEM_BONDANNOTATIONS>
13  21  6
22  26  6

$$$$
