310935206
  -OEChem-07211613022D

 43 48  0     0  0  0  0  0  0999 V2000
    1.4404   -1.2003    0.0000 O   0  0  0  0  0  0  0  0  0  0  0  0
    2.8807   -1.2003    0.0000 O   0  0  0  0  0  0  0  0  0  0  0  0
    7.1417  -10.8025    0.0000 O   0  0  0  0  0  0  0  0  0  0  0  0
    6.0614  -11.7028    0.0000 O   0  0  0  0  0  0  0  0  0  0  0  0
    1.1403   -6.1815    0.0000 N   0  0  0  0  0  0  0  0  0  0  0  0
    0.3601   -6.1815    0.0000 N   0  0  0  0  0  0  0  0  0  0  0  0
    2.2206   -5.2212    0.0000 N   0  0  0  0  0  0  0  0  0  0  0  0
    0.7202   -2.4606    0.0000 N   0  0  0  0  0  0  0  0  0  0  0  0
    4.6811   -9.0621    0.0000 N   0  0  0  0  0  0  0  0  0  0  0  0
    5.7614  -10.3225    0.0000 N   0  0  0  0  0  0  0  0  0  0  0  0
    0.7202   -4.9212    0.0000 C   0  0  0  0  0  0  0  0  0  0  0  0
    0.7202   -4.0810    0.0000 C   0  0  0  0  0  0  0  0  0  0  0  0
    1.4404   -5.3413    0.0000 C   0  0  0  0  0  0  0  0  0  0  0  0
    1.4404   -3.6609    0.0000 C   0  0  0  0  0  0  0  0  0  0  0  0
    1.4404   -2.8207    0.0000 C   0  0  0  0  0  0  0  0  0  0  0  0
    0.0600   -5.4013    0.0000 C   0  0  0  0  0  0  0  0  0  0  0  0
    2.1605   -2.4606    0.0000 C   0  0  0  0  0  0  0  0  0  0  0  0
    2.5206   -6.6016    0.0000 C   0  0  0  0  0  0  0  0  0  0  0  0
    1.7404   -6.7816    0.0000 C   0  0  0  0  0  0  0  0  0  0  0  0
    0.0000   -3.6609    0.0000 C   0  0  0  0  0  0  0  0  0  0  0  0
    2.1605   -4.0810    0.0000 C   0  0  0  0  0  0  0  0  0  0  0  0
    2.7606   -5.8214    0.0000 C   0  0  0  0  0  0  0  0  0  0  0  0
    3.0608   -7.2617    0.0000 C   0  0  0  0  0  0  0  0  0  0  0  0
    0.0000   -2.8207    0.0000 C   0  0  0  0  0  0  0  0  0  0  0  0
    2.8807   -2.8207    0.0000 C   0  0  0  0  0  0  0  0  0  0  0  0
    2.1605   -1.6204    0.0000 C   0  0  0  0  0  0  0  0  0  0  0  0
    2.8807   -3.6609    0.0000 C   0  0  0  0  0  0  0  0  0  0  0  0
    3.8409   -7.0817    0.0000 C   0  0  0  0  0  0  0  0  0  0  0  0
    2.7606   -8.0419    0.0000 C   0  0  0  0  0  0  0  0  0  0  0  0
    4.1410   -8.4620    0.0000 C   0  0  0  0  0  0  0  0  0  0  0  0
    4.3810   -7.6818    0.0000 C   0  0  0  0  0  0  0  0  0  0  0  0
    3.3608   -8.6421    0.0000 C   0  0  0  0  0  0  0  0  0  0  0  0
    4.4410   -9.8423    0.0000 C   0  0  0  0  0  0  0  0  0  0  0  0
    5.4613   -8.9421    0.0000 C   0  0  0  0  0  0  0  0  0  0  0  0
    6.0014   -9.5423    0.0000 C   0  0  0  0  0  0  0  0  0  0  0  0
    4.9812  -10.5025    0.0000 C   0  0  0  0  0  0  0  0  0  0  0  0
    6.3015  -10.9226    0.0000 C   0  0  0  0  0  0  0  0  0  0  0  0
    1.4404   -0.4201    0.0000 C   0  0  0  0  0  0  0  0  0  0  0  0
    7.6818  -11.4027    0.0000 C   0  0  0  0  0  0  0  0  0  0  0  0
    0.7202    0.0000    0.0000 C   0  0  0  0  0  0  0  0  0  0  0  0
    8.2219  -12.0029    0.0000 C   0  0  0  0  0  0  0  0  0  0  0  0
    7.0817  -11.9429    0.0000 C   0  0  0  0  0  0  0  0  0  0  0  0
    8.2819  -10.8626    0.0000 C   0  0  0  0  0  0  0  0  0  0  0  0
  1 26  1  0  0  0  0
  1 38  1  0  0  0  0
  2 26  2  0  0  0  0
  3 37  1  0  0  0  0
  3 39  1  0  0  0  0
  4 37  2  0  0  0  0
  5  6  1  0  0  0  0
  5 13  1  0  0  0  0
  5 19  1  0  0  0  0
  6 16  2  0  0  0  0
  7 13  1  0  0  0  0
  7 22  2  0  0  0  0
  8 15  2  0  0  0  0
  8 24  1  0  0  0  0
  9 30  1  0  0  0  0
  9 33  1  0  0  0  0
  9 34  1  0  0  0  0
 10 35  1  0  0  0  0
 10 36  1  0  0  0  0
 10 37  1  0  0  0  0
 11 12  1  0  0  0  0
 11 13  2  0  0  0  0
 11 16  1  0  0  0  0
 12 14  2  0  0  0  0
 12 20  1  0  0  0  0
 14 15  1  0  0  0  0
 14 21  1  0  0  0  0
 15 17  1  0  0  0  0
 17 25  2  0  0  0  0
 17 26  1  0  0  0  0
 18 19  2  0  0  0  0
 18 22  1  0  0  0  0
 18 23  1  0  0  0  0
 20 24  2  0  0  0  0
 21 27  2  0  0  0  0
 23 28  2  0  0  0  0
 23 29  1  0  0  0  0
 25 27  1  0  0  0  0
 28 31  1  0  0  0  0
 29 32  2  0  0  0  0
 30 31  2  0  0  0  0
 30 32  1  0  0  0  0
 33 36  1  0  0  0  0
 34 35  1  0  0  0  0
 38 40  1  0  0  0  0
 39 41  1  0  0  0  0
 39 42  1  0  0  0  0
 39 43  1  0  0  0  0
M  END
> <PUBCHEM_COMPOUND_ID_TYPE>
0

> <PUBCHEM_TOTAL_CHARGE>
0

> <PUBCHEM_SUBSTANCE_ID>
310935206

> <PUBCHEM_SUBSTANCE_VERSION>
1

> <PUBCHEM_EXT_DATASOURCE_NAME>
4488

> <PUBCHEM_EXT_DATASOURCE_REGID>
SCHEMBL16112734

> <PUBCHEM_SUBSTANCE_COMMENT>
InChI=1S/C33H34N6O4/c1-5-42-31(40)27-8-6-7-26-25(13-14-34-29(26)27)28-20-36-39-21-23(19-35-30(28)39)22-9-11-24(12-10-22)37-15-17-38(18-16-37)32(41)43-33(2,3)4/h6-14,19-21H,5,15-18H2,1-4H3
InChIKey=PGUBGVLSXYIYBD-UHFFFAOYSA-N

> <PUBCHEM_SUBSTANCE_SYNONYM>
SCHEMBL16112734

> <PUBCHEM_XREF_EXT_ID>
SCHEMBL16112734

> <PUBCHEM_EXT_DATASOURCE_URL>
https://www.surechembl.org/

> <PUBCHEM_EXT_SUBSTANCE_URL>
https://www.surechembl.org/chemical/SCHEMBL16112734

> <PUBCHEM_CID_ASSOCIATIONS>
117603286  1

> <PUBCHEM_COORDINATE_TYPE>
1
3

$$$$
