310947814
  -OEChem-07211613022D

 24 26  0     1  0  0  0  0  0999 V2000
    3.4367   -1.2942    0.0000 S   0  0  0  0  0  0  0  0  0  0  0  0
   -1.6905    1.1827    0.0000 O   0  0  0  0  0  0  0  0  0  0  0  0
    2.6069   -1.2942    0.0000 O   0  0  0  0  0  0  0  0  0  0  0  0
   -0.2539    2.0125    0.0000 O   0  0  0  0  0  0  0  0  0  0  0  0
   -0.2539   -1.2942    0.0000 O   0  0  0  0  0  0  0  0  0  0  0  0
    3.8453   -2.0125    0.0000 O   0  0  0  0  0  0  0  0  0  0  0  0
    3.8453   -0.5759    0.0000 O   0  0  0  0  0  0  0  0  0  0  0  0
    4.2540   -1.2942    0.0000 O   0  0  0  0  0  0  0  0  0  0  0  0
   -2.5078    1.5542    0.0000 N   0  0  0  0  0  0  0  0  0  0  0  0
    0.4768   -0.0558    0.0000 N   0  0  0  0  0  0  0  0  0  0  0  0
   -0.9474    0.7740    0.0000 N   0  0  0  0  0  0  0  0  0  0  0  0
    1.9134   -0.8731    0.0000 N   0  0  0  0  0  0  0  0  0  0  0  0
   -3.4739    1.5542    0.0000 C   0  0  3  0  0  0  0  0  0  0  0  0
   -3.7216    0.7864    0.0000 C   0  0  3  0  0  0  0  0  0  0  0  0
   -4.2540    1.3809    0.0000 C   0  0  0  0  0  0  0  0  0  0  0  0
   -2.3839    0.7740    0.0000 C   0  0  3  0  0  0  0  0  0  0  0  0
   -3.0528    0.2911    0.0000 C   0  0  0  0  0  0  0  0  0  0  0  0
    0.4892    0.7740    0.0000 C   0  0  3  0  0  0  0  0  0  0  0  0
   -0.2911    1.1703    0.0000 C   0  0  0  0  0  0  0  0  0  0  0  0
    0.5016   -0.8483    0.0000 C   0  0  0  0  0  0  0  0  0  0  0  0
    1.1951   -0.4645    0.0000 C   0  0  0  0  0  0  0  0  0  0  0  0
    1.1827    1.1827    0.0000 C   0  0  0  0  0  0  0  0  0  0  0  0
    1.8887   -0.0681    0.0000 C   0  0  0  0  0  0  0  0  0  0  0  0
    1.9011    0.7740    0.0000 C   0  0  0  0  0  0  0  0  0  0  0  0
  1  3  1  0  0  0  0
  1  6  2  0  0  0  0
  1  7  2  0  0  0  0
  1  8  1  0  0  0  0
  2 11  1  0  0  0  0
  2 16  1  0  0  0  0
  3 12  1  0  0  0  0
  4 19  2  0  0  0  0
  5 20  2  0  0  0  0
  9 13  1  0  0  0  0
  9 16  1  0  0  0  0
 10 18  1  0  0  0  0
 10 20  1  0  0  0  0
 10 21  1  0  0  0  0
 11 19  1  0  0  0  0
 12 20  1  0  0  0  0
 13 14  1  0  0  0  0
 13 15  1  0  0  0  0
 14 15  1  0  0  0  0
 14 17  1  0  0  0  0
 16 17  1  0  0  0  0
 18 19  1  6  0  0  0
 18 22  1  0  0  0  0
 21 23  1  0  0  0  0
 22 24  1  0  0  0  0
 23 24  1  0  0  0  0
M  END
> <PUBCHEM_COMPOUND_ID_TYPE>
0

> <PUBCHEM_TOTAL_CHARGE>
0

> <PUBCHEM_SUBSTANCE_ID>
310947814

> <PUBCHEM_SUBSTANCE_VERSION>
1

> <PUBCHEM_EXT_DATASOURCE_NAME>
4488

> <PUBCHEM_EXT_DATASOURCE_REGID>
SCHEMBL16125986

> <PUBCHEM_SUBSTANCE_COMMENT>
InChI=1S/C12H20N4O7S/c17-11(14-22-10-6-7-5-8(7)13-10)9-3-1-2-4-16(9)12(18)15-23-24(19,20)21/h7-10,13H,1-6H2,(H,14,17)(H,15,18)(H,19,20,21)/t7?,8?,9-,10?/m0/s1
InChIKey=ZWAXJXSPQOPSJW-HTEYAMCKSA-N

> <PUBCHEM_SUBSTANCE_SYNONYM>
SCHEMBL16125986

> <PUBCHEM_XREF_EXT_ID>
SCHEMBL16125986

> <PUBCHEM_EXT_DATASOURCE_URL>
https://www.surechembl.org/

> <PUBCHEM_EXT_SUBSTANCE_URL>
https://www.surechembl.org/chemical/SCHEMBL16125986

> <PUBCHEM_CID_ASSOCIATIONS>
117613482  1

> <PUBCHEM_COORDINATE_TYPE>
1
3

> <PUBCHEM_BONDANNOTATIONS>
18  19  6

$$$$
