310947543
  -OEChem-07211613022D

 46 50  0     1  0  0  0  0  0999 V2000
    0.3558   -8.2913    0.0000 P   0  0  3  0  0  0  0  0  0  0  0  0
    2.0191  -11.0882    0.0000 F   0  0  0  0  0  0  0  0  0  0  0  0
    2.8440   -9.1043    0.0000 O   0  0  0  0  0  0  0  0  0  0  0  0
    3.6691  -11.0882    0.0000 O   0  0  0  0  0  0  0  0  0  0  0  0
    0.9391   -8.8747    0.0000 O   0  0  0  0  0  0  0  0  0  0  0  0
    5.0105   -6.4468    0.0000 O   0  0  0  0  0  0  0  0  0  0  0  0
   -0.2276   -7.7080    0.0000 O   0  0  0  0  0  0  0  0  0  0  0  0
    0.9391   -7.7080    0.0000 O   0  0  0  0  0  0  0  0  0  0  0  0
   -0.9421  -10.9371    0.0000 O   0  0  0  0  0  0  0  0  0  0  0  0
   -1.6564   -9.6996    0.0000 O   0  0  0  0  0  0  0  0  0  0  0  0
    3.5115   -8.7642    0.0000 N   0  0  0  0  0  0  0  0  0  0  0  0
    3.5115   -7.4293    0.0000 N   0  0  0  0  0  0  0  0  0  0  0  0
    5.0105   -8.9218    0.0000 N   0  0  0  0  0  0  0  0  0  0  0  0
    5.7250   -7.6843    0.0000 N   0  0  0  0  0  0  0  0  0  0  0  0
   -0.2276   -8.8747    0.0000 N   0  0  0  0  0  0  0  0  0  0  0  0
    6.4394   -8.9218    0.0000 N   0  0  0  0  0  0  0  0  0  0  0  0
    3.5115   -9.5891    0.0000 C   0  0  3  0  0  0  0  0  0  0  0  0
    3.2565  -10.3738    0.0000 C   0  0  3  0  0  0  0  0  0  0  0  0
    2.4316  -10.3738    0.0000 C   0  0  3  0  0  0  0  0  0  0  0  0
    4.2960   -8.5092    0.0000 C   0  0  0  0  0  0  0  0  0  0  0  0
    2.1766   -9.5891    0.0000 C   0  0  3  0  0  0  0  0  0  0  0  0
    4.2960   -7.6843    0.0000 C   0  0  0  0  0  0  0  0  0  0  0  0
    3.0265   -8.0968    0.0000 C   0  0  0  0  0  0  0  0  0  0  0  0
    5.0105   -7.2717    0.0000 C   0  0  0  0  0  0  0  0  0  0  0  0
    3.9709   -9.9612    0.0000 C   0  0  0  0  0  0  0  0  0  0  0  0
    1.7640   -8.8747    0.0000 C   0  0  0  0  0  0  0  0  0  0  0  0
    5.7250   -8.5092    0.0000 C   0  0  0  0  0  0  0  0  0  0  0  0
   -0.2276   -6.8830    0.0000 C   0  0  0  0  0  0  0  0  0  0  0  0
   -0.9421   -6.4705    0.0000 C   0  0  0  0  0  0  0  0  0  0  0  0
   -0.9421   -5.6455    0.0000 C   0  0  0  0  0  0  0  0  0  0  0  0
   -0.2276   -9.6996    0.0000 C   0  0  3  0  0  0  0  0  0  0  0  0
    0.4869   -6.4705    0.0000 C   0  0  0  0  0  0  0  0  0  0  0  0
   -1.6564   -6.8830    0.0000 C   0  0  0  0  0  0  0  0  0  0  0  0
    5.7250   -6.0343    0.0000 C   0  0  0  0  0  0  0  0  0  0  0  0
   -0.2276   -5.2330    0.0000 C   0  0  0  0  0  0  0  0  0  0  0  0
    0.4869   -5.6455    0.0000 C   0  0  0  0  0  0  0  0  0  0  0  0
   -0.9421  -10.1122    0.0000 C   0  0  0  0  0  0  0  0  0  0  0  0
   -1.6564   -5.2330    0.0000 C   0  0  0  0  0  0  0  0  0  0  0  0
   -2.3710   -6.4705    0.0000 C   0  0  0  0  0  0  0  0  0  0  0  0
   -2.3710   -5.6455    0.0000 C   0  0  0  0  0  0  0  0  0  0  0  0
    0.4869  -10.1122    0.0000 C   0  0  0  0  0  0  0  0  0  0  0  0
   -1.6564  -11.3496    0.0000 C   0  0  0  0  0  0  0  0  0  0  0  0
   -2.3710  -10.9371    0.0000 C   0  0  0  0  0  0  0  0  0  0  0  0
   -3.0854  -11.3496    0.0000 C   0  0  0  0  0  0  0  0  0  0  0  0
   -2.3710  -10.1122    0.0000 C   0  0  0  0  0  0  0  0  0  0  0  0
   -3.0854  -10.5246    0.0000 C   0  0  0  0  0  0  0  0  0  0  0  0
  1  5  1  0  0  0  0
  1  7  1  0  0  0  0
  1  8  2  0  0  0  0
  1 15  1  0  0  0  0
 19  2  1  6  0  0  0
  3 17  1  0  0  0  0
  3 21  1  0  0  0  0
 18  4  1  6  0  0  0
  5 26  1  0  0  0  0
  6 24  1  0  0  0  0
  6 34  1  0  0  0  0
  7 28  1  0  0  0  0
  9 37  1  0  0  0  0
  9 42  1  0  0  0  0
 10 37  2  0  0  0  0
 11 17  1  0  0  0  0
 11 20  1  0  0  0  0
 11 23  1  0  0  0  0
 12 22  1  0  0  0  0
 12 23  2  0  0  0  0
 13 20  1  0  0  0  0
 13 27  2  0  0  0  0
 14 24  2  0  0  0  0
 14 27  1  0  0  0  0
 15 31  1  0  0  0  0
 16 27  1  0  0  0  0
 17 18  1  0  0  0  0
 18 19  1  0  0  0  0
 18 25  1  1  0  0  0
 19 21  1  0  0  0  0
 20 22  2  0  0  0  0
 21 26  1  1  0  0  0
 22 24  1  0  0  0  0
 28 29  1  0  0  0  0
 28 32  2  0  0  0  0
 29 30  2  0  0  0  0
 29 33  1  0  0  0  0
 30 35  1  0  0  0  0
 30 38  1  0  0  0  0
 31 37  1  0  0  0  0
 31 41  1  1  0  0  0
 32 36  1  0  0  0  0
 33 39  2  0  0  0  0
 35 36  2  0  0  0  0
 38 40  2  0  0  0  0
 39 40  1  0  0  0  0
 42 43  1  0  0  0  0
 43 44  1  0  0  0  0
 43 45  1  0  0  0  0
 43 46  1  0  0  0  0
M  END
> <PUBCHEM_COMPOUND_ID_TYPE>
0

> <PUBCHEM_TOTAL_CHARGE>
0

> <PUBCHEM_SUBSTANCE_ID>
310947543

> <PUBCHEM_SUBSTANCE_VERSION>
1

> <PUBCHEM_EXT_DATASOURCE_NAME>
4488

> <PUBCHEM_EXT_DATASOURCE_REGID>
SCHEMBL16125706

> <PUBCHEM_SUBSTANCE_COMMENT>
InChI=1S/C30H38FN6O8P/c1-17(26(38)42-15-29(2,3)4)36-46(40,45-20-13-9-11-18-10-7-8-12-19(18)20)43-14-21-23(31)30(5,39)27(44-21)37-16-33-22-24(37)34-28(32)35-25(22)41-6/h7-13,16-17,21,23,27,39H,14-15H2,1-6H3,(H,36,40)(H2,32,34,35)/t17-,21+,23+,27?,30+,46?/m0/s1
InChIKey=UWMAMMFKGBCYNE-CLCSBCIJSA-N

> <PUBCHEM_SUBSTANCE_SYNONYM>
SCHEMBL16125706

> <PUBCHEM_XREF_EXT_ID>
SCHEMBL16125706

> <PUBCHEM_EXT_DATASOURCE_URL>
https://www.surechembl.org/

> <PUBCHEM_EXT_SUBSTANCE_URL>
https://www.surechembl.org/chemical/SCHEMBL16125706

> <PUBCHEM_CID_ASSOCIATIONS>
117613265  1

> <PUBCHEM_COORDINATE_TYPE>
1
3

> <PUBCHEM_BONDANNOTATIONS>
18  25  5
19  2  6
21  26  5
31  41  5
18  4  6

$$$$
