310944474
  -OEChem-07211613022D

 32 36  0     0  0  0  0  0  0999 V2000
    2.3677    0.2897    0.0000 O   0  0  0  0  0  0  0  0  0  0  0  0
    5.3315    0.3565    0.0000 O   0  0  0  0  0  0  0  0  0  0  0  0
    5.0752    1.6713    0.0000 O   0  0  0  0  0  0  0  0  0  0  0  0
    3.4039   -0.5571    0.0000 N   0  0  0  0  0  0  0  0  0  0  0  0
    0.5738   -0.4234    0.0000 N   0  0  0  0  0  0  0  0  0  0  0  0
   -3.9944    0.5014    0.0000 N   0  0  0  0  0  0  0  0  0  0  0  0
   -2.2897   -0.9025    0.0000 N   0  0  0  0  0  0  0  0  0  0  0  0
   -2.5571    0.7354    0.0000 N   0  0  0  0  0  0  0  0  0  0  0  0
   -4.6852    0.0334    0.0000 N   0  0  0  0  0  0  0  0  0  0  0  0
   -5.3315    0.5571    0.0000 N   0  0  0  0  0  0  0  0  0  0  0  0
   -5.0417    1.3371    0.0000 N   0  0  0  0  0  0  0  0  0  0  0  0
    2.1449   -1.0028    0.0000 C   0  0  0  0  0  0  0  0  0  0  0  0
    2.6128   -0.3342    0.0000 C   0  0  0  0  0  0  0  0  0  0  0  0
    4.0502   -0.0223    0.0000 C   0  0  0  0  0  0  0  0  0  0  0  0
    2.6908   -1.6713    0.0000 C   0  0  0  0  0  0  0  0  0  0  0  0
    3.4484   -1.3816    0.0000 C   0  0  0  0  0  0  0  0  0  0  0  0
    1.5097   -1.5264    0.0000 C   0  0  0  0  0  0  0  0  0  0  0  0
    2.0223   -0.1894    0.0000 C   0  0  0  0  0  0  0  0  0  0  0  0
    4.0613    0.8134    0.0000 C   0  0  0  0  0  0  0  0  0  0  0  0
    4.8412   -0.3008    0.0000 C   0  0  0  0  0  0  0  0  0  0  0  0
    4.8524    1.0362    0.0000 C   0  0  0  0  0  0  0  0  0  0  0  0
    0.6964   -1.2145    0.0000 C   0  0  0  0  0  0  0  0  0  0  0  0
    1.2424    0.1114    0.0000 C   0  0  0  0  0  0  0  0  0  0  0  0
   -3.2145    0.2117    0.0000 C   0  0  0  0  0  0  0  0  0  0  0  0
   -0.2284   -0.1337    0.0000 C   0  0  0  0  0  0  0  0  0  0  0  0
   -3.0808   -0.6128    0.0000 C   0  0  0  0  0  0  0  0  0  0  0  0
   -1.6435   -0.3565    0.0000 C   0  0  0  0  0  0  0  0  0  0  0  0
    3.5153    1.2145    0.0000 C   0  0  0  0  0  0  0  0  0  0  0  0
   -0.8524   -0.6573    0.0000 C   0  0  0  0  0  0  0  0  0  0  0  0
   -1.7772    0.4568    0.0000 C   0  0  0  0  0  0  0  0  0  0  0  0
   -4.1950    1.2925    0.0000 C   0  0  0  0  0  0  0  0  0  0  0  0
   -3.6045   -1.0473    0.0000 C   0  0  0  0  0  0  0  0  0  0  0  0
  1 13  2  0  0  0  0
  2 20  1  0  0  0  0
  2 21  1  0  0  0  0
  3 21  2  0  0  0  0
  4 13  1  0  0  0  0
  4 14  1  0  0  0  0
  4 16  1  0  0  0  0
  5 22  1  0  0  0  0
  5 23  1  0  0  0  0
  5 25  1  0  0  0  0
  6  9  1  0  0  0  0
  6 24  1  0  0  0  0
  6 31  1  0  0  0  0
  7 26  1  0  0  0  0
  7 27  2  0  0  0  0
  8 24  1  0  0  0  0
  8 30  2  0  0  0  0
  9 10  2  0  0  0  0
 10 11  1  0  0  0  0
 11 31  2  0  0  0  0
 12 13  1  0  0  0  0
 12 15  1  0  0  0  0
 12 17  1  0  0  0  0
 12 18  1  0  0  0  0
 14 19  2  0  0  0  0
 14 20  1  0  0  0  0
 15 16  1  0  0  0  0
 17 22  1  0  0  0  0
 18 23  1  0  0  0  0
 19 21  1  0  0  0  0
 19 28  1  0  0  0  0
 24 26  2  0  0  0  0
 25 29  1  0  0  0  0
 26 32  1  0  0  0  0
 27 29  1  0  0  0  0
 27 30  1  0  0  0  0
M  END
> <PUBCHEM_COMPOUND_ID_TYPE>
0

> <PUBCHEM_TOTAL_CHARGE>
0

> <PUBCHEM_SUBSTANCE_ID>
310944474

> <PUBCHEM_SUBSTANCE_VERSION>
1

> <PUBCHEM_EXT_DATASOURCE_NAME>
4488

> <PUBCHEM_EXT_DATASOURCE_REGID>
SCHEMBL16122549

> <PUBCHEM_SUBSTANCE_COMMENT>
InChI=1S/C21H26N8O3/c1-14-17(12-32-19(14)30)28-10-6-21(20(28)31)4-8-27(9-5-21)7-3-16-11-22-18(15(2)24-16)29-13-23-25-26-29/h11,13H,3-10,12H2,1-2H3
InChIKey=YAFIGBIXJDCEQV-UHFFFAOYSA-N

> <PUBCHEM_SUBSTANCE_SYNONYM>
SCHEMBL16122549

> <PUBCHEM_XREF_EXT_ID>
SCHEMBL16122549

> <PUBCHEM_EXT_DATASOURCE_URL>
https://www.surechembl.org/

> <PUBCHEM_EXT_SUBSTANCE_URL>
https://www.surechembl.org/chemical/SCHEMBL16122549

> <PUBCHEM_CID_ASSOCIATIONS>
117610718  1

> <PUBCHEM_COORDINATE_TYPE>
1
3

$$$$
