310947385
  -OEChem-07211613022D

 26 28  0     0  0  0  0  0  0999 V2000
    0.7270  -15.5242    0.0000 O   0  0  0  0  0  0  0  0  0  0  0  0
   -1.8312  -11.8265    0.0000 O   0  0  0  0  0  0  0  0  0  0  0  0
   -4.6891  -12.6515    0.0000 O   0  0  0  0  0  0  0  0  0  0  0  0
    1.0969  -14.1440    0.0000 N   0  0  0  0  0  0  0  0  0  0  0  0
    1.5817  -13.4765    0.0000 N   0  0  0  0  0  0  0  0  0  0  0  0
   -2.5457  -13.0641    0.0000 N   0  0  0  0  0  0  0  0  0  0  0  0
    0.3122  -13.8891    0.0000 C   0  0  0  0  0  0  0  0  0  0  0  0
    0.3122  -13.0641    0.0000 C   0  0  0  0  0  0  0  0  0  0  0  0
    1.0969  -12.8091    0.0000 C   0  0  0  0  0  0  0  0  0  0  0  0
    1.3104  -14.9409    0.0000 C   0  0  0  0  0  0  0  0  0  0  0  0
   -0.4023  -12.6515    0.0000 C   0  0  0  0  0  0  0  0  0  0  0  0
   -0.4023  -14.3015    0.0000 C   0  0  0  0  0  0  0  0  0  0  0  0
   -1.1168  -13.0641    0.0000 C   0  0  0  0  0  0  0  0  0  0  0  0
    2.1072  -15.1545    0.0000 C   0  0  0  0  0  0  0  0  0  0  0  0
   -1.1168  -13.8891    0.0000 C   0  0  0  0  0  0  0  0  0  0  0  0
   -1.8312  -12.6515    0.0000 C   0  0  0  0  0  0  0  0  0  0  0  0
    1.5093  -12.0946    0.0000 C   0  0  0  0  0  0  0  0  0  0  0  0
    2.3208  -15.9513    0.0000 C   0  0  0  0  0  0  0  0  0  0  0  0
    2.6907  -14.5710    0.0000 C   0  0  0  0  0  0  0  0  0  0  0  0
    3.1176  -16.1649    0.0000 C   0  0  0  0  0  0  0  0  0  0  0  0
    3.4875  -14.7846    0.0000 C   0  0  0  0  0  0  0  0  0  0  0  0
    3.7011  -15.5814    0.0000 C   0  0  0  0  0  0  0  0  0  0  0  0
   -3.2602  -12.6515    0.0000 C   0  0  0  0  0  0  0  0  0  0  0  0
    4.4979  -15.7950    0.0000 C   0  0  0  0  0  0  0  0  0  0  0  0
   -3.9746  -13.0641    0.0000 C   0  0  0  0  0  0  0  0  0  0  0  0
   -5.4036  -13.0641    0.0000 C   0  0  0  0  0  0  0  0  0  0  0  0
  1 10  2  0  0  0  0
  2 16  2  0  0  0  0
  3 25  1  0  0  0  0
  3 26  1  0  0  0  0
  4  5  1  0  0  0  0
  4  7  1  0  0  0  0
  4 10  1  0  0  0  0
  5  9  2  0  0  0  0
  6 16  1  0  0  0  0
  6 23  1  0  0  0  0
  7  8  1  0  0  0  0
  7 12  2  0  0  0  0
  8  9  1  0  0  0  0
  8 11  2  0  0  0  0
  9 17  1  0  0  0  0
 10 14  1  0  0  0  0
 11 13  1  0  0  0  0
 12 15  1  0  0  0  0
 13 15  2  0  0  0  0
 13 16  1  0  0  0  0
 14 18  2  0  0  0  0
 14 19  1  0  0  0  0
 18 20  1  0  0  0  0
 19 21  2  0  0  0  0
 20 22  2  0  0  0  0
 21 22  1  0  0  0  0
 22 24  1  0  0  0  0
 23 25  1  0  0  0  0
M  END
> <PUBCHEM_COMPOUND_ID_TYPE>
0

> <PUBCHEM_TOTAL_CHARGE>
0

> <PUBCHEM_SUBSTANCE_ID>
310947385

> <PUBCHEM_SUBSTANCE_VERSION>
1

> <PUBCHEM_EXT_DATASOURCE_NAME>
4488

> <PUBCHEM_EXT_DATASOURCE_REGID>
SCHEMBL16125541

> <PUBCHEM_SUBSTANCE_COMMENT>
InChI=1S/C20H21N3O3/c1-13-4-6-15(7-5-13)20(25)23-18-9-8-16(12-17(18)14(2)22-23)19(24)21-10-11-26-3/h4-9,12H,10-11H2,1-3H3,(H,21,24)
InChIKey=USNUCNOPOZYEHX-UHFFFAOYSA-N

> <PUBCHEM_SUBSTANCE_SYNONYM>
SCHEMBL16125541

> <PUBCHEM_XREF_EXT_ID>
SCHEMBL16125541

> <PUBCHEM_EXT_DATASOURCE_URL>
https://www.surechembl.org/

> <PUBCHEM_EXT_SUBSTANCE_URL>
https://www.surechembl.org/chemical/SCHEMBL16125541

> <PUBCHEM_CID_ASSOCIATIONS>
117613128  1

> <PUBCHEM_COORDINATE_TYPE>
1
3

$$$$
