310947595
  -OEChem-07211613022D

 29 32  0     1  0  0  0  0  0999 V2000
    1.1746   10.6159    0.0000 Cl  0  0  0  0  0  0  0  0  0  0  0  0
   -1.8169    5.9744    0.0000 F   0  0  0  0  0  0  0  0  0  0  0  0
   -0.9919    7.9584    0.0000 O   0  0  0  0  0  0  0  0  0  0  0  0
   -0.1669    5.9744    0.0000 O   0  0  0  0  0  0  0  0  0  0  0  0
   -1.4044    5.2599    0.0000 O   0  0  0  0  0  0  0  0  0  0  0  0
   -0.3245    8.2984    0.0000 N   0  0  0  0  0  0  0  0  0  0  0  0
   -0.3245    9.6333    0.0000 N   0  0  0  0  0  0  0  0  0  0  0  0
    1.1746    8.1409    0.0000 N   0  0  0  0  0  0  0  0  0  0  0  0
    1.8891    9.3784    0.0000 N   0  0  0  0  0  0  0  0  0  0  0  0
   -0.5794    6.6888    0.0000 C   0  0  3  0  0  0  0  0  0  0  0  0
   -0.3245    7.4734    0.0000 C   0  0  3  0  0  0  0  0  0  0  0  0
   -1.4044    6.6888    0.0000 C   0  0  3  0  0  0  0  0  0  0  0  0
    0.4602    8.5534    0.0000 C   0  0  0  0  0  0  0  0  0  0  0  0
   -1.6593    7.4734    0.0000 C   0  0  3  0  0  0  0  0  0  0  0  0
    0.4602    9.3784    0.0000 C   0  0  0  0  0  0  0  0  0  0  0  0
   -0.8094    8.9659    0.0000 C   0  0  0  0  0  0  0  0  0  0  0  0
    1.1746    9.7909    0.0000 C   0  0  0  0  0  0  0  0  0  0  0  0
    0.2175    6.9023    0.0000 C   0  0  0  0  0  0  0  0  0  0  0  0
   -0.5794    5.2599    0.0000 C   0  0  0  0  0  0  0  0  0  0  0  0
    1.8891    8.5534    0.0000 C   0  0  0  0  0  0  0  0  0  0  0  0
   -2.2427    8.0568    0.0000 C   0  0  0  0  0  0  0  0  0  0  0  0
   -0.1669    4.5454    0.0000 C   0  0  0  0  0  0  0  0  0  0  0  0
    2.6036    8.1409    0.0000 C   0  0  0  0  0  0  0  0  0  0  0  0
   -3.0396    7.8433    0.0000 C   0  0  0  0  0  0  0  0  0  0  0  0
   -0.5794    3.8309    0.0000 C   0  0  0  0  0  0  0  0  0  0  0  0
    0.6581    4.5454    0.0000 C   0  0  0  0  0  0  0  0  0  0  0  0
   -0.1669    3.1165    0.0000 C   0  0  0  0  0  0  0  0  0  0  0  0
    1.0706    3.8309    0.0000 C   0  0  0  0  0  0  0  0  0  0  0  0
    0.6581    3.1165    0.0000 C   0  0  0  0  0  0  0  0  0  0  0  0
  1 17  1  0  0  0  0
 12  2  1  6  0  0  0
 11  3  1  6  0  0  0
  3 14  1  0  0  0  0
 10  4  1  6  0  0  0
  4 19  1  0  0  0  0
  5 19  2  0  0  0  0
  6 11  1  0  0  0  0
  6 13  1  0  0  0  0
  6 16  1  0  0  0  0
  7 15  1  0  0  0  0
  7 16  2  0  0  0  0
  8 13  1  0  0  0  0
  8 20  2  0  0  0  0
  9 17  2  0  0  0  0
  9 20  1  0  0  0  0
 10 11  1  0  0  0  0
 10 12  1  0  0  0  0
 10 18  1  1  0  0  0
 12 14  1  0  0  0  0
 13 15  2  0  0  0  0
 14 21  1  1  0  0  0
 15 17  1  0  0  0  0
 19 22  1  0  0  0  0
 20 23  1  0  0  0  0
 21 24  1  0  0  0  0
 22 25  2  0  0  0  0
 22 26  1  0  0  0  0
 25 27  1  0  0  0  0
 26 28  2  0  0  0  0
 27 29  2  0  0  0  0
 28 29  1  0  0  0  0
M  END
> <PUBCHEM_COMPOUND_ID_TYPE>
0

> <PUBCHEM_TOTAL_CHARGE>
0

> <PUBCHEM_SUBSTANCE_ID>
310947595

> <PUBCHEM_SUBSTANCE_VERSION>
1

> <PUBCHEM_EXT_DATASOURCE_NAME>
4488

> <PUBCHEM_EXT_DATASOURCE_REGID>
SCHEMBL16125758

> <PUBCHEM_SUBSTANCE_COMMENT>
InChI=1S/C20H20ClFN4O3/c1-4-13-15(22)20(3,29-18(27)12-8-6-5-7-9-12)19(28-13)26-10-23-14-16(21)24-11(2)25-17(14)26/h5-10,13,15,19H,4H2,1-3H3/t13-,15-,19-,20-/m1/s1
InChIKey=KFSKDRRXWLCXGY-PRLQIQRYSA-N

> <PUBCHEM_SUBSTANCE_SYNONYM>
SCHEMBL16125758

> <PUBCHEM_XREF_EXT_ID>
SCHEMBL16125758

> <PUBCHEM_EXT_DATASOURCE_URL>
https://www.surechembl.org/

> <PUBCHEM_EXT_SUBSTANCE_URL>
https://www.surechembl.org/chemical/SCHEMBL16125758

> <PUBCHEM_CID_ASSOCIATIONS>
117613317  1

> <PUBCHEM_COORDINATE_TYPE>
1
3

> <PUBCHEM_BONDANNOTATIONS>
10  18  5
14  21  5
12  2  6
11  3  6
10  4  6

$$$$
