310942754
  -OEChem-07211613022D

 57 62  0     1  0  0  0  0  0999 V2000
    0.8611    1.8608    0.0000 F   0  0  0  0  0  0  0  0  0  0  0  0
   -0.4850   -1.1680    0.0000 F   0  0  0  0  0  0  0  0  0  0  0  0
    6.0676   -2.4746    0.0000 F   0  0  0  0  0  0  0  0  0  0  0  0
    2.4251   -1.0096    0.0000 O   0  0  0  0  0  0  0  0  0  0  0  0
    6.0280    1.0690    0.0000 O   0  0  0  0  0  0  0  0  0  0  0  0
    0.9799   -2.6725    0.0000 O   0  0  0  0  0  0  0  0  0  0  0  0
   -5.7113   -1.5243    0.0000 O   0  0  0  0  0  0  0  0  0  0  0  0
   -4.2463   -4.0582    0.0000 O   0  0  0  0  0  0  0  0  0  0  0  0
    0.2673   -1.4254    0.0000 O   0  0  0  0  0  0  0  0  0  0  0  0
   -2.6230   -2.2568    0.0000 O   0  0  0  0  0  0  0  0  0  0  0  0
    3.0585    1.0690    0.0000 N   0  0  0  0  0  0  0  0  0  0  0  0
    3.8504   -1.0096    0.0000 N   0  0  0  0  0  0  0  0  0  0  0  0
    2.3855   -0.0990    0.0000 N   0  0  0  0  0  0  0  0  0  0  0  0
    3.1378   -2.2568    0.0000 N   0  0  0  0  0  0  0  0  0  0  0  0
    4.1671   -3.5237    0.0000 N   0  0  0  0  0  0  0  0  0  0  0  0
   -4.7808   -2.6725    0.0000 N   0  0  0  0  0  0  0  0  0  0  0  0
   -0.4652   -2.6725    0.0000 N   0  0  0  0  0  0  0  0  0  0  0  0
    3.1179    0.2574    0.0000 C   0  0  0  0  0  0  0  0  0  0  0  0
    3.8702   -0.1584    0.0000 C   0  0  3  0  0  0  0  0  0  0  0  0
    1.8312    0.5543    0.0000 C   0  0  0  0  0  0  0  0  0  0  0  0
    4.5630    0.2574    0.0000 C   0  0  0  0  0  0  0  0  0  0  0  0
    2.2667    1.2472    0.0000 C   0  0  0  0  0  0  0  0  0  0  0  0
    0.9997    0.4553    0.0000 C   0  0  0  0  0  0  0  0  0  0  0  0
    3.1773   -1.4055    0.0000 C   0  0  0  0  0  0  0  0  0  0  0  0
    3.6722    1.6233    0.0000 C   0  0  0  0  0  0  0  0  0  0  0  0
    4.5829   -1.4055    0.0000 C   0  0  0  0  0  0  0  0  0  0  0  0
    0.5048    1.1086    0.0000 C   0  0  0  0  0  0  0  0  0  0  0  0
    0.6632   -0.2970    0.0000 C   0  0  0  0  0  0  0  0  0  0  0  0
    4.5829   -2.2370    0.0000 C   0  0  3  0  0  0  0  0  0  0  0  0
    4.6026    1.0888    0.0000 C   0  0  0  0  0  0  0  0  0  0  0  0
    5.3351   -0.1584    0.0000 C   0  0  0  0  0  0  0  0  0  0  0  0
    3.5139    2.4547    0.0000 C   0  0  0  0  0  0  0  0  0  0  0  0
   -0.1484   -0.3959    0.0000 C   0  0  0  0  0  0  0  0  0  0  0  0
   -0.2870    1.0294    0.0000 C   0  0  0  0  0  0  0  0  0  0  0  0
    5.2560   -2.7319    0.0000 C   0  0  3  0  0  0  0  0  0  0  0  0
   -0.6236    0.2771    0.0000 C   0  0  0  0  0  0  0  0  0  0  0  0
    5.2955    1.4847    0.0000 C   0  0  0  0  0  0  0  0  0  0  0  0
    6.0280    0.2574    0.0000 C   0  0  0  0  0  0  0  0  0  0  0  0
    3.9296   -2.7319    0.0000 C   0  0  0  0  0  0  0  0  0  0  0  0
    4.1077    3.0091    0.0000 C   0  0  0  0  0  0  0  0  0  0  0  0
    2.7220    2.7121    0.0000 C   0  0  0  0  0  0  0  0  0  0  0  0
    2.4448   -2.6527    0.0000 C   0  0  3  0  0  0  0  0  0  0  0  0
    4.9986   -3.5237    0.0000 C   0  0  0  0  0  0  0  0  0  0  0  0
    3.9494    3.8009    0.0000 C   0  0  0  0  0  0  0  0  0  0  0  0
    2.5636    3.5237    0.0000 C   0  0  0  0  0  0  0  0  0  0  0  0
    1.6926   -2.2568    0.0000 C   0  0  0  0  0  0  0  0  0  0  0  0
    3.1575    4.0582    0.0000 C   0  0  0  0  0  0  0  0  0  0  0  0
    2.4251   -3.4841    0.0000 C   0  0  0  0  0  0  0  0  0  0  0  0
   -4.8798   -3.4644    0.0000 C   0  0  0  0  0  0  0  0  0  0  0  0
   -5.5132   -2.3360    0.0000 C   0  0  0  0  0  0  0  0  0  0  0  0
    0.2673   -2.2568    0.0000 C   0  0  0  0  0  0  0  0  0  0  0  0
   -6.0676   -2.9299    0.0000 C   0  0  0  0  0  0  0  0  0  0  0  0
   -5.6518   -3.6425    0.0000 C   0  0  0  0  0  0  0  0  0  0  0  0
   -4.0681   -2.2568    0.0000 C   0  0  0  0  0  0  0  0  0  0  0  0
   -3.2961   -2.6527    0.0000 C   0  0  0  0  0  0  0  0  0  0  0  0
   -1.1977   -2.2568    0.0000 C   0  0  0  0  0  0  0  0  0  0  0  0
   -1.8708   -2.6527    0.0000 C   0  0  0  0  0  0  0  0  0  0  0  0
  1 27  1  0  0  0  0
  2 33  1  0  0  0  0
 35  3  1  1  0  0  0
  4 24  2  0  0  0  0
  5 37  1  0  0  0  0
  5 38  1  0  0  0  0
  6 46  1  0  0  0  0
  6 51  1  0  0  0  0
  7 50  2  0  0  0  0
  8 49  2  0  0  0  0
  9 51  2  0  0  0  0
 10 55  1  0  0  0  0
 10 57  1  0  0  0  0
 11 18  1  0  0  0  0
 11 22  1  0  0  0  0
 11 25  1  0  0  0  0
 19 12  1  1  0  0  0
 12 24  1  0  0  0  0
 12 26  1  0  0  0  0
 13 18  2  0  0  0  0
 13 20  1  0  0  0  0
 14 24  1  0  0  0  0
 14 42  1  0  0  0  0
 15 39  1  0  0  0  0
 15 43  1  0  0  0  0
 16 49  1  0  0  0  0
 16 50  1  0  0  0  0
 16 54  1  0  0  0  0
 17 51  1  0  0  0  0
 17 56  1  0  0  0  0
 18 19  1  0  0  0  0
 19 21  1  0  0  0  0
 20 22  2  0  0  0  0
 20 23  1  0  0  0  0
 21 30  1  0  0  0  0
 21 31  1  0  0  0  0
 23 27  2  0  0  0  0
 23 28  1  0  0  0  0
 25 32  1  0  0  0  0
 29 26  1  1  0  0  0
 27 34  1  0  0  0  0
 28 33  2  0  0  0  0
 29 35  1  0  0  0  0
 29 39  1  0  0  0  0
 30 37  1  0  0  0  0
 31 38  1  0  0  0  0
 32 40  2  0  0  0  0
 32 41  1  0  0  0  0
 33 36  1  0  0  0  0
 34 36  2  0  0  0  0
 35 43  1  0  0  0  0
 40 44  1  0  0  0  0
 41 45  2  0  0  0  0
 42 46  1  0  0  0  0
 42 48  1  1  0  0  0
 44 47  2  0  0  0  0
 45 47  1  0  0  0  0
 49 53  1  0  0  0  0
 50 52  1  0  0  0  0
 52 53  1  0  0  0  0
 54 55  1  0  0  0  0
 56 57  1  0  0  0  0
M  END
> <PUBCHEM_COMPOUND_ID_TYPE>
0

> <PUBCHEM_TOTAL_CHARGE>
0

> <PUBCHEM_SUBSTANCE_ID>
310942754

> <PUBCHEM_SUBSTANCE_VERSION>
1

> <PUBCHEM_EXT_DATASOURCE_NAME>
4488

> <PUBCHEM_EXT_DATASOURCE_REGID>
SCHEMBL16120806

> <PUBCHEM_SUBSTANCE_COMMENT>
InChI=1S/C40H50F3N7O7/c1-26(25-57-40(54)45-13-17-56-18-14-49-35(51)9-10-36(49)52)46-39(53)50(23-29-20-44-21-33(29)43)37(28-11-15-55-16-12-28)38-47-34(31-19-30(41)7-8-32(31)42)24-48(38)22-27-5-3-2-4-6-27/h2-8,19,24,26,28-29,33,37,44H,9-18,20-23,25H2,1H3,(H,45,54)(H,46,53)/t26-,29-,33-,37+/m0/s1
InChIKey=IBVOAOQLURWJAM-GQNRCETCSA-N

> <PUBCHEM_SUBSTANCE_SYNONYM>
SCHEMBL16120806

> <PUBCHEM_XREF_EXT_ID>
SCHEMBL16120806

> <PUBCHEM_EXT_DATASOURCE_URL>
https://www.surechembl.org/

> <PUBCHEM_EXT_SUBSTANCE_URL>
https://www.surechembl.org/chemical/SCHEMBL16120806

> <PUBCHEM_CID_ASSOCIATIONS>
117609272  1

> <PUBCHEM_COORDINATE_TYPE>
1
3

> <PUBCHEM_BONDANNOTATIONS>
19  12  5
29  26  5
35  3  5
42  48  5

$$$$
