310943539
  -OEChem-07211613022D

 37 40  0     0  0  0  0  0  0999 V2000
    4.2653   -1.8315    0.0000 F   0  0  0  0  0  0  0  0  0  0  0  0
    4.2653   -2.6565    0.0000 F   0  0  0  0  0  0  0  0  0  0  0  0
   -2.1533   -1.3530    0.0000 F   0  0  0  0  0  0  0  0  0  0  0  0
   -3.5558   -1.5181    0.0000 F   0  0  0  0  0  0  0  0  0  0  0  0
   -2.8628   -0.1980    0.0000 O   0  0  0  0  0  0  0  0  0  0  0  0
    1.4108   -0.1980    0.0000 O   0  0  0  0  0  0  0  0  0  0  0  0
   -4.2818    2.2441    0.0000 O   0  0  0  0  0  0  0  0  0  0  0  0
   -2.8463    1.4355    0.0000 N   0  0  0  0  0  0  0  0  0  0  0  0
   -1.4273   -0.1980    0.0000 N   0  0  0  0  0  0  0  0  0  0  0  0
    2.1368    1.0230    0.0000 N   0  0  0  0  0  0  0  0  0  0  0  0
    0.7013    2.6565    0.0000 N   0  0  0  0  0  0  0  0  0  0  0  0
    4.2653   -1.0230    0.0000 N   0  0  0  0  0  0  0  0  0  0  0  0
   -0.7177    1.0395    0.0000 C   0  0  0  0  0  0  0  0  0  0  0  0
   -2.1368    1.0395    0.0000 C   0  0  0  0  0  0  0  0  0  0  0  0
   -0.0247    1.4520    0.0000 C   0  0  0  0  0  0  0  0  0  0  0  0
   -2.1533    0.2145    0.0000 C   0  0  0  0  0  0  0  0  0  0  0  0
   -1.4438    1.4355    0.0000 C   0  0  0  0  0  0  0  0  0  0  0  0
   -0.0083    2.2605    0.0000 C   0  0  0  0  0  0  0  0  0  0  0  0
    0.7177    1.0395    0.0000 C   0  0  0  0  0  0  0  0  0  0  0  0
   -0.7177    0.2145    0.0000 C   0  0  0  0  0  0  0  0  0  0  0  0
    1.4108    1.4355    0.0000 C   0  0  0  0  0  0  0  0  0  0  0  0
    3.5558   -1.4191    0.0000 C   0  0  0  0  0  0  0  0  0  0  0  0
    2.8463   -0.1815    0.0000 C   0  0  0  0  0  0  0  0  0  0  0  0
    3.5558   -2.2275    0.0000 C   0  0  0  0  0  0  0  0  0  0  0  0
    2.1368    0.2310    0.0000 C   0  0  0  0  0  0  0  0  0  0  0  0
    1.4273    2.2605    0.0000 C   0  0  0  0  0  0  0  0  0  0  0  0
    2.8463   -1.0065    0.0000 C   0  0  0  0  0  0  0  0  0  0  0  0
   -2.8628    2.2605    0.0000 C   0  0  0  0  0  0  0  0  0  0  0  0
   -3.5393    1.0395    0.0000 C   0  0  0  0  0  0  0  0  0  0  0  0
    3.5558    0.2145    0.0000 C   0  0  0  0  0  0  0  0  0  0  0  0
    4.2818   -0.1980    0.0000 C   0  0  0  0  0  0  0  0  0  0  0  0
   -0.7343    2.6565    0.0000 C   0  0  0  0  0  0  0  0  0  0  0  0
   -2.8628   -1.0230    0.0000 C   0  0  0  0  0  0  0  0  0  0  0  0
    2.8628   -2.6400    0.0000 C   0  0  0  0  0  0  0  0  0  0  0  0
   -3.5888    2.6565    0.0000 C   0  0  0  0  0  0  0  0  0  0  0  0
   -4.2653    1.4355    0.0000 C   0  0  0  0  0  0  0  0  0  0  0  0
    2.1203   -2.2441    0.0000 C   0  0  0  0  0  0  0  0  0  0  0  0
  1 24  1  0  0  0  0
  2 24  1  0  0  0  0
  3 33  1  0  0  0  0
  4 33  1  0  0  0  0
  5 16  1  0  0  0  0
  5 33  1  0  0  0  0
  6 25  2  0  0  0  0
  7 35  1  0  0  0  0
  7 36  1  0  0  0  0
  8 14  1  0  0  0  0
  8 28  1  0  0  0  0
  8 29  1  0  0  0  0
  9 16  1  0  0  0  0
  9 20  2  0  0  0  0
 10 21  1  0  0  0  0
 10 25  1  0  0  0  0
 11 18  2  0  0  0  0
 11 26  1  0  0  0  0
 12 22  2  0  0  0  0
 12 31  1  0  0  0  0
 13 15  1  0  0  0  0
 13 17  2  0  0  0  0
 13 20  1  0  0  0  0
 14 16  2  0  0  0  0
 14 17  1  0  0  0  0
 15 18  1  0  0  0  0
 15 19  2  0  0  0  0
 18 32  1  0  0  0  0
 19 21  1  0  0  0  0
 21 26  2  0  0  0  0
 22 24  1  0  0  0  0
 22 27  1  0  0  0  0
 23 25  1  0  0  0  0
 23 27  2  0  0  0  0
 23 30  1  0  0  0  0
 24 34  1  0  0  0  0
 28 35  1  0  0  0  0
 29 36  1  0  0  0  0
 30 31  2  0  0  0  0
 34 37  1  0  0  0  0
M  END
> <PUBCHEM_COMPOUND_ID_TYPE>
0

> <PUBCHEM_TOTAL_CHARGE>
0

> <PUBCHEM_SUBSTANCE_ID>
310943539

> <PUBCHEM_SUBSTANCE_VERSION>
1

> <PUBCHEM_EXT_DATASOURCE_NAME>
4488

> <PUBCHEM_EXT_DATASOURCE_REGID>
SCHEMBL16121605

> <PUBCHEM_SUBSTANCE_COMMENT>
InChI=1S/C25H25F4N5O3/c1-3-25(28,29)21-11-16(4-5-30-21)22(35)33-18-12-19(15(2)31-14-18)17-10-20(34-6-8-36-9-7-34)23(32-13-17)37-24(26)27/h4-5,10-14,24H,3,6-9H2,1-2H3,(H,33,35)
InChIKey=ZMFDJIBBQLCZFU-UHFFFAOYSA-N

> <PUBCHEM_SUBSTANCE_SYNONYM>
SCHEMBL16121605

> <PUBCHEM_XREF_EXT_ID>
SCHEMBL16121605

> <PUBCHEM_EXT_DATASOURCE_URL>
https://www.surechembl.org/

> <PUBCHEM_EXT_SUBSTANCE_URL>
https://www.surechembl.org/chemical/SCHEMBL16121605

> <PUBCHEM_CID_ASSOCIATIONS>
117609952  1

> <PUBCHEM_COORDINATE_TYPE>
1
3

$$$$
