310931563
  -OEChem-07211613022D

 21 21  0     1  0  0  0  0  0999 V2000
   -0.1232    0.5475    0.0000 O   0  0  0  0  0  0  0  0  0  0  0  0
   -3.6956    0.1350    0.0000 O   0  0  0  0  0  0  0  0  0  0  0  0
    1.5165    1.2776    0.0000 O   0  0  0  0  0  0  0  0  0  0  0  0
    0.0644   -1.2375    0.0000 O   0  0  0  0  0  0  0  0  0  0  0  0
   -0.8377   -0.6900    0.0000 O   0  0  0  0  0  0  0  0  0  0  0  0
   -2.9811    1.3725    0.0000 O   0  0  0  0  0  0  0  0  0  0  0  0
    0.5912    0.1350    0.0000 N   0  0  0  0  0  0  0  0  0  0  0  0
   -2.2666    0.1350    0.0000 N   0  0  0  0  0  0  0  0  0  0  0  0
    0.6775   -0.6855    0.0000 C   0  0  0  0  0  0  0  0  0  0  0  0
    1.3449    0.4705    0.0000 C   0  0  0  0  0  0  0  0  0  0  0  0
   -0.8377    0.1350    0.0000 C   0  0  0  0  0  0  0  0  0  0  0  0
   -1.5522    0.5475    0.0000 C   0  0  3  0  0  0  0  0  0  0  0  0
    1.4845   -0.8570    0.0000 C   0  0  0  0  0  0  0  0  0  0  0  0
    1.8970   -0.1425    0.0000 C   0  0  0  0  0  0  0  0  0  0  0  0
   -2.9811    0.5475    0.0000 C   0  0  0  0  0  0  0  0  0  0  0  0
   -4.4100    0.5475    0.0000 C   0  0  0  0  0  0  0  0  0  0  0  0
   -1.5522    1.3725    0.0000 C   0  0  0  0  0  0  0  0  0  0  0  0
   -4.4100    1.3725    0.0000 C   0  0  0  0  0  0  0  0  0  0  0  0
   -5.1245    0.9600    0.0000 C   0  0  0  0  0  0  0  0  0  0  0  0
   -5.1245    0.1350    0.0000 C   0  0  0  0  0  0  0  0  0  0  0  0
   -0.8377    1.7850    0.0000 C   0  0  0  0  0  0  0  0  0  0  0  0
  1  7  1  0  0  0  0
  1 11  1  0  0  0  0
  2 15  1  0  0  0  0
  2 16  1  0  0  0  0
  3 10  2  0  0  0  0
  4  9  2  0  0  0  0
  5 11  2  0  0  0  0
  6 15  2  0  0  0  0
  7  9  1  0  0  0  0
  7 10  1  0  0  0  0
 12  8  1  1  0  0  0
  8 15  1  0  0  0  0
  9 13  1  0  0  0  0
 10 14  1  0  0  0  0
 11 12  1  0  0  0  0
 12 17  1  0  0  0  0
 13 14  1  0  0  0  0
 16 18  1  0  0  0  0
 16 19  1  0  0  0  0
 16 20  1  0  0  0  0
 17 21  1  0  0  0  0
M  END
> <PUBCHEM_COMPOUND_ID_TYPE>
0

> <PUBCHEM_TOTAL_CHARGE>
0

> <PUBCHEM_SUBSTANCE_ID>
310931563

> <PUBCHEM_SUBSTANCE_VERSION>
1

> <PUBCHEM_EXT_DATASOURCE_NAME>
4488

> <PUBCHEM_EXT_DATASOURCE_REGID>
SCHEMBL16108889

> <PUBCHEM_SUBSTANCE_COMMENT>
InChI=1S/C13H20N2O6/c1-5-8(14-12(19)20-13(2,3)4)11(18)21-15-9(16)6-7-10(15)17/h8H,5-7H2,1-4H3,(H,14,19)/t8-/m0/s1
InChIKey=HLTFLYMXIANSTL-QMMMGPOBSA-N

> <PUBCHEM_SUBSTANCE_SYNONYM>
SCHEMBL16108889

> <PUBCHEM_XREF_EXT_ID>
SCHEMBL16108889

> <PUBCHEM_EXT_DATASOURCE_URL>
https://www.surechembl.org/

> <PUBCHEM_EXT_SUBSTANCE_URL>
https://www.surechembl.org/chemical/SCHEMBL16108889

> <PUBCHEM_CID_ASSOCIATIONS>
13875533  1

> <PUBCHEM_COORDINATE_TYPE>
1
3

> <PUBCHEM_BONDANNOTATIONS>
12  8  5

$$$$
