310933212
  -OEChem-07211613022D

 29 33  0     0  0  0  0  0  0999 V2000
    1.2692   -2.5067    0.0000 Cl  0  0  0  0  0  0  0  0  0  0  0  0
    4.0932    0.0000    0.0000 F   0  0  0  0  0  0  0  0  0  0  0  0
    0.0000   -5.2672    0.0000 O   0  0  0  0  0  0  0  0  0  0  0  0
    5.5211   -4.1249    0.0000 O   0  0  0  0  0  0  0  0  0  0  0  0
    4.2201   -3.4904    0.0000 N   0  0  0  0  0  0  0  0  0  0  0  0
    4.2201   -4.7913    0.0000 N   0  0  0  0  0  0  0  0  0  0  0  0
    2.6654   -0.8250    0.0000 N   0  0  0  0  0  0  0  0  0  0  0  0
    0.4125   -5.9970    0.0000 N   0  0  0  0  0  0  0  0  0  0  0  0
    2.6971   -3.2999    0.0000 C   0  0  0  0  0  0  0  0  0  0  0  0
    2.6971   -2.4749    0.0000 C   0  0  0  0  0  0  0  0  0  0  0  0
    3.4269   -3.7125    0.0000 C   0  0  0  0  0  0  0  0  0  0  0  0
    3.4269   -4.5692    0.0000 C   0  0  0  0  0  0  0  0  0  0  0  0
    3.3951   -2.0625    0.0000 C   0  0  0  0  0  0  0  0  0  0  0  0
    1.9990   -4.5692    0.0000 C   0  0  0  0  0  0  0  0  0  0  0  0
    1.9990   -3.7125    0.0000 C   0  0  0  0  0  0  0  0  0  0  0  0
    1.3010   -4.9817    0.0000 C   0  0  0  0  0  0  0  0  0  0  0  0
    3.3951   -1.2375    0.0000 C   0  0  0  0  0  0  0  0  0  0  0  0
    1.9673   -2.0942    0.0000 C   0  0  0  0  0  0  0  0  0  0  0  0
    2.6971   -4.9499    0.0000 C   0  0  0  0  0  0  0  0  0  0  0  0
    4.7278   -4.1249    0.0000 C   0  0  0  0  0  0  0  0  0  0  0  0
    0.5394   -4.6643    0.0000 C   0  0  0  0  0  0  0  0  0  0  0  0
    1.2058   -5.8067    0.0000 C   0  0  0  0  0  0  0  0  0  0  0  0
    4.0932   -0.8250    0.0000 C   0  0  0  0  0  0  0  0  0  0  0  0
    4.1249   -2.4749    0.0000 C   0  0  0  0  0  0  0  0  0  0  0  0
    1.9673   -1.2692    0.0000 C   0  0  0  0  0  0  0  0  0  0  0  0
    4.8230   -1.2375    0.0000 C   0  0  0  0  0  0  0  0  0  0  0  0
    4.8230   -2.0625    0.0000 C   0  0  0  0  0  0  0  0  0  0  0  0
    0.3490   -3.8394    0.0000 C   0  0  0  0  0  0  0  0  0  0  0  0
    1.8404   -6.3461    0.0000 C   0  0  0  0  0  0  0  0  0  0  0  0
  1 18  1  0  0  0  0
  2 23  1  0  0  0  0
  3  8  1  0  0  0  0
  3 21  1  0  0  0  0
  4 20  2  0  0  0  0
  5 11  1  0  0  0  0
  5 20  1  0  0  0  0
  6 12  1  0  0  0  0
  6 20  1  0  0  0  0
  7 17  2  0  0  0  0
  7 25  1  0  0  0  0
  8 22  2  0  0  0  0
  9 10  1  0  0  0  0
  9 11  1  0  0  0  0
  9 15  2  0  0  0  0
 10 13  2  0  0  0  0
 10 18  1  0  0  0  0
 11 12  2  0  0  0  0
 12 19  1  0  0  0  0
 13 17  1  0  0  0  0
 13 24  1  0  0  0  0
 14 15  1  0  0  0  0
 14 16  1  0  0  0  0
 14 19  2  0  0  0  0
 16 21  2  0  0  0  0
 16 22  1  0  0  0  0
 17 23  1  0  0  0  0
 18 25  2  0  0  0  0
 21 28  1  0  0  0  0
 22 29  1  0  0  0  0
 23 26  2  0  0  0  0
 24 27  2  0  0  0  0
 26 27  1  0  0  0  0
M  END
> <PUBCHEM_COMPOUND_ID_TYPE>
0

> <PUBCHEM_TOTAL_CHARGE>
0

> <PUBCHEM_SUBSTANCE_ID>
310933212

> <PUBCHEM_SUBSTANCE_VERSION>
1

> <PUBCHEM_EXT_DATASOURCE_NAME>
4488

> <PUBCHEM_EXT_DATASOURCE_REGID>
SCHEMBL16110621

> <PUBCHEM_SUBSTANCE_COMMENT>
InChI=1S/C21H14ClFN4O2/c1-9-17(10(2)29-27-9)11-6-13(20-16(7-11)25-21(28)26-20)18-12-4-3-5-15(23)19(12)24-8-14(18)22/h3-8H,1-2H3,(H2,25,26,28)
InChIKey=DTEYBUZANDQBAB-UHFFFAOYSA-N

> <PUBCHEM_SUBSTANCE_SYNONYM>
SCHEMBL16110621

> <PUBCHEM_XREF_EXT_ID>
SCHEMBL16110621

> <PUBCHEM_EXT_DATASOURCE_URL>
https://www.surechembl.org/

> <PUBCHEM_EXT_SUBSTANCE_URL>
https://www.surechembl.org/chemical/SCHEMBL16110621

> <PUBCHEM_CID_ASSOCIATIONS>
117601649  1

> <PUBCHEM_COORDINATE_TYPE>
1
3

$$$$
