310934390
  -OEChem-07211613022D

 27 30  0     0  0  0  0  0  0999 V2000
    0.0000   -3.6861    0.0000 Cl  0  0  0  0  0  0  0  0  0  0  0  0
    5.8496   -2.6176    0.0000 O   0  0  0  0  0  0  0  0  0  0  0  0
    0.6944    0.0000    0.0000 O   0  0  0  0  0  0  0  0  0  0  0  0
    2.1101    0.0000    0.0000 N   0  0  0  0  0  0  0  0  0  0  0  0
    2.1101   -2.4574    0.0000 N   0  0  0  0  0  0  0  0  0  0  0  0
    6.2770   -1.9232    0.0000 N   0  0  0  0  0  0  0  0  0  0  0  0
    2.8313   -1.2287    0.0000 C   0  0  0  0  0  0  0  0  0  0  0  0
    4.2470   -1.2287    0.0000 C   0  0  0  0  0  0  0  0  0  0  0  0
    4.9681   -1.6561    0.0000 C   0  0  0  0  0  0  0  0  0  0  0  0
    2.8313   -0.4007    0.0000 C   0  0  0  0  0  0  0  0  0  0  0  0
    2.1101   -1.6561    0.0000 C   0  0  0  0  0  0  0  0  0  0  0  0
    3.5258   -1.6561    0.0000 C   0  0  0  0  0  0  0  0  0  0  0  0
    5.0483   -2.4574    0.0000 C   0  0  0  0  0  0  0  0  0  0  0  0
    5.7160   -1.3088    0.0000 C   0  0  0  0  0  0  0  0  0  0  0  0
    4.2470   -0.4007    0.0000 C   0  0  0  0  0  0  0  0  0  0  0  0
    3.5258    0.0000    0.0000 C   0  0  0  0  0  0  0  0  0  0  0  0
    1.3890   -1.2287    0.0000 C   0  0  0  0  0  0  0  0  0  0  0  0
    1.3890   -0.4007    0.0000 C   0  0  0  0  0  0  0  0  0  0  0  0
    1.4157   -2.8847    0.0000 C   0  0  0  0  0  0  0  0  0  0  0  0
    1.4157   -3.6861    0.0000 C   0  0  0  0  0  0  0  0  0  0  0  0
    4.4606   -3.0183    0.0000 C   0  0  0  0  0  0  0  0  0  0  0  0
    5.8763   -0.5075    0.0000 C   0  0  0  0  0  0  0  0  0  0  0  0
    0.6944   -4.1134    0.0000 C   0  0  0  0  0  0  0  0  0  0  0  0
    2.1101   -4.1134    0.0000 C   0  0  0  0  0  0  0  0  0  0  0  0
    0.6944   -4.9415    0.0000 C   0  0  0  0  0  0  0  0  0  0  0  0
    2.1101   -4.9415    0.0000 C   0  0  0  0  0  0  0  0  0  0  0  0
    1.3890   -5.3421    0.0000 C   0  0  0  0  0  0  0  0  0  0  0  0
  1 23  1  0  0  0  0
  2  6  1  0  0  0  0
  2 13  1  0  0  0  0
  3 18  2  0  0  0  0
  4 10  1  0  0  0  0
  4 18  1  0  0  0  0
  5 11  1  0  0  0  0
  5 19  1  0  0  0  0
  6 14  2  0  0  0  0
  7 10  2  0  0  0  0
  7 11  1  0  0  0  0
  7 12  1  0  0  0  0
  8  9  1  0  0  0  0
  8 12  2  0  0  0  0
  8 15  1  0  0  0  0
  9 13  2  0  0  0  0
  9 14  1  0  0  0  0
 10 16  1  0  0  0  0
 11 17  2  0  0  0  0
 13 21  1  0  0  0  0
 14 22  1  0  0  0  0
 15 16  2  0  0  0  0
 17 18  1  0  0  0  0
 19 20  1  0  0  0  0
 20 23  2  0  0  0  0
 20 24  1  0  0  0  0
 23 25  1  0  0  0  0
 24 26  2  0  0  0  0
 25 27  2  0  0  0  0
 26 27  1  0  0  0  0
M  END
> <PUBCHEM_COMPOUND_ID_TYPE>
0

> <PUBCHEM_TOTAL_CHARGE>
0

> <PUBCHEM_SUBSTANCE_ID>
310934390

> <PUBCHEM_SUBSTANCE_VERSION>
1

> <PUBCHEM_EXT_DATASOURCE_NAME>
4488

> <PUBCHEM_EXT_DATASOURCE_REGID>
SCHEMBL16111861

> <PUBCHEM_SUBSTANCE_COMMENT>
InChI=1S/C21H18ClN3O2/c1-12-21(13(2)27-25-12)14-7-8-18-16(9-14)19(10-20(26)24-18)23-11-15-5-3-4-6-17(15)22/h3-10H,11H2,1-2H3,(H2,23,24,26)
InChIKey=ZLSFHNBGYXITTM-UHFFFAOYSA-N

> <PUBCHEM_SUBSTANCE_SYNONYM>
SCHEMBL16111861

> <PUBCHEM_XREF_EXT_ID>
SCHEMBL16111861

> <PUBCHEM_EXT_DATASOURCE_URL>
https://www.surechembl.org/

> <PUBCHEM_EXT_SUBSTANCE_URL>
https://www.surechembl.org/chemical/SCHEMBL16111861

> <PUBCHEM_CID_ASSOCIATIONS>
117602614  1

> <PUBCHEM_COORDINATE_TYPE>
1
3

$$$$
