310942594
  -OEChem-07211613022D

 44 49  0     1  0  0  0  0  0999 V2000
    1.7750    0.6815    0.0000 O   0  0  0  0  0  0  0  0  0  0  0  0
    2.2842   -1.4604    0.0000 O   0  0  0  0  0  0  0  0  0  0  0  0
    1.0560   -1.3705    0.0000 O   0  0  0  0  0  0  0  0  0  0  0  0
    3.1980    0.3370    0.0000 N   0  0  0  0  0  0  0  0  0  0  0  0
    3.8869   -1.0260    0.0000 N   0  0  0  0  0  0  0  0  0  0  0  0
   -0.3220    0.2322    0.0000 N   0  0  3  0  0  0  0  0  0  0  0  0
    5.3098   -0.9211    0.0000 N   0  0  0  0  0  0  0  0  0  0  0  0
    5.9390    0.3670    0.0000 N   0  0  0  0  0  0  0  0  0  0  0  0
   -2.6587   -1.2806    0.0000 N   0  0  0  0  0  0  0  0  0  0  0  0
   -3.3178   -2.4789    0.0000 N   0  0  0  0  0  0  0  0  0  0  0  0
    3.8419   -0.1573    0.0000 C   0  0  0  0  0  0  0  0  0  0  0  0
    4.5011    0.2921    0.0000 C   0  0  0  0  0  0  0  0  0  0  0  0
    2.4040    0.1124    0.0000 C   0  0  3  0  0  0  0  0  0  0  0  0
    4.3063    1.1009    0.0000 C   0  0  0  0  0  0  0  0  0  0  0  0
    2.0744   -0.6217    0.0000 C   0  0  3  0  0  0  0  0  0  0  0  0
    3.4824    1.1308    0.0000 C   0  0  0  0  0  0  0  0  0  0  0  0
    1.1159    0.2621    0.0000 C   0  0  3  0  0  0  0  0  0  0  0  0
    1.2657   -0.5468    0.0000 C   0  0  3  0  0  0  0  0  0  0  0  0
    5.2649   -0.0824    0.0000 C   0  0  0  0  0  0  0  0  0  0  0  0
    4.8005    1.7750    0.0000 C   0  0  0  0  0  0  0  0  0  0  0  0
    0.3670    0.6367    0.0000 C   0  0  0  0  0  0  0  0  0  0  0  0
    4.6209   -1.4005    0.0000 C   0  0  0  0  0  0  0  0  0  0  0  0
   -0.5468   -0.5767    0.0000 C   0  0  0  0  0  0  0  0  0  0  0  0
   -0.8313   -1.7001    0.0000 C   0  0  0  0  0  0  0  0  0  0  0  0
   -1.2357   -0.9961    0.0000 C   0  0  0  0  0  0  0  0  0  0  0  0
   -0.1423   -1.3106    0.0000 C   0  0  0  0  0  0  0  0  0  0  0  0
   -1.0560    0.6516    0.0000 C   0  0  0  0  0  0  0  0  0  0  0  0
   -3.4824   -1.1009    0.0000 C   0  0  0  0  0  0  0  0  0  0  0  0
   -3.8869   -1.8499    0.0000 C   0  0  0  0  0  0  0  0  0  0  0  0
    4.5160    2.5388    0.0000 C   0  0  0  0  0  0  0  0  0  0  0  0
    5.6244    1.6401    0.0000 C   0  0  0  0  0  0  0  0  0  0  0  0
   -2.5987   -2.1044    0.0000 C   0  0  0  0  0  0  0  0  0  0  0  0
   -4.7107   -0.3820    0.0000 C   0  0  0  0  0  0  0  0  0  0  0  0
   -1.0560   -2.5388    0.0000 C   0  0  0  0  0  0  0  0  0  0  0  0
   -3.8869   -0.3969    0.0000 C   0  0  0  0  0  0  0  0  0  0  0  0
   -1.8948   -2.5238    0.0000 C   0  0  0  0  0  0  0  0  0  0  0  0
   -5.1300    0.3370    0.0000 C   0  0  0  0  0  0  0  0  0  0  0  0
   -4.7107   -1.8499    0.0000 C   0  0  0  0  0  0  0  0  0  0  0  0
   -5.1151   -1.1308    0.0000 C   0  0  0  0  0  0  0  0  0  0  0  0
   -1.0560    1.4904    0.0000 C   0  0  0  0  0  0  0  0  0  0  0  0
   -1.7450    0.2621    0.0000 C   0  0  0  0  0  0  0  0  0  0  0  0
   -5.9390    0.3070    0.0000 C   0  0  0  0  0  0  0  0  0  0  0  0
   -5.5495    1.0710    0.0000 C   0  0  0  0  0  0  0  0  0  0  0  0
   -4.7407    1.0710    0.0000 C   0  0  0  0  0  0  0  0  0  0  0  0
 13  1  1  1  0  0  0
  1 17  1  0  0  0  0
 15  2  1  6  0  0  0
 18  3  1  6  0  0  0
  4 11  1  0  0  0  0
  4 13  1  0  0  0  0
  4 16  1  0  0  0  0
  5 11  1  0  0  0  0
  5 22  2  0  0  0  0
  6 21  1  0  0  0  0
 23  6  1  1  0  0  0
  6 27  1  0  0  0  0
  7 19  2  0  0  0  0
  7 22  1  0  0  0  0
  8 19  1  0  0  0  0
  9 28  1  0  0  0  0
  9 32  2  0  0  0  0
 10 29  1  0  0  0  0
 10 32  1  0  0  0  0
 11 12  2  0  0  0  0
 12 14  1  0  0  0  0
 12 19  1  0  0  0  0
 13 15  1  0  0  0  0
 14 16  2  0  0  0  0
 14 20  1  0  0  0  0
 15 18  1  0  0  0  0
 17 18  1  0  0  0  0
 17 21  1  1  0  0  0
 20 30  1  0  0  0  0
 20 31  1  0  0  0  0
 23 25  1  0  0  0  0
 23 26  1  0  0  0  0
 24 25  1  0  0  0  0
 24 26  1  0  0  0  0
 24 34  1  1  0  0  0
 27 40  1  0  0  0  0
 27 41  1  0  0  0  0
 28 29  2  0  0  0  0
 28 35  1  0  0  0  0
 29 38  1  0  0  0  0
 32 36  1  0  0  0  0
 33 35  2  0  0  0  0
 33 37  1  0  0  0  0
 33 39  1  0  0  0  0
 34 36  1  0  0  0  0
 37 42  1  0  0  0  0
 37 43  1  0  0  0  0
 37 44  1  0  0  0  0
 38 39  2  0  0  0  0
M  END
> <PUBCHEM_COMPOUND_ID_TYPE>
0

> <PUBCHEM_TOTAL_CHARGE>
0

> <PUBCHEM_SUBSTANCE_ID>
310942594

> <PUBCHEM_SUBSTANCE_VERSION>
1

> <PUBCHEM_EXT_DATASOURCE_NAME>
4488

> <PUBCHEM_EXT_DATASOURCE_REGID>
SCHEMBL16120639

> <PUBCHEM_SUBSTANCE_COMMENT>
InChI=1S/C34H49N7O3/c1-18(2)23-15-41(32-28(23)31(35)36-17-37-32)33-30(43)29(42)26(44-33)16-40(19(3)4)22-12-20(13-22)8-11-27-38-24-10-9-21(34(5,6)7)14-25(24)39-27/h9-10,14-15,17-20,22,26,29-30,33,42-43H,8,11-13,16H2,1-7H3,(H,38,39)(H2,35,36,37)/t20-,22+,26-,29-,30-,33-/m1/s1
InChIKey=OFPWJRPECMLVFQ-RNLUMUQESA-N

> <PUBCHEM_SUBSTANCE_SYNONYM>
SCHEMBL16120639

> <PUBCHEM_XREF_EXT_ID>
SCHEMBL16120639

> <PUBCHEM_EXT_DATASOURCE_URL>
https://www.surechembl.org/

> <PUBCHEM_EXT_SUBSTANCE_URL>
https://www.surechembl.org/chemical/SCHEMBL16120639

> <PUBCHEM_CID_ASSOCIATIONS>
86272338  1

> <PUBCHEM_COORDINATE_TYPE>
1
3

> <PUBCHEM_BONDANNOTATIONS>
13  1  5
17  21  5
15  2  6
24  34  5
18  3  6
23  6  5

$$$$
