310933832
  -OEChem-07211613022D

 33 37  0     0  0  0  0  0  0999 V2000
    5.5946   -1.6500    0.0000 S   0  0  0  0  0  0  0  0  0  0  0  0
    0.0000   -1.9336    0.0000 O   0  0  0  0  0  0  0  0  0  0  0  0
    1.3148    0.0000    0.0000 O   0  0  0  0  0  0  0  0  0  0  0  0
    5.1820   -2.3719    0.0000 O   0  0  0  0  0  0  0  0  0  0  0  0
    6.0070   -0.9281    0.0000 O   0  0  0  0  0  0  0  0  0  0  0  0
    7.7344   -2.8875    0.0000 O   0  0  0  0  0  0  0  0  0  0  0  0
    2.7328    0.0000    0.0000 N   0  0  0  0  0  0  0  0  0  0  0  0
    6.2907   -2.0625    0.0000 N   0  0  0  0  0  0  0  0  0  0  0  0
    0.4125   -2.6555    0.0000 N   0  0  0  0  0  0  0  0  0  0  0  0
    3.4547   -3.7383    0.0000 N   0  0  0  0  0  0  0  0  0  0  0  0
    2.7328   -1.6500    0.0000 C   0  0  0  0  0  0  0  0  0  0  0  0
    2.0110   -1.2375    0.0000 C   0  0  0  0  0  0  0  0  0  0  0  0
    3.4547   -1.2375    0.0000 C   0  0  0  0  0  0  0  0  0  0  0  0
    3.4547   -0.4125    0.0000 C   0  0  0  0  0  0  0  0  0  0  0  0
    1.3148   -1.6500    0.0000 C   0  0  0  0  0  0  0  0  0  0  0  0
    2.0110   -0.4125    0.0000 C   0  0  0  0  0  0  0  0  0  0  0  0
    4.8727   -1.2375    0.0000 C   0  0  0  0  0  0  0  0  0  0  0  0
    4.1508   -1.6500    0.0000 C   0  0  0  0  0  0  0  0  0  0  0  0
    2.7328   -2.4750    0.0000 C   0  0  0  0  0  0  0  0  0  0  0  0
    0.5414   -1.3406    0.0000 C   0  0  0  0  0  0  0  0  0  0  0  0
    1.2117   -2.4750    0.0000 C   0  0  0  0  0  0  0  0  0  0  0  0
    4.1508    0.0000    0.0000 C   0  0  0  0  0  0  0  0  0  0  0  0
    4.8727   -0.4125    0.0000 C   0  0  0  0  0  0  0  0  0  0  0  0
    3.4547   -2.9133    0.0000 C   0  0  0  0  0  0  0  0  0  0  0  0
    2.0367   -2.9133    0.0000 C   0  0  0  0  0  0  0  0  0  0  0  0
    7.0125   -1.6500    0.0000 C   0  0  0  0  0  0  0  0  0  0  0  0
    6.2907   -2.8875    0.0000 C   0  0  0  0  0  0  0  0  0  0  0  0
    0.3610   -0.5156    0.0000 C   0  0  0  0  0  0  0  0  0  0  0  0
    1.8305   -3.0164    0.0000 C   0  0  0  0  0  0  0  0  0  0  0  0
    2.0367   -3.7383    0.0000 C   0  0  0  0  0  0  0  0  0  0  0  0
    2.7328   -4.1766    0.0000 C   0  0  0  0  0  0  0  0  0  0  0  0
    7.7344   -2.0625    0.0000 C   0  0  0  0  0  0  0  0  0  0  0  0
    7.0125   -3.3000    0.0000 C   0  0  0  0  0  0  0  0  0  0  0  0
  1  4  2  0  0  0  0
  1  5  2  0  0  0  0
  1  8  1  0  0  0  0
  1 17  1  0  0  0  0
  2  9  1  0  0  0  0
  2 20  1  0  0  0  0
  3 16  2  0  0  0  0
  6 32  1  0  0  0  0
  6 33  1  0  0  0  0
  7 14  1  0  0  0  0
  7 16  1  0  0  0  0
  8 26  1  0  0  0  0
  8 27  1  0  0  0  0
  9 21  2  0  0  0  0
 10 24  1  0  0  0  0
 10 31  2  0  0  0  0
 11 12  2  0  0  0  0
 11 13  1  0  0  0  0
 11 19  1  0  0  0  0
 12 15  1  0  0  0  0
 12 16  1  0  0  0  0
 13 14  2  0  0  0  0
 13 18  1  0  0  0  0
 14 22  1  0  0  0  0
 15 20  2  0  0  0  0
 15 21  1  0  0  0  0
 17 18  2  0  0  0  0
 17 23  1  0  0  0  0
 19 24  2  0  0  0  0
 19 25  1  0  0  0  0
 20 28  1  0  0  0  0
 21 29  1  0  0  0  0
 22 23  2  0  0  0  0
 25 30  2  0  0  0  0
 26 32  1  0  0  0  0
 27 33  1  0  0  0  0
 30 31  1  0  0  0  0
M  END
> <PUBCHEM_COMPOUND_ID_TYPE>
0

> <PUBCHEM_TOTAL_CHARGE>
0

> <PUBCHEM_SUBSTANCE_ID>
310933832

> <PUBCHEM_SUBSTANCE_VERSION>
1

> <PUBCHEM_EXT_DATASOURCE_NAME>
4488

> <PUBCHEM_EXT_DATASOURCE_REGID>
SCHEMBL16111270

> <PUBCHEM_SUBSTANCE_COMMENT>
InChI=1S/C23H22N4O5S/c1-14-20(15(2)32-26-14)22-21(16-4-3-7-24-13-16)18-12-17(5-6-19(18)25-23(22)28)33(29,30)27-8-10-31-11-9-27/h3-7,12-13H,8-11H2,1-2H3,(H,25,28)
InChIKey=UBVLQUKUCLESMZ-UHFFFAOYSA-N

> <PUBCHEM_SUBSTANCE_SYNONYM>
SCHEMBL16111270

> <PUBCHEM_XREF_EXT_ID>
SCHEMBL16111270

> <PUBCHEM_EXT_DATASOURCE_URL>
https://www.surechembl.org/

> <PUBCHEM_EXT_SUBSTANCE_URL>
https://www.surechembl.org/chemical/SCHEMBL16111270

> <PUBCHEM_CID_ASSOCIATIONS>
117602180  1

> <PUBCHEM_COORDINATE_TYPE>
1
3

$$$$
