310943320
  -OEChem-07211613022D

 34 37  0     0  0  0  0  0  0999 V2000
   -1.7032    2.0468    0.0000 Cl  0  0  0  0  0  0  0  0  0  0  0  0
    3.8670    0.2923    0.0000 F   0  0  0  0  0  0  0  0  0  0  0  0
    4.6856    0.2923    0.0000 F   0  0  0  0  0  0  0  0  0  0  0  0
   -3.5746   -0.8333    0.0000 O   0  0  0  0  0  0  0  0  0  0  0  0
    0.7091   -0.8333    0.0000 O   0  0  0  0  0  0  0  0  0  0  0  0
   -5.0073    1.6374    0.0000 O   0  0  0  0  0  0  0  0  0  0  0  0
   -2.1563   -0.8333    0.0000 N   0  0  0  0  0  0  0  0  0  0  0  0
   -3.5891    0.8187    0.0000 N   0  0  0  0  0  0  0  0  0  0  0  0
   -0.0073    2.0613    0.0000 N   0  0  0  0  0  0  0  0  0  0  0  0
    1.4109    0.4094    0.0000 N   0  0  0  0  0  0  0  0  0  0  0  0
    3.5599   -1.6521    0.0000 N   0  0  0  0  0  0  0  0  0  0  0  0
   -1.4255    0.4094    0.0000 C   0  0  0  0  0  0  0  0  0  0  0  0
   -0.7383    0.8187    0.0000 C   0  0  0  0  0  0  0  0  0  0  0  0
   -2.8582    0.4094    0.0000 C   0  0  0  0  0  0  0  0  0  0  0  0
   -2.8582   -0.3947    0.0000 C   0  0  0  0  0  0  0  0  0  0  0  0
   -2.1563    0.8187    0.0000 C   0  0  0  0  0  0  0  0  0  0  0  0
   -1.4400   -0.4240    0.0000 C   0  0  0  0  0  0  0  0  0  0  0  0
   -0.7237    1.6521    0.0000 C   0  0  0  0  0  0  0  0  0  0  0  0
   -0.0073    0.4094    0.0000 C   0  0  0  0  0  0  0  0  0  0  0  0
    0.6944    0.8187    0.0000 C   0  0  0  0  0  0  0  0  0  0  0  0
    2.1418   -0.8333    0.0000 C   0  0  0  0  0  0  0  0  0  0  0  0
    1.4400   -0.3947    0.0000 C   0  0  0  0  0  0  0  0  0  0  0  0
    3.5599   -0.8187    0.0000 C   0  0  0  0  0  0  0  0  0  0  0  0
    0.7091    1.6374    0.0000 C   0  0  0  0  0  0  0  0  0  0  0  0
    4.2617   -0.3947    0.0000 C   0  0  0  0  0  0  0  0  0  0  0  0
    2.8290   -0.4240    0.0000 C   0  0  0  0  0  0  0  0  0  0  0  0
   -3.5746    1.6374    0.0000 C   0  0  0  0  0  0  0  0  0  0  0  0
   -4.2910    0.4094    0.0000 C   0  0  0  0  0  0  0  0  0  0  0  0
   -2.1272   -1.6667    0.0000 C   0  0  0  0  0  0  0  0  0  0  0  0
    2.1418   -1.6521    0.0000 C   0  0  0  0  0  0  0  0  0  0  0  0
    2.8582   -2.0613    0.0000 C   0  0  0  0  0  0  0  0  0  0  0  0
   -4.2910    2.0613    0.0000 C   0  0  0  0  0  0  0  0  0  0  0  0
   -5.0073    0.8187    0.0000 C   0  0  0  0  0  0  0  0  0  0  0  0
    5.0073   -0.8187    0.0000 C   0  0  0  0  0  0  0  0  0  0  0  0
  1 18  1  0  0  0  0
  2 25  1  0  0  0  0
  3 25  1  0  0  0  0
  4 15  2  0  0  0  0
  5 22  2  0  0  0  0
  6 32  1  0  0  0  0
  6 33  1  0  0  0  0
  7 15  1  0  0  0  0
  7 17  1  0  0  0  0
  7 29  1  0  0  0  0
  8 14  1  0  0  0  0
  8 27  1  0  0  0  0
  8 28  1  0  0  0  0
  9 18  1  0  0  0  0
  9 24  2  0  0  0  0
 10 20  1  0  0  0  0
 10 22  1  0  0  0  0
 11 23  1  0  0  0  0
 11 31  2  0  0  0  0
 12 13  1  0  0  0  0
 12 16  1  0  0  0  0
 12 17  2  0  0  0  0
 13 18  2  0  0  0  0
 13 19  1  0  0  0  0
 14 15  1  0  0  0  0
 14 16  2  0  0  0  0
 19 20  2  0  0  0  0
 20 24  1  0  0  0  0
 21 22  1  0  0  0  0
 21 26  1  0  0  0  0
 21 30  2  0  0  0  0
 23 25  1  0  0  0  0
 23 26  2  0  0  0  0
 25 34  1  0  0  0  0
 27 32  1  0  0  0  0
 28 33  1  0  0  0  0
 30 31  1  0  0  0  0
M  END
> <PUBCHEM_COMPOUND_ID_TYPE>
0

> <PUBCHEM_TOTAL_CHARGE>
0

> <PUBCHEM_SUBSTANCE_ID>
310943320

> <PUBCHEM_SUBSTANCE_VERSION>
1

> <PUBCHEM_EXT_DATASOURCE_NAME>
4488

> <PUBCHEM_EXT_DATASOURCE_REGID>
SCHEMBL16121382

> <PUBCHEM_SUBSTANCE_COMMENT>
InChI=1S/C23H22ClF2N5O3/c1-23(25,26)19-10-14(3-4-27-19)21(32)29-16-11-17(20(24)28-12-16)15-9-18(22(33)30(2)13-15)31-5-7-34-8-6-31/h3-4,9-13H,5-8H2,1-2H3,(H,29,32)
InChIKey=PERROQKBQPKOKX-UHFFFAOYSA-N

> <PUBCHEM_SUBSTANCE_SYNONYM>
SCHEMBL16121382

> <PUBCHEM_XREF_EXT_ID>
SCHEMBL16121382

> <PUBCHEM_EXT_DATASOURCE_URL>
https://www.surechembl.org/

> <PUBCHEM_EXT_SUBSTANCE_URL>
https://www.surechembl.org/chemical/SCHEMBL16121382

> <PUBCHEM_CID_ASSOCIATIONS>
117609745  1

> <PUBCHEM_COORDINATE_TYPE>
1
3

$$$$
