310945632
  -OEChem-07211613022D

 15 15  0     0  0  0  0  0  0999 V2000
   -0.7315    0.6148    0.0000 N   0  0  0  0  0  0  0  0  0  0  0  0
   -2.1480    1.4242    0.0000 N   0  0  0  0  0  0  0  0  0  0  0  0
   -0.0156    0.2257    0.0000 C   0  0  0  0  0  0  0  0  0  0  0  0
   -0.0156   -0.5993    0.0000 C   0  0  0  0  0  0  0  0  0  0  0  0
    0.6849    0.6459    0.0000 C   0  0  0  0  0  0  0  0  0  0  0  0
    0.6849   -0.9884    0.0000 C   0  0  0  0  0  0  0  0  0  0  0  0
    1.4008    0.2257    0.0000 C   0  0  0  0  0  0  0  0  0  0  0  0
    1.3853   -0.5837    0.0000 C   0  0  0  0  0  0  0  0  0  0  0  0
   -0.7472   -1.0195    0.0000 C   0  0  0  0  0  0  0  0  0  0  0  0
    0.6849    1.4709    0.0000 C   0  0  0  0  0  0  0  0  0  0  0  0
    0.6849   -1.8444    0.0000 C   0  0  0  0  0  0  0  0  0  0  0  0
    2.1480    0.6459    0.0000 C   0  0  0  0  0  0  0  0  0  0  0  0
    2.1324   -1.0351    0.0000 C   0  0  0  0  0  0  0  0  0  0  0  0
   -0.7315    1.4553    0.0000 C   0  0  0  0  0  0  0  0  0  0  0  0
   -1.4631    1.8444    0.0000 C   0  0  0  0  0  0  0  0  0  0  0  0
  1  3  1  0  0  0  0
  1 14  1  0  0  0  0
  2 15  1  0  0  0  0
  3  4  2  0  0  0  0
  3  5  1  0  0  0  0
  4  6  1  0  0  0  0
  4  9  1  0  0  0  0
  5  7  2  0  0  0  0
  5 10  1  0  0  0  0
  6  8  2  0  0  0  0
  6 11  1  0  0  0  0
  7  8  1  0  0  0  0
  7 12  1  0  0  0  0
  8 13  1  0  0  0  0
 14 15  1  0  0  0  0
M  END
> <PUBCHEM_COMPOUND_ID_TYPE>
0

> <PUBCHEM_TOTAL_CHARGE>
0

> <PUBCHEM_SUBSTANCE_ID>
310945632

> <PUBCHEM_SUBSTANCE_VERSION>
1

> <PUBCHEM_EXT_DATASOURCE_NAME>
4488

> <PUBCHEM_EXT_DATASOURCE_REGID>
SCHEMBL16123731

> <PUBCHEM_SUBSTANCE_COMMENT>
InChI=1S/C13H22N2/c1-8-9(2)11(4)13(15-7-6-14)12(5)10(8)3/h15H,6-7,14H2,1-5H3
InChIKey=OBGCJSXZGCFKIK-UHFFFAOYSA-N

> <PUBCHEM_SUBSTANCE_SYNONYM>
SCHEMBL16123731

> <PUBCHEM_XREF_EXT_ID>
SCHEMBL16123731

> <PUBCHEM_EXT_DATASOURCE_URL>
https://www.surechembl.org/

> <PUBCHEM_EXT_SUBSTANCE_URL>
https://www.surechembl.org/chemical/SCHEMBL16123731

> <PUBCHEM_CID_ASSOCIATIONS>
117611646  1

> <PUBCHEM_COORDINATE_TYPE>
1
3

$$$$
