310946889
  -OEChem-07211613022D

 40 43  0     1  0  0  0  0  0999 V2000
    0.5664    1.3756    0.0000 F   0  0  0  0  0  0  0  0  0  0  0  0
    2.2389   -3.8393    0.0000 F   0  0  0  0  0  0  0  0  0  0  0  0
    3.5875   -3.3718    0.0000 F   0  0  0  0  0  0  0  0  0  0  0  0
    3.0481   -4.0011    0.0000 F   0  0  0  0  0  0  0  0  0  0  0  0
   -2.4906   -2.0950    0.0000 O   0  0  0  0  0  0  0  0  0  0  0  0
   -2.2029    3.6595    0.0000 O   0  0  0  0  0  0  0  0  0  0  0  0
   -0.8182    4.0011    0.0000 O   0  0  0  0  0  0  0  0  0  0  0  0
    3.0301   -1.8252    0.0000 O   0  0  0  0  0  0  0  0  0  0  0  0
   -1.0520    0.2427    0.0000 N   0  0  0  0  0  0  0  0  0  0  0  0
   -0.5485   -0.4046    0.0000 N   0  0  0  0  0  0  0  0  0  0  0  0
   -1.2139    2.6345    0.0000 N   0  0  0  0  0  0  0  0  0  0  0  0
   -0.7463   -1.8612    0.0000 N   0  0  0  0  0  0  0  0  0  0  0  0
   -3.2279   -0.8902    0.0000 N   0  0  0  0  0  0  0  0  0  0  0  0
    1.3397    0.8182    0.0000 N   0  0  0  0  0  0  0  0  0  0  0  0
   -0.8182    1.0340    0.0000 C   0  0  3  0  0  0  0  0  0  0  0  0
   -1.8073   -0.0090    0.0000 C   0  0  0  0  0  0  0  0  0  0  0  0
   -1.8252   -0.8362    0.0000 C   0  0  0  0  0  0  0  0  0  0  0  0
   -1.0160   -1.0880    0.0000 C   0  0  0  0  0  0  0  0  0  0  0  0
   -0.2427    1.6274    0.0000 C   0  0  3  0  0  0  0  0  0  0  0  0
   -1.6095    1.2857    0.0000 C   0  0  0  0  0  0  0  0  0  0  0  0
   -2.4906   -1.2498    0.0000 C   0  0  0  0  0  0  0  0  0  0  0  0
   -0.2607    0.4226    0.0000 C   0  0  0  0  0  0  0  0  0  0  0  0
   -2.5625    0.3686    0.0000 C   0  0  0  0  0  0  0  0  0  0  0  0
   -0.4046    2.4007    0.0000 C   0  0  0  0  0  0  0  0  0  0  0  0
   -1.7893    2.0770    0.0000 C   0  0  0  0  0  0  0  0  0  0  0  0
   -3.2459   -0.0450    0.0000 C   0  0  0  0  0  0  0  0  0  0  0  0
    0.0630   -1.9871    0.0000 C   0  0  0  0  0  0  0  0  0  0  0  0
   -1.4116    3.4257    0.0000 C   0  0  0  0  0  0  0  0  0  0  0  0
    0.5305    0.6204    0.0000 C   0  0  0  0  0  0  0  0  0  0  0  0
    0.3507   -2.7603    0.0000 C   0  0  0  0  0  0  0  0  0  0  0  0
    0.6024   -1.3757    0.0000 C   0  0  0  0  0  0  0  0  0  0  0  0
    1.6813   -2.2748    0.0000 C   0  0  0  0  0  0  0  0  0  0  0  0
    1.1599   -2.9042    0.0000 C   0  0  0  0  0  0  0  0  0  0  0  0
    1.4116   -1.5375    0.0000 C   0  0  0  0  0  0  0  0  0  0  0  0
    2.4906   -2.4366    0.0000 C   0  0  3  0  0  0  0  0  0  0  0  0
   -2.7963    3.0840    0.0000 C   0  0  0  0  0  0  0  0  0  0  0  0
    2.7783   -3.2279    0.0000 C   0  0  0  0  0  0  0  0  0  0  0  0
   -3.5875    3.3178    0.0000 C   0  0  0  0  0  0  0  0  0  0  0  0
   -3.3898    2.5445    0.0000 C   0  0  0  0  0  0  0  0  0  0  0  0
   -2.5625    2.2928    0.0000 C   0  0  0  0  0  0  0  0  0  0  0  0
 19  1  1  1  0  0  0
  2 37  1  0  0  0  0
  3 37  1  0  0  0  0
  4 37  1  0  0  0  0
  5 21  2  0  0  0  0
  6 28  1  0  0  0  0
  6 36  1  0  0  0  0
  7 28  2  0  0  0  0
  8 35  1  0  0  0  0
  9 10  1  0  0  0  0
  9 15  1  0  0  0  0
  9 16  1  0  0  0  0
 10 18  2  0  0  0  0
 11 24  1  0  0  0  0
 11 25  1  0  0  0  0
 11 28  1  0  0  0  0
 12 18  1  0  0  0  0
 12 27  1  0  0  0  0
 13 21  1  0  0  0  0
 13 26  1  0  0  0  0
 14 29  3  0  0  0  0
 15 19  1  0  0  0  0
 15 20  1  0  0  0  0
 15 22  1  6  0  0  0
 16 17  2  0  0  0  0
 16 23  1  0  0  0  0
 17 18  1  0  0  0  0
 17 21  1  0  0  0  0
 19 24  1  0  0  0  0
 20 25  1  0  0  0  0
 22 29  1  0  0  0  0
 23 26  2  0  0  0  0
 27 30  2  0  0  0  0
 27 31  1  0  0  0  0
 30 33  1  0  0  0  0
 31 34  2  0  0  0  0
 32 33  2  0  0  0  0
 32 34  1  0  0  0  0
 32 35  1  0  0  0  0
 35 37  1  0  0  0  0
 36 38  1  0  0  0  0
 36 39  1  0  0  0  0
 36 40  1  0  0  0  0
M  END
> <PUBCHEM_COMPOUND_ID_TYPE>
0

> <PUBCHEM_TOTAL_CHARGE>
0

> <PUBCHEM_SUBSTANCE_ID>
310946889

> <PUBCHEM_SUBSTANCE_VERSION>
1

> <PUBCHEM_EXT_DATASOURCE_NAME>
4488

> <PUBCHEM_EXT_DATASOURCE_REGID>
SCHEMBL16125013

> <PUBCHEM_SUBSTANCE_COMMENT>
InChI=1S/C26H28F4N6O4/c1-24(2,3)40-23(39)35-13-10-25(9-11-31,18(27)14-35)36-17-8-12-32-22(38)19(17)21(34-36)33-16-6-4-15(5-7-16)20(37)26(28,29)30/h4-8,12,18,20,37H,9-10,13-14H2,1-3H3,(H,32,38)(H,33,34)/t18-,20?,25+/m1/s1
InChIKey=KRGJWBAMLRBENV-UWPXCJAKSA-N

> <PUBCHEM_SUBSTANCE_SYNONYM>
SCHEMBL16125013

> <PUBCHEM_XREF_EXT_ID>
SCHEMBL16125013

> <PUBCHEM_EXT_DATASOURCE_URL>
https://www.surechembl.org/

> <PUBCHEM_EXT_SUBSTANCE_URL>
https://www.surechembl.org/chemical/SCHEMBL16125013

> <PUBCHEM_CID_ASSOCIATIONS>
117612747  1

> <PUBCHEM_COORDINATE_TYPE>
1
3

> <PUBCHEM_BONDANNOTATIONS>
19  1  5
15  22  6

$$$$
