310937769
  -OEChem-07211613022D

 15 15  0     0  0  0  0  0  0999 V2000
    3.2644   -0.0603    0.0000 S   0  0  0  0  0  0  0  0  0  0  0  0
    2.5499   -1.2979    0.0000 F   0  0  0  0  0  0  0  0  0  0  0  0
    1.8354   -0.8853    0.0000 F   0  0  0  0  0  0  0  0  0  0  0  0
    1.8354   -0.0603    0.0000 F   0  0  0  0  0  0  0  0  0  0  0  0
    6.8307    1.6500    0.0000 F   0  0  0  0  0  0  0  0  0  0  0  0
    7.2432    0.9356    0.0000 F   0  0  0  0  0  0  0  0  0  0  0  0
    3.9788    0.3522    0.0000 O   0  0  0  0  0  0  0  0  0  0  0  0
    3.6769   -0.7748    0.0000 O   0  0  0  0  0  0  0  0  0  0  0  0
    2.8519    0.6542    0.0000 O   0  0  0  0  0  0  0  0  0  0  0  0
    2.5499   -0.4728    0.0000 C   0  0  0  0  0  0  0  0  0  0  0  0
    5.4078    0.3522    0.0000 C   0  0  0  0  0  0  0  0  0  0  0  0
    6.4182    0.9356    0.0000 C   0  0  0  0  0  0  0  0  0  0  0  0
    4.6933   -0.0603    0.0000 C   0  0  0  0  0  0  0  0  0  0  0  0
    6.2047    0.1387    0.0000 C   0  0  0  0  0  0  0  0  0  0  0  0
    5.6213    1.1491    0.0000 C   0  0  0  0  0  0  0  0  0  0  0  0
  1  7  1  0  0  0  0
  1  8  2  0  0  0  0
  1  9  2  0  0  0  0
  1 10  1  0  0  0  0
  2 10  1  0  0  0  0
  3 10  1  0  0  0  0
  4 10  1  0  0  0  0
  5 12  1  0  0  0  0
  6 12  1  0  0  0  0
  7 13  1  0  0  0  0
 11 13  1  0  0  0  0
 11 14  1  0  0  0  0
 11 15  1  0  0  0  0
 12 14  1  0  0  0  0
 12 15  1  0  0  0  0
M  END
> <PUBCHEM_COMPOUND_ID_TYPE>
0

> <PUBCHEM_TOTAL_CHARGE>
0

> <PUBCHEM_SUBSTANCE_ID>
310937769

> <PUBCHEM_SUBSTANCE_VERSION>
1

> <PUBCHEM_EXT_DATASOURCE_NAME>
4488

> <PUBCHEM_EXT_DATASOURCE_REGID>
SCHEMBL16115577

> <PUBCHEM_SUBSTANCE_COMMENT>
InChI=1S/C6H7F5O3S/c7-5(8)1-4(2-5)3-14-15(12,13)6(9,10)11/h4H,1-3H2
InChIKey=BJTLJAWDQJCUHZ-UHFFFAOYSA-N

> <PUBCHEM_SUBSTANCE_SYNONYM>
SCHEMBL16115577

> <PUBCHEM_XREF_EXT_ID>
SCHEMBL16115577

> <PUBCHEM_EXT_DATASOURCE_URL>
https://www.surechembl.org/

> <PUBCHEM_EXT_SUBSTANCE_URL>
https://www.surechembl.org/chemical/SCHEMBL16115577

> <PUBCHEM_CID_ASSOCIATIONS>
117605426  1

> <PUBCHEM_COORDINATE_TYPE>
1
3

$$$$
