310932528
  -OEChem-07211613022D

 19 21  0     0  0  0  0  0  0999 V2000
    2.7149   -3.8785    0.0000 Cl  0  0  0  0  0  0  0  0  0  0  0  0
    2.7149   -0.5818    0.0000 F   0  0  0  0  0  0  0  0  0  0  0  0
    0.4266   -0.3878    0.0000 O   0  0  0  0  0  0  0  0  0  0  0  0
    5.5656   -2.2301    0.0000 O   0  0  0  0  0  0  0  0  0  0  0  0
    4.2469   -1.5708    0.0000 N   0  0  0  0  0  0  0  0  0  0  0  0
    4.2469   -2.8895    0.0000 N   0  0  0  0  0  0  0  0  0  0  0  0
    0.0000   -1.1054    0.0000 N   0  0  0  0  0  0  0  0  0  0  0  0
    3.4518   -1.8035    0.0000 C   0  0  0  0  0  0  0  0  0  0  0  0
    2.0362   -1.8035    0.0000 C   0  0  0  0  0  0  0  0  0  0  0  0
    3.4518   -2.6568    0.0000 C   0  0  0  0  0  0  0  0  0  0  0  0
    2.7343   -1.3963    0.0000 C   0  0  0  0  0  0  0  0  0  0  0  0
    1.3187   -1.3769    0.0000 C   0  0  0  0  0  0  0  0  0  0  0  0
    2.7343   -3.0640    0.0000 C   0  0  0  0  0  0  0  0  0  0  0  0
    2.0362   -2.6568    0.0000 C   0  0  0  0  0  0  0  0  0  0  0  0
    1.2217   -0.5624    0.0000 C   0  0  0  0  0  0  0  0  0  0  0  0
    0.5624   -1.7066    0.0000 C   0  0  0  0  0  0  0  0  0  0  0  0
    4.7511   -2.2301    0.0000 C   0  0  0  0  0  0  0  0  0  0  0  0
    1.8423    0.0000    0.0000 C   0  0  0  0  0  0  0  0  0  0  0  0
    0.3878   -2.5210    0.0000 C   0  0  0  0  0  0  0  0  0  0  0  0
  1 13  1  0  0  0  0
  2 11  1  0  0  0  0
  3  7  1  0  0  0  0
  3 15  1  0  0  0  0
  4 17  2  0  0  0  0
  5  8  1  0  0  0  0
  5 17  1  0  0  0  0
  6 10  1  0  0  0  0
  6 17  1  0  0  0  0
  7 16  2  0  0  0  0
  8 10  2  0  0  0  0
  8 11  1  0  0  0  0
  9 11  2  0  0  0  0
  9 12  1  0  0  0  0
  9 14  1  0  0  0  0
 10 13  1  0  0  0  0
 12 15  2  0  0  0  0
 12 16  1  0  0  0  0
 13 14  2  0  0  0  0
 15 18  1  0  0  0  0
 16 19  1  0  0  0  0
M  END
> <PUBCHEM_COMPOUND_ID_TYPE>
0

> <PUBCHEM_TOTAL_CHARGE>
0

> <PUBCHEM_SUBSTANCE_ID>
310932528

> <PUBCHEM_SUBSTANCE_VERSION>
1

> <PUBCHEM_EXT_DATASOURCE_NAME>
4488

> <PUBCHEM_EXT_DATASOURCE_REGID>
SCHEMBL16109903

> <PUBCHEM_SUBSTANCE_COMMENT>
InChI=1S/C12H9ClFN3O2/c1-4-8(5(2)19-17-4)6-3-7(13)10-11(9(6)14)16-12(18)15-10/h3H,1-2H3,(H2,15,16,18)
InChIKey=JNUWKMAPHHOALC-UHFFFAOYSA-N

> <PUBCHEM_SUBSTANCE_SYNONYM>
SCHEMBL16109903

> <PUBCHEM_XREF_EXT_ID>
SCHEMBL16109903

> <PUBCHEM_EXT_DATASOURCE_URL>
https://www.surechembl.org/

> <PUBCHEM_EXT_SUBSTANCE_URL>
https://www.surechembl.org/chemical/SCHEMBL16109903

> <PUBCHEM_CID_ASSOCIATIONS>
117601060  1

> <PUBCHEM_COORDINATE_TYPE>
1
3

$$$$
