310928977
  -OEChem-07211613022D

 11 11  0     0  0  0  0  0  0999 V2000
    0.6529    0.0675    0.0000 O   0  0  0  0  0  0  0  0  0  0  0  0
   -0.0616    1.3050    0.0000 O   0  0  0  0  0  0  0  0  0  0  0  0
   -1.5298    0.4031    0.0000 N   0  0  0  0  0  0  0  0  0  0  0  0
   -2.0818   -0.2100    0.0000 N   0  0  0  0  0  0  0  0  0  0  0  0
   -0.2492   -1.3050    0.0000 N   0  0  0  0  0  0  0  0  0  0  0  0
   -0.7761    0.0675    0.0000 C   0  0  0  0  0  0  0  0  0  0  0  0
   -0.8623   -0.7530    0.0000 C   0  0  0  0  0  0  0  0  0  0  0  0
   -0.0616    0.4800    0.0000 C   0  0  0  0  0  0  0  0  0  0  0  0
   -1.6693   -0.9245    0.0000 C   0  0  0  0  0  0  0  0  0  0  0  0
    1.3673    0.4800    0.0000 C   0  0  0  0  0  0  0  0  0  0  0  0
    2.0818    0.0675    0.0000 C   0  0  0  0  0  0  0  0  0  0  0  0
  1  8  1  0  0  0  0
  1 10  1  0  0  0  0
  2  8  2  0  0  0  0
  3  4  1  0  0  0  0
  3  6  2  0  0  0  0
  4  9  1  0  0  0  0
  5  7  1  0  0  0  0
  6  7  1  0  0  0  0
  6  8  1  0  0  0  0
  7  9  2  0  0  0  0
 10 11  1  0  0  0  0
M  END
> <PUBCHEM_COMPOUND_ID_TYPE>
0

> <PUBCHEM_TOTAL_CHARGE>
0

> <PUBCHEM_SUBSTANCE_ID>
310928977

> <PUBCHEM_SUBSTANCE_VERSION>
1

> <PUBCHEM_EXT_DATASOURCE_NAME>
11752

> <PUBCHEM_EXT_DATASOURCE_REGID>
BD254081

> <PUBCHEM_SUBSTANCE_SYNONYM>
55904-61-5
Ethyl 4-amino-1H-pyrazole-3-carboxylate

> <PUBCHEM_GENERIC_REGISTRY_NAME>
55904-61-5

> <PUBCHEM_XREF_EXT_ID>
BD254081

> <PUBCHEM_EXT_DATASOURCE_URL>
http://www.bidepharmatech.com/en/index.html

> <PUBCHEM_EXT_SUBSTANCE_URL>
http://www.bidepharmatech.com/en/goodsview_goodscode_BD254081.html

> <PUBCHEM_CID_ASSOCIATIONS>
4912934  1

> <PUBCHEM_COORDINATE_TYPE>
1
3

$$$$
