310944209
  -OEChem-07211613022D

 38 41  0     0  0  0  0  0  0999 V2000
    0.3786    3.9012    0.0000 F   0  0  0  0  0  0  0  0  0  0  0  0
   -3.2593   -2.2716    0.0000 F   0  0  0  0  0  0  0  0  0  0  0  0
    4.0000   -2.3046    0.0000 F   0  0  0  0  0  0  0  0  0  0  0  0
    2.5844    3.3909    0.0000 N   0  0  0  0  0  0  0  0  0  0  0  0
   -1.8107   -3.8848    0.0000 N   0  0  0  0  0  0  0  0  0  0  0  0
   -1.7778    3.4403    0.0000 N   0  0  0  0  0  0  0  0  0  0  0  0
   -4.0000   -0.2798    0.0000 N   0  0  0  0  0  0  0  0  0  0  0  0
    2.5350   -3.9012    0.0000 N   0  0  0  0  0  0  0  0  0  0  0  0
    0.3786    0.6090    0.0000 C   0  0  0  0  0  0  0  0  0  0  0  0
   -0.3786   -0.5926    0.0000 C   0  0  0  0  0  0  0  0  0  0  0  0
    1.0864   -0.5926    0.0000 C   0  0  0  0  0  0  0  0  0  0  0  0
    0.3786    1.4650    0.0000 C   0  0  0  0  0  0  0  0  0  0  0  0
   -1.0864   -1.0041    0.0000 C   0  0  0  0  0  0  0  0  0  0  0  0
    1.8601   -1.0206    0.0000 C   0  0  0  0  0  0  0  0  0  0  0  0
   -0.3457    0.2140    0.0000 C   0  0  0  0  0  0  0  0  0  0  0  0
    1.1029    0.2140    0.0000 C   0  0  0  0  0  0  0  0  0  0  0  0
    0.3786   -1.0041    0.0000 C   0  0  0  0  0  0  0  0  0  0  0  0
    1.1029    1.8437    0.0000 C   0  0  0  0  0  0  0  0  0  0  0  0
   -1.1029   -1.8272    0.0000 C   0  0  0  0  0  0  0  0  0  0  0  0
   -0.3457    1.8766    0.0000 C   0  0  0  0  0  0  0  0  0  0  0  0
   -1.8107   -0.6090    0.0000 C   0  0  0  0  0  0  0  0  0  0  0  0
    1.1193    2.6831    0.0000 C   0  0  0  0  0  0  0  0  0  0  0  0
   -1.8107   -2.2223    0.0000 C   0  0  0  0  0  0  0  0  0  0  0  0
   -0.3621    2.6831    0.0000 C   0  0  0  0  0  0  0  0  0  0  0  0
   -2.5350   -1.0041    0.0000 C   0  0  0  0  0  0  0  0  0  0  0  0
    0.3951    3.0782    0.0000 C   0  0  0  0  0  0  0  0  0  0  0  0
   -2.5515   -1.8437    0.0000 C   0  0  0  0  0  0  0  0  0  0  0  0
    1.8601   -1.8272    0.0000 C   0  0  0  0  0  0  0  0  0  0  0  0
    2.5679   -0.6255    0.0000 C   0  0  0  0  0  0  0  0  0  0  0  0
    2.5515   -2.2387    0.0000 C   0  0  0  0  0  0  0  0  0  0  0  0
    3.2757   -1.0370    0.0000 C   0  0  0  0  0  0  0  0  0  0  0  0
    3.2593   -1.8437    0.0000 C   0  0  0  0  0  0  0  0  0  0  0  0
    1.8601    3.0617    0.0000 C   0  0  0  0  0  0  0  0  0  0  0  0
   -1.8107   -3.0782    0.0000 C   0  0  0  0  0  0  0  0  0  0  0  0
   -1.0864    3.0782    0.0000 C   0  0  0  0  0  0  0  0  0  0  0  0
   -3.2922   -0.6090    0.0000 C   0  0  0  0  0  0  0  0  0  0  0  0
    2.5350   -3.0947    0.0000 C   0  0  0  0  0  0  0  0  0  0  0  0
    3.7695   -0.7407    0.0000 C   0  0  0  0  0  0  0  0  0  0  0  0
  1 26  1  0  0  0  0
  2 27  1  0  0  0  0
  3 32  1  0  0  0  0
  4 33  3  0  0  0  0
  5 34  3  0  0  0  0
  6 35  3  0  0  0  0
  7 36  3  0  0  0  0
  8 37  3  0  0  0  0
  9 12  1  0  0  0  0
  9 15  2  0  0  0  0
  9 16  1  0  0  0  0
 10 13  1  0  0  0  0
 10 15  1  0  0  0  0
 10 17  2  0  0  0  0
 11 14  1  0  0  0  0
 11 16  2  0  0  0  0
 11 17  1  0  0  0  0
 12 18  2  0  0  0  0
 12 20  1  0  0  0  0
 13 19  2  0  0  0  0
 13 21  1  0  0  0  0
 14 28  2  0  0  0  0
 14 29  1  0  0  0  0
 18 22  1  0  0  0  0
 19 23  1  0  0  0  0
 20 24  2  0  0  0  0
 21 25  2  0  0  0  0
 22 26  2  0  0  0  0
 22 33  1  0  0  0  0
 23 27  2  0  0  0  0
 23 34  1  0  0  0  0
 24 26  1  0  0  0  0
 24 35  1  0  0  0  0
 25 27  1  0  0  0  0
 25 36  1  0  0  0  0
 28 30  1  0  0  0  0
 29 31  2  0  0  0  0
 30 32  2  0  0  0  0
 30 37  1  0  0  0  0
 31 32  1  0  0  0  0
 31 38  1  0  0  0  0
M  END
> <PUBCHEM_COMPOUND_ID_TYPE>
0

> <PUBCHEM_TOTAL_CHARGE>
0

> <PUBCHEM_SUBSTANCE_ID>
310944209

> <PUBCHEM_SUBSTANCE_VERSION>
1

> <PUBCHEM_EXT_DATASOURCE_NAME>
4488

> <PUBCHEM_EXT_DATASOURCE_REGID>
SCHEMBL16122284

> <PUBCHEM_SUBSTANCE_COMMENT>
InChI=1S/C30H12F3N5/c1-16-2-17(6-23(11-34)28(16)31)18-3-19(21-7-24(12-35)29(32)25(8-21)13-36)5-20(4-18)22-9-26(14-37)30(33)27(10-22)15-38/h2-10H,1H3
InChIKey=UYOPVVGEJOJNRF-UHFFFAOYSA-N

> <PUBCHEM_SUBSTANCE_SYNONYM>
SCHEMBL16122284

> <PUBCHEM_XREF_EXT_ID>
SCHEMBL16122284

> <PUBCHEM_EXT_DATASOURCE_URL>
https://www.surechembl.org/

> <PUBCHEM_EXT_SUBSTANCE_URL>
https://www.surechembl.org/chemical/SCHEMBL16122284

> <PUBCHEM_CID_ASSOCIATIONS>
117610480  1

> <PUBCHEM_COORDINATE_TYPE>
1
3

$$$$
