310942001
  -OEChem-07211613022D

 17 18  0     0  0  0  0  0  0999 V2000
   -0.6115    0.5634    0.0000 O   0  0  0  0  0  0  0  0  0  0  0  0
    1.9033    1.7315    0.0000 O   0  0  0  0  0  0  0  0  0  0  0  0
    2.2880   -0.9345    0.0000 N   0  0  0  0  0  0  0  0  0  0  0  0
    2.7690   -0.2611    0.0000 N   0  0  0  0  0  0  0  0  0  0  0  0
    1.5047    0.1649    0.0000 C   0  0  0  0  0  0  0  0  0  0  0  0
    1.4910   -0.6459    0.0000 C   0  0  0  0  0  0  0  0  0  0  0  0
    2.2880    0.4122    0.0000 C   0  0  0  0  0  0  0  0  0  0  0  0
    0.8039    0.5772    0.0000 C   0  0  0  0  0  0  0  0  0  0  0  0
    0.0893    0.1649    0.0000 C   0  0  0  0  0  0  0  0  0  0  0  0
    0.8039   -1.0719    0.0000 C   0  0  0  0  0  0  0  0  0  0  0  0
    0.0893   -0.6596    0.0000 C   0  0  0  0  0  0  0  0  0  0  0  0
    2.5354    1.2230    0.0000 C   0  0  0  0  0  0  0  0  0  0  0  0
    2.5629   -1.7315    0.0000 C   0  0  0  0  0  0  0  0  0  0  0  0
   -1.3123    0.1786    0.0000 C   0  0  0  0  0  0  0  0  0  0  0  0
   -2.0544    0.5909    0.0000 C   0  0  0  0  0  0  0  0  0  0  0  0
   -2.0407    1.4429    0.0000 C   0  0  0  0  0  0  0  0  0  0  0  0
   -2.7690    0.1649    0.0000 C   0  0  0  0  0  0  0  0  0  0  0  0
  1  9  1  0  0  0  0
  1 14  1  0  0  0  0
  2 12  2  0  0  0  0
  3  4  1  0  0  0  0
  3  6  1  0  0  0  0
  3 13  1  0  0  0  0
  4  7  2  0  0  0  0
  5  6  1  0  0  0  0
  5  7  1  0  0  0  0
  5  8  2  0  0  0  0
  6 10  2  0  0  0  0
  7 12  1  0  0  0  0
  8  9  1  0  0  0  0
  9 11  2  0  0  0  0
 10 11  1  0  0  0  0
 14 15  1  0  0  0  0
 15 16  1  0  0  0  0
 15 17  1  0  0  0  0
M  END
> <PUBCHEM_COMPOUND_ID_TYPE>
0

> <PUBCHEM_TOTAL_CHARGE>
0

> <PUBCHEM_SUBSTANCE_ID>
310942001

> <PUBCHEM_SUBSTANCE_VERSION>
1

> <PUBCHEM_EXT_DATASOURCE_NAME>
4488

> <PUBCHEM_EXT_DATASOURCE_REGID>
SCHEMBL16120035

> <PUBCHEM_SUBSTANCE_COMMENT>
InChI=1S/C13H16N2O2/c1-9(2)8-17-10-4-5-13-11(6-10)12(7-16)14-15(13)3/h4-7,9H,8H2,1-3H3
InChIKey=RETFXOKSWOJJKR-UHFFFAOYSA-N

> <PUBCHEM_SUBSTANCE_SYNONYM>
SCHEMBL16120035

> <PUBCHEM_XREF_EXT_ID>
SCHEMBL16120035

> <PUBCHEM_EXT_DATASOURCE_URL>
https://www.surechembl.org/

> <PUBCHEM_EXT_SUBSTANCE_URL>
https://www.surechembl.org/chemical/SCHEMBL16120035

> <PUBCHEM_CID_ASSOCIATIONS>
117608693  1

> <PUBCHEM_COORDINATE_TYPE>
1
3

$$$$
