310932576
  -OEChem-07211613022D

 29 32  0     0  0  0  0  0  0999 V2000
    0.8299   -2.1629    0.0000 O   0  0  0  0  0  0  0  0  0  0  0  0
    5.4072   -3.9988    0.0000 O   0  0  0  0  0  0  0  0  0  0  0  0
    1.6599   -0.7545    0.0000 N   0  0  0  0  0  0  0  0  0  0  0  0
    0.4275   -1.4335    0.0000 N   0  0  0  0  0  0  0  0  0  0  0  0
    0.8299   -3.5964    0.0000 N   0  0  0  0  0  0  0  0  0  0  0  0
    5.4072   -3.1689    0.0000 N   0  0  0  0  0  0  0  0  0  0  0  0
    1.6599   -5.0048    0.0000 N   0  0  0  0  0  0  0  0  0  0  0  0
    1.6599   -2.1629    0.0000 C   0  0  0  0  0  0  0  0  0  0  0  0
    2.0623   -2.8671    0.0000 C   0  0  0  0  0  0  0  0  0  0  0  0
    2.0623   -1.4335    0.0000 C   0  0  0  0  0  0  0  0  0  0  0  0
    1.2323   -1.4335    0.0000 C   0  0  0  0  0  0  0  0  0  0  0  0
    1.6599   -3.5964    0.0000 C   0  0  0  0  0  0  0  0  0  0  0  0
    3.3198   -3.5964    0.0000 C   0  0  0  0  0  0  0  0  0  0  0  0
    2.8922   -2.8671    0.0000 C   0  0  0  0  0  0  0  0  0  0  0  0
    4.1246   -3.5964    0.0000 C   0  0  0  0  0  0  0  0  0  0  0  0
    2.0623   -4.3007    0.0000 C   0  0  0  0  0  0  0  0  0  0  0  0
    2.8922   -4.3007    0.0000 C   0  0  0  0  0  0  0  0  0  0  0  0
    4.6276   -4.2503    0.0000 C   0  0  0  0  0  0  0  0  0  0  0  0
    4.6276   -2.9425    0.0000 C   0  0  0  0  0  0  0  0  0  0  0  0
    2.8922   -1.4587    0.0000 C   0  0  0  0  0  0  0  0  0  0  0  0
    1.8359   -0.8803    0.0000 C   0  0  0  0  0  0  0  0  0  0  0  0
    2.0371    0.0000    0.0000 C   0  0  0  0  0  0  0  0  0  0  0  0
    0.0000   -0.7294    0.0000 C   0  0  0  0  0  0  0  0  0  0  0  0
    3.2946   -0.7042    0.0000 C   0  0  0  0  0  0  0  0  0  0  0  0
    1.2323   -0.0252    0.0000 C   0  0  0  0  0  0  0  0  0  0  0  0
    2.8671   -0.0252    0.0000 C   0  0  0  0  0  0  0  0  0  0  0  0
    0.4275   -0.0252    0.0000 C   0  0  0  0  0  0  0  0  0  0  0  0
    4.3761   -5.0299    0.0000 C   0  0  0  0  0  0  0  0  0  0  0  0
    4.3761   -2.1377    0.0000 C   0  0  0  0  0  0  0  0  0  0  0  0
  1  8  1  0  0  0  0
  2  6  1  0  0  0  0
  2 18  1  0  0  0  0
  3 10  1  0  0  0  0
  3 22  2  0  0  0  0
  4 11  1  0  0  0  0
  4 23  2  0  0  0  0
  5 12  1  0  0  0  0
  6 19  2  0  0  0  0
  7 16  1  0  0  0  0
  8  9  1  0  0  0  0
  8 10  1  0  0  0  0
  8 11  1  0  0  0  0
  9 12  1  0  0  0  0
  9 14  2  0  0  0  0
 10 20  2  0  0  0  0
 11 21  2  0  0  0  0
 12 16  2  0  0  0  0
 13 14  1  0  0  0  0
 13 15  1  0  0  0  0
 13 17  2  0  0  0  0
 15 18  2  0  0  0  0
 15 19  1  0  0  0  0
 16 17  1  0  0  0  0
 18 28  1  0  0  0  0
 19 29  1  0  0  0  0
 20 24  1  0  0  0  0
 21 25  1  0  0  0  0
 22 26  1  0  0  0  0
 23 27  1  0  0  0  0
 24 26  2  0  0  0  0
 25 27  2  0  0  0  0
M  END
> <PUBCHEM_COMPOUND_ID_TYPE>
0

> <PUBCHEM_TOTAL_CHARGE>
0

> <PUBCHEM_SUBSTANCE_ID>
310932576

> <PUBCHEM_SUBSTANCE_VERSION>
1

> <PUBCHEM_EXT_DATASOURCE_NAME>
4488

> <PUBCHEM_EXT_DATASOURCE_REGID>
SCHEMBL16109953

> <PUBCHEM_SUBSTANCE_COMMENT>
InChI=1S/C22H21N5O2/c1-13-20(14(2)29-27-13)15-11-16(21(24)17(23)12-15)22(28,18-7-3-5-9-25-18)19-8-4-6-10-26-19/h3-12,28H,23-24H2,1-2H3
InChIKey=KGFSLNXOUHPSEK-UHFFFAOYSA-N

> <PUBCHEM_SUBSTANCE_SYNONYM>
SCHEMBL16109953

> <PUBCHEM_XREF_EXT_ID>
SCHEMBL16109953

> <PUBCHEM_EXT_DATASOURCE_URL>
https://www.surechembl.org/

> <PUBCHEM_EXT_SUBSTANCE_URL>
https://www.surechembl.org/chemical/SCHEMBL16109953

> <PUBCHEM_CID_ASSOCIATIONS>
117601099  1

> <PUBCHEM_COORDINATE_TYPE>
1
3

$$$$
