310931089
  -OEChem-07211613022D

 37 41  0     1  0  0  0  0  0999 V2000
   -4.3813   -0.7334    0.0000 S   0  0  0  0  0  0  0  0  0  0  0  0
   -4.5828   -0.1708    0.0000 O   0  0  0  0  0  0  0  0  0  0  0  0
   -4.0673    1.7530    0.0000 O   0  0  0  0  0  0  0  0  0  0  0  0
   -1.8385   -2.2015    0.0000 O   0  0  0  0  0  0  0  0  0  0  0  0
   -0.7145    2.0625    0.0000 O   0  0  0  0  0  0  0  0  0  0  0  0
    0.7145    2.0625    0.0000 O   0  0  0  0  0  0  0  0  0  0  0  0
    3.1388    2.2225    0.0000 O   0  0  0  0  0  0  0  0  0  0  0  0
    1.7410    2.5196    0.0000 O   0  0  0  0  0  0  0  0  0  0  0  0
   -2.6589   -0.6863    0.0000 N   0  0  0  0  0  0  0  0  0  0  0  0
   -2.1434    1.2375    0.0000 N   0  0  0  0  0  0  0  0  0  0  0  0
    1.4290    0.8250    0.0000 N   0  0  0  0  0  0  0  0  0  0  0  0
   -3.0714    0.0281    0.0000 C   0  0  0  0  0  0  0  0  0  0  0  0
   -2.8579    0.8250    0.0000 C   0  0  0  0  0  0  0  0  0  0  0  0
   -3.8683    0.2417    0.0000 C   0  0  0  0  0  0  0  0  0  0  0  0
   -3.6548    1.0385    0.0000 C   0  0  0  0  0  0  0  0  0  0  0  0
   -3.0714   -1.4009    0.0000 C   0  0  3  0  0  0  0  0  0  0  0  0
   -1.4290    0.8250    0.0000 C   0  0  0  0  0  0  0  0  0  0  0  0
   -0.7145    1.2375    0.0000 C   0  0  0  0  0  0  0  0  0  0  0  0
    0.0000    0.8250    0.0000 C   0  0  0  0  0  0  0  0  0  0  0  0
   -2.6589   -2.1153    0.0000 C   0  0  0  0  0  0  0  0  0  0  0  0
   -3.8964   -1.4009    0.0000 C   0  0  3  0  0  0  0  0  0  0  0  0
    0.7145    1.2375    0.0000 C   0  0  0  0  0  0  0  0  0  0  0  0
   -1.4290    0.0000    0.0000 C   0  0  0  0  0  0  0  0  0  0  0  0
    2.1826    1.1605    0.0000 C   0  0  3  0  0  0  0  0  0  0  0  0
    0.0000    0.0000    0.0000 C   0  0  0  0  0  0  0  0  0  0  0  0
   -2.9945   -2.8690    0.0000 C   0  0  0  0  0  0  0  0  0  0  0  0
   -0.7145   -0.4125    0.0000 C   0  0  0  0  0  0  0  0  0  0  0  0
   -4.3813   -2.0683    0.0000 C   0  0  0  0  0  0  0  0  0  0  0  0
    1.5152    0.0045    0.0000 C   0  0  0  0  0  0  0  0  0  0  0  0
   -1.6669   -3.0085    0.0000 C   0  0  0  0  0  0  0  0  0  0  0  0
    2.7346    0.5474    0.0000 C   0  0  0  0  0  0  0  0  0  0  0  0
   -2.3814   -3.4210    0.0000 C   0  0  0  0  0  0  0  0  0  0  0  0
    2.3541    1.9675    0.0000 C   0  0  0  0  0  0  0  0  0  0  0  0
    2.3221   -0.1670    0.0000 C   0  0  0  0  0  0  0  0  0  0  0  0
   -5.1660   -0.9884    0.0000 C   0  0  0  0  0  0  0  0  0  0  0  0
   -5.1660   -1.8134    0.0000 C   0  0  0  0  0  0  0  0  0  0  0  0
   -0.9132   -3.3441    0.0000 C   0  0  0  0  0  0  0  0  0  0  0  0
  1 21  1  0  0  0  0
  1 35  1  0  0  0  0
  2 14  2  0  0  0  0
  3 15  2  0  0  0  0
  4 20  1  0  0  0  0
  4 30  1  0  0  0  0
  5 18  1  0  0  0  0
  6 22  2  0  0  0  0
  7 33  2  0  0  0  0
  8 33  1  0  0  0  0
  9 12  1  0  0  0  0
  9 16  1  0  0  0  0
 10 13  1  0  0  0  0
 10 17  1  0  0  0  0
 11 22  1  0  0  0  0
 11 24  1  0  0  0  0
 11 29  1  0  0  0  0
 12 13  2  0  0  0  0
 12 14  1  0  0  0  0
 13 15  1  0  0  0  0
 14 15  1  0  0  0  0
 16 20  1  0  0  0  0
 21 16  1  1  0  0  0
 17 18  2  0  0  0  0
 17 23  1  0  0  0  0
 18 19  1  0  0  0  0
 19 22  1  0  0  0  0
 19 25  2  0  0  0  0
 20 26  2  0  0  0  0
 21 28  1  0  0  0  0
 23 27  2  0  0  0  0
 24 31  1  0  0  0  0
 24 33  1  0  0  0  0
 25 27  1  0  0  0  0
 26 32  1  0  0  0  0
 28 36  1  0  0  0  0
 29 34  1  0  0  0  0
 30 32  2  0  0  0  0
 30 37  1  0  0  0  0
 31 34  1  0  0  0  0
 35 36  1  0  0  0  0
M  END
> <PUBCHEM_COMPOUND_ID_TYPE>
0

> <PUBCHEM_TOTAL_CHARGE>
0

> <PUBCHEM_SUBSTANCE_ID>
310931089

> <PUBCHEM_SUBSTANCE_VERSION>
1

> <PUBCHEM_EXT_DATASOURCE_NAME>
4488

> <PUBCHEM_EXT_DATASOURCE_REGID>
SCHEMBL16108393

> <PUBCHEM_SUBSTANCE_COMMENT>
InChI=1S/C26H27N3O7S/c1-13-9-10-17(36-13)19(18-8-4-12-37-18)28-21-20(23(31)24(21)32)27-15-6-2-5-14(22(15)30)25(33)29-11-3-7-16(29)26(34)35/h2,5-6,9-10,16,18-19,27-28,30H,3-4,7-8,11-12H2,1H3,(H,34,35)/t16?,18-,19?/m1/s1
InChIKey=SEAKARCOKOAPEQ-CUYAVPTFSA-N

> <PUBCHEM_SUBSTANCE_SYNONYM>
SCHEMBL16108393

> <PUBCHEM_XREF_EXT_ID>
SCHEMBL16108393

> <PUBCHEM_EXT_DATASOURCE_URL>
https://www.surechembl.org/

> <PUBCHEM_EXT_SUBSTANCE_URL>
https://www.surechembl.org/chemical/SCHEMBL16108393

> <PUBCHEM_CID_ASSOCIATIONS>
117599989  1

> <PUBCHEM_COORDINATE_TYPE>
1
3

> <PUBCHEM_BONDANNOTATIONS>
21  16  5

$$$$
