310931599
  -OEChem-07211613022D

 13 13  0     0  0  0  0  0  0999 V2000
    0.7260    0.0000    0.0000 F   0  0  0  0  0  0  0  0  0  0  0  0
    2.1449    0.0000    0.0000 O   0  0  0  0  0  0  0  0  0  0  0  0
    2.8544   -2.0624    0.0000 O   0  5  0  0  0  0  0  0  0  0  0  0
    2.1449   -3.2999    0.0000 O   0  0  0  0  0  0  0  0  0  0  0  0
    2.1449   -2.4749    0.0000 N   0  3  0  0  0  0  0  0  0  0  0  0
    2.8709   -1.2374    0.0000 N   0  0  0  0  0  0  0  0  0  0  0  0
    1.4355   -1.2374    0.0000 C   0  0  0  0  0  0  0  0  0  0  0  0
    1.4355   -2.0624    0.0000 C   0  0  0  0  0  0  0  0  0  0  0  0
    0.7260   -0.8249    0.0000 C   0  0  0  0  0  0  0  0  0  0  0  0
    2.1449   -0.8249    0.0000 C   0  0  0  0  0  0  0  0  0  0  0  0
    0.7260   -2.4749    0.0000 C   0  0  0  0  0  0  0  0  0  0  0  0
    0.0000   -1.2374    0.0000 C   0  0  0  0  0  0  0  0  0  0  0  0
    0.0000   -2.0624    0.0000 C   0  0  0  0  0  0  0  0  0  0  0  0
  1  9  1  0  0  0  0
  2 10  2  0  0  0  0
  3  5  1  0  0  0  0
  4  5  2  0  0  0  0
  5  8  1  0  0  0  0
  6 10  1  0  0  0  0
  7  8  1  0  0  0  0
  7  9  2  0  0  0  0
  7 10  1  0  0  0  0
  8 11  2  0  0  0  0
  9 12  1  0  0  0  0
 11 13  1  0  0  0  0
 12 13  2  0  0  0  0
M  CHG  2   3  -1   5   1
M  END
> <PUBCHEM_COMPOUND_ID_TYPE>
0

> <PUBCHEM_TOTAL_CHARGE>
0

> <PUBCHEM_SUBSTANCE_ID>
310931599

> <PUBCHEM_SUBSTANCE_VERSION>
1

> <PUBCHEM_EXT_DATASOURCE_NAME>
4488

> <PUBCHEM_EXT_DATASOURCE_REGID>
SCHEMBL16108925

> <PUBCHEM_SUBSTANCE_COMMENT>
InChI=1S/C7H5FN2O3/c8-4-2-1-3-5(10(12)13)6(4)7(9)11/h1-3H,(H2,9,11)
InChIKey=FLYBIMSVHDXMGP-UHFFFAOYSA-N

> <PUBCHEM_SUBSTANCE_SYNONYM>
SCHEMBL16108925

> <PUBCHEM_XREF_EXT_ID>
SCHEMBL16108925

> <PUBCHEM_EXT_DATASOURCE_URL>
https://www.surechembl.org/

> <PUBCHEM_EXT_SUBSTANCE_URL>
https://www.surechembl.org/chemical/SCHEMBL16108925

> <PUBCHEM_CID_ASSOCIATIONS>
10419858  1

> <PUBCHEM_COORDINATE_TYPE>
1
3

$$$$
