310931569
  -OEChem-07211613022D

 28 30  0     0  0  0  0  0  0999 V2000
    4.0735   -2.1082    0.0000 O   0  0  0  0  0  0  0  0  0  0  0  0
    8.5759   -2.2154    0.0000 O   0  0  0  0  0  0  0  0  0  0  0  0
   10.0052   -3.8591    0.0000 O   0  0  0  0  0  0  0  0  0  0  0  0
    4.9668   -0.9648    0.0000 N   0  0  0  0  0  0  0  0  0  0  0  0
    4.8954   -0.1429    0.0000 N   0  0  0  0  0  0  0  0  0  0  0  0
    6.3962   -0.9648    0.0000 N   0  0  0  0  0  0  0  0  0  0  0  0
    7.8612   -3.4661    0.0000 N   0  0  0  0  0  0  0  0  0  0  0  0
    0.0000   -1.8224    0.0000 N   0  0  0  0  0  0  0  0  0  0  0  0
    4.2164   -1.3221    0.0000 C   0  0  0  0  0  0  0  0  0  0  0  0
    3.6447   -0.7147    0.0000 C   0  0  0  0  0  0  0  0  0  0  0  0
    5.6815   -1.3936    0.0000 C   0  0  0  0  0  0  0  0  0  0  0  0
    2.8229   -0.7861    0.0000 C   0  0  0  0  0  0  0  0  0  0  0  0
    4.0735    0.0000    0.0000 C   0  0  0  0  0  0  0  0  0  0  0  0
    7.1108   -2.2154    0.0000 C   0  0  0  0  0  0  0  0  0  0  0  0
    5.6815   -2.2154    0.0000 C   0  0  0  0  0  0  0  0  0  0  0  0
    6.3962   -2.6085    0.0000 C   0  0  0  0  0  0  0  0  0  0  0  0
    7.1108   -1.3936    0.0000 C   0  0  0  0  0  0  0  0  0  0  0  0
    7.8612   -2.6085    0.0000 C   0  0  0  0  0  0  0  0  0  0  0  0
    2.5013   -1.5722    0.0000 C   0  0  0  0  0  0  0  0  0  0  0  0
    2.3226   -0.1429    0.0000 C   0  0  0  0  0  0  0  0  0  0  0  0
    1.1792   -1.0005    0.0000 C   0  0  0  0  0  0  0  0  0  0  0  0
    1.6794   -1.6437    0.0000 C   0  0  0  0  0  0  0  0  0  0  0  0
    1.5007   -0.2144    0.0000 C   0  0  0  0  0  0  0  0  0  0  0  0
    6.3962   -3.4304    0.0000 C   0  0  0  0  0  0  0  0  0  0  0  0
    0.3573   -1.0720    0.0000 C   0  0  0  0  0  0  0  0  0  0  0  0
    8.5759   -3.8591    0.0000 C   0  0  0  0  0  0  0  0  0  0  0  0
    9.2905   -3.4304    0.0000 C   0  0  0  0  0  0  0  0  0  0  0  0
   10.7198   -3.4304    0.0000 C   0  0  0  0  0  0  0  0  0  0  0  0
  1  9  1  0  0  0  0
  2 18  2  0  0  0  0
  3 27  1  0  0  0  0
  3 28  1  0  0  0  0
  4  5  1  0  0  0  0
  4  9  1  0  0  0  0
  4 11  1  0  0  0  0
  5 13  2  0  0  0  0
  6 11  2  0  0  0  0
  6 17  1  0  0  0  0
  7 18  1  0  0  0  0
  7 26  1  0  0  0  0
  8 25  3  0  0  0  0
  9 10  2  0  0  0  0
 10 12  1  0  0  0  0
 10 13  1  0  0  0  0
 11 15  1  0  0  0  0
 12 19  2  0  0  0  0
 12 20  1  0  0  0  0
 14 16  1  0  0  0  0
 14 17  2  0  0  0  0
 14 18  1  0  0  0  0
 15 16  2  0  0  0  0
 16 24  1  0  0  0  0
 19 22  1  0  0  0  0
 20 23  2  0  0  0  0
 21 22  2  0  0  0  0
 21 23  1  0  0  0  0
 21 25  1  0  0  0  0
 26 27  1  0  0  0  0
M  END
> <PUBCHEM_COMPOUND_ID_TYPE>
0

> <PUBCHEM_TOTAL_CHARGE>
0

> <PUBCHEM_SUBSTANCE_ID>
310931569

> <PUBCHEM_SUBSTANCE_VERSION>
1

> <PUBCHEM_EXT_DATASOURCE_NAME>
4488

> <PUBCHEM_EXT_DATASOURCE_REGID>
SCHEMBL16108895

> <PUBCHEM_SUBSTANCE_COMMENT>
InChI=1S/C20H19N5O3/c1-13-9-18(23-11-16(13)19(26)22-7-8-28-2)25-20(27)17(12-24-25)15-5-3-14(10-21)4-6-15/h3-6,9,11-12,27H,7-8H2,1-2H3,(H,22,26)
InChIKey=JFDCTEGKUYYOAZ-UHFFFAOYSA-N

> <PUBCHEM_SUBSTANCE_SYNONYM>
SCHEMBL16108895

> <PUBCHEM_XREF_EXT_ID>
SCHEMBL16108895

> <PUBCHEM_EXT_DATASOURCE_URL>
https://www.surechembl.org/

> <PUBCHEM_EXT_SUBSTANCE_URL>
https://www.surechembl.org/chemical/SCHEMBL16108895

> <PUBCHEM_CID_ASSOCIATIONS>
117600312  1

> <PUBCHEM_COORDINATE_TYPE>
1
3

$$$$
