310936717
  -OEChem-07211613022D

 25 28  0     1  0  0  0  0  0999 V2000
   -0.6284    1.5229    0.0000 O   0  0  0  0  0  0  0  0  0  0  0  0
    4.5075    0.6807    0.0000 O   0  0  0  0  0  0  0  0  0  0  0  0
    3.4990    1.9354    0.0000 O   0  0  0  0  0  0  0  0  0  0  0  0
   -0.1435    2.1904    0.0000 N   0  0  0  0  0  0  0  0  0  0  0  0
    2.0701    1.1104    0.0000 C   0  0  3  0  0  0  0  0  0  0  0  0
    2.3522    0.3352    0.0000 C   0  0  3  0  0  0  0  0  0  0  0  0
    2.9166   -1.2153    0.0000 C   0  0  3  0  0  0  0  0  0  0  0  0
    3.4469   -0.5833    0.0000 C   0  0  3  0  0  0  0  0  0  0  0  0
    3.1647    0.1919    0.0000 C   0  0  3  0  0  0  0  0  0  0  0  0
    2.0701    1.9354    0.0000 C   0  0  3  0  0  0  0  0  0  0  0  0
    1.3556    0.6979    0.0000 C   0  0  0  0  0  0  0  0  0  0  0  0
    3.3537   -1.9149    0.0000 C   0  0  0  0  0  0  0  0  0  0  0  0
    1.8219   -0.2968    0.0000 C   0  0  0  0  0  0  0  0  0  0  0  0
    2.1041   -1.0720    0.0000 C   0  0  0  0  0  0  0  0  0  0  0  0
    0.6411    1.1104    0.0000 C   0  0  0  0  0  0  0  0  0  0  0  0
    0.6411    1.9354    0.0000 C   0  0  0  0  0  0  0  0  0  0  0  0
    4.2118   -0.8924    0.0000 C   0  0  0  0  0  0  0  0  0  0  0  0
    1.3556    2.3479    0.0000 C   0  0  0  0  0  0  0  0  0  0  0  0
    4.1542   -1.7154    0.0000 C   0  0  0  0  0  0  0  0  0  0  0  0
    2.8825    1.2537    0.0000 C   0  0  0  0  0  0  0  0  0  0  0  0
    3.6950    0.8239    0.0000 C   0  0  0  0  0  0  0  0  0  0  0  0
    2.4552   -1.8993    0.0000 C   0  0  0  0  0  0  0  0  0  0  0  0
    2.7845    2.3479    0.0000 C   0  0  0  0  0  0  0  0  0  0  0  0
   -0.1435    0.8555    0.0000 C   0  0  0  0  0  0  0  0  0  0  0  0
    3.0447   -2.6799    0.0000 C   0  0  0  0  0  0  0  0  0  0  0  0
  1  4  1  0  0  0  0
  1 24  1  0  0  0  0
  2 21  2  0  0  0  0
  3 23  2  0  0  0  0
  4 16  2  0  0  0  0
  5  6  1  0  0  0  0
  5 10  1  0  0  0  0
  5 11  1  0  0  0  0
  5 20  1  6  0  0  0
  6  9  1  0  0  0  0
  6 13  1  6  0  0  0
  7  8  1  0  0  0  0
  7 12  1  0  0  0  0
  7 14  1  0  0  0  0
  7 22  1  6  0  0  0
  8  9  1  0  0  0  0
  8 17  1  6  0  0  0
  9 21  1  1  0  0  0
 10 18  1  0  0  0  0
 10 23  1  6  0  0  0
 11 15  1  0  0  0  0
 12 19  1  0  0  0  0
 12 25  2  0  0  0  0
 13 14  1  0  0  0  0
 15 16  1  0  0  0  0
 15 24  2  0  0  0  0
 16 18  1  0  0  0  0
 17 19  1  0  0  0  0
M  END
> <PUBCHEM_COMPOUND_ID_TYPE>
0

> <PUBCHEM_TOTAL_CHARGE>
0

> <PUBCHEM_SUBSTANCE_ID>
310936717

> <PUBCHEM_SUBSTANCE_VERSION>
1

> <PUBCHEM_EXT_DATASOURCE_NAME>
4488

> <PUBCHEM_EXT_DATASOURCE_REGID>
SCHEMBL16114395

> <PUBCHEM_SUBSTANCE_COMMENT>
InChI=1S/C21H27NO3/c1-13-4-5-17-16(11-24)18(6-7-20(13,17)2)21(3)9-14-12-25-22-19(14)8-15(21)10-23/h10-12,15-18H,1,4-9H2,2-3H3/t15-,16+,17+,18+,20-,21+/m1/s1
InChIKey=CZIRIVWNJFQCGD-QPNVGHEYSA-N

> <PUBCHEM_SUBSTANCE_SYNONYM>
SCHEMBL16114395

> <PUBCHEM_XREF_EXT_ID>
SCHEMBL16114395

> <PUBCHEM_EXT_DATASOURCE_URL>
https://www.surechembl.org/

> <PUBCHEM_EXT_SUBSTANCE_URL>
https://www.surechembl.org/chemical/SCHEMBL16114395

> <PUBCHEM_CID_ASSOCIATIONS>
117604619  1

> <PUBCHEM_COORDINATE_TYPE>
1
3

> <PUBCHEM_BONDANNOTATIONS>
10  23  6
5  20  6
6  13  6
7  22  6
8  17  6
9  21  5

$$$$
