310944608
  -OEChem-07211613022D

 13 13  0     0  0  0  0  0  0999 V2000
    0.0191    1.6374    0.0000 F   0  0  0  0  0  0  0  0  0  0  0  0
   -2.1387    1.1677    0.0000 N   0  0  0  0  0  0  0  0  0  0  0  0
    2.1387    1.2439    0.0000 N   0  0  0  0  0  0  0  0  0  0  0  0
   -0.7045    0.4316    0.0000 C   0  0  0  0  0  0  0  0  0  0  0  0
    0.0191    0.8377    0.0000 C   0  0  0  0  0  0  0  0  0  0  0  0
   -0.7172   -0.3935    0.0000 C   0  0  0  0  0  0  0  0  0  0  0  0
    0.7298    0.4316    0.0000 C   0  0  0  0  0  0  0  0  0  0  0  0
    0.0063   -0.7870    0.0000 C   0  0  0  0  0  0  0  0  0  0  0  0
    0.7298   -0.3681    0.0000 C   0  0  0  0  0  0  0  0  0  0  0  0
   -1.4280    0.8123    0.0000 C   0  0  0  0  0  0  0  0  0  0  0  0
    1.4406    0.8504    0.0000 C   0  0  0  0  0  0  0  0  0  0  0  0
   -1.4406   -0.8251    0.0000 C   0  0  0  0  0  0  0  0  0  0  0  0
    0.0191   -1.6374    0.0000 C   0  0  0  0  0  0  0  0  0  0  0  0
  1  5  1  0  0  0  0
  2 10  3  0  0  0  0
  3 11  3  0  0  0  0
  4  5  1  0  0  0  0
  4  6  2  0  0  0  0
  4 10  1  0  0  0  0
  5  7  2  0  0  0  0
  6  8  1  0  0  0  0
  6 12  1  0  0  0  0
  7  9  1  0  0  0  0
  7 11  1  0  0  0  0
  8  9  2  0  0  0  0
  8 13  1  0  0  0  0
M  END
> <PUBCHEM_COMPOUND_ID_TYPE>
0

> <PUBCHEM_TOTAL_CHARGE>
0

> <PUBCHEM_SUBSTANCE_ID>
310944608

> <PUBCHEM_SUBSTANCE_VERSION>
1

> <PUBCHEM_EXT_DATASOURCE_NAME>
4488

> <PUBCHEM_EXT_DATASOURCE_REGID>
SCHEMBL16122686

> <PUBCHEM_SUBSTANCE_COMMENT>
InChI=1S/C10H7FN2/c1-6-3-8(4-12)10(11)9(5-13)7(6)2/h3H,1-2H3
InChIKey=TVUYLBLDAVEZAY-UHFFFAOYSA-N

> <PUBCHEM_SUBSTANCE_SYNONYM>
SCHEMBL16122686

> <PUBCHEM_XREF_EXT_ID>
SCHEMBL16122686

> <PUBCHEM_EXT_DATASOURCE_URL>
https://www.surechembl.org/

> <PUBCHEM_EXT_SUBSTANCE_URL>
https://www.surechembl.org/chemical/SCHEMBL16122686

> <PUBCHEM_CID_ASSOCIATIONS>
117610838  1

> <PUBCHEM_COORDINATE_TYPE>
1
3

$$$$
