310932820
  -OEChem-07211613022D

 29 31  0     0  0  0  0  0  0999 V2000
    2.6030    0.0000    0.0000 F   0  0  0  0  0  0  0  0  0  0  0  0
    3.9913   -2.7419    0.0000 O   0  0  0  0  0  0  0  0  0  0  0  0
    8.4686   -2.8113    0.0000 O   0  0  0  0  0  0  0  0  0  0  0  0
    9.2321   -6.5250    0.0000 O   0  0  0  0  0  0  0  0  0  0  0  0
    4.8937   -1.5965    0.0000 N   0  0  0  0  0  0  0  0  0  0  0  0
    4.8244   -0.7636    0.0000 N   0  0  0  0  0  0  0  0  0  0  0  0
    6.3515   -1.5965    0.0000 N   0  0  0  0  0  0  0  0  0  0  0  0
    7.7745   -4.0608    0.0000 N   0  0  0  0  0  0  0  0  0  0  0  0
    0.0000   -2.4642    0.0000 N   0  0  0  0  0  0  0  0  0  0  0  0
    3.6095   -1.3189    0.0000 C   0  0  0  0  0  0  0  0  0  0  0  0
    4.1649   -1.9436    0.0000 C   0  0  0  0  0  0  0  0  0  0  0  0
    2.7766   -1.4230    0.0000 C   0  0  0  0  0  0  0  0  0  0  0  0
    5.6226   -2.0131    0.0000 C   0  0  0  0  0  0  0  0  0  0  0  0
    3.9913   -0.6247    0.0000 C   0  0  0  0  0  0  0  0  0  0  0  0
    2.2907   -0.7636    0.0000 C   0  0  0  0  0  0  0  0  0  0  0  0
    2.4642   -2.1866    0.0000 C   0  0  0  0  0  0  0  0  0  0  0  0
    5.6226   -2.8113    0.0000 C   0  0  0  0  0  0  0  0  0  0  0  0
    7.0456   -2.8113    0.0000 C   0  0  0  0  0  0  0  0  0  0  0  0
    1.4577   -0.8677    0.0000 C   0  0  0  0  0  0  0  0  0  0  0  0
    1.1453   -1.5965    0.0000 C   0  0  0  0  0  0  0  0  0  0  0  0
    1.6313   -2.2560    0.0000 C   0  0  0  0  0  0  0  0  0  0  0  0
    7.0456   -2.0131    0.0000 C   0  0  0  0  0  0  0  0  0  0  0  0
    6.3515   -3.2278    0.0000 C   0  0  0  0  0  0  0  0  0  0  0  0
    7.7745   -3.2278    0.0000 C   0  0  0  0  0  0  0  0  0  0  0  0
    0.3124   -1.7006    0.0000 C   0  0  0  0  0  0  0  0  0  0  0  0
    8.5033   -4.4773    0.0000 C   0  0  0  0  0  0  0  0  0  0  0  0
    8.5033   -5.3102    0.0000 C   0  0  0  0  0  0  0  0  0  0  0  0
    9.1975   -5.6920    0.0000 C   0  0  0  0  0  0  0  0  0  0  0  0
    9.9263   -6.9414    0.0000 C   0  0  0  0  0  0  0  0  0  0  0  0
  1 15  1  0  0  0  0
  2 11  1  0  0  0  0
  3 24  2  0  0  0  0
  4 28  1  0  0  0  0
  4 29  1  0  0  0  0
  5  6  1  0  0  0  0
  5 11  1  0  0  0  0
  5 13  1  0  0  0  0
  6 14  2  0  0  0  0
  7 13  2  0  0  0  0
  7 22  1  0  0  0  0
  8 24  1  0  0  0  0
  8 26  1  0  0  0  0
  9 25  3  0  0  0  0
 10 11  2  0  0  0  0
 10 12  1  0  0  0  0
 10 14  1  0  0  0  0
 12 15  1  0  0  0  0
 12 16  2  0  0  0  0
 13 17  1  0  0  0  0
 15 19  2  0  0  0  0
 16 21  1  0  0  0  0
 17 23  2  0  0  0  0
 18 22  2  0  0  0  0
 18 23  1  0  0  0  0
 18 24  1  0  0  0  0
 19 20  1  0  0  0  0
 20 21  2  0  0  0  0
 20 25  1  0  0  0  0
 26 27  1  0  0  0  0
 27 28  1  0  0  0  0
M  END
> <PUBCHEM_COMPOUND_ID_TYPE>
0

> <PUBCHEM_TOTAL_CHARGE>
0

> <PUBCHEM_SUBSTANCE_ID>
310932820

> <PUBCHEM_SUBSTANCE_VERSION>
1

> <PUBCHEM_EXT_DATASOURCE_NAME>
4488

> <PUBCHEM_EXT_DATASOURCE_REGID>
SCHEMBL16110208

> <PUBCHEM_SUBSTANCE_COMMENT>
InChI=1S/C20H18FN5O3/c1-29-8-2-7-23-19(27)14-4-6-18(24-11-14)26-20(28)16(12-25-26)15-5-3-13(10-22)9-17(15)21/h3-6,9,11-12,28H,2,7-8H2,1H3,(H,23,27)
InChIKey=HNWFHNYSLGGQHK-UHFFFAOYSA-N

> <PUBCHEM_SUBSTANCE_SYNONYM>
SCHEMBL16110208

> <PUBCHEM_XREF_EXT_ID>
SCHEMBL16110208

> <PUBCHEM_EXT_DATASOURCE_URL>
https://www.surechembl.org/

> <PUBCHEM_EXT_SUBSTANCE_URL>
https://www.surechembl.org/chemical/SCHEMBL16110208

> <PUBCHEM_CID_ASSOCIATIONS>
117601310  1

> <PUBCHEM_COORDINATE_TYPE>
1
3

$$$$
