310929758
  -OEChem-07211613022D

 17 18  0     0  0  0  0  0  0999 V2000
    2.8422   -1.4430    0.0000 N   0  0  0  0  0  0  0  0  0  0  0  0
    6.1434   -1.4430    0.0000 N   0  0  0  0  0  0  0  0  0  0  0  0
    1.2243   -1.4211    0.0000 N   0  0  0  0  0  0  0  0  0  0  0  0
    3.6511   -1.4430    0.0000 C   0  0  0  0  0  0  0  0  0  0  0  0
    5.3345   -1.4430    0.0000 C   0  0  0  0  0  0  0  0  0  0  0  0
    1.6178   -0.7215    0.0000 C   0  0  0  0  0  0  0  0  0  0  0  0
    4.0883   -2.1426    0.0000 C   0  0  0  0  0  0  0  0  0  0  0  0
    4.0883   -0.7433    0.0000 C   0  0  0  0  0  0  0  0  0  0  0  0
    4.8973   -2.1426    0.0000 C   0  0  0  0  0  0  0  0  0  0  0  0
    4.8973   -0.7433    0.0000 C   0  0  0  0  0  0  0  0  0  0  0  0
    2.4486   -0.7215    0.0000 C   0  0  0  0  0  0  0  0  0  0  0  0
    1.2243    0.0000    0.0000 C   0  0  0  0  0  0  0  0  0  0  0  0
    0.3935   -1.4430    0.0000 C   0  0  0  0  0  0  0  0  0  0  0  0
    0.3935   -0.0219    0.0000 C   0  0  0  0  0  0  0  0  0  0  0  0
    0.0000   -0.7215    0.0000 C   0  0  0  0  0  0  0  0  0  0  0  0
    6.5588   -2.1426    0.0000 C   0  0  0  0  0  0  0  0  0  0  0  0
    6.5588   -0.7215    0.0000 C   0  0  0  0  0  0  0  0  0  0  0  0
  1  4  1  0  0  0  0
  1 11  1  0  0  0  0
  2  5  1  0  0  0  0
  2 16  1  0  0  0  0
  2 17  1  0  0  0  0
  3  6  1  0  0  0  0
  3 13  2  0  0  0  0
  4  7  2  0  0  0  0
  4  8  1  0  0  0  0
  5  9  2  0  0  0  0
  5 10  1  0  0  0  0
  6 11  1  0  0  0  0
  6 12  2  0  0  0  0
  7  9  1  0  0  0  0
  8 10  2  0  0  0  0
 12 14  1  0  0  0  0
 13 15  1  0  0  0  0
 14 15  2  0  0  0  0
M  END
> <PUBCHEM_COMPOUND_ID_TYPE>
0

> <PUBCHEM_TOTAL_CHARGE>
0

> <PUBCHEM_SUBSTANCE_ID>
310929758

> <PUBCHEM_SUBSTANCE_VERSION>
1

> <PUBCHEM_EXT_DATASOURCE_NAME>
4488

> <PUBCHEM_EXT_DATASOURCE_REGID>
SCHEMBL16106956

> <PUBCHEM_SUBSTANCE_COMMENT>
InChI=1S/C14H17N3/c1-17(2)14-8-6-12(7-9-14)16-11-13-5-3-4-10-15-13/h3-10,16H,11H2,1-2H3
InChIKey=RIKLBFYMQFBFJF-UHFFFAOYSA-N

> <PUBCHEM_SUBSTANCE_SYNONYM>
SCHEMBL16106956

> <PUBCHEM_XREF_EXT_ID>
SCHEMBL16106956

> <PUBCHEM_EXT_DATASOURCE_URL>
https://www.surechembl.org/

> <PUBCHEM_EXT_SUBSTANCE_URL>
https://www.surechembl.org/chemical/SCHEMBL16106956

> <PUBCHEM_CID_ASSOCIATIONS>
39247144  1

> <PUBCHEM_COORDINATE_TYPE>
1
3

$$$$
