310937824
  -OEChem-07211613022D

 51 55  0     1  0  0  0  0  0999 V2000
    7.9455   -3.7815    0.0000 F   0  0  0  0  0  0  0  0  0  0  0  0
    7.8180   -2.3369    0.0000 F   0  0  0  0  0  0  0  0  0  0  0  0
    7.1382   -3.8240    0.0000 F   0  0  0  0  0  0  0  0  0  0  0  0
    6.2034    0.0000    0.0000 F   0  0  0  0  0  0  0  0  0  0  0  0
    5.0137   -0.8073    0.0000 F   0  0  0  0  0  0  0  0  0  0  0  0
    6.6708   -0.6798    0.0000 F   0  0  0  0  0  0  0  0  0  0  0  0
    3.8665   -3.1017    0.0000 O   0  0  0  0  0  0  0  0  0  0  0  0
    0.6798   -8.2004    0.0000 O   0  0  0  0  0  0  0  0  0  0  0  0
    2.5494   -3.7390    0.0000 O   0  0  0  0  0  0  0  0  0  0  0  0
    3.9940   -7.0532    0.0000 O   0  0  0  0  0  0  0  0  0  0  0  0
    2.7618   -6.3734    0.0000 O   0  0  0  0  0  0  0  0  0  0  0  0
    3.8240   -4.4189    0.0000 N   0  0  0  0  0  0  0  0  0  0  0  0
    2.4644   -3.9515    0.0000 N   0  0  0  0  0  0  0  0  0  0  0  0
    1.4021   -4.9287    0.0000 N   0  0  0  0  0  0  0  0  0  0  0  0
    1.4446   -8.4553    0.0000 N   0  0  0  0  0  0  0  0  0  0  0  0
    2.7618   -7.7755    0.0000 N   0  0  0  0  0  0  0  0  0  0  0  0
    4.6313   -3.3567    0.0000 C   0  0  3  0  0  0  0  0  0  0  0  0
    4.6313   -4.1640    0.0000 C   0  0  3  0  0  0  0  0  0  0  0  0
    5.3111   -2.8893    0.0000 C   0  0  0  0  0  0  0  0  0  0  0  0
    2.7618   -5.3536    0.0000 C   0  0  0  0  0  0  0  0  0  0  0  0
    3.3567   -3.7390    0.0000 C   0  0  0  0  0  0  0  0  0  0  0  0
    2.2094   -4.7163    0.0000 C   0  0  0  0  0  0  0  0  0  0  0  0
    3.5691   -5.2262    0.0000 C   0  0  0  0  0  0  0  0  0  0  0  0
    1.6996   -6.3309    0.0000 C   0  0  0  0  0  0  0  0  0  0  0  0
    1.4446   -7.0957    0.0000 C   0  0  0  0  0  0  0  0  0  0  0  0
    6.7133   -2.7193    0.0000 C   0  0  0  0  0  0  0  0  0  0  0  0
    5.9060   -1.5721    0.0000 C   0  0  0  0  0  0  0  0  0  0  0  0
    5.2262   -2.0395    0.0000 C   0  0  0  0  0  0  0  0  0  0  0  0
    6.0760   -3.2292    0.0000 C   0  0  0  0  0  0  0  0  0  0  0  0
    2.5068   -6.1184    0.0000 C   0  0  0  0  0  0  0  0  0  0  0  0
    1.9120   -7.7755    0.0000 C   0  0  0  0  0  0  0  0  0  0  0  0
    6.6708   -1.9120    0.0000 C   0  0  0  0  0  0  0  0  0  0  0  0
    7.4781   -3.1017    0.0000 C   0  0  0  0  0  0  0  0  0  0  0  0
    5.8635   -0.7223    0.0000 C   0  0  0  0  0  0  0  0  0  0  0  0
    0.6798   -7.3931    0.0000 C   0  0  0  0  0  0  0  0  0  0  0  0
    1.1472   -5.6936    0.0000 C   0  0  0  0  0  0  0  0  0  0  0  0
    5.2687   -4.6738    0.0000 C   0  0  0  0  0  0  0  0  0  0  0  0
    3.4416   -3.9515    0.0000 C   0  0  0  0  0  0  0  0  0  0  0  0
    1.9120   -3.3141    0.0000 C   0  0  0  0  0  0  0  0  0  0  0  0
    0.0000   -6.8833    0.0000 C   0  0  0  0  0  0  0  0  0  0  0  0
    3.1442   -7.0532    0.0000 C   0  0  0  0  0  0  0  0  0  0  0  0
    3.5691   -2.9742    0.0000 C   0  0  0  0  0  0  0  0  0  0  0  0
    4.0365   -4.5463    0.0000 C   0  0  0  0  0  0  0  0  0  0  0  0
    4.3764   -2.8043    0.0000 C   0  0  0  0  0  0  0  0  0  0  0  0
    4.8013   -4.3764    0.0000 C   0  0  0  0  0  0  0  0  0  0  0  0
    1.1047   -3.5266    0.0000 C   0  0  0  0  0  0  0  0  0  0  0  0
    4.4189   -7.7755    0.0000 C   0  0  0  0  0  0  0  0  0  0  0  0
    4.9287   -3.4416    0.0000 C   0  0  0  0  0  0  0  0  0  0  0  0
    3.6541   -8.2004    0.0000 C   0  0  0  0  0  0  0  0  0  0  0  0
    4.8013   -8.4979    0.0000 C   0  0  0  0  0  0  0  0  0  0  0  0
    5.0987   -7.3931    0.0000 C   0  0  0  0  0  0  0  0  0  0  0  0
  1 33  1  0  0  0  0
  2 33  1  0  0  0  0
  3 33  1  0  0  0  0
  4 34  1  0  0  0  0
  5 34  1  0  0  0  0
  6 34  1  0  0  0  0
 17  7  1  1  0  0  0
  7 21  1  0  0  0  0
  8 15  1  0  0  0  0
  8 35  1  0  0  0  0
  9 21  2  0  0  0  0
 10 41  1  0  0  0  0
 10 47  1  0  0  0  0
 11 41  2  0  0  0  0
 12 18  1  0  0  0  0
 12 21  1  0  0  0  0
 12 23  1  0  0  0  0
 13 22  1  0  0  0  0
 13 38  1  0  0  0  0
 13 39  1  0  0  0  0
 14 22  2  0  0  0  0
 14 36  1  0  0  0  0
 15 31  2  0  0  0  0
 16 31  1  0  0  0  0
 16 41  1  0  0  0  0
 17 18  1  0  0  0  0
 17 19  1  0  0  0  0
 18 37  1  6  0  0  0
 19 28  2  0  0  0  0
 19 29  1  0  0  0  0
 20 22  1  0  0  0  0
 20 23  1  0  0  0  0
 20 30  2  0  0  0  0
 24 25  1  0  0  0  0
 24 30  1  0  0  0  0
 24 36  2  0  0  0  0
 25 31  1  0  0  0  0
 25 35  2  0  0  0  0
 26 29  2  0  0  0  0
 26 32  1  0  0  0  0
 26 33  1  0  0  0  0
 27 28  1  0  0  0  0
 27 32  2  0  0  0  0
 27 34  1  0  0  0  0
 35 40  1  0  0  0  0
 38 42  1  0  0  0  0
 38 43  1  0  0  0  0
 39 46  1  0  0  0  0
 42 44  1  0  0  0  0
 43 45  1  0  0  0  0
 44 48  1  0  0  0  0
 45 48  1  0  0  0  0
 47 49  1  0  0  0  0
 47 50  1  0  0  0  0
 47 51  1  0  0  0  0
M  END
> <PUBCHEM_COMPOUND_ID_TYPE>
0

> <PUBCHEM_TOTAL_CHARGE>
0

> <PUBCHEM_SUBSTANCE_ID>
310937824

> <PUBCHEM_SUBSTANCE_VERSION>
1

> <PUBCHEM_EXT_DATASOURCE_NAME>
4488

> <PUBCHEM_EXT_DATASOURCE_REGID>
SCHEMBL16115643

> <PUBCHEM_SUBSTANCE_COMMENT>
InChI=1S/C35H41F6N5O5/c1-7-45(26-11-9-8-10-12-26)30-23(13-22(17-42-30)27-20(3)51-44-29(27)43-31(47)50-33(4,5)6)18-46-19(2)28(49-32(46)48)21-14-24(34(36,37)38)16-25(15-21)35(39,40)41/h13-17,19,26,28H,7-12,18H2,1-6H3,(H,43,44,47)/t19-,28+/m0/s1
InChIKey=SDKQRTBDQWJKDI-HMILPKGGSA-N

> <PUBCHEM_SUBSTANCE_SYNONYM>
SCHEMBL16115643

> <PUBCHEM_XREF_EXT_ID>
SCHEMBL16115643

> <PUBCHEM_EXT_DATASOURCE_URL>
https://www.surechembl.org/

> <PUBCHEM_EXT_SUBSTANCE_URL>
https://www.surechembl.org/chemical/SCHEMBL16115643

> <PUBCHEM_CID_ASSOCIATIONS>
117605466  1

> <PUBCHEM_COORDINATE_TYPE>
1
3

> <PUBCHEM_BONDANNOTATIONS>
18  37  6
17  7  5

$$$$
