310940070
  -OEChem-07211613022D

 37 40  0     0  0  0  0  0  0999 V2000
    1.0313   -0.3572    0.0000 O   0  0  0  0  0  0  0  0  0  0  0  0
    1.0313    2.5006    0.0000 O   0  0  0  0  0  0  0  0  0  0  0  0
   -3.0937   -0.3572    0.0000 O   0  0  0  0  0  0  0  0  0  0  0  0
   -3.0937    2.5006    0.0000 O   0  0  0  0  0  0  0  0  0  0  0  0
    5.5688   -1.0717    0.0000 O   0  0  0  0  0  0  0  0  0  0  0  0
    6.8063   -1.7862    0.0000 O   0  0  0  0  0  0  0  0  0  0  0  0
    1.0313    1.0717    0.0000 N   0  0  0  0  0  0  0  0  0  0  0  0
   -3.0938    1.0717    0.0000 N   0  0  0  0  0  0  0  0  0  0  0  0
   -0.6187    1.0717    0.0000 C   0  0  0  0  0  0  0  0  0  0  0  0
   -1.4437    1.0717    0.0000 C   0  0  0  0  0  0  0  0  0  0  0  0
   -0.2062    0.3572    0.0000 C   0  0  0  0  0  0  0  0  0  0  0  0
   -0.2062    1.7862    0.0000 C   0  0  0  0  0  0  0  0  0  0  0  0
   -1.8562    0.3572    0.0000 C   0  0  0  0  0  0  0  0  0  0  0  0
   -1.8562    1.7862    0.0000 C   0  0  0  0  0  0  0  0  0  0  0  0
    0.6188    0.3572    0.0000 C   0  0  0  0  0  0  0  0  0  0  0  0
    0.6188    1.7862    0.0000 C   0  0  0  0  0  0  0  0  0  0  0  0
   -2.6812    0.3572    0.0000 C   0  0  0  0  0  0  0  0  0  0  0  0
   -2.6812    1.7862    0.0000 C   0  0  0  0  0  0  0  0  0  0  0  0
   -0.6187   -0.3572    0.0000 C   0  0  0  0  0  0  0  0  0  0  0  0
   -0.6187    2.5006    0.0000 C   0  0  0  0  0  0  0  0  0  0  0  0
   -1.4437   -0.3572    0.0000 C   0  0  0  0  0  0  0  0  0  0  0  0
   -1.4437    2.5006    0.0000 C   0  0  0  0  0  0  0  0  0  0  0  0
    1.8563    1.0717    0.0000 C   0  0  0  0  0  0  0  0  0  0  0  0
   -3.9188    1.0717    0.0000 C   0  0  0  0  0  0  0  0  0  0  0  0
    2.2688    0.3572    0.0000 C   0  0  0  0  0  0  0  0  0  0  0  0
   -4.3313    1.7862    0.0000 C   0  0  0  0  0  0  0  0  0  0  0  0
    3.0938    0.3572    0.0000 C   0  0  0  0  0  0  0  0  0  0  0  0
   -5.1563    1.7862    0.0000 C   0  0  0  0  0  0  0  0  0  0  0  0
    3.5063   -0.3572    0.0000 C   0  0  0  0  0  0  0  0  0  0  0  0
   -5.5688    2.5006    0.0000 C   0  0  0  0  0  0  0  0  0  0  0  0
    4.3313   -0.3572    0.0000 C   0  0  0  0  0  0  0  0  0  0  0  0
   -6.3938    2.5006    0.0000 C   0  0  0  0  0  0  0  0  0  0  0  0
    4.7438   -1.0717    0.0000 C   0  0  0  0  0  0  0  0  0  0  0  0
   -6.8063    3.2151    0.0000 C   0  0  0  0  0  0  0  0  0  0  0  0
    5.9813   -1.7862    0.0000 C   0  0  0  0  0  0  0  0  0  0  0  0
    5.5688   -2.5006    0.0000 C   0  0  0  0  0  0  0  0  0  0  0  0
    5.9813   -3.2151    0.0000 C   0  0  0  0  0  0  0  0  0  0  0  0
  1 15  2  0  0  0  0
  2 16  2  0  0  0  0
  3 17  2  0  0  0  0
  4 18  2  0  0  0  0
  5 33  1  0  0  0  0
  5 35  1  0  0  0  0
  6 35  2  0  0  0  0
  7 15  1  0  0  0  0
  7 16  1  0  0  0  0
  7 23  1  0  0  0  0
  8 17  1  0  0  0  0
  8 18  1  0  0  0  0
  8 24  1  0  0  0  0
  9 10  1  0  0  0  0
  9 11  1  0  0  0  0
  9 12  2  0  0  0  0
 10 13  1  0  0  0  0
 10 14  2  0  0  0  0
 11 15  1  0  0  0  0
 11 19  2  0  0  0  0
 12 16  1  0  0  0  0
 12 20  1  0  0  0  0
 13 17  1  0  0  0  0
 13 21  2  0  0  0  0
 14 18  1  0  0  0  0
 14 22  1  0  0  0  0
 19 21  1  0  0  0  0
 20 22  2  0  0  0  0
 23 25  1  0  0  0  0
 24 26  1  0  0  0  0
 25 27  1  0  0  0  0
 26 28  1  0  0  0  0
 27 29  1  0  0  0  0
 28 30  1  0  0  0  0
 29 31  1  0  0  0  0
 30 32  1  0  0  0  0
 31 33  1  0  0  0  0
 32 34  1  0  0  0  0
 35 36  1  0  0  0  0
 36 37  2  0  0  0  0
M  END
> <PUBCHEM_COMPOUND_ID_TYPE>
0

> <PUBCHEM_TOTAL_CHARGE>
0

> <PUBCHEM_SUBSTANCE_ID>
310940070

> <PUBCHEM_SUBSTANCE_VERSION>
1

> <PUBCHEM_EXT_DATASOURCE_NAME>
4488

> <PUBCHEM_EXT_DATASOURCE_REGID>
SCHEMBL16118001

> <PUBCHEM_SUBSTANCE_COMMENT>
InChI=1S/C29H32N2O6/c1-3-5-6-9-16-30-26(33)19-12-14-21-25-22(15-13-20(24(19)25)27(30)34)29(36)31(28(21)35)17-10-7-8-11-18-37-23(32)4-2/h4,12-15H,2-3,5-11,16-18H2,1H3
InChIKey=IFJKTSPUBQYELH-UHFFFAOYSA-N

> <PUBCHEM_SUBSTANCE_SYNONYM>
SCHEMBL16118001

> <PUBCHEM_XREF_EXT_ID>
SCHEMBL16118001

> <PUBCHEM_EXT_DATASOURCE_URL>
https://www.surechembl.org/

> <PUBCHEM_EXT_SUBSTANCE_URL>
https://www.surechembl.org/chemical/SCHEMBL16118001

> <PUBCHEM_CID_ASSOCIATIONS>
117607212  1

> <PUBCHEM_COORDINATE_TYPE>
1
3

$$$$
