310936995
  -OEChem-07211613022D

 21 22  0     0  0  0  0  0  0999 V2000
    0.0000   -1.8895    0.0000 F   0  0  0  0  0  0  0  0  0  0  0  0
    0.0798   -2.7677    0.0000 F   0  0  0  0  0  0  0  0  0  0  0  0
    4.5507   -0.3992    0.0000 F   0  0  0  0  0  0  0  0  0  0  0  0
    3.1403   -0.3992    0.0000 F   0  0  0  0  0  0  0  0  0  0  0  0
    3.8588    0.0000    0.0000 F   0  0  0  0  0  0  0  0  0  0  0  0
    3.1403   -2.0491    0.0000 O   0  0  0  0  0  0  0  0  0  0  0  0
    1.7298   -2.8741    0.0000 N   0  0  0  0  0  0  0  0  0  0  0  0
    3.1403   -4.4975    0.0000 N   0  0  0  0  0  0  0  0  0  0  0  0
    5.2693   -4.0983    0.0000 N   0  0  0  0  0  0  0  0  0  0  0  0
    4.5507   -5.3225    0.0000 N   0  0  0  0  0  0  0  0  0  0  0  0
    2.4218   -3.2733    0.0000 C   0  0  0  0  0  0  0  0  0  0  0  0
    0.7186   -2.2887    0.0000 C   0  0  0  0  0  0  0  0  0  0  0  0
    3.1403   -2.8475    0.0000 C   0  0  0  0  0  0  0  0  0  0  0  0
    0.9580   -3.0871    0.0000 C   0  0  0  0  0  0  0  0  0  0  0  0
    1.5169   -2.0491    0.0000 C   0  0  0  0  0  0  0  0  0  0  0  0
    2.4218   -4.0983    0.0000 C   0  0  0  0  0  0  0  0  0  0  0  0
    3.8588   -3.2733    0.0000 C   0  0  0  0  0  0  0  0  0  0  0  0
    3.8588   -4.0983    0.0000 C   0  0  0  0  0  0  0  0  0  0  0  0
    3.8588   -1.6233    0.0000 C   0  0  0  0  0  0  0  0  0  0  0  0
    4.5507   -4.4975    0.0000 C   0  0  0  0  0  0  0  0  0  0  0  0
    3.8588   -0.8250    0.0000 C   0  0  0  0  0  0  0  0  0  0  0  0
  1 12  1  0  0  0  0
  2 12  1  0  0  0  0
  3 21  1  0  0  0  0
  4 21  1  0  0  0  0
  5 21  1  0  0  0  0
  6 13  1  0  0  0  0
  6 19  1  0  0  0  0
  7 11  1  0  0  0  0
  7 14  1  0  0  0  0
  7 15  1  0  0  0  0
  8 16  2  0  0  0  0
  8 18  1  0  0  0  0
  9 20  2  3  0  0  0
 10 20  1  0  0  0  0
 11 13  2  0  0  0  0
 11 16  1  0  0  0  0
 12 14  1  0  0  0  0
 12 15  1  0  0  0  0
 13 17  1  0  0  0  0
 17 18  2  0  0  0  0
 18 20  1  0  0  0  0
 19 21  1  0  0  0  0
M  END
> <PUBCHEM_COMPOUND_ID_TYPE>
0

> <PUBCHEM_TOTAL_CHARGE>
0

> <PUBCHEM_SUBSTANCE_ID>
310936995

> <PUBCHEM_SUBSTANCE_VERSION>
1

> <PUBCHEM_EXT_DATASOURCE_NAME>
4488

> <PUBCHEM_EXT_DATASOURCE_REGID>
SCHEMBL16114701

> <PUBCHEM_SUBSTANCE_COMMENT>
InChI=1S/C11H11F5N4O/c12-10(13)3-20(4-10)7-2-19-6(9(17)18)1-8(7)21-5-11(14,15)16/h1-2H,3-5H2,(H3,17,18)
InChIKey=TVUPFGAQUFKGIT-UHFFFAOYSA-N

> <PUBCHEM_SUBSTANCE_SYNONYM>
SCHEMBL16114701

> <PUBCHEM_XREF_EXT_ID>
SCHEMBL16114701

> <PUBCHEM_EXT_DATASOURCE_URL>
https://www.surechembl.org/

> <PUBCHEM_EXT_SUBSTANCE_URL>
https://www.surechembl.org/chemical/SCHEMBL16114701

> <PUBCHEM_CID_ASSOCIATIONS>
117604854  1

> <PUBCHEM_COORDINATE_TYPE>
1
3

$$$$
