310936751
  -OEChem-07211613022D

 27 29  0     0  0  0  0  0  0999 V2000
    0.9248   -6.9360    0.0000 Cl  0  0  0  0  0  0  0  0  0  0  0  0
    4.5884   -6.9715    0.0000 F   0  0  0  0  0  0  0  0  0  0  0  0
    5.4421   -5.8333    0.0000 F   0  0  0  0  0  0  0  0  0  0  0  0
    4.0904   -4.8374    0.0000 O   0  0  0  0  0  0  0  0  0  0  0  0
    0.0000    0.0000    0.0000 O   0  0  0  0  0  0  0  0  0  0  0  0
    1.5294   -2.0274    0.0000 N   0  0  0  0  0  0  0  0  0  0  0  0
    3.5213   -3.5213    0.0000 N   0  0  0  0  0  0  0  0  0  0  0  0
    2.0986   -0.8181    0.0000 N   0  0  0  0  0  0  0  0  0  0  0  0
    2.6677   -4.6596    0.0000 C   0  0  0  0  0  0  0  0  0  0  0  0
    3.4502   -4.3750    0.0000 C   0  0  0  0  0  0  0  0  0  0  0  0
    2.0986   -3.3435    0.0000 C   0  0  0  0  0  0  0  0  0  0  0  0
    2.5610   -5.4776    0.0000 C   0  0  0  0  0  0  0  0  0  0  0  0
    2.0274   -4.1616    0.0000 C   0  0  0  0  0  0  0  0  0  0  0  0
    1.4228   -2.8455    0.0000 C   0  0  0  0  0  0  0  0  0  0  0  0
    2.2408   -1.6006    0.0000 C   0  0  0  0  0  0  0  0  0  0  0  0
    2.8811   -3.0234    0.0000 C   0  0  0  0  0  0  0  0  0  0  0  0
    1.2449   -0.7114    0.0000 C   0  0  0  0  0  0  0  0  0  0  0  0
    0.9248   -1.4584    0.0000 C   0  0  0  0  0  0  0  0  0  0  0  0
    1.8140   -5.7978    0.0000 C   0  0  0  0  0  0  0  0  0  0  0  0
    3.2368   -6.0112    0.0000 C   0  0  0  0  0  0  0  0  0  0  0  0
    1.7073   -6.6158    0.0000 C   0  0  0  0  0  0  0  0  0  0  0  0
    3.1301   -6.7937    0.0000 C   0  0  0  0  0  0  0  0  0  0  0  0
    2.3476   -7.1138    0.0000 C   0  0  0  0  0  0  0  0  0  0  0  0
    0.8537    0.0000    0.0000 C   0  0  0  0  0  0  0  0  0  0  0  0
    2.9878   -1.9563    0.0000 C   0  0  0  0  0  0  0  0  0  0  0  0
    4.0193   -5.6555    0.0000 C   0  0  0  0  0  0  0  0  0  0  0  0
    4.6951   -6.1535    0.0000 C   0  0  0  0  0  0  0  0  0  0  0  0
  1 21  1  0  0  0  0
  2 27  1  0  0  0  0
  3 27  1  0  0  0  0
  4 10  1  0  0  0  0
  4 26  1  0  0  0  0
  5 24  1  0  0  0  0
  6 14  1  0  0  0  0
  6 15  1  0  0  0  0
  6 18  1  0  0  0  0
  7 10  2  0  0  0  0
  7 16  1  0  0  0  0
  8 15  2  0  0  0  0
  8 17  1  0  0  0  0
  9 10  1  0  0  0  0
  9 12  1  0  0  0  0
  9 13  2  0  0  0  0
 11 13  1  0  0  0  0
 11 14  1  0  0  0  0
 11 16  2  0  0  0  0
 12 19  1  0  0  0  0
 12 20  2  0  0  0  0
 15 25  1  0  0  0  0
 17 18  2  0  0  0  0
 17 24  1  0  0  0  0
 19 21  2  0  0  0  0
 20 22  1  0  0  0  0
 21 23  1  0  0  0  0
 22 23  2  0  0  0  0
 26 27  1  0  0  0  0
M  END
> <PUBCHEM_COMPOUND_ID_TYPE>
0

> <PUBCHEM_TOTAL_CHARGE>
0

> <PUBCHEM_SUBSTANCE_ID>
310936751

> <PUBCHEM_SUBSTANCE_VERSION>
1

> <PUBCHEM_EXT_DATASOURCE_NAME>
4488

> <PUBCHEM_EXT_DATASOURCE_REGID>
SCHEMBL16114434

> <PUBCHEM_SUBSTANCE_COMMENT>
InChI=1S/C19H18ClF2N3O2/c1-12-24-16(10-26)9-25(12)8-13-5-17(14-3-2-4-15(20)6-14)19(23-7-13)27-11-18(21)22/h2-7,9,18,26H,8,10-11H2,1H3
InChIKey=SIUFDBPXXAOKBR-UHFFFAOYSA-N

> <PUBCHEM_SUBSTANCE_SYNONYM>
SCHEMBL16114434

> <PUBCHEM_XREF_EXT_ID>
SCHEMBL16114434

> <PUBCHEM_EXT_DATASOURCE_URL>
https://www.surechembl.org/

> <PUBCHEM_EXT_SUBSTANCE_URL>
https://www.surechembl.org/chemical/SCHEMBL16114434

> <PUBCHEM_CID_ASSOCIATIONS>
117604649  1

> <PUBCHEM_COORDINATE_TYPE>
1
3

$$$$
