310935559
  -OEChem-07211613022D

 56 61  0     1  0  0  0  0  0999 V2000
  -18.1226    2.8646    0.0000 I   0  0  0  0  0  0  0  0  0  0  0  0
  -18.1226    4.5146    0.0000 Cl  0  0  0  0  0  0  0  0  0  0  0  0
   -1.9947    2.7859    0.0000 O   0  0  0  0  0  0  0  0  0  0  0  0
   -2.6239    0.7459    0.0000 O   0  0  0  0  0  0  0  0  0  0  0  0
   -3.9577    1.9470    0.0000 O   0  0  0  0  0  0  0  0  0  0  0  0
    1.6558    1.2067    0.0000 O   0  0  0  0  0  0  0  0  0  0  0  0
   -3.5372    5.5105    0.0000 O   0  0  0  0  0  0  0  0  0  0  0  0
   -5.4611    6.0260    0.0000 O   0  0  0  0  0  0  0  0  0  0  0  0
  -15.2647    4.5146    0.0000 O   0  0  0  0  0  0  0  0  0  0  0  0
  -13.8358    2.0396    0.0000 O   0  0  0  0  0  0  0  0  0  0  0  0
  -10.9779    5.3396    0.0000 O   0  0  0  0  0  0  0  0  0  0  0  0
   -1.0695    1.6434    0.0000 N   0  0  0  0  0  0  0  0  0  0  0  0
   -0.0775    0.7502    0.0000 N   0  0  0  0  0  0  0  0  0  0  0  0
   -0.1835    2.8628    0.0000 N   0  0  0  0  0  0  0  0  0  0  0  0
    1.2142    2.5658    0.0000 N   0  0  0  0  0  0  0  0  0  0  0  0
   -4.0527    3.5866    0.0000 N   0  0  0  0  0  0  0  0  0  0  0  0
   -5.9766    4.1021    0.0000 N   0  0  0  0  0  0  0  0  0  0  0  0
    0.7727    3.9248    0.0000 N   0  0  0  0  0  0  0  0  0  0  0  0
   -8.1200    4.5146    0.0000 N   0  0  3  0  0  0  0  0  0  0  0  0
  -13.1213    3.2771    0.0000 N   0  0  0  0  0  0  0  0  0  0  0  0
  -15.2647    2.8646    0.0000 N   0  0  0  0  0  0  0  0  0  0  0  0
  -11.6924    4.1021    0.0000 N   0  0  0  0  0  0  0  0  0  0  0  0
   -1.8231    1.9790    0.0000 C   0  0  3  0  0  0  0  0  0  0  0  0
   -0.3550    2.0559    0.0000 C   0  0  0  0  0  0  0  0  0  0  0  0
    0.2581    1.5038    0.0000 C   0  0  0  0  0  0  0  0  0  0  0  0
   -2.5377    1.5664    0.0000 C   0  0  3  0  0  0  0  0  0  0  0  0
   -2.8152    2.8721    0.0000 C   0  0  3  0  0  0  0  0  0  0  0  0
   -3.1508    2.1184    0.0000 C   0  0  3  0  0  0  0  0  0  0  0  0
   -0.8980    0.8364    0.0000 C   0  0  0  0  0  0  0  0  0  0  0  0
    1.0427    1.7588    0.0000 C   0  0  0  0  0  0  0  0  0  0  0  0
   -4.4652    4.3011    0.0000 C   0  0  0  0  0  0  0  0  0  0  0  0
   -5.2621    4.5146    0.0000 C   0  0  0  0  0  0  0  0  0  0  0  0
   -4.2517    5.0980    0.0000 C   0  0  0  0  0  0  0  0  0  0  0  0
   -5.0486    5.3115    0.0000 C   0  0  0  0  0  0  0  0  0  0  0  0
    0.6011    3.1178    0.0000 C   0  0  0  0  0  0  0  0  0  0  0  0
   -3.2277    3.5866    0.0000 C   0  0  0  0  0  0  0  0  0  0  0  0
   -6.6910    4.5146    0.0000 C   0  0  0  0  0  0  0  0  0  0  0  0
   -7.4055    4.1021    0.0000 C   0  0  0  0  0  0  0  0  0  0  0  0
  -15.9792    3.2771    0.0000 C   0  0  0  0  0  0  0  0  0  0  0  0
  -15.9792    4.1021    0.0000 C   0  0  0  0  0  0  0  0  0  0  0  0
  -17.4082    3.2771    0.0000 C   0  0  0  0  0  0  0  0  0  0  0  0
  -17.4082    4.1021    0.0000 C   0  0  0  0  0  0  0  0  0  0  0  0
  -16.6937    2.8646    0.0000 C   0  0  0  0  0  0  0  0  0  0  0  0
  -16.6937    4.5146    0.0000 C   0  0  0  0  0  0  0  0  0  0  0  0
  -13.8358    2.8646    0.0000 C   0  0  0  0  0  0  0  0  0  0  0  0
  -14.5503    3.2771    0.0000 C   0  0  0  0  0  0  0  0  0  0  0  0
  -12.4068    2.8646    0.0000 C   0  0  0  0  0  0  0  0  0  0  0  0
  -13.1213    4.1021    0.0000 C   0  0  0  0  0  0  0  0  0  0  0  0
  -10.9779    4.5146    0.0000 C   0  0  0  0  0  0  0  0  0  0  0  0
  -11.6924    3.2771    0.0000 C   0  0  0  0  0  0  0  0  0  0  0  0
  -12.4068    4.5146    0.0000 C   0  0  0  0  0  0  0  0  0  0  0  0
   -8.8344    4.1021    0.0000 C   0  0  0  0  0  0  0  0  0  0  0  0
  -10.2634    4.1021    0.0000 C   0  0  0  0  0  0  0  0  0  0  0  0
   -9.5490    4.5146    0.0000 C   0  0  0  0  0  0  0  0  0  0  0  0
   -8.1200    5.3396    0.0000 C   0  0  0  0  0  0  0  0  0  0  0  0
  -14.5503    4.1021    0.0000 C   0  0  0  0  0  0  0  0  0  0  0  0
  1 41  1  0  0  0  0
  2 42  1  0  0  0  0
 23  3  1  1  0  0  0
  3 27  1  0  0  0  0
  4 26  1  0  0  0  0
  5 28  1  0  0  0  0
  6 30  2  0  0  0  0
  7 33  2  0  0  0  0
  8 34  2  0  0  0  0
  9 40  1  0  0  0  0
  9 56  1  0  0  0  0
 10 45  2  0  0  0  0
 11 49  2  0  0  0  0
 12 23  1  0  0  0  0
 12 24  1  0  0  0  0
 12 29  1  0  0  0  0
 13 25  1  0  0  0  0
 13 29  2  0  0  0  0
 14 24  1  0  0  0  0
 14 35  2  0  0  0  0
 15 30  1  0  0  0  0
 15 35  1  0  0  0  0
 16 31  1  0  0  0  0
 16 36  1  0  0  0  0
 17 32  1  0  0  0  0
 17 37  1  0  0  0  0
 18 35  1  0  0  0  0
 19 38  1  0  0  0  0
 19 52  1  0  0  0  0
 19 55  1  0  0  0  0
 20 45  1  0  0  0  0
 20 47  1  0  0  0  0
 20 48  1  0  0  0  0
 21 39  1  0  0  0  0
 21 46  1  0  0  0  0
 22 49  1  0  0  0  0
 22 50  1  0  0  0  0
 22 51  1  0  0  0  0
 23 26  1  0  0  0  0
 24 25  2  0  0  0  0
 25 30  1  0  0  0  0
 26 28  1  0  0  0  0
 27 28  1  0  0  0  0
 27 36  1  1  0  0  0
 31 32  2  0  0  0  0
 31 33  1  0  0  0  0
 32 34  1  0  0  0  0
 33 34  1  0  0  0  0
 37 38  1  0  0  0  0
 39 40  1  0  0  0  0
 39 43  2  0  0  0  0
 40 44  2  0  0  0  0
 41 42  2  0  0  0  0
 41 43  1  0  0  0  0
 42 44  1  0  0  0  0
 45 46  1  0  0  0  0
 47 50  1  0  0  0  0
 48 51  1  0  0  0  0
 49 53  1  0  0  0  0
 52 54  1  0  0  0  0
 53 54  2  0  0  0  0
M  END
> <PUBCHEM_COMPOUND_ID_TYPE>
0

> <PUBCHEM_TOTAL_CHARGE>
0

> <PUBCHEM_SUBSTANCE_ID>
310935559

> <PUBCHEM_SUBSTANCE_VERSION>
1

> <PUBCHEM_EXT_DATASOURCE_NAME>
4488

> <PUBCHEM_EXT_DATASOURCE_REGID>
SCHEMBL16113130

> <PUBCHEM_SUBSTANCE_COMMENT>
InChI=1S/C34H41ClIN11O9/c1-44(6-3-4-22(48)45-8-10-46(11-9-45)23(49)15-39-19-13-18(36)17(35)12-20(19)55-2)7-5-38-24-25(29(52)28(24)51)40-14-21-27(50)30(53)33(56-21)47-16-41-26-31(47)42-34(37)43-32(26)54/h3-4,12-13,16,21,27,30,33,38-40,50,53H,5-11,14-15H2,1-2H3,(H3,37,42,43,54)/b4-3+/t21-,27?,30?,33-/m1/s1
InChIKey=PMFQYFLFIAKJCL-POGABGEQSA-N

> <PUBCHEM_SUBSTANCE_SYNONYM>
SCHEMBL16113130

> <PUBCHEM_XREF_EXT_ID>
SCHEMBL16113130

> <PUBCHEM_EXT_DATASOURCE_URL>
https://www.surechembl.org/

> <PUBCHEM_EXT_SUBSTANCE_URL>
https://www.surechembl.org/chemical/SCHEMBL16113130

> <PUBCHEM_CID_ASSOCIATIONS>
117603584  1

> <PUBCHEM_COORDINATE_TYPE>
1
3

> <PUBCHEM_BONDANNOTATIONS>
27  36  5
23  3  5

$$$$
