310948816
  -OEChem-07211613022D

 38 41  0     1  0  0  0  0  0999 V2000
    3.8637    0.4606    0.0000 F   0  0  0  0  0  0  0  0  0  0  0  0
    4.1799   -0.6256    0.0000 F   0  0  0  0  0  0  0  0  0  0  0  0
    3.0799   -0.9144    0.0000 F   0  0  0  0  0  0  0  0  0  0  0  0
   -4.2074    0.2269    0.0000 O   0  0  0  0  0  0  0  0  0  0  0  0
   -2.9699   -0.4193    0.0000 O   0  0  0  0  0  0  0  0  0  0  0  0
   -0.0962    2.6881    0.0000 O   0  0  0  0  0  0  0  0  0  0  0  0
    0.6050   -0.2132    0.0000 N   0  0  3  0  0  0  0  0  0  0  0  0
    0.6050    1.4506    0.0000 N   0  0  0  0  0  0  0  0  0  0  0  0
    1.3200    2.7018    0.0000 N   0  0  0  0  0  0  0  0  0  0  0  0
   -2.2825    1.4506    0.0000 C   0  0  3  0  0  0  0  0  0  0  0  0
   -2.9562    1.0518    0.0000 C   0  0  3  0  0  0  0  0  0  0  0  0
   -1.5400    1.0243    0.0000 C   0  0  0  0  0  0  0  0  0  0  0  0
   -2.9699    1.8493    0.0000 C   0  0  0  0  0  0  0  0  0  0  0  0
   -0.1100    0.2132    0.0000 C   0  0  0  0  0  0  0  0  0  0  0  0
   -0.0962    1.0381    0.0000 C   0  0  0  0  0  0  0  0  0  0  0  0
   -0.8387    1.4368    0.0000 C   0  0  0  0  0  0  0  0  0  0  0  0
   -1.5400    0.2132    0.0000 C   0  0  0  0  0  0  0  0  0  0  0  0
   -3.3687    0.2956    0.0000 C   0  0  0  0  0  0  0  0  0  0  0  0
   -0.8113   -0.2132    0.0000 C   0  0  0  0  0  0  0  0  0  0  0  0
    0.6050   -1.0518    0.0000 C   0  0  0  0  0  0  0  0  0  0  0  0
    1.3063    0.1993    0.0000 C   0  0  0  0  0  0  0  0  0  0  0  0
    0.6325    2.2756    0.0000 C   0  0  0  0  0  0  0  0  0  0  0  0
    2.0487   -0.2132    0.0000 C   0  0  3  0  0  0  0  0  0  0  0  0
   -0.0962   -1.4781    0.0000 C   0  0  0  0  0  0  0  0  0  0  0  0
    1.3200   -1.4643    0.0000 C   0  0  0  0  0  0  0  0  0  0  0  0
    2.7499    0.1993    0.0000 C   0  0  0  0  0  0  0  0  0  0  0  0
   -0.0962   -2.3030    0.0000 C   0  0  0  0  0  0  0  0  0  0  0  0
    1.3200   -2.2893    0.0000 C   0  0  0  0  0  0  0  0  0  0  0  0
    2.0487    2.2893    0.0000 C   0  0  0  0  0  0  0  0  0  0  0  0
    3.4649   -0.2269    0.0000 C   0  0  0  0  0  0  0  0  0  0  0  0
    0.6050   -2.7018    0.0000 C   0  0  0  0  0  0  0  0  0  0  0  0
    2.0624   -1.0656    0.0000 C   0  0  0  0  0  0  0  0  0  0  0  0
    2.0487    1.4506    0.0000 C   0  0  0  0  0  0  0  0  0  0  0  0
    2.7499    2.6881    0.0000 C   0  0  0  0  0  0  0  0  0  0  0  0
    3.4649    1.4643    0.0000 C   0  0  0  0  0  0  0  0  0  0  0  0
    2.7637    1.0381    0.0000 C   0  0  0  0  0  0  0  0  0  0  0  0
    3.4649    2.2756    0.0000 C   0  0  0  0  0  0  0  0  0  0  0  0
    4.2074    1.0243    0.0000 C   0  0  0  0  0  0  0  0  0  0  0  0
  1 30  1  0  0  0  0
  2 30  1  0  0  0  0
  3 30  1  0  0  0  0
  4 18  2  0  0  0  0
  5 18  1  0  0  0  0
  6 22  2  0  0  0  0
  7 14  1  0  0  0  0
  7 20  1  0  0  0  0
  7 21  1  0  0  0  0
  8 15  1  0  0  0  0
  8 22  1  0  0  0  0
  9 22  1  0  0  0  0
  9 29  1  0  0  0  0
 10 11  1  0  0  0  0
 10 12  1  0  0  0  0
 10 13  1  6  0  0  0
 11 13  1  0  0  0  0
 11 18  1  6  0  0  0
 12 16  1  0  0  0  0
 12 17  2  0  0  0  0
 14 15  1  0  0  0  0
 14 19  2  0  0  0  0
 15 16  2  0  0  0  0
 17 19  1  0  0  0  0
 20 24  1  0  0  0  0
 20 25  1  0  0  0  0
 21 23  1  0  0  0  0
 23 26  1  0  0  0  0
 23 32  1  0  0  0  0
 24 27  1  0  0  0  0
 25 28  1  0  0  0  0
 26 30  1  0  0  0  0
 27 31  1  0  0  0  0
 28 31  1  0  0  0  0
 29 33  2  0  0  0  0
 29 34  1  0  0  0  0
 33 36  1  0  0  0  0
 34 37  2  0  0  0  0
 35 36  2  0  0  0  0
 35 37  1  0  0  0  0
 35 38  1  0  0  0  0
M  END
> <PUBCHEM_COMPOUND_ID_TYPE>
0

> <PUBCHEM_TOTAL_CHARGE>
0

> <PUBCHEM_SUBSTANCE_ID>
310948816

> <PUBCHEM_SUBSTANCE_VERSION>
1

> <PUBCHEM_EXT_DATASOURCE_NAME>
4488

> <PUBCHEM_EXT_DATASOURCE_REGID>
SCHEMBL16127000

> <PUBCHEM_SUBSTANCE_COMMENT>
InChI=1S/C29H36F3N3O3/c1-18-8-11-21(12-9-18)33-28(38)34-25-14-20(23-15-24(23)27(36)37)10-13-26(25)35(22-6-4-3-5-7-22)17-19(2)16-29(30,31)32/h8-14,19,22-24H,3-7,15-17H2,1-2H3,(H,36,37)(H2,33,34,38)/t19?,23-,24-/m1/s1
InChIKey=RJUXPEUSVIXWIK-QLGUMYEUSA-N

> <PUBCHEM_SUBSTANCE_SYNONYM>
SCHEMBL16127000

> <PUBCHEM_XREF_EXT_ID>
SCHEMBL16127000

> <PUBCHEM_EXT_DATASOURCE_URL>
https://www.surechembl.org/

> <PUBCHEM_EXT_SUBSTANCE_URL>
https://www.surechembl.org/chemical/SCHEMBL16127000

> <PUBCHEM_CID_ASSOCIATIONS>
117614355  1

> <PUBCHEM_COORDINATE_TYPE>
1
3

> <PUBCHEM_BONDANNOTATIONS>
10  13  6
11  18  6

$$$$
