310932830
  -OEChem-07211613022D

 20 21  0     0  0  0  0  0  0999 V2000
    2.1124   -1.3595    0.0000 Cl  0  0  0  0  0  0  0  0  0  0  0  0
    0.0000   -2.6144    0.0000 F   0  0  0  0  0  0  0  0  0  0  0  0
    0.6902   -3.8275    0.0000 F   0  0  0  0  0  0  0  0  0  0  0  0
    0.6902   -2.1961    0.0000 F   0  0  0  0  0  0  0  0  0  0  0  0
    6.2745   -1.0876    0.0000 O   0  0  0  0  0  0  0  0  0  0  0  0
    5.8562   -0.3765    0.0000 N   0  0  0  0  0  0  0  0  0  0  0  0
    2.1333   -3.0118    0.0000 N   0  0  0  0  0  0  0  0  0  0  0  0
    4.9569   -1.3595    0.0000 C   0  0  0  0  0  0  0  0  0  0  0  0
    4.2458   -1.7778    0.0000 C   0  0  0  0  0  0  0  0  0  0  0  0
    5.7307   -1.6941    0.0000 C   0  0  0  0  0  0  0  0  0  0  0  0
    5.0614   -0.5438    0.0000 C   0  0  0  0  0  0  0  0  0  0  0  0
    2.8236   -2.5935    0.0000 C   0  0  0  0  0  0  0  0  0  0  0  0
    2.8236   -1.7778    0.0000 C   0  0  0  0  0  0  0  0  0  0  0  0
    3.5347   -1.3595    0.0000 C   0  0  0  0  0  0  0  0  0  0  0  0
    4.2458   -2.5935    0.0000 C   0  0  0  0  0  0  0  0  0  0  0  0
    3.5347   -3.0118    0.0000 C   0  0  0  0  0  0  0  0  0  0  0  0
    0.6902   -3.0118    0.0000 C   0  0  0  0  0  0  0  0  0  0  0  0
    1.4013   -2.5935    0.0000 C   0  0  0  0  0  0  0  0  0  0  0  0
    5.8980   -2.4889    0.0000 C   0  0  0  0  0  0  0  0  0  0  0  0
    4.4549    0.0000    0.0000 C   0  0  0  0  0  0  0  0  0  0  0  0
  1 13  1  0  0  0  0
  2 17  1  0  0  0  0
  3 17  1  0  0  0  0
  4 17  1  0  0  0  0
  5  6  1  0  0  0  0
  5 10  1  0  0  0  0
  6 11  2  0  0  0  0
  7 12  1  0  0  0  0
  7 18  1  0  0  0  0
  8  9  1  0  0  0  0
  8 10  2  0  0  0  0
  8 11  1  0  0  0  0
  9 14  2  0  0  0  0
  9 15  1  0  0  0  0
 10 19  1  0  0  0  0
 11 20  1  0  0  0  0
 12 13  2  0  0  0  0
 12 16  1  0  0  0  0
 13 14  1  0  0  0  0
 15 16  2  0  0  0  0
 17 18  1  0  0  0  0
M  END
> <PUBCHEM_COMPOUND_ID_TYPE>
0

> <PUBCHEM_TOTAL_CHARGE>
0

> <PUBCHEM_SUBSTANCE_ID>
310932830

> <PUBCHEM_SUBSTANCE_VERSION>
1

> <PUBCHEM_EXT_DATASOURCE_NAME>
4488

> <PUBCHEM_EXT_DATASOURCE_REGID>
SCHEMBL16110218

> <PUBCHEM_SUBSTANCE_COMMENT>
InChI=1S/C13H12ClF3N2O/c1-7-12(8(2)20-19-7)9-3-4-11(10(14)5-9)18-6-13(15,16)17/h3-5,18H,6H2,1-2H3
InChIKey=WOPRZMFHWUIZBU-UHFFFAOYSA-N

> <PUBCHEM_SUBSTANCE_SYNONYM>
SCHEMBL16110218

> <PUBCHEM_XREF_EXT_ID>
SCHEMBL16110218

> <PUBCHEM_EXT_DATASOURCE_URL>
https://www.surechembl.org/

> <PUBCHEM_EXT_SUBSTANCE_URL>
https://www.surechembl.org/chemical/SCHEMBL16110218

> <PUBCHEM_CID_ASSOCIATIONS>
117601319  1

> <PUBCHEM_COORDINATE_TYPE>
1
3

$$$$
