310932915
  -OEChem-07211613022D

 15 14  0     0  0  0  0  0  0999 V2000
    0.8220   -4.1598    0.0000 P   0  0  0  0  0  0  0  0  0  0  0  0
    2.2667   -0.8469    0.0000 P   0  0  0  0  0  0  0  0  0  0  0  0
    0.8220   -3.3129    0.0000 O   0  0  0  0  0  0  0  0  0  0  0  0
    2.2667   -1.6689    0.0000 O   0  0  0  0  0  0  0  0  0  0  0  0
    0.0000   -4.1598    0.0000 O   0  0  0  0  0  0  0  0  0  0  0  0
    1.6689   -4.1598    0.0000 O   0  0  0  0  0  0  0  0  0  0  0  0
    0.8220   -4.9818    0.0000 O   0  0  0  0  0  0  0  0  0  0  0  0
    3.1136   -0.8220    0.0000 O   0  0  0  0  0  0  0  0  0  0  0  0
    1.4447   -0.8469    0.0000 O   0  0  0  0  0  0  0  0  0  0  0  0
    2.2667    0.0000    0.0000 O   0  0  0  0  0  0  0  0  0  0  0  0
    2.9891   -2.9144    0.0000 O   0  5  0  0  0  0  0  0  0  0  0  0
    2.2667   -4.1598    0.0000 O   0  0  0  0  0  0  0  0  0  0  0  0
    2.2667   -3.3129    0.0000 N   0  3  0  0  0  0  0  0  0  0  0  0
    1.5444   -2.9144    0.0000 C   0  0  0  0  0  0  0  0  0  0  0  0
    1.5444   -2.0923    0.0000 C   0  0  0  0  0  0  0  0  0  0  0  0
  1  3  1  0  0  0  0
  1  5  2  0  0  0  0
  1  6  1  0  0  0  0
  1  7  1  0  0  0  0
  2  4  1  0  0  0  0
  2  8  2  0  0  0  0
  2  9  1  0  0  0  0
  2 10  1  0  0  0  0
  3 14  1  0  0  0  0
  4 15  1  0  0  0  0
 11 13  1  0  0  0  0
 12 13  2  0  0  0  0
 13 14  1  0  0  0  0
 14 15  2  0  0  0  0
M  CHG  2  11  -1  13   1
M  END
> <PUBCHEM_COMPOUND_ID_TYPE>
0

> <PUBCHEM_TOTAL_CHARGE>
0

> <PUBCHEM_SUBSTANCE_ID>
310932915

> <PUBCHEM_SUBSTANCE_VERSION>
1

> <PUBCHEM_EXT_DATASOURCE_NAME>
4488

> <PUBCHEM_EXT_DATASOURCE_REGID>
SCHEMBL16110309

> <PUBCHEM_SUBSTANCE_COMMENT>
InChI=1S/C2H5NO10P2/c4-3(5)2(13-15(9,10)11)1-12-14(6,7)8/h1H,(H2,6,7,8)(H2,9,10,11)/b2-1+
InChIKey=NZRLBCCFWVPBOP-OWOJBTEDSA-N

> <PUBCHEM_SUBSTANCE_SYNONYM>
SCHEMBL16110309

> <PUBCHEM_XREF_EXT_ID>
SCHEMBL16110309

> <PUBCHEM_EXT_DATASOURCE_URL>
https://www.surechembl.org/

> <PUBCHEM_EXT_SUBSTANCE_URL>
https://www.surechembl.org/chemical/SCHEMBL16110309

> <PUBCHEM_CID_ASSOCIATIONS>
117601396  1

> <PUBCHEM_COORDINATE_TYPE>
1
3

$$$$
