310949886
  -OEChem-07211613022D

 24 26  0     0  0  0  0  0  0999 V2000
    0.7206   -0.4019    0.0000 N   0  0  0  0  0  0  0  0  0  0  0  0
   -1.4410    0.8313    0.0000 N   0  0  0  0  0  0  0  0  0  0  0  0
   -2.8820    1.6627    0.0000 N   0  0  0  0  0  0  0  0  0  0  0  0
    2.1338   -0.4019    0.0000 C   0  0  0  0  0  0  0  0  0  0  0  0
    2.1338    0.4296    0.0000 C   0  0  0  0  0  0  0  0  0  0  0  0
    2.8820   -0.8176    0.0000 C   0  0  0  0  0  0  0  0  0  0  0  0
    1.4410   -0.8176    0.0000 C   0  0  0  0  0  0  0  0  0  0  0  0
    2.8820    0.8313    0.0000 C   0  0  0  0  0  0  0  0  0  0  0  0
   -0.7206    0.4296    0.0000 C   0  0  0  0  0  0  0  0  0  0  0  0
   -2.1615    0.4296    0.0000 C   0  0  0  0  0  0  0  0  0  0  0  0
    3.5886   -0.4019    0.0000 C   0  0  0  0  0  0  0  0  0  0  0  0
    0.7067    0.4296    0.0000 C   0  0  0  0  0  0  0  0  0  0  0  0
    0.0000   -0.8176    0.0000 C   0  0  0  0  0  0  0  0  0  0  0  0
   -0.7206   -0.4019    0.0000 C   0  0  0  0  0  0  0  0  0  0  0  0
   -0.0139    0.8313    0.0000 C   0  0  0  0  0  0  0  0  0  0  0  0
    3.5886    0.4157    0.0000 C   0  0  0  0  0  0  0  0  0  0  0  0
   -2.8820    0.8313    0.0000 C   0  0  0  0  0  0  0  0  0  0  0  0
    1.3024    0.4296    0.0000 C   0  0  0  0  0  0  0  0  0  0  0  0
    1.7320    1.1361    0.0000 C   0  0  0  0  0  0  0  0  0  0  0  0
   -2.1615   -0.4019    0.0000 C   0  0  0  0  0  0  0  0  0  0  0  0
    2.8681   -1.6627    0.0000 C   0  0  0  0  0  0  0  0  0  0  0  0
   -3.5886    0.4157    0.0000 C   0  0  0  0  0  0  0  0  0  0  0  0
   -2.8681   -0.8176    0.0000 C   0  0  0  0  0  0  0  0  0  0  0  0
   -3.5886   -0.4019    0.0000 C   0  0  0  0  0  0  0  0  0  0  0  0
  1  7  1  0  0  0  0
  1 12  1  0  0  0  0
  1 13  1  0  0  0  0
  2  9  1  0  0  0  0
  2 10  1  0  0  0  0
  3 17  1  0  0  0  0
  4  5  1  0  0  0  0
  4  6  2  0  0  0  0
  4  7  1  0  0  0  0
  5  8  1  0  0  0  0
  5 18  1  0  0  0  0
  5 19  1  0  0  0  0
  6 11  1  0  0  0  0
  6 21  1  0  0  0  0
  8 16  1  0  0  0  0
  9 14  1  0  0  0  0
  9 15  1  0  0  0  0
 10 17  2  0  0  0  0
 10 20  1  0  0  0  0
 11 16  1  0  0  0  0
 12 15  1  0  0  0  0
 13 14  1  0  0  0  0
 17 22  1  0  0  0  0
 20 23  2  0  0  0  0
 22 24  2  0  0  0  0
 23 24  1  0  0  0  0
M  END
> <PUBCHEM_COMPOUND_ID_TYPE>
0

> <PUBCHEM_TOTAL_CHARGE>
0

> <PUBCHEM_SUBSTANCE_ID>
310949886

> <PUBCHEM_SUBSTANCE_VERSION>
1

> <PUBCHEM_EXT_DATASOURCE_NAME>
4488

> <PUBCHEM_EXT_DATASOURCE_REGID>
SCHEMBL16128097

> <PUBCHEM_SUBSTANCE_COMMENT>
InChI=1S/C21H33N3/c1-16-7-6-12-21(2,3)18(16)15-24-13-10-17(11-14-24)23-20-9-5-4-8-19(20)22/h4-5,8-9,17,23H,6-7,10-15,22H2,1-3H3
InChIKey=ZOXSEFGDRZTPTK-UHFFFAOYSA-N

> <PUBCHEM_SUBSTANCE_SYNONYM>
SCHEMBL16128097

> <PUBCHEM_XREF_EXT_ID>
SCHEMBL16128097

> <PUBCHEM_EXT_DATASOURCE_URL>
https://www.surechembl.org/

> <PUBCHEM_EXT_SUBSTANCE_URL>
https://www.surechembl.org/chemical/SCHEMBL16128097

> <PUBCHEM_CID_ASSOCIATIONS>
117615175  1

> <PUBCHEM_COORDINATE_TYPE>
1
3

$$$$
