310935715
  -OEChem-07211613022D

 41 44  0     0  0  0  0  0  0999 V2000
    0.9972   -0.2788    0.0000 F   0  0  0  0  0  0  0  0  0  0  0  0
   -4.2868   -1.9288    0.0000 F   0  0  0  0  0  0  0  0  0  0  0  0
    3.8550   -3.5788    0.0000 F   0  0  0  0  0  0  0  0  0  0  0  0
    4.5696   -3.1663    0.0000 F   0  0  0  0  0  0  0  0  0  0  0  0
    4.5696   -2.3413    0.0000 F   0  0  0  0  0  0  0  0  0  0  0  0
   -0.5019   -2.5963    0.0000 O   0  0  0  0  0  0  0  0  0  0  0  0
   -1.5717   -0.3477    0.0000 O   0  0  0  0  0  0  0  0  0  0  0  0
    2.4261   -0.2788    0.0000 O   0  0  0  0  0  0  0  0  0  0  0  0
   -0.2377    0.1644    0.0000 N   0  0  0  0  0  0  0  0  0  0  0  0
    3.1406   -1.5163    0.0000 N   0  0  0  0  0  0  0  0  0  0  0  0
    0.2827   -1.5163    0.0000 C   0  0  0  0  0  0  0  0  0  0  0  0
   -0.5019   -1.2614    0.0000 C   0  0  0  0  0  0  0  0  0  0  0  0
    0.2827   -2.3413    0.0000 C   0  0  0  0  0  0  0  0  0  0  0  0
   -0.9868   -1.9288    0.0000 C   0  0  0  0  0  0  0  0  0  0  0  0
    0.9972   -1.1038    0.0000 C   0  0  0  0  0  0  0  0  0  0  0  0
    1.7116   -1.5163    0.0000 C   0  0  0  0  0  0  0  0  0  0  0  0
   -0.7568   -0.4767    0.0000 C   0  0  0  0  0  0  0  0  0  0  0  0
    1.7116   -2.3413    0.0000 C   0  0  0  0  0  0  0  0  0  0  0  0
    0.9972   -2.7538    0.0000 C   0  0  0  0  0  0  0  0  0  0  0  0
   -1.8118   -1.9288    0.0000 C   0  0  0  0  0  0  0  0  0  0  0  0
    2.4261   -1.1038    0.0000 C   0  0  0  0  0  0  0  0  0  0  0  0
    2.4261   -2.7538    0.0000 C   0  0  0  0  0  0  0  0  0  0  0  0
   -2.2243   -1.2143    0.0000 C   0  0  0  0  0  0  0  0  0  0  0  0
   -2.2243   -2.6433    0.0000 C   0  0  0  0  0  0  0  0  0  0  0  0
   -0.5333    0.9346    0.0000 C   0  0  0  0  0  0  0  0  0  0  0  0
   -3.0493   -1.2143    0.0000 C   0  0  0  0  0  0  0  0  0  0  0  0
   -3.0493   -2.6433    0.0000 C   0  0  0  0  0  0  0  0  0  0  0  0
    3.1406   -2.3413    0.0000 C   0  0  0  0  0  0  0  0  0  0  0  0
    0.5772    0.0354    0.0000 C   0  0  0  0  0  0  0  0  0  0  0  0
   -3.4618   -1.9288    0.0000 C   0  0  0  0  0  0  0  0  0  0  0  0
   -1.3482    1.0637    0.0000 C   0  0  0  0  0  0  0  0  0  0  0  0
   -0.0141    1.5758    0.0000 C   0  0  0  0  0  0  0  0  0  0  0  0
    3.8550   -2.7538    0.0000 C   0  0  0  0  0  0  0  0  0  0  0  0
    3.8550   -1.1038    0.0000 C   0  0  0  0  0  0  0  0  0  0  0  0
   -1.6438    1.8339    0.0000 C   0  0  0  0  0  0  0  0  0  0  0  0
   -0.3098    2.3459    0.0000 C   0  0  0  0  0  0  0  0  0  0  0  0
   -1.1246    2.4750    0.0000 C   0  0  0  0  0  0  0  0  0  0  0  0
    4.5696   -1.5163    0.0000 C   0  0  0  0  0  0  0  0  0  0  0  0
    5.2840   -1.1038    0.0000 C   0  0  0  0  0  0  0  0  0  0  0  0
    5.9985   -1.5163    0.0000 C   0  0  0  0  0  0  0  0  0  0  0  0
    6.7130   -1.1038    0.0000 C   0  0  0  0  0  0  0  0  0  0  0  0
  1 15  1  0  0  0  0
  2 30  1  0  0  0  0
  3 33  1  0  0  0  0
  4 33  1  0  0  0  0
  5 33  1  0  0  0  0
  6 13  1  0  0  0  0
  6 14  1  0  0  0  0
  7 17  2  0  0  0  0
  8 21  2  0  0  0  0
  9 17  1  0  0  0  0
  9 25  1  0  0  0  0
  9 29  1  0  0  0  0
 10 21  1  0  0  0  0
 10 34  1  0  0  0  0
 11 12  1  0  0  0  0
 11 13  1  0  0  0  0
 11 15  2  0  0  0  0
 12 14  2  0  0  0  0
 12 17  1  0  0  0  0
 13 19  2  0  0  0  0
 14 20  1  0  0  0  0
 15 16  1  0  0  0  0
 16 18  2  0  0  0  0
 16 21  1  0  0  0  0
 18 19  1  0  0  0  0
 18 22  1  0  0  0  0
 20 23  2  0  0  0  0
 20 24  1  0  0  0  0
 22 28  1  0  0  0  0
 23 26  1  0  0  0  0
 24 27  2  0  0  0  0
 25 31  2  0  0  0  0
 25 32  1  0  0  0  0
 26 30  2  0  0  0  0
 27 30  1  0  0  0  0
 28 33  1  0  0  0  0
 31 35  1  0  0  0  0
 32 36  2  0  0  0  0
 34 38  1  0  0  0  0
 35 37  2  0  0  0  0
 36 37  1  0  0  0  0
 38 39  1  0  0  0  0
 39 40  1  0  0  0  0
 40 41  1  0  0  0  0
M  END
> <PUBCHEM_COMPOUND_ID_TYPE>
0

> <PUBCHEM_TOTAL_CHARGE>
0

> <PUBCHEM_SUBSTANCE_ID>
310935715

> <PUBCHEM_SUBSTANCE_VERSION>
1

> <PUBCHEM_EXT_DATASOURCE_NAME>
4488

> <PUBCHEM_EXT_DATASOURCE_REGID>
SCHEMBL16113299

> <PUBCHEM_SUBSTANCE_COMMENT>
InChI=1S/C31H29F5N2O3/c1-3-4-8-17-37-29(39)24-20(15-16-31(34,35)36)18-23-25(27(24)33)26(28(41-23)19-11-13-21(32)14-12-19)30(40)38(2)22-9-6-5-7-10-22/h5-7,9-14,18H,3-4,8,15-17H2,1-2H3,(H,37,39)
InChIKey=PEFGCJKDTPWERH-UHFFFAOYSA-N

> <PUBCHEM_SUBSTANCE_SYNONYM>
SCHEMBL16113299

> <PUBCHEM_XREF_EXT_ID>
SCHEMBL16113299

> <PUBCHEM_EXT_DATASOURCE_URL>
https://www.surechembl.org/

> <PUBCHEM_EXT_SUBSTANCE_URL>
https://www.surechembl.org/chemical/SCHEMBL16113299

> <PUBCHEM_CID_ASSOCIATIONS>
117603720  1

> <PUBCHEM_COORDINATE_TYPE>
1
3

$$$$
