310935690
  -OEChem-07211613022D

 40 43  0     1  0  0  0  0  0999 V2000
    3.0503    5.5374    0.0000 F   0  0  0  0  0  0  0  0  0  0  0  0
    2.2253    4.1085    0.0000 F   0  0  0  0  0  0  0  0  0  0  0  0
    1.9233    5.2354    0.0000 F   0  0  0  0  0  0  0  0  0  0  0  0
    6.5402    2.4343    0.0000 O   0  0  0  0  0  0  0  0  0  0  0  0
    4.5538    0.2202    0.0000 O   0  0  0  0  0  0  0  0  0  0  0  0
    4.0668    4.8229    0.0000 O   0  0  0  0  0  0  0  0  0  0  0  0
    6.4904    3.8624    0.0000 O   0  0  0  0  0  0  0  0  0  0  0  0
    5.7656    0.9775    0.0000 O   0  0  0  0  0  0  0  0  0  0  0  0
    3.3523    3.5854    0.0000 N   0  0  0  0  0  0  0  0  0  0  0  0
    1.9233    1.1104    0.0000 C   0  0  3  0  0  0  0  0  0  0  0  0
    1.9233    1.9354    0.0000 C   0  0  3  0  0  0  0  0  0  0  0  0
    3.3523    1.9354    0.0000 C   0  0  3  0  0  0  0  0  0  0  0  0
    2.6378    2.3479    0.0000 C   0  0  3  0  0  0  0  0  0  0  0  0
    4.0668    2.3479    0.0000 C   0  0  3  0  0  0  0  0  0  0  0  0
    1.1387    0.8555    0.0000 C   0  0  0  0  0  0  0  0  0  0  0  0
    2.6378    0.6979    0.0000 C   0  0  0  0  0  0  0  0  0  0  0  0
    3.3523    1.1104    0.0000 C   0  0  0  0  0  0  0  0  0  0  0  0
    1.1387    2.1904    0.0000 C   0  0  0  0  0  0  0  0  0  0  0  0
    4.5039    1.6483    0.0000 C   0  0  3  0  0  0  0  0  0  0  0  0
    0.6538    1.5229    0.0000 C   0  0  0  0  0  0  0  0  0  0  0  0
    0.8838    0.0709    0.0000 C   0  0  0  0  0  0  0  0  0  0  0  0
    4.4541    3.0764    0.0000 C   0  0  0  0  0  0  0  0  0  0  0  0
    2.6378    3.1729    0.0000 C   0  0  0  0  0  0  0  0  0  0  0  0
    1.8371    0.2900    0.0000 C   0  0  0  0  0  0  0  0  0  0  0  0
    3.3253    2.7096    0.0000 C   0  0  0  0  0  0  0  0  0  0  0  0
    5.3284    1.6771    0.0000 C   0  0  0  0  0  0  0  0  0  0  0  0
    5.7158    2.4055    0.0000 C   0  0  3  0  0  0  0  0  0  0  0  0
    5.2786    3.1052    0.0000 C   0  0  0  0  0  0  0  0  0  0  0  0
    4.1166    0.9199    0.0000 C   0  0  0  0  0  0  0  0  0  0  0  0
    1.4358   -0.5422    0.0000 C   0  0  0  0  0  0  0  0  0  0  0  0
    0.0768   -0.1006    0.0000 C   0  0  0  0  0  0  0  0  0  0  0  0
    3.3523    4.4104    0.0000 C   0  0  0  0  0  0  0  0  0  0  0  0
    1.1809   -1.3268    0.0000 C   0  0  0  0  0  0  0  0  0  0  0  0
   -0.1781   -0.8853    0.0000 C   0  0  0  0  0  0  0  0  0  0  0  0
    2.6378    4.8229    0.0000 C   0  0  0  0  0  0  0  0  0  0  0  0
    0.3739   -1.4984    0.0000 C   0  0  0  0  0  0  0  0  0  0  0  0
    6.9276    3.1628    0.0000 C   0  0  0  0  0  0  0  0  0  0  0  0
    5.3783    0.2490    0.0000 C   0  0  0  0  0  0  0  0  0  0  0  0
    7.7521    3.1915    0.0000 C   0  0  0  0  0  0  0  0  0  0  0  0
    5.8155   -0.4506    0.0000 C   0  0  0  0  0  0  0  0  0  0  0  0
  1 35  1  0  0  0  0
  2 35  1  0  0  0  0
  3 35  1  0  0  0  0
 27  4  1  6  0  0  0
  4 37  1  0  0  0  0
  5 29  1  0  0  0  0
  5 38  1  0  0  0  0
  6 32  2  0  0  0  0
  7 37  2  0  0  0  0
  8 38  2  0  0  0  0
  9 23  1  0  0  0  0
  9 32  1  0  0  0  0
 10 11  1  0  0  0  0
 10 15  1  0  0  0  0
 10 16  1  0  0  0  0
 10 24  1  1  0  0  0
 11 13  1  0  0  0  0
 11 18  1  1  0  0  0
 12 13  1  0  0  0  0
 12 14  1  0  0  0  0
 12 17  1  1  0  0  0
 13 23  1  6  0  0  0
 14 19  1  0  0  0  0
 14 22  1  0  0  0  0
 14 25  1  6  0  0  0
 15 20  2  0  0  0  0
 15 21  1  0  0  0  0
 16 17  1  0  0  0  0
 18 20  1  0  0  0  0
 19 26  1  0  0  0  0
 19 29  1  6  0  0  0
 21 30  2  0  0  0  0
 21 31  1  0  0  0  0
 22 28  1  0  0  0  0
 26 27  1  0  0  0  0
 27 28  1  0  0  0  0
 30 33  1  0  0  0  0
 31 34  2  0  0  0  0
 32 35  1  0  0  0  0
 33 36  2  0  0  0  0
 34 36  1  0  0  0  0
 37 39  1  0  0  0  0
 38 40  1  0  0  0  0
M  END
> <PUBCHEM_COMPOUND_ID_TYPE>
0

> <PUBCHEM_TOTAL_CHARGE>
0

> <PUBCHEM_SUBSTANCE_ID>
310935690

> <PUBCHEM_SUBSTANCE_VERSION>
1

> <PUBCHEM_EXT_DATASOURCE_NAME>
4488

> <PUBCHEM_EXT_DATASOURCE_REGID>
SCHEMBL16113273

> <PUBCHEM_SUBSTANCE_COMMENT>
InChI=1S/C31H40F3NO5/c1-19(36)39-18-22-16-23(40-20(2)37)12-14-29(22,3)27-13-15-30(4)25(21-8-6-5-7-9-21)10-11-26(30)24(27)17-35-28(38)31(32,33)34/h5-10,22-24,26-27H,11-18H2,1-4H3,(H,35,38)/t22-,23+,24+,26+,27+,29+,30-/m1/s1
InChIKey=GIUSYKBQBVDNDU-BVKBQBSWSA-N

> <PUBCHEM_SUBSTANCE_SYNONYM>
SCHEMBL16113273

> <PUBCHEM_XREF_EXT_ID>
SCHEMBL16113273

> <PUBCHEM_EXT_DATASOURCE_URL>
https://www.surechembl.org/

> <PUBCHEM_EXT_SUBSTANCE_URL>
https://www.surechembl.org/chemical/SCHEMBL16113273

> <PUBCHEM_CID_ASSOCIATIONS>
117603699  1

> <PUBCHEM_COORDINATE_TYPE>
1
3

> <PUBCHEM_BONDANNOTATIONS>
10  24  5
11  18  5
12  17  5
13  23  6
14  25  6
19  29  6
27  4  6

$$$$
