310940063
  -OEChem-07211613022D

 14 14  0     0  0  0  0  0  0999 V2000
    3.6206    4.4328    0.0000 Cl  0  0  0  0  0  0  0  0  0  0  0  0
    0.7627    2.7828    0.0000 O   0  0  0  0  0  0  0  0  0  0  0  0
    2.1916    2.7828    0.0000 C   0  0  0  0  0  0  0  0  0  0  0  0
    2.1916    1.9578    0.0000 C   0  0  0  0  0  0  0  0  0  0  0  0
    1.4772    3.1953    0.0000 C   0  0  0  0  0  0  0  0  0  0  0  0
    2.9061    4.0203    0.0000 C   0  0  0  0  0  0  0  0  0  0  0  0
    2.1916    4.4328    0.0000 C   0  0  0  0  0  0  0  0  0  0  0  0
    2.9061    3.1953    0.0000 C   0  0  0  0  0  0  0  0  0  0  0  0
    1.4772    4.0203    0.0000 C   0  0  0  0  0  0  0  0  0  0  0  0
    2.1916    5.2578    0.0000 C   0  0  0  0  0  0  0  0  0  0  0  0
    1.3666    1.9578    0.0000 C   0  0  0  0  0  0  0  0  0  0  0  0
    3.0166    1.9578    0.0000 C   0  0  0  0  0  0  0  0  0  0  0  0
    2.1916    1.1328    0.0000 C   0  0  0  0  0  0  0  0  0  0  0  0
    1.4772    5.6703    0.0000 C   0  0  0  0  0  0  0  0  0  0  0  0
  1  6  1  0  0  0  0
  2  5  1  0  0  0  0
  3  4  1  0  0  0  0
  3  5  1  0  0  0  0
  3  8  2  0  0  0  0
  4 11  1  0  0  0  0
  4 12  1  0  0  0  0
  4 13  1  0  0  0  0
  5  9  2  0  0  0  0
  6  7  2  0  0  0  0
  6  8  1  0  0  0  0
  7  9  1  0  0  0  0
  7 10  1  0  0  0  0
 10 14  1  0  0  0  0
M  END
> <PUBCHEM_COMPOUND_ID_TYPE>
0

> <PUBCHEM_TOTAL_CHARGE>
0

> <PUBCHEM_SUBSTANCE_ID>
310940063

> <PUBCHEM_SUBSTANCE_VERSION>
1

> <PUBCHEM_EXT_DATASOURCE_NAME>
4488

> <PUBCHEM_EXT_DATASOURCE_REGID>
SCHEMBL16117993

> <PUBCHEM_SUBSTANCE_COMMENT>
InChI=1S/C12H17ClO/c1-5-8-6-11(14)9(7-10(8)13)12(2,3)4/h6-7,14H,5H2,1-4H3
InChIKey=ZEPFWVGDXNJAKM-UHFFFAOYSA-N

> <PUBCHEM_SUBSTANCE_SYNONYM>
SCHEMBL16117993

> <PUBCHEM_XREF_EXT_ID>
SCHEMBL16117993

> <PUBCHEM_EXT_DATASOURCE_URL>
https://www.surechembl.org/

> <PUBCHEM_EXT_SUBSTANCE_URL>
https://www.surechembl.org/chemical/SCHEMBL16117993

> <PUBCHEM_CID_ASSOCIATIONS>
16641102  1

> <PUBCHEM_COORDINATE_TYPE>
1
3

> <PUBCHEM_BONDANNOTATIONS>
4  11  3
4  12  3

$$$$
