310934455
  -OEChem-07211613022D

 22 25  0     0  0  0  0  0  0999 V2000
    2.3018   -2.2698    0.0000 N   0  0  0  0  0  0  0  0  0  0  0  0
    2.3018   -3.9322    0.0000 N   0  0  0  0  0  0  0  0  0  0  0  0
    2.3018   -1.4706    0.0000 C   0  0  0  0  0  0  0  0  0  0  0  0
    2.3977   -0.6394    0.0000 C   0  0  0  0  0  0  0  0  0  0  0  0
    3.0690   -1.1189    0.0000 C   0  0  0  0  0  0  0  0  0  0  0  0
    1.5345   -1.1189    0.0000 C   0  0  0  0  0  0  0  0  0  0  0  0
    1.5984   -2.6854    0.0000 C   0  0  0  0  0  0  0  0  0  0  0  0
    3.0051   -2.6854    0.0000 C   0  0  0  0  0  0  0  0  0  0  0  0
    0.8631   -1.6304    0.0000 C   0  0  0  0  0  0  0  0  0  0  0  0
    1.4067   -0.3197    0.0000 C   0  0  0  0  0  0  0  0  0  0  0  0
    3.0051   -3.5166    0.0000 C   0  0  0  0  0  0  0  0  0  0  0  0
    1.5984   -3.5166    0.0000 C   0  0  0  0  0  0  0  0  0  0  0  0
    0.0959   -1.3107    0.0000 C   0  0  0  0  0  0  0  0  0  0  0  0
    0.6714    0.0000    0.0000 C   0  0  0  0  0  0  0  0  0  0  0  0
    2.3018   -4.7314    0.0000 C   0  0  0  0  0  0  0  0  0  0  0  0
    0.0000   -0.5115    0.0000 C   0  0  0  0  0  0  0  0  0  0  0  0
    3.0051   -5.1470    0.0000 C   0  0  0  0  0  0  0  0  0  0  0  0
    3.0051   -5.9782    0.0000 C   0  0  0  0  0  0  0  0  0  0  0  0
    3.7084   -4.7633    0.0000 C   0  0  0  0  0  0  0  0  0  0  0  0
    3.7084   -6.3937    0.0000 C   0  0  0  0  0  0  0  0  0  0  0  0
    4.4117   -5.1470    0.0000 C   0  0  0  0  0  0  0  0  0  0  0  0
    4.4117   -5.9782    0.0000 C   0  0  0  0  0  0  0  0  0  0  0  0
  1  3  1  0  0  0  0
  1  7  1  0  0  0  0
  1  8  1  0  0  0  0
  2 11  1  0  0  0  0
  2 12  1  0  0  0  0
  2 15  1  0  0  0  0
  3  4  1  0  0  0  0
  3  5  1  0  0  0  0
  3  6  1  0  0  0  0
  4  5  1  0  0  0  0
  6  9  2  0  0  0  0
  6 10  1  0  0  0  0
  7 12  1  0  0  0  0
  8 11  1  0  0  0  0
  9 13  1  0  0  0  0
 10 14  2  0  0  0  0
 13 16  2  0  0  0  0
 14 16  1  0  0  0  0
 15 17  1  0  0  0  0
 17 18  2  0  0  0  0
 17 19  1  0  0  0  0
 18 20  1  0  0  0  0
 19 21  2  0  0  0  0
 20 22  2  0  0  0  0
 21 22  1  0  0  0  0
M  END
> <PUBCHEM_COMPOUND_ID_TYPE>
0

> <PUBCHEM_TOTAL_CHARGE>
0

> <PUBCHEM_SUBSTANCE_ID>
310934455

> <PUBCHEM_SUBSTANCE_VERSION>
1

> <PUBCHEM_EXT_DATASOURCE_NAME>
4488

> <PUBCHEM_EXT_DATASOURCE_REGID>
SCHEMBL16111935

> <PUBCHEM_SUBSTANCE_COMMENT>
InChI=1S/C20H24N2/c1-3-7-18(8-4-1)17-21-13-15-22(16-14-21)20(11-12-20)19-9-5-2-6-10-19/h1-10H,11-17H2
InChIKey=VREIXSOUYLTXNJ-UHFFFAOYSA-N

> <PUBCHEM_SUBSTANCE_SYNONYM>
SCHEMBL16111935

> <PUBCHEM_XREF_EXT_ID>
SCHEMBL16111935

> <PUBCHEM_EXT_DATASOURCE_URL>
https://www.surechembl.org/

> <PUBCHEM_EXT_SUBSTANCE_URL>
https://www.surechembl.org/chemical/SCHEMBL16111935

> <PUBCHEM_CID_ASSOCIATIONS>
117602661  1

> <PUBCHEM_COORDINATE_TYPE>
1
3

$$$$
