310928973
  -OEChem-07211613022D

  0  0  0     0  0  0  0  0  0999 V2000
M  END
> <PUBCHEM_SUBSTANCE_ID>
310928973

> <PUBCHEM_SUBSTANCE_VERSION>
1

> <PUBCHEM_EXT_DATASOURCE_NAME>
11752

> <PUBCHEM_EXT_DATASOURCE_REGID>
BD33446

> <PUBCHEM_SUBSTANCE_SYNONYM>
37342-97-5
Bis(cyclopentadienyl)zirconiumchloridehydride

> <PUBCHEM_GENERIC_REGISTRY_NAME>
37342-97-5

> <PUBCHEM_XREF_EXT_ID>
BD33446

> <PUBCHEM_EXT_DATASOURCE_URL>
http://www.bidepharmatech.com/en/index.html

> <PUBCHEM_EXT_SUBSTANCE_URL>
http://www.bidepharmatech.com/en/goodsview_goodscode_BD33446.html

$$$$
