310941831
  -OEChem-07211613022D

 35 40  0     1  0  0  0  0  0999 V2000
   -2.1366   -2.8434    0.0000 Cl  0  0  0  0  0  0  0  0  0  0  0  0
    3.4364   -0.9261    0.0000 S   0  0  0  0  0  0  0  0  0  0  0  0
   -4.9962   -2.8434    0.0000 F   0  0  0  0  0  0  0  0  0  0  0  0
   -0.7068    1.3160    0.0000 O   0  0  0  0  0  0  0  0  0  0  0  0
    3.4364   -1.7548    0.0000 O   0  0  0  0  0  0  0  0  0  0  0  0
    2.7052   -1.3323    0.0000 O   0  0  0  0  0  0  0  0  0  0  0  0
    1.4704    0.0650    0.0000 N   0  0  0  0  0  0  0  0  0  0  0  0
    2.8677   -0.3087    0.0000 N   0  0  0  0  0  0  0  0  0  0  0  0
    0.9180   -1.1536    0.0000 N   0  0  0  0  0  0  0  0  0  0  0  0
    1.7466   -1.2348    0.0000 N   0  0  0  0  0  0  0  0  0  0  0  0
   -2.1366   -0.3574    0.0000 N   0  0  3  0  0  0  0  0  0  0  0  0
    0.7231    1.3160    0.0000 C   0  0  0  0  0  0  0  0  0  0  0  0
    0.7231   -0.3574    0.0000 C   0  0  0  0  0  0  0  0  0  0  0  0
    2.0716   -0.4874    0.0000 C   0  0  0  0  0  0  0  0  0  0  0  0
    0.0244    0.9099    0.0000 C   0  0  0  0  0  0  0  0  0  0  0  0
    1.4542    0.8936    0.0000 C   0  0  0  0  0  0  0  0  0  0  0  0
    0.7392    2.1610    0.0000 C   0  0  0  0  0  0  0  0  0  0  0  0
    0.0244    0.0812    0.0000 C   0  0  0  0  0  0  0  0  0  0  0  0
    4.2488   -0.7474    0.0000 C   0  0  0  0  0  0  0  0  0  0  0  0
    0.3493    2.8434    0.0000 C   0  0  0  0  0  0  0  0  0  0  0  0
    1.1292    2.8434    0.0000 C   0  0  0  0  0  0  0  0  0  0  0  0
    4.9962   -0.9911    0.0000 C   0  0  0  0  0  0  0  0  0  0  0  0
    4.8337   -0.2275    0.0000 C   0  0  0  0  0  0  0  0  0  0  0  0
   -1.4054    0.8936    0.0000 C   0  0  3  0  0  0  0  0  0  0  0  0
   -1.4217    0.0650    0.0000 C   0  0  0  0  0  0  0  0  0  0  0  0
   -2.1528    1.2999    0.0000 C   0  0  0  0  0  0  0  0  0  0  0  0
   -2.8353   -1.5923    0.0000 C   0  0  0  0  0  0  0  0  0  0  0  0
   -2.1366   -1.1536    0.0000 C   0  0  0  0  0  0  0  0  0  0  0  0
   -2.8515    0.0650    0.0000 C   0  0  0  0  0  0  0  0  0  0  0  0
   -2.8353    0.8936    0.0000 C   0  0  0  0  0  0  0  0  0  0  0  0
   -2.8515   -2.4209    0.0000 C   0  0  0  0  0  0  0  0  0  0  0  0
   -3.5664   -1.1861    0.0000 C   0  0  0  0  0  0  0  0  0  0  0  0
   -3.5339   -2.8271    0.0000 C   0  0  0  0  0  0  0  0  0  0  0  0
   -4.2813   -2.4209    0.0000 C   0  0  0  0  0  0  0  0  0  0  0  0
   -4.2813   -1.5923    0.0000 C   0  0  0  0  0  0  0  0  0  0  0  0
  1 31  1  0  0  0  0
  2  5  2  0  0  0  0
  2  6  2  0  0  0  0
  2  8  1  0  0  0  0
  2 19  1  0  0  0  0
  3 34  1  0  0  0  0
  4 15  1  0  0  0  0
 24  4  1  1  0  0  0
  7 13  1  0  0  0  0
  7 14  1  0  0  0  0
  7 16  1  0  0  0  0
  8 14  1  0  0  0  0
  9 10  1  0  0  0  0
  9 13  2  0  0  0  0
 10 14  2  0  0  0  0
 11 25  1  0  0  0  0
 11 28  1  0  0  0  0
 11 29  1  0  0  0  0
 12 15  1  0  0  0  0
 12 16  2  0  0  0  0
 12 17  1  0  0  0  0
 13 18  1  0  0  0  0
 15 18  2  0  0  0  0
 17 20  1  0  0  0  0
 17 21  1  0  0  0  0
 19 22  1  0  0  0  0
 19 23  1  0  0  0  0
 20 21  1  0  0  0  0
 22 23  1  0  0  0  0
 24 25  1  0  0  0  0
 24 26  1  0  0  0  0
 26 30  1  0  0  0  0
 27 28  1  0  0  0  0
 27 31  1  0  0  0  0
 27 32  2  0  0  0  0
 29 30  1  0  0  0  0
 31 33  2  0  0  0  0
 32 35  1  0  0  0  0
 33 34  1  0  0  0  0
 34 35  2  0  0  0  0
M  END
> <PUBCHEM_COMPOUND_ID_TYPE>
0

> <PUBCHEM_TOTAL_CHARGE>
0

> <PUBCHEM_SUBSTANCE_ID>
310941831

> <PUBCHEM_SUBSTANCE_VERSION>
1

> <PUBCHEM_EXT_DATASOURCE_NAME>
4488

> <PUBCHEM_EXT_DATASOURCE_REGID>
SCHEMBL16119863

> <PUBCHEM_SUBSTANCE_COMMENT>
InChI=1S/C24H27ClFN5O3S/c25-21-10-17(26)6-5-16(21)12-30-9-1-2-18(13-30)34-22-11-23-27-28-24(29-35(32,33)19-7-8-19)31(23)14-20(22)15-3-4-15/h5-6,10-11,14-15,18-19H,1-4,7-9,12-13H2,(H,28,29)/t18-/m1/s1
InChIKey=DQQBQIPTIFDLDB-GOSISDBHSA-N

> <PUBCHEM_SUBSTANCE_SYNONYM>
SCHEMBL16119863

> <PUBCHEM_XREF_EXT_ID>
SCHEMBL16119863

> <PUBCHEM_EXT_DATASOURCE_URL>
https://www.surechembl.org/

> <PUBCHEM_EXT_SUBSTANCE_URL>
https://www.surechembl.org/chemical/SCHEMBL16119863

> <PUBCHEM_CID_ASSOCIATIONS>
117608574  1

> <PUBCHEM_COORDINATE_TYPE>
1
3

> <PUBCHEM_BONDANNOTATIONS>
24  4  5

$$$$
