310934528
  -OEChem-07211613022D

 41 46  0     0  0  0  0  0  0999 V2000
    2.8645    0.0000    0.0000 O   0  0  0  0  0  0  0  0  0  0  0  0
    1.4592    0.0000    0.0000 O   0  0  0  0  0  0  0  0  0  0  0  0
    7.1343   -9.5664    0.0000 O   0  0  0  0  0  0  0  0  0  0  0  0
    6.0533  -10.5392    0.0000 O   0  0  0  0  0  0  0  0  0  0  0  0
    1.1350   -4.9723    0.0000 N   0  0  0  0  0  0  0  0  0  0  0  0
    0.3243   -4.9723    0.0000 N   0  0  0  0  0  0  0  0  0  0  0  0
    2.2159   -3.9995    0.0000 N   0  0  0  0  0  0  0  0  0  0  0  0
    0.7567   -1.2431    0.0000 N   0  0  0  0  0  0  0  0  0  0  0  0
    4.7021   -7.8909    0.0000 N   0  0  0  0  0  0  0  0  0  0  0  0
    5.7831   -9.1340    0.0000 N   0  0  0  0  0  0  0  0  0  0  0  0
    0.7567   -3.7293    0.0000 C   0  0  0  0  0  0  0  0  0  0  0  0
    0.7567   -2.8645    0.0000 C   0  0  0  0  0  0  0  0  0  0  0  0
    1.4053   -4.1617    0.0000 C   0  0  0  0  0  0  0  0  0  0  0  0
    1.4592   -2.4862    0.0000 C   0  0  0  0  0  0  0  0  0  0  0  0
    1.4592   -1.6755    0.0000 C   0  0  0  0  0  0  0  0  0  0  0  0
    0.0541   -4.1617    0.0000 C   0  0  0  0  0  0  0  0  0  0  0  0
    2.4862   -5.4048    0.0000 C   0  0  0  0  0  0  0  0  0  0  0  0
    2.1619   -1.2431    0.0000 C   0  0  0  0  0  0  0  0  0  0  0  0
    1.7295   -5.5669    0.0000 C   0  0  0  0  0  0  0  0  0  0  0  0
    0.0000   -2.4862    0.0000 C   0  0  0  0  0  0  0  0  0  0  0  0
    2.1619   -2.8645    0.0000 C   0  0  0  0  0  0  0  0  0  0  0  0
    2.7564   -4.5940    0.0000 C   0  0  0  0  0  0  0  0  0  0  0  0
    3.0267   -6.0533    0.0000 C   0  0  0  0  0  0  0  0  0  0  0  0
    0.0000   -1.6755    0.0000 C   0  0  0  0  0  0  0  0  0  0  0  0
    2.8645   -1.6755    0.0000 C   0  0  0  0  0  0  0  0  0  0  0  0
    2.1619   -0.4324    0.0000 C   0  0  0  0  0  0  0  0  0  0  0  0
    2.8645   -2.4862    0.0000 C   0  0  0  0  0  0  0  0  0  0  0  0
    4.1617   -7.2423    0.0000 C   0  0  0  0  0  0  0  0  0  0  0  0
    3.8373   -5.8912    0.0000 C   0  0  0  0  0  0  0  0  0  0  0  0
    2.8105   -6.8100    0.0000 C   0  0  0  0  0  0  0  0  0  0  0  0
    4.4319   -6.4857    0.0000 C   0  0  0  0  0  0  0  0  0  0  0  0
    3.3509   -7.4045    0.0000 C   0  0  0  0  0  0  0  0  0  0  0  0
    4.4319   -8.6476    0.0000 C   0  0  0  0  0  0  0  0  0  0  0  0
    5.5128   -7.7288    0.0000 C   0  0  0  0  0  0  0  0  0  0  0  0
    6.0533   -8.3233    0.0000 C   0  0  0  0  0  0  0  0  0  0  0  0
    4.9723   -9.2961    0.0000 C   0  0  0  0  0  0  0  0  0  0  0  0
    6.3235   -9.7285    0.0000 C   0  0  0  0  0  0  0  0  0  0  0  0
    7.6747  -10.1609    0.0000 C   0  0  0  0  0  0  0  0  0  0  0  0
    8.2152  -10.8094    0.0000 C   0  0  0  0  0  0  0  0  0  0  0  0
    7.0802  -10.7554    0.0000 C   0  0  0  0  0  0  0  0  0  0  0  0
    8.2693   -9.6204    0.0000 C   0  0  0  0  0  0  0  0  0  0  0  0
  1 26  2  0  0  0  0
  2 26  1  0  0  0  0
  3 37  1  0  0  0  0
  3 38  1  0  0  0  0
  4 37  2  0  0  0  0
  5  6  1  0  0  0  0
  5 13  1  0  0  0  0
  5 19  1  0  0  0  0
  6 16  2  0  0  0  0
  7 13  1  0  0  0  0
  7 22  2  0  0  0  0
  8 15  2  0  0  0  0
  8 24  1  0  0  0  0
  9 28  1  0  0  0  0
  9 33  1  0  0  0  0
  9 34  1  0  0  0  0
 10 35  1  0  0  0  0
 10 36  1  0  0  0  0
 10 37  1  0  0  0  0
 11 12  1  0  0  0  0
 11 13  2  0  0  0  0
 11 16  1  0  0  0  0
 12 14  2  0  0  0  0
 12 20  1  0  0  0  0
 14 15  1  0  0  0  0
 14 21  1  0  0  0  0
 15 18  1  0  0  0  0
 17 19  2  0  0  0  0
 17 22  1  0  0  0  0
 17 23  1  0  0  0  0
 18 25  2  0  0  0  0
 18 26  1  0  0  0  0
 20 24  2  0  0  0  0
 21 27  2  0  0  0  0
 23 29  2  0  0  0  0
 23 30  1  0  0  0  0
 25 27  1  0  0  0  0
 28 31  2  0  0  0  0
 28 32  1  0  0  0  0
 29 31  1  0  0  0  0
 30 32  2  0  0  0  0
 33 36  1  0  0  0  0
 34 35  1  0  0  0  0
 38 39  1  0  0  0  0
 38 40  1  0  0  0  0
 38 41  1  0  0  0  0
M  END
> <PUBCHEM_COMPOUND_ID_TYPE>
0

> <PUBCHEM_TOTAL_CHARGE>
0

> <PUBCHEM_SUBSTANCE_ID>
310934528

> <PUBCHEM_SUBSTANCE_VERSION>
1

> <PUBCHEM_EXT_DATASOURCE_NAME>
4488

> <PUBCHEM_EXT_DATASOURCE_REGID>
SCHEMBL16112017

> <PUBCHEM_SUBSTANCE_COMMENT>
InChI=1S/C31H30N6O4/c1-31(2,3)41-30(40)36-15-13-35(14-16-36)22-9-7-20(8-10-22)21-17-33-28-26(18-34-37(28)19-21)23-11-12-32-27-24(23)5-4-6-25(27)29(38)39/h4-12,17-19H,13-16H2,1-3H3,(H,38,39)
InChIKey=NQSLUDWFJQDLKQ-UHFFFAOYSA-N

> <PUBCHEM_SUBSTANCE_SYNONYM>
SCHEMBL16112017

> <PUBCHEM_XREF_EXT_ID>
SCHEMBL16112017

> <PUBCHEM_EXT_DATASOURCE_URL>
https://www.surechembl.org/

> <PUBCHEM_EXT_SUBSTANCE_URL>
https://www.surechembl.org/chemical/SCHEMBL16112017

> <PUBCHEM_CID_ASSOCIATIONS>
117602726  1

> <PUBCHEM_COORDINATE_TYPE>
1
3

$$$$
