310946896
  -OEChem-07211613022D

 21 23  0     0  0  0  0  0  0999 V2000
   -2.8673    1.7500    0.0000 Cl  0  0  0  0  0  0  0  0  0  0  0  0
   -0.8465    5.1057    0.0000 N   0  0  0  0  0  0  0  0  0  0  0  0
   -1.3314    4.4383    0.0000 N   0  0  0  0  0  0  0  0  0  0  0  0
    1.3671    4.0258    0.0000 N   0  0  0  0  0  0  0  0  0  0  0  0
    0.6526    2.7883    0.0000 N   0  0  0  0  0  0  0  0  0  0  0  0
   -0.4766    2.3906    0.0000 N   0  0  0  0  0  0  0  0  0  0  0  0
   -0.0619    4.0258    0.0000 C   0  0  0  0  0  0  0  0  0  0  0  0
   -0.8465    3.7709    0.0000 C   0  0  0  0  0  0  0  0  0  0  0  0
   -0.0619    4.8508    0.0000 C   0  0  0  0  0  0  0  0  0  0  0  0
    0.6526    3.6133    0.0000 C   0  0  0  0  0  0  0  0  0  0  0  0
   -1.0600    2.9740    0.0000 C   0  0  0  0  0  0  0  0  0  0  0  0
    0.6526    5.2633    0.0000 C   0  0  0  0  0  0  0  0  0  0  0  0
   -1.8569    2.7604    0.0000 C   0  0  0  0  0  0  0  0  0  0  0  0
    1.3671    4.8508    0.0000 C   0  0  0  0  0  0  0  0  0  0  0  0
   -1.2590    5.8202    0.0000 C   0  0  0  0  0  0  0  0  0  0  0  0
   -2.0704    1.9635    0.0000 C   0  0  0  0  0  0  0  0  0  0  0  0
   -0.6902    1.5937    0.0000 C   0  0  0  0  0  0  0  0  0  0  0  0
    1.3671    2.3758    0.0000 C   0  0  0  0  0  0  0  0  0  0  0  0
   -1.4871    1.3802    0.0000 C   0  0  0  0  0  0  0  0  0  0  0  0
    1.3671    1.5508    0.0000 C   0  0  0  0  0  0  0  0  0  0  0  0
    2.0816    2.7883    0.0000 C   0  0  0  0  0  0  0  0  0  0  0  0
  1 16  1  0  0  0  0
  2  3  1  0  0  0  0
  2  9  1  0  0  0  0
  2 15  1  0  0  0  0
  3  8  2  0  0  0  0
  4 10  2  0  0  0  0
  4 14  1  0  0  0  0
  5 10  1  0  0  0  0
  5 18  1  0  0  0  0
  6 11  1  0  0  0  0
  6 17  2  0  0  0  0
  7  8  1  0  0  0  0
  7  9  2  0  0  0  0
  7 10  1  0  0  0  0
  8 11  1  0  0  0  0
  9 12  1  0  0  0  0
 11 13  2  0  0  0  0
 12 14  2  0  0  0  0
 13 16  1  0  0  0  0
 16 19  2  0  0  0  0
 17 19  1  0  0  0  0
 18 20  1  0  0  0  0
 18 21  1  0  0  0  0
M  END
> <PUBCHEM_COMPOUND_ID_TYPE>
0

> <PUBCHEM_TOTAL_CHARGE>
0

> <PUBCHEM_SUBSTANCE_ID>
310946896

> <PUBCHEM_SUBSTANCE_VERSION>
1

> <PUBCHEM_EXT_DATASOURCE_NAME>
4488

> <PUBCHEM_EXT_DATASOURCE_REGID>
SCHEMBL16125020

> <PUBCHEM_SUBSTANCE_COMMENT>
InChI=1S/C15H16ClN5/c1-9(2)19-15-13-12(5-7-18-15)21(3)20-14(13)11-8-10(16)4-6-17-11/h4-9H,1-3H3,(H,18,19)
InChIKey=AGBJUMOIFOCLMJ-UHFFFAOYSA-N

> <PUBCHEM_SUBSTANCE_SYNONYM>
SCHEMBL16125020

> <PUBCHEM_XREF_EXT_ID>
SCHEMBL16125020

> <PUBCHEM_EXT_DATASOURCE_URL>
https://www.surechembl.org/

> <PUBCHEM_EXT_SUBSTANCE_URL>
https://www.surechembl.org/chemical/SCHEMBL16125020

> <PUBCHEM_CID_ASSOCIATIONS>
117612754  1

> <PUBCHEM_COORDINATE_TYPE>
1
3

$$$$
