310943464
  -OEChem-07211613022D

 36 41  0     0  0  0  0  0  0999 V2000
    1.4261    0.0000    0.0000 O   0  0  0  0  0  0  0  0  0  0  0  0
   -4.2940    2.4897    0.0000 O   0  0  0  0  0  0  0  0  0  0  0  0
   -2.1510    0.4097    0.0000 N   0  0  0  0  0  0  0  0  0  0  0  0
   -0.7170    0.4097    0.0000 N   0  0  0  0  0  0  0  0  0  0  0  0
   -2.8600    1.6546    0.0000 N   0  0  0  0  0  0  0  0  0  0  0  0
   -2.7655   -0.1418    0.0000 N   0  0  0  0  0  0  0  0  0  0  0  0
    4.2940   -0.8351    0.0000 N   0  0  0  0  0  0  0  0  0  0  0  0
    2.1353    1.2449    0.0000 N   0  0  0  0  0  0  0  0  0  0  0  0
    2.1825   -2.8994    0.0000 N   0  0  0  0  0  0  0  0  0  0  0  0
    3.5692   -2.0643    0.0000 C   0  0  0  0  0  0  0  0  0  0  0  0
   -2.1510    1.2449    0.0000 C   0  0  0  0  0  0  0  0  0  0  0  0
    3.5692   -1.2291    0.0000 C   0  0  0  0  0  0  0  0  0  0  0  0
   -0.7170    1.2449    0.0000 C   0  0  0  0  0  0  0  0  0  0  0  0
   -1.4418    0.0000    0.0000 C   0  0  0  0  0  0  0  0  0  0  0  0
    4.2783   -1.6703    0.0000 C   0  0  0  0  0  0  0  0  0  0  0  0
    4.2783   -2.4582    0.0000 C   0  0  0  0  0  0  0  0  0  0  0  0
   -0.0237    1.6546    0.0000 C   0  0  0  0  0  0  0  0  0  0  0  0
   -1.4576    1.6546    0.0000 C   0  0  0  0  0  0  0  0  0  0  0  0
    2.8600   -2.4897    0.0000 C   0  0  0  0  0  0  0  0  0  0  0  0
    2.8600   -0.8194    0.0000 C   0  0  0  0  0  0  0  0  0  0  0  0
    2.8600    0.0158    0.0000 C   0  0  0  0  0  0  0  0  0  0  0  0
   -0.0079    2.4897    0.0000 C   0  0  0  0  0  0  0  0  0  0  0  0
   -1.6152   -0.8194    0.0000 C   0  0  0  0  0  0  0  0  0  0  0  0
    0.7328    1.2606    0.0000 C   0  0  0  0  0  0  0  0  0  0  0  0
    1.4103    1.6703    0.0000 C   0  0  0  0  0  0  0  0  0  0  0  0
   -2.4345   -0.8824    0.0000 C   0  0  0  0  0  0  0  0  0  0  0  0
    2.1510    0.4412    0.0000 C   0  0  0  0  0  0  0  0  0  0  0  0
    3.5534    0.4097    0.0000 C   0  0  0  0  0  0  0  0  0  0  0  0
   -2.8758    2.4897    0.0000 C   0  0  0  0  0  0  0  0  0  0  0  0
   -3.5534    1.2606    0.0000 C   0  0  0  0  0  0  0  0  0  0  0  0
    0.7013    2.8994    0.0000 C   0  0  0  0  0  0  0  0  0  0  0  0
    4.2940    0.0000    0.0000 C   0  0  0  0  0  0  0  0  0  0  0  0
    1.4103    2.4897    0.0000 C   0  0  0  0  0  0  0  0  0  0  0  0
   -0.7328    2.8837    0.0000 C   0  0  0  0  0  0  0  0  0  0  0  0
   -3.6164    2.8994    0.0000 C   0  0  0  0  0  0  0  0  0  0  0  0
   -4.2940    1.6546    0.0000 C   0  0  0  0  0  0  0  0  0  0  0  0
  1 27  2  0  0  0  0
  2 35  1  0  0  0  0
  2 36  1  0  0  0  0
  3  6  1  0  0  0  0
  3 11  1  0  0  0  0
  3 14  1  0  0  0  0
  4 13  2  0  0  0  0
  4 14  1  0  0  0  0
  5 11  1  0  0  0  0
  5 29  1  0  0  0  0
  5 30  1  0  0  0  0
  6 26  2  0  0  0  0
  7 12  2  0  0  0  0
  7 32  1  0  0  0  0
  8 25  1  0  0  0  0
  8 27  1  0  0  0  0
  9 19  3  0  0  0  0
 10 12  1  0  0  0  0
 10 15  1  0  0  0  0
 10 16  1  0  0  0  0
 10 19  1  0  0  0  0
 11 18  2  0  0  0  0
 12 20  1  0  0  0  0
 13 17  1  0  0  0  0
 13 18  1  0  0  0  0
 14 23  2  0  0  0  0
 15 16  1  0  0  0  0
 17 22  1  0  0  0  0
 17 24  2  0  0  0  0
 20 21  2  0  0  0  0
 21 27  1  0  0  0  0
 21 28  1  0  0  0  0
 22 31  2  0  0  0  0
 22 34  1  0  0  0  0
 23 26  1  0  0  0  0
 24 25  1  0  0  0  0
 25 33  2  0  0  0  0
 28 32  2  0  0  0  0
 29 35  1  0  0  0  0
 30 36  1  0  0  0  0
 31 33  1  0  0  0  0
M  END
> <PUBCHEM_COMPOUND_ID_TYPE>
0

> <PUBCHEM_TOTAL_CHARGE>
0

> <PUBCHEM_SUBSTANCE_ID>
310943464

> <PUBCHEM_SUBSTANCE_VERSION>
1

> <PUBCHEM_EXT_DATASOURCE_NAME>
4488

> <PUBCHEM_EXT_DATASOURCE_REGID>
SCHEMBL16121529

> <PUBCHEM_SUBSTANCE_COMMENT>
InChI=1S/C27H25N7O2/c1-18-2-3-20(31-26(35)19-4-8-29-23(14-19)27(17-28)6-7-27)15-21(18)22-16-25(33-10-12-36-13-11-33)34-24(32-22)5-9-30-34/h2-5,8-9,14-16H,6-7,10-13H2,1H3,(H,31,35)
InChIKey=KPBPKIMSIANJOA-UHFFFAOYSA-N

> <PUBCHEM_SUBSTANCE_SYNONYM>
SCHEMBL16121529

> <PUBCHEM_XREF_EXT_ID>
SCHEMBL16121529

> <PUBCHEM_EXT_DATASOURCE_URL>
https://www.surechembl.org/

> <PUBCHEM_EXT_SUBSTANCE_URL>
https://www.surechembl.org/chemical/SCHEMBL16121529

> <PUBCHEM_CID_ASSOCIATIONS>
117609888  1

> <PUBCHEM_COORDINATE_TYPE>
1
3

$$$$
