310939534
  -OEChem-07211613022D

 33 35  0     0  0  0  0  0  0999 V2000
    3.6357    0.3236    0.0000 S   0  0  0  0  0  0  0  0  0  0  0  0
   -1.0636   -2.0409    0.0000 F   0  0  0  0  0  0  0  0  0  0  0  0
    0.0634   -1.7389    0.0000 F   0  0  0  0  0  0  0  0  0  0  0  0
   -0.2386   -0.6119    0.0000 F   0  0  0  0  0  0  0  0  0  0  0  0
   -2.0800   -1.3264    0.0000 O   0  0  0  0  0  0  0  0  0  0  0  0
   -1.3656   -0.0889    0.0000 N   0  0  0  0  0  0  0  0  0  0  0  0
    4.3502   -0.0889    0.0000 C   0  0  0  0  0  0  0  0  0  0  0  0
    3.9377   -0.8033    0.0000 C   0  0  0  0  0  0  0  0  0  0  0  0
    4.7627    0.6256    0.0000 C   0  0  0  0  0  0  0  0  0  0  0  0
    5.0647   -0.5014    0.0000 C   0  0  0  0  0  0  0  0  0  0  0  0
    5.0647   -1.3264    0.0000 C   0  0  0  0  0  0  0  0  0  0  0  0
    3.1127   -0.8033    0.0000 C   0  0  0  0  0  0  0  0  0  0  0  0
    5.5877    0.6256    0.0000 C   0  0  0  0  0  0  0  0  0  0  0  0
    5.7792   -0.0889    0.0000 C   0  0  0  0  0  0  0  0  0  0  0  0
    4.3502   -1.5178    0.0000 C   0  0  0  0  0  0  0  0  0  0  0  0
    4.3502    1.3401    0.0000 C   0  0  0  0  0  0  0  0  0  0  0  0
    2.9213   -0.0889    0.0000 C   0  0  0  0  0  0  0  0  0  0  0  0
    5.7792   -1.7389    0.0000 C   0  0  0  0  0  0  0  0  0  0  0  0
    2.7002   -1.5178    0.0000 C   0  0  0  0  0  0  0  0  0  0  0  0
    6.0002    1.3401    0.0000 C   0  0  0  0  0  0  0  0  0  0  0  0
    6.4936   -0.5014    0.0000 C   0  0  0  0  0  0  0  0  0  0  0  0
    3.9377   -2.2323    0.0000 C   0  0  0  0  0  0  0  0  0  0  0  0
    4.7627    2.0545    0.0000 C   0  0  0  0  0  0  0  0  0  0  0  0
    6.4936   -1.3264    0.0000 C   0  0  0  0  0  0  0  0  0  0  0  0
    3.1127   -2.2323    0.0000 C   0  0  0  0  0  0  0  0  0  0  0  0
    5.5877    2.0545    0.0000 C   0  0  0  0  0  0  0  0  0  0  0  0
    2.2068    0.3236    0.0000 C   0  0  0  0  0  0  0  0  0  0  0  0
    1.4923   -0.0889    0.0000 C   0  0  0  0  0  0  0  0  0  0  0  0
   -0.6511   -1.3264    0.0000 C   0  0  0  0  0  0  0  0  0  0  0  0
   -1.3656   -0.9139    0.0000 C   0  0  0  0  0  0  0  0  0  0  0  0
    0.7779    0.3236    0.0000 C   0  0  0  0  0  0  0  0  0  0  0  0
   -0.6511    0.3236    0.0000 C   0  0  0  0  0  0  0  0  0  0  0  0
    0.0634   -0.0889    0.0000 C   0  0  0  0  0  0  0  0  0  0  0  0
  1  7  1  0  0  0  0
  1 17  1  0  0  0  0
  2 29  1  0  0  0  0
  3 29  1  0  0  0  0
  4 29  1  0  0  0  0
  5 30  2  0  0  0  0
  6 30  1  0  0  0  0
  6 32  1  0  0  0  0
  7  8  1  0  0  0  0
  7  9  1  0  0  0  0
  7 10  1  0  0  0  0
  8 12  2  0  0  0  0
  8 15  1  0  0  0  0
  9 13  2  0  0  0  0
  9 16  1  0  0  0  0
 10 11  2  0  0  0  0
 10 14  1  0  0  0  0
 11 18  1  0  0  0  0
 12 19  1  0  0  0  0
 13 20  1  0  0  0  0
 14 21  2  0  0  0  0
 15 22  2  0  0  0  0
 16 23  2  0  0  0  0
 17 27  1  0  0  0  0
 18 24  2  0  0  0  0
 19 25  2  0  0  0  0
 20 26  2  0  0  0  0
 21 24  1  0  0  0  0
 22 25  1  0  0  0  0
 23 26  1  0  0  0  0
 27 28  1  0  0  0  0
 28 31  1  0  0  0  0
 29 30  1  0  0  0  0
 31 33  1  0  0  0  0
 32 33  1  0  0  0  0
M  END
> <PUBCHEM_COMPOUND_ID_TYPE>
0

> <PUBCHEM_TOTAL_CHARGE>
0

> <PUBCHEM_SUBSTANCE_ID>
310939534

> <PUBCHEM_SUBSTANCE_VERSION>
1

> <PUBCHEM_EXT_DATASOURCE_NAME>
4488

> <PUBCHEM_EXT_DATASOURCE_REGID>
SCHEMBL16117463

> <PUBCHEM_SUBSTANCE_COMMENT>
InChI=1S/C27H28F3NOS/c28-27(29,30)25(32)31-20-12-1-2-13-21-33-26(22-14-6-3-7-15-22,23-16-8-4-9-17-23)24-18-10-5-11-19-24/h3-11,14-19H,1-2,12-13,20-21H2,(H,31,32)
InChIKey=UMASNILCWCGUCM-UHFFFAOYSA-N

> <PUBCHEM_SUBSTANCE_SYNONYM>
SCHEMBL16117463

> <PUBCHEM_XREF_EXT_ID>
SCHEMBL16117463

> <PUBCHEM_EXT_DATASOURCE_URL>
https://www.surechembl.org/

> <PUBCHEM_EXT_SUBSTANCE_URL>
https://www.surechembl.org/chemical/SCHEMBL16117463

> <PUBCHEM_CID_ASSOCIATIONS>
117606831  1

> <PUBCHEM_COORDINATE_TYPE>
1
3

$$$$
