310947061
  -OEChem-07211613022D

 42 45  0     1  0  0  0  0  0999 V2000
    2.0125   -2.8850    0.0000 S   0  0  0  0  0  0  0  0  0  0  0  0
   -0.6824    2.0730    0.0000 O   0  0  0  0  0  0  0  0  0  0  0  0
   -2.9454   -2.3149    0.0000 O   0  0  0  0  0  0  0  0  0  0  0  0
    1.8225   -3.6797    0.0000 O   0  0  0  0  0  0  0  0  0  0  0  0
    2.8072   -3.0750    0.0000 O   0  0  0  0  0  0  0  0  0  0  0  0
   -2.3926    3.4032    0.0000 O   0  0  0  0  0  0  0  0  0  0  0  0
   -0.9933    3.6797    0.0000 O   0  0  0  0  0  0  0  0  0  0  0  0
   -1.4079   -0.0519    0.0000 N   0  0  0  0  0  0  0  0  0  0  0  0
   -0.9415   -0.7083    0.0000 N   0  0  0  0  0  0  0  0  0  0  0  0
   -1.1834   -2.1594    0.0000 N   0  0  0  0  0  0  0  0  0  0  0  0
   -3.6365   -1.0883    0.0000 N   0  0  0  0  0  0  0  0  0  0  0  0
    2.1853   -2.0903    0.0000 N   0  0  3  0  0  0  0  0  0  0  0  0
    1.0106    0.4319    0.0000 N   0  0  0  0  0  0  0  0  0  0  0  0
   -1.1488    0.7428    0.0000 C   0  0  3  0  0  0  0  0  0  0  0  0
   -2.1680   -0.2764    0.0000 C   0  0  0  0  0  0  0  0  0  0  0  0
   -2.2199   -1.1056    0.0000 C   0  0  0  0  0  0  0  0  0  0  0  0
   -1.4252   -1.3820    0.0000 C   0  0  0  0  0  0  0  0  0  0  0  0
   -2.9282   -1.4857    0.0000 C   0  0  0  0  0  0  0  0  0  0  0  0
   -0.5096    1.2611    0.0000 C   0  0  0  0  0  0  0  0  0  0  0  0
   -1.9089    1.0019    0.0000 C   0  0  0  0  0  0  0  0  0  0  0  0
   -2.8936    0.1382    0.0000 C   0  0  0  0  0  0  0  0  0  0  0  0
   -0.5442    0.1209    0.0000 C   0  0  0  0  0  0  0  0  0  0  0  0
   -1.4598    2.3495    0.0000 C   0  0  3  0  0  0  0  0  0  0  0  0
   -0.3887   -2.3321    0.0000 C   0  0  0  0  0  0  0  0  0  0  0  0
   -2.0644    1.7793    0.0000 C   0  0  0  0  0  0  0  0  0  0  0  0
   -3.6191   -0.2591    0.0000 C   0  0  0  0  0  0  0  0  0  0  0  0
    1.2006   -2.6949    0.0000 C   0  0  0  0  0  0  0  0  0  0  0  0
   -1.6325    3.1614    0.0000 C   0  0  0  0  0  0  0  0  0  0  0  0
    0.1641   -1.7448    0.0000 C   0  0  0  0  0  0  0  0  0  0  0  0
   -0.1468   -3.1095    0.0000 C   0  0  0  0  0  0  0  0  0  0  0  0
    0.1987    0.2591    0.0000 C   0  0  0  0  0  0  0  0  0  0  0  0
    0.9761   -1.9176    0.0000 C   0  0  0  0  0  0  0  0  0  0  0  0
    0.6651   -3.2823    0.0000 C   0  0  0  0  0  0  0  0  0  0  0  0
    2.9800   -1.8312    0.0000 C   0  0  0  0  0  0  0  0  0  0  0  0
    1.5807   -1.5202    0.0000 C   0  0  0  0  0  0  0  0  0  0  0  0
   -3.0146    2.8504    0.0000 C   0  0  0  0  0  0  0  0  0  0  0  0
    3.6019   -2.4012    0.0000 C   0  0  0  0  0  0  0  0  0  0  0  0
    3.1527   -1.0365    0.0000 C   0  0  0  0  0  0  0  0  0  0  0  0
    3.7919   -1.6238    0.0000 C   0  0  0  0  0  0  0  0  0  0  0  0
   -3.6019    2.3149    0.0000 C   0  0  0  0  0  0  0  0  0  0  0  0
   -2.8418    2.0557    0.0000 C   0  0  0  0  0  0  0  0  0  0  0  0
   -3.7919    3.1268    0.0000 C   0  0  0  0  0  0  0  0  0  0  0  0
  1  4  2  0  0  0  0
  1  5  2  0  0  0  0
  1 12  1  0  0  0  0
  1 27  1  0  0  0  0
  2 19  1  0  0  0  0
  2 23  1  0  0  0  0
  3 18  2  0  0  0  0
  6 28  1  0  0  0  0
  6 36  1  0  0  0  0
  7 28  2  0  0  0  0
  8  9  1  0  0  0  0
  8 14  1  0  0  0  0
  8 15  1  0  0  0  0
  9 17  2  0  0  0  0
 10 17  1  0  0  0  0
 10 24  1  0  0  0  0
 11 18  1  0  0  0  0
 11 26  1  0  0  0  0
 12 34  1  0  0  0  0
 12 35  1  0  0  0  0
 13 31  3  0  0  0  0
 14 19  1  0  0  0  0
 14 20  1  0  0  0  0
 14 22  1  1  0  0  0
 15 16  2  0  0  0  0
 15 21  1  0  0  0  0
 16 17  1  0  0  0  0
 16 18  1  0  0  0  0
 20 25  1  0  0  0  0
 21 26  2  0  0  0  0
 22 31  1  0  0  0  0
 23 25  1  0  0  0  0
 23 28  1  1  0  0  0
 24 29  2  0  0  0  0
 24 30  1  0  0  0  0
 27 32  2  0  0  0  0
 27 33  1  0  0  0  0
 29 32  1  0  0  0  0
 30 33  2  0  0  0  0
 34 37  1  0  0  0  0
 34 38  1  0  0  0  0
 34 39  1  0  0  0  0
 36 40  1  0  0  0  0
 36 41  1  0  0  0  0
 36 42  1  0  0  0  0
M  END
> <PUBCHEM_COMPOUND_ID_TYPE>
0

> <PUBCHEM_TOTAL_CHARGE>
0

> <PUBCHEM_SUBSTANCE_ID>
310947061

> <PUBCHEM_SUBSTANCE_VERSION>
1

> <PUBCHEM_EXT_DATASOURCE_NAME>
4488

> <PUBCHEM_EXT_DATASOURCE_REGID>
SCHEMBL16125215

> <PUBCHEM_SUBSTANCE_COMMENT>
InChI=1S/C29H38N6O6S/c1-27(2,3)34(7)42(38,39)20-10-8-19(9-11-20)32-24-23-21(13-17-31-25(23)36)35(33-24)29(15-16-30)14-12-22(40-18-29)26(37)41-28(4,5)6/h8-11,13,17,22H,12,14-15,18H2,1-7H3,(H,31,36)(H,32,33)/t22-,29-/m0/s1
InChIKey=ZYAFSJIXGMGGLP-ZTOMLWHTSA-N

> <PUBCHEM_SUBSTANCE_SYNONYM>
SCHEMBL16125215

> <PUBCHEM_XREF_EXT_ID>
SCHEMBL16125215

> <PUBCHEM_EXT_DATASOURCE_URL>
https://www.surechembl.org/

> <PUBCHEM_EXT_SUBSTANCE_URL>
https://www.surechembl.org/chemical/SCHEMBL16125215

> <PUBCHEM_CID_ASSOCIATIONS>
117612914  1

> <PUBCHEM_COORDINATE_TYPE>
1
3

> <PUBCHEM_BONDANNOTATIONS>
14  22  5
23  28  5

$$$$
