310934067
  -OEChem-07211613022D

 28 31  0     0  0  0  0  0  0999 V2000
    2.2462    1.1527    0.0000 Cl  0  0  0  0  0  0  0  0  0  0  0  0
   -0.6131   -0.5520    0.0000 O   0  0  0  0  0  0  0  0  0  0  0  0
   -0.5303    2.0183    0.0000 O   0  0  0  0  0  0  0  0  0  0  0  0
   -0.0447    5.1107    0.0000 O   0  0  0  0  0  0  0  0  0  0  0  0
    0.9918    4.1270    0.0000 O   0  0  0  0  0  0  0  0  0  0  0  0
   -1.2639    2.6400    0.0000 C   0  0  0  0  0  0  0  0  0  0  0  0
   -2.1521    2.7148    0.0000 C   0  0  0  0  0  0  0  0  0  0  0  0
    0.0000    0.0000    0.0000 C   0  0  0  0  0  0  0  0  0  0  0  0
    0.7145   -0.4125    0.0000 C   0  0  0  0  0  0  0  0  0  0  0  0
    0.0000    0.8250    0.0000 C   0  0  0  0  0  0  0  0  0  0  0  0
   -0.2775   -1.3057    0.0000 C   0  0  0  0  0  0  0  0  0  0  0  0
   -0.8439    3.0423    0.0000 C   0  0  0  0  0  0  0  0  0  0  0  0
   -1.5242    1.5672    0.0000 C   0  0  0  0  0  0  0  0  0  0  0  0
   -2.2680    3.1028    0.0000 C   0  0  0  0  0  0  0  0  0  0  0  0
   -1.5022    3.1981    0.0000 C   0  0  0  0  0  0  0  0  0  0  0  0
   -2.2362    1.8414    0.0000 C   0  0  0  0  0  0  0  0  0  0  0  0
   -2.9164    3.1842    0.0000 C   0  0  0  0  0  0  0  0  0  0  0  0
    0.5429   -1.2195    0.0000 C   0  0  0  0  0  0  0  0  0  0  0  0
   -0.8184    1.0625    0.0000 C   0  0  0  0  0  0  0  0  0  0  0  0
    1.4289    0.0000    0.0000 C   0  0  0  0  0  0  0  0  0  0  0  0
    0.7145    1.2375    0.0000 C   0  0  0  0  0  0  0  0  0  0  0  0
    1.4289    0.8250    0.0000 C   0  0  0  0  0  0  0  0  0  0  0  0
   -1.4108    2.2208    0.0000 C   0  0  0  0  0  0  0  0  0  0  0  0
   -1.0700   -1.6666    0.0000 C   0  0  0  0  0  0  0  0  0  0  0  0
   -0.1505   -2.1651    0.0000 C   0  0  0  0  0  0  0  0  0  0  0  0
   -0.4925    2.6578    0.0000 C   0  0  0  0  0  0  0  0  0  0  0  0
   -0.4154    3.6823    0.0000 C   0  0  0  0  0  0  0  0  0  0  0  0
    0.1896    4.3197    0.0000 C   0  0  0  0  0  0  0  0  0  0  0  0
  1 22  1  0  0  0  0
  2  8  1  0  0  0  0
  2 11  1  0  0  0  0
  3  6  1  0  0  0  0
  3 19  1  0  0  0  0
  4 28  2  0  0  0  0
  5 28  1  0  0  0  0
  6 12  1  0  0  0  0
  6 13  1  0  0  0  0
  6 14  1  0  0  0  0
  7 15  1  0  0  0  0
  7 16  1  0  0  0  0
  7 17  1  0  0  0  0
  7 23  1  0  0  0  0
  8  9  2  0  0  0  0
  8 10  1  0  0  0  0
  9 18  1  0  0  0  0
  9 20  1  0  0  0  0
 10 19  1  0  0  0  0
 10 21  2  0  0  0  0
 11 18  1  0  0  0  0
 11 24  1  0  0  0  0
 11 25  1  0  0  0  0
 12 15  1  0  0  0  0
 13 16  1  0  0  0  0
 14 17  1  0  0  0  0
 20 22  2  0  0  0  0
 21 22  1  0  0  0  0
 23 26  1  0  0  0  0
 26 27  1  0  0  0  0
 27 28  1  0  0  0  0
M  END
> <PUBCHEM_COMPOUND_ID_TYPE>
0

> <PUBCHEM_TOTAL_CHARGE>
0

> <PUBCHEM_SUBSTANCE_ID>
310934067

> <PUBCHEM_SUBSTANCE_VERSION>
1

> <PUBCHEM_EXT_DATASOURCE_NAME>
4488

> <PUBCHEM_EXT_DATASOURCE_REGID>
SCHEMBL16111512

> <PUBCHEM_SUBSTANCE_COMMENT>
InChI=1S/C23H31ClO4/c1-21(2)14-16-12-18(24)13-17(20(16)28-21)15-27-23-9-6-22(7-10-23,8-11-23)5-3-4-19(25)26/h12-13H,3-11,14-15H2,1-2H3,(H,25,26)
InChIKey=WGBOZLRILUPGFY-UHFFFAOYSA-N

> <PUBCHEM_SUBSTANCE_SYNONYM>
SCHEMBL16111512

> <PUBCHEM_XREF_EXT_ID>
SCHEMBL16111512

> <PUBCHEM_EXT_DATASOURCE_URL>
https://www.surechembl.org/

> <PUBCHEM_EXT_SUBSTANCE_URL>
https://www.surechembl.org/chemical/SCHEMBL16111512

> <PUBCHEM_CID_ASSOCIATIONS>
86288657  1

> <PUBCHEM_COORDINATE_TYPE>
1
3

$$$$
