310946995
  -OEChem-07211613022D

 39 43  0     0  0  0  0  0  0999 V2000
   -1.1231    1.8703    0.0000 S   0  0  0  0  0  0  0  0  0  0  0  0
   -2.4209   -3.2506    0.0000 F   0  0  0  0  0  0  0  0  0  0  0  0
   -1.7065    2.4537    0.0000 O   0  0  0  0  0  0  0  0  0  0  0  0
   -0.5398    1.2869    0.0000 O   0  0  0  0  0  0  0  0  0  0  0  0
   -3.8499    0.0494    0.0000 O   0  0  0  0  0  0  0  0  0  0  0  0
   -4.5644   -1.1881    0.0000 O   0  0  0  0  0  0  0  0  0  0  0  0
   -1.7065    1.2869    0.0000 N   0  0  0  0  0  0  0  0  0  0  0  0
   -0.9920   -0.7756    0.0000 N   0  0  0  0  0  0  0  0  0  0  0  0
    0.4369   -0.7756    0.0000 N   0  0  0  0  0  0  0  0  0  0  0  0
   -2.4911    0.2070    0.0000 N   0  0  0  0  0  0  0  0  0  0  0  0
   -0.5398    2.4537    0.0000 N   0  0  0  0  0  0  0  0  0  0  0  0
    1.8659   -0.7756    0.0000 N   0  0  0  0  0  0  0  0  0  0  0  0
    1.8659   -2.4256    0.0000 N   0  0  0  0  0  0  0  0  0  0  0  0
    4.0794    0.3044    0.0000 N   0  0  0  0  0  0  0  0  0  0  0  0
    4.5644   -0.3631    0.0000 N   0  0  0  0  0  0  0  0  0  0  0  0
   -1.7065    0.4619    0.0000 C   0  0  0  0  0  0  0  0  0  0  0  0
   -0.2775   -1.1881    0.0000 C   0  0  0  0  0  0  0  0  0  0  0  0
   -1.7065   -1.1881    0.0000 C   0  0  0  0  0  0  0  0  0  0  0  0
   -0.9920    0.0494    0.0000 C   0  0  0  0  0  0  0  0  0  0  0  0
    1.1514   -1.1881    0.0000 C   0  0  0  0  0  0  0  0  0  0  0  0
    1.1514   -2.0131    0.0000 C   0  0  0  0  0  0  0  0  0  0  0  0
   -2.4911    1.5419    0.0000 C   0  0  0  0  0  0  0  0  0  0  0  0
   -0.2775   -2.0131    0.0000 C   0  0  0  0  0  0  0  0  0  0  0  0
    2.5803   -1.1881    0.0000 C   0  0  0  0  0  0  0  0  0  0  0  0
   -2.4209   -0.7756    0.0000 C   0  0  0  0  0  0  0  0  0  0  0  0
    0.4369   -2.4256    0.0000 C   0  0  0  0  0  0  0  0  0  0  0  0
   -1.7065   -2.0131    0.0000 C   0  0  0  0  0  0  0  0  0  0  0  0
   -2.9760    0.8744    0.0000 C   0  0  0  0  0  0  0  0  0  0  0  0
   -3.1354   -1.1881    0.0000 C   0  0  0  0  0  0  0  0  0  0  0  0
    3.2948   -0.7756    0.0000 C   0  0  0  0  0  0  0  0  0  0  0  0
   -2.4209   -2.4256    0.0000 C   0  0  0  0  0  0  0  0  0  0  0  0
    2.5803   -2.0131    0.0000 C   0  0  0  0  0  0  0  0  0  0  0  0
   -3.1354   -2.0131    0.0000 C   0  0  0  0  0  0  0  0  0  0  0  0
   -3.8499   -0.7756    0.0000 C   0  0  0  0  0  0  0  0  0  0  0  0
    3.2948    0.0494    0.0000 C   0  0  0  0  0  0  0  0  0  0  0  0
    4.0794   -1.0305    0.0000 C   0  0  0  0  0  0  0  0  0  0  0  0
   -0.7533    3.2506    0.0000 C   0  0  0  0  0  0  0  0  0  0  0  0
    0.2571    2.2401    0.0000 C   0  0  0  0  0  0  0  0  0  0  0  0
    4.4919    1.0189    0.0000 C   0  0  0  0  0  0  0  0  0  0  0  0
  1  3  2  0  0  0  0
  1  4  2  0  0  0  0
  1  7  1  0  0  0  0
  1 11  1  0  0  0  0
  2 31  1  0  0  0  0
  5 34  2  0  0  0  0
  6 34  1  0  0  0  0
  7 16  1  0  0  0  0
  7 22  1  0  0  0  0
  8 17  1  0  0  0  0
  8 18  1  0  0  0  0
  8 19  1  0  0  0  0
  9 17  1  0  0  0  0
  9 20  2  0  0  0  0
 10 16  2  0  0  0  0
 10 28  1  0  0  0  0
 11 37  1  0  0  0  0
 11 38  1  0  0  0  0
 12 20  1  0  0  0  0
 12 24  2  0  0  0  0
 13 21  1  0  0  0  0
 13 32  2  0  0  0  0
 14 15  1  0  0  0  0
 14 35  1  0  0  0  0
 14 39  1  0  0  0  0
 15 36  2  0  0  0  0
 16 19  1  0  0  0  0
 17 23  2  0  0  0  0
 18 25  2  0  0  0  0
 18 27  1  0  0  0  0
 20 21  1  0  0  0  0
 21 26  2  0  0  0  0
 22 28  2  0  0  0  0
 23 26  1  0  0  0  0
 24 30  1  0  0  0  0
 24 32  1  0  0  0  0
 25 29  1  0  0  0  0
 27 31  2  0  0  0  0
 29 33  2  0  0  0  0
 29 34  1  0  0  0  0
 30 35  2  0  0  0  0
 30 36  1  0  0  0  0
 31 33  1  0  0  0  0
M  END
> <PUBCHEM_COMPOUND_ID_TYPE>
0

> <PUBCHEM_TOTAL_CHARGE>
0

> <PUBCHEM_SUBSTANCE_ID>
310946995

> <PUBCHEM_SUBSTANCE_VERSION>
1

> <PUBCHEM_EXT_DATASOURCE_NAME>
4488

> <PUBCHEM_EXT_DATASOURCE_REGID>
SCHEMBL16125142

> <PUBCHEM_SUBSTANCE_COMMENT>
InChI=1S/C24H22FN9O4S/c1-31(2)39(37,38)34-7-6-26-22(34)14-33(18-9-15(24(35)36)8-17(25)10-18)21-5-4-19-23(30-21)29-20(12-27-19)16-11-28-32(3)13-16/h4-13H,14H2,1-3H3,(H,35,36)
InChIKey=GVCUPECVBKYTHC-UHFFFAOYSA-N

> <PUBCHEM_SUBSTANCE_SYNONYM>
SCHEMBL16125142

> <PUBCHEM_XREF_EXT_ID>
SCHEMBL16125142

> <PUBCHEM_EXT_DATASOURCE_URL>
https://www.surechembl.org/

> <PUBCHEM_EXT_SUBSTANCE_URL>
https://www.surechembl.org/chemical/SCHEMBL16125142

> <PUBCHEM_CID_ASSOCIATIONS>
117612848  1

> <PUBCHEM_COORDINATE_TYPE>
1
3

$$$$
