310948836
  -OEChem-07211613022D

 53 56  0     1  0  0  0  0  0999 V2000
   -4.4289    1.2458    0.0000 P   0  0  3  0  0  0  0  0  0  0  0  0
   -5.0768   -2.6038    0.0000 F   0  0  0  0  0  0  0  0  0  0  0  0
   -5.1639    0.8223    0.0000 O   0  0  0  0  0  0  0  0  0  0  0  0
   -6.6714   -0.5731    0.0000 O   0  0  0  0  0  0  0  0  0  0  0  0
  -11.3183    2.2300    0.0000 O   0  0  0  0  0  0  0  0  0  0  0  0
   -4.0302    0.5233    0.0000 O   0  0  0  0  0  0  0  0  0  0  0  0
   -4.4414    2.0681    0.0000 O   0  0  0  0  0  0  0  0  0  0  0  0
   -1.0403    1.7691    0.0000 O   0  0  0  0  0  0  0  0  0  0  0  0
   -8.5775    1.6570    0.0000 N   0  0  0  0  0  0  0  0  0  0  0  0
   -9.5243    2.6038    0.0000 N   0  0  0  0  0  0  0  0  0  0  0  0
   -9.3997    0.4734    0.0000 N   0  0  0  0  0  0  0  0  0  0  0  0
  -10.9196    0.8472    0.0000 N   0  0  0  0  0  0  0  0  0  0  0  0
  -10.5459   -0.5482    0.0000 N   0  0  0  0  0  0  0  0  0  0  0  0
   -3.5942    1.2458    0.0000 N   0  0  0  0  0  0  0  0  0  0  0  0
   -1.7379    0.5233    0.0000 N   0  0  0  0  0  0  0  0  0  0  0  0
   -7.8549    1.2333    0.0000 C   0  0  3  0  0  0  0  0  0  0  0  0
   -9.3250    1.2832    0.0000 C   0  0  0  0  0  0  0  0  0  0  0  0
   -9.9229    1.8687    0.0000 C   0  0  0  0  0  0  0  0  0  0  0  0
   -7.0825    1.4701    0.0000 C   0  0  0  0  0  0  0  0  0  0  0  0
   -6.5842    0.8223    0.0000 C   0  0  3  0  0  0  0  0  0  0  0  0
   -7.0700    0.1620    0.0000 C   0  0  3  0  0  0  0  0  0  0  0  0
   -7.8549    0.4111    0.0000 C   0  0  0  0  0  0  0  0  0  0  0  0
   -8.7145    2.4667    0.0000 C   0  0  0  0  0  0  0  0  0  0  0  0
  -10.6954    1.6445    0.0000 C   0  0  0  0  0  0  0  0  0  0  0  0
  -10.3466    0.2741    0.0000 C   0  0  0  0  0  0  0  0  0  0  0  0
   -5.8616    1.2333    0.0000 C   0  0  0  0  0  0  0  0  0  0  0  0
   -6.6589    2.2176    0.0000 C   0  0  0  0  0  0  0  0  0  0  0  0
   -4.4289   -0.1993    0.0000 C   0  0  0  0  0  0  0  0  0  0  0  0
   -3.1706    0.5233    0.0000 C   0  0  0  0  0  0  0  0  0  0  0  0
   -5.2262   -0.4236    0.0000 C   0  0  0  0  0  0  0  0  0  0  0  0
   -3.8433   -0.7848    0.0000 C   0  0  0  0  0  0  0  0  0  0  0  0
   -5.4380   -1.2209    0.0000 C   0  0  0  0  0  0  0  0  0  0  0  0
   -4.0552   -1.5822    0.0000 C   0  0  0  0  0  0  0  0  0  0  0  0
   -4.8649   -1.7940    0.0000 C   0  0  0  0  0  0  0  0  0  0  0  0
   -2.4730    0.9344    0.0000 C   0  0  0  0  0  0  0  0  0  0  0  0
   -1.0403    0.9219    0.0000 C   0  0  0  0  0  0  0  0  0  0  0  0
   -0.2928    0.5233    0.0000 C   0  0  0  0  0  0  0  0  0  0  0  0
    0.4049    0.9344    0.0000 C   0  0  0  0  0  0  0  0  0  0  0  0
    1.1400    0.5233    0.0000 C   0  0  0  0  0  0  0  0  0  0  0  0
    1.8376    0.9344    0.0000 C   0  0  0  0  0  0  0  0  0  0  0  0
    2.5851    0.5233    0.0000 C   0  0  0  0  0  0  0  0  0  0  0  0
    3.2827    0.9344    0.0000 C   0  0  0  0  0  0  0  0  0  0  0  0
    4.0177    0.5233    0.0000 C   0  0  0  0  0  0  0  0  0  0  0  0
    4.7155    0.9344    0.0000 C   0  0  0  0  0  0  0  0  0  0  0  0
    5.5875    0.9219    0.0000 C   0  0  0  0  0  0  0  0  0  0  0  0
    6.2852    0.5233    0.0000 C   0  0  0  0  0  0  0  0  0  0  0  0
    6.9828    0.9344    0.0000 C   0  0  0  0  0  0  0  0  0  0  0  0
    7.7303    0.5233    0.0000 C   0  0  0  0  0  0  0  0  0  0  0  0
    8.4279    0.9344    0.0000 C   0  0  0  0  0  0  0  0  0  0  0  0
    9.1630    0.5233    0.0000 C   0  0  0  0  0  0  0  0  0  0  0  0
    9.8607    0.9344    0.0000 C   0  0  0  0  0  0  0  0  0  0  0  0
   10.6082    0.5233    0.0000 C   0  0  0  0  0  0  0  0  0  0  0  0
   11.3183    0.9344    0.0000 C   0  0  0  0  0  0  0  0  0  0  0  0
  1  3  1  0  0  0  0
  1  6  1  0  0  0  0
  1  7  2  0  0  0  0
  1 14  1  0  0  0  0
  2 34  1  0  0  0  0
  3 26  1  0  0  0  0
 21  4  1  1  0  0  0
  5 24  2  0  0  0  0
  6 28  1  0  0  0  0
  8 36  2  0  0  0  0
  9 16  1  0  0  0  0
  9 17  1  0  0  0  0
  9 23  1  0  0  0  0
 10 18  1  0  0  0  0
 10 23  2  0  0  0  0
 11 17  1  0  0  0  0
 11 25  1  0  0  0  0
 12 24  1  0  0  0  0
 12 25  2  0  0  0  0
 13 25  1  0  0  0  0
 14 29  1  0  0  0  0
 15 35  1  0  0  0  0
 15 36  1  0  0  0  0
 16 19  1  0  0  0  0
 16 22  1  0  0  0  0
 17 18  2  0  0  0  0
 18 24  1  0  0  0  0
 19 20  1  0  0  0  0
 19 27  2  0  0  0  0
 20 21  1  0  0  0  0
 20 26  1  6  0  0  0
 21 22  1  0  0  0  0
 28 30  2  0  0  0  0
 28 31  1  0  0  0  0
 29 35  1  0  0  0  0
 30 32  1  0  0  0  0
 31 33  2  0  0  0  0
 32 34  2  0  0  0  0
 33 34  1  0  0  0  0
 36 37  1  0  0  0  0
 37 38  1  0  0  0  0
 38 39  1  0  0  0  0
 39 40  1  0  0  0  0
 40 41  1  0  0  0  0
 41 42  1  0  0  0  0
 42 43  1  0  0  0  0
 43 44  1  0  0  0  0
 44 45  2  0  0  0  0
 45 46  1  0  0  0  0
 46 47  1  0  0  0  0
 47 48  1  0  0  0  0
 48 49  1  0  0  0  0
 49 50  1  0  0  0  0
 50 51  1  0  0  0  0
 51 52  1  0  0  0  0
 52 53  1  0  0  0  0
M  END
> <PUBCHEM_COMPOUND_ID_TYPE>
0

> <PUBCHEM_TOTAL_CHARGE>
0

> <PUBCHEM_SUBSTANCE_ID>
310948836

> <PUBCHEM_SUBSTANCE_VERSION>
1

> <PUBCHEM_EXT_DATASOURCE_NAME>
4488

> <PUBCHEM_EXT_DATASOURCE_REGID>
SCHEMBL16127020

> <PUBCHEM_SUBSTANCE_COMMENT>
InChI=1S/C38H57FN7O6P/c1-3-4-5-6-7-8-9-10-11-12-13-14-15-16-17-18-34(48)41-23-24-43-53(50,52-30-21-19-29(39)20-22-30)51-26-31-28(2)32(25-33(31)47)46-27-42-35-36(46)44-38(40)45-37(35)49/h10-11,19-22,27,31-33,47H,2-9,12-18,23-26H2,1H3,(H,41,48)(H,43,50)(H3,40,44,45,49)/b11-10-/t31-,32?,33-,53?/m0/s1
InChIKey=HFSYSRCDUOASSW-SOEOAESESA-N

> <PUBCHEM_SUBSTANCE_SYNONYM>
SCHEMBL16127020

> <PUBCHEM_XREF_EXT_ID>
SCHEMBL16127020

> <PUBCHEM_EXT_DATASOURCE_URL>
https://www.surechembl.org/

> <PUBCHEM_EXT_SUBSTANCE_URL>
https://www.surechembl.org/chemical/SCHEMBL16127020

> <PUBCHEM_CID_ASSOCIATIONS>
117614373  1

> <PUBCHEM_COORDINATE_TYPE>
1
3

> <PUBCHEM_BONDANNOTATIONS>
20  26  6
21  4  5

$$$$
