310941507
  -OEChem-07211613022D

 16 16  0     0  0  0  0  0  0999 V2000
   -1.8145    2.1113    0.0000 S   0  0  0  0  0  0  0  0  0  0  0  0
    0.3465    0.0000    0.0000 O   0  0  0  0  0  0  0  0  0  0  0  0
   -1.0887    0.8577    0.0000 N   0  0  0  0  0  0  0  0  0  0  0  0
    1.8145   -1.6660    0.0000 N   0  0  0  0  0  0  0  0  0  0  0  0
   -2.5238    0.8577    0.0000 N   0  0  0  0  0  0  0  0  0  0  0  0
   -0.3794    1.2866    0.0000 C   0  0  0  0  0  0  0  0  0  0  0  0
    0.3959    0.8577    0.0000 C   0  0  0  0  0  0  0  0  0  0  0  0
   -0.3629    2.1278    0.0000 C   0  0  0  0  0  0  0  0  0  0  0  0
    1.0721    1.2866    0.0000 C   0  0  0  0  0  0  0  0  0  0  0  0
    0.3629    2.5073    0.0000 C   0  0  0  0  0  0  0  0  0  0  0  0
    1.0721    2.1113    0.0000 C   0  0  0  0  0  0  0  0  0  0  0  0
   -1.8310    1.2702    0.0000 C   0  0  0  0  0  0  0  0  0  0  0  0
    1.0721   -0.4454    0.0000 C   0  0  0  0  0  0  0  0  0  0  0  0
    1.0887   -1.2702    0.0000 C   0  0  0  0  0  0  0  0  0  0  0  0
    1.8145   -2.5073    0.0000 C   0  0  0  0  0  0  0  0  0  0  0  0
    2.5238   -1.2371    0.0000 C   0  0  0  0  0  0  0  0  0  0  0  0
  1 12  2  0  0  0  0
  2  7  1  0  0  0  0
  2 13  1  0  0  0  0
  3  6  1  0  0  0  0
  3 12  1  0  0  0  0
  4 14  1  0  0  0  0
  4 15  1  0  0  0  0
  4 16  1  0  0  0  0
  5 12  1  0  0  0  0
  6  7  2  0  0  0  0
  6  8  1  0  0  0  0
  7  9  1  0  0  0  0
  8 10  2  0  0  0  0
  9 11  2  0  0  0  0
 10 11  1  0  0  0  0
 13 14  1  0  0  0  0
M  END
> <PUBCHEM_COMPOUND_ID_TYPE>
0

> <PUBCHEM_TOTAL_CHARGE>
0

> <PUBCHEM_SUBSTANCE_ID>
310941507

> <PUBCHEM_SUBSTANCE_VERSION>
1

> <PUBCHEM_EXT_DATASOURCE_NAME>
4488

> <PUBCHEM_EXT_DATASOURCE_REGID>
SCHEMBL16119538

> <PUBCHEM_SUBSTANCE_COMMENT>
InChI=1S/C11H17N3OS/c1-14(2)7-8-15-10-6-4-3-5-9(10)13-11(12)16/h3-6H,7-8H2,1-2H3,(H3,12,13,16)
InChIKey=CQRMFMGNWGFMIG-UHFFFAOYSA-N

> <PUBCHEM_SUBSTANCE_SYNONYM>
SCHEMBL16119538

> <PUBCHEM_XREF_EXT_ID>
SCHEMBL16119538

> <PUBCHEM_EXT_DATASOURCE_URL>
https://www.surechembl.org/

> <PUBCHEM_EXT_SUBSTANCE_URL>
https://www.surechembl.org/chemical/SCHEMBL16119538

> <PUBCHEM_CID_ASSOCIATIONS>
117608327  1

> <PUBCHEM_COORDINATE_TYPE>
1
3

$$$$
