310940354
  -OEChem-07211613022D

 16 16  0     1  0  0  0  0  0999 V2000
    0.9474    0.1312    0.0000 Cl  0  0  0  0  0  0  0  0  0  0  0  0
   -1.6471   -1.3556    0.0000 Cl  0  0  0  0  0  0  0  0  0  0  0  0
    1.7637   -1.3264    0.0000 F   0  0  0  0  0  0  0  0  0  0  0  0
   -0.3060    0.8601    0.0000 O   0  0  0  0  0  0  0  0  0  0  0  0
   -0.2769   -0.6267    0.0000 C   0  0  0  0  0  0  0  0  0  0  0  0
    0.5101   -0.5976    0.0000 C   0  0  0  0  0  0  0  0  0  0  0  0
   -0.6850   -1.3556    0.0000 C   0  0  0  0  0  0  0  0  0  0  0  0
   -0.7434    0.1020    0.0000 C   0  0  3  0  0  0  0  0  0  0  0  0
    0.9183   -1.3556    0.0000 C   0  0  0  0  0  0  0  0  0  0  0  0
   -0.2769   -2.0843    0.0000 C   0  0  0  0  0  0  0  0  0  0  0  0
    0.5101   -2.0843    0.0000 C   0  0  0  0  0  0  0  0  0  0  0  0
   -0.7434    1.5596    0.0000 C   0  0  0  0  0  0  0  0  0  0  0  0
   -1.5014    0.1020    0.0000 C   0  0  0  0  0  0  0  0  0  0  0  0
   -1.5596    1.6180    0.0000 C   0  0  0  0  0  0  0  0  0  0  0  0
   -0.5393    2.0843    0.0000 C   0  0  0  0  0  0  0  0  0  0  0  0
   -1.7637    2.0843    0.0000 C   0  0  0  0  0  0  0  0  0  0  0  0
  1  6  1  0  0  0  0
  2  7  1  0  0  0  0
  3  9  1  0  0  0  0
  4  8  1  0  0  0  0
  4 12  1  0  0  0  0
  5  6  2  0  0  0  0
  5  7  1  0  0  0  0
  5  8  1  0  0  0  0
  6  9  1  0  0  0  0
  7 10  2  0  0  0  0
  8 13  1  1  0  0  0
  9 11  2  0  0  0  0
 10 11  1  0  0  0  0
 12 14  1  0  0  0  0
 12 15  2  0  0  0  0
 14 16  2  0  0  0  0
M  END
> <PUBCHEM_COMPOUND_ID_TYPE>
0

> <PUBCHEM_TOTAL_CHARGE>
0

> <PUBCHEM_SUBSTANCE_ID>
310940354

> <PUBCHEM_SUBSTANCE_VERSION>
1

> <PUBCHEM_EXT_DATASOURCE_NAME>
4488

> <PUBCHEM_EXT_DATASOURCE_REGID>
SCHEMBL16118298

> <PUBCHEM_SUBSTANCE_COMMENT>
InChI=1S/C12H11Cl2FO/c1-4-7(2)16-8(3)11-9(13)5-6-10(15)12(11)14/h4-6,8H,1-2H2,3H3/t8-/m1/s1
InChIKey=GVBVVSJYCCNCIU-MRVPVSSYSA-N

> <PUBCHEM_SUBSTANCE_SYNONYM>
SCHEMBL16118298

> <PUBCHEM_XREF_EXT_ID>
SCHEMBL16118298

> <PUBCHEM_EXT_DATASOURCE_URL>
https://www.surechembl.org/

> <PUBCHEM_EXT_SUBSTANCE_URL>
https://www.surechembl.org/chemical/SCHEMBL16118298

> <PUBCHEM_CID_ASSOCIATIONS>
117607397  1

> <PUBCHEM_COORDINATE_TYPE>
1
3

> <PUBCHEM_BONDANNOTATIONS>
8  13  5

$$$$
