310933344
  -OEChem-07211613022D

 29 33  0     0  0  0  0  0  0999 V2000
    0.1659   -4.4525    0.0000 O   0  0  0  0  0  0  0  0  0  0  0  0
    5.6970   -3.3187    0.0000 O   0  0  0  0  0  0  0  0  0  0  0  0
    4.3696   -2.6549    0.0000 N   0  0  0  0  0  0  0  0  0  0  0  0
    4.3696   -3.9824    0.0000 N   0  0  0  0  0  0  0  0  0  0  0  0
    0.5808   -5.1715    0.0000 N   0  0  0  0  0  0  0  0  0  0  0  0
    2.1571   -0.4425    0.0000 N   0  0  0  0  0  0  0  0  0  0  0  0
    0.7190   -2.9038    0.0000 N   0  0  0  0  0  0  0  0  0  0  0  0
    2.8762   -2.4890    0.0000 C   0  0  0  0  0  0  0  0  0  0  0  0
    3.5952   -2.9038    0.0000 C   0  0  0  0  0  0  0  0  0  0  0  0
    3.5952   -3.7611    0.0000 C   0  0  0  0  0  0  0  0  0  0  0  0
    2.1847   -3.7611    0.0000 C   0  0  0  0  0  0  0  0  0  0  0  0
    2.8762   -1.6870    0.0000 C   0  0  0  0  0  0  0  0  0  0  0  0
    1.4657   -4.1760    0.0000 C   0  0  0  0  0  0  0  0  0  0  0  0
    2.1847   -2.9038    0.0000 C   0  0  0  0  0  0  0  0  0  0  0  0
    2.8762   -4.1483    0.0000 C   0  0  0  0  0  0  0  0  0  0  0  0
    2.1571   -1.2445    0.0000 C   0  0  0  0  0  0  0  0  0  0  0  0
    4.8674   -3.3187    0.0000 C   0  0  0  0  0  0  0  0  0  0  0  0
    0.7190   -3.8441    0.0000 C   0  0  0  0  0  0  0  0  0  0  0  0
    1.3828   -4.9779    0.0000 C   0  0  0  0  0  0  0  0  0  0  0  0
    3.5675   -1.2445    0.0000 C   0  0  0  0  0  0  0  0  0  0  0  0
    1.4381   -1.6593    0.0000 C   0  0  0  0  0  0  0  0  0  0  0  0
    3.5675   -0.4148    0.0000 C   0  0  0  0  0  0  0  0  0  0  0  0
    2.8485    0.0000    0.0000 C   0  0  0  0  0  0  0  0  0  0  0  0
    1.4104   -2.4890    0.0000 C   0  0  0  0  0  0  0  0  0  0  0  0
    0.7190   -1.2721    0.0000 C   0  0  0  0  0  0  0  0  0  0  0  0
    0.5255   -3.0421    0.0000 C   0  0  0  0  0  0  0  0  0  0  0  0
    1.9912   -5.5311    0.0000 C   0  0  0  0  0  0  0  0  0  0  0  0
    0.0000   -1.6593    0.0000 C   0  0  0  0  0  0  0  0  0  0  0  0
    0.0000   -2.4890    0.0000 C   0  0  0  0  0  0  0  0  0  0  0  0
  1  5  1  0  0  0  0
  1 18  1  0  0  0  0
  2 17  2  0  0  0  0
  3  9  1  0  0  0  0
  3 17  1  0  0  0  0
  4 10  1  0  0  0  0
  4 17  1  0  0  0  0
  5 19  2  0  0  0  0
  6 16  1  0  0  0  0
  6 23  2  0  0  0  0
  7 24  1  0  0  0  0
  7 29  2  0  0  0  0
  8  9  1  0  0  0  0
  8 12  1  0  0  0  0
  8 14  2  0  0  0  0
  9 10  2  0  0  0  0
 10 15  1  0  0  0  0
 11 13  1  0  0  0  0
 11 14  1  0  0  0  0
 11 15  2  0  0  0  0
 12 16  2  0  0  0  0
 12 20  1  0  0  0  0
 13 18  2  0  0  0  0
 13 19  1  0  0  0  0
 16 21  1  0  0  0  0
 18 26  1  0  0  0  0
 19 27  1  0  0  0  0
 20 22  2  0  0  0  0
 21 24  2  0  0  0  0
 21 25  1  0  0  0  0
 22 23  1  0  0  0  0
 25 28  2  0  0  0  0
 28 29  1  0  0  0  0
M  END
> <PUBCHEM_COMPOUND_ID_TYPE>
0

> <PUBCHEM_TOTAL_CHARGE>
0

> <PUBCHEM_SUBSTANCE_ID>
310933344

> <PUBCHEM_SUBSTANCE_VERSION>
1

> <PUBCHEM_EXT_DATASOURCE_NAME>
4488

> <PUBCHEM_EXT_DATASOURCE_REGID>
SCHEMBL16110757

> <PUBCHEM_SUBSTANCE_COMMENT>
InChI=1S/C22H17N5O2/c1-12-19(13(2)29-27-12)15-9-17(21-18(10-15)25-22(28)26-21)16-6-4-8-24-20(16)14-5-3-7-23-11-14/h3-11H,1-2H3,(H2,25,26,28)
InChIKey=SCRCNTPMBMGQJH-UHFFFAOYSA-N

> <PUBCHEM_SUBSTANCE_SYNONYM>
SCHEMBL16110757

> <PUBCHEM_XREF_EXT_ID>
SCHEMBL16110757

> <PUBCHEM_EXT_DATASOURCE_URL>
https://www.surechembl.org/

> <PUBCHEM_EXT_SUBSTANCE_URL>
https://www.surechembl.org/chemical/SCHEMBL16110757

> <PUBCHEM_CID_ASSOCIATIONS>
117601755  1

> <PUBCHEM_COORDINATE_TYPE>
1
3

$$$$
