310943055
  -OEChem-07211613022D

 29 32  0     1  0  0  0  0  0999 V2000
   -1.8403   -3.1340    0.0000 S   0  0  0  0  0  0  0  0  0  0  0  0
   -1.2572   -0.9657    0.0000 O   0  0  0  0  0  0  0  0  0  0  0  0
    0.2005    3.5895    0.0000 O   0  0  0  0  0  0  0  0  0  0  0  0
   -2.4234   -2.5509    0.0000 O   0  0  0  0  0  0  0  0  0  0  0  0
   -2.4234   -3.7353    0.0000 O   0  0  0  0  0  0  0  0  0  0  0  0
    0.2551    1.3848    0.0000 N   0  0  0  0  0  0  0  0  0  0  0  0
    0.7288    0.7106    0.0000 N   0  0  0  0  0  0  0  0  0  0  0  0
    0.5102   -0.7653    0.0000 N   0  0  0  0  0  0  0  0  0  0  0  0
   -1.9679    0.2915    0.0000 N   0  0  0  0  0  0  0  0  0  0  0  0
    2.4234    1.1115    0.0000 N   0  0  0  0  0  0  0  0  0  0  0  0
   -0.5466    0.2915    0.0000 C   0  0  0  0  0  0  0  0  0  0  0  0
   -0.5284    1.1297    0.0000 C   0  0  0  0  0  0  0  0  0  0  0  0
    0.2369    0.0365    0.0000 C   0  0  0  0  0  0  0  0  0  0  0  0
    0.5284    2.2047    0.0000 C   0  0  3  0  0  0  0  0  0  0  0  0
   -1.2390   -0.1093    0.0000 C   0  0  0  0  0  0  0  0  0  0  0  0
   -1.2755    1.5305    0.0000 C   0  0  0  0  0  0  0  0  0  0  0  0
    1.3119    2.3505    0.0000 C   0  0  3  0  0  0  0  0  0  0  0  0
   -0.0729   -1.3665    0.0000 C   0  0  0  0  0  0  0  0  0  0  0  0
   -0.0365    2.8060    0.0000 C   0  0  0  0  0  0  0  0  0  0  0  0
   -1.9497    1.1297    0.0000 C   0  0  0  0  0  0  0  0  0  0  0  0
    1.5670    3.1522    0.0000 C   0  0  0  0  0  0  0  0  0  0  0  0
   -1.2390   -2.5327    0.0000 C   0  0  0  0  0  0  0  0  0  0  0  0
   -0.8746   -1.1479    0.0000 C   0  0  0  0  0  0  0  0  0  0  0  0
    0.1275   -2.1683    0.0000 C   0  0  0  0  0  0  0  0  0  0  0  0
    1.8585    1.7128    0.0000 C   0  0  0  0  0  0  0  0  0  0  0  0
   -1.4577   -1.7310    0.0000 C   0  0  0  0  0  0  0  0  0  0  0  0
   -0.4555   -2.7514    0.0000 C   0  0  0  0  0  0  0  0  0  0  0  0
    1.0386    3.7535    0.0000 C   0  0  0  0  0  0  0  0  0  0  0  0
   -1.2390   -3.7535    0.0000 C   0  0  0  0  0  0  0  0  0  0  0  0
  1  4  2  0  0  0  0
  1  5  2  0  0  0  0
  1 22  1  0  0  0  0
  1 29  1  0  0  0  0
  2 15  2  0  0  0  0
  3 19  1  0  0  0  0
  3 28  1  0  0  0  0
  6  7  1  0  0  0  0
  6 12  1  0  0  0  0
 14  6  1  1  0  0  0
  7 13  2  0  0  0  0
  8 13  1  0  0  0  0
  8 18  1  0  0  0  0
  9 15  1  0  0  0  0
  9 20  1  0  0  0  0
 10 25  3  0  0  0  0
 11 12  2  0  0  0  0
 11 13  1  0  0  0  0
 11 15  1  0  0  0  0
 12 16  1  0  0  0  0
 14 17  1  0  0  0  0
 14 19  1  0  0  0  0
 16 20  2  0  0  0  0
 17 21  1  0  0  0  0
 17 25  1  6  0  0  0
 18 23  2  0  0  0  0
 18 24  1  0  0  0  0
 21 28  1  0  0  0  0
 22 26  2  0  0  0  0
 22 27  1  0  0  0  0
 23 26  1  0  0  0  0
 24 27  2  0  0  0  0
M  END
> <PUBCHEM_COMPOUND_ID_TYPE>
0

> <PUBCHEM_TOTAL_CHARGE>
0

> <PUBCHEM_SUBSTANCE_ID>
310943055

> <PUBCHEM_SUBSTANCE_VERSION>
1

> <PUBCHEM_EXT_DATASOURCE_NAME>
4488

> <PUBCHEM_EXT_DATASOURCE_REGID>
SCHEMBL16121114

> <PUBCHEM_SUBSTANCE_COMMENT>
InChI=1S/C19H19N5O4S/c1-29(26,27)14-4-2-13(3-5-14)22-18-17-15(6-8-21-19(17)25)24(23-18)16-11-28-9-7-12(16)10-20/h2-6,8,12,16H,7,9,11H2,1H3,(H,21,25)(H,22,23)/t12-,16+/m1/s1
InChIKey=DUNNDRSGOPPNJN-WBMJQRKESA-N

> <PUBCHEM_SUBSTANCE_SYNONYM>
SCHEMBL16121114

> <PUBCHEM_XREF_EXT_ID>
SCHEMBL16121114

> <PUBCHEM_EXT_DATASOURCE_URL>
https://www.surechembl.org/

> <PUBCHEM_EXT_SUBSTANCE_URL>
https://www.surechembl.org/chemical/SCHEMBL16121114

> <PUBCHEM_CID_ASSOCIATIONS>
117609494  1

> <PUBCHEM_COORDINATE_TYPE>
1
3

> <PUBCHEM_BONDANNOTATIONS>
17  25  6
14  6  5

$$$$
