310930735
  -OEChem-07211613022D

 30 33  0     0  0  0  0  0  0999 V2000
    0.6637   -0.2185    0.0000 O   0  0  0  0  0  0  0  0  0  0  0  0
   -2.1434   -0.4125    0.0000 O   0  0  0  0  0  0  0  0  0  0  0  0
   -1.4068    3.7655    0.0000 O   0  0  0  0  0  0  0  0  0  0  0  0
    1.8931    0.6108    0.0000 N   0  0  0  0  0  0  0  0  0  0  0  0
    1.3079    1.8106    0.0000 N   0  0  0  0  0  0  0  0  0  0  0  0
    2.7509    1.8358    0.0000 N   0  0  0  0  0  0  0  0  0  0  0  0
    0.7145    1.2375    0.0000 C   0  0  0  0  0  0  0  0  0  0  0  0
    1.0762    0.4960    0.0000 C   0  0  0  0  0  0  0  0  0  0  0  0
    0.0000    0.8250    0.0000 C   0  0  0  0  0  0  0  0  0  0  0  0
    0.1842    1.8695    0.0000 C   0  0  0  0  0  0  0  0  0  0  0  0
    2.0364    1.4233    0.0000 C   0  0  0  0  0  0  0  0  0  0  0  0
    2.4663    0.0174    0.0000 C   0  0  0  0  0  0  0  0  0  0  0  0
   -0.7145    1.2375    0.0000 C   0  0  0  0  0  0  0  0  0  0  0  0
    0.4664    2.6448    0.0000 C   0  0  0  0  0  0  0  0  0  0  0  0
    0.0000    0.0000    0.0000 C   0  0  0  0  0  0  0  0  0  0  0  0
   -0.6283    1.7263    0.0000 C   0  0  0  0  0  0  0  0  0  0  0  0
    3.2496    0.2762    0.0000 C   0  0  0  0  0  0  0  0  0  0  0  0
    2.1802   -0.7565    0.0000 C   0  0  0  0  0  0  0  0  0  0  0  0
   -1.4290    0.8250    0.0000 C   0  0  0  0  0  0  0  0  0  0  0  0
   -0.0639    3.2768    0.0000 C   0  0  0  0  0  0  0  0  0  0  0  0
   -0.7145   -0.4125    0.0000 C   0  0  0  0  0  0  0  0  0  0  0  0
   -1.1586    2.3582    0.0000 C   0  0  0  0  0  0  0  0  0  0  0  0
   -1.4290    0.0000    0.0000 C   0  0  0  0  0  0  0  0  0  0  0  0
   -0.8765    3.1335    0.0000 C   0  0  0  0  0  0  0  0  0  0  0  0
    3.9404   -0.1748    0.0000 C   0  0  0  0  0  0  0  0  0  0  0  0
    2.6069   -1.4626    0.0000 C   0  0  0  0  0  0  0  0  0  0  0  0
    4.0184   -0.9961    0.0000 C   0  0  0  0  0  0  0  0  0  0  0  0
    3.4250   -1.5692    0.0000 C   0  0  0  0  0  0  0  0  0  0  0  0
   -2.8579    0.0000    0.0000 C   0  0  0  0  0  0  0  0  0  0  0  0
   -2.2192    3.6222    0.0000 C   0  0  0  0  0  0  0  0  0  0  0  0
  1  8  2  0  0  0  0
  2 23  1  0  0  0  0
  2 29  1  0  0  0  0
  3 24  1  0  0  0  0
  3 30  1  0  0  0  0
  4  8  1  0  0  0  0
  4 11  1  0  0  0  0
  4 12  1  0  0  0  0
  5  7  1  0  0  0  0
  5 11  1  0  0  0  0
  6 11  2  3  0  0  0
  7  8  1  0  0  0  0
  7  9  1  0  0  0  0
  7 10  1  0  0  0  0
  9 13  2  0  0  0  0
  9 15  1  0  0  0  0
 10 14  2  0  0  0  0
 10 16  1  0  0  0  0
 12 17  1  0  0  0  0
 12 18  1  0  0  0  0
 13 19  1  0  0  0  0
 14 20  1  0  0  0  0
 15 21  2  0  0  0  0
 16 22  2  0  0  0  0
 17 25  1  0  0  0  0
 18 26  1  0  0  0  0
 19 23  2  0  0  0  0
 20 24  2  0  0  0  0
 21 23  1  0  0  0  0
 22 24  1  0  0  0  0
 25 27  1  0  0  0  0
 26 28  1  0  0  0  0
 27 28  1  0  0  0  0
M  END
> <PUBCHEM_COMPOUND_ID_TYPE>
0

> <PUBCHEM_TOTAL_CHARGE>
0

> <PUBCHEM_SUBSTANCE_ID>
310930735

> <PUBCHEM_SUBSTANCE_VERSION>
1

> <PUBCHEM_EXT_DATASOURCE_NAME>
4488

> <PUBCHEM_EXT_DATASOURCE_REGID>
SCHEMBL16108032

> <PUBCHEM_SUBSTANCE_COMMENT>
InChI=1S/C24H29N3O3/c1-29-20-13-9-17(10-14-20)24(18-11-15-21(30-2)16-12-18)22(28)27(23(25)26-24)19-7-5-3-4-6-8-19/h9-16,19H,3-8H2,1-2H3,(H2,25,26)
InChIKey=CKVZQHKUPXQHQY-UHFFFAOYSA-N

> <PUBCHEM_SUBSTANCE_SYNONYM>
SCHEMBL16108032

> <PUBCHEM_XREF_EXT_ID>
SCHEMBL16108032

> <PUBCHEM_EXT_DATASOURCE_URL>
https://www.surechembl.org/

> <PUBCHEM_EXT_SUBSTANCE_URL>
https://www.surechembl.org/chemical/SCHEMBL16108032

> <PUBCHEM_CID_ASSOCIATIONS>
76321237  1

> <PUBCHEM_COORDINATE_TYPE>
1
3

$$$$
