310945307
  -OEChem-07211613022D

 17 18  0     0  0  0  0  0  0999 V2000
   -1.6519   -0.4446    0.0000 Br  0  0  0  0  0  0  0  0  0  0  0  0
    1.8925   -1.2293    0.0000 O   0  0  0  0  0  0  0  0  0  0  0  0
    1.3943   -2.0485    0.0000 O   0  0  0  0  0  0  0  0  0  0  0  0
   -0.1336    0.5864    0.0000 N   0  0  0  0  0  0  0  0  0  0  0  0
   -0.9396    0.8301    0.0000 C   0  0  0  0  0  0  0  0  0  0  0  0
   -0.9584    1.6549    0.0000 C   0  0  0  0  0  0  0  0  0  0  0  0
   -1.6519    0.3990    0.0000 C   0  0  0  0  0  0  0  0  0  0  0  0
    1.3943   -1.5171    0.0000 C   0  0  0  0  0  0  0  0  0  0  0  0
    0.3351    1.2612    0.0000 C   0  0  0  0  0  0  0  0  0  0  0  0
   -0.1336    1.8986    0.0000 C   0  0  0  0  0  0  0  0  0  0  0  0
   -1.7082    2.0485    0.0000 C   0  0  0  0  0  0  0  0  0  0  0  0
   -2.3830    0.7926    0.0000 C   0  0  0  0  0  0  0  0  0  0  0  0
    1.9036   -0.6757    0.0000 C   0  0  0  0  0  0  0  0  0  0  0  0
   -2.4018    1.6174    0.0000 C   0  0  0  0  0  0  0  0  0  0  0  0
    2.4018   -0.6536    0.0000 C   0  0  0  0  0  0  0  0  0  0  0  0
    1.3943   -0.6757    0.0000 C   0  0  0  0  0  0  0  0  0  0  0  0
    1.8925   -0.1332    0.0000 C   0  0  0  0  0  0  0  0  0  0  0  0
  1  7  1  0  0  0  0
  2  8  1  0  0  0  0
  2 13  1  0  0  0  0
  3  8  2  0  0  0  0
  4  5  1  0  0  0  0
  4  8  1  0  0  0  0
  4  9  1  0  0  0  0
  5  6  2  0  0  0  0
  5  7  1  0  0  0  0
  6 10  1  0  0  0  0
  6 11  1  0  0  0  0
  7 12  2  0  0  0  0
  9 10  1  0  0  0  0
 11 14  2  0  0  0  0
 12 14  1  0  0  0  0
 13 15  1  0  0  0  0
 13 16  1  0  0  0  0
 13 17  1  0  0  0  0
M  END
> <PUBCHEM_COMPOUND_ID_TYPE>
0

> <PUBCHEM_TOTAL_CHARGE>
0

> <PUBCHEM_SUBSTANCE_ID>
310945307

> <PUBCHEM_SUBSTANCE_VERSION>
1

> <PUBCHEM_EXT_DATASOURCE_NAME>
4488

> <PUBCHEM_EXT_DATASOURCE_REGID>
SCHEMBL16123405

> <PUBCHEM_SUBSTANCE_COMMENT>
InChI=1S/C13H16BrNO2/c1-13(2,3)17-12(16)15-8-7-9-5-4-6-10(14)11(9)15/h4-6H,7-8H2,1-3H3
InChIKey=LHLSVTIQYUAATK-UHFFFAOYSA-N

> <PUBCHEM_SUBSTANCE_SYNONYM>
SCHEMBL16123405

> <PUBCHEM_XREF_EXT_ID>
SCHEMBL16123405

> <PUBCHEM_EXT_DATASOURCE_URL>
https://www.surechembl.org/

> <PUBCHEM_EXT_SUBSTANCE_URL>
https://www.surechembl.org/chemical/SCHEMBL16123405

> <PUBCHEM_CID_ASSOCIATIONS>
14977844  1

> <PUBCHEM_COORDINATE_TYPE>
1
3

$$$$
