310937604
  -OEChem-07211613022D

 21 21  0     1  0  0  0  0  0999 V2000
    2.0778   -1.1306    0.0000 O   0  0  0  0  0  0  0  0  0  0  0  0
    3.5445   -1.1306    0.0000 O   0  0  0  0  0  0  0  0  0  0  0  0
    4.2473   -2.3528    0.0000 O   0  0  0  0  0  0  0  0  0  0  0  0
    1.4361   -3.2084    0.0000 O   0  0  0  0  0  0  0  0  0  0  0  0
    2.8417   -3.1778    0.0000 N   0  0  0  0  0  0  0  0  0  0  0  0
    2.8417   -2.3528    0.0000 C   0  0  3  0  0  0  0  0  0  0  0  0
    2.0778   -1.9556    0.0000 C   0  0  3  0  0  0  0  0  0  0  0  0
    3.5445   -1.9556    0.0000 C   0  0  0  0  0  0  0  0  0  0  0  0
    1.3445   -0.7333    0.0000 C   0  0  0  0  0  0  0  0  0  0  0  0
    2.1390   -3.6057    0.0000 C   0  0  0  0  0  0  0  0  0  0  0  0
    2.1695   -4.4307    0.0000 C   0  0  0  0  0  0  0  0  0  0  0  0
    1.4361   -4.8585    0.0000 C   0  0  0  0  0  0  0  0  0  0  0  0
    1.3750   -2.3528    0.0000 C   0  0  0  0  0  0  0  0  0  0  0  0
    1.4361   -5.6835    0.0000 C   0  0  0  0  0  0  0  0  0  0  0  0
    0.7333   -4.4612    0.0000 C   0  0  0  0  0  0  0  0  0  0  0  0
    0.6417   -0.2750    0.0000 C   0  0  0  0  0  0  0  0  0  0  0  0
    1.7723    0.0000    0.0000 C   0  0  0  0  0  0  0  0  0  0  0  0
    0.9472   -1.4361    0.0000 C   0  0  0  0  0  0  0  0  0  0  0  0
    0.7333   -6.1112    0.0000 C   0  0  0  0  0  0  0  0  0  0  0  0
    0.0000   -4.8585    0.0000 C   0  0  0  0  0  0  0  0  0  0  0  0
    0.0000   -5.6835    0.0000 C   0  0  0  0  0  0  0  0  0  0  0  0
  1  7  1  0  0  0  0
  1  9  1  0  0  0  0
  2  8  2  0  0  0  0
  3  8  1  0  0  0  0
  4 10  2  0  0  0  0
  6  5  1  1  0  0  0
  5 10  1  0  0  0  0
  6  7  1  0  0  0  0
  6  8  1  0  0  0  0
  7 13  1  1  0  0  0
  9 16  1  0  0  0  0
  9 17  1  0  0  0  0
  9 18  1  0  0  0  0
 10 11  1  0  0  0  0
 11 12  1  0  0  0  0
 12 14  2  0  0  0  0
 12 15  1  0  0  0  0
 14 19  1  0  0  0  0
 15 20  2  0  0  0  0
 19 21  2  0  0  0  0
 20 21  1  0  0  0  0
M  END
> <PUBCHEM_COMPOUND_ID_TYPE>
0

> <PUBCHEM_TOTAL_CHARGE>
0

> <PUBCHEM_SUBSTANCE_ID>
310937604

> <PUBCHEM_SUBSTANCE_VERSION>
1

> <PUBCHEM_EXT_DATASOURCE_NAME>
4488

> <PUBCHEM_EXT_DATASOURCE_REGID>
SCHEMBL16115385

> <PUBCHEM_SUBSTANCE_COMMENT>
InChI=1S/C16H23NO4/c1-11(21-16(2,3)4)14(15(19)20)17-13(18)10-12-8-6-5-7-9-12/h5-9,11,14H,10H2,1-4H3,(H,17,18)(H,19,20)/t11-,14+/m1/s1
InChIKey=KSEWPHFSYGNLND-RISCZKNCSA-N

> <PUBCHEM_SUBSTANCE_SYNONYM>
SCHEMBL16115385

> <PUBCHEM_XREF_EXT_ID>
SCHEMBL16115385

> <PUBCHEM_EXT_DATASOURCE_URL>
https://www.surechembl.org/

> <PUBCHEM_EXT_SUBSTANCE_URL>
https://www.surechembl.org/chemical/SCHEMBL16115385

> <PUBCHEM_CID_ASSOCIATIONS>
117605305  1

> <PUBCHEM_COORDINATE_TYPE>
1
3

> <PUBCHEM_BONDANNOTATIONS>
6  5  5
7  13  5

$$$$
