310947329
  -OEChem-07211613022D

 36 40  0     0  0  0  0  0  0999 V2000
   -3.5951    2.2832    0.0000 O   0  0  0  0  0  0  0  0  0  0  0  0
   -0.6671   -0.0343    0.0000 N   0  0  0  0  0  0  0  0  0  0  0  0
   -0.1822    0.6332    0.0000 N   0  0  0  0  0  0  0  0  0  0  0  0
   -4.3096    1.0457    0.0000 N   0  0  0  0  0  0  0  0  0  0  0  0
   -1.4517    0.2207    0.0000 C   0  0  0  0  0  0  0  0  0  0  0  0
   -1.4517    1.0457    0.0000 C   0  0  0  0  0  0  0  0  0  0  0  0
   -0.6671    1.3006    0.0000 C   0  0  0  0  0  0  0  0  0  0  0  0
   -2.1662    1.4582    0.0000 C   0  0  0  0  0  0  0  0  0  0  0  0
   -2.8806    1.0457    0.0000 C   0  0  0  0  0  0  0  0  0  0  0  0
   -2.1662   -0.1918    0.0000 C   0  0  0  0  0  0  0  0  0  0  0  0
   -0.4536   -0.8312    0.0000 C   0  0  0  0  0  0  0  0  0  0  0  0
   -2.8806    0.2207    0.0000 C   0  0  0  0  0  0  0  0  0  0  0  0
    0.3433   -1.0447    0.0000 C   0  0  0  0  0  0  0  0  0  0  0  0
    2.7340   -1.6853    0.0000 C   0  0  0  0  0  0  0  0  0  0  0  0
    3.3174   -1.1019    0.0000 C   0  0  0  0  0  0  0  0  0  0  0  0
    1.9371   -1.4717    0.0000 C   0  0  0  0  0  0  0  0  0  0  0  0
   -3.5951    1.4582    0.0000 C   0  0  0  0  0  0  0  0  0  0  0  0
    3.1038   -0.3050    0.0000 C   0  0  0  0  0  0  0  0  0  0  0  0
    0.5569   -1.8416    0.0000 C   0  0  0  0  0  0  0  0  0  0  0  0
    0.9267   -0.4613    0.0000 C   0  0  0  0  0  0  0  0  0  0  0  0
   -0.2546    2.0151    0.0000 C   0  0  0  0  0  0  0  0  0  0  0  0
    1.3538   -2.0551    0.0000 C   0  0  0  0  0  0  0  0  0  0  0  0
    1.7236   -0.6748    0.0000 C   0  0  0  0  0  0  0  0  0  0  0  0
    2.9475   -2.4821    0.0000 C   0  0  0  0  0  0  0  0  0  0  0  0
    4.1143   -1.3154    0.0000 C   0  0  0  0  0  0  0  0  0  0  0  0
    3.7444   -2.6957    0.0000 C   0  0  0  0  0  0  0  0  0  0  0  0
   -5.0241    1.4582    0.0000 C   0  0  0  0  0  0  0  0  0  0  0  0
    4.3278   -2.1123    0.0000 C   0  0  0  0  0  0  0  0  0  0  0  0
    2.2666   -0.5294    0.0000 C   0  0  0  0  0  0  0  0  0  0  0  0
    2.8795    0.5323    0.0000 C   0  0  0  0  0  0  0  0  0  0  0  0
    3.9411   -0.0807    0.0000 C   0  0  0  0  0  0  0  0  0  0  0  0
   -5.0241    2.2832    0.0000 C   0  0  0  0  0  0  0  0  0  0  0  0
   -5.7385    1.0457    0.0000 C   0  0  0  0  0  0  0  0  0  0  0  0
   -5.7385    2.6957    0.0000 C   0  0  0  0  0  0  0  0  0  0  0  0
   -6.4530    1.4582    0.0000 C   0  0  0  0  0  0  0  0  0  0  0  0
   -6.4530    2.2832    0.0000 C   0  0  0  0  0  0  0  0  0  0  0  0
  1 17  2  0  0  0  0
  2  3  1  0  0  0  0
  2  5  1  0  0  0  0
  2 11  1  0  0  0  0
  3  7  2  0  0  0  0
  4 17  1  0  0  0  0
  4 27  1  0  0  0  0
  5  6  1  0  0  0  0
  5 10  2  0  0  0  0
  6  7  1  0  0  0  0
  6  8  2  0  0  0  0
  7 21  1  0  0  0  0
  8  9  1  0  0  0  0
  9 12  2  0  0  0  0
  9 17  1  0  0  0  0
 10 12  1  0  0  0  0
 11 13  1  0  0  0  0
 13 19  2  0  0  0  0
 13 20  1  0  0  0  0
 14 15  1  0  0  0  0
 14 16  1  0  0  0  0
 14 24  2  0  0  0  0
 15 18  1  0  0  0  0
 15 25  2  0  0  0  0
 16 22  2  0  0  0  0
 16 23  1  0  0  0  0
 18 29  1  0  0  0  0
 18 30  1  0  0  0  0
 18 31  1  0  0  0  0
 19 22  1  0  0  0  0
 20 23  2  0  0  0  0
 24 26  1  0  0  0  0
 25 28  1  0  0  0  0
 26 28  2  0  0  0  0
 27 32  1  0  0  0  0
 27 33  1  0  0  0  0
 32 34  1  0  0  0  0
 33 35  1  0  0  0  0
 34 36  1  0  0  0  0
 35 36  1  0  0  0  0
M  END
> <PUBCHEM_COMPOUND_ID_TYPE>
0

> <PUBCHEM_TOTAL_CHARGE>
0

> <PUBCHEM_SUBSTANCE_ID>
310947329

> <PUBCHEM_SUBSTANCE_VERSION>
1

> <PUBCHEM_EXT_DATASOURCE_NAME>
4488

> <PUBCHEM_EXT_DATASOURCE_REGID>
SCHEMBL16125484

> <PUBCHEM_SUBSTANCE_COMMENT>
InChI=1S/C32H37N3O/c1-22-28-20-25(31(36)33-26-10-6-5-7-11-26)18-19-30(28)35(34-22)21-23-14-16-24(17-15-23)27-12-8-9-13-29(27)32(2,3)4/h8-9,12-20,26H,5-7,10-11,21H2,1-4H3,(H,33,36)
InChIKey=IHKXYRJLKRJNPU-UHFFFAOYSA-N

> <PUBCHEM_SUBSTANCE_SYNONYM>
SCHEMBL16125484

> <PUBCHEM_XREF_EXT_ID>
SCHEMBL16125484

> <PUBCHEM_EXT_DATASOURCE_URL>
https://www.surechembl.org/

> <PUBCHEM_EXT_SUBSTANCE_URL>
https://www.surechembl.org/chemical/SCHEMBL16125484

> <PUBCHEM_CID_ASSOCIATIONS>
117613083  1

> <PUBCHEM_COORDINATE_TYPE>
1
3

$$$$
