310949701
  -OEChem-07211613022D

 22 24  0     0  0  0  0  0  0999 V2000
    2.1852    1.4225    0.0000 O   0  0  0  0  0  0  0  0  0  0  0  0
    3.6420    1.4225    0.0000 O   0  0  0  0  0  0  0  0  0  0  0  0
    0.7284   -1.0239    0.0000 O   0  0  0  0  0  0  0  0  0  0  0  0
   -2.8999    1.0102    0.0000 O   0  0  0  0  0  0  0  0  0  0  0  0
    1.4568    0.1993    0.0000 N   0  0  0  0  0  0  0  0  0  0  0  0
    0.0000    0.1993    0.0000 N   0  0  0  0  0  0  0  0  0  0  0  0
    2.1990   -0.2268    0.0000 C   0  0  0  0  0  0  0  0  0  0  0  0
    2.8999    0.1993    0.0000 C   0  0  0  0  0  0  0  0  0  0  0  0
    2.8999    1.0102    0.0000 C   0  0  0  0  0  0  0  0  0  0  0  0
    0.7421   -0.1855    0.0000 C   0  0  0  0  0  0  0  0  0  0  0  0
    2.1852   -1.0102    0.0000 C   0  0  0  0  0  0  0  0  0  0  0  0
    3.6282   -0.2130    0.0000 C   0  0  0  0  0  0  0  0  0  0  0  0
   -0.7284   -0.2130    0.0000 C   0  0  0  0  0  0  0  0  0  0  0  0
    2.9410   -1.4225    0.0000 C   0  0  0  0  0  0  0  0  0  0  0  0
    3.6282   -1.0239    0.0000 C   0  0  0  0  0  0  0  0  0  0  0  0
   -1.4568    0.1855    0.0000 C   0  0  0  0  0  0  0  0  0  0  0  0
   -2.1714   -0.2268    0.0000 C   0  0  0  0  0  0  0  0  0  0  0  0
   -0.7284   -1.0239    0.0000 C   0  0  0  0  0  0  0  0  0  0  0  0
   -2.1714   -1.0239    0.0000 C   0  0  0  0  0  0  0  0  0  0  0  0
   -2.8999    0.1855    0.0000 C   0  0  0  0  0  0  0  0  0  0  0  0
   -1.4156   -1.4225    0.0000 C   0  0  0  0  0  0  0  0  0  0  0  0
   -3.6420   -0.2405    0.0000 C   0  0  0  0  0  0  0  0  0  0  0  0
  1  5  1  0  0  0  0
  1  9  1  0  0  0  0
  2  9  2  0  0  0  0
  3 10  2  0  0  0  0
  4 20  2  0  0  0  0
  5  7  1  0  0  0  0
  5 10  1  0  0  0  0
  6 10  1  0  0  0  0
  6 13  1  0  0  0  0
  7  8  2  0  0  0  0
  7 11  1  0  0  0  0
  8  9  1  0  0  0  0
  8 12  1  0  0  0  0
 11 14  2  0  0  0  0
 12 15  2  0  0  0  0
 13 16  1  0  0  0  0
 13 18  2  0  0  0  0
 14 15  1  0  0  0  0
 16 17  2  0  0  0  0
 17 19  1  0  0  0  0
 17 20  1  0  0  0  0
 18 21  1  0  0  0  0
 19 21  2  0  0  0  0
 20 22  1  0  0  0  0
M  END
> <PUBCHEM_COMPOUND_ID_TYPE>
0

> <PUBCHEM_TOTAL_CHARGE>
0

> <PUBCHEM_SUBSTANCE_ID>
310949701

> <PUBCHEM_SUBSTANCE_VERSION>
1

> <PUBCHEM_EXT_DATASOURCE_NAME>
4488

> <PUBCHEM_EXT_DATASOURCE_REGID>
SCHEMBL16127899

> <PUBCHEM_SUBSTANCE_COMMENT>
InChI=1S/C16H12N2O4/c1-10(19)11-5-4-6-12(9-11)17-16(21)18-14-8-3-2-7-13(14)15(20)22-18/h2-9H,1H3,(H,17,21)
InChIKey=RMQZFILDIPBKJN-UHFFFAOYSA-N

> <PUBCHEM_SUBSTANCE_SYNONYM>
SCHEMBL16127899

> <PUBCHEM_XREF_EXT_ID>
SCHEMBL16127899

> <PUBCHEM_EXT_DATASOURCE_URL>
https://www.surechembl.org/

> <PUBCHEM_EXT_SUBSTANCE_URL>
https://www.surechembl.org/chemical/SCHEMBL16127899

> <PUBCHEM_CID_ASSOCIATIONS>
117615057  1

> <PUBCHEM_COORDINATE_TYPE>
1
3

$$$$
