310932856
  -OEChem-07211613022D

 30 33  0     0  0  0  0  0  0999 V2000
    5.0680   -1.9447    0.0000 O   0  0  0  0  0  0  0  0  0  0  0  0
    0.9723   -3.6537    0.0000 O   0  0  0  0  0  0  0  0  0  0  0  0
    4.6850   -3.3590    0.0000 N   0  0  0  0  0  0  0  0  0  0  0  0
    5.0974   -4.0662    0.0000 N   0  0  0  0  0  0  0  0  0  0  0  0
    3.4179   -3.9189    0.0000 N   0  0  0  0  0  0  0  0  0  0  0  0
    1.1196   -2.2394    0.0000 N   0  0  0  0  0  0  0  0  0  0  0  0
    0.4714   -0.7366    0.0000 N   0  0  0  0  0  0  0  0  0  0  0  0
    8.8395   -0.6188    0.0000 N   0  0  0  0  0  0  0  0  0  0  0  0
    5.2448   -2.7403    0.0000 C   0  0  0  0  0  0  0  0  0  0  0  0
    3.8894   -3.2706    0.0000 C   0  0  0  0  0  0  0  0  0  0  0  0
    5.9814   -3.0939    0.0000 C   0  0  0  0  0  0  0  0  0  0  0  0
    2.2688   -3.0939    0.0000 C   0  0  0  0  0  0  0  0  0  0  0  0
    2.7403   -2.4456    0.0000 C   0  0  0  0  0  0  0  0  0  0  0  0
    6.6886   -2.6813    0.0000 C   0  0  0  0  0  0  0  0  0  0  0  0
    3.5653   -2.5046    0.0000 C   0  0  0  0  0  0  0  0  0  0  0  0
    5.8930   -3.8894    0.0000 C   0  0  0  0  0  0  0  0  0  0  0  0
    1.4438   -3.0054    0.0000 C   0  0  0  0  0  0  0  0  0  0  0  0
    2.5929   -3.8599    0.0000 C   0  0  0  0  0  0  0  0  0  0  0  0
    6.6886   -1.8563    0.0000 C   0  0  0  0  0  0  0  0  0  0  0  0
    7.4252   -3.0939    0.0000 C   0  0  0  0  0  0  0  0  0  0  0  0
    1.6206   -1.5911    0.0000 C   0  0  0  0  0  0  0  0  0  0  0  0
    0.3241   -2.1510    0.0000 C   0  0  0  0  0  0  0  0  0  0  0  0
    2.3867   -1.7090    0.0000 C   0  0  0  0  0  0  0  0  0  0  0  0
    8.1029   -1.8563    0.0000 C   0  0  0  0  0  0  0  0  0  0  0  0
    7.4252   -1.4438    0.0000 C   0  0  0  0  0  0  0  0  0  0  0  0
    8.1029   -2.6813    0.0000 C   0  0  0  0  0  0  0  0  0  0  0  0
    0.0000   -1.4143    0.0000 C   0  0  0  0  0  0  0  0  0  0  0  0
    1.2965   -0.8250    0.0000 C   0  0  0  0  0  0  0  0  0  0  0  0
    8.8395   -1.4438    0.0000 C   0  0  0  0  0  0  0  0  0  0  0  0
    0.1473    0.0000    0.0000 C   0  0  0  0  0  0  0  0  0  0  0  0
  1  9  1  0  0  0  0
  2 17  2  0  0  0  0
  3  4  1  0  0  0  0
  3  9  1  0  0  0  0
  3 10  1  0  0  0  0
  4 16  2  0  0  0  0
  5 10  1  0  0  0  0
  5 18  2  0  0  0  0
  6 17  1  0  0  0  0
  6 21  1  0  0  0  0
  6 22  1  0  0  0  0
  7 27  1  0  0  0  0
  7 28  1  0  0  0  0
  7 30  1  0  0  0  0
  8 29  3  0  0  0  0
  9 11  2  0  0  0  0
 10 15  2  0  0  0  0
 11 14  1  0  0  0  0
 11 16  1  0  0  0  0
 12 13  2  0  0  0  0
 12 17  1  0  0  0  0
 12 18  1  0  0  0  0
 13 15  1  0  0  0  0
 13 23  1  0  0  0  0
 14 19  2  0  0  0  0
 14 20  1  0  0  0  0
 19 25  1  0  0  0  0
 20 26  2  0  0  0  0
 21 28  1  0  0  0  0
 22 27  1  0  0  0  0
 24 25  2  0  0  0  0
 24 26  1  0  0  0  0
 24 29  1  0  0  0  0
M  END
> <PUBCHEM_COMPOUND_ID_TYPE>
0

> <PUBCHEM_TOTAL_CHARGE>
0

> <PUBCHEM_SUBSTANCE_ID>
310932856

> <PUBCHEM_SUBSTANCE_VERSION>
1

> <PUBCHEM_EXT_DATASOURCE_NAME>
4488

> <PUBCHEM_EXT_DATASOURCE_REGID>
SCHEMBL16110248

> <PUBCHEM_SUBSTANCE_COMMENT>
InChI=1S/C22H22N6O2/c1-15-11-20(24-13-18(15)21(29)27-9-7-26(2)8-10-27)28-22(30)19(14-25-28)17-5-3-16(12-23)4-6-17/h3-6,11,13-14,30H,7-10H2,1-2H3
InChIKey=LPBXHKDJASJNGV-UHFFFAOYSA-N

> <PUBCHEM_SUBSTANCE_SYNONYM>
SCHEMBL16110248

> <PUBCHEM_XREF_EXT_ID>
SCHEMBL16110248

> <PUBCHEM_EXT_DATASOURCE_URL>
https://www.surechembl.org/

> <PUBCHEM_EXT_SUBSTANCE_URL>
https://www.surechembl.org/chemical/SCHEMBL16110248

> <PUBCHEM_CID_ASSOCIATIONS>
117601341  1

> <PUBCHEM_COORDINATE_TYPE>
1
3

$$$$
