310941725
  -OEChem-07211613022D

 35 38  0     0  0  0  0  0  0999 V2000
    1.3392    1.4070    0.0000 S   0  0  0  0  0  0  0  0  0  0  0  0
   -2.8423   -3.4526    0.0000 F   0  0  0  0  0  0  0  0  0  0  0  0
   -1.7122   -3.4526    0.0000 F   0  0  0  0  0  0  0  0  0  0  0  0
   -2.2885   -3.7803    0.0000 F   0  0  0  0  0  0  0  0  0  0  0  0
   -2.2885   -2.2885    0.0000 O   0  0  0  0  0  0  0  0  0  0  0  0
   -0.0056    0.5142    0.0000 O   0  0  0  0  0  0  0  0  0  0  0  0
   -1.7122    0.5142    0.0000 O   0  0  0  0  0  0  0  0  0  0  0  0
   -2.9892    3.0796    0.0000 O   0  0  0  0  0  0  0  0  0  0  0  0
    0.5594   -0.6385    0.0000 N   0  0  0  0  0  0  0  0  0  0  0  0
   -2.2885   -0.6385    0.0000 N   0  0  0  0  0  0  0  0  0  0  0  0
    2.5598    0.8758    0.0000 N   0  0  0  0  0  0  0  0  0  0  0  0
   -3.0005    1.4296    0.0000 N   0  0  0  0  0  0  0  0  0  0  0  0
   -1.5652   -1.0341    0.0000 C   0  0  0  0  0  0  0  0  0  0  0  0
   -1.5766   -1.8591    0.0000 C   0  0  0  0  0  0  0  0  0  0  0  0
   -0.1526   -1.0341    0.0000 C   0  0  0  0  0  0  0  0  0  0  0  0
    1.2714    0.6159    0.0000 C   0  0  0  0  0  0  0  0  0  0  0  0
    2.1529    1.6104    0.0000 C   0  0  0  0  0  0  0  0  0  0  0  0
    0.5707    0.2091    0.0000 C   0  0  0  0  0  0  0  0  0  0  0  0
   -0.8758   -0.6272    0.0000 C   0  0  0  0  0  0  0  0  0  0  0  0
   -0.8420   -2.2546    0.0000 C   0  0  0  0  0  0  0  0  0  0  0  0
   -0.1526   -1.8591    0.0000 C   0  0  0  0  0  0  0  0  0  0  0  0
    2.4920    2.3676    0.0000 C   0  0  0  0  0  0  0  0  0  0  0  0
    2.0286    0.2882    0.0000 C   0  0  0  0  0  0  0  0  0  0  0  0
   -2.2885   -3.1248    0.0000 C   0  0  0  0  0  0  0  0  0  0  0  0
   -2.2998    0.2091    0.0000 C   0  0  0  0  0  0  0  0  0  0  0  0
    2.0625    3.0457    0.0000 C   0  0  0  0  0  0  0  0  0  0  0  0
    3.3056    2.3676    0.0000 C   0  0  0  0  0  0  0  0  0  0  0  0
   -2.9892    0.6159    0.0000 C   0  0  0  0  0  0  0  0  0  0  0  0
    2.4468    3.7803    0.0000 C   0  0  0  0  0  0  0  0  0  0  0  0
    3.6899    3.1248    0.0000 C   0  0  0  0  0  0  0  0  0  0  0  0
    3.2718    3.7803    0.0000 C   0  0  0  0  0  0  0  0  0  0  0  0
   -3.6899    1.8591    0.0000 C   0  0  0  0  0  0  0  0  0  0  0  0
   -2.2772    1.8591    0.0000 C   0  0  0  0  0  0  0  0  0  0  0  0
   -3.6899    2.6954    0.0000 C   0  0  0  0  0  0  0  0  0  0  0  0
   -2.2659    2.6728    0.0000 C   0  0  0  0  0  0  0  0  0  0  0  0
  1 16  1  0  0  0  0
  1 17  1  0  0  0  0
  2 24  1  0  0  0  0
  3 24  1  0  0  0  0
  4 24  1  0  0  0  0
  5 14  1  0  0  0  0
  5 24  1  0  0  0  0
  6 18  2  0  0  0  0
  7 25  2  0  0  0  0
  8 34  1  0  0  0  0
  8 35  1  0  0  0  0
  9 15  1  0  0  0  0
  9 18  1  0  0  0  0
 10 13  1  0  0  0  0
 10 25  1  0  0  0  0
 11 17  2  0  0  0  0
 11 23  1  0  0  0  0
 12 28  1  0  0  0  0
 12 32  1  0  0  0  0
 12 33  1  0  0  0  0
 13 14  1  0  0  0  0
 13 19  2  0  0  0  0
 14 20  2  0  0  0  0
 15 19  1  0  0  0  0
 15 21  2  0  0  0  0
 16 18  1  0  0  0  0
 16 23  2  0  0  0  0
 17 22  1  0  0  0  0
 20 21  1  0  0  0  0
 22 26  2  0  0  0  0
 22 27  1  0  0  0  0
 25 28  1  0  0  0  0
 26 29  1  0  0  0  0
 27 30  2  0  0  0  0
 29 31  2  0  0  0  0
 30 31  1  0  0  0  0
 32 34  1  0  0  0  0
 33 35  1  0  0  0  0
M  END
> <PUBCHEM_COMPOUND_ID_TYPE>
0

> <PUBCHEM_TOTAL_CHARGE>
0

> <PUBCHEM_SUBSTANCE_ID>
310941725

> <PUBCHEM_SUBSTANCE_VERSION>
1

> <PUBCHEM_EXT_DATASOURCE_NAME>
4488

> <PUBCHEM_EXT_DATASOURCE_REGID>
SCHEMBL16119756

> <PUBCHEM_SUBSTANCE_COMMENT>
InChI=1S/C23H21F3N4O4S/c24-23(25,26)34-18-7-6-16(12-17(18)29-20(31)14-30-8-10-33-11-9-30)28-21(32)19-13-27-22(35-19)15-4-2-1-3-5-15/h1-7,12-13H,8-11,14H2,(H,28,32)(H,29,31)
InChIKey=HVTXCROPHVCWDI-UHFFFAOYSA-N

> <PUBCHEM_SUBSTANCE_SYNONYM>
SCHEMBL16119756

> <PUBCHEM_XREF_EXT_ID>
SCHEMBL16119756

> <PUBCHEM_EXT_DATASOURCE_URL>
https://www.surechembl.org/

> <PUBCHEM_EXT_SUBSTANCE_URL>
https://www.surechembl.org/chemical/SCHEMBL16119756

> <PUBCHEM_CID_ASSOCIATIONS>
117608495  1

> <PUBCHEM_COORDINATE_TYPE>
1
3

$$$$
