310943746
  -OEChem-07211613022D

 36 40  0     0  0  0  0  0  0999 V2000
   -2.4750   -2.8575    0.0000 O   0  0  0  0  0  0  0  0  0  0  0  0
   -5.3251    2.4376    0.0000 O   0  0  0  0  0  0  0  0  0  0  0  0
    1.7700    2.4376    0.0000 O   0  0  0  0  0  0  0  0  0  0  0  0
   -2.4900   -0.8625    0.0000 N   0  0  0  0  0  0  0  0  0  0  0  0
   -3.1950    0.3825    0.0000 N   0  0  0  0  0  0  0  0  0  0  0  0
   -3.9000    1.6126    0.0000 N   0  0  0  0  0  0  0  0  0  0  0  0
   -0.3600    2.8575    0.0000 N   0  0  0  0  0  0  0  0  0  0  0  0
    1.0650    1.2075    0.0000 N   0  0  0  0  0  0  0  0  0  0  0  0
    3.9000    0.3825    0.0000 N   0  0  0  0  0  0  0  0  0  0  0  0
   -1.7700    1.2075    0.0000 C   0  0  0  0  0  0  0  0  0  0  0  0
   -2.4750   -0.0225    0.0000 C   0  0  0  0  0  0  0  0  0  0  0  0
   -1.0800    1.6275    0.0000 C   0  0  0  0  0  0  0  0  0  0  0  0
   -3.1800    1.2225    0.0000 C   0  0  0  0  0  0  0  0  0  0  0  0
   -1.7850    0.3825    0.0000 C   0  0  0  0  0  0  0  0  0  0  0  0
   -2.4900    1.6126    0.0000 C   0  0  0  0  0  0  0  0  0  0  0  0
   -1.0650    2.4526    0.0000 C   0  0  0  0  0  0  0  0  0  0  0  0
   -0.3300    1.2225    0.0000 C   0  0  0  0  0  0  0  0  0  0  0  0
   -3.0600   -1.4475    0.0000 C   0  0  0  0  0  0  0  0  0  0  0  0
   -1.9050   -1.4325    0.0000 C   0  0  0  0  0  0  0  0  0  0  0  0
   -2.4750   -2.0025    0.0000 C   0  0  0  0  0  0  0  0  0  0  0  0
    0.3450    1.6275    0.0000 C   0  0  0  0  0  0  0  0  0  0  0  0
    0.3600    2.4376    0.0000 C   0  0  0  0  0  0  0  0  0  0  0  0
   -3.9000    2.4376    0.0000 C   0  0  0  0  0  0  0  0  0  0  0  0
   -4.5901    1.2075    0.0000 C   0  0  0  0  0  0  0  0  0  0  0  0
    1.7550    1.6126    0.0000 C   0  0  0  0  0  0  0  0  0  0  0  0
    2.4750    1.2075    0.0000 C   0  0  0  0  0  0  0  0  0  0  0  0
   -1.7850    2.8425    0.0000 C   0  0  0  0  0  0  0  0  0  0  0  0
    3.1651    1.6126    0.0000 C   0  0  0  0  0  0  0  0  0  0  0  0
    3.9000    1.2075    0.0000 C   0  0  0  0  0  0  0  0  0  0  0  0
   -4.6200    2.8575    0.0000 C   0  0  0  0  0  0  0  0  0  0  0  0
   -5.3101    1.6126    0.0000 C   0  0  0  0  0  0  0  0  0  0  0  0
    2.4750    0.3825    0.0000 C   0  0  0  0  0  0  0  0  0  0  0  0
    3.2100   -0.0225    0.0000 C   0  0  0  0  0  0  0  0  0  0  0  0
    4.6051    1.6275    0.0000 C   0  0  0  0  0  0  0  0  0  0  0  0
    4.5901    2.4526    0.0000 C   0  0  0  0  0  0  0  0  0  0  0  0
    5.3251    1.2225    0.0000 C   0  0  0  0  0  0  0  0  0  0  0  0
  1 20  1  0  0  0  0
  2 30  1  0  0  0  0
  2 31  1  0  0  0  0
  3 25  2  0  0  0  0
  4 11  1  0  0  0  0
  4 18  1  0  0  0  0
  4 19  1  0  0  0  0
  5 11  1  0  0  0  0
  5 13  2  0  0  0  0
  6 13  1  0  0  0  0
  6 23  1  0  0  0  0
  6 24  1  0  0  0  0
  7 16  2  0  0  0  0
  7 22  1  0  0  0  0
  8 21  1  0  0  0  0
  8 25  1  0  0  0  0
  9 29  1  0  0  0  0
  9 33  2  0  0  0  0
 10 12  1  0  0  0  0
 10 14  1  0  0  0  0
 10 15  2  0  0  0  0
 11 14  2  0  0  0  0
 12 16  1  0  0  0  0
 12 17  2  0  0  0  0
 13 15  1  0  0  0  0
 16 27  1  0  0  0  0
 17 21  1  0  0  0  0
 18 20  1  0  0  0  0
 19 20  1  0  0  0  0
 21 22  2  0  0  0  0
 23 30  1  0  0  0  0
 24 31  1  0  0  0  0
 25 26  1  0  0  0  0
 26 28  1  0  0  0  0
 26 32  2  0  0  0  0
 28 29  2  0  0  0  0
 29 34  1  0  0  0  0
 32 33  1  0  0  0  0
 34 35  1  0  0  0  0
 34 36  1  0  0  0  0
M  END
> <PUBCHEM_COMPOUND_ID_TYPE>
0

> <PUBCHEM_TOTAL_CHARGE>
0

> <PUBCHEM_SUBSTANCE_ID>
310943746

> <PUBCHEM_SUBSTANCE_VERSION>
1

> <PUBCHEM_EXT_DATASOURCE_NAME>
4488

> <PUBCHEM_EXT_DATASOURCE_REGID>
SCHEMBL16121815

> <PUBCHEM_SUBSTANCE_COMMENT>
InChI=1S/C27H32N6O3/c1-17(2)24-10-19(4-5-28-24)27(35)30-21-13-23(18(3)29-14-21)20-11-25(32-6-8-36-9-7-32)31-26(12-20)33-15-22(34)16-33/h4-5,10-14,17,22,34H,6-9,15-16H2,1-3H3,(H,30,35)
InChIKey=SZOXDFSQPBDNAT-UHFFFAOYSA-N

> <PUBCHEM_SUBSTANCE_SYNONYM>
SCHEMBL16121815

> <PUBCHEM_XREF_EXT_ID>
SCHEMBL16121815

> <PUBCHEM_EXT_DATASOURCE_URL>
https://www.surechembl.org/

> <PUBCHEM_EXT_SUBSTANCE_URL>
https://www.surechembl.org/chemical/SCHEMBL16121815

> <PUBCHEM_CID_ASSOCIATIONS>
117610108  1

> <PUBCHEM_COORDINATE_TYPE>
1
3

$$$$
