310933189
  -OEChem-07211613022D

 27 30  0     0  0  0  0  0  0999 V2000
    5.7749   -3.5749    0.0000 O   0  0  0  0  0  0  0  0  0  0  0  0
    7.4248   -3.5749    0.0000 O   0  0  0  0  0  0  0  0  0  0  0  0
    0.0000   -0.7425    0.0000 O   0  0  0  0  0  0  0  0  0  0  0  0
    4.9499   -0.7425    0.0000 N   0  0  0  0  0  0  0  0  0  0  0  0
    6.1873    0.0000    0.0000 N   0  0  0  0  0  0  0  0  0  0  0  0
    7.4248   -0.7425    0.0000 N   0  0  0  0  0  0  0  0  0  0  0  0
    3.3274   -0.7425    0.0000 N   0  0  0  0  0  0  0  0  0  0  0  0
    2.0625   -0.0275    0.0000 N   0  0  0  0  0  0  0  0  0  0  0  0
    2.0625   -1.4300    0.0000 N   0  0  0  0  0  0  0  0  0  0  0  0
    6.1873   -1.4575    0.0000 C   0  0  0  0  0  0  0  0  0  0  0  0
    5.7749   -0.7425    0.0000 C   0  0  0  0  0  0  0  0  0  0  0  0
    7.0123   -1.4575    0.0000 C   0  0  0  0  0  0  0  0  0  0  0  0
    5.7749   -2.1450    0.0000 C   0  0  0  0  0  0  0  0  0  0  0  0
    6.1873   -2.8599    0.0000 C   0  0  0  0  0  0  0  0  0  0  0  0
    7.0123   -2.8599    0.0000 C   0  0  0  0  0  0  0  0  0  0  0  0
    7.4248   -2.1450    0.0000 C   0  0  0  0  0  0  0  0  0  0  0  0
    4.5649   -0.0275    0.0000 C   0  0  0  0  0  0  0  0  0  0  0  0
    4.5649   -1.4575    0.0000 C   0  0  0  0  0  0  0  0  0  0  0  0
    7.0123    0.0000    0.0000 C   0  0  0  0  0  0  0  0  0  0  0  0
    2.5024   -0.7425    0.0000 C   0  0  0  0  0  0  0  0  0  0  0  0
    3.7124   -1.4575    0.0000 C   0  0  0  0  0  0  0  0  0  0  0  0
    3.7124   -0.0275    0.0000 C   0  0  0  0  0  0  0  0  0  0  0  0
    0.8250   -0.7425    0.0000 C   0  0  0  0  0  0  0  0  0  0  0  0
    1.2650   -0.0275    0.0000 C   0  0  0  0  0  0  0  0  0  0  0  0
    1.2650   -1.4300    0.0000 C   0  0  0  0  0  0  0  0  0  0  0  0
    6.1873   -4.2899    0.0000 C   0  0  0  0  0  0  0  0  0  0  0  0
    8.2498   -3.5749    0.0000 C   0  0  0  0  0  0  0  0  0  0  0  0
  1 14  1  0  0  0  0
  1 26  1  0  0  0  0
  2 15  1  0  0  0  0
  2 27  1  0  0  0  0
  3 23  1  0  0  0  0
  4 11  1  0  0  0  0
  4 17  1  0  0  0  0
  4 18  1  0  0  0  0
  5 11  1  0  0  0  0
  5 19  2  0  0  0  0
  6 12  2  0  0  0  0
  6 19  1  0  0  0  0
  7 20  1  0  0  0  0
  7 21  1  0  0  0  0
  7 22  1  0  0  0  0
  8 20  2  0  0  0  0
  8 24  1  0  0  0  0
  9 20  1  0  0  0  0
  9 25  2  0  0  0  0
 10 11  2  0  0  0  0
 10 12  1  0  0  0  0
 10 13  1  0  0  0  0
 12 16  1  0  0  0  0
 13 14  2  0  0  0  0
 14 15  1  0  0  0  0
 15 16  2  0  0  0  0
 17 22  1  0  0  0  0
 18 21  1  0  0  0  0
 23 24  2  0  0  0  0
 23 25  1  0  0  0  0
M  END
> <PUBCHEM_COMPOUND_ID_TYPE>
0

> <PUBCHEM_TOTAL_CHARGE>
0

> <PUBCHEM_SUBSTANCE_ID>
310933189

> <PUBCHEM_SUBSTANCE_VERSION>
1

> <PUBCHEM_EXT_DATASOURCE_NAME>
4488

> <PUBCHEM_EXT_DATASOURCE_REGID>
SCHEMBL16110598

> <PUBCHEM_SUBSTANCE_COMMENT>
InChI=1S/C18H20N6O3/c1-26-15-7-13-14(8-16(15)27-2)21-11-22-17(13)23-3-5-24(6-4-23)18-19-9-12(25)10-20-18/h7-11,25H,3-6H2,1-2H3
InChIKey=VRRPUTFCGLRJFB-UHFFFAOYSA-N

> <PUBCHEM_SUBSTANCE_SYNONYM>
SCHEMBL16110598

> <PUBCHEM_XREF_EXT_ID>
SCHEMBL16110598

> <PUBCHEM_EXT_DATASOURCE_URL>
https://www.surechembl.org/

> <PUBCHEM_EXT_SUBSTANCE_URL>
https://www.surechembl.org/chemical/SCHEMBL16110598

> <PUBCHEM_CID_ASSOCIATIONS>
117601633  1

> <PUBCHEM_COORDINATE_TYPE>
1
3

$$$$
