310933018
  -OEChem-07211613022D

 45 51  0     1  0  0  0  0  0999 V2000
    1.4871   -0.8922    0.0000 Cl  0  0  0  0  0  0  0  0  0  0  0  0
    2.4289   -2.2306    0.0000 F   0  0  0  0  0  0  0  0  0  0  0  0
    1.4871   -6.1962    0.0000 O   0  0  0  0  0  0  0  0  0  0  0  0
    4.3125   -4.5603    0.0000 O   0  0  0  0  0  0  0  0  0  0  0  0
    2.8750   -6.1962    0.0000 N   0  0  0  0  0  0  0  0  0  0  0  0
    1.7845   -3.7177    0.0000 N   0  0  0  0  0  0  0  0  0  0  0  0
    3.0237   -4.6595    0.0000 N   0  0  0  0  0  0  0  0  0  0  0  0
    2.9246   -4.5603    0.0000 N   0  0  0  0  0  0  0  0  0  0  0  0
    2.5776   -3.7177    0.0000 N   0  0  0  0  0  0  0  0  0  0  0  0
    4.3125   -9.4677    0.0000 N   0  0  0  0  0  0  0  0  0  0  0  0
    5.7005   -9.4677    0.0000 N   0  0  0  0  0  0  0  0  0  0  0  0
    3.5690   -0.7931    0.0000 N   0  0  0  0  0  0  0  0  0  0  0  0
    2.2306   -0.7931    0.0000 N   0  0  0  0  0  0  0  0  0  0  0  0
    3.6186   -5.7996    0.0000 C   0  0  3  0  0  0  0  0  0  0  0  0
    4.3125   -6.1962    0.0000 C   0  0  0  0  0  0  0  0  0  0  0  0
    4.3125   -6.9892    0.0000 C   0  0  0  0  0  0  0  0  0  0  0  0
    2.1811   -5.7996    0.0000 C   0  0  0  0  0  0  0  0  0  0  0  0
    5.0065   -7.4354    0.0000 C   0  0  0  0  0  0  0  0  0  0  0  0
    3.6186   -4.9569    0.0000 C   0  0  0  0  0  0  0  0  0  0  0  0
    2.1811   -4.9569    0.0000 C   0  0  0  0  0  0  0  0  0  0  0  0
    2.8750   -6.9892    0.0000 C   0  0  0  0  0  0  0  0  0  0  0  0
    3.6186   -7.4354    0.0000 C   0  0  0  0  0  0  0  0  0  0  0  0
    5.0065   -5.7996    0.0000 C   0  0  0  0  0  0  0  0  0  0  0  0
    5.0065   -8.2285    0.0000 C   0  0  0  0  0  0  0  0  0  0  0  0
    1.5366   -4.4612    0.0000 C   0  0  0  0  0  0  0  0  0  0  0  0
    5.7500   -6.9892    0.0000 C   0  0  0  0  0  0  0  0  0  0  0  0
    1.2888   -3.0237    0.0000 C   0  0  0  0  0  0  0  0  0  0  0  0
    5.7500   -6.1962    0.0000 C   0  0  0  0  0  0  0  0  0  0  0  0
    1.6358   -2.2802    0.0000 C   0  0  0  0  0  0  0  0  0  0  0  0
    2.9246   -3.7177    0.0000 C   0  0  0  0  0  0  0  0  0  0  0  0
    4.3125   -8.6746    0.0000 C   0  0  0  0  0  0  0  0  0  0  0  0
    5.7005   -8.6746    0.0000 C   0  0  0  0  0  0  0  0  0  0  0  0
    0.4957   -3.1229    0.0000 C   0  0  0  0  0  0  0  0  0  0  0  0
    1.1401   -1.6358    0.0000 C   0  0  0  0  0  0  0  0  0  0  0  0
    2.1811   -3.3211    0.0000 C   0  0  0  0  0  0  0  0  0  0  0  0
    3.6186   -3.3211    0.0000 C   0  0  0  0  0  0  0  0  0  0  0  0
    0.0000   -2.4785    0.0000 C   0  0  0  0  0  0  0  0  0  0  0  0
    0.3470   -1.6854    0.0000 C   0  0  0  0  0  0  0  0  0  0  0  0
    2.9246   -2.0819    0.0000 C   0  0  0  0  0  0  0  0  0  0  0  0
    2.1811   -2.4785    0.0000 C   0  0  0  0  0  0  0  0  0  0  0  0
    3.6186   -2.4785    0.0000 C   0  0  0  0  0  0  0  0  0  0  0  0
    2.9246   -1.2392    0.0000 C   0  0  0  0  0  0  0  0  0  0  0  0
    5.0065   -9.9139    0.0000 C   0  0  0  0  0  0  0  0  0  0  0  0
    3.3211    0.0000    0.0000 C   0  0  0  0  0  0  0  0  0  0  0  0
    2.4785    0.0000    0.0000 C   0  0  0  0  0  0  0  0  0  0  0  0
  1 34  1  0  0  0  0
  2 29  1  0  0  0  0
  3 17  2  0  0  0  0
  4 19  2  0  0  0  0
  5 14  1  0  0  0  0
  5 17  1  0  0  0  0
  5 21  1  0  0  0  0
  6  9  1  0  0  0  0
  6 25  1  0  0  0  0
  6 27  1  0  0  0  0
  7  9  2  0  0  0  0
  7 20  1  0  0  0  0
  8 19  1  0  0  0  0
  8 30  1  0  0  0  0
 10 31  2  0  0  0  0
 10 43  1  0  0  0  0
 11 32  1  0  0  0  0
 11 43  2  0  0  0  0
 12 42  2  0  0  0  0
 12 44  1  0  0  0  0
 13 42  1  0  0  0  0
 13 45  1  0  0  0  0
 14 15  1  0  0  0  0
 14 19  1  1  0  0  0
 15 16  2  0  0  0  0
 15 23  1  0  0  0  0
 16 18  1  0  0  0  0
 16 22  1  0  0  0  0
 17 20  1  0  0  0  0
 18 24  1  0  0  0  0
 18 26  2  0  0  0  0
 20 25  2  0  0  0  0
 21 22  1  0  0  0  0
 23 28  2  0  0  0  0
 24 31  1  0  0  0  0
 24 32  2  0  0  0  0
 26 28  1  0  0  0  0
 27 29  1  0  0  0  0
 27 33  2  0  0  0  0
 29 34  2  0  0  0  0
 30 35  2  0  0  0  0
 30 36  1  0  0  0  0
 33 37  1  0  0  0  0
 34 38  1  0  0  0  0
 35 40  1  0  0  0  0
 36 41  2  0  0  0  0
 37 38  2  0  0  0  0
 39 40  2  0  0  0  0
 39 41  1  0  0  0  0
 39 42  1  0  0  0  0
 44 45  2  0  0  0  0
M  END
> <PUBCHEM_COMPOUND_ID_TYPE>
0

> <PUBCHEM_TOTAL_CHARGE>
0

> <PUBCHEM_SUBSTANCE_ID>
310933018

> <PUBCHEM_SUBSTANCE_VERSION>
1

> <PUBCHEM_EXT_DATASOURCE_NAME>
4488

> <PUBCHEM_EXT_DATASOURCE_REGID>
SCHEMBL16110418

> <PUBCHEM_SUBSTANCE_COMMENT>
InChI=1S/C32H23ClFN9O2/c33-25-5-2-6-27(28(25)34)43-17-26(40-41-43)32(45)42-14-11-23-22(20-15-35-18-36-16-20)3-1-4-24(23)29(42)31(44)39-21-9-7-19(8-10-21)30-37-12-13-38-30/h1-10,12-13,15-18,29H,11,14H2,(H,37,38)(H,39,44)/t29-/m1/s1
InChIKey=BKIXAKVYUBVMAP-GDLZYMKVSA-N

> <PUBCHEM_SUBSTANCE_SYNONYM>
SCHEMBL16110418

> <PUBCHEM_XREF_EXT_ID>
SCHEMBL16110418

> <PUBCHEM_EXT_DATASOURCE_URL>
https://www.surechembl.org/

> <PUBCHEM_EXT_SUBSTANCE_URL>
https://www.surechembl.org/chemical/SCHEMBL16110418

> <PUBCHEM_CID_ASSOCIATIONS>
117601485  1

> <PUBCHEM_COORDINATE_TYPE>
1
3

> <PUBCHEM_BONDANNOTATIONS>
14  19  5

$$$$
