310940081
  -OEChem-07211613022D

 37 42  0     1  0  0  0  0  0999 V2000
    4.8487    2.9872    0.0000 O   0  0  0  0  0  0  0  0  0  0  0  0
   -4.6515   -3.3938    0.0000 O   0  0  0  0  0  0  0  0  0  0  0  0
    3.6021   -0.5928    0.0000 O   0  0  0  0  0  0  0  0  0  0  0  0
   -0.8708   -3.1163    0.0000 O   0  0  0  0  0  0  0  0  0  0  0  0
    3.6214    3.8307    0.0000 O   0  0  0  0  0  0  0  0  0  0  0  0
   -4.9778   -1.8589    0.0000 O   0  0  0  0  0  0  0  0  0  0  0  0
    2.0084   -1.0199    0.0000 N   0  0  3  0  0  0  0  0  0  0  0  0
   -0.0458   -1.6873    0.0000 N   0  0  3  0  0  0  0  0  0  0  0  0
    1.2237   -1.2748    0.0000 C   0  0  3  0  0  0  0  0  0  0  0  0
    1.2237   -2.0998    0.0000 C   0  0  3  0  0  0  0  0  0  0  0  0
    2.4933   -1.6873    0.0000 C   0  0  3  0  0  0  0  0  0  0  0  0
    4.2427    1.7978    0.0000 C   0  0  0  0  0  0  0  0  0  0  0  0
    3.2323    0.7874    0.0000 C   0  0  0  0  0  0  0  0  0  0  0  0
    0.4391   -1.0199    0.0000 C   0  0  0  0  0  0  0  0  0  0  0  0
    4.0292    1.0009    0.0000 C   0  0  0  0  0  0  0  0  0  0  0  0
    2.0084   -2.3548    0.0000 C   0  0  0  0  0  0  0  0  0  0  0  0
    3.6593    2.3812    0.0000 C   0  0  0  0  0  0  0  0  0  0  0  0
   -3.3458   -3.1163    0.0000 C   0  0  0  0  0  0  0  0  0  0  0  0
    0.4391   -2.3548    0.0000 C   0  0  0  0  0  0  0  0  0  0  0  0
   -2.1083   -2.4018    0.0000 C   0  0  0  0  0  0  0  0  0  0  0  0
    3.0188   -0.0095    0.0000 C   0  0  3  0  0  0  0  0  0  0  0  0
    2.2219   -0.2230    0.0000 C   0  0  0  0  0  0  0  0  0  0  0  0
   -3.7583   -2.4018    0.0000 C   0  0  0  0  0  0  0  0  0  0  0  0
   -2.5208   -3.1163    0.0000 C   0  0  0  0  0  0  0  0  0  0  0  0
   -1.2833   -2.4018    0.0000 C   0  0  3  0  0  0  0  0  0  0  0  0
   -0.8708   -1.6873    0.0000 C   0  0  0  0  0  0  0  0  0  0  0  0
    4.0339    3.1163    0.0000 C   0  0  0  0  0  0  0  0  0  0  0  0
   -4.5653   -2.5733    0.0000 C   0  0  0  0  0  0  0  0  0  0  0  0
    2.6489    1.3708    0.0000 C   0  0  0  0  0  0  0  0  0  0  0  0
    2.8625    2.1677    0.0000 C   0  0  0  0  0  0  0  0  0  0  0  0
    4.9778    2.1724    0.0000 C   0  0  0  0  0  0  0  0  0  0  0  0
   -2.5208   -1.6873    0.0000 C   0  0  0  0  0  0  0  0  0  0  0  0
   -3.3458   -1.6873    0.0000 C   0  0  0  0  0  0  0  0  0  0  0  0
   -3.8978   -3.7294    0.0000 C   0  0  0  0  0  0  0  0  0  0  0  0
    3.3183   -1.6873    0.0000 C   0  0  0  0  0  0  0  0  0  0  0  0
    4.6125    0.4176    0.0000 C   0  0  0  0  0  0  0  0  0  0  0  0
   -2.1083   -3.8307    0.0000 C   0  0  0  0  0  0  0  0  0  0  0  0
  1 27  1  0  0  0  0
  1 31  1  0  0  0  0
  2 28  1  0  0  0  0
  2 34  1  0  0  0  0
 21  3  1  1  0  0  0
 25  4  1  6  0  0  0
  5 27  2  0  0  0  0
  6 28  2  0  0  0  0
  7  9  1  0  0  0  0
  7 11  1  0  0  0  0
  7 22  1  0  0  0  0
  8 14  1  0  0  0  0
  8 19  1  0  0  0  0
  8 26  1  0  0  0  0
  9 10  1  0  0  0  0
  9 14  1  0  0  0  0
 10 16  1  0  0  0  0
 10 19  1  0  0  0  0
 11 16  1  0  0  0  0
 11 35  1  0  0  0  0
 12 15  1  0  0  0  0
 12 17  2  0  0  0  0
 12 31  1  0  0  0  0
 13 15  2  0  0  0  0
 13 21  1  0  0  0  0
 13 29  1  0  0  0  0
 15 36  1  0  0  0  0
 17 27  1  0  0  0  0
 17 30  1  0  0  0  0
 18 23  1  0  0  0  0
 18 24  2  0  0  0  0
 18 34  1  0  0  0  0
 20 24  1  0  0  0  0
 20 25  1  0  0  0  0
 20 32  2  0  0  0  0
 21 22  1  0  0  0  0
 23 28  1  0  0  0  0
 23 33  2  0  0  0  0
 24 37  1  0  0  0  0
 25 26  1  0  0  0  0
 29 30  2  0  0  0  0
 32 33  1  0  0  0  0
M  END
> <PUBCHEM_COMPOUND_ID_TYPE>
0

> <PUBCHEM_TOTAL_CHARGE>
0

> <PUBCHEM_SUBSTANCE_ID>
310940081

> <PUBCHEM_SUBSTANCE_VERSION>
1

> <PUBCHEM_EXT_DATASOURCE_NAME>
4488

> <PUBCHEM_EXT_DATASOURCE_REGID>
SCHEMBL16118012

> <PUBCHEM_SUBSTANCE_COMMENT>
InChI=1S/C29H34N2O6/c1-15-8-18-9-30(11-26(32)19-4-6-21-23(16(19)2)13-36-28(21)34)10-25(18)31(15)12-27(33)20-5-7-22-24(17(20)3)14-37-29(22)35/h4-7,15,18,25-27,32-33H,8-14H2,1-3H3/t15?,18?,25?,26-,27-/m0/s1
InChIKey=ARGJHIBANHOSOD-CCKBBTKFSA-N

> <PUBCHEM_SUBSTANCE_SYNONYM>
SCHEMBL16118012

> <PUBCHEM_XREF_EXT_ID>
SCHEMBL16118012

> <PUBCHEM_EXT_DATASOURCE_URL>
https://www.surechembl.org/

> <PUBCHEM_EXT_SUBSTANCE_URL>
https://www.surechembl.org/chemical/SCHEMBL16118012

> <PUBCHEM_CID_ASSOCIATIONS>
71557647  1

> <PUBCHEM_COORDINATE_TYPE>
1
3

> <PUBCHEM_BONDANNOTATIONS>
21  3  5
25  4  6

$$$$
