310938262
  -OEChem-07211613022D

 17 18  0     0  0  0  0  0  0999 V2000
    4.5988   -1.4615    0.0000 O   0  0  0  0  0  0  0  0  0  0  0  0
    4.5988   -2.8840    0.0000 O   0  0  0  0  0  0  0  0  0  0  0  0
    2.8840   -2.8450    0.0000 N   0  0  0  0  0  0  0  0  0  0  0  0
    0.8184    0.0000    0.0000 N   0  0  0  0  0  0  0  0  0  0  0  0
    0.0974   -0.3508    0.0000 N   0  0  0  0  0  0  0  0  0  0  0  0
    2.1045   -1.7733    0.0000 C   0  0  0  0  0  0  0  0  0  0  0  0
    2.8840   -1.5004    0.0000 C   0  0  0  0  0  0  0  0  0  0  0  0
    3.3711   -2.1630    0.0000 C   0  0  0  0  0  0  0  0  0  0  0  0
    1.4225   -1.2861    0.0000 C   0  0  0  0  0  0  0  0  0  0  0  0
    2.1045   -2.5917    0.0000 C   0  0  0  0  0  0  0  0  0  0  0  0
    4.1896   -2.1630    0.0000 C   0  0  0  0  0  0  0  0  0  0  0  0
    1.5200   -0.4677    0.0000 C   0  0  0  0  0  0  0  0  0  0  0  0
    0.7015   -1.6174    0.0000 C   0  0  0  0  0  0  0  0  0  0  0  0
    3.1568   -0.7210    0.0000 C   0  0  0  0  0  0  0  0  0  0  0  0
    0.0000   -1.1692    0.0000 C   0  0  0  0  0  0  0  0  0  0  0  0
    5.4367   -1.4615    0.0000 C   0  0  0  0  0  0  0  0  0  0  0  0
    5.8459   -0.7405    0.0000 C   0  0  0  0  0  0  0  0  0  0  0  0
  1 11  1  0  0  0  0
  1 16  1  0  0  0  0
  2 11  2  0  0  0  0
  3  8  1  0  0  0  0
  3 10  1  0  0  0  0
  4  5  2  0  0  0  0
  4 12  1  0  0  0  0
  5 15  1  0  0  0  0
  6  7  1  0  0  0  0
  6  9  1  0  0  0  0
  6 10  2  0  0  0  0
  7  8  2  0  0  0  0
  7 14  1  0  0  0  0
  8 11  1  0  0  0  0
  9 12  2  0  0  0  0
  9 13  1  0  0  0  0
 13 15  2  0  0  0  0
 16 17  1  0  0  0  0
M  END
> <PUBCHEM_COMPOUND_ID_TYPE>
0

> <PUBCHEM_TOTAL_CHARGE>
0

> <PUBCHEM_SUBSTANCE_ID>
310938262

> <PUBCHEM_SUBSTANCE_VERSION>
1

> <PUBCHEM_EXT_DATASOURCE_NAME>
4488

> <PUBCHEM_EXT_DATASOURCE_REGID>
SCHEMBL16116130

> <PUBCHEM_SUBSTANCE_COMMENT>
InChI=1S/C12H13N3O2/c1-3-17-12(16)11-8(2)10(7-13-11)9-4-5-14-15-6-9/h4-7,13H,3H2,1-2H3
InChIKey=VDFTVWDAUOWPJY-UHFFFAOYSA-N

> <PUBCHEM_SUBSTANCE_SYNONYM>
SCHEMBL16116130

> <PUBCHEM_XREF_EXT_ID>
SCHEMBL16116130

> <PUBCHEM_EXT_DATASOURCE_URL>
https://www.surechembl.org/

> <PUBCHEM_EXT_SUBSTANCE_URL>
https://www.surechembl.org/chemical/SCHEMBL16116130

> <PUBCHEM_CID_ASSOCIATIONS>
117605775  1

> <PUBCHEM_COORDINATE_TYPE>
1
3

$$$$
