310945392
  -OEChem-07211613022D

 16 18  0     0  0  0  0  0  0999 V2000
    1.8768   -1.1530    0.0000 O   0  0  0  0  0  0  0  0  0  0  0  0
   -2.7184    0.1599    0.0000 O   0  0  0  0  0  0  0  0  0  0  0  0
    0.1262   -0.5807    0.0000 N   0  0  0  0  0  0  0  0  0  0  0  0
    2.1461    0.3450    0.0000 N   0  0  0  0  0  0  0  0  0  0  0  0
    0.5302    0.6817    0.0000 C   0  0  0  0  0  0  0  0  0  0  0  0
    0.7827   -0.0757    0.0000 C   0  0  0  0  0  0  0  0  0  0  0  0
   -0.2946    0.6985    0.0000 C   0  0  0  0  0  0  0  0  0  0  0  0
   -0.5807   -0.0926    0.0000 C   0  0  0  0  0  0  0  0  0  0  0  0
    1.5907   -0.2778    0.0000 C   0  0  0  0  0  0  0  0  0  0  0  0
    1.0857    1.3045    0.0000 C   0  0  0  0  0  0  0  0  0  0  0  0
   -0.8500    1.2876    0.0000 C   0  0  0  0  0  0  0  0  0  0  0  0
   -1.3550   -0.2441    0.0000 C   0  0  0  0  0  0  0  0  0  0  0  0
   -1.9105    0.3619    0.0000 C   0  0  0  0  0  0  0  0  0  0  0  0
    1.8937    1.1193    0.0000 C   0  0  0  0  0  0  0  0  0  0  0  0
   -1.6411    1.1193    0.0000 C   0  0  0  0  0  0  0  0  0  0  0  0
    2.7184   -1.3045    0.0000 C   0  0  0  0  0  0  0  0  0  0  0  0
  1  9  1  0  0  0  0
  1 16  1  0  0  0  0
  2 13  1  0  0  0  0
  3  6  1  0  0  0  0
  3  8  1  0  0  0  0
  4  9  2  0  0  0  0
  4 14  1  0  0  0  0
  5  6  2  0  0  0  0
  5  7  1  0  0  0  0
  5 10  1  0  0  0  0
  6  9  1  0  0  0  0
  7  8  2  0  0  0  0
  7 11  1  0  0  0  0
  8 12  1  0  0  0  0
 10 14  2  0  0  0  0
 11 15  2  0  0  0  0
 12 13  2  0  0  0  0
 13 15  1  0  0  0  0
M  END
> <PUBCHEM_COMPOUND_ID_TYPE>
0

> <PUBCHEM_TOTAL_CHARGE>
0

> <PUBCHEM_SUBSTANCE_ID>
310945392

> <PUBCHEM_SUBSTANCE_VERSION>
1

> <PUBCHEM_EXT_DATASOURCE_NAME>
4488

> <PUBCHEM_EXT_DATASOURCE_REGID>
SCHEMBL16123490

> <PUBCHEM_SUBSTANCE_COMMENT>
InChI=1S/C12H10N2O2/c1-16-12-11-9(4-5-13-12)8-3-2-7(15)6-10(8)14-11/h2-6,14-15H,1H3
InChIKey=ZAPPUCLZGNNVBY-UHFFFAOYSA-N

> <PUBCHEM_SUBSTANCE_SYNONYM>
SCHEMBL16123490

> <PUBCHEM_XREF_EXT_ID>
SCHEMBL16123490

> <PUBCHEM_EXT_DATASOURCE_URL>
https://www.surechembl.org/

> <PUBCHEM_EXT_SUBSTANCE_URL>
https://www.surechembl.org/chemical/SCHEMBL16123490

> <PUBCHEM_CID_ASSOCIATIONS>
117611441  1

> <PUBCHEM_COORDINATE_TYPE>
1
3

$$$$
