310943010
  -OEChem-07211613022D

 19 20  0     1  0  0  0  0  0999 V2000
   -0.0240    0.3604    0.0000 O   0  0  0  0  0  0  0  0  0  0  0  0
   -0.7576    1.6252    0.0000 O   0  0  0  0  0  0  0  0  0  0  0  0
   -0.3276   -1.6252    0.0000 O   0  0  0  0  0  0  0  0  0  0  0  0
   -0.0240   -0.4743    0.0000 O   0  0  0  0  0  0  0  0  0  0  0  0
   -1.4658    0.3731    0.0000 C   0  0  3  0  0  0  0  0  0  0  0  0
   -1.4911   -0.4489    0.0000 C   0  0  3  0  0  0  0  0  0  0  0  0
   -0.7323    0.7904    0.0000 C   0  0  0  0  0  0  0  0  0  0  0  0
   -0.7449   -0.8789    0.0000 C   0  0  0  0  0  0  0  0  0  0  0  0
   -2.1993    0.7778    0.0000 C   0  0  0  0  0  0  0  0  0  0  0  0
   -2.1867   -0.8916    0.0000 C   0  0  0  0  0  0  0  0  0  0  0  0
   -2.9202    0.3604    0.0000 C   0  0  0  0  0  0  0  0  0  0  0  0
   -2.9202   -0.4743    0.0000 C   0  0  0  0  0  0  0  0  0  0  0  0
    1.4877    0.2686    0.0000 C   0  0  0  0  0  0  0  0  0  0  0  0
    0.6969    0.7525    0.0000 C   0  0  0  0  0  0  0  0  0  0  0  0
    2.2079    0.6708    0.0000 C   0  0  0  0  0  0  0  0  0  0  0  0
    1.4797   -0.5458    0.0000 C   0  0  0  0  0  0  0  0  0  0  0  0
    2.9202    0.2587    0.0000 C   0  0  0  0  0  0  0  0  0  0  0  0
    2.1919   -0.9579    0.0000 C   0  0  0  0  0  0  0  0  0  0  0  0
    2.9122   -0.5556    0.0000 C   0  0  0  0  0  0  0  0  0  0  0  0
  1  7  1  0  0  0  0
  1 14  1  0  0  0  0
  2  7  2  0  0  0  0
  3  8  2  0  0  0  0
  4  8  1  0  0  0  0
  5  6  1  0  0  0  0
  5  7  1  1  0  0  0
  5  9  1  0  0  0  0
  6  8  1  0  0  0  0
  6 10  1  0  0  0  0
  9 11  1  0  0  0  0
 10 12  1  0  0  0  0
 11 12  1  0  0  0  0
 13 14  1  0  0  0  0
 13 15  2  0  0  0  0
 13 16  1  0  0  0  0
 15 17  1  0  0  0  0
 16 18  2  0  0  0  0
 17 19  2  0  0  0  0
 18 19  1  0  0  0  0
M  END
> <PUBCHEM_COMPOUND_ID_TYPE>
0

> <PUBCHEM_TOTAL_CHARGE>
0

> <PUBCHEM_SUBSTANCE_ID>
310943010

> <PUBCHEM_SUBSTANCE_VERSION>
1

> <PUBCHEM_EXT_DATASOURCE_NAME>
4488

> <PUBCHEM_EXT_DATASOURCE_REGID>
SCHEMBL16121069

> <PUBCHEM_SUBSTANCE_COMMENT>
InChI=1S/C15H18O4/c16-14(17)12-8-4-5-9-13(12)15(18)19-10-11-6-2-1-3-7-11/h1-3,6-7,12-13H,4-5,8-10H2,(H,16,17)/t12?,13-/m1/s1
InChIKey=HTICJOPDXYGIBI-ZGTCLIOFSA-N

> <PUBCHEM_SUBSTANCE_SYNONYM>
SCHEMBL16121069

> <PUBCHEM_XREF_EXT_ID>
SCHEMBL16121069

> <PUBCHEM_EXT_DATASOURCE_URL>
https://www.surechembl.org/

> <PUBCHEM_EXT_SUBSTANCE_URL>
https://www.surechembl.org/chemical/SCHEMBL16121069

> <PUBCHEM_CID_ASSOCIATIONS>
117609457  1

> <PUBCHEM_COORDINATE_TYPE>
1
3

> <PUBCHEM_BONDANNOTATIONS>
5  7  5

$$$$
