310932747
  -OEChem-07211613022D

 29 33  0     0  0  0  0  0  0999 V2000
    0.1383   -4.4522    0.0000 O   0  0  0  0  0  0  0  0  0  0  0  0
    5.6690   -3.3184    0.0000 O   0  0  0  0  0  0  0  0  0  0  0  0
    4.3416   -2.6547    0.0000 N   0  0  0  0  0  0  0  0  0  0  0  0
    4.3416   -3.9821    0.0000 N   0  0  0  0  0  0  0  0  0  0  0  0
    0.5531   -5.1712    0.0000 N   0  0  0  0  0  0  0  0  0  0  0  0
    2.1016   -0.4425    0.0000 N   0  0  0  0  0  0  0  0  0  0  0  0
    2.8483   -2.4888    0.0000 C   0  0  0  0  0  0  0  0  0  0  0  0
    3.5673   -2.9036    0.0000 C   0  0  0  0  0  0  0  0  0  0  0  0
    3.5673   -3.7609    0.0000 C   0  0  0  0  0  0  0  0  0  0  0  0
    2.1570   -3.7609    0.0000 C   0  0  0  0  0  0  0  0  0  0  0  0
    2.8483   -1.6869    0.0000 C   0  0  0  0  0  0  0  0  0  0  0  0
    1.4380   -4.1757    0.0000 C   0  0  0  0  0  0  0  0  0  0  0  0
    2.1570   -2.9036    0.0000 C   0  0  0  0  0  0  0  0  0  0  0  0
    2.8483   -4.1480    0.0000 C   0  0  0  0  0  0  0  0  0  0  0  0
    2.1293   -1.2444    0.0000 C   0  0  0  0  0  0  0  0  0  0  0  0
    4.8394   -3.3184    0.0000 C   0  0  0  0  0  0  0  0  0  0  0  0
    0.6914   -3.8439    0.0000 C   0  0  0  0  0  0  0  0  0  0  0  0
    1.3550   -4.9777    0.0000 C   0  0  0  0  0  0  0  0  0  0  0  0
    3.5397   -1.2444    0.0000 C   0  0  0  0  0  0  0  0  0  0  0  0
    1.4104   -1.6592    0.0000 C   0  0  0  0  0  0  0  0  0  0  0  0
    3.5397   -0.4148    0.0000 C   0  0  0  0  0  0  0  0  0  0  0  0
    2.8207    0.0000    0.0000 C   0  0  0  0  0  0  0  0  0  0  0  0
    1.4104   -2.4888    0.0000 C   0  0  0  0  0  0  0  0  0  0  0  0
    0.6914   -1.2721    0.0000 C   0  0  0  0  0  0  0  0  0  0  0  0
    0.4978   -3.0419    0.0000 C   0  0  0  0  0  0  0  0  0  0  0  0
    1.9634   -5.5308    0.0000 C   0  0  0  0  0  0  0  0  0  0  0  0
    0.6914   -2.9036    0.0000 C   0  0  0  0  0  0  0  0  0  0  0  0
    0.0000   -1.6592    0.0000 C   0  0  0  0  0  0  0  0  0  0  0  0
    0.0000   -2.4888    0.0000 C   0  0  0  0  0  0  0  0  0  0  0  0
  1  5  1  0  0  0  0
  1 17  1  0  0  0  0
  2 16  2  0  0  0  0
  3  8  1  0  0  0  0
  3 16  1  0  0  0  0
  4  9  1  0  0  0  0
  4 16  1  0  0  0  0
  5 18  2  0  0  0  0
  6 15  1  0  0  0  0
  6 22  2  0  0  0  0
  7  8  1  0  0  0  0
  7 11  1  0  0  0  0
  7 13  2  0  0  0  0
  8  9  2  0  0  0  0
  9 14  1  0  0  0  0
 10 12  1  0  0  0  0
 10 13  1  0  0  0  0
 10 14  2  0  0  0  0
 11 15  2  0  0  0  0
 11 19  1  0  0  0  0
 12 17  2  0  0  0  0
 12 18  1  0  0  0  0
 15 20  1  0  0  0  0
 17 25  1  0  0  0  0
 18 26  1  0  0  0  0
 19 21  2  0  0  0  0
 20 23  2  0  0  0  0
 20 24  1  0  0  0  0
 21 22  1  0  0  0  0
 23 27  1  0  0  0  0
 24 28  2  0  0  0  0
 27 29  2  0  0  0  0
 28 29  1  0  0  0  0
M  END
> <PUBCHEM_COMPOUND_ID_TYPE>
0

> <PUBCHEM_TOTAL_CHARGE>
0

> <PUBCHEM_SUBSTANCE_ID>
310932747

> <PUBCHEM_SUBSTANCE_VERSION>
1

> <PUBCHEM_EXT_DATASOURCE_NAME>
4488

> <PUBCHEM_EXT_DATASOURCE_REGID>
SCHEMBL16110131

> <PUBCHEM_SUBSTANCE_COMMENT>
InChI=1S/C23H18N4O2/c1-13-20(14(2)29-27-13)16-11-18(22-19(12-16)25-23(28)26-22)17-9-6-10-24-21(17)15-7-4-3-5-8-15/h3-12H,1-2H3,(H2,25,26,28)
InChIKey=QTAFEHGNOVONQR-UHFFFAOYSA-N

> <PUBCHEM_SUBSTANCE_SYNONYM>
SCHEMBL16110131

> <PUBCHEM_XREF_EXT_ID>
SCHEMBL16110131

> <PUBCHEM_EXT_DATASOURCE_URL>
https://www.surechembl.org/

> <PUBCHEM_EXT_SUBSTANCE_URL>
https://www.surechembl.org/chemical/SCHEMBL16110131

> <PUBCHEM_CID_ASSOCIATIONS>
86296385  1

> <PUBCHEM_COORDINATE_TYPE>
1
3

$$$$
