310947430
  -OEChem-07211613022D

 26 28  0     0  0  0  0  0  0999 V2000
   -1.4411   -8.2150    0.0000 O   0  0  0  0  0  0  0  0  0  0  0  0
    2.4477   -7.3335    0.0000 O   0  0  0  0  0  0  0  0  0  0  0  0
   -3.5845   -7.8025    0.0000 O   0  0  0  0  0  0  0  0  0  0  0  0
   -0.0121   -9.0400    0.0000 N   0  0  0  0  0  0  0  0  0  0  0  0
    0.7725   -7.9601    0.0000 N   0  0  0  0  0  0  0  0  0  0  0  0
   -2.1555   -9.4525    0.0000 N   0  0  0  0  0  0  0  0  0  0  0  0
    3.4581   -8.3439    0.0000 N   0  0  0  0  0  0  0  0  0  0  0  0
    0.7725   -9.2950    0.0000 C   0  0  0  0  0  0  0  0  0  0  0  0
    1.2574   -8.6275    0.0000 C   0  0  0  0  0  0  0  0  0  0  0  0
    2.0779   -8.7137    0.0000 C   0  0  0  0  0  0  0  0  0  0  0  0
   -0.0121   -8.2150    0.0000 C   0  0  0  0  0  0  0  0  0  0  0  0
    1.1080  -10.0486    0.0000 C   0  0  0  0  0  0  0  0  0  0  0  0
   -0.7266   -9.4525    0.0000 C   0  0  0  0  0  0  0  0  0  0  0  0
   -1.4411   -9.0400    0.0000 C   0  0  0  0  0  0  0  0  0  0  0  0
    2.6613   -8.1304    0.0000 C   0  0  0  0  0  0  0  0  0  0  0  0
    2.4134   -9.4674    0.0000 C   0  0  0  0  0  0  0  0  0  0  0  0
    1.9285  -10.1349    0.0000 C   0  0  0  0  0  0  0  0  0  0  0  0
   -2.1555  -10.2775    0.0000 C   0  0  0  0  0  0  0  0  0  0  0  0
   -2.8700   -9.0400    0.0000 C   0  0  0  0  0  0  0  0  0  0  0  0
   -1.4411  -10.6900    0.0000 C   0  0  0  0  0  0  0  0  0  0  0  0
   -2.8700  -10.6900    0.0000 C   0  0  0  0  0  0  0  0  0  0  0  0
   -1.4411  -11.5150    0.0000 C   0  0  0  0  0  0  0  0  0  0  0  0
   -2.8700  -11.5150    0.0000 C   0  0  0  0  0  0  0  0  0  0  0  0
   -2.8700   -8.2150    0.0000 C   0  0  0  0  0  0  0  0  0  0  0  0
   -2.1555  -11.9275    0.0000 C   0  0  0  0  0  0  0  0  0  0  0  0
    4.0415   -7.7605    0.0000 C   0  0  0  0  0  0  0  0  0  0  0  0
  1 14  2  0  0  0  0
  2 15  2  0  0  0  0
  3 24  1  0  0  0  0
  4  8  1  0  0  0  0
  4 11  1  0  0  0  0
  4 13  1  0  0  0  0
  5  9  1  0  0  0  0
  5 11  2  0  0  0  0
  6 14  1  0  0  0  0
  6 18  1  0  0  0  0
  6 19  1  0  0  0  0
  7 15  1  0  0  0  0
  7 26  1  0  0  0  0
  8  9  1  0  0  0  0
  8 12  2  0  0  0  0
  9 10  2  0  0  0  0
 10 15  1  0  0  0  0
 10 16  1  0  0  0  0
 12 17  1  0  0  0  0
 13 14  1  0  0  0  0
 16 17  2  0  0  0  0
 18 20  2  0  0  0  0
 18 21  1  0  0  0  0
 19 24  1  0  0  0  0
 20 22  1  0  0  0  0
 21 23  2  0  0  0  0
 22 25  2  0  0  0  0
 23 25  1  0  0  0  0
M  END
> <PUBCHEM_COMPOUND_ID_TYPE>
0

> <PUBCHEM_TOTAL_CHARGE>
0

> <PUBCHEM_SUBSTANCE_ID>
310947430

> <PUBCHEM_SUBSTANCE_VERSION>
1

> <PUBCHEM_EXT_DATASOURCE_NAME>
4488

> <PUBCHEM_EXT_DATASOURCE_REGID>
SCHEMBL16125591

> <PUBCHEM_SUBSTANCE_COMMENT>
InChI=1S/C19H20N4O3/c1-20-19(26)15-8-5-9-16-18(15)21-13-22(16)12-17(25)23(10-11-24)14-6-3-2-4-7-14/h2-9,13,24H,10-12H2,1H3,(H,20,26)
InChIKey=PVZTVLARWQUOLP-UHFFFAOYSA-N

> <PUBCHEM_SUBSTANCE_SYNONYM>
SCHEMBL16125591

> <PUBCHEM_XREF_EXT_ID>
SCHEMBL16125591

> <PUBCHEM_EXT_DATASOURCE_URL>
https://www.surechembl.org/

> <PUBCHEM_EXT_SUBSTANCE_URL>
https://www.surechembl.org/chemical/SCHEMBL16125591

> <PUBCHEM_CID_ASSOCIATIONS>
117613162  1

> <PUBCHEM_COORDINATE_TYPE>
1
3

$$$$
