310940009
  -OEChem-07211613022D

 27 28  0     0  0  0  0  0  0999 V2000
   -8.4902  -10.3097    0.0000 Cl  0  0  0  0  0  0  0  0  0  0  0  0
   -8.4902  -11.9597    0.0000 Cl  0  0  0  0  0  0  0  0  0  0  0  0
   -1.3455  -12.7847    0.0000 O   0  0  0  0  0  0  0  0  0  0  0  0
   -5.6323  -11.9597    0.0000 O   0  0  0  0  0  0  0  0  0  0  0  0
   -4.2034   -9.4847    0.0000 O   0  0  0  0  0  0  0  0  0  0  0  0
   -0.6310  -11.5472    0.0000 O   0  0  0  0  0  0  0  0  0  0  0  0
   -2.0600  -11.5472    0.0000 N   0  0  0  0  0  0  0  0  0  0  0  0
   -4.9179  -10.7222    0.0000 N   0  0  0  0  0  0  0  0  0  0  0  0
   -6.3468  -10.7222    0.0000 C   0  0  0  0  0  0  0  0  0  0  0  0
   -6.3468  -11.5472    0.0000 C   0  0  0  0  0  0  0  0  0  0  0  0
   -3.4889  -10.7222    0.0000 C   0  0  0  0  0  0  0  0  0  0  0  0
   -7.7758  -10.7222    0.0000 C   0  0  0  0  0  0  0  0  0  0  0  0
   -7.7758  -11.5472    0.0000 C   0  0  0  0  0  0  0  0  0  0  0  0
   -7.0613  -10.3097    0.0000 C   0  0  0  0  0  0  0  0  0  0  0  0
   -7.0613  -11.9597    0.0000 C   0  0  0  0  0  0  0  0  0  0  0  0
   -4.2034  -10.3097    0.0000 C   0  0  0  0  0  0  0  0  0  0  0  0
   -5.6323  -10.3097    0.0000 C   0  0  0  0  0  0  0  0  0  0  0  0
   -1.3455  -11.9597    0.0000 C   0  0  0  0  0  0  0  0  0  0  0  0
   -3.4889  -11.5472    0.0000 C   0  0  0  0  0  0  0  0  0  0  0  0
   -2.7745  -10.3097    0.0000 C   0  0  0  0  0  0  0  0  0  0  0  0
   -2.7745  -11.9597    0.0000 C   0  0  0  0  0  0  0  0  0  0  0  0
   -2.0600  -10.7222    0.0000 C   0  0  0  0  0  0  0  0  0  0  0  0
   -0.6310  -13.1972    0.0000 C   0  0  0  0  0  0  0  0  0  0  0  0
    0.0834  -13.6097    0.0000 C   0  0  0  0  0  0  0  0  0  0  0  0
    0.0834  -12.7847    0.0000 C   0  0  0  0  0  0  0  0  0  0  0  0
   -0.6310  -14.0222    0.0000 C   0  0  0  0  0  0  0  0  0  0  0  0
   -4.9179  -11.5472    0.0000 C   0  0  0  0  0  0  0  0  0  0  0  0
  1 12  1  0  0  0  0
  2 13  1  0  0  0  0
  3 18  1  0  0  0  0
  3 23  1  0  0  0  0
  4 10  1  0  0  0  0
  4 27  1  0  0  0  0
  5 16  2  0  0  0  0
  6 18  2  0  0  0  0
  7 18  1  0  0  0  0
  7 21  1  0  0  0  0
  7 22  1  0  0  0  0
  8 16  1  0  0  0  0
  8 17  1  0  0  0  0
  9 10  1  0  0  0  0
  9 14  2  0  0  0  0
  9 17  1  0  0  0  0
 10 15  2  0  0  0  0
 11 16  1  0  0  0  0
 11 19  1  0  0  0  0
 11 20  1  0  0  0  0
 12 13  2  0  0  0  0
 12 14  1  0  0  0  0
 13 15  1  0  0  0  0
 19 21  1  0  0  0  0
 20 22  1  0  0  0  0
 23 24  1  0  0  0  0
 23 25  1  0  0  0  0
 23 26  1  0  0  0  0
M  END
> <PUBCHEM_COMPOUND_ID_TYPE>
0

> <PUBCHEM_TOTAL_CHARGE>
0

> <PUBCHEM_SUBSTANCE_ID>
310940009

> <PUBCHEM_SUBSTANCE_VERSION>
1

> <PUBCHEM_EXT_DATASOURCE_NAME>
4488

> <PUBCHEM_EXT_DATASOURCE_REGID>
SCHEMBL16117939

> <PUBCHEM_SUBSTANCE_COMMENT>
InChI=1S/C19H26Cl2N2O4/c1-19(2,3)27-18(25)23-7-5-12(6-8-23)17(24)22-11-13-9-14(20)15(21)10-16(13)26-4/h9-10,12H,5-8,11H2,1-4H3,(H,22,24)
InChIKey=GCUVESBMYFIRNE-UHFFFAOYSA-N

> <PUBCHEM_SUBSTANCE_SYNONYM>
SCHEMBL16117939

> <PUBCHEM_XREF_EXT_ID>
SCHEMBL16117939

> <PUBCHEM_EXT_DATASOURCE_URL>
https://www.surechembl.org/

> <PUBCHEM_EXT_SUBSTANCE_URL>
https://www.surechembl.org/chemical/SCHEMBL16117939

> <PUBCHEM_CID_ASSOCIATIONS>
117607169  1

> <PUBCHEM_COORDINATE_TYPE>
1
3

$$$$
