310932366
  -OEChem-07211613022D

 26 29  0     0  0  0  0  0  0999 V2000
    2.6888   -2.2305    0.0000 S   0  0  0  0  0  0  0  0  0  0  0  0
    3.6055   -2.2305    0.0000 O   0  0  0  0  0  0  0  0  0  0  0  0
    1.8944   -2.2611    0.0000 O   0  0  0  0  0  0  0  0  0  0  0  0
    0.0000   -5.0110    0.0000 O   0  0  0  0  0  0  0  0  0  0  0  0
    5.5305   -3.9111    0.0000 O   0  0  0  0  0  0  0  0  0  0  0  0
    4.2166   -3.2388    0.0000 N   0  0  0  0  0  0  0  0  0  0  0  0
    4.2166   -4.5527    0.0000 N   0  0  0  0  0  0  0  0  0  0  0  0
    2.6888   -1.4361    0.0000 N   0  0  0  0  0  0  0  0  0  0  0  0
    0.3972   -5.7444    0.0000 N   0  0  0  0  0  0  0  0  0  0  0  0
    2.7194   -3.0861    0.0000 C   0  0  0  0  0  0  0  0  0  0  0  0
    3.4221   -3.4832    0.0000 C   0  0  0  0  0  0  0  0  0  0  0  0
    3.4221   -4.3388    0.0000 C   0  0  0  0  0  0  0  0  0  0  0  0
    2.0166   -4.3388    0.0000 C   0  0  0  0  0  0  0  0  0  0  0  0
    2.0166   -3.4832    0.0000 C   0  0  0  0  0  0  0  0  0  0  0  0
    1.3139   -4.7360    0.0000 C   0  0  0  0  0  0  0  0  0  0  0  0
    2.7194   -4.7360    0.0000 C   0  0  0  0  0  0  0  0  0  0  0  0
    4.7055   -3.9111    0.0000 C   0  0  0  0  0  0  0  0  0  0  0  0
    0.5500   -4.4305    0.0000 C   0  0  0  0  0  0  0  0  0  0  0  0
    1.2222   -5.5610    0.0000 C   0  0  0  0  0  0  0  0  0  0  0  0
    3.3916   -1.0083    0.0000 C   0  0  0  0  0  0  0  0  0  0  0  0
    0.3667   -3.6055    0.0000 C   0  0  0  0  0  0  0  0  0  0  0  0
    1.8333   -6.1110    0.0000 C   0  0  0  0  0  0  0  0  0  0  0  0
    3.4527   -0.1833    0.0000 C   0  0  0  0  0  0  0  0  0  0  0  0
    4.1555   -1.3444    0.0000 C   0  0  0  0  0  0  0  0  0  0  0  0
    4.2777    0.0000    0.0000 C   0  0  0  0  0  0  0  0  0  0  0  0
    4.7055   -0.7027    0.0000 C   0  0  0  0  0  0  0  0  0  0  0  0
  1  2  2  0  0  0  0
  1  3  2  0  0  0  0
  1  8  1  0  0  0  0
  1 10  1  0  0  0  0
  4  9  1  0  0  0  0
  4 18  1  0  0  0  0
  5 17  2  0  0  0  0
  6 11  1  0  0  0  0
  6 17  1  0  0  0  0
  7 12  1  0  0  0  0
  7 17  1  0  0  0  0
  8 20  1  0  0  0  0
  9 19  2  0  0  0  0
 10 11  1  0  0  0  0
 10 14  2  0  0  0  0
 11 12  2  0  0  0  0
 12 16  1  0  0  0  0
 13 14  1  0  0  0  0
 13 15  1  0  0  0  0
 13 16  2  0  0  0  0
 15 18  2  0  0  0  0
 15 19  1  0  0  0  0
 18 21  1  0  0  0  0
 19 22  1  0  0  0  0
 20 23  1  0  0  0  0
 20 24  1  0  0  0  0
 23 25  1  0  0  0  0
 24 26  1  0  0  0  0
 25 26  1  0  0  0  0
M  END
> <PUBCHEM_COMPOUND_ID_TYPE>
0

> <PUBCHEM_TOTAL_CHARGE>
0

> <PUBCHEM_SUBSTANCE_ID>
310932366

> <PUBCHEM_SUBSTANCE_VERSION>
1

> <PUBCHEM_EXT_DATASOURCE_NAME>
4488

> <PUBCHEM_EXT_DATASOURCE_REGID>
SCHEMBL16109732

> <PUBCHEM_SUBSTANCE_COMMENT>
InChI=1S/C17H20N4O4S/c1-9-15(10(2)25-20-9)11-7-13-16(19-17(22)18-13)14(8-11)26(23,24)21-12-5-3-4-6-12/h7-8,12,21H,3-6H2,1-2H3,(H2,18,19,22)
InChIKey=IRDCGYNLXVIMTM-UHFFFAOYSA-N

> <PUBCHEM_SUBSTANCE_SYNONYM>
SCHEMBL16109732

> <PUBCHEM_XREF_EXT_ID>
SCHEMBL16109732

> <PUBCHEM_EXT_DATASOURCE_URL>
https://www.surechembl.org/

> <PUBCHEM_EXT_SUBSTANCE_URL>
https://www.surechembl.org/chemical/SCHEMBL16109732

> <PUBCHEM_CID_ASSOCIATIONS>
117600921  1

> <PUBCHEM_COORDINATE_TYPE>
1
3

$$$$
