310945748
  -OEChem-07211613022D

 30 34  0     1  0  0  0  0  0999 V2000
   -1.8769   -0.2372    0.0000 I   0  0  0  0  0  0  0  0  0  0  0  0
    0.7218    2.5884    0.0000 F   0  0  0  0  0  0  0  0  0  0  0  0
    1.0313    1.5160    0.0000 F   0  0  0  0  0  0  0  0  0  0  0  0
   -0.0206    1.2272    0.0000 F   0  0  0  0  0  0  0  0  0  0  0  0
   -1.7737   -2.7741    0.0000 O   0  0  0  0  0  0  0  0  0  0  0  0
    1.8769   -1.5778    0.0000 O   0  0  0  0  0  0  0  0  0  0  0  0
   -1.0313   -1.4953    0.0000 N   0  0  0  0  0  0  0  0  0  0  0  0
    0.3712   -2.2791    0.0000 N   0  0  0  0  0  0  0  0  0  0  0  0
   -0.0619   -3.5579    0.0000 N   0  0  0  0  0  0  0  0  0  0  0  0
    0.7838   -3.5579    0.0000 N   0  0  0  0  0  0  0  0  0  0  0  0
   -1.5056   -0.1959    0.0000 C   0  0  3  0  0  0  0  0  0  0  0  0
   -0.7218   -0.2166    0.0000 C   0  0  3  0  0  0  0  0  0  0  0  0
   -1.1137    1.0415    0.0000 C   0  0  3  0  0  0  0  0  0  0  0  0
   -1.7325   -1.0415    0.0000 C   0  0  0  0  0  0  0  0  0  0  0  0
   -1.7737    0.5465    0.0000 C   0  0  0  0  0  0  0  0  0  0  0  0
   -0.3919   -0.9797    0.0000 C   0  0  0  0  0  0  0  0  0  0  0  0
   -0.4537    0.5465    0.0000 C   0  0  0  0  0  0  0  0  0  0  0  0
   -1.0313   -2.3203    0.0000 C   0  0  0  0  0  0  0  0  0  0  0  0
   -0.3300   -2.7328    0.0000 C   0  0  0  0  0  0  0  0  0  0  0  0
   -1.1137    1.9490    0.0000 C   0  0  0  0  0  0  0  0  0  0  0  0
   -0.3919    2.3409    0.0000 C   0  0  0  0  0  0  0  0  0  0  0  0
    1.0519   -2.7535    0.0000 C   0  0  0  0  0  0  0  0  0  0  0  0
    0.3300    1.9079    0.0000 C   0  0  0  0  0  0  0  0  0  0  0  0
   -1.8150    2.3203    0.0000 C   0  0  0  0  0  0  0  0  0  0  0  0
    0.4537   -1.4334    0.0000 C   0  0  0  0  0  0  0  0  0  0  0  0
   -0.3919    3.1453    0.0000 C   0  0  0  0  0  0  0  0  0  0  0  0
    1.7944   -2.4235    0.0000 C   0  0  0  0  0  0  0  0  0  0  0  0
   -1.8357    3.1453    0.0000 C   0  0  0  0  0  0  0  0  0  0  0  0
    1.2169   -1.0828    0.0000 C   0  0  0  0  0  0  0  0  0  0  0  0
   -1.1137    3.5579    0.0000 C   0  0  0  0  0  0  0  0  0  0  0  0
  1 11  1  0  0  0  0
  2 23  1  0  0  0  0
  3 23  1  0  0  0  0
  4 23  1  0  0  0  0
  5 18  2  0  0  0  0
  6 27  1  0  0  0  0
  6 29  1  0  0  0  0
  7 14  1  0  0  0  0
  7 16  1  0  0  0  0
  7 18  1  0  0  0  0
  8 19  1  0  0  0  0
  8 22  1  0  0  0  0
  8 25  1  0  0  0  0
  9 10  1  0  0  0  0
  9 19  2  0  0  0  0
 10 22  2  0  0  0  0
 11 12  1  0  0  0  0
 11 14  1  0  0  0  0
 11 15  1  0  0  0  0
 12 16  1  0  0  0  0
 12 17  1  1  0  0  0
 13 15  1  0  0  0  0
 13 17  1  1  0  0  0
 13 20  1  0  0  0  0
 18 19  1  0  0  0  0
 20 21  2  0  0  0  0
 20 24  1  0  0  0  0
 21 23  1  0  0  0  0
 21 26  1  0  0  0  0
 22 27  1  0  0  0  0
 24 28  2  0  0  0  0
 25 29  1  0  0  0  0
 26 30  2  0  0  0  0
 28 30  1  0  0  0  0
M  END
> <PUBCHEM_COMPOUND_ID_TYPE>
0

> <PUBCHEM_TOTAL_CHARGE>
0

> <PUBCHEM_SUBSTANCE_ID>
310945748

> <PUBCHEM_SUBSTANCE_VERSION>
1

> <PUBCHEM_EXT_DATASOURCE_NAME>
4488

> <PUBCHEM_EXT_DATASOURCE_REGID>
SCHEMBL16123852

> <PUBCHEM_SUBSTANCE_COMMENT>
InChI=1S/C20H20F3IN4O2/c21-20(22,23)15-4-2-1-3-14(15)12-7-13-9-27(11-19(13,24)8-12)18(29)17-26-25-16-10-30-6-5-28(16)17/h1-4,12-13H,5-11H2/t12-,13-,19?/m0/s1
InChIKey=VGDBYWZNGGVXOE-LOAJIVSNSA-N

> <PUBCHEM_SUBSTANCE_SYNONYM>
SCHEMBL16123852

> <PUBCHEM_XREF_EXT_ID>
SCHEMBL16123852

> <PUBCHEM_EXT_DATASOURCE_URL>
https://www.surechembl.org/

> <PUBCHEM_EXT_SUBSTANCE_URL>
https://www.surechembl.org/chemical/SCHEMBL16123852

> <PUBCHEM_CID_ASSOCIATIONS>
117611741  1

> <PUBCHEM_COORDINATE_TYPE>
1
3

> <PUBCHEM_BONDANNOTATIONS>
12  17  5
13  17  5

$$$$
