310948045
  -OEChem-07211613022D

 45 49  0     0  0  0  0  0  0999 V2000
    3.1579   -0.0587    0.0000 S   0  0  0  0  0  0  0  0  0  0  0  0
   -4.4145   -0.1089    0.0000 F   0  0  0  0  0  0  0  0  0  0  0  0
   -3.2585    0.0754    0.0000 F   0  0  0  0  0  0  0  0  0  0  0  0
    3.1747   -2.9234    0.0000 F   0  0  0  0  0  0  0  0  0  0  0  0
    3.1245    2.9569    0.0000 F   0  0  0  0  0  0  0  0  0  0  0  0
    2.0690    2.4209    0.0000 F   0  0  0  0  0  0  0  0  0  0  0  0
    3.6438    1.9183    0.0000 F   0  0  0  0  0  0  0  0  0  0  0  0
    2.4544    0.3602    0.0000 O   0  0  0  0  0  0  0  0  0  0  0  0
    3.8784   -0.4774    0.0000 O   0  0  0  0  0  0  0  0  0  0  0  0
    2.6051    1.3822    0.0000 O   0  0  0  0  0  0  0  0  0  0  0  0
    4.4145   -2.2031    0.0000 O   0  0  0  0  0  0  0  0  0  0  0  0
   -0.9800   -0.0587    0.0000 N   0  0  0  0  0  0  0  0  0  0  0  0
   -2.2868   -2.1696    0.0000 N   0  0  0  0  0  0  0  0  0  0  0  0
   -3.0742   -1.9015    0.0000 N   0  0  0  0  0  0  0  0  0  0  0  0
   -1.8009    0.0252    0.0000 N   0  0  0  0  0  0  0  0  0  0  0  0
   -1.9685    0.8293    0.0000 N   0  0  0  0  0  0  0  0  0  0  0  0
   -0.5613   -0.7622    0.0000 C   0  0  0  0  0  0  0  0  0  0  0  0
   -0.9800   -1.4827    0.0000 C   0  0  0  0  0  0  0  0  0  0  0  0
   -1.8009   -1.4659    0.0000 C   0  0  0  0  0  0  0  0  0  0  0  0
    0.6785   -1.4659    0.0000 C   0  0  0  0  0  0  0  0  0  0  0  0
   -0.6283    0.7120    0.0000 C   0  0  0  0  0  0  0  0  0  0  0  0
    0.2765   -0.7957    0.0000 C   0  0  0  0  0  0  0  0  0  0  0  0
    1.5161   -1.4659    0.0000 C   0  0  0  0  0  0  0  0  0  0  0  0
   -3.0742   -1.0638    0.0000 C   0  0  0  0  0  0  0  0  0  0  0  0
   -0.5613   -2.1863    0.0000 C   0  0  0  0  0  0  0  0  0  0  0  0
   -2.2868   -0.8293    0.0000 C   0  0  0  0  0  0  0  0  0  0  0  0
    2.7559   -0.7790    0.0000 C   0  0  0  0  0  0  0  0  0  0  0  0
    0.2765   -2.1863    0.0000 C   0  0  0  0  0  0  0  0  0  0  0  0
    3.1747   -1.4659    0.0000 C   0  0  0  0  0  0  0  0  0  0  0  0
    0.1591    0.8796    0.0000 C   0  0  0  0  0  0  0  0  0  0  0  0
    1.9350   -0.7957    0.0000 C   0  0  0  0  0  0  0  0  0  0  0  0
   -3.7443   -0.5780    0.0000 C   0  0  0  0  0  0  0  0  0  0  0  0
    2.7559   -2.2031    0.0000 C   0  0  0  0  0  0  0  0  0  0  0  0
    1.9183   -2.1863    0.0000 C   0  0  0  0  0  0  0  0  0  0  0  0
   -1.2648    1.2481    0.0000 C   0  0  0  0  0  0  0  0  0  0  0  0
    0.4439    1.6502    0.0000 C   0  0  0  0  0  0  0  0  0  0  0  0
    0.7287    0.2765    0.0000 C   0  0  0  0  0  0  0  0  0  0  0  0
   -2.0188   -2.9570    0.0000 C   0  0  0  0  0  0  0  0  0  0  0  0
    4.0123   -1.4994    0.0000 C   0  0  0  0  0  0  0  0  0  0  0  0
    1.8009    1.2314    0.0000 C   0  0  0  0  0  0  0  0  0  0  0  0
    1.2481    1.8177    0.0000 C   0  0  0  0  0  0  0  0  0  0  0  0
    1.5329    0.4439    0.0000 C   0  0  0  0  0  0  0  0  0  0  0  0
   -4.2469   -1.2648    0.0000 C   0  0  0  0  0  0  0  0  0  0  0  0
    3.5936    0.6785    0.0000 C   0  0  0  0  0  0  0  0  0  0  0  0
    2.8564    2.1863    0.0000 C   0  0  0  0  0  0  0  0  0  0  0  0
  1  8  2  0  0  0  0
  1  9  2  0  0  0  0
  1 27  1  0  0  0  0
  1 44  1  0  0  0  0
  2 32  1  0  0  0  0
  3 32  1  0  0  0  0
  4 33  1  0  0  0  0
  5 45  1  0  0  0  0
  6 45  1  0  0  0  0
  7 45  1  0  0  0  0
 10 40  1  0  0  0  0
 10 45  1  0  0  0  0
 11 39  1  0  0  0  0
 12 15  1  0  0  0  0
 12 17  1  0  0  0  0
 12 21  1  0  0  0  0
 13 14  1  0  0  0  0
 13 19  1  0  0  0  0
 13 38  1  0  0  0  0
 14 24  2  0  0  0  0
 15 16  2  0  0  0  0
 16 35  1  0  0  0  0
 17 18  1  0  0  0  0
 17 22  2  0  0  0  0
 18 19  1  0  0  0  0
 18 25  2  0  0  0  0
 19 26  2  0  0  0  0
 20 22  1  0  0  0  0
 20 23  1  0  0  0  0
 20 28  2  0  0  0  0
 21 30  1  0  0  0  0
 21 35  2  0  0  0  0
 23 31  2  0  0  0  0
 23 34  1  0  0  0  0
 24 26  1  0  0  0  0
 24 32  1  0  0  0  0
 25 28  1  0  0  0  0
 27 29  2  0  0  0  0
 27 31  1  0  0  0  0
 29 33  1  0  0  0  0
 29 39  1  0  0  0  0
 30 36  2  0  0  0  0
 30 37  1  0  0  0  0
 32 43  1  0  0  0  0
 33 34  2  0  0  0  0
 36 41  1  0  0  0  0
 37 42  2  0  0  0  0
 40 41  2  0  0  0  0
 40 42  1  0  0  0  0
M  END
> <PUBCHEM_COMPOUND_ID_TYPE>
0

> <PUBCHEM_TOTAL_CHARGE>
0

> <PUBCHEM_SUBSTANCE_ID>
310948045

> <PUBCHEM_SUBSTANCE_VERSION>
1

> <PUBCHEM_EXT_DATASOURCE_NAME>
4488

> <PUBCHEM_EXT_DATASOURCE_REGID>
SCHEMBL16126220

> <PUBCHEM_SUBSTANCE_COMMENT>
InChI=1S/C29H23F6N5O4S/c1-28(31,32)27-13-23(39(2)37-27)20-9-6-17(18-10-22(30)21(15-41)26(12-18)45(3,42)43)11-24(20)40-25(14-36-38-40)16-4-7-19(8-5-16)44-29(33,34)35/h4-14,41H,15H2,1-3H3
InChIKey=HKSWSNBPRYJOAR-UHFFFAOYSA-N

> <PUBCHEM_SUBSTANCE_SYNONYM>
SCHEMBL16126220

> <PUBCHEM_XREF_EXT_ID>
SCHEMBL16126220

> <PUBCHEM_EXT_DATASOURCE_URL>
https://www.surechembl.org/

> <PUBCHEM_EXT_SUBSTANCE_URL>
https://www.surechembl.org/chemical/SCHEMBL16126220

> <PUBCHEM_CID_ASSOCIATIONS>
86276044  1

> <PUBCHEM_COORDINATE_TYPE>
1
3

$$$$
