310949493
  -OEChem-07211613022D

 28 30  0     0  0  0  0  0  0999 V2000
   -1.6982    2.3497    0.0000 Cl  0  0  0  0  0  0  0  0  0  0  0  0
   -3.8650    1.1346    0.0000 F   0  0  0  0  0  0  0  0  0  0  0  0
   -3.7330    2.1300    0.0000 F   0  0  0  0  0  0  0  0  0  0  0  0
   -3.1329    2.3497    0.0000 F   0  0  0  0  0  0  0  0  0  0  0  0
   -0.3074    2.3497    0.0000 O   0  0  0  0  0  0  0  0  0  0  0  0
    0.4099    1.1346    0.0000 N   0  0  0  0  0  0  0  0  0  0  0  0
    2.6498    0.0073    0.0000 N   0  0  0  0  0  0  0  0  0  0  0  0
    2.6498    1.3542    0.0000 N   0  0  0  0  0  0  0  0  0  0  0  0
    3.1329    0.7100    0.0000 N   0  0  0  0  0  0  0  0  0  0  0  0
   -0.9955    1.1493    0.0000 C   0  0  0  0  0  0  0  0  0  0  0  0
   -1.7275    1.5299    0.0000 C   0  0  0  0  0  0  0  0  0  0  0  0
   -2.4009    1.1493    0.0000 C   0  0  0  0  0  0  0  0  0  0  0  0
   -0.2928    1.5152    0.0000 C   0  0  0  0  0  0  0  0  0  0  0  0
   -3.1621    1.5591    0.0000 C   0  0  0  0  0  0  0  0  0  0  0  0
    1.9031    1.1493    0.0000 C   0  0  0  0  0  0  0  0  0  0  0  0
   -0.9955    0.2855    0.0000 C   0  0  0  0  0  0  0  0  0  0  0  0
    1.8739    0.2855    0.0000 C   0  0  0  0  0  0  0  0  0  0  0  0
    1.1565    1.5299    0.0000 C   0  0  0  0  0  0  0  0  0  0  0  0
   -2.4009    0.2855    0.0000 C   0  0  0  0  0  0  0  0  0  0  0  0
    0.4392    0.2708    0.0000 C   0  0  0  0  0  0  0  0  0  0  0  0
   -1.7128   -0.0952    0.0000 C   0  0  0  0  0  0  0  0  0  0  0  0
    1.1712   -0.1098    0.0000 C   0  0  0  0  0  0  0  0  0  0  0  0
    2.8694   -0.7392    0.0000 C   0  0  0  0  0  0  0  0  0  0  0  0
    3.6452   -0.9736    0.0000 C   0  0  0  0  0  0  0  0  0  0  0  0
    2.2838   -1.3542    0.0000 C   0  0  0  0  0  0  0  0  0  0  0  0
    3.8650   -1.7933    0.0000 C   0  0  0  0  0  0  0  0  0  0  0  0
    2.4888   -2.1300    0.0000 C   0  0  0  0  0  0  0  0  0  0  0  0
    3.3232   -2.3497    0.0000 C   0  0  0  0  0  0  0  0  0  0  0  0
  1 11  1  0  0  0  0
  2 14  1  0  0  0  0
  3 14  1  0  0  0  0
  4 14  1  0  0  0  0
  5 13  2  0  0  0  0
  6 13  1  0  0  0  0
  6 18  1  0  0  0  0
  6 20  1  0  0  0  0
  7 17  1  0  0  0  0
  7 23  1  0  0  0  0
  8  9  2  3  0  0  0
  8 15  1  0  0  0  0
 10 11  2  0  0  0  0
 10 13  1  0  0  0  0
 10 16  1  0  0  0  0
 11 12  1  0  0  0  0
 12 14  1  0  0  0  0
 12 19  2  0  0  0  0
 15 17  2  0  0  0  0
 15 18  1  0  0  0  0
 16 21  2  0  0  0  0
 17 22  1  0  0  0  0
 19 21  1  0  0  0  0
 20 22  1  0  0  0  0
 23 24  2  0  0  0  0
 23 25  1  0  0  0  0
 24 26  1  0  0  0  0
 25 27  2  0  0  0  0
 26 28  2  0  0  0  0
 27 28  1  0  0  0  0
M  END
> <PUBCHEM_COMPOUND_ID_TYPE>
0

> <PUBCHEM_TOTAL_CHARGE>
0

> <PUBCHEM_SUBSTANCE_ID>
310949493

> <PUBCHEM_SUBSTANCE_VERSION>
1

> <PUBCHEM_EXT_DATASOURCE_NAME>
4488

> <PUBCHEM_EXT_DATASOURCE_REGID>
SCHEMBL16127688

> <PUBCHEM_SUBSTANCE_COMMENT>
InChI=1S/C19H16ClF3N4O/c20-17-13(7-4-8-14(17)19(21,22)23)18(28)27-10-9-15(16(11-27)26-24)25-12-5-2-1-3-6-12/h1-8,24-25H,9-11H2
InChIKey=PFQCQNDXCCQARK-UHFFFAOYSA-N

> <PUBCHEM_SUBSTANCE_SYNONYM>
SCHEMBL16127688

> <PUBCHEM_XREF_EXT_ID>
SCHEMBL16127688

> <PUBCHEM_EXT_DATASOURCE_URL>
https://www.surechembl.org/

> <PUBCHEM_EXT_SUBSTANCE_URL>
https://www.surechembl.org/chemical/SCHEMBL16127688

> <PUBCHEM_CID_ASSOCIATIONS>
117614935  1

> <PUBCHEM_COORDINATE_TYPE>
1
3

$$$$
