310947327
  -OEChem-07211613022D

 36 40  0     0  0  0  0  0  0999 V2000
   -2.6122    2.2906    0.0000 O   0  0  0  0  0  0  0  0  0  0  0  0
    3.5858    0.1430    0.0000 O   0  0  0  0  0  0  0  0  0  0  0  0
    5.0147    0.1430    0.0000 O   0  0  0  0  0  0  0  0  0  0  0  0
    0.3158   -0.0269    0.0000 N   0  0  0  0  0  0  0  0  0  0  0  0
    0.8008    0.6406    0.0000 N   0  0  0  0  0  0  0  0  0  0  0  0
   -3.3267    1.0531    0.0000 N   0  0  0  0  0  0  0  0  0  0  0  0
   -0.4688    1.0531    0.0000 C   0  0  0  0  0  0  0  0  0  0  0  0
   -0.4688    0.2281    0.0000 C   0  0  0  0  0  0  0  0  0  0  0  0
    0.3158    1.3080    0.0000 C   0  0  0  0  0  0  0  0  0  0  0  0
   -1.1833    1.4656    0.0000 C   0  0  0  0  0  0  0  0  0  0  0  0
   -1.8977    1.0531    0.0000 C   0  0  0  0  0  0  0  0  0  0  0  0
   -1.1833   -0.1844    0.0000 C   0  0  0  0  0  0  0  0  0  0  0  0
    0.5294   -0.8238    0.0000 C   0  0  0  0  0  0  0  0  0  0  0  0
    0.5294    2.1049    0.0000 C   0  0  0  0  0  0  0  0  0  0  0  0
   -1.8977    0.2281    0.0000 C   0  0  0  0  0  0  0  0  0  0  0  0
    1.3262   -1.0373    0.0000 C   0  0  0  0  0  0  0  0  0  0  0  0
   -2.6122    1.4656    0.0000 C   0  0  0  0  0  0  0  0  0  0  0  0
    2.9200   -1.4643    0.0000 C   0  0  0  0  0  0  0  0  0  0  0  0
    3.7169   -1.6779    0.0000 C   0  0  0  0  0  0  0  0  0  0  0  0
    1.5398   -1.8342    0.0000 C   0  0  0  0  0  0  0  0  0  0  0  0
    1.9096   -0.4539    0.0000 C   0  0  0  0  0  0  0  0  0  0  0  0
    4.3003   -1.0945    0.0000 C   0  0  0  0  0  0  0  0  0  0  0  0
    2.3367   -2.0477    0.0000 C   0  0  0  0  0  0  0  0  0  0  0  0
    2.7065   -0.6674    0.0000 C   0  0  0  0  0  0  0  0  0  0  0  0
   -0.0540    2.6883    0.0000 C   0  0  0  0  0  0  0  0  0  0  0  0
    1.3262    2.3184    0.0000 C   0  0  0  0  0  0  0  0  0  0  0  0
    3.9304   -2.4747    0.0000 C   0  0  0  0  0  0  0  0  0  0  0  0
   -4.0411    1.4656    0.0000 C   0  0  0  0  0  0  0  0  0  0  0  0
    4.3003   -0.2695    0.0000 C   0  0  0  0  0  0  0  0  0  0  0  0
    5.0972   -1.3080    0.0000 C   0  0  0  0  0  0  0  0  0  0  0  0
    4.7273   -2.6883    0.0000 C   0  0  0  0  0  0  0  0  0  0  0  0
    5.3107   -2.1049    0.0000 C   0  0  0  0  0  0  0  0  0  0  0  0
   -4.0411    2.2906    0.0000 C   0  0  0  0  0  0  0  0  0  0  0  0
   -4.8258    1.2106    0.0000 C   0  0  0  0  0  0  0  0  0  0  0  0
   -4.8258    2.5455    0.0000 C   0  0  0  0  0  0  0  0  0  0  0  0
   -5.3107    1.8781    0.0000 C   0  0  0  0  0  0  0  0  0  0  0  0
  1 17  2  0  0  0  0
  2 29  2  0  0  0  0
  3 29  1  0  0  0  0
  4  5  1  0  0  0  0
  4  8  1  0  0  0  0
  4 13  1  0  0  0  0
  5  9  2  0  0  0  0
  6 17  1  0  0  0  0
  6 28  1  0  0  0  0
  7  8  1  0  0  0  0
  7  9  1  0  0  0  0
  7 10  2  0  0  0  0
  8 12  2  0  0  0  0
  9 14  1  0  0  0  0
 10 11  1  0  0  0  0
 11 15  2  0  0  0  0
 11 17  1  0  0  0  0
 12 15  1  0  0  0  0
 13 16  1  0  0  0  0
 14 25  1  0  0  0  0
 14 26  1  0  0  0  0
 16 20  2  0  0  0  0
 16 21  1  0  0  0  0
 18 19  1  0  0  0  0
 18 23  2  0  0  0  0
 18 24  1  0  0  0  0
 19 22  1  0  0  0  0
 19 27  2  0  0  0  0
 20 23  1  0  0  0  0
 21 24  2  0  0  0  0
 22 29  1  0  0  0  0
 22 30  2  0  0  0  0
 27 31  1  0  0  0  0
 28 33  1  0  0  0  0
 28 34  1  0  0  0  0
 30 32  1  0  0  0  0
 31 32  2  0  0  0  0
 33 35  1  0  0  0  0
 34 36  1  0  0  0  0
 35 36  1  0  0  0  0
M  END
> <PUBCHEM_COMPOUND_ID_TYPE>
0

> <PUBCHEM_TOTAL_CHARGE>
0

> <PUBCHEM_SUBSTANCE_ID>
310947327

> <PUBCHEM_SUBSTANCE_VERSION>
1

> <PUBCHEM_EXT_DATASOURCE_NAME>
4488

> <PUBCHEM_EXT_DATASOURCE_REGID>
SCHEMBL16125482

> <PUBCHEM_SUBSTANCE_COMMENT>
InChI=1S/C30H31N3O3/c1-19(2)28-26-17-22(29(34)31-23-7-3-4-8-23)15-16-27(26)33(32-28)18-20-11-13-21(14-12-20)24-9-5-6-10-25(24)30(35)36/h5-6,9-17,19,23H,3-4,7-8,18H2,1-2H3,(H,31,34)(H,35,36)
InChIKey=LXTHELJSQOGCTN-UHFFFAOYSA-N

> <PUBCHEM_SUBSTANCE_SYNONYM>
SCHEMBL16125482

> <PUBCHEM_XREF_EXT_ID>
SCHEMBL16125482

> <PUBCHEM_EXT_DATASOURCE_URL>
https://www.surechembl.org/

> <PUBCHEM_EXT_SUBSTANCE_URL>
https://www.surechembl.org/chemical/SCHEMBL16125482

> <PUBCHEM_CID_ASSOCIATIONS>
71577223  1

> <PUBCHEM_COORDINATE_TYPE>
1
3

$$$$
