310942824
  -OEChem-07211613022D

 26 27  0     1  0  0  0  0  0999 V2000
    1.3704    2.6258    0.0000 F   0  0  0  0  0  0  0  0  0  0  0  0
   -1.9262    2.2808    0.0000 F   0  0  0  0  0  0  0  0  0  0  0  0
    2.5395   -1.8592    0.0000 O   0  0  0  0  0  0  0  0  0  0  0  0
   -1.7729   -1.4566    0.0000 O   0  0  0  0  0  0  0  0  0  0  0  0
   -1.0063   -0.1917    0.0000 O   0  0  0  0  0  0  0  0  0  0  0  0
    0.4312    0.3067    0.0000 N   0  0  0  0  0  0  0  0  0  0  0  0
    1.7729    0.3067    0.0000 N   0  0  0  0  0  0  0  0  0  0  0  0
    0.3929   -1.4183    0.0000 N   0  0  0  0  0  0  0  0  0  0  0  0
    1.1021   -0.1725    0.0000 C   0  0  0  0  0  0  0  0  0  0  0  0
    1.0829   -1.0158    0.0000 C   0  0  3  0  0  0  0  0  0  0  0  0
    0.6996    1.1308    0.0000 C   0  0  0  0  0  0  0  0  0  0  0  0
    0.1821    1.7825    0.0000 C   0  0  0  0  0  0  0  0  0  0  0  0
    1.8496   -1.4374    0.0000 C   0  0  0  0  0  0  0  0  0  0  0  0
    1.5237    1.0925    0.0000 C   0  0  0  0  0  0  0  0  0  0  0  0
    0.5270    2.5300    0.0000 C   0  0  0  0  0  0  0  0  0  0  0  0
   -0.6229    1.7058    0.0000 C   0  0  0  0  0  0  0  0  0  0  0  0
   -1.0063   -1.0158    0.0000 C   0  0  0  0  0  0  0  0  0  0  0  0
   -1.1021    2.3574    0.0000 C   0  0  0  0  0  0  0  0  0  0  0  0
    0.0479    3.2008    0.0000 C   0  0  0  0  0  0  0  0  0  0  0  0
    2.5587   -0.9967    0.0000 C   0  0  0  0  0  0  0  0  0  0  0  0
    1.8496   -2.2808    0.0000 C   0  0  0  0  0  0  0  0  0  0  0  0
   -0.7571    3.1241    0.0000 C   0  0  0  0  0  0  0  0  0  0  0  0
   -1.7921   -2.3383    0.0000 C   0  0  0  0  0  0  0  0  0  0  0  0
   -2.5587   -2.3766    0.0000 C   0  0  0  0  0  0  0  0  0  0  0  0
   -1.0063   -2.3383    0.0000 C   0  0  0  0  0  0  0  0  0  0  0  0
   -1.7729   -3.2008    0.0000 C   0  0  0  0  0  0  0  0  0  0  0  0
  1 15  1  0  0  0  0
  2 18  1  0  0  0  0
  3 13  1  0  0  0  0
  4 17  1  0  0  0  0
  4 23  1  0  0  0  0
  5 17  2  0  0  0  0
  6  9  2  0  0  0  0
  6 11  1  0  0  0  0
  7  9  1  0  0  0  0
  7 14  1  0  0  0  0
 10  8  1  1  0  0  0
  8 17  1  0  0  0  0
  9 10  1  0  0  0  0
 10 13  1  0  0  0  0
 11 12  1  0  0  0  0
 11 14  2  0  0  0  0
 12 15  2  0  0  0  0
 12 16  1  0  0  0  0
 13 20  1  0  0  0  0
 13 21  1  0  0  0  0
 15 19  1  0  0  0  0
 16 18  2  0  0  0  0
 18 22  1  0  0  0  0
 19 22  2  0  0  0  0
 23 24  1  0  0  0  0
 23 25  1  0  0  0  0
 23 26  1  0  0  0  0
M  END
> <PUBCHEM_COMPOUND_ID_TYPE>
0

> <PUBCHEM_TOTAL_CHARGE>
0

> <PUBCHEM_SUBSTANCE_ID>
310942824

> <PUBCHEM_SUBSTANCE_VERSION>
1

> <PUBCHEM_EXT_DATASOURCE_NAME>
4488

> <PUBCHEM_EXT_DATASOURCE_REGID>
SCHEMBL16120879

> <PUBCHEM_SUBSTANCE_COMMENT>
InChI=1S/C18H23F2N3O3/c1-17(2,3)26-16(24)23-14(18(4,5)25)15-21-9-13(22-15)11-8-10(19)6-7-12(11)20/h6-9,14,25H,1-5H3,(H,21,22)(H,23,24)/t14-/m0/s1
InChIKey=RKUSPGWENKMYKW-AWEZNQCLSA-N

> <PUBCHEM_SUBSTANCE_SYNONYM>
SCHEMBL16120879

> <PUBCHEM_XREF_EXT_ID>
SCHEMBL16120879

> <PUBCHEM_EXT_DATASOURCE_URL>
https://www.surechembl.org/

> <PUBCHEM_EXT_SUBSTANCE_URL>
https://www.surechembl.org/chemical/SCHEMBL16120879

> <PUBCHEM_CID_ASSOCIATIONS>
117609325  1

> <PUBCHEM_COORDINATE_TYPE>
1
3

> <PUBCHEM_BONDANNOTATIONS>
10  8  5

$$$$
