310941473
  -OEChem-07211613022D

 31 33  0     0  0  0  0  0  0999 V2000
    1.6428   -1.4297    0.0000 O   0  0  0  0  0  0  0  0  0  0  0  0
   -1.6566   -1.4297    0.0000 O   0  0  0  0  0  0  0  0  0  0  0  0
    4.0349   -0.7149    0.0000 O   0  0  0  0  0  0  0  0  0  0  0  0
    0.4055   -2.1446    0.0000 O   0  0  0  0  0  0  0  0  0  0  0  0
   -0.4193   -2.1446    0.0000 O   0  0  0  0  0  0  0  0  0  0  0  0
   -4.0349   -0.7424    0.0000 O   0  0  0  0  0  0  0  0  0  0  0  0
    0.3918   -0.7149    0.0000 C   0  0  0  0  0  0  0  0  0  0  0  0
   -0.4468   -0.6736    0.0000 C   0  0  0  0  0  0  0  0  0  0  0  0
    0.3781    0.7012    0.0000 C   0  0  0  0  0  0  0  0  0  0  0  0
   -0.4468    0.7286    0.0000 C   0  0  0  0  0  0  0  0  0  0  0  0
    2.8664   -0.6874    0.0000 C   0  0  0  0  0  0  0  0  0  0  0  0
    0.8180   -1.3748    0.0000 C   0  0  0  0  0  0  0  0  0  0  0  0
    0.8042   -0.0137    0.0000 C   0  0  0  0  0  0  0  0  0  0  0  0
   -0.8318   -0.0137    0.0000 C   0  0  0  0  0  0  0  0  0  0  0  0
   -0.8318   -1.4022    0.0000 C   0  0  0  0  0  0  0  0  0  0  0  0
    2.0140   -0.7149    0.0000 C   0  0  0  0  0  0  0  0  0  0  0  0
    3.4301   -0.1237    0.0000 C   0  0  0  0  0  0  0  0  0  0  0  0
    3.4713   -1.2510    0.0000 C   0  0  0  0  0  0  0  0  0  0  0  0
    0.7905    1.4022    0.0000 C   0  0  0  0  0  0  0  0  0  0  0  0
   -0.8318    1.4022    0.0000 C   0  0  0  0  0  0  0  0  0  0  0  0
    2.5640    0.0000    0.0000 C   0  0  0  0  0  0  0  0  0  0  0  0
   -2.9076   -0.6874    0.0000 C   0  0  0  0  0  0  0  0  0  0  0  0
   -2.0828   -0.7149    0.0000 C   0  0  0  0  0  0  0  0  0  0  0  0
    0.3781    2.1446    0.0000 C   0  0  0  0  0  0  0  0  0  0  0  0
   -0.4468    2.1309    0.0000 C   0  0  0  0  0  0  0  0  0  0  0  0
   -3.4438   -1.2785    0.0000 C   0  0  0  0  0  0  0  0  0  0  0  0
   -3.4850   -0.1512    0.0000 C   0  0  0  0  0  0  0  0  0  0  0  0
   -2.5914    0.0825    0.0000 C   0  0  0  0  0  0  0  0  0  0  0  0
    2.9901    0.9211    0.0000 C   0  0  0  0  0  0  0  0  0  0  0  0
   -3.8562   -0.5224    0.0000 C   0  0  0  0  0  0  0  0  0  0  0  0
   -3.1276    0.9211    0.0000 C   0  0  0  0  0  0  0  0  0  0  0  0
  1 12  1  0  0  0  0
  1 16  1  0  0  0  0
  2 15  1  0  0  0  0
  2 23  1  0  0  0  0
  3 17  1  0  0  0  0
  3 18  1  0  0  0  0
  4 12  2  0  0  0  0
  5 15  2  0  0  0  0
  6 26  1  0  0  0  0
  7  8  1  0  0  0  0
  7 12  1  0  0  0  0
  7 13  2  0  0  0  0
  8 14  2  0  0  0  0
  8 15  1  0  0  0  0
  9 10  1  0  0  0  0
  9 13  1  0  0  0  0
  9 19  2  0  0  0  0
 10 14  1  0  0  0  0
 10 20  2  0  0  0  0
 11 16  1  0  0  0  0
 11 17  1  0  0  0  0
 11 18  1  0  0  0  0
 11 21  1  0  0  0  0
 19 24  1  0  0  0  0
 20 25  1  0  0  0  0
 21 29  1  0  0  0  0
 22 23  1  0  0  0  0
 22 26  1  0  0  0  0
 22 27  1  0  0  0  0
 22 28  1  0  0  0  0
 24 25  2  0  0  0  0
 27 30  1  0  0  0  0
 28 31  1  0  0  0  0
M  END
> <PUBCHEM_COMPOUND_ID_TYPE>
0

> <PUBCHEM_TOTAL_CHARGE>
0

> <PUBCHEM_SUBSTANCE_ID>
310941473

> <PUBCHEM_SUBSTANCE_VERSION>
1

> <PUBCHEM_EXT_DATASOURCE_NAME>
4488

> <PUBCHEM_EXT_DATASOURCE_REGID>
SCHEMBL16119504

> <PUBCHEM_SUBSTANCE_COMMENT>
InChI=1S/C25H32O6/c1-4-24(5-2,13-26)16-30-22(27)20-11-18-9-7-8-10-19(18)12-21(20)23(28)31-17-25(6-3)14-29-15-25/h7-12,26H,4-6,13-17H2,1-3H3
InChIKey=ZDBWUGFEWRHVPN-UHFFFAOYSA-N

> <PUBCHEM_SUBSTANCE_SYNONYM>
SCHEMBL16119504

> <PUBCHEM_XREF_EXT_ID>
SCHEMBL16119504

> <PUBCHEM_EXT_DATASOURCE_URL>
https://www.surechembl.org/

> <PUBCHEM_EXT_SUBSTANCE_URL>
https://www.surechembl.org/chemical/SCHEMBL16119504

> <PUBCHEM_CID_ASSOCIATIONS>
117608295  1

> <PUBCHEM_COORDINATE_TYPE>
1
3

$$$$
