310935870
  -OEChem-07211613022D

 38 41  0     0  0  0  0  0  0999 V2000
    3.7279    5.4011    0.0000 F   0  0  0  0  0  0  0  0  0  0  0  0
    1.2574    2.4570    0.0000 O   0  0  0  0  0  0  0  0  0  0  0  0
    3.4339    0.8211    0.0000 O   0  0  0  0  0  0  0  0  0  0  0  0
    2.5148   -0.8250    0.0000 O   0  0  0  0  0  0  0  0  0  0  0  0
   -2.4865    0.4125    0.0000 O   0  0  0  0  0  0  0  0  0  0  0  0
    3.8038    2.2014    0.0000 N   0  0  0  0  0  0  0  0  0  0  0  0
    3.2293    0.4125    0.0000 N   0  0  0  0  0  0  0  0  0  0  0  0
    1.8004    1.2375    0.0000 C   0  0  0  0  0  0  0  0  0  0  0  0
    2.4135    1.7895    0.0000 C   0  0  0  0  0  0  0  0  0  0  0  0
    2.0779    2.5432    0.0000 C   0  0  0  0  0  0  0  0  0  0  0  0
    1.0859    1.6500    0.0000 C   0  0  0  0  0  0  0  0  0  0  0  0
    1.8004    0.4125    0.0000 C   0  0  0  0  0  0  0  0  0  0  0  0
    3.2205    1.6180    0.0000 C   0  0  0  0  0  0  0  0  0  0  0  0
    2.4904    3.2577    0.0000 C   0  0  0  0  0  0  0  0  0  0  0  0
    0.3714    1.2375    0.0000 C   0  0  0  0  0  0  0  0  0  0  0  0
    1.0859    0.0000    0.0000 C   0  0  0  0  0  0  0  0  0  0  0  0
    0.3714    0.4125    0.0000 C   0  0  0  0  0  0  0  0  0  0  0  0
    2.5148    0.0000    0.0000 C   0  0  0  0  0  0  0  0  0  0  0  0
    2.0779    3.9721    0.0000 C   0  0  0  0  0  0  0  0  0  0  0  0
    3.3154    3.2577    0.0000 C   0  0  0  0  0  0  0  0  0  0  0  0
    4.6007    1.9878    0.0000 C   0  0  0  0  0  0  0  0  0  0  0  0
   -0.3431    0.0000    0.0000 C   0  0  0  0  0  0  0  0  0  0  0  0
    2.4904    4.6867    0.0000 C   0  0  0  0  0  0  0  0  0  0  0  0
    3.7279    3.9721    0.0000 C   0  0  0  0  0  0  0  0  0  0  0  0
    3.6437    2.7991    0.0000 C   0  0  0  0  0  0  0  0  0  0  0  0
    3.3154    4.6867    0.0000 C   0  0  0  0  0  0  0  0  0  0  0  0
    5.1841    2.5712    0.0000 C   0  0  0  0  0  0  0  0  0  0  0  0
    4.8142    1.1909    0.0000 C   0  0  0  0  0  0  0  0  0  0  0  0
   -1.0575    0.4125    0.0000 C   0  0  0  0  0  0  0  0  0  0  0  0
    3.9438    0.0000    0.0000 C   0  0  0  0  0  0  0  0  0  0  0  0
    5.9810    2.3577    0.0000 C   0  0  0  0  0  0  0  0  0  0  0  0
    5.6111    0.9774    0.0000 C   0  0  0  0  0  0  0  0  0  0  0  0
    6.1945    1.5608    0.0000 C   0  0  0  0  0  0  0  0  0  0  0  0
   -1.7720    0.0000    0.0000 C   0  0  0  0  0  0  0  0  0  0  0  0
    4.6582    0.4125    0.0000 C   0  0  0  0  0  0  0  0  0  0  0  0
    5.3727    0.0000    0.0000 C   0  0  0  0  0  0  0  0  0  0  0  0
    6.0872    0.4125    0.0000 C   0  0  0  0  0  0  0  0  0  0  0  0
    6.8017    0.0000    0.0000 C   0  0  0  0  0  0  0  0  0  0  0  0
  1 26  1  0  0  0  0
  2 10  1  0  0  0  0
  2 11  1  0  0  0  0
  3 13  2  0  0  0  0
  4 18  2  0  0  0  0
  5 34  2  0  0  0  0
  6 13  1  0  0  0  0
  6 21  1  0  0  0  0
  6 25  1  0  0  0  0
  7 18  1  0  0  0  0
  7 30  1  0  0  0  0
  8  9  1  0  0  0  0
  8 11  1  0  0  0  0
  8 12  2  0  0  0  0
  9 10  2  0  0  0  0
  9 13  1  0  0  0  0
 10 14  1  0  0  0  0
 11 15  2  0  0  0  0
 12 16  1  0  0  0  0
 12 18  1  0  0  0  0
 14 19  2  0  0  0  0
 14 20  1  0  0  0  0
 15 17  1  0  0  0  0
 16 17  2  0  0  0  0
 17 22  1  0  0  0  0
 19 23  1  0  0  0  0
 20 24  2  0  0  0  0
 21 27  2  0  0  0  0
 21 28  1  0  0  0  0
 22 29  1  0  0  0  0
 23 26  2  0  0  0  0
 24 26  1  0  0  0  0
 27 31  1  0  0  0  0
 28 32  2  0  0  0  0
 29 34  1  0  0  0  0
 30 35  1  0  0  0  0
 31 33  2  0  0  0  0
 32 33  1  0  0  0  0
 35 36  1  0  0  0  0
 36 37  1  0  0  0  0
 37 38  1  0  0  0  0
M  END
> <PUBCHEM_COMPOUND_ID_TYPE>
0

> <PUBCHEM_TOTAL_CHARGE>
0

> <PUBCHEM_SUBSTANCE_ID>
310935870

> <PUBCHEM_SUBSTANCE_VERSION>
1

> <PUBCHEM_EXT_DATASOURCE_NAME>
4488

> <PUBCHEM_EXT_DATASOURCE_REGID>
SCHEMBL16113463

> <PUBCHEM_SUBSTANCE_COMMENT>
InChI=1S/C31H31FN2O4/c1-3-4-8-17-33-30(36)25-19-21(10-9-18-35)20-26-27(25)28(29(38-26)22-13-15-23(32)16-14-22)31(37)34(2)24-11-6-5-7-12-24/h5-7,11-16,18-20H,3-4,8-10,17H2,1-2H3,(H,33,36)
InChIKey=GSHZDPCOVGTUAN-UHFFFAOYSA-N

> <PUBCHEM_SUBSTANCE_SYNONYM>
SCHEMBL16113463

> <PUBCHEM_XREF_EXT_ID>
SCHEMBL16113463

> <PUBCHEM_EXT_DATASOURCE_URL>
https://www.surechembl.org/

> <PUBCHEM_EXT_SUBSTANCE_URL>
https://www.surechembl.org/chemical/SCHEMBL16113463

> <PUBCHEM_CID_ASSOCIATIONS>
117603859  1

> <PUBCHEM_COORDINATE_TYPE>
1
3

$$$$
