310931187
  -OEChem-07211613022D

 35 39  0     0  0  0  0  0  0999 V2000
    6.3975   -2.8554    0.0000 S   0  0  0  0  0  0  0  0  0  0  0  0
    7.0843   -3.2891    0.0000 O   0  0  0  0  0  0  0  0  0  0  0  0
    6.7951   -2.1686    0.0000 O   0  0  0  0  0  0  0  0  0  0  0  0
    3.9036   -7.1204    0.0000 O   0  0  0  0  0  0  0  0  0  0  0  0
    5.6746   -2.4578    0.0000 N   0  0  0  0  0  0  0  0  0  0  0  0
    2.2048   -5.7469    0.0000 N   0  0  0  0  0  0  0  0  0  0  0  0
    7.1204   -1.6265    0.0000 N   0  0  0  0  0  0  0  0  0  0  0  0
    3.9036   -5.7108    0.0000 N   0  0  0  0  0  0  0  0  0  0  0  0
    0.0000   -6.8312    0.0000 N   0  0  0  0  0  0  0  0  0  0  0  0
    5.9638   -3.5783    0.0000 C   0  0  0  0  0  0  0  0  0  0  0  0
    5.7108   -1.6265    0.0000 C   0  0  0  0  0  0  0  0  0  0  0  0
    6.3975   -1.2289    0.0000 C   0  0  0  0  0  0  0  0  0  0  0  0
    2.6747   -6.3975    0.0000 C   0  0  0  0  0  0  0  0  0  0  0  0
    1.4096   -5.9638    0.0000 C   0  0  0  0  0  0  0  0  0  0  0  0
    1.4096   -6.8312    0.0000 C   0  0  0  0  0  0  0  0  0  0  0  0
    2.2048   -7.0481    0.0000 C   0  0  0  0  0  0  0  0  0  0  0  0
    3.5060   -6.3975    0.0000 C   0  0  0  0  0  0  0  0  0  0  0  0
    5.1686   -3.5783    0.0000 C   0  0  0  0  0  0  0  0  0  0  0  0
    6.3975   -4.3012    0.0000 C   0  0  0  0  0  0  0  0  0  0  0  0
    5.1686   -4.9879    0.0000 C   0  0  0  0  0  0  0  0  0  0  0  0
    4.9879   -1.1928    0.0000 C   0  0  0  0  0  0  0  0  0  0  0  0
    6.4336   -0.3976    0.0000 C   0  0  0  0  0  0  0  0  0  0  0  0
    0.6867   -5.6023    0.0000 C   0  0  0  0  0  0  0  0  0  0  0  0
    0.6867   -7.2288    0.0000 C   0  0  0  0  0  0  0  0  0  0  0  0
    4.7349   -4.2650    0.0000 C   0  0  0  0  0  0  0  0  0  0  0  0
    5.9638   -4.9879    0.0000 C   0  0  0  0  0  0  0  0  0  0  0  0
    4.7349   -5.7108    0.0000 C   0  0  0  0  0  0  0  0  0  0  0  0
    4.9879   -0.3976    0.0000 C   0  0  0  0  0  0  0  0  0  0  0  0
    7.8072   -1.2289    0.0000 C   0  0  0  0  0  0  0  0  0  0  0  0
    7.0843   -2.4578    0.0000 C   0  0  0  0  0  0  0  0  0  0  0  0
    5.7108    0.0000    0.0000 C   0  0  0  0  0  0  0  0  0  0  0  0
    0.0000   -5.9638    0.0000 C   0  0  0  0  0  0  0  0  0  0  0  0
    8.5300   -1.6627    0.0000 C   0  0  0  0  0  0  0  0  0  0  0  0
    7.8072   -2.8915    0.0000 C   0  0  0  0  0  0  0  0  0  0  0  0
    8.4939   -2.4940    0.0000 C   0  0  0  0  0  0  0  0  0  0  0  0
  1  2  2  0  0  0  0
  1  3  2  0  0  0  0
  1  5  1  0  0  0  0
  1 10  1  0  0  0  0
  4 17  2  0  0  0  0
  5 11  1  0  0  0  0
  6 13  1  0  0  0  0
  6 14  1  0  0  0  0
  7 12  1  0  0  0  0
  7 29  1  0  0  0  0
  7 30  1  0  0  0  0
  8 17  1  0  0  0  0
  8 27  1  0  0  0  0
  9 24  1  0  0  0  0
  9 32  2  0  0  0  0
 10 18  2  0  0  0  0
 10 19  1  0  0  0  0
 11 12  1  0  0  0  0
 11 21  2  0  0  0  0
 12 22  2  0  0  0  0
 13 16  2  0  0  0  0
 13 17  1  0  0  0  0
 14 15  1  0  0  0  0
 14 23  2  0  0  0  0
 15 16  1  0  0  0  0
 15 24  2  0  0  0  0
 18 25  1  0  0  0  0
 19 26  2  0  0  0  0
 20 25  2  0  0  0  0
 20 26  1  0  0  0  0
 20 27  1  0  0  0  0
 21 28  1  0  0  0  0
 22 31  1  0  0  0  0
 23 32  1  0  0  0  0
 28 31  2  0  0  0  0
 29 33  1  0  0  0  0
 30 34  1  0  0  0  0
 33 35  1  0  0  0  0
 34 35  1  0  0  0  0
M  END
> <PUBCHEM_COMPOUND_ID_TYPE>
0

> <PUBCHEM_TOTAL_CHARGE>
0

> <PUBCHEM_SUBSTANCE_ID>
310931187

> <PUBCHEM_SUBSTANCE_VERSION>
1

> <PUBCHEM_EXT_DATASOURCE_NAME>
4488

> <PUBCHEM_EXT_DATASOURCE_REGID>
SCHEMBL16108496

> <PUBCHEM_SUBSTANCE_COMMENT>
InChI=1S/C26H27N5O3S/c32-26(24-16-20-18-27-13-12-22(20)29-24)28-17-19-8-10-21(11-9-19)35(33,34)30-23-6-2-3-7-25(23)31-14-4-1-5-15-31/h2-3,6-13,16,18,29-30H,1,4-5,14-15,17H2,(H,28,32)
InChIKey=IEAQMICCBMRCAQ-UHFFFAOYSA-N

> <PUBCHEM_SUBSTANCE_SYNONYM>
SCHEMBL16108496

> <PUBCHEM_XREF_EXT_ID>
SCHEMBL16108496

> <PUBCHEM_EXT_DATASOURCE_URL>
https://www.surechembl.org/

> <PUBCHEM_EXT_SUBSTANCE_URL>
https://www.surechembl.org/chemical/SCHEMBL16108496

> <PUBCHEM_CID_ASSOCIATIONS>
117600044  1

> <PUBCHEM_COORDINATE_TYPE>
1
3

$$$$
