310945602
  -OEChem-07211613022D

100109  0     1  0  0  0  0  0999 V2000
    3.0793   -1.4294    0.0000 O   0  0  0  0  0  0  0  0  0  0  0  0
   12.5662   -1.4294    0.0000 O   0  0  0  0  0  0  0  0  0  0  0  0
    5.6680    1.1307    0.0000 O   0  0  0  0  0  0  0  0  0  0  0  0
    9.9776    1.1307    0.0000 O   0  0  0  0  0  0  0  0  0  0  0  0
    5.6680   -0.5192    0.0000 O   0  0  0  0  0  0  0  0  0  0  0  0
    9.9776   -0.5192    0.0000 O   0  0  0  0  0  0  0  0  0  0  0  0
   17.8003   -2.2828    0.0000 O   0  0  0  0  0  0  0  0  0  0  0  0
   -4.3025   -1.8703    0.0000 O   0  0  0  0  0  0  0  0  0  0  0  0
   -3.5914   -3.1078    0.0000 O   0  0  0  0  0  0  0  0  0  0  0  0
   -8.6121   -1.8703    0.0000 O   0  0  0  0  0  0  0  0  0  0  0  0
  -10.7741    0.2063    0.0000 O   0  0  0  0  0  0  0  0  0  0  0  0
  -16.5202   -2.2828    0.0000 O   0  0  0  0  0  0  0  0  0  0  0  0
  -18.4404   -0.0640    0.0000 O   0  0  0  0  0  0  0  0  0  0  0  0
  -12.9218   -1.8703    0.0000 O   0  0  0  0  0  0  0  0  0  0  0  0
   -8.6121    3.1078    0.0000 O   0  0  0  0  0  0  0  0  0  0  0  0
    2.0837   -0.4338    0.0000 N   0  0  0  0  0  0  0  0  0  0  0  0
   13.6187   -0.4338    0.0000 N   0  0  0  0  0  0  0  0  0  0  0  0
    2.8802    1.2445    0.0000 N   0  0  0  0  0  0  0  0  0  0  0  0
   12.8080    1.2445    0.0000 N   0  0  0  0  0  0  0  0  0  0  0  0
   -2.8517   -1.8277    0.0000 N   0  0  0  0  0  0  0  0  0  0  0  0
  -17.2172   -1.0312    0.0000 N   0  0  0  0  0  0  0  0  0  0  0  0
   -7.8868   -0.5902    0.0000 N   0  0  0  0  0  0  0  0  0  0  0  0
  -10.0345   -1.0312    0.0000 N   0  0  0  0  0  0  0  0  0  0  0  0
  -12.1964   -0.5902    0.0000 N   0  0  0  0  0  0  0  0  0  0  0  0
   -7.7303    1.8703    0.0000 N   0  0  0  0  0  0  0  0  0  0  0  0
   -7.0191    3.1078    0.0000 N   0  0  0  0  0  0  0  0  0  0  0  0
    3.5202   -0.1066    0.0000 C   0  0  0  0  0  0  0  0  0  0  0  0
   12.1395   -0.0924    0.0000 C   0  0  0  0  0  0  0  0  0  0  0  0
    2.8802   -0.6187    0.0000 C   0  0  0  0  0  0  0  0  0  0  0  0
   12.8080   -0.6045    0.0000 C   0  0  0  0  0  0  0  0  0  0  0  0
    1.6996    0.3058    0.0000 C   0  0  3  0  0  0  0  0  0  0  0  0
   13.9743    0.3343    0.0000 C   0  0  3  0  0  0  0  0  0  0  0  0
    3.5202    0.7325    0.0000 C   0  0  0  0  0  0  0  0  0  0  0  0
   12.1537    0.7325    0.0000 C   0  0  0  0  0  0  0  0  0  0  0  0
    0.7325   -0.6187    0.0000 C   0  0  0  0  0  0  0  0  0  0  0  0
   14.9272   -0.6187    0.0000 C   0  0  0  0  0  0  0  0  0  0  0  0
    1.4721   -1.0028    0.0000 C   0  0  0  0  0  0  0  0  0  0  0  0
   14.2304   -1.0028    0.0000 C   0  0  0  0  0  0  0  0  0  0  0  0
    0.9031    0.2063    0.0000 C   0  0  0  0  0  0  0  0  0  0  0  0
   14.7850    0.1920    0.0000 C   0  0  0  0  0  0  0  0  0  0  0  0
    4.2314   -0.5049    0.0000 C   0  0  0  0  0  0  0  0  0  0  0  0
   11.4141   -0.5049    0.0000 C   0  0  0  0  0  0  0  0  0  0  0  0
    2.0695    1.0596    0.0000 C   0  0  0  0  0  0  0  0  0  0  0  0
   13.6187    1.0454    0.0000 C   0  0  0  0  0  0  0  0  0  0  0  0
    4.9425   -0.0924    0.0000 C   0  0  0  0  0  0  0  0  0  0  0  0
   10.7172   -0.1066    0.0000 C   0  0  0  0  0  0  0  0  0  0  0  0
    4.9568    0.7325    0.0000 C   0  0  0  0  0  0  0  0  0  0  0  0
   10.7172    0.7325    0.0000 C   0  0  0  0  0  0  0  0  0  0  0  0
    4.2599    1.1307    0.0000 C   0  0  0  0  0  0  0  0  0  0  0  0
   11.4426    1.1307    0.0000 C   0  0  0  0  0  0  0  0  0  0  0  0
    0.0213   -1.0170    0.0000 C   0  0  0  0  0  0  0  0  0  0  0  0
   15.6527   -1.0312    0.0000 C   0  0  0  0  0  0  0  0  0  0  0  0
   -0.7041   -0.6329    0.0000 C   0  0  0  0  0  0  0  0  0  0  0  0
    0.0213   -1.8561    0.0000 C   0  0  0  0  0  0  0  0  0  0  0  0
   15.6669   -1.8561    0.0000 C   0  0  0  0  0  0  0  0  0  0  0  0
   16.3638   -0.6329    0.0000 C   0  0  0  0  0  0  0  0  0  0  0  0
   -1.4294   -1.8561    0.0000 C   0  0  0  0  0  0  0  0  0  0  0  0
   -1.4010   -1.0312    0.0000 C   0  0  0  0  0  0  0  0  0  0  0  0
   -0.7041   -2.2686    0.0000 C   0  0  0  0  0  0  0  0  0  0  0  0
   16.3780   -2.2686    0.0000 C   0  0  0  0  0  0  0  0  0  0  0  0
   17.0892   -1.0312    0.0000 C   0  0  0  0  0  0  0  0  0  0  0  0
   17.0750   -1.8561    0.0000 C   0  0  0  0  0  0  0  0  0  0  0  0
    6.4075    0.7183    0.0000 C   0  0  0  0  0  0  0  0  0  0  0  0
    9.2806    0.7183    0.0000 C   0  0  0  0  0  0  0  0  0  0  0  0
    5.6680   -1.3299    0.0000 C   0  0  0  0  0  0  0  0  0  0  0  0
    9.9634   -1.3299    0.0000 C   0  0  0  0  0  0  0  0  0  0  0  0
   -2.1264   -2.2828    0.0000 C   0  0  0  0  0  0  0  0  0  0  0  0
    7.1187    1.1307    0.0000 C   0  0  0  0  0  0  0  0  0  0  0  0
    8.5553    1.1307    0.0000 C   0  0  0  0  0  0  0  0  0  0  0  0
    7.8441    0.7183    0.0000 C   0  0  0  0  0  0  0  0  0  0  0  0
   18.4973   -1.8988    0.0000 C   0  0  0  0  0  0  0  0  0  0  0  0
   -3.5629   -2.2544    0.0000 C   0  0  0  0  0  0  0  0  0  0  0  0
   -4.9995   -2.2686    0.0000 C   0  0  0  0  0  0  0  0  0  0  0  0
   -5.7390   -1.8561    0.0000 C   0  0  0  0  0  0  0  0  0  0  0  0
   -7.1613   -1.0312    0.0000 C   0  0  0  0  0  0  0  0  0  0  0  0
   -5.7248   -1.0312    0.0000 C   0  0  0  0  0  0  0  0  0  0  0  0
   -6.4360   -2.2686    0.0000 C   0  0  0  0  0  0  0  0  0  0  0  0
   -9.3375   -0.6187    0.0000 C   0  0  3  0  0  0  0  0  0  0  0  0
   -8.5980   -1.0170    0.0000 C   0  0  0  0  0  0  0  0  0  0  0  0
  -11.4710   -1.0312    0.0000 C   0  0  3  0  0  0  0  0  0  0  0  0
  -10.7598   -0.6187    0.0000 C   0  0  0  0  0  0  0  0  0  0  0  0
   -6.4502   -0.6329    0.0000 C   0  0  0  0  0  0  0  0  0  0  0  0
   -7.1472   -1.8561    0.0000 C   0  0  0  0  0  0  0  0  0  0  0  0
  -17.2599   -1.8561    0.0000 C   0  0  0  0  0  0  0  0  0  0  0  0
  -17.9995   -0.7752    0.0000 C   0  0  0  0  0  0  0  0  0  0  0  0
  -18.0137   -2.1122    0.0000 C   0  0  0  0  0  0  0  0  0  0  0  0
  -18.4973   -1.4579    0.0000 C   0  0  0  0  0  0  0  0  0  0  0  0
  -11.4853   -1.8703    0.0000 C   0  0  0  0  0  0  0  0  0  0  0  0
  -16.5202   -0.6187    0.0000 C   0  0  0  0  0  0  0  0  0  0  0  0
   -9.3091    0.2205    0.0000 C   0  0  0  0  0  0  0  0  0  0  0  0
  -12.9076   -1.0170    0.0000 C   0  0  0  0  0  0  0  0  0  0  0  0
  -15.7807   -1.0312    0.0000 C   0  0  0  0  0  0  0  0  0  0  0  0
   -8.5980    0.6187    0.0000 C   0  0  0  0  0  0  0  0  0  0  0  0
  -13.6472   -0.6187    0.0000 C   0  0  0  0  0  0  0  0  0  0  0  0
  -10.7598   -2.2686    0.0000 C   0  0  0  0  0  0  0  0  0  0  0  0
  -12.1822   -2.2828    0.0000 C   0  0  0  0  0  0  0  0  0  0  0  0
  -15.0837   -0.6187    0.0000 C   0  0  0  0  0  0  0  0  0  0  0  0
  -14.3441   -1.0312    0.0000 C   0  0  0  0  0  0  0  0  0  0  0  0
   -8.5837    1.4721    0.0000 C   0  0  0  0  0  0  0  0  0  0  0  0
   -7.8725    2.6953    0.0000 C   0  0  0  0  0  0  0  0  0  0  0  0
  1 29  2  0  0  0  0
  2 30  2  0  0  0  0
  3 47  1  0  0  0  0
  3 63  1  0  0  0  0
  4 48  1  0  0  0  0
  4 64  1  0  0  0  0
  5 45  1  0  0  0  0
  5 65  1  0  0  0  0
  6 46  1  0  0  0  0
  6 66  1  0  0  0  0
  7 62  1  0  0  0  0
  7 71  1  0  0  0  0
  8 72  1  0  0  0  0
  8 73  1  0  0  0  0
  9 72  2  0  0  0  0
 10 79  2  0  0  0  0
 11 81  2  0  0  0  0
 12 84  2  0  0  0  0
 13 85  2  0  0  0  0
 14 91  2  0  0  0  0
 15100  2  0  0  0  0
 16 29  1  0  0  0  0
 31 16  1  1  0  0  0
 16 37  1  0  0  0  0
 17 30  1  0  0  0  0
 32 17  1  6  0  0  0
 17 38  1  0  0  0  0
 18 33  1  0  0  0  0
 18 43  2  0  0  0  0
 19 34  1  0  0  0  0
 19 44  2  0  0  0  0
 20 67  1  0  0  0  0
 20 72  1  0  0  0  0
 21 84  1  0  0  0  0
 21 85  1  0  0  0  0
 21 89  1  0  0  0  0
 22 75  1  0  0  0  0
 22 79  1  0  0  0  0
 78 23  1  1  0  0  0
 23 81  1  0  0  0  0
 80 24  1  6  0  0  0
 24 91  1  0  0  0  0
 25 99  1  0  0  0  0
 25100  1  0  0  0  0
 26100  1  0  0  0  0
 27 29  1  0  0  0  0
 27 33  2  0  0  0  0
 27 41  1  0  0  0  0
 28 30  1  0  0  0  0
 28 34  1  0  0  0  0
 28 42  2  0  0  0  0
 31 39  1  0  0  0  0
 31 43  1  0  0  0  0
 32 40  1  0  0  0  0
 32 44  1  0  0  0  0
 33 49  1  0  0  0  0
 34 50  2  0  0  0  0
 35 37  2  0  0  0  0
 35 39  1  0  0  0  0
 35 51  1  0  0  0  0
 36 38  2  0  0  0  0
 36 40  1  0  0  0  0
 36 52  1  0  0  0  0
 41 45  2  0  0  0  0
 42 46  1  0  0  0  0
 45 47  1  0  0  0  0
 46 48  2  0  0  0  0
 47 49  2  0  0  0  0
 48 50  1  0  0  0  0
 51 53  2  0  0  0  0
 51 54  1  0  0  0  0
 52 55  2  0  0  0  0
 52 56  1  0  0  0  0
 53 58  1  0  0  0  0
 54 59  2  0  0  0  0
 55 60  1  0  0  0  0
 56 61  2  0  0  0  0
 57 58  2  0  0  0  0
 57 59  1  0  0  0  0
 57 67  1  0  0  0  0
 60 62  2  0  0  0  0
 61 62  1  0  0  0  0
 63 68  1  0  0  0  0
 64 69  1  0  0  0  0
 68 70  1  0  0  0  0
 69 70  1  0  0  0  0
 73 74  1  0  0  0  0
 74 76  2  0  0  0  0
 74 77  1  0  0  0  0
 75 82  2  0  0  0  0
 75 83  1  0  0  0  0
 76 82  1  0  0  0  0
 77 83  2  0  0  0  0
 78 79  1  0  0  0  0
 78 90  1  0  0  0  0
 80 81  1  0  0  0  0
 80 88  1  0  0  0  0
 84 86  1  0  0  0  0
 85 87  1  0  0  0  0
 86 87  2  0  0  0  0
 88 95  1  0  0  0  0
 88 96  1  0  0  0  0
 89 92  1  0  0  0  0
 90 93  1  0  0  0  0
 91 94  1  0  0  0  0
 92 97  1  0  0  0  0
 93 99  1  0  0  0  0
 94 98  1  0  0  0  0
 97 98  1  0  0  0  0
M  END
> <PUBCHEM_COMPOUND_ID_TYPE>
0

> <PUBCHEM_TOTAL_CHARGE>
0

> <PUBCHEM_SUBSTANCE_ID>
310945602

> <PUBCHEM_SUBSTANCE_VERSION>
1

> <PUBCHEM_EXT_DATASOURCE_NAME>
4488

> <PUBCHEM_EXT_DATASOURCE_REGID>
SCHEMBL16123701

> <PUBCHEM_SUBSTANCE_COMMENT>
InChI=1S/C74H83N11O15/c1-45(2)68(82-65(86)14-8-6-9-30-83-66(87)27-28-67(83)88)70(90)81-58(13-12-29-76-73(75)93)69(89)80-52-23-17-47(18-24-52)44-100-74(94)79-39-46-15-19-48(20-16-46)50-33-53-40-77-59-37-63(61(96-4)35-56(59)71(91)84(53)42-50)98-31-10-7-11-32-99-64-38-60-57(36-62(64)97-5)72(92)85-43-51(34-54(85)41-78-60)49-21-25-55(95-3)26-22-49/h15-28,35-38,40-43,45,53-54,58,68H,6-14,29-34,39,44H2,1-5H3,(H,79,94)(H,80,89)(H,81,90)(H,82,86)(H3,75,76,93)/t53-,54-,58-,68-/m0/s1
InChIKey=WSACGVGKXPBXEE-MMUJEPJHSA-N

> <PUBCHEM_SUBSTANCE_SYNONYM>
SCHEMBL16123701

> <PUBCHEM_XREF_EXT_ID>
SCHEMBL16123701

> <PUBCHEM_EXT_DATASOURCE_URL>
https://www.surechembl.org/

> <PUBCHEM_EXT_SUBSTANCE_URL>
https://www.surechembl.org/chemical/SCHEMBL16123701

> <PUBCHEM_CID_ASSOCIATIONS>
117611624  1

> <PUBCHEM_COORDINATE_TYPE>
1
3

> <PUBCHEM_BONDANNOTATIONS>
31  16  5
32  17  6
78  23  5
80  24  6

$$$$
