310929250
  -OEChem-07211613022D

 62 67  0     0  0  0  0  0  0999 V2000
   12.1148  -11.7198    0.0000 S   0  0  0  0  0  0  0  0  0  0  0  0
    5.9916   -8.0985    0.0000 O   0  0  0  0  0  0  0  0  0  0  0  0
    9.0202  -11.9173    0.0000 O   0  0  0  0  0  0  0  0  0  0  0  0
   12.1148  -10.8638    0.0000 O   0  0  0  0  0  0  0  0  0  0  0  0
   12.1148  -12.5757    0.0000 O   0  0  0  0  0  0  0  0  0  0  0  0
    3.6871   -3.6871    0.0000 O   0  0  0  0  0  0  0  0  0  0  0  0
    6.1232   -5.2015    0.0000 O   0  0  0  0  0  0  0  0  0  0  0  0
    1.6460   -4.3455    0.0000 O   0  0  0  0  0  0  0  0  0  0  0  0
    0.0000   -2.8312    0.0000 O   0  0  0  0  0  0  0  0  0  0  0  0
    0.5267   -0.7243    0.0000 O   0  0  0  0  0  0  0  0  0  0  0  0
    8.8228  -10.2713    0.0000 N   0  0  0  0  0  0  0  0  0  0  0  0
   11.3247  -11.7198    0.0000 N   0  0  0  0  0  0  0  0  0  0  0  0
    7.6376  -10.9955    0.0000 N   0  0  0  0  0  0  0  0  0  0  0  0
    4.8064   -7.3743    0.0000 N   0  0  0  0  0  0  0  0  0  0  0  0
    3.6213   -6.5841    0.0000 N   0  0  0  0  0  0  0  0  0  0  0  0
    3.5554   -8.0326    0.0000 N   0  0  0  0  0  0  0  0  0  0  0  0
   10.0737  -10.9955    0.0000 C   0  0  0  0  0  0  0  0  0  0  0  0
    9.6787  -10.2713    0.0000 C   0  0  0  0  0  0  0  0  0  0  0  0
   10.9296  -10.9955    0.0000 C   0  0  0  0  0  0  0  0  0  0  0  0
   10.9296   -9.6128    0.0000 C   0  0  0  0  0  0  0  0  0  0  0  0
    9.6787  -11.7198    0.0000 C   0  0  0  0  0  0  0  0  0  0  0  0
   10.0737   -9.6128    0.0000 C   0  0  0  0  0  0  0  0  0  0  0  0
   11.3247  -10.3371    0.0000 C   0  0  0  0  0  0  0  0  0  0  0  0
   11.3247   -8.8886    0.0000 C   0  0  0  0  0  0  0  0  0  0  0  0
    7.6376   -9.5470    0.0000 C   0  0  0  0  0  0  0  0  0  0  0  0
    7.2425   -8.8228    0.0000 C   0  0  0  0  0  0  0  0  0  0  0  0
    7.2425  -10.2713    0.0000 C   0  0  0  0  0  0  0  0  0  0  0  0
    6.3866   -8.8228    0.0000 C   0  0  0  0  0  0  0  0  0  0  0  0
    8.4277  -10.9955    0.0000 C   0  0  0  0  0  0  0  0  0  0  0  0
    6.3866  -10.2713    0.0000 C   0  0  0  0  0  0  0  0  0  0  0  0
   10.0737  -12.4440    0.0000 C   0  0  0  0  0  0  0  0  0  0  0  0
    8.8228  -11.7198    0.0000 C   0  0  0  0  0  0  0  0  0  0  0  0
    5.9916   -9.5470    0.0000 C   0  0  0  0  0  0  0  0  0  0  0  0
    8.4277   -9.6128    0.0000 C   0  0  0  0  0  0  0  0  0  0  0  0
    7.6376   -8.1643    0.0000 C   0  0  0  0  0  0  0  0  0  0  0  0
    5.2015   -8.0985    0.0000 C   0  0  0  0  0  0  0  0  0  0  0  0
   12.0490   -9.3495    0.0000 C   0  0  0  0  0  0  0  0  0  0  0  0
   11.7856   -8.1643    0.0000 C   0  0  0  0  0  0  0  0  0  0  0  0
   10.6663   -8.4935    0.0000 C   0  0  0  0  0  0  0  0  0  0  0  0
    8.8886   -8.8886    0.0000 C   0  0  0  0  0  0  0  0  0  0  0  0
    8.4935   -8.1643    0.0000 C   0  0  0  0  0  0  0  0  0  0  0  0
    9.6787  -13.1683    0.0000 C   0  0  0  0  0  0  0  0  0  0  0  0
    8.4277  -12.4440    0.0000 C   0  0  0  0  0  0  0  0  0  0  0  0
    8.8228  -13.1683    0.0000 C   0  0  0  0  0  0  0  0  0  0  0  0
    4.0163   -7.3084    0.0000 C   0  0  0  0  0  0  0  0  0  0  0  0
   12.9708  -11.7198    0.0000 C   0  0  0  0  0  0  0  0  0  0  0  0
    4.8064   -8.7569    0.0000 C   0  0  0  0  0  0  0  0  0  0  0  0
    4.0163   -5.8599    0.0000 C   0  0  0  0  0  0  0  0  0  0  0  0
    3.9505   -8.6911    0.0000 C   0  0  0  0  0  0  0  0  0  0  0  0
    3.6871   -5.1356    0.0000 C   0  0  0  0  0  0  0  0  0  0  0  0
    4.8722   -5.9257    0.0000 C   0  0  0  0  0  0  0  0  0  0  0  0
    4.0822   -4.4772    0.0000 C   0  0  0  0  0  0  0  0  0  0  0  0
    5.2673   -5.2015    0.0000 C   0  0  0  0  0  0  0  0  0  0  0  0
    4.9381   -4.4772    0.0000 C   0  0  0  0  0  0  0  0  0  0  0  0
    2.8970   -3.6871    0.0000 C   0  0  0  0  0  0  0  0  0  0  0  0
    6.5841   -4.5431    0.0000 C   0  0  0  0  0  0  0  0  0  0  0  0
    2.4361   -4.3455    0.0000 C   0  0  0  0  0  0  0  0  0  0  0  0
    1.2510   -3.6213    0.0000 C   0  0  0  0  0  0  0  0  0  0  0  0
    0.3951   -3.5554    0.0000 C   0  0  0  0  0  0  0  0  0  0  0  0
    0.4609   -2.1728    0.0000 C   0  0  0  0  0  0  0  0  0  0  0  0
    0.0658   -1.4485    0.0000 C   0  0  0  0  0  0  0  0  0  0  0  0
    0.0658    0.0000    0.0000 C   0  0  0  0  0  0  0  0  0  0  0  0
  1  4  2  0  0  0  0
  1  5  2  0  0  0  0
  1 12  1  0  0  0  0
  1 46  1  0  0  0  0
  2 28  1  0  0  0  0
  2 36  1  0  0  0  0
  3 29  2  0  0  0  0
  6 52  1  0  0  0  0
  6 55  1  0  0  0  0
  7 53  1  0  0  0  0
  7 56  1  0  0  0  0
  8 57  1  0  0  0  0
  8 58  1  0  0  0  0
  9 59  1  0  0  0  0
  9 60  1  0  0  0  0
 10 61  1  0  0  0  0
 10 62  1  0  0  0  0
 11 18  1  0  0  0  0
 11 29  1  0  0  0  0
 12 19  1  0  0  0  0
 13 27  1  0  0  0  0
 13 29  1  0  0  0  0
 14 36  2  0  0  0  0
 14 45  1  0  0  0  0
 15 45  1  0  0  0  0
 15 48  1  0  0  0  0
 16 45  2  0  0  0  0
 16 49  1  0  0  0  0
 17 18  2  0  0  0  0
 17 19  1  0  0  0  0
 17 21  1  0  0  0  0
 18 22  1  0  0  0  0
 19 23  2  0  0  0  0
 20 22  2  0  0  0  0
 20 23  1  0  0  0  0
 20 24  1  0  0  0  0
 21 31  2  0  0  0  0
 21 32  1  0  0  0  0
 24 37  1  0  0  0  0
 24 38  1  0  0  0  0
 24 39  1  0  0  0  0
 25 26  2  0  0  0  0
 25 27  1  0  0  0  0
 25 34  1  0  0  0  0
 26 28  1  0  0  0  0
 26 35  1  0  0  0  0
 27 30  2  0  0  0  0
 28 33  2  0  0  0  0
 30 33  1  0  0  0  0
 31 42  1  0  0  0  0
 32 43  2  0  0  0  0
 34 40  2  0  0  0  0
 35 41  2  0  0  0  0
 36 47  1  0  0  0  0
 40 41  1  0  0  0  0
 42 44  2  0  0  0  0
 43 44  1  0  0  0  0
 47 49  2  0  0  0  0
 48 50  2  0  0  0  0
 48 51  1  0  0  0  0
 50 52  1  0  0  0  0
 51 53  2  0  0  0  0
 52 54  2  0  0  0  0
 53 54  1  0  0  0  0
 55 57  1  0  0  0  0
 58 59  1  0  0  0  0
 60 61  1  0  0  0  0
M  END
> <PUBCHEM_COMPOUND_ID_TYPE>
0

> <PUBCHEM_TOTAL_CHARGE>
0

> <PUBCHEM_SUBSTANCE_ID>
310929250

> <PUBCHEM_SUBSTANCE_VERSION>
1

> <PUBCHEM_EXT_DATASOURCE_NAME>
4488

> <PUBCHEM_EXT_DATASOURCE_REGID>
SCHEMBL16106414

> <PUBCHEM_SUBSTANCE_COMMENT>
InChI=1S/C46H52N6O9S/c1-46(2,3)32-26-39(43(31-12-8-7-9-13-31)40(27-32)52-62(6,54)55)50-45(53)49-38-16-17-41(37-15-11-10-14-36(37)38)61-42-18-19-47-44(51-42)48-33-28-34(57-5)30-35(29-33)60-25-24-59-23-22-58-21-20-56-4/h7-19,26-30,52H,20-25H2,1-6H3,(H,47,48,51)(H2,49,50,53)
InChIKey=AWNXWFZUBDOOMP-UHFFFAOYSA-N

> <PUBCHEM_SUBSTANCE_SYNONYM>
SCHEMBL16106414

> <PUBCHEM_XREF_EXT_ID>
SCHEMBL16106414

> <PUBCHEM_EXT_DATASOURCE_URL>
https://www.surechembl.org/

> <PUBCHEM_EXT_SUBSTANCE_URL>
https://www.surechembl.org/chemical/SCHEMBL16106414

> <PUBCHEM_CID_ASSOCIATIONS>
86272597  1

> <PUBCHEM_COORDINATE_TYPE>
1
3

$$$$
