310949394
  -OEChem-07211613022D

 56 66  0     0  0  0  0  0  0999 V2000
    1.4224   -1.2130    0.0000 N   0  0  0  0  0  0  0  0  0  0  0  0
   -1.4224   -1.1841    0.0000 N   0  0  0  0  0  0  0  0  0  0  0  0
   -2.1300   -3.2491    0.0000 N   0  0  0  0  0  0  0  0  0  0  0  0
    2.1156   -3.3069    0.0000 N   0  0  0  0  0  0  0  0  0  0  0  0
    1.5235   -0.3610    0.0000 C   0  0  0  0  0  0  0  0  0  0  0  0
   -1.5090   -0.3465    0.0000 C   0  0  0  0  0  0  0  0  0  0  0  0
    0.7149   -1.6030    0.0000 C   0  0  0  0  0  0  0  0  0  0  0  0
   -0.7149   -1.6030    0.0000 C   0  0  0  0  0  0  0  0  0  0  0  0
    2.3178   -0.2166    0.0000 C   0  0  0  0  0  0  0  0  0  0  0  0
   -2.3178   -0.1588    0.0000 C   0  0  0  0  0  0  0  0  0  0  0  0
    1.2491    1.0398    0.0000 C   0  0  0  0  0  0  0  0  0  0  0  0
   -1.2058    1.0398    0.0000 C   0  0  0  0  0  0  0  0  0  0  0  0
   -0.0217   -1.1841    0.0000 C   0  0  0  0  0  0  0  0  0  0  0  0
    2.2022   -1.5307    0.0000 C   0  0  0  0  0  0  0  0  0  0  0  0
   -2.1734   -1.4874    0.0000 C   0  0  0  0  0  0  0  0  0  0  0  0
    2.0289    1.1841    0.0000 C   0  0  0  0  0  0  0  0  0  0  0  0
   -2.0289    1.2419    0.0000 C   0  0  0  0  0  0  0  0  0  0  0  0
    2.7077   -0.9243    0.0000 C   0  0  0  0  0  0  0  0  0  0  0  0
   -2.7510   -0.8954    0.0000 C   0  0  0  0  0  0  0  0  0  0  0  0
    0.8448    1.7473    0.0000 C   0  0  0  0  0  0  0  0  0  0  0  0
   -0.7871    1.7618    0.0000 C   0  0  0  0  0  0  0  0  0  0  0  0
    0.7149   -2.4405    0.0000 C   0  0  0  0  0  0  0  0  0  0  0  0
   -0.7293   -2.4405    0.0000 C   0  0  0  0  0  0  0  0  0  0  0  0
    0.9892    0.2743    0.0000 C   0  0  0  0  0  0  0  0  0  0  0  0
   -0.9748    0.2599    0.0000 C   0  0  0  0  0  0  0  0  0  0  0  0
    2.1445    2.0217    0.0000 C   0  0  0  0  0  0  0  0  0  0  0  0
   -2.1011    2.0650    0.0000 C   0  0  0  0  0  0  0  0  0  0  0  0
    1.3646    2.3539    0.0000 C   0  0  0  0  0  0  0  0  0  0  0  0
   -1.3646    2.3972    0.0000 C   0  0  0  0  0  0  0  0  0  0  0  0
    2.5632    0.5776    0.0000 C   0  0  0  0  0  0  0  0  0  0  0  0
   -2.5488    0.6210    0.0000 C   0  0  0  0  0  0  0  0  0  0  0  0
    0.0072   -2.8593    0.0000 C   0  0  0  0  0  0  0  0  0  0  0  0
    2.4333   -2.3250    0.0000 C   0  0  0  0  0  0  0  0  0  0  0  0
   -2.4766   -2.2961    0.0000 C   0  0  0  0  0  0  0  0  0  0  0  0
    3.5308   -1.1120    0.0000 C   0  0  0  0  0  0  0  0  0  0  0  0
   -3.5452   -1.0686    0.0000 C   0  0  0  0  0  0  0  0  0  0  0  0
    2.7510    2.4838    0.0000 C   0  0  0  0  0  0  0  0  0  0  0  0
   -2.7655    2.5271    0.0000 C   0  0  0  0  0  0  0  0  0  0  0  0
    1.3069    3.1769    0.0000 C   0  0  0  0  0  0  0  0  0  0  0  0
   -1.2780    3.2203    0.0000 C   0  0  0  0  0  0  0  0  0  0  0  0
    0.0072   -0.3465    0.0000 C   0  0  0  0  0  0  0  0  0  0  0  0
   -1.4368   -2.8593    0.0000 C   0  0  0  0  0  0  0  0  0  0  0  0
    1.4224   -2.8882    0.0000 C   0  0  0  0  0  0  0  0  0  0  0  0
    0.3971    1.0253    0.0000 C   0  0  0  0  0  0  0  0  0  0  0  0
    0.2238    2.3394    0.0000 C   0  0  0  0  0  0  0  0  0  0  0  0
   -0.1949    2.3250    0.0000 C   0  0  0  0  0  0  0  0  0  0  0  0
   -0.3682    1.0542    0.0000 C   0  0  0  0  0  0  0  0  0  0  0  0
    3.2275   -2.4982    0.0000 C   0  0  0  0  0  0  0  0  0  0  0  0
   -3.1986   -2.4549    0.0000 C   0  0  0  0  0  0  0  0  0  0  0  0
    3.7908   -1.8917    0.0000 C   0  0  0  0  0  0  0  0  0  0  0  0
   -3.7908   -1.8629    0.0000 C   0  0  0  0  0  0  0  0  0  0  0  0
    0.0072   -3.6825    0.0000 C   0  0  0  0  0  0  0  0  0  0  0  0
    2.6788    3.3069    0.0000 C   0  0  0  0  0  0  0  0  0  0  0  0
   -2.6933    3.3502    0.0000 C   0  0  0  0  0  0  0  0  0  0  0  0
    1.9712    3.6246    0.0000 C   0  0  0  0  0  0  0  0  0  0  0  0
   -1.9278    3.6825    0.0000 C   0  0  0  0  0  0  0  0  0  0  0  0
  1  5  1  0  0  0  0
  1  7  1  0  0  0  0
  1 14  1  0  0  0  0
  2  6  1  0  0  0  0
  2  8  1  0  0  0  0
  2 15  1  0  0  0  0
  3 42  3  0  0  0  0
  4 43  3  0  0  0  0
  5  9  2  0  0  0  0
  5 24  1  0  0  0  0
  6 10  2  0  0  0  0
  6 25  1  0  0  0  0
  7 13  2  0  0  0  0
  7 22  1  0  0  0  0
  8 13  1  0  0  0  0
  8 23  2  0  0  0  0
  9 18  1  0  0  0  0
  9 30  1  0  0  0  0
 10 19  1  0  0  0  0
 10 31  1  0  0  0  0
 11 16  1  0  0  0  0
 11 20  1  0  0  0  0
 11 24  2  0  0  0  0
 12 17  1  0  0  0  0
 12 21  1  0  0  0  0
 12 25  2  0  0  0  0
 13 41  1  0  0  0  0
 14 18  2  0  0  0  0
 14 33  1  0  0  0  0
 15 19  2  0  0  0  0
 15 34  1  0  0  0  0
 16 26  1  0  0  0  0
 16 30  2  0  0  0  0
 17 27  1  0  0  0  0
 17 31  2  0  0  0  0
 18 35  1  0  0  0  0
 19 36  1  0  0  0  0
 20 28  1  0  0  0  0
 20 44  1  0  0  0  0
 20 45  1  0  0  0  0
 21 29  1  0  0  0  0
 21 46  1  0  0  0  0
 21 47  1  0  0  0  0
 22 32  2  0  0  0  0
 22 43  1  0  0  0  0
 23 32  1  0  0  0  0
 23 42  1  0  0  0  0
 26 28  2  0  0  0  0
 26 37  1  0  0  0  0
 27 29  2  0  0  0  0
 27 38  1  0  0  0  0
 28 39  1  0  0  0  0
 29 40  1  0  0  0  0
 32 52  1  0  0  0  0
 33 48  2  0  0  0  0
 34 49  2  0  0  0  0
 35 50  2  0  0  0  0
 36 51  2  0  0  0  0
 37 53  2  0  0  0  0
 38 54  2  0  0  0  0
 39 55  2  0  0  0  0
 40 56  2  0  0  0  0
 48 50  1  0  0  0  0
 49 51  1  0  0  0  0
 53 55  1  0  0  0  0
 54 56  1  0  0  0  0
M  END
> <PUBCHEM_COMPOUND_ID_TYPE>
0

> <PUBCHEM_TOTAL_CHARGE>
0

> <PUBCHEM_SUBSTANCE_ID>
310949394

> <PUBCHEM_SUBSTANCE_VERSION>
1

> <PUBCHEM_EXT_DATASOURCE_NAME>
4488

> <PUBCHEM_EXT_DATASOURCE_REGID>
SCHEMBL16127586

> <PUBCHEM_SUBSTANCE_COMMENT>
InChI=1S/C52H38N4/c1-29-39(27-53)49(55-45-21-13-9-17-33(45)37-23-35-31-15-7-11-19-41(31)51(3,4)43(35)25-47(37)55)30(2)50(40(29)28-54)56-46-22-14-10-18-34(46)38-24-36-32-16-8-12-20-42(32)52(5,6)44(36)26-48(38)56/h7-26H,1-6H3
InChIKey=BAENTPAXVXUBTI-UHFFFAOYSA-N

> <PUBCHEM_SUBSTANCE_SYNONYM>
SCHEMBL16127586

> <PUBCHEM_XREF_EXT_ID>
SCHEMBL16127586

> <PUBCHEM_EXT_DATASOURCE_URL>
https://www.surechembl.org/

> <PUBCHEM_EXT_SUBSTANCE_URL>
https://www.surechembl.org/chemical/SCHEMBL16127586

> <PUBCHEM_CID_ASSOCIATIONS>
117614847  1

> <PUBCHEM_COORDINATE_TYPE>
1
3

$$$$
