310933152
  -OEChem-07211613022D

 15 15  0     0  0  0  0  0  0999 V2000
    0.0000   -2.8715    0.0000 Br  0  0  0  0  0  0  0  0  0  0  0  0
    0.7117   -4.9085    0.0000 O   0  0  0  0  0  0  0  0  0  0  0  0
    1.3989   -3.6813    0.0000 N   0  0  0  0  0  0  0  0  0  0  0  0
    1.3989   -2.8715    0.0000 C   0  0  0  0  0  0  0  0  0  0  0  0
    0.7117   -4.0986    0.0000 C   0  0  0  0  0  0  0  0  0  0  0  0
    0.6872   -2.4543    0.0000 C   0  0  0  0  0  0  0  0  0  0  0  0
    2.1106   -2.4543    0.0000 C   0  0  0  0  0  0  0  0  0  0  0  0
    1.3989   -1.2271    0.0000 C   0  0  0  0  0  0  0  0  0  0  0  0
    2.1106   -4.0986    0.0000 C   0  0  0  0  0  0  0  0  0  0  0  0
    0.6872   -1.6444    0.0000 C   0  0  0  0  0  0  0  0  0  0  0  0
    2.1106   -1.6444    0.0000 C   0  0  0  0  0  0  0  0  0  0  0  0
    0.0000   -3.6813    0.0000 C   0  0  0  0  0  0  0  0  0  0  0  0
    1.3989   -0.3927    0.0000 C   0  0  0  0  0  0  0  0  0  0  0  0
    2.8224   -3.6813    0.0000 C   0  0  0  0  0  0  0  0  0  0  0  0
    0.7117    0.0000    0.0000 C   0  0  0  0  0  0  0  0  0  0  0  0
  1 12  1  0  0  0  0
  2  5  2  0  0  0  0
  3  4  1  0  0  0  0
  3  5  1  0  0  0  0
  3  9  1  0  0  0  0
  4  6  2  0  0  0  0
  4  7  1  0  0  0  0
  5 12  1  0  0  0  0
  6 10  1  0  0  0  0
  7 11  2  0  0  0  0
  8 10  2  0  0  0  0
  8 11  1  0  0  0  0
  8 13  1  0  0  0  0
  9 14  1  0  0  0  0
 13 15  1  0  0  0  0
M  END
> <PUBCHEM_COMPOUND_ID_TYPE>
0

> <PUBCHEM_TOTAL_CHARGE>
0

> <PUBCHEM_SUBSTANCE_ID>
310933152

> <PUBCHEM_SUBSTANCE_VERSION>
1

> <PUBCHEM_EXT_DATASOURCE_NAME>
4488

> <PUBCHEM_EXT_DATASOURCE_REGID>
SCHEMBL16110560

> <PUBCHEM_SUBSTANCE_COMMENT>
InChI=1S/C12H16BrNO/c1-3-10-5-7-11(8-6-10)14(4-2)12(15)9-13/h5-8H,3-4,9H2,1-2H3
InChIKey=YYAKBOIFFIZVAG-UHFFFAOYSA-N

> <PUBCHEM_SUBSTANCE_SYNONYM>
SCHEMBL16110560

> <PUBCHEM_XREF_EXT_ID>
SCHEMBL16110560

> <PUBCHEM_EXT_DATASOURCE_URL>
https://www.surechembl.org/

> <PUBCHEM_EXT_SUBSTANCE_URL>
https://www.surechembl.org/chemical/SCHEMBL16110560

> <PUBCHEM_CID_ASSOCIATIONS>
117601604  1

> <PUBCHEM_COORDINATE_TYPE>
1
3

$$$$
