310946185
  -OEChem-07211613022D

 47 55  0     0  0  0  0  0  0999 V2000
    1.0449   11.2840    0.0000 S   0  0  0  0  0  0  0  0  0  0  0  0
    0.0623    9.7849    0.0000 N   0  0  0  0  0  0  0  0  0  0  0  0
   -2.3947    8.1844    0.0000 C   0  0  0  0  0  0  0  0  0  0  0  0
   -1.5877    8.3560    0.0000 C   0  0  0  0  0  0  0  0  0  0  0  0
   -1.1752    7.6415    0.0000 C   0  0  0  0  0  0  0  0  0  0  0  0
   -2.4809    7.3639    0.0000 C   0  0  0  0  0  0  0  0  0  0  0  0
   -1.7272    7.0284    0.0000 C   0  0  0  0  0  0  0  0  0  0  0  0
    1.2998   10.4994    0.0000 C   0  0  0  0  0  0  0  0  0  0  0  0
    0.8873    9.7849    0.0000 C   0  0  0  0  0  0  0  0  0  0  0  0
   -0.3502    9.0704    0.0000 C   0  0  0  0  0  0  0  0  0  0  0  0
    2.1248   10.4994    0.0000 C   0  0  0  0  0  0  0  0  0  0  0  0
    2.3797   11.2840    0.0000 C   0  0  0  0  0  0  0  0  0  0  0  0
    1.7123   11.7689    0.0000 C   0  0  0  0  0  0  0  0  0  0  0  0
   -1.1752    9.0704    0.0000 C   0  0  0  0  0  0  0  0  0  0  0  0
   -0.3502    7.6415    0.0000 C   0  0  0  0  0  0  0  0  0  0  0  0
   -0.3502   10.4994    0.0000 C   0  0  0  0  0  0  0  0  0  0  0  0
    0.0623    8.3560    0.0000 C   0  0  0  0  0  0  0  0  0  0  0  0
    1.7985   12.5894    0.0000 C   0  0  0  0  0  0  0  0  0  0  0  0
   -3.1483    6.8790    0.0000 C   0  0  0  0  0  0  0  0  0  0  0  0
   -1.6410    6.2079    0.0000 C   0  0  0  0  0  0  0  0  0  0  0  0
    1.2998    9.0704    0.0000 C   0  0  0  0  0  0  0  0  0  0  0  0
    2.5373    9.7849    0.0000 C   0  0  0  0  0  0  0  0  0  0  0  0
   -3.2197    8.1844    0.0000 C   0  0  0  0  0  0  0  0  0  0  0  0
   -2.8072    8.8989    0.0000 C   0  0  0  0  0  0  0  0  0  0  0  0
    3.1334   11.6195    0.0000 C   0  0  0  0  0  0  0  0  0  0  0  0
    2.1248    9.0704    0.0000 C   0  0  0  0  0  0  0  0  0  0  0  0
    1.1311   13.0743    0.0000 C   0  0  0  0  0  0  0  0  0  0  0  0
    2.5522   12.9250    0.0000 C   0  0  0  0  0  0  0  0  0  0  0  0
   -3.0621    6.0585    0.0000 C   0  0  0  0  0  0  0  0  0  0  0  0
   -2.3084    5.7230    0.0000 C   0  0  0  0  0  0  0  0  0  0  0  0
    0.0623   11.2138    0.0000 C   0  0  0  0  0  0  0  0  0  0  0  0
   -1.1752   10.4994    0.0000 C   0  0  0  0  0  0  0  0  0  0  0  0
    3.2197   12.4400    0.0000 C   0  0  0  0  0  0  0  0  0  0  0  0
   -1.1752   11.9283    0.0000 C   0  0  0  0  0  0  0  0  0  0  0  0
   -0.3502   11.9283    0.0000 C   0  0  0  0  0  0  0  0  0  0  0  0
   -1.5877   11.2138    0.0000 C   0  0  0  0  0  0  0  0  0  0  0  0
    1.2173   13.8948    0.0000 C   0  0  0  0  0  0  0  0  0  0  0  0
    0.3774   12.7388    0.0000 C   0  0  0  0  0  0  0  0  0  0  0  0
   -1.5877   12.6428    0.0000 C   0  0  0  0  0  0  0  0  0  0  0  0
    0.5499   14.3797    0.0000 C   0  0  0  0  0  0  0  0  0  0  0  0
   -0.2900   13.2237    0.0000 C   0  0  0  0  0  0  0  0  0  0  0  0
   -0.2038   14.0442    0.0000 C   0  0  0  0  0  0  0  0  0  0  0  0
   -1.1752   13.3573    0.0000 C   0  0  0  0  0  0  0  0  0  0  0  0
   -2.4127   12.6428    0.0000 C   0  0  0  0  0  0  0  0  0  0  0  0
   -1.5877   14.0717    0.0000 C   0  0  0  0  0  0  0  0  0  0  0  0
   -2.8252   13.3573    0.0000 C   0  0  0  0  0  0  0  0  0  0  0  0
   -2.4127   14.0717    0.0000 C   0  0  0  0  0  0  0  0  0  0  0  0
  1  8  1  0  0  0  0
  1 13  1  0  0  0  0
  2  9  1  0  0  0  0
  2 10  1  0  0  0  0
  2 16  1  0  0  0  0
  3  4  1  0  0  0  0
  3  6  1  0  0  0  0
  3 23  1  0  0  0  0
  3 24  1  0  0  0  0
  4  5  2  0  0  0  0
  4 14  1  0  0  0  0
  5  7  1  0  0  0  0
  5 15  1  0  0  0  0
  6  7  2  0  0  0  0
  6 19  1  0  0  0  0
  7 20  1  0  0  0  0
  8  9  1  0  0  0  0
  8 11  2  0  0  0  0
  9 21  2  0  0  0  0
 10 14  2  0  0  0  0
 10 17  1  0  0  0  0
 11 12  1  0  0  0  0
 11 22  1  0  0  0  0
 12 13  2  0  0  0  0
 12 25  1  0  0  0  0
 13 18  1  0  0  0  0
 15 17  2  0  0  0  0
 16 31  2  0  0  0  0
 16 32  1  0  0  0  0
 18 27  1  0  0  0  0
 18 28  2  0  0  0  0
 19 29  2  0  0  0  0
 20 30  2  0  0  0  0
 21 26  1  0  0  0  0
 22 26  2  0  0  0  0
 25 33  2  0  0  0  0
 27 37  2  0  0  0  0
 27 38  1  0  0  0  0
 28 33  1  0  0  0  0
 29 30  1  0  0  0  0
 31 35  1  0  0  0  0
 32 36  2  0  0  0  0
 34 35  2  0  0  0  0
 34 36  1  0  0  0  0
 34 39  1  0  0  0  0
 37 40  1  0  0  0  0
 38 41  2  0  0  0  0
 39 43  2  0  0  0  0
 39 44  1  0  0  0  0
 40 42  2  0  0  0  0
 41 42  1  0  0  0  0
 43 45  1  0  0  0  0
 44 46  2  0  0  0  0
 45 47  2  0  0  0  0
 46 47  1  0  0  0  0
M  END
> <PUBCHEM_COMPOUND_ID_TYPE>
0

> <PUBCHEM_TOTAL_CHARGE>
0

> <PUBCHEM_SUBSTANCE_ID>
310946185

> <PUBCHEM_SUBSTANCE_VERSION>
1

> <PUBCHEM_EXT_DATASOURCE_NAME>
4488

> <PUBCHEM_EXT_DATASOURCE_REGID>
SCHEMBL16124296

> <PUBCHEM_SUBSTANCE_COMMENT>
InChI=1S/C45H33NS/c1-45(2)40-21-10-9-17-36(40)37-28-27-34(29-41(37)45)46(33-25-23-31(24-26-33)30-13-5-3-6-14-30)42-22-12-20-39-38-19-11-18-35(43(38)47-44(39)42)32-15-7-4-8-16-32/h3-29H,1-2H3
InChIKey=FVSZOZMPOSSNKO-UHFFFAOYSA-N

> <PUBCHEM_SUBSTANCE_SYNONYM>
SCHEMBL16124296

> <PUBCHEM_XREF_EXT_ID>
SCHEMBL16124296

> <PUBCHEM_EXT_DATASOURCE_URL>
https://www.surechembl.org/

> <PUBCHEM_EXT_SUBSTANCE_URL>
https://www.surechembl.org/chemical/SCHEMBL16124296

> <PUBCHEM_CID_ASSOCIATIONS>
117612139  1

> <PUBCHEM_COORDINATE_TYPE>
1
3

$$$$
