310936266
  -OEChem-07211613022D

 23 25  0     0  0  0  0  0  0999 V2000
    2.8079   -2.5430    0.0000 S   0  0  0  0  0  0  0  0  0  0  0  0
    1.4305    0.0000    0.0000 O   0  0  0  0  0  0  0  0  0  0  0  0
    3.8411   -3.9205    0.0000 N   0  0  0  0  0  0  0  0  0  0  0  0
    1.4834   -2.5430    0.0000 N   0  0  0  0  0  0  0  0  0  0  0  0
    2.1457   -1.2450    0.0000 N   0  0  0  0  0  0  0  0  0  0  0  0
    2.5430   -3.3112    0.0000 C   0  0  0  0  0  0  0  0  0  0  0  0
    2.1457   -2.0662    0.0000 C   0  0  0  0  0  0  0  0  0  0  0  0
    3.0198   -3.9735    0.0000 C   0  0  0  0  0  0  0  0  0  0  0  0
    5.4834   -3.7615    0.0000 C   0  0  0  0  0  0  0  0  0  0  0  0
    1.7218   -3.3112    0.0000 C   0  0  0  0  0  0  0  0  0  0  0  0
    6.3046   -3.6821    0.0000 C   0  0  0  0  0  0  0  0  0  0  0  0
    4.1854   -3.1523    0.0000 C   0  0  0  0  0  0  0  0  0  0  0  0
    4.3179   -4.5562    0.0000 C   0  0  0  0  0  0  0  0  0  0  0  0
    5.0066   -3.0728    0.0000 C   0  0  0  0  0  0  0  0  0  0  0  0
    5.1390   -4.5033    0.0000 C   0  0  0  0  0  0  0  0  0  0  0  0
    1.4305   -0.8212    0.0000 C   0  0  0  0  0  0  0  0  0  0  0  0
    6.6490   -2.9139    0.0000 C   0  0  0  0  0  0  0  0  0  0  0  0
    6.7814   -4.3444    0.0000 C   0  0  0  0  0  0  0  0  0  0  0  0
    7.4701   -2.8344    0.0000 C   0  0  0  0  0  0  0  0  0  0  0  0
    7.6026   -4.2649    0.0000 C   0  0  0  0  0  0  0  0  0  0  0  0
    0.7152   -1.2450    0.0000 C   0  0  0  0  0  0  0  0  0  0  0  0
    7.9469   -3.5231    0.0000 C   0  0  0  0  0  0  0  0  0  0  0  0
    0.0000   -0.8212    0.0000 C   0  0  0  0  0  0  0  0  0  0  0  0
  1  6  1  0  0  0  0
  1  7  1  0  0  0  0
  2 16  2  0  0  0  0
  3  8  1  0  0  0  0
  3 12  1  0  0  0  0
  3 13  1  0  0  0  0
  4  7  2  0  0  0  0
  4 10  1  0  0  0  0
  5  7  1  0  0  0  0
  5 16  1  0  0  0  0
  6  8  1  0  0  0  0
  6 10  2  0  0  0  0
  9 11  1  0  0  0  0
  9 14  1  0  0  0  0
  9 15  1  0  0  0  0
 11 17  2  0  0  0  0
 11 18  1  0  0  0  0
 12 14  1  0  0  0  0
 13 15  1  0  0  0  0
 16 21  1  0  0  0  0
 17 19  1  0  0  0  0
 18 20  2  0  0  0  0
 19 22  2  0  0  0  0
 20 22  1  0  0  0  0
 21 23  2  0  0  0  0
M  END
> <PUBCHEM_COMPOUND_ID_TYPE>
0

> <PUBCHEM_TOTAL_CHARGE>
0

> <PUBCHEM_SUBSTANCE_ID>
310936266

> <PUBCHEM_SUBSTANCE_VERSION>
1

> <PUBCHEM_EXT_DATASOURCE_NAME>
4488

> <PUBCHEM_EXT_DATASOURCE_REGID>
SCHEMBL16113885

> <PUBCHEM_SUBSTANCE_COMMENT>
InChI=1S/C18H21N3OS/c1-2-17(22)20-18-19-12-16(23-18)13-21-10-8-15(9-11-21)14-6-4-3-5-7-14/h2-7,12,15H,1,8-11,13H2,(H,19,20,22)
InChIKey=BNOWQRBOTNEPEY-UHFFFAOYSA-N

> <PUBCHEM_SUBSTANCE_SYNONYM>
SCHEMBL16113885

> <PUBCHEM_XREF_EXT_ID>
SCHEMBL16113885

> <PUBCHEM_EXT_DATASOURCE_URL>
https://www.surechembl.org/

> <PUBCHEM_EXT_SUBSTANCE_URL>
https://www.surechembl.org/chemical/SCHEMBL16113885

> <PUBCHEM_CID_ASSOCIATIONS>
86274332  1

> <PUBCHEM_COORDINATE_TYPE>
1
3

$$$$
