310933482
  -OEChem-07211613022D

 18 20  0     0  0  0  0  0  0999 V2000
    3.1430   -2.8679    0.0000 O   0  0  0  0  0  0  0  0  0  0  0  0
    3.1430    0.0000    0.0000 O   0  0  0  0  0  0  0  0  0  0  0  0
    5.4609   -0.7268    0.0000 N   0  0  0  0  0  0  0  0  0  0  0  0
    3.3787   -1.4340    0.0000 C   0  0  0  0  0  0  0  0  0  0  0  0
    2.1215   -1.8661    0.0000 C   0  0  0  0  0  0  0  0  0  0  0  0
    2.1215   -1.0018    0.0000 C   0  0  0  0  0  0  0  0  0  0  0  0
    2.8876   -2.0822    0.0000 C   0  0  0  0  0  0  0  0  0  0  0  0
    2.8876   -0.7857    0.0000 C   0  0  0  0  0  0  0  0  0  0  0  0
    4.2037   -1.4340    0.0000 C   0  0  0  0  0  0  0  0  0  0  0  0
    1.3947   -2.2590    0.0000 C   0  0  0  0  0  0  0  0  0  0  0  0
    1.3947   -0.6089    0.0000 C   0  0  0  0  0  0  0  0  0  0  0  0
    0.7072   -1.8661    0.0000 C   0  0  0  0  0  0  0  0  0  0  0  0
    0.7072   -1.0018    0.0000 C   0  0  0  0  0  0  0  0  0  0  0  0
    4.6555   -0.7268    0.0000 C   0  0  0  0  0  0  0  0  0  0  0  0
    4.6555   -2.1411    0.0000 C   0  0  0  0  0  0  0  0  0  0  0  0
    5.4609   -2.1411    0.0000 C   0  0  0  0  0  0  0  0  0  0  0  0
    5.8930   -1.4340    0.0000 C   0  0  0  0  0  0  0  0  0  0  0  0
    0.0000   -2.2786    0.0000 C   0  0  0  0  0  0  0  0  0  0  0  0
  1  7  2  0  0  0  0
  2  8  1  0  0  0  0
  3 14  1  0  0  0  0
  3 17  2  0  0  0  0
  4  7  1  0  0  0  0
  4  8  2  0  0  0  0
  4  9  1  0  0  0  0
  5  6  2  0  0  0  0
  5  7  1  0  0  0  0
  5 10  1  0  0  0  0
  6  8  1  0  0  0  0
  6 11  1  0  0  0  0
  9 14  2  0  0  0  0
  9 15  1  0  0  0  0
 10 12  2  0  0  0  0
 11 13  2  0  0  0  0
 12 13  1  0  0  0  0
 12 18  1  0  0  0  0
 15 16  2  0  0  0  0
 16 17  1  0  0  0  0
M  END
> <PUBCHEM_COMPOUND_ID_TYPE>
0

> <PUBCHEM_TOTAL_CHARGE>
0

> <PUBCHEM_SUBSTANCE_ID>
310933482

> <PUBCHEM_SUBSTANCE_VERSION>
1

> <PUBCHEM_EXT_DATASOURCE_NAME>
4488

> <PUBCHEM_EXT_DATASOURCE_REGID>
SCHEMBL16110902

> <PUBCHEM_SUBSTANCE_COMMENT>
InChI=1S/C15H11NO2/c1-9-4-5-11-12(7-9)15(18)13(14(11)17)10-3-2-6-16-8-10/h2-8,17H,1H3
InChIKey=DKAZJYWGOQJGBM-UHFFFAOYSA-N

> <PUBCHEM_SUBSTANCE_SYNONYM>
SCHEMBL16110902

> <PUBCHEM_XREF_EXT_ID>
SCHEMBL16110902

> <PUBCHEM_EXT_DATASOURCE_URL>
https://www.surechembl.org/

> <PUBCHEM_EXT_SUBSTANCE_URL>
https://www.surechembl.org/chemical/SCHEMBL16110902

> <PUBCHEM_CID_ASSOCIATIONS>
117601878  1

> <PUBCHEM_COORDINATE_TYPE>
1
3

$$$$
