310936876
  -OEChem-07211613022D

 19 22  0     0  0  0  0  0  0999 V2000
    0.6670   -1.3344    0.0000 O   0  0  0  0  0  0  0  0  0  0  0  0
    2.2912   -1.6248    0.0000 O   0  0  0  0  0  0  0  0  0  0  0  0
    0.9185    0.0722    0.0000 C   0  0  0  0  0  0  0  0  0  0  0  0
    1.4503    0.7029    0.0000 C   0  0  0  0  0  0  0  0  0  0  0  0
    2.2624    0.5577    0.0000 C   0  0  0  0  0  0  0  0  0  0  0  0
    0.1064    0.2174    0.0000 C   0  0  0  0  0  0  0  0  0  0  0  0
    1.1988   -0.7037    0.0000 C   0  0  0  0  0  0  0  0  0  0  0  0
    2.5427   -0.2182    0.0000 C   0  0  0  0  0  0  0  0  0  0  0  0
    2.0109   -0.8489    0.0000 C   0  0  0  0  0  0  0  0  0  0  0  0
   -0.1739    0.9934    0.0000 C   0  0  0  0  0  0  0  0  0  0  0  0
    1.1700    1.4789    0.0000 C   0  0  0  0  0  0  0  0  0  0  0  0
    0.3579    1.6241    0.0000 C   0  0  0  0  0  0  0  0  0  0  0  0
    2.7943    1.1884    0.0000 C   0  0  0  0  0  0  0  0  0  0  0  0
   -0.5450   -0.2889    0.0000 C   0  0  0  0  0  0  0  0  0  0  0  0
    3.3549   -0.3634    0.0000 C   0  0  0  0  0  0  0  0  0  0  0  0
   -0.9985    0.9666    0.0000 C   0  0  0  0  0  0  0  0  0  0  0  0
   -1.2278    0.1741    0.0000 C   0  0  0  0  0  0  0  0  0  0  0  0
    3.6064    1.0432    0.0000 C   0  0  0  0  0  0  0  0  0  0  0  0
    3.8867    0.2673    0.0000 C   0  0  0  0  0  0  0  0  0  0  0  0
  1  7  1  0  0  0  0
  2  9  1  0  0  0  0
  3  4  1  0  0  0  0
  3  6  2  0  0  0  0
  3  7  1  0  0  0  0
  4  5  1  0  0  0  0
  4 11  2  0  0  0  0
  5  8  2  0  0  0  0
  5 13  1  0  0  0  0
  6 10  1  0  0  0  0
  6 14  1  0  0  0  0
  7  9  2  0  0  0  0
  8  9  1  0  0  0  0
  8 15  1  0  0  0  0
 10 12  2  0  0  0  0
 10 16  1  0  0  0  0
 11 12  1  0  0  0  0
 13 18  2  0  0  0  0
 14 17  1  0  0  0  0
 15 19  2  0  0  0  0
 16 17  2  0  0  0  0
 18 19  1  0  0  0  0
M  END
> <PUBCHEM_COMPOUND_ID_TYPE>
0

> <PUBCHEM_TOTAL_CHARGE>
0

> <PUBCHEM_SUBSTANCE_ID>
310936876

> <PUBCHEM_SUBSTANCE_VERSION>
1

> <PUBCHEM_EXT_DATASOURCE_NAME>
4488

> <PUBCHEM_EXT_DATASOURCE_REGID>
SCHEMBL16114571

> <PUBCHEM_SUBSTANCE_COMMENT>
InChI=1S/C17H12O2/c18-16-14-6-2-1-5-12(14)13-9-8-10-4-3-7-11(10)15(13)17(16)19/h1-6,8-9,18-19H,7H2
InChIKey=DNQVRTUZUPWFQQ-UHFFFAOYSA-N

> <PUBCHEM_SUBSTANCE_SYNONYM>
SCHEMBL16114571

> <PUBCHEM_XREF_EXT_ID>
SCHEMBL16114571

> <PUBCHEM_EXT_DATASOURCE_URL>
https://www.surechembl.org/

> <PUBCHEM_EXT_SUBSTANCE_URL>
https://www.surechembl.org/chemical/SCHEMBL16114571

> <PUBCHEM_CID_ASSOCIATIONS>
117604767  1

> <PUBCHEM_COORDINATE_TYPE>
1
3

$$$$
