310947466
  -OEChem-07211613022D

 24 25  0     0  0  0  0  0  0999 V2000
   -3.3607   -1.4407    0.0000 O   0  0  0  0  0  0  0  0  0  0  0  0
    0.9220   -4.7384    0.0000 O   0  0  0  0  0  0  0  0  0  0  0  0
    1.6341   -2.4045    0.0000 O   0  0  0  0  0  0  0  0  0  0  0  0
   -4.0750   -2.6782    0.0000 N   0  0  0  0  0  0  0  0  0  0  0  0
    1.6341   -3.5046    0.0000 N   0  0  0  0  0  0  0  0  0  0  0  0
   -3.3607   -2.2657    0.0000 C   0  0  0  0  0  0  0  0  0  0  0  0
   -2.6461   -2.6782    0.0000 C   0  0  0  0  0  0  0  0  0  0  0  0
   -4.0750   -3.5034    0.0000 C   0  0  0  0  0  0  0  0  0  0  0  0
   -2.6461   -3.5034    0.0000 C   0  0  0  0  0  0  0  0  0  0  0  0
   -1.9317   -2.2657    0.0000 C   0  0  0  0  0  0  0  0  0  0  0  0
   -1.2171   -3.5034    0.0000 C   0  0  0  0  0  0  0  0  0  0  0  0
   -4.7897   -2.2657    0.0000 C   0  0  0  0  0  0  0  0  0  0  0  0
   -1.9317   -3.9157    0.0000 C   0  0  0  0  0  0  0  0  0  0  0  0
   -1.2171   -2.6782    0.0000 C   0  0  0  0  0  0  0  0  0  0  0  0
   -4.7897   -3.9157    0.0000 C   0  0  0  0  0  0  0  0  0  0  0  0
   -3.3607   -3.9157    0.0000 C   0  0  0  0  0  0  0  0  0  0  0  0
   -0.5025   -3.9157    0.0000 C   0  0  0  0  0  0  0  0  0  0  0  0
   -4.7897   -4.7409    0.0000 C   0  0  0  0  0  0  0  0  0  0  0  0
   -3.3607   -4.7409    0.0000 C   0  0  0  0  0  0  0  0  0  0  0  0
   -4.7897   -1.4407    0.0000 C   0  0  0  0  0  0  0  0  0  0  0  0
   -4.0750   -5.1534    0.0000 C   0  0  0  0  0  0  0  0  0  0  0  0
    0.2096   -3.5046    0.0000 C   0  0  0  0  0  0  0  0  0  0  0  0
    0.9220   -3.9157    0.0000 C   0  0  0  0  0  0  0  0  0  0  0  0
   -5.5041   -1.0282    0.0000 C   0  0  0  0  0  0  0  0  0  0  0  0
  1  6  2  0  0  0  0
  2 23  2  0  0  0  0
  3  5  1  0  0  0  0
  4  6  1  0  0  0  0
  4  8  1  0  0  0  0
  4 12  1  0  0  0  0
  5 23  1  0  0  0  0
  6  7  1  0  0  0  0
  7  9  2  0  0  0  0
  7 10  1  0  0  0  0
  8 15  2  0  0  0  0
  8 16  1  0  0  0  0
  9 13  1  0  0  0  0
 10 14  2  0  0  0  0
 11 13  2  0  0  0  0
 11 14  1  0  0  0  0
 11 17  1  0  0  0  0
 12 20  1  0  0  0  0
 15 18  1  0  0  0  0
 16 19  2  0  0  0  0
 17 22  1  0  0  0  0
 18 21  2  0  0  0  0
 19 21  1  0  0  0  0
 20 24  1  0  0  0  0
 22 23  1  0  0  0  0
M  END
> <PUBCHEM_COMPOUND_ID_TYPE>
0

> <PUBCHEM_TOTAL_CHARGE>
0

> <PUBCHEM_SUBSTANCE_ID>
310947466

> <PUBCHEM_SUBSTANCE_VERSION>
1

> <PUBCHEM_EXT_DATASOURCE_NAME>
4488

> <PUBCHEM_EXT_DATASOURCE_REGID>
SCHEMBL16125627

> <PUBCHEM_SUBSTANCE_COMMENT>
InChI=1S/C19H22N2O3/c1-2-14-21(17-6-4-3-5-7-17)19(23)16-11-8-15(9-12-16)10-13-18(22)20-24/h3-9,11-12,24H,2,10,13-14H2,1H3,(H,20,22)
InChIKey=FFIDRTUBULKTNZ-UHFFFAOYSA-N

> <PUBCHEM_SUBSTANCE_SYNONYM>
SCHEMBL16125627

> <PUBCHEM_XREF_EXT_ID>
SCHEMBL16125627

> <PUBCHEM_EXT_DATASOURCE_URL>
https://www.surechembl.org/

> <PUBCHEM_EXT_SUBSTANCE_URL>
https://www.surechembl.org/chemical/SCHEMBL16125627

> <PUBCHEM_CID_ASSOCIATIONS>
117613197  1

> <PUBCHEM_COORDINATE_TYPE>
1
3

$$$$
