310937781
  -OEChem-07211613022D

 24 27  0     0  0  0  0  0  0999 V2000
    6.5588   -2.2126    0.0000 O   0  0  0  0  0  0  0  0  0  0  0  0
    2.4760   -2.9238    0.0000 O   0  0  0  0  0  0  0  0  0  0  0  0
    0.0000   -2.6340    0.0000 O   0  0  0  0  0  0  0  0  0  0  0  0
    5.2944   -1.8175    0.0000 N   0  0  0  0  0  0  0  0  0  0  0  0
    4.7149   -3.8984    0.0000 N   0  0  0  0  0  0  0  0  0  0  0  0
    6.0846   -2.8974    0.0000 N   0  0  0  0  0  0  0  0  0  0  0  0
    3.3189   -4.0564    0.0000 C   0  0  0  0  0  0  0  0  0  0  0  0
    4.6359   -3.1082    0.0000 C   0  0  0  0  0  0  0  0  0  0  0  0
    5.2944   -2.6340    0.0000 C   0  0  0  0  0  0  0  0  0  0  0  0
    3.2399   -3.2662    0.0000 C   0  0  0  0  0  0  0  0  0  0  0  0
    2.6604   -4.5305    0.0000 C   0  0  0  0  0  0  0  0  0  0  0  0
    6.0846   -1.5541    0.0000 C   0  0  0  0  0  0  0  0  0  0  0  0
    3.8984   -2.7394    0.0000 C   0  0  0  0  0  0  0  0  0  0  0  0
    6.3217   -0.7639    0.0000 C   0  0  0  0  0  0  0  0  0  0  0  0
    4.0828   -4.3988    0.0000 C   0  0  0  0  0  0  0  0  0  0  0  0
    2.3180   -5.2681    0.0000 C   0  0  0  0  0  0  0  0  0  0  0  0
    1.8175   -4.6096    0.0000 C   0  0  0  0  0  0  0  0  0  0  0  0
    1.8175   -3.4242    0.0000 C   0  0  0  0  0  0  0  0  0  0  0  0
    1.0536   -3.1082    0.0000 C   0  0  0  0  0  0  0  0  0  0  0  0
    7.1382   -1.0273    0.0000 C   0  0  0  0  0  0  0  0  0  0  0  0
    6.5851    0.0000    0.0000 C   0  0  0  0  0  0  0  0  0  0  0  0
    5.5578   -0.5268    0.0000 C   0  0  0  0  0  0  0  0  0  0  0  0
    0.7639   -2.3180    0.0000 C   0  0  0  0  0  0  0  0  0  0  0  0
    0.3161   -3.3979    0.0000 C   0  0  0  0  0  0  0  0  0  0  0  0
  1  6  1  0  0  0  0
  1 12  1  0  0  0  0
  2 10  1  0  0  0  0
  2 18  1  0  0  0  0
  3 23  1  0  0  0  0
  3 24  1  0  0  0  0
  4  9  1  0  0  0  0
  4 12  2  0  0  0  0
  5  8  1  0  0  0  0
  5 15  2  0  0  0  0
  6  9  2  0  0  0  0
  7 10  2  0  0  0  0
  7 11  1  0  0  0  0
  7 15  1  0  0  0  0
  8  9  1  0  0  0  0
  8 13  2  0  0  0  0
 10 13  1  0  0  0  0
 11 16  1  0  0  0  0
 11 17  1  0  0  0  0
 12 14  1  0  0  0  0
 14 20  1  0  0  0  0
 14 21  1  0  0  0  0
 14 22  1  0  0  0  0
 16 17  1  0  0  0  0
 18 19  1  0  0  0  0
 19 23  1  0  0  0  0
 19 24  1  0  0  0  0
M  END
> <PUBCHEM_COMPOUND_ID_TYPE>
0

> <PUBCHEM_TOTAL_CHARGE>
0

> <PUBCHEM_SUBSTANCE_ID>
310937781

> <PUBCHEM_SUBSTANCE_VERSION>
1

> <PUBCHEM_EXT_DATASOURCE_NAME>
4488

> <PUBCHEM_EXT_DATASOURCE_REGID>
SCHEMBL16115594

> <PUBCHEM_SUBSTANCE_COMMENT>
InChI=1S/C18H23N3O3/c1-18(2,3)17-20-16(21-24-17)14-6-15(23-10-11-8-22-9-11)13(7-19-14)12-4-5-12/h6-7,11-12H,4-5,8-10H2,1-3H3
InChIKey=VMSHTNPDBYFZHE-UHFFFAOYSA-N

> <PUBCHEM_SUBSTANCE_SYNONYM>
SCHEMBL16115594

> <PUBCHEM_XREF_EXT_ID>
SCHEMBL16115594

> <PUBCHEM_EXT_DATASOURCE_URL>
https://www.surechembl.org/

> <PUBCHEM_EXT_SUBSTANCE_URL>
https://www.surechembl.org/chemical/SCHEMBL16115594

> <PUBCHEM_CID_ASSOCIATIONS>
86276073  1

> <PUBCHEM_COORDINATE_TYPE>
1
3

$$$$
