310948280
  -OEChem-07211613022D

 35 40  0     1  0  0  0  0  0999 V2000
   -0.3676   -2.5110    0.0000 S   0  0  0  0  0  0  0  0  0  0  0  0
   -0.2428   -3.3157    0.0000 O   0  0  0  0  0  0  0  0  0  0  0  0
   -1.1445   -2.7607    0.0000 O   0  0  0  0  0  0  0  0  0  0  0  0
   -2.5735    2.0255    0.0000 O   0  0  0  0  0  0  0  0  0  0  0  0
    0.1595    1.8590    0.0000 N   0  0  0  0  0  0  0  0  0  0  0  0
   -0.1734    1.1099    0.0000 N   0  0  0  0  0  0  0  0  0  0  0  0
   -1.5469    0.5827    0.0000 N   0  0  0  0  0  0  0  0  0  0  0  0
   -1.8660    3.2602    0.0000 N   0  0  0  0  0  0  0  0  0  0  0  0
    1.0196   -0.1665    0.0000 N   0  0  0  0  0  0  0  0  0  0  0  0
    0.4232   -2.3029    0.0000 C   0  0  0  0  0  0  0  0  0  0  0  0
   -0.7977   -1.7758    0.0000 C   0  0  0  0  0  0  0  0  0  0  0  0
   -0.2428   -1.1515    0.0000 C   0  0  0  0  0  0  0  0  0  0  0  0
    0.5202   -1.4844    0.0000 C   0  0  0  0  0  0  0  0  0  0  0  0
   -1.1723    2.0255    0.0000 C   0  0  0  0  0  0  0  0  0  0  0  0
    1.2278   -2.0532    0.0000 C   0  0  0  0  0  0  0  0  0  0  0  0
    0.2567   -3.1214    0.0000 C   0  0  0  0  0  0  0  0  0  0  0  0
   -1.0058    1.2347    0.0000 C   0  0  0  0  0  0  0  0  0  0  0  0
   -0.4648    2.4417    0.0000 C   0  0  0  0  0  0  0  0  0  0  0  0
   -0.4925   -0.3607    0.0000 C   0  0  0  0  0  0  0  0  0  0  0  0
   -1.6024   -1.5816    0.0000 C   0  0  0  0  0  0  0  0  0  0  0  0
   -1.3110   -0.1665    0.0000 C   0  0  0  0  0  0  0  0  0  0  0  0
   -1.8381   -0.7769    0.0000 C   0  0  0  0  0  0  0  0  0  0  0  0
    0.9642    2.0394    0.0000 C   0  0  3  0  0  0  0  0  0  0  0  0
   -1.8660    2.4555    0.0000 C   0  0  0  0  0  0  0  0  0  0  0  0
    1.8104   -2.5943    0.0000 C   0  0  0  0  0  0  0  0  0  0  0  0
    0.8809   -3.6764    0.0000 C   0  0  0  0  0  0  0  0  0  0  0  0
   -0.4370    3.2602    0.0000 C   0  0  0  0  0  0  0  0  0  0  0  0
    1.5191    1.4289    0.0000 C   0  0  3  0  0  0  0  0  0  0  0  0
    1.6301   -3.4266    0.0000 C   0  0  0  0  0  0  0  0  0  0  0  0
   -1.1723    3.6764    0.0000 C   0  0  0  0  0  0  0  0  0  0  0  0
    1.2417    2.8162    0.0000 C   0  0  0  0  0  0  0  0  0  0  0  0
    2.3237    1.5954    0.0000 C   0  0  0  0  0  0  0  0  0  0  0  0
    1.2555    0.6104    0.0000 C   0  0  0  0  0  0  0  0  0  0  0  0
    2.0463    2.9688    0.0000 C   0  0  0  0  0  0  0  0  0  0  0  0
    2.5735    2.3862    0.0000 C   0  0  0  0  0  0  0  0  0  0  0  0
  1  2  2  0  0  0  0
  1  3  2  0  0  0  0
  1 10  1  0  0  0  0
  1 11  1  0  0  0  0
  4 24  2  0  0  0  0
  5  6  1  0  0  0  0
  5 18  1  0  0  0  0
 23  5  1  1  0  0  0
  6 17  2  0  0  0  0
  7 17  1  0  0  0  0
  7 21  1  0  0  0  0
  8 24  1  0  0  0  0
  8 30  1  0  0  0  0
  9 33  3  0  0  0  0
 10 13  1  0  0  0  0
 10 15  1  0  0  0  0
 10 16  1  0  0  0  0
 11 12  1  0  0  0  0
 11 20  2  0  0  0  0
 12 13  1  0  0  0  0
 12 19  2  0  0  0  0
 14 17  1  0  0  0  0
 14 18  2  0  0  0  0
 14 24  1  0  0  0  0
 15 25  1  0  0  0  0
 16 26  1  0  0  0  0
 18 27  1  0  0  0  0
 19 21  1  0  0  0  0
 20 22  1  0  0  0  0
 21 22  2  0  0  0  0
 23 28  1  0  0  0  0
 23 31  1  0  0  0  0
 25 29  1  0  0  0  0
 26 29  1  0  0  0  0
 27 30  2  0  0  0  0
 28 32  1  0  0  0  0
 28 33  1  6  0  0  0
 31 34  1  0  0  0  0
 32 35  1  0  0  0  0
 34 35  1  0  0  0  0
M  END
> <PUBCHEM_COMPOUND_ID_TYPE>
0

> <PUBCHEM_TOTAL_CHARGE>
0

> <PUBCHEM_SUBSTANCE_ID>
310948280

> <PUBCHEM_SUBSTANCE_VERSION>
1

> <PUBCHEM_EXT_DATASOURCE_NAME>
4488

> <PUBCHEM_EXT_DATASOURCE_REGID>
SCHEMBL16126457

> <PUBCHEM_SUBSTANCE_COMMENT>
InChI=1S/C26H29N5O3S/c27-16-17-6-2-3-7-20(17)31-21-10-13-28-25(32)23(21)24(30-31)29-19-8-9-22-18(14-19)15-26(35(22,33)34)11-4-1-5-12-26/h8-10,13-14,17,20H,1-7,11-12,15H2,(H,28,32)(H,29,30)/t17-,20+/m1/s1
InChIKey=BCUINLRAFXSFFN-XLIONFOSSA-N

> <PUBCHEM_SUBSTANCE_SYNONYM>
SCHEMBL16126457

> <PUBCHEM_XREF_EXT_ID>
SCHEMBL16126457

> <PUBCHEM_EXT_DATASOURCE_URL>
https://www.surechembl.org/

> <PUBCHEM_EXT_SUBSTANCE_URL>
https://www.surechembl.org/chemical/SCHEMBL16126457

> <PUBCHEM_CID_ASSOCIATIONS>
117613859  1

> <PUBCHEM_COORDINATE_TYPE>
1
3

> <PUBCHEM_BONDANNOTATIONS>
28  33  6
23  5  5

$$$$
