310943202
  -OEChem-07211613022D

 33 36  0     0  0  0  0  0  0999 V2000
    4.8385    1.5079    0.0000 F   0  0  0  0  0  0  0  0  0  0  0  0
    5.5558    0.2781    0.0000 F   0  0  0  0  0  0  0  0  0  0  0  0
   -2.6718   -1.8885    0.0000 O   0  0  0  0  0  0  0  0  0  0  0  0
   -5.5558    1.4786    0.0000 O   0  0  0  0  0  0  0  0  0  0  0  0
    1.9691    1.5079    0.0000 O   0  0  0  0  0  0  0  0  0  0  0  0
   -3.3891   -0.6588    0.0000 N   0  0  0  0  0  0  0  0  0  0  0  0
   -4.1211    0.6588    0.0000 N   0  0  0  0  0  0  0  0  0  0  0  0
   -0.4026    1.8739    0.0000 N   0  0  0  0  0  0  0  0  0  0  0  0
    1.0321    0.2342    0.0000 N   0  0  0  0  0  0  0  0  0  0  0  0
   -1.9544    0.1757    0.0000 C   0  0  0  0  0  0  0  0  0  0  0  0
   -3.3891    0.1757    0.0000 C   0  0  0  0  0  0  0  0  0  0  0  0
   -1.1346    0.6442    0.0000 C   0  0  0  0  0  0  0  0  0  0  0  0
   -2.6864    0.5709    0.0000 C   0  0  0  0  0  0  0  0  0  0  0  0
   -2.6718   -1.0394    0.0000 C   0  0  0  0  0  0  0  0  0  0  0  0
   -1.9691   -0.6588    0.0000 C   0  0  0  0  0  0  0  0  0  0  0  0
   -1.1200    1.4786    0.0000 C   0  0  0  0  0  0  0  0  0  0  0  0
   -0.4026    0.2489    0.0000 C   0  0  0  0  0  0  0  0  0  0  0  0
    0.3001    0.6442    0.0000 C   0  0  0  0  0  0  0  0  0  0  0  0
    0.3148    1.4640    0.0000 C   0  0  0  0  0  0  0  0  0  0  0  0
    1.9691    0.6734    0.0000 C   0  0  0  0  0  0  0  0  0  0  0  0
   -4.1211    1.4786    0.0000 C   0  0  0  0  0  0  0  0  0  0  0  0
   -4.8238    0.2489    0.0000 C   0  0  0  0  0  0  0  0  0  0  0  0
    2.7011    0.2781    0.0000 C   0  0  0  0  0  0  0  0  0  0  0  0
   -4.1211   -1.0687    0.0000 C   0  0  0  0  0  0  0  0  0  0  0  0
   -1.8519    1.8593    0.0000 C   0  0  0  0  0  0  0  0  0  0  0  0
    3.4037    0.6734    0.0000 C   0  0  0  0  0  0  0  0  0  0  0  0
    4.1211    0.2781    0.0000 C   0  0  0  0  0  0  0  0  0  0  0  0
   -4.8238    1.8885    0.0000 C   0  0  0  0  0  0  0  0  0  0  0  0
   -5.5412    0.6588    0.0000 C   0  0  0  0  0  0  0  0  0  0  0  0
    2.7011   -0.5417    0.0000 C   0  0  0  0  0  0  0  0  0  0  0  0
    4.1211   -0.5417    0.0000 C   0  0  0  0  0  0  0  0  0  0  0  0
    3.4037   -0.9516    0.0000 C   0  0  0  0  0  0  0  0  0  0  0  0
    4.8385    0.6881    0.0000 C   0  0  0  0  0  0  0  0  0  0  0  0
  1 33  1  0  0  0  0
  2 33  1  0  0  0  0
  3 14  2  0  0  0  0
  4 28  1  0  0  0  0
  4 29  1  0  0  0  0
  5 20  2  0  0  0  0
  6 11  1  0  0  0  0
  6 14  1  0  0  0  0
  6 24  1  0  0  0  0
  7 11  1  0  0  0  0
  7 21  1  0  0  0  0
  7 22  1  0  0  0  0
  8 16  2  0  0  0  0
  8 19  1  0  0  0  0
  9 18  1  0  0  0  0
  9 20  1  0  0  0  0
 10 12  1  0  0  0  0
 10 13  1  0  0  0  0
 10 15  2  0  0  0  0
 11 13  2  0  0  0  0
 12 16  1  0  0  0  0
 12 17  2  0  0  0  0
 14 15  1  0  0  0  0
 16 25  1  0  0  0  0
 17 18  1  0  0  0  0
 18 19  2  0  0  0  0
 20 23  1  0  0  0  0
 21 28  1  0  0  0  0
 22 29  1  0  0  0  0
 23 26  1  0  0  0  0
 23 30  2  0  0  0  0
 26 27  2  0  0  0  0
 27 31  1  0  0  0  0
 27 33  1  0  0  0  0
 30 32  1  0  0  0  0
 31 32  2  0  0  0  0
M  END
> <PUBCHEM_COMPOUND_ID_TYPE>
0

> <PUBCHEM_TOTAL_CHARGE>
0

> <PUBCHEM_SUBSTANCE_ID>
310943202

> <PUBCHEM_SUBSTANCE_VERSION>
1

> <PUBCHEM_EXT_DATASOURCE_NAME>
4488

> <PUBCHEM_EXT_DATASOURCE_REGID>
SCHEMBL16121263

> <PUBCHEM_SUBSTANCE_COMMENT>
InChI=1S/C24H24F2N4O3/c1-15-20(18-11-21(29(2)22(31)12-18)30-6-8-33-9-7-30)13-19(14-27-15)28-24(32)17-5-3-4-16(10-17)23(25)26/h3-5,10-14,23H,6-9H2,1-2H3,(H,28,32)
InChIKey=VYUOKHWTDHUGIU-UHFFFAOYSA-N

> <PUBCHEM_SUBSTANCE_SYNONYM>
SCHEMBL16121263

> <PUBCHEM_XREF_EXT_ID>
SCHEMBL16121263

> <PUBCHEM_EXT_DATASOURCE_URL>
https://www.surechembl.org/

> <PUBCHEM_EXT_SUBSTANCE_URL>
https://www.surechembl.org/chemical/SCHEMBL16121263

> <PUBCHEM_CID_ASSOCIATIONS>
117609628  1

> <PUBCHEM_COORDINATE_TYPE>
1
3

$$$$
