310947627
  -OEChem-07211613022D

 40 44  0     1  0  0  0  0  0999 V2000
   -4.4546   -1.4618    0.0000 Cl  0  0  0  0  0  0  0  0  0  0  0  0
    0.8382   -2.7088    0.0000 Cl  0  0  0  0  0  0  0  0  0  0  0  0
   -4.1913    0.2148    0.0000 F   0  0  0  0  0  0  0  0  0  0  0  0
    0.1316    0.2148    0.0000 O   0  0  0  0  0  0  0  0  0  0  0  0
   -0.5889    2.2932    0.0000 O   0  0  0  0  0  0  0  0  0  0  0  0
   -2.7503    2.7088    0.0000 O   0  0  0  0  0  0  0  0  0  0  0  0
    3.7203   -1.0461    0.0000 O   0  0  0  0  0  0  0  0  0  0  0  0
    4.4408    0.2148    0.0000 O   0  0  0  0  0  0  0  0  0  0  0  0
   -1.3093    1.0461    0.0000 N   0  0  0  0  0  0  0  0  0  0  0  0
    2.2932    1.4756    0.0000 N   0  0  0  0  0  0  0  0  0  0  0  0
   -1.3093    0.2287    0.0000 C   0  0  3  0  0  0  0  0  0  0  0  0
    0.1316    1.0599    0.0000 C   0  0  3  0  0  0  0  0  0  0  0  0
   -0.5889    1.4479    0.0000 C   0  0  0  0  0  0  0  0  0  0  0  0
   -0.5751   -0.1871    0.0000 C   0  0  3  0  0  0  0  0  0  0  0  0
   -2.0299    1.4895    0.0000 C   0  0  3  0  0  0  0  0  0  0  0  0
   -2.0438   -0.2009    0.0000 C   0  0  0  0  0  0  0  0  0  0  0  0
   -0.6028   -1.0461    0.0000 C   0  0  0  0  0  0  0  0  0  0  0  0
   -2.8058    1.0183    0.0000 C   0  0  0  0  0  0  0  0  0  0  0  0
    0.8382    1.4618    0.0000 C   0  0  0  0  0  0  0  0  0  0  0  0
    0.3395    1.8498    0.0000 C   0  0  0  0  0  0  0  0  0  0  0  0
   -2.7503    0.2009    0.0000 C   0  0  0  0  0  0  0  0  0  0  0  0
   -3.5541    1.0461    0.0000 C   0  0  0  0  0  0  0  0  0  0  0  0
   -3.1522    0.3534    0.0000 C   0  0  0  0  0  0  0  0  0  0  0  0
   -2.0299    2.3070    0.0000 C   0  0  0  0  0  0  0  0  0  0  0  0
   -2.0299   -1.0322    0.0000 C   0  0  0  0  0  0  0  0  0  0  0  0
    1.5726    1.0599    0.0000 C   0  0  0  0  0  0  0  0  0  0  0  0
    0.1178   -1.4479    0.0000 C   0  0  0  0  0  0  0  0  0  0  0  0
   -1.3093   -1.4479    0.0000 C   0  0  0  0  0  0  0  0  0  0  0  0
   -3.4571   -0.2009    0.0000 C   0  0  0  0  0  0  0  0  0  0  0  0
   -3.4709   -1.0322    0.0000 C   0  0  0  0  0  0  0  0  0  0  0  0
   -2.7365   -1.4479    0.0000 C   0  0  0  0  0  0  0  0  0  0  0  0
    0.1178   -2.2654    0.0000 C   0  0  0  0  0  0  0  0  0  0  0  0
    1.5726    0.2148    0.0000 C   0  0  0  0  0  0  0  0  0  0  0  0
   -1.3093   -2.2793    0.0000 C   0  0  0  0  0  0  0  0  0  0  0  0
   -0.5751   -2.6949    0.0000 C   0  0  0  0  0  0  0  0  0  0  0  0
    2.9998    0.2148    0.0000 C   0  0  0  0  0  0  0  0  0  0  0  0
    2.9998    1.0461    0.0000 C   0  0  0  0  0  0  0  0  0  0  0  0
    2.3070   -0.1871    0.0000 C   0  0  0  0  0  0  0  0  0  0  0  0
    3.7064   -0.2009    0.0000 C   0  0  0  0  0  0  0  0  0  0  0  0
    4.4546   -1.4618    0.0000 C   0  0  0  0  0  0  0  0  0  0  0  0
  1 30  1  0  0  0  0
  2 32  1  0  0  0  0
  3 29  1  0  0  0  0
  4 12  1  0  0  0  0
 14  4  1  6  0  0  0
  5 13  2  0  0  0  0
  6 24  1  0  0  0  0
  7 39  1  0  0  0  0
  7 40  1  0  0  0  0
  8 39  2  0  0  0  0
 11  9  1  1  0  0  0
  9 13  1  0  0  0  0
  9 15  1  0  0  0  0
 10 26  1  0  0  0  0
 10 37  2  0  0  0  0
 11 14  1  0  0  0  0
 11 16  1  0  0  0  0
 12 13  1  0  0  0  0
 12 19  1  1  0  0  0
 12 20  1  6  0  0  0
 14 17  1  0  0  0  0
 15 18  1  0  0  0  0
 15 24  1  1  0  0  0
 16 21  2  0  0  0  0
 16 25  1  0  0  0  0
 17 27  1  0  0  0  0
 17 28  2  0  0  0  0
 18 22  1  0  0  0  0
 18 23  1  0  0  0  0
 19 26  1  0  0  0  0
 21 29  1  0  0  0  0
 22 23  1  0  0  0  0
 25 31  2  0  0  0  0
 26 33  2  0  0  0  0
 27 32  2  0  0  0  0
 28 34  1  0  0  0  0
 29 30  2  0  0  0  0
 30 31  1  0  0  0  0
 32 35  1  0  0  0  0
 33 38  1  0  0  0  0
 34 35  2  0  0  0  0
 36 37  1  0  0  0  0
 36 38  2  0  0  0  0
 36 39  1  0  0  0  0
M  END
> <PUBCHEM_COMPOUND_ID_TYPE>
0

> <PUBCHEM_TOTAL_CHARGE>
0

> <PUBCHEM_SUBSTANCE_ID>
310947627

> <PUBCHEM_SUBSTANCE_VERSION>
1

> <PUBCHEM_EXT_DATASOURCE_NAME>
4488

> <PUBCHEM_EXT_DATASOURCE_REGID>
SCHEMBL16125793

> <PUBCHEM_SUBSTANCE_COMMENT>
InChI=1S/C30H29Cl2FN2O5/c1-30(14-22-10-8-20(15-34-22)28(37)39-2)29(38)35(25(16-36)17-6-7-17)26(18-9-11-23(32)24(33)13-18)27(40-30)19-4-3-5-21(31)12-19/h3-5,8-13,15,17,25-27,36H,6-7,14,16H2,1-2H3/t25-,26-,27-,30-/m1/s1
InChIKey=HKNCPEFDFMIXFA-NSBPXKJOSA-N

> <PUBCHEM_SUBSTANCE_SYNONYM>
SCHEMBL16125793

> <PUBCHEM_XREF_EXT_ID>
SCHEMBL16125793

> <PUBCHEM_EXT_DATASOURCE_URL>
https://www.surechembl.org/

> <PUBCHEM_EXT_SUBSTANCE_URL>
https://www.surechembl.org/chemical/SCHEMBL16125793

> <PUBCHEM_CID_ASSOCIATIONS>
117613343  1

> <PUBCHEM_COORDINATE_TYPE>
1
3

> <PUBCHEM_BONDANNOTATIONS>
12  19  5
12  20  6
15  24  5
14  4  6
11  9  5

$$$$
