310940377
  -OEChem-07211613022D

 14 15  0     0  0  0  0  0  0999 V2000
   -1.4346   -1.4161    0.0000 N   0  0  0  0  0  0  0  0  0  0  0  0
    1.8532   -1.4161    0.0000 N   0  0  0  0  0  0  0  0  0  0  0  0
   -0.2155   -0.6895    0.0000 C   0  0  0  0  0  0  0  0  0  0  0  0
    0.6095   -0.7142    0.0000 C   0  0  0  0  0  0  0  0  0  0  0  0
   -0.6095    0.0000    0.0000 C   0  0  0  0  0  0  0  0  0  0  0  0
   -1.4468    0.0123    0.0000 C   0  0  0  0  0  0  0  0  0  0  0  0
   -0.6218   -1.4161    0.0000 C   0  0  0  0  0  0  0  0  0  0  0  0
    1.0282   -1.4161    0.0000 C   0  0  0  0  0  0  0  0  0  0  0  0
    1.0282    0.0000    0.0000 C   0  0  0  0  0  0  0  0  0  0  0  0
   -1.8409   -0.7142    0.0000 C   0  0  0  0  0  0  0  0  0  0  0  0
    1.8532    0.0000    0.0000 C   0  0  0  0  0  0  0  0  0  0  0  0
   -1.8409    0.7142    0.0000 C   0  0  0  0  0  0  0  0  0  0  0  0
    2.2596   -0.7019    0.0000 C   0  0  0  0  0  0  0  0  0  0  0  0
   -2.2596    1.4161    0.0000 C   0  0  0  0  0  0  0  0  0  0  0  0
  1  7  2  0  0  0  0
  1 10  1  0  0  0  0
  2  8  1  0  0  0  0
  2 13  2  0  0  0  0
  3  4  1  0  0  0  0
  3  5  2  0  0  0  0
  3  7  1  0  0  0  0
  4  8  2  0  0  0  0
  4  9  1  0  0  0  0
  5  6  1  0  0  0  0
  6 10  2  0  0  0  0
  6 12  1  0  0  0  0
  9 11  2  0  0  0  0
 11 13  1  0  0  0  0
 12 14  1  0  0  0  0
M  END
> <PUBCHEM_COMPOUND_ID_TYPE>
0

> <PUBCHEM_TOTAL_CHARGE>
0

> <PUBCHEM_SUBSTANCE_ID>
310940377

> <PUBCHEM_SUBSTANCE_VERSION>
1

> <PUBCHEM_EXT_DATASOURCE_NAME>
4488

> <PUBCHEM_EXT_DATASOURCE_REGID>
SCHEMBL16118323

> <PUBCHEM_SUBSTANCE_COMMENT>
InChI=1S/C12H12N2/c1-2-10-6-12(9-14-7-10)11-4-3-5-13-8-11/h3-9H,2H2,1H3
InChIKey=DZBPPBGWRXIOCP-UHFFFAOYSA-N

> <PUBCHEM_SUBSTANCE_SYNONYM>
SCHEMBL16118323

> <PUBCHEM_XREF_EXT_ID>
SCHEMBL16118323

> <PUBCHEM_EXT_DATASOURCE_URL>
https://www.surechembl.org/

> <PUBCHEM_EXT_SUBSTANCE_URL>
https://www.surechembl.org/chemical/SCHEMBL16118323

> <PUBCHEM_CID_ASSOCIATIONS>
53786801  1

> <PUBCHEM_COORDINATE_TYPE>
1
3

$$$$
