310934223
  -OEChem-07211613022D

 28 31  0     0  0  0  0  0  0999 V2000
    4.4786   -7.1501    0.0000 S   0  0  0  0  0  0  0  0  0  0  0  0
    1.5714   -6.4429    0.0000 O   0  0  0  0  0  0  0  0  0  0  0  0
    0.7464   -7.8572    0.0000 O   0  0  0  0  0  0  0  0  0  0  0  0
    2.3964   -6.4429    0.0000 N   0  0  0  0  0  0  0  0  0  0  0  0
    1.5714   -7.8572    0.0000 N   0  0  0  0  0  0  0  0  0  0  0  0
    2.8286   -7.1501    0.0000 C   0  0  0  0  0  0  0  0  0  0  0  0
    2.0036   -7.1501    0.0000 C   0  0  0  0  0  0  0  0  0  0  0  0
    3.2607   -7.8572    0.0000 C   0  0  0  0  0  0  0  0  0  0  0  0
    3.2607   -6.4429    0.0000 C   0  0  0  0  0  0  0  0  0  0  0  0
    1.2178   -2.8679    0.0000 C   0  0  0  0  0  0  0  0  0  0  0  0
    1.6107   -3.5751    0.0000 C   0  0  0  0  0  0  0  0  0  0  0  0
    1.2572   -1.4536    0.0000 C   0  0  0  0  0  0  0  0  0  0  0  0
    2.4357   -4.9893    0.0000 C   0  0  0  0  0  0  0  0  0  0  0  0
    2.8286   -5.7357    0.0000 C   0  0  0  0  0  0  0  0  0  0  0  0
    0.4322   -1.4536    0.0000 C   0  0  0  0  0  0  0  0  0  0  0  0
    1.6500   -2.1214    0.0000 C   0  0  0  0  0  0  0  0  0  0  0  0
    4.0465   -7.8572    0.0000 C   0  0  0  0  0  0  0  0  0  0  0  0
    4.0465   -6.4429    0.0000 C   0  0  0  0  0  0  0  0  0  0  0  0
    0.3928   -2.8286    0.0000 C   0  0  0  0  0  0  0  0  0  0  0  0
    2.4357   -3.5751    0.0000 C   0  0  0  0  0  0  0  0  0  0  0  0
    1.2178   -4.2822    0.0000 C   0  0  0  0  0  0  0  0  0  0  0  0
    2.8679   -4.2822    0.0000 C   0  0  0  0  0  0  0  0  0  0  0  0
    1.6107   -4.9893    0.0000 C   0  0  0  0  0  0  0  0  0  0  0  0
    0.0000   -2.1214    0.0000 C   0  0  0  0  0  0  0  0  0  0  0  0
    1.6500   -0.7464    0.0000 C   0  0  0  0  0  0  0  0  0  0  0  0
    0.0000   -0.7072    0.0000 C   0  0  0  0  0  0  0  0  0  0  0  0
    1.2572    0.0000    0.0000 C   0  0  0  0  0  0  0  0  0  0  0  0
    0.4322    0.0000    0.0000 C   0  0  0  0  0  0  0  0  0  0  0  0
  1 17  1  0  0  0  0
  1 18  1  0  0  0  0
  2  7  2  0  0  0  0
  3  5  1  0  0  0  0
  4  6  1  0  0  0  0
  4 14  1  0  0  0  0
  5  7  1  0  0  0  0
  6  7  1  0  0  0  0
  6  8  1  0  0  0  0
  6  9  1  0  0  0  0
  8 17  1  0  0  0  0
  9 18  1  0  0  0  0
 10 11  1  0  0  0  0
 10 16  2  0  0  0  0
 10 19  1  0  0  0  0
 11 20  2  0  0  0  0
 11 21  1  0  0  0  0
 12 15  2  0  0  0  0
 12 16  1  0  0  0  0
 12 25  1  0  0  0  0
 13 14  1  0  0  0  0
 13 22  2  0  0  0  0
 13 23  1  0  0  0  0
 15 24  1  0  0  0  0
 15 26  1  0  0  0  0
 19 24  2  0  0  0  0
 20 22  1  0  0  0  0
 21 23  2  0  0  0  0
 25 27  2  0  0  0  0
 26 28  2  0  0  0  0
 27 28  1  0  0  0  0
M  END
> <PUBCHEM_COMPOUND_ID_TYPE>
0

> <PUBCHEM_TOTAL_CHARGE>
0

> <PUBCHEM_SUBSTANCE_ID>
310934223

> <PUBCHEM_SUBSTANCE_VERSION>
1

> <PUBCHEM_EXT_DATASOURCE_NAME>
4488

> <PUBCHEM_EXT_DATASOURCE_REGID>
SCHEMBL16111679

> <PUBCHEM_SUBSTANCE_COMMENT>
InChI=1S/C23H24N2O2S/c26-22(25-27)23(11-13-28-14-12-23)24-16-17-5-7-19(8-6-17)21-10-9-18-3-1-2-4-20(18)15-21/h1-10,15,24,27H,11-14,16H2,(H,25,26)
InChIKey=XZDXHWNWIYOEAG-UHFFFAOYSA-N

> <PUBCHEM_SUBSTANCE_SYNONYM>
SCHEMBL16111679

> <PUBCHEM_XREF_EXT_ID>
SCHEMBL16111679

> <PUBCHEM_EXT_DATASOURCE_URL>
https://www.surechembl.org/

> <PUBCHEM_EXT_SUBSTANCE_URL>
https://www.surechembl.org/chemical/SCHEMBL16111679

> <PUBCHEM_CID_ASSOCIATIONS>
117602486  1

> <PUBCHEM_COORDINATE_TYPE>
1
3

$$$$
