310947553
  -OEChem-07211613022D

 48 54  0     1  0  0  0  0  0999 V2000
    2.0835   -0.9772    0.0000 P   0  0  3  0  0  0  0  0  0  0  0  0
    1.4853    0.0209    0.0000 F   0  0  0  0  0  0  0  0  0  0  0  0
   -0.3915   -0.9772    0.0000 O   0  0  0  0  0  0  0  0  0  0  0  0
    0.4335    1.0068    0.0000 O   0  0  0  0  0  0  0  0  0  0  0  0
    1.6710   -1.6917    0.0000 O   0  0  0  0  0  0  0  0  0  0  0  0
    2.7980   -1.3897    0.0000 O   0  0  0  0  0  0  0  0  0  0  0  0
    1.3690   -0.5647    0.0000 O   0  0  0  0  0  0  0  0  0  0  0  0
    2.0835    1.8807    0.0000 O   0  0  0  0  0  0  0  0  0  0  0  0
    3.3210    1.1662    0.0000 O   0  0  0  0  0  0  0  0  0  0  0  0
   -1.3609    0.2199    0.0000 N   0  0  0  0  0  0  0  0  0  0  0  0
   -2.4408    1.0045    0.0000 N   0  0  0  0  0  0  0  0  0  0  0  0
   -2.1146   -1.0855    0.0000 N   0  0  0  0  0  0  0  0  0  0  0  0
   -4.1169    0.3693    0.0000 N   0  0  0  0  0  0  0  0  0  0  0  0
   -3.5357   -0.9361    0.0000 N   0  0  0  0  0  0  0  0  0  0  0  0
   -2.9545   -2.2415    0.0000 N   0  0  0  0  0  0  0  0  0  0  0  0
    2.4960   -0.2627    0.0000 N   0  0  0  0  0  0  0  0  0  0  0  0
   -0.6464   -0.1926    0.0000 C   0  0  3  0  0  0  0  0  0  0  0  0
    0.0210    0.2923    0.0000 C   0  0  3  0  0  0  0  0  0  0  0  0
   -2.0283   -0.2650    0.0000 C   0  0  0  0  0  0  0  0  0  0  0  0
    0.6885   -0.1926    0.0000 C   0  0  3  0  0  0  0  0  0  0  0  0
   -2.6958    0.2199    0.0000 C   0  0  0  0  0  0  0  0  0  0  0  0
    0.4335   -0.9772    0.0000 C   0  0  3  0  0  0  0  0  0  0  0  0
   -3.4494   -0.1156    0.0000 C   0  0  0  0  0  0  0  0  0  0  0  0
   -1.6158    1.0045    0.0000 C   0  0  0  0  0  0  0  0  0  0  0  0
   -2.8682   -1.4210    0.0000 C   0  0  0  0  0  0  0  0  0  0  0  0
   -0.3915    1.0068    0.0000 C   0  0  0  0  0  0  0  0  0  0  0  0
    0.8460   -1.6917    0.0000 C   0  0  0  0  0  0  0  0  0  0  0  0
   -4.1164    1.1943    0.0000 C   0  0  0  0  0  0  0  0  0  0  0  0
   -4.9414    0.3693    0.0000 C   0  0  0  0  0  0  0  0  0  0  0  0
   -4.9414    1.1943    0.0000 C   0  0  0  0  0  0  0  0  0  0  0  0
    2.7980   -2.2147    0.0000 C   0  0  0  0  0  0  0  0  0  0  0  0
    3.5125   -2.6272    0.0000 C   0  0  0  0  0  0  0  0  0  0  0  0
    3.5125   -3.4522    0.0000 C   0  0  0  0  0  0  0  0  0  0  0  0
    2.0835    0.4517    0.0000 C   0  0  3  0  0  0  0  0  0  0  0  0
    2.0835   -2.6272    0.0000 C   0  0  0  0  0  0  0  0  0  0  0  0
    4.2269   -2.2147    0.0000 C   0  0  0  0  0  0  0  0  0  0  0  0
    2.7980   -3.8647    0.0000 C   0  0  0  0  0  0  0  0  0  0  0  0
    2.4960    1.1662    0.0000 C   0  0  0  0  0  0  0  0  0  0  0  0
    2.0835   -3.4522    0.0000 C   0  0  0  0  0  0  0  0  0  0  0  0
    4.2269   -3.8647    0.0000 C   0  0  0  0  0  0  0  0  0  0  0  0
    4.9414   -2.6272    0.0000 C   0  0  0  0  0  0  0  0  0  0  0  0
    4.9414   -3.4522    0.0000 C   0  0  0  0  0  0  0  0  0  0  0  0
    1.2585    0.4517    0.0000 C   0  0  0  0  0  0  0  0  0  0  0  0
    2.4960    2.5952    0.0000 C   0  0  0  0  0  0  0  0  0  0  0  0
    3.3210    2.5952    0.0000 C   0  0  0  0  0  0  0  0  0  0  0  0
    2.2411    3.3798    0.0000 C   0  0  0  0  0  0  0  0  0  0  0  0
    3.5760    3.3798    0.0000 C   0  0  0  0  0  0  0  0  0  0  0  0
    2.9085    3.8647    0.0000 C   0  0  0  0  0  0  0  0  0  0  0  0
  1  5  1  0  0  0  0
  1  6  1  0  0  0  0
  1  7  2  0  0  0  0
  1 16  1  0  0  0  0
 20  2  1  6  0  0  0
  3 17  1  0  0  0  0
  3 22  1  0  0  0  0
 18  4  1  6  0  0  0
  5 27  1  0  0  0  0
  6 31  1  0  0  0  0
  8 38  1  0  0  0  0
  8 44  1  0  0  0  0
  9 38  2  0  0  0  0
 10 17  1  0  0  0  0
 10 19  1  0  0  0  0
 10 24  1  0  0  0  0
 11 21  1  0  0  0  0
 11 24  2  0  0  0  0
 12 19  1  0  0  0  0
 12 25  2  0  0  0  0
 13 23  1  0  0  0  0
 13 28  1  0  0  0  0
 13 29  1  0  0  0  0
 14 23  2  0  0  0  0
 14 25  1  0  0  0  0
 15 25  1  0  0  0  0
 16 34  1  0  0  0  0
 17 18  1  0  0  0  0
 18 20  1  0  0  0  0
 18 26  1  1  0  0  0
 19 21  2  0  0  0  0
 20 22  1  0  0  0  0
 21 23  1  0  0  0  0
 22 27  1  1  0  0  0
 28 30  1  0  0  0  0
 29 30  1  0  0  0  0
 31 32  1  0  0  0  0
 31 35  2  0  0  0  0
 32 33  2  0  0  0  0
 32 36  1  0  0  0  0
 33 37  1  0  0  0  0
 33 40  1  0  0  0  0
 34 38  1  0  0  0  0
 34 43  1  1  0  0  0
 35 39  1  0  0  0  0
 36 41  2  0  0  0  0
 37 39  2  0  0  0  0
 40 42  2  0  0  0  0
 41 42  1  0  0  0  0
 44 45  1  0  0  0  0
 44 46  1  0  0  0  0
 45 47  1  0  0  0  0
 46 48  1  0  0  0  0
 47 48  1  0  0  0  0
M  END
> <PUBCHEM_COMPOUND_ID_TYPE>
0

> <PUBCHEM_TOTAL_CHARGE>
0

> <PUBCHEM_SUBSTANCE_ID>
310947553

> <PUBCHEM_SUBSTANCE_VERSION>
1

> <PUBCHEM_EXT_DATASOURCE_NAME>
4488

> <PUBCHEM_EXT_DATASOURCE_REGID>
SCHEMBL16125716

> <PUBCHEM_SUBSTANCE_COMMENT>
InChI=1S/C32H39FN7O7P/c1-19(29(41)45-21-11-4-5-12-21)38-48(43,47-23-14-7-10-20-9-3-6-13-22(20)23)44-17-24-26(33)32(2,42)30(46-24)40-18-35-25-27(39-15-8-16-39)36-31(34)37-28(25)40/h3,6-7,9-10,13-14,18-19,21,24,26,30,42H,4-5,8,11-12,15-17H2,1-2H3,(H,38,43)(H2,34,36,37)/t19-,24+,26+,30?,32+,48?/m0/s1
InChIKey=BQOWAMOIUKAAOH-ZAFDXGGYSA-N

> <PUBCHEM_SUBSTANCE_SYNONYM>
SCHEMBL16125716

> <PUBCHEM_XREF_EXT_ID>
SCHEMBL16125716

> <PUBCHEM_EXT_DATASOURCE_URL>
https://www.surechembl.org/

> <PUBCHEM_EXT_SUBSTANCE_URL>
https://www.surechembl.org/chemical/SCHEMBL16125716

> <PUBCHEM_CID_ASSOCIATIONS>
117613275  1

> <PUBCHEM_COORDINATE_TYPE>
1
3

> <PUBCHEM_BONDANNOTATIONS>
18  26  5
20  2  6
22  27  5
34  43  5
18  4  6

$$$$
