310948425
  -OEChem-07211613022D

 33 36  0     0  0  0  0  0  0999 V2000
    1.9529   -1.4768    0.0000 Br  0  0  0  0  0  0  0  0  0  0  0  0
   -4.0645   -0.8971    0.0000 F   0  0  0  0  0  0  0  0  0  0  0  0
   -3.9817   -0.0828    0.0000 F   0  0  0  0  0  0  0  0  0  0  0  0
    3.5952    2.9397    0.0000 F   0  0  0  0  0  0  0  0  0  0  0  0
    2.5464    2.4153    0.0000 F   0  0  0  0  0  0  0  0  0  0  0  0
    4.0645    1.8770    0.0000 F   0  0  0  0  0  0  0  0  0  0  0  0
    3.0432    1.3939    0.0000 O   0  0  0  0  0  0  0  0  0  0  0  0
   -1.3594   -1.4768    0.0000 N   0  0  0  0  0  0  0  0  0  0  0  0
   -0.5314   -0.0414    0.0000 N   0  0  0  0  0  0  0  0  0  0  0  0
   -1.8425   -0.8004    0.0000 N   0  0  0  0  0  0  0  0  0  0  0  0
   -1.3457    0.0414    0.0000 N   0  0  0  0  0  0  0  0  0  0  0  0
   -1.5250    0.8557    0.0000 N   0  0  0  0  0  0  0  0  0  0  0  0
   -0.1173   -0.7453    0.0000 C   0  0  0  0  0  0  0  0  0  0  0  0
   -0.5175   -1.4629    0.0000 C   0  0  0  0  0  0  0  0  0  0  0  0
   -0.1725    0.7177    0.0000 C   0  0  0  0  0  0  0  0  0  0  0  0
   -1.8425   -2.1392    0.0000 C   0  0  0  0  0  0  0  0  0  0  0  0
   -2.6291   -1.0489    0.0000 C   0  0  0  0  0  0  0  0  0  0  0  0
    0.6142    0.8971    0.0000 C   0  0  0  0  0  0  0  0  0  0  0  0
    0.7246   -0.7591    0.0000 C   0  0  0  0  0  0  0  0  0  0  0  0
   -2.6291   -1.8770    0.0000 C   0  0  0  0  0  0  0  0  0  0  0  0
   -0.1035   -2.1806    0.0000 C   0  0  0  0  0  0  0  0  0  0  0  0
   -3.3192   -0.5521    0.0000 C   0  0  0  0  0  0  0  0  0  0  0  0
   -0.8074    1.2697    0.0000 C   0  0  0  0  0  0  0  0  0  0  0  0
    1.1248   -1.4629    0.0000 C   0  0  0  0  0  0  0  0  0  0  0  0
    0.7108   -2.1806    0.0000 C   0  0  0  0  0  0  0  0  0  0  0  0
    1.1662    0.2898    0.0000 C   0  0  0  0  0  0  0  0  0  0  0  0
    0.8902    1.6837    0.0000 C   0  0  0  0  0  0  0  0  0  0  0  0
   -1.5665   -2.9397    0.0000 C   0  0  0  0  0  0  0  0  0  0  0  0
    2.2427    1.2421    0.0000 C   0  0  0  0  0  0  0  0  0  0  0  0
    1.9943    0.4554    0.0000 C   0  0  0  0  0  0  0  0  0  0  0  0
    1.6907    1.8494    0.0000 C   0  0  0  0  0  0  0  0  0  0  0  0
   -3.2226    0.2622    0.0000 C   0  0  0  0  0  0  0  0  0  0  0  0
    3.3192    2.1668    0.0000 C   0  0  0  0  0  0  0  0  0  0  0  0
  1 24  1  0  0  0  0
  2 22  1  0  0  0  0
  3 22  1  0  0  0  0
  4 33  1  0  0  0  0
  5 33  1  0  0  0  0
  6 33  1  0  0  0  0
  7 29  1  0  0  0  0
  7 33  1  0  0  0  0
  8 10  1  0  0  0  0
  8 14  1  0  0  0  0
  8 16  1  0  0  0  0
  9 11  1  0  0  0  0
  9 13  1  0  0  0  0
  9 15  1  0  0  0  0
 10 17  2  0  0  0  0
 11 12  2  0  0  0  0
 12 23  1  0  0  0  0
 13 14  1  0  0  0  0
 13 19  2  0  0  0  0
 14 21  2  0  0  0  0
 15 18  1  0  0  0  0
 15 23  2  0  0  0  0
 16 20  2  0  0  0  0
 16 28  1  0  0  0  0
 17 20  1  0  0  0  0
 17 22  1  0  0  0  0
 18 26  2  0  0  0  0
 18 27  1  0  0  0  0
 19 24  1  0  0  0  0
 21 25  1  0  0  0  0
 22 32  1  0  0  0  0
 24 25  2  0  0  0  0
 26 30  1  0  0  0  0
 27 31  2  0  0  0  0
 29 30  2  0  0  0  0
 29 31  1  0  0  0  0
M  END
> <PUBCHEM_COMPOUND_ID_TYPE>
0

> <PUBCHEM_TOTAL_CHARGE>
0

> <PUBCHEM_SUBSTANCE_ID>
310948425

> <PUBCHEM_SUBSTANCE_VERSION>
1

> <PUBCHEM_EXT_DATASOURCE_NAME>
4488

> <PUBCHEM_EXT_DATASOURCE_REGID>
SCHEMBL16126606

> <PUBCHEM_SUBSTANCE_COMMENT>
InChI=1S/C21H15BrF5N5O/c1-12-9-19(20(2,23)24)29-31(12)16-8-5-14(22)10-17(16)32-18(11-28-30-32)13-3-6-15(7-4-13)33-21(25,26)27/h3-11H,1-2H3
InChIKey=NLPXKGNLPAVIMR-UHFFFAOYSA-N

> <PUBCHEM_SUBSTANCE_SYNONYM>
SCHEMBL16126606

> <PUBCHEM_XREF_EXT_ID>
SCHEMBL16126606

> <PUBCHEM_EXT_DATASOURCE_URL>
https://www.surechembl.org/

> <PUBCHEM_EXT_SUBSTANCE_URL>
https://www.surechembl.org/chemical/SCHEMBL16126606

> <PUBCHEM_CID_ASSOCIATIONS>
117613985  1

> <PUBCHEM_COORDINATE_TYPE>
1
3

$$$$
