310949800
  -OEChem-07211613022D

 13 13  0     0  0  0  0  0  0999 V2000
   -0.8187   -0.7079    0.0000 N   0  0  0  0  0  0  0  0  0  0  0  0
   -0.4248    0.0185    0.0000 C   0  0  0  0  0  0  0  0  0  0  0  0
    0.4001   -0.0061    0.0000 C   0  0  0  0  0  0  0  0  0  0  0  0
   -0.8187    0.7079    0.0000 C   0  0  0  0  0  0  0  0  0  0  0  0
    0.8187    0.7202    0.0000 C   0  0  0  0  0  0  0  0  0  0  0  0
   -1.6436   -0.7079    0.0000 C   0  0  0  0  0  0  0  0  0  0  0  0
   -1.6436    0.7202    0.0000 C   0  0  0  0  0  0  0  0  0  0  0  0
   -2.0499   -0.0061    0.0000 C   0  0  0  0  0  0  0  0  0  0  0  0
    0.7326   -0.4494    0.0000 C   0  0  0  0  0  0  0  0  0  0  0  0
    1.6436    0.7079    0.0000 C   0  0  0  0  0  0  0  0  0  0  0  0
    2.0499    0.0061    0.0000 C   0  0  0  0  0  0  0  0  0  0  0  0
    1.6313   -0.7079    0.0000 C   0  0  0  0  0  0  0  0  0  0  0  0
    1.1512   -0.7202    0.0000 C   0  0  0  0  0  0  0  0  0  0  0  0
  1  2  1  0  0  0  0
  1  6  2  0  0  0  0
  2  3  1  0  0  0  0
  2  4  2  0  0  0  0
  3  5  1  0  0  0  0
  3  9  2  0  0  0  0
  4  7  1  0  0  0  0
  5 10  2  0  0  0  0
  6  8  1  0  0  0  0
  7  8  2  0  0  0  0
 10 11  1  0  0  0  0
 11 12  2  0  0  0  0
 12 13  1  0  0  0  0
M  END
> <PUBCHEM_COMPOUND_ID_TYPE>
0

> <PUBCHEM_TOTAL_CHARGE>
0

> <PUBCHEM_SUBSTANCE_ID>
310949800

> <PUBCHEM_SUBSTANCE_VERSION>
1

> <PUBCHEM_EXT_DATASOURCE_NAME>
4488

> <PUBCHEM_EXT_DATASOURCE_REGID>
SCHEMBL16127998

> <PUBCHEM_SUBSTANCE_COMMENT>
InChI=1S/C12H13N/c1-3-4-5-8-11(2)12-9-6-7-10-13-12/h3-10H,2H2,1H3/b4-3-,8-5-
InChIKey=PRMONJAWWANTGB-UBNNFMAXSA-N

> <PUBCHEM_SUBSTANCE_SYNONYM>
SCHEMBL16127998

> <PUBCHEM_XREF_EXT_ID>
SCHEMBL16127998

> <PUBCHEM_EXT_DATASOURCE_URL>
https://www.surechembl.org/

> <PUBCHEM_EXT_SUBSTANCE_URL>
https://www.surechembl.org/chemical/SCHEMBL16127998

> <PUBCHEM_CID_ASSOCIATIONS>
117615121  1

> <PUBCHEM_COORDINATE_TYPE>
1
3

$$$$
