310940989
  -OEChem-07211613022D

 39 41  0     1  0  0  0  0  0999 V2000
    5.0764   -1.1250    0.0000 O   0  0  0  0  0  0  0  0  0  0  0  0
    3.9514    0.8297    0.0000 O   0  0  0  0  0  0  0  0  0  0  0  0
    1.8000   -1.2375    0.0000 O   0  0  0  0  0  0  0  0  0  0  0  0
   -0.3656    0.8297    0.0000 O   0  0  0  0  0  0  0  0  0  0  0  0
   -2.5171   -1.2375    0.0000 O   0  0  0  0  0  0  0  0  0  0  0  0
   -5.3858   -1.2375    0.0000 O   0  0  0  0  0  0  0  0  0  0  0  0
    1.0828    2.4890    0.0000 O   0  0  0  0  0  0  0  0  0  0  0  0
    2.5171    0.0000    0.0000 N   0  0  0  0  0  0  0  0  0  0  0  0
    0.3656   -0.4078    0.0000 N   0  0  0  0  0  0  0  0  0  0  0  0
   -1.7859    0.0000    0.0000 N   0  0  0  0  0  0  0  0  0  0  0  0
    1.8000    1.2515    0.0000 N   0  0  0  0  0  0  0  0  0  0  0  0
   -3.9514   -0.4078    0.0000 N   0  0  0  0  0  0  0  0  0  0  0  0
    4.6687   -0.3937    0.0000 C   0  0  3  0  0  0  0  0  0  0  0  0
    3.8952    0.0140    0.0000 C   0  0  0  0  0  0  0  0  0  0  0  0
    4.2749   -1.0968    0.0000 C   0  0  0  0  0  0  0  0  0  0  0  0
    3.2624   -0.3656    0.0000 C   0  0  3  0  0  0  0  0  0  0  0  0
    5.3858    0.0281    0.0000 C   0  0  0  0  0  0  0  0  0  0  0  0
    3.2484   -1.7015    0.0000 C   0  0  0  0  0  0  0  0  0  0  0  0
    1.8140   -0.3516    0.0000 C   0  0  0  0  0  0  0  0  0  0  0  0
    2.5171   -2.1093    0.0000 C   0  0  0  0  0  0  0  0  0  0  0  0
    1.0828    0.0281    0.0000 C   0  0  3  0  0  0  0  0  0  0  0  0
   -0.3656    0.0140    0.0000 C   0  0  0  0  0  0  0  0  0  0  0  0
    1.0968    0.8578    0.0000 C   0  0  0  0  0  0  0  0  0  0  0  0
    1.7859   -1.7156    0.0000 C   0  0  0  0  0  0  0  0  0  0  0  0
    2.5171   -2.9390    0.0000 C   0  0  0  0  0  0  0  0  0  0  0  0
   -1.0687   -0.3656    0.0000 C   0  0  3  0  0  0  0  0  0  0  0  0
    1.0968   -2.1234    0.0000 C   0  0  0  0  0  0  0  0  0  0  0  0
    1.8140   -3.3468    0.0000 C   0  0  0  0  0  0  0  0  0  0  0  0
   -2.4890   -0.3516    0.0000 C   0  0  0  0  0  0  0  0  0  0  0  0
    1.0968   -2.9390    0.0000 C   0  0  0  0  0  0  0  0  0  0  0  0
   -3.2343    0.0281    0.0000 C   0  0  0  0  0  0  0  0  0  0  0  0
    1.8281    2.0953    0.0000 C   0  0  0  0  0  0  0  0  0  0  0  0
   -1.0687   -1.1812    0.0000 C   0  0  0  0  0  0  0  0  0  0  0  0
   -3.9374   -1.2094    0.0000 C   0  0  0  0  0  0  0  0  0  0  0  0
   -4.6687    0.0281    0.0000 C   0  0  0  0  0  0  0  0  0  0  0  0
    2.5171    2.5171    0.0000 C   0  0  0  0  0  0  0  0  0  0  0  0
   -4.6546   -1.6172    0.0000 C   0  0  0  0  0  0  0  0  0  0  0  0
   -5.3577   -0.3656    0.0000 C   0  0  0  0  0  0  0  0  0  0  0  0
    2.5311    3.3468    0.0000 C   0  0  0  0  0  0  0  0  0  0  0  0
  1 13  1  0  0  0  0
  1 15  1  0  0  0  0
  2 14  2  0  0  0  0
  3 19  2  0  0  0  0
  4 22  2  0  0  0  0
  5 29  2  0  0  0  0
  6 37  1  0  0  0  0
  6 38  1  0  0  0  0
  7 32  2  0  0  0  0
 16  8  1  6  0  0  0
  8 19  1  0  0  0  0
 21  9  1  1  0  0  0
  9 22  1  0  0  0  0
 10 26  1  0  0  0  0
 10 29  1  0  0  0  0
 11 23  1  0  0  0  0
 11 32  1  0  0  0  0
 12 31  1  0  0  0  0
 12 34  1  0  0  0  0
 12 35  1  0  0  0  0
 13 14  1  6  0  0  0
 13 15  1  0  0  0  0
 13 17  1  1  0  0  0
 14 16  1  0  0  0  0
 16 18  1  0  0  0  0
 18 20  1  0  0  0  0
 19 21  1  0  0  0  0
 20 24  2  0  0  0  0
 20 25  1  0  0  0  0
 21 23  1  0  0  0  0
 22 26  1  0  0  0  0
 24 27  1  0  0  0  0
 25 28  2  0  0  0  0
 26 33  1  6  0  0  0
 27 30  2  0  0  0  0
 28 30  1  0  0  0  0
 29 31  1  0  0  0  0
 32 36  1  0  0  0  0
 34 37  1  0  0  0  0
 35 38  1  0  0  0  0
 36 39  1  0  0  0  0
M  END
> <PUBCHEM_COMPOUND_ID_TYPE>
0

> <PUBCHEM_TOTAL_CHARGE>
0

> <PUBCHEM_SUBSTANCE_ID>
310940989

> <PUBCHEM_SUBSTANCE_VERSION>
1

> <PUBCHEM_EXT_DATASOURCE_NAME>
4488

> <PUBCHEM_EXT_DATASOURCE_REGID>
SCHEMBL16118948

> <PUBCHEM_SUBSTANCE_COMMENT>
InChI=1S/C27H39N5O7/c1-4-22(33)28-15-21(31-25(36)18(2)29-23(34)16-32-10-12-38-13-11-32)26(37)30-20(24(35)27(3)17-39-27)14-19-8-6-5-7-9-19/h5-9,18,20-21H,4,10-17H2,1-3H3,(H,28,33)(H,29,34)(H,30,37)(H,31,36)/t18-,20-,21-,27+/m0/s1
InChIKey=UMGDCAXJMSJYSX-MRUKDPAESA-N

> <PUBCHEM_SUBSTANCE_SYNONYM>
SCHEMBL16118948

> <PUBCHEM_XREF_EXT_ID>
SCHEMBL16118948

> <PUBCHEM_EXT_DATASOURCE_URL>
https://www.surechembl.org/

> <PUBCHEM_EXT_SUBSTANCE_URL>
https://www.surechembl.org/chemical/SCHEMBL16118948

> <PUBCHEM_CID_ASSOCIATIONS>
117607895  1

> <PUBCHEM_COORDINATE_TYPE>
1
3

> <PUBCHEM_BONDANNOTATIONS>
13  14  6
13  17  5
26  33  6
16  8  6
21  9  5

$$$$
