310944390
  -OEChem-07211613022D

 14 14  0     0  0  0  0  0  0999 V2000
   -1.9417    1.0127    0.0000 Br  0  0  0  0  0  0  0  0  0  0  0  0
   -0.2212    1.8483    0.0000 F   0  0  0  0  0  0  0  0  0  0  0  0
    1.1945    1.8483    0.0000 O   0  0  0  0  0  0  0  0  0  0  0  0
    1.9417    0.6194    0.0000 O   0  0  0  0  0  0  0  0  0  0  0  0
    0.4964   -1.7894    0.0000 O   0  0  0  0  0  0  0  0  0  0  0  0
   -0.9390   -1.8483    0.0000 O   0  0  0  0  0  0  0  0  0  0  0  0
    0.4964    0.6587    0.0000 C   0  0  0  0  0  0  0  0  0  0  0  0
   -0.2310    1.0520    0.0000 C   0  0  0  0  0  0  0  0  0  0  0  0
   -0.2212   -0.5603    0.0000 C   0  0  0  0  0  0  0  0  0  0  0  0
   -0.9685    0.6292    0.0000 C   0  0  0  0  0  0  0  0  0  0  0  0
    0.4964   -0.1573    0.0000 C   0  0  0  0  0  0  0  0  0  0  0  0
   -0.9586   -0.1769    0.0000 C   0  0  0  0  0  0  0  0  0  0  0  0
    1.1945    1.0422    0.0000 C   0  0  0  0  0  0  0  0  0  0  0  0
   -0.2212   -1.3961    0.0000 C   0  0  0  0  0  0  0  0  0  0  0  0
  1 10  1  0  0  0  0
  2  8  1  0  0  0  0
  3 13  2  0  0  0  0
  4 13  1  0  0  0  0
  5 14  2  0  0  0  0
  6 14  1  0  0  0  0
  7  8  2  0  0  0  0
  7 11  1  0  0  0  0
  7 13  1  0  0  0  0
  8 10  1  0  0  0  0
  9 11  2  0  0  0  0
  9 12  1  0  0  0  0
  9 14  1  0  0  0  0
 10 12  2  0  0  0  0
M  END
> <PUBCHEM_COMPOUND_ID_TYPE>
0

> <PUBCHEM_TOTAL_CHARGE>
0

> <PUBCHEM_SUBSTANCE_ID>
310944390

> <PUBCHEM_SUBSTANCE_VERSION>
1

> <PUBCHEM_EXT_DATASOURCE_NAME>
4488

> <PUBCHEM_EXT_DATASOURCE_REGID>
SCHEMBL16122465

> <PUBCHEM_SUBSTANCE_COMMENT>
InChI=1S/C8H4BrFO4/c9-5-2-3(7(11)12)1-4(6(5)10)8(13)14/h1-2H,(H,11,12)(H,13,14)
InChIKey=JRDPIGHRDFTOIC-UHFFFAOYSA-N

> <PUBCHEM_SUBSTANCE_SYNONYM>
SCHEMBL16122465

> <PUBCHEM_XREF_EXT_ID>
SCHEMBL16122465

> <PUBCHEM_EXT_DATASOURCE_URL>
https://www.surechembl.org/

> <PUBCHEM_EXT_SUBSTANCE_URL>
https://www.surechembl.org/chemical/SCHEMBL16122465

> <PUBCHEM_CID_ASSOCIATIONS>
117610647  1

> <PUBCHEM_COORDINATE_TYPE>
1
3

$$$$
