310944715
  -OEChem-07211613022D

  9  8  0     0  0  0  0  0  0999 V2000
   -0.3676    1.6474    0.0000 O   0  0  0  0  0  0  0  0  0  0  0  0
   -0.3676   -0.8305    0.0000 N   0  0  0  0  0  0  0  0  0  0  0  0
    1.0755    0.8305    0.0000 N   0  0  0  0  0  0  0  0  0  0  0  0
    1.0755   -0.8305    0.0000 N   0  0  0  0  0  0  0  0  0  0  0  0
   -1.0755    0.4221    0.0000 N   0  0  0  0  0  0  0  0  0  0  0  0
    0.3676    0.4493    0.0000 C   0  0  0  0  0  0  0  0  0  0  0  0
    0.3404   -0.3676    0.0000 C   0  0  0  0  0  0  0  0  0  0  0  0
   -0.3676    0.8577    0.0000 C   0  0  0  0  0  0  0  0  0  0  0  0
   -0.3131   -1.6474    0.0000 C   0  0  0  0  0  0  0  0  0  0  0  0
  1  8  2  0  0  0  0
  2  7  1  0  0  0  0
  2  9  1  0  0  0  0
  3  6  1  0  0  0  0
  4  7  1  0  0  0  0
  5  8  1  0  0  0  0
  6  7  2  0  0  0  0
  6  8  1  0  0  0  0
M  END
> <PUBCHEM_COMPOUND_ID_TYPE>
0

> <PUBCHEM_TOTAL_CHARGE>
0

> <PUBCHEM_SUBSTANCE_ID>
310944715

> <PUBCHEM_SUBSTANCE_VERSION>
1

> <PUBCHEM_EXT_DATASOURCE_NAME>
4488

> <PUBCHEM_EXT_DATASOURCE_REGID>
SCHEMBL16122794

> <PUBCHEM_SUBSTANCE_COMMENT>
InChI=1S/C4H10N4O/c1-8-3(6)2(5)4(7)9/h8H,5-6H2,1H3,(H2,7,9)/b3-2+
InChIKey=NEQZDNRUDXMRCW-NSCUHMNNSA-N

> <PUBCHEM_SUBSTANCE_SYNONYM>
SCHEMBL16122794

> <PUBCHEM_XREF_EXT_ID>
SCHEMBL16122794

> <PUBCHEM_EXT_DATASOURCE_URL>
https://www.surechembl.org/

> <PUBCHEM_EXT_SUBSTANCE_URL>
https://www.surechembl.org/chemical/SCHEMBL16122794

> <PUBCHEM_CID_ASSOCIATIONS>
117610937  1

> <PUBCHEM_COORDINATE_TYPE>
1
3

$$$$
