310938586
  -OEChem-07211613022D

 15 15  0     1  0  0  0  0  0999 V2000
   -2.7801   -7.2123    0.0000 O   0  0  0  0  0  0  0  0  0  0  0  0
   -1.3512   -8.0373    0.0000 O   0  0  0  0  0  0  0  0  0  0  0  0
   -3.4946   -6.7998    0.0000 C   0  0  0  0  0  0  0  0  0  0  0  0
   -4.2090   -5.5623    0.0000 C   0  0  0  0  0  0  0  0  0  0  0  0
   -3.4946   -5.9748    0.0000 C   0  0  0  0  0  0  0  0  0  0  0  0
   -4.2090   -7.2123    0.0000 C   0  0  0  0  0  0  0  0  0  0  0  0
   -4.9235   -5.9748    0.0000 C   0  0  0  0  0  0  0  0  0  0  0  0
   -4.2090   -4.7373    0.0000 C   0  0  0  0  0  0  0  0  0  0  0  0
   -4.9235   -6.7998    0.0000 C   0  0  0  0  0  0  0  0  0  0  0  0
   -2.0656   -6.7998    0.0000 C   0  0  0  0  0  0  0  0  0  0  0  0
   -1.3512   -7.2123    0.0000 C   0  0  3  0  0  0  0  0  0  0  0  0
   -5.0340   -4.7373    0.0000 C   0  0  0  0  0  0  0  0  0  0  0  0
   -3.3840   -4.7373    0.0000 C   0  0  0  0  0  0  0  0  0  0  0  0
   -0.6367   -6.7998    0.0000 C   0  0  0  0  0  0  0  0  0  0  0  0
    0.0778   -7.2123    0.0000 C   0  0  0  0  0  0  0  0  0  0  0  0
  1  3  1  0  0  0  0
  1 10  1  0  0  0  0
 11  2  1  6  0  0  0
  3  5  1  0  0  0  0
  3  6  2  0  0  0  0
  4  5  2  0  0  0  0
  4  7  1  0  0  0  0
  4  8  1  0  0  0  0
  6  9  1  0  0  0  0
  7  9  2  0  0  0  0
  8 12  1  0  0  0  0
  8 13  1  0  0  0  0
 10 11  1  0  0  0  0
 11 14  1  0  0  0  0
 14 15  1  0  0  0  0
M  END
> <PUBCHEM_COMPOUND_ID_TYPE>
0

> <PUBCHEM_TOTAL_CHARGE>
0

> <PUBCHEM_SUBSTANCE_ID>
310938586

> <PUBCHEM_SUBSTANCE_VERSION>
1

> <PUBCHEM_EXT_DATASOURCE_NAME>
4488

> <PUBCHEM_EXT_DATASOURCE_REGID>
SCHEMBL16116500

> <PUBCHEM_SUBSTANCE_COMMENT>
InChI=1S/C13H20O2/c1-4-12(14)9-15-13-7-5-6-11(8-13)10(2)3/h5-8,10,12,14H,4,9H2,1-3H3/t12-/m0/s1
InChIKey=ARFIJLMQOXHRKK-LBPRGKRZSA-N

> <PUBCHEM_SUBSTANCE_SYNONYM>
SCHEMBL16116500

> <PUBCHEM_XREF_EXT_ID>
SCHEMBL16116500

> <PUBCHEM_EXT_DATASOURCE_URL>
https://www.surechembl.org/

> <PUBCHEM_EXT_SUBSTANCE_URL>
https://www.surechembl.org/chemical/SCHEMBL16116500

> <PUBCHEM_CID_ASSOCIATIONS>
117606021  1

> <PUBCHEM_COORDINATE_TYPE>
1
3

> <PUBCHEM_BONDANNOTATIONS>
11  2  6
8  12  3
8  13  3

$$$$
