310929672
  -OEChem-07211613022D

 60 67  0     1  0  0  0  0  0999 V2000
    1.5379   -1.3788    0.0000 S   0  0  0  0  0  0  0  0  0  0  0  0
    2.9698   -0.5303    0.0000 O   0  0  0  0  0  0  0  0  0  0  0  0
    5.0380   -2.8107    0.0000 O   0  0  0  0  0  0  0  0  0  0  0  0
    6.1517   -5.1971    0.0000 O   0  0  0  0  0  0  0  0  0  0  0  0
    1.9622   -0.6894    0.0000 O   0  0  0  0  0  0  0  0  0  0  0  0
    1.1137   -2.1212    0.0000 O   0  0  0  0  0  0  0  0  0  0  0  0
    2.0152   -3.6592    0.0000 O   0  0  0  0  0  0  0  0  0  0  0  0
    7.1062   -8.1139    0.0000 O   0  0  0  0  0  0  0  0  0  0  0  0
    1.5379   -7.2653    0.0000 O   0  0  0  0  0  0  0  0  0  0  0  0
    0.5833   -6.3638    0.0000 O   0  0  0  0  0  0  0  0  0  0  0  0
    3.6062   -2.5986    0.0000 N   0  0  0  0  0  0  0  0  0  0  0  0
    2.2804   -1.8031    0.0000 N   0  0  0  0  0  0  0  0  0  0  0  0
    3.2880   -3.9243    0.0000 N   0  0  0  0  0  0  0  0  0  0  0  0
    7.1062   -5.6214    0.0000 N   0  0  0  0  0  0  0  0  0  0  0  0
    1.5379   -5.6214    0.0000 N   0  0  0  0  0  0  0  0  0  0  0  0
    5.6744  -10.6064    0.0000 N   0  0  0  0  0  0  0  0  0  0  0  0
    3.7123   -1.8031    0.0000 C   0  0  3  0  0  0  0  0  0  0  0  0
    3.9243   -1.0076    0.0000 C   0  0  3  0  0  0  0  0  0  0  0  0
    4.5077   -1.5909    0.0000 C   0  0  0  0  0  0  0  0  0  0  0  0
    2.9698   -1.3788    0.0000 C   0  0  0  0  0  0  0  0  0  0  0  0
    4.2956   -3.1289    0.0000 C   0  0  0  0  0  0  0  0  0  0  0  0
    3.7123   -0.2121    0.0000 C   0  0  0  0  0  0  0  0  0  0  0  0
    4.1895   -3.9243    0.0000 C   0  0  3  0  0  0  0  0  0  0  0  0
    0.8485   -0.9546    0.0000 C   0  0  0  0  0  0  0  0  0  0  0  0
    4.9320   -4.1365    0.0000 C   0  0  0  0  0  0  0  0  0  0  0  0
    5.6214   -4.5608    0.0000 C   0  0  3  0  0  0  0  0  0  0  0  0
    2.4925   -4.3486    0.0000 C   0  0  0  0  0  0  0  0  0  0  0  0
    4.6137   -3.5532    0.0000 C   0  0  0  0  0  0  0  0  0  0  0  0
    0.0000   -0.9546    0.0000 C   0  0  0  0  0  0  0  0  0  0  0  0
    0.4242   -0.2652    0.0000 C   0  0  0  0  0  0  0  0  0  0  0  0
    6.4168   -5.9926    0.0000 C   0  0  0  0  0  0  0  0  0  0  0  0
    1.9092   -4.9320    0.0000 C   0  0  3  0  0  0  0  0  0  0  0  0
    2.8637    0.0000    0.0000 C   0  0  0  0  0  0  0  0  0  0  0  0
    6.4168   -6.8942    0.0000 C   0  0  0  0  0  0  0  0  0  0  0  0
    7.1062   -7.2653    0.0000 C   0  0  0  0  0  0  0  0  0  0  0  0
    7.7957   -6.8942    0.0000 C   0  0  0  0  0  0  0  0  0  0  0  0
    7.7957   -5.9926    0.0000 C   0  0  0  0  0  0  0  0  0  0  0  0
    1.2727   -4.4017    0.0000 C   0  0  0  0  0  0  0  0  0  0  0  0
    6.1517   -7.6366    0.0000 C   0  0  0  0  0  0  0  0  0  0  0  0
    8.5912   -7.2653    0.0000 C   0  0  0  0  0  0  0  0  0  0  0  0
    8.5912   -5.6214    0.0000 C   0  0  0  0  0  0  0  0  0  0  0  0
    0.4773   -4.6668    0.0000 C   0  0  0  0  0  0  0  0  0  0  0  0
    1.2727   -3.6062    0.0000 C   0  0  0  0  0  0  0  0  0  0  0  0
    1.4318   -6.3638    0.0000 C   0  0  0  0  0  0  0  0  0  0  0  0
    9.2806   -6.8942    0.0000 C   0  0  0  0  0  0  0  0  0  0  0  0
    9.2806   -5.9926    0.0000 C   0  0  0  0  0  0  0  0  0  0  0  0
    0.0000   -3.9774    0.0000 C   0  0  0  0  0  0  0  0  0  0  0  0
    0.5303   -3.3410    0.0000 C   0  0  0  0  0  0  0  0  0  0  0  0
    5.6214   -8.2730    0.0000 C   0  0  0  0  0  0  0  0  0  0  0  0
    6.4168   -8.5381    0.0000 C   0  0  0  0  0  0  0  0  0  0  0  0
    1.9092   -7.9547    0.0000 C   0  0  3  0  0  0  0  0  0  0  0  0
    2.4925   -8.5381    0.0000 C   0  0  3  0  0  0  0  0  0  0  0  0
    4.8259   -8.4321    0.0000 C   0  0  0  0  0  0  0  0  0  0  0  0
    1.2198   -8.3790    0.0000 C   0  0  0  0  0  0  0  0  0  0  0  0
    6.4168   -9.3336    0.0000 C   0  0  0  0  0  0  0  0  0  0  0  0
    3.2880   -8.8563    0.0000 C   0  0  0  0  0  0  0  0  0  0  0  0
    2.2273   -9.3336    0.0000 C   0  0  0  0  0  0  0  0  0  0  0  0
    4.1895   -8.9093    0.0000 C   0  0  0  0  0  0  0  0  0  0  0  0
    1.3258   -9.2275    0.0000 C   0  0  0  0  0  0  0  0  0  0  0  0
    5.6744   -9.7578    0.0000 C   0  0  0  0  0  0  0  0  0  0  0  0
  1  5  2  0  0  0  0
  1  6  2  0  0  0  0
  1 12  1  0  0  0  0
  1 24  1  0  0  0  0
  2 20  2  0  0  0  0
  3 21  2  0  0  0  0
  4 26  1  0  0  0  0
  4 31  1  0  0  0  0
  7 27  2  0  0  0  0
  8 35  1  0  0  0  0
  8 50  1  0  0  0  0
  9 44  1  0  0  0  0
  9 51  1  0  0  0  0
 10 44  2  0  0  0  0
 17 11  1  1  0  0  0
 11 21  1  0  0  0  0
 12 20  1  0  0  0  0
 13 23  1  0  0  0  0
 13 27  1  0  0  0  0
 13 28  1  0  0  0  0
 14 31  1  0  0  0  0
 14 37  2  0  0  0  0
 15 32  1  0  0  0  0
 15 44  1  0  0  0  0
 16 60  1  0  0  0  0
 17 18  1  0  0  0  0
 17 19  1  0  0  0  0
 17 20  1  6  0  0  0
 18 19  1  0  0  0  0
 18 22  1  6  0  0  0
 23 21  1  6  0  0  0
 22 33  2  0  0  0  0
 23 25  1  0  0  0  0
 24 29  1  0  0  0  0
 24 30  1  0  0  0  0
 26 25  1  1  0  0  0
 26 28  1  0  0  0  0
 32 27  1  1  0  0  0
 29 30  1  0  0  0  0
 31 34  2  0  0  0  0
 32 38  1  0  0  0  0
 34 35  1  0  0  0  0
 34 39  1  0  0  0  0
 35 36  2  0  0  0  0
 36 37  1  0  0  0  0
 36 40  1  0  0  0  0
 37 41  1  0  0  0  0
 38 42  1  0  0  0  0
 38 43  1  0  0  0  0
 39 49  1  0  0  0  0
 40 45  2  0  0  0  0
 41 46  2  0  0  0  0
 42 47  1  0  0  0  0
 43 48  1  0  0  0  0
 45 46  1  0  0  0  0
 47 48  1  0  0  0  0
 49 53  2  0  0  0  0
 50 55  1  0  0  0  0
 51 52  1  0  0  0  0
 51 54  1  1  0  0  0
 52 56  1  0  0  0  0
 52 57  1  6  0  0  0
 53 58  1  0  0  0  0
 54 59  1  0  0  0  0
 55 60  1  0  0  0  0
 56 58  1  0  0  0  0
 57 59  1  0  0  0  0
M  END
> <PUBCHEM_COMPOUND_ID_TYPE>
0

> <PUBCHEM_TOTAL_CHARGE>
0

> <PUBCHEM_SUBSTANCE_ID>
310929672

> <PUBCHEM_SUBSTANCE_VERSION>
1

> <PUBCHEM_EXT_DATASOURCE_NAME>
4488

> <PUBCHEM_EXT_DATASOURCE_REGID>
SCHEMBL16106863

> <PUBCHEM_SUBSTANCE_COMMENT>
InChI=1S/C44H58N6O9S/c1-2-29-25-44(29,42(53)49-60(55,56)31-20-21-31)48-39(51)35-24-30-26-50(35)41(52)37(28-13-6-7-14-28)47-43(54)59-36-19-10-15-27(36)12-4-3-5-17-33-38(57-23-11-22-45)32-16-8-9-18-34(32)46-40(33)58-30/h2-3,5,8-9,16,18,27-31,35-37H,1,4,6-7,10-15,17,19-26,45H2,(H,47,54)(H,48,51)(H,49,53)/b5-3+/t27-,29-,30-,35+,36-,37+,44-/m1/s1
InChIKey=KPOPCGYBAHFBHU-ACIUFKGASA-N

> <PUBCHEM_SUBSTANCE_SYNONYM>
SCHEMBL16106863

> <PUBCHEM_XREF_EXT_ID>
SCHEMBL16106863

> <PUBCHEM_EXT_DATASOURCE_URL>
https://www.surechembl.org/

> <PUBCHEM_EXT_SUBSTANCE_URL>
https://www.surechembl.org/chemical/SCHEMBL16106863

> <PUBCHEM_CID_ASSOCIATIONS>
117598970  1

> <PUBCHEM_COORDINATE_TYPE>
1
3

> <PUBCHEM_BONDANNOTATIONS>
17  11  5
17  20  6
18  22  6
23  21  6
26  25  5
32  27  5
51  54  5
52  57  6

$$$$
