310945164
  -OEChem-07211613022D

 32 37  0     0  0  0  0  0  0999 V2000
   -3.8035   -2.5079    0.0000 Cl  0  0  0  0  0  0  0  0  0  0  0  0
   -1.0461   -0.8868    0.0000 O   0  0  0  0  0  0  0  0  0  0  0  0
    3.8035    1.3440    0.0000 O   0  0  0  0  0  0  0  0  0  0  0  0
   -2.2793    1.0947    0.0000 O   0  0  0  0  0  0  0  0  0  0  0  0
    1.9883    0.0970    0.0000 N   0  0  0  0  0  0  0  0  0  0  0  0
    3.6511   -0.0693    0.0000 N   0  0  0  0  0  0  0  0  0  0  0  0
   -1.7112    0.2771    0.0000 N   0  0  0  0  0  0  0  0  0  0  0  0
   -3.5264    0.3880    0.0000 N   0  0  0  0  0  0  0  0  0  0  0  0
    2.3209   -0.6651    0.0000 C   0  0  0  0  0  0  0  0  0  0  0  0
    1.1985    0.3603    0.0000 C   0  0  0  0  0  0  0  0  0  0  0  0
    2.4733    0.7759    0.0000 C   0  0  0  0  0  0  0  0  0  0  0  0
    1.1985    1.1916    0.0000 C   0  0  0  0  0  0  0  0  0  0  0  0
    1.9883    1.4272    0.0000 C   0  0  0  0  0  0  0  0  0  0  0  0
    3.2908    0.6651    0.0000 C   0  0  0  0  0  0  0  0  0  0  0  0
    3.1523   -0.7483    0.0000 C   0  0  0  0  0  0  0  0  0  0  0  0
    1.5311   -0.7898    0.0000 C   0  0  0  0  0  0  0  0  0  0  0  0
    2.4595   -1.4825    0.0000 C   0  0  0  0  0  0  0  0  0  0  0  0
    0.4919   -0.0555    0.0000 C   0  0  0  0  0  0  0  0  0  0  0  0
   -0.2563    0.3603    0.0000 C   0  0  0  0  0  0  0  0  0  0  0  0
   -0.9491   -0.0555    0.0000 C   0  0  0  0  0  0  0  0  0  0  0  0
    1.6419   -1.6073    0.0000 C   0  0  0  0  0  0  0  0  0  0  0  0
    0.4780    1.5796    0.0000 C   0  0  0  0  0  0  0  0  0  0  0  0
   -2.2793   -0.3464    0.0000 C   0  0  0  0  0  0  0  0  0  0  0  0
   -1.8636   -1.0531    0.0000 C   0  0  0  0  0  0  0  0  0  0  0  0
   -0.2287    1.1916    0.0000 C   0  0  0  0  0  0  0  0  0  0  0  0
   -3.1107   -0.3464    0.0000 C   0  0  0  0  0  0  0  0  0  0  0  0
   -2.2793   -1.7736    0.0000 C   0  0  0  0  0  0  0  0  0  0  0  0
   -3.1107   -1.7736    0.0000 C   0  0  0  0  0  0  0  0  0  0  0  0
   -3.5125   -1.0531    0.0000 C   0  0  0  0  0  0  0  0  0  0  0  0
   -3.1384    1.1085    0.0000 C   0  0  0  0  0  0  0  0  0  0  0  0
   -3.5125    1.7875    0.0000 C   0  0  0  0  0  0  0  0  0  0  0  0
   -3.0413    2.5079    0.0000 C   0  0  0  0  0  0  0  0  0  0  0  0
  1 28  1  0  0  0  0
  2 20  1  0  0  0  0
  2 24  1  0  0  0  0
  3 14  2  0  0  0  0
  4 30  2  0  0  0  0
  5  9  1  0  0  0  0
  5 10  1  0  0  0  0
  5 11  1  0  0  0  0
  6 14  1  0  0  0  0
  6 15  1  0  0  0  0
  7 20  2  0  0  0  0
  7 23  1  0  0  0  0
  8 26  1  0  0  0  0
  8 30  1  0  0  0  0
  9 15  1  0  0  0  0
  9 16  1  0  0  0  0
  9 17  1  0  0  0  0
 10 12  1  0  0  0  0
 10 18  2  0  0  0  0
 11 13  2  0  0  0  0
 11 14  1  0  0  0  0
 12 13  1  0  0  0  0
 12 22  2  0  0  0  0
 16 21  1  0  0  0  0
 17 21  1  0  0  0  0
 18 19  1  0  0  0  0
 19 20  1  0  0  0  0
 19 25  2  0  0  0  0
 22 25  1  0  0  0  0
 23 24  2  0  0  0  0
 23 26  1  0  0  0  0
 24 27  1  0  0  0  0
 26 29  2  0  0  0  0
 27 28  2  0  0  0  0
 28 29  1  0  0  0  0
 30 31  1  0  0  0  0
 31 32  2  0  0  0  0
M  END
> <PUBCHEM_COMPOUND_ID_TYPE>
0

> <PUBCHEM_TOTAL_CHARGE>
0

> <PUBCHEM_SUBSTANCE_ID>
310945164

> <PUBCHEM_SUBSTANCE_VERSION>
1

> <PUBCHEM_EXT_DATASOURCE_NAME>
4488

> <PUBCHEM_EXT_DATASOURCE_REGID>
SCHEMBL16123254

> <PUBCHEM_SUBSTANCE_COMMENT>
InChI=1S/C24H19ClN4O3/c1-2-20(30)27-16-10-15(25)11-19-21(16)28-23(32-19)14-5-4-13-8-18-22(31)26-12-24(6-3-7-24)29(18)17(13)9-14/h2,4-5,8-11H,1,3,6-7,12H2,(H,26,31)(H,27,30)
InChIKey=ITPBZWGTLCWICH-UHFFFAOYSA-N

> <PUBCHEM_SUBSTANCE_SYNONYM>
SCHEMBL16123254

> <PUBCHEM_XREF_EXT_ID>
SCHEMBL16123254

> <PUBCHEM_EXT_DATASOURCE_URL>
https://www.surechembl.org/

> <PUBCHEM_EXT_SUBSTANCE_URL>
https://www.surechembl.org/chemical/SCHEMBL16123254

> <PUBCHEM_CID_ASSOCIATIONS>
117611250  1

> <PUBCHEM_COORDINATE_TYPE>
1
3

$$$$
