310930606
  -OEChem-07211613022D

 29 32  0     0  0  0  0  0  0999 V2000
    0.8959   -2.7236    0.0000 O   0  0  0  0  0  0  0  0  0  0  0  0
    2.3293    0.0000    0.0000 O   0  0  0  0  0  0  0  0  0  0  0  0
    0.0000   -6.4146    0.0000 O   0  0  0  0  0  0  0  0  0  0  0  0
    3.4044   -6.7013    0.0000 O   0  0  0  0  0  0  0  0  0  0  0  0
    2.3293   -2.5085    0.0000 N   0  0  0  0  0  0  0  0  0  0  0  0
    2.7594   -3.7628    0.0000 N   0  0  0  0  0  0  0  0  0  0  0  0
    3.7986   -2.7236    0.0000 N   0  0  0  0  0  0  0  0  0  0  0  0
    1.9351   -3.7628    0.0000 C   0  0  0  0  0  0  0  0  0  0  0  0
    1.6843   -2.9744    0.0000 C   0  0  0  0  0  0  0  0  0  0  0  0
    1.4334   -4.4078    0.0000 C   0  0  0  0  0  0  0  0  0  0  0  0
    2.2935   -4.4795    0.0000 C   0  0  0  0  0  0  0  0  0  0  0  0
    3.0102   -2.9744    0.0000 C   0  0  0  0  0  0  0  0  0  0  0  0
    2.3293   -1.6843    0.0000 C   0  0  0  0  0  0  0  0  0  0  0  0
    1.7918   -5.1603    0.0000 C   0  0  0  0  0  0  0  0  0  0  0  0
    3.1177   -4.5512    0.0000 C   0  0  0  0  0  0  0  0  0  0  0  0
    0.6450   -4.3361    0.0000 C   0  0  0  0  0  0  0  0  0  0  0  0
    2.0068   -5.3395    0.0000 C   0  0  0  0  0  0  0  0  0  0  0  0
    3.0461   -1.2184    0.0000 C   0  0  0  0  0  0  0  0  0  0  0  0
    1.6484   -1.2184    0.0000 C   0  0  0  0  0  0  0  0  0  0  0  0
    1.2901   -5.8412    0.0000 C   0  0  0  0  0  0  0  0  0  0  0  0
    3.5119   -5.2679    0.0000 C   0  0  0  0  0  0  0  0  0  0  0  0
    0.1433   -5.0170    0.0000 C   0  0  0  0  0  0  0  0  0  0  0  0
    2.2218   -5.9129    0.0000 C   0  0  0  0  0  0  0  0  0  0  0  0
    0.4659   -5.7337    0.0000 C   0  0  0  0  0  0  0  0  0  0  0  0
    3.0461   -5.9488    0.0000 C   0  0  0  0  0  0  0  0  0  0  0  0
    3.0461   -0.4300    0.0000 C   0  0  0  0  0  0  0  0  0  0  0  0
    1.6484   -0.4300    0.0000 C   0  0  0  0  0  0  0  0  0  0  0  0
    0.3225   -7.1672    0.0000 C   0  0  0  0  0  0  0  0  0  0  0  0
    4.2286   -6.7372    0.0000 C   0  0  0  0  0  0  0  0  0  0  0  0
  1  9  2  0  0  0  0
  2 26  1  0  0  0  0
  2 27  1  0  0  0  0
  3 24  1  0  0  0  0
  3 28  1  0  0  0  0
  4 25  1  0  0  0  0
  4 29  1  0  0  0  0
  5  9  1  0  0  0  0
  5 12  1  0  0  0  0
  5 13  1  0  0  0  0
  6  8  1  0  0  0  0
  6 12  1  0  0  0  0
  7 12  2  3  0  0  0
  8  9  1  0  0  0  0
  8 10  1  0  0  0  0
  8 11  1  0  0  0  0
 10 14  2  0  0  0  0
 10 16  1  0  0  0  0
 11 15  2  0  0  0  0
 11 17  1  0  0  0  0
 13 18  1  0  0  0  0
 13 19  1  0  0  0  0
 14 20  1  0  0  0  0
 15 21  1  0  0  0  0
 16 22  2  0  0  0  0
 17 23  2  0  0  0  0
 18 26  1  0  0  0  0
 19 27  1  0  0  0  0
 20 24  2  0  0  0  0
 21 25  2  0  0  0  0
 22 24  1  0  0  0  0
 23 25  1  0  0  0  0
M  END
> <PUBCHEM_COMPOUND_ID_TYPE>
0

> <PUBCHEM_TOTAL_CHARGE>
0

> <PUBCHEM_SUBSTANCE_ID>
310930606

> <PUBCHEM_SUBSTANCE_VERSION>
1

> <PUBCHEM_EXT_DATASOURCE_NAME>
4488

> <PUBCHEM_EXT_DATASOURCE_REGID>
SCHEMBL16107903

> <PUBCHEM_SUBSTANCE_COMMENT>
InChI=1S/C22H25N3O4/c1-27-18-7-3-15(4-8-18)22(16-5-9-19(28-2)10-6-16)20(26)25(21(23)24-22)17-11-13-29-14-12-17/h3-10,17H,11-14H2,1-2H3,(H2,23,24)
InChIKey=JQYYZEGXJPYRRZ-UHFFFAOYSA-N

> <PUBCHEM_SUBSTANCE_SYNONYM>
SCHEMBL16107903

> <PUBCHEM_XREF_EXT_ID>
SCHEMBL16107903

> <PUBCHEM_EXT_DATASOURCE_URL>
https://www.surechembl.org/

> <PUBCHEM_EXT_SUBSTANCE_URL>
https://www.surechembl.org/chemical/SCHEMBL16107903

> <PUBCHEM_CID_ASSOCIATIONS>
76317507  1

> <PUBCHEM_COORDINATE_TYPE>
1
3

$$$$
