310930993
  -OEChem-07211613022D

 37 41  0     1  0  0  0  0  0999 V2000
    6.4157   -5.8524    0.0000 F   0  0  0  0  0  0  0  0  0  0  0  0
    0.7198   -2.5663    0.0000 F   0  0  0  0  0  0  0  0  0  0  0  0
    0.0313   -3.8181    0.0000 F   0  0  0  0  0  0  0  0  0  0  0  0
    0.0000   -2.9731    0.0000 F   0  0  0  0  0  0  0  0  0  0  0  0
    5.0074   -5.8524    0.0000 O   0  0  0  0  0  0  0  0  0  0  0  0
    1.4396   -4.6318    0.0000 O   0  0  0  0  0  0  0  0  0  0  0  0
    4.2875   -4.6005    0.0000 N   0  0  0  0  0  0  0  0  0  0  0  0
    5.0074   -3.3800    0.0000 N   0  0  0  0  0  0  0  0  0  0  0  0
    3.5991   -2.5663    0.0000 N   0  0  0  0  0  0  0  0  0  0  0  0
    3.7242   -0.7511    0.0000 N   0  0  0  0  0  0  0  0  0  0  0  0
    5.7272   -1.3458    0.0000 N   0  0  0  0  0  0  0  0  0  0  0  0
    4.8509   -0.1252    0.0000 N   0  0  0  0  0  0  0  0  0  0  0  0
    4.2875   -3.7868    0.0000 C   0  0  0  0  0  0  0  0  0  0  0  0
    5.7272   -4.6005    0.0000 C   0  0  0  0  0  0  0  0  0  0  0  0
    5.0074   -5.0074    0.0000 C   0  0  0  0  0  0  0  0  0  0  0  0
    5.7272   -3.7868    0.0000 C   0  0  0  0  0  0  0  0  0  0  0  0
    3.5678   -5.0074    0.0000 C   0  0  0  0  0  0  0  0  0  0  0  0
    3.5678   -3.3800    0.0000 C   0  0  3  0  0  0  0  0  0  0  0  0
    6.4157   -5.0074    0.0000 C   0  0  0  0  0  0  0  0  0  0  0  0
    6.4157   -3.3800    0.0000 C   0  0  0  0  0  0  0  0  0  0  0  0
    4.2875   -2.1594    0.0000 C   0  0  0  0  0  0  0  0  0  0  0  0
    3.0357   -4.7883    0.0000 C   0  0  0  0  0  0  0  0  0  0  0  0
    4.2875   -1.3144    0.0000 C   0  0  0  0  0  0  0  0  0  0  0  0
    3.5678   -5.8524    0.0000 C   0  0  0  0  0  0  0  0  0  0  0  0
    7.1355   -4.6005    0.0000 C   0  0  0  0  0  0  0  0  0  0  0  0
    5.0386   -0.9076    0.0000 C   0  0  0  0  0  0  0  0  0  0  0  0
    2.8792   -3.7868    0.0000 C   0  0  0  0  0  0  0  0  0  0  0  0
    2.1594   -5.0386    0.0000 C   0  0  0  0  0  0  0  0  0  0  0  0
    7.1355   -3.7868    0.0000 C   0  0  0  0  0  0  0  0  0  0  0  0
    4.9761   -2.5663    0.0000 C   0  0  0  0  0  0  0  0  0  0  0  0
    2.8792   -6.2592    0.0000 C   0  0  0  0  0  0  0  0  0  0  0  0
    2.1594   -5.8524    0.0000 C   0  0  0  0  0  0  0  0  0  0  0  0
    5.7272   -2.1594    0.0000 C   0  0  0  0  0  0  0  0  0  0  0  0
    4.0372    0.0000    0.0000 C   0  0  0  0  0  0  0  0  0  0  0  0
    2.8792   -4.6005    0.0000 C   0  0  0  0  0  0  0  0  0  0  0  0
    1.4396   -3.8181    0.0000 C   0  0  0  0  0  0  0  0  0  0  0  0
    0.7198   -3.3800    0.0000 C   0  0  0  0  0  0  0  0  0  0  0  0
  1 19  1  0  0  0  0
  2 37  1  0  0  0  0
  3 37  1  0  0  0  0
  4 37  1  0  0  0  0
  5 15  2  0  0  0  0
  6 28  1  0  0  0  0
  6 36  1  0  0  0  0
  7 13  1  0  0  0  0
  7 15  1  0  0  0  0
  7 17  1  0  0  0  0
  8 13  2  0  0  0  0
  8 16  1  0  0  0  0
 18  9  1  6  0  0  0
  9 21  1  0  0  0  0
 10 23  1  0  0  0  0
 10 34  2  0  0  0  0
 11 26  1  0  0  0  0
 11 33  2  0  0  0  0
 12 26  1  0  0  0  0
 12 34  1  0  0  0  0
 13 18  1  0  0  0  0
 14 15  1  0  0  0  0
 14 16  2  0  0  0  0
 14 19  1  0  0  0  0
 16 20  1  0  0  0  0
 17 22  1  0  0  0  0
 17 24  2  0  0  0  0
 18 27  1  0  0  0  0
 19 25  2  0  0  0  0
 20 29  2  0  0  0  0
 21 23  1  0  0  0  0
 21 30  2  0  0  0  0
 22 28  2  0  0  0  0
 23 26  2  0  0  0  0
 24 31  1  0  0  0  0
 25 29  1  0  0  0  0
 27 35  1  0  0  0  0
 28 32  1  0  0  0  0
 30 33  1  0  0  0  0
 31 32  2  0  0  0  0
 36 37  1  0  0  0  0
M  END
> <PUBCHEM_COMPOUND_ID_TYPE>
0

> <PUBCHEM_TOTAL_CHARGE>
0

> <PUBCHEM_SUBSTANCE_ID>
310930993

> <PUBCHEM_SUBSTANCE_VERSION>
1

> <PUBCHEM_EXT_DATASOURCE_NAME>
4488

> <PUBCHEM_EXT_DATASOURCE_REGID>
SCHEMBL16108293

> <PUBCHEM_SUBSTANCE_COMMENT>
InChI=1S/C25H20F4N6O2/c1-2-17(33-19-9-10-30-22-21(19)31-13-32-22)23-34-18-8-4-7-16(26)20(18)24(36)35(23)14-5-3-6-15(11-14)37-12-25(27,28)29/h3-11,13,17H,2,12H2,1H3,(H2,30,31,32,33)/t17-/m0/s1
InChIKey=MGBSWNAFVGTZNG-KRWDZBQOSA-N

> <PUBCHEM_SUBSTANCE_SYNONYM>
SCHEMBL16108293

> <PUBCHEM_XREF_EXT_ID>
SCHEMBL16108293

> <PUBCHEM_EXT_DATASOURCE_URL>
https://www.surechembl.org/

> <PUBCHEM_EXT_SUBSTANCE_URL>
https://www.surechembl.org/chemical/SCHEMBL16108293

> <PUBCHEM_CID_ASSOCIATIONS>
86272389  1

> <PUBCHEM_COORDINATE_TYPE>
1
3

> <PUBCHEM_BONDANNOTATIONS>
18  9  6

$$$$
