310947683
  -OEChem-07211613022D

 22 21  0     0  0  0  0  0  0999 V2000
    5.4959    0.7985    0.0000 O   0  0  0  0  0  0  0  0  0  0  0  0
    0.6671    0.3852    0.0000 C   0  0  0  0  0  0  0  0  0  0  0  0
   -2.0762    0.4040    0.0000 C   0  0  0  0  0  0  0  0  0  0  0  0
   -0.0846    0.7985    0.0000 C   0  0  0  0  0  0  0  0  0  0  0  0
    1.2871    0.7985    0.0000 C   0  0  0  0  0  0  0  0  0  0  0  0
   -1.4562    0.7985    0.0000 C   0  0  0  0  0  0  0  0  0  0  0  0
    3.4290    0.3852    0.0000 C   0  0  0  0  0  0  0  0  0  0  0  0
   -0.7046    0.4040    0.0000 C   0  0  0  0  0  0  0  0  0  0  0  0
   -2.7902    0.7985    0.0000 C   0  0  0  0  0  0  0  0  0  0  0  0
    2.0199    0.3852    0.0000 C   0  0  0  0  0  0  0  0  0  0  0  0
    2.6962    0.7985    0.0000 C   0  0  0  0  0  0  0  0  0  0  0  0
   -3.4478    0.4040    0.0000 C   0  0  0  0  0  0  0  0  0  0  0  0
   -4.7819    0.4040    0.0000 C   0  0  0  0  0  0  0  0  0  0  0  0
   -4.1618    0.7985    0.0000 C   0  0  0  0  0  0  0  0  0  0  0  0
    4.1243    0.7985    0.0000 C   0  0  0  0  0  0  0  0  0  0  0  0
    0.6671   -0.4979    0.0000 C   0  0  0  0  0  0  0  0  0  0  0  0
   -2.0762   -0.4979    0.0000 C   0  0  0  0  0  0  0  0  0  0  0  0
    3.4103   -0.5167    0.0000 C   0  0  0  0  0  0  0  0  0  0  0  0
   -4.7819   -0.5167    0.0000 C   0  0  0  0  0  0  0  0  0  0  0  0
    4.8383    0.3852    0.0000 C   0  0  0  0  0  0  0  0  0  0  0  0
   -5.4959    0.8174    0.0000 C   0  0  0  0  0  0  0  0  0  0  0  0
   -3.9552   -0.8174    0.0000 C   0  0  0  0  0  0  0  0  0  0  0  0
  1 20  1  0  0  0  0
  2  4  1  0  0  0  0
  2  5  2  0  0  0  0
  2 16  1  0  0  0  0
  3  6  2  0  0  0  0
  3  9  1  0  0  0  0
  3 17  1  0  0  0  0
  4  8  1  0  0  0  0
  5 10  1  0  0  0  0
  6  8  1  0  0  0  0
  7 11  1  0  0  0  0
  7 15  2  0  0  0  0
  7 18  1  0  0  0  0
  9 12  1  0  0  0  0
 10 11  1  0  0  0  0
 12 14  1  0  0  0  0
 13 14  2  0  0  0  0
 13 19  1  0  0  0  0
 13 21  1  0  0  0  0
 15 20  1  0  0  0  0
 19 22  1  0  0  0  0
M  END
> <PUBCHEM_COMPOUND_ID_TYPE>
0

> <PUBCHEM_TOTAL_CHARGE>
0

> <PUBCHEM_SUBSTANCE_ID>
310947683

> <PUBCHEM_SUBSTANCE_VERSION>
1

> <PUBCHEM_EXT_DATASOURCE_NAME>
4488

> <PUBCHEM_EXT_DATASOURCE_REGID>
SCHEMBL16125851

> <PUBCHEM_SUBSTANCE_COMMENT>
InChI=1S/C21H36O/c1-6-18(2)10-7-11-19(3)12-8-13-20(4)14-9-15-21(5)16-17-22/h10,12,14,16,22H,6-9,11,13,15,17H2,1-5H3/b18-10-,19-12+,20-14+,21-16+
InChIKey=JXUKSBZODAXSPQ-VRLNLPOESA-N

> <PUBCHEM_SUBSTANCE_SYNONYM>
SCHEMBL16125851

> <PUBCHEM_XREF_EXT_ID>
SCHEMBL16125851

> <PUBCHEM_EXT_DATASOURCE_URL>
https://www.surechembl.org/

> <PUBCHEM_EXT_SUBSTANCE_URL>
https://www.surechembl.org/chemical/SCHEMBL16125851

> <PUBCHEM_CID_ASSOCIATIONS>
117613398  1

> <PUBCHEM_COORDINATE_TYPE>
1
3

$$$$
