310942472
  -OEChem-07211613022D

 42 47  0     1  0  0  0  0  0999 V2000
    4.9569    2.1034    0.0000 I   0  0  0  0  0  0  0  0  0  0  0  0
    1.8636    1.0517    0.0000 O   0  0  0  0  0  0  0  0  0  0  0  0
    2.3895   -1.0517    0.0000 O   0  0  0  0  0  0  0  0  0  0  0  0
    1.1059   -0.9744    0.0000 O   0  0  0  0  0  0  0  0  0  0  0  0
    3.2865    0.7269    0.0000 N   0  0  0  0  0  0  0  0  0  0  0  0
    3.9980   -0.6187    0.0000 N   0  0  0  0  0  0  0  0  0  0  0  0
   -0.3635    0.6187    0.0000 N   0  0  3  0  0  0  0  0  0  0  0  0
    5.4672   -0.5259    0.0000 N   0  0  0  0  0  0  0  0  0  0  0  0
    6.1168    0.7579    0.0000 N   0  0  0  0  0  0  0  0  0  0  0  0
   -2.7607   -0.8816    0.0000 N   0  0  0  0  0  0  0  0  0  0  0  0
   -3.4412   -2.0570    0.0000 N   0  0  0  0  0  0  0  0  0  0  0  0
    2.4978    0.5259    0.0000 C   0  0  3  0  0  0  0  0  0  0  0  0
    3.9515    0.2165    0.0000 C   0  0  0  0  0  0  0  0  0  0  0  0
    4.6475    0.6650    0.0000 C   0  0  0  0  0  0  0  0  0  0  0  0
    2.1730   -0.2320    0.0000 C   0  0  3  0  0  0  0  0  0  0  0  0
    4.4310    1.4384    0.0000 C   0  0  0  0  0  0  0  0  0  0  0  0
    1.1522    0.6496    0.0000 C   0  0  3  0  0  0  0  0  0  0  0  0
    3.5958    1.5002    0.0000 C   0  0  0  0  0  0  0  0  0  0  0  0
    1.3379   -0.1547    0.0000 C   0  0  3  0  0  0  0  0  0  0  0  0
    5.4363    0.3093    0.0000 C   0  0  0  0  0  0  0  0  0  0  0  0
    0.3944    1.0517    0.0000 C   0  0  0  0  0  0  0  0  0  0  0  0
   -0.5645   -0.2010    0.0000 C   0  0  0  0  0  0  0  0  0  0  0  0
    4.8022   -0.9899    0.0000 C   0  0  0  0  0  0  0  0  0  0  0  0
   -0.8584   -1.2992    0.0000 C   0  0  0  0  0  0  0  0  0  0  0  0
   -1.2759   -0.6032    0.0000 C   0  0  0  0  0  0  0  0  0  0  0  0
   -0.1470   -0.8970    0.0000 C   0  0  0  0  0  0  0  0  0  0  0  0
   -1.1059    1.0362    0.0000 C   0  0  0  0  0  0  0  0  0  0  0  0
   -3.5958   -0.7114    0.0000 C   0  0  0  0  0  0  0  0  0  0  0  0
   -4.0135   -1.4229    0.0000 C   0  0  0  0  0  0  0  0  0  0  0  0
   -2.6679   -1.6858    0.0000 C   0  0  0  0  0  0  0  0  0  0  0  0
   -4.8641   -0.0155    0.0000 C   0  0  0  0  0  0  0  0  0  0  0  0
   -1.0749   -2.1034    0.0000 C   0  0  0  0  0  0  0  0  0  0  0  0
   -4.0135    0.0000    0.0000 C   0  0  0  0  0  0  0  0  0  0  0  0
   -1.9564   -2.1034    0.0000 C   0  0  0  0  0  0  0  0  0  0  0  0
   -5.2971    0.7114    0.0000 C   0  0  0  0  0  0  0  0  0  0  0  0
   -4.8486   -1.4384    0.0000 C   0  0  0  0  0  0  0  0  0  0  0  0
   -5.2507   -0.7424    0.0000 C   0  0  0  0  0  0  0  0  0  0  0  0
   -1.1059    1.8559    0.0000 C   0  0  0  0  0  0  0  0  0  0  0  0
   -1.8173    0.6032    0.0000 C   0  0  0  0  0  0  0  0  0  0  0  0
   -6.1168    0.6805    0.0000 C   0  0  0  0  0  0  0  0  0  0  0  0
   -5.7147    1.3919    0.0000 C   0  0  0  0  0  0  0  0  0  0  0  0
   -4.8795    1.4229    0.0000 C   0  0  0  0  0  0  0  0  0  0  0  0
  1 16  1  0  0  0  0
 12  2  1  1  0  0  0
  2 17  1  0  0  0  0
 15  3  1  6  0  0  0
 19  4  1  6  0  0  0
  5 12  1  0  0  0  0
  5 13  1  0  0  0  0
  5 18  1  0  0  0  0
  6 13  1  0  0  0  0
  6 23  2  0  0  0  0
  7 21  1  0  0  0  0
 22  7  1  1  0  0  0
  7 27  1  0  0  0  0
  8 20  2  0  0  0  0
  8 23  1  0  0  0  0
  9 20  1  0  0  0  0
 10 28  1  0  0  0  0
 10 30  2  0  0  0  0
 11 29  1  0  0  0  0
 11 30  1  0  0  0  0
 12 15  1  0  0  0  0
 13 14  2  0  0  0  0
 14 16  1  0  0  0  0
 14 20  1  0  0  0  0
 15 19  1  0  0  0  0
 16 18  2  0  0  0  0
 17 19  1  0  0  0  0
 17 21  1  1  0  0  0
 22 25  1  0  0  0  0
 22 26  1  0  0  0  0
 24 25  1  0  0  0  0
 24 26  1  0  0  0  0
 24 32  1  6  0  0  0
 27 38  1  0  0  0  0
 27 39  1  0  0  0  0
 28 29  2  0  0  0  0
 28 33  1  0  0  0  0
 29 36  1  0  0  0  0
 30 34  1  0  0  0  0
 31 33  2  0  0  0  0
 31 35  1  0  0  0  0
 31 37  1  0  0  0  0
 32 34  1  0  0  0  0
 35 40  1  0  0  0  0
 35 41  1  0  0  0  0
 35 42  1  0  0  0  0
 36 37  2  0  0  0  0
M  END
> <PUBCHEM_COMPOUND_ID_TYPE>
0

> <PUBCHEM_TOTAL_CHARGE>
0

> <PUBCHEM_SUBSTANCE_ID>
310942472

> <PUBCHEM_SUBSTANCE_VERSION>
1

> <PUBCHEM_EXT_DATASOURCE_NAME>
4488

> <PUBCHEM_EXT_DATASOURCE_REGID>
SCHEMBL16120508

> <PUBCHEM_SUBSTANCE_COMMENT>
InChI=1S/C31H42IN7O3/c1-16(2)38(14-23-26(40)27(41)30(42-23)39-13-20(32)25-28(33)34-15-35-29(25)39)19-10-17(11-19)6-9-24-36-21-8-7-18(31(3,4)5)12-22(21)37-24/h7-8,12-13,15-17,19,23,26-27,30,40-41H,6,9-11,14H2,1-5H3,(H,36,37)(H2,33,34,35)/t17-,19-,23-,26-,27-,30-/m1/s1
InChIKey=XKNFCLCLXLHWEA-XENOUKJNSA-N

> <PUBCHEM_SUBSTANCE_SYNONYM>
SCHEMBL16120508

> <PUBCHEM_XREF_EXT_ID>
SCHEMBL16120508

> <PUBCHEM_EXT_DATASOURCE_URL>
https://www.surechembl.org/

> <PUBCHEM_EXT_SUBSTANCE_URL>
https://www.surechembl.org/chemical/SCHEMBL16120508

> <PUBCHEM_CID_ASSOCIATIONS>
86274954  1

> <PUBCHEM_COORDINATE_TYPE>
1
3

> <PUBCHEM_BONDANNOTATIONS>
17  21  5
12  2  5
24  32  6
15  3  6
19  4  6
22  7  5

$$$$
