310929598
  -OEChem-07211613022D

 54 56  0     1  0  0  0  0  0999 V2000
   -1.8794   -5.5973    0.0000 Br  0  0  0  0  0  0  0  0  0  0  0  0
    0.0603   -8.2671    0.0000 S   0  0  0  0  0  0  0  0  0  0  0  0
    4.6205   -7.3734    0.0000 O   0  0  0  0  0  0  0  0  0  0  0  0
    4.9903   -5.9931    0.0000 O   0  0  0  0  0  0  0  0  0  0  0  0
    2.0163   -5.9359    0.0000 O   0  0  0  0  0  0  0  0  0  0  0  0
    3.9829   -8.0082    0.0000 O   0  0  0  0  0  0  0  0  0  0  0  0
    1.6465   -7.3161    0.0000 O   0  0  0  0  0  0  0  0  0  0  0  0
    0.5452   -8.9345    0.0000 O   0  0  0  0  0  0  0  0  0  0  0  0
    4.1003   -9.1258    0.0000 O   0  0  0  0  0  0  0  0  0  0  0  0
   -0.6072   -8.7520    0.0000 O   0  0  0  0  0  0  0  0  0  0  0  0
    0.7277   -7.7822    0.0000 O   0  0  0  0  0  0  0  0  0  0  0  0
    5.5293  -10.7758    0.0000 O   0  0  0  0  0  0  0  0  0  0  0  0
    4.8148   -9.5383    0.0000 O   0  0  0  0  0  0  0  0  0  0  0  0
    3.0267   -6.9463    0.0000 N   0  0  0  0  0  0  0  0  0  0  0  0
    2.6714   -9.1258    0.0000 N   0  0  0  0  0  0  0  0  0  0  0  0
    4.1003  -10.7758    0.0000 N   0  0  0  0  0  0  0  0  0  0  0  0
    3.6101   -6.3630    0.0000 C   0  0  3  0  0  0  0  0  0  0  0  0
    3.0267   -5.7796    0.0000 C   0  0  3  0  0  0  0  0  0  0  0  0
    3.8236   -5.5661    0.0000 C   0  0  0  0  0  0  0  0  0  0  0  0
    4.4070   -6.5765    0.0000 C   0  0  0  0  0  0  0  0  0  0  0  0
    3.1982   -7.7533    0.0000 C   0  0  0  0  0  0  0  0  0  0  0  0
    2.2298   -6.7328    0.0000 C   0  0  0  0  0  0  0  0  0  0  0  0
    2.5852   -8.3053    0.0000 C   0  0  3  0  0  0  0  0  0  0  0  0
    2.2298   -5.5661    0.0000 C   0  0  0  0  0  0  0  0  0  0  0  0
    1.7782   -8.1338    0.0000 C   0  0  0  0  0  0  0  0  0  0  0  0
    1.3657   -8.8483    0.0000 C   0  0  3  0  0  0  0  0  0  0  0  0
    1.9177   -9.4614    0.0000 C   0  0  0  0  0  0  0  0  0  0  0  0
    3.3859   -9.5383    0.0000 C   0  0  0  0  0  0  0  0  0  0  0  0
    1.2194   -5.7224    0.0000 C   0  0  0  0  0  0  0  0  0  0  0  0
    2.0163   -4.7692    0.0000 C   0  0  0  0  0  0  0  0  0  0  0  0
    5.4174   -7.5869    0.0000 C   0  0  0  0  0  0  0  0  0  0  0  0
    3.3859  -10.3633    0.0000 C   0  0  3  0  0  0  0  0  0  0  0  0
   -0.4246   -7.5996    0.0000 C   0  0  0  0  0  0  0  0  0  0  0  0
    0.4225   -5.5089    0.0000 C   0  0  0  0  0  0  0  0  0  0  0  0
    0.6360   -6.3057    0.0000 C   0  0  0  0  0  0  0  0  0  0  0  0
    1.0059   -4.9255    0.0000 C   0  0  0  0  0  0  0  0  0  0  0  0
    2.6714  -10.7758    0.0000 C   0  0  0  0  0  0  0  0  0  0  0  0
    5.6309   -8.3838    0.0000 C   0  0  0  0  0  0  0  0  0  0  0  0
   -0.0891   -6.8459    0.0000 C   0  0  0  0  0  0  0  0  0  0  0  0
   -1.2452   -7.6859    0.0000 C   0  0  0  0  0  0  0  0  0  0  0  0
    4.8148  -10.3633    0.0000 C   0  0  0  0  0  0  0  0  0  0  0  0
    1.9569  -10.3633    0.0000 C   0  0  0  0  0  0  0  0  0  0  0  0
   -0.5740   -6.1785    0.0000 C   0  0  0  0  0  0  0  0  0  0  0  0
   -1.7301   -7.0184    0.0000 C   0  0  0  0  0  0  0  0  0  0  0  0
   -1.3945   -6.2647    0.0000 C   0  0  0  0  0  0  0  0  0  0  0  0
    6.2438  -10.3633    0.0000 C   0  0  0  0  0  0  0  0  0  0  0  0
    1.2425  -10.7758    0.0000 C   0  0  0  0  0  0  0  0  0  0  0  0
    0.5279  -10.3633    0.0000 C   0  0  0  0  0  0  0  0  0  0  0  0
    6.2438   -9.5383    0.0000 C   0  0  0  0  0  0  0  0  0  0  0  0
    6.9582   -9.9508    0.0000 C   0  0  0  0  0  0  0  0  0  0  0  0
    6.9582  -10.7758    0.0000 C   0  0  0  0  0  0  0  0  0  0  0  0
   -0.1865  -10.7758    0.0000 C   0  0  0  0  0  0  0  0  0  0  0  0
   -0.9010  -10.3633    0.0000 C   0  0  0  0  0  0  0  0  0  0  0  0
   -1.6155  -10.7758    0.0000 C   0  0  0  0  0  0  0  0  0  0  0  0
  1 45  1  0  0  0  0
  2  8  1  0  0  0  0
  2 10  2  0  0  0  0
  2 11  2  0  0  0  0
  2 33  1  0  0  0  0
  3 20  1  0  0  0  0
  3 31  1  0  0  0  0
  4 20  2  0  0  0  0
  5 22  1  0  0  0  0
  5 29  1  0  0  0  0
  6 21  2  0  0  0  0
  7 22  2  0  0  0  0
 26  8  1  1  0  0  0
  9 28  2  0  0  0  0
 12 41  1  0  0  0  0
 12 46  1  0  0  0  0
 13 41  2  0  0  0  0
 17 14  1  1  0  0  0
 14 21  1  0  0  0  0
 14 22  1  0  0  0  0
 15 23  1  0  0  0  0
 15 27  1  0  0  0  0
 15 28  1  0  0  0  0
 32 16  1  1  0  0  0
 16 41  1  0  0  0  0
 17 18  1  0  0  0  0
 17 19  1  0  0  0  0
 17 20  1  6  0  0  0
 18 19  1  0  0  0  0
 18 24  1  6  0  0  0
 23 21  1  1  0  0  0
 23 25  1  0  0  0  0
 24 30  2  0  0  0  0
 25 26  1  0  0  0  0
 26 27  1  0  0  0  0
 28 32  1  0  0  0  0
 29 34  1  0  0  0  0
 29 35  1  0  0  0  0
 29 36  1  0  0  0  0
 31 38  1  0  0  0  0
 32 37  1  0  0  0  0
 33 39  2  0  0  0  0
 33 40  1  0  0  0  0
 37 42  1  0  0  0  0
 39 43  1  0  0  0  0
 40 44  2  0  0  0  0
 42 47  1  0  0  0  0
 43 45  2  0  0  0  0
 44 45  1  0  0  0  0
 46 49  1  0  0  0  0
 46 50  1  0  0  0  0
 46 51  1  0  0  0  0
 47 48  1  0  0  0  0
 48 52  1  0  0  0  0
 52 53  1  0  0  0  0
 53 54  2  0  0  0  0
M  END
> <PUBCHEM_COMPOUND_ID_TYPE>
0

> <PUBCHEM_TOTAL_CHARGE>
0

> <PUBCHEM_SUBSTANCE_ID>
310929598

> <PUBCHEM_SUBSTANCE_VERSION>
1

> <PUBCHEM_EXT_DATASOURCE_NAME>
4488

> <PUBCHEM_EXT_DATASOURCE_REGID>
SCHEMBL16106784

> <PUBCHEM_SUBSTANCE_COMMENT>
InChI=1S/C38H54BrN3O11S/c1-10-13-14-15-16-17-29(40-34(46)51-36(4,5)6)31(43)41-24-27(53-54(48,49)28-20-18-26(39)19-21-28)22-30(41)32(44)42(35(47)52-37(7,8)9)38(23-25(38)11-2)33(45)50-12-3/h10-11,18-21,25,27,29-30H,1-2,12-17,22-24H2,3-9H3,(H,40,46)/t25-,27+,29+,30+,38-/m1/s1
InChIKey=GQZFKDGALBRHGR-FYAIPWLFSA-N

> <PUBCHEM_SUBSTANCE_SYNONYM>
SCHEMBL16106784

> <PUBCHEM_XREF_EXT_ID>
SCHEMBL16106784

> <PUBCHEM_EXT_DATASOURCE_URL>
https://www.surechembl.org/

> <PUBCHEM_EXT_SUBSTANCE_URL>
https://www.surechembl.org/chemical/SCHEMBL16106784

> <PUBCHEM_CID_ASSOCIATIONS>
117598907  1

> <PUBCHEM_COORDINATE_TYPE>
1
3

> <PUBCHEM_BONDANNOTATIONS>
17  14  5
32  16  5
17  20  6
18  24  6
23  21  5
26  8  5

$$$$
