310942081
  -OEChem-07211613022D

 22 25  0     0  0  0  0  0  0999 V2000
    2.0356    1.4594    0.0000 O   0  0  0  0  0  0  0  0  0  0  0  0
   -1.1713   -0.7328    0.0000 N   0  0  0  0  0  0  0  0  0  0  0  0
   -0.7453    0.5449    0.0000 C   0  0  0  0  0  0  0  0  0  0  0  0
   -0.4823   -0.2317    0.0000 C   0  0  0  0  0  0  0  0  0  0  0  0
   -1.5847    0.5574    0.0000 C   0  0  0  0  0  0  0  0  0  0  0  0
   -1.8728   -0.2192    0.0000 C   0  0  0  0  0  0  0  0  0  0  0  0
   -0.1942    1.1337    0.0000 C   0  0  0  0  0  0  0  0  0  0  0  0
    0.6201    0.9708    0.0000 C   0  0  0  0  0  0  0  0  0  0  0  0
    0.3194   -0.4196    0.0000 C   0  0  0  0  0  0  0  0  0  0  0  0
    1.1963    1.5971    0.0000 C   0  0  0  0  0  0  0  0  0  0  0  0
   -2.1233    1.1587    0.0000 C   0  0  0  0  0  0  0  0  0  0  0  0
    0.8581    0.1691    0.0000 C   0  0  0  0  0  0  0  0  0  0  0  0
   -2.6620   -0.3696    0.0000 C   0  0  0  0  0  0  0  0  0  0  0  0
   -1.1963   -1.5471    0.0000 C   0  0  0  0  0  0  0  0  0  0  0  0
   -2.9375    1.0084    0.0000 C   0  0  0  0  0  0  0  0  0  0  0  0
   -3.2006    0.2192    0.0000 C   0  0  0  0  0  0  0  0  0  0  0  0
    1.0334    2.3988    0.0000 C   0  0  0  0  0  0  0  0  0  0  0  0
    2.3613    2.2360    0.0000 C   0  0  0  0  0  0  0  0  0  0  0  0
    1.7475    2.7872    0.0000 C   0  0  0  0  0  0  0  0  0  0  0  0
   -1.9103   -1.9479    0.0000 C   0  0  0  0  0  0  0  0  0  0  0  0
    3.2006    2.3864    0.0000 C   0  0  0  0  0  0  0  0  0  0  0  0
   -1.9228   -2.7872    0.0000 C   0  0  0  0  0  0  0  0  0  0  0  0
  1 10  1  0  0  0  0
  1 18  1  0  0  0  0
  2  4  1  0  0  0  0
  2  6  1  0  0  0  0
  2 14  1  0  0  0  0
  3  4  2  0  0  0  0
  3  5  1  0  0  0  0
  3  7  1  0  0  0  0
  4  9  1  0  0  0  0
  5  6  2  0  0  0  0
  5 11  1  0  0  0  0
  6 13  1  0  0  0  0
  7  8  2  0  0  0  0
  8 10  1  0  0  0  0
  8 12  1  0  0  0  0
  9 12  2  0  0  0  0
 10 17  2  0  0  0  0
 11 15  2  0  0  0  0
 13 16  2  0  0  0  0
 14 20  1  0  0  0  0
 15 16  1  0  0  0  0
 17 19  1  0  0  0  0
 18 19  2  0  0  0  0
 18 21  1  0  0  0  0
 20 22  1  0  0  0  0
M  END
> <PUBCHEM_COMPOUND_ID_TYPE>
0

> <PUBCHEM_TOTAL_CHARGE>
0

> <PUBCHEM_SUBSTANCE_ID>
310942081

> <PUBCHEM_SUBSTANCE_VERSION>
1

> <PUBCHEM_EXT_DATASOURCE_NAME>
4488

> <PUBCHEM_EXT_DATASOURCE_REGID>
SCHEMBL16120116

> <PUBCHEM_SUBSTANCE_COMMENT>
InChI=1S/C20H19NO/c1-3-12-21-18-7-5-4-6-16(18)17-13-15(9-10-19(17)21)20-11-8-14(2)22-20/h4-11,13H,3,12H2,1-2H3
InChIKey=SGWYODJNKHPCRU-UHFFFAOYSA-N

> <PUBCHEM_SUBSTANCE_SYNONYM>
SCHEMBL16120116

> <PUBCHEM_XREF_EXT_ID>
SCHEMBL16120116

> <PUBCHEM_EXT_DATASOURCE_URL>
https://www.surechembl.org/

> <PUBCHEM_EXT_SUBSTANCE_URL>
https://www.surechembl.org/chemical/SCHEMBL16120116

> <PUBCHEM_CID_ASSOCIATIONS>
86270961  1

> <PUBCHEM_COORDINATE_TYPE>
1
3

$$$$
