310932979
  -OEChem-07211613022D

 28 33  0     0  0  0  0  0  0999 V2000
    0.0000    0.8772    0.0000 S   0  0  0  0  0  0  0  0  0  0  0  0
    3.5449    2.6402    0.0000 C   0  0  0  0  0  0  0  0  0  0  0  0
    2.7913    2.3046    0.0000 C   0  0  0  0  0  0  0  0  0  0  0  0
    2.2392    2.9177    0.0000 C   0  0  0  0  0  0  0  0  0  0  0  0
    3.4587    3.4606    0.0000 C   0  0  0  0  0  0  0  0  0  0  0  0
    2.6517    3.6322    0.0000 C   0  0  0  0  0  0  0  0  0  0  0  0
    1.7294    1.3485    0.0000 C   0  0  0  0  0  0  0  0  0  0  0  0
    0.6674    0.3923    0.0000 C   0  0  0  0  0  0  0  0  0  0  0  0
    1.4744    0.5638    0.0000 C   0  0  0  0  0  0  0  0  0  0  0  0
    2.5363    1.5200    0.0000 C   0  0  0  0  0  0  0  0  0  0  0  0
    0.4125   -0.3923    0.0000 C   0  0  0  0  0  0  0  0  0  0  0  0
   -0.4125   -0.3923    0.0000 C   0  0  0  0  0  0  0  0  0  0  0  0
    1.4322    2.7462    0.0000 C   0  0  0  0  0  0  0  0  0  0  0  0
   -0.6674    0.3923    0.0000 C   0  0  0  0  0  0  0  0  0  0  0  0
    1.1773    1.9615    0.0000 C   0  0  0  0  0  0  0  0  0  0  0  0
    4.0107    4.0737    0.0000 C   0  0  0  0  0  0  0  0  0  0  0  0
    2.3968    4.4168    0.0000 C   0  0  0  0  0  0  0  0  0  0  0  0
    4.3699    2.6402    0.0000 C   0  0  0  0  0  0  0  0  0  0  0  0
    3.9574    1.9257    0.0000 C   0  0  0  0  0  0  0  0  0  0  0  0
    2.0264   -0.0493    0.0000 C   0  0  0  0  0  0  0  0  0  0  0  0
    0.9645   -1.0054    0.0000 C   0  0  0  0  0  0  0  0  0  0  0  0
   -0.9645   -1.0054    0.0000 C   0  0  0  0  0  0  0  0  0  0  0  0
    1.7715   -0.8339    0.0000 C   0  0  0  0  0  0  0  0  0  0  0  0
    3.7558    4.8583    0.0000 C   0  0  0  0  0  0  0  0  0  0  0  0
    2.9488    5.0299    0.0000 C   0  0  0  0  0  0  0  0  0  0  0  0
   -1.4744    0.5638    0.0000 C   0  0  0  0  0  0  0  0  0  0  0  0
   -1.7715   -0.8339    0.0000 C   0  0  0  0  0  0  0  0  0  0  0  0
   -2.0264   -0.0493    0.0000 C   0  0  0  0  0  0  0  0  0  0  0  0
  1  8  1  0  0  0  0
  1 14  1  0  0  0  0
  2  3  1  0  0  0  0
  2  5  1  0  0  0  0
  2 18  1  0  0  0  0
  2 19  1  0  0  0  0
  3  4  2  0  0  0  0
  3 10  1  0  0  0  0
  4  6  1  0  0  0  0
  4 13  1  0  0  0  0
  5  6  2  0  0  0  0
  5 16  1  0  0  0  0
  6 17  1  0  0  0  0
  7  9  1  0  0  0  0
  7 10  2  0  0  0  0
  7 15  1  0  0  0  0
  8  9  2  0  0  0  0
  8 11  1  0  0  0  0
  9 20  1  0  0  0  0
 11 12  1  0  0  0  0
 11 21  2  0  0  0  0
 12 14  1  0  0  0  0
 12 22  2  0  0  0  0
 13 15  2  0  0  0  0
 14 26  2  0  0  0  0
 16 24  2  0  0  0  0
 17 25  2  0  0  0  0
 20 23  2  0  0  0  0
 21 23  1  0  0  0  0
 22 27  1  0  0  0  0
 24 25  1  0  0  0  0
 26 28  1  0  0  0  0
 27 28  2  0  0  0  0
M  END
> <PUBCHEM_COMPOUND_ID_TYPE>
0

> <PUBCHEM_TOTAL_CHARGE>
0

> <PUBCHEM_SUBSTANCE_ID>
310932979

> <PUBCHEM_SUBSTANCE_VERSION>
1

> <PUBCHEM_EXT_DATASOURCE_NAME>
4488

> <PUBCHEM_EXT_DATASOURCE_REGID>
SCHEMBL16110376

> <PUBCHEM_SUBSTANCE_COMMENT>
InChI=1S/C27H20S/c1-27(2)23-12-5-3-8-19(23)20-15-14-17(16-24(20)27)18-10-7-11-22-21-9-4-6-13-25(21)28-26(18)22/h3-16H,1-2H3
InChIKey=ROHVVEFHUJVXSU-UHFFFAOYSA-N

> <PUBCHEM_SUBSTANCE_SYNONYM>
SCHEMBL16110376

> <PUBCHEM_XREF_EXT_ID>
SCHEMBL16110376

> <PUBCHEM_EXT_DATASOURCE_URL>
https://www.surechembl.org/

> <PUBCHEM_EXT_SUBSTANCE_URL>
https://www.surechembl.org/chemical/SCHEMBL16110376

> <PUBCHEM_CID_ASSOCIATIONS>
117601456  1

> <PUBCHEM_COORDINATE_TYPE>
1
3

$$$$
