310946902
  -OEChem-07211613022D

 40 42  0     1  0  0  0  0  0999 V2000
   -2.4241   -3.1384    0.0000 S   0  0  0  0  0  0  0  0  0  0  0  0
   -0.1757    1.5927    0.0000 F   0  0  0  0  0  0  0  0  0  0  0  0
   -2.5178   -6.0192    0.0000 F   0  0  0  0  0  0  0  0  0  0  0  0
   -1.6746   -6.0192    0.0000 F   0  0  0  0  0  0  0  0  0  0  0  0
   -1.2765   -5.3166    0.0000 F   0  0  0  0  0  0  0  0  0  0  0  0
   -3.0330   -2.5763    0.0000 O   0  0  0  0  0  0  0  0  0  0  0  0
   -3.2204   -3.3961    0.0000 O   0  0  0  0  0  0  0  0  0  0  0  0
   -1.3936   -0.9837    0.0000 O   0  0  0  0  0  0  0  0  0  0  0  0
   -2.0962   -3.8879    0.0000 N   0  0  3  0  0  0  0  0  0  0  0  0
    0.7613    0.7729    0.0000 N   0  0  3  0  0  0  0  0  0  0  0  0
   -1.6980    0.4216    0.0000 N   0  0  0  0  0  0  0  0  0  0  0  0
    1.0189   -0.0234    0.0000 N   0  0  0  0  0  0  0  0  0  0  0  0
    1.4170    3.0681    0.0000 N   0  0  0  0  0  0  0  0  0  0  0  0
    3.2204    0.5152    0.0000 N   0  0  0  0  0  0  0  0  0  0  0  0
   -1.7917   -2.5763    0.0000 C   0  0  0  0  0  0  0  0  0  0  0  0
   -1.0657   -2.9745    0.0000 C   0  0  0  0  0  0  0  0  0  0  0  0
   -1.2765   -3.8177    0.0000 C   0  0  0  0  0  0  0  0  0  0  0  0
    1.2765    1.4053    0.0000 C   0  0  3  0  0  0  0  0  0  0  0  0
   -0.3630   -1.7332    0.0000 C   0  0  0  0  0  0  0  0  0  0  0  0
   -0.3630   -2.5763    0.0000 C   0  0  0  0  0  0  0  0  0  0  0  0
   -1.7682   -1.7565    0.0000 C   0  0  0  0  0  0  0  0  0  0  0  0
   -0.0819    0.7729    0.0000 C   0  0  0  0  0  0  0  0  0  0  0  0
   -0.3162   -0.0234    0.0000 C   0  0  0  0  0  0  0  0  0  0  0  0
   -2.4944   -4.6139    0.0000 C   0  0  0  0  0  0  0  0  0  0  0  0
   -1.0891   -1.3584    0.0000 C   0  0  0  0  0  0  0  0  0  0  0  0
    0.3396   -0.4918    0.0000 C   0  0  0  0  0  0  0  0  0  0  0  0
    0.5972    1.9205    0.0000 C   0  0  3  0  0  0  0  0  0  0  0  0
   -1.1360   -0.1874    0.0000 C   0  0  0  0  0  0  0  0  0  0  0  0
   -2.0728   -5.3166    0.0000 C   0  0  0  0  0  0  0  0  0  0  0  0
    2.0025    1.7565    0.0000 C   0  0  0  0  0  0  0  0  0  0  0  0
    1.6043    0.6793    0.0000 C   0  0  0  0  0  0  0  0  0  0  0  0
   -0.5972    1.3584    0.0000 C   0  0  0  0  0  0  0  0  0  0  0  0
   -1.4170    1.1945    0.0000 C   0  0  0  0  0  0  0  0  0  0  0  0
    2.0962    2.5763    0.0000 C   0  0  0  0  0  0  0  0  0  0  0  0
    0.6910    2.7402    0.0000 C   0  0  0  0  0  0  0  0  0  0  0  0
    2.4007    0.5621    0.0000 C   0  0  0  0  0  0  0  0  0  0  0  0
    0.9251    5.2463    0.0000 C   0  0  0  0  0  0  0  0  0  0  0  0
    0.9954    6.0192    0.0000 C   0  0  0  0  0  0  0  0  0  0  0  0
    0.2928    5.6913    0.0000 C   0  0  0  0  0  0  0  0  0  0  0  0
    1.7215    5.5039    0.0000 C   0  0  0  0  0  0  0  0  0  0  0  0
  1  6  2  0  0  0  0
  1  7  2  0  0  0  0
  1  9  1  0  0  0  0
  1 15  1  0  0  0  0
 27  2  1  6  0  0  0
  3 29  1  0  0  0  0
  4 29  1  0  0  0  0
  5 29  1  0  0  0  0
  8 28  2  0  0  0  0
  9 17  1  0  0  0  0
  9 24  1  0  0  0  0
 10 12  1  0  0  0  0
 18 10  1  6  0  0  0
 10 22  1  0  0  0  0
 11 28  1  0  0  0  0
 11 33  1  0  0  0  0
 13 35  1  0  0  0  0
 14 36  3  0  0  0  0
 15 16  2  0  0  0  0
 15 21  1  0  0  0  0
 16 17  1  0  0  0  0
 16 20  1  0  0  0  0
 18 27  1  0  0  0  0
 18 30  1  0  0  0  0
 18 31  1  1  0  0  0
 19 20  2  0  0  0  0
 19 25  1  0  0  0  0
 19 26  1  0  0  0  0
 21 25  2  0  0  0  0
 22 23  2  0  0  0  0
 22 32  1  0  0  0  0
 23 26  1  0  0  0  0
 23 28  1  0  0  0  0
 24 29  1  0  0  0  0
 27 35  1  0  0  0  0
 30 34  1  0  0  0  0
 31 36  1  0  0  0  0
 32 33  2  0  0  0  0
 34 37  1  0  0  0  0
 37 38  1  0  0  0  0
 37 39  1  0  0  0  0
 37 40  1  0  0  0  0
M  END
> <PUBCHEM_COMPOUND_ID_TYPE>
0

> <PUBCHEM_TOTAL_CHARGE>
0

> <PUBCHEM_SUBSTANCE_ID>
310946902

> <PUBCHEM_SUBSTANCE_VERSION>
1

> <PUBCHEM_EXT_DATASOURCE_NAME>
4488

> <PUBCHEM_EXT_DATASOURCE_REGID>
SCHEMBL16125026

> <PUBCHEM_SUBSTANCE_COMMENT>
InChI=1S/C26H34F4N6O3S/c1-24(2,3)7-8-25(9-10-31,22(27)14-32)36(33)20-6-11-34-23(37)19(20)13-17-4-5-21-18(12-17)15-35(40(21,38)39)16-26(28,29)30/h4-6,11-12,22H,7-9,13-16,32-33H2,1-3H3,(H,34,37)/t22-,25-/m1/s1
InChIKey=GIPZULQQDUFCCA-RCZVLFRGSA-N

> <PUBCHEM_SUBSTANCE_SYNONYM>
SCHEMBL16125026

> <PUBCHEM_XREF_EXT_ID>
SCHEMBL16125026

> <PUBCHEM_EXT_DATASOURCE_URL>
https://www.surechembl.org/

> <PUBCHEM_EXT_SUBSTANCE_URL>
https://www.surechembl.org/chemical/SCHEMBL16125026

> <PUBCHEM_CID_ASSOCIATIONS>
117612760  1

> <PUBCHEM_COORDINATE_TYPE>
1
3

> <PUBCHEM_BONDANNOTATIONS>
18  10  6
18  31  5
26  19  3
27  2  6
37  34  3

$$$$
