310948449
  -OEChem-07211613022D

 36 41  0     1  0  0  0  0  0999 V2000
   -0.6896   -2.8274    0.0000 O   0  0  0  0  0  0  0  0  0  0  0  0
   -2.5929    2.4412    0.0000 O   0  0  0  0  0  0  0  0  0  0  0  0
    1.3103   -4.0962    0.0000 O   0  0  0  0  0  0  0  0  0  0  0  0
    0.1655    2.3032    0.0000 N   0  0  0  0  0  0  0  0  0  0  0  0
    0.4551   -1.8895    0.0000 N   0  0  0  0  0  0  0  0  0  0  0  0
   -0.1655    1.5447    0.0000 N   0  0  0  0  0  0  0  0  0  0  0  0
   -1.5447    1.0206    0.0000 N   0  0  0  0  0  0  0  0  0  0  0  0
   -1.8895    3.6963    0.0000 N   0  0  0  0  0  0  0  0  0  0  0  0
    1.0206    0.2896    0.0000 N   0  0  0  0  0  0  0  0  0  0  0  0
   -1.1448    2.4550    0.0000 C   0  0  0  0  0  0  0  0  0  0  0  0
   -0.4551    2.8687    0.0000 C   0  0  0  0  0  0  0  0  0  0  0  0
   -0.9931    1.6550    0.0000 C   0  0  0  0  0  0  0  0  0  0  0  0
   -0.7723   -1.3378    0.0000 C   0  0  0  0  0  0  0  0  0  0  0  0
   -0.2206   -0.7172    0.0000 C   0  0  0  0  0  0  0  0  0  0  0  0
   -0.3586   -2.0413    0.0000 C   0  0  0  0  0  0  0  0  0  0  0  0
    1.0758   -2.4412    0.0000 C   0  0  0  0  0  0  0  0  0  0  0  0
    0.9793    2.4826    0.0000 C   0  0  3  0  0  0  0  0  0  0  0  0
    0.5379   -1.0620    0.0000 C   0  0  0  0  0  0  0  0  0  0  0  0
   -1.8758    2.8687    0.0000 C   0  0  0  0  0  0  0  0  0  0  0  0
   -1.2827    0.2345    0.0000 C   0  0  0  0  0  0  0  0  0  0  0  0
   -0.4827    0.0551    0.0000 C   0  0  0  0  0  0  0  0  0  0  0  0
   -0.4414    3.6825    0.0000 C   0  0  0  0  0  0  0  0  0  0  0  0
   -1.5723   -1.1723    0.0000 C   0  0  0  0  0  0  0  0  0  0  0  0
   -1.8205   -0.3723    0.0000 C   0  0  0  0  0  0  0  0  0  0  0  0
    1.5585    1.8619    0.0000 C   0  0  3  0  0  0  0  0  0  0  0  0
    0.4276   -2.9515    0.0000 C   0  0  0  0  0  0  0  0  0  0  0  0
    1.8343   -2.7722    0.0000 C   0  0  0  0  0  0  0  0  0  0  0  0
   -1.1586    4.0962    0.0000 C   0  0  0  0  0  0  0  0  0  0  0  0
    1.2550    3.2687    0.0000 C   0  0  0  0  0  0  0  0  0  0  0  0
    1.4895   -1.7240    0.0000 C   0  0  0  0  0  0  0  0  0  0  0  0
    2.3447    2.0413    0.0000 C   0  0  0  0  0  0  0  0  0  0  0  0
    0.5241   -3.7790    0.0000 C   0  0  0  0  0  0  0  0  0  0  0  0
    1.9447   -3.5859    0.0000 C   0  0  0  0  0  0  0  0  0  0  0  0
    1.2827    1.0896    0.0000 C   0  0  0  0  0  0  0  0  0  0  0  0
    2.0550    3.4204    0.0000 C   0  0  0  0  0  0  0  0  0  0  0  0
    2.5929    2.8274    0.0000 C   0  0  0  0  0  0  0  0  0  0  0  0
  1 15  2  0  0  0  0
  2 19  2  0  0  0  0
  3 32  1  0  0  0  0
  3 33  1  0  0  0  0
  4  6  1  0  0  0  0
  4 11  1  0  0  0  0
 17  4  1  1  0  0  0
  5 15  1  0  0  0  0
  5 16  1  0  0  0  0
  5 18  1  0  0  0  0
  6 12  2  0  0  0  0
  7 12  1  0  0  0  0
  7 20  1  0  0  0  0
  8 19  1  0  0  0  0
  8 28  1  0  0  0  0
  9 34  3  0  0  0  0
 10 11  2  0  0  0  0
 10 12  1  0  0  0  0
 10 19  1  0  0  0  0
 11 22  1  0  0  0  0
 13 14  1  0  0  0  0
 13 15  1  0  0  0  0
 13 23  2  0  0  0  0
 14 18  1  0  0  0  0
 14 21  2  0  0  0  0
 16 26  1  0  0  0  0
 16 27  1  0  0  0  0
 16 30  1  0  0  0  0
 17 25  1  0  0  0  0
 17 29  1  0  0  0  0
 20 21  1  0  0  0  0
 20 24  2  0  0  0  0
 22 28  2  0  0  0  0
 23 24  1  0  0  0  0
 25 31  1  0  0  0  0
 25 34  1  6  0  0  0
 26 32  1  0  0  0  0
 27 33  1  0  0  0  0
 29 35  1  0  0  0  0
 31 36  1  0  0  0  0
 35 36  1  0  0  0  0
M  END
> <PUBCHEM_COMPOUND_ID_TYPE>
0

> <PUBCHEM_TOTAL_CHARGE>
0

> <PUBCHEM_SUBSTANCE_ID>
310948449

> <PUBCHEM_SUBSTANCE_VERSION>
1

> <PUBCHEM_EXT_DATASOURCE_NAME>
4488

> <PUBCHEM_EXT_DATASOURCE_REGID>
SCHEMBL16126630

> <PUBCHEM_SUBSTANCE_COMMENT>
InChI=1S/C27H30N6O3/c1-27(9-12-36-13-10-27)32-16-18-14-19(6-7-20(18)26(32)35)30-24-23-22(8-11-29-25(23)34)33(31-24)21-5-3-2-4-17(21)15-28/h6-8,11,14,17,21H,2-5,9-10,12-13,16H2,1H3,(H,29,34)(H,30,31)/t17-,21+/m1/s1
InChIKey=JZCKKPDNCNCXLJ-UTKZUKDTSA-N

> <PUBCHEM_SUBSTANCE_SYNONYM>
SCHEMBL16126630

> <PUBCHEM_XREF_EXT_ID>
SCHEMBL16126630

> <PUBCHEM_EXT_DATASOURCE_URL>
https://www.surechembl.org/

> <PUBCHEM_EXT_SUBSTANCE_URL>
https://www.surechembl.org/chemical/SCHEMBL16126630

> <PUBCHEM_CID_ASSOCIATIONS>
117614007  1

> <PUBCHEM_COORDINATE_TYPE>
1
3

> <PUBCHEM_BONDANNOTATIONS>
25  34  6
17  4  5

$$$$
