310934651
  -OEChem-07211613022D

 41 44  0     0  0  0  0  0  0999 V2000
   10.8943    0.0337    0.0000 S   0  0  0  0  0  0  0  0  0  0  0  0
   -1.8079   -2.8838    0.0000 F   0  0  0  0  0  0  0  0  0  0  0  0
   -0.9873   -2.9700    0.0000 F   0  0  0  0  0  0  0  0  0  0  0  0
   -2.1434   -2.1301    0.0000 F   0  0  0  0  0  0  0  0  0  0  0  0
   -0.8380   -1.5489    0.0000 O   0  0  0  0  0  0  0  0  0  0  0  0
    8.7509   -1.2038    0.0000 O   0  0  0  0  0  0  0  0  0  0  0  0
    9.4654    0.0337    0.0000 N   0  0  0  0  0  0  0  0  0  0  0  0
    2.4439   -1.8938    0.0000 N   0  0  0  0  0  0  0  0  0  0  0  0
    2.9959   -1.2808    0.0000 N   0  0  0  0  0  0  0  0  0  0  0  0
    3.6634   -2.4368    0.0000 N   0  0  0  0  0  0  0  0  0  0  0  0
    8.0364    0.0337    0.0000 N   0  0  0  0  0  0  0  0  0  0  0  0
   10.1799   -1.2038    0.0000 N   0  0  0  0  0  0  0  0  0  0  0  0
    9.4654    1.3537    0.0000 C   0  0  0  0  0  0  0  0  0  0  0  0
   10.1799    1.7662    0.0000 C   0  0  0  0  0  0  0  0  0  0  0  0
    3.7496   -1.6163    0.0000 C   0  0  0  0  0  0  0  0  0  0  0  0
    1.6234   -1.8076    0.0000 C   0  0  0  0  0  0  0  0  0  0  0  0
    4.4641   -1.2038    0.0000 C   0  0  0  0  0  0  0  0  0  0  0  0
    8.7509   -0.3788    0.0000 C   0  0  0  0  0  0  0  0  0  0  0  0
    8.7509    1.7662    0.0000 C   0  0  0  0  0  0  0  0  0  0  0  0
   10.1799   -0.3788    0.0000 C   0  0  0  0  0  0  0  0  0  0  0  0
    2.8564   -2.6083    0.0000 C   0  0  0  0  0  0  0  0  0  0  0  0
    8.7509    2.5912    0.0000 C   0  0  0  0  0  0  0  0  0  0  0  0
   10.1799    2.5912    0.0000 C   0  0  0  0  0  0  0  0  0  0  0  0
   10.8943    1.3537    0.0000 C   0  0  0  0  0  0  0  0  0  0  0  0
    9.4654    3.0037    0.0000 C   0  0  0  0  0  0  0  0  0  0  0  0
    1.2879   -1.0539    0.0000 C   0  0  0  0  0  0  0  0  0  0  0  0
    1.1385   -2.4751    0.0000 C   0  0  0  0  0  0  0  0  0  0  0  0
   -0.0175   -1.6352    0.0000 C   0  0  0  0  0  0  0  0  0  0  0  0
    4.4641   -0.3788    0.0000 C   0  0  0  0  0  0  0  0  0  0  0  0
    5.1786   -1.6163    0.0000 C   0  0  0  0  0  0  0  0  0  0  0  0
    5.8930   -0.3788    0.0000 C   0  0  0  0  0  0  0  0  0  0  0  0
    0.4674   -0.9677    0.0000 C   0  0  0  0  0  0  0  0  0  0  0  0
    0.3180   -2.3888    0.0000 C   0  0  0  0  0  0  0  0  0  0  0  0
    5.1786    0.0337    0.0000 C   0  0  0  0  0  0  0  0  0  0  0  0
    5.8930   -1.2038    0.0000 C   0  0  0  0  0  0  0  0  0  0  0  0
    6.6075    0.0337    0.0000 C   0  0  0  0  0  0  0  0  0  0  0  0
    7.3220   -0.3788    0.0000 C   0  0  0  0  0  0  0  0  0  0  0  0
   -1.3229   -2.2163    0.0000 C   0  0  0  0  0  0  0  0  0  0  0  0
    8.0364    3.0037    0.0000 C   0  0  0  0  0  0  0  0  0  0  0  0
   10.8943    0.5287    0.0000 C   0  0  0  0  0  0  0  0  0  0  0  0
   11.6088    1.7662    0.0000 C   0  0  0  0  0  0  0  0  0  0  0  0
  1 20  1  0  0  0  0
  2 38  1  0  0  0  0
  3 38  1  0  0  0  0
  4 38  1  0  0  0  0
  5 28  1  0  0  0  0
  5 38  1  0  0  0  0
  6 18  2  0  0  0  0
  7 13  1  0  0  0  0
  7 18  1  0  0  0  0
  7 20  1  0  0  0  0
  8  9  1  0  0  0  0
  8 16  1  0  0  0  0
  8 21  1  0  0  0  0
  9 15  2  0  0  0  0
 10 15  1  0  0  0  0
 10 21  2  0  0  0  0
 11 18  1  0  0  0  0
 11 37  1  0  0  0  0
 12 20  2  3  0  0  0
 13 14  1  0  0  0  0
 13 19  2  0  0  0  0
 14 23  2  0  0  0  0
 14 24  1  0  0  0  0
 15 17  1  0  0  0  0
 16 26  2  0  0  0  0
 16 27  1  0  0  0  0
 17 29  2  0  0  0  0
 17 30  1  0  0  0  0
 19 22  1  0  0  0  0
 22 25  2  0  0  0  0
 22 39  1  0  0  0  0
 23 25  1  0  0  0  0
 24 40  1  0  0  0  0
 24 41  1  0  0  0  0
 26 32  1  0  0  0  0
 27 33  2  0  0  0  0
 28 32  2  0  0  0  0
 28 33  1  0  0  0  0
 29 34  1  0  0  0  0
 30 35  2  0  0  0  0
 31 34  2  0  0  0  0
 31 35  1  0  0  0  0
 31 36  1  0  0  0  0
 36 37  1  0  0  0  0
M  END
> <PUBCHEM_COMPOUND_ID_TYPE>
0

> <PUBCHEM_TOTAL_CHARGE>
0

> <PUBCHEM_SUBSTANCE_ID>
310934651

> <PUBCHEM_SUBSTANCE_VERSION>
1

> <PUBCHEM_EXT_DATASOURCE_NAME>
4488

> <PUBCHEM_EXT_DATASOURCE_REGID>
SCHEMBL16112149

> <PUBCHEM_SUBSTANCE_COMMENT>
InChI=1S/C29H29F3N6O2S/c1-18(2)24-13-4-19(3)16-25(24)38(27(33)41)28(39)34-15-14-20-5-7-21(8-6-20)26-35-17-37(36-26)22-9-11-23(12-10-22)40-29(30,31)32/h4-13,16-18H,14-15H2,1-3H3,(H2,33,41)(H,34,39)
InChIKey=YAQXULNWNMPFCC-UHFFFAOYSA-N

> <PUBCHEM_SUBSTANCE_SYNONYM>
SCHEMBL16112149

> <PUBCHEM_XREF_EXT_ID>
SCHEMBL16112149

> <PUBCHEM_EXT_DATASOURCE_URL>
https://www.surechembl.org/

> <PUBCHEM_EXT_SUBSTANCE_URL>
https://www.surechembl.org/chemical/SCHEMBL16112149

> <PUBCHEM_CID_ASSOCIATIONS>
117602818  1

> <PUBCHEM_COORDINATE_TYPE>
1
3

$$$$
