310941481
  -OEChem-07211613022D

 17 18  0     0  0  0  0  0  0999 V2000
    2.1974    1.6599    0.0000 O   0  0  0  0  0  0  0  0  0  0  0  0
    0.6616   -0.4312    0.0000 O   0  0  0  0  0  0  0  0  0  0  0  0
   -0.0472    0.8093    0.0000 O   0  0  0  0  0  0  0  0  0  0  0  0
    1.3586    0.8210    0.0000 C   0  0  0  0  0  0  0  0  0  0  0  0
    1.3704    1.6481    0.0000 C   0  0  0  0  0  0  0  0  0  0  0  0
    2.1856    0.8210    0.0000 C   0  0  0  0  0  0  0  0  0  0  0  0
    1.3586   -0.0177    0.0000 C   0  0  0  0  0  0  0  0  0  0  0  0
   -0.7797   -0.4194    0.0000 C   0  0  0  0  0  0  0  0  0  0  0  0
   -0.0709   -0.0296    0.0000 C   0  0  0  0  0  0  0  0  0  0  0  0
    0.5198    0.8447    0.0000 C   0  0  0  0  0  0  0  0  0  0  0  0
   -0.7915   -1.2582    0.0000 C   0  0  0  0  0  0  0  0  0  0  0  0
   -1.4767   -0.0296    0.0000 C   0  0  0  0  0  0  0  0  0  0  0  0
   -1.5004   -1.6599    0.0000 C   0  0  0  0  0  0  0  0  0  0  0  0
   -2.1974   -0.4312    0.0000 C   0  0  0  0  0  0  0  0  0  0  0  0
   -2.1974   -1.2582    0.0000 C   0  0  0  0  0  0  0  0  0  0  0  0
    0.1418    1.5417    0.0000 C   0  0  0  0  0  0  0  0  0  0  0  0
   -0.1654   -1.6007    0.0000 C   0  0  0  0  0  0  0  0  0  0  0  0
  1  5  1  0  0  0  0
  1  6  1  0  0  0  0
  2  7  1  0  0  0  0
  2  9  1  0  0  0  0
  3  9  2  0  0  0  0
  4  5  1  0  0  0  0
  4  6  1  0  0  0  0
  4  7  1  0  0  0  0
  4 10  1  0  0  0  0
  8  9  1  0  0  0  0
  8 11  1  0  0  0  0
  8 12  2  0  0  0  0
 10 16  1  0  0  0  0
 11 13  2  0  0  0  0
 11 17  1  0  0  0  0
 12 14  1  0  0  0  0
 13 15  1  0  0  0  0
 14 15  2  0  0  0  0
M  END
> <PUBCHEM_COMPOUND_ID_TYPE>
0

> <PUBCHEM_TOTAL_CHARGE>
0

> <PUBCHEM_SUBSTANCE_ID>
310941481

> <PUBCHEM_SUBSTANCE_VERSION>
1

> <PUBCHEM_EXT_DATASOURCE_NAME>
4488

> <PUBCHEM_EXT_DATASOURCE_REGID>
SCHEMBL16119512

> <PUBCHEM_SUBSTANCE_COMMENT>
InChI=1S/C14H18O3/c1-3-14(8-16-9-14)10-17-13(15)12-7-5-4-6-11(12)2/h4-7H,3,8-10H2,1-2H3
InChIKey=ZHLGIOGPZMKWTF-UHFFFAOYSA-N

> <PUBCHEM_SUBSTANCE_SYNONYM>
SCHEMBL16119512

> <PUBCHEM_XREF_EXT_ID>
SCHEMBL16119512

> <PUBCHEM_EXT_DATASOURCE_URL>
https://www.surechembl.org/

> <PUBCHEM_EXT_SUBSTANCE_URL>
https://www.surechembl.org/chemical/SCHEMBL16119512

> <PUBCHEM_CID_ASSOCIATIONS>
117608303  1

> <PUBCHEM_COORDINATE_TYPE>
1
3

$$$$
