310947297
  -OEChem-07211613022D

 35 39  0     0  0  0  0  0  0999 V2000
   -2.5325    2.2832    0.0000 O   0  0  0  0  0  0  0  0  0  0  0  0
    3.6655    0.1356    0.0000 O   0  0  0  0  0  0  0  0  0  0  0  0
    5.0944    0.1356    0.0000 O   0  0  0  0  0  0  0  0  0  0  0  0
    0.3955   -0.0343    0.0000 N   0  0  0  0  0  0  0  0  0  0  0  0
    0.8805    0.6332    0.0000 N   0  0  0  0  0  0  0  0  0  0  0  0
   -3.2470    1.0457    0.0000 N   0  0  0  0  0  0  0  0  0  0  0  0
   -0.3891    0.2207    0.0000 C   0  0  0  0  0  0  0  0  0  0  0  0
   -0.3891    1.0457    0.0000 C   0  0  0  0  0  0  0  0  0  0  0  0
    0.3955    1.3006    0.0000 C   0  0  0  0  0  0  0  0  0  0  0  0
   -1.1036    1.4582    0.0000 C   0  0  0  0  0  0  0  0  0  0  0  0
   -1.8180    1.0457    0.0000 C   0  0  0  0  0  0  0  0  0  0  0  0
   -1.1036   -0.1918    0.0000 C   0  0  0  0  0  0  0  0  0  0  0  0
    0.6091   -0.8312    0.0000 C   0  0  0  0  0  0  0  0  0  0  0  0
   -1.8180    0.2207    0.0000 C   0  0  0  0  0  0  0  0  0  0  0  0
    1.4059   -1.0447    0.0000 C   0  0  0  0  0  0  0  0  0  0  0  0
   -2.5325    1.4582    0.0000 C   0  0  0  0  0  0  0  0  0  0  0  0
    2.9997   -1.4717    0.0000 C   0  0  0  0  0  0  0  0  0  0  0  0
    3.7966   -1.6853    0.0000 C   0  0  0  0  0  0  0  0  0  0  0  0
    4.3800   -1.1019    0.0000 C   0  0  0  0  0  0  0  0  0  0  0  0
    0.8080    2.0151    0.0000 C   0  0  0  0  0  0  0  0  0  0  0  0
    1.6195   -1.8416    0.0000 C   0  0  0  0  0  0  0  0  0  0  0  0
    1.9893   -0.4613    0.0000 C   0  0  0  0  0  0  0  0  0  0  0  0
    2.4164   -2.0551    0.0000 C   0  0  0  0  0  0  0  0  0  0  0  0
    2.7862   -0.6748    0.0000 C   0  0  0  0  0  0  0  0  0  0  0  0
    4.0101   -2.4821    0.0000 C   0  0  0  0  0  0  0  0  0  0  0  0
    4.3800   -0.2769    0.0000 C   0  0  0  0  0  0  0  0  0  0  0  0
    5.1769   -1.3154    0.0000 C   0  0  0  0  0  0  0  0  0  0  0  0
   -3.9614    1.4582    0.0000 C   0  0  0  0  0  0  0  0  0  0  0  0
    4.8070   -2.6957    0.0000 C   0  0  0  0  0  0  0  0  0  0  0  0
    5.3904   -2.1123    0.0000 C   0  0  0  0  0  0  0  0  0  0  0  0
   -3.9614    2.2832    0.0000 C   0  0  0  0  0  0  0  0  0  0  0  0
   -4.6759    1.0457    0.0000 C   0  0  0  0  0  0  0  0  0  0  0  0
   -4.6759    2.6957    0.0000 C   0  0  0  0  0  0  0  0  0  0  0  0
   -5.3904    1.4582    0.0000 C   0  0  0  0  0  0  0  0  0  0  0  0
   -5.3904    2.2832    0.0000 C   0  0  0  0  0  0  0  0  0  0  0  0
  1 16  2  0  0  0  0
  2 26  2  0  0  0  0
  3 26  1  0  0  0  0
  4  5  1  0  0  0  0
  4  7  1  0  0  0  0
  4 13  1  0  0  0  0
  5  9  2  0  0  0  0
  6 16  1  0  0  0  0
  6 28  1  0  0  0  0
  7  8  1  0  0  0  0
  7 12  2  0  0  0  0
  8  9  1  0  0  0  0
  8 10  2  0  0  0  0
  9 20  1  0  0  0  0
 10 11  1  0  0  0  0
 11 14  2  0  0  0  0
 11 16  1  0  0  0  0
 12 14  1  0  0  0  0
 13 15  1  0  0  0  0
 15 21  2  0  0  0  0
 15 22  1  0  0  0  0
 17 18  1  0  0  0  0
 17 23  2  0  0  0  0
 17 24  1  0  0  0  0
 18 19  1  0  0  0  0
 18 25  2  0  0  0  0
 19 26  1  0  0  0  0
 19 27  2  0  0  0  0
 21 23  1  0  0  0  0
 22 24  2  0  0  0  0
 25 29  1  0  0  0  0
 27 30  1  0  0  0  0
 28 31  1  0  0  0  0
 28 32  1  0  0  0  0
 29 30  2  0  0  0  0
 31 33  1  0  0  0  0
 32 34  1  0  0  0  0
 33 35  1  0  0  0  0
 34 35  1  0  0  0  0
M  END
> <PUBCHEM_COMPOUND_ID_TYPE>
0

> <PUBCHEM_TOTAL_CHARGE>
0

> <PUBCHEM_SUBSTANCE_ID>
310947297

> <PUBCHEM_SUBSTANCE_VERSION>
1

> <PUBCHEM_EXT_DATASOURCE_NAME>
4488

> <PUBCHEM_EXT_DATASOURCE_REGID>
SCHEMBL16125452

> <PUBCHEM_SUBSTANCE_COMMENT>
InChI=1S/C29H29N3O3/c1-19-26-17-22(28(33)30-23-7-3-2-4-8-23)15-16-27(26)32(31-19)18-20-11-13-21(14-12-20)24-9-5-6-10-25(24)29(34)35/h5-6,9-17,23H,2-4,7-8,18H2,1H3,(H,30,33)(H,34,35)
InChIKey=MZSWQLVOCCNFRQ-UHFFFAOYSA-N

> <PUBCHEM_SUBSTANCE_SYNONYM>
SCHEMBL16125452

> <PUBCHEM_XREF_EXT_ID>
SCHEMBL16125452

> <PUBCHEM_EXT_DATASOURCE_URL>
https://www.surechembl.org/

> <PUBCHEM_EXT_SUBSTANCE_URL>
https://www.surechembl.org/chemical/SCHEMBL16125452

> <PUBCHEM_CID_ASSOCIATIONS>
71576896  1

> <PUBCHEM_COORDINATE_TYPE>
1
3

$$$$
