310945701
  -OEChem-07211613022D

 29 32  0     0  0  0  0  0  0999 V2000
    3.3834   -3.3267    0.0000 Br  0  0  0  0  0  0  0  0  0  0  0  0
   -3.3834   -2.0783    0.0000 Cl  0  0  0  0  0  0  0  0  0  0  0  0
   -0.1915    0.4043    0.0000 N   0  0  0  0  0  0  0  0  0  0  0  0
   -0.1915    2.8869    0.0000 N   0  0  0  0  0  0  0  0  0  0  0  0
   -0.2482   -0.4185    0.0000 C   0  0  0  0  0  0  0  0  0  0  0  0
   -0.9576   -0.8157    0.0000 C   0  0  0  0  0  0  0  0  0  0  0  0
   -0.9576   -1.6527    0.0000 C   0  0  0  0  0  0  0  0  0  0  0  0
    0.4610   -1.6527    0.0000 C   0  0  0  0  0  0  0  0  0  0  0  0
    0.4753   -0.8299    0.0000 C   0  0  0  0  0  0  0  0  0  0  0  0
   -0.2341   -2.0499    0.0000 C   0  0  0  0  0  0  0  0  0  0  0  0
    1.1845   -2.0783    0.0000 C   0  0  0  0  0  0  0  0  0  0  0  0
   -1.6953   -0.4185    0.0000 C   0  0  0  0  0  0  0  0  0  0  0  0
   -1.6810   -2.0499    0.0000 C   0  0  0  0  0  0  0  0  0  0  0  0
   -2.3904   -1.6527    0.0000 C   0  0  0  0  0  0  0  0  0  0  0  0
   -0.9576    0.8299    0.0000 C   0  0  0  0  0  0  0  0  0  0  0  0
    0.4753    0.8299    0.0000 C   0  0  0  0  0  0  0  0  0  0  0  0
   -2.3761   -0.8157    0.0000 C   0  0  0  0  0  0  0  0  0  0  0  0
   -0.2482    2.0641    0.0000 C   0  0  0  0  0  0  0  0  0  0  0  0
   -0.9576    1.6669    0.0000 C   0  0  0  0  0  0  0  0  0  0  0  0
    0.4753    1.6527    0.0000 C   0  0  0  0  0  0  0  0  0  0  0  0
    1.1987   -2.8869    0.0000 C   0  0  0  0  0  0  0  0  0  0  0  0
    1.9222   -1.6669    0.0000 C   0  0  0  0  0  0  0  0  0  0  0  0
    1.9222   -3.2983    0.0000 C   0  0  0  0  0  0  0  0  0  0  0  0
    2.6173   -2.0783    0.0000 C   0  0  0  0  0  0  0  0  0  0  0  0
    2.6173   -2.8869    0.0000 C   0  0  0  0  0  0  0  0  0  0  0  0
    0.4610    3.3124    0.0000 C   0  0  0  0  0  0  0  0  0  0  0  0
   -0.9718    3.3267    0.0000 C   0  0  0  0  0  0  0  0  0  0  0  0
    1.2129    2.8869    0.0000 C   0  0  0  0  0  0  0  0  0  0  0  0
   -1.6810    2.9153    0.0000 C   0  0  0  0  0  0  0  0  0  0  0  0
  1 25  1  0  0  0  0
  2 14  1  0  0  0  0
  3  5  1  0  0  0  0
  3 15  1  0  0  0  0
  3 16  1  0  0  0  0
  4 18  1  0  0  0  0
  4 26  1  0  0  0  0
  4 27  1  0  0  0  0
  5  6  1  0  0  0  0
  5  9  2  0  0  0  0
  6  7  1  0  0  0  0
  6 12  2  0  0  0  0
  7 10  1  0  0  0  0
  7 13  2  0  0  0  0
  8  9  1  0  0  0  0
  8 10  2  0  0  0  0
  8 11  1  0  0  0  0
 11 21  2  0  0  0  0
 11 22  1  0  0  0  0
 12 17  1  0  0  0  0
 13 14  1  0  0  0  0
 14 17  2  0  0  0  0
 15 19  1  0  0  0  0
 16 20  1  0  0  0  0
 18 19  1  0  0  0  0
 18 20  1  0  0  0  0
 21 23  1  0  0  0  0
 22 24  2  0  0  0  0
 23 25  2  0  0  0  0
 24 25  1  0  0  0  0
 26 28  1  0  0  0  0
 27 29  1  0  0  0  0
M  END
> <PUBCHEM_COMPOUND_ID_TYPE>
0

> <PUBCHEM_TOTAL_CHARGE>
0

> <PUBCHEM_SUBSTANCE_ID>
310945701

> <PUBCHEM_SUBSTANCE_VERSION>
1

> <PUBCHEM_EXT_DATASOURCE_NAME>
4488

> <PUBCHEM_EXT_DATASOURCE_REGID>
SCHEMBL16123802

> <PUBCHEM_SUBSTANCE_COMMENT>
InChI=1S/C25H28BrClN2/c1-3-28(4-2)23-11-13-29(14-12-23)25-17-19(18-5-7-21(26)8-6-18)15-20-16-22(27)9-10-24(20)25/h5-10,15-17,23H,3-4,11-14H2,1-2H3
InChIKey=ABVRRHBYJNIZNU-UHFFFAOYSA-N

> <PUBCHEM_SUBSTANCE_SYNONYM>
SCHEMBL16123802

> <PUBCHEM_XREF_EXT_ID>
SCHEMBL16123802

> <PUBCHEM_EXT_DATASOURCE_URL>
https://www.surechembl.org/

> <PUBCHEM_EXT_SUBSTANCE_URL>
https://www.surechembl.org/chemical/SCHEMBL16123802

> <PUBCHEM_CID_ASSOCIATIONS>
117611698  1

> <PUBCHEM_COORDINATE_TYPE>
1
3

$$$$
