310940907
  -OEChem-07211613022D

 12 12  0     0  0  0  0  0  0999 V2000
    2.1157    0.9154    0.0000 I   0  0  0  0  0  0  0  0  0  0  0  0
   -2.1157   -0.0203    0.0000 F   0  0  0  0  0  0  0  0  0  0  0  0
   -1.5461   -1.0104    0.0000 F   0  0  0  0  0  0  0  0  0  0  0  0
    1.4783   -0.2373    0.0000 O   0  0  0  0  0  0  0  0  0  0  0  0
    0.0678    0.5900    0.0000 N   0  0  0  0  0  0  0  0  0  0  0  0
   -1.3427   -0.2102    0.0000 C   0  0  0  0  0  0  0  0  0  0  0  0
   -1.3155    0.6171    0.0000 C   0  0  0  0  0  0  0  0  0  0  0  0
   -0.6103   -0.6035    0.0000 C   0  0  0  0  0  0  0  0  0  0  0  0
   -0.6374    1.0104    0.0000 C   0  0  0  0  0  0  0  0  0  0  0  0
    0.0678   -0.2102    0.0000 C   0  0  0  0  0  0  0  0  0  0  0  0
    0.7594    1.0104    0.0000 C   0  0  0  0  0  0  0  0  0  0  0  0
    1.4918    0.6306    0.0000 C   0  0  0  0  0  0  0  0  0  0  0  0
  1 12  1  0  0  0  0
  2  6  1  0  0  0  0
  3  6  1  0  0  0  0
  4 12  2  0  0  0  0
  5  9  1  0  0  0  0
  5 10  1  0  0  0  0
  5 11  1  0  0  0  0
  6  7  1  0  0  0  0
  6  8  1  0  0  0  0
  7  9  1  0  0  0  0
  8 10  1  0  0  0  0
 11 12  1  0  0  0  0
M  END
> <PUBCHEM_COMPOUND_ID_TYPE>
0

> <PUBCHEM_TOTAL_CHARGE>
0

> <PUBCHEM_SUBSTANCE_ID>
310940907

> <PUBCHEM_SUBSTANCE_VERSION>
1

> <PUBCHEM_EXT_DATASOURCE_NAME>
4488

> <PUBCHEM_EXT_DATASOURCE_REGID>
SCHEMBL16118866

> <PUBCHEM_SUBSTANCE_COMMENT>
InChI=1S/C7H10F2INO/c8-7(9)1-3-11(4-2-7)5-6(10)12/h1-5H2
InChIKey=NUOAYBSRDDXVRD-UHFFFAOYSA-N

> <PUBCHEM_SUBSTANCE_SYNONYM>
SCHEMBL16118866

> <PUBCHEM_XREF_EXT_ID>
SCHEMBL16118866

> <PUBCHEM_EXT_DATASOURCE_URL>
https://www.surechembl.org/

> <PUBCHEM_EXT_SUBSTANCE_URL>
https://www.surechembl.org/chemical/SCHEMBL16118866

> <PUBCHEM_CID_ASSOCIATIONS>
117607816  1

> <PUBCHEM_COORDINATE_TYPE>
1
3

$$$$
