310931893
  -OEChem-07211613022D

 29 32  0     0  0  0  0  0  0999 V2000
    3.9999   -2.1068    0.0000 O   0  0  0  0  0  0  0  0  0  0  0  0
    9.0684   -2.5342    0.0000 O   0  0  0  0  0  0  0  0  0  0  0  0
    8.4882   -2.1984    0.0000 O   0  0  0  0  0  0  0  0  0  0  0  0
    4.9159   -0.9771    0.0000 N   0  0  0  0  0  0  0  0  0  0  0  0
    7.7860   -3.4502    0.0000 N   0  0  0  0  0  0  0  0  0  0  0  0
    4.8242   -0.1527    0.0000 N   0  0  0  0  0  0  0  0  0  0  0  0
    6.3509   -0.9771    0.0000 N   0  0  0  0  0  0  0  0  0  0  0  0
    0.0000   -1.8320    0.0000 N   0  0  0  0  0  0  0  0  0  0  0  0
    8.4882   -3.8472    0.0000 C   0  0  0  0  0  0  0  0  0  0  0  0
    4.1831   -1.3129    0.0000 C   0  0  0  0  0  0  0  0  0  0  0  0
    3.6029   -0.7022    0.0000 C   0  0  0  0  0  0  0  0  0  0  0  0
    5.6181   -1.3740    0.0000 C   0  0  0  0  0  0  0  0  0  0  0  0
    9.1295   -4.3662    0.0000 C   0  0  0  0  0  0  0  0  0  0  0  0
    8.3967   -4.7021    0.0000 C   0  0  0  0  0  0  0  0  0  0  0  0
    7.7860   -2.6259    0.0000 C   0  0  0  0  0  0  0  0  0  0  0  0
    7.0532   -2.1984    0.0000 C   0  0  0  0  0  0  0  0  0  0  0  0
    2.7786   -0.7939    0.0000 C   0  0  0  0  0  0  0  0  0  0  0  0
    3.9999    0.0000    0.0000 C   0  0  0  0  0  0  0  0  0  0  0  0
    9.1600   -3.3587    0.0000 C   0  0  0  0  0  0  0  0  0  0  0  0
    5.6181   -2.1984    0.0000 C   0  0  0  0  0  0  0  0  0  0  0  0
    7.0532   -1.3740    0.0000 C   0  0  0  0  0  0  0  0  0  0  0  0
    6.3509   -2.6259    0.0000 C   0  0  0  0  0  0  0  0  0  0  0  0
    2.4732   -1.5572    0.0000 C   0  0  0  0  0  0  0  0  0  0  0  0
    2.2900   -0.1527    0.0000 C   0  0  0  0  0  0  0  0  0  0  0  0
    1.1602   -1.0076    0.0000 C   0  0  0  0  0  0  0  0  0  0  0  0
    1.6488   -1.6488    0.0000 C   0  0  0  0  0  0  0  0  0  0  0  0
    1.4656   -0.2442    0.0000 C   0  0  0  0  0  0  0  0  0  0  0  0
    0.3359   -1.0687    0.0000 C   0  0  0  0  0  0  0  0  0  0  0  0
    8.3051   -2.2289    0.0000 C   0  0  0  0  0  0  0  0  0  0  0  0
  1 10  1  0  0  0  0
  2 19  1  0  0  0  0
  2 29  1  0  0  0  0
  3 15  2  0  0  0  0
  4  6  1  0  0  0  0
  4 10  1  0  0  0  0
  4 12  1  0  0  0  0
  5  9  1  0  0  0  0
  5 15  1  0  0  0  0
  6 18  2  0  0  0  0
  7 12  2  0  0  0  0
  7 21  1  0  0  0  0
  8 28  3  0  0  0  0
  9 13  1  0  0  0  0
  9 14  1  0  0  0  0
  9 19  1  0  0  0  0
 10 11  2  0  0  0  0
 11 17  1  0  0  0  0
 11 18  1  0  0  0  0
 12 20  1  0  0  0  0
 13 14  1  0  0  0  0
 15 16  1  0  0  0  0
 16 21  2  0  0  0  0
 16 22  1  0  0  0  0
 17 23  2  0  0  0  0
 17 24  1  0  0  0  0
 20 22  2  0  0  0  0
 23 26  1  0  0  0  0
 24 27  2  0  0  0  0
 25 26  2  0  0  0  0
 25 27  1  0  0  0  0
 25 28  1  0  0  0  0
M  END
> <PUBCHEM_COMPOUND_ID_TYPE>
0

> <PUBCHEM_TOTAL_CHARGE>
0

> <PUBCHEM_SUBSTANCE_ID>
310931893

> <PUBCHEM_SUBSTANCE_VERSION>
1

> <PUBCHEM_EXT_DATASOURCE_NAME>
4488

> <PUBCHEM_EXT_DATASOURCE_REGID>
SCHEMBL16109228

> <PUBCHEM_SUBSTANCE_COMMENT>
InChI=1S/C21H19N5O3/c1-29-13-21(8-9-21)25-19(27)16-6-7-18(23-11-16)26-20(28)17(12-24-26)15-4-2-14(10-22)3-5-15/h2-7,11-12,28H,8-9,13H2,1H3,(H,25,27)
InChIKey=LWYUNBZTAHQMJI-UHFFFAOYSA-N

> <PUBCHEM_SUBSTANCE_SYNONYM>
SCHEMBL16109228

> <PUBCHEM_XREF_EXT_ID>
SCHEMBL16109228

> <PUBCHEM_EXT_DATASOURCE_URL>
https://www.surechembl.org/

> <PUBCHEM_EXT_SUBSTANCE_URL>
https://www.surechembl.org/chemical/SCHEMBL16109228

> <PUBCHEM_CID_ASSOCIATIONS>
117600550  1

> <PUBCHEM_COORDINATE_TYPE>
1
3

$$$$
