310937048
  -OEChem-07211613022D

 23 25  0     1  0  0  0  0  0999 V2000
    2.1291   -2.8743    0.0000 O   0  0  0  0  0  0  0  0  0  0  0  0
    0.6920   -0.3992    0.0000 N   0  0  0  0  0  0  0  0  0  0  0  0
    1.4105   -2.4484    0.0000 C   0  0  0  0  0  0  0  0  0  0  0  0
    0.7186   -3.6727    0.0000 C   0  0  0  0  0  0  0  0  0  0  0  0
    1.4105   -1.6501    0.0000 C   0  0  3  0  0  0  0  0  0  0  0  0
    1.4105   -4.0719    0.0000 C   0  0  0  0  0  0  0  0  0  0  0  0
    0.6920   -2.8743    0.0000 C   0  0  0  0  0  0  0  0  0  0  0  0
    2.8211   -1.6501    0.0000 C   0  0  0  0  0  0  0  0  0  0  0  0
    2.1291   -1.2243    0.0000 C   0  0  0  0  0  0  0  0  0  0  0  0
    2.2888   -3.0340    0.0000 C   0  0  0  0  0  0  0  0  0  0  0  0
    2.2888   -3.8590    0.0000 C   0  0  0  0  0  0  0  0  0  0  0  0
    2.8477   -2.4484    0.0000 C   0  0  0  0  0  0  0  0  0  0  0  0
    0.0000   -4.0985    0.0000 C   0  0  0  0  0  0  0  0  0  0  0  0
    1.4105   -4.8969    0.0000 C   0  0  0  0  0  0  0  0  0  0  0  0
    0.6920   -1.2243    0.0000 C   0  0  0  0  0  0  0  0  0  0  0  0
    3.5397   -1.2243    0.0000 C   0  0  0  0  0  0  0  0  0  0  0  0
    3.5397   -2.8477    0.0000 C   0  0  0  0  0  0  0  0  0  0  0  0
    0.0000   -4.9236    0.0000 C   0  0  0  0  0  0  0  0  0  0  0  0
    0.7186   -5.3228    0.0000 C   0  0  0  0  0  0  0  0  0  0  0  0
    4.2582   -1.6234    0.0000 C   0  0  0  0  0  0  0  0  0  0  0  0
    4.2582   -2.4484    0.0000 C   0  0  0  0  0  0  0  0  0  0  0  0
    2.1291   -3.6727    0.0000 C   0  0  0  0  0  0  0  0  0  0  0  0
    0.0000    0.0000    0.0000 C   0  0  0  0  0  0  0  0  0  0  0  0
  1 12  1  0  0  0  0
  1 22  1  0  0  0  0
  2 15  1  0  0  0  0
  2 23  1  0  0  0  0
  3  5  1  0  0  0  0
  3  7  2  0  0  0  0
  3 10  1  0  0  0  0
  4  6  2  0  0  0  0
  4  7  1  0  0  0  0
  4 13  1  0  0  0  0
  5  9  1  0  0  0  0
  5 15  1  1  0  0  0
  6 11  1  0  0  0  0
  6 14  1  0  0  0  0
  8  9  1  0  0  0  0
  8 12  1  0  0  0  0
  8 16  2  0  0  0  0
 10 11  2  0  0  0  0
 12 17  2  0  0  0  0
 13 18  2  0  0  0  0
 14 19  2  0  0  0  0
 16 20  1  0  0  0  0
 17 21  1  0  0  0  0
 18 19  1  0  0  0  0
 20 21  2  0  0  0  0
M  END
> <PUBCHEM_COMPOUND_ID_TYPE>
0

> <PUBCHEM_TOTAL_CHARGE>
0

> <PUBCHEM_SUBSTANCE_ID>
310937048

> <PUBCHEM_SUBSTANCE_VERSION>
1

> <PUBCHEM_EXT_DATASOURCE_NAME>
4488

> <PUBCHEM_EXT_DATASOURCE_REGID>
SCHEMBL16114758

> <PUBCHEM_SUBSTANCE_COMMENT>
InChI=1S/C21H23NO/c1-22-15-20(14-19-9-5-6-10-21(19)23-2)18-12-11-16-7-3-4-8-17(16)13-18/h3-13,20,22H,14-15H2,1-2H3/t20-/m1/s1
InChIKey=MRAZBVXMLFFLEZ-HXUWFJFHSA-N

> <PUBCHEM_SUBSTANCE_SYNONYM>
SCHEMBL16114758

> <PUBCHEM_XREF_EXT_ID>
SCHEMBL16114758

> <PUBCHEM_EXT_DATASOURCE_URL>
https://www.surechembl.org/

> <PUBCHEM_EXT_SUBSTANCE_URL>
https://www.surechembl.org/chemical/SCHEMBL16114758

> <PUBCHEM_CID_ASSOCIATIONS>
117604894  1

> <PUBCHEM_COORDINATE_TYPE>
1
3

> <PUBCHEM_BONDANNOTATIONS>
5  15  5

$$$$
