310945344
  -OEChem-07211613022D

 22 24  0     0  0  0  0  0  0999 V2000
   -0.0279    1.2061    0.0000 F   0  0  0  0  0  0  0  0  0  0  0  0
    0.6972    1.6243    0.0000 F   0  0  0  0  0  0  0  0  0  0  0  0
    1.4083    1.2061    0.0000 F   0  0  0  0  0  0  0  0  0  0  0  0
    1.4083   -0.4810    0.0000 N   0  0  0  0  0  0  0  0  0  0  0  0
    0.6692   -1.7359    0.0000 N   0  0  0  0  0  0  0  0  0  0  0  0
   -0.7669   -0.0488    0.0000 N   0  0  0  0  0  0  0  0  0  0  0  0
   -0.7808   -1.7359    0.0000 N   0  0  0  0  0  0  0  0  0  0  0  0
   -0.7529    0.7878    0.0000 N   0  0  0  0  0  0  0  0  0  0  0  0
    0.6692   -0.0627    0.0000 C   0  0  0  0  0  0  0  0  0  0  0  0
   -0.0418   -0.4671    0.0000 C   0  0  0  0  0  0  0  0  0  0  0  0
    1.3804   -1.3176    0.0000 C   0  0  0  0  0  0  0  0  0  0  0  0
    0.6832    0.8017    0.0000 C   0  0  0  0  0  0  0  0  0  0  0  0
   -0.0697   -1.3176    0.0000 C   0  0  0  0  0  0  0  0  0  0  0  0
    2.1472   -1.7916    0.0000 C   0  0  0  0  0  0  0  0  0  0  0  0
    2.9420   -1.7777    0.0000 C   0  0  0  0  0  0  0  0  0  0  0  0
    2.5237   -2.4749    0.0000 C   0  0  0  0  0  0  0  0  0  0  0  0
   -1.5059    1.2340    0.0000 C   0  0  0  0  0  0  0  0  0  0  0  0
   -1.4780    2.0566    0.0000 C   0  0  0  0  0  0  0  0  0  0  0  0
   -2.2169    0.8157    0.0000 C   0  0  0  0  0  0  0  0  0  0  0  0
   -2.1891    2.4749    0.0000 C   0  0  0  0  0  0  0  0  0  0  0  0
   -2.9420    1.2340    0.0000 C   0  0  0  0  0  0  0  0  0  0  0  0
   -2.9280    2.0566    0.0000 C   0  0  0  0  0  0  0  0  0  0  0  0
  1 12  1  0  0  0  0
  2 12  1  0  0  0  0
  3 12  1  0  0  0  0
  4  9  2  0  0  0  0
  4 11  1  0  0  0  0
  5 11  2  0  0  0  0
  5 13  1  0  0  0  0
  6  8  2  0  0  0  0
  6 10  1  0  0  0  0
  7 13  1  0  0  0  0
  8 17  1  0  0  0  0
  9 10  1  0  0  0  0
  9 12  1  0  0  0  0
 10 13  2  0  0  0  0
 11 14  1  0  0  0  0
 14 15  1  0  0  0  0
 14 16  1  0  0  0  0
 15 16  1  0  0  0  0
 17 18  2  0  0  0  0
 17 19  1  0  0  0  0
 18 20  1  0  0  0  0
 19 21  2  0  0  0  0
 20 22  2  0  0  0  0
 21 22  1  0  0  0  0
M  END
> <PUBCHEM_COMPOUND_ID_TYPE>
0

> <PUBCHEM_TOTAL_CHARGE>
0

> <PUBCHEM_SUBSTANCE_ID>
310945344

> <PUBCHEM_SUBSTANCE_VERSION>
1

> <PUBCHEM_EXT_DATASOURCE_NAME>
4488

> <PUBCHEM_EXT_DATASOURCE_REGID>
SCHEMBL16123442

> <PUBCHEM_SUBSTANCE_COMMENT>
InChI=1S/C14H12F3N5/c15-14(16,17)11-10(22-21-9-4-2-1-3-5-9)12(18)20-13(19-11)8-6-7-8/h1-5,8H,6-7H2,(H2,18,19,20)/b22-21+
InChIKey=GZFZGTGDOHRFKA-QURGRASLSA-N

> <PUBCHEM_SUBSTANCE_SYNONYM>
SCHEMBL16123442

> <PUBCHEM_XREF_EXT_ID>
SCHEMBL16123442

> <PUBCHEM_EXT_DATASOURCE_URL>
https://www.surechembl.org/

> <PUBCHEM_EXT_SUBSTANCE_URL>
https://www.surechembl.org/chemical/SCHEMBL16123442

> <PUBCHEM_CID_ASSOCIATIONS>
117611403  1

> <PUBCHEM_COORDINATE_TYPE>
1
3

$$$$
