310945875
  -OEChem-07211613022D

 44 48  0     1  0  0  0  0  0999 V2000
   -3.9131    0.1650    0.0000 S   0  0  0  0  0  0  0  0  0  0  0  0
    6.1603   -1.0293    0.0000 O   0  0  0  0  0  0  0  0  0  0  0  0
    5.0288    0.9507    0.0000 O   0  0  0  0  0  0  0  0  0  0  0  0
    2.6402   -1.0136    0.0000 O   0  0  0  0  0  0  0  0  0  0  0  0
    0.4715    1.0765    0.0000 O   0  0  0  0  0  0  0  0  0  0  0  0
   -1.6972   -1.0136    0.0000 O   0  0  0  0  0  0  0  0  0  0  0  0
    4.8088    2.7580    0.0000 O   0  0  0  0  0  0  0  0  0  0  0  0
    3.3630    0.2436    0.0000 N   0  0  0  0  0  0  0  0  0  0  0  0
   -5.3117   -0.3693    0.0000 N   0  0  0  0  0  0  0  0  0  0  0  0
    1.1943   -0.1807    0.0000 N   0  0  0  0  0  0  0  0  0  0  0  0
   -4.0545   -1.1865    0.0000 N   0  0  0  0  0  0  0  0  0  0  0  0
   -0.9901    0.2436    0.0000 N   0  0  0  0  0  0  0  0  0  0  0  0
    5.7517   -0.2750    0.0000 C   0  0  3  0  0  0  0  0  0  0  0  0
    4.9502    0.1178    0.0000 C   0  0  0  0  0  0  0  0  0  0  0  0
    5.3431   -0.9822    0.0000 C   0  0  0  0  0  0  0  0  0  0  0  0
    4.3216   -0.2750    0.0000 C   0  0  3  0  0  0  0  0  0  0  0  0
    6.4588    0.1493    0.0000 C   0  0  0  0  0  0  0  0  0  0  0  0
    4.2902   -1.3593    0.0000 C   0  0  0  0  0  0  0  0  0  0  0  0
    2.6402   -0.1178    0.0000 C   0  0  0  0  0  0  0  0  0  0  0  0
    1.9172    0.2750    0.0000 C   0  0  3  0  0  0  0  0  0  0  0  0
    3.5830   -1.7836    0.0000 C   0  0  0  0  0  0  0  0  0  0  0  0
   -4.4631   -0.4321    0.0000 C   0  0  0  0  0  0  0  0  0  0  0  0
   -3.1430   -0.1493    0.0000 C   0  0  0  0  0  0  0  0  0  0  0  0
    1.9329    1.1079    0.0000 C   0  0  0  0  0  0  0  0  0  0  0  0
    0.4715    0.2593    0.0000 C   0  0  0  0  0  0  0  0  0  0  0  0
    2.8130   -1.4536    0.0000 C   0  0  0  0  0  0  0  0  0  0  0  0
    3.4888   -2.6008    0.0000 C   0  0  0  0  0  0  0  0  0  0  0  0
   -3.2373   -0.9822    0.0000 C   0  0  0  0  0  0  0  0  0  0  0  0
    2.6402    1.5322    0.0000 C   0  0  0  0  0  0  0  0  0  0  0  0
   -5.8303    0.3065    0.0000 C   0  0  0  0  0  0  0  0  0  0  0  0
   -5.9246   -0.8564    0.0000 C   0  0  0  0  0  0  0  0  0  0  0  0
   -0.2357   -0.1493    0.0000 C   0  0  3  0  0  0  0  0  0  0  0  0
   -2.4358    0.2593    0.0000 C   0  0  0  0  0  0  0  0  0  0  0  0
   -1.6972   -0.1336    0.0000 C   0  0  0  0  0  0  0  0  0  0  0  0
   -6.4588   -0.2279    0.0000 C   0  0  0  0  0  0  0  0  0  0  0  0
    2.2787   -2.0822    0.0000 C   0  0  0  0  0  0  0  0  0  0  0  0
    2.6873   -2.7737    0.0000 C   0  0  0  0  0  0  0  0  0  0  0  0
    3.3630    1.1236    0.0000 C   0  0  0  0  0  0  0  0  0  0  0  0
    2.6716    2.3809    0.0000 C   0  0  0  0  0  0  0  0  0  0  0  0
    4.1016    2.3651    0.0000 C   0  0  0  0  0  0  0  0  0  0  0  0
    4.0859    1.5322    0.0000 C   0  0  0  0  0  0  0  0  0  0  0  0
    3.3473    2.7737    0.0000 C   0  0  0  0  0  0  0  0  0  0  0  0
   -0.2514   -0.9665    0.0000 C   0  0  0  0  0  0  0  0  0  0  0  0
    5.5474    2.3494    0.0000 C   0  0  0  0  0  0  0  0  0  0  0  0
  1 22  1  0  0  0  0
  1 23  1  0  0  0  0
  2 13  1  0  0  0  0
  2 15  1  0  0  0  0
  3 14  2  0  0  0  0
  4 19  2  0  0  0  0
  5 25  2  0  0  0  0
  6 34  2  0  0  0  0
  7 40  1  0  0  0  0
  7 44  1  0  0  0  0
 16  8  1  6  0  0  0
  8 19  1  0  0  0  0
  9 22  1  0  0  0  0
  9 30  1  0  0  0  0
  9 31  1  0  0  0  0
 20 10  1  1  0  0  0
 10 25  1  0  0  0  0
 11 22  2  0  0  0  0
 11 28  1  0  0  0  0
 12 32  1  0  0  0  0
 12 34  1  0  0  0  0
 13 14  1  6  0  0  0
 13 15  1  0  0  0  0
 13 17  1  1  0  0  0
 14 16  1  0  0  0  0
 16 18  1  0  0  0  0
 18 21  1  0  0  0  0
 19 20  1  0  0  0  0
 20 24  1  0  0  0  0
 21 26  2  0  0  0  0
 21 27  1  0  0  0  0
 23 28  2  0  0  0  0
 23 33  1  0  0  0  0
 24 29  1  0  0  0  0
 25 32  1  0  0  0  0
 26 36  1  0  0  0  0
 27 37  1  0  0  0  0
 29 38  2  0  0  0  0
 29 39  1  0  0  0  0
 30 35  1  0  0  0  0
 31 35  1  0  0  0  0
 32 43  1  6  0  0  0
 33 34  1  0  0  0  0
 36 37  1  0  0  0  0
 38 41  1  0  0  0  0
 39 42  2  0  0  0  0
 40 41  2  0  0  0  0
 40 42  1  0  0  0  0
M  END
> <PUBCHEM_COMPOUND_ID_TYPE>
0

> <PUBCHEM_TOTAL_CHARGE>
0

> <PUBCHEM_SUBSTANCE_ID>
310945875

> <PUBCHEM_SUBSTANCE_VERSION>
1

> <PUBCHEM_EXT_DATASOURCE_NAME>
4488

> <PUBCHEM_EXT_DATASOURCE_REGID>
SCHEMBL16123980

> <PUBCHEM_SUBSTANCE_COMMENT>
InChI=1S/C32H41N5O6S/c1-20(34-27(38)17-24-18-33-31(44-24)37-13-6-14-37)29(40)36-26(16-22-9-11-23(42-3)12-10-22)30(41)35-25(15-21-7-4-5-8-21)28(39)32(2)19-43-32/h7,9-12,18,20,25-26H,4-6,8,13-17,19H2,1-3H3,(H,34,38)(H,35,41)(H,36,40)/t20-,25-,26-,32+/m0/s1
InChIKey=JZDOCSUIRSGTGS-DTERDCDSSA-N

> <PUBCHEM_SUBSTANCE_SYNONYM>
SCHEMBL16123980

> <PUBCHEM_XREF_EXT_ID>
SCHEMBL16123980

> <PUBCHEM_EXT_DATASOURCE_URL>
https://www.surechembl.org/

> <PUBCHEM_EXT_SUBSTANCE_URL>
https://www.surechembl.org/chemical/SCHEMBL16123980

> <PUBCHEM_CID_ASSOCIATIONS>
117611859  1

> <PUBCHEM_COORDINATE_TYPE>
1
3

> <PUBCHEM_BONDANNOTATIONS>
20  10  5
13  14  6
13  17  5
32  43  6
16  8  6

$$$$
