310931764
  -OEChem-07211613022D

 33 36  0     0  0  0  0  0  0999 V2000
    3.5870   -3.7305    0.0000 Cl  0  0  0  0  0  0  0  0  0  0  0  0
    0.0000   -0.8250    0.0000 Cl  0  0  0  0  0  0  0  0  0  0  0  0
    4.3044   -0.8250    0.0000 O   0  0  0  0  0  0  0  0  0  0  0  0
    6.4566   -1.2554    0.0000 O   0  0  0  0  0  0  0  0  0  0  0  0
    3.5870   -2.0804    0.0000 N   0  0  0  0  0  0  0  0  0  0  0  0
    2.8696   -0.8250    0.0000 N   0  0  0  0  0  0  0  0  0  0  0  0
    1.4348   -0.8250    0.0000 N   0  0  0  0  0  0  0  0  0  0  0  0
    0.7174   -2.0804    0.0000 N   0  0  0  0  0  0  0  0  0  0  0  0
    7.1740   -2.4750    0.0000 N   0  0  0  0  0  0  0  0  0  0  0  0
    2.1522   -1.2554    0.0000 C   0  0  0  0  0  0  0  0  0  0  0  0
    3.5870   -1.2554    0.0000 C   0  0  0  0  0  0  0  0  0  0  0  0
    4.3044   -2.4750    0.0000 C   0  0  0  0  0  0  0  0  0  0  0  0
    2.1522   -2.0804    0.0000 C   0  0  0  0  0  0  0  0  0  0  0  0
    2.8696   -2.4750    0.0000 C   0  0  0  0  0  0  0  0  0  0  0  0
    4.3044   -3.3000    0.0000 C   0  0  0  0  0  0  0  0  0  0  0  0
    5.0218   -2.0804    0.0000 C   0  0  0  0  0  0  0  0  0  0  0  0
    5.7392   -2.4750    0.0000 C   0  0  0  0  0  0  0  0  0  0  0  0
    1.4348   -2.4750    0.0000 C   0  0  0  0  0  0  0  0  0  0  0  0
    0.7174   -1.2554    0.0000 C   0  0  0  0  0  0  0  0  0  0  0  0
    5.0218   -3.7305    0.0000 C   0  0  0  0  0  0  0  0  0  0  0  0
    6.4566   -2.0804    0.0000 C   0  0  0  0  0  0  0  0  0  0  0  0
    5.7392   -3.3000    0.0000 C   0  0  0  0  0  0  0  0  0  0  0  0
    2.8696    0.0000    0.0000 C   0  0  0  0  0  0  0  0  0  0  0  0
    7.8914   -2.0804    0.0000 C   0  0  0  0  0  0  0  0  0  0  0  0
    9.3262   -2.0804    0.0000 C   0  0  0  0  0  0  0  0  0  0  0  0
    8.6087   -2.4750    0.0000 C   0  0  0  0  0  0  0  0  0  0  0  0
   10.0436   -2.4750    0.0000 C   0  0  0  0  0  0  0  0  0  0  0  0
    7.9272   -1.2196    0.0000 C   0  0  0  0  0  0  0  0  0  0  0  0
    9.3262   -1.2554    0.0000 C   0  0  0  0  0  0  0  0  0  0  0  0
    8.6087   -0.8250    0.0000 C   0  0  0  0  0  0  0  0  0  0  0  0
    9.6131   -3.2283    0.0000 C   0  0  0  0  0  0  0  0  0  0  0  0
   10.7610   -2.9054    0.0000 C   0  0  0  0  0  0  0  0  0  0  0  0
   10.4740   -1.7935    0.0000 C   0  0  0  0  0  0  0  0  0  0  0  0
  1 15  1  0  0  0  0
  2 19  1  0  0  0  0
  3 11  2  0  0  0  0
  4 21  2  0  0  0  0
  5 11  1  0  0  0  0
  5 12  1  0  0  0  0
  5 14  1  0  0  0  0
  6 10  1  0  0  0  0
  6 11  1  0  0  0  0
  6 23  1  0  0  0  0
  7 10  2  0  0  0  0
  7 19  1  0  0  0  0
  8 18  1  0  0  0  0
  8 19  2  0  0  0  0
  9 21  1  0  0  0  0
  9 24  1  0  0  0  0
 10 13  1  0  0  0  0
 12 15  2  0  0  0  0
 12 16  1  0  0  0  0
 13 14  1  0  0  0  0
 13 18  2  0  0  0  0
 15 20  1  0  0  0  0
 16 17  2  0  0  0  0
 17 21  1  0  0  0  0
 17 22  1  0  0  0  0
 20 22  2  0  0  0  0
 24 26  1  0  0  0  0
 24 28  2  0  0  0  0
 25 26  2  0  0  0  0
 25 27  1  0  0  0  0
 25 29  1  0  0  0  0
 27 31  1  0  0  0  0
 27 32  1  0  0  0  0
 27 33  1  0  0  0  0
 28 30  1  0  0  0  0
 29 30  2  0  0  0  0
M  END
> <PUBCHEM_COMPOUND_ID_TYPE>
0

> <PUBCHEM_TOTAL_CHARGE>
0

> <PUBCHEM_SUBSTANCE_ID>
310931764

> <PUBCHEM_SUBSTANCE_VERSION>
1

> <PUBCHEM_EXT_DATASOURCE_NAME>
4488

> <PUBCHEM_EXT_DATASOURCE_REGID>
SCHEMBL16109093

> <PUBCHEM_SUBSTANCE_COMMENT>
InChI=1S/C24H23Cl2N5O2/c1-24(2,3)16-6-5-7-17(11-16)28-21(32)14-8-9-18(25)19(10-14)31-13-15-12-27-22(26)29-20(15)30(4)23(31)33/h5-12H,13H2,1-4H3,(H,28,32)
InChIKey=WJXWMJZEOLQVNO-UHFFFAOYSA-N

> <PUBCHEM_SUBSTANCE_SYNONYM>
SCHEMBL16109093

> <PUBCHEM_XREF_EXT_ID>
SCHEMBL16109093

> <PUBCHEM_EXT_DATASOURCE_URL>
https://www.surechembl.org/

> <PUBCHEM_EXT_SUBSTANCE_URL>
https://www.surechembl.org/chemical/SCHEMBL16109093

> <PUBCHEM_CID_ASSOCIATIONS>
117600451  1

> <PUBCHEM_COORDINATE_TYPE>
1
3

$$$$
