310933044
  -OEChem-07211613022D

 33 37  0     0  0  0  0  0  0999 V2000
    7.9318   -1.4677    0.0000 F   0  0  0  0  0  0  0  0  0  0  0  0
    5.5585   -2.8105    0.0000 O   0  0  0  0  0  0  0  0  0  0  0  0
    1.4677   -4.5280    0.0000 O   0  0  0  0  0  0  0  0  0  0  0  0
    5.1838   -4.2157    0.0000 N   0  0  0  0  0  0  0  0  0  0  0  0
    5.5898   -4.9340    0.0000 N   0  0  0  0  0  0  0  0  0  0  0  0
    3.9035   -4.7778    0.0000 N   0  0  0  0  0  0  0  0  0  0  0  0
    1.6238   -3.0916    0.0000 N   0  0  0  0  0  0  0  0  0  0  0  0
    0.9681   -1.5926    0.0000 N   0  0  0  0  0  0  0  0  0  0  0  0
    9.3683   -1.4677    0.0000 N   0  0  0  0  0  0  0  0  0  0  0  0
    6.4954   -3.9347    0.0000 C   0  0  0  0  0  0  0  0  0  0  0  0
    5.7459   -3.5912    0.0000 C   0  0  0  0  0  0  0  0  0  0  0  0
    7.2136   -3.5288    0.0000 C   0  0  0  0  0  0  0  0  0  0  0  0
    4.3719   -4.1221    0.0000 C   0  0  0  0  0  0  0  0  0  0  0  0
    7.2136   -2.6856    0.0000 C   0  0  0  0  0  0  0  0  0  0  0  0
    6.4017   -4.7466    0.0000 C   0  0  0  0  0  0  0  0  0  0  0  0
    7.9318   -2.2796    0.0000 C   0  0  0  0  0  0  0  0  0  0  0  0
    7.9318   -3.9347    0.0000 C   0  0  0  0  0  0  0  0  0  0  0  0
    2.7480   -3.9347    0.0000 C   0  0  0  0  0  0  0  0  0  0  0  0
    8.6501   -2.6856    0.0000 C   0  0  0  0  0  0  0  0  0  0  0  0
    4.0596   -3.3414    0.0000 C   0  0  0  0  0  0  0  0  0  0  0  0
    1.9361   -3.8410    0.0000 C   0  0  0  0  0  0  0  0  0  0  0  0
    8.6501   -3.5288    0.0000 C   0  0  0  0  0  0  0  0  0  0  0  0
    3.0916   -4.7154    0.0000 C   0  0  0  0  0  0  0  0  0  0  0  0
    3.2165   -3.2789    0.0000 C   0  0  0  0  0  0  0  0  0  0  0  0
    0.6246   -0.8432    0.0000 C   0  0  0  0  0  0  0  0  0  0  0  0
    2.1235   -2.4358    0.0000 C   0  0  0  0  0  0  0  0  0  0  0  0
    0.8120   -2.9979    0.0000 C   0  0  0  0  0  0  0  0  0  0  0  0
    6.4954   -2.2796    0.0000 C   0  0  0  0  0  0  0  0  0  0  0  0
    0.4684   -2.2484    0.0000 C   0  0  0  0  0  0  0  0  0  0  0  0
    1.7800   -1.6863    0.0000 C   0  0  0  0  0  0  0  0  0  0  0  0
    0.0000   -0.3435    0.0000 C   0  0  0  0  0  0  0  0  0  0  0  0
    0.7183    0.0000    0.0000 C   0  0  0  0  0  0  0  0  0  0  0  0
    9.3683   -2.2796    0.0000 C   0  0  0  0  0  0  0  0  0  0  0  0
  1 16  1  0  0  0  0
  2 11  1  0  0  0  0
  3 21  2  0  0  0  0
  4  5  1  0  0  0  0
  4 11  1  0  0  0  0
  4 13  1  0  0  0  0
  5 15  2  0  0  0  0
  6 13  1  0  0  0  0
  6 23  2  0  0  0  0
  7 21  1  0  0  0  0
  7 26  1  0  0  0  0
  7 27  1  0  0  0  0
  8 25  1  0  0  0  0
  8 29  1  0  0  0  0
  8 30  1  0  0  0  0
  9 33  3  0  0  0  0
 10 11  2  0  0  0  0
 10 12  1  0  0  0  0
 10 15  1  0  0  0  0
 12 14  2  0  0  0  0
 12 17  1  0  0  0  0
 13 20  2  0  0  0  0
 14 16  1  0  0  0  0
 14 28  1  0  0  0  0
 16 19  2  0  0  0  0
 17 22  2  0  0  0  0
 18 21  1  0  0  0  0
 18 23  1  0  0  0  0
 18 24  2  0  0  0  0
 19 22  1  0  0  0  0
 19 33  1  0  0  0  0
 20 24  1  0  0  0  0
 25 31  1  0  0  0  0
 25 32  1  0  0  0  0
 26 30  1  0  0  0  0
 27 29  1  0  0  0  0
 31 32  1  0  0  0  0
M  END
> <PUBCHEM_COMPOUND_ID_TYPE>
0

> <PUBCHEM_TOTAL_CHARGE>
0

> <PUBCHEM_SUBSTANCE_ID>
310933044

> <PUBCHEM_SUBSTANCE_VERSION>
1

> <PUBCHEM_EXT_DATASOURCE_NAME>
4488

> <PUBCHEM_EXT_DATASOURCE_REGID>
SCHEMBL16110445

> <PUBCHEM_SUBSTANCE_COMMENT>
InChI=1S/C24H23FN6O2/c1-15-19(6-2-16(12-26)22(15)25)20-14-28-31(24(20)33)21-7-3-17(13-27-21)23(32)30-10-8-29(9-11-30)18-4-5-18/h2-3,6-7,13-14,18,33H,4-5,8-11H2,1H3
InChIKey=JFQJPHFAUYJAKN-UHFFFAOYSA-N

> <PUBCHEM_SUBSTANCE_SYNONYM>
SCHEMBL16110445

> <PUBCHEM_XREF_EXT_ID>
SCHEMBL16110445

> <PUBCHEM_EXT_DATASOURCE_URL>
https://www.surechembl.org/

> <PUBCHEM_EXT_SUBSTANCE_URL>
https://www.surechembl.org/chemical/SCHEMBL16110445

> <PUBCHEM_CID_ASSOCIATIONS>
117601506  1

> <PUBCHEM_COORDINATE_TYPE>
1
3

$$$$
