310942269
  -OEChem-07211613022D

 21 22  0     1  0  0  0  0  0999 V2000
    0.3562    1.4561    0.0000 Cl  0  0  0  0  0  0  0  0  0  0  0  0
    3.2434   -0.2062    0.0000 Cl  0  0  0  0  0  0  0  0  0  0  0  0
   -1.0811   -1.0311    0.0000 F   0  0  0  0  0  0  0  0  0  0  0  0
    0.3562   -0.2062    0.0000 O   0  0  0  0  0  0  0  0  0  0  0  0
   -3.2434    0.2062    0.0000 N   0  0  0  0  0  0  0  0  0  0  0  0
   -0.3687    0.2187    0.0000 C   0  0  0  0  0  0  0  0  0  0  0  0
   -1.0936   -0.1937    0.0000 C   0  0  0  0  0  0  0  0  0  0  0  0
   -1.8060    0.2187    0.0000 C   0  0  0  0  0  0  0  0  0  0  0  0
   -0.3562    1.0561    0.0000 C   0  0  0  0  0  0  0  0  0  0  0  0
    1.0811    0.2187    0.0000 C   0  0  0  0  0  0  0  0  0  0  0  0
   -1.7935    1.0436    0.0000 C   0  0  0  0  0  0  0  0  0  0  0  0
   -2.5184   -0.1937    0.0000 C   0  0  3  0  0  0  0  0  0  0  0  0
   -1.0686    1.4561    0.0000 C   0  0  0  0  0  0  0  0  0  0  0  0
    1.8185   -0.1937    0.0000 C   0  0  0  0  0  0  0  0  0  0  0  0
    2.5184    0.2187    0.0000 C   0  0  0  0  0  0  0  0  0  0  0  0
    1.0936    1.0436    0.0000 C   0  0  0  0  0  0  0  0  0  0  0  0
    2.5310    1.0561    0.0000 C   0  0  0  0  0  0  0  0  0  0  0  0
    1.8185    1.4561    0.0000 C   0  0  0  0  0  0  0  0  0  0  0  0
   -2.5310   -1.0436    0.0000 C   0  0  0  0  0  0  0  0  0  0  0  0
    3.0559    1.3561    0.0000 C   0  0  0  0  0  0  0  0  0  0  0  0
   -3.2184   -1.4561    0.0000 C   0  0  0  0  0  0  0  0  0  0  0  0
  1  9  1  0  0  0  0
  2 15  1  0  0  0  0
  3  7  1  0  0  0  0
  4  6  1  0  0  0  0
  4 10  1  0  0  0  0
 12  5  1  1  0  0  0
  6  7  1  0  0  0  0
  6  9  2  0  0  0  0
  7  8  2  0  0  0  0
  8 11  1  0  0  0  0
  8 12  1  0  0  0  0
  9 13  1  0  0  0  0
 10 14  1  0  0  0  0
 10 16  2  0  0  0  0
 11 13  2  0  0  0  0
 12 19  1  0  0  0  0
 14 15  2  0  0  0  0
 15 17  1  0  0  0  0
 16 18  1  0  0  0  0
 17 18  2  0  0  0  0
 17 20  1  0  0  0  0
 19 21  1  0  0  0  0
M  END
> <PUBCHEM_COMPOUND_ID_TYPE>
0

> <PUBCHEM_TOTAL_CHARGE>
0

> <PUBCHEM_SUBSTANCE_ID>
310942269

> <PUBCHEM_SUBSTANCE_VERSION>
1

> <PUBCHEM_EXT_DATASOURCE_NAME>
4488

> <PUBCHEM_EXT_DATASOURCE_REGID>
SCHEMBL16120304

> <PUBCHEM_SUBSTANCE_COMMENT>
InChI=1S/C16H16Cl2FNO/c1-3-14(20)11-6-7-12(17)16(15(11)19)21-10-5-4-9(2)13(18)8-10/h4-8,14H,3,20H2,1-2H3/t14-/m1/s1
InChIKey=GTGGDROKTDLCHS-CQSZACIVSA-N

> <PUBCHEM_SUBSTANCE_SYNONYM>
SCHEMBL16120304

> <PUBCHEM_XREF_EXT_ID>
SCHEMBL16120304

> <PUBCHEM_EXT_DATASOURCE_URL>
https://www.surechembl.org/

> <PUBCHEM_EXT_SUBSTANCE_URL>
https://www.surechembl.org/chemical/SCHEMBL16120304

> <PUBCHEM_CID_ASSOCIATIONS>
117608919  1

> <PUBCHEM_COORDINATE_TYPE>
1
3

> <PUBCHEM_BONDANNOTATIONS>
12  5  5

$$$$
