310940563
  -OEChem-07211613022D

 32 36  0     0  0  0  0  0  0999 V2000
    2.3101   -0.3475    0.0000 O   0  0  0  0  0  0  0  0  0  0  0  0
   -1.8466   -0.5247    0.0000 O   0  0  0  0  0  0  0  0  0  0  0  0
    2.4055    1.0971    0.0000 O   0  0  0  0  0  0  0  0  0  0  0  0
   -3.1278   -2.5690    0.0000 O   0  0  0  0  0  0  0  0  0  0  0  0
    3.1278   -1.7103    0.0000 O   0  0  0  0  0  0  0  0  0  0  0  0
    1.1925    0.3338    0.0000 N   0  0  0  0  0  0  0  0  0  0  0  0
    1.0290   -2.1465    0.0000 N   0  0  0  0  0  0  0  0  0  0  0  0
   -2.6644   -3.2504    0.0000 N   0  0  0  0  0  0  0  0  0  0  0  0
    0.4702    3.0596    0.0000 N   0  0  0  0  0  0  0  0  0  0  0  0
    0.9881   -0.4293    0.0000 C   0  0  0  0  0  0  0  0  0  0  0  0
    0.2794   -0.8245    0.0000 C   0  0  0  0  0  0  0  0  0  0  0  0
    1.6967   -0.8382    0.0000 C   0  0  0  0  0  0  0  0  0  0  0  0
    0.2657   -1.6831    0.0000 C   0  0  0  0  0  0  0  0  0  0  0  0
    1.6831   -1.6695    0.0000 C   0  0  0  0  0  0  0  0  0  0  0  0
   -1.1516   -1.6695    0.0000 C   0  0  0  0  0  0  0  0  0  0  0  0
    1.9420    0.4429    0.0000 C   0  0  0  0  0  0  0  0  0  0  0  0
   -0.4293   -0.4429    0.0000 C   0  0  0  0  0  0  0  0  0  0  0  0
   -1.1380   -0.8518    0.0000 C   0  0  0  0  0  0  0  0  0  0  0  0
   -0.4293   -2.0647    0.0000 C   0  0  0  0  0  0  0  0  0  0  0  0
   -1.8602   -2.0919    0.0000 C   0  0  0  0  0  0  0  0  0  0  0  0
    0.6064    0.9472    0.0000 C   0  0  0  0  0  0  0  0  0  0  0  0
   -2.6508   -1.8194    0.0000 C   0  0  0  0  0  0  0  0  0  0  0  0
   -1.8739   -2.9233    0.0000 C   0  0  0  0  0  0  0  0  0  0  0  0
    2.4191   -2.0783    0.0000 C   0  0  0  0  0  0  0  0  0  0  0  0
    0.7973    1.7649    0.0000 C   0  0  0  0  0  0  0  0  0  0  0  0
   -2.8960   -1.0154    0.0000 C   0  0  0  0  0  0  0  0  0  0  0  0
   -1.1380   -3.3458    0.0000 C   0  0  0  0  0  0  0  0  0  0  0  0
    0.2385    2.3237    0.0000 C   0  0  0  0  0  0  0  0  0  0  0  0
    1.6014    1.9829    0.0000 C   0  0  0  0  0  0  0  0  0  0  0  0
   -1.8602    0.4020    0.0000 C   0  0  0  0  0  0  0  0  0  0  0  0
    1.8058    2.7734    0.0000 C   0  0  0  0  0  0  0  0  0  0  0  0
    1.2061    3.3458    0.0000 C   0  0  0  0  0  0  0  0  0  0  0  0
  1 12  1  0  0  0  0
  1 16  1  0  0  0  0
  2 18  1  0  0  0  0
  2 30  1  0  0  0  0
  3 16  2  0  0  0  0
  4  8  1  0  0  0  0
  4 22  1  0  0  0  0
  5 24  1  0  0  0  0
  6 10  1  0  0  0  0
  6 16  1  0  0  0  0
  6 21  1  0  0  0  0
  7 13  1  0  0  0  0
  7 14  2  0  0  0  0
  8 23  2  0  0  0  0
  9 28  1  0  0  0  0
  9 32  2  0  0  0  0
 10 11  1  0  0  0  0
 10 12  2  0  0  0  0
 11 13  2  0  0  0  0
 11 17  1  0  0  0  0
 12 14  1  0  0  0  0
 13 19  1  0  0  0  0
 14 24  1  0  0  0  0
 15 18  1  0  0  0  0
 15 19  2  0  0  0  0
 15 20  1  0  0  0  0
 17 18  2  0  0  0  0
 20 22  2  0  0  0  0
 20 23  1  0  0  0  0
 21 25  1  0  0  0  0
 22 26  1  0  0  0  0
 23 27  1  0  0  0  0
 25 28  2  0  0  0  0
 25 29  1  0  0  0  0
 29 31  2  0  0  0  0
 31 32  1  0  0  0  0
M  END
> <PUBCHEM_COMPOUND_ID_TYPE>
0

> <PUBCHEM_TOTAL_CHARGE>
0

> <PUBCHEM_SUBSTANCE_ID>
310940563

> <PUBCHEM_SUBSTANCE_VERSION>
1

> <PUBCHEM_EXT_DATASOURCE_NAME>
4488

> <PUBCHEM_EXT_DATASOURCE_REGID>
SCHEMBL16118517

> <PUBCHEM_SUBSTANCE_COMMENT>
InChI=1S/C23H20N4O5/c1-12-20(13(2)32-26-12)16-7-17-15(8-19(16)30-3)21-22(18(11-28)25-17)31-23(29)27(21)10-14-5-4-6-24-9-14/h4-9,28H,10-11H2,1-3H3
InChIKey=VCFACLLJUYUBCA-UHFFFAOYSA-N

> <PUBCHEM_SUBSTANCE_SYNONYM>
SCHEMBL16118517

> <PUBCHEM_XREF_EXT_ID>
SCHEMBL16118517

> <PUBCHEM_EXT_DATASOURCE_URL>
https://www.surechembl.org/

> <PUBCHEM_EXT_SUBSTANCE_URL>
https://www.surechembl.org/chemical/SCHEMBL16118517

> <PUBCHEM_CID_ASSOCIATIONS>
117607561  1

> <PUBCHEM_COORDINATE_TYPE>
1
3

$$$$
