310937847
  -OEChem-07211613022D

 20 22  0     0  0  0  0  0  0999 V2000
    0.6412    0.0000    0.0000 F   0  0  0  0  0  0  0  0  0  0  0  0
    0.1068   -1.3037    0.0000 F   0  0  0  0  0  0  0  0  0  0  0  0
    0.0000   -0.4916    0.0000 F   0  0  0  0  0  0  0  0  0  0  0  0
    1.6030   -1.9450    0.0000 O   0  0  0  0  0  0  0  0  0  0  0  0
    5.6852   -1.2183    0.0000 O   0  0  0  0  0  0  0  0  0  0  0  0
    3.8471   -2.9067    0.0000 N   0  0  0  0  0  0  0  0  0  0  0  0
    5.1936   -1.9022    0.0000 N   0  0  0  0  0  0  0  0  0  0  0  0
    4.4242   -0.8335    0.0000 N   0  0  0  0  0  0  0  0  0  0  0  0
    2.4365   -3.0563    0.0000 C   0  0  0  0  0  0  0  0  0  0  0  0
    2.3510   -2.2655    0.0000 C   0  0  0  0  0  0  0  0  0  0  0  0
    3.7616   -2.1159    0.0000 C   0  0  0  0  0  0  0  0  0  0  0  0
    1.7740   -3.5479    0.0000 C   0  0  0  0  0  0  0  0  0  0  0  0
    3.0136   -1.7526    0.0000 C   0  0  0  0  0  0  0  0  0  0  0  0
    4.4242   -1.6457    0.0000 C   0  0  0  0  0  0  0  0  0  0  0  0
    3.1846   -3.4196    0.0000 C   0  0  0  0  0  0  0  0  0  0  0  0
    1.4320   -4.2746    0.0000 C   0  0  0  0  0  0  0  0  0  0  0  0
    0.9404   -3.6334    0.0000 C   0  0  0  0  0  0  0  0  0  0  0  0
    0.7481   -0.8121    0.0000 C   0  0  0  0  0  0  0  0  0  0  0  0
    1.5175   -1.1328    0.0000 C   0  0  0  0  0  0  0  0  0  0  0  0
    5.1936   -0.5557    0.0000 C   0  0  0  0  0  0  0  0  0  0  0  0
  1 18  1  0  0  0  0
  2 18  1  0  0  0  0
  3 18  1  0  0  0  0
  4 10  1  0  0  0  0
  4 19  1  0  0  0  0
  5  7  1  0  0  0  0
  5 20  1  0  0  0  0
  6 11  1  0  0  0  0
  6 15  2  0  0  0  0
  7 14  2  0  0  0  0
  8 14  1  0  0  0  0
  8 20  2  0  0  0  0
  9 10  2  0  0  0  0
  9 12  1  0  0  0  0
  9 15  1  0  0  0  0
 10 13  1  0  0  0  0
 11 13  2  0  0  0  0
 11 14  1  0  0  0  0
 12 16  1  0  0  0  0
 12 17  1  0  0  0  0
 16 17  1  0  0  0  0
 18 19  1  0  0  0  0
M  END
> <PUBCHEM_COMPOUND_ID_TYPE>
0

> <PUBCHEM_TOTAL_CHARGE>
0

> <PUBCHEM_SUBSTANCE_ID>
310937847

> <PUBCHEM_SUBSTANCE_VERSION>
1

> <PUBCHEM_EXT_DATASOURCE_NAME>
4488

> <PUBCHEM_EXT_DATASOURCE_REGID>
SCHEMBL16115671

> <PUBCHEM_SUBSTANCE_COMMENT>
InChI=1S/C12H10F3N3O2/c13-12(14,15)5-19-10-3-9(11-17-6-20-18-11)16-4-8(10)7-1-2-7/h3-4,6-7H,1-2,5H2
InChIKey=DWXXOPWEWPSUAD-UHFFFAOYSA-N

> <PUBCHEM_SUBSTANCE_SYNONYM>
SCHEMBL16115671

> <PUBCHEM_XREF_EXT_ID>
SCHEMBL16115671

> <PUBCHEM_EXT_DATASOURCE_URL>
https://www.surechembl.org/

> <PUBCHEM_EXT_SUBSTANCE_URL>
https://www.surechembl.org/chemical/SCHEMBL16115671

> <PUBCHEM_CID_ASSOCIATIONS>
86275942  1

> <PUBCHEM_COORDINATE_TYPE>
1
3

$$$$
