310933954
  -OEChem-07211613022D

 24 25  0     0  0  0  0  0  0999 V2000
    2.8815   -2.9248    0.0000 O   0  0  0  0  0  0  0  0  0  0  0  0
    4.3114   -2.9248    0.0000 O   0  0  0  0  0  0  0  0  0  0  0  0
    0.0000   -2.9248    0.0000 O   0  0  0  0  0  0  0  0  0  0  0  0
    5.7630   -0.4116    0.0000 O   0  0  0  0  0  0  0  0  0  0  0  0
    3.5965   -1.6683    0.0000 O   0  0  0  0  0  0  0  0  0  0  0  0
    2.8598   -0.4333    0.0000 O   0  0  0  0  0  0  0  0  0  0  0  0
    6.4780   -4.1598    0.0000 O   0  0  0  0  0  0  0  0  0  0  0  0
    2.1449   -2.5132    0.0000 C   0  0  0  0  0  0  0  0  0  0  0  0
    5.0481   -2.5132    0.0000 C   0  0  0  0  0  0  0  0  0  0  0  0
    2.1449   -1.6683    0.0000 C   0  0  0  0  0  0  0  0  0  0  0  0
    5.7630   -2.9032    0.0000 C   0  0  0  0  0  0  0  0  0  0  0  0
    3.5965   -2.5132    0.0000 C   0  0  0  0  0  0  0  0  0  0  0  0
    1.4300   -2.9248    0.0000 C   0  0  0  0  0  0  0  0  0  0  0  0
    5.0481   -1.6683    0.0000 C   0  0  0  0  0  0  0  0  0  0  0  0
    0.7150   -2.5132    0.0000 C   0  0  0  0  0  0  0  0  0  0  0  0
    5.7630   -1.2566    0.0000 C   0  0  0  0  0  0  0  0  0  0  0  0
    1.4300   -1.2566    0.0000 C   0  0  0  0  0  0  0  0  0  0  0  0
    6.4780   -2.5132    0.0000 C   0  0  0  0  0  0  0  0  0  0  0  0
    0.7150   -1.6683    0.0000 C   0  0  0  0  0  0  0  0  0  0  0  0
    6.4997   -1.6683    0.0000 C   0  0  0  0  0  0  0  0  0  0  0  0
    2.8598   -1.2566    0.0000 C   0  0  0  0  0  0  0  0  0  0  0  0
    5.7630   -3.7481    0.0000 C   0  0  0  0  0  0  0  0  0  0  0  0
    0.0000   -3.7481    0.0000 C   0  0  0  0  0  0  0  0  0  0  0  0
    5.0481    0.0000    0.0000 C   0  0  0  0  0  0  0  0  0  0  0  0
  1  8  1  0  0  0  0
  1 12  1  0  0  0  0
  2  9  1  0  0  0  0
  2 12  1  0  0  0  0
  3 15  1  0  0  0  0
  3 23  1  0  0  0  0
  4 16  1  0  0  0  0
  4 24  1  0  0  0  0
  5 12  2  0  0  0  0
  6 21  2  0  0  0  0
  7 22  2  0  0  0  0
  8 10  1  0  0  0  0
  8 13  2  0  0  0  0
  9 11  1  0  0  0  0
  9 14  2  0  0  0  0
 10 17  2  0  0  0  0
 10 21  1  0  0  0  0
 11 18  2  0  0  0  0
 11 22  1  0  0  0  0
 13 15  1  0  0  0  0
 14 16  1  0  0  0  0
 15 19  2  0  0  0  0
 16 20  2  0  0  0  0
 17 19  1  0  0  0  0
 18 20  1  0  0  0  0
M  END
> <PUBCHEM_COMPOUND_ID_TYPE>
0

> <PUBCHEM_TOTAL_CHARGE>
0

> <PUBCHEM_SUBSTANCE_ID>
310933954

> <PUBCHEM_SUBSTANCE_VERSION>
1

> <PUBCHEM_EXT_DATASOURCE_NAME>
4488

> <PUBCHEM_EXT_DATASOURCE_REGID>
SCHEMBL16111393

> <PUBCHEM_SUBSTANCE_COMMENT>
InChI=1S/C17H14O7/c1-21-13-5-3-11(9-18)15(7-13)23-17(20)24-16-8-14(22-2)6-4-12(16)10-19/h3-10H,1-2H3
InChIKey=WPZYXMFEEBGZDM-UHFFFAOYSA-N

> <PUBCHEM_SUBSTANCE_SYNONYM>
SCHEMBL16111393

> <PUBCHEM_XREF_EXT_ID>
SCHEMBL16111393

> <PUBCHEM_EXT_DATASOURCE_URL>
https://www.surechembl.org/

> <PUBCHEM_EXT_SUBSTANCE_URL>
https://www.surechembl.org/chemical/SCHEMBL16111393

> <PUBCHEM_CID_ASSOCIATIONS>
117602271  1

> <PUBCHEM_COORDINATE_TYPE>
1
3

$$$$
