310939533
  -OEChem-07211613022D

 61 67  0     1  0  0  0  0  0999 V2000
    3.1909   -9.9008    0.0000 S   0  0  0  0  0  0  0  0  0  0  0  0
   -3.4604   -6.6305    0.0000 O   0  0  0  0  0  0  0  0  0  0  0  0
   -2.3334   -6.9324    0.0000 O   0  0  0  0  0  0  0  0  0  0  0  0
   -1.8104   -8.0594    0.0000 O   0  0  0  0  0  0  0  0  0  0  0  0
   -2.9289   -4.4236    0.0000 O   0  0  0  0  0  0  0  0  0  0  0  0
   -1.8104   -9.4883    0.0000 N   0  0  0  0  0  0  0  0  0  0  0  0
    3.1909  -10.7258    0.0000 C   0  0  0  0  0  0  0  0  0  0  0  0
   -5.5549   -6.2180    0.0000 C   0  0  3  0  0  0  0  0  0  0  0  0
   -5.5549   -7.0430    0.0000 C   0  0  3  0  0  0  0  0  0  0  0  0
   -4.7703   -5.9630    0.0000 C   0  0  3  0  0  0  0  0  0  0  0  0
   -4.2854   -6.6305    0.0000 C   0  0  3  0  0  0  0  0  0  0  0  0
    2.3659  -10.7258    0.0000 C   0  0  0  0  0  0  0  0  0  0  0  0
    4.0159  -10.7258    0.0000 C   0  0  0  0  0  0  0  0  0  0  0  0
    3.1909  -11.5508    0.0000 C   0  0  0  0  0  0  0  0  0  0  0  0
   -6.9839   -7.0430    0.0000 C   0  0  0  0  0  0  0  0  0  0  0  0
   -6.9839   -6.2180    0.0000 C   0  0  0  0  0  0  0  0  0  0  0  0
   -4.7703   -7.2979    0.0000 C   0  0  0  0  0  0  0  0  0  0  0  0
   -6.2694   -5.8055    0.0000 C   0  0  0  0  0  0  0  0  0  0  0  0
   -6.2694   -7.4555    0.0000 C   0  0  0  0  0  0  0  0  0  0  0  0
   -7.6984   -7.4555    0.0000 C   0  0  0  0  0  0  0  0  0  0  0  0
   -4.3578   -5.2486    0.0000 C   0  0  0  0  0  0  0  0  0  0  0  0
    2.4764  -11.9633    0.0000 C   0  0  0  0  0  0  0  0  0  0  0  0
    1.9534  -10.0114    0.0000 C   0  0  0  0  0  0  0  0  0  0  0  0
    4.4284  -11.4403    0.0000 C   0  0  0  0  0  0  0  0  0  0  0  0
    3.9054  -11.9633    0.0000 C   0  0  0  0  0  0  0  0  0  0  0  0
    1.9534  -11.4403    0.0000 C   0  0  0  0  0  0  0  0  0  0  0  0
    4.4284  -10.0114    0.0000 C   0  0  0  0  0  0  0  0  0  0  0  0
   -7.6984   -5.8055    0.0000 C   0  0  0  0  0  0  0  0  0  0  0  0
   -3.0479   -7.3449    0.0000 C   0  0  0  0  0  0  0  0  0  0  0  0
   -3.4604   -8.0594    0.0000 C   0  0  3  0  0  0  0  0  0  0  0  0
   -8.4128   -7.0430    0.0000 C   0  0  0  0  0  0  0  0  0  0  0  0
    2.4764   -9.4883    0.0000 C   0  0  0  0  0  0  0  0  0  0  0  0
   -8.4128   -6.2180    0.0000 C   0  0  0  0  0  0  0  0  0  0  0  0
   -3.6434   -5.6611    0.0000 C   0  0  0  0  0  0  0  0  0  0  0  0
   -3.0479   -8.7739    0.0000 C   0  0  3  0  0  0  0  0  0  0  0  0
    2.4764  -12.7883    0.0000 C   0  0  0  0  0  0  0  0  0  0  0  0
    1.1284  -10.0114    0.0000 C   0  0  0  0  0  0  0  0  0  0  0  0
    5.2534  -11.4403    0.0000 C   0  0  0  0  0  0  0  0  0  0  0  0
    3.9054  -12.7883    0.0000 C   0  0  0  0  0  0  0  0  0  0  0  0
    1.1284  -11.4403    0.0000 C   0  0  0  0  0  0  0  0  0  0  0  0
    5.2534  -10.0114    0.0000 C   0  0  0  0  0  0  0  0  0  0  0  0
   -7.6984   -8.3675    0.0000 C   0  0  0  0  0  0  0  0  0  0  0  0
    3.1909  -13.2008    0.0000 C   0  0  0  0  0  0  0  0  0  0  0  0
    0.7159  -10.7258    0.0000 C   0  0  0  0  0  0  0  0  0  0  0  0
    5.6659  -10.7258    0.0000 C   0  0  0  0  0  0  0  0  0  0  0  0
   -4.2854   -8.0594    0.0000 C   0  0  0  0  0  0  0  0  0  0  0  0
   -2.2229   -8.7739    0.0000 C   0  0  0  0  0  0  0  0  0  0  0  0
   -2.9289   -5.2486    0.0000 C   0  0  3  0  0  0  0  0  0  0  0  0
    1.7620   -9.9008    0.0000 C   0  0  0  0  0  0  0  0  0  0  0  0
   -3.4604   -9.4883    0.0000 C   0  0  0  0  0  0  0  0  0  0  0  0
   -4.6979   -8.7739    0.0000 C   0  0  0  0  0  0  0  0  0  0  0  0
   -4.2854   -9.4883    0.0000 C   0  0  0  0  0  0  0  0  0  0  0  0
    1.0475   -9.4883    0.0000 C   0  0  0  0  0  0  0  0  0  0  0  0
   -2.2144   -5.6611    0.0000 C   0  0  0  0  0  0  0  0  0  0  0  0
   -1.0959   -9.9008    0.0000 C   0  0  0  0  0  0  0  0  0  0  0  0
    0.3330   -9.9008    0.0000 C   0  0  0  0  0  0  0  0  0  0  0  0
   -0.3815   -9.4883    0.0000 C   0  0  0  0  0  0  0  0  0  0  0  0
   -1.4999   -5.2486    0.0000 C   0  0  0  0  0  0  0  0  0  0  0  0
   -0.7855   -5.6611    0.0000 C   0  0  0  0  0  0  0  0  0  0  0  0
   -0.0710   -5.2486    0.0000 C   0  0  0  0  0  0  0  0  0  0  0  0
    0.6435   -5.6611    0.0000 C   0  0  0  0  0  0  0  0  0  0  0  0
  1  7  1  0  0  0  0
  1 32  1  0  0  0  0
 11  2  1  6  0  0  0
  2 29  1  0  0  0  0
  3 29  2  0  0  0  0
  4 47  2  0  0  0  0
 48  5  1  1  0  0  0
  6 47  1  0  0  0  0
  6 55  1  0  0  0  0
  7 12  1  0  0  0  0
  7 13  1  0  0  0  0
  7 14  1  0  0  0  0
  8  9  1  0  0  0  0
  8 10  1  0  0  0  0
  8 18  1  6  0  0  0
  9 17  1  6  0  0  0
  9 19  1  0  0  0  0
 10 11  1  0  0  0  0
 10 21  1  1  0  0  0
 11 17  1  0  0  0  0
 12 23  2  0  0  0  0
 12 26  1  0  0  0  0
 13 24  2  0  0  0  0
 13 27  1  0  0  0  0
 14 22  2  0  0  0  0
 14 25  1  0  0  0  0
 15 16  2  0  0  0  0
 15 19  1  0  0  0  0
 15 20  1  0  0  0  0
 16 18  1  0  0  0  0
 16 28  1  0  0  0  0
 20 31  2  0  0  0  0
 20 42  1  0  0  0  0
 21 34  1  0  0  0  0
 22 36  1  0  0  0  0
 23 37  1  0  0  0  0
 24 38  1  0  0  0  0
 25 39  2  0  0  0  0
 26 40  2  0  0  0  0
 27 41  2  0  0  0  0
 28 33  2  0  0  0  0
 30 29  1  6  0  0  0
 30 35  1  0  0  0  0
 30 46  1  0  0  0  0
 31 33  1  0  0  0  0
 32 49  1  0  0  0  0
 34 48  1  0  0  0  0
 35 47  1  6  0  0  0
 35 50  1  0  0  0  0
 36 43  2  0  0  0  0
 37 44  2  0  0  0  0
 38 45  2  0  0  0  0
 39 43  1  0  0  0  0
 40 44  1  0  0  0  0
 41 45  1  0  0  0  0
 46 51  1  0  0  0  0
 48 54  1  0  0  0  0
 49 53  1  0  0  0  0
 50 52  1  0  0  0  0
 51 52  1  0  0  0  0
 53 56  1  0  0  0  0
 54 58  1  0  0  0  0
 55 57  1  0  0  0  0
 56 57  1  0  0  0  0
 58 59  1  0  0  0  0
 59 60  1  0  0  0  0
 60 61  1  0  0  0  0
M  END
> <PUBCHEM_COMPOUND_ID_TYPE>
0

> <PUBCHEM_TOTAL_CHARGE>
0

> <PUBCHEM_SUBSTANCE_ID>
310939533

> <PUBCHEM_SUBSTANCE_VERSION>
1

> <PUBCHEM_EXT_DATASOURCE_NAME>
4488

> <PUBCHEM_EXT_DATASOURCE_REGID>
SCHEMBL16117462

> <PUBCHEM_SUBSTANCE_COMMENT>
InChI=1S/C55H71NO4S/c1-3-4-10-30-46(57)33-34-47-51-37-41-23-21-22-40(2)50(41)38-42(51)39-52(47)60-54(59)49-32-18-17-31-48(49)53(58)56-35-19-5-6-20-36-61-55(43-24-11-7-12-25-43,44-26-13-8-14-27-44)45-28-15-9-16-29-45/h7-9,11-16,21-29,42,46-49,51-52,57H,3-6,10,17-20,30-39H2,1-2H3,(H,56,58)/t42-,46-,47+,48+,49-,51-,52+/m0/s1
InChIKey=WAMKMXHXDGSROD-HPHZHRDISA-N

> <PUBCHEM_SUBSTANCE_SYNONYM>
SCHEMBL16117462

> <PUBCHEM_XREF_EXT_ID>
SCHEMBL16117462

> <PUBCHEM_EXT_DATASOURCE_URL>
https://www.surechembl.org/

> <PUBCHEM_EXT_SUBSTANCE_URL>
https://www.surechembl.org/chemical/SCHEMBL16117462

> <PUBCHEM_CID_ASSOCIATIONS>
117606830  1

> <PUBCHEM_COORDINATE_TYPE>
1
3

> <PUBCHEM_BONDANNOTATIONS>
10  21  5
11  2  6
30  29  6
35  47  6
48  5  5
8  18  6
9  17  6

$$$$
