310941817
  -OEChem-07211613022D

 22 26  0     1  0  0  0  0  0999 V2000
   -0.1778   -1.2089    0.0000 O   0  0  0  0  0  0  0  0  0  0  0  0
    2.0551    0.0711    0.0000 N   0  0  0  0  0  0  0  0  0  0  0  0
    2.8658   -1.0382    0.0000 N   0  0  0  0  0  0  0  0  0  0  0  0
    3.3493   -0.3555    0.0000 N   0  0  0  0  0  0  0  0  0  0  0  0
   -3.3493   -0.4693    0.0000 N   0  0  0  0  0  0  0  0  0  0  0  0
    0.5902    0.0853    0.0000 C   0  0  0  0  0  0  0  0  0  0  0  0
    0.5618   -0.7680    0.0000 C   0  0  0  0  0  0  0  0  0  0  0  0
   -0.1778    0.4978    0.0000 C   0  0  0  0  0  0  0  0  0  0  0  0
    2.0267   -0.7680    0.0000 C   0  0  0  0  0  0  0  0  0  0  0  0
    1.3013    0.4978    0.0000 C   0  0  0  0  0  0  0  0  0  0  0  0
    1.3298   -1.1804    0.0000 C   0  0  0  0  0  0  0  0  0  0  0  0
   -0.9884    0.5120    0.0000 C   0  0  0  0  0  0  0  0  0  0  0  0
   -0.5902    1.2089    0.0000 C   0  0  0  0  0  0  0  0  0  0  0  0
    2.8658    0.3129    0.0000 C   0  0  0  0  0  0  0  0  0  0  0  0
   -1.4578   -0.4409    0.0000 C   0  0  0  0  0  0  0  0  0  0  0  0
   -2.6951   -1.1662    0.0000 C   0  0  3  0  0  0  0  0  0  0  0  0
   -2.6951    0.2560    0.0000 C   0  0  3  0  0  0  0  0  0  0  0  0
   -0.6044   -0.4551    0.0000 C   0  0  0  0  0  0  0  0  0  0  0  0
   -1.8702    0.2702    0.0000 C   0  0  0  0  0  0  0  0  0  0  0  0
   -1.8702   -1.1804    0.0000 C   0  0  0  0  0  0  0  0  0  0  0  0
   -2.3396   -0.7822    0.0000 C   0  0  0  0  0  0  0  0  0  0  0  0
   -2.3111   -0.2133    0.0000 C   0  0  0  0  0  0  0  0  0  0  0  0
  1  7  1  0  0  0  0
  1 18  1  0  0  0  0
  2  9  1  0  0  0  0
  2 10  1  0  0  0  0
  2 14  1  0  0  0  0
  3  4  1  0  0  0  0
  3  9  2  0  0  0  0
  4 14  2  0  0  0  0
  5 16  1  0  0  0  0
  5 17  1  0  0  0  0
  6  7  1  0  0  0  0
  6  8  1  0  0  0  0
  6 10  2  0  0  0  0
  7 11  2  0  0  0  0
  8 12  1  0  0  0  0
  8 13  1  0  0  0  0
  9 11  1  0  0  0  0
 12 13  1  0  0  0  0
 15 18  1  6  0  0  0
 15 19  1  0  0  0  0
 15 20  1  0  0  0  0
 16 20  1  6  0  0  0
 16 21  1  0  0  0  0
 17 19  1  6  0  0  0
 17 22  1  0  0  0  0
 21 22  1  0  0  0  0
M  END
> <PUBCHEM_COMPOUND_ID_TYPE>
0

> <PUBCHEM_TOTAL_CHARGE>
0

> <PUBCHEM_SUBSTANCE_ID>
310941817

> <PUBCHEM_SUBSTANCE_VERSION>
1

> <PUBCHEM_EXT_DATASOURCE_NAME>
4488

> <PUBCHEM_EXT_DATASOURCE_REGID>
SCHEMBL16119849

> <PUBCHEM_SUBSTANCE_COMMENT>
InChI=1S/C17H22N4O/c1-2-12(1)15-8-21-10-18-20-17(21)7-16(15)22-9-11-5-13-3-4-14(6-11)19-13/h7-8,10-14,19H,1-6,9H2/t11-,13-,14+
InChIKey=TXXFYHKWMTZQBB-DEZZGGKRSA-N

> <PUBCHEM_SUBSTANCE_SYNONYM>
SCHEMBL16119849

> <PUBCHEM_XREF_EXT_ID>
SCHEMBL16119849

> <PUBCHEM_EXT_DATASOURCE_URL>
https://www.surechembl.org/

> <PUBCHEM_EXT_SUBSTANCE_URL>
https://www.surechembl.org/chemical/SCHEMBL16119849

> <PUBCHEM_CID_ASSOCIATIONS>
117608564  1

> <PUBCHEM_COORDINATE_TYPE>
1
3

> <PUBCHEM_BONDANNOTATIONS>
15  18  6
16  20  6
17  19  6

$$$$
