310949664
  -OEChem-07211613022D

 24 25  0     0  0  0  0  0  0999 V2000
   -3.5093   -1.0581    0.0000 O   0  0  0  0  0  0  0  0  0  0  0  0
   -1.4327    1.1106    0.0000 O   0  0  0  0  0  0  0  0  0  0  0  0
    0.2366   -0.3483    0.0000 O   0  0  0  0  0  0  0  0  0  0  0  0
    0.2235   -1.8072    0.0000 O   0  0  0  0  0  0  0  0  0  0  0  0
    3.9694    0.3614    0.0000 O   0  0  0  0  0  0  0  0  0  0  0  0
    3.9694    1.8204    0.0000 O   0  0  0  0  0  0  0  0  0  0  0  0
   -0.1972    0.3746    0.0000 N   0  0  0  0  0  0  0  0  0  0  0  0
   -1.4458   -0.3483    0.0000 C   0  0  0  0  0  0  0  0  0  0  0  0
   -1.0252   -1.0581    0.0000 C   0  0  0  0  0  0  0  0  0  0  0  0
   -1.0121    0.3746    0.0000 C   0  0  0  0  0  0  0  0  0  0  0  0
   -2.2738   -0.3614    0.0000 C   0  0  0  0  0  0  0  0  0  0  0  0
   -2.6813   -1.0581    0.0000 C   0  0  0  0  0  0  0  0  0  0  0  0
   -1.4721   -1.8072    0.0000 C   0  0  0  0  0  0  0  0  0  0  0  0
   -0.2103   -1.0843    0.0000 C   0  0  0  0  0  0  0  0  0  0  0  0
   -2.2870   -1.7810    0.0000 C   0  0  0  0  0  0  0  0  0  0  0  0
    1.0515    1.0975    0.0000 C   0  0  0  0  0  0  0  0  0  0  0  0
    0.2366    1.0975    0.0000 C   0  0  0  0  0  0  0  0  0  0  0  0
    2.7208    1.1106    0.0000 C   0  0  0  0  0  0  0  0  0  0  0  0
    1.4721    1.8072    0.0000 C   0  0  0  0  0  0  0  0  0  0  0  0
    1.4721    0.3746    0.0000 C   0  0  0  0  0  0  0  0  0  0  0  0
    2.3001    1.8072    0.0000 C   0  0  0  0  0  0  0  0  0  0  0  0
    2.2870    0.3614    0.0000 C   0  0  0  0  0  0  0  0  0  0  0  0
    3.5357    1.0975    0.0000 C   0  0  0  0  0  0  0  0  0  0  0  0
   -3.9694   -1.8204    0.0000 C   0  0  0  0  0  0  0  0  0  0  0  0
  1 12  1  0  0  0  0
  1 24  1  0  0  0  0
  2 10  2  0  0  0  0
  3 14  2  0  0  0  0
  4 14  1  0  0  0  0
  5 23  2  0  0  0  0
  6 23  1  0  0  0  0
  7 10  1  0  0  0  0
  7 17  1  0  0  0  0
  8  9  2  0  0  0  0
  8 10  1  0  0  0  0
  8 11  1  0  0  0  0
  9 13  1  0  0  0  0
  9 14  1  0  0  0  0
 11 12  2  0  0  0  0
 12 15  1  0  0  0  0
 13 15  2  0  0  0  0
 16 17  1  0  0  0  0
 16 19  2  0  0  0  0
 16 20  1  0  0  0  0
 18 21  2  0  0  0  0
 18 22  1  0  0  0  0
 18 23  1  0  0  0  0
 19 21  1  0  0  0  0
 20 22  2  0  0  0  0
M  END
> <PUBCHEM_COMPOUND_ID_TYPE>
0

> <PUBCHEM_TOTAL_CHARGE>
0

> <PUBCHEM_SUBSTANCE_ID>
310949664

> <PUBCHEM_SUBSTANCE_VERSION>
1

> <PUBCHEM_EXT_DATASOURCE_NAME>
4488

> <PUBCHEM_EXT_DATASOURCE_REGID>
SCHEMBL16127862

> <PUBCHEM_SUBSTANCE_COMMENT>
InChI=1S/C17H15NO6/c1-24-12-6-7-13(17(22)23)14(8-12)15(19)18-9-10-2-4-11(5-3-10)16(20)21/h2-8H,9H2,1H3,(H,18,19)(H,20,21)(H,22,23)
InChIKey=KHRBVSRRZWEXSC-UHFFFAOYSA-N

> <PUBCHEM_SUBSTANCE_SYNONYM>
SCHEMBL16127862

> <PUBCHEM_XREF_EXT_ID>
SCHEMBL16127862

> <PUBCHEM_EXT_DATASOURCE_URL>
https://www.surechembl.org/

> <PUBCHEM_EXT_SUBSTANCE_URL>
https://www.surechembl.org/chemical/SCHEMBL16127862

> <PUBCHEM_CID_ASSOCIATIONS>
117615038  1

> <PUBCHEM_COORDINATE_TYPE>
1
3

$$$$
