310931586
  -OEChem-07211613022D

 30 32  0     1  0  0  0  0  0999 V2000
    7.1765    0.0000    0.0000 Cl  0  0  0  0  0  0  0  0  0  0  0  0
    2.1556   -2.0767    0.0000 S   0  0  0  0  0  0  0  0  0  0  0  0
    2.1556   -3.7065    0.0000 F   0  0  0  0  0  0  0  0  0  0  0  0
    4.9947   -2.0505    0.0000 F   0  0  0  0  0  0  0  0  0  0  0  0
    5.0209   -3.7065    0.0000 O   0  0  0  0  0  0  0  0  0  0  0  0
    1.7350   -2.7865    0.0000 O   0  0  0  0  0  0  0  0  0  0  0  0
    2.5762   -1.3406    0.0000 O   0  0  0  0  0  0  0  0  0  0  0  0
    0.7097   -2.8916    0.0000 O   0  0  0  0  0  0  0  0  0  0  0  0
    1.4195   -1.6561    0.0000 N   0  0  0  0  0  0  0  0  0  0  0  0
    7.1765   -4.9421    0.0000 N   0  0  0  0  0  0  0  0  0  0  0  0
    2.8654   -2.4710    0.0000 C   0  0  0  0  0  0  0  0  0  0  0  0
    2.8654   -3.3123    0.0000 C   0  0  0  0  0  0  0  0  0  0  0  0
    4.2848   -3.2859    0.0000 C   0  0  0  0  0  0  0  0  0  0  0  0
    4.2848   -2.4710    0.0000 C   0  0  0  0  0  0  0  0  0  0  0  0
    3.5751   -2.0505    0.0000 C   0  0  0  0  0  0  0  0  0  0  0  0
    3.5751   -3.7065    0.0000 C   0  0  0  0  0  0  0  0  0  0  0  0
    6.4405   -3.7065    0.0000 C   0  0  3  0  0  0  0  0  0  0  0  0
    7.1765   -3.3123    0.0000 C   0  0  3  0  0  0  0  0  0  0  0  0
    5.7307   -3.2859    0.0000 C   0  0  0  0  0  0  0  0  0  0  0  0
    7.1765   -2.4710    0.0000 C   0  0  0  0  0  0  0  0  0  0  0  0
    0.7097   -2.0767    0.0000 C   0  0  0  0  0  0  0  0  0  0  0  0
    6.4405   -4.5477    0.0000 C   0  0  0  0  0  0  0  0  0  0  0  0
    7.8863   -3.7065    0.0000 C   0  0  0  0  0  0  0  0  0  0  0  0
    6.4405   -2.0505    0.0000 C   0  0  0  0  0  0  0  0  0  0  0  0
    7.8863   -2.0505    0.0000 C   0  0  0  0  0  0  0  0  0  0  0  0
    7.8863   -4.5477    0.0000 C   0  0  0  0  0  0  0  0  0  0  0  0
    7.1765   -0.8149    0.0000 C   0  0  0  0  0  0  0  0  0  0  0  0
    6.4405   -1.2355    0.0000 C   0  0  0  0  0  0  0  0  0  0  0  0
    7.8863   -1.2355    0.0000 C   0  0  0  0  0  0  0  0  0  0  0  0
    0.0000   -1.6561    0.0000 C   0  0  0  0  0  0  0  0  0  0  0  0
  1 27  1  0  0  0  0
  2  6  2  0  0  0  0
  2  7  2  0  0  0  0
  2  9  1  0  0  0  0
  2 11  1  0  0  0  0
  3 12  1  0  0  0  0
  4 14  1  0  0  0  0
  5 13  1  0  0  0  0
  5 19  1  0  0  0  0
  8 21  2  0  0  0  0
  9 21  1  0  0  0  0
 10 22  1  0  0  0  0
 10 26  1  0  0  0  0
 11 12  1  0  0  0  0
 11 15  2  0  0  0  0
 12 16  2  0  0  0  0
 13 14  2  0  0  0  0
 13 16  1  0  0  0  0
 14 15  1  0  0  0  0
 17 18  1  0  0  0  0
 17 19  1  6  0  0  0
 17 22  1  0  0  0  0
 18 20  1  0  0  0  0
 18 23  1  1  0  0  0
 20 24  2  0  0  0  0
 20 25  1  0  0  0  0
 21 30  1  0  0  0  0
 23 26  1  0  0  0  0
 24 28  1  0  0  0  0
 25 29  2  0  0  0  0
 27 28  2  0  0  0  0
 27 29  1  0  0  0  0
M  END
> <PUBCHEM_COMPOUND_ID_TYPE>
0

> <PUBCHEM_TOTAL_CHARGE>
0

> <PUBCHEM_SUBSTANCE_ID>
310931586

> <PUBCHEM_SUBSTANCE_VERSION>
1

> <PUBCHEM_EXT_DATASOURCE_NAME>
4488

> <PUBCHEM_EXT_DATASOURCE_REGID>
SCHEMBL16108912

> <PUBCHEM_SUBSTANCE_COMMENT>
InChI=1S/C20H21ClF2N2O4S/c1-12(26)25-30(27,28)20-9-17(22)19(8-18(20)23)29-11-14-10-24-7-6-16(14)13-2-4-15(21)5-3-13/h2-5,8-9,14,16,24H,6-7,10-11H2,1H3,(H,25,26)/t14-,16-/m1/s1
InChIKey=GOAIBJBKJNXGFS-GDBMZVCRSA-N

> <PUBCHEM_SUBSTANCE_SYNONYM>
SCHEMBL16108912

> <PUBCHEM_XREF_EXT_ID>
SCHEMBL16108912

> <PUBCHEM_EXT_DATASOURCE_URL>
https://www.surechembl.org/

> <PUBCHEM_EXT_SUBSTANCE_URL>
https://www.surechembl.org/chemical/SCHEMBL16108912

> <PUBCHEM_CID_ASSOCIATIONS>
71559036  1

> <PUBCHEM_COORDINATE_TYPE>
1
3

> <PUBCHEM_BONDANNOTATIONS>
17  19  6
18  23  5

$$$$
