310943061
  -OEChem-07211613022D

 33 36  0     1  0  0  0  0  0999 V2000
    2.2548   -2.3047    0.0000 S   0  0  0  0  0  0  0  0  0  0  0  0
   -2.7207   -1.9386    0.0000 O   0  0  0  0  0  0  0  0  0  0  0  0
    2.4878   -3.0868    0.0000 O   0  0  0  0  0  0  0  0  0  0  0  0
    3.0535   -2.4877    0.0000 O   0  0  0  0  0  0  0  0  0  0  0  0
   -1.6391    2.6209    0.0000 O   0  0  0  0  0  0  0  0  0  0  0  0
   -1.2896    0.4077    0.0000 N   0  0  0  0  0  0  0  0  0  0  0  0
   -0.7905   -0.2413    0.0000 N   0  0  0  0  0  0  0  0  0  0  0  0
   -0.9735   -1.7057    0.0000 N   0  0  0  0  0  0  0  0  0  0  0  0
   -3.4695   -0.7239    0.0000 N   0  0  0  0  0  0  0  0  0  0  0  0
    0.7072   -0.0416    0.0000 N   0  0  0  0  0  0  0  0  0  0  0  0
   -2.0551   -0.6739    0.0000 C   0  0  0  0  0  0  0  0  0  0  0  0
   -2.0551    0.1415    0.0000 C   0  0  0  0  0  0  0  0  0  0  0  0
   -1.2563   -0.9236    0.0000 C   0  0  0  0  0  0  0  0  0  0  0  0
   -1.0400    1.2064    0.0000 C   0  0  3  0  0  0  0  0  0  0  0  0
   -2.7374   -1.0899    0.0000 C   0  0  0  0  0  0  0  0  0  0  0  0
   -2.7873    0.5408    0.0000 C   0  0  0  0  0  0  0  0  0  0  0  0
    1.4394   -2.1383    0.0000 C   0  0  0  0  0  0  0  0  0  0  0  0
   -0.1748   -1.8387    0.0000 C   0  0  0  0  0  0  0  0  0  0  0  0
   -0.2413    1.3229    0.0000 C   0  0  3  0  0  0  0  0  0  0  0  0
    2.6541   -1.5559    0.0000 C   0  0  0  0  0  0  0  0  0  0  0  0
   -3.4862    0.1082    0.0000 C   0  0  0  0  0  0  0  0  0  0  0  0
   -1.7057    1.8055    0.0000 C   0  0  0  0  0  0  0  0  0  0  0  0
    0.9236   -2.7540    0.0000 C   0  0  0  0  0  0  0  0  0  0  0  0
    1.1732   -1.3729    0.0000 C   0  0  0  0  0  0  0  0  0  0  0  0
    0.1082   -2.6043    0.0000 C   0  0  0  0  0  0  0  0  0  0  0  0
    0.3744   -1.2231    0.0000 C   0  0  0  0  0  0  0  0  0  0  0  0
    0.1581    2.0717    0.0000 C   0  0  0  0  0  0  0  0  0  0  0  0
    0.2246    0.6406    0.0000 C   0  0  0  0  0  0  0  0  0  0  0  0
    3.0702   -0.8570    0.0000 C   0  0  0  0  0  0  0  0  0  0  0  0
    2.2049   -0.8570    0.0000 C   0  0  0  0  0  0  0  0  0  0  0  0
    3.4862   -1.5393    0.0000 C   0  0  0  0  0  0  0  0  0  0  0  0
   -0.1581    2.8206    0.0000 C   0  0  0  0  0  0  0  0  0  0  0  0
   -0.9569    3.0868    0.0000 C   0  0  0  0  0  0  0  0  0  0  0  0
  1  3  2  0  0  0  0
  1  4  2  0  0  0  0
  1 17  1  0  0  0  0
  1 20  1  0  0  0  0
  2 15  2  0  0  0  0
  5 22  1  0  0  0  0
  5 33  1  0  0  0  0
  6  7  1  0  0  0  0
  6 12  1  0  0  0  0
 14  6  1  1  0  0  0
  7 13  2  0  0  0  0
  8 13  1  0  0  0  0
  8 18  1  0  0  0  0
  9 15  1  0  0  0  0
  9 21  1  0  0  0  0
 10 28  3  0  0  0  0
 11 12  2  0  0  0  0
 11 13  1  0  0  0  0
 11 15  1  0  0  0  0
 12 16  1  0  0  0  0
 14 19  1  0  0  0  0
 14 22  1  0  0  0  0
 16 21  2  0  0  0  0
 17 23  2  0  0  0  0
 17 24  1  0  0  0  0
 18 25  2  0  0  0  0
 18 26  1  0  0  0  0
 19 27  1  0  0  0  0
 19 28  1  6  0  0  0
 20 29  1  0  0  0  0
 20 30  1  0  0  0  0
 20 31  1  0  0  0  0
 23 25  1  0  0  0  0
 24 26  2  0  0  0  0
 27 32  1  0  0  0  0
 32 33  1  0  0  0  0
M  END
> <PUBCHEM_COMPOUND_ID_TYPE>
0

> <PUBCHEM_TOTAL_CHARGE>
0

> <PUBCHEM_SUBSTANCE_ID>
310943061

> <PUBCHEM_SUBSTANCE_VERSION>
1

> <PUBCHEM_EXT_DATASOURCE_NAME>
4488

> <PUBCHEM_EXT_DATASOURCE_REGID>
SCHEMBL16121120

> <PUBCHEM_SUBSTANCE_COMMENT>
InChI=1S/C23H27N5O4S/c1-23(2,3)33(30,31)17-8-6-16(7-9-17)26-21-20-18(10-11-25-22(20)29)28(27-21)19-14-32-12-4-5-15(19)13-24/h6-11,15,19H,4-5,12,14H2,1-3H3,(H,25,29)(H,26,27)/t15-,19+/m1/s1
InChIKey=PHABQEUMBQLONZ-BEFAXECRSA-N

> <PUBCHEM_SUBSTANCE_SYNONYM>
SCHEMBL16121120

> <PUBCHEM_XREF_EXT_ID>
SCHEMBL16121120

> <PUBCHEM_EXT_DATASOURCE_URL>
https://www.surechembl.org/

> <PUBCHEM_EXT_SUBSTANCE_URL>
https://www.surechembl.org/chemical/SCHEMBL16121120

> <PUBCHEM_CID_ASSOCIATIONS>
117609499  1

> <PUBCHEM_COORDINATE_TYPE>
1
3

> <PUBCHEM_BONDANNOTATIONS>
19  28  6
14  6  5

$$$$
