310932318
  -OEChem-07211613022D

 39 44  0     1  0  0  0  0  0999 V2000
    5.7291   -7.2965    0.0000 F   0  0  0  0  0  0  0  0  0  0  0  0
    3.6753  -10.8097    0.0000 F   0  0  0  0  0  0  0  0  0  0  0  0
    4.9184   -5.7832    0.0000 O   0  0  0  0  0  0  0  0  0  0  0  0
    1.5674   -5.7832    0.0000 O   0  0  0  0  0  0  0  0  0  0  0  0
    2.0539   -3.6212    0.0000 O   0  0  0  0  0  0  0  0  0  0  0  0
    2.8105   -5.0805    0.0000 N   0  0  0  0  0  0  0  0  0  0  0  0
    4.4860   -7.9451    0.0000 N   0  0  0  0  0  0  0  0  0  0  0  0
    3.2969   -2.9186    0.0000 N   0  0  0  0  0  0  0  0  0  0  0  0
    1.5674   -4.3239    0.0000 N   0  0  0  0  0  0  0  0  0  0  0  0
    2.4322  -10.1070    0.0000 N   0  0  0  0  0  0  0  0  0  0  0  0
    1.2431   -2.1619    0.0000 N   0  0  0  0  0  0  0  0  0  0  0  0
    0.0000    0.0000    0.0000 N   0  0  0  0  0  0  0  0  0  0  0  0
    3.2429   -5.7832    0.0000 C   0  0  3  0  0  0  0  0  0  0  0  0
    3.6753   -6.5398    0.0000 C   0  0  0  0  0  0  0  0  0  0  0  0
    3.6753   -5.0265    0.0000 C   0  0  0  0  0  0  0  0  0  0  0  0
    4.4860   -6.5398    0.0000 C   0  0  0  0  0  0  0  0  0  0  0  0
    4.4860   -5.0805    0.0000 C   0  0  0  0  0  0  0  0  0  0  0  0
    2.8105   -6.4858    0.0000 C   0  0  0  0  0  0  0  0  0  0  0  0
    3.2429   -7.2425    0.0000 C   0  0  0  0  0  0  0  0  0  0  0  0
    4.9184   -7.2425    0.0000 C   0  0  0  0  0  0  0  0  0  0  0  0
    3.2429   -4.3239    0.0000 C   0  0  0  0  0  0  0  0  0  0  0  0
    3.6212   -7.9451    0.0000 C   0  0  0  0  0  0  0  0  0  0  0  0
    1.9998   -5.0265    0.0000 C   0  0  0  0  0  0  0  0  0  0  0  0
    4.9184   -4.3239    0.0000 C   0  0  0  0  0  0  0  0  0  0  0  0
    3.6753   -3.6212    0.0000 C   0  0  0  0  0  0  0  0  0  0  0  0
    1.9998   -6.4858    0.0000 C   0  0  0  0  0  0  0  0  0  0  0  0
    3.2429   -8.6477    0.0000 C   0  0  0  0  0  0  0  0  0  0  0  0
    4.5401   -3.6212    0.0000 C   0  0  0  0  0  0  0  0  0  0  0  0
    3.6753   -9.3504    0.0000 C   0  0  0  0  0  0  0  0  0  0  0  0
    2.4322   -8.6477    0.0000 C   0  0  0  0  0  0  0  0  0  0  0  0
    2.4322   -2.9186    0.0000 C   0  0  0  0  0  0  0  0  0  0  0  0
    3.2429  -10.1070    0.0000 C   0  0  0  0  0  0  0  0  0  0  0  0
    2.0539   -2.1619    0.0000 C   0  0  0  0  0  0  0  0  0  0  0  0
    1.9998   -9.4044    0.0000 C   0  0  0  0  0  0  0  0  0  0  0  0
    2.4862   -1.4593    0.0000 C   0  0  0  0  0  0  0  0  0  0  0  0
    0.8107   -1.4593    0.0000 C   0  0  0  0  0  0  0  0  0  0  0  0
    2.0539   -0.7567    0.0000 C   0  0  0  0  0  0  0  0  0  0  0  0
    1.2431   -0.7567    0.0000 C   0  0  0  0  0  0  0  0  0  0  0  0
    0.8107    0.0000    0.0000 C   0  0  0  0  0  0  0  0  0  0  0  0
  1 20  1  0  0  0  0
  2 32  1  0  0  0  0
  3 16  1  0  0  0  0
  3 17  1  0  0  0  0
  4 23  1  0  0  0  0
  4 26  1  0  0  0  0
  5 31  2  0  0  0  0
 13  6  1  1  0  0  0
  6 23  2  0  0  0  0
  7 20  1  0  0  0  0
  7 22  2  0  0  0  0
  8 25  1  0  0  0  0
  8 31  1  0  0  0  0
  9 23  1  0  0  0  0
 10 32  1  0  0  0  0
 10 34  2  0  0  0  0
 11 33  1  0  0  0  0
 11 36  2  0  0  0  0
 12 39  3  0  0  0  0
 13 14  1  0  0  0  0
 13 15  1  0  0  0  0
 13 18  1  0  0  0  0
 14 16  1  0  0  0  0
 14 19  2  0  0  0  0
 15 17  2  0  0  0  0
 15 21  1  0  0  0  0
 16 20  2  0  0  0  0
 17 24  1  0  0  0  0
 18 26  1  0  0  0  0
 19 22  1  0  0  0  0
 21 25  2  0  0  0  0
 22 27  1  0  0  0  0
 24 28  2  0  0  0  0
 25 28  1  0  0  0  0
 27 29  1  0  0  0  0
 27 30  2  0  0  0  0
 29 32  2  0  0  0  0
 30 34  1  0  0  0  0
 31 33  1  0  0  0  0
 33 35  2  0  0  0  0
 35 37  1  0  0  0  0
 36 38  1  0  0  0  0
 37 38  2  0  0  0  0
 38 39  1  0  0  0  0
M  END
> <PUBCHEM_COMPOUND_ID_TYPE>
0

> <PUBCHEM_TOTAL_CHARGE>
0

> <PUBCHEM_SUBSTANCE_ID>
310932318

> <PUBCHEM_SUBSTANCE_VERSION>
1

> <PUBCHEM_EXT_DATASOURCE_NAME>
4488

> <PUBCHEM_EXT_DATASOURCE_REGID>
SCHEMBL16109684

> <PUBCHEM_SUBSTANCE_COMMENT>
InChI=1S/C27H17F2N7O3/c28-22-9-15(5-7-32-22)20-11-18-23(24(29)35-20)39-21-4-2-16(10-17(21)27(18)6-8-38-26(31)36-27)34-25(37)19-3-1-14(12-30)13-33-19/h1-5,7,9-11,13H,6,8H2,(H2,31,36)(H,34,37)/t27-/m0/s1
InChIKey=FUQKJMGBZPVNMC-MHZLTWQESA-N

> <PUBCHEM_SUBSTANCE_SYNONYM>
SCHEMBL16109684

> <PUBCHEM_XREF_EXT_ID>
SCHEMBL16109684

> <PUBCHEM_EXT_DATASOURCE_URL>
https://www.surechembl.org/

> <PUBCHEM_EXT_SUBSTANCE_URL>
https://www.surechembl.org/chemical/SCHEMBL16109684

> <PUBCHEM_CID_ASSOCIATIONS>
71542322  1

> <PUBCHEM_COORDINATE_TYPE>
1
3

> <PUBCHEM_BONDANNOTATIONS>
13  6  5

$$$$
