310939826
  -OEChem-07211613022D

 32 34  0     0  0  0  0  0  0999 V2000
    1.0717    3.0385    0.0000 Cl  0  0  0  0  0  0  0  0  0  0  0  0
   -3.2151   -2.7365    0.0000 S   0  0  0  0  0  0  0  0  0  0  0  0
   -0.3572    0.5635    0.0000 O   0  0  0  0  0  0  0  0  0  0  0  0
    1.0717   -1.9115    0.0000 O   0  0  0  0  0  0  0  0  0  0  0  0
   -2.8026   -2.0220    0.0000 O   0  0  0  0  0  0  0  0  0  0  0  0
   -3.6276   -3.4510    0.0000 O   0  0  0  0  0  0  0  0  0  0  0  0
    1.0717   -0.2615    0.0000 N   0  0  0  0  0  0  0  0  0  0  0  0
   -0.3572   -1.9115    0.0000 N   0  0  0  0  0  0  0  0  0  0  0  0
   -2.5006   -3.1490    0.0000 N   0  0  0  0  0  0  0  0  0  0  0  0
    1.7862    1.8010    0.0000 C   0  0  0  0  0  0  0  0  0  0  0  0
    1.0717    0.5635    0.0000 C   0  0  0  0  0  0  0  0  0  0  0  0
    1.0717    2.2135    0.0000 C   0  0  0  0  0  0  0  0  0  0  0  0
    0.3572    0.9760    0.0000 C   0  0  0  0  0  0  0  0  0  0  0  0
    2.5006    2.2135    0.0000 C   0  0  0  0  0  0  0  0  0  0  0  0
    1.7862    0.9760    0.0000 C   0  0  0  0  0  0  0  0  0  0  0  0
    0.3572    1.8010    0.0000 C   0  0  0  0  0  0  0  0  0  0  0  0
    0.3572   -1.4990    0.0000 C   0  0  0  0  0  0  0  0  0  0  0  0
    3.2151    1.8010    0.0000 C   0  0  0  0  0  0  0  0  0  0  0  0
    2.5006    3.0385    0.0000 C   0  0  0  0  0  0  0  0  0  0  0  0
   -1.7862   -2.7365    0.0000 C   0  0  0  0  0  0  0  0  0  0  0  0
    0.3572   -0.6740    0.0000 C   0  0  0  0  0  0  0  0  0  0  0  0
   -1.0717   -1.4990    0.0000 C   0  0  0  0  0  0  0  0  0  0  0  0
   -0.3572   -2.7365    0.0000 C   0  0  0  0  0  0  0  0  0  0  0  0
   -1.7862   -1.9115    0.0000 C   0  0  0  0  0  0  0  0  0  0  0  0
   -1.0717   -3.1490    0.0000 C   0  0  0  0  0  0  0  0  0  0  0  0
    3.9296    2.2135    0.0000 C   0  0  0  0  0  0  0  0  0  0  0  0
    3.2151    3.4510    0.0000 C   0  0  0  0  0  0  0  0  0  0  0  0
    3.9296    3.0385    0.0000 C   0  0  0  0  0  0  0  0  0  0  0  0
   -3.9296   -2.3240    0.0000 C   0  0  0  0  0  0  0  0  0  0  0  0
   -1.0717    0.9760    0.0000 C   0  0  0  0  0  0  0  0  0  0  0  0
    4.6441    3.4510    0.0000 C   0  0  0  0  0  0  0  0  0  0  0  0
   -4.6441   -2.7365    0.0000 C   0  0  0  0  0  0  0  0  0  0  0  0
  1 12  1  0  0  0  0
  2  5  2  0  0  0  0
  2  6  2  0  0  0  0
  2  9  1  0  0  0  0
  2 29  1  0  0  0  0
  3 13  1  0  0  0  0
  3 30  1  0  0  0  0
  4 17  2  0  0  0  0
  7 11  1  0  0  0  0
  7 21  1  0  0  0  0
  8 17  1  0  0  0  0
  8 22  1  0  0  0  0
  8 23  1  0  0  0  0
  9 20  1  0  0  0  0
 10 12  2  0  0  0  0
 10 14  1  0  0  0  0
 10 15  1  0  0  0  0
 11 13  1  0  0  0  0
 11 15  2  0  0  0  0
 12 16  1  0  0  0  0
 13 16  2  0  0  0  0
 14 18  2  0  0  0  0
 14 19  1  0  0  0  0
 17 21  1  0  0  0  0
 18 26  1  0  0  0  0
 19 27  2  0  0  0  0
 20 24  1  0  0  0  0
 20 25  1  0  0  0  0
 22 24  1  0  0  0  0
 23 25  1  0  0  0  0
 26 28  2  0  0  0  0
 27 28  1  0  0  0  0
 28 31  1  0  0  0  0
 29 32  2  0  0  0  0
M  END
> <PUBCHEM_COMPOUND_ID_TYPE>
0

> <PUBCHEM_TOTAL_CHARGE>
0

> <PUBCHEM_SUBSTANCE_ID>
310939826

> <PUBCHEM_SUBSTANCE_VERSION>
1

> <PUBCHEM_EXT_DATASOURCE_NAME>
4488

> <PUBCHEM_EXT_DATASOURCE_REGID>
SCHEMBL16117756

> <PUBCHEM_SUBSTANCE_COMMENT>
InChI=1S/C23H28ClN3O4S/c1-4-32(29,30)26-18-9-11-27(12-10-18)23(28)15-25-21-13-19(20(24)14-22(21)31-3)17-7-5-16(2)6-8-17/h4-8,13-14,18,25-26H,1,9-12,15H2,2-3H3
InChIKey=TXQOCKXCJNPGBV-UHFFFAOYSA-N

> <PUBCHEM_SUBSTANCE_SYNONYM>
SCHEMBL16117756

> <PUBCHEM_XREF_EXT_ID>
SCHEMBL16117756

> <PUBCHEM_EXT_DATASOURCE_URL>
https://www.surechembl.org/

> <PUBCHEM_EXT_SUBSTANCE_URL>
https://www.surechembl.org/chemical/SCHEMBL16117756

> <PUBCHEM_CID_ASSOCIATIONS>
117607043  1

> <PUBCHEM_COORDINATE_TYPE>
1
3

$$$$
