310943978
  -OEChem-07211613022D

 17 18  0     0  0  0  0  0  0999 V2000
   -1.0917    2.0444    0.0000 F   0  0  0  0  0  0  0  0  0  0  0  0
    1.0537    1.6153    0.0000 N   0  0  0  0  0  0  0  0  0  0  0  0
   -1.0917   -2.0444    0.0000 N   0  0  0  0  0  0  0  0  0  0  0  0
   -0.3723    0.0126    0.0000 C   0  0  0  0  0  0  0  0  0  0  0  0
   -0.3723    0.8203    0.0000 C   0  0  0  0  0  0  0  0  0  0  0  0
   -1.0917   -0.3912    0.0000 C   0  0  0  0  0  0  0  0  0  0  0  0
    0.3723   -0.3912    0.0000 C   0  0  0  0  0  0  0  0  0  0  0  0
   -1.1042    1.2494    0.0000 C   0  0  0  0  0  0  0  0  0  0  0  0
   -1.7857    0.0000    0.0000 C   0  0  0  0  0  0  0  0  0  0  0  0
   -1.8110    0.8203    0.0000 C   0  0  0  0  0  0  0  0  0  0  0  0
    0.3471    1.2367    0.0000 C   0  0  0  0  0  0  0  0  0  0  0  0
    0.3723   -1.1989    0.0000 C   0  0  0  0  0  0  0  0  0  0  0  0
    1.0790    0.0126    0.0000 C   0  0  0  0  0  0  0  0  0  0  0  0
   -1.0917   -1.2367    0.0000 C   0  0  0  0  0  0  0  0  0  0  0  0
    1.8110   -0.4039    0.0000 C   0  0  0  0  0  0  0  0  0  0  0  0
    1.0790   -1.5901    0.0000 C   0  0  0  0  0  0  0  0  0  0  0  0
    1.8110   -1.1863    0.0000 C   0  0  0  0  0  0  0  0  0  0  0  0
  1  8  1  0  0  0  0
  2 11  3  0  0  0  0
  3 14  3  0  0  0  0
  4  5  1  0  0  0  0
  4  6  2  0  0  0  0
  4  7  1  0  0  0  0
  5  8  2  0  0  0  0
  5 11  1  0  0  0  0
  6  9  1  0  0  0  0
  6 14  1  0  0  0  0
  7 12  1  0  0  0  0
  7 13  1  0  0  0  0
  8 10  1  0  0  0  0
  9 10  2  0  0  0  0
 12 16  1  0  0  0  0
 13 15  1  0  0  0  0
 15 17  1  0  0  0  0
 16 17  1  0  0  0  0
M  END
> <PUBCHEM_COMPOUND_ID_TYPE>
0

> <PUBCHEM_TOTAL_CHARGE>
0

> <PUBCHEM_SUBSTANCE_ID>
310943978

> <PUBCHEM_SUBSTANCE_VERSION>
1

> <PUBCHEM_EXT_DATASOURCE_NAME>
4488

> <PUBCHEM_EXT_DATASOURCE_REGID>
SCHEMBL16122049

> <PUBCHEM_SUBSTANCE_COMMENT>
InChI=1S/C14H13FN2/c15-13-7-6-11(8-16)14(12(13)9-17)10-4-2-1-3-5-10/h6-7,10H,1-5H2
InChIKey=BMHWHPXGUWLWFI-UHFFFAOYSA-N

> <PUBCHEM_SUBSTANCE_SYNONYM>
SCHEMBL16122049

> <PUBCHEM_XREF_EXT_ID>
SCHEMBL16122049

> <PUBCHEM_EXT_DATASOURCE_URL>
https://www.surechembl.org/

> <PUBCHEM_EXT_SUBSTANCE_URL>
https://www.surechembl.org/chemical/SCHEMBL16122049

> <PUBCHEM_CID_ASSOCIATIONS>
117610284  1

> <PUBCHEM_COORDINATE_TYPE>
1
3

$$$$
