310942118
  -OEChem-07211613022D

 21 22  0     1  0  0  0  0  0999 V2000
    0.3562    1.4624    0.0000 Cl  0  0  0  0  0  0  0  0  0  0  0  0
   -1.0812   -1.0374    0.0000 F   0  0  0  0  0  0  0  0  0  0  0  0
    0.3562   -0.2125    0.0000 O   0  0  0  0  0  0  0  0  0  0  0  0
   -3.2435    0.2125    0.0000 N   0  0  0  0  0  0  0  0  0  0  0  0
   -0.3687    0.2250    0.0000 C   0  0  0  0  0  0  0  0  0  0  0  0
   -1.0812   -0.1875    0.0000 C   0  0  0  0  0  0  0  0  0  0  0  0
   -1.8061    0.2125    0.0000 C   0  0  0  0  0  0  0  0  0  0  0  0
   -0.3562    1.0499    0.0000 C   0  0  0  0  0  0  0  0  0  0  0  0
    1.0812    0.2125    0.0000 C   0  0  0  0  0  0  0  0  0  0  0  0
   -1.7936    1.0374    0.0000 C   0  0  0  0  0  0  0  0  0  0  0  0
   -2.5186   -0.2000    0.0000 C   0  0  3  0  0  0  0  0  0  0  0  0
   -1.0812    1.4499    0.0000 C   0  0  0  0  0  0  0  0  0  0  0  0
    1.8061   -0.2000    0.0000 C   0  0  0  0  0  0  0  0  0  0  0  0
    2.5186    0.2250    0.0000 C   0  0  0  0  0  0  0  0  0  0  0  0
    1.0937    1.0374    0.0000 C   0  0  0  0  0  0  0  0  0  0  0  0
    2.5311    1.0499    0.0000 C   0  0  0  0  0  0  0  0  0  0  0  0
    1.7936    1.4499    0.0000 C   0  0  0  0  0  0  0  0  0  0  0  0
   -2.5311   -1.0499    0.0000 C   0  0  0  0  0  0  0  0  0  0  0  0
    3.2435   -0.2000    0.0000 C   0  0  0  0  0  0  0  0  0  0  0  0
    3.0685    1.3499    0.0000 C   0  0  0  0  0  0  0  0  0  0  0  0
   -3.2310   -1.4624    0.0000 C   0  0  0  0  0  0  0  0  0  0  0  0
  1  8  1  0  0  0  0
  2  6  1  0  0  0  0
  3  5  1  0  0  0  0
  3  9  1  0  0  0  0
 11  4  1  1  0  0  0
  5  6  1  0  0  0  0
  5  8  2  0  0  0  0
  6  7  2  0  0  0  0
  7 10  1  0  0  0  0
  7 11  1  0  0  0  0
  8 12  1  0  0  0  0
  9 13  2  0  0  0  0
  9 15  1  0  0  0  0
 10 12  2  0  0  0  0
 11 18  1  0  0  0  0
 13 14  1  0  0  0  0
 14 16  2  0  0  0  0
 14 19  1  0  0  0  0
 15 17  2  0  0  0  0
 16 17  1  0  0  0  0
 16 20  1  0  0  0  0
 18 21  1  0  0  0  0
M  END
> <PUBCHEM_COMPOUND_ID_TYPE>
0

> <PUBCHEM_TOTAL_CHARGE>
0

> <PUBCHEM_SUBSTANCE_ID>
310942118

> <PUBCHEM_SUBSTANCE_VERSION>
1

> <PUBCHEM_EXT_DATASOURCE_NAME>
4488

> <PUBCHEM_EXT_DATASOURCE_REGID>
SCHEMBL16120153

> <PUBCHEM_SUBSTANCE_COMMENT>
InChI=1S/C17H19ClFNO/c1-4-15(20)13-7-8-14(18)17(16(13)19)21-12-6-5-10(2)11(3)9-12/h5-9,15H,4,20H2,1-3H3/t15-/m1/s1
InChIKey=YGXZWMHLRRARRA-OAHLLOKOSA-N

> <PUBCHEM_SUBSTANCE_SYNONYM>
SCHEMBL16120153

> <PUBCHEM_XREF_EXT_ID>
SCHEMBL16120153

> <PUBCHEM_EXT_DATASOURCE_URL>
https://www.surechembl.org/

> <PUBCHEM_EXT_SUBSTANCE_URL>
https://www.surechembl.org/chemical/SCHEMBL16120153

> <PUBCHEM_CID_ASSOCIATIONS>
117608778  1

> <PUBCHEM_COORDINATE_TYPE>
1
3

> <PUBCHEM_BONDANNOTATIONS>
11  4  5

$$$$
