310929141
  -OEChem-07211613022D

 58 62  0     0  0  0  0  0  0999 V2000
    7.1102   -1.3098    0.0000 O   0  0  0  0  0  0  0  0  0  0  0  0
    3.5551   -2.5572    0.0000 O   0  0  0  0  0  0  0  0  0  0  0  0
    4.9897   -4.2412    0.0000 O   0  0  0  0  0  0  0  0  0  0  0  0
    2.8067   -1.3721    0.0000 O   0  0  0  0  0  0  0  0  0  0  0  0
   12.9108   -0.4366    0.0000 O   0  0  0  0  0  0  0  0  0  0  0  0
   15.0937    0.0000    0.0000 O   0  0  0  0  0  0  0  0  0  0  0  0
   17.2144   -0.4366    0.0000 O   0  0  0  0  0  0  0  0  0  0  0  0
   17.9628   -2.4948    0.0000 O   0  0  0  0  0  0  0  0  0  0  0  0
    3.5551   -4.2412    0.0000 N   0  0  0  0  0  0  0  0  0  0  0  0
    4.3036   -2.9938    0.0000 N   0  0  0  0  0  0  0  0  0  0  0  0
   10.0417   -1.2474    0.0000 N   0  0  0  0  0  0  0  0  0  0  0  0
    1.3721   -1.3721    0.0000 N   0  0  0  0  0  0  0  0  0  0  0  0
    9.2932   -2.4948    0.0000 N   0  0  0  0  0  0  0  0  0  0  0  0
   13.5968   -1.6840    0.0000 N   0  0  0  0  0  0  0  0  0  0  0  0
    4.9897   -1.7464    0.0000 C   0  0  0  0  0  0  0  0  0  0  0  0
    5.6757   -1.3098    0.0000 C   0  0  0  0  0  0  0  0  0  0  0  0
    2.8691   -3.8670    0.0000 C   0  0  0  0  0  0  0  0  0  0  0  0
    2.8691   -2.9938    0.0000 C   0  0  0  0  0  0  0  0  0  0  0  0
    2.1206   -2.6195    0.0000 C   0  0  0  0  0  0  0  0  0  0  0  0
    1.4345   -3.8670    0.0000 C   0  0  0  0  0  0  0  0  0  0  0  0
    4.9897   -2.5572    0.0000 C   0  0  0  0  0  0  0  0  0  0  0  0
    6.4242   -1.7464    0.0000 C   0  0  0  0  0  0  0  0  0  0  0  0
    2.1206   -4.2412    0.0000 C   0  0  0  0  0  0  0  0  0  0  0  0
    1.3721   -2.9938    0.0000 C   0  0  0  0  0  0  0  0  0  0  0  0
    0.6861   -4.2412    0.0000 C   0  0  0  0  0  0  0  0  0  0  0  0
    5.7381   -2.9938    0.0000 C   0  0  0  0  0  0  0  0  0  0  0  0
    4.3036   -3.8046    0.0000 C   0  0  0  0  0  0  0  0  0  0  0  0
    6.4242   -2.5572    0.0000 C   0  0  0  0  0  0  0  0  0  0  0  0
    2.1206   -1.7464    0.0000 C   0  0  0  0  0  0  0  0  0  0  0  0
    4.2412   -1.3721    0.0000 C   0  0  0  0  0  0  0  0  0  0  0  0
    5.6757   -0.4989    0.0000 C   0  0  0  0  0  0  0  0  0  0  0  0
    7.8587   -1.6840    0.0000 C   0  0  0  0  0  0  0  0  0  0  0  0
    4.2412   -0.4989    0.0000 C   0  0  0  0  0  0  0  0  0  0  0  0
    4.9897   -0.0624    0.0000 C   0  0  0  0  0  0  0  0  0  0  0  0
    8.5448   -1.2474    0.0000 C   0  0  0  0  0  0  0  0  0  0  0  0
    9.2932   -1.6840    0.0000 C   0  0  0  0  0  0  0  0  0  0  0  0
    0.2495   -3.5551    0.0000 C   0  0  0  0  0  0  0  0  0  0  0  0
    0.0000   -4.6778    0.0000 C   0  0  0  0  0  0  0  0  0  0  0  0
    1.1227   -4.9897    0.0000 C   0  0  0  0  0  0  0  0  0  0  0  0
    7.8587   -2.4948    0.0000 C   0  0  0  0  0  0  0  0  0  0  0  0
   10.7278   -1.6840    0.0000 C   0  0  0  0  0  0  0  0  0  0  0  0
   12.1623   -1.6840    0.0000 C   0  0  0  0  0  0  0  0  0  0  0  0
   11.4762   -1.2474    0.0000 C   0  0  0  0  0  0  0  0  0  0  0  0
    8.6072   -2.9314    0.0000 C   0  0  0  0  0  0  0  0  0  0  0  0
   11.4762   -2.9314    0.0000 C   0  0  0  0  0  0  0  0  0  0  0  0
   10.7278   -2.4948    0.0000 C   0  0  0  0  0  0  0  0  0  0  0  0
    3.5551   -1.7464    0.0000 C   0  0  0  0  0  0  0  0  0  0  0  0
   12.1623   -2.4948    0.0000 C   0  0  0  0  0  0  0  0  0  0  0  0
   12.9108   -1.2474    0.0000 C   0  0  0  0  0  0  0  0  0  0  0  0
   11.4762   -3.7422    0.0000 C   0  0  0  0  0  0  0  0  0  0  0  0
   14.3453   -1.2474    0.0000 C   0  0  0  0  0  0  0  0  0  0  0  0
   12.1623   -4.1789    0.0000 C   0  0  0  0  0  0  0  0  0  0  0  0
   14.3453   -0.4366    0.0000 C   0  0  0  0  0  0  0  0  0  0  0  0
   15.7798   -0.4366    0.0000 C   0  0  0  0  0  0  0  0  0  0  0  0
   16.5283    0.0000    0.0000 C   0  0  0  0  0  0  0  0  0  0  0  0
   17.2144   -1.2474    0.0000 C   0  0  0  0  0  0  0  0  0  0  0  0
   17.9628   -1.6216    0.0000 C   0  0  0  0  0  0  0  0  0  0  0  0
   18.7112   -2.9314    0.0000 C   0  0  0  0  0  0  0  0  0  0  0  0
  1 22  1  0  0  0  0
  1 32  1  0  0  0  0
  2 18  1  0  0  0  0
  2 47  1  0  0  0  0
  3 27  2  0  0  0  0
  4 29  2  0  0  0  0
  5 49  2  0  0  0  0
  6 53  1  0  0  0  0
  6 54  1  0  0  0  0
  7 55  1  0  0  0  0
  7 56  1  0  0  0  0
  8 57  1  0  0  0  0
  8 58  1  0  0  0  0
  9 17  1  0  0  0  0
  9 27  1  0  0  0  0
 10 21  1  0  0  0  0
 10 27  1  0  0  0  0
 11 36  1  0  0  0  0
 11 41  1  0  0  0  0
 12 29  1  0  0  0  0
 13 36  1  0  0  0  0
 13 44  2  0  0  0  0
 14 49  1  0  0  0  0
 14 51  1  0  0  0  0
 15 16  2  0  0  0  0
 15 21  1  0  0  0  0
 15 30  1  0  0  0  0
 16 22  1  0  0  0  0
 16 31  1  0  0  0  0
 17 18  1  0  0  0  0
 17 23  2  0  0  0  0
 18 19  2  0  0  0  0
 19 24  1  0  0  0  0
 19 29  1  0  0  0  0
 20 23  1  0  0  0  0
 20 24  2  0  0  0  0
 20 25  1  0  0  0  0
 21 26  2  0  0  0  0
 22 28  2  0  0  0  0
 25 37  1  0  0  0  0
 25 38  1  0  0  0  0
 25 39  1  0  0  0  0
 26 28  1  0  0  0  0
 30 33  2  0  0  0  0
 31 34  2  0  0  0  0
 32 35  1  0  0  0  0
 32 40  2  0  0  0  0
 33 34  1  0  0  0  0
 35 36  2  0  0  0  0
 40 44  1  0  0  0  0
 41 43  1  0  0  0  0
 41 46  2  0  0  0  0
 42 43  2  0  0  0  0
 42 48  1  0  0  0  0
 42 49  1  0  0  0  0
 45 46  1  0  0  0  0
 45 48  2  0  0  0  0
 45 50  1  0  0  0  0
 50 52  3  0  0  0  0
 51 53  1  0  0  0  0
 54 55  1  0  0  0  0
 56 57  1  0  0  0  0
M  END
> <PUBCHEM_COMPOUND_ID_TYPE>
0

> <PUBCHEM_TOTAL_CHARGE>
0

> <PUBCHEM_SUBSTANCE_ID>
310929141

> <PUBCHEM_SUBSTANCE_VERSION>
1

> <PUBCHEM_EXT_DATASOURCE_NAME>
4488

> <PUBCHEM_EXT_DATASOURCE_REGID>
SCHEMBL16106304

> <PUBCHEM_SUBSTANCE_COMMENT>
InChI=1S/C44H48N6O8/c1-7-28-22-29(42(52)47-16-17-56-20-21-57-19-18-54-5)24-31(23-28)48-39-27-32(14-15-46-39)58-38-13-12-36(33-10-8-9-11-34(33)38)49-43(53)50-37-26-30(44(2,3)4)25-35(41(45)51)40(37)55-6/h1,8-15,22-27H,16-21H2,2-6H3,(H2,45,51)(H,46,48)(H,47,52)(H2,49,50,53)
InChIKey=ROHKWIKFDODYPM-UHFFFAOYSA-N

> <PUBCHEM_SUBSTANCE_SYNONYM>
SCHEMBL16106304

> <PUBCHEM_XREF_EXT_ID>
SCHEMBL16106304

> <PUBCHEM_EXT_DATASOURCE_URL>
https://www.surechembl.org/

> <PUBCHEM_EXT_SUBSTANCE_URL>
https://www.surechembl.org/chemical/SCHEMBL16106304

> <PUBCHEM_CID_ASSOCIATIONS>
86274499  1

> <PUBCHEM_COORDINATE_TYPE>
1
3

$$$$
