310943272
  -OEChem-07211613022D

 34 37  0     0  0  0  0  0  0999 V2000
   -1.7160    2.0548    0.0000 Cl  0  0  0  0  0  0  0  0  0  0  0  0
    3.9107    0.3020    0.0000 F   0  0  0  0  0  0  0  0  0  0  0  0
    4.7355    0.3020    0.0000 F   0  0  0  0  0  0  0  0  0  0  0  0
    5.0448   -0.8322    0.0000 F   0  0  0  0  0  0  0  0  0  0  0  0
   -3.6014   -0.8469    0.0000 O   0  0  0  0  0  0  0  0  0  0  0  0
    0.7144   -0.8469    0.0000 O   0  0  0  0  0  0  0  0  0  0  0  0
   -5.0448    1.6423    0.0000 O   0  0  0  0  0  0  0  0  0  0  0  0
   -3.6014    0.8175    0.0000 N   0  0  0  0  0  0  0  0  0  0  0  0
   -2.1726   -0.8322    0.0000 N   0  0  0  0  0  0  0  0  0  0  0  0
    1.4361    0.4051    0.0000 N   0  0  0  0  0  0  0  0  0  0  0  0
   -0.0073    2.0695    0.0000 N   0  0  0  0  0  0  0  0  0  0  0  0
    3.6014   -1.6571    0.0000 N   0  0  0  0  0  0  0  0  0  0  0  0
    2.8796   -2.0695    0.0000 N   0  0  0  0  0  0  0  0  0  0  0  0
   -0.7292    0.8175    0.0000 C   0  0  0  0  0  0  0  0  0  0  0  0
   -1.4361    0.4051    0.0000 C   0  0  0  0  0  0  0  0  0  0  0  0
   -2.8796    0.4051    0.0000 C   0  0  0  0  0  0  0  0  0  0  0  0
   -2.1726    0.8175    0.0000 C   0  0  0  0  0  0  0  0  0  0  0  0
   -2.8944   -0.4198    0.0000 C   0  0  0  0  0  0  0  0  0  0  0  0
   -0.7144    1.6423    0.0000 C   0  0  0  0  0  0  0  0  0  0  0  0
    0.7144    0.8175    0.0000 C   0  0  0  0  0  0  0  0  0  0  0  0
    0.0221    0.4051    0.0000 C   0  0  0  0  0  0  0  0  0  0  0  0
   -1.4509   -0.4345    0.0000 C   0  0  0  0  0  0  0  0  0  0  0  0
    2.1726   -0.8322    0.0000 C   0  0  0  0  0  0  0  0  0  0  0  0
    3.6014   -0.8322    0.0000 C   0  0  0  0  0  0  0  0  0  0  0  0
    1.4509   -0.4051    0.0000 C   0  0  0  0  0  0  0  0  0  0  0  0
    4.3231   -0.4051    0.0000 C   0  0  0  0  0  0  0  0  0  0  0  0
    2.8796   -0.4198    0.0000 C   0  0  0  0  0  0  0  0  0  0  0  0
    0.7292    1.6423    0.0000 C   0  0  0  0  0  0  0  0  0  0  0  0
    2.1579   -1.6571    0.0000 C   0  0  0  0  0  0  0  0  0  0  0  0
   -3.6014    1.6423    0.0000 C   0  0  0  0  0  0  0  0  0  0  0  0
   -4.3379    0.4051    0.0000 C   0  0  0  0  0  0  0  0  0  0  0  0
   -4.3526    2.0548    0.0000 C   0  0  0  0  0  0  0  0  0  0  0  0
   -5.0448    0.8175    0.0000 C   0  0  0  0  0  0  0  0  0  0  0  0
   -3.5866   -1.6866    0.0000 C   0  0  0  0  0  0  0  0  0  0  0  0
  1 19  1  0  0  0  0
  2 26  1  0  0  0  0
  3 26  1  0  0  0  0
  4 26  1  0  0  0  0
  5 18  1  0  0  0  0
  5 34  1  0  0  0  0
  6 25  2  0  0  0  0
  7 32  1  0  0  0  0
  7 33  1  0  0  0  0
  8 16  1  0  0  0  0
  8 30  1  0  0  0  0
  8 31  1  0  0  0  0
  9 18  2  0  0  0  0
  9 22  1  0  0  0  0
 10 20  1  0  0  0  0
 10 25  1  0  0  0  0
 11 19  1  0  0  0  0
 11 28  2  0  0  0  0
 12 13  2  0  0  0  0
 12 24  1  0  0  0  0
 13 29  1  0  0  0  0
 14 15  1  0  0  0  0
 14 19  2  0  0  0  0
 14 21  1  0  0  0  0
 15 17  1  0  0  0  0
 15 22  2  0  0  0  0
 16 17  2  0  0  0  0
 16 18  1  0  0  0  0
 20 21  2  0  0  0  0
 20 28  1  0  0  0  0
 23 25  1  0  0  0  0
 23 27  1  0  0  0  0
 23 29  2  0  0  0  0
 24 26  1  0  0  0  0
 24 27  2  0  0  0  0
 30 32  1  0  0  0  0
 31 33  1  0  0  0  0
M  END
> <PUBCHEM_COMPOUND_ID_TYPE>
0

> <PUBCHEM_TOTAL_CHARGE>
0

> <PUBCHEM_SUBSTANCE_ID>
310943272

> <PUBCHEM_SUBSTANCE_VERSION>
1

> <PUBCHEM_EXT_DATASOURCE_NAME>
4488

> <PUBCHEM_EXT_DATASOURCE_REGID>
SCHEMBL16121334

> <PUBCHEM_SUBSTANCE_COMMENT>
InChI=1S/C21H18ClF3N6O3/c1-33-20-16(31-2-4-34-5-3-31)6-12(9-27-20)15-8-14(11-26-18(15)22)29-19(32)13-7-17(21(23,24)25)30-28-10-13/h6-11H,2-5H2,1H3,(H,29,32)
InChIKey=TVAZZBBGPAWQMQ-UHFFFAOYSA-N

> <PUBCHEM_SUBSTANCE_SYNONYM>
SCHEMBL16121334

> <PUBCHEM_XREF_EXT_ID>
SCHEMBL16121334

> <PUBCHEM_EXT_DATASOURCE_URL>
https://www.surechembl.org/

> <PUBCHEM_EXT_SUBSTANCE_URL>
https://www.surechembl.org/chemical/SCHEMBL16121334

> <PUBCHEM_CID_ASSOCIATIONS>
117609697  1

> <PUBCHEM_COORDINATE_TYPE>
1
3

$$$$
