310940254
  -OEChem-07211613022D

 15 16  0     0  0  0  0  0  0999 V2000
    0.7335    0.5316    0.0000 O   0  0  0  0  0  0  0  0  0  0  0  0
   -1.9717    0.9488    0.0000 N   0  0  0  0  0  0  0  0  0  0  0  0
   -1.5680    1.6622    0.0000 N   0  0  0  0  0  0  0  0  0  0  0  0
   -0.1009   -0.6258    0.0000 N   0  0  0  0  0  0  0  0  0  0  0  0
   -0.1548    2.0390    0.0000 N   0  0  0  0  0  0  0  0  0  0  0  0
   -0.6931    0.6931    0.0000 C   0  0  0  0  0  0  0  0  0  0  0  0
   -1.4199    0.3567    0.0000 C   0  0  0  0  0  0  0  0  0  0  0  0
   -0.0067    0.2086    0.0000 C   0  0  0  0  0  0  0  0  0  0  0  0
   -0.7604    1.5007    0.0000 C   0  0  0  0  0  0  0  0  0  0  0  0
   -1.5007   -0.4643    0.0000 C   0  0  0  0  0  0  0  0  0  0  0  0
   -0.8142   -0.9353    0.0000 C   0  0  0  0  0  0  0  0  0  0  0  0
    1.3795    0.0740    0.0000 C   0  0  0  0  0  0  0  0  0  0  0  0
    1.2853   -0.7469    0.0000 C   0  0  0  0  0  0  0  0  0  0  0  0
    1.9717   -1.2180    0.0000 C   0  0  0  0  0  0  0  0  0  0  0  0
    1.8909   -2.0390    0.0000 C   0  0  0  0  0  0  0  0  0  0  0  0
  1  8  1  0  0  0  0
  1 12  1  0  0  0  0
  2  3  1  0  0  0  0
  2  7  1  0  0  0  0
  3  9  2  0  0  0  0
  4  8  2  0  0  0  0
  4 11  1  0  0  0  0
  5  9  1  0  0  0  0
  6  7  2  0  0  0  0
  6  8  1  0  0  0  0
  6  9  1  0  0  0  0
  7 10  1  0  0  0  0
 10 11  2  0  0  0  0
 12 13  1  0  0  0  0
 13 14  1  0  0  0  0
 14 15  1  0  0  0  0
M  END
> <PUBCHEM_COMPOUND_ID_TYPE>
0

> <PUBCHEM_TOTAL_CHARGE>
0

> <PUBCHEM_SUBSTANCE_ID>
310940254

> <PUBCHEM_SUBSTANCE_VERSION>
1

> <PUBCHEM_EXT_DATASOURCE_NAME>
4488

> <PUBCHEM_EXT_DATASOURCE_REGID>
SCHEMBL16118196

> <PUBCHEM_SUBSTANCE_COMMENT>
InChI=1S/C10H14N4O/c1-2-3-6-15-10-8-7(4-5-12-10)13-14-9(8)11/h4-5H,2-3,6H2,1H3,(H3,11,13,14)
InChIKey=LIGDARZIPGJZDK-UHFFFAOYSA-N

> <PUBCHEM_SUBSTANCE_SYNONYM>
SCHEMBL16118196

> <PUBCHEM_XREF_EXT_ID>
SCHEMBL16118196

> <PUBCHEM_EXT_DATASOURCE_URL>
https://www.surechembl.org/

> <PUBCHEM_EXT_SUBSTANCE_URL>
https://www.surechembl.org/chemical/SCHEMBL16118196

> <PUBCHEM_CID_ASSOCIATIONS>
117607343  1

> <PUBCHEM_COORDINATE_TYPE>
1
3

$$$$
