310949883
  -OEChem-07211613022D

 31 35  0     1  0  0  0  0  0999 V2000
   -3.4368    3.0089    0.0000 F   0  0  0  0  0  0  0  0  0  0  0  0
    2.7605    3.0779    0.0000 O   0  0  0  0  0  0  0  0  0  0  0  0
   -0.5107    1.5183    0.0000 N   0  0  0  0  0  0  0  0  0  0  0  0
   -0.5107    2.8571    0.0000 N   0  0  0  0  0  0  0  0  0  0  0  0
    1.2837    1.5183    0.0000 N   0  0  0  0  0  0  0  0  0  0  0  0
    0.2623   -0.8420    0.0000 N   0  0  0  0  0  0  0  0  0  0  0  0
   -0.0276    2.1946    0.0000 C   0  0  0  0  0  0  0  0  0  0  0  0
   -1.2975    1.7943    0.0000 C   0  0  0  0  0  0  0  0  0  0  0  0
   -1.2837    2.6086    0.0000 C   0  0  0  0  0  0  0  0  0  0  0  0
   -0.2485    0.7454    0.0000 C   0  0  0  0  0  0  0  0  0  0  0  0
    0.8282    2.1669    0.0000 C   0  0  3  0  0  0  0  0  0  0  0  0
   -2.0013    1.3665    0.0000 C   0  0  0  0  0  0  0  0  0  0  0  0
   -2.0151    2.9951    0.0000 C   0  0  0  0  0  0  0  0  0  0  0  0
   -2.7191    2.6086    0.0000 C   0  0  0  0  0  0  0  0  0  0  0  0
    1.2837    2.8433    0.0000 C   0  0  0  0  0  0  0  0  0  0  0  0
   -0.7868    0.1242    0.0000 C   0  0  0  0  0  0  0  0  0  0  0  0
    0.5521    0.5659    0.0000 C   0  0  0  0  0  0  0  0  0  0  0  0
   -2.7191    1.7805    0.0000 C   0  0  0  0  0  0  0  0  0  0  0  0
    2.0841    2.5948    0.0000 C   0  0  3  0  0  0  0  0  0  0  0  0
    2.0703    1.7667    0.0000 C   0  0  0  0  0  0  0  0  0  0  0  0
   -0.5383   -0.6625    0.0000 C   0  0  0  0  0  0  0  0  0  0  0  0
    0.8144   -0.2208    0.0000 C   0  0  0  0  0  0  0  0  0  0  0  0
    0.5245   -1.6149    0.0000 C   0  0  0  0  0  0  0  0  0  0  0  0
    1.3251   -1.7943    0.0000 C   0  0  0  0  0  0  0  0  0  0  0  0
    1.4907   -2.6224    0.0000 C   0  0  0  0  0  0  0  0  0  0  0  0
    1.8219   -1.1180    0.0000 C   0  0  0  0  0  0  0  0  0  0  0  0
    2.1669   -3.0779    0.0000 C   0  0  0  0  0  0  0  0  0  0  0  0
    2.6362   -0.9800    0.0000 C   0  0  0  0  0  0  0  0  0  0  0  0
    3.2850   -1.4355    0.0000 C   0  0  0  0  0  0  0  0  0  0  0  0
    2.9675   -2.9261    0.0000 C   0  0  0  0  0  0  0  0  0  0  0  0
    3.4368   -2.2498    0.0000 C   0  0  0  0  0  0  0  0  0  0  0  0
  1 14  1  0  0  0  0
 19  2  1  1  0  0  0
  3  7  1  0  0  0  0
  3  8  1  0  0  0  0
  3 10  1  0  0  0  0
  4  7  2  0  0  0  0
  4  9  1  0  0  0  0
  5 11  1  0  0  0  0
  5 20  1  0  0  0  0
  6 21  1  0  0  0  0
  6 22  1  0  0  0  0
  6 23  1  0  0  0  0
  7 11  1  0  0  0  0
  8  9  1  0  0  0  0
  8 12  2  0  0  0  0
  9 13  2  0  0  0  0
 10 16  1  0  0  0  0
 10 17  1  0  0  0  0
 11 15  1  6  0  0  0
 12 18  1  0  0  0  0
 13 14  1  0  0  0  0
 14 18  2  0  0  0  0
 15 19  1  0  0  0  0
 16 21  1  0  0  0  0
 17 22  1  0  0  0  0
 19 20  1  0  0  0  0
 23 24  1  0  0  0  0
 24 25  1  0  0  0  0
 24 26  1  0  0  0  0
 25 27  1  0  0  0  0
 26 28  1  0  0  0  0
 27 30  1  0  0  0  0
 28 29  1  0  0  0  0
 29 31  1  0  0  0  0
 30 31  1  0  0  0  0
M  END
> <PUBCHEM_COMPOUND_ID_TYPE>
0

> <PUBCHEM_TOTAL_CHARGE>
0

> <PUBCHEM_SUBSTANCE_ID>
310949883

> <PUBCHEM_SUBSTANCE_VERSION>
1

> <PUBCHEM_EXT_DATASOURCE_NAME>
4488

> <PUBCHEM_EXT_DATASOURCE_REGID>
SCHEMBL16128094

> <PUBCHEM_SUBSTANCE_COMMENT>
InChI=1S/C25H37FN4O/c26-19-8-9-24-22(14-19)28-25(23-15-21(31)16-27-23)30(24)20-10-12-29(13-11-20)17-18-6-4-2-1-3-5-7-18/h8-9,14,18,20-21,23,27,31H,1-7,10-13,15-17H2/t21-,23+/m1/s1
InChIKey=YVCLKBNQFYHCRX-GGAORHGYSA-N

> <PUBCHEM_SUBSTANCE_SYNONYM>
SCHEMBL16128094

> <PUBCHEM_XREF_EXT_ID>
SCHEMBL16128094

> <PUBCHEM_EXT_DATASOURCE_URL>
https://www.surechembl.org/

> <PUBCHEM_EXT_SUBSTANCE_URL>
https://www.surechembl.org/chemical/SCHEMBL16128094

> <PUBCHEM_CID_ASSOCIATIONS>
86273086  1

> <PUBCHEM_COORDINATE_TYPE>
1
3

> <PUBCHEM_BONDANNOTATIONS>
11  15  6
19  2  5

$$$$
