310940701
  -OEChem-07211613022D

 15 15  0     0  0  0  0  0  0999 V2000
   -0.1000    0.2062    0.0000 N   0  0  0  0  0  0  0  0  0  0  0  0
   -0.8249   -1.0686    0.0000 N   0  0  0  0  0  0  0  0  0  0  0  0
   -1.4123    0.2062    0.0000 N   0  0  0  0  0  0  0  0  0  0  0  0
    0.6125   -0.2062    0.0000 C   0  0  0  0  0  0  0  0  0  0  0  0
   -0.1125    1.0436    0.0000 C   0  0  0  0  0  0  0  0  0  0  0  0
    0.5999    0.6187    0.0000 C   0  0  0  0  0  0  0  0  0  0  0  0
    0.6125   -1.0436    0.0000 C   0  0  0  0  0  0  0  0  0  0  0  0
   -0.8374    1.4561    0.0000 C   0  0  0  0  0  0  0  0  0  0  0  0
   -0.1000   -1.4561    0.0000 C   0  0  0  0  0  0  0  0  0  0  0  0
   -1.5373    1.0436    0.0000 C   0  0  0  0  0  0  0  0  0  0  0  0
    1.4623    0.6187    0.0000 C   0  0  0  0  0  0  0  0  0  0  0  0
   -2.2622   -0.2062    0.0000 C   0  0  0  0  0  0  0  0  0  0  0  0
   -1.5373   -1.4561    0.0000 C   0  0  0  0  0  0  0  0  0  0  0  0
   -2.2747   -1.0311    0.0000 C   0  0  0  0  0  0  0  0  0  0  0  0
    2.2747    0.6312    0.0000 C   0  0  0  0  0  0  0  0  0  0  0  0
  1  4  1  0  0  0  0
  1  5  1  0  0  0  0
  1  6  1  0  0  0  0
  2  9  1  0  0  0  0
  2 13  1  0  0  0  0
  3 10  1  0  0  0  0
  3 12  1  0  0  0  0
  4  7  1  0  0  0  0
  5  8  1  0  0  0  0
  6 11  1  0  0  0  0
  7  9  1  0  0  0  0
  8 10  1  0  0  0  0
 11 15  3  0  0  0  0
 12 14  1  0  0  0  0
 13 14  1  0  0  0  0
M  END
> <PUBCHEM_COMPOUND_ID_TYPE>
0

> <PUBCHEM_TOTAL_CHARGE>
0

> <PUBCHEM_SUBSTANCE_ID>
310940701

> <PUBCHEM_SUBSTANCE_VERSION>
1

> <PUBCHEM_EXT_DATASOURCE_NAME>
4488

> <PUBCHEM_EXT_DATASOURCE_REGID>
SCHEMBL16118657

> <PUBCHEM_SUBSTANCE_COMMENT>
InChI=1S/C12H23N3/c1-2-10-15-11-4-8-13-6-3-7-14-9-5-12-15/h1,13-14H,3-12H2
InChIKey=KHCZNKJWBRYOGU-UHFFFAOYSA-N

> <PUBCHEM_SUBSTANCE_SYNONYM>
SCHEMBL16118657

> <PUBCHEM_XREF_EXT_ID>
SCHEMBL16118657

> <PUBCHEM_EXT_DATASOURCE_URL>
https://www.surechembl.org/

> <PUBCHEM_EXT_SUBSTANCE_URL>
https://www.surechembl.org/chemical/SCHEMBL16118657

> <PUBCHEM_CID_ASSOCIATIONS>
117607661  1

> <PUBCHEM_COORDINATE_TYPE>
1
3

$$$$
