310943339
  -OEChem-07211613022D

 20 22  0     0  0  0  0  0  0999 V2000
    2.1156    1.6666    0.0000 Cl  0  0  0  0  0  0  0  0  0  0  0  0
    2.1004   -1.6666    0.0000 Cl  0  0  0  0  0  0  0  0  0  0  0  0
    3.5159    0.8295    0.0000 Cl  0  0  0  0  0  0  0  0  0  0  0  0
    3.5006   -0.8903    0.0000 Cl  0  0  0  0  0  0  0  0  0  0  0  0
   -3.5159    0.0076    0.0000 Cl  0  0  0  0  0  0  0  0  0  0  0  0
    0.5936    0.6773    0.0000 N   0  0  0  0  0  0  0  0  0  0  0  0
    0.5783   -0.6773    0.0000 N   0  0  0  0  0  0  0  0  0  0  0  0
    1.3698    0.4034    0.0000 C   0  0  0  0  0  0  0  0  0  0  0  0
    1.3698   -0.4185    0.0000 C   0  0  0  0  0  0  0  0  0  0  0  0
    2.0852    0.8143    0.0000 C   0  0  0  0  0  0  0  0  0  0  0  0
    2.1004   -0.8447    0.0000 C   0  0  0  0  0  0  0  0  0  0  0  0
    0.1065   -0.0076    0.0000 C   0  0  0  0  0  0  0  0  0  0  0  0
    2.8006    0.3881    0.0000 C   0  0  0  0  0  0  0  0  0  0  0  0
    2.8006   -0.4185    0.0000 C   0  0  0  0  0  0  0  0  0  0  0  0
   -0.7305   -0.0076    0.0000 C   0  0  0  0  0  0  0  0  0  0  0  0
   -1.1568    0.7078    0.0000 C   0  0  0  0  0  0  0  0  0  0  0  0
   -1.1568   -0.7229    0.0000 C   0  0  0  0  0  0  0  0  0  0  0  0
   -1.9330    0.7078    0.0000 C   0  0  0  0  0  0  0  0  0  0  0  0
   -1.9787   -0.7078    0.0000 C   0  0  0  0  0  0  0  0  0  0  0  0
   -2.3743   -0.0076    0.0000 C   0  0  0  0  0  0  0  0  0  0  0  0
  1 10  1  0  0  0  0
  2 11  1  0  0  0  0
  3 13  1  0  0  0  0
  4 14  1  0  0  0  0
  5 20  1  0  0  0  0
  6  8  1  0  0  0  0
  6 12  2  0  0  0  0
  7  9  1  0  0  0  0
  7 12  1  0  0  0  0
  8  9  2  0  0  0  0
  8 10  1  0  0  0  0
  9 11  1  0  0  0  0
 10 13  2  0  0  0  0
 11 14  2  0  0  0  0
 12 15  1  0  0  0  0
 13 14  1  0  0  0  0
 15 16  2  0  0  0  0
 15 17  1  0  0  0  0
 16 18  1  0  0  0  0
 17 19  2  0  0  0  0
 18 20  2  0  0  0  0
 19 20  1  0  0  0  0
M  END
> <PUBCHEM_COMPOUND_ID_TYPE>
0

> <PUBCHEM_TOTAL_CHARGE>
0

> <PUBCHEM_SUBSTANCE_ID>
310943339

> <PUBCHEM_SUBSTANCE_VERSION>
1

> <PUBCHEM_EXT_DATASOURCE_NAME>
4488

> <PUBCHEM_EXT_DATASOURCE_REGID>
SCHEMBL16121402

> <PUBCHEM_SUBSTANCE_COMMENT>
InChI=1S/C13H5Cl5N2/c14-6-3-1-5(2-4-6)13-19-11-9(17)7(15)8(16)10(18)12(11)20-13/h1-4H,(H,19,20)
InChIKey=WPSJVMBCWWJOPY-UHFFFAOYSA-N

> <PUBCHEM_SUBSTANCE_SYNONYM>
SCHEMBL16121402

> <PUBCHEM_XREF_EXT_ID>
SCHEMBL16121402

> <PUBCHEM_EXT_DATASOURCE_URL>
https://www.surechembl.org/

> <PUBCHEM_EXT_SUBSTANCE_URL>
https://www.surechembl.org/chemical/SCHEMBL16121402

> <PUBCHEM_CID_ASSOCIATIONS>
78319094  1

> <PUBCHEM_COORDINATE_TYPE>
1
3

$$$$
