310929188
  -OEChem-07211613022D

 58 63  0     0  0  0  0  0  0999 V2000
    1.4558   -0.7279    0.0000 S   0  0  0  0  0  0  0  0  0  0  0  0
    3.7852   -2.1352    0.0000 O   0  0  0  0  0  0  0  0  0  0  0  0
    6.5027   -1.9411    0.0000 O   0  0  0  0  0  0  0  0  0  0  0  0
    2.9117   -4.9013    0.0000 O   0  0  0  0  0  0  0  0  0  0  0  0
    0.9706   -1.5044    0.0000 O   0  0  0  0  0  0  0  0  0  0  0  0
    1.8441    0.0000    0.0000 O   0  0  0  0  0  0  0  0  0  0  0  0
    9.4630   -6.9395    0.0000 O   0  0  0  0  0  0  0  0  0  0  0  0
   10.8703   -3.5911    0.0000 O   0  0  0  0  0  0  0  0  0  0  0  0
    3.5911   -3.6396    0.0000 N   0  0  0  0  0  0  0  0  0  0  0  0
    2.1838   -1.1161    0.0000 N   0  0  0  0  0  0  0  0  0  0  0  0
    4.3190   -4.9013    0.0000 N   0  0  0  0  0  0  0  0  0  0  0  0
    8.0071   -4.4160    0.0000 N   0  0  0  0  0  0  0  0  0  0  0  0
    8.6865   -3.1543    0.0000 N   0  0  0  0  0  0  0  0  0  0  0  0
   11.6467   -4.8528    0.0000 N   0  0  0  0  0  0  0  0  0  0  0  0
   13.1026   -3.1543    0.0000 N   0  0  0  0  0  0  0  0  0  0  0  0
   14.5584   -2.3294    0.0000 N   0  0  0  0  0  0  0  0  0  0  0  0
    2.8631   -3.2028    0.0000 C   0  0  0  0  0  0  0  0  0  0  0  0
    4.3190   -3.2028    0.0000 C   0  0  0  0  0  0  0  0  0  0  0  0
    4.3190   -2.4264    0.0000 C   0  0  0  0  0  0  0  0  0  0  0  0
    2.8631   -2.3779    0.0000 C   0  0  0  0  0  0  0  0  0  0  0  0
    5.0469   -1.9897    0.0000 C   0  0  0  0  0  0  0  0  0  0  0  0
    2.1352   -1.9897    0.0000 C   0  0  0  0  0  0  0  0  0  0  0  0
    1.4558   -3.2514    0.0000 C   0  0  0  0  0  0  0  0  0  0  0  0
    2.1352   -3.6396    0.0000 C   0  0  0  0  0  0  0  0  0  0  0  0
    5.7748   -2.3779    0.0000 C   0  0  0  0  0  0  0  0  0  0  0  0
    3.5911   -4.4646    0.0000 C   0  0  0  0  0  0  0  0  0  0  0  0
    5.0954   -3.6396    0.0000 C   0  0  0  0  0  0  0  0  0  0  0  0
    1.4558   -2.3779    0.0000 C   0  0  0  0  0  0  0  0  0  0  0  0
    0.6794   -3.6396    0.0000 C   0  0  0  0  0  0  0  0  0  0  0  0
    5.7748   -3.2028    0.0000 C   0  0  0  0  0  0  0  0  0  0  0  0
    3.5911   -1.9897    0.0000 C   0  0  0  0  0  0  0  0  0  0  0  0
    5.0469   -1.1647    0.0000 C   0  0  0  0  0  0  0  0  0  0  0  0
    3.5911   -1.1647    0.0000 C   0  0  0  0  0  0  0  0  0  0  0  0
    4.3190   -0.7279    0.0000 C   0  0  0  0  0  0  0  0  0  0  0  0
    7.2306   -2.3779    0.0000 C   0  0  0  0  0  0  0  0  0  0  0  0
    0.2912   -2.9117    0.0000 C   0  0  0  0  0  0  0  0  0  0  0  0
    0.0000   -4.0763    0.0000 C   0  0  0  0  0  0  0  0  0  0  0  0
    1.1161   -4.3675    0.0000 C   0  0  0  0  0  0  0  0  0  0  0  0
    7.2306   -3.2028    0.0000 C   0  0  0  0  0  0  0  0  0  0  0  0
    3.7367   -1.3103    0.0000 C   0  0  0  0  0  0  0  0  0  0  0  0
    8.0071   -3.5911    0.0000 C   0  0  0  0  0  0  0  0  0  0  0  0
    7.9586   -1.9411    0.0000 C   0  0  0  0  0  0  0  0  0  0  0  0
    0.7279   -0.2912    0.0000 C   0  0  0  0  0  0  0  0  0  0  0  0
    8.6865   -4.8528    0.0000 C   0  0  0  0  0  0  0  0  0  0  0  0
    8.6865   -2.3294    0.0000 C   0  0  0  0  0  0  0  0  0  0  0  0
   10.1424   -4.8528    0.0000 C   0  0  0  0  0  0  0  0  0  0  0  0
    9.4630   -4.4160    0.0000 C   0  0  0  0  0  0  0  0  0  0  0  0
    8.6865   -5.6778    0.0000 C   0  0  0  0  0  0  0  0  0  0  0  0
    9.4630   -6.1145    0.0000 C   0  0  0  0  0  0  0  0  0  0  0  0
   10.1424   -5.6778    0.0000 C   0  0  0  0  0  0  0  0  0  0  0  0
   10.8703   -4.4160    0.0000 C   0  0  0  0  0  0  0  0  0  0  0  0
   12.3746   -4.4160    0.0000 C   0  0  0  0  0  0  0  0  0  0  0  0
   10.1909   -7.3763    0.0000 C   0  0  0  0  0  0  0  0  0  0  0  0
   12.3746   -3.5911    0.0000 C   0  0  0  0  0  0  0  0  0  0  0  0
   13.8305   -3.5911    0.0000 C   0  0  0  0  0  0  0  0  0  0  0  0
   13.1026   -2.3294    0.0000 C   0  0  0  0  0  0  0  0  0  0  0  0
   13.8305   -1.9411    0.0000 C   0  0  0  0  0  0  0  0  0  0  0  0
   14.5584   -3.2028    0.0000 C   0  0  0  0  0  0  0  0  0  0  0  0
  1  5  2  0  0  0  0
  1  6  2  0  0  0  0
  1 10  1  0  0  0  0
  1 43  1  0  0  0  0
  2 20  1  0  0  0  0
  2 40  1  0  0  0  0
  3 25  1  0  0  0  0
  3 35  1  0  0  0  0
  4 26  2  0  0  0  0
  7 49  1  0  0  0  0
  7 53  1  0  0  0  0
  8 51  2  0  0  0  0
  9 17  1  0  0  0  0
  9 18  1  0  0  0  0
  9 26  1  0  0  0  0
 10 22  1  0  0  0  0
 11 26  1  0  0  0  0
 12 41  1  0  0  0  0
 12 44  1  0  0  0  0
 13 41  2  0  0  0  0
 13 45  1  0  0  0  0
 14 51  1  0  0  0  0
 14 52  1  0  0  0  0
 15 54  1  0  0  0  0
 15 55  1  0  0  0  0
 15 56  1  0  0  0  0
 16 57  1  0  0  0  0
 16 58  1  0  0  0  0
 17 20  1  0  0  0  0
 17 24  2  0  0  0  0
 18 19  1  0  0  0  0
 18 27  2  0  0  0  0
 19 21  2  0  0  0  0
 19 31  1  0  0  0  0
 20 22  2  0  0  0  0
 21 25  1  0  0  0  0
 21 32  1  0  0  0  0
 22 28  1  0  0  0  0
 23 24  1  0  0  0  0
 23 28  2  0  0  0  0
 23 29  1  0  0  0  0
 25 30  2  0  0  0  0
 27 30  1  0  0  0  0
 29 36  1  0  0  0  0
 29 37  1  0  0  0  0
 29 38  1  0  0  0  0
 31 33  2  0  0  0  0
 32 34  2  0  0  0  0
 33 34  1  0  0  0  0
 35 39  2  0  0  0  0
 35 42  1  0  0  0  0
 39 41  1  0  0  0  0
 42 45  2  0  0  0  0
 44 47  1  0  0  0  0
 44 48  2  0  0  0  0
 46 47  2  0  0  0  0
 46 50  1  0  0  0  0
 46 51  1  0  0  0  0
 48 49  1  0  0  0  0
 49 50  2  0  0  0  0
 52 54  1  0  0  0  0
 55 58  1  0  0  0  0
 56 57  1  0  0  0  0
M  END
> <PUBCHEM_COMPOUND_ID_TYPE>
0

> <PUBCHEM_TOTAL_CHARGE>
0

> <PUBCHEM_SUBSTANCE_ID>
310929188

> <PUBCHEM_SUBSTANCE_VERSION>
1

> <PUBCHEM_EXT_DATASOURCE_NAME>
4488

> <PUBCHEM_EXT_DATASOURCE_REGID>
SCHEMBL16106351

> <PUBCHEM_SUBSTANCE_COMMENT>
InChI=1S/C42H50N8O7S/c1-42(2,3)28-23-34(48-58(6,53)54)39(56-5)36(24-28)50(41(43)52)35-11-12-37(33-10-8-7-9-32(33)35)57-30-13-14-45-38(26-30)47-29-21-27(22-31(25-29)55-4)40(51)46-17-20-49-18-15-44-16-19-49/h7-14,21-26,44,48H,15-20H2,1-6H3,(H2,43,52)(H,45,47)(H,46,51)
InChIKey=UTGVYJMJRQCEHM-UHFFFAOYSA-N

> <PUBCHEM_SUBSTANCE_SYNONYM>
SCHEMBL16106351

> <PUBCHEM_XREF_EXT_ID>
SCHEMBL16106351

> <PUBCHEM_EXT_DATASOURCE_URL>
https://www.surechembl.org/

> <PUBCHEM_EXT_SUBSTANCE_URL>
https://www.surechembl.org/chemical/SCHEMBL16106351

> <PUBCHEM_CID_ASSOCIATIONS>
117598642  1

> <PUBCHEM_COORDINATE_TYPE>
1
3

$$$$
