310934102
  -OEChem-07211613022D

 37 41  0     0  0  0  0  0  0999 V2000
    9.8761   -4.9051    0.0000 F   0  0  0  0  0  0  0  0  0  0  0  0
    9.8761   -3.4237    0.0000 F   0  0  0  0  0  0  0  0  0  0  0  0
    9.0202   -4.8722    0.0000 F   0  0  0  0  0  0  0  0  0  0  0  0
    5.8269   -2.8970    0.0000 O   0  0  0  0  0  0  0  0  0  0  0  0
    2.8970   -1.2510    0.0000 N   0  0  0  0  0  0  0  0  0  0  0  0
    2.2057   -2.5020    0.0000 N   0  0  0  0  0  0  0  0  0  0  0  0
    4.4442   -1.3827    0.0000 N   0  0  0  0  0  0  0  0  0  0  0  0
    4.9381   -2.0410    0.0000 N   0  0  0  0  0  0  0  0  0  0  0  0
    2.9299   -3.7529    0.0000 N   0  0  0  0  0  0  0  0  0  0  0  0
    6.5512   -4.1480    0.0000 N   0  0  0  0  0  0  0  0  0  0  0  0
    0.0329   -1.2510    0.0000 N   0  0  0  0  0  0  0  0  0  0  0  0
    3.6542   -2.5020    0.0000 C   0  0  0  0  0  0  0  0  0  0  0  0
    3.6542   -1.6131    0.0000 C   0  0  0  0  0  0  0  0  0  0  0  0
    2.9299   -2.8970    0.0000 C   0  0  0  0  0  0  0  0  0  0  0  0
    2.2057   -1.6460    0.0000 C   0  0  0  0  0  0  0  0  0  0  0  0
    4.4442   -2.7324    0.0000 C   0  0  0  0  0  0  0  0  0  0  0  0
    3.6542   -4.1480    0.0000 C   0  0  0  0  0  0  0  0  0  0  0  0
    1.4814   -1.2510    0.0000 C   0  0  0  0  0  0  0  0  0  0  0  0
    3.6542   -5.0039    0.0000 C   0  0  0  0  0  0  0  0  0  0  0  0
    5.1026   -4.1480    0.0000 C   0  0  0  0  0  0  0  0  0  0  0  0
    4.3784   -3.7529    0.0000 C   0  0  0  0  0  0  0  0  0  0  0  0
    5.8269   -3.7529    0.0000 C   0  0  0  0  0  0  0  0  0  0  0  0
    0.7243   -1.6460    0.0000 C   0  0  0  0  0  0  0  0  0  0  0  0
    1.4485   -0.3950    0.0000 C   0  0  0  0  0  0  0  0  0  0  0  0
    4.3784   -5.3989    0.0000 C   0  0  0  0  0  0  0  0  0  0  0  0
    5.1026   -5.0039    0.0000 C   0  0  0  0  0  0  0  0  0  0  0  0
    8.7239   -3.7529    0.0000 C   0  0  0  0  0  0  0  0  0  0  0  0
    7.2754   -3.7529    0.0000 C   0  0  0  0  0  0  0  0  0  0  0  0
    5.7611   -2.0410    0.0000 C   0  0  0  0  0  0  0  0  0  0  0  0
    9.4481   -4.1480    0.0000 C   0  0  0  0  0  0  0  0  0  0  0  0
    7.9996   -4.1480    0.0000 C   0  0  0  0  0  0  0  0  0  0  0  0
    0.7243    0.0000    0.0000 C   0  0  0  0  0  0  0  0  0  0  0  0
    2.9299   -5.3989    0.0000 C   0  0  0  0  0  0  0  0  0  0  0  0
    8.7239   -2.8970    0.0000 C   0  0  0  0  0  0  0  0  0  0  0  0
    7.2754   -2.8970    0.0000 C   0  0  0  0  0  0  0  0  0  0  0  0
    0.0000   -0.3950    0.0000 C   0  0  0  0  0  0  0  0  0  0  0  0
    7.9996   -2.4690    0.0000 C   0  0  0  0  0  0  0  0  0  0  0  0
  1 30  1  0  0  0  0
  2 30  1  0  0  0  0
  3 30  1  0  0  0  0
  4 22  2  0  0  0  0
  5 13  1  0  0  0  0
  5 15  2  0  0  0  0
  6 14  2  0  0  0  0
  6 15  1  0  0  0  0
  7  8  1  0  0  0  0
  7 13  2  0  0  0  0
  8 16  1  0  0  0  0
  8 29  1  0  0  0  0
  9 14  1  0  0  0  0
  9 17  1  0  0  0  0
 10 22  1  0  0  0  0
 10 28  1  0  0  0  0
 11 23  1  0  0  0  0
 11 36  2  0  0  0  0
 12 13  1  0  0  0  0
 12 14  1  0  0  0  0
 12 16  2  0  0  0  0
 15 18  1  0  0  0  0
 17 19  2  0  0  0  0
 17 21  1  0  0  0  0
 18 23  2  0  0  0  0
 18 24  1  0  0  0  0
 19 25  1  0  0  0  0
 19 33  1  0  0  0  0
 20 21  2  0  0  0  0
 20 22  1  0  0  0  0
 20 26  1  0  0  0  0
 24 32  2  0  0  0  0
 25 26  2  0  0  0  0
 27 30  1  0  0  0  0
 27 31  2  0  0  0  0
 27 34  1  0  0  0  0
 28 31  1  0  0  0  0
 28 35  2  0  0  0  0
 32 36  1  0  0  0  0
 34 37  2  0  0  0  0
 35 37  1  0  0  0  0
M  END
> <PUBCHEM_COMPOUND_ID_TYPE>
0

> <PUBCHEM_TOTAL_CHARGE>
0

> <PUBCHEM_SUBSTANCE_ID>
310934102

> <PUBCHEM_SUBSTANCE_VERSION>
1

> <PUBCHEM_EXT_DATASOURCE_NAME>
4488

> <PUBCHEM_EXT_DATASOURCE_REGID>
SCHEMBL16111548

> <PUBCHEM_SUBSTANCE_COMMENT>
InChI=1S/C26H20F3N7O/c1-15-8-9-16(25(37)31-19-7-3-6-18(12-19)26(27,28)29)11-21(15)32-23-20-14-36(2)35-24(20)34-22(33-23)17-5-4-10-30-13-17/h3-14H,1-2H3,(H,31,37)(H,32,33,34,35)
InChIKey=MWKSRKSEWLRPBL-UHFFFAOYSA-N

> <PUBCHEM_SUBSTANCE_SYNONYM>
SCHEMBL16111548

> <PUBCHEM_XREF_EXT_ID>
SCHEMBL16111548

> <PUBCHEM_EXT_DATASOURCE_URL>
https://www.surechembl.org/

> <PUBCHEM_EXT_SUBSTANCE_URL>
https://www.surechembl.org/chemical/SCHEMBL16111548

> <PUBCHEM_CID_ASSOCIATIONS>
117602383  1

> <PUBCHEM_COORDINATE_TYPE>
1
3

$$$$
