310941007
  -OEChem-07211613022D

 55 56  0     1  0  0  0  0  0999 V2000
    7.0188   -2.3127    0.0000 P   0  0  0  0  0  0  0  0  0  0  0  0
   -1.6172    1.0027    0.0000 O   0  0  0  0  0  0  0  0  0  0  0  0
   -2.3450    1.4232    0.0000 O   0  0  0  0  0  0  0  0  0  0  0  0
    0.5337   -1.0674    0.0000 O   0  0  0  0  0  0  0  0  0  0  0  0
    2.6847    1.0027    0.0000 O   0  0  0  0  0  0  0  0  0  0  0  0
    4.8517   -1.0674    0.0000 O   0  0  0  0  0  0  0  0  0  0  0  0
    7.0188    1.0027    0.0000 O   0  0  0  0  0  0  0  0  0  0  0  0
    7.8275   -2.3127    0.0000 O   0  0  0  0  0  0  0  0  0  0  0  0
    7.0188   -3.1051    0.0000 O   0  0  0  0  0  0  0  0  0  0  0  0
    6.2102   -2.3127    0.0000 O   0  0  0  0  0  0  0  0  0  0  0  0
   -4.4959    2.6684    0.0000 O   0  0  0  0  0  0  0  0  0  0  0  0
    4.9326    1.5364    0.0000 O   0  0  0  0  0  0  0  0  0  0  0  0
   -6.6468    2.2479    0.0000 O   0  0  0  0  0  0  0  0  0  0  0  0
   -3.0566    0.1779    0.0000 N   0  0  0  0  0  0  0  0  0  0  0  0
   -0.9056   -0.2426    0.0000 N   0  0  0  0  0  0  0  0  0  0  0  0
    1.2453    0.1779    0.0000 N   0  0  0  0  0  0  0  0  0  0  0  0
    3.3962   -0.2426    0.0000 N   0  0  0  0  0  0  0  0  0  0  0  0
    5.5794    0.1779    0.0000 N   0  0  0  0  0  0  0  0  0  0  0  0
    2.7655   -2.3127    0.0000 N   0  0  0  0  0  0  0  0  0  0  0  0
    3.9945   -1.7628    0.0000 N   0  0  0  0  0  0  0  0  0  0  0  0
    7.7304   -0.2426    0.0000 N   0  0  0  0  0  0  0  0  0  0  0  0
   -2.3288   -0.2102    0.0000 C   0  0  3  0  0  0  0  0  0  0  0  0
   -1.6496    0.1941    0.0000 C   0  0  0  0  0  0  0  0  0  0  0  0
   -0.1941    0.2102    0.0000 C   0  0  3  0  0  0  0  0  0  0  0  0
   -3.0566    1.0350    0.0000 C   0  0  0  0  0  0  0  0  0  0  0  0
   -2.4905   -1.0027    0.0000 C   0  0  0  0  0  0  0  0  0  0  0  0
   -3.6711   -0.3881    0.0000 C   0  0  0  0  0  0  0  0  0  0  0  0
    0.5337   -0.1941    0.0000 C   0  0  0  0  0  0  0  0  0  0  0  0
    1.9730   -0.2102    0.0000 C   0  0  3  0  0  0  0  0  0  0  0  0
   -3.3477   -1.0997    0.0000 C   0  0  0  0  0  0  0  0  0  0  0  0
    2.6684    0.1941    0.0000 C   0  0  0  0  0  0  0  0  0  0  0  0
    4.1240    0.2264    0.0000 C   0  0  3  0  0  0  0  0  0  0  0  0
    6.2911   -0.2102    0.0000 C   0  0  3  0  0  0  0  0  0  0  0  0
    4.8679   -0.1941    0.0000 C   0  0  0  0  0  0  0  0  0  0  0  0
    1.9730   -1.0188    0.0000 C   0  0  0  0  0  0  0  0  0  0  0  0
   -0.1779    1.0350    0.0000 C   0  0  0  0  0  0  0  0  0  0  0  0
    6.2911   -1.0350    0.0000 C   0  0  3  0  0  0  0  0  0  0  0  0
   -3.7843    1.4555    0.0000 C   0  0  0  0  0  0  0  0  0  0  0  0
    2.7008   -1.4555    0.0000 C   0  0  0  0  0  0  0  0  0  0  0  0
    7.0026    0.2102    0.0000 C   0  0  0  0  0  0  0  0  0  0  0  0
    7.0188   -1.4879    0.0000 C   0  0  0  0  0  0  0  0  0  0  0  0
    0.5175    1.4555    0.0000 C   0  0  0  0  0  0  0  0  0  0  0  0
    4.1563    1.0350    0.0000 C   0  0  0  0  0  0  0  0  0  0  0  0
    3.4447   -1.1320    0.0000 C   0  0  0  0  0  0  0  0  0  0  0  0
   -3.7682    2.2803    0.0000 C   0  0  0  0  0  0  0  0  0  0  0  0
    5.4339   -1.5040    0.0000 C   0  0  0  0  0  0  0  0  0  0  0  0
    3.5903   -2.4420    0.0000 C   0  0  0  0  0  0  0  0  0  0  0  0
    0.5175    2.2964    0.0000 C   0  0  0  0  0  0  0  0  0  0  0  0
    1.3585    1.2453    0.0000 C   0  0  0  0  0  0  0  0  0  0  0  0
   -5.2075    2.2803    0.0000 C   0  0  0  0  0  0  0  0  0  0  0  0
   -5.9353    2.6847    0.0000 C   0  0  0  0  0  0  0  0  0  0  0  0
   -7.0673    2.5067    0.0000 C   0  0  0  0  0  0  0  0  0  0  0  0
   -7.8275    2.9272    0.0000 C   0  0  0  0  0  0  0  0  0  0  0  0
   -7.0512    1.8922    0.0000 C   0  0  0  0  0  0  0  0  0  0  0  0
   -7.0188    3.1051    0.0000 C   0  0  0  0  0  0  0  0  0  0  0  0
  1  8  2  0  0  0  0
  1  9  1  0  0  0  0
  1 10  1  0  0  0  0
  1 41  1  0  0  0  0
  2 23  2  0  0  0  0
  3 25  2  0  0  0  0
  4 28  2  0  0  0  0
  5 31  2  0  0  0  0
  6 34  2  0  0  0  0
  7 40  2  0  0  0  0
 11 45  1  0  0  0  0
 11 50  1  0  0  0  0
 12 43  1  0  0  0  0
 13 51  1  0  0  0  0
 13 52  1  0  0  0  0
 14 22  1  0  0  0  0
 14 25  1  0  0  0  0
 14 27  1  0  0  0  0
 15 23  1  0  0  0  0
 24 15  1  1  0  0  0
 16 28  1  0  0  0  0
 29 16  1  6  0  0  0
 17 31  1  0  0  0  0
 32 17  1  1  0  0  0
 33 18  1  6  0  0  0
 18 34  1  0  0  0  0
 19 39  1  0  0  0  0
 19 47  1  0  0  0  0
 20 44  1  0  0  0  0
 20 47  2  0  0  0  0
 21 40  1  0  0  0  0
 22 23  1  6  0  0  0
 22 26  1  0  0  0  0
 24 28  1  0  0  0  0
 24 36  1  0  0  0  0
 25 38  1  0  0  0  0
 26 30  1  0  0  0  0
 27 30  1  0  0  0  0
 29 31  1  0  0  0  0
 29 35  1  0  0  0  0
 32 34  1  0  0  0  0
 32 43  1  0  0  0  0
 33 37  1  0  0  0  0
 33 40  1  0  0  0  0
 35 39  1  0  0  0  0
 36 42  1  0  0  0  0
 37 41  1  0  0  0  0
 37 46  1  6  0  0  0
 38 45  1  0  0  0  0
 39 44  2  0  0  0  0
 42 48  1  0  0  0  0
 42 49  1  0  0  0  0
 50 51  1  0  0  0  0
 52 53  1  0  0  0  0
 52 54  1  0  0  0  0
 52 55  1  0  0  0  0
M  END
> <PUBCHEM_COMPOUND_ID_TYPE>
0

> <PUBCHEM_TOTAL_CHARGE>
0

> <PUBCHEM_SUBSTANCE_ID>
310941007

> <PUBCHEM_SUBSTANCE_VERSION>
1

> <PUBCHEM_EXT_DATASOURCE_NAME>
4488

> <PUBCHEM_EXT_DATASOURCE_REGID>
SCHEMBL16118966

> <PUBCHEM_SUBSTANCE_COMMENT>
InChI=1S/C34H59N8O12P/c1-20(2)14-23(39-33(49)26-8-7-10-42(26)27(44)9-11-53-12-13-54-34(4,5)6)30(46)38-24(15-22-16-36-19-37-22)31(47)40-25(17-43)32(48)41-28(29(35)45)21(3)18-55(50,51)52/h16,19-21,23-26,28,43H,7-15,17-18H2,1-6H3,(H2,35,45)(H,36,37)(H,38,46)(H,39,49)(H,40,47)(H,41,48)(H2,50,51,52)/t21-,23-,24-,25-,26-,28-/m0/s1
InChIKey=WFHOLLNBZQDGHL-NKJINAAHSA-N

> <PUBCHEM_SUBSTANCE_SYNONYM>
SCHEMBL16118966

> <PUBCHEM_XREF_EXT_ID>
SCHEMBL16118966

> <PUBCHEM_EXT_DATASOURCE_URL>
https://www.surechembl.org/

> <PUBCHEM_EXT_SUBSTANCE_URL>
https://www.surechembl.org/chemical/SCHEMBL16118966

> <PUBCHEM_CID_ASSOCIATIONS>
117607912  1

> <PUBCHEM_COORDINATE_TYPE>
1
3

> <PUBCHEM_BONDANNOTATIONS>
24  15  5
29  16  6
32  17  5
33  18  6
22  23  6
37  46  6

$$$$
