310935759
  -OEChem-07211613022D

 38 41  0     0  0  0  0  0  0999 V2000
    3.3751   -6.7877    0.0000 S   0  0  0  0  0  0  0  0  0  0  0  0
    0.0000    0.0000    0.0000 F   0  0  0  0  0  0  0  0  0  0  0  0
    1.3500   -3.6751    0.0000 O   0  0  0  0  0  0  0  0  0  0  0  0
    3.9001   -2.5500    0.0000 O   0  0  0  0  0  0  0  0  0  0  0  0
    2.9626   -7.5002    0.0000 O   0  0  0  0  0  0  0  0  0  0  0  0
    3.8251   -6.0376    0.0000 O   0  0  0  0  0  0  0  0  0  0  0  0
    7.0502   -5.5126    0.0000 O   0  0  0  0  0  0  0  0  0  0  0  0
    6.3376   -4.2376    0.0000 O   0  0  0  0  0  0  0  0  0  0  0  0
    2.8126   -1.6125    0.0000 N   0  0  0  0  0  0  0  0  0  0  0  0
    2.7001   -3.8251    0.0000 C   0  0  0  0  0  0  0  0  0  0  0  0
    2.5126   -3.0375    0.0000 C   0  0  0  0  0  0  0  0  0  0  0  0
    1.9500   -4.2751    0.0000 C   0  0  0  0  0  0  0  0  0  0  0  0
    1.6501   -2.9251    0.0000 C   0  0  0  0  0  0  0  0  0  0  0  0
    3.4126   -5.0626    0.0000 C   0  0  0  0  0  0  0  0  0  0  0  0
    2.6625   -5.5126    0.0000 C   0  0  0  0  0  0  0  0  0  0  0  0
    3.4126   -4.2751    0.0000 C   0  0  0  0  0  0  0  0  0  0  0  0
    1.9500   -5.1001    0.0000 C   0  0  0  0  0  0  0  0  0  0  0  0
    1.2375   -2.1750    0.0000 C   0  0  0  0  0  0  0  0  0  0  0  0
    3.0751   -2.4000    0.0000 C   0  0  0  0  0  0  0  0  0  0  0  0
    4.1251   -5.5126    0.0000 C   0  0  0  0  0  0  0  0  0  0  0  0
    2.6625   -6.3376    0.0000 C   0  0  0  0  0  0  0  0  0  0  0  0
    4.8751   -5.0626    0.0000 C   0  0  0  0  0  0  0  0  0  0  0  0
    0.4125   -2.1750    0.0000 C   0  0  0  0  0  0  0  0  0  0  0  0
    1.6501   -1.4625    0.0000 C   0  0  0  0  0  0  0  0  0  0  0  0
    4.1251   -6.3376    0.0000 C   0  0  0  0  0  0  0  0  0  0  0  0
    5.5877   -5.5126    0.0000 C   0  0  0  0  0  0  0  0  0  0  0  0
    0.0000   -1.4625    0.0000 C   0  0  0  0  0  0  0  0  0  0  0  0
    1.2375   -0.7500    0.0000 C   0  0  0  0  0  0  0  0  0  0  0  0
    4.8751   -6.7501    0.0000 C   0  0  0  0  0  0  0  0  0  0  0  0
    5.5877   -6.3376    0.0000 C   0  0  0  0  0  0  0  0  0  0  0  0
    6.3376   -5.0626    0.0000 C   0  0  0  0  0  0  0  0  0  0  0  0
    0.4125   -0.7500    0.0000 C   0  0  0  0  0  0  0  0  0  0  0  0
    4.0876   -7.2001    0.0000 C   0  0  0  0  0  0  0  0  0  0  0  0
    3.3751   -0.9750    0.0000 C   0  0  0  0  0  0  0  0  0  0  0  0
    7.8002   -5.0626    0.0000 C   0  0  0  0  0  0  0  0  0  0  0  0
    8.2127   -5.8126    0.0000 C   0  0  0  0  0  0  0  0  0  0  0  0
    8.5127   -4.6501    0.0000 C   0  0  0  0  0  0  0  0  0  0  0  0
    7.3877   -4.3501    0.0000 C   0  0  0  0  0  0  0  0  0  0  0  0
  1  5  2  0  0  0  0
  1  6  2  0  0  0  0
  1 21  1  0  0  0  0
  1 33  1  0  0  0  0
  2 32  1  0  0  0  0
  3 12  1  0  0  0  0
  3 13  1  0  0  0  0
  4 19  2  0  0  0  0
  7 31  1  0  0  0  0
  7 35  1  0  0  0  0
  8 31  2  0  0  0  0
  9 19  1  0  0  0  0
  9 34  1  0  0  0  0
 10 11  1  0  0  0  0
 10 12  2  0  0  0  0
 10 16  1  0  0  0  0
 11 13  2  0  0  0  0
 11 19  1  0  0  0  0
 12 17  1  0  0  0  0
 13 18  1  0  0  0  0
 14 15  1  0  0  0  0
 14 16  2  0  0  0  0
 14 20  1  0  0  0  0
 15 17  2  0  0  0  0
 15 21  1  0  0  0  0
 18 23  2  0  0  0  0
 18 24  1  0  0  0  0
 20 22  1  0  0  0  0
 20 25  2  0  0  0  0
 22 26  2  0  0  0  0
 23 27  1  0  0  0  0
 24 28  2  0  0  0  0
 25 29  1  0  0  0  0
 26 30  1  0  0  0  0
 26 31  1  0  0  0  0
 27 32  2  0  0  0  0
 28 32  1  0  0  0  0
 29 30  2  0  0  0  0
 35 36  1  0  0  0  0
 35 37  1  0  0  0  0
 35 38  1  0  0  0  0
M  END
> <PUBCHEM_COMPOUND_ID_TYPE>
0

> <PUBCHEM_TOTAL_CHARGE>
0

> <PUBCHEM_SUBSTANCE_ID>
310935759

> <PUBCHEM_SUBSTANCE_VERSION>
1

> <PUBCHEM_EXT_DATASOURCE_NAME>
4488

> <PUBCHEM_EXT_DATASOURCE_REGID>
SCHEMBL16113343

> <PUBCHEM_SUBSTANCE_COMMENT>
InChI=1S/C29H28FNO6S/c1-29(2,3)37-28(33)19-8-6-7-18(13-19)22-15-23-24(14-20(22)16-38(5,34)35)36-26(25(23)27(32)31-4)17-9-11-21(30)12-10-17/h6-15H,16H2,1-5H3,(H,31,32)
InChIKey=SFUGEGHRXRULGZ-UHFFFAOYSA-N

> <PUBCHEM_SUBSTANCE_SYNONYM>
SCHEMBL16113343

> <PUBCHEM_XREF_EXT_ID>
SCHEMBL16113343

> <PUBCHEM_EXT_DATASOURCE_URL>
https://www.surechembl.org/

> <PUBCHEM_EXT_SUBSTANCE_URL>
https://www.surechembl.org/chemical/SCHEMBL16113343

> <PUBCHEM_CID_ASSOCIATIONS>
117603760  1

> <PUBCHEM_COORDINATE_TYPE>
1
3

$$$$
