310937411
  -OEChem-07211613022D

 26 29  0     0  0  0  0  0  0999 V2000
    0.6872   -2.4298    0.0000 Cl  0  0  0  0  0  0  0  0  0  0  0  0
    0.7117   -0.8590    0.0000 F   0  0  0  0  0  0  0  0  0  0  0  0
    1.4235   -2.0861    0.0000 F   0  0  0  0  0  0  0  0  0  0  0  0
    1.3989   -0.4418    0.0000 F   0  0  0  0  0  0  0  0  0  0  0  0
    3.4851    0.0000    0.0000 O   0  0  0  0  0  0  0  0  0  0  0  0
    2.8224   -1.2271    0.0000 N   0  0  0  0  0  0  0  0  0  0  0  0
    3.5096   -3.2642    0.0000 N   0  0  0  0  0  0  0  0  0  0  0  0
    5.0312   -2.3316    0.0000 N   0  0  0  0  0  0  0  0  0  0  0  0
    5.4976   -1.6444    0.0000 N   0  0  0  0  0  0  0  0  0  0  0  0
    1.3989   -4.4668    0.0000 N   0  0  0  0  0  0  0  0  0  0  0  0
    2.8224   -2.0616    0.0000 C   0  0  0  0  0  0  0  0  0  0  0  0
    3.5096   -2.4788    0.0000 C   0  0  0  0  0  0  0  0  0  0  0  0
    4.2459   -2.0616    0.0000 C   0  0  0  0  0  0  0  0  0  0  0  0
    4.2459   -1.2271    0.0000 C   0  0  0  0  0  0  0  0  0  0  0  0
    3.5096   -0.8099    0.0000 C   0  0  0  0  0  0  0  0  0  0  0  0
    2.1107   -2.4788    0.0000 C   0  0  0  0  0  0  0  0  0  0  0  0
    2.1107   -3.2642    0.0000 C   0  0  0  0  0  0  0  0  0  0  0  0
    2.1107   -0.8344    0.0000 C   0  0  0  0  0  0  0  0  0  0  0  0
    5.0312   -0.9817    0.0000 C   0  0  0  0  0  0  0  0  0  0  0  0
    2.8224   -3.6814    0.0000 C   0  0  0  0  0  0  0  0  0  0  0  0
    1.3989   -3.6814    0.0000 C   0  0  0  0  0  0  0  0  0  0  0  0
    1.4235   -1.2517    0.0000 C   0  0  0  0  0  0  0  0  0  0  0  0
    0.6872   -3.2397    0.0000 C   0  0  0  0  0  0  0  0  0  0  0  0
    0.0000   -3.6814    0.0000 C   0  0  0  0  0  0  0  0  0  0  0  0
    0.7117   -4.9085    0.0000 C   0  0  0  0  0  0  0  0  0  0  0  0
    0.0000   -4.4913    0.0000 C   0  0  0  0  0  0  0  0  0  0  0  0
  1 23  1  0  0  0  0
  2 22  1  0  0  0  0
  3 22  1  0  0  0  0
  4 22  1  0  0  0  0
  5 15  2  0  0  0  0
  6 11  1  0  0  0  0
  6 15  1  0  0  0  0
  6 18  1  0  0  0  0
  7 12  2  0  0  0  0
  7 20  1  0  0  0  0
  8  9  1  0  0  0  0
  8 13  1  0  0  0  0
  9 19  2  0  0  0  0
 10 21  1  0  0  0  0
 10 25  2  0  0  0  0
 11 12  1  0  0  0  0
 11 16  2  0  0  0  0
 12 13  1  0  0  0  0
 13 14  2  0  0  0  0
 14 15  1  0  0  0  0
 14 19  1  0  0  0  0
 16 17  1  0  0  0  0
 17 20  2  0  0  0  0
 17 21  1  0  0  0  0
 18 22  1  0  0  0  0
 21 23  2  0  0  0  0
 23 24  1  0  0  0  0
 24 26  2  0  0  0  0
 25 26  1  0  0  0  0
M  END
> <PUBCHEM_COMPOUND_ID_TYPE>
0

> <PUBCHEM_TOTAL_CHARGE>
0

> <PUBCHEM_SUBSTANCE_ID>
310937411

> <PUBCHEM_SUBSTANCE_VERSION>
1

> <PUBCHEM_EXT_DATASOURCE_NAME>
4488

> <PUBCHEM_EXT_DATASOURCE_REGID>
SCHEMBL16115169

> <PUBCHEM_SUBSTANCE_COMMENT>
InChI=1S/C16H9ClF3N5O/c17-10-2-1-3-21-12(10)8-4-11-14(22-5-8)13-9(6-23-24-13)15(26)25(11)7-16(18,19)20/h1-6H,7H2,(H,23,24)
InChIKey=ZTIMPVKRSCAZTL-UHFFFAOYSA-N

> <PUBCHEM_SUBSTANCE_SYNONYM>
SCHEMBL16115169

> <PUBCHEM_XREF_EXT_ID>
SCHEMBL16115169

> <PUBCHEM_EXT_DATASOURCE_URL>
https://www.surechembl.org/

> <PUBCHEM_EXT_SUBSTANCE_URL>
https://www.surechembl.org/chemical/SCHEMBL16115169

> <PUBCHEM_CID_ASSOCIATIONS>
86299019  1

> <PUBCHEM_COORDINATE_TYPE>
1
3

$$$$
