310943119
  -OEChem-07211613022D

 35 39  0     0  0  0  0  0  0999 V2000
   -2.0548    2.0696    0.0000 Cl  0  0  0  0  0  0  0  0  0  0  0  0
   -3.9402   -0.8469    0.0000 O   0  0  0  0  0  0  0  0  0  0  0  0
    0.3609   -0.8322    0.0000 O   0  0  0  0  0  0  0  0  0  0  0  0
   -5.3690    1.6571    0.0000 O   0  0  0  0  0  0  0  0  0  0  0  0
    3.2185   -1.6571    0.0000 N   0  0  0  0  0  0  0  0  0  0  0  0
   -3.9402    0.8322    0.0000 N   0  0  0  0  0  0  0  0  0  0  0  0
    1.0679    0.4198    0.0000 N   0  0  0  0  0  0  0  0  0  0  0  0
   -2.5114   -0.8322    0.0000 N   0  0  0  0  0  0  0  0  0  0  0  0
   -0.3609    2.0696    0.0000 N   0  0  0  0  0  0  0  0  0  0  0  0
    5.3690   -1.2447    0.0000 N   0  0  0  0  0  0  0  0  0  0  0  0
    3.9255   -0.3903    0.0000 C   0  0  0  0  0  0  0  0  0  0  0  0
    3.2185   -0.8175    0.0000 C   0  0  0  0  0  0  0  0  0  0  0  0
    3.5425    0.2873    0.0000 C   0  0  0  0  0  0  0  0  0  0  0  0
    4.3232    0.2873    0.0000 C   0  0  0  0  0  0  0  0  0  0  0  0
   -1.0826    0.8322    0.0000 C   0  0  0  0  0  0  0  0  0  0  0  0
   -1.7897    0.4198    0.0000 C   0  0  0  0  0  0  0  0  0  0  0  0
    2.4820   -0.4198    0.0000 C   0  0  0  0  0  0  0  0  0  0  0  0
    4.6472   -0.8322    0.0000 C   0  0  0  0  0  0  0  0  0  0  0  0
   -3.2185    0.4198    0.0000 C   0  0  0  0  0  0  0  0  0  0  0  0
    1.7897   -0.8322    0.0000 C   0  0  0  0  0  0  0  0  0  0  0  0
   -2.5114    0.8175    0.0000 C   0  0  0  0  0  0  0  0  0  0  0  0
   -3.2332   -0.4198    0.0000 C   0  0  0  0  0  0  0  0  0  0  0  0
   -1.0679    1.6571    0.0000 C   0  0  0  0  0  0  0  0  0  0  0  0
    0.3462    0.8322    0.0000 C   0  0  0  0  0  0  0  0  0  0  0  0
    1.0826   -0.4050    0.0000 C   0  0  0  0  0  0  0  0  0  0  0  0
   -0.3462    0.4198    0.0000 C   0  0  0  0  0  0  0  0  0  0  0  0
   -1.8044   -0.4198    0.0000 C   0  0  0  0  0  0  0  0  0  0  0  0
    1.7897   -1.6571    0.0000 C   0  0  0  0  0  0  0  0  0  0  0  0
    2.5114   -2.0696    0.0000 C   0  0  0  0  0  0  0  0  0  0  0  0
    0.3609    1.6571    0.0000 C   0  0  0  0  0  0  0  0  0  0  0  0
   -3.9549    1.6571    0.0000 C   0  0  0  0  0  0  0  0  0  0  0  0
   -4.6472    0.4198    0.0000 C   0  0  0  0  0  0  0  0  0  0  0  0
   -4.6767    2.0696    0.0000 C   0  0  0  0  0  0  0  0  0  0  0  0
   -5.3690    0.8175    0.0000 C   0  0  0  0  0  0  0  0  0  0  0  0
   -3.9255   -1.6866    0.0000 C   0  0  0  0  0  0  0  0  0  0  0  0
  1 23  1  0  0  0  0
  2 22  1  0  0  0  0
  2 35  1  0  0  0  0
  3 25  2  0  0  0  0
  4 33  1  0  0  0  0
  4 34  1  0  0  0  0
  5 12  1  0  0  0  0
  5 29  2  0  0  0  0
  6 19  1  0  0  0  0
  6 31  1  0  0  0  0
  6 32  1  0  0  0  0
  7 24  1  0  0  0  0
  7 25  1  0  0  0  0
  8 22  2  0  0  0  0
  8 27  1  0  0  0  0
  9 23  1  0  0  0  0
  9 30  2  0  0  0  0
 10 18  3  0  0  0  0
 11 12  1  0  0  0  0
 11 13  1  0  0  0  0
 11 14  1  0  0  0  0
 11 18  1  0  0  0  0
 12 17  2  0  0  0  0
 13 14  1  0  0  0  0
 15 16  1  0  0  0  0
 15 23  2  0  0  0  0
 15 26  1  0  0  0  0
 16 21  1  0  0  0  0
 16 27  2  0  0  0  0
 17 20  1  0  0  0  0
 19 21  2  0  0  0  0
 19 22  1  0  0  0  0
 20 25  1  0  0  0  0
 20 28  2  0  0  0  0
 24 26  2  0  0  0  0
 24 30  1  0  0  0  0
 28 29  1  0  0  0  0
 31 33  1  0  0  0  0
 32 34  1  0  0  0  0
M  END
> <PUBCHEM_COMPOUND_ID_TYPE>
0

> <PUBCHEM_TOTAL_CHARGE>
0

> <PUBCHEM_SUBSTANCE_ID>
310943119

> <PUBCHEM_SUBSTANCE_VERSION>
1

> <PUBCHEM_EXT_DATASOURCE_NAME>
4488

> <PUBCHEM_EXT_DATASOURCE_REGID>
SCHEMBL16121179

> <PUBCHEM_SUBSTANCE_COMMENT>
InChI=1S/C25H23ClN6O3/c1-34-24-20(32-6-8-35-9-7-32)10-17(13-30-24)19-12-18(14-29-22(19)26)31-23(33)16-2-5-28-21(11-16)25(15-27)3-4-25/h2,5,10-14H,3-4,6-9H2,1H3,(H,31,33)
InChIKey=UAJZPLBEEKUXLS-UHFFFAOYSA-N

> <PUBCHEM_SUBSTANCE_SYNONYM>
SCHEMBL16121179

> <PUBCHEM_XREF_EXT_ID>
SCHEMBL16121179

> <PUBCHEM_EXT_DATASOURCE_URL>
https://www.surechembl.org/

> <PUBCHEM_EXT_SUBSTANCE_URL>
https://www.surechembl.org/chemical/SCHEMBL16121179

> <PUBCHEM_CID_ASSOCIATIONS>
117609549  1

> <PUBCHEM_COORDINATE_TYPE>
1
3

$$$$
