310932426
  -OEChem-07211613022D

 38 42  0     0  0  0  0  0  0999 V2000
    0.3808  -12.6921    0.0000 F   0  0  0  0  0  0  0  0  0  0  0  0
    1.6500  -11.9941    0.0000 F   0  0  0  0  0  0  0  0  0  0  0  0
    0.0000  -11.9941    0.0000 F   0  0  0  0  0  0  0  0  0  0  0  0
    4.3788   -2.4749    0.0000 O   0  0  0  0  0  0  0  0  0  0  0  0
    4.3788   -0.8250    0.0000 O   0  0  0  0  0  0  0  0  0  0  0  0
    1.5231   -8.2499    0.0000 O   0  0  0  0  0  0  0  0  0  0  0  0
    1.5231   -3.2999    0.0000 N   0  0  0  0  0  0  0  0  0  0  0  0
    0.8250   -2.0308    0.0000 N   0  0  0  0  0  0  0  0  0  0  0  0
    1.5231   -0.8250    0.0000 N   0  0  0  0  0  0  0  0  0  0  0  0
    1.5231   -4.9499    0.0000 N   0  0  0  0  0  0  0  0  0  0  0  0
    0.8250   -6.2191    0.0000 N   0  0  0  0  0  0  0  0  0  0  0  0
    2.2211   -6.2191    0.0000 N   0  0  0  0  0  0  0  0  0  0  0  0
    2.2211   -2.0308    0.0000 C   0  0  0  0  0  0  0  0  0  0  0  0
    1.5231   -2.4749    0.0000 C   0  0  0  0  0  0  0  0  0  0  0  0
    2.2211   -1.2058    0.0000 C   0  0  0  0  0  0  0  0  0  0  0  0
    2.9192   -2.4749    0.0000 C   0  0  0  0  0  0  0  0  0  0  0  0
    3.6807   -2.0308    0.0000 C   0  0  0  0  0  0  0  0  0  0  0  0
    3.6807   -1.2058    0.0000 C   0  0  0  0  0  0  0  0  0  0  0  0
    2.9192   -0.8250    0.0000 C   0  0  0  0  0  0  0  0  0  0  0  0
    0.8250   -3.6807    0.0000 C   0  0  0  0  0  0  0  0  0  0  0  0
    2.2211   -3.6807    0.0000 C   0  0  0  0  0  0  0  0  0  0  0  0
    0.8250   -1.2058    0.0000 C   0  0  0  0  0  0  0  0  0  0  0  0
    1.5231   -5.7749    0.0000 C   0  0  0  0  0  0  0  0  0  0  0  0
    2.2211   -4.5057    0.0000 C   0  0  0  0  0  0  0  0  0  0  0  0
    0.8250   -4.5057    0.0000 C   0  0  0  0  0  0  0  0  0  0  0  0
    1.5231   -7.4249    0.0000 C   0  0  0  0  0  0  0  0  0  0  0  0
    0.8250  -11.1691    0.0000 C   0  0  0  0  0  0  0  0  0  0  0  0
    0.8250   -7.0441    0.0000 C   0  0  0  0  0  0  0  0  0  0  0  0
    2.2211   -7.0441    0.0000 C   0  0  0  0  0  0  0  0  0  0  0  0
    0.8250  -11.9941    0.0000 C   0  0  0  0  0  0  0  0  0  0  0  0
    0.8250   -9.5191    0.0000 C   0  0  0  0  0  0  0  0  0  0  0  0
    0.1269  -10.7883    0.0000 C   0  0  0  0  0  0  0  0  0  0  0  0
    1.5231  -10.7883    0.0000 C   0  0  0  0  0  0  0  0  0  0  0  0
    0.8250   -8.6941    0.0000 C   0  0  0  0  0  0  0  0  0  0  0  0
    0.1269   -9.9633    0.0000 C   0  0  0  0  0  0  0  0  0  0  0  0
    1.5231   -9.9633    0.0000 C   0  0  0  0  0  0  0  0  0  0  0  0
    5.0769   -2.0308    0.0000 C   0  0  0  0  0  0  0  0  0  0  0  0
    4.3788    0.0000    0.0000 C   0  0  0  0  0  0  0  0  0  0  0  0
  1 30  1  0  0  0  0
  2 30  1  0  0  0  0
  3 30  1  0  0  0  0
  4 17  1  0  0  0  0
  4 37  1  0  0  0  0
  5 18  1  0  0  0  0
  5 38  1  0  0  0  0
  6 26  1  0  0  0  0
  6 34  1  0  0  0  0
  7 14  1  0  0  0  0
  7 20  1  0  0  0  0
  7 21  1  0  0  0  0
  8 14  1  0  0  0  0
  8 22  2  0  0  0  0
  9 15  2  0  0  0  0
  9 22  1  0  0  0  0
 10 23  1  0  0  0  0
 10 24  1  0  0  0  0
 10 25  1  0  0  0  0
 11 23  2  0  0  0  0
 11 28  1  0  0  0  0
 12 23  1  0  0  0  0
 12 29  2  0  0  0  0
 13 14  2  0  0  0  0
 13 15  1  0  0  0  0
 13 16  1  0  0  0  0
 15 19  1  0  0  0  0
 16 17  2  0  0  0  0
 17 18  1  0  0  0  0
 18 19  2  0  0  0  0
 20 25  1  0  0  0  0
 21 24  1  0  0  0  0
 26 28  2  0  0  0  0
 26 29  1  0  0  0  0
 27 30  1  0  0  0  0
 27 32  2  0  0  0  0
 27 33  1  0  0  0  0
 31 34  1  0  0  0  0
 31 35  2  0  0  0  0
 31 36  1  0  0  0  0
 32 35  1  0  0  0  0
 33 36  2  0  0  0  0
M  END
> <PUBCHEM_COMPOUND_ID_TYPE>
0

> <PUBCHEM_TOTAL_CHARGE>
0

> <PUBCHEM_SUBSTANCE_ID>
310932426

> <PUBCHEM_SUBSTANCE_VERSION>
1

> <PUBCHEM_EXT_DATASOURCE_NAME>
4488

> <PUBCHEM_EXT_DATASOURCE_REGID>
SCHEMBL16109794

> <PUBCHEM_SUBSTANCE_COMMENT>
InChI=1S/C26H25F3N6O3/c1-36-22-11-20-21(12-23(22)37-2)32-16-33-24(20)34-7-9-35(10-8-34)25-30-13-19(14-31-25)38-15-17-3-5-18(6-4-17)26(27,28)29/h3-6,11-14,16H,7-10,15H2,1-2H3
InChIKey=LKVKUTQDMIGMIL-UHFFFAOYSA-N

> <PUBCHEM_SUBSTANCE_SYNONYM>
SCHEMBL16109794

> <PUBCHEM_XREF_EXT_ID>
SCHEMBL16109794

> <PUBCHEM_EXT_DATASOURCE_URL>
https://www.surechembl.org/

> <PUBCHEM_EXT_SUBSTANCE_URL>
https://www.surechembl.org/chemical/SCHEMBL16109794

> <PUBCHEM_CID_ASSOCIATIONS>
117600978  1

> <PUBCHEM_COORDINATE_TYPE>
1
3

$$$$
