310948924
  -OEChem-07211613022D

 50 52  0     1  0  0  0  0  0999 V2000
   -5.0689   -2.1234    0.0000 Cl  0  0  0  0  0  0  0  0  0  0  0  0
   -7.0740    1.7374    0.0000 S   0  0  0  0  0  0  0  0  0  0  0  0
   -4.2594    1.7249    0.0000 P   0  0  3  0  0  0  0  0  0  0  0  0
   -6.2895    0.6538    0.0000 O   0  0  0  0  0  0  0  0  0  0  0  0
   -4.9817    1.3139    0.0000 O   0  0  0  0  0  0  0  0  0  0  0  0
   -3.8484    1.0150    0.0000 O   0  0  0  0  0  0  0  0  0  0  0  0
   -4.2594    2.5594    0.0000 O   0  0  0  0  0  0  0  0  0  0  0  0
   -8.6806   -0.0311    0.0000 O   0  0  0  0  0  0  0  0  0  0  0  0
   -0.6850    2.3850    0.0000 O   0  0  0  0  0  0  0  0  0  0  0  0
   -7.2733   -0.4048    0.0000 N   0  0  0  0  0  0  0  0  0  0  0  0
   -8.2946   -1.4136    0.0000 N   0  0  0  0  0  0  0  0  0  0  0  0
   -3.4249    1.7249    0.0000 N   0  0  0  0  0  0  0  0  0  0  0  0
   -7.9210   -2.8084    0.0000 N   0  0  0  0  0  0  0  0  0  0  0  0
   -1.3824    1.1395    0.0000 N   0  0  0  0  0  0  0  0  0  0  0  0
   -7.0491    0.4048    0.0000 C   0  0  3  0  0  0  0  0  0  0  0  0
   -6.2770    1.4883    0.0000 C   0  0  3  0  0  0  0  0  0  0  0  0
   -8.0579   -0.6165    0.0000 C   0  0  0  0  0  0  0  0  0  0  0  0
   -7.5473    1.0648    0.0000 C   0  0  0  0  0  0  0  0  0  0  0  0
   -6.6880   -0.9902    0.0000 C   0  0  0  0  0  0  0  0  0  0  0  0
   -5.5546    1.8868    0.0000 C   0  0  0  0  0  0  0  0  0  0  0  0
   -7.6968   -1.9990    0.0000 C   0  0  0  0  0  0  0  0  0  0  0  0
   -6.9122   -1.7872    0.0000 C   0  0  0  0  0  0  0  0  0  0  0  0
   -4.2594    0.2927    0.0000 C   0  0  0  0  0  0  0  0  0  0  0  0
   -5.0440    0.0685    0.0000 C   0  0  0  0  0  0  0  0  0  0  0  0
   -3.6740   -0.2927    0.0000 C   0  0  0  0  0  0  0  0  0  0  0  0
   -2.8271    1.1395    0.0000 C   0  0  0  0  0  0  0  0  0  0  0  0
   -4.6828   -1.3015    0.0000 C   0  0  0  0  0  0  0  0  0  0  0  0
   -5.2557   -0.7286    0.0000 C   0  0  0  0  0  0  0  0  0  0  0  0
   -3.8857   -1.0897    0.0000 C   0  0  0  0  0  0  0  0  0  0  0  0
   -2.1172    1.5506    0.0000 C   0  0  0  0  0  0  0  0  0  0  0  0
   -0.6850    1.5506    0.0000 C   0  0  0  0  0  0  0  0  0  0  0  0
    0.0498    1.1395    0.0000 C   0  0  0  0  0  0  0  0  0  0  0  0
    0.7597    1.5506    0.0000 C   0  0  0  0  0  0  0  0  0  0  0  0
    0.7722    2.3975    0.0000 C   0  0  0  0  0  0  0  0  0  0  0  0
    1.4821    2.8084    0.0000 C   0  0  0  0  0  0  0  0  0  0  0  0
    2.2044    2.3850    0.0000 C   0  0  0  0  0  0  0  0  0  0  0  0
    2.2044    1.5630    0.0000 C   0  0  0  0  0  0  0  0  0  0  0  0
    2.9267    1.1395    0.0000 C   0  0  0  0  0  0  0  0  0  0  0  0
    3.6367    1.5506    0.0000 C   0  0  0  0  0  0  0  0  0  0  0  0
    3.6491    2.3975    0.0000 C   0  0  0  0  0  0  0  0  0  0  0  0
    4.3590    2.8084    0.0000 C   0  0  0  0  0  0  0  0  0  0  0  0
    5.0689    2.3850    0.0000 C   0  0  0  0  0  0  0  0  0  0  0  0
    5.0689    1.5630    0.0000 C   0  0  0  0  0  0  0  0  0  0  0  0
    5.8037    1.1395    0.0000 C   0  0  0  0  0  0  0  0  0  0  0  0
    6.5136    1.5506    0.0000 C   0  0  0  0  0  0  0  0  0  0  0  0
    6.5260    2.3975    0.0000 C   0  0  0  0  0  0  0  0  0  0  0  0
    7.2360    2.8084    0.0000 C   0  0  0  0  0  0  0  0  0  0  0  0
    7.9459    2.3850    0.0000 C   0  0  0  0  0  0  0  0  0  0  0  0
    7.9459    1.5630    0.0000 C   0  0  0  0  0  0  0  0  0  0  0  0
    8.6806    1.1520    0.0000 C   0  0  0  0  0  0  0  0  0  0  0  0
  1 27  1  0  0  0  0
  2 16  1  0  0  0  0
  2 18  1  0  0  0  0
  3  5  1  0  0  0  0
  3  6  1  0  0  0  0
  3  7  2  0  0  0  0
  3 12  1  0  0  0  0
  4 15  1  0  0  0  0
  4 16  1  0  0  0  0
  5 20  1  0  0  0  0
  6 23  1  0  0  0  0
  8 17  2  0  0  0  0
  9 31  2  0  0  0  0
 10 15  1  0  0  0  0
 10 17  1  0  0  0  0
 10 19  1  0  0  0  0
 11 17  1  0  0  0  0
 11 21  2  0  0  0  0
 12 26  1  0  0  0  0
 13 21  1  0  0  0  0
 14 30  1  0  0  0  0
 14 31  1  0  0  0  0
 15 18  1  0  0  0  0
 16 20  1  6  0  0  0
 19 22  2  0  0  0  0
 21 22  1  0  0  0  0
 23 24  2  0  0  0  0
 23 25  1  0  0  0  0
 24 28  1  0  0  0  0
 25 29  2  0  0  0  0
 26 30  1  0  0  0  0
 27 28  2  0  0  0  0
 27 29  1  0  0  0  0
 31 32  1  0  0  0  0
 32 33  1  0  0  0  0
 33 34  1  0  0  0  0
 34 35  1  0  0  0  0
 35 36  2  0  0  0  0
 36 37  1  0  0  0  0
 37 38  1  0  0  0  0
 38 39  2  0  0  0  0
 39 40  1  0  0  0  0
 40 41  1  0  0  0  0
 41 42  2  0  0  0  0
 42 43  1  0  0  0  0
 43 44  1  0  0  0  0
 44 45  2  0  0  0  0
 45 46  1  0  0  0  0
 46 47  1  0  0  0  0
 47 48  2  0  0  0  0
 48 49  1  0  0  0  0
 49 50  1  0  0  0  0
M  END
> <PUBCHEM_COMPOUND_ID_TYPE>
0

> <PUBCHEM_TOTAL_CHARGE>
0

> <PUBCHEM_SUBSTANCE_ID>
310948924

> <PUBCHEM_SUBSTANCE_VERSION>
1

> <PUBCHEM_EXT_DATASOURCE_NAME>
4488

> <PUBCHEM_EXT_DATASOURCE_REGID>
SCHEMBL16127110

> <PUBCHEM_SUBSTANCE_COMMENT>
InChI=1S/C36H49ClN5O6PS/c1-2-3-4-5-6-7-8-9-10-11-12-13-14-15-16-17-18-19-33(43)39-25-26-40-49(45,48-31-22-20-30(37)21-23-31)46-28-35-47-34(29-50-35)42-27-24-32(38)41-36(42)44/h3-4,6-7,9-10,12-13,15-16,20-24,27,34-35H,2,5,8,11,14,17-19,25-26,28-29H2,1H3,(H,39,43)(H,40,45)(H2,38,41,44)/b4-3-,7-6-,10-9-,13-12-,16-15-/t34?,35-,49?/m1/s1
InChIKey=UAYWTQVLICBIIO-XRKUFJHLSA-N

> <PUBCHEM_SUBSTANCE_SYNONYM>
SCHEMBL16127110

> <PUBCHEM_XREF_EXT_ID>
SCHEMBL16127110

> <PUBCHEM_EXT_DATASOURCE_URL>
https://www.surechembl.org/

> <PUBCHEM_EXT_SUBSTANCE_URL>
https://www.surechembl.org/chemical/SCHEMBL16127110

> <PUBCHEM_CID_ASSOCIATIONS>
117614439  1

> <PUBCHEM_COORDINATE_TYPE>
1
3

> <PUBCHEM_BONDANNOTATIONS>
16  20  6

$$$$
