310945762
  -OEChem-07211613022D

 31 35  0     1  0  0  0  0  0999 V2000
    0.6201    2.6304    0.0000 F   0  0  0  0  0  0  0  0  0  0  0  0
    0.9394    1.5594    0.0000 F   0  0  0  0  0  0  0  0  0  0  0  0
   -0.1503    1.2776    0.0000 F   0  0  0  0  0  0  0  0  0  0  0  0
   -2.1231   -2.5740    0.0000 O   0  0  0  0  0  0  0  0  0  0  0  0
   -1.3527   -1.3904    0.0000 N   0  0  0  0  0  0  0  0  0  0  0  0
   -1.2400    1.1837    0.0000 N   0  0  3  0  0  0  0  0  0  0  0  0
   -2.5364   -0.0376    0.0000 N   0  0  0  0  0  0  0  0  0  0  0  0
   -0.6012   -3.4383    0.0000 N   0  0  0  0  0  0  0  0  0  0  0  0
    0.1879   -3.6450    0.0000 N   0  0  0  0  0  0  0  0  0  0  0  0
    1.7098   -2.0667    0.0000 N   0  0  3  0  0  0  0  0  0  0  0  0
   -1.7285   -0.0751    0.0000 C   0  0  3  0  0  0  0  0  0  0  0  0
   -0.8643   -0.1127    0.0000 C   0  0  3  0  0  0  0  0  0  0  0  0
   -2.0291   -0.8643    0.0000 C   0  0  0  0  0  0  0  0  0  0  0  0
   -1.9352    0.6952    0.0000 C   0  0  0  0  0  0  0  0  0  0  0  0
   -0.6764   -0.8643    0.0000 C   0  0  0  0  0  0  0  0  0  0  0  0
   -0.6012    0.6764    0.0000 C   0  0  0  0  0  0  0  0  0  0  0  0
   -1.4092   -2.1795    0.0000 C   0  0  0  0  0  0  0  0  0  0  0  0
   -1.2025    2.0103    0.0000 C   0  0  0  0  0  0  0  0  0  0  0  0
   -0.6388   -2.6304    0.0000 C   0  0  0  0  0  0  0  0  0  0  0  0
   -0.5073    2.4049    0.0000 C   0  0  0  0  0  0  0  0  0  0  0  0
    0.0751   -2.3109    0.0000 C   0  0  0  0  0  0  0  0  0  0  0  0
    0.6012   -2.9122    0.0000 C   0  0  0  0  0  0  0  0  0  0  0  0
    0.2255    1.9540    0.0000 C   0  0  0  0  0  0  0  0  0  0  0  0
   -1.9164    2.4237    0.0000 C   0  0  0  0  0  0  0  0  0  0  0  0
    0.3758   -1.5406    0.0000 C   0  0  0  0  0  0  0  0  0  0  0  0
   -0.4697    3.2316    0.0000 C   0  0  0  0  0  0  0  0  0  0  0  0
    1.4092   -2.8182    0.0000 C   0  0  0  0  0  0  0  0  0  0  0  0
   -1.8977    3.2504    0.0000 C   0  0  0  0  0  0  0  0  0  0  0  0
    1.1837   -1.4279    0.0000 C   0  0  0  0  0  0  0  0  0  0  0  0
   -1.1461    3.6450    0.0000 C   0  0  0  0  0  0  0  0  0  0  0  0
    2.5364   -1.8601    0.0000 C   0  0  0  0  0  0  0  0  0  0  0  0
  1 23  1  0  0  0  0
  2 23  1  0  0  0  0
  3 23  1  0  0  0  0
  4 17  2  0  0  0  0
  5 13  1  0  0  0  0
  5 15  1  0  0  0  0
  5 17  1  0  0  0  0
  6 14  1  0  0  0  0
  6 16  1  0  0  0  0
  6 18  1  0  0  0  0
 11  7  1  6  0  0  0
  8  9  1  0  0  0  0
  8 19  2  0  0  0  0
  9 22  1  0  0  0  0
 10 27  1  0  0  0  0
 10 29  1  0  0  0  0
 10 31  1  0  0  0  0
 11 12  1  0  0  0  0
 11 13  1  0  0  0  0
 11 14  1  0  0  0  0
 12 15  1  1  0  0  0
 12 16  1  0  0  0  0
 17 19  1  0  0  0  0
 18 20  2  0  0  0  0
 18 24  1  0  0  0  0
 19 21  1  0  0  0  0
 20 23  1  0  0  0  0
 20 26  1  0  0  0  0
 21 22  2  0  0  0  0
 21 25  1  0  0  0  0
 22 27  1  0  0  0  0
 24 28  2  0  0  0  0
 25 29  1  0  0  0  0
 26 30  2  0  0  0  0
 28 30  1  0  0  0  0
M  END
> <PUBCHEM_COMPOUND_ID_TYPE>
0

> <PUBCHEM_TOTAL_CHARGE>
0

> <PUBCHEM_SUBSTANCE_ID>
310945762

> <PUBCHEM_SUBSTANCE_VERSION>
1

> <PUBCHEM_EXT_DATASOURCE_NAME>
4488

> <PUBCHEM_EXT_DATASOURCE_REGID>
SCHEMBL16123866

> <PUBCHEM_SUBSTANCE_COMMENT>
InChI=1S/C21H25F3N6O/c1-28-7-6-14-16(10-28)26-27-18(14)19(31)30-9-13-8-29(11-20(13,25)12-30)17-5-3-2-4-15(17)21(22,23)24/h2-5,13H,6-12,25H2,1H3,(H,26,27)/t13-,20-/m0/s1
InChIKey=WLIWSBUHMMJUIZ-RBZFPXEDSA-N

> <PUBCHEM_SUBSTANCE_SYNONYM>
SCHEMBL16123866

> <PUBCHEM_XREF_EXT_ID>
SCHEMBL16123866

> <PUBCHEM_EXT_DATASOURCE_URL>
https://www.surechembl.org/

> <PUBCHEM_EXT_SUBSTANCE_URL>
https://www.surechembl.org/chemical/SCHEMBL16123866

> <PUBCHEM_CID_ASSOCIATIONS>
117611752  1

> <PUBCHEM_COORDINATE_TYPE>
1
3

> <PUBCHEM_BONDANNOTATIONS>
12  15  5
11  7  6

$$$$
