310942475
  -OEChem-07211613022D

 42 47  0     1  0  0  0  0  0999 V2000
    3.2009    2.3766    0.0000 Br  0  0  0  0  0  0  0  0  0  0  0  0
    3.0672   -0.1188    0.0000 O   0  0  0  0  0  0  0  0  0  0  0  0
    3.7356   -2.1983    0.0000 O   0  0  0  0  0  0  0  0  0  0  0  0
    2.4137   -2.2132    0.0000 O   0  0  0  0  0  0  0  0  0  0  0  0
    3.7208    0.2377    0.0000 N   0  0  0  0  0  0  0  0  0  0  0  0
    5.2061    0.1040    0.0000 N   0  0  0  0  0  0  0  0  0  0  0  0
    1.6859    0.6387    0.0000 N   0  0  3  0  0  0  0  0  0  0  0  0
    5.9042    1.3516    0.0000 N   0  0  0  0  0  0  0  0  0  0  0  0
    5.1913    2.6142    0.0000 N   0  0  0  0  0  0  0  0  0  0  0  0
   -2.9038   -0.5198    0.0000 N   0  0  0  0  0  0  0  0  0  0  0  0
   -2.2354   -1.6933    0.0000 N   0  0  0  0  0  0  0  0  0  0  0  0
    3.7208   -0.5495    0.0000 C   0  0  3  0  0  0  0  0  0  0  0  0
    4.4783    0.5347    0.0000 C   0  0  0  0  0  0  0  0  0  0  0  0
    4.4932    1.3665    0.0000 C   0  0  0  0  0  0  0  0  0  0  0  0
    3.4831   -1.3814    0.0000 C   0  0  3  0  0  0  0  0  0  0  0  0
    3.7208    1.6339    0.0000 C   0  0  0  0  0  0  0  0  0  0  0  0
    2.4137   -0.5495    0.0000 C   0  0  3  0  0  0  0  0  0  0  0  0
    3.2455    0.9358    0.0000 C   0  0  0  0  0  0  0  0  0  0  0  0
    2.6810   -1.3962    0.0000 C   0  0  3  0  0  0  0  0  0  0  0  0
    5.1913    1.7973    0.0000 C   0  0  0  0  0  0  0  0  0  0  0  0
    2.3988    0.2377    0.0000 C   0  0  0  0  0  0  0  0  0  0  0  0
    0.9729    0.2377    0.0000 C   0  0  0  0  0  0  0  0  0  0  0  0
    5.9042    0.5198    0.0000 C   0  0  0  0  0  0  0  0  0  0  0  0
   -0.0223   -0.3565    0.0000 C   0  0  0  0  0  0  0  0  0  0  0  0
    0.1708    0.4307    0.0000 C   0  0  0  0  0  0  0  0  0  0  0  0
    0.7650   -0.5644    0.0000 C   0  0  0  0  0  0  0  0  0  0  0  0
    1.6710    1.5150    0.0000 C   0  0  0  0  0  0  0  0  0  0  0  0
   -3.4534   -1.1288    0.0000 C   0  0  0  0  0  0  0  0  0  0  0  0
   -3.0375   -1.8418    0.0000 C   0  0  0  0  0  0  0  0  0  0  0  0
   -2.1463   -0.8169    0.0000 C   0  0  0  0  0  0  0  0  0  0  0  0
   -4.6566   -1.8567    0.0000 C   0  0  0  0  0  0  0  0  0  0  0  0
   -0.7204   -0.7872    0.0000 C   0  0  0  0  0  0  0  0  0  0  0  0
   -4.2406   -1.1437    0.0000 C   0  0  0  0  0  0  0  0  0  0  0  0
   -1.4779   -0.4010    0.0000 C   0  0  0  0  0  0  0  0  0  0  0  0
   -5.4883   -1.8418    0.0000 C   0  0  0  0  0  0  0  0  0  0  0  0
   -3.4385   -2.5845    0.0000 C   0  0  0  0  0  0  0  0  0  0  0  0
   -4.2258   -2.5845    0.0000 C   0  0  0  0  0  0  0  0  0  0  0  0
    2.3840    1.9309    0.0000 C   0  0  0  0  0  0  0  0  0  0  0  0
    0.9432    1.9012    0.0000 C   0  0  0  0  0  0  0  0  0  0  0  0
   -5.8745   -2.6142    0.0000 C   0  0  0  0  0  0  0  0  0  0  0  0
   -5.9042   -1.1585    0.0000 C   0  0  0  0  0  0  0  0  0  0  0  0
   -5.2804   -1.0695    0.0000 C   0  0  0  0  0  0  0  0  0  0  0  0
  1 16  1  0  0  0  0
 12  2  1  6  0  0  0
  2 17  1  0  0  0  0
 15  3  1  6  0  0  0
 19  4  1  6  0  0  0
  5 12  1  0  0  0  0
  5 13  1  0  0  0  0
  5 18  1  0  0  0  0
  6 13  1  0  0  0  0
  6 23  2  0  0  0  0
  7 21  1  0  0  0  0
  7 22  1  0  0  0  0
  7 27  1  0  0  0  0
  8 20  2  0  0  0  0
  8 23  1  0  0  0  0
  9 20  1  0  0  0  0
 10 28  1  0  0  0  0
 10 30  2  0  0  0  0
 11 29  1  0  0  0  0
 11 30  1  0  0  0  0
 12 15  1  0  0  0  0
 13 14  2  0  0  0  0
 14 16  1  0  0  0  0
 14 20  1  0  0  0  0
 15 19  1  0  0  0  0
 16 18  2  0  0  0  0
 17 19  1  0  0  0  0
 17 21  1  1  0  0  0
 22 25  1  0  0  0  0
 22 26  1  0  0  0  0
 24 25  1  0  0  0  0
 24 26  1  0  0  0  0
 24 32  1  0  0  0  0
 27 38  1  0  0  0  0
 27 39  1  0  0  0  0
 28 29  2  0  0  0  0
 28 33  1  0  0  0  0
 29 36  1  0  0  0  0
 30 34  1  0  0  0  0
 31 33  2  0  0  0  0
 31 35  1  0  0  0  0
 31 37  1  0  0  0  0
 32 34  1  0  0  0  0
 35 40  1  0  0  0  0
 35 41  1  0  0  0  0
 35 42  1  0  0  0  0
 36 37  2  0  0  0  0
M  END
> <PUBCHEM_COMPOUND_ID_TYPE>
0

> <PUBCHEM_TOTAL_CHARGE>
0

> <PUBCHEM_SUBSTANCE_ID>
310942475

> <PUBCHEM_SUBSTANCE_VERSION>
1

> <PUBCHEM_EXT_DATASOURCE_NAME>
4488

> <PUBCHEM_EXT_DATASOURCE_REGID>
SCHEMBL16120511

> <PUBCHEM_SUBSTANCE_COMMENT>
InChI=1S/C31H42BrN7O3/c1-16(2)38(14-23-26(40)27(41)30(42-23)39-13-20(32)25-28(33)34-15-35-29(25)39)19-10-17(11-19)6-9-24-36-21-8-7-18(31(3,4)5)12-22(21)37-24/h7-8,12-13,15-17,19,23,26-27,30,40-41H,6,9-11,14H2,1-5H3,(H,36,37)(H2,33,34,35)/t17?,19?,23-,26-,27-,30-/m1/s1
InChIKey=PUJONDOXVSQYQR-RMBSYEQGSA-N

> <PUBCHEM_SUBSTANCE_SYNONYM>
SCHEMBL16120511

> <PUBCHEM_XREF_EXT_ID>
SCHEMBL16120511

> <PUBCHEM_EXT_DATASOURCE_URL>
https://www.surechembl.org/

> <PUBCHEM_EXT_SUBSTANCE_URL>
https://www.surechembl.org/chemical/SCHEMBL16120511

> <PUBCHEM_CID_ASSOCIATIONS>
78425883  1

> <PUBCHEM_COORDINATE_TYPE>
1
3

> <PUBCHEM_BONDANNOTATIONS>
17  21  5
12  2  6
15  3  6
19  4  6

$$$$
