310936616
  -OEChem-07211613022D

 11 12  0     0  0  0  0  0  0999 V2000
    3.2120   -2.7689    0.0000 O   0  0  0  0  0  0  0  0  0  0  0  0
    1.9659   -0.6091    0.0000 N   0  0  0  0  0  0  0  0  0  0  0  0
    2.3812   -1.3152    0.0000 C   0  0  0  0  0  0  0  0  0  0  0  0
    1.1491   -0.6091    0.0000 C   0  0  0  0  0  0  0  0  0  0  0  0
    1.9798   -2.0490    0.0000 C   0  0  0  0  0  0  0  0  0  0  0  0
    3.2120   -1.3429    0.0000 C   0  0  0  0  0  0  0  0  0  0  0  0
    0.5815   -1.1768    0.0000 C   0  0  0  0  0  0  0  0  0  0  0  0
    0.5676    0.0000    0.0000 C   0  0  0  0  0  0  0  0  0  0  0  0
    0.0000   -0.5815    0.0000 C   0  0  0  0  0  0  0  0  0  0  0  0
    2.3812   -2.7551    0.0000 C   0  0  0  0  0  0  0  0  0  0  0  0
    3.6134   -2.0351    0.0000 C   0  0  0  0  0  0  0  0  0  0  0  0
  1 10  1  0  0  0  0
  1 11  1  0  0  0  0
  2  3  1  0  0  0  0
  2  4  1  0  0  0  0
  3  5  1  0  0  0  0
  3  6  1  0  0  0  0
  4  7  1  0  0  0  0
  4  8  1  0  0  0  0
  5 10  1  0  0  0  0
  6 11  1  0  0  0  0
  7  9  1  0  0  0  0
  8  9  1  0  0  0  0
M  END
> <PUBCHEM_COMPOUND_ID_TYPE>
0

> <PUBCHEM_TOTAL_CHARGE>
0

> <PUBCHEM_SUBSTANCE_ID>
310936616

> <PUBCHEM_SUBSTANCE_VERSION>
1

> <PUBCHEM_EXT_DATASOURCE_NAME>
4488

> <PUBCHEM_EXT_DATASOURCE_REGID>
SCHEMBL16114276

> <PUBCHEM_SUBSTANCE_COMMENT>
InChI=1S/C9H17NO/c1-2-8(3-1)10-9-4-6-11-7-5-9/h8-10H,1-7H2
InChIKey=CBYCMBHVGFNEMU-UHFFFAOYSA-N

> <PUBCHEM_SUBSTANCE_SYNONYM>
SCHEMBL16114276

> <PUBCHEM_XREF_EXT_ID>
SCHEMBL16114276

> <PUBCHEM_EXT_DATASOURCE_URL>
https://www.surechembl.org/

> <PUBCHEM_EXT_SUBSTANCE_URL>
https://www.surechembl.org/chemical/SCHEMBL16114276

> <PUBCHEM_CID_ASSOCIATIONS>
53408546  1

> <PUBCHEM_COORDINATE_TYPE>
1
3

$$$$
