310934567
  -OEChem-07211613022D

 30 32  0     0  0  0  0  0  0999 V2000
   -5.4256  -13.7471    0.0000 F   0  0  0  0  0  0  0  0  0  0  0  0
   -6.5780  -13.5645    0.0000 F   0  0  0  0  0  0  0  0  0  0  0  0
   -5.2431  -12.5947    0.0000 F   0  0  0  0  0  0  0  0  0  0  0  0
   -6.3955  -12.4122    0.0000 O   0  0  0  0  0  0  0  0  0  0  0  0
    0.1268   -6.7555    0.0000 O   0  0  0  0  0  0  0  0  0  0  0  0
    0.8413   -5.5180    0.0000 O   0  0  0  0  0  0  0  0  0  0  0  0
   -5.0533   -9.3975    0.0000 N   0  0  0  0  0  0  0  0  0  0  0  0
   -4.2463   -9.2260    0.0000 N   0  0  0  0  0  0  0  0  0  0  0  0
   -4.9137   -8.0699    0.0000 N   0  0  0  0  0  0  0  0  0  0  0  0
   -0.5877   -5.5180    0.0000 N   0  0  0  0  0  0  0  0  0  0  0  0
   -4.1600   -8.4055    0.0000 C   0  0  0  0  0  0  0  0  0  0  0  0
   -5.3888  -10.1512    0.0000 C   0  0  0  0  0  0  0  0  0  0  0  0
   -3.4456   -7.9930    0.0000 C   0  0  0  0  0  0  0  0  0  0  0  0
   -5.4658   -8.6830    0.0000 C   0  0  0  0  0  0  0  0  0  0  0  0
   -6.0599  -11.6585    0.0000 C   0  0  0  0  0  0  0  0  0  0  0  0
   -4.9039  -10.8186    0.0000 C   0  0  0  0  0  0  0  0  0  0  0  0
   -6.2093  -10.2374    0.0000 C   0  0  0  0  0  0  0  0  0  0  0  0
   -2.7311   -8.4055    0.0000 C   0  0  0  0  0  0  0  0  0  0  0  0
   -3.4456   -7.1680    0.0000 C   0  0  0  0  0  0  0  0  0  0  0  0
   -5.2394  -11.5723    0.0000 C   0  0  0  0  0  0  0  0  0  0  0  0
   -6.5449  -10.9911    0.0000 C   0  0  0  0  0  0  0  0  0  0  0  0
   -2.0166   -7.1680    0.0000 C   0  0  0  0  0  0  0  0  0  0  0  0
   -5.9106  -13.0796    0.0000 C   0  0  0  0  0  0  0  0  0  0  0  0
   -2.0166   -7.9930    0.0000 C   0  0  0  0  0  0  0  0  0  0  0  0
   -2.7311   -6.7555    0.0000 C   0  0  0  0  0  0  0  0  0  0  0  0
   -1.3022   -6.7555    0.0000 C   0  0  0  0  0  0  0  0  0  0  0  0
   -1.3022   -5.9305    0.0000 C   0  0  0  0  0  0  0  0  0  0  0  0
    0.1268   -5.9305    0.0000 C   0  0  0  0  0  0  0  0  0  0  0  0
   -0.5877   -4.6930    0.0000 C   0  0  0  0  0  0  0  0  0  0  0  0
    0.1268   -4.2805    0.0000 C   0  0  0  0  0  0  0  0  0  0  0  0
  1 23  1  0  0  0  0
  2 23  1  0  0  0  0
  3 23  1  0  0  0  0
  4 15  1  0  0  0  0
  4 23  1  0  0  0  0
  5 28  2  0  0  0  0
  6 28  1  0  0  0  0
  7  8  1  0  0  0  0
  7 12  1  0  0  0  0
  7 14  1  0  0  0  0
  8 11  2  0  0  0  0
  9 11  1  0  0  0  0
  9 14  2  0  0  0  0
 10 27  1  0  0  0  0
 10 28  1  0  0  0  0
 10 29  1  0  0  0  0
 11 13  1  0  0  0  0
 12 16  2  0  0  0  0
 12 17  1  0  0  0  0
 13 18  2  0  0  0  0
 13 19  1  0  0  0  0
 15 20  2  0  0  0  0
 15 21  1  0  0  0  0
 16 20  1  0  0  0  0
 17 21  2  0  0  0  0
 18 24  1  0  0  0  0
 19 25  2  0  0  0  0
 22 24  2  0  0  0  0
 22 25  1  0  0  0  0
 22 26  1  0  0  0  0
 26 27  1  0  0  0  0
 29 30  1  0  0  0  0
M  END
> <PUBCHEM_COMPOUND_ID_TYPE>
0

> <PUBCHEM_TOTAL_CHARGE>
0

> <PUBCHEM_SUBSTANCE_ID>
310934567

> <PUBCHEM_SUBSTANCE_VERSION>
1

> <PUBCHEM_EXT_DATASOURCE_NAME>
4488

> <PUBCHEM_EXT_DATASOURCE_REGID>
SCHEMBL16112058

> <PUBCHEM_SUBSTANCE_COMMENT>
InChI=1S/C20H19F3N4O3/c1-2-26(19(28)29)12-11-14-3-5-15(6-4-14)18-24-13-27(25-18)16-7-9-17(10-8-16)30-20(21,22)23/h3-10,13H,2,11-12H2,1H3,(H,28,29)
InChIKey=FKQWTEFBCITCKC-UHFFFAOYSA-N

> <PUBCHEM_SUBSTANCE_SYNONYM>
SCHEMBL16112058

> <PUBCHEM_XREF_EXT_ID>
SCHEMBL16112058

> <PUBCHEM_EXT_DATASOURCE_URL>
https://www.surechembl.org/

> <PUBCHEM_EXT_SUBSTANCE_URL>
https://www.surechembl.org/chemical/SCHEMBL16112058

> <PUBCHEM_CID_ASSOCIATIONS>
117602757  1

> <PUBCHEM_COORDINATE_TYPE>
1
3

$$$$
