310946885
  -OEChem-07211613022D

 23 22  0     0  0  0  0  0  0999 V2000
   -3.0431    0.5856    0.0000 P   0  0  0  0  0  0  0  0  0  0  0  0
   -4.2560   -0.1255    0.0000 O   0  0  0  0  0  0  0  0  0  0  0  0
   -3.4195   -0.7739    0.0000 O   0  0  0  0  0  0  0  0  0  0  0  0
   -3.0431    1.9660    0.0000 O   0  0  0  0  0  0  0  0  0  0  0  0
    4.1933    0.5647    0.0000 O   0  0  0  0  0  0  0  0  0  0  0  0
    5.0717   -0.8575    0.0000 O   0  0  0  0  0  0  0  0  0  0  0  0
    1.3281    0.3137    0.0000 C   0  0  0  0  0  0  0  0  0  0  0  0
    2.3320    0.2719    0.0000 C   0  0  0  0  0  0  0  0  0  0  0  0
    1.8091    0.5647    0.0000 C   0  0  0  0  0  0  0  0  0  0  0  0
    0.6170   -0.1045    0.0000 C   0  0  0  0  0  0  0  0  0  0  0  0
   -1.8091   -0.1255    0.0000 C   0  0  0  0  0  0  0  0  0  0  0  0
   -0.6797    0.6274    0.0000 C   0  0  0  0  0  0  0  0  0  0  0  0
    3.0221   -0.1255    0.0000 C   0  0  0  0  0  0  0  0  0  0  0  0
    1.4954   -0.2092    0.0000 C   0  0  0  0  0  0  0  0  0  0  0  0
    1.4954    0.9829    0.0000 C   0  0  0  0  0  0  0  0  0  0  0  0
    2.2065    0.9621    0.0000 C   0  0  0  0  0  0  0  0  0  0  0  0
    2.2065   -0.2300    0.0000 C   0  0  0  0  0  0  0  0  0  0  0  0
   -4.3607   -1.0248    0.0000 C   0  0  0  0  0  0  0  0  0  0  0  0
   -5.0717    0.3347    0.0000 C   0  0  0  0  0  0  0  0  0  0  0  0
    5.0926    0.0627    0.0000 C   0  0  0  0  0  0  0  0  0  0  0  0
   -4.6116   -1.9660    0.0000 C   0  0  0  0  0  0  0  0  0  0  0  0
   -5.9083   -0.1464    0.0000 C   0  0  0  0  0  0  0  0  0  0  0  0
    5.9083    0.5437    0.0000 C   0  0  0  0  0  0  0  0  0  0  0  0
  1  2  1  0  0  0  0
  1  3  1  0  0  0  0
  1  4  2  0  0  0  0
  1 11  1  0  0  0  0
  2 19  1  0  0  0  0
  3 18  1  0  0  0  0
  5 13  1  0  0  0  0
  5 20  1  0  0  0  0
  6 20  2  0  0  0  0
  7  9  1  0  0  0  0
  7 10  1  0  0  0  0
  7 14  1  0  0  0  0
  7 15  1  0  0  0  0
  8  9  1  0  0  0  0
  8 13  1  0  0  0  0
  8 16  1  0  0  0  0
  8 17  1  0  0  0  0
 10 12  2  0  0  0  0
 11 12  1  0  0  0  0
 18 21  1  0  0  0  0
 19 22  1  0  0  0  0
 20 23  1  0  0  0  0
M  END
> <PUBCHEM_COMPOUND_ID_TYPE>
0

> <PUBCHEM_TOTAL_CHARGE>
0

> <PUBCHEM_SUBSTANCE_ID>
310946885

> <PUBCHEM_SUBSTANCE_VERSION>
1

> <PUBCHEM_EXT_DATASOURCE_NAME>
4488

> <PUBCHEM_EXT_DATASOURCE_REGID>
SCHEMBL16125009

> <PUBCHEM_SUBSTANCE_COMMENT>
InChI=1S/C17H33O5P/c1-8-21-23(19,22-9-2)12-10-11-16(4,5)13-17(6,7)14-20-15(3)18/h10-11H,8-9,12-14H2,1-7H3/b11-10+
InChIKey=GKRYAHCVUWKFNY-ZHACJKMWSA-N

> <PUBCHEM_SUBSTANCE_SYNONYM>
SCHEMBL16125009

> <PUBCHEM_XREF_EXT_ID>
SCHEMBL16125009

> <PUBCHEM_EXT_DATASOURCE_URL>
https://www.surechembl.org/

> <PUBCHEM_EXT_SUBSTANCE_URL>
https://www.surechembl.org/chemical/SCHEMBL16125009

> <PUBCHEM_CID_ASSOCIATIONS>
117612743  1

> <PUBCHEM_COORDINATE_TYPE>
1
3

> <PUBCHEM_BONDANNOTATIONS>
11  12  3

$$$$
