310935734
  -OEChem-07211613022D

 37 42  0     1  0  0  0  0  0999 V2000
    0.8213   -2.9333    0.0000 O   0  0  0  0  0  0  0  0  0  0  0  0
    3.2853   -2.6987    0.0000 O   0  0  0  0  0  0  0  0  0  0  0  0
    5.2408   -5.3582    0.0000 N   0  0  3  0  0  0  0  0  0  0  0  0
    5.4364   -6.8053    0.0000 N   0  0  0  0  0  0  0  0  0  0  0  0
    4.2631   -7.6266    0.0000 N   0  0  0  0  0  0  0  0  0  0  0  0
    2.6204   -4.1848    0.0000 N   0  0  0  0  0  0  0  0  0  0  0  0
    4.4586   -1.8773    0.0000 N   0  0  0  0  0  0  0  0  0  0  0  0
    2.1511   -3.5200    0.0000 N   0  0  0  0  0  0  0  0  0  0  0  0
    2.7378    0.0000    0.0000 N   0  0  0  0  0  0  0  0  0  0  0  0
    4.1066   -6.2186    0.0000 C   0  0  0  0  0  0  0  0  0  0  0  0
    4.9279   -6.1404    0.0000 C   0  0  0  0  0  0  0  0  0  0  0  0
    3.7546   -6.9617    0.0000 C   0  0  0  0  0  0  0  0  0  0  0  0
    2.8160   -5.6319    0.0000 C   0  0  0  0  0  0  0  0  0  0  0  0
    2.9724   -7.0790    0.0000 C   0  0  0  0  0  0  0  0  0  0  0  0
    3.6373   -5.5537    0.0000 C   0  0  0  0  0  0  0  0  0  0  0  0
    5.0844   -3.9502    0.0000 C   0  0  0  0  0  0  0  0  0  0  0  0
    2.4640   -6.3750    0.0000 C   0  0  0  0  0  0  0  0  0  0  0  0
    4.7715   -4.6933    0.0000 C   0  0  0  0  0  0  0  0  0  0  0  0
    5.9057   -3.8328    0.0000 C   0  0  0  0  0  0  0  0  0  0  0  0
    2.3075   -4.9670    0.0000 C   0  0  0  0  0  0  0  0  0  0  0  0
    6.0622   -5.2800    0.0000 C   0  0  0  0  0  0  0  0  0  0  0  0
    5.0844   -7.5484    0.0000 C   0  0  0  0  0  0  0  0  0  0  0  0
    6.4142   -4.4978    0.0000 C   0  0  0  0  0  0  0  0  0  0  0  0
    4.6151   -3.2853    0.0000 C   0  0  0  0  0  0  0  0  0  0  0  0
    4.9279   -2.5422    0.0000 C   0  0  0  0  0  0  0  0  0  0  0  0
    6.2577   -3.0898    0.0000 C   0  0  0  0  0  0  0  0  0  0  0  0
    1.4862   -5.0453    0.0000 C   0  0  0  0  0  0  0  0  0  0  0  0
    2.6204   -7.8222    0.0000 C   0  0  0  0  0  0  0  0  0  0  0  0
    5.7493   -2.4249    0.0000 C   0  0  0  0  0  0  0  0  0  0  0  0
    1.3298   -3.5982    0.0000 C   0  0  0  0  0  0  0  0  0  0  0  0
    1.0169   -4.3804    0.0000 C   0  0  0  0  0  0  0  0  0  0  0  0
    3.6373   -1.9556    0.0000 C   0  0  0  0  0  0  0  0  0  0  0  0
    3.1679   -1.2907    0.0000 C   0  0  3  0  0  0  0  0  0  0  0  0
    3.4026   -0.4693    0.0000 C   0  0  0  0  0  0  0  0  0  0  0  0
    2.3075   -1.2907    0.0000 C   0  0  0  0  0  0  0  0  0  0  0  0
    2.0729   -0.4693    0.0000 C   0  0  0  0  0  0  0  0  0  0  0  0
    0.0000   -3.0115    0.0000 C   0  0  0  0  0  0  0  0  0  0  0  0
  1 30  1  0  0  0  0
  1 37  1  0  0  0  0
  2 32  2  0  0  0  0
  3 11  1  0  0  0  0
  3 18  1  0  0  0  0
  3 21  1  0  0  0  0
  4 11  1  0  0  0  0
  4 22  2  0  0  0  0
  5 12  2  0  0  0  0
  5 22  1  0  0  0  0
  6  8  2  0  0  0  0
  6 20  1  0  0  0  0
  7 25  1  0  0  0  0
  7 32  1  0  0  0  0
  8 30  1  0  0  0  0
  9 34  1  0  0  0  0
  9 36  1  0  0  0  0
 10 11  2  0  0  0  0
 10 12  1  0  0  0  0
 10 15  1  0  0  0  0
 12 14  1  0  0  0  0
 13 15  2  0  0  0  0
 13 17  1  0  0  0  0
 13 20  1  0  0  0  0
 14 17  2  0  0  0  0
 14 28  1  0  0  0  0
 16 18  1  0  0  0  0
 16 19  2  0  0  0  0
 16 24  1  0  0  0  0
 19 23  1  0  0  0  0
 19 26  1  0  0  0  0
 20 27  2  0  0  0  0
 21 23  1  0  0  0  0
 24 25  2  0  0  0  0
 25 29  1  0  0  0  0
 26 29  2  0  0  0  0
 27 31  1  0  0  0  0
 30 31  2  0  0  0  0
 33 32  1  6  0  0  0
 33 34  1  0  0  0  0
 33 35  1  0  0  0  0
 35 36  1  0  0  0  0
M  END
> <PUBCHEM_COMPOUND_ID_TYPE>
0

> <PUBCHEM_TOTAL_CHARGE>
0

> <PUBCHEM_SUBSTANCE_ID>
310935734

> <PUBCHEM_SUBSTANCE_VERSION>
1

> <PUBCHEM_EXT_DATASOURCE_NAME>
4488

> <PUBCHEM_EXT_DATASOURCE_REGID>
SCHEMBL16113318

> <PUBCHEM_SUBSTANCE_COMMENT>
InChI=1S/C28H29N7O2/c1-17-11-20(24-5-6-25(37-2)34-33-24)13-23-26(17)30-16-31-27(23)35-10-8-18-3-4-22(12-21(18)15-35)32-28(36)19-7-9-29-14-19/h3-6,11-13,16,19,29H,7-10,14-15H2,1-2H3,(H,32,36)/t19-/m1/s1
InChIKey=XVMDDPVVURWMFJ-LJQANCHMSA-N

> <PUBCHEM_SUBSTANCE_SYNONYM>
SCHEMBL16113318

> <PUBCHEM_XREF_EXT_ID>
SCHEMBL16113318

> <PUBCHEM_EXT_DATASOURCE_URL>
https://www.surechembl.org/

> <PUBCHEM_EXT_SUBSTANCE_URL>
https://www.surechembl.org/chemical/SCHEMBL16113318

> <PUBCHEM_CID_ASSOCIATIONS>
117603739  1

> <PUBCHEM_COORDINATE_TYPE>
1
3

> <PUBCHEM_BONDANNOTATIONS>
33  32  6

$$$$
