310944406
  -OEChem-07211613022D

 37 43  0     0  0  0  0  0  0999 V2000
   -1.0190    2.5555    0.0000 F   0  0  0  0  0  0  0  0  0  0  0  0
   -1.0513   -0.7116    0.0000 N   0  0  0  0  0  0  0  0  0  0  0  0
    0.8572   -0.3558    0.0000 N   0  0  0  0  0  0  0  0  0  0  0  0
    1.1645    2.0541    0.0000 N   0  0  0  0  0  0  0  0  0  0  0  0
   -3.2186    2.0864    0.0000 N   0  0  0  0  0  0  0  0  0  0  0  0
   -0.3558   -1.1969    0.0000 C   0  0  0  0  0  0  0  0  0  0  0  0
    0.4529   -1.0351    0.0000 C   0  0  0  0  0  0  0  0  0  0  0  0
   -0.6469   -1.9409    0.0000 C   0  0  0  0  0  0  0  0  0  0  0  0
    1.0028   -1.6336    0.0000 C   0  0  0  0  0  0  0  0  0  0  0  0
   -1.7468   -1.1645    0.0000 C   0  0  0  0  0  0  0  0  0  0  0  0
   -1.4880   -1.9247    0.0000 C   0  0  0  0  0  0  0  0  0  0  0  0
    1.7468   -1.3101    0.0000 C   0  0  0  0  0  0  0  0  0  0  0  0
    1.6983   -0.5176    0.0000 C   0  0  0  0  0  0  0  0  0  0  0  0
   -1.0513    0.1456    0.0000 C   0  0  0  0  0  0  0  0  0  0  0  0
   -0.0971   -2.5555    0.0000 C   0  0  0  0  0  0  0  0  0  0  0  0
    0.7279   -2.4099    0.0000 C   0  0  0  0  0  0  0  0  0  0  0  0
    1.3101    0.4043    0.0000 C   0  0  0  0  0  0  0  0  0  0  0  0
   -2.5878   -1.0190    0.0000 C   0  0  0  0  0  0  0  0  0  0  0  0
   -2.0703   -2.5393    0.0000 C   0  0  0  0  0  0  0  0  0  0  0  0
    2.5393   -1.6336    0.0000 C   0  0  0  0  0  0  0  0  0  0  0  0
    2.3938   -0.0647    0.0000 C   0  0  0  0  0  0  0  0  0  0  0  0
   -0.3235    0.5176    0.0000 C   0  0  0  0  0  0  0  0  0  0  0  0
   -1.7468    0.5337    0.0000 C   0  0  0  0  0  0  0  0  0  0  0  0
   -0.3073    1.3263    0.0000 C   0  0  0  0  0  0  0  0  0  0  0  0
   -1.7630    1.3586    0.0000 C   0  0  0  0  0  0  0  0  0  0  0  0
    2.1349    0.3882    0.0000 C   0  0  0  0  0  0  0  0  0  0  0  0
    0.8734    1.0837    0.0000 C   0  0  0  0  0  0  0  0  0  0  0  0
   -3.1216   -1.5688    0.0000 C   0  0  0  0  0  0  0  0  0  0  0  0
   -2.8466   -2.3614    0.0000 C   0  0  0  0  0  0  0  0  0  0  0  0
    3.2186   -1.1807    0.0000 C   0  0  0  0  0  0  0  0  0  0  0  0
    3.1539   -0.4043    0.0000 C   0  0  0  0  0  0  0  0  0  0  0  0
   -1.0190    1.7630    0.0000 C   0  0  0  0  0  0  0  0  0  0  0  0
    2.5555    1.0998    0.0000 C   0  0  0  0  0  0  0  0  0  0  0  0
    1.2777    1.7953    0.0000 C   0  0  0  0  0  0  0  0  0  0  0  0
    0.4367    1.7144    0.0000 C   0  0  0  0  0  0  0  0  0  0  0  0
   -2.5070    1.7468    0.0000 C   0  0  0  0  0  0  0  0  0  0  0  0
    2.1188    1.8115    0.0000 C   0  0  0  0  0  0  0  0  0  0  0  0
  1 32  1  0  0  0  0
  2  6  1  0  0  0  0
  2 10  1  0  0  0  0
  2 14  1  0  0  0  0
  3  7  1  0  0  0  0
  3 13  1  0  0  0  0
  3 17  1  0  0  0  0
  4 35  3  0  0  0  0
  5 36  3  0  0  0  0
  6  7  1  0  0  0  0
  6  8  2  0  0  0  0
  7  9  2  0  0  0  0
  8 11  1  0  0  0  0
  8 15  1  0  0  0  0
  9 12  1  0  0  0  0
  9 16  1  0  0  0  0
 10 11  2  0  0  0  0
 10 18  1  0  0  0  0
 11 19  1  0  0  0  0
 12 13  2  0  0  0  0
 12 20  1  0  0  0  0
 13 21  1  0  0  0  0
 14 22  2  0  0  0  0
 14 23  1  0  0  0  0
 15 16  2  0  0  0  0
 17 26  2  0  0  0  0
 17 27  1  0  0  0  0
 18 28  2  0  0  0  0
 19 29  2  0  0  0  0
 20 30  2  0  0  0  0
 21 31  2  0  0  0  0
 22 24  1  0  0  0  0
 23 25  2  0  0  0  0
 24 32  2  0  0  0  0
 24 35  1  0  0  0  0
 25 32  1  0  0  0  0
 25 36  1  0  0  0  0
 26 33  1  0  0  0  0
 27 34  2  0  0  0  0
 28 29  1  0  0  0  0
 30 31  1  0  0  0  0
 33 37  2  0  0  0  0
 34 37  1  0  0  0  0
M  END
> <PUBCHEM_COMPOUND_ID_TYPE>
0

> <PUBCHEM_TOTAL_CHARGE>
0

> <PUBCHEM_SUBSTANCE_ID>
310944406

> <PUBCHEM_SUBSTANCE_VERSION>
1

> <PUBCHEM_EXT_DATASOURCE_NAME>
4488

> <PUBCHEM_EXT_DATASOURCE_REGID>
SCHEMBL16122481

> <PUBCHEM_SUBSTANCE_COMMENT>
InChI=1S/C32H17FN4/c33-30-20(18-34)16-23(17-21(30)19-35)37-29-13-7-5-11-25(29)27-15-14-26-24-10-4-6-12-28(24)36(31(26)32(27)37)22-8-2-1-3-9-22/h1-17H
InChIKey=LRZKVVVWWBRQDP-UHFFFAOYSA-N

> <PUBCHEM_SUBSTANCE_SYNONYM>
SCHEMBL16122481

> <PUBCHEM_XREF_EXT_ID>
SCHEMBL16122481

> <PUBCHEM_EXT_DATASOURCE_URL>
https://www.surechembl.org/

> <PUBCHEM_EXT_SUBSTANCE_URL>
https://www.surechembl.org/chemical/SCHEMBL16122481

> <PUBCHEM_CID_ASSOCIATIONS>
117610663  1

> <PUBCHEM_COORDINATE_TYPE>
1
3

$$$$
