310928705
  -OEChem-07211613022D

 14 15  0     0  0  0  0  0  0999 V2000
    1.4722    0.9121    0.0000 N   0  0  0  0  0  0  0  0  0  0  0  0
   -1.4722   -0.9121    0.0000 N   0  0  0  0  0  0  0  0  0  0  0  0
    1.7272    0.1275    0.0000 N   0  0  0  0  0  0  0  0  0  0  0  0
   -1.7272   -0.1275    0.0000 N   0  0  0  0  0  0  0  0  0  0  0  0
   -0.3923   -0.1275    0.0000 C   0  0  0  0  0  0  0  0  0  0  0  0
    0.3923    0.1275    0.0000 C   0  0  0  0  0  0  0  0  0  0  0  0
    0.6472    0.9121    0.0000 C   0  0  0  0  0  0  0  0  0  0  0  0
   -0.6472   -0.9121    0.0000 C   0  0  0  0  0  0  0  0  0  0  0  0
   -1.0597    0.3575    0.0000 C   0  0  0  0  0  0  0  0  0  0  0  0
    1.0597   -0.3575    0.0000 C   0  0  0  0  0  0  0  0  0  0  0  0
    0.1623    1.5795    0.0000 C   0  0  0  0  0  0  0  0  0  0  0  0
   -0.1623   -1.5795    0.0000 C   0  0  0  0  0  0  0  0  0  0  0  0
   -1.0597    1.1825    0.0000 C   0  0  0  0  0  0  0  0  0  0  0  0
    1.0597   -1.1825    0.0000 C   0  0  0  0  0  0  0  0  0  0  0  0
  1  3  1  0  0  0  0
  1  7  2  0  0  0  0
  2  4  1  0  0  0  0
  2  8  2  0  0  0  0
  3 10  1  0  0  0  0
  4  9  1  0  0  0  0
  5  6  1  0  0  0  0
  5  8  1  0  0  0  0
  5  9  2  0  0  0  0
  6  7  1  0  0  0  0
  6 10  2  0  0  0  0
  7 11  1  0  0  0  0
  8 12  1  0  0  0  0
  9 13  1  0  0  0  0
 10 14  1  0  0  0  0
M  END
> <PUBCHEM_COMPOUND_ID_TYPE>
0

> <PUBCHEM_TOTAL_CHARGE>
0

> <PUBCHEM_SUBSTANCE_ID>
310928705

> <PUBCHEM_SUBSTANCE_VERSION>
1

> <PUBCHEM_EXT_DATASOURCE_NAME>
11752

> <PUBCHEM_EXT_DATASOURCE_REGID>
BD232857

> <PUBCHEM_SUBSTANCE_SYNONYM>
3,3',5,5'-Tetramethyl-1H,1'H-4,4'-bipyrazole
4054-67-5

> <PUBCHEM_GENERIC_REGISTRY_NAME>
4054-67-5

> <PUBCHEM_XREF_EXT_ID>
BD232857

> <PUBCHEM_EXT_DATASOURCE_URL>
http://www.bidepharmatech.com/en/index.html

> <PUBCHEM_EXT_SUBSTANCE_URL>
http://www.bidepharmatech.com/en/goodsview_goodscode_BD232857.html

> <PUBCHEM_CID_ASSOCIATIONS>
744436  1

> <PUBCHEM_COORDINATE_TYPE>
1
3

$$$$
