310945880
  -OEChem-07211613022D

 37 40  0     1  0  0  0  0  0999 V2000
    3.6576    1.3887    0.0000 O   0  0  0  0  0  0  0  0  0  0  0  0
    1.4025    1.4162    0.0000 O   0  0  0  0  0  0  0  0  0  0  0  0
    0.6738    1.0038    0.0000 O   0  0  0  0  0  0  0  0  0  0  0  0
   -0.0275    1.4300    0.0000 O   0  0  0  0  0  0  0  0  0  0  0  0
   -2.9289   -2.6538    0.0000 O   0  0  0  0  0  0  0  0  0  0  0  0
    1.3887   -0.2200    0.0000 N   0  0  0  0  0  0  0  0  0  0  0  0
   -0.7563    0.2062    0.0000 N   0  0  0  0  0  0  0  0  0  0  0  0
   -2.8876    1.4576    0.0000 N   0  0  0  0  0  0  0  0  0  0  0  0
   -2.1588    2.6951    0.0000 N   0  0  0  0  0  0  0  0  0  0  0  0
   -2.1863    0.2200    0.0000 N   0  0  0  0  0  0  0  0  0  0  0  0
    2.8601    1.4162    0.0000 C   0  0  3  0  0  0  0  0  0  0  0  0
    2.0900    0.9488    0.0000 C   0  0  0  0  0  0  0  0  0  0  0  0
    3.2588    0.7288    0.0000 C   0  0  0  0  0  0  0  0  0  0  0  0
    2.1038    0.1787    0.0000 C   0  0  3  0  0  0  0  0  0  0  0  0
    2.8463    2.2413    0.0000 C   0  0  0  0  0  0  0  0  0  0  0  0
    0.6738    0.1787    0.0000 C   0  0  0  0  0  0  0  0  0  0  0  0
    2.8051   -0.2200    0.0000 C   0  0  0  0  0  0  0  0  0  0  0  0
   -0.0275   -0.1924    0.0000 C   0  0  3  0  0  0  0  0  0  0  0  0
    2.8188   -1.0588    0.0000 C   0  0  0  0  0  0  0  0  0  0  0  0
   -0.7701    1.0313    0.0000 C   0  0  0  0  0  0  0  0  0  0  0  0
   -1.4576    1.4576    0.0000 C   0  0  0  0  0  0  0  0  0  0  0  0
   -0.0550   -1.0175    0.0000 C   0  0  0  0  0  0  0  0  0  0  0  0
   -0.7563   -1.4300    0.0000 C   0  0  0  0  0  0  0  0  0  0  0  0
   -2.1725    1.0588    0.0000 C   0  0  0  0  0  0  0  0  0  0  0  0
    3.5201   -1.4714    0.0000 C   0  0  0  0  0  0  0  0  0  0  0  0
    2.1038   -1.4714    0.0000 C   0  0  0  0  0  0  0  0  0  0  0  0
   -1.4438    2.2825    0.0000 C   0  0  0  0  0  0  0  0  0  0  0  0
   -1.4989   -1.0313    0.0000 C   0  0  0  0  0  0  0  0  0  0  0  0
   -0.7838   -2.2551    0.0000 C   0  0  0  0  0  0  0  0  0  0  0  0
   -2.2138   -2.2413    0.0000 C   0  0  0  0  0  0  0  0  0  0  0  0
   -2.8738    2.2962    0.0000 C   0  0  0  0  0  0  0  0  0  0  0  0
   -2.1863   -1.4162    0.0000 C   0  0  0  0  0  0  0  0  0  0  0  0
   -1.4851   -2.6538    0.0000 C   0  0  0  0  0  0  0  0  0  0  0  0
    3.5064   -2.2962    0.0000 C   0  0  0  0  0  0  0  0  0  0  0  0
    2.0900   -2.2825    0.0000 C   0  0  0  0  0  0  0  0  0  0  0  0
    2.8188   -2.6951    0.0000 C   0  0  0  0  0  0  0  0  0  0  0  0
   -3.6576   -2.2413    0.0000 C   0  0  0  0  0  0  0  0  0  0  0  0
  1 11  1  0  0  0  0
  1 13  1  0  0  0  0
  2 12  2  0  0  0  0
  3 16  2  0  0  0  0
  4 20  2  0  0  0  0
  5 30  1  0  0  0  0
  5 37  1  0  0  0  0
 14  6  1  6  0  0  0
  6 16  1  0  0  0  0
 18  7  1  6  0  0  0
  7 20  1  0  0  0  0
  8 24  2  0  0  0  0
  8 31  1  0  0  0  0
  9 27  1  0  0  0  0
  9 31  2  0  0  0  0
 10 24  1  0  0  0  0
 11 12  1  6  0  0  0
 11 13  1  0  0  0  0
 11 15  1  1  0  0  0
 12 14  1  0  0  0  0
 14 17  1  0  0  0  0
 16 18  1  0  0  0  0
 17 19  1  0  0  0  0
 18 22  1  0  0  0  0
 19 25  2  0  0  0  0
 19 26  1  0  0  0  0
 20 21  1  0  0  0  0
 21 24  1  0  0  0  0
 21 27  2  0  0  0  0
 22 23  1  0  0  0  0
 23 28  2  0  0  0  0
 23 29  1  0  0  0  0
 25 34  1  0  0  0  0
 26 35  2  0  0  0  0
 28 32  1  0  0  0  0
 29 33  2  0  0  0  0
 30 32  2  0  0  0  0
 30 33  1  0  0  0  0
 34 36  2  0  0  0  0
 35 36  1  0  0  0  0
M  END
> <PUBCHEM_COMPOUND_ID_TYPE>
0

> <PUBCHEM_TOTAL_CHARGE>
0

> <PUBCHEM_SUBSTANCE_ID>
310945880

> <PUBCHEM_SUBSTANCE_VERSION>
1

> <PUBCHEM_EXT_DATASOURCE_NAME>
4488

> <PUBCHEM_EXT_DATASOURCE_REGID>
SCHEMBL16123985

> <PUBCHEM_SUBSTANCE_COMMENT>
InChI=1S/C27H29N5O5/c1-27(15-37-27)23(33)21(12-17-6-4-3-5-7-17)31-26(35)22(13-18-8-10-19(36-2)11-9-18)32-25(34)20-14-29-16-30-24(20)28/h3-11,14,16,21-22H,12-13,15H2,1-2H3,(H,31,35)(H,32,34)(H2,28,29,30)/t21-,22-,27+/m0/s1
InChIKey=DTALLCWWAVGFGF-BCQCSXDESA-N

> <PUBCHEM_SUBSTANCE_SYNONYM>
SCHEMBL16123985

> <PUBCHEM_XREF_EXT_ID>
SCHEMBL16123985

> <PUBCHEM_EXT_DATASOURCE_URL>
https://www.surechembl.org/

> <PUBCHEM_EXT_SUBSTANCE_URL>
https://www.surechembl.org/chemical/SCHEMBL16123985

> <PUBCHEM_CID_ASSOCIATIONS>
117611864  1

> <PUBCHEM_COORDINATE_TYPE>
1
3

> <PUBCHEM_BONDANNOTATIONS>
11  12  6
11  15  5
14  6  6
18  7  6

$$$$
