310946951
  -OEChem-07211613022D

 26 28  0     0  0  0  0  0  0999 V2000
    1.1480   -0.5772    0.0000 P   0  0  0  0  0  0  0  0  0  0  0  0
    1.9448   -0.3637    0.0000 O   0  0  0  0  0  0  0  0  0  0  0  0
    0.3511   -0.3637    0.0000 O   0  0  0  0  0  0  0  0  0  0  0  0
    1.1480    0.2477    0.0000 O   0  0  0  0  0  0  0  0  0  0  0  0
    1.1480   -2.1894    0.0000 N   0  0  0  0  0  0  0  0  0  0  0  0
    2.5768   -2.1894    0.0000 N   0  0  0  0  0  0  0  0  0  0  0  0
    4.0056   -2.1894    0.0000 N   0  0  0  0  0  0  0  0  0  0  0  0
    4.0056   -3.8393    0.0000 N   0  0  0  0  0  0  0  0  0  0  0  0
    1.8623   -2.6019    0.0000 C   0  0  0  0  0  0  0  0  0  0  0  0
    3.2913   -2.6019    0.0000 C   0  0  0  0  0  0  0  0  0  0  0  0
    3.2913   -3.4269    0.0000 C   0  0  0  0  0  0  0  0  0  0  0  0
    0.3511   -2.4029    0.0000 C   0  0  0  0  0  0  0  0  0  0  0  0
    1.8623   -3.4269    0.0000 C   0  0  0  0  0  0  0  0  0  0  0  0
    2.5768   -3.8393    0.0000 C   0  0  0  0  0  0  0  0  0  0  0  0
    1.2780   -1.6607    0.0000 C   0  0  0  0  0  0  0  0  0  0  0  0
    4.7201   -2.6019    0.0000 C   0  0  0  0  0  0  0  0  0  0  0  0
    0.6675   -1.1060    0.0000 C   0  0  0  0  0  0  0  0  0  0  0  0
    4.7201   -3.4269    0.0000 C   0  0  0  0  0  0  0  0  0  0  0  0
   -0.2323   -1.8196    0.0000 C   0  0  0  0  0  0  0  0  0  0  0  0
    0.1375   -3.1998    0.0000 C   0  0  0  0  0  0  0  0  0  0  0  0
   -1.0292   -2.0332    0.0000 C   0  0  0  0  0  0  0  0  0  0  0  0
   -0.6594   -3.4133    0.0000 C   0  0  0  0  0  0  0  0  0  0  0  0
   -1.2426   -2.8299    0.0000 C   0  0  0  0  0  0  0  0  0  0  0  0
    2.1583    0.4331    0.0000 C   0  0  0  0  0  0  0  0  0  0  0  0
    0.1375    0.4331    0.0000 C   0  0  0  0  0  0  0  0  0  0  0  0
    5.4345   -2.1894    0.0000 H   1  0  0  0  0  0  0  0  0  0  0  0
  1  2  1  0  0  0  0
  1  3  1  0  0  0  0
  1  4  2  0  0  0  0
  1 17  1  0  0  0  0
  2 24  1  0  0  0  0
  3 25  1  0  0  0  0
  5  9  1  0  0  0  0
  5 12  1  0  0  0  0
  5 15  1  0  0  0  0
  6  9  1  0  0  0  0
  6 10  2  0  0  0  0
  7 10  1  0  0  0  0
  7 16  2  0  0  0  0
  8 11  1  0  0  0  0
  8 18  2  0  0  0  0
  9 13  2  0  0  0  0
 10 11  1  0  0  0  0
 11 14  2  0  0  0  0
 12 19  2  0  0  0  0
 12 20  1  0  0  0  0
 13 14  1  0  0  0  0
 15 17  1  0  0  0  0
 16 18  1  0  0  0  0
 16 26  1  0  0  0  0
 19 21  1  0  0  0  0
 20 22  2  0  0  0  0
 21 23  2  0  0  0  0
 22 23  1  0  0  0  0
M  ISO  1  26   2
M  END
> <PUBCHEM_COMPOUND_ID_TYPE>
0

> <PUBCHEM_TOTAL_CHARGE>
0

> <PUBCHEM_SUBSTANCE_ID>
310946951

> <PUBCHEM_SUBSTANCE_VERSION>
1

> <PUBCHEM_EXT_DATASOURCE_NAME>
4488

> <PUBCHEM_EXT_DATASOURCE_REGID>
SCHEMBL16125078

> <PUBCHEM_SUBSTANCE_COMMENT>
InChI=1S/C17H19N4O3P/c1-23-25(22,24-2)13-12-21(14-6-4-3-5-7-14)16-9-8-15-17(20-16)19-11-10-18-15/h3-11H,12-13H2,1-2H3/i11D
InChIKey=SRFXTBHJVGZKIQ-WORMITQPSA-N

> <PUBCHEM_SUBSTANCE_SYNONYM>
SCHEMBL16125078

> <PUBCHEM_XREF_EXT_ID>
SCHEMBL16125078

> <PUBCHEM_EXT_DATASOURCE_URL>
https://www.surechembl.org/

> <PUBCHEM_EXT_SUBSTANCE_URL>
https://www.surechembl.org/chemical/SCHEMBL16125078

> <PUBCHEM_CID_ASSOCIATIONS>
117612807  1

> <PUBCHEM_COORDINATE_TYPE>
1
3

$$$$
