310945908
  -OEChem-07211613022D

 45 49  0     1  0  0  0  0  0999 V2000
    5.2978    0.6726    0.0000 O   0  0  0  0  0  0  0  0  0  0  0  0
    4.1606   -1.2967    0.0000 O   0  0  0  0  0  0  0  0  0  0  0  0
   -2.3299    0.7836    0.0000 O   0  0  0  0  0  0  0  0  0  0  0  0
    1.9970    0.7836    0.0000 O   0  0  0  0  0  0  0  0  0  0  0  0
   -0.1664   -1.2967    0.0000 O   0  0  0  0  0  0  0  0  0  0  0  0
    4.1606   -2.9471    0.0000 O   0  0  0  0  0  0  0  0  0  0  0  0
    2.7321   -0.4507    0.0000 N   0  0  0  0  0  0  0  0  0  0  0  0
   -1.6088   -0.4507    0.0000 N   0  0  0  0  0  0  0  0  0  0  0  0
    0.5547   -0.0347    0.0000 N   0  0  0  0  0  0  0  0  0  0  0  0
    4.8817   -0.0069    0.0000 C   0  0  3  0  0  0  0  0  0  0  0  0
    4.1606   -0.4230    0.0000 C   0  0  0  0  0  0  0  0  0  0  0  0
    4.4934    0.6865    0.0000 C   0  0  0  0  0  0  0  0  0  0  0  0
    3.4394   -0.0208    0.0000 C   0  0  3  0  0  0  0  0  0  0  0  0
   -3.0511   -0.4230    0.0000 C   0  0  0  0  0  0  0  0  0  0  0  0
   -3.9525   -1.4354    0.0000 C   0  0  0  0  0  0  0  0  0  0  0  0
   -3.1482   -1.2551    0.0000 C   0  0  0  0  0  0  0  0  0  0  0  0
   -4.3686   -0.7142    0.0000 C   0  0  0  0  0  0  0  0  0  0  0  0
    5.6029   -0.4230    0.0000 C   0  0  0  0  0  0  0  0  0  0  0  0
   -3.8139   -0.1179    0.0000 C   0  0  0  0  0  0  0  0  0  0  0  0
    3.4533    1.2967    0.0000 C   0  0  0  0  0  0  0  0  0  0  0  0
   -2.3299   -0.0347    0.0000 C   0  0  0  0  0  0  0  0  0  0  0  0
    1.9970   -0.0347    0.0000 C   0  0  0  0  0  0  0  0  0  0  0  0
    1.3037   -0.4230    0.0000 C   0  0  3  0  0  0  0  0  0  0  0  0
   -4.3686   -2.1427    0.0000 C   0  0  0  0  0  0  0  0  0  0  0  0
   -5.2007   -0.7281    0.0000 C   0  0  0  0  0  0  0  0  0  0  0  0
    2.7321    1.7266    0.0000 C   0  0  0  0  0  0  0  0  0  0  0  0
   -0.8876   -0.0208    0.0000 C   0  0  3  0  0  0  0  0  0  0  0  0
   -0.1525   -0.4092    0.0000 C   0  0  0  0  0  0  0  0  0  0  0  0
   -2.4963   -1.8098    0.0000 C   0  0  0  0  0  0  0  0  0  0  0  0
   -5.1868   -2.1427    0.0000 C   0  0  0  0  0  0  0  0  0  0  0  0
   -5.6029   -1.4354    0.0000 C   0  0  0  0  0  0  0  0  0  0  0  0
    1.2759   -1.2828    0.0000 C   0  0  0  0  0  0  0  0  0  0  0  0
    2.0109   -1.6712    0.0000 C   0  0  0  0  0  0  0  0  0  0  0  0
    2.7321    2.5310    0.0000 C   0  0  0  0  0  0  0  0  0  0  0  0
    2.0109    1.3106    0.0000 C   0  0  0  0  0  0  0  0  0  0  0  0
    2.0248   -2.5172    0.0000 C   0  0  0  0  0  0  0  0  0  0  0  0
    2.7183   -1.2828    0.0000 C   0  0  0  0  0  0  0  0  0  0  0  0
   -0.8738    0.7974    0.0000 C   0  0  0  0  0  0  0  0  0  0  0  0
    1.9970    2.9471    0.0000 C   0  0  0  0  0  0  0  0  0  0  0  0
    1.3037    1.7127    0.0000 C   0  0  0  0  0  0  0  0  0  0  0  0
    3.4394   -2.5033    0.0000 C   0  0  0  0  0  0  0  0  0  0  0  0
    2.7321   -2.9193    0.0000 C   0  0  0  0  0  0  0  0  0  0  0  0
    3.4533   -1.6850    0.0000 C   0  0  0  0  0  0  0  0  0  0  0  0
    1.3037    2.5448    0.0000 C   0  0  0  0  0  0  0  0  0  0  0  0
    4.8817   -2.5033    0.0000 C   0  0  0  0  0  0  0  0  0  0  0  0
  1 10  1  0  0  0  0
  1 12  1  0  0  0  0
  2 11  2  0  0  0  0
  3 21  2  0  0  0  0
  4 22  2  0  0  0  0
  5 28  2  0  0  0  0
  6 41  1  0  0  0  0
  6 45  1  0  0  0  0
 13  7  1  1  0  0  0
  7 22  1  0  0  0  0
  8 21  1  0  0  0  0
  8 27  1  0  0  0  0
 23  9  1  6  0  0  0
  9 28  1  0  0  0  0
 10 11  1  1  0  0  0
 10 12  1  0  0  0  0
 10 18  1  6  0  0  0
 11 13  1  0  0  0  0
 13 20  1  0  0  0  0
 14 16  2  0  0  0  0
 14 19  1  0  0  0  0
 14 21  1  0  0  0  0
 15 16  1  0  0  0  0
 15 17  1  0  0  0  0
 15 24  2  0  0  0  0
 16 29  1  0  0  0  0
 17 19  1  0  0  0  0
 17 25  2  0  0  0  0
 20 26  1  0  0  0  0
 22 23  1  0  0  0  0
 23 32  1  0  0  0  0
 24 30  1  0  0  0  0
 25 31  1  0  0  0  0
 26 34  2  0  0  0  0
 26 35  1  0  0  0  0
 27 28  1  0  0  0  0
 27 38  1  6  0  0  0
 30 31  2  0  0  0  0
 32 33  1  0  0  0  0
 33 36  2  0  0  0  0
 33 37  1  0  0  0  0
 34 39  1  0  0  0  0
 35 40  2  0  0  0  0
 36 42  1  0  0  0  0
 37 43  2  0  0  0  0
 39 44  2  0  0  0  0
 40 44  1  0  0  0  0
 41 42  2  0  0  0  0
 41 43  1  0  0  0  0
M  END
> <PUBCHEM_COMPOUND_ID_TYPE>
0

> <PUBCHEM_TOTAL_CHARGE>
0

> <PUBCHEM_SUBSTANCE_ID>
310945908

> <PUBCHEM_SUBSTANCE_VERSION>
1

> <PUBCHEM_EXT_DATASOURCE_NAME>
4488

> <PUBCHEM_EXT_DATASOURCE_REGID>
SCHEMBL16124013

> <PUBCHEM_SUBSTANCE_COMMENT>
InChI=1S/C36H39N3O6/c1-22-28-13-9-8-12-26(28)20-29(22)34(42)37-23(2)33(41)39-31(19-25-14-16-27(44-4)17-15-25)35(43)38-30(32(40)36(3)21-45-36)18-24-10-6-5-7-11-24/h5-17,23,30-31H,18-21H2,1-4H3,(H,37,42)(H,38,43)(H,39,41)/t23-,30+,31+,36-/m1/s1
InChIKey=ZMKRLIQLFDZOLS-CIEAOGCXSA-N

> <PUBCHEM_SUBSTANCE_SYNONYM>
SCHEMBL16124013

> <PUBCHEM_XREF_EXT_ID>
SCHEMBL16124013

> <PUBCHEM_EXT_DATASOURCE_URL>
https://www.surechembl.org/

> <PUBCHEM_EXT_SUBSTANCE_URL>
https://www.surechembl.org/chemical/SCHEMBL16124013

> <PUBCHEM_CID_ASSOCIATIONS>
117611892  1

> <PUBCHEM_COORDINATE_TYPE>
1
3

> <PUBCHEM_BONDANNOTATIONS>
10  11  5
10  18  6
27  38  6
13  7  5
23  9  6

$$$$
