310941764
  -OEChem-07211613022D

 29 33  0     0  0  0  0  0  0999 V2000
    3.5310    0.8043    0.0000 S   0  0  0  0  0  0  0  0  0  0  0  0
   -0.8809   -0.6817    0.0000 O   0  0  0  0  0  0  0  0  0  0  0  0
    3.6995    1.6314    0.0000 O   0  0  0  0  0  0  0  0  0  0  0  0
    4.3275    1.0647    0.0000 O   0  0  0  0  0  0  0  0  0  0  0  0
    1.2791    0.5897    0.0000 N   0  0  0  0  0  0  0  0  0  0  0  0
    0.7583    1.8306    0.0000 N   0  0  0  0  0  0  0  0  0  0  0  0
    1.5702    1.9225    0.0000 N   0  0  0  0  0  0  0  0  0  0  0  0
    2.7191    0.9881    0.0000 N   0  0  0  0  0  0  0  0  0  0  0  0
   -2.3361   -0.6664    0.0000 C   0  0  0  0  0  0  0  0  0  0  0  0
    0.5438    1.0034    0.0000 C   0  0  0  0  0  0  0  0  0  0  0  0
   -0.1762   -0.2527    0.0000 C   0  0  0  0  0  0  0  0  0  0  0  0
    1.8919    1.1719    0.0000 C   0  0  0  0  0  0  0  0  0  0  0  0
    0.5744   -0.6511    0.0000 C   0  0  0  0  0  0  0  0  0  0  0  0
   -3.9293   -0.6664    0.0000 C   0  0  0  0  0  0  0  0  0  0  0  0
   -3.5463   -0.1915    0.0000 C   0  0  0  0  0  0  0  0  0  0  0  0
   -3.1327   -1.6927    0.0000 C   0  0  0  0  0  0  0  0  0  0  0  0
   -2.7497    0.0230    0.0000 C   0  0  0  0  0  0  0  0  0  0  0  0
   -2.3361   -1.5089    0.0000 C   0  0  0  0  0  0  0  0  0  0  0  0
   -3.0714   -0.4672    0.0000 C   0  0  0  0  0  0  0  0  0  0  0  0
    1.2791   -0.2374    0.0000 C   0  0  0  0  0  0  0  0  0  0  0  0
   -0.1455    0.5897    0.0000 C   0  0  0  0  0  0  0  0  0  0  0  0
   -1.6161   -0.2681    0.0000 C   0  0  0  0  0  0  0  0  0  0  0  0
   -4.3275    0.0077    0.0000 C   0  0  0  0  0  0  0  0  0  0  0  0
   -3.9139   -1.5242    0.0000 C   0  0  0  0  0  0  0  0  0  0  0  0
   -3.5310   -1.0494    0.0000 C   0  0  0  0  0  0  0  0  0  0  0  0
    0.5744   -1.4936    0.0000 C   0  0  0  0  0  0  0  0  0  0  0  0
   -0.1762   -1.9225    0.0000 C   0  0  0  0  0  0  0  0  0  0  0  0
    1.2944   -1.9072    0.0000 C   0  0  0  0  0  0  0  0  0  0  0  0
    3.8067   -0.0077    0.0000 C   0  0  0  0  0  0  0  0  0  0  0  0
  1  3  2  0  0  0  0
  1  4  2  0  0  0  0
  1  8  1  0  0  0  0
  1 29  1  0  0  0  0
  2 11  1  0  0  0  0
  2 22  1  0  0  0  0
  5 10  1  0  0  0  0
  5 12  1  0  0  0  0
  5 20  1  0  0  0  0
  6  7  1  0  0  0  0
  6 10  2  0  0  0  0
  7 12  2  0  0  0  0
  8 12  1  0  0  0  0
  9 17  1  0  0  0  0
  9 18  1  0  0  0  0
  9 19  1  0  0  0  0
  9 22  1  0  0  0  0
 10 21  1  0  0  0  0
 11 13  1  0  0  0  0
 11 21  2  0  0  0  0
 13 20  2  0  0  0  0
 13 26  1  0  0  0  0
 14 19  1  0  0  0  0
 14 23  1  0  0  0  0
 14 24  1  0  0  0  0
 15 17  1  0  0  0  0
 15 23  1  0  0  0  0
 15 25  1  0  0  0  0
 16 18  1  0  0  0  0
 16 24  1  0  0  0  0
 16 25  1  0  0  0  0
 26 27  2  0  0  0  0
 26 28  1  0  0  0  0
M  END
> <PUBCHEM_COMPOUND_ID_TYPE>
0

> <PUBCHEM_TOTAL_CHARGE>
0

> <PUBCHEM_SUBSTANCE_ID>
310941764

> <PUBCHEM_SUBSTANCE_VERSION>
1

> <PUBCHEM_EXT_DATASOURCE_NAME>
4488

> <PUBCHEM_EXT_DATASOURCE_REGID>
SCHEMBL16119795

> <PUBCHEM_SUBSTANCE_COMMENT>
InChI=1S/C21H28N4O3S/c1-13(2)17-11-25-19(22-23-20(25)24-29(3,26)27)7-18(17)28-12-21-8-14-4-15(9-21)6-16(5-14)10-21/h7,11,14-16H,1,4-6,8-10,12H2,2-3H3,(H,23,24)
InChIKey=OCVMBVUADFSISS-UHFFFAOYSA-N

> <PUBCHEM_SUBSTANCE_SYNONYM>
SCHEMBL16119795

> <PUBCHEM_XREF_EXT_ID>
SCHEMBL16119795

> <PUBCHEM_EXT_DATASOURCE_URL>
https://www.surechembl.org/

> <PUBCHEM_EXT_SUBSTANCE_URL>
https://www.surechembl.org/chemical/SCHEMBL16119795

> <PUBCHEM_CID_ASSOCIATIONS>
86270325  1

> <PUBCHEM_COORDINATE_TYPE>
1
3

$$$$
