310933880
  -OEChem-07211613022D

 27 28  0     1  0  0  0  0  0999 V2000
    2.4668   -2.9665    0.0000 S   0  0  0  0  0  0  0  0  0  0  0  0
    1.2178   -5.4333    0.0000 F   0  0  0  0  0  0  0  0  0  0  0  0
    5.5270   -5.4021    0.0000 F   0  0  0  0  0  0  0  0  0  0  0  0
    4.8088   -4.1531    0.0000 F   0  0  0  0  0  0  0  0  0  0  0  0
    4.8088   -5.8080    0.0000 F   0  0  0  0  0  0  0  0  0  0  0  0
    3.3724   -4.1843    0.0000 O   0  0  0  0  0  0  0  0  0  0  0  0
    2.6230   -6.2452    0.0000 O   0  0  0  0  0  0  0  0  0  0  0  0
    4.0906   -6.2452    0.0000 O   0  0  0  0  0  0  0  0  0  0  0  0
    2.4668   -1.4364    0.0000 O   0  0  0  0  0  0  0  0  0  0  0  0
    1.2490   -0.7182    0.0000 O   0  0  0  0  0  0  0  0  0  0  0  0
    1.3427   -3.6222    0.0000 N   0  0  0  0  0  0  0  0  0  0  0  0
    1.2490   -2.1546    0.0000 N   0  0  0  0  0  0  0  0  0  0  0  0
    1.9048   -4.1843    0.0000 C   0  0  3  0  0  0  0  0  0  0  0  0
    2.6542   -3.7471    0.0000 C   0  0  3  0  0  0  0  0  0  0  0  0
    3.3724   -4.9962    0.0000 C   0  0  3  0  0  0  0  0  0  0  0  0
    1.9360   -5.0274    0.0000 C   0  0  3  0  0  0  0  0  0  0  0  0
    2.6230   -5.4333    0.0000 C   0  0  3  0  0  0  0  0  0  0  0  0
    1.6550   -2.8728    0.0000 C   0  0  0  0  0  0  0  0  0  0  0  0
    4.0906   -5.4021    0.0000 C   0  0  3  0  0  0  0  0  0  0  0  0
    4.8088   -4.9962    0.0000 C   0  0  0  0  0  0  0  0  0  0  0  0
    1.6550   -1.4364    0.0000 C   0  0  0  0  0  0  0  0  0  0  0  0
    0.4060   -2.1546    0.0000 C   0  0  0  0  0  0  0  0  0  0  0  0
    2.9040   -0.7182    0.0000 C   0  0  0  0  0  0  0  0  0  0  0  0
    0.0000   -2.8728    0.0000 C   0  0  0  0  0  0  0  0  0  0  0  0
    3.6222   -1.1242    0.0000 C   0  0  0  0  0  0  0  0  0  0  0  0
    3.3099    0.0000    0.0000 C   0  0  0  0  0  0  0  0  0  0  0  0
    2.1858   -0.3123    0.0000 C   0  0  0  0  0  0  0  0  0  0  0  0
  1 14  1  0  0  0  0
  1 18  1  0  0  0  0
 16  2  1  1  0  0  0
  3 20  1  0  0  0  0
  4 20  1  0  0  0  0
  5 20  1  0  0  0  0
 14  6  1  1  0  0  0
  6 15  1  0  0  0  0
 17  7  1  1  0  0  0
 19  8  1  6  0  0  0
  9 21  1  0  0  0  0
  9 23  1  0  0  0  0
 10 21  2  0  0  0  0
 13 11  1  1  0  0  0
 11 18  2  0  0  0  0
 12 18  1  0  0  0  0
 12 21  1  0  0  0  0
 12 22  1  0  0  0  0
 13 14  1  0  0  0  0
 13 16  1  0  0  0  0
 15 17  1  0  0  0  0
 15 19  1  6  0  0  0
 16 17  1  0  0  0  0
 19 20  1  0  0  0  0
 22 24  1  0  0  0  0
 23 25  1  0  0  0  0
 23 26  1  0  0  0  0
 23 27  1  0  0  0  0
M  END
> <PUBCHEM_COMPOUND_ID_TYPE>
0

> <PUBCHEM_TOTAL_CHARGE>
0

> <PUBCHEM_SUBSTANCE_ID>
310933880

> <PUBCHEM_SUBSTANCE_VERSION>
1

> <PUBCHEM_EXT_DATASOURCE_NAME>
4488

> <PUBCHEM_EXT_DATASOURCE_REGID>
SCHEMBL16111319

> <PUBCHEM_SUBSTANCE_COMMENT>
InChI=1S/C15H22F4N2O5S/c1-5-21(13(24)26-14(2,3)4)12-20-7-6(16)8(22)9(25-11(7)27-12)10(23)15(17,18)19/h6-11,22-23H,5H2,1-4H3/t6-,7+,8-,9-,10+,11+/m0/s1
InChIKey=TWJGPBNQTCLJHR-WYVINJBVSA-N

> <PUBCHEM_SUBSTANCE_SYNONYM>
SCHEMBL16111319

> <PUBCHEM_XREF_EXT_ID>
SCHEMBL16111319

> <PUBCHEM_EXT_DATASOURCE_URL>
https://www.surechembl.org/

> <PUBCHEM_EXT_SUBSTANCE_URL>
https://www.surechembl.org/chemical/SCHEMBL16111319

> <PUBCHEM_CID_ASSOCIATIONS>
117602213  1

> <PUBCHEM_COORDINATE_TYPE>
1
3

> <PUBCHEM_BONDANNOTATIONS>
13  11  5
15  19  6
16  2  5
14  6  5
17  7  5
19  8  6

$$$$
