310939029
  -OEChem-07211613022D

 21 22  0     0  0  0  0  0  0999 V2000
    0.9331   -0.7397    0.0000 S   0  0  0  0  0  0  0  0  0  0  0  0
    0.2186   -1.1522    0.0000 O   0  0  0  0  0  0  0  0  0  0  0  0
    1.5165   -1.3230    0.0000 O   0  0  0  0  0  0  0  0  0  0  0  0
   -3.2076    0.3698    0.0000 O   0  0  0  0  0  0  0  0  0  0  0  0
   -2.1972    1.3803    0.0000 O   0  0  0  0  0  0  0  0  0  0  0  0
    0.3498   -0.1563    0.0000 N   0  0  0  0  0  0  0  0  0  0  0  0
    1.6476   -0.3272    0.0000 C   0  0  0  0  0  0  0  0  0  0  0  0
   -0.4471   -0.3698    0.0000 C   0  0  0  0  0  0  0  0  0  0  0  0
   -1.8274    0.0000    0.0000 C   0  0  0  0  0  0  0  0  0  0  0  0
   -1.0305    0.2135    0.0000 C   0  0  0  0  0  0  0  0  0  0  0  0
    1.6476    0.4978    0.0000 C   0  0  0  0  0  0  0  0  0  0  0  0
    2.3621   -0.7397    0.0000 C   0  0  0  0  0  0  0  0  0  0  0  0
   -0.6607   -1.1667    0.0000 C   0  0  0  0  0  0  0  0  0  0  0  0
   -2.4107    0.5834    0.0000 C   0  0  0  0  0  0  0  0  0  0  0  0
   -2.0409   -0.7969    0.0000 C   0  0  0  0  0  0  0  0  0  0  0  0
    3.0765    0.4978    0.0000 C   0  0  0  0  0  0  0  0  0  0  0  0
    2.3621    0.9103    0.0000 C   0  0  0  0  0  0  0  0  0  0  0  0
    3.0765   -0.3272    0.0000 C   0  0  0  0  0  0  0  0  0  0  0  0
   -1.4575   -1.3803    0.0000 C   0  0  0  0  0  0  0  0  0  0  0  0
    3.7910    0.9103    0.0000 C   0  0  0  0  0  0  0  0  0  0  0  0
   -3.7910    0.9532    0.0000 C   0  0  0  0  0  0  0  0  0  0  0  0
  1  2  2  0  0  0  0
  1  3  2  0  0  0  0
  1  6  1  0  0  0  0
  1  7  1  0  0  0  0
  4 14  1  0  0  0  0
  4 21  1  0  0  0  0
  5 14  2  0  0  0  0
  6  8  1  0  0  0  0
  7 11  2  0  0  0  0
  7 12  1  0  0  0  0
  8 10  1  0  0  0  0
  8 13  2  0  0  0  0
  9 10  2  0  0  0  0
  9 14  1  0  0  0  0
  9 15  1  0  0  0  0
 11 17  1  0  0  0  0
 12 18  2  0  0  0  0
 13 19  1  0  0  0  0
 15 19  2  0  0  0  0
 16 17  2  0  0  0  0
 16 18  1  0  0  0  0
 16 20  1  0  0  0  0
M  END
> <PUBCHEM_COMPOUND_ID_TYPE>
0

> <PUBCHEM_TOTAL_CHARGE>
0

> <PUBCHEM_SUBSTANCE_ID>
310939029

> <PUBCHEM_SUBSTANCE_VERSION>
1

> <PUBCHEM_EXT_DATASOURCE_NAME>
4488

> <PUBCHEM_EXT_DATASOURCE_REGID>
SCHEMBL16116948

> <PUBCHEM_SUBSTANCE_COMMENT>
InChI=1S/C15H15NO4S/c1-11-6-8-14(9-7-11)21(18,19)16-13-5-3-4-12(10-13)15(17)20-2/h3-10,16H,1-2H3
InChIKey=CVKBYFCJQSPBOI-UHFFFAOYSA-N

> <PUBCHEM_SUBSTANCE_SYNONYM>
SCHEMBL16116948

> <PUBCHEM_XREF_EXT_ID>
SCHEMBL16116948

> <PUBCHEM_EXT_DATASOURCE_URL>
https://www.surechembl.org/

> <PUBCHEM_EXT_SUBSTANCE_URL>
https://www.surechembl.org/chemical/SCHEMBL16116948

> <PUBCHEM_CID_ASSOCIATIONS>
1159052  1

> <PUBCHEM_COORDINATE_TYPE>
1
3

$$$$
