310944832
  -OEChem-07211613022D

 33 37  0     0  0  0  0  0  0999 V2000
    2.4775   -0.8480    0.0000 S   0  0  0  0  0  0  0  0  0  0  0  0
   -1.1206    2.3503    0.0000 F   0  0  0  0  0  0  0  0  0  0  0  0
    0.3211   -0.1575    0.0000 F   0  0  0  0  0  0  0  0  0  0  0  0
    1.7628    2.3382    0.0000 O   0  0  0  0  0  0  0  0  0  0  0  0
   -1.1327   -0.1575    0.0000 N   0  0  0  0  0  0  0  0  0  0  0  0
   -0.4664   -0.6542    0.0000 N   0  0  0  0  0  0  0  0  0  0  0  0
   -0.7330   -2.8955    0.0000 N   0  0  0  0  0  0  0  0  0  0  0  0
    1.7749   -2.8955    0.0000 N   0  0  0  0  0  0  0  0  0  0  0  0
    3.1923   -1.2599    0.0000 N   0  0  0  0  0  0  0  0  0  0  0  0
   -1.5810   -1.4174    0.0000 C   0  0  0  0  0  0  0  0  0  0  0  0
   -0.7330   -1.4296    0.0000 C   0  0  0  0  0  0  0  0  0  0  0  0
   -1.8233   -0.6179    0.0000 C   0  0  0  0  0  0  0  0  0  0  0  0
   -0.3211   -2.1444    0.0000 C   0  0  0  0  0  0  0  0  0  0  0  0
   -1.1327    0.7027    0.0000 C   0  0  0  0  0  0  0  0  0  0  0  0
   -0.4300    1.1267    0.0000 C   0  0  0  0  0  0  0  0  0  0  0  0
   -2.1262   -2.0232    0.0000 C   0  0  0  0  0  0  0  0  0  0  0  0
   -2.6471   -0.4483    0.0000 C   0  0  0  0  0  0  0  0  0  0  0  0
    0.5149   -2.1565    0.0000 C   0  0  0  0  0  0  0  0  0  0  0  0
   -0.4180    1.9505    0.0000 C   0  0  0  0  0  0  0  0  0  0  0  0
    0.3089    0.7027    0.0000 C   0  0  0  0  0  0  0  0  0  0  0  0
    0.9268   -2.8712    0.0000 C   0  0  0  0  0  0  0  0  0  0  0  0
   -2.9500   -1.8415    0.0000 C   0  0  0  0  0  0  0  0  0  0  0  0
   -3.1923   -1.0661    0.0000 C   0  0  0  0  0  0  0  0  0  0  0  0
    1.0358    1.9505    0.0000 C   0  0  0  0  0  0  0  0  0  0  0  0
    0.2847    2.3503    0.0000 C   0  0  0  0  0  0  0  0  0  0  0  0
    1.0237    1.1267    0.0000 C   0  0  0  0  0  0  0  0  0  0  0  0
   -0.3089   -3.5861    0.0000 C   0  0  0  0  0  0  0  0  0  0  0  0
    0.5028   -3.5982    0.0000 C   0  0  0  0  0  0  0  0  0  0  0  0
    2.1747   -2.1322    0.0000 C   0  0  0  0  0  0  0  0  0  0  0  0
    1.8597   -1.3811    0.0000 C   0  0  0  0  0  0  0  0  0  0  0  0
    3.0106   -2.0596    0.0000 C   0  0  0  0  0  0  0  0  0  0  0  0
    1.7628    3.2105    0.0000 C   0  0  0  0  0  0  0  0  0  0  0  0
    2.4896    3.5982    0.0000 C   0  0  0  0  0  0  0  0  0  0  0  0
  1  9  1  0  0  0  0
  1 30  1  0  0  0  0
  2 19  1  0  0  0  0
  3 20  1  0  0  0  0
  4 24  1  0  0  0  0
  4 32  1  0  0  0  0
  5  6  1  0  0  0  0
  5 12  1  0  0  0  0
  5 14  1  0  0  0  0
  6 11  2  0  0  0  0
  7 13  1  0  0  0  0
  7 27  2  0  0  0  0
  8 21  1  0  0  0  0
  8 29  1  0  0  0  0
  9 31  2  0  0  0  0
 10 11  1  0  0  0  0
 10 12  2  0  0  0  0
 10 16  1  0  0  0  0
 11 13  1  0  0  0  0
 12 17  1  0  0  0  0
 13 18  2  0  0  0  0
 14 15  1  0  0  0  0
 15 19  2  0  0  0  0
 15 20  1  0  0  0  0
 16 22  2  0  0  0  0
 17 23  2  0  0  0  0
 18 21  1  0  0  0  0
 19 25  1  0  0  0  0
 20 26  2  0  0  0  0
 21 28  2  0  0  0  0
 22 23  1  0  0  0  0
 24 25  2  0  0  0  0
 24 26  1  0  0  0  0
 27 28  1  0  0  0  0
 29 30  2  0  0  0  0
 29 31  1  0  0  0  0
 32 33  1  0  0  0  0
M  END
> <PUBCHEM_COMPOUND_ID_TYPE>
0

> <PUBCHEM_TOTAL_CHARGE>
0

> <PUBCHEM_SUBSTANCE_ID>
310944832

> <PUBCHEM_SUBSTANCE_VERSION>
1

> <PUBCHEM_EXT_DATASOURCE_NAME>
4488

> <PUBCHEM_EXT_DATASOURCE_REGID>
SCHEMBL16122911

> <PUBCHEM_SUBSTANCE_COMMENT>
InChI=1S/C24H19F2N5OS/c1-2-32-17-10-20(25)19(21(26)11-17)13-31-23-6-4-3-5-18(23)24(30-31)22-9-15(7-8-27-22)29-16-12-28-33-14-16/h3-12,14H,2,13H2,1H3,(H,27,29)
InChIKey=WNGUXNHUHGJGJU-UHFFFAOYSA-N

> <PUBCHEM_SUBSTANCE_SYNONYM>
SCHEMBL16122911

> <PUBCHEM_XREF_EXT_ID>
SCHEMBL16122911

> <PUBCHEM_EXT_DATASOURCE_URL>
https://www.surechembl.org/

> <PUBCHEM_EXT_SUBSTANCE_URL>
https://www.surechembl.org/chemical/SCHEMBL16122911

> <PUBCHEM_CID_ASSOCIATIONS>
86268309  1

> <PUBCHEM_COORDINATE_TYPE>
1
3

$$$$
