310949939
  -OEChem-07211613022D

 21 23  0     0  0  0  0  0  0999 V2000
    0.7201   -0.8320    0.0000 N   0  0  0  0  0  0  0  0  0  0  0  0
   -1.4333    0.3985    0.0000 N   0  0  0  0  0  0  0  0  0  0  0  0
   -2.8735    1.2235    0.0000 N   0  0  0  0  0  0  0  0  0  0  0  0
   -0.7061    0.0070    0.0000 C   0  0  0  0  0  0  0  0  0  0  0  0
   -2.1464    0.0070    0.0000 C   0  0  0  0  0  0  0  0  0  0  0  0
   -2.8735    0.3985    0.0000 C   0  0  0  0  0  0  0  0  0  0  0  0
   -0.7201   -0.8180    0.0000 C   0  0  0  0  0  0  0  0  0  0  0  0
    0.0070    0.4125    0.0000 C   0  0  0  0  0  0  0  0  0  0  0  0
    0.7201   -0.0070    0.0000 C   0  0  0  0  0  0  0  0  0  0  0  0
    0.0210   -1.2235    0.0000 C   0  0  0  0  0  0  0  0  0  0  0  0
    1.4472   -1.2235    0.0000 C   0  0  0  0  0  0  0  0  0  0  0  0
   -2.1604   -0.8180    0.0000 C   0  0  0  0  0  0  0  0  0  0  0  0
    2.1604   -0.8180    0.0000 C   0  0  0  0  0  0  0  0  0  0  0  0
   -3.5866   -0.0070    0.0000 C   0  0  0  0  0  0  0  0  0  0  0  0
   -2.8595   -1.2235    0.0000 C   0  0  0  0  0  0  0  0  0  0  0  0
   -3.5866   -0.8180    0.0000 C   0  0  0  0  0  0  0  0  0  0  0  0
    2.8595   -1.2235    0.0000 C   0  0  0  0  0  0  0  0  0  0  0  0
    2.1744    0.0070    0.0000 C   0  0  0  0  0  0  0  0  0  0  0  0
    2.8735    0.3985    0.0000 C   0  0  0  0  0  0  0  0  0  0  0  0
    3.5866   -0.8320    0.0000 C   0  0  0  0  0  0  0  0  0  0  0  0
    3.5866   -0.0070    0.0000 C   0  0  0  0  0  0  0  0  0  0  0  0
  1  9  1  0  0  0  0
  1 10  1  0  0  0  0
  1 11  1  0  0  0  0
  2  4  1  0  0  0  0
  2  5  1  0  0  0  0
  3  6  1  0  0  0  0
  4  7  1  0  0  0  0
  4  8  1  0  0  0  0
  5  6  2  0  0  0  0
  5 12  1  0  0  0  0
  6 14  1  0  0  0  0
  7 10  1  0  0  0  0
  8  9  1  0  0  0  0
 11 13  1  0  0  0  0
 12 15  2  0  0  0  0
 13 17  1  0  0  0  0
 13 18  1  0  0  0  0
 14 16  2  0  0  0  0
 15 16  1  0  0  0  0
 17 20  1  0  0  0  0
 18 19  1  0  0  0  0
 19 21  1  0  0  0  0
 20 21  1  0  0  0  0
M  END
> <PUBCHEM_COMPOUND_ID_TYPE>
0

> <PUBCHEM_TOTAL_CHARGE>
0

> <PUBCHEM_SUBSTANCE_ID>
310949939

> <PUBCHEM_SUBSTANCE_VERSION>
1

> <PUBCHEM_EXT_DATASOURCE_NAME>
4488

> <PUBCHEM_EXT_DATASOURCE_REGID>
SCHEMBL16128166

> <PUBCHEM_SUBSTANCE_COMMENT>
InChI=1S/C18H29N3/c19-17-8-4-5-9-18(17)20-16-10-12-21(13-11-16)14-15-6-2-1-3-7-15/h4-5,8-9,15-16,20H,1-3,6-7,10-14,19H2
InChIKey=HDSYSIZVRZXEJH-UHFFFAOYSA-N

> <PUBCHEM_SUBSTANCE_SYNONYM>
SCHEMBL16128166

> <PUBCHEM_XREF_EXT_ID>
SCHEMBL16128166

> <PUBCHEM_EXT_DATASOURCE_URL>
https://www.surechembl.org/

> <PUBCHEM_EXT_SUBSTANCE_URL>
https://www.surechembl.org/chemical/SCHEMBL16128166

> <PUBCHEM_CID_ASSOCIATIONS>
117615202  1

> <PUBCHEM_COORDINATE_TYPE>
1
3

$$$$
