310934493
  -OEChem-07211613022D

 29 32  0     0  0  0  0  0  0999 V2000
    6.4107   -1.6561    0.0000 Cl  0  0  0  0  0  0  0  0  0  0  0  0
    2.1369    0.0000    0.0000 O   0  0  0  0  0  0  0  0  0  0  0  0
    1.4157   -1.2287    0.0000 O   0  0  0  0  0  0  0  0  0  0  0  0
    3.5793    0.0000    0.0000 N   0  0  0  0  0  0  0  0  0  0  0  0
    2.1369   -2.4575    0.0000 N   0  0  0  0  0  0  0  0  0  0  0  0
    3.5793   -1.6561    0.0000 C   0  0  0  0  0  0  0  0  0  0  0  0
    4.2738   -1.2287    0.0000 C   0  0  0  0  0  0  0  0  0  0  0  0
    2.8581   -1.2287    0.0000 C   0  0  0  0  0  0  0  0  0  0  0  0
    4.2738   -0.4274    0.0000 C   0  0  0  0  0  0  0  0  0  0  0  0
    2.8581   -0.4274    0.0000 C   0  0  0  0  0  0  0  0  0  0  0  0
    3.5793   -2.4842    0.0000 C   0  0  0  0  0  0  0  0  0  0  0  0
    2.1369   -1.6561    0.0000 C   0  0  0  0  0  0  0  0  0  0  0  0
    4.9683   -1.6561    0.0000 C   0  0  0  0  0  0  0  0  0  0  0  0
    4.9683    0.0000    0.0000 C   0  0  0  0  0  0  0  0  0  0  0  0
    5.6895   -1.2287    0.0000 C   0  0  0  0  0  0  0  0  0  0  0  0
    4.2738   -2.8848    0.0000 C   0  0  0  0  0  0  0  0  0  0  0  0
    2.8581   -2.8848    0.0000 C   0  0  0  0  0  0  0  0  0  0  0  0
    5.6895   -0.4274    0.0000 C   0  0  0  0  0  0  0  0  0  0  0  0
    4.2738   -3.7128    0.0000 C   0  0  0  0  0  0  0  0  0  0  0  0
    2.8581   -3.7128    0.0000 C   0  0  0  0  0  0  0  0  0  0  0  0
    1.4157   -2.8848    0.0000 C   0  0  0  0  0  0  0  0  0  0  0  0
    1.4157   -3.7128    0.0000 C   0  0  0  0  0  0  0  0  0  0  0  0
    3.5793   -4.1135    0.0000 C   0  0  0  0  0  0  0  0  0  0  0  0
    0.6945   -4.1135    0.0000 C   0  0  0  0  0  0  0  0  0  0  0  0
    2.1102   -4.1135    0.0000 C   0  0  0  0  0  0  0  0  0  0  0  0
    0.6945   -4.9416    0.0000 C   0  0  0  0  0  0  0  0  0  0  0  0
    2.1102   -4.9416    0.0000 C   0  0  0  0  0  0  0  0  0  0  0  0
    1.4157   -5.3423    0.0000 C   0  0  0  0  0  0  0  0  0  0  0  0
    0.0000   -3.6862    0.0000 C   0  0  0  0  0  0  0  0  0  0  0  0
  1 15  1  0  0  0  0
  2 10  2  0  0  0  0
  3 12  2  0  0  0  0
  4  9  1  0  0  0  0
  4 10  1  0  0  0  0
  5 12  1  0  0  0  0
  5 21  1  0  0  0  0
  6  7  1  0  0  0  0
  6  8  2  0  0  0  0
  6 11  1  0  0  0  0
  7  9  2  0  0  0  0
  7 13  1  0  0  0  0
  8 10  1  0  0  0  0
  8 12  1  0  0  0  0
  9 14  1  0  0  0  0
 11 16  2  0  0  0  0
 11 17  1  0  0  0  0
 13 15  2  0  0  0  0
 14 18  2  0  0  0  0
 15 18  1  0  0  0  0
 16 19  1  0  0  0  0
 17 20  2  0  0  0  0
 19 23  2  0  0  0  0
 20 23  1  0  0  0  0
 21 22  1  0  0  0  0
 22 24  2  0  0  0  0
 22 25  1  0  0  0  0
 24 26  1  0  0  0  0
 24 29  1  0  0  0  0
 25 27  2  0  0  0  0
 26 28  2  0  0  0  0
 27 28  1  0  0  0  0
M  END
> <PUBCHEM_COMPOUND_ID_TYPE>
0

> <PUBCHEM_TOTAL_CHARGE>
0

> <PUBCHEM_SUBSTANCE_ID>
310934493

> <PUBCHEM_SUBSTANCE_VERSION>
1

> <PUBCHEM_EXT_DATASOURCE_NAME>
4488

> <PUBCHEM_EXT_DATASOURCE_REGID>
SCHEMBL16111977

> <PUBCHEM_SUBSTANCE_COMMENT>
InChI=1S/C24H19ClN2O2/c1-15-7-5-6-10-17(15)14-26-23(28)22-21(16-8-3-2-4-9-16)19-13-18(25)11-12-20(19)27-24(22)29/h2-13H,14H2,1H3,(H,26,28)(H,27,29)
InChIKey=LUQKFFLWQQFFBU-UHFFFAOYSA-N

> <PUBCHEM_SUBSTANCE_SYNONYM>
SCHEMBL16111977

> <PUBCHEM_XREF_EXT_ID>
SCHEMBL16111977

> <PUBCHEM_EXT_DATASOURCE_URL>
https://www.surechembl.org/

> <PUBCHEM_EXT_SUBSTANCE_URL>
https://www.surechembl.org/chemical/SCHEMBL16111977

> <PUBCHEM_CID_ASSOCIATIONS>
86300741  1

> <PUBCHEM_COORDINATE_TYPE>
1
3

$$$$
