310938205
  -OEChem-07211613022D

 15 16  0     0  0  0  0  0  0999 V2000
    1.4119   -3.0693    0.0000 Cl  0  0  0  0  0  0  0  0  0  0  0  0
    4.5579   -2.9005    0.0000 O   0  0  0  0  0  0  0  0  0  0  0  0
    4.5579   -1.4733    0.0000 O   0  0  0  0  0  0  0  0  0  0  0  0
    2.8544   -2.8544    0.0000 N   0  0  0  0  0  0  0  0  0  0  0  0
    0.0921   -0.3530    0.0000 N   0  0  0  0  0  0  0  0  0  0  0  0
    2.0718   -1.7802    0.0000 C   0  0  0  0  0  0  0  0  0  0  0  0
    3.3302   -2.1792    0.0000 C   0  0  0  0  0  0  0  0  0  0  0  0
    2.0718   -2.5936    0.0000 C   0  0  0  0  0  0  0  0  0  0  0  0
    2.8544   -1.5193    0.0000 C   0  0  0  0  0  0  0  0  0  0  0  0
    1.4119   -1.3045    0.0000 C   0  0  0  0  0  0  0  0  0  0  0  0
    4.1589   -2.1792    0.0000 C   0  0  0  0  0  0  0  0  0  0  0  0
    1.5039   -0.5065    0.0000 C   0  0  0  0  0  0  0  0  0  0  0  0
    0.6599   -1.6574    0.0000 C   0  0  0  0  0  0  0  0  0  0  0  0
    0.8440    0.0000    0.0000 C   0  0  0  0  0  0  0  0  0  0  0  0
    0.0000   -1.1510    0.0000 C   0  0  0  0  0  0  0  0  0  0  0  0
  1  8  1  0  0  0  0
  2 11  2  0  0  0  0
  3 11  1  0  0  0  0
  4  7  1  0  0  0  0
  4  8  1  0  0  0  0
  5 14  2  0  0  0  0
  5 15  1  0  0  0  0
  6  8  2  0  0  0  0
  6  9  1  0  0  0  0
  6 10  1  0  0  0  0
  7  9  2  0  0  0  0
  7 11  1  0  0  0  0
 10 12  2  0  0  0  0
 10 13  1  0  0  0  0
 12 14  1  0  0  0  0
 13 15  2  0  0  0  0
M  END
> <PUBCHEM_COMPOUND_ID_TYPE>
0

> <PUBCHEM_TOTAL_CHARGE>
0

> <PUBCHEM_SUBSTANCE_ID>
310938205

> <PUBCHEM_SUBSTANCE_VERSION>
1

> <PUBCHEM_EXT_DATASOURCE_NAME>
4488

> <PUBCHEM_EXT_DATASOURCE_REGID>
SCHEMBL16116062

> <PUBCHEM_SUBSTANCE_COMMENT>
InChI=1S/C10H7ClN2O2/c11-9-7(5-8(13-9)10(14)15)6-1-3-12-4-2-6/h1-5,13H,(H,14,15)
InChIKey=GMIQDZGICBFCJJ-UHFFFAOYSA-N

> <PUBCHEM_SUBSTANCE_SYNONYM>
SCHEMBL16116062

> <PUBCHEM_XREF_EXT_ID>
SCHEMBL16116062

> <PUBCHEM_EXT_DATASOURCE_URL>
https://www.surechembl.org/

> <PUBCHEM_EXT_SUBSTANCE_URL>
https://www.surechembl.org/chemical/SCHEMBL16116062

> <PUBCHEM_CID_ASSOCIATIONS>
117605734  1

> <PUBCHEM_COORDINATE_TYPE>
1
3

$$$$
