310941042
  -OEChem-07211613022D

 43 46  0     1  0  0  0  0  0999 V2000
    3.8251    2.3700    0.0000 S   0  0  0  0  0  0  0  0  0  0  0  0
    5.1751   -1.3650    0.0000 O   0  0  0  0  0  0  0  0  0  0  0  0
    4.0501    0.6000    0.0000 O   0  0  0  0  0  0  0  0  0  0  0  0
    1.6801   -1.3501    0.0000 O   0  0  0  0  0  0  0  0  0  0  0  0
   -0.4650    0.7200    0.0000 O   0  0  0  0  0  0  0  0  0  0  0  0
    3.4201    3.0901    0.0000 O   0  0  0  0  0  0  0  0  0  0  0  0
    4.2451    1.6500    0.0000 O   0  0  0  0  0  0  0  0  0  0  0  0
   -2.6100   -1.3501    0.0000 O   0  0  0  0  0  0  0  0  0  0  0  0
   -5.4751    1.1250    0.0000 O   0  0  0  0  0  0  0  0  0  0  0  0
    2.4000   -0.1050    0.0000 N   0  0  0  0  0  0  0  0  0  0  0  0
    0.2550   -0.5250    0.0000 N   0  0  0  0  0  0  0  0  0  0  0  0
   -1.8901   -0.1050    0.0000 N   0  0  0  0  0  0  0  0  0  0  0  0
    4.7551   -0.6300    0.0000 C   0  0  3  0  0  0  0  0  0  0  0  0
    3.9901   -0.2400    0.0000 C   0  0  0  0  0  0  0  0  0  0  0  0
    4.3651   -1.3350    0.0000 C   0  0  0  0  0  0  0  0  0  0  0  0
    3.3451   -0.6150    0.0000 C   0  0  3  0  0  0  0  0  0  0  0  0
    5.4751   -0.2100    0.0000 C   0  0  0  0  0  0  0  0  0  0  0  0
    3.3600   -1.7100    0.0000 C   0  0  0  0  0  0  0  0  0  0  0  0
    1.6950   -0.4800    0.0000 C   0  0  0  0  0  0  0  0  0  0  0  0
    0.9600   -0.0750    0.0000 C   0  0  3  0  0  0  0  0  0  0  0  0
    2.6100   -2.1001    0.0000 C   0  0  0  0  0  0  0  0  0  0  0  0
    0.9900    0.7500    0.0000 C   0  0  0  0  0  0  0  0  0  0  0  0
    1.6801    1.1550    0.0000 C   0  0  0  0  0  0  0  0  0  0  0  0
    3.1201    1.9800    0.0000 C   0  0  0  0  0  0  0  0  0  0  0  0
   -0.4800   -0.1050    0.0000 C   0  0  0  0  0  0  0  0  0  0  0  0
    2.5201   -2.9251    0.0000 C   0  0  0  0  0  0  0  0  0  0  0  0
    1.8600   -1.7850    0.0000 C   0  0  0  0  0  0  0  0  0  0  0  0
    2.4150    0.7500    0.0000 C   0  0  0  0  0  0  0  0  0  0  0  0
    1.6950    1.9800    0.0000 C   0  0  0  0  0  0  0  0  0  0  0  0
    3.1201    1.1550    0.0000 C   0  0  0  0  0  0  0  0  0  0  0  0
    2.4000    2.3700    0.0000 C   0  0  0  0  0  0  0  0  0  0  0  0
   -1.1700   -0.4800    0.0000 C   0  0  3  0  0  0  0  0  0  0  0  0
    1.7251   -3.0901    0.0000 C   0  0  0  0  0  0  0  0  0  0  0  0
    1.3200   -2.3851    0.0000 C   0  0  0  0  0  0  0  0  0  0  0  0
   -2.5501   -0.4800    0.0000 C   0  0  0  0  0  0  0  0  0  0  0  0
   -3.3150   -0.0750    0.0000 C   0  0  0  0  0  0  0  0  0  0  0  0
    4.5751    2.7901    0.0000 C   0  0  0  0  0  0  0  0  0  0  0  0
   -3.3150    0.7350    0.0000 C   0  0  0  0  0  0  0  0  0  0  0  0
   -4.0201   -0.4800    0.0000 C   0  0  0  0  0  0  0  0  0  0  0  0
   -1.1851   -1.3350    0.0000 C   0  0  0  0  0  0  0  0  0  0  0  0
   -4.7401    0.7500    0.0000 C   0  0  0  0  0  0  0  0  0  0  0  0
   -4.7401   -0.0750    0.0000 C   0  0  0  0  0  0  0  0  0  0  0  0
   -4.0501    1.1401    0.0000 C   0  0  0  0  0  0  0  0  0  0  0  0
  1  6  2  0  0  0  0
  1  7  2  0  0  0  0
  1 24  1  0  0  0  0
  1 37  1  0  0  0  0
  2 13  1  0  0  0  0
  2 15  1  0  0  0  0
  3 14  2  0  0  0  0
  4 19  2  0  0  0  0
  5 25  2  0  0  0  0
  8 35  2  0  0  0  0
 41  9  1  1  0  0  0
 16 10  1  6  0  0  0
 10 19  1  0  0  0  0
 20 11  1  1  0  0  0
 11 25  1  0  0  0  0
 12 32  1  0  0  0  0
 12 35  1  0  0  0  0
 13 14  1  6  0  0  0
 13 15  1  0  0  0  0
 13 17  1  1  0  0  0
 14 16  1  0  0  0  0
 16 18  1  0  0  0  0
 18 21  1  0  0  0  0
 19 20  1  0  0  0  0
 20 22  1  0  0  0  0
 21 26  2  0  0  0  0
 21 27  1  0  0  0  0
 22 23  1  0  0  0  0
 23 28  2  0  0  0  0
 23 29  1  0  0  0  0
 24 30  2  0  0  0  0
 24 31  1  0  0  0  0
 25 32  1  0  0  0  0
 26 33  1  0  0  0  0
 27 34  1  0  0  0  0
 28 30  1  0  0  0  0
 29 31  2  0  0  0  0
 32 40  1  1  0  0  0
 33 34  1  0  0  0  0
 36 35  1  6  0  0  0
 36 38  1  0  0  0  0
 36 39  1  0  0  0  0
 38 43  1  0  0  0  0
 39 42  1  0  0  0  0
 41 42  1  0  0  0  0
 41 43  1  0  0  0  0
M  END
> <PUBCHEM_COMPOUND_ID_TYPE>
0

> <PUBCHEM_TOTAL_CHARGE>
0

> <PUBCHEM_SUBSTANCE_ID>
310941042

> <PUBCHEM_SUBSTANCE_VERSION>
1

> <PUBCHEM_EXT_DATASOURCE_NAME>
4488

> <PUBCHEM_EXT_DATASOURCE_REGID>
SCHEMBL16119001

> <PUBCHEM_SUBSTANCE_COMMENT>
InChI=1S/C31H43N3O8S/c1-19(32-29(38)22-10-12-23(35)13-11-22)28(37)34-26(17-21-8-14-24(15-9-21)43(3,40)41)30(39)33-25(16-20-6-4-5-7-20)27(36)31(2)18-42-31/h6,8-9,14-15,19,22-23,25-26,35H,4-5,7,10-13,16-18H2,1-3H3,(H,32,38)(H,33,39)(H,34,37)/t19-,22-,23-,25+,26+,31-/m1/s1
InChIKey=QHWDKYCIHJDGGB-WNVKXBHVSA-N

> <PUBCHEM_SUBSTANCE_SYNONYM>
SCHEMBL16119001

> <PUBCHEM_XREF_EXT_ID>
SCHEMBL16119001

> <PUBCHEM_EXT_DATASOURCE_URL>
https://www.surechembl.org/

> <PUBCHEM_EXT_SUBSTANCE_URL>
https://www.surechembl.org/chemical/SCHEMBL16119001

> <PUBCHEM_CID_ASSOCIATIONS>
117607934  1

> <PUBCHEM_COORDINATE_TYPE>
1
3

> <PUBCHEM_BONDANNOTATIONS>
16  10  6
20  11  5
13  14  6
13  17  5
32  40  5
36  35  6
41  9  5

$$$$
