310929309
  -OEChem-07211613022D

 28 30  0     0  0  0  0  0  0999 V2000
   10.5968   -5.1857    0.0000 F   0  0  0  0  0  0  0  0  0  0  0  0
   10.5592   -1.9164    0.0000 O   0  0  0  0  0  0  0  0  0  0  0  0
    0.0000   -3.1565    0.0000 O   0  0  0  0  0  0  0  0  0  0  0  0
    9.2064   -2.7431    0.0000 N   0  0  0  0  0  0  0  0  0  0  0  0
    9.8828   -3.1565    0.0000 C   0  0  0  0  0  0  0  0  0  0  0  0
    9.8828   -3.9832    0.0000 C   0  0  0  0  0  0  0  0  0  0  0  0
   10.5968   -2.7431    0.0000 C   0  0  0  0  0  0  0  0  0  0  0  0
   10.5968   -4.3589    0.0000 C   0  0  0  0  0  0  0  0  0  0  0  0
    8.4924   -3.1565    0.0000 C   0  0  0  0  0  0  0  0  0  0  0  0
    9.2064   -4.3965    0.0000 C   0  0  0  0  0  0  0  0  0  0  0  0
   11.2732   -3.1565    0.0000 C   0  0  0  0  0  0  0  0  0  0  0  0
   11.2732   -3.9456    0.0000 C   0  0  0  0  0  0  0  0  0  0  0  0
    8.4924   -3.9832    0.0000 C   0  0  0  0  0  0  0  0  0  0  0  0
    9.8452   -0.7140    0.0000 C   0  0  0  0  0  0  0  0  0  0  0  0
    9.8452   -1.5406    0.0000 C   0  0  0  0  0  0  0  0  0  0  0  0
    7.7785   -2.7431    0.0000 C   0  0  0  0  0  0  0  0  0  0  0  0
    9.4319   -0.0376    0.0000 C   0  0  0  0  0  0  0  0  0  0  0  0
   10.2586    0.0000    0.0000 C   0  0  0  0  0  0  0  0  0  0  0  0
    7.0645   -3.1565    0.0000 C   0  0  0  0  0  0  0  0  0  0  0  0
    6.3505   -2.7431    0.0000 C   0  0  0  0  0  0  0  0  0  0  0  0
    5.6741   -3.1565    0.0000 C   0  0  0  0  0  0  0  0  0  0  0  0
    4.9602   -2.7431    0.0000 C   0  0  0  0  0  0  0  0  0  0  0  0
    4.2462   -3.1565    0.0000 C   0  0  0  0  0  0  0  0  0  0  0  0
    3.5323   -2.7431    0.0000 C   0  0  0  0  0  0  0  0  0  0  0  0
    2.8183   -3.1565    0.0000 C   0  0  0  0  0  0  0  0  0  0  0  0
    2.1419   -2.7431    0.0000 C   0  0  0  0  0  0  0  0  0  0  0  0
    1.4279   -3.1565    0.0000 C   0  0  0  0  0  0  0  0  0  0  0  0
    0.7140   -2.7431    0.0000 C   0  0  0  0  0  0  0  0  0  0  0  0
  1  8  1  0  0  0  0
  2  7  1  0  0  0  0
  2 15  1  0  0  0  0
  3 28  1  0  0  0  0
  4  5  2  0  0  0  0
  4  9  1  0  0  0  0
  5  6  1  0  0  0  0
  5  7  1  0  0  0  0
  6  8  1  0  0  0  0
  6 10  2  0  0  0  0
  7 11  2  0  0  0  0
  8 12  2  0  0  0  0
  9 13  2  0  0  0  0
  9 16  1  0  0  0  0
 10 13  1  0  0  0  0
 11 12  1  0  0  0  0
 14 15  1  0  0  0  0
 14 17  1  0  0  0  0
 14 18  1  0  0  0  0
 16 19  1  0  0  0  0
 17 18  1  0  0  0  0
 19 20  1  0  0  0  0
 20 21  1  0  0  0  0
 21 22  1  0  0  0  0
 22 23  1  0  0  0  0
 23 24  1  0  0  0  0
 24 25  1  0  0  0  0
 25 26  1  0  0  0  0
 26 27  1  0  0  0  0
 27 28  1  0  0  0  0
M  END
> <PUBCHEM_COMPOUND_ID_TYPE>
0

> <PUBCHEM_TOTAL_CHARGE>
0

> <PUBCHEM_SUBSTANCE_ID>
310929309

> <PUBCHEM_SUBSTANCE_VERSION>
1

> <PUBCHEM_EXT_DATASOURCE_NAME>
4488

> <PUBCHEM_EXT_DATASOURCE_REGID>
SCHEMBL16106475

> <PUBCHEM_SUBSTANCE_COMMENT>
InChI=1S/C24H34FNO2/c25-22-15-16-23(28-18-19-11-12-19)24-21(22)14-13-20(26-24)10-8-6-4-2-1-3-5-7-9-17-27/h13-16,19,27H,1-12,17-18H2
InChIKey=AKTPETRXUNSGEU-UHFFFAOYSA-N

> <PUBCHEM_SUBSTANCE_SYNONYM>
SCHEMBL16106475

> <PUBCHEM_XREF_EXT_ID>
SCHEMBL16106475

> <PUBCHEM_EXT_DATASOURCE_URL>
https://www.surechembl.org/

> <PUBCHEM_EXT_SUBSTANCE_URL>
https://www.surechembl.org/chemical/SCHEMBL16106475

> <PUBCHEM_CID_ASSOCIATIONS>
86300011  1

> <PUBCHEM_COORDINATE_TYPE>
1
3

$$$$
