310943887
  -OEChem-07211613022D

 16 17  0     1  0  0  0  0  0999 V2000
    1.3935   -1.5251    0.0000 O   0  0  0  0  0  0  0  0  0  0  0  0
    2.7811   -0.7596    0.0000 O   0  0  0  0  0  0  0  0  0  0  0  0
   -1.4653    0.9510    0.0000 N   0  0  0  0  0  0  0  0  0  0  0  0
   -0.7596   -0.2811    0.0000 N   0  0  0  0  0  0  0  0  0  0  0  0
   -2.2189    0.6161    0.0000 N   0  0  0  0  0  0  0  0  0  0  0  0
   -2.7811    1.2380    0.0000 N   0  0  0  0  0  0  0  0  0  0  0  0
   -2.3624    1.9557    0.0000 N   0  0  0  0  0  0  0  0  0  0  0  0
   -0.7476    0.5442    0.0000 C   0  0  0  0  0  0  0  0  0  0  0  0
    0.6638   -0.2811    0.0000 C   0  0  0  0  0  0  0  0  0  0  0  0
   -0.0538    0.9510    0.0000 C   0  0  0  0  0  0  0  0  0  0  0  0
    1.4055   -0.6878    0.0000 C   0  0  3  0  0  0  0  0  0  0  0  0
   -0.0180   -0.6878    0.0000 C   0  0  0  0  0  0  0  0  0  0  0  0
    0.6758    0.5323    0.0000 C   0  0  0  0  0  0  0  0  0  0  0  0
   -1.5491    1.7763    0.0000 C   0  0  0  0  0  0  0  0  0  0  0  0
    2.0993   -0.2811    0.0000 C   0  0  0  0  0  0  0  0  0  0  0  0
    2.1232   -1.9557    0.0000 C   0  0  0  0  0  0  0  0  0  0  0  0
 11  1  1  6  0  0  0
  1 16  1  0  0  0  0
  2 15  2  0  0  0  0
  3  5  1  0  0  0  0
  3  8  1  0  0  0  0
  3 14  1  0  0  0  0
  4  8  2  0  0  0  0
  4 12  1  0  0  0  0
  5  6  2  0  0  0  0
  6  7  1  0  0  0  0
  7 14  2  0  0  0  0
  8 10  1  0  0  0  0
  9 11  1  0  0  0  0
  9 12  2  0  0  0  0
  9 13  1  0  0  0  0
 10 13  2  0  0  0  0
 11 15  1  0  0  0  0
M  END
> <PUBCHEM_COMPOUND_ID_TYPE>
0

> <PUBCHEM_TOTAL_CHARGE>
0

> <PUBCHEM_SUBSTANCE_ID>
310943887

> <PUBCHEM_SUBSTANCE_VERSION>
1

> <PUBCHEM_EXT_DATASOURCE_NAME>
4488

> <PUBCHEM_EXT_DATASOURCE_REGID>
SCHEMBL16121958

> <PUBCHEM_SUBSTANCE_COMMENT>
InChI=1S/C9H9N5O2/c1-16-8(5-15)7-2-3-9(10-4-7)14-6-11-12-13-14/h2-6,8H,1H3/t8-/m0/s1
InChIKey=VOYVKNCJLFDBDJ-QMMMGPOBSA-N

> <PUBCHEM_SUBSTANCE_SYNONYM>
SCHEMBL16121958

> <PUBCHEM_XREF_EXT_ID>
SCHEMBL16121958

> <PUBCHEM_EXT_DATASOURCE_URL>
https://www.surechembl.org/

> <PUBCHEM_EXT_SUBSTANCE_URL>
https://www.surechembl.org/chemical/SCHEMBL16121958

> <PUBCHEM_CID_ASSOCIATIONS>
117610212  1

> <PUBCHEM_COORDINATE_TYPE>
1
3

> <PUBCHEM_BONDANNOTATIONS>
11  1  6

$$$$
