310935194
  -OEChem-07211613022D

 31 34  0     0  0  0  0  0  0999 V2000
    1.7088    0.0000    0.0000 Br  0  0  0  0  0  0  0  0  0  0  0  0
    2.0035   -9.3102    0.0000 O   0  0  0  0  0  0  0  0  0  0  0  0
    0.5893   -9.3102    0.0000 O   0  0  0  0  0  0  0  0  0  0  0  0
    0.5893   -1.8267    0.0000 N   0  0  0  0  0  0  0  0  0  0  0  0
    1.2963   -6.4229    0.0000 N   0  0  0  0  0  0  0  0  0  0  0  0
    2.0624   -1.8267    0.0000 N   0  0  0  0  0  0  0  0  0  0  0  0
    0.0000   -1.2963    0.0000 N   0  0  0  0  0  0  0  0  0  0  0  0
    1.2963   -8.0727    0.0000 N   0  0  0  0  0  0  0  0  0  0  0  0
    3.4766   -5.1265    0.0000 N   0  0  0  0  0  0  0  0  0  0  0  0
    1.3553   -1.4142    0.0000 C   0  0  0  0  0  0  0  0  0  0  0  0
    1.2963   -3.0641    0.0000 C   0  0  0  0  0  0  0  0  0  0  0  0
    1.2963   -3.8891    0.0000 C   0  0  0  0  0  0  0  0  0  0  0  0
    1.2963   -5.5979    0.0000 C   0  0  0  0  0  0  0  0  0  0  0  0
    2.0035   -5.1265    0.0000 C   0  0  0  0  0  0  0  0  0  0  0  0
    0.5893   -2.6516    0.0000 C   0  0  0  0  0  0  0  0  0  0  0  0
    1.1785   -0.5893    0.0000 C   0  0  0  0  0  0  0  0  0  0  0  0
    2.0035   -4.3015    0.0000 C   0  0  0  0  0  0  0  0  0  0  0  0
    2.0624   -2.6516    0.0000 C   0  0  0  0  0  0  0  0  0  0  0  0
    0.5893   -4.3015    0.0000 C   0  0  0  0  0  0  0  0  0  0  0  0
    0.5893   -5.1265    0.0000 C   0  0  0  0  0  0  0  0  0  0  0  0
    0.3535   -0.5303    0.0000 C   0  0  0  0  0  0  0  0  0  0  0  0
    0.5893   -6.8353    0.0000 C   0  0  0  0  0  0  0  0  0  0  0  0
    2.0035   -6.8353    0.0000 C   0  0  0  0  0  0  0  0  0  0  0  0
    2.7695   -5.5390    0.0000 C   0  0  0  0  0  0  0  0  0  0  0  0
    2.0035   -7.6603    0.0000 C   0  0  0  0  0  0  0  0  0  0  0  0
    0.5893   -7.6603    0.0000 C   0  0  0  0  0  0  0  0  0  0  0  0
    1.2963   -8.8977    0.0000 C   0  0  0  0  0  0  0  0  0  0  0  0
    2.0035  -10.1351    0.0000 C   0  0  0  0  0  0  0  0  0  0  0  0
    1.2963  -10.5476    0.0000 C   0  0  0  0  0  0  0  0  0  0  0  0
    1.2963  -11.3725    0.0000 C   0  0  0  0  0  0  0  0  0  0  0  0
    0.5893  -11.7850    0.0000 C   0  0  0  0  0  0  0  0  0  0  0  0
  1 16  1  0  0  0  0
  2 27  1  0  0  0  0
  2 28  1  0  0  0  0
  3 27  2  0  0  0  0
  4  7  1  0  0  0  0
  4 10  1  0  0  0  0
  4 15  1  0  0  0  0
  5 13  1  0  0  0  0
  5 22  1  0  0  0  0
  5 23  1  0  0  0  0
  6 10  1  0  0  0  0
  6 18  2  0  0  0  0
  7 21  2  0  0  0  0
  8 25  1  0  0  0  0
  8 26  1  0  0  0  0
  8 27  1  0  0  0  0
  9 24  3  0  0  0  0
 10 16  2  0  0  0  0
 11 12  1  0  0  0  0
 11 15  2  0  0  0  0
 11 18  1  0  0  0  0
 12 17  1  0  0  0  0
 12 19  2  0  0  0  0
 13 14  1  0  0  0  0
 13 20  2  0  0  0  0
 14 17  2  0  0  0  0
 14 24  1  0  0  0  0
 16 21  1  0  0  0  0
 19 20  1  0  0  0  0
 22 26  1  0  0  0  0
 23 25  1  0  0  0  0
 28 29  1  0  0  0  0
 29 30  1  0  0  0  0
 30 31  1  0  0  0  0
M  END
> <PUBCHEM_COMPOUND_ID_TYPE>
0

> <PUBCHEM_TOTAL_CHARGE>
0

> <PUBCHEM_SUBSTANCE_ID>
310935194

> <PUBCHEM_SUBSTANCE_VERSION>
1

> <PUBCHEM_EXT_DATASOURCE_NAME>
4488

> <PUBCHEM_EXT_DATASOURCE_REGID>
SCHEMBL16112722

> <PUBCHEM_SUBSTANCE_COMMENT>
InChI=1S/C22H23BrN6O2/c1-2-3-10-31-22(30)28-8-6-27(7-9-28)20-5-4-16(11-17(20)12-24)18-13-25-21-19(23)14-26-29(21)15-18/h4-5,11,13-15H,2-3,6-10H2,1H3
InChIKey=KITPTLDCACJNMX-UHFFFAOYSA-N

> <PUBCHEM_SUBSTANCE_SYNONYM>
SCHEMBL16112722

> <PUBCHEM_XREF_EXT_ID>
SCHEMBL16112722

> <PUBCHEM_EXT_DATASOURCE_URL>
https://www.surechembl.org/

> <PUBCHEM_EXT_SUBSTANCE_URL>
https://www.surechembl.org/chemical/SCHEMBL16112722

> <PUBCHEM_CID_ASSOCIATIONS>
117603274  1

> <PUBCHEM_COORDINATE_TYPE>
1
3

$$$$
