310942947
  -OEChem-07211613022D

 13 12  0     0  0  0  0  0  0999 V2000
   -2.6217   -0.3076    0.0000 O   0  0  0  0  0  0  0  0  0  0  0  0
    1.9506   -1.1046    0.0000 O   0  0  0  0  0  0  0  0  0  0  0  0
   -1.7688   -0.2936    0.0000 C   0  0  0  0  0  0  0  0  0  0  0  0
   -1.3353    0.3915    0.0000 C   0  0  0  0  0  0  0  0  0  0  0  0
   -0.5103    0.3915    0.0000 C   0  0  0  0  0  0  0  0  0  0  0  0
    2.3841   -0.3495    0.0000 C   0  0  0  0  0  0  0  0  0  0  0  0
   -0.0489    1.1046    0.0000 C   0  0  0  0  0  0  0  0  0  0  0  0
    2.0205    0.3495    0.0000 C   0  0  0  0  0  0  0  0  0  0  0  0
    1.1676    0.3635    0.0000 C   0  0  0  0  0  0  0  0  0  0  0  0
    0.7761    1.0906    0.0000 C   0  0  0  0  0  0  0  0  0  0  0  0
   -1.4752   -0.8949    0.0000 C   0  0  0  0  0  0  0  0  0  0  0  0
    3.0272   -0.3915    0.0000 C   0  0  0  0  0  0  0  0  0  0  0  0
   -3.0272   -1.0208    0.0000 C   0  0  0  0  0  0  0  0  0  0  0  0
  1  3  1  0  0  0  0
  1 13  1  0  0  0  0
  2  6  2  0  0  0  0
  3  4  1  0  0  0  0
  3 11  2  0  0  0  0
  4  5  1  0  0  0  0
  5  7  1  0  0  0  0
  6  8  1  0  0  0  0
  6 12  1  0  0  0  0
  7 10  2  0  0  0  0
  8  9  1  0  0  0  0
  9 10  1  0  0  0  0
M  END
> <PUBCHEM_COMPOUND_ID_TYPE>
0

> <PUBCHEM_TOTAL_CHARGE>
0

> <PUBCHEM_SUBSTANCE_ID>
310942947

> <PUBCHEM_SUBSTANCE_VERSION>
1

> <PUBCHEM_EXT_DATASOURCE_NAME>
4488

> <PUBCHEM_EXT_DATASOURCE_REGID>
SCHEMBL16121006

> <PUBCHEM_SUBSTANCE_COMMENT>
InChI=1S/C11H18O2/c1-10(12)8-6-4-5-7-9-11(2)13-3/h4-5H,2,6-9H2,1,3H3/b5-4-
InChIKey=CGNQTAKDJGZYGA-PLNGDYQASA-N

> <PUBCHEM_SUBSTANCE_SYNONYM>
SCHEMBL16121006

> <PUBCHEM_XREF_EXT_ID>
SCHEMBL16121006

> <PUBCHEM_EXT_DATASOURCE_URL>
https://www.surechembl.org/

> <PUBCHEM_EXT_SUBSTANCE_URL>
https://www.surechembl.org/chemical/SCHEMBL16121006

> <PUBCHEM_CID_ASSOCIATIONS>
117609409  1

> <PUBCHEM_COORDINATE_TYPE>
1
3

$$$$
