310945448
  -OEChem-07211613022D

 32 35  0     0  0  0  0  0  0999 V2000
    0.0656    1.4340    0.0000 F   0  0  0  0  0  0  0  0  0  0  0  0
    0.8716    2.2963    0.0000 F   0  0  0  0  0  0  0  0  0  0  0  0
    1.7152    1.4340    0.0000 F   0  0  0  0  0  0  0  0  0  0  0  0
   -4.3957   -1.2090    0.0000 F   0  0  0  0  0  0  0  0  0  0  0  0
   -5.2205   -0.3281    0.0000 F   0  0  0  0  0  0  0  0  0  0  0  0
   -4.3957    0.5342    0.0000 F   0  0  0  0  0  0  0  0  0  0  0  0
   -0.6279    0.3655    0.0000 N   0  0  0  0  0  0  0  0  0  0  0  0
   -0.6467   -1.0404    0.0000 N   0  0  0  0  0  0  0  0  0  0  0  0
    1.5840    0.1218    0.0000 N   0  0  0  0  0  0  0  0  0  0  0  0
    0.8716   -1.2090    0.0000 N   0  0  0  0  0  0  0  0  0  0  0  0
   -3.1773   -1.1153    0.0000 N   0  0  0  0  0  0  0  0  0  0  0  0
    3.7209   -1.2090    0.0000 N   0  0  0  0  0  0  0  0  0  0  0  0
    0.1593    0.0844    0.0000 C   0  0  0  0  0  0  0  0  0  0  0  0
    0.8904    0.5155    0.0000 C   0  0  0  0  0  0  0  0  0  0  0  0
    0.1218   -0.7967    0.0000 C   0  0  0  0  0  0  0  0  0  0  0  0
   -1.1153   -0.3468    0.0000 C   0  0  0  0  0  0  0  0  0  0  0  0
    0.8716    1.3965    0.0000 C   0  0  0  0  0  0  0  0  0  0  0  0
    1.5840   -0.7967    0.0000 C   0  0  0  0  0  0  0  0  0  0  0  0
   -1.9214   -0.3281    0.0000 C   0  0  0  0  0  0  0  0  0  0  0  0
   -2.3525   -1.1341    0.0000 C   0  0  0  0  0  0  0  0  0  0  0  0
   -2.3338    0.3655    0.0000 C   0  0  0  0  0  0  0  0  0  0  0  0
   -3.5897   -0.3843    0.0000 C   0  0  0  0  0  0  0  0  0  0  0  0
    2.2963   -1.2090    0.0000 C   0  0  0  0  0  0  0  0  0  0  0  0
   -3.1773    0.3843    0.0000 C   0  0  0  0  0  0  0  0  0  0  0  0
   -4.4145   -0.3655    0.0000 C   0  0  0  0  0  0  0  0  0  0  0  0
    3.0086   -0.8154    0.0000 C   0  0  0  0  0  0  0  0  0  0  0  0
    4.4520   -0.8904    0.0000 C   0  0  0  0  0  0  0  0  0  0  0  0
    3.8146   -2.1089    0.0000 C   0  0  0  0  0  0  0  0  0  0  0  0
    4.8268   -1.3215    0.0000 C   0  0  0  0  0  0  0  0  0  0  0  0
    4.6207   -2.2963    0.0000 C   0  0  0  0  0  0  0  0  0  0  0  0
    5.0143   -1.7152    0.0000 C   0  0  0  0  0  0  0  0  0  0  0  0
    5.2205   -1.2653    0.0000 C   0  0  0  0  0  0  0  0  0  0  0  0
  1 17  1  0  0  0  0
  2 17  1  0  0  0  0
  3 17  1  0  0  0  0
  4 25  1  0  0  0  0
  5 25  1  0  0  0  0
  6 25  1  0  0  0  0
  7 13  1  0  0  0  0
  7 16  2  0  0  0  0
  8 15  1  0  0  0  0
  8 16  1  0  0  0  0
  9 14  2  0  0  0  0
  9 18  1  0  0  0  0
 10 15  1  0  0  0  0
 10 18  2  0  0  0  0
 11 20  2  0  0  0  0
 11 22  1  0  0  0  0
 12 26  1  0  0  0  0
 12 27  1  0  0  0  0
 12 28  1  0  0  0  0
 13 14  1  0  0  0  0
 13 15  2  0  0  0  0
 14 17  1  0  0  0  0
 16 19  1  0  0  0  0
 18 23  1  0  0  0  0
 19 20  1  0  0  0  0
 19 21  2  0  0  0  0
 21 24  1  0  0  0  0
 22 24  2  0  0  0  0
 22 25  1  0  0  0  0
 23 26  1  0  0  0  0
 27 29  2  0  0  0  0
 28 30  2  0  0  0  0
 29 31  2  0  0  0  0
 30 31  1  0  0  0  0
 31 32  1  0  0  0  0
M  END
> <PUBCHEM_COMPOUND_ID_TYPE>
0

> <PUBCHEM_TOTAL_CHARGE>
0

> <PUBCHEM_SUBSTANCE_ID>
310945448

> <PUBCHEM_SUBSTANCE_VERSION>
1

> <PUBCHEM_EXT_DATASOURCE_NAME>
4488

> <PUBCHEM_EXT_DATASOURCE_REGID>
SCHEMBL16123546

> <PUBCHEM_SUBSTANCE_COMMENT>
InChI=1S/C20H14F6N6/c1-11-4-7-32(8-5-11)9-6-14-28-16(20(24,25)26)15-18(29-14)31-17(30-15)12-2-3-13(27-10-12)19(21,22)23/h2-4,7-8,10H,6,9H2,1H3,(H,28,29,30,31)
InChIKey=YAZPOGBJCZIKFN-UHFFFAOYSA-N

> <PUBCHEM_SUBSTANCE_SYNONYM>
SCHEMBL16123546

> <PUBCHEM_XREF_EXT_ID>
SCHEMBL16123546

> <PUBCHEM_EXT_DATASOURCE_URL>
https://www.surechembl.org/

> <PUBCHEM_EXT_SUBSTANCE_URL>
https://www.surechembl.org/chemical/SCHEMBL16123546

> <PUBCHEM_CID_ASSOCIATIONS>
117611493  1

> <PUBCHEM_COORDINATE_TYPE>
1
3

$$$$
