310939482
  -OEChem-07211613022D

 29 33  0     1  0  0  0  0  0999 V2000
    2.3710   -0.9615    0.0000 O   0  0  0  0  0  0  0  0  0  0  0  0
   -2.9841   -0.8922    0.0000 O   0  0  0  0  0  0  0  0  0  0  0  0
    0.5882    0.3453    0.0000 N   0  0  0  0  0  0  0  0  0  0  0  0
   -0.1262   -0.0672    0.0000 N   0  0  0  0  0  0  0  0  0  0  0  0
    1.3729    1.4253    0.0000 N   0  0  0  0  0  0  0  0  0  0  0  0
   -1.5552   -0.0672    0.0000 N   0  0  0  0  0  0  0  0  0  0  0  0
    1.3729    0.0904    0.0000 C   0  0  0  0  0  0  0  0  0  0  0  0
    1.5864   -0.7065    0.0000 C   0  0  0  0  0  0  0  0  0  0  0  0
    0.5882    1.1703    0.0000 C   0  0  0  0  0  0  0  0  0  0  0  0
    2.3710   -1.7865    0.0000 C   0  0  0  0  0  0  0  0  0  0  0  0
    1.5864   -2.0414    0.0000 C   0  0  0  0  0  0  0  0  0  0  0  0
    1.8578    0.7578    0.0000 C   0  0  0  0  0  0  0  0  0  0  0  0
    1.1015   -1.3740    0.0000 C   0  0  0  0  0  0  0  0  0  0  0  0
   -0.8407    0.3453    0.0000 C   0  0  0  0  0  0  0  0  0  0  0  0
   -0.1262    1.5828    0.0000 C   0  0  0  0  0  0  0  0  0  0  0  0
   -0.8407    1.1703    0.0000 C   0  0  0  0  0  0  0  0  0  0  0  0
    2.9841   -2.3385    0.0000 C   0  0  0  0  0  0  0  0  0  0  0  0
    1.4149   -2.8484    0.0000 C   0  0  0  0  0  0  0  0  0  0  0  0
   -2.2696    0.3453    0.0000 C   0  0  3  0  0  0  0  0  0  0  0  0
    2.8126   -3.1455    0.0000 C   0  0  0  0  0  0  0  0  0  0  0  0
    2.0280   -3.4004    0.0000 C   0  0  0  0  0  0  0  0  0  0  0  0
   -2.2696    1.7504    0.0000 C   0  0  0  0  0  0  0  0  0  0  0  0
   -1.5552    2.1629    0.0000 C   0  0  0  0  0  0  0  0  0  0  0  0
   -2.9841   -0.0672    0.0000 C   0  0  0  0  0  0  0  0  0  0  0  0
   -1.5552    2.9879    0.0000 C   0  0  0  0  0  0  0  0  0  0  0  0
   -0.8407    1.7504    0.0000 C   0  0  0  0  0  0  0  0  0  0  0  0
   -0.8407    3.4004    0.0000 C   0  0  0  0  0  0  0  0  0  0  0  0
   -0.1262    2.1629    0.0000 C   0  0  0  0  0  0  0  0  0  0  0  0
   -0.1262    2.9879    0.0000 C   0  0  0  0  0  0  0  0  0  0  0  0
  1  8  1  0  0  0  0
  1 10  1  0  0  0  0
  2 24  1  0  0  0  0
  3  4  1  0  0  0  0
  3  7  1  0  0  0  0
  3  9  1  0  0  0  0
  4 14  2  0  0  0  0
  5  9  2  0  0  0  0
  5 12  1  0  0  0  0
  6 14  1  0  0  0  0
 19  6  1  6  0  0  0
  7  8  1  0  0  0  0
  7 12  2  0  0  0  0
  8 13  2  0  0  0  0
  9 15  1  0  0  0  0
 10 11  2  0  0  0  0
 10 17  1  0  0  0  0
 11 13  1  0  0  0  0
 11 18  1  0  0  0  0
 14 16  1  0  0  0  0
 15 16  2  0  0  0  0
 17 20  2  0  0  0  0
 18 21  2  0  0  0  0
 19 22  1  0  0  0  0
 19 24  1  0  0  0  0
 20 21  1  0  0  0  0
 22 23  1  0  0  0  0
 23 25  2  0  0  0  0
 23 26  1  0  0  0  0
 25 27  1  0  0  0  0
 26 28  2  0  0  0  0
 27 29  2  0  0  0  0
 28 29  1  0  0  0  0
M  END
> <PUBCHEM_COMPOUND_ID_TYPE>
0

> <PUBCHEM_TOTAL_CHARGE>
0

> <PUBCHEM_SUBSTANCE_ID>
310939482

> <PUBCHEM_SUBSTANCE_VERSION>
1

> <PUBCHEM_EXT_DATASOURCE_NAME>
4488

> <PUBCHEM_EXT_DATASOURCE_REGID>
SCHEMBL16117411

> <PUBCHEM_SUBSTANCE_COMMENT>
InChI=1S/C23H20N4O2/c28-15-18(12-16-6-2-1-3-7-16)25-22-10-11-23-24-14-19(27(23)26-22)21-13-17-8-4-5-9-20(17)29-21/h1-11,13-14,18,28H,12,15H2,(H,25,26)/t18-/m0/s1
InChIKey=HPIBHPKOFWESRC-SFHVURJKSA-N

> <PUBCHEM_SUBSTANCE_SYNONYM>
SCHEMBL16117411

> <PUBCHEM_XREF_EXT_ID>
SCHEMBL16117411

> <PUBCHEM_EXT_DATASOURCE_URL>
https://www.surechembl.org/

> <PUBCHEM_EXT_SUBSTANCE_URL>
https://www.surechembl.org/chemical/SCHEMBL16117411

> <PUBCHEM_CID_ASSOCIATIONS>
117606792  1

> <PUBCHEM_COORDINATE_TYPE>
1
3

> <PUBCHEM_BONDANNOTATIONS>
19  6  6

$$$$
