310949058
  -OEChem-07211613022D

 38 44  0     0  0  0  0  0  0999 V2000
   -1.0056    0.3797    0.0000 N   0  0  0  0  0  0  0  0  0  0  0  0
    1.1743   -0.0985    0.0000 N   0  0  0  0  0  0  0  0  0  0  0  0
   -1.0197   -3.7129    0.0000 N   0  0  0  0  0  0  0  0  0  0  0  0
   -0.3445    0.9142    0.0000 C   0  0  0  0  0  0  0  0  0  0  0  0
    1.0619    1.3642    0.0000 C   0  0  0  0  0  0  0  0  0  0  0  0
   -0.5976    1.6595    0.0000 C   0  0  0  0  0  0  0  0  0  0  0  0
    0.7947    2.1096    0.0000 C   0  0  0  0  0  0  0  0  0  0  0  0
    1.9056    1.3361    0.0000 C   0  0  0  0  0  0  0  0  0  0  0  0
   -1.4415    1.6877    0.0000 C   0  0  0  0  0  0  0  0  0  0  0  0
   -1.7088    0.8861    0.0000 C   0  0  0  0  0  0  0  0  0  0  0  0
    1.4978    2.5878    0.0000 C   0  0  0  0  0  0  0  0  0  0  0  0
    2.1588    2.1377    0.0000 C   0  0  0  0  0  0  0  0  0  0  0  0
    0.4852    0.7312    0.0000 C   0  0  0  0  0  0  0  0  0  0  0  0
   -0.0492    2.2643    0.0000 C   0  0  0  0  0  0  0  0  0  0  0  0
   -1.0197   -0.4219    0.0000 C   0  0  0  0  0  0  0  0  0  0  0  0
   -0.2743   -0.8298    0.0000 C   0  0  0  0  0  0  0  0  0  0  0  0
   -2.0041    2.2503    0.0000 C   0  0  0  0  0  0  0  0  0  0  0  0
   -2.4964    0.7312    0.0000 C   0  0  0  0  0  0  0  0  0  0  0  0
    1.5681    3.3894    0.0000 C   0  0  0  0  0  0  0  0  0  0  0  0
    2.9323    2.4612    0.0000 C   0  0  0  0  0  0  0  0  0  0  0  0
   -0.2883   -1.6455    0.0000 C   0  0  0  0  0  0  0  0  0  0  0  0
    1.6947    0.5485    0.0000 C   0  0  0  0  0  0  0  0  0  0  0  0
    2.7495    1.1251    0.0000 C   0  0  0  0  0  0  0  0  0  0  0  0
   -1.7368   -0.8298    0.0000 C   0  0  0  0  0  0  0  0  0  0  0  0
   -1.0056   -2.0392    0.0000 C   0  0  0  0  0  0  0  0  0  0  0  0
   -2.7636    2.0955    0.0000 C   0  0  0  0  0  0  0  0  0  0  0  0
   -3.0167    1.3079    0.0000 C   0  0  0  0  0  0  0  0  0  0  0  0
   -1.7509   -1.6314    0.0000 C   0  0  0  0  0  0  0  0  0  0  0  0
    0.4571   -2.0674    0.0000 C   0  0  0  0  0  0  0  0  0  0  0  0
    2.2995    3.7129    0.0000 C   0  0  0  0  0  0  0  0  0  0  0  0
    3.0167    3.2488    0.0000 C   0  0  0  0  0  0  0  0  0  0  0  0
    0.4430   -0.4500    0.0000 C   0  0  0  0  0  0  0  0  0  0  0  0
   -1.0197   -2.8972    0.0000 C   0  0  0  0  0  0  0  0  0  0  0  0
    0.4571   -2.8972    0.0000 C   0  0  0  0  0  0  0  0  0  0  0  0
    1.1743   -1.6736    0.0000 C   0  0  0  0  0  0  0  0  0  0  0  0
    1.2025   -3.2769    0.0000 C   0  0  0  0  0  0  0  0  0  0  0  0
    1.9197   -2.0955    0.0000 C   0  0  0  0  0  0  0  0  0  0  0  0
    1.9056   -2.8972    0.0000 C   0  0  0  0  0  0  0  0  0  0  0  0
  1  4  1  0  0  0  0
  1 10  1  0  0  0  0
  1 15  1  0  0  0  0
  2 32  3  0  0  0  0
  3 33  3  0  0  0  0
  4  6  2  0  0  0  0
  4 13  1  0  0  0  0
  5  7  1  0  0  0  0
  5  8  1  0  0  0  0
  5 13  2  0  0  0  0
  6  9  1  0  0  0  0
  6 14  1  0  0  0  0
  7 11  1  0  0  0  0
  7 14  2  0  0  0  0
  8 12  1  0  0  0  0
  8 22  1  0  0  0  0
  8 23  1  0  0  0  0
  9 10  2  0  0  0  0
  9 17  1  0  0  0  0
 10 18  1  0  0  0  0
 11 12  2  0  0  0  0
 11 19  1  0  0  0  0
 12 20  1  0  0  0  0
 15 16  2  0  0  0  0
 15 24  1  0  0  0  0
 16 21  1  0  0  0  0
 16 32  1  0  0  0  0
 17 26  2  0  0  0  0
 18 27  2  0  0  0  0
 19 30  2  0  0  0  0
 20 31  2  0  0  0  0
 21 25  2  0  0  0  0
 21 29  1  0  0  0  0
 24 28  2  0  0  0  0
 25 28  1  0  0  0  0
 25 33  1  0  0  0  0
 26 27  1  0  0  0  0
 29 34  2  0  0  0  0
 29 35  1  0  0  0  0
 30 31  1  0  0  0  0
 34 36  1  0  0  0  0
 35 37  2  0  0  0  0
 36 38  2  0  0  0  0
 37 38  1  0  0  0  0
M  END
> <PUBCHEM_COMPOUND_ID_TYPE>
0

> <PUBCHEM_TOTAL_CHARGE>
0

> <PUBCHEM_SUBSTANCE_ID>
310949058

> <PUBCHEM_SUBSTANCE_VERSION>
1

> <PUBCHEM_EXT_DATASOURCE_NAME>
4488

> <PUBCHEM_EXT_DATASOURCE_REGID>
SCHEMBL16127248

> <PUBCHEM_SUBSTANCE_COMMENT>
InChI=1S/C35H23N3/c1-35(2)29-14-8-6-12-24(29)26-18-27-25-13-7-9-15-31(25)38(33(27)19-30(26)35)32-17-16-23(20-36)34(28(32)21-37)22-10-4-3-5-11-22/h3-19H,1-2H3
InChIKey=PVPYROAAJAPLRF-UHFFFAOYSA-N

> <PUBCHEM_SUBSTANCE_SYNONYM>
SCHEMBL16127248

> <PUBCHEM_XREF_EXT_ID>
SCHEMBL16127248

> <PUBCHEM_EXT_DATASOURCE_URL>
https://www.surechembl.org/

> <PUBCHEM_EXT_SUBSTANCE_URL>
https://www.surechembl.org/chemical/SCHEMBL16127248

> <PUBCHEM_CID_ASSOCIATIONS>
117614563  1

> <PUBCHEM_COORDINATE_TYPE>
1
3

$$$$
