310947162
  -OEChem-07211613022D

 25 30  0     0  0  0  0  0  0999 V2000
   -2.2899   -1.8244    0.0000 O   0  0  0  0  0  0  0  0  0  0  0  0
   -3.4502   -1.1526    0.0000 O   0  0  0  0  0  0  0  0  0  0  0  0
    2.9923    0.3893    0.0000 O   0  0  0  0  0  0  0  0  0  0  0  0
    2.9923    1.7327    0.0000 O   0  0  0  0  0  0  0  0  0  0  0  0
    0.0306   -0.6335    0.0000 N   0  0  0  0  0  0  0  0  0  0  0  0
   -0.6869   -1.8396    0.0000 N   0  0  0  0  0  0  0  0  0  0  0  0
   -1.4045   -0.5726    0.0000 C   0  0  0  0  0  0  0  0  0  0  0  0
   -1.4045    0.2367    0.0000 C   0  0  0  0  0  0  0  0  0  0  0  0
   -0.6869    0.6488    0.0000 C   0  0  0  0  0  0  0  0  0  0  0  0
    0.0458    0.2519    0.0000 C   0  0  0  0  0  0  0  0  0  0  0  0
    0.7480    0.6640    0.0000 C   0  0  0  0  0  0  0  0  0  0  0  0
   -2.1373   -0.9999    0.0000 C   0  0  0  0  0  0  0  0  0  0  0  0
   -0.6717   -0.9999    0.0000 C   0  0  0  0  0  0  0  0  0  0  0  0
    0.7480    1.4732    0.0000 C   0  0  0  0  0  0  0  0  0  0  0  0
   -2.8549   -0.5878    0.0000 C   0  0  0  0  0  0  0  0  0  0  0  0
   -0.6717    1.4885    0.0000 C   0  0  0  0  0  0  0  0  0  0  0  0
   -2.1068    0.6335    0.0000 C   0  0  0  0  0  0  0  0  0  0  0  0
    1.4809    0.2519    0.0000 C   0  0  0  0  0  0  0  0  0  0  0  0
    2.1831    0.6640    0.0000 C   0  0  0  0  0  0  0  0  0  0  0  0
    2.1983    1.4885    0.0000 C   0  0  0  0  0  0  0  0  0  0  0  0
    0.0153    1.8853    0.0000 C   0  0  0  0  0  0  0  0  0  0  0  0
    1.4503    1.8853    0.0000 C   0  0  0  0  0  0  0  0  0  0  0  0
   -2.8243    0.2367    0.0000 C   0  0  0  0  0  0  0  0  0  0  0  0
   -3.1296   -1.8853    0.0000 C   0  0  0  0  0  0  0  0  0  0  0  0
    3.4502    1.0916    0.0000 C   0  0  0  0  0  0  0  0  0  0  0  0
  1 12  1  0  0  0  0
  1 24  1  0  0  0  0
  2 15  1  0  0  0  0
  2 24  1  0  0  0  0
  3 19  1  0  0  0  0
  3 25  1  0  0  0  0
  4 20  1  0  0  0  0
  4 25  1  0  0  0  0
  5 10  1  0  0  0  0
  5 13  2  0  0  0  0
  6 13  1  0  0  0  0
  7  8  1  0  0  0  0
  7 12  2  0  0  0  0
  7 13  1  0  0  0  0
  8  9  1  0  0  0  0
  8 17  2  0  0  0  0
  9 10  2  0  0  0  0
  9 16  1  0  0  0  0
 10 11  1  0  0  0  0
 11 14  2  0  0  0  0
 11 18  1  0  0  0  0
 12 15  1  0  0  0  0
 14 21  1  0  0  0  0
 14 22  1  0  0  0  0
 15 23  2  0  0  0  0
 16 21  1  0  0  0  0
 17 23  1  0  0  0  0
 18 19  2  0  0  0  0
 19 20  1  0  0  0  0
 20 22  2  0  0  0  0
M  END
> <PUBCHEM_COMPOUND_ID_TYPE>
0

> <PUBCHEM_TOTAL_CHARGE>
0

> <PUBCHEM_SUBSTANCE_ID>
310947162

> <PUBCHEM_SUBSTANCE_VERSION>
1

> <PUBCHEM_EXT_DATASOURCE_NAME>
4488

> <PUBCHEM_EXT_DATASOURCE_REGID>
SCHEMBL16125316

> <PUBCHEM_SUBSTANCE_COMMENT>
InChI=1S/C19H14N2O4/c20-19-16-10(3-4-13-18(16)25-8-22-13)11-2-1-9-5-14-15(24-7-23-14)6-12(9)17(11)21-19/h3-6H,1-2,7-8H2,(H2,20,21)
InChIKey=NTMGCOOCXYYAGK-UHFFFAOYSA-N

> <PUBCHEM_SUBSTANCE_SYNONYM>
SCHEMBL16125316

> <PUBCHEM_XREF_EXT_ID>
SCHEMBL16125316

> <PUBCHEM_EXT_DATASOURCE_URL>
https://www.surechembl.org/

> <PUBCHEM_EXT_SUBSTANCE_URL>
https://www.surechembl.org/chemical/SCHEMBL16125316

> <PUBCHEM_CID_ASSOCIATIONS>
86272398  1

> <PUBCHEM_COORDINATE_TYPE>
1
3

$$$$
