310930436
  -OEChem-07211613022D

 26 28  0     0  0  0  0  0  0999 V2000
    4.6249   -4.2999    0.0000 S   0  0  0  0  0  0  0  0  0  0  0  0
    4.6249    0.0000    0.0000 O   0  0  0  0  0  0  0  0  0  0  0  0
    5.8499   -0.7250    0.0000 O   0  0  0  0  0  0  0  0  0  0  0  0
    0.1250   -3.7250    0.0000 N   0  0  0  0  0  0  0  0  0  0  0  0
    1.3499   -2.8500    0.0000 N   0  0  0  0  0  0  0  0  0  0  0  0
    4.6249   -1.4250    0.0000 N   0  0  0  0  0  0  0  0  0  0  0  0
    3.3750   -4.9999    0.0000 N   0  0  0  0  0  0  0  0  0  0  0  0
    3.3750   -3.5750    0.0000 N   0  0  0  0  0  0  0  0  0  0  0  0
    1.3250   -4.2999    0.0000 C   0  0  0  0  0  0  0  0  0  0  0  0
    0.9000   -3.5499    0.0000 C   0  0  0  0  0  0  0  0  0  0  0  0
    2.1500   -4.2749    0.0000 C   0  0  0  0  0  0  0  0  0  0  0  0
    5.0249   -2.1500    0.0000 C   0  0  0  0  0  0  0  0  0  0  0  0
    4.6249   -2.8500    0.0000 C   0  0  0  0  0  0  0  0  0  0  0  0
    0.7500   -4.8749    0.0000 C   0  0  0  0  0  0  0  0  0  0  0  0
    2.5500   -3.5999    0.0000 C   0  0  0  0  0  0  0  0  0  0  0  0
    2.5500   -4.9999    0.0000 C   0  0  0  0  0  0  0  0  0  0  0  0
    0.0000   -4.5500    0.0000 C   0  0  0  0  0  0  0  0  0  0  0  0
    2.1500   -2.8500    0.0000 C   0  0  0  0  0  0  0  0  0  0  0  0
    5.8499   -2.1500    0.0000 C   0  0  0  0  0  0  0  0  0  0  0  0
    3.7999   -2.8500    0.0000 C   0  0  0  0  0  0  0  0  0  0  0  0
    5.0249   -3.5750    0.0000 C   0  0  0  0  0  0  0  0  0  0  0  0
    5.0249   -0.7250    0.0000 C   0  0  0  0  0  0  0  0  0  0  0  0
    3.7999   -4.2749    0.0000 C   0  0  0  0  0  0  0  0  0  0  0  0
    6.2749   -2.8500    0.0000 C   0  0  0  0  0  0  0  0  0  0  0  0
    5.8499   -3.5750    0.0000 C   0  0  0  0  0  0  0  0  0  0  0  0
    3.7999   -1.4250    0.0000 C   0  0  0  0  0  0  0  0  0  0  0  0
  1 23  2  0  0  0  0
  2 22  2  0  0  0  0
  3 22  1  0  0  0  0
  4 10  1  0  0  0  0
  4 17  1  0  0  0  0
  5 10  1  0  0  0  0
  5 18  2  0  0  0  0
  6 12  1  0  0  0  0
  6 22  1  0  0  0  0
  6 26  1  0  0  0  0
  7 16  1  0  0  0  0
  7 23  1  0  0  0  0
  8 20  1  0  0  0  0
  8 23  1  0  0  0  0
  9 10  2  0  0  0  0
  9 11  1  0  0  0  0
  9 14  1  0  0  0  0
 11 15  2  0  0  0  0
 11 16  1  0  0  0  0
 12 13  1  0  0  0  0
 12 19  2  0  0  0  0
 13 20  1  0  0  0  0
 13 21  2  0  0  0  0
 14 17  2  0  0  0  0
 15 18  1  0  0  0  0
 19 24  1  0  0  0  0
 21 25  1  0  0  0  0
 24 25  2  0  0  0  0
M  END
> <PUBCHEM_COMPOUND_ID_TYPE>
0

> <PUBCHEM_TOTAL_CHARGE>
0

> <PUBCHEM_SUBSTANCE_ID>
310930436

> <PUBCHEM_SUBSTANCE_VERSION>
1

> <PUBCHEM_EXT_DATASOURCE_NAME>
4488

> <PUBCHEM_EXT_DATASOURCE_REGID>
SCHEMBL16107726

> <PUBCHEM_SUBSTANCE_COMMENT>
InChI=1S/C18H19N5O2S/c1-23(18(24)25)15-5-3-2-4-13(15)11-22-17(26)21-10-12-6-8-19-16-14(12)7-9-20-16/h2-9H,10-11H2,1H3,(H,19,20)(H,24,25)(H2,21,22,26)
InChIKey=PFLKLRXFUIOJDL-UHFFFAOYSA-N

> <PUBCHEM_SUBSTANCE_SYNONYM>
SCHEMBL16107726

> <PUBCHEM_XREF_EXT_ID>
SCHEMBL16107726

> <PUBCHEM_EXT_DATASOURCE_URL>
https://www.surechembl.org/

> <PUBCHEM_EXT_SUBSTANCE_URL>
https://www.surechembl.org/chemical/SCHEMBL16107726

> <PUBCHEM_CID_ASSOCIATIONS>
117599571  1

> <PUBCHEM_COORDINATE_TYPE>
1
3

$$$$
