310936188
  -OEChem-07211613022D

 11 11  0     0  0  0  0  0  0999 V2000
    4.6400    0.0000    0.0000 Cl  0  0  0  0  0  0  0  0  0  0  0  0
    2.9232   -0.2165    0.0000 S   0  0  0  0  0  0  0  0  0  0  0  0
    0.7269   -1.3920    0.0000 O   0  0  0  0  0  0  0  0  0  0  0  0
    2.2427   -1.3766    0.0000 N   0  0  0  0  0  0  0  0  0  0  0  0
    1.4384   -0.1392    0.0000 N   0  0  0  0  0  0  0  0  0  0  0  0
    2.1653   -0.5568    0.0000 C   0  0  0  0  0  0  0  0  0  0  0  0
    3.4800   -0.8352    0.0000 C   0  0  0  0  0  0  0  0  0  0  0  0
    3.0624   -1.5467    0.0000 C   0  0  0  0  0  0  0  0  0  0  0  0
    0.7269   -0.5568    0.0000 C   0  0  0  0  0  0  0  0  0  0  0  0
    4.2998   -0.7424    0.0000 C   0  0  0  0  0  0  0  0  0  0  0  0
    0.0000   -0.1392    0.0000 C   0  0  0  0  0  0  0  0  0  0  0  0
  1 10  1  0  0  0  0
  2  6  1  0  0  0  0
  2  7  1  0  0  0  0
  3  9  2  0  0  0  0
  4  6  2  0  0  0  0
  4  8  1  0  0  0  0
  5  6  1  0  0  0  0
  5  9  1  0  0  0  0
  7  8  2  0  0  0  0
  7 10  1  0  0  0  0
  9 11  1  0  0  0  0
M  END
> <PUBCHEM_COMPOUND_ID_TYPE>
0

> <PUBCHEM_TOTAL_CHARGE>
0

> <PUBCHEM_SUBSTANCE_ID>
310936188

> <PUBCHEM_SUBSTANCE_VERSION>
1

> <PUBCHEM_EXT_DATASOURCE_NAME>
4488

> <PUBCHEM_EXT_DATASOURCE_REGID>
SCHEMBL16113800

> <PUBCHEM_SUBSTANCE_COMMENT>
InChI=1S/C6H7ClN2OS/c1-4(10)9-6-8-3-5(2-7)11-6/h3H,2H2,1H3,(H,8,9,10)
InChIKey=LAPWQPYYMGKHNZ-UHFFFAOYSA-N

> <PUBCHEM_SUBSTANCE_SYNONYM>
SCHEMBL16113800

> <PUBCHEM_XREF_EXT_ID>
SCHEMBL16113800

> <PUBCHEM_EXT_DATASOURCE_URL>
https://www.surechembl.org/

> <PUBCHEM_EXT_SUBSTANCE_URL>
https://www.surechembl.org/chemical/SCHEMBL16113800

> <PUBCHEM_CID_ASSOCIATIONS>
55267745  1

> <PUBCHEM_COORDINATE_TYPE>
1
3

$$$$
