310943391
  -OEChem-07211613022D

 37 40  0     1  0  0  0  0  0999 V2000
    4.7125   -1.3325    0.0000 F   0  0  0  0  0  0  0  0  0  0  0  0
    3.9326   -2.1342    0.0000 F   0  0  0  0  0  0  0  0  0  0  0  0
    3.1525   -1.3325    0.0000 F   0  0  0  0  0  0  0  0  0  0  0  0
   -3.3259   -0.4225    0.0000 O   0  0  0  0  0  0  0  0  0  0  0  0
   -4.7125    2.0908    0.0000 O   0  0  0  0  0  0  0  0  0  0  0  0
    2.4592    1.9825    0.0000 O   0  0  0  0  0  0  0  0  0  0  0  0
   -4.0842   -2.4808    0.0000 O   0  0  0  0  0  0  0  0  0  0  0  0
   -3.2825    1.2242    0.0000 N   0  0  0  0  0  0  0  0  0  0  0  0
   -1.8959   -0.4658    0.0000 N   0  0  0  0  0  0  0  0  0  0  0  0
    0.3358    2.3942    0.0000 N   0  0  0  0  0  0  0  0  0  0  0  0
    1.7659    0.7475    0.0000 N   0  0  0  0  0  0  0  0  0  0  0  0
   -1.1592    0.7909    0.0000 C   0  0  0  0  0  0  0  0  0  0  0  0
   -2.5676    0.8125    0.0000 C   0  0  0  0  0  0  0  0  0  0  0  0
   -0.4225    1.1592    0.0000 C   0  0  0  0  0  0  0  0  0  0  0  0
   -2.6109   -0.0108    0.0000 C   0  0  0  0  0  0  0  0  0  0  0  0
   -1.8742    1.2025    0.0000 C   0  0  0  0  0  0  0  0  0  0  0  0
   -0.3792    2.0042    0.0000 C   0  0  0  0  0  0  0  0  0  0  0  0
   -1.1808   -0.0758    0.0000 C   0  0  0  0  0  0  0  0  0  0  0  0
    0.3141    0.7475    0.0000 C   0  0  0  0  0  0  0  0  0  0  0  0
    1.0292    1.1592    0.0000 C   0  0  0  0  0  0  0  0  0  0  0  0
    3.1959    0.7475    0.0000 C   0  0  0  0  0  0  0  0  0  0  0  0
    2.4592    1.1375    0.0000 C   0  0  0  0  0  0  0  0  0  0  0  0
    3.9109   -0.4875    0.0000 C   0  0  0  0  0  0  0  0  0  0  0  0
    1.0509    1.9825    0.0000 C   0  0  0  0  0  0  0  0  0  0  0  0
    3.9109   -1.3325    0.0000 C   0  0  0  0  0  0  0  0  0  0  0  0
   -3.2609    2.0475    0.0000 C   0  0  0  0  0  0  0  0  0  0  0  0
   -3.9759    0.8342    0.0000 C   0  0  0  0  0  0  0  0  0  0  0  0
    3.2176   -0.0975    0.0000 C   0  0  0  0  0  0  0  0  0  0  0  0
    3.8892    1.1375    0.0000 C   0  0  0  0  0  0  0  0  0  0  0  0
   -3.3475   -1.2459    0.0000 C   0  0  3  0  0  0  0  0  0  0  0  0
    4.6042   -0.0758    0.0000 C   0  0  0  0  0  0  0  0  0  0  0  0
   -1.1158    2.3942    0.0000 C   0  0  0  0  0  0  0  0  0  0  0  0
    4.6042    0.7258    0.0000 C   0  0  0  0  0  0  0  0  0  0  0  0
   -3.9759    2.4808    0.0000 C   0  0  0  0  0  0  0  0  0  0  0  0
   -4.7125    1.2675    0.0000 C   0  0  0  0  0  0  0  0  0  0  0  0
   -4.0408   -1.6358    0.0000 C   0  0  0  0  0  0  0  0  0  0  0  0
   -2.6542   -1.6792    0.0000 C   0  0  0  0  0  0  0  0  0  0  0  0
  1 25  1  0  0  0  0
  2 25  1  0  0  0  0
  3 25  1  0  0  0  0
  4 15  1  0  0  0  0
  4 30  1  0  0  0  0
  5 34  1  0  0  0  0
  5 35  1  0  0  0  0
  6 22  2  0  0  0  0
  7 36  1  0  0  0  0
  8 13  1  0  0  0  0
  8 26  1  0  0  0  0
  8 27  1  0  0  0  0
  9 15  1  0  0  0  0
  9 18  2  0  0  0  0
 10 17  1  0  0  0  0
 10 24  2  0  0  0  0
 11 20  1  0  0  0  0
 11 22  1  0  0  0  0
 12 14  1  0  0  0  0
 12 16  2  0  0  0  0
 12 18  1  0  0  0  0
 13 15  2  0  0  0  0
 13 16  1  0  0  0  0
 14 17  2  0  0  0  0
 14 19  1  0  0  0  0
 17 32  1  0  0  0  0
 19 20  2  0  0  0  0
 20 24  1  0  0  0  0
 21 22  1  0  0  0  0
 21 28  2  0  0  0  0
 21 29  1  0  0  0  0
 23 25  1  0  0  0  0
 23 28  1  0  0  0  0
 23 31  2  0  0  0  0
 26 34  1  0  0  0  0
 27 35  1  0  0  0  0
 29 33  2  0  0  0  0
 30 36  1  0  0  0  0
 30 37  1  6  0  0  0
 31 33  1  0  0  0  0
M  END
> <PUBCHEM_COMPOUND_ID_TYPE>
0

> <PUBCHEM_TOTAL_CHARGE>
0

> <PUBCHEM_SUBSTANCE_ID>
310943391

> <PUBCHEM_SUBSTANCE_VERSION>
1

> <PUBCHEM_EXT_DATASOURCE_NAME>
4488

> <PUBCHEM_EXT_DATASOURCE_REGID>
SCHEMBL16121454

> <PUBCHEM_SUBSTANCE_COMMENT>
InChI=1S/C26H27F3N4O4/c1-16(15-34)37-25-23(33-6-8-36-9-7-33)11-19(13-31-25)22-12-21(14-30-17(22)2)32-24(35)18-4-3-5-20(10-18)26(27,28)29/h3-5,10-14,16,34H,6-9,15H2,1-2H3,(H,32,35)/t16-/m1/s1
InChIKey=BALNMMOLSVQPFQ-MRXNPFEDSA-N

> <PUBCHEM_SUBSTANCE_SYNONYM>
SCHEMBL16121454

> <PUBCHEM_XREF_EXT_ID>
SCHEMBL16121454

> <PUBCHEM_EXT_DATASOURCE_URL>
https://www.surechembl.org/

> <PUBCHEM_EXT_SUBSTANCE_URL>
https://www.surechembl.org/chemical/SCHEMBL16121454

> <PUBCHEM_CID_ASSOCIATIONS>
117609815  1

> <PUBCHEM_COORDINATE_TYPE>
1
3

> <PUBCHEM_BONDANNOTATIONS>
30  37  6

$$$$
