310948701
  -OEChem-07211613022D

 11 11  0     0  0  0  0  0  0999 V2000
   -0.6201    0.5324    0.0000 N   0  0  0  0  0  0  0  0  0  0  0  0
    0.0062   -0.8705    0.0000 N   0  0  0  0  0  0  0  0  0  0  0  0
    1.4467   -0.0313    0.0000 N   0  0  0  0  0  0  0  0  0  0  0  0
   -0.0062   -0.0188    0.0000 C   0  0  0  0  0  0  0  0  0  0  0  0
    0.7202    0.3945    0.0000 C   0  0  0  0  0  0  0  0  0  0  0  0
    0.5448    1.1961    0.0000 C   0  0  0  0  0  0  0  0  0  0  0  0
   -0.2693    1.2838    0.0000 C   0  0  0  0  0  0  0  0  0  0  0  0
   -1.4467    0.5198    0.0000 C   0  0  0  0  0  0  0  0  0  0  0  0
    0.7202   -1.2838    0.0000 C   0  0  0  0  0  0  0  0  0  0  0  0
    1.4467   -0.8705    0.0000 C   0  0  0  0  0  0  0  0  0  0  0  0
    1.3966   -0.2819    0.0000 C   0  0  0  0  0  0  0  0  0  0  0  0
  1  4  1  0  0  0  0
  1  7  1  0  0  0  0
  1  8  1  0  0  0  0
  2  4  1  0  0  0  0
  2  9  2  0  0  0  0
  3  5  1  0  0  0  0
  4  5  2  0  0  0  0
  5  6  1  0  0  0  0
  6  7  2  0  0  0  0
  9 10  1  0  0  0  0
 10 11  2  0  0  0  0
M  END
> <PUBCHEM_COMPOUND_ID_TYPE>
0

> <PUBCHEM_TOTAL_CHARGE>
0

> <PUBCHEM_SUBSTANCE_ID>
310948701

> <PUBCHEM_SUBSTANCE_VERSION>
1

> <PUBCHEM_EXT_DATASOURCE_NAME>
4488

> <PUBCHEM_EXT_DATASOURCE_REGID>
SCHEMBL16126885

> <PUBCHEM_SUBSTANCE_COMMENT>
InChI=1S/C8H11N3/c1-3-5-10-8-7(9)4-6-11(8)2/h3-6H,1,9H2,2H3/b10-5-
InChIKey=ZQEQWWUZGJXBDQ-YHYXMXQVSA-N

> <PUBCHEM_SUBSTANCE_SYNONYM>
SCHEMBL16126885

> <PUBCHEM_XREF_EXT_ID>
SCHEMBL16126885

> <PUBCHEM_EXT_DATASOURCE_URL>
https://www.surechembl.org/

> <PUBCHEM_EXT_SUBSTANCE_URL>
https://www.surechembl.org/chemical/SCHEMBL16126885

> <PUBCHEM_CID_ASSOCIATIONS>
117614242  1

> <PUBCHEM_COORDINATE_TYPE>
1
3

$$$$
