310946300
  -OEChem-07211613022D

 32 34  0     1  0  0  0  0  0999 V2000
   -2.3449  -17.1448    0.0000 I   0  0  0  0  0  0  0  0  0  0  0  0
   -0.9160  -14.6698    0.0000 I   0  0  0  0  0  0  0  0  0  0  0  0
    1.9418  -15.4948    0.0000 S   0  0  0  0  0  0  0  0  0  0  0  0
   -2.3449  -15.4948    0.0000 O   0  0  0  0  0  0  0  0  0  0  0  0
    1.5293  -14.7804    0.0000 O   0  0  0  0  0  0  0  0  0  0  0  0
    2.3543  -16.2093    0.0000 O   0  0  0  0  0  0  0  0  0  0  0  0
    4.7996  -13.8449    0.0000 O   0  0  0  0  0  0  0  0  0  0  0  0
    2.6562  -16.7322    0.0000 O   0  0  0  0  0  0  0  0  0  0  0  0
   -5.2027  -17.1448    0.0000 O   0  0  0  0  0  0  0  0  0  0  0  0
    1.2274  -15.9073    0.0000 N   0  0  0  0  0  0  0  0  0  0  0  0
   -1.6305  -15.9073    0.0000 C   0  0  0  0  0  0  0  0  0  0  0  0
    2.6562  -15.0824    0.0000 C   0  0  0  0  0  0  0  0  0  0  0  0
   -0.2016  -16.7322    0.0000 C   0  0  0  0  0  0  0  0  0  0  0  0
   -1.6305  -16.7322    0.0000 C   0  0  0  0  0  0  0  0  0  0  0  0
   -0.9160  -15.4948    0.0000 C   0  0  0  0  0  0  0  0  0  0  0  0
    1.2274  -16.7322    0.0000 C   0  0  3  0  0  0  0  0  0  0  0  0
   -0.9160  -17.1448    0.0000 C   0  0  0  0  0  0  0  0  0  0  0  0
   -0.2016  -15.9073    0.0000 C   0  0  0  0  0  0  0  0  0  0  0  0
    0.5129  -17.1448    0.0000 C   0  0  0  0  0  0  0  0  0  0  0  0
    3.3707  -15.4948    0.0000 C   0  0  0  0  0  0  0  0  0  0  0  0
    2.6562  -14.2573    0.0000 C   0  0  0  0  0  0  0  0  0  0  0  0
   -3.0593  -15.9073    0.0000 C   0  0  0  0  0  0  0  0  0  0  0  0
    4.0851  -14.2573    0.0000 C   0  0  0  0  0  0  0  0  0  0  0  0
    4.0851  -15.0824    0.0000 C   0  0  0  0  0  0  0  0  0  0  0  0
    3.3707  -13.8449    0.0000 C   0  0  0  0  0  0  0  0  0  0  0  0
    1.9418  -17.1448    0.0000 C   0  0  0  0  0  0  0  0  0  0  0  0
   -3.7737  -15.4948    0.0000 C   0  0  0  0  0  0  0  0  0  0  0  0
   -3.0593  -16.7322    0.0000 C   0  0  0  0  0  0  0  0  0  0  0  0
   -4.4883  -16.7322    0.0000 C   0  0  0  0  0  0  0  0  0  0  0  0
   -4.4883  -15.9073    0.0000 C   0  0  0  0  0  0  0  0  0  0  0  0
   -3.7737  -17.1448    0.0000 C   0  0  0  0  0  0  0  0  0  0  0  0
    5.5141  -14.2573    0.0000 C   0  0  0  0  0  0  0  0  0  0  0  0
  1 14  1  0  0  0  0
  2 15  1  0  0  0  0
  3  5  2  0  0  0  0
  3  6  2  0  0  0  0
  3 10  1  0  0  0  0
  3 12  1  0  0  0  0
  4 11  1  0  0  0  0
  4 22  1  0  0  0  0
  7 23  1  0  0  0  0
  7 32  1  0  0  0  0
  8 26  1  0  0  0  0
  9 29  1  0  0  0  0
 16 10  1  6  0  0  0
 11 14  2  0  0  0  0
 11 15  1  0  0  0  0
 12 20  2  0  0  0  0
 12 21  1  0  0  0  0
 13 17  2  0  0  0  0
 13 18  1  0  0  0  0
 13 19  1  0  0  0  0
 14 17  1  0  0  0  0
 15 18  2  0  0  0  0
 16 19  1  0  0  0  0
 16 26  1  0  0  0  0
 20 24  1  0  0  0  0
 21 25  2  0  0  0  0
 22 27  2  0  0  0  0
 22 28  1  0  0  0  0
 23 24  2  0  0  0  0
 23 25  1  0  0  0  0
 27 30  1  0  0  0  0
 28 31  2  0  0  0  0
 29 30  2  0  0  0  0
 29 31  1  0  0  0  0
M  END
> <PUBCHEM_COMPOUND_ID_TYPE>
0

> <PUBCHEM_TOTAL_CHARGE>
0

> <PUBCHEM_SUBSTANCE_ID>
310946300

> <PUBCHEM_SUBSTANCE_VERSION>
1

> <PUBCHEM_EXT_DATASOURCE_NAME>
4488

> <PUBCHEM_EXT_DATASOURCE_REGID>
SCHEMBL16124419

> <PUBCHEM_SUBSTANCE_COMMENT>
InChI=1S/C22H21I2NO6S/c1-30-17-6-8-19(9-7-17)32(28,29)25-15(13-26)10-14-11-20(23)22(21(24)12-14)31-18-4-2-16(27)3-5-18/h2-9,11-12,15,25-27H,10,13H2,1H3/t15-/m0/s1
InChIKey=LWMQDQQVNSOABF-HNNXBMFYSA-N

> <PUBCHEM_SUBSTANCE_SYNONYM>
SCHEMBL16124419

> <PUBCHEM_XREF_EXT_ID>
SCHEMBL16124419

> <PUBCHEM_EXT_DATASOURCE_URL>
https://www.surechembl.org/

> <PUBCHEM_EXT_SUBSTANCE_URL>
https://www.surechembl.org/chemical/SCHEMBL16124419

> <PUBCHEM_CID_ASSOCIATIONS>
117612244  1

> <PUBCHEM_COORDINATE_TYPE>
1
3

> <PUBCHEM_BONDANNOTATIONS>
16  10  6

$$$$
