310936058
  -OEChem-07211613022D

 29 28  0     1  0  0  0  0  0999 V2000
   16.5217    3.7638    0.0000 S   0  0  0  0  0  0  0  0  0  0  0  0
   16.5217    6.2388    0.0000 O   0  0  0  0  0  0  0  0  0  0  0  0
   12.9493    6.6513    0.0000 O   0  0  0  0  0  0  0  0  0  0  0  0
   11.5204    6.6513    0.0000 O   0  0  0  0  0  0  0  0  0  0  0  0
   14.3783    4.1763    0.0000 O   0  0  0  0  0  0  0  0  0  0  0  0
   10.8059    6.2388    0.0000 O   0  0  0  0  0  0  0  0  0  0  0  0
   10.0914    4.1763    0.0000 O   0  0  0  0  0  0  0  0  0  0  0  0
   19.3796    5.4138    0.0000 O   0  0  0  0  0  0  0  0  0  0  0  0
   18.6651    4.1763    0.0000 O   0  0  0  0  0  0  0  0  0  0  0  0
   11.5204    5.0013    0.0000 N   0  0  0  0  0  0  0  0  0  0  0  0
   15.0927    5.4138    0.0000 N   0  0  0  0  0  0  0  0  0  0  0  0
   10.0914    5.0013    0.0000 N   0  0  0  0  0  0  0  0  0  0  0  0
   17.2362    5.0013    0.0000 N   0  0  0  0  0  0  0  0  0  0  0  0
   12.2349    5.4138    0.0000 C   0  0  3  0  0  0  0  0  0  0  0  0
   15.8072    5.0013    0.0000 C   0  0  3  0  0  0  0  0  0  0  0  0
   16.5217    5.4138    0.0000 C   0  0  0  0  0  0  0  0  0  0  0  0
   12.2349    6.2388    0.0000 C   0  0  0  0  0  0  0  0  0  0  0  0
   12.9493    5.0013    0.0000 C   0  0  0  0  0  0  0  0  0  0  0  0
   14.3783    5.0013    0.0000 C   0  0  0  0  0  0  0  0  0  0  0  0
   10.8059    5.4138    0.0000 C   0  0  0  0  0  0  0  0  0  0  0  0
   13.6638    5.4138    0.0000 C   0  0  0  0  0  0  0  0  0  0  0  0
   15.8072    4.1763    0.0000 C   0  0  0  0  0  0  0  0  0  0  0  0
   17.9506    5.4138    0.0000 C   0  0  0  0  0  0  0  0  0  0  0  0
    9.3770    5.4138    0.0000 C   0  0  0  0  0  0  0  0  0  0  0  0
   18.6651    5.0013    0.0000 C   0  0  0  0  0  0  0  0  0  0  0  0
    8.6625    5.0013    0.0000 C   0  0  0  0  0  0  0  0  0  0  0  0
    7.9480    5.4138    0.0000 C   0  0  0  0  0  0  0  0  0  0  0  0
   11.5204    5.8263    0.0000 H   0  0  0  0  0  0  0  0  0  0  0  0
   15.0927    4.5888    0.0000 H   0  0  0  0  0  0  0  0  0  0  0  0
  1 22  1  0  0  0  0
  2 16  2  0  0  0  0
  3 17  2  0  0  0  0
  4 17  1  0  0  0  0
  5 19  2  0  0  0  0
  6 20  2  0  0  0  0
  7 12  1  0  0  0  0
  8 25  2  0  0  0  0
  9 25  1  0  0  0  0
 10 14  1  0  0  0  0
 10 20  1  0  0  0  0
 15 11  1  6  0  0  0
 11 19  1  0  0  0  0
 12 20  1  0  0  0  0
 12 24  1  0  0  0  0
 13 16  1  0  0  0  0
 13 23  1  0  0  0  0
 14 17  1  0  0  0  0
 14 18  1  0  0  0  0
 14 28  1  1  0  0  0
 15 16  1  0  0  0  0
 15 22  1  0  0  0  0
 15 29  1  1  0  0  0
 18 21  1  0  0  0  0
 19 21  1  0  0  0  0
 23 25  1  0  0  0  0
 24 26  1  0  0  0  0
 26 27  2  0  0  0  0
M  END
> <PUBCHEM_COMPOUND_ID_TYPE>
0

> <PUBCHEM_TOTAL_CHARGE>
0

> <PUBCHEM_SUBSTANCE_ID>
310936058

> <PUBCHEM_SUBSTANCE_VERSION>
1

> <PUBCHEM_EXT_DATASOURCE_NAME>
4488

> <PUBCHEM_EXT_DATASOURCE_REGID>
SCHEMBL16113664

> <PUBCHEM_SUBSTANCE_COMMENT>
InChI=1S/C14H22N4O8S/c1-2-5-18(26)14(25)17-8(13(23)24)3-4-10(19)16-9(7-27)12(22)15-6-11(20)21/h2,8-9,26-27H,1,3-7H2,(H,15,22)(H,16,19)(H,17,25)(H,20,21)(H,23,24)/t8-,9-/m0/s1
InChIKey=HOMPMAPBEOVQNY-IUCAKERBSA-N

> <PUBCHEM_SUBSTANCE_SYNONYM>
SCHEMBL16113664

> <PUBCHEM_XREF_EXT_ID>
SCHEMBL16113664

> <PUBCHEM_EXT_DATASOURCE_URL>
https://www.surechembl.org/

> <PUBCHEM_EXT_SUBSTANCE_URL>
https://www.surechembl.org/chemical/SCHEMBL16113664

> <PUBCHEM_CID_ASSOCIATIONS>
117604023  1

> <PUBCHEM_COORDINATE_TYPE>
1
3

> <PUBCHEM_BONDANNOTATIONS>
15  11  6
14  28  5
15  29  5

$$$$
