310930802
  -OEChem-07211613022D

 32 35  0     0  0  0  0  0  0999 V2000
    0.8959   -2.6877    0.0000 O   0  0  0  0  0  0  0  0  0  0  0  0
    0.0000   -6.4147    0.0000 O   0  0  0  0  0  0  0  0  0  0  0  0
    3.4403   -6.7014    0.0000 O   0  0  0  0  0  0  0  0  0  0  0  0
    2.3652   -2.4727    0.0000 N   0  0  0  0  0  0  0  0  0  0  0  0
    2.7594   -3.7628    0.0000 N   0  0  0  0  0  0  0  0  0  0  0  0
    3.7987   -2.6877    0.0000 N   0  0  0  0  0  0  0  0  0  0  0  0
    1.9352   -3.7628    0.0000 C   0  0  0  0  0  0  0  0  0  0  0  0
    1.6843   -2.9744    0.0000 C   0  0  0  0  0  0  0  0  0  0  0  0
    1.4693   -4.4079    0.0000 C   0  0  0  0  0  0  0  0  0  0  0  0
    2.3294   -4.4795    0.0000 C   0  0  0  0  0  0  0  0  0  0  0  0
    3.0102   -2.9744    0.0000 C   0  0  0  0  0  0  0  0  0  0  0  0
    2.3652   -1.6485    0.0000 C   0  0  0  0  0  0  0  0  0  0  0  0
    1.7918   -5.1605    0.0000 C   0  0  0  0  0  0  0  0  0  0  0  0
    3.1536   -4.5154    0.0000 C   0  0  0  0  0  0  0  0  0  0  0  0
    0.6451   -4.3362    0.0000 C   0  0  0  0  0  0  0  0  0  0  0  0
    2.0427   -5.3396    0.0000 C   0  0  0  0  0  0  0  0  0  0  0  0
    1.6485   -1.2184    0.0000 C   0  0  0  0  0  0  0  0  0  0  0  0
    1.3259   -5.8414    0.0000 C   0  0  0  0  0  0  0  0  0  0  0  0
    3.5120   -5.2680    0.0000 C   0  0  0  0  0  0  0  0  0  0  0  0
    0.1434   -5.0171    0.0000 C   0  0  0  0  0  0  0  0  0  0  0  0
    2.2577   -5.9130    0.0000 C   0  0  0  0  0  0  0  0  0  0  0  0
    0.5017   -5.7339    0.0000 C   0  0  0  0  0  0  0  0  0  0  0  0
    3.0461   -5.9489    0.0000 C   0  0  0  0  0  0  0  0  0  0  0  0
    1.6126   -0.4301    0.0000 C   0  0  0  0  0  0  0  0  0  0  0  0
    0.8959   -1.6485    0.0000 C   0  0  0  0  0  0  0  0  0  0  0  0
    0.9317    0.0000    0.0000 C   0  0  0  0  0  0  0  0  0  0  0  0
    0.2150   -1.2184    0.0000 C   0  0  0  0  0  0  0  0  0  0  0  0
    0.2150   -0.3942    0.0000 C   0  0  0  0  0  0  0  0  0  0  0  0
    2.3294    0.0000    0.0000 C   0  0  0  0  0  0  0  0  0  0  0  0
    0.8959   -2.4727    0.0000 C   0  0  0  0  0  0  0  0  0  0  0  0
    0.3225   -7.1673    0.0000 C   0  0  0  0  0  0  0  0  0  0  0  0
    4.2645   -6.7372    0.0000 C   0  0  0  0  0  0  0  0  0  0  0  0
  1  8  2  0  0  0  0
  2 22  1  0  0  0  0
  2 31  1  0  0  0  0
  3 23  1  0  0  0  0
  3 32  1  0  0  0  0
  4  8  1  0  0  0  0
  4 11  1  0  0  0  0
  4 12  1  0  0  0  0
  5  7  1  0  0  0  0
  5 11  1  0  0  0  0
  6 11  2  3  0  0  0
  7  8  1  0  0  0  0
  7  9  1  0  0  0  0
  7 10  1  0  0  0  0
  9 13  2  0  0  0  0
  9 15  1  0  0  0  0
 10 14  2  0  0  0  0
 10 16  1  0  0  0  0
 12 17  1  0  0  0  0
 13 18  1  0  0  0  0
 14 19  1  0  0  0  0
 15 20  2  0  0  0  0
 16 21  2  0  0  0  0
 17 24  1  0  0  0  0
 17 25  2  0  0  0  0
 18 22  2  0  0  0  0
 19 23  2  0  0  0  0
 20 22  1  0  0  0  0
 21 23  1  0  0  0  0
 24 26  2  0  0  0  0
 24 29  1  0  0  0  0
 25 27  1  0  0  0  0
 25 30  1  0  0  0  0
 26 28  1  0  0  0  0
 27 28  2  0  0  0  0
M  END
> <PUBCHEM_COMPOUND_ID_TYPE>
0

> <PUBCHEM_TOTAL_CHARGE>
0

> <PUBCHEM_SUBSTANCE_ID>
310930802

> <PUBCHEM_SUBSTANCE_VERSION>
1

> <PUBCHEM_EXT_DATASOURCE_NAME>
4488

> <PUBCHEM_EXT_DATASOURCE_REGID>
SCHEMBL16108099

> <PUBCHEM_SUBSTANCE_COMMENT>
InChI=1S/C26H27N3O3/c1-17-6-5-7-18(2)23(17)16-29-24(30)26(28-25(29)27,19-8-12-21(31-3)13-9-19)20-10-14-22(32-4)15-11-20/h5-15H,16H2,1-4H3,(H2,27,28)
InChIKey=DUHIAUWGTFTIDJ-UHFFFAOYSA-N

> <PUBCHEM_SUBSTANCE_SYNONYM>
SCHEMBL16108099

> <PUBCHEM_XREF_EXT_ID>
SCHEMBL16108099

> <PUBCHEM_EXT_DATASOURCE_URL>
https://www.surechembl.org/

> <PUBCHEM_EXT_SUBSTANCE_URL>
https://www.surechembl.org/chemical/SCHEMBL16108099

> <PUBCHEM_CID_ASSOCIATIONS>
86275287  1

> <PUBCHEM_COORDINATE_TYPE>
1
3

$$$$
