310940555
  -OEChem-07211613022D

 33 37  0     1  0  0  0  0  0999 V2000
    2.2875   -0.2004    0.0000 O   0  0  0  0  0  0  0  0  0  0  0  0
    2.3290    1.2924    0.0000 O   0  0  0  0  0  0  0  0  0  0  0  0
   -1.9006   -0.4216    0.0000 O   0  0  0  0  0  0  0  0  0  0  0  0
   -3.1446   -2.3566    0.0000 O   0  0  0  0  0  0  0  0  0  0  0  0
    3.1446   -1.5412    0.0000 O   0  0  0  0  0  0  0  0  0  0  0  0
    1.1126    0.4354    0.0000 N   0  0  0  0  0  0  0  0  0  0  0  0
    1.0159   -2.0112    0.0000 N   0  0  0  0  0  0  0  0  0  0  0  0
   -2.7713   -3.0892    0.0000 N   0  0  0  0  0  0  0  0  0  0  0  0
    0.9606   -0.2972    0.0000 C   0  0  0  0  0  0  0  0  0  0  0  0
    0.2557   -0.7394    0.0000 C   0  0  0  0  0  0  0  0  0  0  0  0
    1.6932   -0.7118    0.0000 C   0  0  0  0  0  0  0  0  0  0  0  0
    0.2419   -1.5136    0.0000 C   0  0  0  0  0  0  0  0  0  0  0  0
    1.6932   -1.4997    0.0000 C   0  0  0  0  0  0  0  0  0  0  0  0
    1.9282    0.6151    0.0000 C   0  0  0  0  0  0  0  0  0  0  0  0
   -1.1956   -1.6241    0.0000 C   0  0  0  0  0  0  0  0  0  0  0  0
   -0.4769   -0.3248    0.0000 C   0  0  0  0  0  0  0  0  0  0  0  0
   -1.1818   -0.7533    0.0000 C   0  0  0  0  0  0  0  0  0  0  0  0
    0.4492    0.9882    0.0000 C   0  0  3  0  0  0  0  0  0  0  0  0
   -0.4354   -1.9558    0.0000 C   0  0  0  0  0  0  0  0  0  0  0  0
   -1.8868   -1.9835    0.0000 C   0  0  0  0  0  0  0  0  0  0  0  0
    0.4492    1.7762    0.0000 C   0  0  0  0  0  0  0  0  0  0  0  0
   -2.6746   -1.7070    0.0000 C   0  0  0  0  0  0  0  0  0  0  0  0
   -1.9420   -2.8542    0.0000 C   0  0  0  0  0  0  0  0  0  0  0  0
    2.3981   -1.9282    0.0000 C   0  0  0  0  0  0  0  0  0  0  0  0
   -0.2557    0.5736    0.0000 C   0  0  0  0  0  0  0  0  0  0  0  0
    1.2094    2.1631    0.0000 C   0  0  0  0  0  0  0  0  0  0  0  0
   -0.2280    2.2599    0.0000 C   0  0  0  0  0  0  0  0  0  0  0  0
   -2.8819   -0.8915    0.0000 C   0  0  0  0  0  0  0  0  0  0  0  0
   -1.3476   -3.4072    0.0000 C   0  0  0  0  0  0  0  0  0  0  0  0
   -1.9144    0.4630    0.0000 C   0  0  0  0  0  0  0  0  0  0  0  0
    1.2509    3.0063    0.0000 C   0  0  0  0  0  0  0  0  0  0  0  0
   -0.1590    3.0616    0.0000 C   0  0  0  0  0  0  0  0  0  0  0  0
    0.5460    3.4072    0.0000 C   0  0  0  0  0  0  0  0  0  0  0  0
  1 11  1  0  0  0  0
  1 14  1  0  0  0  0
  2 14  2  0  0  0  0
  3 17  1  0  0  0  0
  3 30  1  0  0  0  0
  4  8  1  0  0  0  0
  4 22  1  0  0  0  0
  5 24  2  0  0  0  0
  6  9  1  0  0  0  0
  6 14  1  0  0  0  0
  6 18  1  0  0  0  0
  7 12  1  0  0  0  0
  7 13  2  0  0  0  0
  8 23  2  0  0  0  0
  9 10  1  0  0  0  0
  9 11  2  0  0  0  0
 10 12  1  0  0  0  0
 10 16  2  0  0  0  0
 11 13  1  0  0  0  0
 12 19  2  0  0  0  0
 13 24  1  0  0  0  0
 15 17  2  0  0  0  0
 15 19  1  0  0  0  0
 15 20  1  0  0  0  0
 16 17  1  0  0  0  0
 18 21  1  0  0  0  0
 18 25  1  6  0  0  0
 20 22  2  0  0  0  0
 20 23  1  0  0  0  0
 21 26  2  0  0  0  0
 21 27  1  0  0  0  0
 22 28  1  0  0  0  0
 23 29  1  0  0  0  0
 26 31  1  0  0  0  0
 27 32  2  0  0  0  0
 31 33  2  0  0  0  0
 32 33  1  0  0  0  0
M  END
> <PUBCHEM_COMPOUND_ID_TYPE>
0

> <PUBCHEM_TOTAL_CHARGE>
0

> <PUBCHEM_SUBSTANCE_ID>
310940555

> <PUBCHEM_SUBSTANCE_VERSION>
1

> <PUBCHEM_EXT_DATASOURCE_NAME>
4488

> <PUBCHEM_EXT_DATASOURCE_REGID>
SCHEMBL16118509

> <PUBCHEM_SUBSTANCE_COMMENT>
InChI=1S/C25H21N3O5/c1-13-22(15(3)33-27-13)18-10-19-17(11-21(18)31-4)23-24(20(12-29)26-19)32-25(30)28(23)14(2)16-8-6-5-7-9-16/h5-12,14H,1-4H3/t14-/m1/s1
InChIKey=WPYVIBYKRNARMC-CQSZACIVSA-N

> <PUBCHEM_SUBSTANCE_SYNONYM>
SCHEMBL16118509

> <PUBCHEM_XREF_EXT_ID>
SCHEMBL16118509

> <PUBCHEM_EXT_DATASOURCE_URL>
https://www.surechembl.org/

> <PUBCHEM_EXT_SUBSTANCE_URL>
https://www.surechembl.org/chemical/SCHEMBL16118509

> <PUBCHEM_CID_ASSOCIATIONS>
117607553  1

> <PUBCHEM_COORDINATE_TYPE>
1
3

> <PUBCHEM_BONDANNOTATIONS>
18  25  6

$$$$
