310938210
  -OEChem-07211613022D

 35 37  0     1  0  0  0  0  0999 V2000
    2.4743   -3.7710    0.0000 O   0  0  0  0  0  0  0  0  0  0  0  0
    1.8773   -1.4160    0.0000 O   0  0  0  0  0  0  0  0  0  0  0  0
    1.5182   -4.8330    0.0000 O   0  0  0  0  0  0  0  0  0  0  0  0
    7.5931   -1.4160    0.0000 O   0  0  0  0  0  0  0  0  0  0  0  0
    6.1641    1.0589    0.0000 O   0  0  0  0  0  0  0  0  0  0  0  0
    1.1629   -2.6535    0.0000 N   0  0  0  0  0  0  0  0  0  0  0  0
    3.3063   -2.2410    0.0000 N   0  0  0  0  0  0  0  0  0  0  0  0
    4.7352   -1.4160    0.0000 N   0  0  0  0  0  0  0  0  0  0  0  0
    5.4497   -0.1786    0.0000 N   0  0  0  0  0  0  0  0  0  0  0  0
    6.1641   -1.4160    0.0000 N   0  0  0  0  0  0  0  0  0  0  0  0
    6.8786   -0.1786    0.0000 N   0  0  0  0  0  0  0  0  0  0  0  0
    0.4092   -2.3179    0.0000 C   0  0  0  0  0  0  0  0  0  0  0  0
    1.0766   -3.4740    0.0000 C   0  0  3  0  0  0  0  0  0  0  0  0
   -0.1428   -2.9310    0.0000 C   0  0  0  0  0  0  0  0  0  0  0  0
    0.2697   -3.6455    0.0000 C   0  0  0  0  0  0  0  0  0  0  0  0
    1.8773   -2.2410    0.0000 C   0  0  0  0  0  0  0  0  0  0  0  0
    1.6897   -4.0260    0.0000 C   0  0  0  0  0  0  0  0  0  0  0  0
    0.1543   -1.5333    0.0000 C   0  0  0  0  0  0  0  0  0  0  0  0
   -0.9498   -2.7595    0.0000 C   0  0  0  0  0  0  0  0  0  0  0  0
    2.5918   -2.6535    0.0000 C   0  0  0  0  0  0  0  0  0  0  0  0
   -0.6527   -1.3618    0.0000 C   0  0  0  0  0  0  0  0  0  0  0  0
   -1.2047   -1.9749    0.0000 C   0  0  0  0  0  0  0  0  0  0  0  0
    5.4497   -1.0035    0.0000 C   0  0  0  0  0  0  0  0  0  0  0  0
    4.7352   -2.2410    0.0000 C   0  0  3  0  0  0  0  0  0  0  0  0
    6.8786   -1.0035    0.0000 C   0  0  0  0  0  0  0  0  0  0  0  0
    6.1641    0.2339    0.0000 C   0  0  0  0  0  0  0  0  0  0  0  0
    4.0207   -2.6535    0.0000 C   0  0  0  0  0  0  0  0  0  0  0  0
    5.4497   -2.6535    0.0000 C   0  0  3  0  0  0  0  0  0  0  0  0
    3.0874   -4.3231    0.0000 C   0  0  0  0  0  0  0  0  0  0  0  0
    6.1641   -2.2410    0.0000 C   0  0  0  0  0  0  0  0  0  0  0  0
    5.4497   -3.4785    0.0000 C   0  0  0  0  0  0  0  0  0  0  0  0
    3.8721   -4.0682    0.0000 C   0  0  0  0  0  0  0  0  0  0  0  0
    8.3075   -1.0035    0.0000 C   0  0  0  0  0  0  0  0  0  0  0  0
    6.8786    1.4714    0.0000 C   0  0  0  0  0  0  0  0  0  0  0  0
    6.8786   -2.6535    0.0000 C   0  0  0  0  0  0  0  0  0  0  0  0
  1 17  1  0  0  0  0
  1 29  1  0  0  0  0
  2 16  2  0  0  0  0
  3 17  2  0  0  0  0
  4 25  1  0  0  0  0
  4 33  1  0  0  0  0
  5 26  1  0  0  0  0
  5 34  1  0  0  0  0
  6 12  1  0  0  0  0
  6 13  1  0  0  0  0
  6 16  1  0  0  0  0
  7 20  1  0  0  0  0
  7 27  1  0  0  0  0
  8 23  1  0  0  0  0
 24  8  1  1  0  0  0
  9 23  2  0  0  0  0
  9 26  1  0  0  0  0
 10 23  1  0  0  0  0
 10 25  2  0  0  0  0
 11 25  1  0  0  0  0
 11 26  2  0  0  0  0
 12 14  2  0  0  0  0
 12 18  1  0  0  0  0
 13 15  1  0  0  0  0
 13 17  1  6  0  0  0
 14 15  1  0  0  0  0
 14 19  1  0  0  0  0
 16 20  1  0  0  0  0
 18 21  2  0  0  0  0
 19 22  2  0  0  0  0
 21 22  1  0  0  0  0
 24 27  1  0  0  0  0
 24 28  1  0  0  0  0
 28 30  1  0  0  0  0
 28 31  1  6  0  0  0
 29 32  1  0  0  0  0
 30 35  1  0  0  0  0
M  END
> <PUBCHEM_COMPOUND_ID_TYPE>
0

> <PUBCHEM_TOTAL_CHARGE>
0

> <PUBCHEM_SUBSTANCE_ID>
310938210

> <PUBCHEM_SUBSTANCE_VERSION>
1

> <PUBCHEM_EXT_DATASOURCE_NAME>
4488

> <PUBCHEM_EXT_DATASOURCE_REGID>
SCHEMBL16116067

> <PUBCHEM_SUBSTANCE_COMMENT>
InChI=1S/C24H34N6O5/c1-6-15(3)17(26-22-27-23(33-4)29-24(28-22)34-5)13-25-14-20(31)30-18-11-9-8-10-16(18)12-19(30)21(32)35-7-2/h8-11,15,17,19,25H,6-7,12-14H2,1-5H3,(H,26,27,28,29)/t15-,17+,19-/m0/s1
InChIKey=ZZYZHLJFPLCXCX-WDYCEAGBSA-N

> <PUBCHEM_SUBSTANCE_SYNONYM>
SCHEMBL16116067

> <PUBCHEM_XREF_EXT_ID>
SCHEMBL16116067

> <PUBCHEM_EXT_DATASOURCE_URL>
https://www.surechembl.org/

> <PUBCHEM_EXT_SUBSTANCE_URL>
https://www.surechembl.org/chemical/SCHEMBL16116067

> <PUBCHEM_CID_ASSOCIATIONS>
117605737  1

> <PUBCHEM_COORDINATE_TYPE>
1
3

> <PUBCHEM_BONDANNOTATIONS>
13  17  6
28  31  6
24  8  5

$$$$
