310943494
  -OEChem-07211613022D

 36 39  0     0  0  0  0  0  0999 V2000
    4.8314    1.5349    0.0000 F   0  0  0  0  0  0  0  0  0  0  0  0
    5.4161    1.3010    0.0000 F   0  0  0  0  0  0  0  0  0  0  0  0
   -2.6825   -1.8858    0.0000 O   0  0  0  0  0  0  0  0  0  0  0  0
   -5.5477    1.4765    0.0000 O   0  0  0  0  0  0  0  0  0  0  0  0
    1.9808    1.5349    0.0000 O   0  0  0  0  0  0  0  0  0  0  0  0
   -3.3988   -0.6578    0.0000 N   0  0  0  0  0  0  0  0  0  0  0  0
   -4.1297    0.6578    0.0000 N   0  0  0  0  0  0  0  0  0  0  0  0
    1.0014    0.2339    0.0000 N   0  0  0  0  0  0  0  0  0  0  0  0
    4.1151   -0.5117    0.0000 N   0  0  0  0  0  0  0  0  0  0  0  0
   -1.9662    0.1754    0.0000 C   0  0  0  0  0  0  0  0  0  0  0  0
   -3.3842    0.1754    0.0000 C   0  0  0  0  0  0  0  0  0  0  0  0
   -1.1329    0.6432    0.0000 C   0  0  0  0  0  0  0  0  0  0  0  0
   -2.7117    0.5701    0.0000 C   0  0  0  0  0  0  0  0  0  0  0  0
   -2.6679   -1.0379    0.0000 C   0  0  0  0  0  0  0  0  0  0  0  0
   -1.9808   -0.6578    0.0000 C   0  0  0  0  0  0  0  0  0  0  0  0
   -1.1183    1.4765    0.0000 C   0  0  0  0  0  0  0  0  0  0  0  0
   -0.4020    0.2485    0.0000 C   0  0  0  0  0  0  0  0  0  0  0  0
    0.2851    0.6578    0.0000 C   0  0  0  0  0  0  0  0  0  0  0  0
    4.1151    0.3070    0.0000 C   0  0  0  0  0  0  0  0  0  0  0  0
    2.6825    0.3216    0.0000 C   0  0  0  0  0  0  0  0  0  0  0  0
    4.8314    0.7309    0.0000 C   0  0  0  0  0  0  0  0  0  0  0  0
    1.9662    0.7017    0.0000 C   0  0  0  0  0  0  0  0  0  0  0  0
   -0.4166    1.8566    0.0000 C   0  0  0  0  0  0  0  0  0  0  0  0
   -4.0859   -1.0526    0.0000 C   0  0  0  0  0  0  0  0  0  0  0  0
    0.2851    1.4618    0.0000 C   0  0  0  0  0  0  0  0  0  0  0  0
    3.3988    0.7163    0.0000 C   0  0  0  0  0  0  0  0  0  0  0  0
   -4.1297    1.4765    0.0000 C   0  0  0  0  0  0  0  0  0  0  0  0
   -4.8168    0.2485    0.0000 C   0  0  0  0  0  0  0  0  0  0  0  0
    2.6971   -0.5262    0.0000 C   0  0  0  0  0  0  0  0  0  0  0  0
   -1.8639    1.8566    0.0000 C   0  0  0  0  0  0  0  0  0  0  0  0
    3.4134   -0.9210    0.0000 C   0  0  0  0  0  0  0  0  0  0  0  0
    5.5331    0.3070    0.0000 C   0  0  0  0  0  0  0  0  0  0  0  0
   -4.8314    1.8858    0.0000 C   0  0  0  0  0  0  0  0  0  0  0  0
   -5.5477    0.6578    0.0000 C   0  0  0  0  0  0  0  0  0  0  0  0
   -4.8314   -0.6725    0.0000 C   0  0  0  0  0  0  0  0  0  0  0  0
    5.5477   -0.5262    0.0000 C   0  0  0  0  0  0  0  0  0  0  0  0
  1 21  1  0  0  0  0
  2 21  1  0  0  0  0
  3 14  2  0  0  0  0
  4 33  1  0  0  0  0
  4 34  1  0  0  0  0
  5 22  2  0  0  0  0
  6 11  1  0  0  0  0
  6 14  1  0  0  0  0
  6 24  1  0  0  0  0
  7 11  1  0  0  0  0
  7 27  1  0  0  0  0
  7 28  1  0  0  0  0
  8 18  1  0  0  0  0
  8 22  1  0  0  0  0
  9 19  1  0  0  0  0
  9 31  2  0  0  0  0
 10 12  1  0  0  0  0
 10 13  1  0  0  0  0
 10 15  2  0  0  0  0
 11 13  2  0  0  0  0
 12 16  1  0  0  0  0
 12 17  2  0  0  0  0
 14 15  1  0  0  0  0
 16 23  2  0  0  0  0
 16 30  1  0  0  0  0
 17 18  1  0  0  0  0
 18 25  2  0  0  0  0
 19 21  1  0  0  0  0
 19 26  2  0  0  0  0
 20 22  1  0  0  0  0
 20 26  1  0  0  0  0
 20 29  2  0  0  0  0
 21 32  1  0  0  0  0
 23 25  1  0  0  0  0
 24 35  1  0  0  0  0
 27 33  1  0  0  0  0
 28 34  1  0  0  0  0
 29 31  1  0  0  0  0
 32 36  1  0  0  0  0
M  END
> <PUBCHEM_COMPOUND_ID_TYPE>
0

> <PUBCHEM_TOTAL_CHARGE>
0

> <PUBCHEM_SUBSTANCE_ID>
310943494

> <PUBCHEM_SUBSTANCE_VERSION>
1

> <PUBCHEM_EXT_DATASOURCE_NAME>
4488

> <PUBCHEM_EXT_DATASOURCE_REGID>
SCHEMBL16121559

> <PUBCHEM_SUBSTANCE_COMMENT>
InChI=1S/C27H30F2N4O3/c1-4-27(28,29)23-14-19(8-9-30-23)26(35)31-21-7-6-18(3)22(17-21)20-15-24(32-10-12-36-13-11-32)33(5-2)25(34)16-20/h6-9,14-17H,4-5,10-13H2,1-3H3,(H,31,35)
InChIKey=INTSCAPCJOZFEC-UHFFFAOYSA-N

> <PUBCHEM_SUBSTANCE_SYNONYM>
SCHEMBL16121559

> <PUBCHEM_XREF_EXT_ID>
SCHEMBL16121559

> <PUBCHEM_EXT_DATASOURCE_URL>
https://www.surechembl.org/

> <PUBCHEM_EXT_SUBSTANCE_URL>
https://www.surechembl.org/chemical/SCHEMBL16121559

> <PUBCHEM_CID_ASSOCIATIONS>
117609914  1

> <PUBCHEM_COORDINATE_TYPE>
1
3

$$$$
