310933891
  -OEChem-07211613022D

 29 32  0     0  0  0  0  0  0999 V2000
    1.1062   -0.1252    0.0000 O   0  0  0  0  0  0  0  0  0  0  0  0
    4.6583    0.4361    0.0000 O   0  0  0  0  0  0  0  0  0  0  0  0
   -1.3210   -3.3699    0.0000 O   0  0  0  0  0  0  0  0  0  0  0  0
   -0.2605   -4.3276    0.0000 O   0  0  0  0  0  0  0  0  0  0  0  0
    1.1407   -0.9495    0.0000 C   0  0  0  0  0  0  0  0  0  0  0  0
    1.1445   -1.7057    0.0000 C   0  0  0  0  0  0  0  0  0  0  0  0
    0.7366   -0.2235    0.0000 C   0  0  0  0  0  0  0  0  0  0  0  0
    0.6709   -1.5755    0.0000 C   0  0  0  0  0  0  0  0  0  0  0  0
    2.0411   -1.1462    0.0000 C   0  0  0  0  0  0  0  0  0  0  0  0
    0.5275   -2.3166    0.0000 C   0  0  0  0  0  0  0  0  0  0  0  0
    1.9537   -1.8322    0.0000 C   0  0  0  0  0  0  0  0  0  0  0  0
    1.3983   -2.4907    0.0000 C   0  0  0  0  0  0  0  0  0  0  0  0
    1.8029    0.3168    0.0000 C   0  0  0  0  0  0  0  0  0  0  0  0
    0.8454   -3.1030    0.0000 C   0  0  0  0  0  0  0  0  0  0  0  0
    2.5339   -0.0655    0.0000 C   0  0  0  0  0  0  0  0  0  0  0  0
    3.2306    0.3764    0.0000 C   0  0  0  0  0  0  0  0  0  0  0  0
    3.9616   -0.0059    0.0000 C   0  0  0  0  0  0  0  0  0  0  0  0
    2.5684   -0.8898    0.0000 C   0  0  0  0  0  0  0  0  0  0  0  0
    0.0386   -2.9303    0.0000 C   0  0  0  0  0  0  0  0  0  0  0  0
    3.9961   -0.8301    0.0000 C   0  0  0  0  0  0  0  0  0  0  0  0
    3.2995   -1.2721    0.0000 C   0  0  0  0  0  0  0  0  0  0  0  0
    5.3893    0.0538    0.0000 C   0  0  0  0  0  0  0  0  0  0  0  0
   -0.5143   -3.5426    0.0000 C   0  0  0  0  0  0  0  0  0  0  0  0
    6.0859    0.4958    0.0000 C   0  0  0  0  0  0  0  0  0  0  0  0
    5.4238   -0.7705    0.0000 C   0  0  0  0  0  0  0  0  0  0  0  0
    6.8170    0.1135    0.0000 C   0  0  0  0  0  0  0  0  0  0  0  0
    6.1549   -1.1528    0.0000 C   0  0  0  0  0  0  0  0  0  0  0  0
    6.8515   -0.7108    0.0000 C   0  0  0  0  0  0  0  0  0  0  0  0
   -1.8739   -3.9822    0.0000 C   0  0  0  0  0  0  0  0  0  0  0  0
  1  5  1  0  0  0  0
  1 13  1  0  0  0  0
  2 17  1  0  0  0  0
  2 22  1  0  0  0  0
  3 23  1  0  0  0  0
  3 29  1  0  0  0  0
  4 23  2  0  0  0  0
  5  7  1  0  0  0  0
  5  8  1  0  0  0  0
  5  9  1  0  0  0  0
  6  7  1  0  0  0  0
  6 10  1  0  0  0  0
  6 11  1  0  0  0  0
  6 12  1  0  0  0  0
  8 10  1  0  0  0  0
  9 11  1  0  0  0  0
 12 14  1  0  0  0  0
 13 15  1  0  0  0  0
 14 19  2  0  0  0  0
 15 16  2  0  0  0  0
 15 18  1  0  0  0  0
 16 17  1  0  0  0  0
 17 20  2  0  0  0  0
 18 21  2  0  0  0  0
 19 23  1  0  0  0  0
 20 21  1  0  0  0  0
 22 24  2  0  0  0  0
 22 25  1  0  0  0  0
 24 26  1  0  0  0  0
 25 27  2  0  0  0  0
 26 28  2  0  0  0  0
 27 28  1  0  0  0  0
M  END
> <PUBCHEM_COMPOUND_ID_TYPE>
0

> <PUBCHEM_TOTAL_CHARGE>
0

> <PUBCHEM_SUBSTANCE_ID>
310933891

> <PUBCHEM_SUBSTANCE_VERSION>
1

> <PUBCHEM_EXT_DATASOURCE_NAME>
4488

> <PUBCHEM_EXT_DATASOURCE_REGID>
SCHEMBL16111330

> <PUBCHEM_SUBSTANCE_COMMENT>
InChI=1S/C25H28O4/c1-27-23(26)11-6-12-24-13-15-25(19-24,16-14-24)28-18-20-7-5-10-22(17-20)29-21-8-3-2-4-9-21/h2-11,17H,12-16,18-19H2,1H3/b11-6+
InChIKey=OYIUIIUVFCJZDP-IZZDOVSWSA-N

> <PUBCHEM_SUBSTANCE_SYNONYM>
SCHEMBL16111330

> <PUBCHEM_XREF_EXT_ID>
SCHEMBL16111330

> <PUBCHEM_EXT_DATASOURCE_URL>
https://www.surechembl.org/

> <PUBCHEM_EXT_SUBSTANCE_URL>
https://www.surechembl.org/chemical/SCHEMBL16111330

> <PUBCHEM_CID_ASSOCIATIONS>
117602222  1

> <PUBCHEM_COORDINATE_TYPE>
1
3

> <PUBCHEM_BONDANNOTATIONS>
19  23  3

$$$$
