310942471
  -OEChem-07211613022D

 42 47  0     1  0  0  0  0  0999 V2000
    4.8221    2.1373    0.0000 I   0  0  0  0  0  0  0  0  0  0  0  0
    1.8073    1.0724    0.0000 O   0  0  0  0  0  0  0  0  0  0  0  0
    2.3023   -1.0724    0.0000 O   0  0  0  0  0  0  0  0  0  0  0  0
    1.0574   -0.9824    0.0000 O   0  0  0  0  0  0  0  0  0  0  0  0
    3.2023    0.7275    0.0000 N   0  0  0  0  0  0  0  0  0  0  0  0
    3.8772   -0.6374    0.0000 N   0  0  0  0  0  0  0  0  0  0  0  0
   -0.3374    0.6374    0.0000 N   0  0  3  0  0  0  0  0  0  0  0  0
    5.3021   -0.5474    0.0000 N   0  0  0  0  0  0  0  0  0  0  0  0
    5.9320    0.7574    0.0000 N   0  0  0  0  0  0  0  0  0  0  0  0
   -2.6773   -0.8924    0.0000 N   0  0  0  0  0  0  0  0  0  0  0  0
   -3.3222   -2.0774    0.0000 N   0  0  0  0  0  0  0  0  0  0  0  0
    2.4073    0.5324    0.0000 C   0  0  3  0  0  0  0  0  0  0  0  0
    3.8472    0.2325    0.0000 C   0  0  0  0  0  0  0  0  0  0  0  0
    4.5221    0.6974    0.0000 C   0  0  0  0  0  0  0  0  0  0  0  0
    2.0623   -0.2475    0.0000 C   0  0  3  0  0  0  0  0  0  0  0  0
    4.2971    1.4774    0.0000 C   0  0  0  0  0  0  0  0  0  0  0  0
    1.1024    0.6675    0.0000 C   0  0  3  0  0  0  0  0  0  0  0  0
    3.5022    1.5224    0.0000 C   0  0  0  0  0  0  0  0  0  0  0  0
    1.2674   -0.1575    0.0000 C   0  0  3  0  0  0  0  0  0  0  0  0
    5.2571    0.2925    0.0000 C   0  0  0  0  0  0  0  0  0  0  0  0
    0.3675    1.0574    0.0000 C   0  0  0  0  0  0  0  0  0  0  0  0
   -0.5624   -0.1875    0.0000 C   0  0  0  0  0  0  0  0  0  0  0  0
    4.6421   -0.9974    0.0000 C   0  0  0  0  0  0  0  0  0  0  0  0
   -0.8474   -1.3124    0.0000 C   0  0  0  0  0  0  0  0  0  0  0  0
   -1.2374   -0.6074    0.0000 C   0  0  0  0  0  0  0  0  0  0  0  0
   -0.1425   -0.9074    0.0000 C   0  0  0  0  0  0  0  0  0  0  0  0
   -1.0574    1.0724    0.0000 C   0  0  0  0  0  0  0  0  0  0  0  0
   -3.4872   -0.6974    0.0000 C   0  0  0  0  0  0  0  0  0  0  0  0
   -3.8922   -1.4324    0.0000 C   0  0  0  0  0  0  0  0  0  0  0  0
   -2.5872   -1.7024    0.0000 C   0  0  0  0  0  0  0  0  0  0  0  0
   -4.7021    0.0075    0.0000 C   0  0  0  0  0  0  0  0  0  0  0  0
   -1.0424   -2.1374    0.0000 C   0  0  0  0  0  0  0  0  0  0  0  0
   -3.9072    0.0075    0.0000 C   0  0  0  0  0  0  0  0  0  0  0  0
   -1.8674   -2.1374    0.0000 C   0  0  0  0  0  0  0  0  0  0  0  0
   -5.1221    0.7275    0.0000 C   0  0  0  0  0  0  0  0  0  0  0  0
   -4.7171   -1.4474    0.0000 C   0  0  0  0  0  0  0  0  0  0  0  0
   -5.1071   -0.7125    0.0000 C   0  0  0  0  0  0  0  0  0  0  0  0
   -1.0574    1.8973    0.0000 C   0  0  0  0  0  0  0  0  0  0  0  0
   -1.7473    0.6224    0.0000 C   0  0  0  0  0  0  0  0  0  0  0  0
   -5.9320    0.7124    0.0000 C   0  0  0  0  0  0  0  0  0  0  0  0
   -5.5421    1.4474    0.0000 C   0  0  0  0  0  0  0  0  0  0  0  0
   -4.7321    1.4474    0.0000 C   0  0  0  0  0  0  0  0  0  0  0  0
  1 16  1  0  0  0  0
 12  2  1  1  0  0  0
  2 17  1  0  0  0  0
 15  3  1  6  0  0  0
 19  4  1  6  0  0  0
  5 12  1  0  0  0  0
  5 13  1  0  0  0  0
  5 18  1  0  0  0  0
  6 13  1  0  0  0  0
  6 23  2  0  0  0  0
  7 21  1  0  0  0  0
 22  7  1  1  0  0  0
  7 27  1  0  0  0  0
  8 20  2  0  0  0  0
  8 23  1  0  0  0  0
  9 20  1  0  0  0  0
 10 28  1  0  0  0  0
 10 30  2  0  0  0  0
 11 29  1  0  0  0  0
 11 30  1  0  0  0  0
 12 15  1  0  0  0  0
 13 14  2  0  0  0  0
 14 16  1  0  0  0  0
 14 20  1  0  0  0  0
 15 19  1  0  0  0  0
 16 18  2  0  0  0  0
 17 19  1  0  0  0  0
 17 21  1  1  0  0  0
 22 25  1  0  0  0  0
 22 26  1  0  0  0  0
 24 25  1  0  0  0  0
 24 26  1  0  0  0  0
 24 32  1  1  0  0  0
 27 38  1  0  0  0  0
 27 39  1  0  0  0  0
 28 29  2  0  0  0  0
 28 33  1  0  0  0  0
 29 36  1  0  0  0  0
 30 34  1  0  0  0  0
 31 33  2  0  0  0  0
 31 35  1  0  0  0  0
 31 37  1  0  0  0  0
 32 34  1  0  0  0  0
 35 40  1  0  0  0  0
 35 41  1  0  0  0  0
 35 42  1  0  0  0  0
 36 37  2  0  0  0  0
M  END
> <PUBCHEM_COMPOUND_ID_TYPE>
0

> <PUBCHEM_TOTAL_CHARGE>
0

> <PUBCHEM_SUBSTANCE_ID>
310942471

> <PUBCHEM_SUBSTANCE_VERSION>
1

> <PUBCHEM_EXT_DATASOURCE_NAME>
4488

> <PUBCHEM_EXT_DATASOURCE_REGID>
SCHEMBL16120507

> <PUBCHEM_SUBSTANCE_COMMENT>
InChI=1S/C31H42IN7O3/c1-16(2)38(14-23-26(40)27(41)30(42-23)39-13-20(32)25-28(33)34-15-35-29(25)39)19-10-17(11-19)6-9-24-36-21-8-7-18(31(3,4)5)12-22(21)37-24/h7-8,12-13,15-17,19,23,26-27,30,40-41H,6,9-11,14H2,1-5H3,(H,36,37)(H2,33,34,35)/t17-,19+,23-,26-,27-,30-/m1/s1
InChIKey=XKNFCLCLXLHWEA-JFARKCADSA-N

> <PUBCHEM_SUBSTANCE_SYNONYM>
SCHEMBL16120507

> <PUBCHEM_XREF_EXT_ID>
SCHEMBL16120507

> <PUBCHEM_EXT_DATASOURCE_URL>
https://www.surechembl.org/

> <PUBCHEM_EXT_SUBSTANCE_URL>
https://www.surechembl.org/chemical/SCHEMBL16120507

> <PUBCHEM_CID_ASSOCIATIONS>
86274954  1

> <PUBCHEM_COORDINATE_TYPE>
1
3

> <PUBCHEM_BONDANNOTATIONS>
17  21  5
12  2  5
24  32  5
15  3  6
19  4  6
22  7  5

$$$$
