310929995
  -OEChem-07211613022D

 45 44  0     0  0  0  0  0  0999 V2000
    7.5620   -5.7746    0.0000 O   0  0  0  0  0  0  0  0  0  0  0  0
    6.3246   -5.0184    0.0000 O   0  0  0  0  0  0  0  0  0  0  0  0
    6.3246   -6.4620    0.0000 N   0  0  0  0  0  0  0  0  0  0  0  0
    7.9744   -3.5747    0.0000 N   0  0  0  0  0  0  0  0  0  0  0  0
    6.7370   -5.7746    0.0000 C   0  0  0  0  0  0  0  0  0  0  0  0
    5.4996   -6.4620    0.0000 C   0  0  0  0  0  0  0  0  0  0  0  0
    6.7370   -7.2182    0.0000 C   0  0  0  0  0  0  0  0  0  0  0  0
    5.0184   -5.7746    0.0000 C   0  0  0  0  0  0  0  0  0  0  0  0
    6.3246   -7.9744    0.0000 C   0  0  0  0  0  0  0  0  0  0  0  0
    7.9744   -5.0184    0.0000 C   0  0  0  0  0  0  0  0  0  0  0  0
    7.5620   -4.3309    0.0000 C   0  0  0  0  0  0  0  0  0  0  0  0
    4.1935   -5.7746    0.0000 C   0  0  0  0  0  0  0  0  0  0  0  0
    6.7370   -8.6618    0.0000 C   0  0  0  0  0  0  0  0  0  0  0  0
    3.7810   -5.0184    0.0000 C   0  0  0  0  0  0  0  0  0  0  0  0
    6.3246   -9.4181    0.0000 C   0  0  0  0  0  0  0  0  0  0  0  0
    2.9560   -5.0184    0.0000 C   0  0  0  0  0  0  0  0  0  0  0  0
    6.7370  -10.1055    0.0000 C   0  0  0  0  0  0  0  0  0  0  0  0
    8.7994   -3.5747    0.0000 C   0  0  0  0  0  0  0  0  0  0  0  0
    7.5620   -2.8873    0.0000 C   0  0  0  0  0  0  0  0  0  0  0  0
    2.5436   -4.3309    0.0000 C   0  0  0  0  0  0  0  0  0  0  0  0
    6.3246  -10.8617    0.0000 C   0  0  0  0  0  0  0  0  0  0  0  0
    1.7186   -4.3309    0.0000 C   0  0  0  0  0  0  0  0  0  0  0  0
    6.7370  -11.5491    0.0000 C   0  0  0  0  0  0  0  0  0  0  0  0
    1.3062   -3.5747    0.0000 C   0  0  0  0  0  0  0  0  0  0  0  0
    6.3246  -12.3054    0.0000 C   0  0  0  0  0  0  0  0  0  0  0  0
    0.4125   -3.5747    0.0000 C   0  0  0  0  0  0  0  0  0  0  0  0
    6.7370  -13.0615    0.0000 C   0  0  0  0  0  0  0  0  0  0  0  0
    0.0000   -2.8873    0.0000 C   0  0  0  0  0  0  0  0  0  0  0  0
    6.3246  -13.7490    0.0000 C   0  0  0  0  0  0  0  0  0  0  0  0
    0.4812   -2.1311    0.0000 C   0  0  0  0  0  0  0  0  0  0  0  0
    5.4996  -13.7490    0.0000 C   0  0  0  0  0  0  0  0  0  0  0  0
    1.3062   -2.1311    0.0000 C   0  0  0  0  0  0  0  0  0  0  0  0
    5.0872  -12.9928    0.0000 C   0  0  0  0  0  0  0  0  0  0  0  0
    1.7186   -1.4436    0.0000 C   0  0  0  0  0  0  0  0  0  0  0  0
    4.2622  -12.9928    0.0000 C   0  0  0  0  0  0  0  0  0  0  0  0
    2.5436   -1.4436    0.0000 C   0  0  0  0  0  0  0  0  0  0  0  0
    3.8497  -12.2366    0.0000 C   0  0  0  0  0  0  0  0  0  0  0  0
    2.9560   -0.6875    0.0000 C   0  0  0  0  0  0  0  0  0  0  0  0
    2.9560  -12.2366    0.0000 C   0  0  0  0  0  0  0  0  0  0  0  0
    3.8497   -0.7562    0.0000 C   0  0  0  0  0  0  0  0  0  0  0  0
    2.5436  -11.5491    0.0000 C   0  0  0  0  0  0  0  0  0  0  0  0
    4.2622    0.0000    0.0000 C   0  0  0  0  0  0  0  0  0  0  0  0
    1.7186  -11.5491    0.0000 C   0  0  0  0  0  0  0  0  0  0  0  0
    5.0872    0.0000    0.0000 C   0  0  0  0  0  0  0  0  0  0  0  0
    1.3062  -10.7929    0.0000 C   0  0  0  0  0  0  0  0  0  0  0  0
  1  5  1  0  0  0  0
  1 10  1  0  0  0  0
  2  5  2  0  0  0  0
  3  5  1  0  0  0  0
  3  6  1  0  0  0  0
  3  7  1  0  0  0  0
  4 11  1  0  0  0  0
  4 18  1  0  0  0  0
  4 19  1  0  0  0  0
  6  8  1  0  0  0  0
  7  9  1  0  0  0  0
  8 12  2  0  0  0  0
  9 13  2  0  0  0  0
 10 11  1  0  0  0  0
 12 14  1  0  0  0  0
 13 15  1  0  0  0  0
 14 16  1  0  0  0  0
 15 17  1  0  0  0  0
 16 20  1  0  0  0  0
 17 21  1  0  0  0  0
 20 22  1  0  0  0  0
 21 23  1  0  0  0  0
 22 24  1  0  0  0  0
 23 25  1  0  0  0  0
 24 26  1  0  0  0  0
 25 27  1  0  0  0  0
 26 28  2  0  0  0  0
 27 29  2  0  0  0  0
 28 30  1  0  0  0  0
 29 31  1  0  0  0  0
 30 32  1  0  0  0  0
 31 33  1  0  0  0  0
 32 34  1  0  0  0  0
 33 35  1  0  0  0  0
 34 36  1  0  0  0  0
 35 37  1  0  0  0  0
 36 38  1  0  0  0  0
 37 39  1  0  0  0  0
 38 40  1  0  0  0  0
 39 41  1  0  0  0  0
 40 42  1  0  0  0  0
 41 43  1  0  0  0  0
 42 44  1  0  0  0  0
 43 45  1  0  0  0  0
M  END
> <PUBCHEM_COMPOUND_ID_TYPE>
0

> <PUBCHEM_TOTAL_CHARGE>
0

> <PUBCHEM_SUBSTANCE_ID>
310929995

> <PUBCHEM_SUBSTANCE_VERSION>
1

> <PUBCHEM_EXT_DATASOURCE_NAME>
4488

> <PUBCHEM_EXT_DATASOURCE_REGID>
SCHEMBL16107232

> <PUBCHEM_SUBSTANCE_COMMENT>
InChI=1S/C41H76N2O2/c1-5-7-9-11-13-15-17-19-21-23-25-27-29-31-33-35-37-43(41(44)45-40-39-42(3)4)38-36-34-32-30-28-26-24-22-20-18-16-14-12-10-8-6-2/h19-22,33-36H,5-18,23-32,37-40H2,1-4H3/b21-19-,22-20-,35-33+,36-34+
InChIKey=WVKXEKLCCQVTTL-PRGINYCWSA-N

> <PUBCHEM_SUBSTANCE_SYNONYM>
SCHEMBL16107232

> <PUBCHEM_XREF_EXT_ID>
SCHEMBL16107232

> <PUBCHEM_EXT_DATASOURCE_URL>
https://www.surechembl.org/

> <PUBCHEM_EXT_SUBSTANCE_URL>
https://www.surechembl.org/chemical/SCHEMBL16107232

> <PUBCHEM_CID_ASSOCIATIONS>
117599250  1

> <PUBCHEM_COORDINATE_TYPE>
1
3

$$$$
