310940082
  -OEChem-07211613022D

 37 42  0     1  0  0  0  0  0999 V2000
    0.8923   -0.5532    0.0000 S   0  0  0  0  0  0  0  0  0  0  0  0
    0.1779   -0.1407    0.0000 O   0  0  0  0  0  0  0  0  0  0  0  0
    0.8923    0.2718    0.0000 O   0  0  0  0  0  0  0  0  0  0  0  0
   -2.9869    3.3696    0.0000 O   0  0  0  0  0  0  0  0  0  0  0  0
   -0.1761    0.7671    0.0000 O   0  0  0  0  0  0  0  0  0  0  0  0
   -2.3202    4.6806    0.0000 O   0  0  0  0  0  0  0  0  0  0  0  0
    1.7173   -0.5532    0.0000 N   0  0  3  0  0  0  0  0  0  0  0  0
    1.4176    1.1942    0.0000 N   0  0  3  0  0  0  0  0  0  0  0  0
   -0.7577   -3.4111    0.0000 N   0  0  0  0  0  0  0  0  0  0  0  0
   -0.5027   -4.1957    0.0000 N   0  0  0  0  0  0  0  0  0  0  0  0
   -1.1702   -4.6806    0.0000 N   0  0  0  0  0  0  0  0  0  0  0  0
   -1.8376   -4.1957    0.0000 N   0  0  0  0  0  0  0  0  0  0  0  0
    2.2023    0.1142    0.0000 C   0  0  3  0  0  0  0  0  0  0  0  0
    1.4176    0.3692    0.0000 C   0  0  0  0  0  0  0  0  0  0  0  0
    2.6872    0.7817    0.0000 C   0  0  0  0  0  0  0  0  0  0  0  0
    2.9869   -0.1407    0.0000 C   0  0  0  0  0  0  0  0  0  0  0  0
    0.4798   -1.2677    0.0000 C   0  0  0  0  0  0  0  0  0  0  0  0
    2.2023   -1.2206    0.0000 C   0  0  0  0  0  0  0  0  0  0  0  0
    2.2023    1.4491    0.0000 C   0  0  0  0  0  0  0  0  0  0  0  0
    2.9869   -0.9657    0.0000 C   0  0  0  0  0  0  0  0  0  0  0  0
    0.8343    1.7775    0.0000 C   0  0  0  0  0  0  0  0  0  0  0  0
   -0.5460    2.1474    0.0000 C   0  0  0  0  0  0  0  0  0  0  0  0
   -1.9057    2.5868    0.0000 C   0  0  0  0  0  0  0  0  0  0  0  0
   -0.3452   -1.2677    0.0000 C   0  0  0  0  0  0  0  0  0  0  0  0
    0.8923   -1.9822    0.0000 C   0  0  0  0  0  0  0  0  0  0  0  0
    0.0374    1.5640    0.0000 C   0  0  3  0  0  0  0  0  0  0  0  0
   -1.3527    1.9745    0.0000 C   0  0  0  0  0  0  0  0  0  0  0  0
   -1.6520    3.3718    0.0000 C   0  0  0  0  0  0  0  0  0  0  0  0
   -0.3452   -2.6966    0.0000 C   0  0  0  0  0  0  0  0  0  0  0  0
   -2.3202    3.8556    0.0000 C   0  0  0  0  0  0  0  0  0  0  0  0
   -0.7577   -1.9822    0.0000 C   0  0  0  0  0  0  0  0  0  0  0  0
    0.4798   -2.6966    0.0000 C   0  0  0  0  0  0  0  0  0  0  0  0
   -0.2923    2.9324    0.0000 C   0  0  0  0  0  0  0  0  0  0  0  0
   -0.8453    3.5446    0.0000 C   0  0  0  0  0  0  0  0  0  0  0  0
   -2.7307    2.5854    0.0000 C   0  0  0  0  0  0  0  0  0  0  0  0
   -1.6064    1.1895    0.0000 C   0  0  0  0  0  0  0  0  0  0  0  0
   -1.5827   -3.4111    0.0000 C   0  0  0  0  0  0  0  0  0  0  0  0
  1  2  2  0  0  0  0
  1  3  2  0  0  0  0
  1  7  1  0  0  0  0
  1 17  1  0  0  0  0
  4 30  1  0  0  0  0
  4 35  1  0  0  0  0
 26  5  1  6  0  0  0
  6 30  2  0  0  0  0
  7 13  1  0  0  0  0
  7 18  1  0  0  0  0
  8 14  1  0  0  0  0
  8 19  1  0  0  0  0
  8 21  1  0  0  0  0
  9 10  1  0  0  0  0
  9 29  1  0  0  0  0
  9 37  1  0  0  0  0
 10 11  2  0  0  0  0
 11 12  1  0  0  0  0
 12 37  2  0  0  0  0
 13 14  1  0  0  0  0
 13 15  1  0  0  0  0
 13 16  1  0  0  0  0
 15 19  1  0  0  0  0
 16 20  1  0  0  0  0
 17 24  2  0  0  0  0
 17 25  1  0  0  0  0
 18 20  1  0  0  0  0
 21 26  1  0  0  0  0
 22 26  1  0  0  0  0
 22 27  1  0  0  0  0
 22 33  2  0  0  0  0
 23 27  2  0  0  0  0
 23 28  1  0  0  0  0
 23 35  1  0  0  0  0
 24 31  1  0  0  0  0
 25 32  2  0  0  0  0
 27 36  1  0  0  0  0
 28 30  1  0  0  0  0
 28 34  2  0  0  0  0
 29 31  2  0  0  0  0
 29 32  1  0  0  0  0
 33 34  1  0  0  0  0
M  END
> <PUBCHEM_COMPOUND_ID_TYPE>
0

> <PUBCHEM_TOTAL_CHARGE>
0

> <PUBCHEM_SUBSTANCE_ID>
310940082

> <PUBCHEM_SUBSTANCE_VERSION>
1

> <PUBCHEM_EXT_DATASOURCE_NAME>
4488

> <PUBCHEM_EXT_DATASOURCE_REGID>
SCHEMBL16118013

> <PUBCHEM_SUBSTANCE_COMMENT>
InChI=1S/C25H28N6O5S/c1-17-20(7-8-21-22(17)14-36-24(21)33)23(32)13-29-12-10-25(15-29)9-2-11-31(25)37(34,35)19-5-3-18(4-6-19)30-16-26-27-28-30/h3-8,16,23,32H,2,9-15H2,1H3/t23-,25?/m0/s1
InChIKey=NJSKLGCRYFHZOT-LFQPHHBNSA-N

> <PUBCHEM_SUBSTANCE_SYNONYM>
SCHEMBL16118013

> <PUBCHEM_XREF_EXT_ID>
SCHEMBL16118013

> <PUBCHEM_EXT_DATASOURCE_URL>
https://www.surechembl.org/

> <PUBCHEM_EXT_SUBSTANCE_URL>
https://www.surechembl.org/chemical/SCHEMBL16118013

> <PUBCHEM_CID_ASSOCIATIONS>
71557810  1

> <PUBCHEM_COORDINATE_TYPE>
1
3

> <PUBCHEM_BONDANNOTATIONS>
26  5  6

$$$$
