310929793
  -OEChem-07211613022D

 17 18  0     0  0  0  0  0  0999 V2000
    1.2400    0.0000    0.0000 F   0  0  0  0  0  0  0  0  0  0  0  0
    0.3848   -4.2759    0.0000 O   0  0  0  0  0  0  0  0  0  0  0  0
    3.6987    0.0000    0.0000 O   0  0  0  0  0  0  0  0  0  0  0  0
    4.9387   -0.7055    0.0000 O   0  0  0  0  0  0  0  0  0  0  0  0
    1.2186   -2.8435    0.0000 N   0  0  0  0  0  0  0  0  0  0  0  0
    3.6987   -1.4324    0.0000 N   0  0  0  0  0  0  0  0  0  0  0  0
    1.6463   -2.1380    0.0000 C   0  0  0  0  0  0  0  0  0  0  0  0
    2.8862   -1.4324    0.0000 C   0  0  0  0  0  0  0  0  0  0  0  0
    2.4587   -2.1380    0.0000 C   0  0  0  0  0  0  0  0  0  0  0  0
    1.2400   -1.4324    0.0000 C   0  0  0  0  0  0  0  0  0  0  0  0
    1.6463   -0.7055    0.0000 C   0  0  0  0  0  0  0  0  0  0  0  0
    2.4587   -0.7055    0.0000 C   0  0  0  0  0  0  0  0  0  0  0  0
    1.6463   -3.5704    0.0000 C   0  0  0  0  0  0  0  0  0  0  0  0
    0.4276   -2.8435    0.0000 C   0  0  0  0  0  0  0  0  0  0  0  0
    4.1263   -0.7055    0.0000 C   0  0  0  0  0  0  0  0  0  0  0  0
    1.2186   -4.2759    0.0000 C   0  0  0  0  0  0  0  0  0  0  0  0
    0.0000   -3.5490    0.0000 C   0  0  0  0  0  0  0  0  0  0  0  0
  1 11  1  0  0  0  0
  2 16  1  0  0  0  0
  2 17  1  0  0  0  0
  3 15  2  0  0  0  0
  4 15  1  0  0  0  0
  5  7  1  0  0  0  0
  5 13  1  0  0  0  0
  5 14  1  0  0  0  0
  6  8  1  0  0  0  0
  6 15  1  0  0  0  0
  7  9  1  0  0  0  0
  7 10  2  0  0  0  0
  8  9  2  0  0  0  0
  8 12  1  0  0  0  0
 10 11  1  0  0  0  0
 11 12  2  0  0  0  0
 13 16  1  0  0  0  0
 14 17  1  0  0  0  0
M  END
> <PUBCHEM_COMPOUND_ID_TYPE>
0

> <PUBCHEM_TOTAL_CHARGE>
0

> <PUBCHEM_SUBSTANCE_ID>
310929793

> <PUBCHEM_SUBSTANCE_VERSION>
1

> <PUBCHEM_EXT_DATASOURCE_NAME>
4488

> <PUBCHEM_EXT_DATASOURCE_REGID>
SCHEMBL16106995

> <PUBCHEM_SUBSTANCE_COMMENT>
InChI=1S/C11H13FN2O3/c12-8-5-9(13-11(15)16)7-10(6-8)14-1-3-17-4-2-14/h5-7,13H,1-4H2,(H,15,16)
InChIKey=RYXRYDSIRGNHIM-UHFFFAOYSA-N

> <PUBCHEM_SUBSTANCE_SYNONYM>
SCHEMBL16106995

> <PUBCHEM_XREF_EXT_ID>
SCHEMBL16106995

> <PUBCHEM_EXT_DATASOURCE_URL>
https://www.surechembl.org/

> <PUBCHEM_EXT_SUBSTANCE_URL>
https://www.surechembl.org/chemical/SCHEMBL16106995

> <PUBCHEM_CID_ASSOCIATIONS>
117599076  1

> <PUBCHEM_COORDINATE_TYPE>
1
3

$$$$
