310938330
  -OEChem-07211613022D

 12 13  0     0  0  0  0  0  0999 V2000
   -0.4660   -2.9422    0.0000 O   0  0  0  0  0  0  0  0  0  0  0  0
    0.5890   -1.4901    0.0000 O   0  0  0  0  0  0  0  0  0  0  0  0
   -1.5056   -3.9818    0.0000 O   0  0  0  0  0  0  0  0  0  0  0  0
    0.6139   -3.7268    0.0000 N   0  0  0  0  0  0  0  0  0  0  0  0
   -0.0535   -4.2117    0.0000 N   0  0  0  0  0  0  0  0  0  0  0  0
    0.3590   -2.9422    0.0000 C   0  0  0  0  0  0  0  0  0  0  0  0
    0.8439   -2.2748    0.0000 C   0  0  0  0  0  0  0  0  0  0  0  0
   -0.7209   -3.7268    0.0000 C   0  0  0  0  0  0  0  0  0  0  0  0
    1.6689   -2.2748    0.0000 C   0  0  0  0  0  0  0  0  0  0  0  0
    1.2564   -1.0052    0.0000 C   0  0  0  0  0  0  0  0  0  0  0  0
    1.9239   -1.4901    0.0000 C   0  0  0  0  0  0  0  0  0  0  0  0
    1.2564   -0.1802    0.0000 C   0  0  0  0  0  0  0  0  0  0  0  0
  1  6  1  0  0  0  0
  1  8  1  0  0  0  0
  2  7  1  0  0  0  0
  2 10  1  0  0  0  0
  3  8  2  0  0  0  0
  4  5  1  0  0  0  0
  4  6  2  0  0  0  0
  5  8  1  0  0  0  0
  6  7  1  0  0  0  0
  7  9  2  0  0  0  0
  9 11  1  0  0  0  0
 10 11  2  0  0  0  0
 10 12  1  0  0  0  0
M  END
> <PUBCHEM_COMPOUND_ID_TYPE>
0

> <PUBCHEM_TOTAL_CHARGE>
0

> <PUBCHEM_SUBSTANCE_ID>
310938330

> <PUBCHEM_SUBSTANCE_VERSION>
1

> <PUBCHEM_EXT_DATASOURCE_NAME>
4488

> <PUBCHEM_EXT_DATASOURCE_REGID>
SCHEMBL16116211

> <PUBCHEM_SUBSTANCE_COMMENT>
InChI=1S/C7H6N2O3/c1-4-2-3-5(11-4)6-8-9-7(10)12-6/h2-3H,1H3,(H,9,10)
InChIKey=HJODTCWUBFHFPG-UHFFFAOYSA-N

> <PUBCHEM_SUBSTANCE_SYNONYM>
SCHEMBL16116211

> <PUBCHEM_XREF_EXT_ID>
SCHEMBL16116211

> <PUBCHEM_EXT_DATASOURCE_URL>
https://www.surechembl.org/

> <PUBCHEM_EXT_SUBSTANCE_URL>
https://www.surechembl.org/chemical/SCHEMBL16116211

> <PUBCHEM_CID_ASSOCIATIONS>
64193420  1

> <PUBCHEM_COORDINATE_TYPE>
1
3

$$$$
