310929076
  -OEChem-07211613022D

 60 64  0     0  0  0  0  0  0999 V2000
    1.4301   -1.2585    0.0000 S   0  0  0  0  0  0  0  0  0  0  0  0
    7.1506   -1.2585    0.0000 O   0  0  0  0  0  0  0  0  0  0  0  0
    3.5467   -2.5170    0.0000 O   0  0  0  0  0  0  0  0  0  0  0  0
    4.9768   -4.1760    0.0000 O   0  0  0  0  0  0  0  0  0  0  0  0
    1.8306   -0.5721    0.0000 O   0  0  0  0  0  0  0  0  0  0  0  0
    1.0297   -1.9449    0.0000 O   0  0  0  0  0  0  0  0  0  0  0  0
   10.0108   -6.1781    0.0000 O   0  0  0  0  0  0  0  0  0  0  0  0
   11.3838   -2.9175    0.0000 O   0  0  0  0  0  0  0  0  0  0  0  0
   13.5575   -2.4598    0.0000 O   0  0  0  0  0  0  0  0  0  0  0  0
   15.7313   -2.9175    0.0000 O   0  0  0  0  0  0  0  0  0  0  0  0
   16.4178   -4.9768    0.0000 O   0  0  0  0  0  0  0  0  0  0  0  0
    3.5467   -4.1760    0.0000 N   0  0  0  0  0  0  0  0  0  0  0  0
    4.2903   -2.9175    0.0000 N   0  0  0  0  0  0  0  0  0  0  0  0
    2.1166   -1.6589    0.0000 N   0  0  0  0  0  0  0  0  0  0  0  0
    7.8370   -2.4598    0.0000 N   0  0  0  0  0  0  0  0  0  0  0  0
    8.5807   -3.7183    0.0000 N   0  0  0  0  0  0  0  0  0  0  0  0
    9.2672   -2.4598    0.0000 N   0  0  0  0  0  0  0  0  0  0  0  0
   12.1274   -4.1187    0.0000 N   0  0  0  0  0  0  0  0  0  0  0  0
    4.9768   -1.7161    0.0000 C   0  0  0  0  0  0  0  0  0  0  0  0
    2.8603   -3.7183    0.0000 C   0  0  0  0  0  0  0  0  0  0  0  0
    2.8603   -2.9175    0.0000 C   0  0  0  0  0  0  0  0  0  0  0  0
    5.7205   -1.2585    0.0000 C   0  0  0  0  0  0  0  0  0  0  0  0
    2.1166   -2.5170    0.0000 C   0  0  0  0  0  0  0  0  0  0  0  0
    1.4301   -3.7183    0.0000 C   0  0  0  0  0  0  0  0  0  0  0  0
    4.9768   -2.5170    0.0000 C   0  0  0  0  0  0  0  0  0  0  0  0
    6.4069   -1.6589    0.0000 C   0  0  0  0  0  0  0  0  0  0  0  0
    2.1166   -4.1760    0.0000 C   0  0  0  0  0  0  0  0  0  0  0  0
    1.4301   -2.9175    0.0000 C   0  0  0  0  0  0  0  0  0  0  0  0
    0.6864   -4.1187    0.0000 C   0  0  0  0  0  0  0  0  0  0  0  0
    4.2903   -3.7183    0.0000 C   0  0  0  0  0  0  0  0  0  0  0  0
    5.7205   -2.9175    0.0000 C   0  0  0  0  0  0  0  0  0  0  0  0
    6.4069   -2.5170    0.0000 C   0  0  0  0  0  0  0  0  0  0  0  0
    4.2903   -1.3157    0.0000 C   0  0  0  0  0  0  0  0  0  0  0  0
    5.7205   -0.4576    0.0000 C   0  0  0  0  0  0  0  0  0  0  0  0
    7.8370   -1.6589    0.0000 C   0  0  0  0  0  0  0  0  0  0  0  0
    4.2903   -0.4576    0.0000 C   0  0  0  0  0  0  0  0  0  0  0  0
    4.9768    0.0000    0.0000 C   0  0  0  0  0  0  0  0  0  0  0  0
    8.5807   -2.9175    0.0000 C   0  0  0  0  0  0  0  0  0  0  0  0
    0.2860   -3.3751    0.0000 C   0  0  0  0  0  0  0  0  0  0  0  0
    0.0000   -4.5192    0.0000 C   0  0  0  0  0  0  0  0  0  0  0  0
    1.0869   -4.8624    0.0000 C   0  0  0  0  0  0  0  0  0  0  0  0
    9.2672   -4.1187    0.0000 C   0  0  0  0  0  0  0  0  0  0  0  0
    8.5235   -1.2013    0.0000 C   0  0  0  0  0  0  0  0  0  0  0  0
   10.6973   -4.1187    0.0000 C   0  0  0  0  0  0  0  0  0  0  0  0
   10.0108   -3.7183    0.0000 C   0  0  0  0  0  0  0  0  0  0  0  0
   10.0108   -5.3772    0.0000 C   0  0  0  0  0  0  0  0  0  0  0  0
    9.2672   -1.6589    0.0000 C   0  0  0  0  0  0  0  0  0  0  0  0
    9.2672   -4.9768    0.0000 C   0  0  0  0  0  0  0  0  0  0  0  0
    3.5467   -1.6589    0.0000 C   0  0  0  0  0  0  0  0  0  0  0  0
    0.7437   -0.8581    0.0000 C   0  0  0  0  0  0  0  0  0  0  0  0
   10.6973   -4.9768    0.0000 C   0  0  0  0  0  0  0  0  0  0  0  0
   11.3838   -3.7183    0.0000 C   0  0  0  0  0  0  0  0  0  0  0  0
   12.8711   -3.7183    0.0000 C   0  0  0  0  0  0  0  0  0  0  0  0
   10.6973   -6.5785    0.0000 C   0  0  0  0  0  0  0  0  0  0  0  0
   12.8711   -2.9175    0.0000 C   0  0  0  0  0  0  0  0  0  0  0  0
   14.3012   -2.8603    0.0000 C   0  0  0  0  0  0  0  0  0  0  0  0
   14.9876   -2.4598    0.0000 C   0  0  0  0  0  0  0  0  0  0  0  0
   15.7313   -3.7183    0.0000 C   0  0  0  0  0  0  0  0  0  0  0  0
   16.4178   -4.1187    0.0000 C   0  0  0  0  0  0  0  0  0  0  0  0
   17.1614   -5.3772    0.0000 C   0  0  0  0  0  0  0  0  0  0  0  0
  1  5  2  0  0  0  0
  1  6  2  0  0  0  0
  1 14  1  0  0  0  0
  1 50  1  0  0  0  0
  2 26  1  0  0  0  0
  2 35  1  0  0  0  0
  3 21  1  0  0  0  0
  3 49  1  0  0  0  0
  4 30  2  0  0  0  0
  7 46  1  0  0  0  0
  7 54  1  0  0  0  0
  8 52  2  0  0  0  0
  9 55  1  0  0  0  0
  9 56  1  0  0  0  0
 10 57  1  0  0  0  0
 10 58  1  0  0  0  0
 11 59  1  0  0  0  0
 11 60  1  0  0  0  0
 12 20  1  0  0  0  0
 12 30  1  0  0  0  0
 13 25  1  0  0  0  0
 13 30  1  0  0  0  0
 14 23  1  0  0  0  0
 15 35  2  0  0  0  0
 15 38  1  0  0  0  0
 16 38  1  0  0  0  0
 16 42  1  0  0  0  0
 17 38  2  0  0  0  0
 17 47  1  0  0  0  0
 18 52  1  0  0  0  0
 18 53  1  0  0  0  0
 19 22  2  0  0  0  0
 19 25  1  0  0  0  0
 19 33  1  0  0  0  0
 20 21  1  0  0  0  0
 20 27  2  0  0  0  0
 21 23  2  0  0  0  0
 22 26  1  0  0  0  0
 22 34  1  0  0  0  0
 23 28  1  0  0  0  0
 24 27  1  0  0  0  0
 24 28  2  0  0  0  0
 24 29  1  0  0  0  0
 25 31  2  0  0  0  0
 26 32  2  0  0  0  0
 29 39  1  0  0  0  0
 29 40  1  0  0  0  0
 29 41  1  0  0  0  0
 31 32  1  0  0  0  0
 33 36  2  0  0  0  0
 34 37  2  0  0  0  0
 35 43  1  0  0  0  0
 36 37  1  0  0  0  0
 42 45  1  0  0  0  0
 42 48  2  0  0  0  0
 43 47  2  0  0  0  0
 44 45  2  0  0  0  0
 44 51  1  0  0  0  0
 44 52  1  0  0  0  0
 46 48  1  0  0  0  0
 46 51  2  0  0  0  0
 53 55  1  0  0  0  0
 56 57  1  0  0  0  0
 58 59  1  0  0  0  0
M  END
> <PUBCHEM_COMPOUND_ID_TYPE>
0

> <PUBCHEM_TOTAL_CHARGE>
0

> <PUBCHEM_SUBSTANCE_ID>
310929076

> <PUBCHEM_SUBSTANCE_VERSION>
1

> <PUBCHEM_EXT_DATASOURCE_NAME>
4488

> <PUBCHEM_EXT_DATASOURCE_REGID>
SCHEMBL16106238

> <PUBCHEM_SUBSTANCE_COMMENT>
InChI=1S/C42H51N7O10S/c1-42(2,3)28-24-34(38(56-6)35(25-28)49-60(7,52)53)47-41(51)46-33-12-13-36(32-11-9-8-10-31(32)33)59-37-14-15-44-40(48-37)45-29-22-27(23-30(26-29)55-5)39(50)43-16-17-57-20-21-58-19-18-54-4/h8-15,22-26,49H,16-21H2,1-7H3,(H,43,50)(H,44,45,48)(H2,46,47,51)
InChIKey=YDOGVCSSPRAZDJ-UHFFFAOYSA-N

> <PUBCHEM_SUBSTANCE_SYNONYM>
SCHEMBL16106238

> <PUBCHEM_XREF_EXT_ID>
SCHEMBL16106238

> <PUBCHEM_EXT_DATASOURCE_URL>
https://www.surechembl.org/

> <PUBCHEM_EXT_SUBSTANCE_URL>
https://www.surechembl.org/chemical/SCHEMBL16106238

> <PUBCHEM_CID_ASSOCIATIONS>
86274495  1

> <PUBCHEM_COORDINATE_TYPE>
1
3

$$$$
