310939930
  -OEChem-07211613022D

 26 28  0     0  0  0  0  0  0999 V2000
    1.4289    3.0230    0.0000 Br  0  0  0  0  0  0  0  0  0  0  0  0
    1.4289    4.6730    0.0000 Cl  0  0  0  0  0  0  0  0  0  0  0  0
    0.0000    2.1980    0.0000 O   0  0  0  0  0  0  0  0  0  0  0  0
   -1.4289    4.6730    0.0000 O   0  0  0  0  0  0  0  0  0  0  0  0
    0.7145   -3.0230    0.0000 O   0  0  0  0  0  0  0  0  0  0  0  0
   -0.7145   -1.0313    0.0000 N   0  0  0  0  0  0  0  0  0  0  0  0
   -0.7145    0.9605    0.0000 N   0  0  0  0  0  0  0  0  0  0  0  0
   -0.7145   -3.0230    0.0000 N   0  0  0  0  0  0  0  0  0  0  0  0
   -1.4289    3.0230    0.0000 N   0  0  0  0  0  0  0  0  0  0  0  0
   -0.7145   -0.2063    0.0000 C   0  0  0  0  0  0  0  0  0  0  0  0
   -1.2978    0.3771    0.0000 C   0  0  0  0  0  0  0  0  0  0  0  0
   -0.1311    0.3771    0.0000 C   0  0  0  0  0  0  0  0  0  0  0  0
   -0.7145   -2.1980    0.0000 C   0  0  0  0  0  0  0  0  0  0  0  0
   -1.2978   -1.6146    0.0000 C   0  0  0  0  0  0  0  0  0  0  0  0
   -0.1311   -1.6146    0.0000 C   0  0  0  0  0  0  0  0  0  0  0  0
   -0.7145    1.7855    0.0000 C   0  0  0  0  0  0  0  0  0  0  0  0
   -0.7145    3.4355    0.0000 C   0  0  0  0  0  0  0  0  0  0  0  0
   -1.4289    2.1980    0.0000 C   0  0  0  0  0  0  0  0  0  0  0  0
   -0.7145    4.2605    0.0000 C   0  0  0  0  0  0  0  0  0  0  0  0
    0.7145    3.4355    0.0000 C   0  0  0  0  0  0  0  0  0  0  0  0
    0.0000    3.0230    0.0000 C   0  0  0  0  0  0  0  0  0  0  0  0
    0.7145    4.2605    0.0000 C   0  0  0  0  0  0  0  0  0  0  0  0
    0.0000    4.6730    0.0000 C   0  0  0  0  0  0  0  0  0  0  0  0
    0.0000   -3.4355    0.0000 C   0  0  0  0  0  0  0  0  0  0  0  0
    0.0000   -4.2605    0.0000 C   0  0  0  0  0  0  0  0  0  0  0  0
    0.7145   -4.6730    0.0000 C   0  0  0  0  0  0  0  0  0  0  0  0
  1 20  1  0  0  0  0
  2 22  1  0  0  0  0
  3 16  2  0  0  0  0
  4 19  1  0  0  0  0
  5 24  2  0  0  0  0
  6 10  1  0  0  0  0
  6 14  1  0  0  0  0
  6 15  1  0  0  0  0
  7 11  1  0  0  0  0
  7 12  1  0  0  0  0
  7 16  1  0  0  0  0
  8 13  1  0  0  0  0
  8 24  1  0  0  0  0
  9 17  1  0  0  0  0
  9 18  1  0  0  0  0
 10 11  1  0  0  0  0
 10 12  1  0  0  0  0
 13 14  1  0  0  0  0
 13 15  1  0  0  0  0
 16 18  1  0  0  0  0
 17 19  1  0  0  0  0
 17 21  2  0  0  0  0
 19 23  2  0  0  0  0
 20 21  1  0  0  0  0
 20 22  2  0  0  0  0
 22 23  1  0  0  0  0
 24 25  1  0  0  0  0
 25 26  2  0  0  0  0
M  END
> <PUBCHEM_COMPOUND_ID_TYPE>
0

> <PUBCHEM_TOTAL_CHARGE>
0

> <PUBCHEM_SUBSTANCE_ID>
310939930

> <PUBCHEM_SUBSTANCE_VERSION>
1

> <PUBCHEM_EXT_DATASOURCE_NAME>
4488

> <PUBCHEM_EXT_DATASOURCE_REGID>
SCHEMBL16117860

> <PUBCHEM_SUBSTANCE_COMMENT>
InChI=1S/C17H20BrClN4O3/c1-2-16(25)21-10-6-22(7-10)11-8-23(9-11)17(26)5-20-14-3-12(18)13(19)4-15(14)24/h2-4,10-11,20,24H,1,5-9H2,(H,21,25)
InChIKey=BDTOSUCQNAABBU-UHFFFAOYSA-N

> <PUBCHEM_SUBSTANCE_SYNONYM>
SCHEMBL16117860

> <PUBCHEM_XREF_EXT_ID>
SCHEMBL16117860

> <PUBCHEM_EXT_DATASOURCE_URL>
https://www.surechembl.org/

> <PUBCHEM_EXT_SUBSTANCE_URL>
https://www.surechembl.org/chemical/SCHEMBL16117860

> <PUBCHEM_CID_ASSOCIATIONS>
86279949  1

> <PUBCHEM_COORDINATE_TYPE>
1
3

$$$$
