310931694
  -OEChem-07211613022D

 50 54  0     1  0  0  0  0  0999 V2000
   16.4328   -2.9516    0.0000 Cl  0  0  0  0  0  0  0  0  0  0  0  0
   17.8618    1.1734    0.0000 S   0  0  0  0  0  0  0  0  0  0  0  0
   19.2437    2.8958    0.0000 S   0  0  0  0  0  0  0  0  0  0  0  0
   16.4328   -1.3016    0.0000 F   0  0  0  0  0  0  0  0  0  0  0  0
   15.0039    1.1734    0.0000 F   0  0  0  0  0  0  0  0  0  0  0  0
   17.4493    1.8879    0.0000 O   0  0  0  0  0  0  0  0  0  0  0  0
   18.2743    0.4589    0.0000 O   0  0  0  0  0  0  0  0  0  0  0  0
   15.0039   -0.4766    0.0000 O   0  0  0  0  0  0  0  0  0  0  0  0
   20.7196    0.3484    0.0000 O   0  0  0  0  0  0  0  0  0  0  0  0
   10.7170   -0.4766    0.0000 O   0  0  0  0  0  0  0  0  0  0  0  0
   22.1486    2.8234    0.0000 O   0  0  0  0  0  0  0  0  0  0  0  0
   11.4316    0.7609    0.0000 O   0  0  0  0  0  0  0  0  0  0  0  0
   18.5762    1.5859    0.0000 N   0  0  0  0  0  0  0  0  0  0  0  0
   17.9088    2.8958    0.0000 N   0  0  0  0  0  0  0  0  0  0  0  0
   18.9887    3.6804    0.0000 N   0  0  0  0  0  0  0  0  0  0  0  0
   12.1460   -0.4766    0.0000 N   0  0  0  0  0  0  0  0  0  0  0  0
   17.1473    0.7609    0.0000 C   0  0  0  0  0  0  0  0  0  0  0  0
   18.5762    2.4109    0.0000 C   0  0  0  0  0  0  0  0  0  0  0  0
   15.7184   -0.0641    0.0000 C   0  0  0  0  0  0  0  0  0  0  0  0
   17.1473   -0.0641    0.0000 C   0  0  0  0  0  0  0  0  0  0  0  0
   16.4328    1.1734    0.0000 C   0  0  0  0  0  0  0  0  0  0  0  0
   16.4328   -0.4766    0.0000 C   0  0  0  0  0  0  0  0  0  0  0  0
   15.7184    0.7609    0.0000 C   0  0  0  0  0  0  0  0  0  0  0  0
   19.2907    1.1734    0.0000 C   0  0  0  0  0  0  0  0  0  0  0  0
   20.0052    1.5859    0.0000 C   0  0  0  0  0  0  0  0  0  0  0  0
   20.7196    1.1734    0.0000 C   0  0  0  0  0  0  0  0  0  0  0  0
   13.5750   -0.4766    0.0000 C   0  0  3  0  0  0  0  0  0  0  0  0
   13.5750   -1.3016    0.0000 C   0  0  3  0  0  0  0  0  0  0  0  0
   14.2894   -0.0641    0.0000 C   0  0  0  0  0  0  0  0  0  0  0  0
   20.0052    2.4109    0.0000 C   0  0  0  0  0  0  0  0  0  0  0  0
   18.1637    3.6804    0.0000 C   0  0  0  0  0  0  0  0  0  0  0  0
   14.2894   -1.7141    0.0000 C   0  0  0  0  0  0  0  0  0  0  0  0
   12.8605   -0.0641    0.0000 C   0  0  0  0  0  0  0  0  0  0  0  0
   21.4341    1.5859    0.0000 C   0  0  0  0  0  0  0  0  0  0  0  0
   21.4341    2.4109    0.0000 C   0  0  0  0  0  0  0  0  0  0  0  0
   12.8605   -1.7141    0.0000 C   0  0  0  0  0  0  0  0  0  0  0  0
   20.7196    2.8234    0.0000 C   0  0  0  0  0  0  0  0  0  0  0  0
   12.1460   -1.3016    0.0000 C   0  0  0  0  0  0  0  0  0  0  0  0
   11.4316   -0.0641    0.0000 C   0  0  0  0  0  0  0  0  0  0  0  0
   15.0039   -1.3016    0.0000 C   0  0  0  0  0  0  0  0  0  0  0  0
   14.2894   -2.5391    0.0000 C   0  0  0  0  0  0  0  0  0  0  0  0
   15.7184   -1.7141    0.0000 C   0  0  0  0  0  0  0  0  0  0  0  0
   15.0039   -2.9516    0.0000 C   0  0  0  0  0  0  0  0  0  0  0  0
   15.7184   -2.5391    0.0000 C   0  0  0  0  0  0  0  0  0  0  0  0
   10.0026   -0.0641    0.0000 C   0  0  0  0  0  0  0  0  0  0  0  0
   21.4341   -0.0641    0.0000 C   0  0  0  0  0  0  0  0  0  0  0  0
   22.8630    2.4109    0.0000 C   0  0  0  0  0  0  0  0  0  0  0  0
   10.0026    0.7609    0.0000 C   0  0  0  0  0  0  0  0  0  0  0  0
    9.2881    0.3484    0.0000 C   0  0  0  0  0  0  0  0  0  0  0  0
    9.2881   -0.4766    0.0000 C   0  0  0  0  0  0  0  0  0  0  0  0
  1 44  1  0  0  0  0
  2  6  2  0  0  0  0
  2  7  2  0  0  0  0
  2 13  1  0  0  0  0
  2 17  1  0  0  0  0
  3 15  1  0  0  0  0
  3 18  1  0  0  0  0
  4 22  1  0  0  0  0
  5 23  1  0  0  0  0
  8 19  1  0  0  0  0
  8 29  1  0  0  0  0
  9 26  1  0  0  0  0
  9 46  1  0  0  0  0
 10 39  1  0  0  0  0
 10 45  1  0  0  0  0
 11 35  1  0  0  0  0
 11 47  1  0  0  0  0
 12 39  2  0  0  0  0
 13 18  1  0  0  0  0
 13 24  1  0  0  0  0
 14 18  2  0  0  0  0
 14 31  1  0  0  0  0
 15 31  2  0  0  0  0
 16 33  1  0  0  0  0
 16 38  1  0  0  0  0
 16 39  1  0  0  0  0
 17 20  2  0  0  0  0
 17 21  1  0  0  0  0
 19 22  2  0  0  0  0
 19 23  1  0  0  0  0
 20 22  1  0  0  0  0
 21 23  2  0  0  0  0
 24 25  1  0  0  0  0
 25 26  1  0  0  0  0
 25 30  2  0  0  0  0
 26 34  2  0  0  0  0
 27 28  1  0  0  0  0
 27 29  1  6  0  0  0
 27 33  1  0  0  0  0
 28 32  1  0  0  0  0
 28 36  1  1  0  0  0
 30 37  1  0  0  0  0
 32 40  2  0  0  0  0
 32 41  1  0  0  0  0
 34 35  1  0  0  0  0
 35 37  2  0  0  0  0
 36 38  1  0  0  0  0
 40 42  1  0  0  0  0
 41 43  2  0  0  0  0
 42 44  2  0  0  0  0
 43 44  1  0  0  0  0
 45 48  1  0  0  0  0
 45 49  1  0  0  0  0
 45 50  1  0  0  0  0
M  END
> <PUBCHEM_COMPOUND_ID_TYPE>
0

> <PUBCHEM_TOTAL_CHARGE>
0

> <PUBCHEM_SUBSTANCE_ID>
310931694

> <PUBCHEM_SUBSTANCE_VERSION>
1

> <PUBCHEM_EXT_DATASOURCE_NAME>
4488

> <PUBCHEM_EXT_DATASOURCE_REGID>
SCHEMBL16109021

> <PUBCHEM_SUBSTANCE_COMMENT>
InChI=1S/C34H37ClF2N4O7S2/c1-34(2,3)48-33(42)40-13-12-27(21-6-9-24(35)10-7-21)23(17-40)19-47-31-28(36)15-26(16-29(31)37)50(43,44)41(32-38-20-39-49-32)18-22-8-11-25(45-4)14-30(22)46-5/h6-11,14-16,20,23,27H,12-13,17-19H2,1-5H3/t23-,27-/m1/s1
InChIKey=XJDHTRDDBOQZLG-YIXXDRMTSA-N

> <PUBCHEM_SUBSTANCE_SYNONYM>
SCHEMBL16109021

> <PUBCHEM_XREF_EXT_ID>
SCHEMBL16109021

> <PUBCHEM_EXT_DATASOURCE_URL>
https://www.surechembl.org/

> <PUBCHEM_EXT_SUBSTANCE_URL>
https://www.surechembl.org/chemical/SCHEMBL16109021

> <PUBCHEM_CID_ASSOCIATIONS>
117600395  1

> <PUBCHEM_COORDINATE_TYPE>
1
3

> <PUBCHEM_BONDANNOTATIONS>
27  29  6
28  36  5

$$$$
