310940517
  -OEChem-07211613022D

 35 39  0     1  0  0  0  0  0999 V2000
   -1.1429    0.1696    0.0000 O   0  0  0  0  0  0  0  0  0  0  0  0
    3.5170   -2.8092    0.0000 O   0  0  0  0  0  0  0  0  0  0  0  0
    2.2784   -2.1014    0.0000 O   0  0  0  0  0  0  0  0  0  0  0  0
    1.7917    0.0221    0.0000 N   0  0  0  0  0  0  0  0  0  0  0  0
    1.7917   -1.3198    0.0000 N   0  0  0  0  0  0  0  0  0  0  0  0
   -2.5733    1.0102    0.0000 N   0  0  0  0  0  0  0  0  0  0  0  0
    2.2488   -0.6415    0.0000 C   0  0  0  0  0  0  0  0  0  0  0  0
    1.0102   -0.2433    0.0000 C   0  0  0  0  0  0  0  0  0  0  0  0
    0.9954   -1.0543    0.0000 C   0  0  0  0  0  0  0  0  0  0  0  0
    3.1188   -0.6562    0.0000 C   0  0  3  0  0  0  0  0  0  0  0  0
    0.3023    0.1696    0.0000 C   0  0  0  0  0  0  0  0  0  0  0  0
    2.0424    0.8037    0.0000 C   0  0  0  0  0  0  0  0  0  0  0  0
    3.5318   -1.3493    0.0000 C   0  0  3  0  0  0  0  0  0  0  0  0
    0.2875   -1.4673    0.0000 C   0  0  0  0  0  0  0  0  0  0  0  0
   -0.4202   -0.2286    0.0000 C   0  0  0  0  0  0  0  0  0  0  0  0
    1.4820    1.4230    0.0000 C   0  0  0  0  0  0  0  0  0  0  0  0
    3.5170    0.0516    0.0000 C   0  0  0  0  0  0  0  0  0  0  0  0
   -0.4202   -1.0543    0.0000 C   0  0  0  0  0  0  0  0  0  0  0  0
    3.0893   -2.0866    0.0000 C   0  0  0  0  0  0  0  0  0  0  0  0
    4.3428   -1.3640    0.0000 C   0  0  0  0  0  0  0  0  0  0  0  0
    1.7475    2.2193    0.0000 C   0  0  0  0  0  0  0  0  0  0  0  0
    4.3428    0.0516    0.0000 C   0  0  0  0  0  0  0  0  0  0  0  0
    4.7410   -0.6710    0.0000 C   0  0  0  0  0  0  0  0  0  0  0  0
    0.6857    1.2608    0.0000 C   0  0  0  0  0  0  0  0  0  0  0  0
    1.2018    2.8092    0.0000 C   0  0  0  0  0  0  0  0  0  0  0  0
   -1.8507   -0.2286    0.0000 C   0  0  0  0  0  0  0  0  0  0  0  0
    0.1401    1.8654    0.0000 C   0  0  0  0  0  0  0  0  0  0  0  0
   -2.5880    0.1843    0.0000 C   0  0  0  0  0  0  0  0  0  0  0  0
    0.3908    2.6470    0.0000 C   0  0  0  0  0  0  0  0  0  0  0  0
    2.5733    2.3963    0.0000 C   0  0  0  0  0  0  0  0  0  0  0  0
   -3.2811   -0.2286    0.0000 C   0  0  0  0  0  0  0  0  0  0  0  0
   -4.0037    1.0102    0.0000 C   0  0  0  0  0  0  0  0  0  0  0  0
   -3.3106    1.4083    0.0000 C   0  0  0  0  0  0  0  0  0  0  0  0
   -4.0037    0.1843    0.0000 C   0  0  0  0  0  0  0  0  0  0  0  0
   -4.7410    1.4083    0.0000 C   0  0  0  0  0  0  0  0  0  0  0  0
  1 15  1  0  0  0  0
  1 26  1  0  0  0  0
  2 19  2  0  0  0  0
  3 19  1  0  0  0  0
  4  7  1  0  0  0  0
  4  8  1  0  0  0  0
  4 12  1  0  0  0  0
  5  7  2  0  0  0  0
  5  9  1  0  0  0  0
  6 28  1  0  0  0  0
  6 33  2  0  0  0  0
 10  7  1  1  0  0  0
  8  9  1  0  0  0  0
  8 11  2  0  0  0  0
  9 14  2  0  0  0  0
 10 13  1  0  0  0  0
 10 17  1  0  0  0  0
 11 15  1  0  0  0  0
 12 16  1  0  0  0  0
 13 19  1  1  0  0  0
 13 20  1  0  0  0  0
 14 18  1  0  0  0  0
 15 18  2  0  0  0  0
 16 21  1  0  0  0  0
 16 24  2  0  0  0  0
 17 22  1  0  0  0  0
 20 23  1  0  0  0  0
 21 25  2  0  0  0  0
 21 30  1  0  0  0  0
 22 23  1  0  0  0  0
 24 27  1  0  0  0  0
 25 29  1  0  0  0  0
 26 28  1  0  0  0  0
 27 29  2  0  0  0  0
 28 31  2  0  0  0  0
 31 34  1  0  0  0  0
 32 33  1  0  0  0  0
 32 34  2  0  0  0  0
 32 35  1  0  0  0  0
M  END
> <PUBCHEM_COMPOUND_ID_TYPE>
0

> <PUBCHEM_TOTAL_CHARGE>
0

> <PUBCHEM_SUBSTANCE_ID>
310940517

> <PUBCHEM_SUBSTANCE_VERSION>
1

> <PUBCHEM_EXT_DATASOURCE_NAME>
4488

> <PUBCHEM_EXT_DATASOURCE_REGID>
SCHEMBL16118471

> <PUBCHEM_SUBSTANCE_COMMENT>
InChI=1S/C29H31N3O3/c1-19-11-12-22(30-16-19)18-35-23-13-14-26-27(15-23)32(17-21-8-4-3-7-20(21)2)28(31-26)24-9-5-6-10-25(24)29(33)34/h3-4,7-8,11-16,24-25H,5-6,9-10,17-18H2,1-2H3,(H,33,34)/t24-,25+/m0/s1
InChIKey=GAEAEIHQPPNRHK-LOSJGSFVSA-N

> <PUBCHEM_SUBSTANCE_SYNONYM>
SCHEMBL16118471

> <PUBCHEM_XREF_EXT_ID>
SCHEMBL16118471

> <PUBCHEM_EXT_DATASOURCE_URL>
https://www.surechembl.org/

> <PUBCHEM_EXT_SUBSTANCE_URL>
https://www.surechembl.org/chemical/SCHEMBL16118471

> <PUBCHEM_CID_ASSOCIATIONS>
117607531  1

> <PUBCHEM_COORDINATE_TYPE>
1
3

> <PUBCHEM_BONDANNOTATIONS>
13  19  5
10  7  5

$$$$
