310938376
  -OEChem-07211613022D

 19 20  0     0  0  0  0  0  0999 V2000
    2.8189   -2.4710    0.0000 O   0  0  0  0  0  0  0  0  0  0  0  0
    3.5498   -6.9604    0.0000 O   0  0  0  0  0  0  0  0  0  0  0  0
    3.5498   -4.5243    0.0000 N   0  0  0  0  0  0  0  0  0  0  0  0
    1.4269    0.0000    0.0000 N   0  0  0  0  0  0  0  0  0  0  0  0
    2.1229   -2.0533    0.0000 C   0  0  0  0  0  0  0  0  0  0  0  0
    0.7308   -2.0533    0.0000 C   0  0  0  0  0  0  0  0  0  0  0  0
    1.4269   -0.8352    0.0000 C   0  0  0  0  0  0  0  0  0  0  0  0
    1.4269   -2.4710    0.0000 C   0  0  0  0  0  0  0  0  0  0  0  0
    2.1229   -1.2181    0.0000 C   0  0  0  0  0  0  0  0  0  0  0  0
    0.7308   -1.2181    0.0000 C   0  0  0  0  0  0  0  0  0  0  0  0
    3.5498   -3.6890    0.0000 C   0  0  0  0  0  0  0  0  0  0  0  0
    4.2806   -4.9071    0.0000 C   0  0  0  0  0  0  0  0  0  0  0  0
    2.8538   -4.9071    0.0000 C   0  0  0  0  0  0  0  0  0  0  0  0
    2.8189   -3.2714    0.0000 C   0  0  0  0  0  0  0  0  0  0  0  0
    3.5498   -6.1251    0.0000 C   0  0  0  0  0  0  0  0  0  0  0  0
    4.2806   -5.7423    0.0000 C   0  0  0  0  0  0  0  0  0  0  0  0
    2.8538   -5.7423    0.0000 C   0  0  0  0  0  0  0  0  0  0  0  0
    0.0000   -2.4710    0.0000 C   0  0  0  0  0  0  0  0  0  0  0  0
    0.0000   -3.2714    0.0000 C   0  0  0  0  0  0  0  0  0  0  0  0
  1  5  1  0  0  0  0
  1 14  1  0  0  0  0
  2 15  2  0  0  0  0
  3 11  1  0  0  0  0
  3 12  1  0  0  0  0
  3 13  1  0  0  0  0
  4  7  1  0  0  0  0
  5  8  1  0  0  0  0
  5  9  2  0  0  0  0
  6  8  2  0  0  0  0
  6 10  1  0  0  0  0
  6 18  1  0  0  0  0
  7  9  1  0  0  0  0
  7 10  2  0  0  0  0
 11 14  1  0  0  0  0
 12 16  1  0  0  0  0
 13 17  1  0  0  0  0
 15 16  1  0  0  0  0
 15 17  1  0  0  0  0
 18 19  1  0  0  0  0
M  END
> <PUBCHEM_COMPOUND_ID_TYPE>
0

> <PUBCHEM_TOTAL_CHARGE>
0

> <PUBCHEM_SUBSTANCE_ID>
310938376

> <PUBCHEM_SUBSTANCE_VERSION>
1

> <PUBCHEM_EXT_DATASOURCE_NAME>
4488

> <PUBCHEM_EXT_DATASOURCE_REGID>
SCHEMBL16116263

> <PUBCHEM_SUBSTANCE_COMMENT>
InChI=1S/C15H22N2O2/c1-2-12-9-13(16)11-15(10-12)19-8-7-17-5-3-14(18)4-6-17/h9-11H,2-8,16H2,1H3
InChIKey=HFMSFWOQLFJYJD-UHFFFAOYSA-N

> <PUBCHEM_SUBSTANCE_SYNONYM>
SCHEMBL16116263

> <PUBCHEM_XREF_EXT_ID>
SCHEMBL16116263

> <PUBCHEM_EXT_DATASOURCE_URL>
https://www.surechembl.org/

> <PUBCHEM_EXT_SUBSTANCE_URL>
https://www.surechembl.org/chemical/SCHEMBL16116263

> <PUBCHEM_CID_ASSOCIATIONS>
117605857  1

> <PUBCHEM_COORDINATE_TYPE>
1
3

$$$$
