310943067
  -OEChem-07211613022D

 15 16  0     0  0  0  0  0  0999 V2000
   -0.0180   -2.5000    0.0000 Cl  0  0  0  0  0  0  0  0  0  0  0  0
    1.4277    0.8373    0.0000 F   0  0  0  0  0  0  0  0  0  0  0  0
   -1.4277    0.0060    0.0000 N   0  0  0  0  0  0  0  0  0  0  0  0
   -0.0180    0.0180    0.0000 C   0  0  0  0  0  0  0  0  0  0  0  0
   -0.0060    0.8615    0.0000 C   0  0  0  0  0  0  0  0  0  0  0  0
   -0.7168   -0.3916    0.0000 C   0  0  0  0  0  0  0  0  0  0  0  0
    0.6807    1.2711    0.0000 C   0  0  0  0  0  0  0  0  0  0  0  0
    0.6928   -0.3916    0.0000 C   0  0  0  0  0  0  0  0  0  0  0  0
   -0.7168   -1.2349    0.0000 C   0  0  0  0  0  0  0  0  0  0  0  0
   -0.0060   -1.6446    0.0000 C   0  0  0  0  0  0  0  0  0  0  0  0
   -0.7289    1.2590    0.0000 C   0  0  0  0  0  0  0  0  0  0  0  0
    0.6928   -1.2228    0.0000 C   0  0  0  0  0  0  0  0  0  0  0  0
    0.6928    2.1023    0.0000 C   0  0  0  0  0  0  0  0  0  0  0  0
   -0.7289    2.0903    0.0000 C   0  0  0  0  0  0  0  0  0  0  0  0
   -0.0301    2.5000    0.0000 C   0  0  0  0  0  0  0  0  0  0  0  0
  1 10  1  0  0  0  0
  2  7  1  0  0  0  0
  3  6  1  0  0  0  0
  4  5  1  0  0  0  0
  4  6  1  0  0  0  0
  4  8  2  0  0  0  0
  5  7  2  0  0  0  0
  5 11  1  0  0  0  0
  6  9  2  0  0  0  0
  7 13  1  0  0  0  0
  8 12  1  0  0  0  0
  9 10  1  0  0  0  0
 10 12  2  0  0  0  0
 11 14  2  0  0  0  0
 13 15  2  0  0  0  0
 14 15  1  0  0  0  0
M  END
> <PUBCHEM_COMPOUND_ID_TYPE>
0

> <PUBCHEM_TOTAL_CHARGE>
0

> <PUBCHEM_SUBSTANCE_ID>
310943067

> <PUBCHEM_SUBSTANCE_VERSION>
1

> <PUBCHEM_EXT_DATASOURCE_NAME>
4488

> <PUBCHEM_EXT_DATASOURCE_REGID>
SCHEMBL16121126

> <PUBCHEM_SUBSTANCE_COMMENT>
InChI=1S/C12H9ClFN/c13-8-5-6-10(12(15)7-8)9-3-1-2-4-11(9)14/h1-7H,15H2
InChIKey=WRRJSIVGUCSMBZ-UHFFFAOYSA-N

> <PUBCHEM_SUBSTANCE_SYNONYM>
SCHEMBL16121126

> <PUBCHEM_XREF_EXT_ID>
SCHEMBL16121126

> <PUBCHEM_EXT_DATASOURCE_URL>
https://www.surechembl.org/

> <PUBCHEM_EXT_SUBSTANCE_URL>
https://www.surechembl.org/chemical/SCHEMBL16121126

> <PUBCHEM_CID_ASSOCIATIONS>
81274987  1

> <PUBCHEM_COORDINATE_TYPE>
1
3

$$$$
