310929375
  -OEChem-07211613022D

 27 28  0     0  0  0  0  0  0999 V2000
   10.4576   -0.0418    0.0000 O   0  0  0  0  0  0  0  0  0  0  0  0
    0.0000   -2.8445    0.0000 O   0  0  0  0  0  0  0  0  0  0  0  0
   10.4995   -1.6314    0.0000 N   0  0  0  0  0  0  0  0  0  0  0  0
   11.1687   -1.2131    0.0000 C   0  0  0  0  0  0  0  0  0  0  0  0
   11.8799   -1.5896    0.0000 C   0  0  0  0  0  0  0  0  0  0  0  0
   11.1687   -0.4183    0.0000 C   0  0  0  0  0  0  0  0  0  0  0  0
   10.4995   -2.4262    0.0000 C   0  0  0  0  0  0  0  0  0  0  0  0
   11.8799   -2.4262    0.0000 C   0  0  0  0  0  0  0  0  0  0  0  0
   12.5492   -1.2131    0.0000 C   0  0  0  0  0  0  0  0  0  0  0  0
   11.8799    0.0000    0.0000 C   0  0  0  0  0  0  0  0  0  0  0  0
   11.1687   -2.8445    0.0000 C   0  0  0  0  0  0  0  0  0  0  0  0
   12.5492   -0.4183    0.0000 C   0  0  0  0  0  0  0  0  0  0  0  0
    9.7884   -2.8445    0.0000 C   0  0  0  0  0  0  0  0  0  0  0  0
    9.0773   -2.4262    0.0000 C   0  0  0  0  0  0  0  0  0  0  0  0
    9.7884   -0.4601    0.0000 C   0  0  0  0  0  0  0  0  0  0  0  0
    8.4079   -2.8445    0.0000 C   0  0  0  0  0  0  0  0  0  0  0  0
    7.6968   -2.4262    0.0000 C   0  0  0  0  0  0  0  0  0  0  0  0
    6.9857   -2.8445    0.0000 C   0  0  0  0  0  0  0  0  0  0  0  0
    6.3164   -2.4262    0.0000 C   0  0  0  0  0  0  0  0  0  0  0  0
    5.6053   -2.8445    0.0000 C   0  0  0  0  0  0  0  0  0  0  0  0
    4.8942   -2.4262    0.0000 C   0  0  0  0  0  0  0  0  0  0  0  0
    4.2249   -2.8445    0.0000 C   0  0  0  0  0  0  0  0  0  0  0  0
    3.5137   -2.4262    0.0000 C   0  0  0  0  0  0  0  0  0  0  0  0
    2.8026   -2.8445    0.0000 C   0  0  0  0  0  0  0  0  0  0  0  0
    2.0915   -2.4262    0.0000 C   0  0  0  0  0  0  0  0  0  0  0  0
    1.4223   -2.8445    0.0000 C   0  0  0  0  0  0  0  0  0  0  0  0
    0.7111   -2.4262    0.0000 C   0  0  0  0  0  0  0  0  0  0  0  0
  1  6  1  0  0  0  0
  1 15  1  0  0  0  0
  2 27  1  0  0  0  0
  3  4  2  0  0  0  0
  3  7  1  0  0  0  0
  4  5  1  0  0  0  0
  4  6  1  0  0  0  0
  5  8  2  0  0  0  0
  5  9  1  0  0  0  0
  6 10  2  0  0  0  0
  7 11  2  0  0  0  0
  7 13  1  0  0  0  0
  8 11  1  0  0  0  0
  9 12  2  0  0  0  0
 10 12  1  0  0  0  0
 13 14  1  0  0  0  0
 14 16  1  0  0  0  0
 16 17  1  0  0  0  0
 17 18  1  0  0  0  0
 18 19  1  0  0  0  0
 19 20  1  0  0  0  0
 20 21  1  0  0  0  0
 21 22  1  0  0  0  0
 22 23  1  0  0  0  0
 23 24  1  0  0  0  0
 24 25  1  0  0  0  0
 25 26  1  0  0  0  0
 26 27  1  0  0  0  0
M  END
> <PUBCHEM_COMPOUND_ID_TYPE>
0

> <PUBCHEM_TOTAL_CHARGE>
0

> <PUBCHEM_SUBSTANCE_ID>
310929375

> <PUBCHEM_SUBSTANCE_VERSION>
1

> <PUBCHEM_EXT_DATASOURCE_NAME>
4488

> <PUBCHEM_EXT_DATASOURCE_REGID>
SCHEMBL16106547

> <PUBCHEM_SUBSTANCE_COMMENT>
InChI=1S/C24H37NO2/c1-27-23-17-14-15-21-18-19-22(25-24(21)23)16-12-10-8-6-4-2-3-5-7-9-11-13-20-26/h14-15,17-19,26H,2-13,16,20H2,1H3
InChIKey=SRYXHWPIRNFFTP-UHFFFAOYSA-N

> <PUBCHEM_SUBSTANCE_SYNONYM>
SCHEMBL16106547

> <PUBCHEM_XREF_EXT_ID>
SCHEMBL16106547

> <PUBCHEM_EXT_DATASOURCE_URL>
https://www.surechembl.org/

> <PUBCHEM_EXT_SUBSTANCE_URL>
https://www.surechembl.org/chemical/SCHEMBL16106547

> <PUBCHEM_CID_ASSOCIATIONS>
85471660  1

> <PUBCHEM_COORDINATE_TYPE>
1
3

$$$$
