310938931
  -OEChem-07211613022D

 19 19  0     1  0  0  0  0  0999 V2000
    0.3347   11.9864    0.0000 N   0  0  0  0  0  0  0  0  0  0  0  0
   -0.7922   13.9384    0.0000 N   0  0  0  0  0  0  0  0  0  0  0  0
   -0.3797   12.3989    0.0000 C   0  0  0  0  0  0  0  0  0  0  0  0
   -0.7922   13.1134    0.0000 C   0  0  0  0  0  0  0  0  0  0  0  0
   -1.2047   12.3989    0.0000 C   0  0  0  0  0  0  0  0  0  0  0  0
    0.3347   11.1614    0.0000 C   0  0  0  0  0  0  0  0  0  0  0  0
    1.0492   12.3989    0.0000 C   0  0  0  0  0  0  0  0  0  0  0  0
   -1.9192   11.9864    0.0000 C   0  0  0  0  0  0  0  0  0  0  0  0
   -0.0778   14.3509    0.0000 C   0  0  3  0  0  0  0  0  0  0  0  0
   -0.0778   15.1759    0.0000 C   0  0  0  0  0  0  0  0  0  0  0  0
    1.0492   10.7489    0.0000 C   0  0  0  0  0  0  0  0  0  0  0  0
   -0.3797   10.7489    0.0000 C   0  0  0  0  0  0  0  0  0  0  0  0
    1.0492   13.2239    0.0000 C   0  0  0  0  0  0  0  0  0  0  0  0
    1.7637   11.9864    0.0000 C   0  0  0  0  0  0  0  0  0  0  0  0
    0.6367   13.9384    0.0000 C   0  0  0  0  0  0  0  0  0  0  0  0
    0.6367   15.5884    0.0000 C   0  0  0  0  0  0  0  0  0  0  0  0
    1.3512   14.3509    0.0000 C   0  0  0  0  0  0  0  0  0  0  0  0
    0.6367   16.4134    0.0000 C   0  0  0  0  0  0  0  0  0  0  0  0
    1.3512   15.1759    0.0000 C   0  0  0  0  0  0  0  0  0  0  0  0
  1  3  1  0  0  0  0
  1  6  1  0  0  0  0
  1  7  1  0  0  0  0
  2  4  2  0  0  0  0
  9  2  1  1  0  0  0
  3  4  1  0  0  0  0
  3  5  2  0  0  0  0
  4  5  1  0  0  0  0
  5  8  1  0  0  0  0
  6 11  1  0  0  0  0
  6 12  1  0  0  0  0
  7 13  1  0  0  0  0
  7 14  1  0  0  0  0
  9 10  1  0  0  0  0
  9 15  1  0  0  0  0
 10 16  1  0  0  0  0
 15 17  1  0  0  0  0
 16 18  1  0  0  0  0
 16 19  1  0  0  0  0
M  END
> <PUBCHEM_COMPOUND_ID_TYPE>
0

> <PUBCHEM_TOTAL_CHARGE>
0

> <PUBCHEM_SUBSTANCE_ID>
310938931

> <PUBCHEM_SUBSTANCE_VERSION>
1

> <PUBCHEM_EXT_DATASOURCE_NAME>
4488

> <PUBCHEM_EXT_DATASOURCE_REGID>
SCHEMBL16116850

> <PUBCHEM_SUBSTANCE_COMMENT>
InChI=1S/C17H32N2/c1-9-15(10-11(2)3)18-16-14(8)17(16)19(12(4)5)13(6)7/h11-13,15H,9-10H2,1-8H3/b18-16-/t15-/m1/s1
InChIKey=HHLVPDNUSBREDK-ZMMDAZFZSA-N

> <PUBCHEM_SUBSTANCE_SYNONYM>
SCHEMBL16116850

> <PUBCHEM_XREF_EXT_ID>
SCHEMBL16116850

> <PUBCHEM_EXT_DATASOURCE_URL>
https://www.surechembl.org/

> <PUBCHEM_EXT_SUBSTANCE_URL>
https://www.surechembl.org/chemical/SCHEMBL16116850

> <PUBCHEM_CID_ASSOCIATIONS>
117606328  1

> <PUBCHEM_COORDINATE_TYPE>
1
3

> <PUBCHEM_BONDANNOTATIONS>
9  2  5

$$$$
