310946209
  -OEChem-07211613022D

 45 53  0     0  0  0  0  0  0999 V2000
   -2.6103    0.0637    0.0000 S   0  0  0  0  0  0  0  0  0  0  0  0
   -0.2455    2.4102    0.0000 O   0  0  0  0  0  0  0  0  0  0  0  0
    2.1010    0.0637    0.0000 N   0  0  0  0  0  0  0  0  0  0  0  0
   -2.0282    0.6821    0.0000 C   0  0  0  0  0  0  0  0  0  0  0  0
   -0.6821    1.1187    0.0000 C   0  0  0  0  0  0  0  0  0  0  0  0
    0.1910    1.1005    0.0000 C   0  0  0  0  0  0  0  0  0  0  0  0
   -3.1924    0.6276    0.0000 C   0  0  0  0  0  0  0  0  0  0  0  0
   -3.1924   -0.5548    0.0000 C   0  0  0  0  0  0  0  0  0  0  0  0
   -1.9736   -0.5185    0.0000 C   0  0  0  0  0  0  0  0  0  0  0  0
   -0.9186    1.9009    0.0000 C   0  0  0  0  0  0  0  0  0  0  0  0
   -1.1915    0.5185    0.0000 C   0  0  0  0  0  0  0  0  0  0  0  0
    0.4639    1.9009    0.0000 C   0  0  0  0  0  0  0  0  0  0  0  0
    1.5553    0.6639    0.0000 C   0  0  0  0  0  0  0  0  0  0  0  0
    1.9555   -0.7913    0.0000 C   0  0  0  0  0  0  0  0  0  0  0  0
    2.9559    0.1364    0.0000 C   0  0  0  0  0  0  0  0  0  0  0  0
    2.6649   -1.1733    0.0000 C   0  0  0  0  0  0  0  0  0  0  0  0
    3.2834   -0.6093    0.0000 C   0  0  0  0  0  0  0  0  0  0  0  0
    0.7367    0.5185    0.0000 C   0  0  0  0  0  0  0  0  0  0  0  0
   -2.2829    1.4643    0.0000 C   0  0  0  0  0  0  0  0  0  0  0  0
   -1.7372    2.0646    0.0000 C   0  0  0  0  0  0  0  0  0  0  0  0
    1.2824    2.0646    0.0000 C   0  0  0  0  0  0  0  0  0  0  0  0
    1.7918    1.4643    0.0000 C   0  0  0  0  0  0  0  0  0  0  0  0
   -3.0105    1.4279    0.0000 C   0  0  0  0  0  0  0  0  0  0  0  0
   -3.9928   -0.3365    0.0000 C   0  0  0  0  0  0  0  0  0  0  0  0
   -2.1737   -1.3552    0.0000 C   0  0  0  0  0  0  0  0  0  0  0  0
   -3.9928    0.4093    0.0000 C   0  0  0  0  0  0  0  0  0  0  0  0
   -2.9923   -1.3552    0.0000 C   0  0  0  0  0  0  0  0  0  0  0  0
   -1.1733   -0.3001    0.0000 C   0  0  0  0  0  0  0  0  0  0  0  0
    1.2460   -1.1733    0.0000 C   0  0  0  0  0  0  0  0  0  0  0  0
    3.4470    0.7913    0.0000 C   0  0  0  0  0  0  0  0  0  0  0  0
    4.1383   -0.7003    0.0000 C   0  0  0  0  0  0  0  0  0  0  0  0
    2.6649   -2.0100    0.0000 C   0  0  0  0  0  0  0  0  0  0  0  0
    1.2460   -2.0282    0.0000 C   0  0  0  0  0  0  0  0  0  0  0  0
    4.2656    0.7003    0.0000 C   0  0  0  0  0  0  0  0  0  0  0  0
   -3.5744    1.9918    0.0000 C   0  0  0  0  0  0  0  0  0  0  0  0
   -4.5748   -0.9004    0.0000 C   0  0  0  0  0  0  0  0  0  0  0  0
   -1.5553   -1.8827    0.0000 C   0  0  0  0  0  0  0  0  0  0  0  0
   -4.5930    0.9368    0.0000 C   0  0  0  0  0  0  0  0  0  0  0  0
   -3.5562   -1.9191    0.0000 C   0  0  0  0  0  0  0  0  0  0  0  0
   -0.5912   -0.8640    0.0000 C   0  0  0  0  0  0  0  0  0  0  0  0
    4.5930   -0.0637    0.0000 C   0  0  0  0  0  0  0  0  0  0  0  0
    1.9372   -2.4102    0.0000 C   0  0  0  0  0  0  0  0  0  0  0  0
   -4.3929    1.7735    0.0000 C   0  0  0  0  0  0  0  0  0  0  0  0
   -4.3929   -1.7190    0.0000 C   0  0  0  0  0  0  0  0  0  0  0  0
   -0.7731   -1.6644    0.0000 C   0  0  0  0  0  0  0  0  0  0  0  0
  1  4  1  0  0  0  0
  1  7  1  0  0  0  0
  1  8  1  0  0  0  0
  1  9  1  0  0  0  0
  2 10  1  0  0  0  0
  2 12  1  0  0  0  0
  3 13  1  0  0  0  0
  3 14  1  0  0  0  0
  3 15  1  0  0  0  0
  4 11  2  0  0  0  0
  4 19  1  0  0  0  0
  5  6  1  0  0  0  0
  5 10  2  0  0  0  0
  5 11  1  0  0  0  0
  6 12  2  0  0  0  0
  6 18  1  0  0  0  0
  7 23  2  0  0  0  0
  7 26  1  0  0  0  0
  8 24  2  0  0  0  0
  8 27  1  0  0  0  0
  9 25  2  0  0  0  0
  9 28  1  0  0  0  0
 10 20  1  0  0  0  0
 12 21  1  0  0  0  0
 13 18  2  0  0  0  0
 13 22  1  0  0  0  0
 14 16  2  0  0  0  0
 14 29  1  0  0  0  0
 15 17  2  0  0  0  0
 15 30  1  0  0  0  0
 16 17  1  0  0  0  0
 16 32  1  0  0  0  0
 17 31  1  0  0  0  0
 19 20  2  0  0  0  0
 21 22  2  0  0  0  0
 23 35  1  0  0  0  0
 24 36  1  0  0  0  0
 25 37  1  0  0  0  0
 26 38  2  0  0  0  0
 27 39  2  0  0  0  0
 28 40  2  0  0  0  0
 29 33  2  0  0  0  0
 30 34  2  0  0  0  0
 31 41  2  0  0  0  0
 32 42  2  0  0  0  0
 33 42  1  0  0  0  0
 34 41  1  0  0  0  0
 35 43  2  0  0  0  0
 36 44  2  0  0  0  0
 37 45  2  0  0  0  0
 38 43  1  0  0  0  0
 39 44  1  0  0  0  0
 40 45  1  0  0  0  0
M  END
> <PUBCHEM_COMPOUND_ID_TYPE>
0

> <PUBCHEM_TOTAL_CHARGE>
0

> <PUBCHEM_SUBSTANCE_ID>
310946209

> <PUBCHEM_SUBSTANCE_VERSION>
1

> <PUBCHEM_EXT_DATASOURCE_NAME>
4488

> <PUBCHEM_EXT_DATASOURCE_REGID>
SCHEMBL16124321

> <PUBCHEM_SUBSTANCE_COMMENT>
InChI=1S/C42H29NOS/c1-4-14-31(15-5-1)45(32-16-6-2-7-17-32,33-18-8-3-9-19-33)34-25-27-42-38(29-34)37-28-30(24-26-41(37)44-42)43-39-22-12-10-20-35(39)36-21-11-13-23-40(36)43/h1-29H
InChIKey=QJYLTTQOGFINPS-UHFFFAOYSA-N

> <PUBCHEM_SUBSTANCE_SYNONYM>
SCHEMBL16124321

> <PUBCHEM_XREF_EXT_ID>
SCHEMBL16124321

> <PUBCHEM_EXT_DATASOURCE_URL>
https://www.surechembl.org/

> <PUBCHEM_EXT_SUBSTANCE_URL>
https://www.surechembl.org/chemical/SCHEMBL16124321

> <PUBCHEM_CID_ASSOCIATIONS>
117612159  1

> <PUBCHEM_COORDINATE_TYPE>
1
3

$$$$
