310943621
  -OEChem-07211613022D

 36 39  0     0  0  0  0  0  0999 V2000
   -4.0294   -1.0550    0.0000 S   0  0  0  0  0  0  0  0  0  0  0  0
    4.6481    1.4991    0.0000 F   0  0  0  0  0  0  0  0  0  0  0  0
   -4.7433   -1.4516    0.0000 O   0  0  0  0  0  0  0  0  0  0  0  0
   -3.8073   -1.8481    0.0000 O   0  0  0  0  0  0  0  0  0  0  0  0
   -5.4254    1.4357    0.0000 O   0  0  0  0  0  0  0  0  0  0  0  0
    1.7450    1.4357    0.0000 O   0  0  0  0  0  0  0  0  0  0  0  0
   -3.9976    0.6108    0.0000 N   0  0  0  0  0  0  0  0  0  0  0  0
   -2.5541   -1.0232    0.0000 N   0  0  0  0  0  0  0  0  0  0  0  0
   -1.8402   -0.6108    0.0000 N   0  0  0  0  0  0  0  0  0  0  0  0
    1.0312    0.2142    0.0000 N   0  0  0  0  0  0  0  0  0  0  0  0
    3.9025   -0.6108    0.0000 N   0  0  0  0  0  0  0  0  0  0  0  0
   -3.2679    0.2142    0.0000 C   0  0  0  0  0  0  0  0  0  0  0  0
   -3.2838   -0.6108    0.0000 C   0  0  0  0  0  0  0  0  0  0  0  0
   -1.8402    0.2142    0.0000 C   0  0  0  0  0  0  0  0  0  0  0  0
   -1.1263    0.6266    0.0000 C   0  0  0  0  0  0  0  0  0  0  0  0
   -2.5541    0.6266    0.0000 C   0  0  0  0  0  0  0  0  0  0  0  0
   -1.1105    1.4516    0.0000 C   0  0  0  0  0  0  0  0  0  0  0  0
   -0.3966    0.2142    0.0000 C   0  0  0  0  0  0  0  0  0  0  0  0
    0.3014    0.6425    0.0000 C   0  0  0  0  0  0  0  0  0  0  0  0
   -3.9818    1.4357    0.0000 C   0  0  0  0  0  0  0  0  0  0  0  0
   -4.6956    0.2142    0.0000 C   0  0  0  0  0  0  0  0  0  0  0  0
   -0.3966    1.8322    0.0000 C   0  0  0  0  0  0  0  0  0  0  0  0
    0.3014    1.4357    0.0000 C   0  0  0  0  0  0  0  0  0  0  0  0
    2.4747    0.2142    0.0000 C   0  0  0  0  0  0  0  0  0  0  0  0
    1.7450    0.6108    0.0000 C   0  0  0  0  0  0  0  0  0  0  0  0
   -4.7909   -0.6266    0.0000 C   0  0  0  0  0  0  0  0  0  0  0  0
    3.9025    0.2142    0.0000 C   0  0  0  0  0  0  0  0  0  0  0  0
    4.6639    0.6583    0.0000 C   0  0  0  0  0  0  0  0  0  0  0  0
    3.1886    0.6266    0.0000 C   0  0  0  0  0  0  0  0  0  0  0  0
   -4.7274    1.8481    0.0000 C   0  0  0  0  0  0  0  0  0  0  0  0
   -5.4254    0.6266    0.0000 C   0  0  0  0  0  0  0  0  0  0  0  0
   -1.8560    1.8481    0.0000 C   0  0  0  0  0  0  0  0  0  0  0  0
    2.4747   -0.6108    0.0000 C   0  0  0  0  0  0  0  0  0  0  0  0
    3.2362   -1.0232    0.0000 C   0  0  0  0  0  0  0  0  0  0  0  0
    5.4254    1.0550    0.0000 C   0  0  0  0  0  0  0  0  0  0  0  0
    5.4254    0.2300    0.0000 C   0  0  0  0  0  0  0  0  0  0  0  0
  1  3  2  0  0  0  0
  1  4  2  0  0  0  0
  1 13  1  0  0  0  0
  1 26  1  0  0  0  0
  2 28  1  0  0  0  0
  5 30  1  0  0  0  0
  5 31  1  0  0  0  0
  6 25  2  0  0  0  0
  7 12  1  0  0  0  0
  7 20  1  0  0  0  0
  7 21  1  0  0  0  0
  8  9  1  0  0  0  0
  8 13  2  0  0  0  0
  9 14  2  0  0  0  0
 10 19  1  0  0  0  0
 10 25  1  0  0  0  0
 11 27  2  0  0  0  0
 11 34  1  0  0  0  0
 12 13  1  0  0  0  0
 12 16  2  0  0  0  0
 14 15  1  0  0  0  0
 14 16  1  0  0  0  0
 15 17  2  0  0  0  0
 15 18  1  0  0  0  0
 17 22  1  0  0  0  0
 17 32  1  0  0  0  0
 18 19  2  0  0  0  0
 19 23  1  0  0  0  0
 20 30  1  0  0  0  0
 21 31  1  0  0  0  0
 22 23  2  0  0  0  0
 24 25  1  0  0  0  0
 24 29  2  0  0  0  0
 24 33  1  0  0  0  0
 27 28  1  0  0  0  0
 27 29  1  0  0  0  0
 28 35  1  0  0  0  0
 28 36  1  0  0  0  0
 33 34  2  0  0  0  0
M  END
> <PUBCHEM_COMPOUND_ID_TYPE>
0

> <PUBCHEM_TOTAL_CHARGE>
0

> <PUBCHEM_SUBSTANCE_ID>
310943621

> <PUBCHEM_SUBSTANCE_VERSION>
1

> <PUBCHEM_EXT_DATASOURCE_NAME>
4488

> <PUBCHEM_EXT_DATASOURCE_REGID>
SCHEMBL16121689

> <PUBCHEM_SUBSTANCE_COMMENT>
InChI=1S/C25H28FN5O4S/c1-16-5-6-18(28-23(32)17-7-8-27-22(13-17)25(2,3)26)14-19(16)20-15-21(31-9-11-35-12-10-31)24(30-29-20)36(4,33)34/h5-8,13-15H,9-12H2,1-4H3,(H,28,32)
InChIKey=GGGFTTMBYHTHTO-UHFFFAOYSA-N

> <PUBCHEM_SUBSTANCE_SYNONYM>
SCHEMBL16121689

> <PUBCHEM_XREF_EXT_ID>
SCHEMBL16121689

> <PUBCHEM_EXT_DATASOURCE_URL>
https://www.surechembl.org/

> <PUBCHEM_EXT_SUBSTANCE_URL>
https://www.surechembl.org/chemical/SCHEMBL16121689

> <PUBCHEM_CID_ASSOCIATIONS>
117610012  1

> <PUBCHEM_COORDINATE_TYPE>
1
3

$$$$
