310938298
  -OEChem-07211613022D

 24 24  0     1  0  0  0  0  0999 V2000
   -9.2883   -2.8876    0.0000 O   0  0  0  0  0  0  0  0  0  0  0  0
  -11.4318   -0.8250    0.0000 O   0  0  0  0  0  0  0  0  0  0  0  0
   -6.4304   -2.0625    0.0000 O   0  0  0  0  0  0  0  0  0  0  0  0
   -7.1449   -0.8250    0.0000 O   0  0  0  0  0  0  0  0  0  0  0  0
  -10.7173   -2.0625    0.0000 N   0  0  0  0  0  0  0  0  0  0  0  0
   -8.5738   -1.6500    0.0000 N   0  0  0  0  0  0  0  0  0  0  0  0
  -10.0028   -1.6500    0.0000 C   0  0  3  0  0  0  0  0  0  0  0  0
   -9.2883   -2.0625    0.0000 C   0  0  0  0  0  0  0  0  0  0  0  0
  -10.0028   -0.8250    0.0000 C   0  0  3  0  0  0  0  0  0  0  0  0
  -11.4318   -1.6500    0.0000 C   0  0  0  0  0  0  0  0  0  0  0  0
  -12.1463   -2.0625    0.0000 C   0  0  0  0  0  0  0  0  0  0  0  0
  -12.8607   -1.6500    0.0000 C   0  0  0  0  0  0  0  0  0  0  0  0
  -10.7173   -0.4125    0.0000 C   0  0  0  0  0  0  0  0  0  0  0  0
   -7.8594   -2.0625    0.0000 C   0  0  0  0  0  0  0  0  0  0  0  0
   -9.2883   -0.4125    0.0000 C   0  0  0  0  0  0  0  0  0  0  0  0
   -7.1449   -1.6500    0.0000 C   0  0  0  0  0  0  0  0  0  0  0  0
  -12.8607   -0.8250    0.0000 C   0  0  0  0  0  0  0  0  0  0  0  0
  -13.5753   -2.0625    0.0000 C   0  0  0  0  0  0  0  0  0  0  0  0
  -13.5753   -0.4125    0.0000 C   0  0  0  0  0  0  0  0  0  0  0  0
  -14.2897   -1.6500    0.0000 C   0  0  0  0  0  0  0  0  0  0  0  0
  -14.2897   -0.8250    0.0000 C   0  0  0  0  0  0  0  0  0  0  0  0
  -10.7173    0.4125    0.0000 C   0  0  0  0  0  0  0  0  0  0  0  0
   -5.7159   -1.6500    0.0000 C   0  0  0  0  0  0  0  0  0  0  0  0
   -5.0014   -2.0625    0.0000 C   0  0  0  0  0  0  0  0  0  0  0  0
  1  8  2  0  0  0  0
  2 10  2  0  0  0  0
  3 16  1  0  0  0  0
  3 23  1  0  0  0  0
  4 16  2  0  0  0  0
  7  5  1  1  0  0  0
  5 10  1  0  0  0  0
  6  8  1  0  0  0  0
  6 14  1  0  0  0  0
  7  8  1  0  0  0  0
  7  9  1  0  0  0  0
  9 13  1  0  0  0  0
  9 15  1  6  0  0  0
 10 11  1  0  0  0  0
 11 12  1  0  0  0  0
 12 17  2  0  0  0  0
 12 18  1  0  0  0  0
 13 22  1  0  0  0  0
 14 16  1  0  0  0  0
 17 19  1  0  0  0  0
 18 20  2  0  0  0  0
 19 21  2  0  0  0  0
 20 21  1  0  0  0  0
 23 24  1  0  0  0  0
M  END
> <PUBCHEM_COMPOUND_ID_TYPE>
0

> <PUBCHEM_TOTAL_CHARGE>
0

> <PUBCHEM_SUBSTANCE_ID>
310938298

> <PUBCHEM_SUBSTANCE_VERSION>
1

> <PUBCHEM_EXT_DATASOURCE_NAME>
4488

> <PUBCHEM_EXT_DATASOURCE_REGID>
SCHEMBL16116169

> <PUBCHEM_SUBSTANCE_COMMENT>
InChI=1S/C18H26N2O4/c1-4-13(3)17(18(23)19-12-16(22)24-5-2)20-15(21)11-14-9-7-6-8-10-14/h6-10,13,17H,4-5,11-12H2,1-3H3,(H,19,23)(H,20,21)/t13-,17-/m0/s1
InChIKey=ONCNWCRBBMRLEO-GUYCJALGSA-N

> <PUBCHEM_SUBSTANCE_SYNONYM>
SCHEMBL16116169

> <PUBCHEM_XREF_EXT_ID>
SCHEMBL16116169

> <PUBCHEM_EXT_DATASOURCE_URL>
https://www.surechembl.org/

> <PUBCHEM_EXT_SUBSTANCE_URL>
https://www.surechembl.org/chemical/SCHEMBL16116169

> <PUBCHEM_CID_ASSOCIATIONS>
117605800  1

> <PUBCHEM_COORDINATE_TYPE>
1
3

> <PUBCHEM_BONDANNOTATIONS>
7  5  5
9  15  6

$$$$
