310949805
  -OEChem-07211613022D

 20 21  0     0  0  0  0  0  0999 V2000
   -0.1920   -0.7350    0.0000 O   0  0  0  0  0  0  0  0  0  0  0  0
    1.8815    1.4043    0.0000 O   0  0  0  0  0  0  0  0  0  0  0  0
    3.0663    0.7570    0.0000 O   0  0  0  0  0  0  0  0  0  0  0  0
   -0.2030    0.6912    0.0000 N   0  0  0  0  0  0  0  0  0  0  0  0
   -2.6933   -0.7570    0.0000 N   0  0  0  0  0  0  0  0  0  0  0  0
   -0.6198   -0.0110    0.0000 C   0  0  0  0  0  0  0  0  0  0  0  0
    0.6308   -0.7021    0.0000 C   0  0  0  0  0  0  0  0  0  0  0  0
   -1.4536    0.0000    0.0000 C   0  0  0  0  0  0  0  0  0  0  0  0
    1.8595    0.0439    0.0000 C   0  0  0  0  0  0  0  0  0  0  0  0
    1.0367    0.0110    0.0000 C   0  0  0  0  0  0  0  0  0  0  0  0
    1.0477   -1.4152    0.0000 C   0  0  0  0  0  0  0  0  0  0  0  0
   -1.8705    0.6912    0.0000 C   0  0  0  0  0  0  0  0  0  0  0  0
    2.2764   -0.6692    0.0000 C   0  0  0  0  0  0  0  0  0  0  0  0
    2.2654    0.7460    0.0000 C   0  0  0  0  0  0  0  0  0  0  0  0
   -1.8705   -0.7131    0.0000 C   0  0  0  0  0  0  0  0  0  0  0  0
    1.8924   -1.3823    0.0000 C   0  0  0  0  0  0  0  0  0  0  0  0
   -0.6308    1.4152    0.0000 C   0  0  0  0  0  0  0  0  0  0  0  0
   -1.4646    1.4152    0.0000 C   0  0  0  0  0  0  0  0  0  0  0  0
   -3.0663   -0.1097    0.0000 C   0  0  0  0  0  0  0  0  0  0  0  0
   -2.7371    0.2523    0.0000 C   0  0  0  0  0  0  0  0  0  0  0  0
  1  6  1  0  0  0  0
  1  7  1  0  0  0  0
  2 14  2  0  0  0  0
  3 14  1  0  0  0  0
  4  6  1  0  0  0  0
  4 17  2  0  0  0  0
  5 15  1  0  0  0  0
  5 19  1  0  0  0  0
  6  8  2  0  0  0  0
  7 10  1  0  0  0  0
  7 11  2  0  0  0  0
  8 12  1  0  0  0  0
  8 15  1  0  0  0  0
  9 10  2  0  0  0  0
  9 13  1  0  0  0  0
  9 14  1  0  0  0  0
 11 16  1  0  0  0  0
 12 18  2  0  0  0  0
 13 16  2  0  0  0  0
 17 18  1  0  0  0  0
 19 20  1  0  0  0  0
M  END
> <PUBCHEM_COMPOUND_ID_TYPE>
0

> <PUBCHEM_TOTAL_CHARGE>
0

> <PUBCHEM_SUBSTANCE_ID>
310949805

> <PUBCHEM_SUBSTANCE_VERSION>
1

> <PUBCHEM_EXT_DATASOURCE_NAME>
4488

> <PUBCHEM_EXT_DATASOURCE_REGID>
SCHEMBL16128003

> <PUBCHEM_SUBSTANCE_COMMENT>
InChI=1S/C15H16N2O3/c1-2-16-10-12-6-4-8-17-14(12)20-13-7-3-5-11(9-13)15(18)19/h3-9,16H,2,10H2,1H3,(H,18,19)
InChIKey=QEYUNVXPSOCBAG-UHFFFAOYSA-N

> <PUBCHEM_SUBSTANCE_SYNONYM>
SCHEMBL16128003

> <PUBCHEM_XREF_EXT_ID>
SCHEMBL16128003

> <PUBCHEM_EXT_DATASOURCE_URL>
https://www.surechembl.org/

> <PUBCHEM_EXT_SUBSTANCE_URL>
https://www.surechembl.org/chemical/SCHEMBL16128003

> <PUBCHEM_CID_ASSOCIATIONS>
117615126  1

> <PUBCHEM_COORDINATE_TYPE>
1
3

> <PUBCHEM_BONDANNOTATIONS>
20  19  3

$$$$
