310934566
  -OEChem-07211613022D

 23 25  0     0  0  0  0  0  0999 V2000
    0.8868   -1.2620    0.0000 S   0  0  0  0  0  0  0  0  0  0  0  0
    3.7521   -6.1057    0.0000 S   0  0  0  0  0  0  0  0  0  0  0  0
    0.6822   -3.0358    0.0000 O   0  0  0  0  0  0  0  0  0  0  0  0
    0.8186   -5.3894    0.0000 O   0  0  0  0  0  0  0  0  0  0  0  0
    0.0000   -6.8220    0.0000 O   0  0  0  0  0  0  0  0  0  0  0  0
    1.6373   -5.3894    0.0000 N   0  0  0  0  0  0  0  0  0  0  0  0
    0.8528   -3.8545    0.0000 N   0  0  0  0  0  0  0  0  0  0  0  0
    0.8186   -6.8220    0.0000 N   0  0  0  0  0  0  0  0  0  0  0  0
    2.0466   -6.1057    0.0000 C   0  0  0  0  0  0  0  0  0  0  0  0
    1.3985   -2.6265    0.0000 C   0  0  0  0  0  0  0  0  0  0  0  0
    1.2280   -6.1057    0.0000 C   0  0  0  0  0  0  0  0  0  0  0  0
    1.6714   -3.9568    0.0000 C   0  0  0  0  0  0  0  0  0  0  0  0
    1.5008   -1.8079    0.0000 C   0  0  0  0  0  0  0  0  0  0  0  0
    2.4900   -6.8220    0.0000 C   0  0  0  0  0  0  0  0  0  0  0  0
    2.4900   -5.3894    0.0000 C   0  0  0  0  0  0  0  0  0  0  0  0
    2.0125   -3.2064    0.0000 C   0  0  0  0  0  0  0  0  0  0  0  0
    2.0807   -4.6731    0.0000 C   0  0  0  0  0  0  0  0  0  0  0  0
    2.2171   -1.3985    0.0000 C   0  0  0  0  0  0  0  0  0  0  0  0
    2.0466   -0.6140    0.0000 C   0  0  0  0  0  0  0  0  0  0  0  0
    3.3086   -6.8220    0.0000 C   0  0  0  0  0  0  0  0  0  0  0  0
    3.3086   -5.3894    0.0000 C   0  0  0  0  0  0  0  0  0  0  0  0
    1.2280   -0.5117    0.0000 C   0  0  0  0  0  0  0  0  0  0  0  0
    2.6265    0.0000    0.0000 C   0  0  0  0  0  0  0  0  0  0  0  0
  1 13  1  0  0  0  0
  1 22  1  0  0  0  0
  2 20  1  0  0  0  0
  2 21  1  0  0  0  0
  3  7  1  0  0  0  0
  3 10  1  0  0  0  0
  4 11  2  0  0  0  0
  5  8  1  0  0  0  0
  6  9  1  0  0  0  0
  6 17  1  0  0  0  0
  7 12  2  0  0  0  0
  8 11  1  0  0  0  0
  9 11  1  0  0  0  0
  9 14  1  0  0  0  0
  9 15  1  0  0  0  0
 10 13  1  0  0  0  0
 10 16  2  0  0  0  0
 12 16  1  0  0  0  0
 12 17  1  0  0  0  0
 13 18  2  0  0  0  0
 14 20  1  0  0  0  0
 15 21  1  0  0  0  0
 18 19  1  0  0  0  0
 19 22  2  0  0  0  0
 19 23  1  0  0  0  0
M  END
> <PUBCHEM_COMPOUND_ID_TYPE>
0

> <PUBCHEM_TOTAL_CHARGE>
0

> <PUBCHEM_SUBSTANCE_ID>
310934566

> <PUBCHEM_SUBSTANCE_VERSION>
1

> <PUBCHEM_EXT_DATASOURCE_NAME>
4488

> <PUBCHEM_EXT_DATASOURCE_REGID>
SCHEMBL16112057

> <PUBCHEM_SUBSTANCE_COMMENT>
InChI=1S/C15H19N3O3S2/c1-10-6-13(23-9-10)12-7-11(18-21-12)8-16-15(14(19)17-20)2-4-22-5-3-15/h6-7,9,16,20H,2-5,8H2,1H3,(H,17,19)
InChIKey=QVKVFBNCTSQJND-UHFFFAOYSA-N

> <PUBCHEM_SUBSTANCE_SYNONYM>
SCHEMBL16112057

> <PUBCHEM_XREF_EXT_ID>
SCHEMBL16112057

> <PUBCHEM_EXT_DATASOURCE_URL>
https://www.surechembl.org/

> <PUBCHEM_EXT_SUBSTANCE_URL>
https://www.surechembl.org/chemical/SCHEMBL16112057

> <PUBCHEM_CID_ASSOCIATIONS>
117602756  1

> <PUBCHEM_COORDINATE_TYPE>
1
3

$$$$
