310936728
  -OEChem-07211613022D

 31 35  0     0  0  0  0  0  0999 V2000
    4.9809   -1.2299    0.0000 N   0  0  0  0  0  0  0  0  0  0  0  0
    4.2430   -2.4598    0.0000 N   0  0  0  0  0  0  0  0  0  0  0  0
    4.9809   -3.6896    0.0000 N   0  0  0  0  0  0  0  0  0  0  0  0
    2.8595   -4.0893    0.0000 N   0  0  0  0  0  0  0  0  0  0  0  0
    0.0308   -4.9195    0.0000 N   0  0  0  0  0  0  0  0  0  0  0  0
    5.6881   -2.4598    0.0000 C   0  0  0  0  0  0  0  0  0  0  0  0
    5.6881   -1.6296    0.0000 C   0  0  0  0  0  0  0  0  0  0  0  0
    4.9809   -2.8595    0.0000 C   0  0  0  0  0  0  0  0  0  0  0  0
    7.1025   -1.6296    0.0000 C   0  0  0  0  0  0  0  0  0  0  0  0
    6.3646   -1.2299    0.0000 C   0  0  0  0  0  0  0  0  0  0  0  0
    6.3646   -2.8595    0.0000 C   0  0  0  0  0  0  0  0  0  0  0  0
    7.1025   -2.4598    0.0000 C   0  0  0  0  0  0  0  0  0  0  0  0
    7.8096   -1.2299    0.0000 C   0  0  0  0  0  0  0  0  0  0  0  0
    2.1215   -3.6896    0.0000 C   0  0  0  0  0  0  0  0  0  0  0  0
    3.5666   -3.6896    0.0000 C   0  0  0  0  0  0  0  0  0  0  0  0
    4.2430   -1.6296    0.0000 C   0  0  0  0  0  0  0  0  0  0  0  0
    1.4143   -4.1200    0.0000 C   0  0  0  0  0  0  0  0  0  0  0  0
    4.2738   -4.0893    0.0000 C   0  0  0  0  0  0  0  0  0  0  0  0
    2.1523   -2.8902    0.0000 C   0  0  0  0  0  0  0  0  0  0  0  0
    3.5666   -2.8595    0.0000 C   0  0  0  0  0  0  0  0  0  0  0  0
    7.8096   -0.3997    0.0000 C   0  0  0  0  0  0  0  0  0  0  0  0
    8.5168   -1.6296    0.0000 C   0  0  0  0  0  0  0  0  0  0  0  0
    1.4451   -4.9502    0.0000 C   0  0  0  0  0  0  0  0  0  0  0  0
    0.7379   -3.7203    0.0000 C   0  0  0  0  0  0  0  0  0  0  0  0
    2.8595   -2.4598    0.0000 C   0  0  0  0  0  0  0  0  0  0  0  0
    0.7072   -5.3192    0.0000 C   0  0  0  0  0  0  0  0  0  0  0  0
    0.0000   -4.1200    0.0000 C   0  0  0  0  0  0  0  0  0  0  0  0
    8.5168    0.0000    0.0000 C   0  0  0  0  0  0  0  0  0  0  0  0
    9.2240   -1.2299    0.0000 C   0  0  0  0  0  0  0  0  0  0  0  0
    9.2240   -0.4305    0.0000 C   0  0  0  0  0  0  0  0  0  0  0  0
    0.7072   -6.1493    0.0000 C   0  0  0  0  0  0  0  0  0  0  0  0
  1  7  2  0  0  0  0
  1 16  1  0  0  0  0
  2  8  1  0  0  0  0
  2 16  2  0  0  0  0
  3  8  1  0  0  0  0
  3 18  1  0  0  0  0
  4 14  2  0  0  0  0
  4 15  1  0  0  0  0
  5 26  1  0  0  0  0
  5 27  2  0  0  0  0
  6  7  1  0  0  0  0
  6  8  2  0  0  0  0
  6 11  1  0  0  0  0
  7 10  1  0  0  0  0
  9 10  2  0  0  0  0
  9 12  1  0  0  0  0
  9 13  1  0  0  0  0
 11 12  2  0  0  0  0
 13 21  2  0  0  0  0
 13 22  1  0  0  0  0
 14 17  1  0  0  0  0
 14 19  1  0  0  0  0
 15 18  1  0  0  0  0
 15 20  2  0  0  0  0
 17 23  1  0  0  0  0
 17 24  2  0  0  0  0
 19 25  2  0  0  0  0
 20 25  1  0  0  0  0
 21 28  1  0  0  0  0
 22 29  2  0  0  0  0
 23 26  2  0  0  0  0
 24 27  1  0  0  0  0
 26 31  1  0  0  0  0
 28 30  2  0  0  0  0
 29 30  1  0  0  0  0
M  END
> <PUBCHEM_COMPOUND_ID_TYPE>
0

> <PUBCHEM_TOTAL_CHARGE>
0

> <PUBCHEM_SUBSTANCE_ID>
310936728

> <PUBCHEM_SUBSTANCE_VERSION>
1

> <PUBCHEM_EXT_DATASOURCE_NAME>
4488

> <PUBCHEM_EXT_DATASOURCE_REGID>
SCHEMBL16114407

> <PUBCHEM_SUBSTANCE_COMMENT>
InChI=1S/C26H21N5/c1-18-14-21(12-13-27-18)24-9-5-8-22(31-24)16-28-26-23-11-10-20(15-25(23)29-17-30-26)19-6-3-2-4-7-19/h2-15,17H,16H2,1H3,(H,28,29,30)
InChIKey=WXRMJOSLTMTAGT-UHFFFAOYSA-N

> <PUBCHEM_SUBSTANCE_SYNONYM>
SCHEMBL16114407

> <PUBCHEM_XREF_EXT_ID>
SCHEMBL16114407

> <PUBCHEM_EXT_DATASOURCE_URL>
https://www.surechembl.org/

> <PUBCHEM_EXT_SUBSTANCE_URL>
https://www.surechembl.org/chemical/SCHEMBL16114407

> <PUBCHEM_CID_ASSOCIATIONS>
117604628  1

> <PUBCHEM_COORDINATE_TYPE>
1
3

$$$$
