310930413
  -OEChem-07211613022D

 21 22  0     0  0  0  0  0  0999 V2000
    1.0312   -1.8305    0.0000 S   0  0  0  0  0  0  0  0  0  0  0  0
    0.0000   -2.8618    0.0000 S   0  0  0  0  0  0  0  0  0  0  0  0
    2.8876   -2.8618    0.0000 O   0  0  0  0  0  0  0  0  0  0  0  0
    2.1656   -5.1563    0.0000 O   0  0  0  0  0  0  0  0  0  0  0  0
    2.8618   -3.9188    0.0000 O   0  0  0  0  0  0  0  0  0  0  0  0
    1.4437   -3.0938    0.0000 N   0  0  0  0  0  0  0  0  0  0  0  0
    2.1141   -2.6039    0.0000 C   0  0  0  0  0  0  0  0  0  0  0  0
    1.8562   -1.8305    0.0000 C   0  0  0  0  0  0  0  0  0  0  0  0
    0.7735   -2.6039    0.0000 C   0  0  0  0  0  0  0  0  0  0  0  0
    2.3203   -1.1602    0.0000 C   0  0  0  0  0  0  0  0  0  0  0  0
    1.4437   -3.9188    0.0000 C   0  0  0  0  0  0  0  0  0  0  0  0
    3.1453   -1.2375    0.0000 C   0  0  0  0  0  0  0  0  0  0  0  0
    2.1656   -4.3313    0.0000 C   0  0  0  0  0  0  0  0  0  0  0  0
    3.6094   -0.5672    0.0000 C   0  0  0  0  0  0  0  0  0  0  0  0
    4.4344   -0.6703    0.0000 C   0  0  0  0  0  0  0  0  0  0  0  0
    3.4805   -1.9852    0.0000 C   0  0  0  0  0  0  0  0  0  0  0  0
    4.9501    0.0000    0.0000 C   0  0  0  0  0  0  0  0  0  0  0  0
    4.8211   -1.4180    0.0000 C   0  0  0  0  0  0  0  0  0  0  0  0
    5.7493   -0.0773    0.0000 C   0  0  0  0  0  0  0  0  0  0  0  0
    5.6203   -1.4953    0.0000 C   0  0  0  0  0  0  0  0  0  0  0  0
    6.1102   -0.8250    0.0000 C   0  0  0  0  0  0  0  0  0  0  0  0
  1  8  1  0  0  0  0
  1  9  1  0  0  0  0
  2  9  2  0  0  0  0
  3  7  2  0  0  0  0
  4 13  2  0  0  0  0
  5 13  1  0  0  0  0
  6  7  1  0  0  0  0
  6  9  1  0  0  0  0
  6 11  1  0  0  0  0
  7  8  1  0  0  0  0
  8 10  2  0  0  0  0
 10 12  1  0  0  0  0
 11 13  1  0  0  0  0
 12 14  2  0  0  0  0
 12 16  1  0  0  0  0
 14 15  1  0  0  0  0
 15 17  1  0  0  0  0
 15 18  1  0  0  0  0
 17 19  1  0  0  0  0
 18 20  1  0  0  0  0
 19 21  1  0  0  0  0
 20 21  1  0  0  0  0
M  END
> <PUBCHEM_COMPOUND_ID_TYPE>
0

> <PUBCHEM_TOTAL_CHARGE>
0

> <PUBCHEM_SUBSTANCE_ID>
310930413

> <PUBCHEM_SUBSTANCE_VERSION>
1

> <PUBCHEM_EXT_DATASOURCE_NAME>
4488

> <PUBCHEM_EXT_DATASOURCE_REGID>
SCHEMBL16107700

> <PUBCHEM_SUBSTANCE_COMMENT>
InChI=1S/C15H19NO3S2/c1-10(7-11-5-3-2-4-6-11)8-12-14(19)16(9-13(17)18)15(20)21-12/h7-8,11H,2-6,9H2,1H3,(H,17,18)/b10-7+,12-8+
InChIKey=DMKJUWUREPNKGQ-SMTGYRLFSA-N

> <PUBCHEM_SUBSTANCE_SYNONYM>
SCHEMBL16107700

> <PUBCHEM_XREF_EXT_ID>
SCHEMBL16107700

> <PUBCHEM_EXT_DATASOURCE_URL>
https://www.surechembl.org/

> <PUBCHEM_EXT_SUBSTANCE_URL>
https://www.surechembl.org/chemical/SCHEMBL16107700

> <PUBCHEM_CID_ASSOCIATIONS>
117599557  1

> <PUBCHEM_COORDINATE_TYPE>
1
3

$$$$
