310941534
  -OEChem-07211613022D

 35 39  0     0  0  0  0  0  0999 V2000
   -2.3304   -1.1391    0.0000 Cl  0  0  0  0  0  0  0  0  0  0  0  0
   -3.7739   -3.6434    0.0000 Cl  0  0  0  0  0  0  0  0  0  0  0  0
    0.7478    3.6434    0.0000 S   0  0  0  0  0  0  0  0  0  0  0  0
   -1.6000    0.9478    0.0000 O   0  0  0  0  0  0  0  0  0  0  0  0
   -3.0433    0.1305    0.0000 O   0  0  0  0  0  0  0  0  0  0  0  0
   -0.1566    0.9478    0.0000 O   0  0  0  0  0  0  0  0  0  0  0  0
    3.6695    2.6521    0.0000 O   0  0  0  0  0  0  0  0  0  0  0  0
    0.6260    2.3043    0.0000 N   0  0  0  0  0  0  0  0  0  0  0  0
    2.0173    2.8260    0.0000 N   0  0  0  0  0  0  0  0  0  0  0  0
   -0.8521    2.2173    0.0000 C   0  0  0  0  0  0  0  0  0  0  0  0
   -2.3304    1.4000    0.0000 C   0  0  0  0  0  0  0  0  0  0  0  0
   -2.3130    2.2173    0.0000 C   0  0  0  0  0  0  0  0  0  0  0  0
   -0.1566    2.6521    0.0000 C   0  0  0  0  0  0  0  0  0  0  0  0
   -0.8869    1.4000    0.0000 C   0  0  0  0  0  0  0  0  0  0  0  0
   -1.6174    2.6348    0.0000 C   0  0  0  0  0  0  0  0  0  0  0  0
   -3.0260    0.9826    0.0000 C   0  0  0  0  0  0  0  0  0  0  0  0
    1.1652    2.9303    0.0000 C   0  0  0  0  0  0  0  0  0  0  0  0
   -3.0433    2.6348    0.0000 C   0  0  0  0  0  0  0  0  0  0  0  0
   -0.0522    3.4695    0.0000 C   0  0  0  0  0  0  0  0  0  0  0  0
   -3.7565    1.3652    0.0000 C   0  0  0  0  0  0  0  0  0  0  0  0
   -3.7739    2.2173    0.0000 C   0  0  0  0  0  0  0  0  0  0  0  0
    2.3478    2.0782    0.0000 C   0  0  0  0  0  0  0  0  0  0  0  0
   -3.7565   -0.2869    0.0000 C   0  0  0  0  0  0  0  0  0  0  0  0
   -3.7911   -1.1391    0.0000 C   0  0  0  0  0  0  0  0  0  0  0  0
    3.1651    1.9738    0.0000 C   0  0  0  0  0  0  0  0  0  0  0  0
   -3.0433   -1.5566    0.0000 C   0  0  0  0  0  0  0  0  0  0  0  0
    1.8781    1.3826    0.0000 C   0  0  0  0  0  0  0  0  0  0  0  0
   -4.4868   -1.5566    0.0000 C   0  0  0  0  0  0  0  0  0  0  0  0
   -3.0608   -2.3739    0.0000 C   0  0  0  0  0  0  0  0  0  0  0  0
    3.5129    1.2261    0.0000 C   0  0  0  0  0  0  0  0  0  0  0  0
   -3.7739   -2.7912    0.0000 C   0  0  0  0  0  0  0  0  0  0  0  0
   -4.4694   -2.4086    0.0000 C   0  0  0  0  0  0  0  0  0  0  0  0
    2.2086    0.6521    0.0000 C   0  0  0  0  0  0  0  0  0  0  0  0
    3.0433    0.5477    0.0000 C   0  0  0  0  0  0  0  0  0  0  0  0
    4.4868    2.5478    0.0000 C   0  0  0  0  0  0  0  0  0  0  0  0
  1 26  1  0  0  0  0
  2 31  1  0  0  0  0
  3 17  1  0  0  0  0
  3 19  1  0  0  0  0
  4 11  1  0  0  0  0
  4 14  1  0  0  0  0
  5 16  1  0  0  0  0
  5 23  1  0  0  0  0
  6 14  2  0  0  0  0
  7 25  1  0  0  0  0
  7 35  1  0  0  0  0
  8 13  1  0  0  0  0
  8 17  2  0  0  0  0
  9 17  1  0  0  0  0
  9 22  1  0  0  0  0
 10 13  1  0  0  0  0
 10 14  1  0  0  0  0
 10 15  2  0  0  0  0
 11 12  1  0  0  0  0
 11 16  2  0  0  0  0
 12 15  1  0  0  0  0
 12 18  2  0  0  0  0
 13 19  2  0  0  0  0
 16 20  1  0  0  0  0
 18 21  1  0  0  0  0
 20 21  2  0  0  0  0
 22 25  1  0  0  0  0
 22 27  2  0  0  0  0
 23 24  1  0  0  0  0
 24 26  1  0  0  0  0
 24 28  2  0  0  0  0
 25 30  2  0  0  0  0
 26 29  2  0  0  0  0
 27 33  1  0  0  0  0
 28 32  1  0  0  0  0
 29 31  1  0  0  0  0
 30 34  1  0  0  0  0
 31 32  2  0  0  0  0
 33 34  2  0  0  0  0
M  END
> <PUBCHEM_COMPOUND_ID_TYPE>
0

> <PUBCHEM_TOTAL_CHARGE>
0

> <PUBCHEM_SUBSTANCE_ID>
310941534

> <PUBCHEM_SUBSTANCE_VERSION>
1

> <PUBCHEM_EXT_DATASOURCE_NAME>
4488

> <PUBCHEM_EXT_DATASOURCE_REGID>
SCHEMBL16119565

> <PUBCHEM_SUBSTANCE_COMMENT>
InChI=1S/C26H18Cl2N2O4S/c1-32-22-7-3-2-6-20(22)29-26-30-21(14-35-26)18-11-15-5-4-8-23(24(15)34-25(18)31)33-13-16-9-10-17(27)12-19(16)28/h2-12,14H,13H2,1H3,(H,29,30)
InChIKey=CYISFPIBUYTIEM-UHFFFAOYSA-N

> <PUBCHEM_SUBSTANCE_SYNONYM>
SCHEMBL16119565

> <PUBCHEM_XREF_EXT_ID>
SCHEMBL16119565

> <PUBCHEM_EXT_DATASOURCE_URL>
https://www.surechembl.org/

> <PUBCHEM_EXT_SUBSTANCE_URL>
https://www.surechembl.org/chemical/SCHEMBL16119565

> <PUBCHEM_CID_ASSOCIATIONS>
117608342  1

> <PUBCHEM_COORDINATE_TYPE>
1
3

$$$$
