310939102
  -OEChem-07211613022D

 25 27  0     1  0  0  0  0  0999 V2000
    1.0717    1.5948    0.0000 Cl  0  0  0  0  0  0  0  0  0  0  0  0
   -0.3573   -0.8803    0.0000 F   0  0  0  0  0  0  0  0  0  0  0  0
    1.0717   -0.0553    0.0000 O   0  0  0  0  0  0  0  0  0  0  0  0
   -2.5007    0.3573    0.0000 N   0  0  0  0  0  0  0  0  0  0  0  0
    2.5007    1.5948    0.0000 N   0  0  0  0  0  0  0  0  0  0  0  0
    3.9297    1.5948    0.0000 N   0  0  0  0  0  0  0  0  0  0  0  0
   -1.0717    0.3573    0.0000 C   0  0  0  0  0  0  0  0  0  0  0  0
   -1.7863   -0.0553    0.0000 C   0  0  3  0  0  0  0  0  0  0  0  0
   -0.3573   -0.0553    0.0000 C   0  0  0  0  0  0  0  0  0  0  0  0
    0.3573    0.3573    0.0000 C   0  0  0  0  0  0  0  0  0  0  0  0
   -1.7863   -0.8803    0.0000 C   0  0  0  0  0  0  0  0  0  0  0  0
    0.3573    1.1823    0.0000 C   0  0  0  0  0  0  0  0  0  0  0  0
   -1.0717    1.1823    0.0000 C   0  0  0  0  0  0  0  0  0  0  0  0
   -2.1987   -1.5948    0.0000 C   0  0  0  0  0  0  0  0  0  0  0  0
   -1.3737   -1.5948    0.0000 C   0  0  0  0  0  0  0  0  0  0  0  0
   -0.3573    1.5948    0.0000 C   0  0  0  0  0  0  0  0  0  0  0  0
    1.7863    0.3573    0.0000 C   0  0  0  0  0  0  0  0  0  0  0  0
   -2.5007    1.1823    0.0000 C   0  0  3  0  0  0  0  0  0  0  0  0
    1.7863    1.1823    0.0000 C   0  0  0  0  0  0  0  0  0  0  0  0
    2.5007   -0.0553    0.0000 C   0  0  0  0  0  0  0  0  0  0  0  0
    3.2153    1.1823    0.0000 C   0  0  0  0  0  0  0  0  0  0  0  0
    3.2153    0.3573    0.0000 C   0  0  0  0  0  0  0  0  0  0  0  0
   -3.2153    1.5948    0.0000 C   0  0  0  0  0  0  0  0  0  0  0  0
   -1.7863    1.5948    0.0000 C   0  0  0  0  0  0  0  0  0  0  0  0
   -3.9297    1.1823    0.0000 C   0  0  0  0  0  0  0  0  0  0  0  0
  1 12  1  0  0  0  0
  2  9  1  0  0  0  0
  3 10  1  0  0  0  0
  3 17  1  0  0  0  0
  8  4  1  1  0  0  0
  4 18  1  0  0  0  0
  5 19  2  0  0  0  0
  5 21  1  0  0  0  0
  6 21  1  0  0  0  0
  7  8  1  0  0  0  0
  7  9  1  0  0  0  0
  7 13  2  0  0  0  0
  8 11  1  0  0  0  0
  9 10  2  0  0  0  0
 10 12  1  0  0  0  0
 11 14  1  0  0  0  0
 11 15  1  0  0  0  0
 12 16  2  0  0  0  0
 13 16  1  0  0  0  0
 14 15  1  0  0  0  0
 17 19  1  0  0  0  0
 17 20  2  0  0  0  0
 18 23  1  0  0  0  0
 18 24  1  0  0  0  0
 20 22  1  0  0  0  0
 21 22  2  0  0  0  0
 23 25  1  0  0  0  0
M  END
> <PUBCHEM_COMPOUND_ID_TYPE>
0

> <PUBCHEM_TOTAL_CHARGE>
0

> <PUBCHEM_SUBSTANCE_ID>
310939102

> <PUBCHEM_SUBSTANCE_VERSION>
1

> <PUBCHEM_EXT_DATASOURCE_NAME>
4488

> <PUBCHEM_EXT_DATASOURCE_REGID>
SCHEMBL16117023

> <PUBCHEM_SUBSTANCE_COMMENT>
InChI=1S/C19H23ClFN3O/c1-3-11(2)24-18(12-4-5-12)14-7-8-15(20)19(17(14)21)25-13-6-9-16(22)23-10-13/h6-12,18,24H,3-5H2,1-2H3,(H2,22,23)/t11?,18-/m1/s1
InChIKey=KKHMINQOMMMJLU-KKIBXBACSA-N

> <PUBCHEM_SUBSTANCE_SYNONYM>
SCHEMBL16117023

> <PUBCHEM_XREF_EXT_ID>
SCHEMBL16117023

> <PUBCHEM_EXT_DATASOURCE_URL>
https://www.surechembl.org/

> <PUBCHEM_EXT_SUBSTANCE_URL>
https://www.surechembl.org/chemical/SCHEMBL16117023

> <PUBCHEM_CID_ASSOCIATIONS>
117606461  1

> <PUBCHEM_COORDINATE_TYPE>
1
3

> <PUBCHEM_BONDANNOTATIONS>
8  4  5

$$$$
