310945716
  -OEChem-07211613022D

 36 41  0     0  0  0  0  0  0999 V2000
    2.6362   -2.5396    0.0000 Cl  0  0  0  0  0  0  0  0  0  0  0  0
    5.4172    1.9409    0.0000 O   0  0  0  0  0  0  0  0  0  0  0  0
   -3.3508    1.0911    0.0000 O   0  0  0  0  0  0  0  0  0  0  0  0
    1.6319   -0.3573    0.0000 N   0  0  0  0  0  0  0  0  0  0  0  0
    1.6319   -1.7478    0.0000 N   0  0  0  0  0  0  0  0  0  0  0  0
    0.1642   -1.9216    0.0000 N   0  0  0  0  0  0  0  0  0  0  0  0
   -5.4558    0.6663    0.0000 N   0  0  0  0  0  0  0  0  0  0  0  0
   -6.7304    0.3766    0.0000 N   0  0  0  0  0  0  0  0  0  0  0  0
    2.0954   -1.0333    0.0000 C   0  0  0  0  0  0  0  0  0  0  0  0
    0.8594   -0.6276    0.0000 C   0  0  0  0  0  0  0  0  0  0  0  0
    0.8401   -1.4774    0.0000 C   0  0  0  0  0  0  0  0  0  0  0  0
    2.9065   -1.0526    0.0000 C   0  0  0  0  0  0  0  0  0  0  0  0
   -0.5504   -0.6276    0.0000 C   0  0  0  0  0  0  0  0  0  0  0  0
    0.1448   -0.2028    0.0000 C   0  0  0  0  0  0  0  0  0  0  0  0
    3.3315   -1.7864    0.0000 C   0  0  0  0  0  0  0  0  0  0  0  0
    3.3315   -0.3187    0.0000 C   0  0  0  0  0  0  0  0  0  0  0  0
   -1.2649   -0.2028    0.0000 C   0  0  0  0  0  0  0  0  0  0  0  0
   -0.5504   -1.4774    0.0000 C   0  0  0  0  0  0  0  0  0  0  0  0
    4.1233   -0.3380    0.0000 C   0  0  0  0  0  0  0  0  0  0  0  0
    4.1426   -1.8057    0.0000 C   0  0  0  0  0  0  0  0  0  0  0  0
    4.5095   -1.0139    0.0000 C   0  0  0  0  0  0  0  0  0  0  0  0
   -1.9409   -0.6083    0.0000 C   0  0  0  0  0  0  0  0  0  0  0  0
   -1.2456    0.6470    0.0000 C   0  0  0  0  0  0  0  0  0  0  0  0
    5.3785    0.4731    0.0000 C   0  0  0  0  0  0  0  0  0  0  0  0
   -2.6362    0.6663    0.0000 C   0  0  0  0  0  0  0  0  0  0  0  0
    5.7262    1.2071    0.0000 C   0  0  0  0  0  0  0  0  0  0  0  0
   -2.6362   -0.2028    0.0000 C   0  0  0  0  0  0  0  0  0  0  0  0
   -1.9409    1.0718    0.0000 C   0  0  0  0  0  0  0  0  0  0  0  0
    6.5373    1.2649    0.0000 C   0  0  0  0  0  0  0  0  0  0  0  0
    6.0352    2.5396    0.0000 C   0  0  0  0  0  0  0  0  0  0  0  0
    6.7304    2.0954    0.0000 C   0  0  0  0  0  0  0  0  0  0  0  0
   -4.0267    0.6663    0.0000 C   0  0  0  0  0  0  0  0  0  0  0  0
   -4.7606    1.0718    0.0000 C   0  0  0  0  0  0  0  0  0  0  0  0
   -6.1704    1.0139    0.0000 C   0  0  0  0  0  0  0  0  0  0  0  0
   -5.5330   -0.2028    0.0000 C   0  0  0  0  0  0  0  0  0  0  0  0
   -6.3056   -0.3573    0.0000 C   0  0  0  0  0  0  0  0  0  0  0  0
  1 15  1  0  0  0  0
  2 26  1  0  0  0  0
  2 30  1  0  0  0  0
  3 25  1  0  0  0  0
  3 32  1  0  0  0  0
  4  9  1  0  0  0  0
  4 10  1  0  0  0  0
  5  9  2  0  0  0  0
  5 11  1  0  0  0  0
  6 11  2  0  0  0  0
  6 18  1  0  0  0  0
  7 33  1  0  0  0  0
  7 34  1  0  0  0  0
  7 35  1  0  0  0  0
  8 34  2  0  0  0  0
  8 36  1  0  0  0  0
  9 12  1  0  0  0  0
 10 11  1  0  0  0  0
 10 14  2  0  0  0  0
 12 15  1  0  0  0  0
 12 16  2  0  0  0  0
 13 14  1  0  0  0  0
 13 17  1  0  0  0  0
 13 18  2  0  0  0  0
 15 20  2  0  0  0  0
 16 19  1  0  0  0  0
 17 22  2  0  0  0  0
 17 23  1  0  0  0  0
 19 21  2  0  0  0  0
 19 24  1  0  0  0  0
 20 21  1  0  0  0  0
 22 27  1  0  0  0  0
 23 28  2  0  0  0  0
 24 26  1  0  0  0  0
 25 27  2  0  0  0  0
 25 28  1  0  0  0  0
 26 29  2  0  0  0  0
 29 31  1  0  0  0  0
 30 31  2  0  0  0  0
 32 33  1  0  0  0  0
 35 36  2  0  0  0  0
M  END
> <PUBCHEM_COMPOUND_ID_TYPE>
0

> <PUBCHEM_TOTAL_CHARGE>
0

> <PUBCHEM_SUBSTANCE_ID>
310945716

> <PUBCHEM_SUBSTANCE_VERSION>
1

> <PUBCHEM_EXT_DATASOURCE_NAME>
4488

> <PUBCHEM_EXT_DATASOURCE_REGID>
SCHEMBL16123820

> <PUBCHEM_SUBSTANCE_COMMENT>
InChI=1S/C28H22ClN5O2/c29-25-8-3-19(14-23-2-1-12-35-23)15-24(25)27-32-26-16-21(17-31-28(26)33-27)20-4-6-22(7-5-20)36-13-11-34-10-9-30-18-34/h1-10,12,15-18H,11,13-14H2,(H,31,32,33)
InChIKey=DYPUSVDTOHEVCE-UHFFFAOYSA-N

> <PUBCHEM_SUBSTANCE_SYNONYM>
SCHEMBL16123820

> <PUBCHEM_XREF_EXT_ID>
SCHEMBL16123820

> <PUBCHEM_EXT_DATASOURCE_URL>
https://www.surechembl.org/

> <PUBCHEM_EXT_SUBSTANCE_URL>
https://www.surechembl.org/chemical/SCHEMBL16123820

> <PUBCHEM_CID_ASSOCIATIONS>
117611713  1

> <PUBCHEM_COORDINATE_TYPE>
1
3

> <PUBCHEM_BONDANNOTATIONS>
24  19  3

$$$$
