310942624
  -OEChem-07211613022D

 67 72  0     1  0  0  0  0  0999 V2000
   -4.7367    2.9084    0.0000 F   0  0  0  0  0  0  0  0  0  0  0  0
   -4.7367   -0.4252    0.0000 F   0  0  0  0  0  0  0  0  0  0  0  0
    2.3386    0.6803    0.0000 O   0  0  0  0  0  0  0  0  0  0  0  0
   -1.9474    0.7654    0.0000 O   0  0  0  0  0  0  0  0  0  0  0  0
    0.6548    3.9798    0.0000 O   0  0  0  0  0  0  0  0  0  0  0  0
    4.4058    0.9860    0.0000 O   0  0  0  0  0  0  0  0  0  0  0  0
    3.9016    0.1570    0.0000 O   0  0  0  0  0  0  0  0  0  0  0  0
    3.7673    0.6803    0.0000 O   0  0  0  0  0  0  0  0  0  0  0  0
   -2.3556   -1.3946    0.0000 O   0  0  0  0  0  0  0  0  0  0  0  0
    3.9373   -2.3471    0.0000 O   0  0  0  0  0  0  0  0  0  0  0  0
   -2.3046   -2.8063    0.0000 O   0  0  0  0  0  0  0  0  0  0  0  0
    2.6107   -4.3711    0.0000 O   0  0  0  0  0  0  0  0  0  0  0  0
    5.4341   -5.1364    0.0000 O   0  0  0  0  0  0  0  0  0  0  0  0
   -2.2876    2.9764    0.0000 N   0  0  0  0  0  0  0  0  0  0  0  0
   -0.6888    1.4967    0.0000 N   0  0  0  0  0  0  0  0  0  0  0  0
   -2.5597    1.6497    0.0000 N   0  0  0  0  0  0  0  0  0  0  0  0
    2.3556    2.8234    0.0000 N   0  0  0  0  0  0  0  0  0  0  0  0
   -0.6888    0.0510    0.0000 N   0  0  0  0  0  0  0  0  0  0  0  0
    2.8318   -0.5272    0.0000 N   0  0  0  0  0  0  0  0  0  0  0  0
    4.0904   -4.5241    0.0000 N   0  0  0  0  0  0  0  0  0  0  0  0
   -1.9644    2.2450    0.0000 C   0  0  0  0  0  0  0  0  0  0  0  0
   -1.1140    2.2110    0.0000 C   0  0  3  0  0  0  0  0  0  0  0  0
   -3.3080    2.0920    0.0000 C   0  0  0  0  0  0  0  0  0  0  0  0
   -0.5358    2.8234    0.0000 C   0  0  0  0  0  0  0  0  0  0  0  0
   -3.1040    2.8913    0.0000 C   0  0  0  0  0  0  0  0  0  0  0  0
   -4.0054    1.6668    0.0000 C   0  0  0  0  0  0  0  0  0  0  0  0
    0.5527    1.4967    0.0000 C   0  0  0  0  0  0  0  0  0  0  0  0
    1.3862    1.8879    0.0000 C   0  0  3  0  0  0  0  0  0  0  0  0
   -1.0970    0.7823    0.0000 C   0  0  0  0  0  0  0  0  0  0  0  0
   -1.8624    3.8948    0.0000 C   0  0  0  0  0  0  0  0  0  0  0  0
    2.1004    1.4967    0.0000 C   0  0  3  0  0  0  0  0  0  0  0  0
   -4.7367    2.0749    0.0000 C   0  0  0  0  0  0  0  0  0  0  0  0
    1.5392    2.7043    0.0000 C   0  0  0  0  0  0  0  0  0  0  0  0
   -0.7399    3.6057    0.0000 C   0  0  0  0  0  0  0  0  0  0  0  0
    0.2637    2.5852    0.0000 C   0  0  0  0  0  0  0  0  0  0  0  0
   -4.0224    0.8334    0.0000 C   0  0  0  0  0  0  0  0  0  0  0  0
    2.7128    2.0749    0.0000 C   0  0  0  0  0  0  0  0  0  0  0  0
   -2.4747    4.5071    0.0000 C   0  0  0  0  0  0  0  0  0  0  0  0
    3.9016    0.6947    0.0000 C   0  0  0  0  0  0  0  0  0  0  0  0
   -4.7197    0.4252    0.0000 C   0  0  0  0  0  0  0  0  0  0  0  0
   -5.4341    1.6668    0.0000 C   0  0  0  0  0  0  0  0  0  0  0  0
   -0.1616    4.2010    0.0000 C   0  0  0  0  0  0  0  0  0  0  0  0
    0.8589    3.1805    0.0000 C   0  0  0  0  0  0  0  0  0  0  0  0
   -5.4341    0.8334    0.0000 C   0  0  0  0  0  0  0  0  0  0  0  0
   -1.1140   -0.6633    0.0000 C   0  0  3  0  0  0  0  0  0  0  0  0
   -2.2365    5.2895    0.0000 C   0  0  0  0  0  0  0  0  0  0  0  0
   -3.2570    4.3030    0.0000 C   0  0  0  0  0  0  0  0  0  0  0  0
    3.0189    0.2721    0.0000 C   0  0  0  0  0  0  0  0  0  0  0  0
    4.4170    1.5462    0.0000 C   0  0  0  0  0  0  0  0  0  0  0  0
   -2.8148    5.8677    0.0000 C   0  0  0  0  0  0  0  0  0  0  0  0
   -3.8353    4.8643    0.0000 C   0  0  0  0  0  0  0  0  0  0  0  0
   -1.9474   -0.6633    0.0000 C   0  0  0  0  0  0  0  0  0  0  0  0
   -3.6142    5.6637    0.0000 C   0  0  0  0  0  0  0  0  0  0  0  0
   -0.7228   -1.3607    0.0000 C   0  0  0  0  0  0  0  0  0  0  0  0
    4.9212    1.5686    0.0000 C   0  0  0  0  0  0  0  0  0  0  0  0
    3.9016    1.5462    0.0000 C   0  0  0  0  0  0  0  0  0  0  0  0
    4.4058    2.0951    0.0000 C   0  0  0  0  0  0  0  0  0  0  0  0
    3.5462   -0.9355    0.0000 C   0  0  0  0  0  0  0  0  0  0  0  0
   -1.9134   -2.1260    0.0000 C   0  0  0  0  0  0  0  0  0  0  0  0
    3.3420   -1.7518    0.0000 C   0  0  0  0  0  0  0  0  0  0  0  0
    3.3251   -4.8302    0.0000 C   0  0  0  0  0  0  0  0  0  0  0  0
    4.5667   -5.1534    0.0000 C   0  0  0  0  0  0  0  0  0  0  0  0
    3.3420   -5.6466    0.0000 C   0  0  0  0  0  0  0  0  0  0  0  0
    4.1584   -5.8677    0.0000 C   0  0  0  0  0  0  0  0  0  0  0  0
    4.2945   -3.7248    0.0000 C   0  0  0  0  0  0  0  0  0  0  0  0
    3.7163   -3.1465    0.0000 C   0  0  0  0  0  0  0  0  0  0  0  0
   -1.0970   -2.1090    0.0000 C   0  0  0  0  0  0  0  0  0  0  0  0
  1 32  1  0  0  0  0
  2 40  1  0  0  0  0
 31  3  1  1  0  0  0
  3 48  1  0  0  0  0
  4 29  2  0  0  0  0
  5 42  1  0  0  0  0
  5 43  1  0  0  0  0
  6 39  1  0  0  0  0
  6 49  1  0  0  0  0
  7 39  2  0  0  0  0
  8 48  2  0  0  0  0
  9 52  1  0  0  0  0
  9 59  1  0  0  0  0
 10 60  1  0  0  0  0
 10 66  1  0  0  0  0
 11 59  2  0  0  0  0
 12 61  2  0  0  0  0
 13 62  2  0  0  0  0
 14 21  1  0  0  0  0
 14 25  1  0  0  0  0
 14 30  1  0  0  0  0
 22 15  1  1  0  0  0
 15 27  1  0  0  0  0
 15 29  1  0  0  0  0
 16 21  2  0  0  0  0
 16 23  1  0  0  0  0
 17 33  1  0  0  0  0
 17 37  1  0  0  0  0
 17 39  1  0  0  0  0
 18 29  1  0  0  0  0
 18 45  1  0  0  0  0
 19 48  1  0  0  0  0
 19 58  1  0  0  0  0
 20 61  1  0  0  0  0
 20 62  1  0  0  0  0
 20 65  1  0  0  0  0
 21 22  1  0  0  0  0
 22 24  1  0  0  0  0
 23 25  2  0  0  0  0
 23 26  1  0  0  0  0
 24 34  1  0  0  0  0
 24 35  1  0  0  0  0
 26 32  2  0  0  0  0
 26 36  1  0  0  0  0
 28 27  1  6  0  0  0
 28 31  1  0  0  0  0
 28 33  1  0  0  0  0
 30 38  1  0  0  0  0
 31 37  1  0  0  0  0
 32 41  1  0  0  0  0
 34 42  1  0  0  0  0
 35 43  1  0  0  0  0
 36 40  2  0  0  0  0
 38 46  2  0  0  0  0
 38 47  1  0  0  0  0
 40 44  1  0  0  0  0
 41 44  2  0  0  0  0
 45 52  1  0  0  0  0
 45 54  1  6  0  0  0
 46 50  1  0  0  0  0
 47 51  2  0  0  0  0
 49 55  1  0  0  0  0
 49 56  1  0  0  0  0
 49 57  1  0  0  0  0
 50 53  2  0  0  0  0
 51 53  1  0  0  0  0
 58 60  1  0  0  0  0
 59 67  1  0  0  0  0
 61 63  1  0  0  0  0
 62 64  1  0  0  0  0
 63 64  2  0  0  0  0
 65 66  1  0  0  0  0
M  END
> <PUBCHEM_COMPOUND_ID_TYPE>
0

> <PUBCHEM_TOTAL_CHARGE>
0

> <PUBCHEM_SUBSTANCE_ID>
310942624

> <PUBCHEM_SUBSTANCE_VERSION>
1

> <PUBCHEM_EXT_DATASOURCE_NAME>
4488

> <PUBCHEM_EXT_DATASOURCE_REGID>
SCHEMBL16120670

> <PUBCHEM_SUBSTANCE_COMMENT>
InChI=1S/C47H59F2N7O11/c1-30(29-65-31(2)57)51-44(60)56(26-34-25-54(46(62)67-47(3,4)5)28-39(34)66-45(61)50-17-21-64-22-18-55-40(58)13-14-41(55)59)42(33-15-19-63-20-16-33)43-52-38(36-23-35(48)11-12-37(36)49)27-53(43)24-32-9-7-6-8-10-32/h6-14,23,27,30,33-34,39,42H,15-22,24-26,28-29H2,1-5H3,(H,50,61)(H,51,60)/t30-,34+,39-,42-/m1/s1
InChIKey=JFSIZVWHXVDHPI-SZUYMASOSA-N

> <PUBCHEM_SUBSTANCE_SYNONYM>
SCHEMBL16120670

> <PUBCHEM_XREF_EXT_ID>
SCHEMBL16120670

> <PUBCHEM_EXT_DATASOURCE_URL>
https://www.surechembl.org/

> <PUBCHEM_EXT_SUBSTANCE_URL>
https://www.surechembl.org/chemical/SCHEMBL16120670

> <PUBCHEM_CID_ASSOCIATIONS>
117609156  1

> <PUBCHEM_COORDINATE_TYPE>
1
3

> <PUBCHEM_BONDANNOTATIONS>
22  15  5
28  27  6
31  3  5
45  54  6

$$$$
