310945498
  -OEChem-07211613022D

 23 25  0     0  0  0  0  0  0999 V2000
   -2.4033    1.7511    0.0000 O   0  0  0  0  0  0  0  0  0  0  0  0
    0.4250    1.0038    0.0000 N   0  0  0  0  0  0  0  0  0  0  0  0
    2.4472    1.9271    0.0000 N   0  0  0  0  0  0  0  0  0  0  0  0
   -1.0258   -1.6486    0.0000 N   0  0  0  0  0  0  0  0  0  0  0  0
    1.0844    1.5020    0.0000 C   0  0  0  0  0  0  0  0  0  0  0  0
    0.8353    2.2788    0.0000 C   0  0  0  0  0  0  0  0  0  0  0  0
   -0.2785    1.5020    0.0000 C   0  0  0  0  0  0  0  0  0  0  0  0
    0.0000    2.2935    0.0000 C   0  0  0  0  0  0  0  0  0  0  0  0
    1.9051    1.3116    0.0000 C   0  0  0  0  0  0  0  0  0  0  0  0
   -1.0551    1.3263    0.0000 C   0  0  0  0  0  0  0  0  0  0  0  0
    1.3921    2.8943    0.0000 C   0  0  0  0  0  0  0  0  0  0  0  0
   -0.5422    2.8796    0.0000 C   0  0  0  0  0  0  0  0  0  0  0  0
    0.4104    0.0073    0.0000 C   0  0  0  0  0  0  0  0  0  0  0  0
   -1.6119    1.9417    0.0000 C   0  0  0  0  0  0  0  0  0  0  0  0
   -1.3483    2.7183    0.0000 C   0  0  0  0  0  0  0  0  0  0  0  0
    2.1982    2.7183    0.0000 C   0  0  0  0  0  0  0  0  0  0  0  0
    2.2128    0.4324    0.0000 C   0  0  0  0  0  0  0  0  0  0  0  0
   -0.2932   -0.4031    0.0000 C   0  0  0  0  0  0  0  0  0  0  0  0
   -0.3078   -1.2383    0.0000 C   0  0  0  0  0  0  0  0  0  0  0  0
   -1.0258   -2.4692    0.0000 C   0  0  0  0  0  0  0  0  0  0  0  0
   -1.7438   -1.2383    0.0000 C   0  0  0  0  0  0  0  0  0  0  0  0
   -1.7292   -2.8943    0.0000 C   0  0  0  0  0  0  0  0  0  0  0  0
   -2.4472   -1.6632    0.0000 C   0  0  0  0  0  0  0  0  0  0  0  0
  1 14  1  0  0  0  0
  2  5  1  0  0  0  0
  2  7  1  0  0  0  0
  2 13  1  0  0  0  0
  3  9  2  0  0  0  0
  3 16  1  0  0  0  0
  4 19  1  0  0  0  0
  4 20  1  0  0  0  0
  4 21  1  0  0  0  0
  5  6  2  0  0  0  0
  5  9  1  0  0  0  0
  6  8  1  0  0  0  0
  6 11  1  0  0  0  0
  7  8  2  0  0  0  0
  7 10  1  0  0  0  0
  8 12  1  0  0  0  0
  9 17  1  0  0  0  0
 10 14  2  0  0  0  0
 11 16  2  0  0  0  0
 12 15  2  0  0  0  0
 13 18  1  0  0  0  0
 14 15  1  0  0  0  0
 18 19  1  0  0  0  0
 20 22  1  0  0  0  0
 21 23  1  0  0  0  0
M  END
> <PUBCHEM_COMPOUND_ID_TYPE>
0

> <PUBCHEM_TOTAL_CHARGE>
0

> <PUBCHEM_SUBSTANCE_ID>
310945498

> <PUBCHEM_SUBSTANCE_VERSION>
1

> <PUBCHEM_EXT_DATASOURCE_NAME>
4488

> <PUBCHEM_EXT_DATASOURCE_REGID>
SCHEMBL16123596

> <PUBCHEM_SUBSTANCE_COMMENT>
InChI=1S/C19H25N3O/c1-4-21(5-2)11-6-12-22-18-13-15(23)7-8-16(18)17-9-10-20-14(3)19(17)22/h7-10,13,23H,4-6,11-12H2,1-3H3
InChIKey=LBCRYUDAOLXQCG-UHFFFAOYSA-N

> <PUBCHEM_SUBSTANCE_SYNONYM>
SCHEMBL16123596

> <PUBCHEM_XREF_EXT_ID>
SCHEMBL16123596

> <PUBCHEM_EXT_DATASOURCE_URL>
https://www.surechembl.org/

> <PUBCHEM_EXT_SUBSTANCE_URL>
https://www.surechembl.org/chemical/SCHEMBL16123596

> <PUBCHEM_CID_ASSOCIATIONS>
117611541  1

> <PUBCHEM_COORDINATE_TYPE>
1
3

$$$$
