310940916
  -OEChem-07211613022D

 10 11  0     0  0  0  0  0  0999 V2000
    1.7216   -0.1539    0.0000 I   0  0  0  0  0  0  0  0  0  0  0  0
   -1.7216    1.1058    0.0000 O   0  0  0  0  0  0  0  0  0  0  0  0
    1.0638   -1.3437    0.0000 O   0  0  0  0  0  0  0  0  0  0  0  0
   -0.6859    0.5319    0.0000 C   0  0  0  0  0  0  0  0  0  0  0  0
    0.3079   -0.0420    0.0000 C   0  0  0  0  0  0  0  0  0  0  0  0
   -0.4619   -0.2660    0.0000 C   0  0  0  0  0  0  0  0  0  0  0  0
    0.1120    0.7418    0.0000 C   0  0  0  0  0  0  0  0  0  0  0  0
   -1.4837    0.3359    0.0000 C   0  0  0  0  0  0  0  0  0  0  0  0
   -0.9238    1.3437    0.0000 C   0  0  0  0  0  0  0  0  0  0  0  0
    1.0777   -0.4479    0.0000 C   0  0  0  0  0  0  0  0  0  0  0  0
  1 10  1  0  0  0  0
  2  8  1  0  0  0  0
  2  9  1  0  0  0  0
  3 10  2  0  0  0  0
  4  6  1  0  0  0  0
  4  7  1  0  0  0  0
  4  8  1  0  0  0  0
  4  9  1  0  0  0  0
  5  6  1  0  0  0  0
  5  7  1  0  0  0  0
  5 10  1  0  0  0  0
M  END
> <PUBCHEM_COMPOUND_ID_TYPE>
0

> <PUBCHEM_TOTAL_CHARGE>
0

> <PUBCHEM_SUBSTANCE_ID>
310940916

> <PUBCHEM_SUBSTANCE_VERSION>
1

> <PUBCHEM_EXT_DATASOURCE_NAME>
4488

> <PUBCHEM_EXT_DATASOURCE_REGID>
SCHEMBL16118875

> <PUBCHEM_SUBSTANCE_COMMENT>
InChI=1S/C7H9IO2/c8-6(9)5-1-7(2-5)3-10-4-7/h5H,1-4H2
InChIKey=OATZIABTXJISFQ-UHFFFAOYSA-N

> <PUBCHEM_SUBSTANCE_SYNONYM>
SCHEMBL16118875

> <PUBCHEM_XREF_EXT_ID>
SCHEMBL16118875

> <PUBCHEM_EXT_DATASOURCE_URL>
https://www.surechembl.org/

> <PUBCHEM_EXT_SUBSTANCE_URL>
https://www.surechembl.org/chemical/SCHEMBL16118875

> <PUBCHEM_CID_ASSOCIATIONS>
117607825  1

> <PUBCHEM_COORDINATE_TYPE>
1
3

$$$$
