310940582
  -OEChem-07211613022D

 27 30  0     0  0  0  0  0  0999 V2000
    0.6291    2.2068    0.0000 F   0  0  0  0  0  0  0  0  0  0  0  0
    0.9384    1.1343    0.0000 F   0  0  0  0  0  0  0  0  0  0  0  0
   -0.1134    0.8456    0.0000 F   0  0  0  0  0  0  0  0  0  0  0  0
    0.4434   -3.1762    0.0000 O   0  0  0  0  0  0  0  0  0  0  0  0
   -1.8871   -2.2068    0.0000 O   0  0  0  0  0  0  0  0  0  0  0  0
   -1.1859   -0.9487    0.0000 N   0  0  0  0  0  0  0  0  0  0  0  0
   -0.3609   -3.0112    0.0000 N   0  0  0  0  0  0  0  0  0  0  0  0
   -0.4641   -2.2068    0.0000 C   0  0  0  0  0  0  0  0  0  0  0  0
    0.2784   -1.8356    0.0000 C   0  0  0  0  0  0  0  0  0  0  0  0
   -1.1653   -1.7530    0.0000 C   0  0  0  0  0  0  0  0  0  0  0  0
   -1.1653    1.5468    0.0000 C   0  0  0  0  0  0  0  0  0  0  0  0
    0.8353   -2.4337    0.0000 C   0  0  0  0  0  0  0  0  0  0  0  0
   -0.4847    1.9593    0.0000 C   0  0  0  0  0  0  0  0  0  0  0  0
   -1.1859    0.7219    0.0000 C   0  0  0  0  0  0  0  0  0  0  0  0
    0.2372    1.5262    0.0000 C   0  0  0  0  0  0  0  0  0  0  0  0
   -0.4847   -0.5362    0.0000 C   0  0  0  0  0  0  0  0  0  0  0  0
   -1.8871   -0.5569    0.0000 C   0  0  0  0  0  0  0  0  0  0  0  0
    0.5465   -1.0518    0.0000 C   0  0  0  0  0  0  0  0  0  0  0  0
   -0.4641    0.2888    0.0000 C   0  0  0  0  0  0  0  0  0  0  0  0
   -1.8871    0.2681    0.0000 C   0  0  0  0  0  0  0  0  0  0  0  0
    1.6396   -2.2893    0.0000 C   0  0  0  0  0  0  0  0  0  0  0  0
   -1.8871    1.9387    0.0000 C   0  0  0  0  0  0  0  0  0  0  0  0
   -0.4847    2.7637    0.0000 C   0  0  0  0  0  0  0  0  0  0  0  0
    1.3303   -0.8869    0.0000 C   0  0  0  0  0  0  0  0  0  0  0  0
    1.8871   -1.5056    0.0000 C   0  0  0  0  0  0  0  0  0  0  0  0
   -1.8871    2.7637    0.0000 C   0  0  0  0  0  0  0  0  0  0  0  0
   -1.2065    3.1762    0.0000 C   0  0  0  0  0  0  0  0  0  0  0  0
  1 15  1  0  0  0  0
  2 15  1  0  0  0  0
  3 15  1  0  0  0  0
  4  7  1  0  0  0  0
  4 12  1  0  0  0  0
  5 10  2  0  0  0  0
  6 10  1  0  0  0  0
  6 16  1  0  0  0  0
  6 17  1  0  0  0  0
  7  8  2  0  0  0  0
  8  9  1  0  0  0  0
  8 10  1  0  0  0  0
  9 12  2  0  0  0  0
  9 18  1  0  0  0  0
 11 13  2  0  0  0  0
 11 14  1  0  0  0  0
 11 22  1  0  0  0  0
 12 21  1  0  0  0  0
 13 15  1  0  0  0  0
 13 23  1  0  0  0  0
 14 19  1  0  0  0  0
 14 20  1  0  0  0  0
 16 19  1  0  0  0  0
 17 20  1  0  0  0  0
 18 24  2  0  0  0  0
 21 25  2  0  0  0  0
 22 26  2  0  0  0  0
 23 27  2  0  0  0  0
 24 25  1  0  0  0  0
 26 27  1  0  0  0  0
M  END
> <PUBCHEM_COMPOUND_ID_TYPE>
0

> <PUBCHEM_TOTAL_CHARGE>
0

> <PUBCHEM_SUBSTANCE_ID>
310940582

> <PUBCHEM_SUBSTANCE_VERSION>
1

> <PUBCHEM_EXT_DATASOURCE_NAME>
4488

> <PUBCHEM_EXT_DATASOURCE_REGID>
SCHEMBL16118536

> <PUBCHEM_SUBSTANCE_COMMENT>
InChI=1S/C20H17F3N2O2/c21-20(22,23)16-7-3-1-5-14(16)13-9-11-25(12-10-13)19(26)18-15-6-2-4-8-17(15)27-24-18/h1-8,13H,9-12H2
InChIKey=YSTBJEKEULXPGL-UHFFFAOYSA-N

> <PUBCHEM_SUBSTANCE_SYNONYM>
SCHEMBL16118536

> <PUBCHEM_XREF_EXT_ID>
SCHEMBL16118536

> <PUBCHEM_EXT_DATASOURCE_URL>
https://www.surechembl.org/

> <PUBCHEM_EXT_SUBSTANCE_URL>
https://www.surechembl.org/chemical/SCHEMBL16118536

> <PUBCHEM_CID_ASSOCIATIONS>
117607574  1

> <PUBCHEM_COORDINATE_TYPE>
1
3

$$$$
