310943277
  -OEChem-07211613022D

 11 10  0     0  0  0  0  0  0999 V2000
   -0.2818   -0.2818    0.0000 O   0  0  0  0  0  0  0  0  0  0  0  0
    0.6899    0.7677    0.0000 O   0  0  0  0  0  0  0  0  0  0  0  0
   -0.7094    1.0786    0.0000 O   0  0  0  0  0  0  0  0  0  0  0  0
   -0.0874    0.5150    0.0000 C   0  0  0  0  0  0  0  0  0  0  0  0
   -1.0397   -0.5344    0.0000 C   0  0  0  0  0  0  0  0  0  0  0  0
    1.2924    0.2041    0.0000 C   0  0  0  0  0  0  0  0  0  0  0  0
   -1.4867    0.8259    0.0000 C   0  0  0  0  0  0  0  0  0  0  0  0
   -1.2535   -1.3312    0.0000 C   0  0  0  0  0  0  0  0  0  0  0  0
    2.1087    0.4567    0.0000 C   0  0  0  0  0  0  0  0  0  0  0  0
   -2.1086    1.3507    0.0000 C   0  0  0  0  0  0  0  0  0  0  0  0
    1.6617   -1.3507    0.0000 C   0  0  0  0  0  0  0  0  0  0  0  0
  1  4  1  0  0  0  0
  1  5  1  0  0  0  0
  2  4  1  0  0  0  0
  2  6  1  0  0  0  0
  3  4  1  0  0  0  0
  3  7  1  0  0  0  0
  5  8  1  0  0  0  0
  6  9  1  0  0  0  0
  7 10  1  0  0  0  0
  8 11  1  0  0  0  0
M  END
> <PUBCHEM_COMPOUND_ID_TYPE>
0

> <PUBCHEM_TOTAL_CHARGE>
0

> <PUBCHEM_SUBSTANCE_ID>
310943277

> <PUBCHEM_SUBSTANCE_VERSION>
1

> <PUBCHEM_EXT_DATASOURCE_NAME>
4488

> <PUBCHEM_EXT_DATASOURCE_REGID>
SCHEMBL16121339

> <PUBCHEM_SUBSTANCE_COMMENT>
InChI=1S/C8H18O3/c1-4-7-11-8(9-5-2)10-6-3/h8H,4-7H2,1-3H3
InChIKey=BKCLBCGNDDALMO-UHFFFAOYSA-N

> <PUBCHEM_SUBSTANCE_SYNONYM>
SCHEMBL16121339

> <PUBCHEM_XREF_EXT_ID>
SCHEMBL16121339

> <PUBCHEM_EXT_DATASOURCE_URL>
https://www.surechembl.org/

> <PUBCHEM_EXT_SUBSTANCE_URL>
https://www.surechembl.org/chemical/SCHEMBL16121339

> <PUBCHEM_CID_ASSOCIATIONS>
117609702  1

> <PUBCHEM_COORDINATE_TYPE>
1
3

$$$$
