310945418
  -OEChem-07211613022D

 30 33  0     0  0  0  0  0  0999 V2000
   -2.4192    2.4777    0.0000 O   0  0  0  0  0  0  0  0  0  0  0  0
    0.3582   -3.3110    0.0000 O   0  0  0  0  0  0  0  0  0  0  0  0
   -1.0744   -3.1940    0.0000 O   0  0  0  0  0  0  0  0  0  0  0  0
    0.4020    1.7322    0.0000 N   0  0  0  0  0  0  0  0  0  0  0  0
    2.4192    2.6531    0.0000 N   0  0  0  0  0  0  0  0  0  0  0  0
   -0.3582   -0.3582    0.0000 N   0  0  0  0  0  0  0  0  0  0  0  0
   -0.3582   -1.9953    0.0000 N   0  0  0  0  0  0  0  0  0  0  0  0
    1.0598    2.2439    0.0000 C   0  0  0  0  0  0  0  0  0  0  0  0
    0.8113    3.0040    0.0000 C   0  0  0  0  0  0  0  0  0  0  0  0
   -0.2997    2.2292    0.0000 C   0  0  0  0  0  0  0  0  0  0  0  0
   -0.0073    3.0185    0.0000 C   0  0  0  0  0  0  0  0  0  0  0  0
    1.8784    2.0392    0.0000 C   0  0  0  0  0  0  0  0  0  0  0  0
   -1.0744    2.0538    0.0000 C   0  0  0  0  0  0  0  0  0  0  0  0
    1.3668    3.6179    0.0000 C   0  0  0  0  0  0  0  0  0  0  0  0
   -0.5628    3.6033    0.0000 C   0  0  0  0  0  0  0  0  0  0  0  0
    0.3874    0.8843    0.0000 C   0  0  0  0  0  0  0  0  0  0  0  0
   -1.6152    2.6531    0.0000 C   0  0  0  0  0  0  0  0  0  0  0  0
   -1.3668    3.4425    0.0000 C   0  0  0  0  0  0  0  0  0  0  0  0
    2.1854    3.4279    0.0000 C   0  0  0  0  0  0  0  0  0  0  0  0
   -0.3435    0.4751    0.0000 C   0  0  0  0  0  0  0  0  0  0  0  0
    2.2000    1.1621    0.0000 C   0  0  0  0  0  0  0  0  0  0  0  0
    0.3582   -0.7674    0.0000 C   0  0  0  0  0  0  0  0  0  0  0  0
   -1.0744   -0.7674    0.0000 C   0  0  0  0  0  0  0  0  0  0  0  0
   -0.3582   -2.8285    0.0000 C   0  0  0  0  0  0  0  0  0  0  0  0
    0.3435   -1.6007    0.0000 C   0  0  0  0  0  0  0  0  0  0  0  0
   -1.0744   -1.5860    0.0000 C   0  0  0  0  0  0  0  0  0  0  0  0
    1.1329   -2.9455    0.0000 C   0  0  0  0  0  0  0  0  0  0  0  0
    1.5130   -3.6179    0.0000 C   0  0  0  0  0  0  0  0  0  0  0  0
    0.7821   -2.2731    0.0000 C   0  0  0  0  0  0  0  0  0  0  0  0
    1.8784   -2.5654    0.0000 C   0  0  0  0  0  0  0  0  0  0  0  0
  1 17  1  0  0  0  0
  2 24  1  0  0  0  0
  2 27  1  0  0  0  0
  3 24  2  0  0  0  0
  4  8  1  0  0  0  0
  4 10  1  0  0  0  0
  4 16  1  0  0  0  0
  5 12  2  0  0  0  0
  5 19  1  0  0  0  0
  6 20  1  0  0  0  0
  6 22  1  0  0  0  0
  6 23  1  0  0  0  0
  7 24  1  0  0  0  0
  7 25  1  0  0  0  0
  7 26  1  0  0  0  0
  8  9  2  0  0  0  0
  8 12  1  0  0  0  0
  9 11  1  0  0  0  0
  9 14  1  0  0  0  0
 10 11  2  0  0  0  0
 10 13  1  0  0  0  0
 11 15  1  0  0  0  0
 12 21  1  0  0  0  0
 13 17  2  0  0  0  0
 14 19  2  0  0  0  0
 15 18  2  0  0  0  0
 16 20  1  0  0  0  0
 17 18  1  0  0  0  0
 22 25  1  0  0  0  0
 23 26  1  0  0  0  0
 27 28  1  0  0  0  0
 27 29  1  0  0  0  0
 27 30  1  0  0  0  0
M  END
> <PUBCHEM_COMPOUND_ID_TYPE>
0

> <PUBCHEM_TOTAL_CHARGE>
0

> <PUBCHEM_SUBSTANCE_ID>
310945418

> <PUBCHEM_SUBSTANCE_VERSION>
1

> <PUBCHEM_EXT_DATASOURCE_NAME>
4488

> <PUBCHEM_EXT_DATASOURCE_REGID>
SCHEMBL16123516

> <PUBCHEM_SUBSTANCE_COMMENT>
InChI=1S/C23H30N4O3/c1-16-21-19(7-8-24-16)18-6-5-17(28)15-20(18)27(21)14-11-25-9-12-26(13-10-25)22(29)30-23(2,3)4/h5-8,15,28H,9-14H2,1-4H3
InChIKey=LCSYXDGKKXSUJK-UHFFFAOYSA-N

> <PUBCHEM_SUBSTANCE_SYNONYM>
SCHEMBL16123516

> <PUBCHEM_XREF_EXT_ID>
SCHEMBL16123516

> <PUBCHEM_EXT_DATASOURCE_URL>
https://www.surechembl.org/

> <PUBCHEM_EXT_SUBSTANCE_URL>
https://www.surechembl.org/chemical/SCHEMBL16123516

> <PUBCHEM_CID_ASSOCIATIONS>
117611464  1

> <PUBCHEM_COORDINATE_TYPE>
1
3

$$$$
