310949596
  -OEChem-07211613022D

 28 32  0     1  0  0  0  0  0999 V2000
    0.6393   -3.0933    0.0000 Cl  0  0  0  0  0  0  0  0  0  0  0  0
   -0.5980    1.6085    0.0000 N   0  0  0  0  0  0  0  0  0  0  0  0
   -0.5980    2.9421    0.0000 N   0  0  0  0  0  0  0  0  0  0  0  0
    0.1581   -0.7424    0.0000 N   0  0  0  0  0  0  0  0  0  0  0  0
    1.9866    1.8422    0.0000 N   0  0  0  0  0  0  0  0  0  0  0  0
    2.2616   -2.6671    0.0000 N   0  0  0  0  0  0  0  0  0  0  0  0
   -0.1169    2.2822    0.0000 C   0  0  0  0  0  0  0  0  0  0  0  0
   -1.3816    1.8835    0.0000 C   0  0  0  0  0  0  0  0  0  0  0  0
   -1.3679    2.7084    0.0000 C   0  0  0  0  0  0  0  0  0  0  0  0
   -0.3643    0.8524    0.0000 C   0  0  0  0  0  0  0  0  0  0  0  0
    0.7218    2.2546    0.0000 C   0  0  3  0  0  0  0  0  0  0  0  0
   -2.0828    1.4710    0.0000 C   0  0  0  0  0  0  0  0  0  0  0  0
   -2.1103    3.0933    0.0000 C   0  0  0  0  0  0  0  0  0  0  0  0
   -0.8868    0.2337    0.0000 C   0  0  0  0  0  0  0  0  0  0  0  0
    0.4468    0.6461    0.0000 C   0  0  0  0  0  0  0  0  0  0  0  0
    1.2167    1.6085    0.0000 C   0  0  0  0  0  0  0  0  0  0  0  0
    1.1892    2.9421    0.0000 C   0  0  0  0  0  0  0  0  0  0  0  0
   -2.7977    1.8697    0.0000 C   0  0  0  0  0  0  0  0  0  0  0  0
   -0.6531   -0.5637    0.0000 C   0  0  0  0  0  0  0  0  0  0  0  0
    0.7080   -0.1375    0.0000 C   0  0  0  0  0  0  0  0  0  0  0  0
   -2.7977    2.6946    0.0000 C   0  0  0  0  0  0  0  0  0  0  0  0
    1.9866    2.6671    0.0000 C   0  0  0  0  0  0  0  0  0  0  0  0
    0.4193   -1.5261    0.0000 C   0  0  0  0  0  0  0  0  0  0  0  0
    1.1892   -1.7047    0.0000 C   0  0  0  0  0  0  0  0  0  0  0  0
    1.4504   -2.4747    0.0000 C   0  0  0  0  0  0  0  0  0  0  0  0
    1.7666   -1.0999    0.0000 C   0  0  0  0  0  0  0  0  0  0  0  0
    2.5777   -1.2786    0.0000 C   0  0  0  0  0  0  0  0  0  0  0  0
    2.7977   -2.0347    0.0000 C   0  0  0  0  0  0  0  0  0  0  0  0
  1 25  1  0  0  0  0
  2  7  1  0  0  0  0
  2  8  1  0  0  0  0
  2 10  1  0  0  0  0
  3  7  2  0  0  0  0
  3  9  1  0  0  0  0
  4 19  1  0  0  0  0
  4 20  1  0  0  0  0
  4 23  1  0  0  0  0
  5 16  1  0  0  0  0
  5 22  1  0  0  0  0
  6 25  2  0  0  0  0
  6 28  1  0  0  0  0
 11  7  1  6  0  0  0
  8  9  1  0  0  0  0
  8 12  2  0  0  0  0
  9 13  2  0  0  0  0
 10 14  1  0  0  0  0
 10 15  1  0  0  0  0
 11 16  1  0  0  0  0
 11 17  1  0  0  0  0
 12 18  1  0  0  0  0
 13 21  1  0  0  0  0
 14 19  1  0  0  0  0
 15 20  1  0  0  0  0
 17 22  1  0  0  0  0
 18 21  2  0  0  0  0
 23 24  1  0  0  0  0
 24 25  1  0  0  0  0
 24 26  2  0  0  0  0
 26 27  1  0  0  0  0
 27 28  2  0  0  0  0
M  END
> <PUBCHEM_COMPOUND_ID_TYPE>
0

> <PUBCHEM_TOTAL_CHARGE>
0

> <PUBCHEM_SUBSTANCE_ID>
310949596

> <PUBCHEM_SUBSTANCE_VERSION>
1

> <PUBCHEM_EXT_DATASOURCE_NAME>
4488

> <PUBCHEM_EXT_DATASOURCE_REGID>
SCHEMBL16127793

> <PUBCHEM_SUBSTANCE_COMMENT>
InChI=1S/C22H26ClN5/c23-21-17(4-3-10-25-21)15-27-12-8-18(9-13-27)28-20-6-2-1-5-19(20)26-22(28)16-7-11-24-14-16/h1-6,10,16,18,24H,7-9,11-15H2/t16-/m1/s1
InChIKey=ILXBELLIRYNWNX-MRXNPFEDSA-N

> <PUBCHEM_SUBSTANCE_SYNONYM>
SCHEMBL16127793

> <PUBCHEM_XREF_EXT_ID>
SCHEMBL16127793

> <PUBCHEM_EXT_DATASOURCE_URL>
https://www.surechembl.org/

> <PUBCHEM_EXT_SUBSTANCE_URL>
https://www.surechembl.org/chemical/SCHEMBL16127793

> <PUBCHEM_CID_ASSOCIATIONS>
86275727  1

> <PUBCHEM_COORDINATE_TYPE>
1
3

> <PUBCHEM_BONDANNOTATIONS>
11  7  6

$$$$
