310947412
  -OEChem-07211613022D

 19 21  0     0  0  0  0  0  0999 V2000
   -0.0348    0.5757    0.0000 N   0  0  0  0  0  0  0  0  0  0  0  0
    0.9477   -0.9234    0.0000 N   0  0  0  0  0  0  0  0  0  0  0  0
    2.0277   -0.1387    0.0000 N   0  0  0  0  0  0  0  0  0  0  0  0
   -1.6848    0.5757    0.0000 N   0  0  0  0  0  0  0  0  0  0  0  0
    1.6152   -1.4083    0.0000 N   0  0  0  0  0  0  0  0  0  0  0  0
    0.7902    0.5757    0.0000 C   0  0  0  0  0  0  0  0  0  0  0  0
   -0.4473    1.2902    0.0000 C   0  0  0  0  0  0  0  0  0  0  0  0
    1.2027   -0.1387    0.0000 C   0  0  0  0  0  0  0  0  0  0  0  0
   -1.2723    1.2902    0.0000 C   0  0  0  0  0  0  0  0  0  0  0  0
    1.2027    1.2902    0.0000 C   0  0  0  0  0  0  0  0  0  0  0  0
    0.7902    2.0047    0.0000 C   0  0  0  0  0  0  0  0  0  0  0  0
   -0.0348    2.0047    0.0000 C   0  0  0  0  0  0  0  0  0  0  0  0
   -1.6848    2.0047    0.0000 C   0  0  0  0  0  0  0  0  0  0  0  0
   -2.5098    2.0047    0.0000 C   0  0  0  0  0  0  0  0  0  0  0  0
    2.2826   -0.9234    0.0000 C   0  0  0  0  0  0  0  0  0  0  0  0
   -2.5098    0.5757    0.0000 C   0  0  0  0  0  0  0  0  0  0  0  0
   -2.9223    1.2902    0.0000 C   0  0  0  0  0  0  0  0  0  0  0  0
    1.2027    2.7192    0.0000 C   0  0  0  0  0  0  0  0  0  0  0  0
   -2.9223    2.7192    0.0000 C   0  0  0  0  0  0  0  0  0  0  0  0
  1  6  1  0  0  0  0
  1  7  2  0  0  0  0
  2  5  1  0  0  0  0
  2  8  2  0  0  0  0
  3  8  1  0  0  0  0
  3 15  1  0  0  0  0
  4  9  1  0  0  0  0
  4 16  2  0  0  0  0
  5 15  2  0  0  0  0
  6  8  1  0  0  0  0
  6 10  2  0  0  0  0
  7  9  1  0  0  0  0
  7 12  1  0  0  0  0
  9 13  2  0  0  0  0
 10 11  1  0  0  0  0
 11 12  2  0  0  0  0
 11 18  1  0  0  0  0
 13 14  1  0  0  0  0
 14 17  2  0  0  0  0
 14 19  1  0  0  0  0
 16 17  1  0  0  0  0
M  END
> <PUBCHEM_COMPOUND_ID_TYPE>
0

> <PUBCHEM_TOTAL_CHARGE>
0

> <PUBCHEM_SUBSTANCE_ID>
310947412

> <PUBCHEM_SUBSTANCE_VERSION>
1

> <PUBCHEM_EXT_DATASOURCE_NAME>
4488

> <PUBCHEM_EXT_DATASOURCE_REGID>
SCHEMBL16125569

> <PUBCHEM_SUBSTANCE_COMMENT>
InChI=1S/C14H13N5/c1-9-3-4-15-11(5-9)12-6-10(2)7-13(18-12)14-16-8-17-19-14/h3-8H,1-2H3,(H,16,17,19)
InChIKey=GQXQKBUHMWSBLE-UHFFFAOYSA-N

> <PUBCHEM_SUBSTANCE_SYNONYM>
SCHEMBL16125569

> <PUBCHEM_XREF_EXT_ID>
SCHEMBL16125569

> <PUBCHEM_EXT_DATASOURCE_URL>
https://www.surechembl.org/

> <PUBCHEM_EXT_SUBSTANCE_URL>
https://www.surechembl.org/chemical/SCHEMBL16125569

> <PUBCHEM_CID_ASSOCIATIONS>
117613148  1

> <PUBCHEM_COORDINATE_TYPE>
1
3

$$$$
