310944780
  -OEChem-07211613022D

 15 16  0     0  0  0  0  0  0999 V2000
    0.3113   -1.2828    0.0000 Cl  0  0  0  0  0  0  0  0  0  0  0  0
   -2.1297    1.2828    0.0000 S   0  0  0  0  0  0  0  0  0  0  0  0
    1.7312    1.2206    0.0000 O   0  0  0  0  0  0  0  0  0  0  0  0
    2.4535   -0.0249    0.0000 O   0  0  0  0  0  0  0  0  0  0  0  0
   -1.2953    1.1956    0.0000 N   0  0  0  0  0  0  0  0  0  0  0  0
   -2.4535    0.5231    0.0000 N   0  0  0  0  0  0  0  0  0  0  0  0
    0.3113    0.3861    0.0000 N   0  0  0  0  0  0  0  0  0  0  0  0
   -1.1458    0.3861    0.0000 C   0  0  0  0  0  0  0  0  0  0  0  0
   -0.4110   -0.0249    0.0000 C   0  0  0  0  0  0  0  0  0  0  0  0
   -1.8432   -0.0249    0.0000 C   0  0  0  0  0  0  0  0  0  0  0  0
   -0.4235   -0.8469    0.0000 C   0  0  0  0  0  0  0  0  0  0  0  0
   -1.8432   -0.8594    0.0000 C   0  0  0  0  0  0  0  0  0  0  0  0
   -1.1209   -1.2704    0.0000 C   0  0  0  0  0  0  0  0  0  0  0  0
    1.0337   -0.0249    0.0000 C   0  0  0  0  0  0  0  0  0  0  0  0
    1.7312    0.3737    0.0000 C   0  0  0  0  0  0  0  0  0  0  0  0
  1 11  1  0  0  0  0
  2  5  1  0  0  0  0
  2  6  1  0  0  0  0
  3 15  2  0  0  0  0
  4 15  1  0  0  0  0
  5  8  2  0  0  0  0
  6 10  2  0  0  0  0
  7  9  1  0  0  0  0
  7 14  1  0  0  0  0
  8  9  1  0  0  0  0
  8 10  1  0  0  0  0
  9 11  2  0  0  0  0
 10 12  1  0  0  0  0
 11 13  1  0  0  0  0
 12 13  2  0  0  0  0
 14 15  1  0  0  0  0
M  END
> <PUBCHEM_COMPOUND_ID_TYPE>
0

> <PUBCHEM_TOTAL_CHARGE>
0

> <PUBCHEM_SUBSTANCE_ID>
310944780

> <PUBCHEM_SUBSTANCE_VERSION>
1

> <PUBCHEM_EXT_DATASOURCE_NAME>
4488

> <PUBCHEM_EXT_DATASOURCE_REGID>
SCHEMBL16122859

> <PUBCHEM_SUBSTANCE_COMMENT>
InChI=1S/C8H6ClN3O2S/c9-4-1-2-5-8(12-15-11-5)7(4)10-3-6(13)14/h1-2,10H,3H2,(H,13,14)
InChIKey=GFOMHMFXRNGSNP-UHFFFAOYSA-N

> <PUBCHEM_SUBSTANCE_SYNONYM>
SCHEMBL16122859

> <PUBCHEM_XREF_EXT_ID>
SCHEMBL16122859

> <PUBCHEM_EXT_DATASOURCE_URL>
https://www.surechembl.org/

> <PUBCHEM_EXT_SUBSTANCE_URL>
https://www.surechembl.org/chemical/SCHEMBL16122859

> <PUBCHEM_CID_ASSOCIATIONS>
65476032  1

> <PUBCHEM_COORDINATE_TYPE>
1
3

$$$$
