310932401
  -OEChem-07211613022D

 30 34  0     0  0  0  0  0  0999 V2000
    0.0000   -2.8760    0.0000 F   0  0  0  0  0  0  0  0  0  0  0  0
    0.8573   -4.4522    0.0000 O   0  0  0  0  0  0  0  0  0  0  0  0
    6.3880   -3.3185    0.0000 O   0  0  0  0  0  0  0  0  0  0  0  0
    5.0606   -2.6548    0.0000 N   0  0  0  0  0  0  0  0  0  0  0  0
    5.0606   -3.9821    0.0000 N   0  0  0  0  0  0  0  0  0  0  0  0
    2.8483   -0.4425    0.0000 N   0  0  0  0  0  0  0  0  0  0  0  0
    1.2721   -5.1713    0.0000 N   0  0  0  0  0  0  0  0  0  0  0  0
    3.5673   -2.4889    0.0000 C   0  0  0  0  0  0  0  0  0  0  0  0
    4.2864   -2.9037    0.0000 C   0  0  0  0  0  0  0  0  0  0  0  0
    4.2864   -3.7609    0.0000 C   0  0  0  0  0  0  0  0  0  0  0  0
    2.8760   -3.7609    0.0000 C   0  0  0  0  0  0  0  0  0  0  0  0
    3.5673   -1.6869    0.0000 C   0  0  0  0  0  0  0  0  0  0  0  0
    2.1570   -4.1757    0.0000 C   0  0  0  0  0  0  0  0  0  0  0  0
    2.8760   -2.9037    0.0000 C   0  0  0  0  0  0  0  0  0  0  0  0
    3.5673   -4.1480    0.0000 C   0  0  0  0  0  0  0  0  0  0  0  0
    2.8483   -1.2444    0.0000 C   0  0  0  0  0  0  0  0  0  0  0  0
    5.5584   -3.3185    0.0000 C   0  0  0  0  0  0  0  0  0  0  0  0
    1.4103   -3.8439    0.0000 C   0  0  0  0  0  0  0  0  0  0  0  0
    2.0741   -4.9776    0.0000 C   0  0  0  0  0  0  0  0  0  0  0  0
    2.1294   -1.6592    0.0000 C   0  0  0  0  0  0  0  0  0  0  0  0
    4.2587   -1.2444    0.0000 C   0  0  0  0  0  0  0  0  0  0  0  0
    4.2587   -0.4148    0.0000 C   0  0  0  0  0  0  0  0  0  0  0  0
    3.5397    0.0000    0.0000 C   0  0  0  0  0  0  0  0  0  0  0  0
    2.1294   -2.4889    0.0000 C   0  0  0  0  0  0  0  0  0  0  0  0
    1.4103   -1.2721    0.0000 C   0  0  0  0  0  0  0  0  0  0  0  0
    1.2168   -3.0419    0.0000 C   0  0  0  0  0  0  0  0  0  0  0  0
    2.6824   -5.5308    0.0000 C   0  0  0  0  0  0  0  0  0  0  0  0
    1.4103   -2.9037    0.0000 C   0  0  0  0  0  0  0  0  0  0  0  0
    0.7190   -1.6592    0.0000 C   0  0  0  0  0  0  0  0  0  0  0  0
    0.7190   -2.4889    0.0000 C   0  0  0  0  0  0  0  0  0  0  0  0
  1 30  1  0  0  0  0
  2  7  1  0  0  0  0
  2 18  1  0  0  0  0
  3 17  2  0  0  0  0
  4  9  1  0  0  0  0
  4 17  1  0  0  0  0
  5 10  1  0  0  0  0
  5 17  1  0  0  0  0
  6 16  1  0  0  0  0
  6 23  2  0  0  0  0
  7 19  2  0  0  0  0
  8  9  1  0  0  0  0
  8 12  1  0  0  0  0
  8 14  2  0  0  0  0
  9 10  2  0  0  0  0
 10 15  1  0  0  0  0
 11 13  1  0  0  0  0
 11 14  1  0  0  0  0
 11 15  2  0  0  0  0
 12 16  2  0  0  0  0
 12 21  1  0  0  0  0
 13 18  2  0  0  0  0
 13 19  1  0  0  0  0
 16 20  1  0  0  0  0
 18 26  1  0  0  0  0
 19 27  1  0  0  0  0
 20 24  2  0  0  0  0
 20 25  1  0  0  0  0
 21 22  2  0  0  0  0
 22 23  1  0  0  0  0
 24 28  1  0  0  0  0
 25 29  2  0  0  0  0
 28 30  2  0  0  0  0
 29 30  1  0  0  0  0
M  END
> <PUBCHEM_COMPOUND_ID_TYPE>
0

> <PUBCHEM_TOTAL_CHARGE>
0

> <PUBCHEM_SUBSTANCE_ID>
310932401

> <PUBCHEM_SUBSTANCE_VERSION>
1

> <PUBCHEM_EXT_DATASOURCE_NAME>
4488

> <PUBCHEM_EXT_DATASOURCE_REGID>
SCHEMBL16109769

> <PUBCHEM_SUBSTANCE_COMMENT>
InChI=1S/C23H17FN4O2/c1-12-20(13(2)30-28-12)15-10-18(22-19(11-15)26-23(29)27-22)17-4-3-9-25-21(17)14-5-7-16(24)8-6-14/h3-11H,1-2H3,(H2,26,27,29)
InChIKey=VRYAYETZMJCCKF-UHFFFAOYSA-N

> <PUBCHEM_SUBSTANCE_SYNONYM>
SCHEMBL16109769

> <PUBCHEM_XREF_EXT_ID>
SCHEMBL16109769

> <PUBCHEM_EXT_DATASOURCE_URL>
https://www.surechembl.org/

> <PUBCHEM_EXT_SUBSTANCE_URL>
https://www.surechembl.org/chemical/SCHEMBL16109769

> <PUBCHEM_CID_ASSOCIATIONS>
117600955  1

> <PUBCHEM_COORDINATE_TYPE>
1
3

$$$$
