310945525
  -OEChem-07211613022D

 30 32  0     0  0  0  0  0  0999 V2000
   -1.0521    1.8663    0.0000 F   0  0  0  0  0  0  0  0  0  0  0  0
   -0.3257    2.2797    0.0000 F   0  0  0  0  0  0  0  0  0  0  0  0
    0.3883    1.8538    0.0000 F   0  0  0  0  0  0  0  0  0  0  0  0
    3.2191   -3.0938    0.0000 F   0  0  0  0  0  0  0  0  0  0  0  0
    3.2316   -1.4530    0.0000 F   0  0  0  0  0  0  0  0  0  0  0  0
    3.9456   -1.8663    0.0000 F   0  0  0  0  0  0  0  0  0  0  0  0
    0.3758    0.2129    0.0000 N   0  0  0  0  0  0  0  0  0  0  0  0
   -0.3507   -1.0146    0.0000 N   0  0  0  0  0  0  0  0  0  0  0  0
   -1.7912    0.6388    0.0000 N   0  0  0  0  0  0  0  0  0  0  0  0
   -1.8037   -1.0146    0.0000 N   0  0  0  0  0  0  0  0  0  0  0  0
    1.7912   -2.2672    0.0000 N   0  0  0  0  0  0  0  0  0  0  0  0
   -1.7912    1.4655    0.0000 N   0  0  0  0  0  0  0  0  0  0  0  0
   -0.3507    0.6263    0.0000 C   0  0  0  0  0  0  0  0  0  0  0  0
   -1.0647    0.2129    0.0000 C   0  0  0  0  0  0  0  0  0  0  0  0
    0.3758   -0.6137    0.0000 C   0  0  0  0  0  0  0  0  0  0  0  0
   -1.0897   -0.6137    0.0000 C   0  0  0  0  0  0  0  0  0  0  0  0
   -0.3382    1.4655    0.0000 C   0  0  0  0  0  0  0  0  0  0  0  0
    1.0897   -1.0271    0.0000 C   0  0  0  0  0  0  0  0  0  0  0  0
    2.5176   -1.8663    0.0000 C   0  0  0  0  0  0  0  0  0  0  0  0
    1.0772   -1.8538    0.0000 C   0  0  0  0  0  0  0  0  0  0  0  0
    1.7912   -0.6388    0.0000 C   0  0  0  0  0  0  0  0  0  0  0  0
    3.2191   -2.2672    0.0000 C   0  0  0  0  0  0  0  0  0  0  0  0
    2.5176   -1.0396    0.0000 C   0  0  0  0  0  0  0  0  0  0  0  0
   -2.5301    1.8663    0.0000 C   0  0  0  0  0  0  0  0  0  0  0  0
   -2.5301   -0.6012    0.0000 C   0  0  0  0  0  0  0  0  0  0  0  0
   -2.5176    2.6930    0.0000 C   0  0  0  0  0  0  0  0  0  0  0  0
   -3.2316    1.4655    0.0000 C   0  0  0  0  0  0  0  0  0  0  0  0
   -3.2316    3.0938    0.0000 C   0  0  0  0  0  0  0  0  0  0  0  0
   -3.9456    1.8663    0.0000 C   0  0  0  0  0  0  0  0  0  0  0  0
   -3.9456    2.6805    0.0000 C   0  0  0  0  0  0  0  0  0  0  0  0
  1 17  1  0  0  0  0
  2 17  1  0  0  0  0
  3 17  1  0  0  0  0
  4 22  1  0  0  0  0
  5 22  1  0  0  0  0
  6 22  1  0  0  0  0
  7 13  2  0  0  0  0
  7 15  1  0  0  0  0
  8 15  2  0  0  0  0
  8 16  1  0  0  0  0
  9 12  2  0  0  0  0
  9 14  1  0  0  0  0
 10 16  1  0  0  0  0
 10 25  1  0  0  0  0
 11 19  2  0  0  0  0
 11 20  1  0  0  0  0
 12 24  1  0  0  0  0
 13 14  1  0  0  0  0
 13 17  1  0  0  0  0
 14 16  2  0  0  0  0
 15 18  1  0  0  0  0
 18 20  2  0  0  0  0
 18 21  1  0  0  0  0
 19 22  1  0  0  0  0
 19 23  1  0  0  0  0
 21 23  2  0  0  0  0
 24 26  2  0  0  0  0
 24 27  1  0  0  0  0
 26 28  1  0  0  0  0
 27 29  2  0  0  0  0
 28 30  2  0  0  0  0
 29 30  1  0  0  0  0
M  END
> <PUBCHEM_COMPOUND_ID_TYPE>
0

> <PUBCHEM_TOTAL_CHARGE>
0

> <PUBCHEM_SUBSTANCE_ID>
310945525

> <PUBCHEM_SUBSTANCE_VERSION>
1

> <PUBCHEM_EXT_DATASOURCE_NAME>
4488

> <PUBCHEM_EXT_DATASOURCE_REGID>
SCHEMBL16123623

> <PUBCHEM_SUBSTANCE_COMMENT>
InChI=1S/C18H12F6N6/c1-25-16-13(30-29-11-5-3-2-4-6-11)14(18(22,23)24)27-15(28-16)10-7-8-12(26-9-10)17(19,20)21/h2-9H,1H3,(H,25,27,28)/b30-29+
InChIKey=MBVCARGASZOFFT-QVIHXGFCSA-N

> <PUBCHEM_SUBSTANCE_SYNONYM>
SCHEMBL16123623

> <PUBCHEM_XREF_EXT_ID>
SCHEMBL16123623

> <PUBCHEM_EXT_DATASOURCE_URL>
https://www.surechembl.org/

> <PUBCHEM_EXT_SUBSTANCE_URL>
https://www.surechembl.org/chemical/SCHEMBL16123623

> <PUBCHEM_CID_ASSOCIATIONS>
117611566  1

> <PUBCHEM_COORDINATE_TYPE>
1
3

$$$$
