310930354
  -OEChem-07211613022D

 28 31  0     0  0  0  0  0  0999 V2000
    3.9835   -6.4855    0.0000 O   0  0  0  0  0  0  0  0  0  0  0  0
    7.7365   -2.8642    0.0000 O   0  0  0  0  0  0  0  0  0  0  0  0
    2.2057   -5.0699    0.0000 N   0  0  0  0  0  0  0  0  0  0  0  0
    3.9835   -5.0370    0.0000 N   0  0  0  0  0  0  0  0  0  0  0  0
    0.0000   -6.1892    0.0000 N   0  0  0  0  0  0  0  0  0  0  0  0
    6.4855   -2.1399    0.0000 N   0  0  0  0  0  0  0  0  0  0  0  0
    1.4156   -5.3004    0.0000 C   0  0  0  0  0  0  0  0  0  0  0  0
    1.4156   -6.1892    0.0000 C   0  0  0  0  0  0  0  0  0  0  0  0
    2.7325   -5.7612    0.0000 C   0  0  0  0  0  0  0  0  0  0  0  0
    2.2057   -6.4197    0.0000 C   0  0  0  0  0  0  0  0  0  0  0  0
    3.5555   -5.7612    0.0000 C   0  0  0  0  0  0  0  0  0  0  0  0
    0.6913   -4.9053    0.0000 C   0  0  0  0  0  0  0  0  0  0  0  0
    0.6913   -6.5843    0.0000 C   0  0  0  0  0  0  0  0  0  0  0  0
    0.0000   -5.3004    0.0000 C   0  0  0  0  0  0  0  0  0  0  0  0
    5.2345   -4.3127    0.0000 C   0  0  0  0  0  0  0  0  0  0  0  0
    6.0575   -2.8642    0.0000 C   0  0  0  0  0  0  0  0  0  0  0  0
    4.8065   -5.0370    0.0000 C   0  0  0  0  0  0  0  0  0  0  0  0
    7.3415   -2.1399    0.0000 C   0  0  0  0  0  0  0  0  0  0  0  0
    7.7365   -1.4156    0.0000 C   0  0  0  0  0  0  0  0  0  0  0  0
    4.8065   -3.5555    0.0000 C   0  0  0  0  0  0  0  0  0  0  0  0
    6.0575   -4.2798    0.0000 C   0  0  0  0  0  0  0  0  0  0  0  0
    5.2345   -2.8642    0.0000 C   0  0  0  0  0  0  0  0  0  0  0  0
    6.4855   -3.5884    0.0000 C   0  0  0  0  0  0  0  0  0  0  0  0
    8.5595   -1.4485    0.0000 C   0  0  0  0  0  0  0  0  0  0  0  0
    7.3415   -0.6913    0.0000 C   0  0  0  0  0  0  0  0  0  0  0  0
    8.9875   -0.7243    0.0000 C   0  0  0  0  0  0  0  0  0  0  0  0
    7.7365    0.0000    0.0000 C   0  0  0  0  0  0  0  0  0  0  0  0
    8.5925    0.0000    0.0000 C   0  0  0  0  0  0  0  0  0  0  0  0
  1 11  2  0  0  0  0
  2 18  2  0  0  0  0
  3  7  1  0  0  0  0
  3  9  1  0  0  0  0
  4 11  1  0  0  0  0
  4 17  1  0  0  0  0
  5 13  1  0  0  0  0
  5 14  2  0  0  0  0
  6 16  1  0  0  0  0
  6 18  1  0  0  0  0
  7  8  1  0  0  0  0
  7 12  2  0  0  0  0
  8 10  1  0  0  0  0
  8 13  2  0  0  0  0
  9 10  2  0  0  0  0
  9 11  1  0  0  0  0
 12 14  1  0  0  0  0
 15 17  1  0  0  0  0
 15 20  2  0  0  0  0
 15 21  1  0  0  0  0
 16 22  2  0  0  0  0
 16 23  1  0  0  0  0
 18 19  1  0  0  0  0
 19 24  2  0  0  0  0
 19 25  1  0  0  0  0
 20 22  1  0  0  0  0
 21 23  2  0  0  0  0
 24 26  1  0  0  0  0
 25 27  2  0  0  0  0
 26 28  2  0  0  0  0
 27 28  1  0  0  0  0
M  END
> <PUBCHEM_COMPOUND_ID_TYPE>
0

> <PUBCHEM_TOTAL_CHARGE>
0

> <PUBCHEM_SUBSTANCE_ID>
310930354

> <PUBCHEM_SUBSTANCE_VERSION>
1

> <PUBCHEM_EXT_DATASOURCE_NAME>
4488

> <PUBCHEM_EXT_DATASOURCE_REGID>
SCHEMBL16107639

> <PUBCHEM_SUBSTANCE_COMMENT>
InChI=1S/C22H18N4O2/c27-21(16-4-2-1-3-5-16)25-18-8-6-15(7-9-18)13-24-22(28)20-12-17-14-23-11-10-19(17)26-20/h1-12,14,26H,13H2,(H,24,28)(H,25,27)
InChIKey=QTGDETBEYSPWSV-UHFFFAOYSA-N

> <PUBCHEM_SUBSTANCE_SYNONYM>
SCHEMBL16107639

> <PUBCHEM_XREF_EXT_ID>
SCHEMBL16107639

> <PUBCHEM_EXT_DATASOURCE_URL>
https://www.surechembl.org/

> <PUBCHEM_EXT_SUBSTANCE_URL>
https://www.surechembl.org/chemical/SCHEMBL16107639

> <PUBCHEM_CID_ASSOCIATIONS>
90012644  1

> <PUBCHEM_COORDINATE_TYPE>
1
3

$$$$
