310944690
  -OEChem-07211613022D

 29 31  0     0  0  0  0  0  0999 V2000
   -2.9362   -0.8407    0.0000 Cl  0  0  0  0  0  0  0  0  0  0  0  0
   -2.0461    2.0399    0.0000 Cl  0  0  0  0  0  0  0  0  0  0  0  0
   -5.0749    0.3956    0.0000 Cl  0  0  0  0  0  0  0  0  0  0  0  0
    1.5021    1.6319    0.0000 O   0  0  0  0  0  0  0  0  0  0  0  0
    5.0749   -0.4327    0.0000 O   0  0  0  0  0  0  0  0  0  0  0  0
    2.2438    0.3956    0.0000 N   0  0  0  0  0  0  0  0  0  0  0  0
    0.0927    0.8159    0.0000 N   0  0  0  0  0  0  0  0  0  0  0  0
    3.6656   -0.4203    0.0000 N   0  0  0  0  0  0  0  0  0  0  0  0
   -2.0461    0.3956    0.0000 C   0  0  0  0  0  0  0  0  0  0  0  0
   -2.7755    0.8159    0.0000 C   0  0  0  0  0  0  0  0  0  0  0  0
   -2.0584   -0.4203    0.0000 C   0  0  0  0  0  0  0  0  0  0  0  0
   -2.7631    1.6443    0.0000 C   0  0  0  0  0  0  0  0  0  0  0  0
   -1.3290    0.8036    0.0000 C   0  0  0  0  0  0  0  0  0  0  0  0
   -0.6244    0.4080    0.0000 C   0  0  0  0  0  0  0  0  0  0  0  0
   -3.4801    0.4080    0.0000 C   0  0  0  0  0  0  0  0  0  0  0  0
   -1.3413   -0.8283    0.0000 C   0  0  0  0  0  0  0  0  0  0  0  0
   -4.1972    0.8159    0.0000 C   0  0  0  0  0  0  0  0  0  0  0  0
   -0.6244   -0.4203    0.0000 C   0  0  0  0  0  0  0  0  0  0  0  0
   -3.4677    2.0399    0.0000 C   0  0  0  0  0  0  0  0  0  0  0  0
    1.5021    0.8036    0.0000 C   0  0  0  0  0  0  0  0  0  0  0  0
   -4.1848    1.6319    0.0000 C   0  0  0  0  0  0  0  0  0  0  0  0
    0.8098    0.3956    0.0000 C   0  0  0  0  0  0  0  0  0  0  0  0
    2.9485    0.8036    0.0000 C   0  0  0  0  0  0  0  0  0  0  0  0
    2.2315   -0.4203    0.0000 C   0  0  0  0  0  0  0  0  0  0  0  0
    3.6532    0.3956    0.0000 C   0  0  0  0  0  0  0  0  0  0  0  0
    2.9485   -0.8407    0.0000 C   0  0  0  0  0  0  0  0  0  0  0  0
    4.3579   -0.8407    0.0000 C   0  0  0  0  0  0  0  0  0  0  0  0
    4.3703   -1.6690    0.0000 C   0  0  0  0  0  0  0  0  0  0  0  0
    3.6409   -2.0399    0.0000 C   0  0  0  0  0  0  0  0  0  0  0  0
  1 11  1  0  0  0  0
  2 12  1  0  0  0  0
  3 17  1  0  0  0  0
  4 20  2  0  0  0  0
  5 27  2  0  0  0  0
  6 20  1  0  0  0  0
  6 23  1  0  0  0  0
  6 24  1  0  0  0  0
  7 14  1  0  0  0  0
  7 22  1  0  0  0  0
  8 25  1  0  0  0  0
  8 26  1  0  0  0  0
  8 27  1  0  0  0  0
  9 10  1  0  0  0  0
  9 11  2  0  0  0  0
  9 13  1  0  0  0  0
 10 12  1  0  0  0  0
 10 15  2  0  0  0  0
 11 16  1  0  0  0  0
 12 19  2  0  0  0  0
 13 14  2  0  0  0  0
 14 18  1  0  0  0  0
 15 17  1  0  0  0  0
 16 18  2  0  0  0  0
 17 21  2  0  0  0  0
 19 21  1  0  0  0  0
 20 22  1  0  0  0  0
 23 25  1  0  0  0  0
 24 26  1  0  0  0  0
 27 28  1  0  0  0  0
 28 29  2  0  0  0  0
M  END
> <PUBCHEM_COMPOUND_ID_TYPE>
0

> <PUBCHEM_TOTAL_CHARGE>
0

> <PUBCHEM_SUBSTANCE_ID>
310944690

> <PUBCHEM_SUBSTANCE_VERSION>
1

> <PUBCHEM_EXT_DATASOURCE_NAME>
4488

> <PUBCHEM_EXT_DATASOURCE_REGID>
SCHEMBL16122769

> <PUBCHEM_SUBSTANCE_COMMENT>
InChI=1S/C21H20Cl3N3O2/c1-2-20(28)26-7-9-27(10-8-26)21(29)13-25-15-4-6-19(24)17(12-15)16-11-14(22)3-5-18(16)23/h2-6,11-12,25H,1,7-10,13H2
InChIKey=LWOZEOOLMXLAIY-UHFFFAOYSA-N

> <PUBCHEM_SUBSTANCE_SYNONYM>
SCHEMBL16122769

> <PUBCHEM_XREF_EXT_ID>
SCHEMBL16122769

> <PUBCHEM_EXT_DATASOURCE_URL>
https://www.surechembl.org/

> <PUBCHEM_EXT_SUBSTANCE_URL>
https://www.surechembl.org/chemical/SCHEMBL16122769

> <PUBCHEM_CID_ASSOCIATIONS>
117610914  1

> <PUBCHEM_COORDINATE_TYPE>
1
3

$$$$
