310944104
  -OEChem-07211613022D

 34 38  0     1  0  0  0  0  0999 V2000
    2.3501    0.5999    0.0000 O   0  0  0  0  0  0  0  0  0  0  0  0
    5.2780    0.8530    0.0000 O   0  0  0  0  0  0  0  0  0  0  0  0
    4.9368    2.1409    0.0000 O   0  0  0  0  0  0  0  0  0  0  0  0
   -1.9868   -1.6786    0.0000 O   0  0  0  0  0  0  0  0  0  0  0  0
   -0.6219   -1.1833    0.0000 O   0  0  0  0  0  0  0  0  0  0  0  0
    3.4288   -0.1706    0.0000 N   0  0  0  0  0  0  0  0  0  0  0  0
    0.6219   -0.2147    0.0000 N   0  0  0  0  0  0  0  0  0  0  0  0
   -3.9461    0.4127    0.0000 N   0  0  0  0  0  0  0  0  0  0  0  0
   -2.5482    0.7430    0.0000 N   0  0  0  0  0  0  0  0  0  0  0  0
   -4.2103    1.1833    0.0000 N   0  0  0  0  0  0  0  0  0  0  0  0
   -5.0358    1.1723    0.0000 N   0  0  0  0  0  0  0  0  0  0  0  0
   -5.2780    0.3797    0.0000 N   0  0  0  0  0  0  0  0  0  0  0  0
    2.2069   -0.6990    0.0000 C   0  0  0  0  0  0  0  0  0  0  0  0
    2.6363   -0.0055    0.0000 C   0  0  0  0  0  0  0  0  0  0  0  0
    4.0342    0.4018    0.0000 C   0  0  0  0  0  0  0  0  0  0  0  0
    2.7794   -1.3044    0.0000 C   0  0  0  0  0  0  0  0  0  0  0  0
    3.5278   -0.9742    0.0000 C   0  0  0  0  0  0  0  0  0  0  0  0
    1.6236   -1.2493    0.0000 C   0  0  0  0  0  0  0  0  0  0  0  0
    2.0419    0.0936    0.0000 C   0  0  0  0  0  0  0  0  0  0  0  0
    3.9902    1.2273    0.0000 C   0  0  0  0  0  0  0  0  0  0  0  0
    4.8267    0.1706    0.0000 C   0  0  0  0  0  0  0  0  0  0  0  0
    0.7981   -0.9961    0.0000 C   0  0  0  0  0  0  0  0  0  0  0  0
    1.2493    0.3578    0.0000 C   0  0  0  0  0  0  0  0  0  0  0  0
    4.7497    1.4915    0.0000 C   0  0  0  0  0  0  0  0  0  0  0  0
   -1.5795   -0.2917    0.0000 C   0  0  0  0  0  0  0  0  0  0  0  0
   -0.7760   -0.5339    0.0000 C   0  0  3  0  0  0  0  0  0  0  0  0
   -0.1816    0.0275    0.0000 C   0  0  0  0  0  0  0  0  0  0  0  0
   -2.1739   -0.8641    0.0000 C   0  0  0  0  0  0  0  0  0  0  0  0
   -3.1536    0.1816    0.0000 C   0  0  0  0  0  0  0  0  0  0  0  0
   -2.9665   -0.6219    0.0000 C   0  0  0  0  0  0  0  0  0  0  0  0
   -1.7557    0.5118    0.0000 C   0  0  0  0  0  0  0  0  0  0  0  0
    3.4398    1.5795    0.0000 C   0  0  0  0  0  0  0  0  0  0  0  0
   -4.5845   -0.0825    0.0000 C   0  0  0  0  0  0  0  0  0  0  0  0
   -2.4822   -2.1409    0.0000 C   0  0  0  0  0  0  0  0  0  0  0  0
  1 14  2  0  0  0  0
  2 21  1  0  0  0  0
  2 24  1  0  0  0  0
  3 24  2  0  0  0  0
  4 28  1  0  0  0  0
  4 34  1  0  0  0  0
 26  5  1  1  0  0  0
  6 14  1  0  0  0  0
  6 15  1  0  0  0  0
  6 17  1  0  0  0  0
  7 22  1  0  0  0  0
  7 23  1  0  0  0  0
  7 27  1  0  0  0  0
  8 10  1  0  0  0  0
  8 29  1  0  0  0  0
  8 33  1  0  0  0  0
  9 29  1  0  0  0  0
  9 31  2  0  0  0  0
 10 11  2  0  0  0  0
 11 12  1  0  0  0  0
 12 33  2  0  0  0  0
 13 14  1  0  0  0  0
 13 16  1  0  0  0  0
 13 18  1  0  0  0  0
 13 19  1  0  0  0  0
 15 20  2  0  0  0  0
 15 21  1  0  0  0  0
 16 17  1  0  0  0  0
 18 22  1  0  0  0  0
 19 23  1  0  0  0  0
 20 24  1  0  0  0  0
 20 32  1  0  0  0  0
 25 26  1  0  0  0  0
 25 28  2  0  0  0  0
 25 31  1  0  0  0  0
 26 27  1  0  0  0  0
 28 30  1  0  0  0  0
 29 30  2  0  0  0  0
M  END
> <PUBCHEM_COMPOUND_ID_TYPE>
0

> <PUBCHEM_TOTAL_CHARGE>
0

> <PUBCHEM_SUBSTANCE_ID>
310944104

> <PUBCHEM_SUBSTANCE_VERSION>
1

> <PUBCHEM_EXT_DATASOURCE_NAME>
4488

> <PUBCHEM_EXT_DATASOURCE_REGID>
SCHEMBL16122179

> <PUBCHEM_SUBSTANCE_COMMENT>
InChI=1S/C22H27N7O5/c1-14-16(12-34-20(14)31)28-8-5-22(21(28)32)3-6-27(7-4-22)11-17(30)15-10-23-19(9-18(15)33-2)29-13-24-25-26-29/h9-10,13,17,30H,3-8,11-12H2,1-2H3/t17-/m1/s1
InChIKey=GEDJMCJVBAJFOT-QGZVFWFLSA-N

> <PUBCHEM_SUBSTANCE_SYNONYM>
SCHEMBL16122179

> <PUBCHEM_XREF_EXT_ID>
SCHEMBL16122179

> <PUBCHEM_EXT_DATASOURCE_URL>
https://www.surechembl.org/

> <PUBCHEM_EXT_SUBSTANCE_URL>
https://www.surechembl.org/chemical/SCHEMBL16122179

> <PUBCHEM_CID_ASSOCIATIONS>
86271546  1

> <PUBCHEM_COORDINATE_TYPE>
1
3

> <PUBCHEM_BONDANNOTATIONS>
26  5  5

$$$$
