310943006
  -OEChem-07211613022D

 26 29  0     0  0  0  0  0  0999 V2000
   -4.8287    0.4610    0.0000 I   0  0  0  0  0  0  0  0  0  0  0  0
   -3.5184   -1.7470    0.0000 I   0  0  0  0  0  0  0  0  0  0  0  0
   -3.4941    1.1890    0.0000 O   0  0  0  0  0  0  0  0  0  0  0  0
    1.7956    0.2669    0.0000 N   0  0  0  0  0  0  0  0  0  0  0  0
    1.7713    1.5772    0.0000 N   0  0  0  0  0  0  0  0  0  0  0  0
   -1.2618    0.1213    0.0000 N   0  0  0  0  0  0  0  0  0  0  0  0
    0.9463    0.5581    0.0000 C   0  0  0  0  0  0  0  0  0  0  0  0
    0.9948    1.3588    0.0000 C   0  0  0  0  0  0  0  0  0  0  0  0
    2.2809    0.9463    0.0000 C   0  0  0  0  0  0  0  0  0  0  0  0
   -0.5095    0.5581    0.0000 C   0  0  0  0  0  0  0  0  0  0  0  0
    0.2427    0.1456    0.0000 C   0  0  0  0  0  0  0  0  0  0  0  0
    3.1544    0.9220    0.0000 C   0  0  0  0  0  0  0  0  0  0  0  0
   -2.7419    0.1699    0.0000 C   0  0  0  0  0  0  0  0  0  0  0  0
    0.2184    1.7470    0.0000 C   0  0  0  0  0  0  0  0  0  0  0  0
   -3.4941    0.5823    0.0000 C   0  0  0  0  0  0  0  0  0  0  0  0
   -0.4853    1.3588    0.0000 C   0  0  0  0  0  0  0  0  0  0  0  0
   -4.2221    0.1699    0.0000 C   0  0  0  0  0  0  0  0  0  0  0  0
   -2.0383    0.5338    0.0000 C   0  0  0  0  0  0  0  0  0  0  0  0
   -2.7661   -0.6552    0.0000 C   0  0  0  0  0  0  0  0  0  0  0  0
   -3.4941   -1.0434    0.0000 C   0  0  0  0  0  0  0  0  0  0  0  0
   -4.1978   -0.6552    0.0000 C   0  0  0  0  0  0  0  0  0  0  0  0
    3.5184    0.1941    0.0000 C   0  0  0  0  0  0  0  0  0  0  0  0
    3.6397    1.5772    0.0000 C   0  0  0  0  0  0  0  0  0  0  0  0
    4.3677    0.1456    0.0000 C   0  0  0  0  0  0  0  0  0  0  0  0
    4.4889    1.5286    0.0000 C   0  0  0  0  0  0  0  0  0  0  0  0
    4.8287    0.7765    0.0000 C   0  0  0  0  0  0  0  0  0  0  0  0
  1 17  1  0  0  0  0
  2 20  1  0  0  0  0
  3 15  1  0  0  0  0
  4  7  1  0  0  0  0
  4  9  2  0  0  0  0
  5  8  1  0  0  0  0
  5  9  1  0  0  0  0
  6 10  1  0  0  0  0
  6 18  2  0  0  0  0
  7  8  2  0  0  0  0
  7 11  1  0  0  0  0
  8 14  1  0  0  0  0
  9 12  1  0  0  0  0
 10 11  2  0  0  0  0
 10 16  1  0  0  0  0
 12 22  2  0  0  0  0
 12 23  1  0  0  0  0
 13 15  2  0  0  0  0
 13 18  1  0  0  0  0
 13 19  1  0  0  0  0
 14 16  2  0  0  0  0
 15 17  1  0  0  0  0
 17 21  2  0  0  0  0
 19 20  2  0  0  0  0
 20 21  1  0  0  0  0
 22 24  1  0  0  0  0
 23 25  2  0  0  0  0
 24 26  2  0  0  0  0
 25 26  1  0  0  0  0
M  END
> <PUBCHEM_COMPOUND_ID_TYPE>
0

> <PUBCHEM_TOTAL_CHARGE>
0

> <PUBCHEM_SUBSTANCE_ID>
310943006

> <PUBCHEM_SUBSTANCE_VERSION>
1

> <PUBCHEM_EXT_DATASOURCE_NAME>
4488

> <PUBCHEM_EXT_DATASOURCE_REGID>
SCHEMBL16121065

> <PUBCHEM_SUBSTANCE_COMMENT>
InChI=1S/C20H13I2N3O/c21-14-8-13(19(26)16(22)9-14)11-23-15-6-7-17-18(10-15)25-20(24-17)12-4-2-1-3-5-12/h1-11,26H,(H,24,25)/b23-11+
InChIKey=BFURCHACHZIBGR-FOKLQQMPSA-N

> <PUBCHEM_SUBSTANCE_SYNONYM>
SCHEMBL16121065

> <PUBCHEM_XREF_EXT_ID>
SCHEMBL16121065

> <PUBCHEM_EXT_DATASOURCE_URL>
https://www.surechembl.org/

> <PUBCHEM_EXT_SUBSTANCE_URL>
https://www.surechembl.org/chemical/SCHEMBL16121065

> <PUBCHEM_CID_ASSOCIATIONS>
5969013  1

> <PUBCHEM_COORDINATE_TYPE>
1
3

$$$$
