310942590
  -OEChem-07211613022D

 43 48  0     1  0  0  0  0  0999 V2000
    1.8181    0.7486    0.0000 O   0  0  0  0  0  0  0  0  0  0  0  0
    2.3222   -1.3292    0.0000 O   0  0  0  0  0  0  0  0  0  0  0  0
    1.0695   -1.2528    0.0000 O   0  0  0  0  0  0  0  0  0  0  0  0
    3.2542    0.4278    0.0000 N   0  0  0  0  0  0  0  0  0  0  0  0
    3.9570   -0.9167    0.0000 N   0  0  0  0  0  0  0  0  0  0  0  0
   -0.3361    0.3055    0.0000 N   0  0  3  0  0  0  0  0  0  0  0  0
    5.3931   -0.8250    0.0000 N   0  0  0  0  0  0  0  0  0  0  0  0
    6.0501    0.4431    0.0000 N   0  0  0  0  0  0  0  0  0  0  0  0
   -2.7042   -1.1764    0.0000 N   0  0  0  0  0  0  0  0  0  0  0  0
   -3.3917   -2.3222    0.0000 N   0  0  0  0  0  0  0  0  0  0  0  0
    5.4237    2.3834    0.0000 N   0  0  0  0  0  0  0  0  0  0  0  0
    3.9112   -0.0764    0.0000 C   0  0  0  0  0  0  0  0  0  0  0  0
    2.4598    0.2292    0.0000 C   0  0  3  0  0  0  0  0  0  0  0  0
    4.5986    0.3819    0.0000 C   0  0  0  0  0  0  0  0  0  0  0  0
    4.3695    1.1458    0.0000 C   0  0  0  0  0  0  0  0  0  0  0  0
    2.1084   -0.5347    0.0000 C   0  0  3  0  0  0  0  0  0  0  0  0
    3.5598    1.1917    0.0000 C   0  0  0  0  0  0  0  0  0  0  0  0
    1.1000    0.3514    0.0000 C   0  0  3  0  0  0  0  0  0  0  0  0
    1.2833   -0.4583    0.0000 C   0  0  3  0  0  0  0  0  0  0  0  0
    5.3472   -0.0153    0.0000 C   0  0  0  0  0  0  0  0  0  0  0  0
    0.3667    0.7486    0.0000 C   0  0  0  0  0  0  0  0  0  0  0  0
    4.9042    1.7875    0.0000 C   0  0  0  0  0  0  0  0  0  0  0  0
   -0.5653   -0.4889    0.0000 C   0  0  0  0  0  0  0  0  0  0  0  0
    4.6903   -1.2528    0.0000 C   0  0  0  0  0  0  0  0  0  0  0  0
   -0.8555   -1.5889    0.0000 C   0  0  0  0  0  0  0  0  0  0  0  0
   -1.2528   -0.8708    0.0000 C   0  0  0  0  0  0  0  0  0  0  0  0
   -0.1681   -1.1764    0.0000 C   0  0  0  0  0  0  0  0  0  0  0  0
   -1.0848    0.7333    0.0000 C   0  0  0  0  0  0  0  0  0  0  0  0
   -3.5445   -0.9778    0.0000 C   0  0  0  0  0  0  0  0  0  0  0  0
   -3.9570   -1.6958    0.0000 C   0  0  0  0  0  0  0  0  0  0  0  0
   -2.6431   -1.9862    0.0000 C   0  0  0  0  0  0  0  0  0  0  0  0
   -4.8125   -0.2903    0.0000 C   0  0  0  0  0  0  0  0  0  0  0  0
   -1.0389   -2.3834    0.0000 C   0  0  0  0  0  0  0  0  0  0  0  0
   -3.9570   -0.3055    0.0000 C   0  0  0  0  0  0  0  0  0  0  0  0
   -1.9098   -2.3834    0.0000 C   0  0  0  0  0  0  0  0  0  0  0  0
   -5.2251    0.4125    0.0000 C   0  0  0  0  0  0  0  0  0  0  0  0
   -4.7820   -1.6958    0.0000 C   0  0  0  0  0  0  0  0  0  0  0  0
   -5.2098   -1.0083    0.0000 C   0  0  0  0  0  0  0  0  0  0  0  0
   -1.0695    1.5584    0.0000 C   0  0  0  0  0  0  0  0  0  0  0  0
   -1.8028    0.3208    0.0000 C   0  0  0  0  0  0  0  0  0  0  0  0
   -6.0501    0.3819    0.0000 C   0  0  0  0  0  0  0  0  0  0  0  0
   -5.6528    1.1153    0.0000 C   0  0  0  0  0  0  0  0  0  0  0  0
   -4.8125    1.1153    0.0000 C   0  0  0  0  0  0  0  0  0  0  0  0
 13  1  1  1  0  0  0
  1 18  1  0  0  0  0
 16  2  1  6  0  0  0
 19  3  1  6  0  0  0
  4 12  1  0  0  0  0
  4 13  1  0  0  0  0
  4 17  1  0  0  0  0
  5 12  1  0  0  0  0
  5 24  2  0  0  0  0
  6 21  1  0  0  0  0
 23  6  1  1  0  0  0
  6 28  1  0  0  0  0
  7 20  2  0  0  0  0
  7 24  1  0  0  0  0
  8 20  1  0  0  0  0
  9 29  1  0  0  0  0
  9 31  2  0  0  0  0
 10 30  1  0  0  0  0
 10 31  1  0  0  0  0
 11 22  3  0  0  0  0
 12 14  2  0  0  0  0
 13 16  1  0  0  0  0
 14 15  1  0  0  0  0
 14 20  1  0  0  0  0
 15 17  2  0  0  0  0
 15 22  1  0  0  0  0
 16 19  1  0  0  0  0
 18 19  1  0  0  0  0
 18 21  1  1  0  0  0
 23 26  1  0  0  0  0
 23 27  1  0  0  0  0
 25 26  1  0  0  0  0
 25 27  1  0  0  0  0
 25 33  1  6  0  0  0
 28 39  1  0  0  0  0
 28 40  1  0  0  0  0
 29 30  2  0  0  0  0
 29 34  1  0  0  0  0
 30 37  1  0  0  0  0
 31 35  1  0  0  0  0
 32 34  2  0  0  0  0
 32 36  1  0  0  0  0
 32 38  1  0  0  0  0
 33 35  1  0  0  0  0
 36 41  1  0  0  0  0
 36 42  1  0  0  0  0
 36 43  1  0  0  0  0
 37 38  2  0  0  0  0
M  END
> <PUBCHEM_COMPOUND_ID_TYPE>
0

> <PUBCHEM_TOTAL_CHARGE>
0

> <PUBCHEM_SUBSTANCE_ID>
310942590

> <PUBCHEM_SUBSTANCE_VERSION>
1

> <PUBCHEM_EXT_DATASOURCE_NAME>
4488

> <PUBCHEM_EXT_DATASOURCE_REGID>
SCHEMBL16120635

> <PUBCHEM_SUBSTANCE_COMMENT>
InChI=1S/C32H42N8O3/c1-17(2)39(21-10-18(11-21)6-9-25-37-22-8-7-20(32(3,4)5)12-23(22)38-25)15-24-27(41)28(42)31(43-24)40-14-19(13-33)26-29(34)35-16-36-30(26)40/h7-8,12,14,16-18,21,24,27-28,31,41-42H,6,9-11,15H2,1-5H3,(H,37,38)(H2,34,35,36)/t18-,21-,24-,27-,28-,31-/m1/s1
InChIKey=QHJDXFCUPRDPPD-UNWCPLMKSA-N

> <PUBCHEM_SUBSTANCE_SYNONYM>
SCHEMBL16120635

> <PUBCHEM_XREF_EXT_ID>
SCHEMBL16120635

> <PUBCHEM_EXT_DATASOURCE_URL>
https://www.surechembl.org/

> <PUBCHEM_EXT_SUBSTANCE_URL>
https://www.surechembl.org/chemical/SCHEMBL16120635

> <PUBCHEM_CID_ASSOCIATIONS>
86272094  1

> <PUBCHEM_COORDINATE_TYPE>
1
3

> <PUBCHEM_BONDANNOTATIONS>
13  1  5
18  21  5
16  2  6
25  33  6
19  3  6
23  6  5

$$$$
