310944258
  -OEChem-07211613022D

 24 27  0     0  0  0  0  0  0999 V2000
    0.0203    3.5899    0.0000 F   0  0  0  0  0  0  0  0  0  0  0  0
   -1.3480   -1.4631    0.0000 O   0  0  0  0  0  0  0  0  0  0  0  0
    2.1607    3.1565    0.0000 N   0  0  0  0  0  0  0  0  0  0  0  0
   -2.1607    3.1429    0.0000 N   0  0  0  0  0  0  0  0  0  0  0  0
    0.0203   -1.2870    0.0000 C   0  0  0  0  0  0  0  0  0  0  0  0
   -0.7112   -0.8806    0.0000 C   0  0  0  0  0  0  0  0  0  0  0  0
   -0.1693   -2.0997    0.0000 C   0  0  0  0  0  0  0  0  0  0  0  0
   -0.9957   -2.1810    0.0000 C   0  0  0  0  0  0  0  0  0  0  0  0
    0.0067    0.3251    0.0000 C   0  0  0  0  0  0  0  0  0  0  0  0
    0.0203    1.1515    0.0000 C   0  0  0  0  0  0  0  0  0  0  0  0
   -0.7112   -0.0813    0.0000 C   0  0  0  0  0  0  0  0  0  0  0  0
    0.7248   -0.9077    0.0000 C   0  0  0  0  0  0  0  0  0  0  0  0
    0.7112   -0.0542    0.0000 C   0  0  0  0  0  0  0  0  0  0  0  0
    0.7248    2.3842    0.0000 C   0  0  0  0  0  0  0  0  0  0  0  0
   -0.7112    2.3842    0.0000 C   0  0  0  0  0  0  0  0  0  0  0  0
    0.7248    1.5715    0.0000 C   0  0  0  0  0  0  0  0  0  0  0  0
   -0.6977    1.5579    0.0000 C   0  0  0  0  0  0  0  0  0  0  0  0
    0.0203    2.7907    0.0000 C   0  0  0  0  0  0  0  0  0  0  0  0
    0.3319   -2.7771    0.0000 C   0  0  0  0  0  0  0  0  0  0  0  0
   -1.3209   -2.9262    0.0000 C   0  0  0  0  0  0  0  0  0  0  0  0
   -0.0067   -3.5222    0.0000 C   0  0  0  0  0  0  0  0  0  0  0  0
   -0.8467   -3.5899    0.0000 C   0  0  0  0  0  0  0  0  0  0  0  0
    1.4428    2.7907    0.0000 C   0  0  0  0  0  0  0  0  0  0  0  0
   -1.4563    2.7771    0.0000 C   0  0  0  0  0  0  0  0  0  0  0  0
  1 18  1  0  0  0  0
  2  6  1  0  0  0  0
  2  8  1  0  0  0  0
  3 23  3  0  0  0  0
  4 24  3  0  0  0  0
  5  6  2  0  0  0  0
  5  7  1  0  0  0  0
  5 12  1  0  0  0  0
  6 11  1  0  0  0  0
  7  8  2  0  0  0  0
  7 19  1  0  0  0  0
  8 20  1  0  0  0  0
  9 10  1  0  0  0  0
  9 11  2  0  0  0  0
  9 13  1  0  0  0  0
 10 16  2  0  0  0  0
 10 17  1  0  0  0  0
 12 13  2  0  0  0  0
 14 16  1  0  0  0  0
 14 18  2  0  0  0  0
 14 23  1  0  0  0  0
 15 17  2  0  0  0  0
 15 18  1  0  0  0  0
 15 24  1  0  0  0  0
 19 21  2  0  0  0  0
 20 22  2  0  0  0  0
 21 22  1  0  0  0  0
M  END
> <PUBCHEM_COMPOUND_ID_TYPE>
0

> <PUBCHEM_TOTAL_CHARGE>
0

> <PUBCHEM_SUBSTANCE_ID>
310944258

> <PUBCHEM_SUBSTANCE_VERSION>
1

> <PUBCHEM_EXT_DATASOURCE_NAME>
4488

> <PUBCHEM_EXT_DATASOURCE_REGID>
SCHEMBL16122333

> <PUBCHEM_SUBSTANCE_COMMENT>
InChI=1S/C20H9FN2O/c21-20-14(10-22)7-13(8-15(20)11-23)12-5-6-17-16-3-1-2-4-18(16)24-19(17)9-12/h1-9H
InChIKey=CIUGCHBWHOXDLF-UHFFFAOYSA-N

> <PUBCHEM_SUBSTANCE_SYNONYM>
SCHEMBL16122333

> <PUBCHEM_XREF_EXT_ID>
SCHEMBL16122333

> <PUBCHEM_EXT_DATASOURCE_URL>
https://www.surechembl.org/

> <PUBCHEM_EXT_SUBSTANCE_URL>
https://www.surechembl.org/chemical/SCHEMBL16122333

> <PUBCHEM_CID_ASSOCIATIONS>
117610527  1

> <PUBCHEM_COORDINATE_TYPE>
1
3

$$$$
