310949049
  -OEChem-07211613022D

 34 38  0     0  0  0  0  0  0999 V2000
   -0.2760   -0.3549    0.0000 F   0  0  0  0  0  0  0  0  0  0  0  0
   -3.1413   -0.3812    0.0000 F   0  0  0  0  0  0  0  0  0  0  0  0
   -0.7098    2.8259    0.0000 F   0  0  0  0  0  0  0  0  0  0  0  0
    0.4206    2.4972    0.0000 F   0  0  0  0  0  0  0  0  0  0  0  0
    0.0657    1.3669    0.0000 F   0  0  0  0  0  0  0  0  0  0  0  0
   -3.1413   -2.0110    0.0000 F   0  0  0  0  0  0  0  0  0  0  0  0
   -0.2760   -1.9847    0.0000 F   0  0  0  0  0  0  0  0  0  0  0  0
   -1.7218   -2.8259    0.0000 F   0  0  0  0  0  0  0  0  0  0  0  0
    0.8149    0.4600    0.0000 N   0  0  0  0  0  0  0  0  0  0  0  0
   -1.0252    0.9069    0.0000 C   0  0  0  0  0  0  0  0  0  0  0  0
   -1.7349    0.4863    0.0000 C   0  0  0  0  0  0  0  0  0  0  0  0
    0.9726   -0.3286    0.0000 C   0  0  0  0  0  0  0  0  0  0  0  0
    1.5510    0.8937    0.0000 C   0  0  0  0  0  0  0  0  0  0  0  0
   -1.7481   -0.3549    0.0000 C   0  0  0  0  0  0  0  0  0  0  0  0
   -1.0252    1.7218    0.0000 C   0  0  0  0  0  0  0  0  0  0  0  0
    1.8138   -0.4075    0.0000 C   0  0  0  0  0  0  0  0  0  0  0  0
    2.1686    0.3680    0.0000 C   0  0  0  0  0  0  0  0  0  0  0  0
   -1.0120   -0.7492    0.0000 C   0  0  0  0  0  0  0  0  0  0  0  0
   -2.4315   -0.7492    0.0000 C   0  0  0  0  0  0  0  0  0  0  0  0
   -0.3154    2.1030    0.0000 C   0  0  0  0  0  0  0  0  0  0  0  0
   -2.4447    0.8675    0.0000 C   0  0  0  0  0  0  0  0  0  0  0  0
   -2.4447   -1.5772    0.0000 C   0  0  0  0  0  0  0  0  0  0  0  0
   -1.0252   -1.5641    0.0000 C   0  0  0  0  0  0  0  0  0  0  0  0
   -1.7218    2.1030    0.0000 C   0  0  0  0  0  0  0  0  0  0  0  0
    0.4995   -0.9858    0.0000 C   0  0  0  0  0  0  0  0  0  0  0  0
    1.7349    1.6823    0.0000 C   0  0  0  0  0  0  0  0  0  0  0  0
   -1.7349   -1.9978    0.0000 C   0  0  0  0  0  0  0  0  0  0  0  0
    2.9572    0.5915    0.0000 C   0  0  0  0  0  0  0  0  0  0  0  0
    2.1686   -1.1566    0.0000 C   0  0  0  0  0  0  0  0  0  0  0  0
   -2.4578    1.6823    0.0000 C   0  0  0  0  0  0  0  0  0  0  0  0
    0.8280   -1.7218    0.0000 C   0  0  0  0  0  0  0  0  0  0  0  0
    2.5761    1.9321    0.0000 C   0  0  0  0  0  0  0  0  0  0  0  0
    1.6693   -1.8138    0.0000 C   0  0  0  0  0  0  0  0  0  0  0  0
    3.1413    1.4064    0.0000 C   0  0  0  0  0  0  0  0  0  0  0  0
  1 18  1  0  0  0  0
  2 19  1  0  0  0  0
  3 20  1  0  0  0  0
  4 20  1  0  0  0  0
  5 20  1  0  0  0  0
  6 22  1  0  0  0  0
  7 23  1  0  0  0  0
  8 27  1  0  0  0  0
  9 10  1  0  0  0  0
  9 12  1  0  0  0  0
  9 13  1  0  0  0  0
 10 11  2  0  0  0  0
 10 15  1  0  0  0  0
 11 14  1  0  0  0  0
 11 21  1  0  0  0  0
 12 16  2  0  0  0  0
 12 25  1  0  0  0  0
 13 17  2  0  0  0  0
 13 26  1  0  0  0  0
 14 18  2  0  0  0  0
 14 19  1  0  0  0  0
 15 20  1  0  0  0  0
 15 24  2  0  0  0  0
 16 17  1  0  0  0  0
 16 29  1  0  0  0  0
 17 28  1  0  0  0  0
 18 23  1  0  0  0  0
 19 22  2  0  0  0  0
 21 30  2  0  0  0  0
 22 27  1  0  0  0  0
 23 27  2  0  0  0  0
 24 30  1  0  0  0  0
 25 31  2  0  0  0  0
 26 32  2  0  0  0  0
 28 34  2  0  0  0  0
 29 33  2  0  0  0  0
 31 33  1  0  0  0  0
 32 34  1  0  0  0  0
M  END
> <PUBCHEM_COMPOUND_ID_TYPE>
0

> <PUBCHEM_TOTAL_CHARGE>
0

> <PUBCHEM_SUBSTANCE_ID>
310949049

> <PUBCHEM_SUBSTANCE_VERSION>
1

> <PUBCHEM_EXT_DATASOURCE_NAME>
4488

> <PUBCHEM_EXT_DATASOURCE_REGID>
SCHEMBL16127239

> <PUBCHEM_SUBSTANCE_COMMENT>
InChI=1S/C25H11F8N/c26-19-18(20(27)22(29)23(30)21(19)28)14-8-5-9-15(25(31,32)33)24(14)34-16-10-3-1-6-12(16)13-7-2-4-11-17(13)34/h1-11H
InChIKey=KGCILXCCELCDIM-UHFFFAOYSA-N

> <PUBCHEM_SUBSTANCE_SYNONYM>
SCHEMBL16127239

> <PUBCHEM_XREF_EXT_ID>
SCHEMBL16127239

> <PUBCHEM_EXT_DATASOURCE_URL>
https://www.surechembl.org/

> <PUBCHEM_EXT_SUBSTANCE_URL>
https://www.surechembl.org/chemical/SCHEMBL16127239

> <PUBCHEM_CID_ASSOCIATIONS>
117614554  1

> <PUBCHEM_COORDINATE_TYPE>
1
3

$$$$
