310946832
  -OEChem-07211613022D

 22 23  0     0  0  0  0  0  0999 V2000
   -3.3829   -0.8279    0.0000 O   0  0  0  0  0  0  0  0  0  0  0  0
   -2.1859   -1.7972    0.0000 O   0  0  0  0  0  0  0  0  0  0  0  0
   -3.3829   -0.0029    0.0000 N   0  0  0  0  0  0  0  0  0  0  0  0
   -1.2885   -0.4153    0.0000 N   0  0  0  0  0  0  0  0  0  0  0  0
    2.0113   -0.4153    0.0000 N   0  0  0  0  0  0  0  0  0  0  0  0
   -2.5985    0.2521    0.0000 C   0  0  0  0  0  0  0  0  0  0  0  0
   -2.1135   -0.4153    0.0000 C   0  0  0  0  0  0  0  0  0  0  0  0
   -2.1859    0.9665    0.0000 C   0  0  0  0  0  0  0  0  0  0  0  0
   -2.5985   -1.0827    0.0000 C   0  0  0  0  0  0  0  0  0  0  0  0
   -0.4636   -0.4153    0.0000 C   0  0  0  0  0  0  0  0  0  0  0  0
    1.1863   -0.4153    0.0000 C   0  0  0  0  0  0  0  0  0  0  0  0
   -0.0512   -1.1298    0.0000 C   0  0  0  0  0  0  0  0  0  0  0  0
   -0.0512    0.2991    0.0000 C   0  0  0  0  0  0  0  0  0  0  0  0
   -3.0167    1.4461    0.0000 C   0  0  0  0  0  0  0  0  0  0  0  0
   -1.7063    1.7972    0.0000 C   0  0  0  0  0  0  0  0  0  0  0  0
   -1.3552    0.4868    0.0000 C   0  0  0  0  0  0  0  0  0  0  0  0
    0.7738   -1.1298    0.0000 C   0  0  0  0  0  0  0  0  0  0  0  0
    0.7738    0.2991    0.0000 C   0  0  0  0  0  0  0  0  0  0  0  0
    2.4237   -1.1298    0.0000 C   0  0  0  0  0  0  0  0  0  0  0  0
    2.4237    0.2991    0.0000 C   0  0  0  0  0  0  0  0  0  0  0  0
    3.3829   -1.1298    0.0000 C   0  0  0  0  0  0  0  0  0  0  0  0
    1.9441    1.1298    0.0000 C   0  0  0  0  0  0  0  0  0  0  0  0
  1  3  1  0  0  0  0
  1  9  1  0  0  0  0
  2  9  2  0  0  0  0
  3  6  2  0  0  0  0
  4  7  2  3  0  0  0
  4 10  1  0  0  0  0
  5 11  1  0  0  0  0
  5 19  1  0  0  0  0
  5 20  1  0  0  0  0
  6  7  1  0  0  0  0
  6  8  1  0  0  0  0
  7  9  1  0  0  0  0
  8 14  1  0  0  0  0
  8 15  1  0  0  0  0
  8 16  1  0  0  0  0
 10 12  2  0  0  0  0
 10 13  1  0  0  0  0
 11 17  2  0  0  0  0
 11 18  1  0  0  0  0
 12 17  1  0  0  0  0
 13 18  2  0  0  0  0
 19 21  1  0  0  0  0
 20 22  1  0  0  0  0
M  END
> <PUBCHEM_COMPOUND_ID_TYPE>
0

> <PUBCHEM_TOTAL_CHARGE>
0

> <PUBCHEM_SUBSTANCE_ID>
310946832

> <PUBCHEM_SUBSTANCE_VERSION>
1

> <PUBCHEM_EXT_DATASOURCE_NAME>
4488

> <PUBCHEM_EXT_DATASOURCE_REGID>
SCHEMBL16124956

> <PUBCHEM_SUBSTANCE_COMMENT>
InChI=1S/C17H23N3O2/c1-6-20(7-2)13-10-8-12(9-11-13)18-14-15(17(3,4)5)19-22-16(14)21/h8-11H,6-7H2,1-5H3
InChIKey=MDNJFBCQOVPFKG-UHFFFAOYSA-N

> <PUBCHEM_SUBSTANCE_SYNONYM>
SCHEMBL16124956

> <PUBCHEM_XREF_EXT_ID>
SCHEMBL16124956

> <PUBCHEM_EXT_DATASOURCE_URL>
https://www.surechembl.org/

> <PUBCHEM_EXT_SUBSTANCE_URL>
https://www.surechembl.org/chemical/SCHEMBL16124956

> <PUBCHEM_CID_ASSOCIATIONS>
117612691  1

> <PUBCHEM_COORDINATE_TYPE>
1
3

$$$$
