310944335
  -OEChem-07211613022D

 32 36  0     1  0  0  0  0  0999 V2000
   -1.3182   -1.1914    0.0000 F   0  0  0  0  0  0  0  0  0  0  0  0
    2.4765   -0.0662    0.0000 O   0  0  0  0  0  0  0  0  0  0  0  0
    5.0027   -1.6217    0.0000 O   0  0  0  0  0  0  0  0  0  0  0  0
    5.4770   -0.2427    0.0000 O   0  0  0  0  0  0  0  0  0  0  0  0
    2.8626   -1.4781    0.0000 N   0  0  0  0  0  0  0  0  0  0  0  0
    0.1158   -0.3751    0.0000 N   0  0  0  0  0  0  0  0  0  0  0  0
   -4.1754    1.2685    0.0000 N   0  0  0  0  0  0  0  0  0  0  0  0
   -2.0242    0.8605    0.0000 N   0  0  0  0  0  0  0  0  0  0  0  0
   -4.2526    2.0959    0.0000 N   0  0  0  0  0  0  0  0  0  0  0  0
   -5.0689    2.2724    0.0000 N   0  0  0  0  0  0  0  0  0  0  0  0
   -5.4770    1.5555    0.0000 N   0  0  0  0  0  0  0  0  0  0  0  0
    1.5499   -1.1914    0.0000 C   0  0  0  0  0  0  0  0  0  0  0  0
    2.2890   -0.8825    0.0000 C   0  0  0  0  0  0  0  0  0  0  0  0
    3.6900   -1.3899    0.0000 C   0  0  0  0  0  0  0  0  0  0  0  0
    1.5499   -2.0077    0.0000 C   0  0  0  0  0  0  0  0  0  0  0  0
    2.3441   -2.2724    0.0000 C   0  0  0  0  0  0  0  0  0  0  0  0
    0.8439   -1.6106    0.0000 C   0  0  0  0  0  0  0  0  0  0  0  0
    1.5499   -0.3751    0.0000 C   0  0  0  0  0  0  0  0  0  0  0  0
    4.0761   -0.6509    0.0000 C   0  0  0  0  0  0  0  0  0  0  0  0
    4.2526   -1.9747    0.0000 C   0  0  0  0  0  0  0  0  0  0  0  0
    4.8814   -0.8163    0.0000 C   0  0  0  0  0  0  0  0  0  0  0  0
    0.1269   -1.2024    0.0000 C   0  0  0  0  0  0  0  0  0  0  0  0
    0.8219    0.0331    0.0000 C   0  0  0  0  0  0  0  0  0  0  0  0
   -0.6123    0.0331    0.0000 C   0  0  0  0  0  0  0  0  0  0  0  0
   -1.3072   -0.3640    0.0000 C   0  0  3  0  0  0  0  0  0  0  0  0
   -2.0463    0.0441    0.0000 C   0  0  0  0  0  0  0  0  0  0  0  0
    3.7010    0.0883    0.0000 C   0  0  0  0  0  0  0  0  0  0  0  0
   -3.4583    0.8715    0.0000 C   0  0  0  0  0  0  0  0  0  0  0  0
   -2.7303   -0.3640    0.0000 C   0  0  0  0  0  0  0  0  0  0  0  0
   -2.7524    1.2796    0.0000 C   0  0  0  0  0  0  0  0  0  0  0  0
   -3.4583    0.0441    0.0000 C   0  0  0  0  0  0  0  0  0  0  0  0
   -4.9145    0.9487    0.0000 C   0  0  0  0  0  0  0  0  0  0  0  0
 25  1  1  1  0  0  0
  2 13  2  0  0  0  0
  3 20  1  0  0  0  0
  3 21  1  0  0  0  0
  4 21  2  0  0  0  0
  5 13  1  0  0  0  0
  5 14  1  0  0  0  0
  5 16  1  0  0  0  0
  6 22  1  0  0  0  0
  6 23  1  0  0  0  0
  6 24  1  0  0  0  0
  7  9  1  0  0  0  0
  7 28  1  0  0  0  0
  7 32  1  0  0  0  0
  8 26  1  0  0  0  0
  8 30  2  0  0  0  0
  9 10  2  0  0  0  0
 10 11  1  0  0  0  0
 11 32  2  0  0  0  0
 12 13  1  0  0  0  0
 12 15  1  0  0  0  0
 12 17  1  0  0  0  0
 12 18  1  0  0  0  0
 14 19  2  0  0  0  0
 14 20  1  0  0  0  0
 15 16  1  0  0  0  0
 17 22  1  0  0  0  0
 18 23  1  0  0  0  0
 19 21  1  0  0  0  0
 19 27  1  0  0  0  0
 24 25  1  0  0  0  0
 25 26  1  0  0  0  0
 26 29  2  0  0  0  0
 28 30  1  0  0  0  0
 28 31  2  0  0  0  0
 29 31  1  0  0  0  0
M  END
> <PUBCHEM_COMPOUND_ID_TYPE>
0

> <PUBCHEM_TOTAL_CHARGE>
0

> <PUBCHEM_SUBSTANCE_ID>
310944335

> <PUBCHEM_SUBSTANCE_VERSION>
1

> <PUBCHEM_EXT_DATASOURCE_NAME>
4488

> <PUBCHEM_EXT_DATASOURCE_REGID>
SCHEMBL16122410

> <PUBCHEM_SUBSTANCE_COMMENT>
InChI=1S/C21H24FN7O3/c1-14-18(12-32-19(14)30)28-9-6-21(20(28)31)4-7-27(8-5-21)11-16(22)17-3-2-15(10-23-17)29-13-24-25-26-29/h2-3,10,13,16H,4-9,11-12H2,1H3/t16-/m1/s1
InChIKey=UJJJIQYNYCCWDH-MRXNPFEDSA-N

> <PUBCHEM_SUBSTANCE_SYNONYM>
SCHEMBL16122410

> <PUBCHEM_XREF_EXT_ID>
SCHEMBL16122410

> <PUBCHEM_EXT_DATASOURCE_URL>
https://www.surechembl.org/

> <PUBCHEM_EXT_SUBSTANCE_URL>
https://www.surechembl.org/chemical/SCHEMBL16122410

> <PUBCHEM_CID_ASSOCIATIONS>
117610592  1

> <PUBCHEM_COORDINATE_TYPE>
1
3

> <PUBCHEM_BONDANNOTATIONS>
25  1  5

$$$$
