310940588
  -OEChem-07211613022D

 33 37  0     1  0  0  0  0  0999 V2000
    2.5007    1.3809    0.0000 F   0  0  0  0  0  0  0  0  0  0  0  0
    2.6244   -0.2817    0.0000 O   0  0  0  0  0  0  0  0  0  0  0  0
    2.8442    1.0924    0.0000 O   0  0  0  0  0  0  0  0  0  0  0  0
   -1.5664   -0.4054    0.0000 O   0  0  0  0  0  0  0  0  0  0  0  0
   -2.8442   -2.3289    0.0000 O   0  0  0  0  0  0  0  0  0  0  0  0
    1.4976    0.4054    0.0000 N   0  0  0  0  0  0  0  0  0  0  0  0
    1.3327   -2.0816    0.0000 N   0  0  0  0  0  0  0  0  0  0  0  0
   -2.4320   -3.0571    0.0000 N   0  0  0  0  0  0  0  0  0  0  0  0
    1.2916   -0.3504    0.0000 C   0  0  0  0  0  0  0  0  0  0  0  0
    0.5908   -0.7626    0.0000 C   0  0  0  0  0  0  0  0  0  0  0  0
    2.0198   -0.7626    0.0000 C   0  0  0  0  0  0  0  0  0  0  0  0
    0.5771   -1.5869    0.0000 C   0  0  0  0  0  0  0  0  0  0  0  0
    2.2670    0.5152    0.0000 C   0  0  0  0  0  0  0  0  0  0  0  0
    0.8931    1.0236    0.0000 C   0  0  3  0  0  0  0  0  0  0  0  0
   -0.8656   -1.6007    0.0000 C   0  0  0  0  0  0  0  0  0  0  0  0
   -0.1375   -0.3641    0.0000 C   0  0  0  0  0  0  0  0  0  0  0  0
   -0.8519   -0.7763    0.0000 C   0  0  0  0  0  0  0  0  0  0  0  0
   -0.1375   -1.9992    0.0000 C   0  0  0  0  0  0  0  0  0  0  0  0
    2.0061   -1.6007    0.0000 C   0  0  0  0  0  0  0  0  0  0  0  0
   -1.5664   -2.0130    0.0000 C   0  0  0  0  0  0  0  0  0  0  0  0
    1.0993    1.8481    0.0000 C   0  0  0  0  0  0  0  0  0  0  0  0
   -2.3358   -1.6419    0.0000 C   0  0  0  0  0  0  0  0  0  0  0  0
   -1.6900   -2.8373    0.0000 C   0  0  0  0  0  0  0  0  0  0  0  0
    1.8824    2.0542    0.0000 C   0  0  0  0  0  0  0  0  0  0  0  0
    0.4946    2.4251    0.0000 C   0  0  0  0  0  0  0  0  0  0  0  0
    0.1099    0.8312    0.0000 C   0  0  0  0  0  0  0  0  0  0  0  0
    2.1022    2.8511    0.0000 C   0  0  0  0  0  0  0  0  0  0  0  0
    0.7419    3.2220    0.0000 C   0  0  0  0  0  0  0  0  0  0  0  0
    1.5251    3.4144    0.0000 C   0  0  0  0  0  0  0  0  0  0  0  0
   -2.4869   -0.8450    0.0000 C   0  0  0  0  0  0  0  0  0  0  0  0
   -1.0580   -3.4144    0.0000 C   0  0  0  0  0  0  0  0  0  0  0  0
   -0.2886    2.1915    0.0000 C   0  0  0  0  0  0  0  0  0  0  0  0
   -1.5801    0.4877    0.0000 C   0  0  0  0  0  0  0  0  0  0  0  0
  1 24  1  0  0  0  0
  2 11  1  0  0  0  0
  2 13  1  0  0  0  0
  3 13  2  0  0  0  0
  4 17  1  0  0  0  0
  4 33  1  0  0  0  0
  5  8  1  0  0  0  0
  5 22  1  0  0  0  0
  6  9  1  0  0  0  0
  6 13  1  0  0  0  0
  6 14  1  0  0  0  0
  7 12  2  0  0  0  0
  7 19  1  0  0  0  0
  8 23  2  0  0  0  0
  9 10  2  0  0  0  0
  9 11  1  0  0  0  0
 10 12  1  0  0  0  0
 10 16  1  0  0  0  0
 11 19  2  0  0  0  0
 12 18  1  0  0  0  0
 14 21  1  0  0  0  0
 14 26  1  6  0  0  0
 15 17  1  0  0  0  0
 15 18  2  0  0  0  0
 15 20  1  0  0  0  0
 16 17  2  0  0  0  0
 20 22  2  0  0  0  0
 20 23  1  0  0  0  0
 21 24  1  0  0  0  0
 21 25  2  0  0  0  0
 22 30  1  0  0  0  0
 23 31  1  0  0  0  0
 24 27  2  0  0  0  0
 25 28  1  0  0  0  0
 25 32  1  0  0  0  0
 27 29  1  0  0  0  0
 28 29  2  0  0  0  0
M  END
> <PUBCHEM_COMPOUND_ID_TYPE>
0

> <PUBCHEM_TOTAL_CHARGE>
0

> <PUBCHEM_SUBSTANCE_ID>
310940588

> <PUBCHEM_SUBSTANCE_VERSION>
1

> <PUBCHEM_EXT_DATASOURCE_NAME>
4488

> <PUBCHEM_EXT_DATASOURCE_REGID>
SCHEMBL16118542

> <PUBCHEM_SUBSTANCE_COMMENT>
InChI=1S/C25H22FN3O4/c1-12-7-6-8-18(26)22(12)14(3)29-24-16-10-20(31-5)17(23-13(2)28-33-15(23)4)9-19(16)27-11-21(24)32-25(29)30/h6-11,14H,1-5H3/t14-/m1/s1
InChIKey=HNOLGVIIDGMFGM-CQSZACIVSA-N

> <PUBCHEM_SUBSTANCE_SYNONYM>
SCHEMBL16118542

> <PUBCHEM_XREF_EXT_ID>
SCHEMBL16118542

> <PUBCHEM_EXT_DATASOURCE_URL>
https://www.surechembl.org/

> <PUBCHEM_EXT_SUBSTANCE_URL>
https://www.surechembl.org/chemical/SCHEMBL16118542

> <PUBCHEM_CID_ASSOCIATIONS>
117607578  1

> <PUBCHEM_COORDINATE_TYPE>
1
3

> <PUBCHEM_BONDANNOTATIONS>
14  26  6

$$$$
