310940654
  -OEChem-07211613022D

 35 39  0     1  0  0  0  0  0999 V2000
   -1.1576   -0.6120    0.0000 O   0  0  0  0  0  0  0  0  0  0  0  0
    3.5170   -3.5908    0.0000 O   0  0  0  0  0  0  0  0  0  0  0  0
    2.2783   -2.8830    0.0000 O   0  0  0  0  0  0  0  0  0  0  0  0
    1.7769   -0.7595    0.0000 N   0  0  0  0  0  0  0  0  0  0  0  0
    1.7769   -2.1014    0.0000 N   0  0  0  0  0  0  0  0  0  0  0  0
   -3.3548   -0.9364    0.0000 N   0  0  0  0  0  0  0  0  0  0  0  0
   -3.9152   -0.3318    0.0000 N   0  0  0  0  0  0  0  0  0  0  0  0
    1.5115    3.5908    0.0000 N   0  0  0  0  0  0  0  0  0  0  0  0
    2.2488   -1.4231    0.0000 C   0  0  0  0  0  0  0  0  0  0  0  0
    0.9954   -1.0101    0.0000 C   0  0  0  0  0  0  0  0  0  0  0  0
    0.9806   -1.8360    0.0000 C   0  0  0  0  0  0  0  0  0  0  0  0
    3.1189   -1.4231    0.0000 C   0  0  3  0  0  0  0  0  0  0  0  0
    0.2728   -0.6120    0.0000 C   0  0  0  0  0  0  0  0  0  0  0  0
    3.5170   -2.1161    0.0000 C   0  0  3  0  0  0  0  0  0  0  0  0
    2.0277    0.0221    0.0000 C   0  0  0  0  0  0  0  0  0  0  0  0
    0.2581   -2.2488    0.0000 C   0  0  0  0  0  0  0  0  0  0  0  0
   -0.4350   -1.0249    0.0000 C   0  0  0  0  0  0  0  0  0  0  0  0
    3.5170   -0.7299    0.0000 C   0  0  0  0  0  0  0  0  0  0  0  0
   -0.4350   -1.8212    0.0000 C   0  0  0  0  0  0  0  0  0  0  0  0
    1.4377    0.6120    0.0000 C   0  0  0  0  0  0  0  0  0  0  0  0
    3.0746   -2.8682    0.0000 C   0  0  0  0  0  0  0  0  0  0  0  0
    4.3428   -2.1456    0.0000 C   0  0  0  0  0  0  0  0  0  0  0  0
    4.3428   -0.7299    0.0000 C   0  0  0  0  0  0  0  0  0  0  0  0
    1.6590    1.4083    0.0000 C   0  0  0  0  0  0  0  0  0  0  0  0
    4.7410   -1.4231    0.0000 C   0  0  0  0  0  0  0  0  0  0  0  0
    0.6414    0.4055    0.0000 C   0  0  0  0  0  0  0  0  0  0  0  0
    1.0691    1.9981    0.0000 C   0  0  0  0  0  0  0  0  0  0  0  0
   -1.8654   -1.0101    0.0000 C   0  0  0  0  0  0  0  0  0  0  0  0
   -2.6175   -0.5972    0.0000 C   0  0  0  0  0  0  0  0  0  0  0  0
    0.0811    0.9806    0.0000 C   0  0  0  0  0  0  0  0  0  0  0  0
    0.2876    1.7769    0.0000 C   0  0  0  0  0  0  0  0  0  0  0  0
   -2.6765    0.2138    0.0000 C   0  0  0  0  0  0  0  0  0  0  0  0
    1.3050    2.7797    0.0000 C   0  0  0  0  0  0  0  0  0  0  0  0
   -3.4876    0.3908    0.0000 C   0  0  0  0  0  0  0  0  0  0  0  0
   -4.7410   -0.4350    0.0000 C   0  0  0  0  0  0  0  0  0  0  0  0
  1 17  1  0  0  0  0
  1 28  1  0  0  0  0
  2 21  2  0  0  0  0
  3 21  1  0  0  0  0
  4  9  1  0  0  0  0
  4 10  1  0  0  0  0
  4 15  1  0  0  0  0
  5  9  2  0  0  0  0
  5 11  1  0  0  0  0
  6  7  1  0  0  0  0
  6 29  2  0  0  0  0
  7 34  1  0  0  0  0
  7 35  1  0  0  0  0
  8 33  3  0  0  0  0
 12  9  1  1  0  0  0
 10 11  1  0  0  0  0
 10 13  2  0  0  0  0
 11 16  2  0  0  0  0
 12 14  1  0  0  0  0
 12 18  1  0  0  0  0
 13 17  1  0  0  0  0
 14 21  1  1  0  0  0
 14 22  1  0  0  0  0
 15 20  1  0  0  0  0
 16 19  1  0  0  0  0
 17 19  2  0  0  0  0
 18 23  1  0  0  0  0
 20 24  1  0  0  0  0
 20 26  2  0  0  0  0
 22 25  1  0  0  0  0
 23 25  1  0  0  0  0
 24 27  2  0  0  0  0
 26 30  1  0  0  0  0
 27 31  1  0  0  0  0
 27 33  1  0  0  0  0
 28 29  1  0  0  0  0
 29 32  1  0  0  0  0
 30 31  2  0  0  0  0
 32 34  2  0  0  0  0
M  END
> <PUBCHEM_COMPOUND_ID_TYPE>
0

> <PUBCHEM_TOTAL_CHARGE>
0

> <PUBCHEM_SUBSTANCE_ID>
310940654

> <PUBCHEM_SUBSTANCE_VERSION>
1

> <PUBCHEM_EXT_DATASOURCE_NAME>
4488

> <PUBCHEM_EXT_DATASOURCE_REGID>
SCHEMBL16118609

> <PUBCHEM_SUBSTANCE_COMMENT>
InChI=1S/C27H27N5O3/c1-31-12-11-20(30-31)17-35-21-9-10-24-25(14-21)32(16-19-6-4-5-18(13-19)15-28)26(29-24)22-7-2-3-8-23(22)27(33)34/h4-6,9-14,22-23H,2-3,7-8,16-17H2,1H3,(H,33,34)/t22-,23+/m0/s1
InChIKey=VIGLJBRZAQKGKX-XZOQPEGZSA-N

> <PUBCHEM_SUBSTANCE_SYNONYM>
SCHEMBL16118609

> <PUBCHEM_XREF_EXT_ID>
SCHEMBL16118609

> <PUBCHEM_EXT_DATASOURCE_URL>
https://www.surechembl.org/

> <PUBCHEM_EXT_SUBSTANCE_URL>
https://www.surechembl.org/chemical/SCHEMBL16118609

> <PUBCHEM_CID_ASSOCIATIONS>
117607631  1

> <PUBCHEM_COORDINATE_TYPE>
1
3

> <PUBCHEM_BONDANNOTATIONS>
14  21  5
12  9  5

$$$$
