310949887
  -OEChem-07211613022D

 31 35  0     1  0  0  0  0  0999 V2000
   -3.2007    3.1315    0.0000 F   0  0  0  0  0  0  0  0  0  0  0  0
   -0.2632    1.6211    0.0000 N   0  0  0  0  0  0  0  0  0  0  0  0
   -0.2632    2.9651    0.0000 N   0  0  0  0  0  0  0  0  0  0  0  0
    0.5127   -0.7482    0.0000 N   0  0  0  0  0  0  0  0  0  0  0  0
    2.3278    1.8844    0.0000 N   0  0  0  0  0  0  0  0  0  0  0  0
   -1.0531    1.8983    0.0000 C   0  0  0  0  0  0  0  0  0  0  0  0
    0.2217    2.3001    0.0000 C   0  0  0  0  0  0  0  0  0  0  0  0
   -1.0531    2.7158    0.0000 C   0  0  0  0  0  0  0  0  0  0  0  0
   -0.0139    0.8591    0.0000 C   0  0  0  0  0  0  0  0  0  0  0  0
    1.0669    2.2862    0.0000 C   0  0  3  0  0  0  0  0  0  0  0  0
   -1.7597    1.4826    0.0000 C   0  0  0  0  0  0  0  0  0  0  0  0
   -1.7736    3.1176    0.0000 C   0  0  0  0  0  0  0  0  0  0  0  0
   -0.5543    0.1940    0.0000 C   0  0  0  0  0  0  0  0  0  0  0  0
    0.8175    0.6651    0.0000 C   0  0  0  0  0  0  0  0  0  0  0  0
   -2.4802    2.7158    0.0000 C   0  0  0  0  0  0  0  0  0  0  0  0
   -2.4802    1.8844    0.0000 C   0  0  0  0  0  0  0  0  0  0  0  0
    1.5796   -1.7042    0.0000 C   0  0  0  0  0  0  0  0  0  0  0  0
    1.5796    1.6350    0.0000 C   0  0  0  0  0  0  0  0  0  0  0  0
    1.5380    2.9513    0.0000 C   0  0  0  0  0  0  0  0  0  0  0  0
    2.1199   -1.0808    0.0000 C   0  0  0  0  0  0  0  0  0  0  0  0
   -0.3048   -0.5543    0.0000 C   0  0  0  0  0  0  0  0  0  0  0  0
    1.0669   -0.1109    0.0000 C   0  0  0  0  0  0  0  0  0  0  0  0
    0.7759   -1.5241    0.0000 C   0  0  0  0  0  0  0  0  0  0  0  0
    1.8290   -2.4802    0.0000 C   0  0  0  0  0  0  0  0  0  0  0  0
    2.3416    2.7158    0.0000 C   0  0  0  0  0  0  0  0  0  0  0  0
    2.9375   -1.2609    0.0000 C   0  0  0  0  0  0  0  0  0  0  0  0
    2.6465   -2.6603    0.0000 C   0  0  0  0  0  0  0  0  0  0  0  0
    3.2007   -2.0507    0.0000 C   0  0  0  0  0  0  0  0  0  0  0  0
    1.5241   -0.5127    0.0000 C   0  0  0  0  0  0  0  0  0  0  0  0
    2.3001   -0.2632    0.0000 C   0  0  0  0  0  0  0  0  0  0  0  0
    1.2886   -3.1315    0.0000 C   0  0  0  0  0  0  0  0  0  0  0  0
  1 15  1  0  0  0  0
  2  6  1  0  0  0  0
  2  7  1  0  0  0  0
  2  9  1  0  0  0  0
  3  7  2  0  0  0  0
  3  8  1  0  0  0  0
  4 21  1  0  0  0  0
  4 22  1  0  0  0  0
  4 23  1  0  0  0  0
  5 18  1  0  0  0  0
  5 25  1  0  0  0  0
  6  8  1  0  0  0  0
  6 11  2  0  0  0  0
 10  7  1  6  0  0  0
  8 12  2  0  0  0  0
  9 13  1  0  0  0  0
  9 14  1  0  0  0  0
 10 18  1  0  0  0  0
 10 19  1  0  0  0  0
 11 16  1  0  0  0  0
 12 15  1  0  0  0  0
 13 21  1  0  0  0  0
 14 22  1  0  0  0  0
 15 16  2  0  0  0  0
 17 20  1  0  0  0  0
 17 23  1  0  0  0  0
 17 24  2  0  0  0  0
 19 25  1  0  0  0  0
 20 26  1  0  0  0  0
 20 29  1  0  0  0  0
 20 30  1  0  0  0  0
 24 27  1  0  0  0  0
 24 31  1  0  0  0  0
 26 28  1  0  0  0  0
 27 28  1  0  0  0  0
M  END
> <PUBCHEM_COMPOUND_ID_TYPE>
0

> <PUBCHEM_TOTAL_CHARGE>
0

> <PUBCHEM_SUBSTANCE_ID>
310949887

> <PUBCHEM_SUBSTANCE_VERSION>
1

> <PUBCHEM_EXT_DATASOURCE_NAME>
4488

> <PUBCHEM_EXT_DATASOURCE_REGID>
SCHEMBL16128098

> <PUBCHEM_SUBSTANCE_COMMENT>
InChI=1S/C26H37FN4/c1-18-5-4-11-26(2,3)22(18)17-30-13-9-21(10-14-30)31-24-7-6-20(27)15-23(24)29-25(31)19-8-12-28-16-19/h6-7,15,19,21,28H,4-5,8-14,16-17H2,1-3H3/t19-/m1/s1
InChIKey=HPCPAFSLDOVLFO-LJQANCHMSA-N

> <PUBCHEM_SUBSTANCE_SYNONYM>
SCHEMBL16128098

> <PUBCHEM_XREF_EXT_ID>
SCHEMBL16128098

> <PUBCHEM_EXT_DATASOURCE_URL>
https://www.surechembl.org/

> <PUBCHEM_EXT_SUBSTANCE_URL>
https://www.surechembl.org/chemical/SCHEMBL16128098

> <PUBCHEM_CID_ASSOCIATIONS>
86274051  1

> <PUBCHEM_COORDINATE_TYPE>
1
3

> <PUBCHEM_BONDANNOTATIONS>
10  7  6

$$$$
