310937860
  -OEChem-07211613022D

 12 12  0     0  0  0  0  0  0999 V2000
    2.8317   -0.0142    0.0000 I   0  0  0  0  0  0  0  0  0  0  0  0
    1.2380   -0.0142    0.0000 O   0  0  0  0  0  0  0  0  0  0  0  0
    2.8317   -2.8317    0.0000 O   0  0  0  0  0  0  0  0  0  0  0  0
    1.6364   -2.1202    0.0000 N   0  0  0  0  0  0  0  0  0  0  0  0
    1.6364   -0.7257    0.0000 C   0  0  0  0  0  0  0  0  0  0  0  0
    2.4333   -0.7257    0.0000 C   0  0  0  0  0  0  0  0  0  0  0  0
    2.4333   -2.1202    0.0000 C   0  0  0  0  0  0  0  0  0  0  0  0
    2.8743   -1.4229    0.0000 C   0  0  0  0  0  0  0  0  0  0  0  0
    1.1953   -1.4229    0.0000 C   0  0  0  0  0  0  0  0  0  0  0  0
    0.4269    0.0000    0.0000 C   0  0  0  0  0  0  0  0  0  0  0  0
    3.6569   -2.8459    0.0000 C   0  0  0  0  0  0  0  0  0  0  0  0
    0.0000   -0.6973    0.0000 C   0  0  0  0  0  0  0  0  0  0  0  0
  1  6  1  0  0  0  0
  2  5  1  0  0  0  0
  2 10  1  0  0  0  0
  3  7  1  0  0  0  0
  3 11  1  0  0  0  0
  4  7  1  0  0  0  0
  4  9  2  0  0  0  0
  5  6  2  0  0  0  0
  5  9  1  0  0  0  0
  6  8  1  0  0  0  0
  7  8  2  0  0  0  0
 10 12  1  0  0  0  0
M  END
> <PUBCHEM_COMPOUND_ID_TYPE>
0

> <PUBCHEM_TOTAL_CHARGE>
0

> <PUBCHEM_SUBSTANCE_ID>
310937860

> <PUBCHEM_SUBSTANCE_VERSION>
1

> <PUBCHEM_EXT_DATASOURCE_NAME>
4488

> <PUBCHEM_EXT_DATASOURCE_REGID>
SCHEMBL16115684

> <PUBCHEM_SUBSTANCE_COMMENT>
InChI=1S/C8H10INO2/c1-3-12-7-5-10-8(11-2)4-6(7)9/h4-5H,3H2,1-2H3
InChIKey=GZQHUYJOHNGVER-UHFFFAOYSA-N

> <PUBCHEM_SUBSTANCE_SYNONYM>
SCHEMBL16115684

> <PUBCHEM_XREF_EXT_ID>
SCHEMBL16115684

> <PUBCHEM_EXT_DATASOURCE_URL>
https://www.surechembl.org/

> <PUBCHEM_EXT_SUBSTANCE_URL>
https://www.surechembl.org/chemical/SCHEMBL16115684

> <PUBCHEM_CID_ASSOCIATIONS>
117605486  1

> <PUBCHEM_COORDINATE_TYPE>
1
3

$$$$
