310949518
  -OEChem-07211613022D

 22 23  0     0  0  0  0  0  0999 V2000
   -0.2027   -1.0855    0.0000 O   0  0  0  0  0  0  0  0  0  0  0  0
    2.2579    0.3474    0.0000 O   0  0  0  0  0  0  0  0  0  0  0  0
    3.4882   -0.3618    0.0000 O   0  0  0  0  0  0  0  0  0  0  0  0
   -2.2434    2.5184    0.0000 O   0  0  0  0  0  0  0  0  0  0  0  0
    1.0277   -0.3618    0.0000 N   0  0  0  0  0  0  0  0  0  0  0  0
   -0.2027    0.3474    0.0000 N   0  0  0  0  0  0  0  0  0  0  0  0
    1.4473   -1.0710    0.0000 C   0  0  0  0  0  0  0  0  0  0  0  0
    2.2434   -1.0855    0.0000 C   0  0  0  0  0  0  0  0  0  0  0  0
   -1.0132    0.3618    0.0000 C   0  0  0  0  0  0  0  0  0  0  0  0
    0.2171   -0.3474    0.0000 C   0  0  0  0  0  0  0  0  0  0  0  0
   -2.2434    1.0855    0.0000 C   0  0  0  0  0  0  0  0  0  0  0  0
    2.6777   -0.3763    0.0000 C   0  0  0  0  0  0  0  0  0  0  0  0
    1.0421   -1.8237    0.0000 C   0  0  0  0  0  0  0  0  0  0  0  0
    2.6632   -1.7947    0.0000 C   0  0  0  0  0  0  0  0  0  0  0  0
   -1.4184    1.0566    0.0000 C   0  0  0  0  0  0  0  0  0  0  0  0
   -1.4184   -0.3618    0.0000 C   0  0  0  0  0  0  0  0  0  0  0  0
    1.4473   -2.5184    0.0000 C   0  0  0  0  0  0  0  0  0  0  0  0
   -2.6487    0.3474    0.0000 C   0  0  0  0  0  0  0  0  0  0  0  0
    2.2579   -2.5184    0.0000 C   0  0  0  0  0  0  0  0  0  0  0  0
   -2.6632    1.7802    0.0000 C   0  0  0  0  0  0  0  0  0  0  0  0
   -2.2434   -0.3618    0.0000 C   0  0  0  0  0  0  0  0  0  0  0  0
   -3.4882    1.7947    0.0000 C   0  0  0  0  0  0  0  0  0  0  0  0
  1 10  2  0  0  0  0
  2 12  2  0  0  0  0
  3 12  1  0  0  0  0
  4 20  2  0  0  0  0
  5  7  1  0  0  0  0
  5 10  1  0  0  0  0
  6  9  1  0  0  0  0
  6 10  1  0  0  0  0
  7  8  2  0  0  0  0
  7 13  1  0  0  0  0
  8 12  1  0  0  0  0
  8 14  1  0  0  0  0
  9 15  1  0  0  0  0
  9 16  2  0  0  0  0
 11 15  2  0  0  0  0
 11 18  1  0  0  0  0
 11 20  1  0  0  0  0
 13 17  2  0  0  0  0
 14 19  2  0  0  0  0
 16 21  1  0  0  0  0
 17 19  1  0  0  0  0
 18 21  2  0  0  0  0
 20 22  1  0  0  0  0
M  END
> <PUBCHEM_COMPOUND_ID_TYPE>
0

> <PUBCHEM_TOTAL_CHARGE>
0

> <PUBCHEM_SUBSTANCE_ID>
310949518

> <PUBCHEM_SUBSTANCE_VERSION>
1

> <PUBCHEM_EXT_DATASOURCE_NAME>
4488

> <PUBCHEM_EXT_DATASOURCE_REGID>
SCHEMBL16127713

> <PUBCHEM_SUBSTANCE_COMMENT>
InChI=1S/C16H14N2O4/c1-10(19)11-5-4-6-12(9-11)17-16(22)18-14-8-3-2-7-13(14)15(20)21/h2-9H,1H3,(H,20,21)(H2,17,18,22)
InChIKey=LAXPYCPFRFFKCA-UHFFFAOYSA-N

> <PUBCHEM_SUBSTANCE_SYNONYM>
SCHEMBL16127713

> <PUBCHEM_XREF_EXT_ID>
SCHEMBL16127713

> <PUBCHEM_EXT_DATASOURCE_URL>
https://www.surechembl.org/

> <PUBCHEM_EXT_SUBSTANCE_URL>
https://www.surechembl.org/chemical/SCHEMBL16127713

> <PUBCHEM_CID_ASSOCIATIONS>
117614953  1

> <PUBCHEM_COORDINATE_TYPE>
1
3

$$$$
