310948471
  -OEChem-07211613022D

 38 42  0     0  0  0  0  0  0999 V2000
    1.7694   -3.0287    0.0000 Cl  0  0  0  0  0  0  0  0  0  0  0  0
   -1.8188   -3.4566    0.0000 S   0  0  0  0  0  0  0  0  0  0  0  0
   -0.1234    3.9668    0.0000 F   0  0  0  0  0  0  0  0  0  0  0  0
    0.9794    4.1479    0.0000 F   0  0  0  0  0  0  0  0  0  0  0  0
    1.1604    3.0451    0.0000 F   0  0  0  0  0  0  0  0  0  0  0  0
    1.2263    1.5308    0.0000 O   0  0  0  0  0  0  0  0  0  0  0  0
   -2.1974   -2.7982    0.0000 O   0  0  0  0  0  0  0  0  0  0  0  0
   -1.4073   -4.1479    0.0000 O   0  0  0  0  0  0  0  0  0  0  0  0
   -0.3868    1.5473    0.0000 N   0  0  0  0  0  0  0  0  0  0  0  0
    2.3784    0.8559    0.0000 N   0  0  0  0  0  0  0  0  0  0  0  0
    0.2880    2.0411    0.0000 N   0  0  0  0  0  0  0  0  0  0  0  0
    0.3375    0.3128    0.0000 C   0  0  0  0  0  0  0  0  0  0  0  0
    1.0452    0.7242    0.0000 C   0  0  0  0  0  0  0  0  0  0  0  0
   -0.3703    0.7242    0.0000 C   0  0  0  0  0  0  0  0  0  0  0  0
    1.7694    0.3128    0.0000 C   0  0  0  0  0  0  0  0  0  0  0  0
    0.3375   -0.5267    0.0000 C   0  0  0  0  0  0  0  0  0  0  0  0
   -0.3703   -0.9383    0.0000 C   0  0  0  0  0  0  0  0  0  0  0  0
    1.7530   -0.5267    0.0000 C   0  0  0  0  0  0  0  0  0  0  0  0
   -1.0782    0.2962    0.0000 C   0  0  0  0  0  0  0  0  0  0  0  0
    2.0493    1.6131    0.0000 C   0  0  0  0  0  0  0  0  0  0  0  0
    0.0247    2.8147    0.0000 C   0  0  0  0  0  0  0  0  0  0  0  0
   -0.3868   -1.7777    0.0000 C   0  0  0  0  0  0  0  0  0  0  0  0
   -1.0782   -0.5432    0.0000 C   0  0  0  0  0  0  0  0  0  0  0  0
   -1.0452    2.0411    0.0000 C   0  0  0  0  0  0  0  0  0  0  0  0
    0.5185    3.5060    0.0000 C   0  0  0  0  0  0  0  0  0  0  0  0
   -0.7818    2.8311    0.0000 C   0  0  0  0  0  0  0  0  0  0  0  0
   -1.0782   -2.1892    0.0000 C   0  0  0  0  0  0  0  0  0  0  0  0
   -1.0946   -3.0287    0.0000 C   0  0  0  0  0  0  0  0  0  0  0  0
    1.0617   -0.9547    0.0000 C   0  0  0  0  0  0  0  0  0  0  0  0
    2.4772   -0.9547    0.0000 C   0  0  0  0  0  0  0  0  0  0  0  0
    0.3375   -2.1892    0.0000 C   0  0  0  0  0  0  0  0  0  0  0  0
    2.4608    2.3538    0.0000 C   0  0  0  0  0  0  0  0  0  0  0  0
   -0.3868   -3.4237    0.0000 C   0  0  0  0  0  0  0  0  0  0  0  0
    0.3375   -3.0287    0.0000 C   0  0  0  0  0  0  0  0  0  0  0  0
    1.0617   -1.7777    0.0000 C   0  0  0  0  0  0  0  0  0  0  0  0
    2.4772   -1.7777    0.0000 C   0  0  0  0  0  0  0  0  0  0  0  0
    1.7694   -2.1892    0.0000 C   0  0  0  0  0  0  0  0  0  0  0  0
   -2.4772   -3.8516    0.0000 C   0  0  0  0  0  0  0  0  0  0  0  0
  1 37  1  0  0  0  0
  2  7  2  0  0  0  0
  2  8  2  0  0  0  0
  2 28  1  0  0  0  0
  2 38  1  0  0  0  0
  3 25  1  0  0  0  0
  4 25  1  0  0  0  0
  5 25  1  0  0  0  0
  6 13  1  0  0  0  0
  6 20  1  0  0  0  0
  9 11  1  0  0  0  0
  9 14  1  0  0  0  0
  9 24  1  0  0  0  0
 10 15  1  0  0  0  0
 10 20  2  0  0  0  0
 11 21  2  0  0  0  0
 12 13  1  0  0  0  0
 12 14  1  0  0  0  0
 12 16  2  0  0  0  0
 13 15  2  0  0  0  0
 14 19  2  0  0  0  0
 15 18  1  0  0  0  0
 16 17  1  0  0  0  0
 17 22  1  0  0  0  0
 17 23  2  0  0  0  0
 18 29  2  0  0  0  0
 18 30  1  0  0  0  0
 19 23  1  0  0  0  0
 20 32  1  0  0  0  0
 21 25  1  0  0  0  0
 21 26  1  0  0  0  0
 22 27  2  0  0  0  0
 22 31  1  0  0  0  0
 24 26  2  0  0  0  0
 27 28  1  0  0  0  0
 28 33  2  0  0  0  0
 29 35  1  0  0  0  0
 30 36  2  0  0  0  0
 31 34  2  0  0  0  0
 33 34  1  0  0  0  0
 35 37  2  0  0  0  0
 36 37  1  0  0  0  0
M  END
> <PUBCHEM_COMPOUND_ID_TYPE>
0

> <PUBCHEM_TOTAL_CHARGE>
0

> <PUBCHEM_SUBSTANCE_ID>
310948471

> <PUBCHEM_SUBSTANCE_VERSION>
1

> <PUBCHEM_EXT_DATASOURCE_NAME>
4488

> <PUBCHEM_EXT_DATASOURCE_REGID>
SCHEMBL16126653

> <PUBCHEM_SUBSTANCE_COMMENT>
InChI=1S/C27H19ClF3N3O3S/c1-16-32-25(17-6-9-20(28)10-7-17)26(37-16)22-15-19(18-4-3-5-21(14-18)38(2,35)36)8-11-23(22)34-13-12-24(33-34)27(29,30)31/h3-15H,1-2H3
InChIKey=CKFUKPCXGJYAIH-UHFFFAOYSA-N

> <PUBCHEM_SUBSTANCE_SYNONYM>
SCHEMBL16126653

> <PUBCHEM_XREF_EXT_ID>
SCHEMBL16126653

> <PUBCHEM_EXT_DATASOURCE_URL>
https://www.surechembl.org/

> <PUBCHEM_EXT_SUBSTANCE_URL>
https://www.surechembl.org/chemical/SCHEMBL16126653

> <PUBCHEM_CID_ASSOCIATIONS>
117614029  1

> <PUBCHEM_COORDINATE_TYPE>
1
3

$$$$
