310948208
  -OEChem-07211613022D

 44 48  0     0  0  0  0  0  0999 V2000
   -2.5833   -3.4775    0.0000 S   0  0  0  0  0  0  0  0  0  0  0  0
   -0.9273    3.9743    0.0000 F   0  0  0  0  0  0  0  0  0  0  0  0
    0.1821    4.1731    0.0000 F   0  0  0  0  0  0  0  0  0  0  0  0
    0.3643    3.0636    0.0000 F   0  0  0  0  0  0  0  0  0  0  0  0
    3.2456   -3.3947    0.0000 F   0  0  0  0  0  0  0  0  0  0  0  0
    2.6993   -2.3514    0.0000 F   0  0  0  0  0  0  0  0  0  0  0  0
    2.1859   -3.8750    0.0000 F   0  0  0  0  0  0  0  0  0  0  0  0
    1.5401    0.9604    0.0000 O   0  0  0  0  0  0  0  0  0  0  0  0
    1.6725   -2.8649    0.0000 O   0  0  0  0  0  0  0  0  0  0  0  0
   -2.9808   -2.8152    0.0000 O   0  0  0  0  0  0  0  0  0  0  0  0
   -2.1527   -4.1731    0.0000 O   0  0  0  0  0  0  0  0  0  0  0  0
   -1.1758    1.5235    0.0000 N   0  0  0  0  0  0  0  0  0  0  0  0
    0.3478    1.5069    0.0000 N   0  0  0  0  0  0  0  0  0  0  0  0
   -0.4803    2.0368    0.0000 N   0  0  0  0  0  0  0  0  0  0  0  0
   -0.4306    0.2981    0.0000 C   0  0  0  0  0  0  0  0  0  0  0  0
    0.2484    0.6955    0.0000 C   0  0  0  0  0  0  0  0  0  0  0  0
   -1.1758    0.7120    0.0000 C   0  0  0  0  0  0  0  0  0  0  0  0
    0.9935    0.3643    0.0000 C   0  0  0  0  0  0  0  0  0  0  0  0
   -0.4472   -0.5797    0.0000 C   0  0  0  0  0  0  0  0  0  0  0  0
    1.1261    1.6725    0.0000 C   0  0  0  0  0  0  0  0  0  0  0  0
   -1.1592   -0.9935    0.0000 C   0  0  0  0  0  0  0  0  0  0  0  0
    1.1592   -0.4472    0.0000 C   0  0  0  0  0  0  0  0  0  0  0  0
   -1.9044    0.2815    0.0000 C   0  0  0  0  0  0  0  0  0  0  0  0
   -0.7617    2.8483    0.0000 C   0  0  0  0  0  0  0  0  0  0  0  0
   -1.1758   -1.8216    0.0000 C   0  0  0  0  0  0  0  0  0  0  0  0
   -1.9044   -0.5797    0.0000 C   0  0  0  0  0  0  0  0  0  0  0  0
   -1.8548    2.0368    0.0000 C   0  0  0  0  0  0  0  0  0  0  0  0
    1.4573    2.4342    0.0000 C   0  0  0  0  0  0  0  0  0  0  0  0
   -0.2815    3.5272    0.0000 C   0  0  0  0  0  0  0  0  0  0  0  0
   -1.5897    2.8649    0.0000 C   0  0  0  0  0  0  0  0  0  0  0  0
    0.5797   -0.9770    0.0000 C   0  0  0  0  0  0  0  0  0  0  0  0
    1.9375   -0.7120    0.0000 C   0  0  0  0  0  0  0  0  0  0  0  0
   -1.8713   -2.2355    0.0000 C   0  0  0  0  0  0  0  0  0  0  0  0
   -1.8878   -3.0636    0.0000 C   0  0  0  0  0  0  0  0  0  0  0  0
   -0.4803   -2.2355    0.0000 C   0  0  0  0  0  0  0  0  0  0  0  0
    1.5069   -2.0534    0.0000 C   0  0  0  0  0  0  0  0  0  0  0  0
    0.7286   -1.7885    0.0000 C   0  0  0  0  0  0  0  0  0  0  0  0
    2.1031   -1.4904    0.0000 C   0  0  0  0  0  0  0  0  0  0  0  0
   -1.1592   -3.4610    0.0000 C   0  0  0  0  0  0  0  0  0  0  0  0
   -0.4803   -3.0636    0.0000 C   0  0  0  0  0  0  0  0  0  0  0  0
    1.0764    3.1628    0.0000 C   0  0  0  0  0  0  0  0  0  0  0  0
    2.3018    2.4508    0.0000 C   0  0  0  0  0  0  0  0  0  0  0  0
    2.4508   -3.1298    0.0000 C   0  0  0  0  0  0  0  0  0  0  0  0
   -3.2456   -3.8915    0.0000 C   0  0  0  0  0  0  0  0  0  0  0  0
  1 10  2  0  0  0  0
  1 11  2  0  0  0  0
  1 34  1  0  0  0  0
  1 44  1  0  0  0  0
  2 29  1  0  0  0  0
  3 29  1  0  0  0  0
  4 29  1  0  0  0  0
  5 43  1  0  0  0  0
  6 43  1  0  0  0  0
  7 43  1  0  0  0  0
  8 18  1  0  0  0  0
  8 20  1  0  0  0  0
  9 36  1  0  0  0  0
  9 43  1  0  0  0  0
 12 14  1  0  0  0  0
 12 17  1  0  0  0  0
 12 27  1  0  0  0  0
 13 16  1  0  0  0  0
 13 20  2  0  0  0  0
 14 24  2  0  0  0  0
 15 16  1  0  0  0  0
 15 17  1  0  0  0  0
 15 19  2  0  0  0  0
 16 18  2  0  0  0  0
 17 23  2  0  0  0  0
 18 22  1  0  0  0  0
 19 21  1  0  0  0  0
 20 28  1  0  0  0  0
 21 25  1  0  0  0  0
 21 26  2  0  0  0  0
 22 31  2  0  0  0  0
 22 32  1  0  0  0  0
 23 26  1  0  0  0  0
 24 29  1  0  0  0  0
 24 30  1  0  0  0  0
 25 33  2  0  0  0  0
 25 35  1  0  0  0  0
 27 30  2  0  0  0  0
 28 41  1  0  0  0  0
 28 42  1  0  0  0  0
 31 37  1  0  0  0  0
 32 38  2  0  0  0  0
 33 34  1  0  0  0  0
 34 39  2  0  0  0  0
 35 40  2  0  0  0  0
 36 37  2  0  0  0  0
 36 38  1  0  0  0  0
 39 40  1  0  0  0  0
M  END
> <PUBCHEM_COMPOUND_ID_TYPE>
0

> <PUBCHEM_TOTAL_CHARGE>
0

> <PUBCHEM_SUBSTANCE_ID>
310948208

> <PUBCHEM_SUBSTANCE_VERSION>
1

> <PUBCHEM_EXT_DATASOURCE_NAME>
4488

> <PUBCHEM_EXT_DATASOURCE_REGID>
SCHEMBL16126385

> <PUBCHEM_SUBSTANCE_COMMENT>
InChI=1S/C30H23F6N3O4S/c1-17(2)28-37-26(27(42-28)18-7-10-21(11-8-18)43-30(34,35)36)23-16-20(19-5-4-6-22(15-19)44(3,40)41)9-12-24(23)39-14-13-25(38-39)29(31,32)33/h4-17H,1-3H3
InChIKey=KLGJITITYKYEIS-UHFFFAOYSA-N

> <PUBCHEM_SUBSTANCE_SYNONYM>
SCHEMBL16126385

> <PUBCHEM_XREF_EXT_ID>
SCHEMBL16126385

> <PUBCHEM_EXT_DATASOURCE_URL>
https://www.surechembl.org/

> <PUBCHEM_EXT_SUBSTANCE_URL>
https://www.surechembl.org/chemical/SCHEMBL16126385

> <PUBCHEM_CID_ASSOCIATIONS>
117613788  1

> <PUBCHEM_COORDINATE_TYPE>
1
3

$$$$
