310945578
  -OEChem-07211613022D

 29 32  0     0  0  0  0  0  0999 V2000
   -1.0784   -2.0864    0.0000 N   0  0  0  0  0  0  0  0  0  0  0  0
   -0.3595    0.8599    0.0000 N   0  0  0  0  0  0  0  0  0  0  0  0
    1.7974    2.0723    0.0000 N   0  0  0  0  0  0  0  0  0  0  0  0
   -1.0925   -0.3806    0.0000 C   0  0  0  0  0  0  0  0  0  0  0  0
   -1.8115   -0.8036    0.0000 C   0  0  0  0  0  0  0  0  0  0  0  0
   -1.8256   -1.6353    0.0000 C   0  0  0  0  0  0  0  0  0  0  0  0
   -1.0502    0.4511    0.0000 C   0  0  0  0  0  0  0  0  0  0  0  0
   -0.3595   -1.6353    0.0000 C   0  0  0  0  0  0  0  0  0  0  0  0
   -0.3595   -0.8036    0.0000 C   0  0  0  0  0  0  0  0  0  0  0  0
    0.3313   -2.0864    0.0000 C   0  0  0  0  0  0  0  0  0  0  0  0
   -2.5023   -0.3947    0.0000 C   0  0  0  0  0  0  0  0  0  0  0  0
   -2.4882   -2.0582    0.0000 C   0  0  0  0  0  0  0  0  0  0  0  0
    0.3313    0.4511    0.0000 C   0  0  0  0  0  0  0  0  0  0  0  0
   -0.3313    1.7058    0.0000 C   0  0  0  0  0  0  0  0  0  0  0  0
    1.0784    1.7058    0.0000 C   0  0  0  0  0  0  0  0  0  0  0  0
   -3.2213   -0.8176    0.0000 C   0  0  0  0  0  0  0  0  0  0  0  0
   -3.2072   -1.6353    0.0000 C   0  0  0  0  0  0  0  0  0  0  0  0
   -1.8256    0.8599    0.0000 C   0  0  0  0  0  0  0  0  0  0  0  0
    1.0644    0.8176    0.0000 C   0  0  0  0  0  0  0  0  0  0  0  0
    0.3313    2.0864    0.0000 C   0  0  0  0  0  0  0  0  0  0  0  0
    0.3031   -2.9041    0.0000 C   0  0  0  0  0  0  0  0  0  0  0  0
    1.0644   -1.7340    0.0000 C   0  0  0  0  0  0  0  0  0  0  0  0
    0.9798   -3.3552    0.0000 C   0  0  0  0  0  0  0  0  0  0  0  0
    1.7551   -2.1851    0.0000 C   0  0  0  0  0  0  0  0  0  0  0  0
    1.7128   -3.0028    0.0000 C   0  0  0  0  0  0  0  0  0  0  0  0
    1.7551    2.9041    0.0000 C   0  0  0  0  0  0  0  0  0  0  0  0
    2.5164    1.7058    0.0000 C   0  0  0  0  0  0  0  0  0  0  0  0
    1.0644    3.3552    0.0000 C   0  0  0  0  0  0  0  0  0  0  0  0
    3.2213    2.1005    0.0000 C   0  0  0  0  0  0  0  0  0  0  0  0
  1  6  1  0  0  0  0
  1  8  2  0  0  0  0
  2  7  1  0  0  0  0
  2 13  1  0  0  0  0
  2 14  1  0  0  0  0
  3 15  1  0  0  0  0
  3 26  1  0  0  0  0
  3 27  1  0  0  0  0
  4  5  1  0  0  0  0
  4  7  1  0  0  0  0
  4  9  2  0  0  0  0
  5  6  1  0  0  0  0
  5 11  2  0  0  0  0
  6 12  2  0  0  0  0
  7 18  2  0  0  0  0
  8  9  1  0  0  0  0
  8 10  1  0  0  0  0
 10 21  2  0  0  0  0
 10 22  1  0  0  0  0
 11 16  1  0  0  0  0
 12 17  1  0  0  0  0
 13 19  1  0  0  0  0
 14 20  1  0  0  0  0
 15 19  1  0  0  0  0
 15 20  1  0  0  0  0
 16 17  2  0  0  0  0
 21 23  1  0  0  0  0
 22 24  2  0  0  0  0
 23 25  2  0  0  0  0
 24 25  1  0  0  0  0
 26 28  1  0  0  0  0
 27 29  1  0  0  0  0
M  END
> <PUBCHEM_COMPOUND_ID_TYPE>
0

> <PUBCHEM_TOTAL_CHARGE>
0

> <PUBCHEM_SUBSTANCE_ID>
310945578

> <PUBCHEM_SUBSTANCE_VERSION>
1

> <PUBCHEM_EXT_DATASOURCE_NAME>
4488

> <PUBCHEM_EXT_DATASOURCE_REGID>
SCHEMBL16123676

> <PUBCHEM_SUBSTANCE_COMMENT>
InChI=1S/C26H31N3/c1-4-28(5-2)22-15-17-29(18-16-22)20(3)24-19-26(21-11-7-6-8-12-21)27-25-14-10-9-13-23(24)25/h6-14,19,22H,3-5,15-18H2,1-2H3
InChIKey=HDUOSDQKTVUFRH-UHFFFAOYSA-N

> <PUBCHEM_SUBSTANCE_SYNONYM>
SCHEMBL16123676

> <PUBCHEM_XREF_EXT_ID>
SCHEMBL16123676

> <PUBCHEM_EXT_DATASOURCE_URL>
https://www.surechembl.org/

> <PUBCHEM_EXT_SUBSTANCE_URL>
https://www.surechembl.org/chemical/SCHEMBL16123676

> <PUBCHEM_CID_ASSOCIATIONS>
117611606  1

> <PUBCHEM_COORDINATE_TYPE>
1
3

$$$$
