310949900
  -OEChem-07211613022D

 42 44  0     1  0  0  0  0  0999 V2000
   -3.0003   -0.5161    0.0000 P   0  0  3  0  0  0  0  0  0  0  0  0
    0.2580   -2.0339    0.0000 F   0  0  0  0  0  0  0  0  0  0  0  0
   -0.1568    0.0404    0.0000 O   0  0  0  0  0  0  0  0  0  0  0  0
   -1.0474   -1.9227    0.0000 O   0  0  0  0  0  0  0  0  0  0  0  0
   -2.2110   -0.7690    0.0000 O   0  0  0  0  0  0  0  0  0  0  0  0
    0.8450    1.1839    0.0000 O   0  0  0  0  0  0  0  0  0  0  0  0
   -3.2735   -1.3054    0.0000 O   0  0  0  0  0  0  0  0  0  0  0  0
   -2.7676    0.2732    0.0000 O   0  0  0  0  0  0  0  0  0  0  0  0
   -5.0342    1.4875    0.0000 O   0  0  0  0  0  0  0  0  0  0  0  0
    4.0932   -0.7488    0.0000 O   0  0  0  0  0  0  0  0  0  0  0  0
   -5.4087    0.1012    0.0000 O   0  0  0  0  0  0  0  0  0  0  0  0
    1.2902   -0.1721    0.0000 N   0  0  0  0  0  0  0  0  0  0  0  0
    2.2414    0.9006    0.0000 N   0  0  0  0  0  0  0  0  0  0  0  0
   -3.7998   -0.3137    0.0000 N   0  0  0  0  0  0  0  0  0  0  0  0
    3.6480    0.6172    0.0000 N   0  0  0  0  0  0  0  0  0  0  0  0
    5.6515   -0.2226    0.0000 N   0  0  0  0  0  0  0  0  0  0  0  0
    0.2580   -1.2042    0.0000 C   0  0  3  0  0  0  0  0  0  0  0  0
    0.5110   -0.4149    0.0000 C   0  0  3  0  0  0  0  0  0  0  0  0
   -0.5515   -1.2143    0.0000 C   0  0  3  0  0  0  0  0  0  0  0  0
   -0.8247   -0.4351    0.0000 C   0  0  3  0  0  0  0  0  0  0  0  0
    1.4825    0.6476    0.0000 C   0  0  0  0  0  0  0  0  0  0  0  0
   -1.5836   -0.1922    0.0000 C   0  0  0  0  0  0  0  0  0  0  0  0
    1.0271   -1.4167    0.0000 C   0  0  0  0  0  0  0  0  0  0  0  0
    1.9175   -0.7083    0.0000 C   0  0  0  0  0  0  0  0  0  0  0  0
    2.8586    0.3744    0.0000 C   0  0  0  0  0  0  0  0  0  0  0  0
    2.6765   -0.4453    0.0000 C   0  0  0  0  0  0  0  0  0  0  0  0
   -4.0324   -1.5078    0.0000 C   0  0  0  0  0  0  0  0  0  0  0  0
   -4.0224    0.4958    0.0000 C   0  0  3  0  0  0  0  0  0  0  0  0
    4.2753    0.1113    0.0000 C   0  0  0  0  0  0  0  0  0  0  0  0
   -4.8116    0.7387    0.0000 C   0  0  0  0  0  0  0  0  0  0  0  0
   -4.5991   -0.9208    0.0000 C   0  0  0  0  0  0  0  0  0  0  0  0
   -4.2551   -2.3071    0.0000 C   0  0  0  0  0  0  0  0  0  0  0  0
   -3.4456    1.0828    0.0000 C   0  0  0  0  0  0  0  0  0  0  0  0
    5.0444    0.3339    0.0000 C   0  0  0  0  0  0  0  0  0  0  0  0
   -5.4087   -1.1333    0.0000 C   0  0  0  0  0  0  0  0  0  0  0  0
   -5.0342   -2.5196    0.0000 C   0  0  0  0  0  0  0  0  0  0  0  0
   -5.6212   -1.9328    0.0000 C   0  0  0  0  0  0  0  0  0  0  0  0
   -5.8438    1.7303    0.0000 C   0  0  0  0  0  0  0  0  0  0  0  0
   -6.0462    2.5196    0.0000 C   0  0  0  0  0  0  0  0  0  0  0  0
   -6.4307    1.1131    0.0000 C   0  0  0  0  0  0  0  0  0  0  0  0
    5.4694   -1.0221    0.0000 C   0  0  0  0  0  0  0  0  0  0  0  0
    6.4307    0.0404    0.0000 C   0  0  0  0  0  0  0  0  0  0  0  0
  1  5  1  0  0  0  0
  1  7  1  6  0  0  0
  1  8  2  0  0  0  0
  1 14  1  1  0  0  0
 17  2  1  6  0  0  0
 18  3  1  1  0  0  0
  3 20  1  0  0  0  0
 19  4  1  6  0  0  0
  5 22  1  0  0  0  0
  6 21  2  0  0  0  0
  7 27  1  0  0  0  0
  9 30  1  0  0  0  0
  9 38  1  0  0  0  0
 10 29  2  0  0  0  0
 11 30  2  0  0  0  0
 12 18  1  0  0  0  0
 12 21  1  0  0  0  0
 12 24  1  0  0  0  0
 13 21  1  0  0  0  0
 13 25  2  0  0  0  0
 14 28  1  0  0  0  0
 15 25  1  0  0  0  0
 15 29  1  0  0  0  0
 16 34  1  0  0  0  0
 16 41  1  0  0  0  0
 16 42  1  0  0  0  0
 17 18  1  0  0  0  0
 17 19  1  0  0  0  0
 17 23  1  1  0  0  0
 19 20  1  0  0  0  0
 20 22  1  1  0  0  0
 24 26  2  0  0  0  0
 25 26  1  0  0  0  0
 27 31  2  0  0  0  0
 27 32  1  0  0  0  0
 28 30  1  0  0  0  0
 28 33  1  6  0  0  0
 29 34  1  0  0  0  0
 31 35  1  0  0  0  0
 32 36  2  0  0  0  0
 35 37  2  0  0  0  0
 36 37  1  0  0  0  0
 38 39  1  0  0  0  0
 38 40  1  0  0  0  0
M  END
> <PUBCHEM_COMPOUND_ID_TYPE>
0

> <PUBCHEM_TOTAL_CHARGE>
0

> <PUBCHEM_SUBSTANCE_ID>
310949900

> <PUBCHEM_SUBSTANCE_VERSION>
1

> <PUBCHEM_EXT_DATASOURCE_NAME>
4488

> <PUBCHEM_EXT_DATASOURCE_REGID>
SCHEMBL16128121

> <PUBCHEM_SUBSTANCE_COMMENT>
InChI=1S/C26H37FN5O9P/c1-16(2)39-23(35)17(3)30-42(37,41-18-10-8-7-9-11-18)38-15-19-22(34)26(4,27)24(40-19)32-13-12-20(29-25(32)36)28-21(33)14-31(5)6/h7-13,16-17,19,22,24,34H,14-15H2,1-6H3,(H,30,37)(H,28,29,33,36)/t17-,19+,22+,24+,26+,42+/m0/s1
InChIKey=ILYRIFYHHKPYLL-DJRUXBECSA-N

> <PUBCHEM_SUBSTANCE_SYNONYM>
SCHEMBL16128121

> <PUBCHEM_XREF_EXT_ID>
SCHEMBL16128121

> <PUBCHEM_EXT_DATASOURCE_URL>
https://www.surechembl.org/

> <PUBCHEM_EXT_SUBSTANCE_URL>
https://www.surechembl.org/chemical/SCHEMBL16128121

> <PUBCHEM_CID_ASSOCIATIONS>
86270314  1

> <PUBCHEM_COORDINATE_TYPE>
1
3

> <PUBCHEM_BONDANNOTATIONS>
1  14  5
1  7  6
17  23  5
17  2  6
20  22  5
28  33  6
18  3  5
19  4  6

$$$$
