310934210
  -OEChem-07211613022D

 34 38  0     0  0  0  0  0  0999 V2000
   -4.3789    4.8317    0.0000 O   0  0  0  0  0  0  0  0  0  0  0  0
    1.8465   -1.6236    0.0000 O   0  0  0  0  0  0  0  0  0  0  0  0
   -2.2296    1.6455    0.0000 N   0  0  0  0  0  0  0  0  0  0  0  0
   -3.4491    1.1026    0.0000 N   0  0  0  0  0  0  0  0  0  0  0  0
    1.0396   -1.4521    0.0000 N   0  0  0  0  0  0  0  0  0  0  0  0
   -3.4117   -1.9315    0.0000 N   0  0  0  0  0  0  0  0  0  0  0  0
   -6.3554    5.7579    0.0000 N   0  0  0  0  0  0  0  0  0  0  0  0
   -2.1434    0.8250    0.0000 C   0  0  0  0  0  0  0  0  0  0  0  0
   -2.8971    0.4895    0.0000 C   0  0  0  0  0  0  0  0  0  0  0  0
   -1.4290    0.4125    0.0000 C   0  0  0  0  0  0  0  0  0  0  0  0
   -3.0366    1.8170    0.0000 C   0  0  0  0  0  0  0  0  0  0  0  0
    0.0000    0.4125    0.0000 C   0  0  0  0  0  0  0  0  0  0  0  0
    0.0000   -0.4125    0.0000 C   0  0  0  0  0  0  0  0  0  0  0  0
   -3.0686   -0.3175    0.0000 C   0  0  0  0  0  0  0  0  0  0  0  0
   -0.7144    0.8250    0.0000 C   0  0  0  0  0  0  0  0  0  0  0  0
   -3.3722    2.5707    0.0000 C   0  0  0  0  0  0  0  0  0  0  0  0
   -1.4290   -0.4125    0.0000 C   0  0  0  0  0  0  0  0  0  0  0  0
    0.7846   -0.6674    0.0000 C   0  0  0  0  0  0  0  0  0  0  0  0
   -0.7144   -0.8250    0.0000 C   0  0  0  0  0  0  0  0  0  0  0  0
    0.7846    0.6674    0.0000 C   0  0  0  0  0  0  0  0  0  0  0  0
    1.2696    0.0000    0.0000 C   0  0  0  0  0  0  0  0  0  0  0  0
   -3.8532   -0.5725    0.0000 C   0  0  0  0  0  0  0  0  0  0  0  0
   -2.4555   -0.8696    0.0000 C   0  0  0  0  0  0  0  0  0  0  0  0
   -4.1927    2.6569    0.0000 C   0  0  0  0  0  0  0  0  0  0  0  0
   -2.8873    3.2381    0.0000 C   0  0  0  0  0  0  0  0  0  0  0  0
   -4.0433    4.0780    0.0000 C   0  0  0  0  0  0  0  0  0  0  0  0
   -4.5282    3.4106    0.0000 C   0  0  0  0  0  0  0  0  0  0  0  0
   -3.2228    3.9918    0.0000 C   0  0  0  0  0  0  0  0  0  0  0  0
   -4.0248   -1.3795    0.0000 C   0  0  0  0  0  0  0  0  0  0  0  0
   -2.6270   -1.6765    0.0000 C   0  0  0  0  0  0  0  0  0  0  0  0
   -5.1993    4.9179    0.0000 C   0  0  0  0  0  0  0  0  0  0  0  0
   -5.5349    5.6716    0.0000 C   0  0  0  0  0  0  0  0  0  0  0  0
   -6.6909    6.5115    0.0000 C   0  0  0  0  0  0  0  0  0  0  0  0
   -6.8403    5.0904    0.0000 C   0  0  0  0  0  0  0  0  0  0  0  0
  1 26  1  0  0  0  0
  1 31  1  0  0  0  0
  2  5  2  0  0  0  0
  3  8  1  0  0  0  0
  3 11  2  0  0  0  0
  4  9  1  0  0  0  0
  4 11  1  0  0  0  0
  5 18  1  0  0  0  0
  6 29  1  0  0  0  0
  6 30  1  0  0  0  0
  7 32  1  0  0  0  0
  7 33  1  0  0  0  0
  7 34  1  0  0  0  0
  8  9  1  0  0  0  0
  8 10  2  0  0  0  0
  9 14  2  0  0  0  0
 10 15  1  0  0  0  0
 10 17  1  0  0  0  0
 11 16  1  0  0  0  0
 12 13  1  0  0  0  0
 12 15  2  0  0  0  0
 12 20  1  0  0  0  0
 13 18  2  0  0  0  0
 13 19  1  0  0  0  0
 14 22  1  0  0  0  0
 14 23  1  0  0  0  0
 16 24  2  0  0  0  0
 16 25  1  0  0  0  0
 17 19  2  0  0  0  0
 18 21  1  0  0  0  0
 20 21  1  0  0  0  0
 22 29  2  0  0  0  0
 23 30  2  0  0  0  0
 24 27  1  0  0  0  0
 25 28  2  0  0  0  0
 26 27  2  0  0  0  0
 26 28  1  0  0  0  0
 31 32  1  0  0  0  0
M  END
> <PUBCHEM_COMPOUND_ID_TYPE>
0

> <PUBCHEM_TOTAL_CHARGE>
0

> <PUBCHEM_SUBSTANCE_ID>
310934210

> <PUBCHEM_SUBSTANCE_VERSION>
1

> <PUBCHEM_EXT_DATASOURCE_NAME>
4488

> <PUBCHEM_EXT_DATASOURCE_REGID>
SCHEMBL16111665

> <PUBCHEM_SUBSTANCE_COMMENT>
InChI=1S/C27H27N5O2/c1-32(2)15-16-34-22-7-3-19(4-8-22)27-29-25(18-11-13-28-14-12-18)26(30-27)21-5-9-23-20(17-21)6-10-24(23)31-33/h3-5,7-9,11-14,17,28H,6,10,15-16H2,1-2H3,(H,29,30)/b26-21-
InChIKey=DPCXEUSDRQOOGZ-QLYXXIJNSA-N

> <PUBCHEM_SUBSTANCE_SYNONYM>
SCHEMBL16111665

> <PUBCHEM_XREF_EXT_ID>
SCHEMBL16111665

> <PUBCHEM_EXT_DATASOURCE_URL>
https://www.surechembl.org/

> <PUBCHEM_EXT_SUBSTANCE_URL>
https://www.surechembl.org/chemical/SCHEMBL16111665

> <PUBCHEM_CID_ASSOCIATIONS>
11316960  1

> <PUBCHEM_COORDINATE_TYPE>
1
3

$$$$
