310948585
  -OEChem-07211613022D

 26 27  0     1  0  0  0  0  0999 V2000
    2.5627    1.7002    0.0000 F   0  0  0  0  0  0  0  0  0  0  0  0
    0.2405    0.5723    0.0000 O   0  0  0  0  0  0  0  0  0  0  0  0
   -1.1860    2.2144    0.0000 O   0  0  0  0  0  0  0  0  0  0  0  0
    0.1244   -0.9040    0.0000 O   0  0  0  0  0  0  0  0  0  0  0  0
    0.3069    2.2144    0.0000 O   0  0  0  0  0  0  0  0  0  0  0  0
   -1.1860   -0.2405    0.0000 O   0  0  0  0  0  0  0  0  0  0  0  0
    1.7666    0.5391    0.0000 O   0  0  0  0  0  0  0  0  0  0  0  0
   -2.6126    0.5723    0.0000 O   0  0  0  0  0  0  0  0  0  0  0  0
    2.6126   -0.8874    0.0000 O   0  0  0  0  0  0  0  0  0  0  0  0
    1.7997   -2.3140    0.0000 O   0  0  0  0  0  0  0  0  0  0  0  0
   -2.6126    3.0438    0.0000 O   0  0  0  0  0  0  0  0  0  0  0  0
    0.5557   -3.0438    0.0000 O   0  0  0  0  0  0  0  0  0  0  0  0
   -0.4728    1.0035    0.0000 C   0  0  3  0  0  0  0  0  0  0  0  0
    0.5391   -0.1908    0.0000 C   0  0  3  0  0  0  0  0  0  0  0  0
   -1.1860    0.5889    0.0000 C   0  0  3  0  0  0  0  0  0  0  0  0
   -0.4728    1.8163    0.0000 C   0  0  3  0  0  0  0  0  0  0  0  0
    1.3519   -0.1742    0.0000 C   0  0  3  0  0  0  0  0  0  0  0  0
   -1.8992    1.0035    0.0000 C   0  0  3  0  0  0  0  0  0  0  0  0
   -1.8992    1.8329    0.0000 C   0  0  3  0  0  0  0  0  0  0  0  0
    1.7831   -0.8709    0.0000 C   0  0  3  0  0  0  0  0  0  0  0  0
    1.3685   -1.6007    0.0000 C   0  0  3  0  0  0  0  0  0  0  0  0
    0.5391   -1.6007    0.0000 C   0  0  3  0  0  0  0  0  0  0  0  0
   -2.5959    2.2144    0.0000 C   0  0  0  0  0  0  0  0  0  0  0  0
    0.1410   -2.3140    0.0000 C   0  0  0  0  0  0  0  0  0  0  0  0
    1.2026    1.7334    0.0000 C   0  0  0  0  0  0  0  0  0  0  0  0
    1.8163    2.1315    0.0000 C   0  0  0  0  0  0  0  0  0  0  0  0
  1 26  1  0  0  0  0
 13  2  1  1  0  0  0
 14  2  1  6  0  0  0
  3 16  1  0  0  0  0
  3 19  1  0  0  0  0
  4 14  1  0  0  0  0
  4 22  1  0  0  0  0
 16  5  1  6  0  0  0
  5 25  1  0  0  0  0
 15  6  1  1  0  0  0
 17  7  1  1  0  0  0
 18  8  1  6  0  0  0
 20  9  1  1  0  0  0
 21 10  1  6  0  0  0
 11 23  1  0  0  0  0
 12 24  1  0  0  0  0
 13 15  1  0  0  0  0
 13 16  1  0  0  0  0
 14 17  1  0  0  0  0
 15 18  1  0  0  0  0
 17 20  1  0  0  0  0
 18 19  1  0  0  0  0
 19 23  1  6  0  0  0
 20 21  1  0  0  0  0
 21 22  1  0  0  0  0
 22 24  1  1  0  0  0
 25 26  1  0  0  0  0
M  END
> <PUBCHEM_COMPOUND_ID_TYPE>
0

> <PUBCHEM_TOTAL_CHARGE>
0

> <PUBCHEM_SUBSTANCE_ID>
310948585

> <PUBCHEM_SUBSTANCE_VERSION>
1

> <PUBCHEM_EXT_DATASOURCE_NAME>
4488

> <PUBCHEM_EXT_DATASOURCE_REGID>
SCHEMBL16126768

> <PUBCHEM_SUBSTANCE_COMMENT>
InChI=1S/C14H25FO11/c15-1-2-23-14-12(10(21)8(19)6(4-17)25-14)26-13-11(22)9(20)7(18)5(3-16)24-13/h5-14,16-22H,1-4H2/t5-,6+,7-,8-,9+,10+,11+,12+,13-,14+/m1/s1
InChIKey=UYSIBARRNVUSBN-CJJBGRLKSA-N

> <PUBCHEM_SUBSTANCE_SYNONYM>
SCHEMBL16126768

> <PUBCHEM_XREF_EXT_ID>
SCHEMBL16126768

> <PUBCHEM_EXT_DATASOURCE_URL>
https://www.surechembl.org/

> <PUBCHEM_EXT_SUBSTANCE_URL>
https://www.surechembl.org/chemical/SCHEMBL16126768

> <PUBCHEM_CID_ASSOCIATIONS>
117614134  1

> <PUBCHEM_COORDINATE_TYPE>
1
3

> <PUBCHEM_BONDANNOTATIONS>
21  10  6
19  23  6
13  2  5
14  2  6
22  24  5
16  5  6
15  6  5
17  7  5
18  8  6
20  9  5

$$$$
