310942641
  -OEChem-07211613022D

 43 47  0     1  0  0  0  0  0999 V2000
   -2.8596    0.1956    0.0000 F   0  0  0  0  0  0  0  0  0  0  0  0
   -2.8596   -3.1305    0.0000 F   0  0  0  0  0  0  0  0  0  0  0  0
    3.5821   -1.7007    0.0000 F   0  0  0  0  0  0  0  0  0  0  0  0
   -0.4967    3.9433    0.0000 F   0  0  0  0  0  0  0  0  0  0  0  0
   -0.3462   -1.5803    0.0000 O   0  0  0  0  0  0  0  0  0  0  0  0
    2.1522    1.5652    0.0000 O   0  0  0  0  0  0  0  0  0  0  0  0
   -1.2793   -3.5369    0.0000 O   0  0  0  0  0  0  0  0  0  0  0  0
   -0.5268    0.3462    0.0000 N   0  0  0  0  0  0  0  0  0  0  0  0
    1.0385   -1.2040    0.0000 N   0  0  0  0  0  0  0  0  0  0  0  0
   -0.6623   -0.9783    0.0000 N   0  0  0  0  0  0  0  0  0  0  0  0
    0.6772   -2.5737    0.0000 N   0  0  0  0  0  0  0  0  0  0  0  0
    2.2726   -3.3864    0.0000 N   0  0  0  0  0  0  0  0  0  0  0  0
   -0.1204   -0.3462    0.0000 C   0  0  0  0  0  0  0  0  0  0  0  0
    0.6923   -0.4515    0.0000 C   0  0  3  0  0  0  0  0  0  0  0  0
   -1.4448   -0.6321    0.0000 C   0  0  0  0  0  0  0  0  0  0  0  0
    1.1739    0.2408    0.0000 C   0  0  0  0  0  0  0  0  0  0  0  0
   -1.3395    0.1956    0.0000 C   0  0  0  0  0  0  0  0  0  0  0  0
   -2.1522   -1.0385    0.0000 C   0  0  0  0  0  0  0  0  0  0  0  0
    0.4666   -1.7910    0.0000 C   0  0  0  0  0  0  0  0  0  0  0  0
   -0.1956    1.1138    0.0000 C   0  0  0  0  0  0  0  0  0  0  0  0
    1.8512   -1.2943    0.0000 C   0  0  0  0  0  0  0  0  0  0  0  0
   -2.8746   -0.6321    0.0000 C   0  0  0  0  0  0  0  0  0  0  0  0
    2.1522   -2.0318    0.0000 C   0  0  3  0  0  0  0  0  0  0  0  0
   -2.1673   -1.8814    0.0000 C   0  0  0  0  0  0  0  0  0  0  0  0
    0.8428    0.9632    0.0000 C   0  0  0  0  0  0  0  0  0  0  0  0
    2.0018    0.1505    0.0000 C   0  0  0  0  0  0  0  0  0  0  0  0
   -0.6923    1.7910    0.0000 C   0  0  0  0  0  0  0  0  0  0  0  0
   -2.8596   -2.2726    0.0000 C   0  0  0  0  0  0  0  0  0  0  0  0
    2.9499   -2.2426    0.0000 C   0  0  3  0  0  0  0  0  0  0  0  0
   -3.5821   -1.0535    0.0000 C   0  0  0  0  0  0  0  0  0  0  0  0
   -3.5821   -1.8814    0.0000 C   0  0  0  0  0  0  0  0  0  0  0  0
    1.7308   -2.7542    0.0000 C   0  0  0  0  0  0  0  0  0  0  0  0
    1.3244    1.6405    0.0000 C   0  0  0  0  0  0  0  0  0  0  0  0
    2.4834    0.8278    0.0000 C   0  0  0  0  0  0  0  0  0  0  0  0
   -0.3612    2.5435    0.0000 C   0  0  0  0  0  0  0  0  0  0  0  0
   -1.4900    1.7007    0.0000 C   0  0  0  0  0  0  0  0  0  0  0  0
    3.0101   -3.0703    0.0000 C   0  0  0  0  0  0  0  0  0  0  0  0
    0.0752   -3.1606    0.0000 C   0  0  3  0  0  0  0  0  0  0  0  0
   -0.8428    3.1907    0.0000 C   0  0  0  0  0  0  0  0  0  0  0  0
   -1.9716    2.3479    0.0000 C   0  0  0  0  0  0  0  0  0  0  0  0
   -1.6405    3.1005    0.0000 C   0  0  0  0  0  0  0  0  0  0  0  0
   -0.7224   -2.9499    0.0000 C   0  0  0  0  0  0  0  0  0  0  0  0
    0.2860   -3.9433    0.0000 C   0  0  0  0  0  0  0  0  0  0  0  0
  1 22  1  0  0  0  0
  2 28  1  0  0  0  0
 29  3  1  1  0  0  0
  4 39  1  0  0  0  0
  5 19  2  0  0  0  0
  6 33  1  0  0  0  0
  6 34  1  0  0  0  0
  7 42  1  0  0  0  0
  8 13  1  0  0  0  0
  8 17  1  0  0  0  0
  8 20  1  0  0  0  0
 14  9  1  1  0  0  0
  9 19  1  0  0  0  0
  9 21  1  0  0  0  0
 10 13  2  0  0  0  0
 10 15  1  0  0  0  0
 11 19  1  0  0  0  0
 11 38  1  0  0  0  0
 12 32  1  0  0  0  0
 12 37  1  0  0  0  0
 13 14  1  0  0  0  0
 14 16  1  0  0  0  0
 15 17  2  0  0  0  0
 15 18  1  0  0  0  0
 16 25  1  0  0  0  0
 16 26  1  0  0  0  0
 18 22  2  0  0  0  0
 18 24  1  0  0  0  0
 20 27  1  0  0  0  0
 23 21  1  1  0  0  0
 22 30  1  0  0  0  0
 23 29  1  0  0  0  0
 23 32  1  0  0  0  0
 24 28  2  0  0  0  0
 25 33  1  0  0  0  0
 26 34  1  0  0  0  0
 27 35  1  0  0  0  0
 27 36  2  0  0  0  0
 28 31  1  0  0  0  0
 29 37  1  0  0  0  0
 30 31  2  0  0  0  0
 35 39  2  0  0  0  0
 36 40  1  0  0  0  0
 38 42  1  0  0  0  0
 38 43  1  1  0  0  0
 39 41  1  0  0  0  0
 40 41  2  0  0  0  0
M  END
> <PUBCHEM_COMPOUND_ID_TYPE>
0

> <PUBCHEM_TOTAL_CHARGE>
0

> <PUBCHEM_SUBSTANCE_ID>
310942641

> <PUBCHEM_SUBSTANCE_VERSION>
1

> <PUBCHEM_EXT_DATASOURCE_NAME>
4488

> <PUBCHEM_EXT_DATASOURCE_REGID>
SCHEMBL16120687

> <PUBCHEM_SUBSTANCE_COMMENT>
InChI=1S/C31H37F4N5O3/c1-19(18-41)37-31(42)40(16-22-13-36-14-27(22)35)29(21-7-9-43-10-8-21)30-38-28(25-12-24(33)5-6-26(25)34)17-39(30)15-20-3-2-4-23(32)11-20/h2-6,11-12,17,19,21-22,27,29,36,41H,7-10,13-16,18H2,1H3,(H,37,42)/t19-,22-,27-,29+/m0/s1
InChIKey=ZFLBUJIOCSQPCB-UOFFFZAWSA-N

> <PUBCHEM_SUBSTANCE_SYNONYM>
SCHEMBL16120687

> <PUBCHEM_XREF_EXT_ID>
SCHEMBL16120687

> <PUBCHEM_EXT_DATASOURCE_URL>
https://www.surechembl.org/

> <PUBCHEM_EXT_SUBSTANCE_URL>
https://www.surechembl.org/chemical/SCHEMBL16120687

> <PUBCHEM_CID_ASSOCIATIONS>
117609172  1

> <PUBCHEM_COORDINATE_TYPE>
1
3

> <PUBCHEM_BONDANNOTATIONS>
23  21  5
29  3  5
38  43  5
14  9  5

$$$$
