310938847
  -OEChem-07211613022D

 24 28  0     0  0  0  0  0  0999 V2000
   -3.4943    3.7706    0.0000 O   0  0  0  0  0  0  0  0  0  0  0  0
   -2.5298    1.0629    0.0000 N   0  0  0  0  0  0  0  0  0  0  0  0
   -2.8269    2.4607    0.0000 C   0  0  0  0  0  0  0  0  0  0  0  0
   -3.0818    1.6760    0.0000 C   0  0  0  0  0  0  0  0  0  0  0  0
   -2.0199    2.6322    0.0000 C   0  0  0  0  0  0  0  0  0  0  0  0
   -3.9068    1.6760    0.0000 C   0  0  0  0  0  0  0  0  0  0  0  0
   -3.4943    2.9456    0.0000 C   0  0  0  0  0  0  0  0  0  0  0  0
   -4.1618    2.4607    0.0000 C   0  0  0  0  0  0  0  0  0  0  0  0
   -1.4679    2.0191    0.0000 C   0  0  0  0  0  0  0  0  0  0  0  0
   -1.7228    1.2345    0.0000 C   0  0  0  0  0  0  0  0  0  0  0  0
   -1.7650    3.4168    0.0000 C   0  0  0  0  0  0  0  0  0  0  0  0
   -4.4589    1.0629    0.0000 C   0  0  0  0  0  0  0  0  0  0  0  0
   -4.9687    2.6322    0.0000 C   0  0  0  0  0  0  0  0  0  0  0  0
   -0.6609    2.1906    0.0000 C   0  0  0  0  0  0  0  0  0  0  0  0
   -1.1708    0.6214    0.0000 C   0  0  0  0  0  0  0  0  0  0  0  0
   -0.9580    3.5883    0.0000 C   0  0  0  0  0  0  0  0  0  0  0  0
   -2.3170    4.0299    0.0000 C   0  0  0  0  0  0  0  0  0  0  0  0
   -5.2658    1.2345    0.0000 C   0  0  0  0  0  0  0  0  0  0  0  0
   -5.5208    2.0191    0.0000 C   0  0  0  0  0  0  0  0  0  0  0  0
   -0.1089    1.5775    0.0000 C   0  0  0  0  0  0  0  0  0  0  0  0
   -0.3638    0.7929    0.0000 C   0  0  0  0  0  0  0  0  0  0  0  0
   -0.7031    4.3730    0.0000 C   0  0  0  0  0  0  0  0  0  0  0  0
   -2.0621    4.8145    0.0000 C   0  0  0  0  0  0  0  0  0  0  0  0
   -1.2551    4.9860    0.0000 C   0  0  0  0  0  0  0  0  0  0  0  0
  1  7  2  0  0  0  0
  2  4  1  0  0  0  0
  2 10  2  0  0  0  0
  3  4  2  0  0  0  0
  3  5  1  0  0  0  0
  3  7  1  0  0  0  0
  4  6  1  0  0  0  0
  5  9  2  0  0  0  0
  5 11  1  0  0  0  0
  6  8  2  0  0  0  0
  6 12  1  0  0  0  0
  7  8  1  0  0  0  0
  8 13  1  0  0  0  0
  9 10  1  0  0  0  0
  9 14  1  0  0  0  0
 10 15  1  0  0  0  0
 11 16  2  0  0  0  0
 11 17  1  0  0  0  0
 12 18  2  0  0  0  0
 13 19  2  0  0  0  0
 14 20  2  0  0  0  0
 15 21  2  0  0  0  0
 16 22  1  0  0  0  0
 17 23  2  0  0  0  0
 18 19  1  0  0  0  0
 20 21  1  0  0  0  0
 22 24  2  0  0  0  0
 23 24  1  0  0  0  0
M  END
> <PUBCHEM_COMPOUND_ID_TYPE>
0

> <PUBCHEM_TOTAL_CHARGE>
0

> <PUBCHEM_SUBSTANCE_ID>
310938847

> <PUBCHEM_SUBSTANCE_VERSION>
1

> <PUBCHEM_EXT_DATASOURCE_NAME>
4488

> <PUBCHEM_EXT_DATASOURCE_REGID>
SCHEMBL16116766

> <PUBCHEM_SUBSTANCE_COMMENT>
InChI=1S/C22H13NO/c24-22-16-11-5-4-10-15(16)21-20(22)19(14-8-2-1-3-9-14)17-12-6-7-13-18(17)23-21/h1-13H
InChIKey=STDKWQDSSFFBFC-UHFFFAOYSA-N

> <PUBCHEM_SUBSTANCE_SYNONYM>
SCHEMBL16116766

> <PUBCHEM_XREF_EXT_ID>
SCHEMBL16116766

> <PUBCHEM_EXT_DATASOURCE_URL>
https://www.surechembl.org/

> <PUBCHEM_EXT_SUBSTANCE_URL>
https://www.surechembl.org/chemical/SCHEMBL16116766

> <PUBCHEM_CID_ASSOCIATIONS>
13641645  1

> <PUBCHEM_COORDINATE_TYPE>
1
3

$$$$
