310932029
  -OEChem-07211613022D

 30 32  0     0  0  0  0  0  0999 V2000
    7.2372   -1.2374    0.0000 O   0  0  0  0  0  0  0  0  0  0  0  0
    6.5247    0.0000    0.0000 O   0  0  0  0  0  0  0  0  0  0  0  0
    0.7500   -3.3374    0.0000 O   0  0  0  0  0  0  0  0  0  0  0  0
    3.6374   -3.2999    0.0000 N   0  0  0  0  0  0  0  0  0  0  0  0
    6.5247   -2.4749    0.0000 N   0  0  0  0  0  0  0  0  0  0  0  0
    4.3499   -2.0999    0.0000 N   0  0  0  0  0  0  0  0  0  0  0  0
    4.3499   -1.2374    0.0000 N   0  0  0  0  0  0  0  0  0  0  0  0
    1.4999   -4.5748    0.0000 N   0  0  0  0  0  0  0  0  0  0  0  0
    5.8123   -1.2374    0.0000 C   0  0  0  0  0  0  0  0  0  0  0  0
    5.8123   -2.0999    0.0000 C   0  0  0  0  0  0  0  0  0  0  0  0
    2.2124   -3.3374    0.0000 C   0  0  0  0  0  0  0  0  0  0  0  0
    3.6374   -2.5124    0.0000 C   0  0  0  0  0  0  0  0  0  0  0  0
    6.5247   -0.8250    0.0000 C   0  0  0  0  0  0  0  0  0  0  0  0
    1.4624   -3.7499    0.0000 C   0  0  0  0  0  0  0  0  0  0  0  0
    5.0998   -0.8250    0.0000 C   0  0  0  0  0  0  0  0  0  0  0  0
    2.9249   -3.7499    0.0000 C   0  0  0  0  0  0  0  0  0  0  0  0
    2.2124   -2.5124    0.0000 C   0  0  0  0  0  0  0  0  0  0  0  0
    2.9249   -2.0624    0.0000 C   0  0  0  0  0  0  0  0  0  0  0  0
    5.0998   -2.5124    0.0000 C   0  0  0  0  0  0  0  0  0  0  0  0
    6.5622   -3.3374    0.0000 C   0  0  0  0  0  0  0  0  0  0  0  0
    5.0998   -3.3374    0.0000 C   0  0  0  0  0  0  0  0  0  0  0  0
    0.7500   -4.9873    0.0000 C   0  0  0  0  0  0  0  0  0  0  0  0
    0.7500   -5.8123    0.0000 C   0  0  0  0  0  0  0  0  0  0  0  0
    5.8123   -3.7499    0.0000 C   0  0  0  0  0  0  0  0  0  0  0  0
    0.0375   -6.2247    0.0000 C   0  0  0  0  0  0  0  0  0  0  0  0
    1.4624   -6.2622    0.0000 C   0  0  0  0  0  0  0  0  0  0  0  0
    7.9872   -0.8250    0.0000 C   0  0  0  0  0  0  0  0  0  0  0  0
    0.0000   -7.0872    0.0000 C   0  0  0  0  0  0  0  0  0  0  0  0
    1.4624   -7.0872    0.0000 C   0  0  0  0  0  0  0  0  0  0  0  0
    0.7500   -7.4997    0.0000 C   0  0  0  0  0  0  0  0  0  0  0  0
  1 13  1  0  0  0  0
  1 27  1  0  0  0  0
  2 13  2  0  0  0  0
  3 14  2  0  0  0  0
  4 12  1  0  0  0  0
  4 16  2  0  0  0  0
  5 10  1  0  0  0  0
  5 20  2  0  0  0  0
  6  7  1  0  0  0  0
  6 12  1  0  0  0  0
  7 15  1  0  0  0  0
  8 14  1  0  0  0  0
  8 22  1  0  0  0  0
  9 10  1  0  0  0  0
  9 13  1  0  0  0  0
  9 15  2  0  0  0  0
 10 19  2  0  0  0  0
 11 14  1  0  0  0  0
 11 16  1  0  0  0  0
 11 17  2  0  0  0  0
 12 18  2  0  0  0  0
 17 18  1  0  0  0  0
 19 21  1  0  0  0  0
 20 24  1  0  0  0  0
 21 24  2  0  0  0  0
 22 23  1  0  0  0  0
 23 25  2  0  0  0  0
 23 26  1  0  0  0  0
 25 28  1  0  0  0  0
 26 29  2  0  0  0  0
 28 30  2  0  0  0  0
 29 30  1  0  0  0  0
M  END
> <PUBCHEM_COMPOUND_ID_TYPE>
0

> <PUBCHEM_TOTAL_CHARGE>
0

> <PUBCHEM_SUBSTANCE_ID>
310932029

> <PUBCHEM_SUBSTANCE_VERSION>
1

> <PUBCHEM_EXT_DATASOURCE_NAME>
4488

> <PUBCHEM_EXT_DATASOURCE_REGID>
SCHEMBL16109371

> <PUBCHEM_SUBSTANCE_COMMENT>
InChI=1S/C22H21N5O3/c1-30-22(29)18(19-9-5-6-12-23-19)15-26-27-20-11-10-17(14-24-20)21(28)25-13-16-7-3-2-4-8-16/h2-12,14-15,26H,13H2,1H3,(H,24,27)(H,25,28)/b18-15+
InChIKey=WORMXGNBHHLXBH-OBGWFSINSA-N

> <PUBCHEM_SUBSTANCE_SYNONYM>
SCHEMBL16109371

> <PUBCHEM_XREF_EXT_ID>
SCHEMBL16109371

> <PUBCHEM_EXT_DATASOURCE_URL>
https://www.surechembl.org/

> <PUBCHEM_EXT_SUBSTANCE_URL>
https://www.surechembl.org/chemical/SCHEMBL16109371

> <PUBCHEM_CID_ASSOCIATIONS>
117600663  1

> <PUBCHEM_COORDINATE_TYPE>
1
3

$$$$
