310949246
  -OEChem-07211613022D

 42 48  0     0  0  0  0  0  0999 V2000
    0.0076    0.1742    0.0000 N   0  0  0  0  0  0  0  0  0  0  0  0
    2.1287   -0.2651    0.0000 N   0  0  0  0  0  0  0  0  0  0  0  0
    0.0076   -3.9770    0.0000 N   0  0  0  0  0  0  0  0  0  0  0  0
   -0.6894    0.6742    0.0000 C   0  0  0  0  0  0  0  0  0  0  0  0
    0.6591    0.7197    0.0000 C   0  0  0  0  0  0  0  0  0  0  0  0
    0.0076   -0.6287    0.0000 C   0  0  0  0  0  0  0  0  0  0  0  0
   -0.4167    1.4771    0.0000 C   0  0  0  0  0  0  0  0  0  0  0  0
    0.4167    1.4922    0.0000 C   0  0  0  0  0  0  0  0  0  0  0  0
   -0.6894   -1.0832    0.0000 C   0  0  0  0  0  0  0  0  0  0  0  0
    0.7197   -1.0529    0.0000 C   0  0  0  0  0  0  0  0  0  0  0  0
   -0.9620    2.0529    0.0000 C   0  0  0  0  0  0  0  0  0  0  0  0
    0.9469    2.0983    0.0000 C   0  0  0  0  0  0  0  0  0  0  0  0
   -0.7197   -1.9165    0.0000 C   0  0  0  0  0  0  0  0  0  0  0  0
   -1.4620    0.4924    0.0000 C   0  0  0  0  0  0  0  0  0  0  0  0
    1.4922    0.5682    0.0000 C   0  0  0  0  0  0  0  0  0  0  0  0
   -1.4317   -0.6591    0.0000 C   0  0  0  0  0  0  0  0  0  0  0  0
   -1.7802    1.9014    0.0000 C   0  0  0  0  0  0  0  0  0  0  0  0
    1.7499    1.9468    0.0000 C   0  0  0  0  0  0  0  0  0  0  0  0
    0.0076   -2.2953    0.0000 C   0  0  0  0  0  0  0  0  0  0  0  0
    0.7045   -1.9014    0.0000 C   0  0  0  0  0  0  0  0  0  0  0  0
   -2.0074    1.0832    0.0000 C   0  0  0  0  0  0  0  0  0  0  0  0
    2.0225    1.1438    0.0000 C   0  0  0  0  0  0  0  0  0  0  0  0
    1.4317   -0.6439    0.0000 C   0  0  0  0  0  0  0  0  0  0  0  0
   -2.3559    2.5073    0.0000 C   0  0  0  0  0  0  0  0  0  0  0  0
    2.2953    2.5982    0.0000 C   0  0  0  0  0  0  0  0  0  0  0  0
   -1.4014    0.1439    0.0000 C   0  0  0  0  0  0  0  0  0  0  0  0
   -2.0983   -1.0681    0.0000 C   0  0  0  0  0  0  0  0  0  0  0  0
   -1.4165   -2.3256    0.0000 C   0  0  0  0  0  0  0  0  0  0  0  0
    0.0076   -3.1740    0.0000 C   0  0  0  0  0  0  0  0  0  0  0  0
   -2.0983    3.2952    0.0000 C   0  0  0  0  0  0  0  0  0  0  0  0
    3.0982    2.4317    0.0000 C   0  0  0  0  0  0  0  0  0  0  0  0
   -3.1437    2.3256    0.0000 C   0  0  0  0  0  0  0  0  0  0  0  0
    2.0680    3.3861    0.0000 C   0  0  0  0  0  0  0  0  0  0  0  0
   -2.1135    0.5682    0.0000 C   0  0  0  0  0  0  0  0  0  0  0  0
   -2.8255   -0.6894    0.0000 C   0  0  0  0  0  0  0  0  0  0  0  0
   -2.8104    0.1439    0.0000 C   0  0  0  0  0  0  0  0  0  0  0  0
   -2.6740    3.8861    0.0000 C   0  0  0  0  0  0  0  0  0  0  0  0
    3.6740    3.0225    0.0000 C   0  0  0  0  0  0  0  0  0  0  0  0
   -3.6740    2.8860    0.0000 C   0  0  0  0  0  0  0  0  0  0  0  0
    2.6437    3.9770    0.0000 C   0  0  0  0  0  0  0  0  0  0  0  0
   -3.4315    3.7043    0.0000 C   0  0  0  0  0  0  0  0  0  0  0  0
    3.4163    3.8103    0.0000 C   0  0  0  0  0  0  0  0  0  0  0  0
  1  4  1  0  0  0  0
  1  5  1  0  0  0  0
  1  6  1  0  0  0  0
  2 23  3  0  0  0  0
  3 29  3  0  0  0  0
  4  7  2  0  0  0  0
  4 14  1  0  0  0  0
  5  8  2  0  0  0  0
  5 15  1  0  0  0  0
  6  9  1  0  0  0  0
  6 10  2  0  0  0  0
  7  8  1  0  0  0  0
  7 11  1  0  0  0  0
  8 12  1  0  0  0  0
  9 13  2  0  0  0  0
  9 16  1  0  0  0  0
 10 20  1  0  0  0  0
 10 23  1  0  0  0  0
 11 17  2  0  0  0  0
 12 18  2  0  0  0  0
 13 19  1  0  0  0  0
 13 28  1  0  0  0  0
 14 21  2  0  0  0  0
 15 22  2  0  0  0  0
 16 26  2  0  0  0  0
 16 27  1  0  0  0  0
 17 21  1  0  0  0  0
 17 24  1  0  0  0  0
 18 22  1  0  0  0  0
 18 25  1  0  0  0  0
 19 20  2  0  0  0  0
 19 29  1  0  0  0  0
 24 30  2  0  0  0  0
 24 32  1  0  0  0  0
 25 31  2  0  0  0  0
 25 33  1  0  0  0  0
 26 34  1  0  0  0  0
 27 35  2  0  0  0  0
 30 37  1  0  0  0  0
 31 38  1  0  0  0  0
 32 39  2  0  0  0  0
 33 40  2  0  0  0  0
 34 36  2  0  0  0  0
 35 36  1  0  0  0  0
 37 41  2  0  0  0  0
 38 42  2  0  0  0  0
 39 41  1  0  0  0  0
 40 42  1  0  0  0  0
M  END
> <PUBCHEM_COMPOUND_ID_TYPE>
0

> <PUBCHEM_TOTAL_CHARGE>
0

> <PUBCHEM_SUBSTANCE_ID>
310949246

> <PUBCHEM_SUBSTANCE_VERSION>
1

> <PUBCHEM_EXT_DATASOURCE_NAME>
4488

> <PUBCHEM_EXT_DATASOURCE_REGID>
SCHEMBL16127436

> <PUBCHEM_SUBSTANCE_COMMENT>
InChI=1S/C39H25N3/c1-26-32(24-40)21-33(25-41)39(38(26)29-15-9-4-10-16-29)42-36-19-17-30(27-11-5-2-6-12-27)22-34(36)35-23-31(18-20-37(35)42)28-13-7-3-8-14-28/h2-23H,1H3
InChIKey=AAYOHYRDHBKOLG-UHFFFAOYSA-N

> <PUBCHEM_SUBSTANCE_SYNONYM>
SCHEMBL16127436

> <PUBCHEM_XREF_EXT_ID>
SCHEMBL16127436

> <PUBCHEM_EXT_DATASOURCE_URL>
https://www.surechembl.org/

> <PUBCHEM_EXT_SUBSTANCE_URL>
https://www.surechembl.org/chemical/SCHEMBL16127436

> <PUBCHEM_CID_ASSOCIATIONS>
117614734  1

> <PUBCHEM_COORDINATE_TYPE>
1
3

$$$$
