310934504
  -OEChem-07211613022D

 64 72  0     0  0  0  0  0  0999 V2000
   -0.0111   -1.6858    0.0000 O   0  0  0  0  0  0  0  0  0  0  0  0
   -0.5051   -6.7790    0.0000 O   0  0  0  0  0  0  0  0  0  0  0  0
   -2.6389   -0.4967    0.0000 O   0  0  0  0  0  0  0  0  0  0  0  0
   -3.7199   -4.4130    0.0000 O   0  0  0  0  0  0  0  0  0  0  0  0
    2.5680   -3.4080    0.0000 O   0  0  0  0  0  0  0  0  0  0  0  0
    2.1063   -7.8000    0.0000 O   0  0  0  0  0  0  0  0  0  0  0  0
   -0.1787   -3.8795    0.0000 N   0  0  0  0  0  0  0  0  0  0  0  0
   -0.5143   -4.6332    0.0000 N   0  0  0  0  0  0  0  0  0  0  0  0
    0.7145   -2.8875    0.0000 N   0  0  0  0  0  0  0  0  0  0  0  0
   -1.4075   -5.6252    0.0000 N   0  0  0  0  0  0  0  0  0  0  0  0
    1.1018   -4.4424    0.0000 N   0  0  0  0  0  0  0  0  0  0  0  0
   -2.1354   -4.8857    0.0000 N   0  0  0  0  0  0  0  0  0  0  0  0
   -1.3839   -7.2313    0.0000 N   0  0  0  0  0  0  0  0  0  0  0  0
   -0.5912   -3.1650    0.0000 C   0  0  0  0  0  0  0  0  0  0  0  0
   -0.1018   -5.3477    0.0000 C   0  0  0  0  0  0  0  0  0  0  0  0
   -0.0392   -2.5519    0.0000 C   0  0  0  0  0  0  0  0  0  0  0  0
   -0.6538   -5.9607    0.0000 C   0  0  0  0  0  0  0  0  0  0  0  0
    0.6282   -3.7080    0.0000 C   0  0  0  0  0  0  0  0  0  0  0  0
   -1.3213   -4.8047    0.0000 C   0  0  0  0  0  0  0  0  0  0  0  0
   -1.0831   -2.5027    0.0000 C   0  0  0  0  0  0  0  0  0  0  0  0
   -1.3484   -3.4927    0.0000 C   0  0  0  0  0  0  0  0  0  0  0  0
    0.5656   -4.8627    0.0000 C   0  0  0  0  0  0  0  0  0  0  0  0
    0.4502   -5.9607    0.0000 C   0  0  0  0  0  0  0  0  0  0  0  0
    1.5215   -2.4993    0.0000 C   0  0  0  0  0  0  0  0  0  0  0  0
   -2.1713   -6.0474    0.0000 C   0  0  0  0  0  0  0  0  0  0  0  0
   -1.9027   -2.5975    0.0000 C   0  0  0  0  0  0  0  0  0  0  0  0
   -1.4432   -4.3122    0.0000 C   0  0  0  0  0  0  0  0  0  0  0  0
   -0.7555   -1.7456    0.0000 C   0  0  0  0  0  0  0  0  0  0  0  0
   -2.0107   -3.0008    0.0000 C   0  0  0  0  0  0  0  0  0  0  0  0
    1.3193   -5.1983    0.0000 C   0  0  0  0  0  0  0  0  0  0  0  0
    1.2572   -5.7892    0.0000 C   0  0  0  0  0  0  0  0  0  0  0  0
    0.4794   -4.0423    0.0000 C   0  0  0  0  0  0  0  0  0  0  0  0
    0.1953   -6.7454    0.0000 C   0  0  0  0  0  0  0  0  0  0  0  0
    1.4289   -1.6500    0.0000 C   0  0  0  0  0  0  0  0  0  0  0  0
   -2.1220   -6.8627    0.0000 C   0  0  0  0  0  0  0  0  0  0  0  0
   -2.3945   -1.9352    0.0000 C   0  0  0  0  0  0  0  0  0  0  0  0
   -2.2306   -4.5272    0.0000 C   0  0  0  0  0  0  0  0  0  0  0  0
   -1.2474   -1.0832    0.0000 C   0  0  0  0  0  0  0  0  0  0  0  0
   -2.7679   -3.3284    0.0000 C   0  0  0  0  0  0  0  0  0  0  0  0
    1.9868   -4.7134    0.0000 C   0  0  0  0  0  0  0  0  0  0  0  0
    1.8092   -6.4023    0.0000 C   0  0  0  0  0  0  0  0  0  0  0  0
    1.1468   -3.5573    0.0000 C   0  0  0  0  0  0  0  0  0  0  0  0
    0.7473   -7.3585    0.0000 C   0  0  0  0  0  0  0  0  0  0  0  0
   -2.0669   -1.1781    0.0000 C   0  0  0  0  0  0  0  0  0  0  0  0
   -2.8627   -4.1480    0.0000 C   0  0  0  0  0  0  0  0  0  0  0  0
    1.9005   -3.8929    0.0000 C   0  0  0  0  0  0  0  0  0  0  0  0
    1.5543   -7.1869    0.0000 C   0  0  0  0  0  0  0  0  0  0  0  0
    2.1434   -1.2375    0.0000 C   0  0  0  0  0  0  0  0  0  0  0  0
    0.7145   -1.2375    0.0000 C   0  0  0  0  0  0  0  0  0  0  0  0
   -2.8102   -7.3176    0.0000 C   0  0  0  0  0  0  0  0  0  0  0  0
    2.1434   -0.4125    0.0000 C   0  0  0  0  0  0  0  0  0  0  0  0
    2.8579   -1.6500    0.0000 C   0  0  0  0  0  0  0  0  0  0  0  0
    0.7145   -0.4125    0.0000 C   0  0  0  0  0  0  0  0  0  0  0  0
    1.4289    0.0000    0.0000 C   0  0  0  0  0  0  0  0  0  0  0  0
   -1.3340   -8.0547    0.0000 C   0  0  0  0  0  0  0  0  0  0  0  0
   -2.7603   -8.1411    0.0000 C   0  0  0  0  0  0  0  0  0  0  0  0
    2.8579    0.0000    0.0000 C   0  0  0  0  0  0  0  0  0  0  0  0
    3.5724   -1.2375    0.0000 C   0  0  0  0  0  0  0  0  0  0  0  0
   -2.0222   -8.5097    0.0000 C   0  0  0  0  0  0  0  0  0  0  0  0
    3.5724   -0.4125    0.0000 C   0  0  0  0  0  0  0  0  0  0  0  0
   -3.4876   -0.4124    0.0000 C   0  0  0  0  0  0  0  0  0  0  0  0
   -4.4798   -4.0370    0.0000 C   0  0  0  0  0  0  0  0  0  0  0  0
    2.4817   -2.5875    0.0000 C   0  0  0  0  0  0  0  0  0  0  0  0
    1.8514   -8.5847    0.0000 C   0  0  0  0  0  0  0  0  0  0  0  0
  1 16  2  0  0  0  0
  2 17  2  0  0  0  0
  3 44  1  0  0  0  0
  3 61  1  0  0  0  0
  4 45  1  0  0  0  0
  4 62  1  0  0  0  0
  5 46  1  0  0  0  0
  5 63  1  0  0  0  0
  6 47  1  0  0  0  0
  6 64  1  0  0  0  0
  7  8  1  0  0  0  0
  7 14  1  0  0  0  0
  7 18  1  0  0  0  0
  8 15  1  0  0  0  0
  8 19  1  0  0  0  0
  9 16  1  0  0  0  0
  9 18  1  0  0  0  0
  9 24  1  0  0  0  0
 10 17  1  0  0  0  0
 10 19  1  0  0  0  0
 10 25  1  0  0  0  0
 11 18  2  3  0  0  0
 12 19  2  3  0  0  0
 13 35  2  0  0  0  0
 13 55  1  0  0  0  0
 14 16  1  0  0  0  0
 14 20  1  0  0  0  0
 14 21  1  0  0  0  0
 15 17  1  0  0  0  0
 15 22  1  0  0  0  0
 15 23  1  0  0  0  0
 20 26  2  0  0  0  0
 20 28  1  0  0  0  0
 21 27  2  0  0  0  0
 21 29  1  0  0  0  0
 22 30  2  0  0  0  0
 22 32  1  0  0  0  0
 23 31  2  0  0  0  0
 23 33  1  0  0  0  0
 24 34  1  0  0  0  0
 25 35  1  0  0  0  0
 26 36  1  0  0  0  0
 27 37  1  0  0  0  0
 28 38  2  0  0  0  0
 29 39  2  0  0  0  0
 30 40  1  0  0  0  0
 31 41  1  0  0  0  0
 32 42  2  0  0  0  0
 33 43  2  0  0  0  0
 34 48  1  0  0  0  0
 34 49  2  0  0  0  0
 35 50  1  0  0  0  0
 36 44  2  0  0  0  0
 37 45  2  0  0  0  0
 38 44  1  0  0  0  0
 39 45  1  0  0  0  0
 40 46  2  0  0  0  0
 41 47  2  0  0  0  0
 42 46  1  0  0  0  0
 43 47  1  0  0  0  0
 48 51  1  0  0  0  0
 48 52  2  0  0  0  0
 49 53  1  0  0  0  0
 50 56  2  0  0  0  0
 51 54  1  0  0  0  0
 51 57  2  0  0  0  0
 52 58  1  0  0  0  0
 53 54  2  0  0  0  0
 55 59  2  0  0  0  0
 56 59  1  0  0  0  0
 57 60  1  0  0  0  0
 58 60  2  0  0  0  0
M  END
> <PUBCHEM_COMPOUND_ID_TYPE>
0

> <PUBCHEM_TOTAL_CHARGE>
0

> <PUBCHEM_SUBSTANCE_ID>
310934504

> <PUBCHEM_SUBSTANCE_VERSION>
1

> <PUBCHEM_EXT_DATASOURCE_NAME>
4488

> <PUBCHEM_EXT_DATASOURCE_REGID>
SCHEMBL16111989

> <PUBCHEM_SUBSTANCE_COMMENT>
InChI=1S/C51H45N7O6/c1-61-41-23-15-36(16-24-41)50(37-17-25-42(62-2)26-18-37)46(59)55(32-35-12-9-11-34-10-5-6-14-45(34)35)48(52)57(50)58-49(53)56(33-40-13-7-8-31-54-40)47(60)51(58,38-19-27-43(63-3)28-20-38)39-21-29-44(64-4)30-22-39/h5-31,52-53H,32-33H2,1-4H3
InChIKey=ZDANGPGYGJCEJP-UHFFFAOYSA-N

> <PUBCHEM_SUBSTANCE_SYNONYM>
SCHEMBL16111989

> <PUBCHEM_XREF_EXT_ID>
SCHEMBL16111989

> <PUBCHEM_EXT_DATASOURCE_URL>
https://www.surechembl.org/

> <PUBCHEM_EXT_SUBSTANCE_URL>
https://www.surechembl.org/chemical/SCHEMBL16111989

> <PUBCHEM_CID_ASSOCIATIONS>
117602702  1

> <PUBCHEM_COORDINATE_TYPE>
1
3

$$$$
