310941217
  -OEChem-07211613022D

 11 11  0     0  0  0  0  0  0999 V2000
   -1.1525   -0.6349    0.0000 O   0  0  0  0  0  0  0  0  0  0  0  0
   -0.3795   -0.3589    0.0000 C   0  0  0  0  0  0  0  0  0  0  0  0
   -0.3658    0.4693    0.0000 C   0  0  0  0  0  0  0  0  0  0  0  0
   -1.1525    0.7177    0.0000 C   0  0  0  0  0  0  0  0  0  0  0  0
    0.3658   -0.7592    0.0000 C   0  0  0  0  0  0  0  0  0  0  0  0
   -1.6356    0.0414    0.0000 C   0  0  0  0  0  0  0  0  0  0  0  0
    1.0697   -0.3589    0.0000 C   0  0  0  0  0  0  0  0  0  0  0  0
    0.2001    0.7592    0.0000 C   0  0  0  0  0  0  0  0  0  0  0  0
    1.0835    0.4693    0.0000 C   0  0  0  0  0  0  0  0  0  0  0  0
    0.4210    0.7315    0.0000 C   0  0  0  0  0  0  0  0  0  0  0  0
    1.6356    0.7592    0.0000 C   0  0  0  0  0  0  0  0  0  0  0  0
  1  2  1  0  0  0  0
  1  6  1  0  0  0  0
  2  3  2  0  0  0  0
  2  5  1  0  0  0  0
  3  4  1  0  0  0  0
  3  8  1  0  0  0  0
  4  6  2  0  0  0  0
  5  7  2  0  0  0  0
  7  9  1  0  0  0  0
  9 10  2  0  0  0  0
  9 11  1  0  0  0  0
M  END
> <PUBCHEM_COMPOUND_ID_TYPE>
0

> <PUBCHEM_TOTAL_CHARGE>
0

> <PUBCHEM_SUBSTANCE_ID>
310941217

> <PUBCHEM_SUBSTANCE_VERSION>
1

> <PUBCHEM_EXT_DATASOURCE_NAME>
4488

> <PUBCHEM_EXT_DATASOURCE_REGID>
SCHEMBL16119177

> <PUBCHEM_SUBSTANCE_COMMENT>
InChI=1S/C10H12O/c1-8(2)4-5-10-9(3)6-7-11-10/h4-7H,1H2,2-3H3/b5-4-
InChIKey=MOVHCBLRKLLLQI-PLNGDYQASA-N

> <PUBCHEM_SUBSTANCE_SYNONYM>
SCHEMBL16119177

> <PUBCHEM_XREF_EXT_ID>
SCHEMBL16119177

> <PUBCHEM_EXT_DATASOURCE_URL>
https://www.surechembl.org/

> <PUBCHEM_EXT_SUBSTANCE_URL>
https://www.surechembl.org/chemical/SCHEMBL16119177

> <PUBCHEM_CID_ASSOCIATIONS>
117608088  1

> <PUBCHEM_COORDINATE_TYPE>
1
3

$$$$
