310936481
  -OEChem-07211613022D

 23 25  0     0  0  0  0  0  0999 V2000
    0.0249   -0.6975    0.0000 Cl  0  0  0  0  0  0  0  0  0  0  0  0
    2.4661   -3.6119    0.0000 O   0  0  0  0  0  0  0  0  0  0  0  0
    7.4730   -0.7224    0.0000 O   0  0  0  0  0  0  0  0  0  0  0  0
    3.7116   -2.8895    0.0000 N   0  0  0  0  0  0  0  0  0  0  0  0
    6.2275    0.0000    0.0000 N   0  0  0  0  0  0  0  0  0  0  0  0
    6.2275   -1.4199    0.0000 N   0  0  0  0  0  0  0  0  0  0  0  0
    2.4910   -2.1671    0.0000 C   0  0  0  0  0  0  0  0  0  0  0  0
    1.6689   -2.1422    0.0000 C   0  0  0  0  0  0  0  0  0  0  0  0
    2.8895   -2.8895    0.0000 C   0  0  0  0  0  0  0  0  0  0  0  0
    3.7116   -1.4448    0.0000 C   0  0  0  0  0  0  0  0  0  0  0  0
    2.8895   -1.4448    0.0000 C   0  0  0  0  0  0  0  0  0  0  0  0
    4.1101   -2.1671    0.0000 C   0  0  0  0  0  0  0  0  0  0  0  0
    4.1351   -0.7224    0.0000 C   0  0  0  0  0  0  0  0  0  0  0  0
    1.2455   -1.4199    0.0000 C   0  0  0  0  0  0  0  0  0  0  0  0
    4.9570   -0.7224    0.0000 C   0  0  0  0  0  0  0  0  0  0  0  0
    1.2206   -2.8646    0.0000 C   0  0  0  0  0  0  0  0  0  0  0  0
    0.4235   -1.4199    0.0000 C   0  0  0  0  0  0  0  0  0  0  0  0
    5.4054    0.0000    0.0000 C   0  0  0  0  0  0  0  0  0  0  0  0
    5.4054   -1.4199    0.0000 C   0  0  0  0  0  0  0  0  0  0  0  0
    0.3986   -2.8646    0.0000 C   0  0  0  0  0  0  0  0  0  0  0  0
    0.0000   -2.1173    0.0000 C   0  0  0  0  0  0  0  0  0  0  0  0
    6.6509   -0.7224    0.0000 C   0  0  0  0  0  0  0  0  0  0  0  0
    2.8646   -4.3343    0.0000 C   0  0  0  0  0  0  0  0  0  0  0  0
  1 17  1  0  0  0  0
  2  9  1  0  0  0  0
  2 23  1  0  0  0  0
  3 22  1  0  0  0  0
  4  9  2  0  0  0  0
  4 12  1  0  0  0  0
  5 18  1  0  0  0  0
  5 22  2  0  0  0  0
  6 19  2  0  0  0  0
  6 22  1  0  0  0  0
  7  8  1  0  0  0  0
  7  9  1  0  0  0  0
  7 11  2  0  0  0  0
  8 14  1  0  0  0  0
  8 16  2  0  0  0  0
 10 11  1  0  0  0  0
 10 12  2  0  0  0  0
 10 13  1  0  0  0  0
 13 15  1  0  0  0  0
 14 17  2  0  0  0  0
 15 18  2  0  0  0  0
 15 19  1  0  0  0  0
 16 20  1  0  0  0  0
 17 21  1  0  0  0  0
 20 21  2  0  0  0  0
M  END
> <PUBCHEM_COMPOUND_ID_TYPE>
0

> <PUBCHEM_TOTAL_CHARGE>
0

> <PUBCHEM_SUBSTANCE_ID>
310936481

> <PUBCHEM_SUBSTANCE_VERSION>
1

> <PUBCHEM_EXT_DATASOURCE_NAME>
4488

> <PUBCHEM_EXT_DATASOURCE_REGID>
SCHEMBL16114130

> <PUBCHEM_SUBSTANCE_COMMENT>
InChI=1S/C17H14ClN3O2/c1-23-16-15(13-3-2-4-14(18)7-13)6-11(8-19-16)5-12-9-20-17(22)21-10-12/h2-4,6-10H,5H2,1H3,(H,20,21,22)
InChIKey=WYHDDJZTYLNKGZ-UHFFFAOYSA-N

> <PUBCHEM_SUBSTANCE_SYNONYM>
SCHEMBL16114130

> <PUBCHEM_XREF_EXT_ID>
SCHEMBL16114130

> <PUBCHEM_EXT_DATASOURCE_URL>
https://www.surechembl.org/

> <PUBCHEM_EXT_SUBSTANCE_URL>
https://www.surechembl.org/chemical/SCHEMBL16114130

> <PUBCHEM_CID_ASSOCIATIONS>
117604410  1

> <PUBCHEM_COORDINATE_TYPE>
1
3

$$$$
