310934358
  -OEChem-07211613022D

 28 30  0     0  0  0  0  0  0999 V2000
    4.5179   -0.7071    0.0000 S   0  0  0  0  0  0  0  0  0  0  0  0
    0.0000   -4.3215    0.0000 F   0  0  0  0  0  0  0  0  0  0  0  0
    1.6107    0.0000    0.0000 O   0  0  0  0  0  0  0  0  0  0  0  0
    1.2571   -2.1607    0.0000 O   0  0  0  0  0  0  0  0  0  0  0  0
    0.0393   -7.1501    0.0000 O   0  0  0  0  0  0  0  0  0  0  0  0
    0.7857   -1.4143    0.0000 O   0  0  0  0  0  0  0  0  0  0  0  0
    2.4358   -2.8679    0.0000 N   0  0  0  0  0  0  0  0  0  0  0  0
    1.6107   -1.4143    0.0000 N   0  0  0  0  0  0  0  0  0  0  0  0
    2.8286   -0.7071    0.0000 C   0  0  0  0  0  0  0  0  0  0  0  0
    1.6500   -4.2822    0.0000 C   0  0  0  0  0  0  0  0  0  0  0  0
    1.2571   -4.9894    0.0000 C   0  0  0  0  0  0  0  0  0  0  0  0
    2.0036   -0.7071    0.0000 C   0  0  0  0  0  0  0  0  0  0  0  0
    2.4358   -1.4536    0.0000 C   0  0  0  0  0  0  0  0  0  0  0  0
    1.6500   -2.8679    0.0000 C   0  0  0  0  0  0  0  0  0  0  0  0
    3.2608   -1.4143    0.0000 C   0  0  0  0  0  0  0  0  0  0  0  0
    3.2608    0.0000    0.0000 C   0  0  0  0  0  0  0  0  0  0  0  0
    2.8679   -2.1607    0.0000 C   0  0  0  0  0  0  0  0  0  0  0  0
    1.2179   -3.5750    0.0000 C   0  0  0  0  0  0  0  0  0  0  0  0
    0.4321   -5.0286    0.0000 C   0  0  0  0  0  0  0  0  0  0  0  0
    2.4358   -4.2822    0.0000 C   0  0  0  0  0  0  0  0  0  0  0  0
    2.8679   -3.5750    0.0000 C   0  0  0  0  0  0  0  0  0  0  0  0
    1.6500   -5.6965    0.0000 C   0  0  0  0  0  0  0  0  0  0  0  0
    0.0393   -5.7358    0.0000 C   0  0  0  0  0  0  0  0  0  0  0  0
    0.4321   -6.4430    0.0000 C   0  0  0  0  0  0  0  0  0  0  0  0
    4.0858   -1.4143    0.0000 C   0  0  0  0  0  0  0  0  0  0  0  0
    4.0858    0.0000    0.0000 C   0  0  0  0  0  0  0  0  0  0  0  0
    1.2571   -6.4037    0.0000 C   0  0  0  0  0  0  0  0  0  0  0  0
    0.4321   -7.8573    0.0000 C   0  0  0  0  0  0  0  0  0  0  0  0
  1 25  1  0  0  0  0
  1 26  1  0  0  0  0
  2 19  1  0  0  0  0
  3 12  2  0  0  0  0
  4 14  2  0  0  0  0
  5 24  1  0  0  0  0
  5 28  1  0  0  0  0
  6  8  1  0  0  0  0
  7 14  1  0  0  0  0
  7 17  1  0  0  0  0
  7 21  1  0  0  0  0
  8 12  1  0  0  0  0
  9 12  1  0  0  0  0
  9 13  1  0  0  0  0
  9 15  1  0  0  0  0
  9 16  1  0  0  0  0
 10 11  1  0  0  0  0
 10 18  2  0  0  0  0
 10 20  1  0  0  0  0
 11 19  1  0  0  0  0
 11 22  2  0  0  0  0
 13 17  1  0  0  0  0
 14 18  1  0  0  0  0
 15 25  1  0  0  0  0
 16 26  1  0  0  0  0
 19 23  2  0  0  0  0
 20 21  2  0  0  0  0
 22 27  1  0  0  0  0
 23 24  1  0  0  0  0
 24 27  2  0  0  0  0
M  END
> <PUBCHEM_COMPOUND_ID_TYPE>
0

> <PUBCHEM_TOTAL_CHARGE>
0

> <PUBCHEM_SUBSTANCE_ID>
310934358

> <PUBCHEM_SUBSTANCE_VERSION>
1

> <PUBCHEM_EXT_DATASOURCE_NAME>
4488

> <PUBCHEM_EXT_DATASOURCE_REGID>
SCHEMBL16111823

> <PUBCHEM_SUBSTANCE_COMMENT>
InChI=1S/C20H23FN2O4S/c1-27-15-2-3-16(17(21)13-15)14-4-8-23(18(24)12-14)9-5-20(19(25)22-26)6-10-28-11-7-20/h2-4,8,12-13,26H,5-7,9-11H2,1H3,(H,22,25)
InChIKey=IVBXSYINSATZJF-UHFFFAOYSA-N

> <PUBCHEM_SUBSTANCE_SYNONYM>
SCHEMBL16111823

> <PUBCHEM_XREF_EXT_ID>
SCHEMBL16111823

> <PUBCHEM_EXT_DATASOURCE_URL>
https://www.surechembl.org/

> <PUBCHEM_EXT_SUBSTANCE_URL>
https://www.surechembl.org/chemical/SCHEMBL16111823

> <PUBCHEM_CID_ASSOCIATIONS>
117602587  1

> <PUBCHEM_COORDINATE_TYPE>
1
3

$$$$
