310943641
  -OEChem-07211613022D

 40 44  0     0  0  0  0  0  0999 V2000
    2.9005   -2.0752    0.0000 F   0  0  0  0  0  0  0  0  0  0  0  0
    4.3268   -1.2420    0.0000 F   0  0  0  0  0  0  0  0  0  0  0  0
    4.3268   -2.0752    0.0000 F   0  0  0  0  0  0  0  0  0  0  0  0
   -4.3268    2.8925    0.0000 O   0  0  0  0  0  0  0  0  0  0  0  0
    1.4583    0.4086    0.0000 O   0  0  0  0  0  0  0  0  0  0  0  0
   -0.7211    0.8253    0.0000 N   0  0  0  0  0  0  0  0  0  0  0  0
   -2.1634    0.8253    0.0000 N   0  0  0  0  0  0  0  0  0  0  0  0
   -1.4423   -0.4246    0.0000 N   0  0  0  0  0  0  0  0  0  0  0  0
   -2.8845    2.0752    0.0000 N   0  0  0  0  0  0  0  0  0  0  0  0
    0.7211    3.3092    0.0000 N   0  0  0  0  0  0  0  0  0  0  0  0
    2.1634    1.6586    0.0000 N   0  0  0  0  0  0  0  0  0  0  0  0
   -1.4423   -2.0752    0.0000 N   0  0  0  0  0  0  0  0  0  0  0  0
   -0.7051    1.6586    0.0000 C   0  0  0  0  0  0  0  0  0  0  0  0
    0.0000    2.0752    0.0000 C   0  0  0  0  0  0  0  0  0  0  0  0
   -1.4263    0.4086    0.0000 C   0  0  0  0  0  0  0  0  0  0  0  0
   -2.1474    1.6586    0.0000 C   0  0  0  0  0  0  0  0  0  0  0  0
   -1.4423    2.0592    0.0000 C   0  0  0  0  0  0  0  0  0  0  0  0
    0.0160    2.8925    0.0000 C   0  0  0  0  0  0  0  0  0  0  0  0
    0.7532    1.6586    0.0000 C   0  0  0  0  0  0  0  0  0  0  0  0
    1.4423    2.0592    0.0000 C   0  0  0  0  0  0  0  0  0  0  0  0
    1.4583    2.8925    0.0000 C   0  0  0  0  0  0  0  0  0  0  0  0
    2.1794    0.8413    0.0000 C   0  0  0  0  0  0  0  0  0  0  0  0
    2.9005    0.4086    0.0000 C   0  0  0  0  0  0  0  0  0  0  0  0
   -2.1474   -0.8253    0.0000 C   0  0  0  0  0  0  0  0  0  0  0  0
   -0.7051   -0.8413    0.0000 C   0  0  0  0  0  0  0  0  0  0  0  0
    3.6217   -0.8253    0.0000 C   0  0  0  0  0  0  0  0  0  0  0  0
   -2.8845    2.8925    0.0000 C   0  0  0  0  0  0  0  0  0  0  0  0
   -3.5897    1.6586    0.0000 C   0  0  0  0  0  0  0  0  0  0  0  0
    3.6217   -1.6426    0.0000 C   0  0  0  0  0  0  0  0  0  0  0  0
    2.9005   -0.4246    0.0000 C   0  0  0  0  0  0  0  0  0  0  0  0
   -0.7051    3.3252    0.0000 C   0  0  0  0  0  0  0  0  0  0  0  0
   -2.1474   -1.6747    0.0000 C   0  0  0  0  0  0  0  0  0  0  0  0
   -0.7211   -1.6747    0.0000 C   0  0  0  0  0  0  0  0  0  0  0  0
    3.6057    0.8093    0.0000 C   0  0  0  0  0  0  0  0  0  0  0  0
    4.3268   -0.4086    0.0000 C   0  0  0  0  0  0  0  0  0  0  0  0
   -3.6057    3.3092    0.0000 C   0  0  0  0  0  0  0  0  0  0  0  0
   -4.3108    2.0592    0.0000 C   0  0  0  0  0  0  0  0  0  0  0  0
    4.3268    0.4086    0.0000 C   0  0  0  0  0  0  0  0  0  0  0  0
   -1.4263   -2.9086    0.0000 C   0  0  0  0  0  0  0  0  0  0  0  0
   -0.6891   -3.3252    0.0000 C   0  0  0  0  0  0  0  0  0  0  0  0
  1 29  1  0  0  0  0
  2 29  1  0  0  0  0
  3 29  1  0  0  0  0
  4 36  1  0  0  0  0
  4 37  1  0  0  0  0
  5 22  2  0  0  0  0
  6 13  1  0  0  0  0
  6 15  2  0  0  0  0
  7 15  1  0  0  0  0
  7 16  2  0  0  0  0
  8 15  1  0  0  0  0
  8 24  1  0  0  0  0
  8 25  1  0  0  0  0
  9 16  1  0  0  0  0
  9 27  1  0  0  0  0
  9 28  1  0  0  0  0
 10 18  2  0  0  0  0
 10 21  1  0  0  0  0
 11 20  1  0  0  0  0
 11 22  1  0  0  0  0
 12 32  1  0  0  0  0
 12 33  1  0  0  0  0
 12 39  1  0  0  0  0
 13 14  1  0  0  0  0
 13 17  2  0  0  0  0
 14 18  1  0  0  0  0
 14 19  2  0  0  0  0
 16 17  1  0  0  0  0
 18 31  1  0  0  0  0
 19 20  1  0  0  0  0
 20 21  2  0  0  0  0
 22 23  1  0  0  0  0
 23 30  2  0  0  0  0
 23 34  1  0  0  0  0
 24 32  1  0  0  0  0
 25 33  1  0  0  0  0
 26 29  1  0  0  0  0
 26 30  1  0  0  0  0
 26 35  2  0  0  0  0
 27 36  1  0  0  0  0
 28 37  1  0  0  0  0
 34 38  2  0  0  0  0
 35 38  1  0  0  0  0
 39 40  1  0  0  0  0
M  END
> <PUBCHEM_COMPOUND_ID_TYPE>
0

> <PUBCHEM_TOTAL_CHARGE>
0

> <PUBCHEM_SUBSTANCE_ID>
310943641

> <PUBCHEM_SUBSTANCE_VERSION>
1

> <PUBCHEM_EXT_DATASOURCE_NAME>
4488

> <PUBCHEM_EXT_DATASOURCE_REGID>
SCHEMBL16121709

> <PUBCHEM_SUBSTANCE_COMMENT>
InChI=1S/C28H32F3N7O2/c1-3-36-7-9-38(10-8-36)27-34-24(17-25(35-27)37-11-13-40-14-12-37)23-16-22(18-32-19(23)2)33-26(39)20-5-4-6-21(15-20)28(29,30)31/h4-6,15-18H,3,7-14H2,1-2H3,(H,33,39)
InChIKey=XNDJLYZNZVNQHQ-UHFFFAOYSA-N

> <PUBCHEM_SUBSTANCE_SYNONYM>
SCHEMBL16121709

> <PUBCHEM_XREF_EXT_ID>
SCHEMBL16121709

> <PUBCHEM_EXT_DATASOURCE_URL>
https://www.surechembl.org/

> <PUBCHEM_EXT_SUBSTANCE_URL>
https://www.surechembl.org/chemical/SCHEMBL16121709

> <PUBCHEM_CID_ASSOCIATIONS>
117610032  1

> <PUBCHEM_COORDINATE_TYPE>
1
3

$$$$
