310949983
  -OEChem-07211613022D

 19 18  0     1  0  0  0  0  0999 V2000
   -2.4213   -0.5712    0.0000 S   0  0  0  0  0  0  0  0  0  0  0  0
   -0.7503   -0.8611    0.0000 P   0  0  0  0  0  0  0  0  0  0  0  0
   -0.9378   -0.7247    0.0000 O   0  0  0  0  0  0  0  0  0  0  0  0
    1.5857   -0.7588    0.0000 O   0  0  0  0  0  0  0  0  0  0  0  0
    2.7793    1.4408    0.0000 O   0  0  0  0  0  0  0  0  0  0  0  0
   -0.2217   -0.7588    0.0000 N   0  0  0  0  0  0  0  0  0  0  0  0
    0.6991   -0.7588    0.0000 N   0  0  0  0  0  0  0  0  0  0  0  0
    1.5516    2.1740    0.0000 N   0  0  0  0  0  0  0  0  0  0  0  0
   -0.5798   -0.0426    0.0000 C   0  0  0  0  0  0  0  0  0  0  0  0
    0.2899   -0.0256    0.0000 C   0  0  3  0  0  0  0  0  0  0  0  0
   -0.6139   -1.4067    0.0000 C   0  0  3  0  0  0  0  0  0  0  0  0
   -0.2899   -2.1058    0.0000 C   0  0  0  0  0  0  0  0  0  0  0  0
    0.6821    0.7076    0.0000 C   0  0  0  0  0  0  0  0  0  0  0  0
   -1.3300   -1.3386    0.0000 C   0  0  0  0  0  0  0  0  0  0  0  0
    1.5516    0.6906    0.0000 C   0  0  0  0  0  0  0  0  0  0  0  0
   -1.7221   -0.6394    0.0000 C   0  0  0  0  0  0  0  0  0  0  0  0
    1.9609    1.4408    0.0000 C   0  0  0  0  0  0  0  0  0  0  0  0
    0.4604   -2.1740    0.0000 C   0  0  0  0  0  0  0  0  0  0  0  0
   -2.7793    0.1961    0.0000 C   0  0  0  0  0  0  0  0  0  0  0  0
  1 16  1  0  0  0  0
  1 19  1  0  0  0  0
  2 12  1  0  0  0  0
  3  9  2  0  0  0  0
  4  7  1  0  0  0  0
  5 17  2  0  0  0  0
  6  9  1  0  0  0  0
 11  6  1  6  0  0  0
 10  7  1  6  0  0  0
  8 17  1  0  0  0  0
  9 10  1  0  0  0  0
 10 13  1  0  0  0  0
 11 12  1  0  0  0  0
 11 14  1  0  0  0  0
 12 18  2  0  0  0  0
 13 15  1  0  0  0  0
 14 16  1  0  0  0  0
 15 17  1  0  0  0  0
M  END
> <PUBCHEM_COMPOUND_ID_TYPE>
0

> <PUBCHEM_TOTAL_CHARGE>
0

> <PUBCHEM_SUBSTANCE_ID>
310949983

> <PUBCHEM_SUBSTANCE_VERSION>
1

> <PUBCHEM_EXT_DATASOURCE_NAME>
4488

> <PUBCHEM_EXT_DATASOURCE_REGID>
SCHEMBL16128212

> <PUBCHEM_SUBSTANCE_COMMENT>
InChI=1S/C11H22N3O3PS/c1-7(18)8(5-6-19-2)13-11(16)9(14-17)3-4-10(12)15/h8-9,14,17H,1,3-6,18H2,2H3,(H2,12,15)(H,13,16)/t8-,9-/m0/s1
InChIKey=RJGRJLXUZGOESK-IUCAKERBSA-N

> <PUBCHEM_SUBSTANCE_SYNONYM>
SCHEMBL16128212

> <PUBCHEM_XREF_EXT_ID>
SCHEMBL16128212

> <PUBCHEM_EXT_DATASOURCE_URL>
https://www.surechembl.org/

> <PUBCHEM_EXT_SUBSTANCE_URL>
https://www.surechembl.org/chemical/SCHEMBL16128212

> <PUBCHEM_CID_ASSOCIATIONS>
117615223  1

> <PUBCHEM_COORDINATE_TYPE>
1
3

> <PUBCHEM_BONDANNOTATIONS>
11  6  6
10  7  6

$$$$
