310948993
  -OEChem-07211613022D

 11 11  0     0  0  0  0  0  0999 V2000
    1.4285    0.9597    0.0000 I   0  0  0  0  0  0  0  0  0  0  0  0
    1.4285   -0.6808    0.0000 F   0  0  0  0  0  0  0  0  0  0  0  0
    0.0000   -1.5066    0.0000 F   0  0  0  0  0  0  0  0  0  0  0  0
   -1.4285   -0.6808    0.0000 N   0  0  0  0  0  0  0  0  0  0  0  0
    0.7142   -0.2678    0.0000 C   0  0  0  0  0  0  0  0  0  0  0  0
    0.0000   -0.6808    0.0000 C   0  0  0  0  0  0  0  0  0  0  0  0
    0.7254    0.5469    0.0000 C   0  0  0  0  0  0  0  0  0  0  0  0
   -0.7254   -0.2790    0.0000 C   0  0  0  0  0  0  0  0  0  0  0  0
    0.0000    0.9597    0.0000 C   0  0  0  0  0  0  0  0  0  0  0  0
   -0.7142    0.5469    0.0000 C   0  0  0  0  0  0  0  0  0  0  0  0
   -0.0112    1.5066    0.0000 C   0  0  0  0  0  0  0  0  0  0  0  0
  1  7  1  0  0  0  0
  2  5  1  0  0  0  0
  3  6  1  0  0  0  0
  4  8  1  0  0  0  0
  5  6  2  0  0  0  0
  5  7  1  0  0  0  0
  6  8  1  0  0  0  0
  7  9  2  0  0  0  0
  8 10  2  0  0  0  0
  9 10  1  0  0  0  0
  9 11  1  0  0  0  0
M  END
> <PUBCHEM_COMPOUND_ID_TYPE>
0

> <PUBCHEM_TOTAL_CHARGE>
0

> <PUBCHEM_SUBSTANCE_ID>
310948993

> <PUBCHEM_SUBSTANCE_VERSION>
1

> <PUBCHEM_EXT_DATASOURCE_NAME>
4488

> <PUBCHEM_EXT_DATASOURCE_REGID>
SCHEMBL16127181

> <PUBCHEM_SUBSTANCE_COMMENT>
InChI=1S/C7H6F2IN/c1-3-2-4(11)5(8)6(9)7(3)10/h2H,11H2,1H3
InChIKey=CDJYHTGQKOSPHE-UHFFFAOYSA-N

> <PUBCHEM_SUBSTANCE_SYNONYM>
SCHEMBL16127181

> <PUBCHEM_XREF_EXT_ID>
SCHEMBL16127181

> <PUBCHEM_EXT_DATASOURCE_URL>
https://www.surechembl.org/

> <PUBCHEM_EXT_SUBSTANCE_URL>
https://www.surechembl.org/chemical/SCHEMBL16127181

> <PUBCHEM_CID_ASSOCIATIONS>
117614502  1

> <PUBCHEM_COORDINATE_TYPE>
1
3

$$$$
