310938983
  -OEChem-07211613022D

 23 26  0     0  0  0  0  0  0999 V2000
   -0.4579  -13.1587    0.0000 F   0  0  0  0  0  0  0  0  0  0  0  0
   -0.5303  -10.3478    0.0000 O   0  0  0  0  0  0  0  0  0  0  0  0
   -0.4579  -11.7298    0.0000 N   0  0  0  0  0  0  0  0  0  0  0  0
    2.0171  -14.5876    0.0000 N   0  0  0  0  0  0  0  0  0  0  0  0
   -1.7275  -11.3173    0.0000 C   0  0  0  0  0  0  0  0  0  0  0  0
   -0.9428  -11.0623    0.0000 C   0  0  0  0  0  0  0  0  0  0  0  0
   -1.7275  -12.1423    0.0000 C   0  0  0  0  0  0  0  0  0  0  0  0
   -0.9428  -12.3972    0.0000 C   0  0  0  0  0  0  0  0  0  0  0  0
    0.7796  -12.4442    0.0000 C   0  0  0  0  0  0  0  0  0  0  0  0
    0.3671  -11.7298    0.0000 C   0  0  0  0  0  0  0  0  0  0  0  0
    0.3671  -13.1587    0.0000 C   0  0  0  0  0  0  0  0  0  0  0  0
    1.6046  -13.8732    0.0000 C   0  0  0  0  0  0  0  0  0  0  0  0
   -2.4419  -10.9048    0.0000 C   0  0  0  0  0  0  0  0  0  0  0  0
   -2.4419  -12.5548    0.0000 C   0  0  0  0  0  0  0  0  0  0  0  0
    0.7796  -13.8732    0.0000 C   0  0  0  0  0  0  0  0  0  0  0  0
    1.6046  -12.4442    0.0000 C   0  0  0  0  0  0  0  0  0  0  0  0
    2.0171  -13.1587    0.0000 C   0  0  0  0  0  0  0  0  0  0  0  0
   -3.1564  -11.3173    0.0000 C   0  0  0  0  0  0  0  0  0  0  0  0
   -3.1564  -12.1423    0.0000 C   0  0  0  0  0  0  0  0  0  0  0  0
    2.8421  -14.5876    0.0000 C   0  0  0  0  0  0  0  0  0  0  0  0
    1.7621  -15.3723    0.0000 C   0  0  0  0  0  0  0  0  0  0  0  0
    2.4296  -15.8572    0.0000 C   0  0  0  0  0  0  0  0  0  0  0  0
    3.0970  -15.3723    0.0000 C   0  0  0  0  0  0  0  0  0  0  0  0
  1 11  1  0  0  0  0
  2  6  2  0  0  0  0
  3  6  1  0  0  0  0
  3  8  1  0  0  0  0
  3 10  1  0  0  0  0
  4 12  1  0  0  0  0
  4 20  1  0  0  0  0
  4 21  1  0  0  0  0
  5  6  1  0  0  0  0
  5  7  2  0  0  0  0
  5 13  1  0  0  0  0
  7  8  1  0  0  0  0
  7 14  1  0  0  0  0
  9 10  1  0  0  0  0
  9 11  1  0  0  0  0
  9 16  2  0  0  0  0
 11 15  2  0  0  0  0
 12 15  1  0  0  0  0
 12 17  2  0  0  0  0
 13 18  2  0  0  0  0
 14 19  2  0  0  0  0
 16 17  1  0  0  0  0
 18 19  1  0  0  0  0
 20 23  2  0  0  0  0
 21 22  2  0  0  0  0
 22 23  1  0  0  0  0
M  END
> <PUBCHEM_COMPOUND_ID_TYPE>
0

> <PUBCHEM_TOTAL_CHARGE>
0

> <PUBCHEM_SUBSTANCE_ID>
310938983

> <PUBCHEM_SUBSTANCE_VERSION>
1

> <PUBCHEM_EXT_DATASOURCE_NAME>
4488

> <PUBCHEM_EXT_DATASOURCE_REGID>
SCHEMBL16116902

> <PUBCHEM_SUBSTANCE_COMMENT>
InChI=1S/C19H15FN2O/c20-18-11-16(21-9-3-4-10-21)8-7-15(18)13-22-12-14-5-1-2-6-17(14)19(22)23/h1-11H,12-13H2
InChIKey=LAULGBWZWSXSIO-UHFFFAOYSA-N

> <PUBCHEM_SUBSTANCE_SYNONYM>
SCHEMBL16116902

> <PUBCHEM_XREF_EXT_ID>
SCHEMBL16116902

> <PUBCHEM_EXT_DATASOURCE_URL>
https://www.surechembl.org/

> <PUBCHEM_EXT_SUBSTANCE_URL>
https://www.surechembl.org/chemical/SCHEMBL16116902

> <PUBCHEM_CID_ASSOCIATIONS>
117606367  1

> <PUBCHEM_COORDINATE_TYPE>
1
3

$$$$
