310947954
  -OEChem-07211613022D

 15 14  0     1  0  0  0  0  0999 V2000
   -1.7834   -6.7257    0.0000 O   0  0  0  0  0  0  0  0  0  0  0  0
   -1.0690   -4.6632    0.0000 O   0  0  0  0  0  0  0  0  0  0  0  0
   -2.4979   -4.6632    0.0000 O   0  0  0  0  0  0  0  0  0  0  0  0
    1.0745   -6.7257    0.0000 O   0  0  0  0  0  0  0  0  0  0  0  0
   -0.3545   -5.9007    0.0000 N   0  0  0  0  0  0  0  0  0  0  0  0
   -1.7834   -5.9007    0.0000 C   0  0  3  0  0  0  0  0  0  0  0  0
   -2.4979   -5.4882    0.0000 C   0  0  3  0  0  0  0  0  0  0  0  0
   -1.0690   -5.4882    0.0000 C   0  0  0  0  0  0  0  0  0  0  0  0
   -3.2124   -5.9007    0.0000 C   0  0  0  0  0  0  0  0  0  0  0  0
    0.3600   -5.4882    0.0000 C   0  0  0  0  0  0  0  0  0  0  0  0
    1.0744   -5.9007    0.0000 C   0  0  3  0  0  0  0  0  0  0  0  0
   -3.6249   -5.1862    0.0000 C   0  0  0  0  0  0  0  0  0  0  0  0
   -2.7999   -6.6152    0.0000 C   0  0  0  0  0  0  0  0  0  0  0  0
    1.7889   -5.4882    0.0000 C   0  0  0  0  0  0  0  0  0  0  0  0
    2.5034   -5.9007    0.0000 C   0  0  0  0  0  0  0  0  0  0  0  0
  6  1  1  6  0  0  0
  2  8  2  0  0  0  0
  7  3  1  6  0  0  0
 11  4  1  1  0  0  0
  5  8  1  0  0  0  0
  5 10  1  0  0  0  0
  6  7  1  0  0  0  0
  6  8  1  0  0  0  0
  7  9  1  0  0  0  0
  9 12  1  0  0  0  0
  9 13  1  0  0  0  0
 10 11  1  0  0  0  0
 11 14  1  0  0  0  0
 14 15  1  0  0  0  0
M  END
> <PUBCHEM_COMPOUND_ID_TYPE>
0

> <PUBCHEM_TOTAL_CHARGE>
0

> <PUBCHEM_SUBSTANCE_ID>
310947954

> <PUBCHEM_SUBSTANCE_VERSION>
1

> <PUBCHEM_EXT_DATASOURCE_NAME>
4488

> <PUBCHEM_EXT_DATASOURCE_REGID>
SCHEMBL16126128

> <PUBCHEM_SUBSTANCE_COMMENT>
InChI=1S/C10H21NO4/c1-4-7(12)5-11-10(15)9(14)8(13)6(2)3/h6-9,12-14H,4-5H2,1-3H3,(H,11,15)/t7-,8+,9-/m1/s1
InChIKey=GUYZOEPJPZQEOE-HRDYMLBCSA-N

> <PUBCHEM_SUBSTANCE_SYNONYM>
SCHEMBL16126128

> <PUBCHEM_XREF_EXT_ID>
SCHEMBL16126128

> <PUBCHEM_EXT_DATASOURCE_URL>
https://www.surechembl.org/

> <PUBCHEM_EXT_SUBSTANCE_URL>
https://www.surechembl.org/chemical/SCHEMBL16126128

> <PUBCHEM_CID_ASSOCIATIONS>
117613608  1

> <PUBCHEM_COORDINATE_TYPE>
1
3

> <PUBCHEM_BONDANNOTATIONS>
6  1  6
7  3  6
11  4  5
9  12  3
9  13  3

$$$$
