310935588
  -OEChem-07211613022D

 20 21  0     0  0  0  0  0  0999 V2000
    4.1007   -0.7036    0.0000 Cl  0  0  0  0  0  0  0  0  0  0  0  0
    2.8389    0.0000    0.0000 Cl  0  0  0  0  0  0  0  0  0  0  0  0
    3.6882   -1.4074    0.0000 Cl  0  0  0  0  0  0  0  0  0  0  0  0
    0.0000   -0.0243    0.0000 Cl  0  0  0  0  0  0  0  0  0  0  0  0
    0.0000   -1.4558    0.0000 Cl  0  0  0  0  0  0  0  0  0  0  0  0
    0.8250   -0.0243    0.0000 Cl  0  0  0  0  0  0  0  0  0  0  0  0
    1.8684   -4.8529    0.0000 O   0  0  0  0  0  0  0  0  0  0  0  0
    1.8684   -0.7279    0.0000 N   0  0  0  0  0  0  0  0  0  0  0  0
    1.1647   -1.9654    0.0000 N   0  0  0  0  0  0  0  0  0  0  0  0
    2.5963   -1.9654    0.0000 N   0  0  0  0  0  0  0  0  0  0  0  0
    1.8684   -3.2029    0.0000 N   0  0  0  0  0  0  0  0  0  0  0  0
    2.5720   -1.1405    0.0000 C   0  0  0  0  0  0  0  0  0  0  0  0
    1.1405   -1.1405    0.0000 C   0  0  0  0  0  0  0  0  0  0  0  0
    1.8684   -2.3779    0.0000 C   0  0  0  0  0  0  0  0  0  0  0  0
    3.2757   -0.7036    0.0000 C   0  0  0  0  0  0  0  0  0  0  0  0
    0.4125   -0.7279    0.0000 C   0  0  0  0  0  0  0  0  0  0  0  0
    2.5963   -3.6154    0.0000 C   0  0  0  0  0  0  0  0  0  0  0  0
    1.1647   -3.6154    0.0000 C   0  0  0  0  0  0  0  0  0  0  0  0
    1.1647   -4.4404    0.0000 C   0  0  0  0  0  0  0  0  0  0  0  0
    2.5963   -4.4404    0.0000 C   0  0  0  0  0  0  0  0  0  0  0  0
  1 15  1  0  0  0  0
  2 15  1  0  0  0  0
  3 15  1  0  0  0  0
  4 16  1  0  0  0  0
  5 16  1  0  0  0  0
  6 16  1  0  0  0  0
  7 19  1  0  0  0  0
  7 20  1  0  0  0  0
  8 12  2  0  0  0  0
  8 13  1  0  0  0  0
  9 13  2  0  0  0  0
  9 14  1  0  0  0  0
 10 12  1  0  0  0  0
 10 14  2  0  0  0  0
 11 14  1  0  0  0  0
 11 17  1  0  0  0  0
 11 18  1  0  0  0  0
 12 15  1  0  0  0  0
 13 16  1  0  0  0  0
 17 20  1  0  0  0  0
 18 19  1  0  0  0  0
M  END
> <PUBCHEM_COMPOUND_ID_TYPE>
0

> <PUBCHEM_TOTAL_CHARGE>
0

> <PUBCHEM_SUBSTANCE_ID>
310935588

> <PUBCHEM_SUBSTANCE_VERSION>
1

> <PUBCHEM_EXT_DATASOURCE_NAME>
4488

> <PUBCHEM_EXT_DATASOURCE_REGID>
SCHEMBL16113161

> <PUBCHEM_SUBSTANCE_COMMENT>
InChI=1S/C9H8Cl6N4O/c10-8(11,12)5-16-6(9(13,14)15)18-7(17-5)19-1-3-20-4-2-19/h1-4H2
InChIKey=CZSXQLCAEJUWFY-UHFFFAOYSA-N

> <PUBCHEM_SUBSTANCE_SYNONYM>
SCHEMBL16113161

> <PUBCHEM_XREF_EXT_ID>
SCHEMBL16113161

> <PUBCHEM_EXT_DATASOURCE_URL>
https://www.surechembl.org/

> <PUBCHEM_EXT_SUBSTANCE_URL>
https://www.surechembl.org/chemical/SCHEMBL16113161

> <PUBCHEM_CID_ASSOCIATIONS>
32638  1

> <PUBCHEM_COORDINATE_TYPE>
1
3

$$$$
