310943806
  -OEChem-07211613022D

 32 36  0     1  0  0  0  0  0999 V2000
    2.5598    0.5911    0.0000 O   0  0  0  0  0  0  0  0  0  0  0  0
    5.6512    0.3308    0.0000 O   0  0  0  0  0  0  0  0  0  0  0  0
    5.5319    1.7735    0.0000 O   0  0  0  0  0  0  0  0  0  0  0  0
   -0.7919   -1.7735    0.0000 O   0  0  0  0  0  0  0  0  0  0  0  0
    3.5903   -0.5044    0.0000 N   0  0  0  0  0  0  0  0  0  0  0  0
    0.6074   -0.6345    0.0000 N   0  0  0  0  0  0  0  0  0  0  0  0
   -4.4038   -0.9382    0.0000 N   0  0  0  0  0  0  0  0  0  0  0  0
   -3.2324   -1.5457    0.0000 N   0  0  0  0  0  0  0  0  0  0  0  0
   -4.8268   -0.2766    0.0000 N   0  0  0  0  0  0  0  0  0  0  0  0
   -5.5969   -0.4610    0.0000 N   0  0  0  0  0  0  0  0  0  0  0  0
   -5.6512   -1.2528    0.0000 N   0  0  0  0  0  0  0  0  0  0  0  0
    2.2778   -0.8623    0.0000 C   0  0  0  0  0  0  0  0  0  0  0  0
    2.7985   -0.2224    0.0000 C   0  0  0  0  0  0  0  0  0  0  0  0
    4.3712    0.0271    0.0000 C   0  0  0  0  0  0  0  0  0  0  0  0
    2.7551   -1.5673    0.0000 C   0  0  0  0  0  0  0  0  0  0  0  0
    3.5577   -1.3396    0.0000 C   0  0  0  0  0  0  0  0  0  0  0  0
    1.7572   -1.5131    0.0000 C   0  0  0  0  0  0  0  0  0  0  0  0
    1.9633   -0.0922    0.0000 C   0  0  0  0  0  0  0  0  0  0  0  0
    4.4580    0.8406    0.0000 C   0  0  0  0  0  0  0  0  0  0  0  0
    5.1305   -0.2766    0.0000 C   0  0  0  0  0  0  0  0  0  0  0  0
    5.2173    1.0034    0.0000 C   0  0  0  0  0  0  0  0  0  0  0  0
    0.9219   -1.3938    0.0000 C   0  0  0  0  0  0  0  0  0  0  0  0
    1.1389    0.0380    0.0000 C   0  0  0  0  0  0  0  0  0  0  0  0
   -0.4664   -0.3525    0.0000 C   0  0  0  0  0  0  0  0  0  0  0  0
   -1.0630   -0.9057    0.0000 C   0  0  3  0  0  0  0  0  0  0  0  0
    3.8181    1.3613    0.0000 C   0  0  0  0  0  0  0  0  0  0  0  0
   -2.1151   -0.8948    0.0000 C   0  0  0  0  0  0  0  0  0  0  0  0
   -3.6445   -0.9057    0.0000 C   0  0  0  0  0  0  0  0  0  0  0  0
   -2.4730   -1.5348    0.0000 C   0  0  0  0  0  0  0  0  0  0  0  0
   -2.5382   -0.2658    0.0000 C   0  0  0  0  0  0  0  0  0  0  0  0
   -3.2865   -0.2549    0.0000 C   0  0  0  0  0  0  0  0  0  0  0  0
   -4.9136   -1.5348    0.0000 C   0  0  0  0  0  0  0  0  0  0  0  0
  1 13  2  0  0  0  0
  2 20  1  0  0  0  0
  2 21  1  0  0  0  0
  3 21  2  0  0  0  0
 25  4  1  1  0  0  0
  5 13  1  0  0  0  0
  5 14  1  0  0  0  0
  5 16  1  0  0  0  0
  6 22  1  0  0  0  0
  6 23  1  0  0  0  0
  6 24  1  0  0  0  0
  7  9  1  0  0  0  0
  7 28  1  0  0  0  0
  7 32  1  0  0  0  0
  8 28  1  0  0  0  0
  8 29  2  0  0  0  0
  9 10  2  0  0  0  0
 10 11  1  0  0  0  0
 11 32  2  0  0  0  0
 12 13  1  0  0  0  0
 12 15  1  0  0  0  0
 12 17  1  0  0  0  0
 12 18  1  0  0  0  0
 14 19  2  0  0  0  0
 14 20  1  0  0  0  0
 15 16  1  0  0  0  0
 17 22  1  0  0  0  0
 18 23  1  0  0  0  0
 19 21  1  0  0  0  0
 19 26  1  0  0  0  0
 24 25  1  0  0  0  0
 25 27  1  0  0  0  0
 27 29  1  0  0  0  0
 27 30  2  0  0  0  0
 28 31  2  0  0  0  0
 30 31  1  0  0  0  0
M  END
> <PUBCHEM_COMPOUND_ID_TYPE>
0

> <PUBCHEM_TOTAL_CHARGE>
0

> <PUBCHEM_SUBSTANCE_ID>
310943806

> <PUBCHEM_SUBSTANCE_VERSION>
1

> <PUBCHEM_EXT_DATASOURCE_NAME>
4488

> <PUBCHEM_EXT_DATASOURCE_REGID>
SCHEMBL16121877

> <PUBCHEM_SUBSTANCE_COMMENT>
InChI=1S/C21H25N7O4/c1-14-16(12-32-19(14)30)27-9-6-21(20(27)31)4-7-26(8-5-21)11-17(29)15-2-3-18(22-10-15)28-13-23-24-25-28/h2-3,10,13,17,29H,4-9,11-12H2,1H3/t17-/m1/s1
InChIKey=ALZWZLILADGSJO-QGZVFWFLSA-N

> <PUBCHEM_SUBSTANCE_SYNONYM>
SCHEMBL16121877

> <PUBCHEM_XREF_EXT_ID>
SCHEMBL16121877

> <PUBCHEM_EXT_DATASOURCE_URL>
https://www.surechembl.org/

> <PUBCHEM_EXT_SUBSTANCE_URL>
https://www.surechembl.org/chemical/SCHEMBL16121877

> <PUBCHEM_CID_ASSOCIATIONS>
117610159  1

> <PUBCHEM_COORDINATE_TYPE>
1
3

> <PUBCHEM_BONDANNOTATIONS>
25  4  5

$$$$
