310936304
  -OEChem-07211613022D

 39 42  0     0  0  0  0  0  0999 V2000
    8.8756   -0.8570    0.0000 S   0  0  0  0  0  0  0  0  0  0  0  0
   14.5721    2.0625    0.0000 F   0  0  0  0  0  0  0  0  0  0  0  0
    5.7158    3.3000    0.0000 F   0  0  0  0  0  0  0  0  0  0  0  0
    6.0177    2.1730    0.0000 F   0  0  0  0  0  0  0  0  0  0  0  0
    6.8427    3.6020    0.0000 F   0  0  0  0  0  0  0  0  0  0  0  0
   10.7872    2.7299    0.0000 O   0  0  0  0  0  0  0  0  0  0  0  0
   11.8491    0.4389    0.0000 O   0  0  0  0  0  0  0  0  0  0  0  0
    7.8592    0.4125    0.0000 O   0  0  0  0  0  0  0  0  0  0  0  0
    9.2881    2.8875    0.0000 N   0  0  0  0  0  0  0  0  0  0  0  0
   10.4901   -0.0027    0.0000 N   0  0  0  0  0  0  0  0  0  0  0  0
    7.1447    1.6500    0.0000 N   0  0  0  0  0  0  0  0  0  0  0  0
   10.0026    1.6500    0.0000 C   0  0  0  0  0  0  0  0  0  0  0  0
    9.2881    1.2375    0.0000 C   0  0  0  0  0  0  0  0  0  0  0  0
   10.7872    1.3951    0.0000 C   0  0  0  0  0  0  0  0  0  0  0  0
   10.0026    2.4750    0.0000 C   0  0  0  0  0  0  0  0  0  0  0  0
    8.5737    1.6500    0.0000 C   0  0  0  0  0  0  0  0  0  0  0  0
   11.2721    2.0625    0.0000 C   0  0  0  0  0  0  0  0  0  0  0  0
    8.5737    2.4750    0.0000 C   0  0  0  0  0  0  0  0  0  0  0  0
    9.2881    0.4125    0.0000 C   0  0  0  0  0  0  0  0  0  0  0  0
   11.0422    0.6104    0.0000 C   0  0  0  0  0  0  0  0  0  0  0  0
   12.0971    2.0625    0.0000 C   0  0  0  0  0  0  0  0  0  0  0  0
    7.8592    1.2375    0.0000 C   0  0  0  0  0  0  0  0  0  0  0  0
    7.8592    2.8875    0.0000 C   0  0  0  0  0  0  0  0  0  0  0  0
    8.6207   -0.0724    0.0000 C   0  0  0  0  0  0  0  0  0  0  0  0
    9.9556   -0.0724    0.0000 C   0  0  0  0  0  0  0  0  0  0  0  0
   12.5096    2.7770    0.0000 C   0  0  0  0  0  0  0  0  0  0  0  0
   12.5096    1.3480    0.0000 C   0  0  0  0  0  0  0  0  0  0  0  0
    9.7006   -0.8570    0.0000 C   0  0  0  0  0  0  0  0  0  0  0  0
    7.1447    2.4750    0.0000 C   0  0  0  0  0  0  0  0  0  0  0  0
   13.3346    2.7770    0.0000 C   0  0  0  0  0  0  0  0  0  0  0  0
   13.3346    1.3480    0.0000 C   0  0  0  0  0  0  0  0  0  0  0  0
   13.7471    2.0625    0.0000 C   0  0  0  0  0  0  0  0  0  0  0  0
    6.4302    2.8875    0.0000 C   0  0  0  0  0  0  0  0  0  0  0  0
    6.4302    1.2375    0.0000 C   0  0  0  0  0  0  0  0  0  0  0  0
   10.7451   -0.7873    0.0000 C   0  0  0  0  0  0  0  0  0  0  0  0
    5.7158    1.6500    0.0000 C   0  0  0  0  0  0  0  0  0  0  0  0
    5.0013    1.2375    0.0000 C   0  0  0  0  0  0  0  0  0  0  0  0
    4.2868    1.6500    0.0000 C   0  0  0  0  0  0  0  0  0  0  0  0
    3.5724    1.2375    0.0000 C   0  0  0  0  0  0  0  0  0  0  0  0
  1 24  1  0  0  0  0
  1 28  1  0  0  0  0
  2 32  1  0  0  0  0
  3 33  1  0  0  0  0
  4 33  1  0  0  0  0
  5 33  1  0  0  0  0
  6 15  1  0  0  0  0
  6 17  1  0  0  0  0
  7 20  2  0  0  0  0
  8 22  2  0  0  0  0
  9 15  2  0  0  0  0
  9 18  1  0  0  0  0
 10 20  1  0  0  0  0
 10 35  1  0  0  0  0
 11 22  1  0  0  0  0
 11 34  1  0  0  0  0
 12 13  2  0  0  0  0
 12 14  1  0  0  0  0
 12 15  1  0  0  0  0
 13 16  1  0  0  0  0
 13 19  1  0  0  0  0
 14 17  2  0  0  0  0
 14 20  1  0  0  0  0
 16 18  2  0  0  0  0
 16 22  1  0  0  0  0
 17 21  1  0  0  0  0
 18 23  1  0  0  0  0
 19 24  2  0  0  0  0
 19 25  1  0  0  0  0
 21 26  2  0  0  0  0
 21 27  1  0  0  0  0
 23 29  1  0  0  0  0
 25 28  2  0  0  0  0
 26 30  1  0  0  0  0
 27 31  2  0  0  0  0
 29 33  1  0  0  0  0
 30 32  2  0  0  0  0
 31 32  1  0  0  0  0
 34 36  1  0  0  0  0
 36 37  1  0  0  0  0
 37 38  1  0  0  0  0
 38 39  1  0  0  0  0
M  END
> <PUBCHEM_COMPOUND_ID_TYPE>
0

> <PUBCHEM_TOTAL_CHARGE>
0

> <PUBCHEM_SUBSTANCE_ID>
310936304

> <PUBCHEM_SUBSTANCE_VERSION>
1

> <PUBCHEM_EXT_DATASOURCE_NAME>
4488

> <PUBCHEM_EXT_DATASOURCE_REGID>
SCHEMBL16113930

> <PUBCHEM_SUBSTANCE_COMMENT>
InChI=1S/C28H27F4N3O3S/c1-3-4-5-13-34-26(37)21-19(10-12-28(30,31)32)35-27-22(20(21)17-11-14-39-15-17)23(25(36)33-2)24(38-27)16-6-8-18(29)9-7-16/h6-9,11,14-15H,3-5,10,12-13H2,1-2H3,(H,33,36)(H,34,37)
InChIKey=YUJNRHVSWNRXBY-UHFFFAOYSA-N

> <PUBCHEM_SUBSTANCE_SYNONYM>
SCHEMBL16113930

> <PUBCHEM_XREF_EXT_ID>
SCHEMBL16113930

> <PUBCHEM_EXT_DATASOURCE_URL>
https://www.surechembl.org/

> <PUBCHEM_EXT_SUBSTANCE_URL>
https://www.surechembl.org/chemical/SCHEMBL16113930

> <PUBCHEM_CID_ASSOCIATIONS>
117604247  1

> <PUBCHEM_COORDINATE_TYPE>
1
3

$$$$
