310943150
  -OEChem-07211613022D

 32 35  0     0  0  0  0  0  0999 V2000
   -3.1969   -0.2316    0.0000 O   0  0  0  0  0  0  0  0  0  0  0  0
    3.8692   -0.5154    0.0000 O   0  0  0  0  0  0  0  0  0  0  0  0
    1.1204   -0.2316    0.0000 O   0  0  0  0  0  0  0  0  0  0  0  0
   -4.6311    2.2334    0.0000 O   0  0  0  0  0  0  0  0  0  0  0  0
   -1.7628   -0.2316    0.0000 N   0  0  0  0  0  0  0  0  0  0  0  0
   -3.1969    1.4117    0.0000 N   0  0  0  0  0  0  0  0  0  0  0  0
    0.3884    2.6517    0.0000 N   0  0  0  0  0  0  0  0  0  0  0  0
    1.8226    1.0084    0.0000 N   0  0  0  0  0  0  0  0  0  0  0  0
    3.3016    0.1121    0.0000 N   0  0  0  0  0  0  0  0  0  0  0  0
   -1.0308    1.0084    0.0000 C   0  0  0  0  0  0  0  0  0  0  0  0
   -0.3287    1.4267    0.0000 C   0  0  0  0  0  0  0  0  0  0  0  0
   -2.4799    1.0084    0.0000 C   0  0  0  0  0  0  0  0  0  0  0  0
   -2.4799    0.2017    0.0000 C   0  0  0  0  0  0  0  0  0  0  0  0
   -1.7777    1.4117    0.0000 C   0  0  0  0  0  0  0  0  0  0  0  0
   -1.0457    0.1867    0.0000 C   0  0  0  0  0  0  0  0  0  0  0  0
   -0.3137    2.2483    0.0000 C   0  0  0  0  0  0  0  0  0  0  0  0
    0.3884    1.0084    0.0000 C   0  0  0  0  0  0  0  0  0  0  0  0
    1.1055    1.4267    0.0000 C   0  0  0  0  0  0  0  0  0  0  0  0
    2.5695   -0.2166    0.0000 C   0  0  0  0  0  0  0  0  0  0  0  0
    1.8375    0.2017    0.0000 C   0  0  0  0  0  0  0  0  0  0  0  0
    1.1204    2.2334    0.0000 C   0  0  0  0  0  0  0  0  0  0  0  0
    3.4360   -1.2175    0.0000 C   0  0  0  0  0  0  0  0  0  0  0  0
   -3.1969    2.2334    0.0000 C   0  0  0  0  0  0  0  0  0  0  0  0
   -3.9140    1.0084    0.0000 C   0  0  0  0  0  0  0  0  0  0  0  0
    2.6442   -1.0382    0.0000 C   0  0  0  0  0  0  0  0  0  0  0  0
   -1.7628   -1.0682    0.0000 C   0  0  0  0  0  0  0  0  0  0  0  0
   -1.0607    2.6367    0.0000 C   0  0  0  0  0  0  0  0  0  0  0  0
    3.7795   -1.9495    0.0000 C   0  0  0  0  0  0  0  0  0  0  0  0
   -3.9290    2.6517    0.0000 C   0  0  0  0  0  0  0  0  0  0  0  0
   -4.6311    1.4117    0.0000 C   0  0  0  0  0  0  0  0  0  0  0  0
    4.6311   -2.0541    0.0000 C   0  0  0  0  0  0  0  0  0  0  0  0
    3.3164   -2.6517    0.0000 C   0  0  0  0  0  0  0  0  0  0  0  0
  1 13  2  0  0  0  0
  2  9  1  0  0  0  0
  2 22  1  0  0  0  0
  3 20  2  0  0  0  0
  4 29  1  0  0  0  0
  4 30  1  0  0  0  0
  5 13  1  0  0  0  0
  5 15  1  0  0  0  0
  5 26  1  0  0  0  0
  6 12  1  0  0  0  0
  6 23  1  0  0  0  0
  6 24  1  0  0  0  0
  7 16  1  0  0  0  0
  7 21  2  0  0  0  0
  8 18  1  0  0  0  0
  8 20  1  0  0  0  0
  9 19  2  0  0  0  0
 10 11  1  0  0  0  0
 10 14  1  0  0  0  0
 10 15  2  0  0  0  0
 11 16  2  0  0  0  0
 11 17  1  0  0  0  0
 12 13  1  0  0  0  0
 12 14  2  0  0  0  0
 16 27  1  0  0  0  0
 17 18  2  0  0  0  0
 18 21  1  0  0  0  0
 19 20  1  0  0  0  0
 19 25  1  0  0  0  0
 22 25  2  0  0  0  0
 22 28  1  0  0  0  0
 23 29  1  0  0  0  0
 24 30  1  0  0  0  0
 28 31  1  0  0  0  0
 28 32  1  0  0  0  0
M  END
> <PUBCHEM_COMPOUND_ID_TYPE>
0

> <PUBCHEM_TOTAL_CHARGE>
0

> <PUBCHEM_SUBSTANCE_ID>
310943150

> <PUBCHEM_SUBSTANCE_VERSION>
1

> <PUBCHEM_EXT_DATASOURCE_NAME>
4488

> <PUBCHEM_EXT_DATASOURCE_REGID>
SCHEMBL16121210

> <PUBCHEM_SUBSTANCE_COMMENT>
InChI=1S/C23H27N5O4/c1-14(2)21-11-19(26-32-21)22(29)25-17-10-18(15(3)24-12-17)16-9-20(23(30)27(4)13-16)28-5-7-31-8-6-28/h9-14H,5-8H2,1-4H3,(H,25,29)
InChIKey=VVQJVQYFDYAYFO-UHFFFAOYSA-N

> <PUBCHEM_SUBSTANCE_SYNONYM>
SCHEMBL16121210

> <PUBCHEM_XREF_EXT_ID>
SCHEMBL16121210

> <PUBCHEM_EXT_DATASOURCE_URL>
https://www.surechembl.org/

> <PUBCHEM_EXT_SUBSTANCE_URL>
https://www.surechembl.org/chemical/SCHEMBL16121210

> <PUBCHEM_CID_ASSOCIATIONS>
117609580  1

> <PUBCHEM_COORDINATE_TYPE>
1
3

$$$$
