310942463
  -OEChem-07211613022D

 27 29  0     0  0  0  0  0  0999 V2000
    4.3306    1.0140    0.0000 O   0  0  0  0  0  0  0  0  0  0  0  0
    5.0657   -0.1993    0.0000 O   0  0  0  0  0  0  0  0  0  0  0  0
   -2.8959    0.2081    0.0000 N   0  0  0  0  0  0  0  0  0  0  0  0
    1.4347   -1.4391    0.0000 N   0  0  0  0  0  0  0  0  0  0  0  0
   -0.0088   -1.4391    0.0000 N   0  0  0  0  0  0  0  0  0  0  0  0
    0.7173   -0.2081    0.0000 N   0  0  0  0  0  0  0  0  0  0  0  0
    2.8782   -1.4391    0.0000 N   0  0  0  0  0  0  0  0  0  0  0  0
   -4.3394    1.0317    0.0000 N   0  0  0  0  0  0  0  0  0  0  0  0
    0.7173   -1.0317    0.0000 C   0  0  0  0  0  0  0  0  0  0  0  0
   -2.1609   -0.2081    0.0000 C   0  0  0  0  0  0  0  0  0  0  0  0
    2.1609   -1.0317    0.0000 C   0  0  0  0  0  0  0  0  0  0  0  0
    2.1698   -0.1993    0.0000 C   0  0  0  0  0  0  0  0  0  0  0  0
   -0.7262   -1.0229    0.0000 C   0  0  0  0  0  0  0  0  0  0  0  0
   -2.1609   -1.0229    0.0000 C   0  0  0  0  0  0  0  0  0  0  0  0
   -1.4435    0.1993    0.0000 C   0  0  0  0  0  0  0  0  0  0  0  0
    1.4347    0.1993    0.0000 C   0  0  0  0  0  0  0  0  0  0  0  0
   -1.4347   -1.4302    0.0000 C   0  0  0  0  0  0  0  0  0  0  0  0
   -0.7262   -0.2081    0.0000 C   0  0  0  0  0  0  0  0  0  0  0  0
   -3.5956   -0.1993    0.0000 C   0  0  0  0  0  0  0  0  0  0  0  0
   -2.8871    1.0229    0.0000 C   0  0  0  0  0  0  0  0  0  0  0  0
    2.8782    0.1993    0.0000 C   0  0  0  0  0  0  0  0  0  0  0  0
   -4.3217    0.1993    0.0000 C   0  0  0  0  0  0  0  0  0  0  0  0
   -3.6133    1.4391    0.0000 C   0  0  0  0  0  0  0  0  0  0  0  0
    3.6221   -0.1993    0.0000 C   0  0  0  0  0  0  0  0  0  0  0  0
    4.3306    0.2081    0.0000 C   0  0  0  0  0  0  0  0  0  0  0  0
    3.6221   -1.0229    0.0000 C   0  0  0  0  0  0  0  0  0  0  0  0
   -5.0657    1.4302    0.0000 C   0  0  0  0  0  0  0  0  0  0  0  0
  1 25  2  0  0  0  0
  2 25  1  0  0  0  0
  3 10  1  0  0  0  0
  3 19  1  0  0  0  0
  3 20  1  0  0  0  0
  4  9  1  0  0  0  0
  4 11  2  0  0  0  0
  5  9  1  0  0  0  0
  5 13  1  0  0  0  0
  6  9  2  0  0  0  0
  6 16  1  0  0  0  0
  7 11  1  0  0  0  0
  7 26  1  0  0  0  0
  8 22  1  0  0  0  0
  8 23  1  0  0  0  0
  8 27  1  0  0  0  0
 10 14  2  0  0  0  0
 10 15  1  0  0  0  0
 11 12  1  0  0  0  0
 12 16  2  0  0  0  0
 12 21  1  0  0  0  0
 13 17  2  0  0  0  0
 13 18  1  0  0  0  0
 14 17  1  0  0  0  0
 15 18  2  0  0  0  0
 19 22  1  0  0  0  0
 20 23  1  0  0  0  0
 21 24  2  0  0  0  0
 24 25  1  0  0  0  0
M  END
> <PUBCHEM_COMPOUND_ID_TYPE>
0

> <PUBCHEM_TOTAL_CHARGE>
0

> <PUBCHEM_SUBSTANCE_ID>
310942463

> <PUBCHEM_SUBSTANCE_VERSION>
1

> <PUBCHEM_EXT_DATASOURCE_NAME>
4488

> <PUBCHEM_EXT_DATASOURCE_REGID>
SCHEMBL16120499

> <PUBCHEM_SUBSTANCE_COMMENT>
InChI=1S/C19H24N6O2/c1-20-18-14(3-8-17(26)27)13-21-19(23-18)22-15-4-6-16(7-5-15)25-11-9-24(2)10-12-25/h3-8,13H,9-12H2,1-2H3,(H,26,27)(H2,20,21,22,23)/b8-3+
InChIKey=NETQXSMQBBEQGX-FPYGCLRLSA-N

> <PUBCHEM_SUBSTANCE_SYNONYM>
SCHEMBL16120499

> <PUBCHEM_XREF_EXT_ID>
SCHEMBL16120499

> <PUBCHEM_EXT_DATASOURCE_URL>
https://www.surechembl.org/

> <PUBCHEM_EXT_SUBSTANCE_URL>
https://www.surechembl.org/chemical/SCHEMBL16120499

> <PUBCHEM_CID_ASSOCIATIONS>
90466053  1

> <PUBCHEM_COORDINATE_TYPE>
1
3

$$$$
