310945998
  -OEChem-07211613022D

 40 43  0     1  0  0  0  0  0999 V2000
    5.1962    0.9769    0.0000 O   0  0  0  0  0  0  0  0  0  0  0  0
    4.0600   -0.9769    0.0000 O   0  0  0  0  0  0  0  0  0  0  0  0
    1.6905    0.9631    0.0000 O   0  0  0  0  0  0  0  0  0  0  0  0
   -3.4365   -1.1016    0.0000 O   0  0  0  0  0  0  0  0  0  0  0  0
   -0.4711   -1.1016    0.0000 O   0  0  0  0  0  0  0  0  0  0  0  0
   -2.6327    0.9631    0.0000 O   0  0  0  0  0  0  0  0  0  0  0  0
    3.8383   -2.7643    0.0000 O   0  0  0  0  0  0  0  0  0  0  0  0
    2.4111   -0.2702    0.0000 N   0  0  0  0  0  0  0  0  0  0  0  0
    0.2494    0.1455    0.0000 N   0  0  0  0  0  0  0  0  0  0  0  0
   -1.9122   -0.2702    0.0000 N   0  0  0  0  0  0  0  0  0  0  0  0
   -4.2401   -1.2679    0.0000 N   0  0  0  0  0  0  0  0  0  0  0  0
    4.7666    0.3118    0.0000 C   0  0  3  0  0  0  0  0  0  0  0  0
    4.0600   -0.1178    0.0000 C   0  0  0  0  0  0  0  0  0  0  0  0
    4.3925    0.9908    0.0000 C   0  0  0  0  0  0  0  0  0  0  0  0
    3.3395    0.2841    0.0000 C   0  0  3  0  0  0  0  0  0  0  0  0
    5.4872   -0.1178    0.0000 C   0  0  0  0  0  0  0  0  0  0  0  0
    3.3395    1.3649    0.0000 C   0  0  0  0  0  0  0  0  0  0  0  0
    1.6767    0.1455    0.0000 C   0  0  0  0  0  0  0  0  0  0  0  0
    0.9838   -0.2425    0.0000 C   0  0  3  0  0  0  0  0  0  0  0  0
    2.6050    1.7944    0.0000 C   0  0  0  0  0  0  0  0  0  0  0  0
    0.9561   -1.0877    0.0000 C   0  0  0  0  0  0  0  0  0  0  0  0
   -0.4573   -0.2286    0.0000 C   0  0  0  0  0  0  0  0  0  0  0  0
    1.7044   -1.4896    0.0000 C   0  0  0  0  0  0  0  0  0  0  0  0
   -1.1917    0.1732    0.0000 C   0  0  3  0  0  0  0  0  0  0  0  0
   -3.3395   -0.2425    0.0000 C   0  0  0  0  0  0  0  0  0  0  0  0
    1.8845    1.4480    0.0000 C   0  0  0  0  0  0  0  0  0  0  0  0
    2.5219    2.5981    0.0000 C   0  0  0  0  0  0  0  0  0  0  0  0
   -2.6327    0.1455    0.0000 C   0  0  0  0  0  0  0  0  0  0  0  0
   -4.1015    0.0762    0.0000 C   0  0  0  0  0  0  0  0  0  0  0  0
   -4.6558   -0.5335    0.0000 C   0  0  0  0  0  0  0  0  0  0  0  0
    1.3302    2.0439    0.0000 C   0  0  0  0  0  0  0  0  0  0  0  0
    1.7321    2.7643    0.0000 C   0  0  0  0  0  0  0  0  0  0  0  0
    1.7044   -2.3210    0.0000 C   0  0  0  0  0  0  0  0  0  0  0  0
    2.3972   -1.0877    0.0000 C   0  0  0  0  0  0  0  0  0  0  0  0
    3.1316   -2.3071    0.0000 C   0  0  0  0  0  0  0  0  0  0  0  0
    2.4111   -2.7228    0.0000 C   0  0  0  0  0  0  0  0  0  0  0  0
    3.1316   -1.5035    0.0000 C   0  0  0  0  0  0  0  0  0  0  0  0
   -1.1778    0.9908    0.0000 C   0  0  0  0  0  0  0  0  0  0  0  0
   -5.4872   -0.4642    0.0000 C   0  0  0  0  0  0  0  0  0  0  0  0
    4.5865   -2.3348    0.0000 C   0  0  0  0  0  0  0  0  0  0  0  0
  1 12  1  0  0  0  0
  1 14  1  0  0  0  0
  2 13  2  0  0  0  0
  3 18  2  0  0  0  0
  4 11  1  0  0  0  0
  4 25  1  0  0  0  0
  5 22  2  0  0  0  0
  6 28  2  0  0  0  0
  7 35  1  0  0  0  0
  7 40  1  0  0  0  0
 15  8  1  1  0  0  0
  8 18  1  0  0  0  0
 19  9  1  6  0  0  0
  9 22  1  0  0  0  0
 10 24  1  0  0  0  0
 10 28  1  0  0  0  0
 11 30  2  0  0  0  0
 12 13  1  1  0  0  0
 12 14  1  0  0  0  0
 12 16  1  6  0  0  0
 13 15  1  0  0  0  0
 15 17  1  0  0  0  0
 17 20  1  0  0  0  0
 18 19  1  0  0  0  0
 19 21  1  0  0  0  0
 20 26  1  0  0  0  0
 20 27  1  0  0  0  0
 21 23  1  0  0  0  0
 22 24  1  0  0  0  0
 23 33  2  0  0  0  0
 23 34  1  0  0  0  0
 24 38  1  1  0  0  0
 25 28  1  0  0  0  0
 25 29  2  0  0  0  0
 26 31  1  0  0  0  0
 27 32  1  0  0  0  0
 29 30  1  0  0  0  0
 30 39  1  0  0  0  0
 31 32  1  0  0  0  0
 33 36  1  0  0  0  0
 34 37  2  0  0  0  0
 35 36  2  0  0  0  0
 35 37  1  0  0  0  0
M  END
> <PUBCHEM_COMPOUND_ID_TYPE>
0

> <PUBCHEM_TOTAL_CHARGE>
0

> <PUBCHEM_SUBSTANCE_ID>
310945998

> <PUBCHEM_SUBSTANCE_VERSION>
1

> <PUBCHEM_EXT_DATASOURCE_NAME>
4488

> <PUBCHEM_EXT_DATASOURCE_REGID>
SCHEMBL16124104

> <PUBCHEM_SUBSTANCE_COMMENT>
InChI=1S/C29H38N4O7/c1-17-13-24(40-33-17)28(37)30-18(2)26(35)32-23(15-20-9-11-21(38-4)12-10-20)27(36)31-22(14-19-7-5-6-8-19)25(34)29(3)16-39-29/h9-13,18-19,22-23H,5-8,14-16H2,1-4H3,(H,30,37)(H,31,36)(H,32,35)/t18-,22-,23-,29+/m0/s1
InChIKey=DPAGPIAHKZXUDM-YCAFDEAISA-N

> <PUBCHEM_SUBSTANCE_SYNONYM>
SCHEMBL16124104

> <PUBCHEM_XREF_EXT_ID>
SCHEMBL16124104

> <PUBCHEM_EXT_DATASOURCE_URL>
https://www.surechembl.org/

> <PUBCHEM_EXT_SUBSTANCE_URL>
https://www.surechembl.org/chemical/SCHEMBL16124104

> <PUBCHEM_CID_ASSOCIATIONS>
117611969  1

> <PUBCHEM_COORDINATE_TYPE>
1
3

> <PUBCHEM_BONDANNOTATIONS>
12  13  5
12  16  6
24  38  5
15  8  5
19  9  6

$$$$
