310947127
  -OEChem-07211613022D

 44 45  0     1  0  0  0  0  0999 V2000
   -4.0205   -1.0113    0.0000 P   0  0  3  0  0  0  0  0  0  0  0  0
   -5.4494   -1.0113    0.0000 O   0  0  0  0  0  0  0  0  0  0  0  0
   -3.1955   -1.0113    0.0000 O   0  0  0  0  0  0  0  0  0  0  0  0
   -3.6080   -1.7257    0.0000 O   0  0  0  0  0  0  0  0  0  0  0  0
   -4.0205   -0.1863    0.0000 O   0  0  0  0  0  0  0  0  0  0  0  0
   -0.3376   -0.1863    0.0000 O   0  0  0  0  0  0  0  0  0  0  0  0
   -6.8784   -0.1863    0.0000 N   0  0  0  0  0  0  0  0  0  0  0  0
   -6.5329    1.1031    0.0000 N   0  0  0  0  0  0  0  0  0  0  0  0
   -8.3672    0.0495    0.0000 N   0  0  0  0  0  0  0  0  0  0  0  0
   -8.7370    1.4298    0.0000 N   0  0  0  0  0  0  0  0  0  0  0  0
   -7.7266    2.4402    0.0000 N   0  0  0  0  0  0  0  0  0  0  0  0
   -1.0521   -1.4238    0.0000 N   0  0  0  0  0  0  0  0  0  0  0  0
   -7.5703    0.2631    0.0000 C   0  0  0  0  0  0  0  0  0  0  0  0
   -7.3567    1.0600    0.0000 C   0  0  0  0  0  0  0  0  0  0  0  0
   -7.9401    1.6433    0.0000 C   0  0  0  0  0  0  0  0  0  0  0  0
   -6.2372    0.3329    0.0000 C   0  0  0  0  0  0  0  0  0  0  0  0
   -6.8784   -1.0113    0.0000 C   0  0  0  0  0  0  0  0  0  0  0  0
   -8.9505    0.6329    0.0000 C   0  0  0  0  0  0  0  0  0  0  0  0
   -6.1639   -1.4238    0.0000 C   0  0  3  0  0  0  0  0  0  0  0  0
   -4.7350   -1.4238    0.0000 C   0  0  0  0  0  0  0  0  0  0  0  0
   -5.9504   -2.2207    0.0000 C   0  0  0  0  0  0  0  0  0  0  0  0
   -2.4810   -1.4238    0.0000 C   0  0  0  0  0  0  0  0  0  0  0  0
   -4.0205   -2.4402    0.0000 C   0  0  0  0  0  0  0  0  0  0  0  0
   -1.7665   -1.0113    0.0000 C   0  0  0  0  0  0  0  0  0  0  0  0
   -0.3376   -1.0113    0.0000 C   0  0  0  0  0  0  0  0  0  0  0  0
    0.3769   -1.4238    0.0000 C   0  0  0  0  0  0  0  0  0  0  0  0
    1.0913   -1.0113    0.0000 C   0  0  0  0  0  0  0  0  0  0  0  0
    1.0913   -0.1863    0.0000 C   0  0  0  0  0  0  0  0  0  0  0  0
    1.8058    0.2262    0.0000 C   0  0  0  0  0  0  0  0  0  0  0  0
    2.5203   -0.1863    0.0000 C   0  0  0  0  0  0  0  0  0  0  0  0
    2.5203   -1.0113    0.0000 C   0  0  0  0  0  0  0  0  0  0  0  0
    3.2348   -1.4238    0.0000 C   0  0  0  0  0  0  0  0  0  0  0  0
    3.9492   -1.0113    0.0000 C   0  0  0  0  0  0  0  0  0  0  0  0
    3.9492   -0.1863    0.0000 C   0  0  0  0  0  0  0  0  0  0  0  0
    4.6637    0.2262    0.0000 C   0  0  0  0  0  0  0  0  0  0  0  0
    5.3782   -0.1863    0.0000 C   0  0  0  0  0  0  0  0  0  0  0  0
    5.3782   -1.0113    0.0000 C   0  0  0  0  0  0  0  0  0  0  0  0
    6.0926   -1.4238    0.0000 C   0  0  0  0  0  0  0  0  0  0  0  0
    6.8071   -1.0113    0.0000 C   0  0  0  0  0  0  0  0  0  0  0  0
    6.8071   -0.1863    0.0000 C   0  0  0  0  0  0  0  0  0  0  0  0
    7.5216    0.2262    0.0000 C   0  0  0  0  0  0  0  0  0  0  0  0
    8.2361   -0.1863    0.0000 C   0  0  0  0  0  0  0  0  0  0  0  0
    8.2361   -1.0113    0.0000 C   0  0  0  0  0  0  0  0  0  0  0  0
    8.9505   -1.4238    0.0000 C   0  0  0  0  0  0  0  0  0  0  0  0
  1  3  1  0  0  0  0
  1  4  1  0  0  0  0
  1  5  2  0  0  0  0
  1 20  1  0  0  0  0
  2 19  1  0  0  0  0
  2 20  1  0  0  0  0
  3 22  1  0  0  0  0
  4 23  1  0  0  0  0
  6 25  2  0  0  0  0
  7 13  1  0  0  0  0
  7 16  1  0  0  0  0
  7 17  1  0  0  0  0
  8 14  1  0  0  0  0
  8 16  2  0  0  0  0
  9 13  1  0  0  0  0
  9 18  2  0  0  0  0
 10 15  2  0  0  0  0
 10 18  1  0  0  0  0
 11 15  1  0  0  0  0
 12 24  1  0  0  0  0
 12 25  1  0  0  0  0
 13 14  2  0  0  0  0
 14 15  1  0  0  0  0
 17 19  1  0  0  0  0
 19 21  1  6  0  0  0
 22 24  1  0  0  0  0
 25 26  1  0  0  0  0
 26 27  2  0  0  0  0
 27 28  1  0  0  0  0
 28 29  1  0  0  0  0
 29 30  2  0  0  0  0
 30 31  1  0  0  0  0
 31 32  1  0  0  0  0
 32 33  2  0  0  0  0
 33 34  1  0  0  0  0
 34 35  1  0  0  0  0
 35 36  2  0  0  0  0
 36 37  1  0  0  0  0
 37 38  1  0  0  0  0
 38 39  2  0  0  0  0
 39 40  1  0  0  0  0
 40 41  1  0  0  0  0
 41 42  2  0  0  0  0
 42 43  1  0  0  0  0
 43 44  1  0  0  0  0
M  END
> <PUBCHEM_COMPOUND_ID_TYPE>
0

> <PUBCHEM_TOTAL_CHARGE>
0

> <PUBCHEM_SUBSTANCE_ID>
310947127

> <PUBCHEM_SUBSTANCE_VERSION>
1

> <PUBCHEM_EXT_DATASOURCE_NAME>
4488

> <PUBCHEM_EXT_DATASOURCE_REGID>
SCHEMBL16125281

> <PUBCHEM_SUBSTANCE_COMMENT>
InChI=1S/C32H47N6O5P/c1-4-5-6-7-8-9-10-11-12-13-14-15-16-17-18-19-20-21-29(39)34-22-23-43-44(40,41-3)27-42-28(2)24-38-26-37-30-31(33)35-25-36-32(30)38/h5-6,8-9,11-12,14-15,17-18,20-21,25-26,28H,4,7,10,13,16,19,22-24,27H2,1-3H3,(H,34,39)(H2,33,35,36)/b6-5-,9-8-,12-11-,15-14-,18-17-,21-20-/t28-,44?/m1/s1
InChIKey=JKMPFBLEGRPCAN-VAAOCUEASA-N

> <PUBCHEM_SUBSTANCE_SYNONYM>
SCHEMBL16125281

> <PUBCHEM_XREF_EXT_ID>
SCHEMBL16125281

> <PUBCHEM_EXT_DATASOURCE_URL>
https://www.surechembl.org/

> <PUBCHEM_EXT_SUBSTANCE_URL>
https://www.surechembl.org/chemical/SCHEMBL16125281

> <PUBCHEM_CID_ASSOCIATIONS>
117612975  1

> <PUBCHEM_COORDINATE_TYPE>
1
3

> <PUBCHEM_BONDANNOTATIONS>
19  21  6

$$$$
