310940007
  -OEChem-07211613022D

 31 33  0     0  0  0  0  0  0999 V2000
   -4.6542    0.8161    0.0000 Cl  0  0  0  0  0  0  0  0  0  0  0  0
   -3.9397    3.7036    0.0000 Cl  0  0  0  0  0  0  0  0  0  0  0  0
   -1.7962    0.8161    0.0000 O   0  0  0  0  0  0  0  0  0  0  0  0
   -1.7962    3.2912    0.0000 O   0  0  0  0  0  0  0  0  0  0  0  0
    1.8485    1.2652    0.0000 O   0  0  0  0  0  0  0  0  0  0  0  0
    1.8485    2.8421    0.0000 O   0  0  0  0  0  0  0  0  0  0  0  0
   -1.0817    2.0536    0.0000 N   0  0  0  0  0  0  0  0  0  0  0  0
    0.5683    2.0536    0.0000 N   0  0  0  0  0  0  0  0  0  0  0  0
   -2.5107    2.0536    0.0000 C   0  0  0  0  0  0  0  0  0  0  0  0
   -3.9397    2.0536    0.0000 C   0  0  0  0  0  0  0  0  0  0  0  0
   -2.5107    1.2286    0.0000 C   0  0  0  0  0  0  0  0  0  0  0  0
   -1.7962    2.4661    0.0000 C   0  0  0  0  0  0  0  0  0  0  0  0
   -3.2252    2.4661    0.0000 C   0  0  0  0  0  0  0  0  0  0  0  0
   -3.9397    1.2286    0.0000 C   0  0  0  0  0  0  0  0  0  0  0  0
   -4.6542    2.4661    0.0000 C   0  0  0  0  0  0  0  0  0  0  0  0
   -3.2252    0.8161    0.0000 C   0  0  0  0  0  0  0  0  0  0  0  0
   -4.6542    3.2912    0.0000 C   0  0  0  0  0  0  0  0  0  0  0  0
   -0.6692    1.3392    0.0000 C   0  0  0  0  0  0  0  0  0  0  0  0
   -0.6692    2.7681    0.0000 C   0  0  0  0  0  0  0  0  0  0  0  0
   -5.3686    2.0536    0.0000 C   0  0  0  0  0  0  0  0  0  0  0  0
    0.1558    1.3392    0.0000 C   0  0  0  0  0  0  0  0  0  0  0  0
    0.1558    2.7681    0.0000 C   0  0  0  0  0  0  0  0  0  0  0  0
    1.3933    2.0536    0.0000 C   0  0  0  0  0  0  0  0  0  0  0  0
   -5.3686    3.7036    0.0000 C   0  0  0  0  0  0  0  0  0  0  0  0
   -6.0830    2.4661    0.0000 C   0  0  0  0  0  0  0  0  0  0  0  0
   -6.0830    3.2912    0.0000 C   0  0  0  0  0  0  0  0  0  0  0  0
    2.7589    1.2652    0.0000 C   0  0  0  0  0  0  0  0  0  0  0  0
   -1.0817    1.2286    0.0000 C   0  0  0  0  0  0  0  0  0  0  0  0
    3.6692    1.2652    0.0000 C   0  0  0  0  0  0  0  0  0  0  0  0
    3.2140    2.0536    0.0000 C   0  0  0  0  0  0  0  0  0  0  0  0
    3.2140    0.4769    0.0000 C   0  0  0  0  0  0  0  0  0  0  0  0
  1 14  1  0  0  0  0
  2 17  1  0  0  0  0
  3 11  1  0  0  0  0
  3 28  1  0  0  0  0
  4 12  2  0  0  0  0
  5 23  1  0  0  0  0
  5 27  1  0  0  0  0
  6 23  2  0  0  0  0
  7 12  1  0  0  0  0
  7 18  1  0  0  0  0
  7 19  1  0  0  0  0
  8 21  1  0  0  0  0
  8 22  1  0  0  0  0
  8 23  1  0  0  0  0
  9 11  1  0  0  0  0
  9 12  1  0  0  0  0
  9 13  2  0  0  0  0
 10 13  1  0  0  0  0
 10 14  2  0  0  0  0
 10 15  1  0  0  0  0
 11 16  2  0  0  0  0
 14 16  1  0  0  0  0
 15 17  2  0  0  0  0
 15 20  1  0  0  0  0
 17 24  1  0  0  0  0
 18 21  1  0  0  0  0
 19 22  1  0  0  0  0
 20 25  2  0  0  0  0
 24 26  2  0  0  0  0
 25 26  1  0  0  0  0
 27 29  1  0  0  0  0
 27 30  1  0  0  0  0
 27 31  1  0  0  0  0
M  END
> <PUBCHEM_COMPOUND_ID_TYPE>
0

> <PUBCHEM_TOTAL_CHARGE>
0

> <PUBCHEM_SUBSTANCE_ID>
310940007

> <PUBCHEM_SUBSTANCE_VERSION>
1

> <PUBCHEM_EXT_DATASOURCE_NAME>
4488

> <PUBCHEM_EXT_DATASOURCE_REGID>
SCHEMBL16117937

> <PUBCHEM_SUBSTANCE_COMMENT>
InChI=1S/C23H26Cl2N2O4/c1-23(2,3)31-22(29)27-11-9-26(10-12-27)21(28)17-13-16(19(25)14-20(17)30-4)15-7-5-6-8-18(15)24/h5-8,13-14H,9-12H2,1-4H3
InChIKey=SEPLJOHXYTYTDC-UHFFFAOYSA-N

> <PUBCHEM_SUBSTANCE_SYNONYM>
SCHEMBL16117937

> <PUBCHEM_XREF_EXT_ID>
SCHEMBL16117937

> <PUBCHEM_EXT_DATASOURCE_URL>
https://www.surechembl.org/

> <PUBCHEM_EXT_SUBSTANCE_URL>
https://www.surechembl.org/chemical/SCHEMBL16117937

> <PUBCHEM_CID_ASSOCIATIONS>
117607168  1

> <PUBCHEM_COORDINATE_TYPE>
1
3

$$$$
