310947113
  -OEChem-07211613022D

 23 25  0     1  0  0  0  0  0999 V2000
   -3.5653    0.9878    0.0000 O   0  0  0  0  0  0  0  0  0  0  0  0
    1.1022   -1.3685    0.0000 O   0  0  0  0  0  0  0  0  0  0  0  0
    2.5549   -0.3564    0.0000 O   0  0  0  0  0  0  0  0  0  0  0  0
   -0.8093    0.8384    0.0000 N   0  0  0  0  0  0  0  0  0  0  0  0
   -1.8893    1.6230    0.0000 N   0  0  0  0  0  0  0  0  0  0  0  0
   -1.5630   -0.4670    0.0000 N   0  0  0  0  0  0  0  0  0  0  0  0
   -2.9841   -0.3176    0.0000 N   0  0  0  0  0  0  0  0  0  0  0  0
   -2.4029   -1.6230    0.0000 N   0  0  0  0  0  0  0  0  0  0  0  0
   -1.4768    0.3535    0.0000 C   0  0  0  0  0  0  0  0  0  0  0  0
   -0.0949    0.4259    0.0000 C   0  0  3  0  0  0  0  0  0  0  0  0
   -2.1442    0.8384    0.0000 C   0  0  0  0  0  0  0  0  0  0  0  0
    0.6897    0.6808    0.0000 C   0  0  0  0  0  0  0  0  0  0  0  0
    1.1747    0.0134    0.0000 C   0  0  3  0  0  0  0  0  0  0  0  0
   -1.0643    1.6230    0.0000 C   0  0  0  0  0  0  0  0  0  0  0  0
   -2.8979    0.5029    0.0000 C   0  0  0  0  0  0  0  0  0  0  0  0
   -0.0949   -0.3991    0.0000 C   0  0  0  0  0  0  0  0  0  0  0  0
    0.6897   -0.6540    0.0000 C   0  0  3  0  0  0  0  0  0  0  0  0
   -2.3167   -0.8026    0.0000 C   0  0  0  0  0  0  0  0  0  0  0  0
    1.9716    0.2269    0.0000 C   0  0  0  0  0  0  0  0  0  0  0  0
    1.1022    1.3953    0.0000 C   0  0  0  0  0  0  0  0  0  0  0  0
    3.3518   -0.1429    0.0000 C   0  0  0  0  0  0  0  0  0  0  0  0
    3.1383    0.6540    0.0000 C   0  0  0  0  0  0  0  0  0  0  0  0
    3.5653   -0.9398    0.0000 C   0  0  0  0  0  0  0  0  0  0  0  0
  1 15  2  0  0  0  0
 17  2  1  1  0  0  0
  3 19  1  0  0  0  0
  3 21  1  0  0  0  0
  4  9  1  0  0  0  0
  4 10  1  0  0  0  0
  4 14  1  0  0  0  0
  5 11  1  0  0  0  0
  5 14  2  0  0  0  0
  6  9  1  0  0  0  0
  6 18  1  0  0  0  0
  7 15  1  0  0  0  0
  7 18  2  0  0  0  0
  8 18  1  0  0  0  0
  9 11  2  0  0  0  0
 10 12  1  0  0  0  0
 10 16  1  6  0  0  0
 11 15  1  0  0  0  0
 12 13  1  0  0  0  0
 12 20  2  0  0  0  0
 13 17  1  0  0  0  0
 13 19  1  6  0  0  0
 16 17  1  0  0  0  0
 21 22  1  0  0  0  0
 21 23  1  0  0  0  0
M  END
> <PUBCHEM_COMPOUND_ID_TYPE>
0

> <PUBCHEM_TOTAL_CHARGE>
0

> <PUBCHEM_SUBSTANCE_ID>
310947113

> <PUBCHEM_SUBSTANCE_VERSION>
1

> <PUBCHEM_EXT_DATASOURCE_NAME>
4488

> <PUBCHEM_EXT_DATASOURCE_REGID>
SCHEMBL16125267

> <PUBCHEM_SUBSTANCE_COMMENT>
InChI=1S/C15H21N5O3/c1-7(2)23-5-9-8(3)10(4-11(9)21)20-6-17-12-13(20)18-15(16)19-14(12)22/h6-7,9-11,21H,3-5H2,1-2H3,(H3,16,18,19,22)/t9-,10-,11-/m0/s1
InChIKey=FUNJDFCJRJZJCI-DCAQKATOSA-N

> <PUBCHEM_SUBSTANCE_SYNONYM>
SCHEMBL16125267

> <PUBCHEM_XREF_EXT_ID>
SCHEMBL16125267

> <PUBCHEM_EXT_DATASOURCE_URL>
https://www.surechembl.org/

> <PUBCHEM_EXT_SUBSTANCE_URL>
https://www.surechembl.org/chemical/SCHEMBL16125267

> <PUBCHEM_CID_ASSOCIATIONS>
117612962  1

> <PUBCHEM_COORDINATE_TYPE>
1
3

> <PUBCHEM_BONDANNOTATIONS>
10  16  6
13  19  6
17  2  5
21  22  3
21  23  3

$$$$
