310943612
  -OEChem-07211613022D

 36 39  0     0  0  0  0  0  0999 V2000
   -4.0100   -1.0714    0.0000 S   0  0  0  0  0  0  0  0  0  0  0  0
    4.6403    1.5126    0.0000 F   0  0  0  0  0  0  0  0  0  0  0  0
    5.3966    1.0714    0.0000 F   0  0  0  0  0  0  0  0  0  0  0  0
    5.3966    0.2048    0.0000 F   0  0  0  0  0  0  0  0  0  0  0  0
   -4.7191   -1.4811    0.0000 O   0  0  0  0  0  0  0  0  0  0  0  0
   -3.7894   -1.8593    0.0000 O   0  0  0  0  0  0  0  0  0  0  0  0
   -5.3966    1.4338    0.0000 O   0  0  0  0  0  0  0  0  0  0  0  0
    1.7569    1.4338    0.0000 O   0  0  0  0  0  0  0  0  0  0  0  0
   -3.9785    0.6146    0.0000 N   0  0  0  0  0  0  0  0  0  0  0  0
   -2.5446   -1.0399    0.0000 N   0  0  0  0  0  0  0  0  0  0  0  0
   -1.8357   -0.6146    0.0000 N   0  0  0  0  0  0  0  0  0  0  0  0
    1.0321    0.2048    0.0000 N   0  0  0  0  0  0  0  0  0  0  0  0
    2.4659   -0.6303    0.0000 N   0  0  0  0  0  0  0  0  0  0  0  0
   -3.2538    0.2048    0.0000 C   0  0  0  0  0  0  0  0  0  0  0  0
   -3.2695   -0.6146    0.0000 C   0  0  0  0  0  0  0  0  0  0  0  0
   -1.8199    0.2048    0.0000 C   0  0  0  0  0  0  0  0  0  0  0  0
   -1.1265    0.6146    0.0000 C   0  0  0  0  0  0  0  0  0  0  0  0
   -2.5446    0.6146    0.0000 C   0  0  0  0  0  0  0  0  0  0  0  0
   -1.1108    1.4496    0.0000 C   0  0  0  0  0  0  0  0  0  0  0  0
   -0.3703    0.2206    0.0000 C   0  0  0  0  0  0  0  0  0  0  0  0
    0.3073    0.6303    0.0000 C   0  0  0  0  0  0  0  0  0  0  0  0
   -3.9785    1.4496    0.0000 C   0  0  0  0  0  0  0  0  0  0  0  0
   -4.6561    0.2206    0.0000 C   0  0  0  0  0  0  0  0  0  0  0  0
   -0.4018    1.8436    0.0000 C   0  0  0  0  0  0  0  0  0  0  0  0
    2.4659    0.2048    0.0000 C   0  0  0  0  0  0  0  0  0  0  0  0
    1.7411    0.5988    0.0000 C   0  0  0  0  0  0  0  0  0  0  0  0
    3.8997    0.2048    0.0000 C   0  0  0  0  0  0  0  0  0  0  0  0
    0.3073    1.4496    0.0000 C   0  0  0  0  0  0  0  0  0  0  0  0
   -4.7664   -0.6303    0.0000 C   0  0  0  0  0  0  0  0  0  0  0  0
    4.6561    0.6618    0.0000 C   0  0  0  0  0  0  0  0  0  0  0  0
    3.1592    0.6146    0.0000 C   0  0  0  0  0  0  0  0  0  0  0  0
   -4.7033    1.8593    0.0000 C   0  0  0  0  0  0  0  0  0  0  0  0
   -5.3966    0.6146    0.0000 C   0  0  0  0  0  0  0  0  0  0  0  0
    3.8840   -0.6303    0.0000 C   0  0  0  0  0  0  0  0  0  0  0  0
   -1.8357    1.8436    0.0000 C   0  0  0  0  0  0  0  0  0  0  0  0
    3.2380   -1.0399    0.0000 C   0  0  0  0  0  0  0  0  0  0  0  0
  1  5  2  0  0  0  0
  1  6  2  0  0  0  0
  1 15  1  0  0  0  0
  1 29  1  0  0  0  0
  2 30  1  0  0  0  0
  3 30  1  0  0  0  0
  4 30  1  0  0  0  0
  7 32  1  0  0  0  0
  7 33  1  0  0  0  0
  8 26  2  0  0  0  0
  9 14  1  0  0  0  0
  9 22  1  0  0  0  0
  9 23  1  0  0  0  0
 10 11  1  0  0  0  0
 10 15  2  0  0  0  0
 11 16  2  0  0  0  0
 12 21  1  0  0  0  0
 12 26  1  0  0  0  0
 13 25  1  0  0  0  0
 13 36  2  0  0  0  0
 14 15  1  0  0  0  0
 14 18  2  0  0  0  0
 16 17  1  0  0  0  0
 16 18  1  0  0  0  0
 17 19  2  0  0  0  0
 17 20  1  0  0  0  0
 19 24  1  0  0  0  0
 19 35  1  0  0  0  0
 20 21  2  0  0  0  0
 21 28  1  0  0  0  0
 22 32  1  0  0  0  0
 23 33  1  0  0  0  0
 24 28  2  0  0  0  0
 25 26  1  0  0  0  0
 25 31  2  0  0  0  0
 27 30  1  0  0  0  0
 27 31  1  0  0  0  0
 27 34  2  0  0  0  0
 34 36  1  0  0  0  0
M  END
> <PUBCHEM_COMPOUND_ID_TYPE>
0

> <PUBCHEM_TOTAL_CHARGE>
0

> <PUBCHEM_SUBSTANCE_ID>
310943612

> <PUBCHEM_SUBSTANCE_VERSION>
1

> <PUBCHEM_EXT_DATASOURCE_NAME>
4488

> <PUBCHEM_EXT_DATASOURCE_REGID>
SCHEMBL16121680

> <PUBCHEM_SUBSTANCE_COMMENT>
InChI=1S/C23H22F3N5O4S/c1-14-3-4-16(28-21(32)19-11-15(5-6-27-19)23(24,25)26)12-17(14)18-13-20(31-7-9-35-10-8-31)22(30-29-18)36(2,33)34/h3-6,11-13H,7-10H2,1-2H3,(H,28,32)
InChIKey=FMAPRDUFFLBURT-UHFFFAOYSA-N

> <PUBCHEM_SUBSTANCE_SYNONYM>
SCHEMBL16121680

> <PUBCHEM_XREF_EXT_ID>
SCHEMBL16121680

> <PUBCHEM_EXT_DATASOURCE_URL>
https://www.surechembl.org/

> <PUBCHEM_EXT_SUBSTANCE_URL>
https://www.surechembl.org/chemical/SCHEMBL16121680

> <PUBCHEM_CID_ASSOCIATIONS>
117610003  1

> <PUBCHEM_COORDINATE_TYPE>
1
3

$$$$
