310936786
  -OEChem-07211613022D

 19 21  0     1  0  0  0  0  0999 V2000
    1.5135   -0.0498    0.0000 Cl  0  0  0  0  0  0  0  0  0  0  0  0
    3.6376    2.8519    0.0000 F   0  0  0  0  0  0  0  0  0  0  0  0
    2.6504    2.2300    0.0000 F   0  0  0  0  0  0  0  0  0  0  0  0
    4.2595    1.8647    0.0000 F   0  0  0  0  0  0  0  0  0  0  0  0
    2.7243   -1.1707    0.0000 N   0  0  0  0  0  0  0  0  0  0  0  0
    0.9807   -0.1341    0.0000 N   0  0  0  0  0  0  0  0  0  0  0  0
    3.6950   -0.1221    0.0000 N   0  0  0  0  0  0  0  0  0  0  0  0
    1.9362   -1.4148    0.0000 C   0  0  3  0  0  0  0  0  0  0  0  0
    2.9069   -0.3662    0.0000 C   0  0  0  0  0  0  0  0  0  0  0  0
    3.2723    1.2428    0.0000 C   0  0  0  0  0  0  0  0  0  0  0  0
    1.1407   -0.9495    0.0000 C   0  0  3  0  0  0  0  0  0  0  0  0
    2.3015    0.1942    0.0000 C   0  0  0  0  0  0  0  0  0  0  0  0
    3.4550    2.0474    0.0000 C   0  0  0  0  0  0  0  0  0  0  0  0
    0.9106   -1.6699    0.0000 C   0  0  3  0  0  0  0  0  0  0  0  0
    2.4842    0.9988    0.0000 C   0  0  0  0  0  0  0  0  0  0  0  0
    1.6411   -2.0402    0.0000 C   0  0  0  0  0  0  0  0  0  0  0  0
    3.8777    0.6824    0.0000 C   0  0  0  0  0  0  0  0  0  0  0  0
    0.5004   -1.3997    0.0000 C   0  0  0  0  0  0  0  0  0  0  0  0
    0.1351   -2.0602    0.0000 C   0  0  0  0  0  0  0  0  0  0  0  0
  1 12  1  0  0  0  0
  2 13  1  0  0  0  0
  3 13  1  0  0  0  0
  4 13  1  0  0  0  0
  8  5  1  6  0  0  0
  5  9  1  0  0  0  0
 11  6  1  6  0  0  0
  6 14  1  0  0  0  0
  7  9  2  0  0  0  0
  7 17  1  0  0  0  0
  8 11  1  0  0  0  0
  8 16  1  0  0  0  0
  9 12  1  0  0  0  0
 10 13  1  0  0  0  0
 10 15  1  0  0  0  0
 10 17  2  0  0  0  0
 11 18  1  0  0  0  0
 12 15  2  0  0  0  0
 14 16  1  1  0  0  0
 14 19  1  0  0  0  0
 18 19  1  0  0  0  0
M  END
> <PUBCHEM_COMPOUND_ID_TYPE>
0

> <PUBCHEM_TOTAL_CHARGE>
0

> <PUBCHEM_SUBSTANCE_ID>
310936786

> <PUBCHEM_SUBSTANCE_VERSION>
1

> <PUBCHEM_EXT_DATASOURCE_NAME>
4488

> <PUBCHEM_EXT_DATASOURCE_REGID>
SCHEMBL16114471

> <PUBCHEM_SUBSTANCE_COMMENT>
InChI=1S/C12H13ClF3N3/c13-8-3-6(12(14,15)16)5-17-11(8)19-10-4-7-1-2-9(10)18-7/h3,5,7,9-10,18H,1-2,4H2,(H,17,19)/t7-,9+,10-/m1/s1
InChIKey=JCQNUFHMKUXYSV-FKTZTGRPSA-N

> <PUBCHEM_SUBSTANCE_SYNONYM>
SCHEMBL16114471

> <PUBCHEM_XREF_EXT_ID>
SCHEMBL16114471

> <PUBCHEM_EXT_DATASOURCE_URL>
https://www.surechembl.org/

> <PUBCHEM_EXT_SUBSTANCE_URL>
https://www.surechembl.org/chemical/SCHEMBL16114471

> <PUBCHEM_CID_ASSOCIATIONS>
117604680  1

> <PUBCHEM_COORDINATE_TYPE>
1
3

> <PUBCHEM_BONDANNOTATIONS>
14  16  5
8  5  6
11  6  6

$$$$
