310929399
  -OEChem-07211613022D

 31 33  0     0  0  0  0  0  0999 V2000
   12.4323   -1.2790    0.0000 O   0  0  0  0  0  0  0  0  0  0  0  0
    0.0000   -1.7395    0.0000 O   0  0  0  0  0  0  0  0  0  0  0  0
   10.9486   -0.4604    0.0000 N   0  0  0  0  0  0  0  0  0  0  0  0
   10.9486   -1.3302    0.0000 C   0  0  0  0  0  0  0  0  0  0  0  0
   10.2324   -1.7395    0.0000 C   0  0  0  0  0  0  0  0  0  0  0  0
   11.7160   -1.7395    0.0000 C   0  0  0  0  0  0  0  0  0  0  0  0
    9.5161   -1.3302    0.0000 C   0  0  0  0  0  0  0  0  0  0  0  0
   10.2324   -2.5581    0.0000 C   0  0  0  0  0  0  0  0  0  0  0  0
   11.7160   -2.5581    0.0000 C   0  0  0  0  0  0  0  0  0  0  0  0
    9.5161   -0.4604    0.0000 C   0  0  0  0  0  0  0  0  0  0  0  0
   10.9486   -2.9674    0.0000 C   0  0  0  0  0  0  0  0  0  0  0  0
   10.2324   -0.0511    0.0000 C   0  0  0  0  0  0  0  0  0  0  0  0
    8.7998   -1.7395    0.0000 C   0  0  0  0  0  0  0  0  0  0  0  0
   13.1486   -1.6883    0.0000 C   0  0  0  0  0  0  0  0  0  0  0  0
   13.8648   -1.2790    0.0000 C   0  0  0  0  0  0  0  0  0  0  0  0
    8.0324   -1.3302    0.0000 C   0  0  0  0  0  0  0  0  0  0  0  0
   14.6322   -1.6883    0.0000 C   0  0  0  0  0  0  0  0  0  0  0  0
   13.8648   -0.4093    0.0000 C   0  0  0  0  0  0  0  0  0  0  0  0
    7.3162   -1.7395    0.0000 C   0  0  0  0  0  0  0  0  0  0  0  0
   15.3485   -1.2790    0.0000 C   0  0  0  0  0  0  0  0  0  0  0  0
   14.5811    0.0000    0.0000 C   0  0  0  0  0  0  0  0  0  0  0  0
   15.3485   -0.4093    0.0000 C   0  0  0  0  0  0  0  0  0  0  0  0
    6.5999   -1.3302    0.0000 C   0  0  0  0  0  0  0  0  0  0  0  0
    5.8324   -1.7395    0.0000 C   0  0  0  0  0  0  0  0  0  0  0  0
    5.1162   -1.3302    0.0000 C   0  0  0  0  0  0  0  0  0  0  0  0
    4.3999   -1.7395    0.0000 C   0  0  0  0  0  0  0  0  0  0  0  0
    3.6325   -1.3302    0.0000 C   0  0  0  0  0  0  0  0  0  0  0  0
    2.9162   -1.7395    0.0000 C   0  0  0  0  0  0  0  0  0  0  0  0
    2.2000   -1.3302    0.0000 C   0  0  0  0  0  0  0  0  0  0  0  0
    1.4837   -1.7395    0.0000 C   0  0  0  0  0  0  0  0  0  0  0  0
    0.7162   -1.3302    0.0000 C   0  0  0  0  0  0  0  0  0  0  0  0
  1  6  1  0  0  0  0
  1 14  1  0  0  0  0
  2 31  1  0  0  0  0
  3  4  2  0  0  0  0
  3 12  1  0  0  0  0
  4  5  1  0  0  0  0
  4  6  1  0  0  0  0
  5  7  2  0  0  0  0
  5  8  1  0  0  0  0
  6  9  2  0  0  0  0
  7 10  1  0  0  0  0
  7 13  1  0  0  0  0
  8 11  2  0  0  0  0
  9 11  1  0  0  0  0
 10 12  2  0  0  0  0
 13 16  1  0  0  0  0
 14 15  1  0  0  0  0
 15 17  2  0  0  0  0
 15 18  1  0  0  0  0
 16 19  1  0  0  0  0
 17 20  1  0  0  0  0
 18 21  2  0  0  0  0
 19 23  1  0  0  0  0
 20 22  2  0  0  0  0
 21 22  1  0  0  0  0
 23 24  1  0  0  0  0
 24 25  1  0  0  0  0
 25 26  1  0  0  0  0
 26 27  1  0  0  0  0
 27 28  1  0  0  0  0
 28 29  1  0  0  0  0
 29 30  1  0  0  0  0
 30 31  1  0  0  0  0
M  END
> <PUBCHEM_COMPOUND_ID_TYPE>
0

> <PUBCHEM_TOTAL_CHARGE>
0

> <PUBCHEM_SUBSTANCE_ID>
310929399

> <PUBCHEM_SUBSTANCE_VERSION>
1

> <PUBCHEM_EXT_DATASOURCE_NAME>
4488

> <PUBCHEM_EXT_DATASOURCE_REGID>
SCHEMBL16106572

> <PUBCHEM_SUBSTANCE_COMMENT>
InChI=1S/C28H37NO2/c30-22-13-8-6-4-2-1-3-5-7-12-17-25-20-21-29-28-26(25)18-14-19-27(28)31-23-24-15-10-9-11-16-24/h9-11,14-16,18-21,30H,1-8,12-13,17,22-23H2
InChIKey=XKALOVKIVCNZQI-UHFFFAOYSA-N

> <PUBCHEM_SUBSTANCE_SYNONYM>
SCHEMBL16106572

> <PUBCHEM_XREF_EXT_ID>
SCHEMBL16106572

> <PUBCHEM_EXT_DATASOURCE_URL>
https://www.surechembl.org/

> <PUBCHEM_EXT_SUBSTANCE_URL>
https://www.surechembl.org/chemical/SCHEMBL16106572

> <PUBCHEM_CID_ASSOCIATIONS>
117598763  1

> <PUBCHEM_COORDINATE_TYPE>
1
3

$$$$
