310932755
  -OEChem-07211613022D

 31 34  0     1  0  0  0  0  0999 V2000
    2.8506   -2.1020    0.0000 O   0  0  0  0  0  0  0  0  0  0  0  0
    0.1440   -2.3611    0.0000 O   0  0  0  0  0  0  0  0  0  0  0  0
    7.3425   -2.2171    0.0000 O   0  0  0  0  0  0  0  0  0  0  0  0
    7.6592   -2.1596    0.0000 O   0  0  0  0  0  0  0  0  0  0  0  0
    3.7432   -0.9790    0.0000 N   0  0  0  0  0  0  0  0  0  0  0  0
    3.6856   -0.1440    0.0000 N   0  0  0  0  0  0  0  0  0  0  0  0
    5.1830   -0.9790    0.0000 N   0  0  0  0  0  0  0  0  0  0  0  0
    6.6227   -3.4265    0.0000 N   0  0  0  0  0  0  0  0  0  0  0  0
    0.0000   -0.9790    0.0000 N   0  0  0  0  0  0  0  0  0  0  0  0
    2.4475   -0.6911    0.0000 C   0  0  0  0  0  0  0  0  0  0  0  0
    3.0234   -1.2957    0.0000 C   0  0  0  0  0  0  0  0  0  0  0  0
    4.4631   -1.3821    0.0000 C   0  0  0  0  0  0  0  0  0  0  0  0
    1.6412   -0.8062    0.0000 C   0  0  0  0  0  0  0  0  0  0  0  0
    2.8506    0.0000    0.0000 C   0  0  0  0  0  0  0  0  0  0  0  0
    5.9028   -2.2171    0.0000 C   0  0  0  0  0  0  0  0  0  0  0  0
    4.4631   -2.2171    0.0000 C   0  0  0  0  0  0  0  0  0  0  0  0
    1.2957   -1.5837    0.0000 C   0  0  0  0  0  0  0  0  0  0  0  0
    1.1517   -0.1440    0.0000 C   0  0  0  0  0  0  0  0  0  0  0  0
    5.9028   -1.3821    0.0000 C   0  0  0  0  0  0  0  0  0  0  0  0
    5.1830   -2.6202    0.0000 C   0  0  0  0  0  0  0  0  0  0  0  0
    6.6227   -2.6202    0.0000 C   0  0  0  0  0  0  0  0  0  0  0  0
    0.4895   -1.6412    0.0000 C   0  0  0  0  0  0  0  0  0  0  0  0
    7.3425   -3.8584    0.0000 C   0  0  3  0  0  0  0  0  0  0  0  0
    8.0912   -3.5129    0.0000 C   0  0  3  0  0  0  0  0  0  0  0  0
    0.3167   -0.2016    0.0000 C   0  0  0  0  0  0  0  0  0  0  0  0
    7.4289   -4.6647    0.0000 C   0  0  0  0  0  0  0  0  0  0  0  0
    8.6383   -4.1176    0.0000 C   0  0  0  0  0  0  0  0  0  0  0  0
    8.2351   -4.8374    0.0000 C   0  0  0  0  0  0  0  0  0  0  0  0
    8.2639   -2.7066    0.0000 C   0  0  0  0  0  0  0  0  0  0  0  0
    0.6047   -3.0522    0.0000 C   0  0  0  0  0  0  0  0  0  0  0  0
    6.8530   -2.3899    0.0000 C   0  0  0  0  0  0  0  0  0  0  0  0
  1 11  1  0  0  0  0
  2 22  1  0  0  0  0
  2 30  1  0  0  0  0
  3 21  2  0  0  0  0
  4 29  1  0  0  0  0
  4 31  1  0  0  0  0
  5  6  1  0  0  0  0
  5 11  1  0  0  0  0
  5 12  1  0  0  0  0
  6 14  2  0  0  0  0
  7 12  2  0  0  0  0
  7 19  1  0  0  0  0
  8 21  1  0  0  0  0
 23  8  1  1  0  0  0
  9 22  1  0  0  0  0
  9 25  2  0  0  0  0
 10 11  2  0  0  0  0
 10 13  1  0  0  0  0
 10 14  1  0  0  0  0
 12 16  1  0  0  0  0
 13 17  1  0  0  0  0
 13 18  2  0  0  0  0
 15 19  2  0  0  0  0
 15 20  1  0  0  0  0
 15 21  1  0  0  0  0
 16 20  2  0  0  0  0
 17 22  2  0  0  0  0
 18 25  1  0  0  0  0
 23 24  1  0  0  0  0
 23 26  1  0  0  0  0
 24 27  1  0  0  0  0
 24 29  1  1  0  0  0
 26 28  1  0  0  0  0
 27 28  1  0  0  0  0
M  END
> <PUBCHEM_COMPOUND_ID_TYPE>
0

> <PUBCHEM_TOTAL_CHARGE>
0

> <PUBCHEM_SUBSTANCE_ID>
310932755

> <PUBCHEM_SUBSTANCE_VERSION>
1

> <PUBCHEM_EXT_DATASOURCE_NAME>
4488

> <PUBCHEM_EXT_DATASOURCE_REGID>
SCHEMBL16110141

> <PUBCHEM_SUBSTANCE_COMMENT>
InChI=1S/C22H25N5O4/c1-30-13-16-4-3-5-18(16)26-21(28)15-6-7-19(24-11-15)27-22(29)17(12-25-27)14-8-9-23-20(10-14)31-2/h6-12,16,18,29H,3-5,13H2,1-2H3,(H,26,28)/t16-,18-/m1/s1
InChIKey=BNTYQNJXQPIZOV-SJLPKXTDSA-N

> <PUBCHEM_SUBSTANCE_SYNONYM>
SCHEMBL16110141

> <PUBCHEM_XREF_EXT_ID>
SCHEMBL16110141

> <PUBCHEM_EXT_DATASOURCE_URL>
https://www.surechembl.org/

> <PUBCHEM_EXT_SUBSTANCE_URL>
https://www.surechembl.org/chemical/SCHEMBL16110141

> <PUBCHEM_CID_ASSOCIATIONS>
117601254  1

> <PUBCHEM_COORDINATE_TYPE>
1
3

> <PUBCHEM_BONDANNOTATIONS>
24  29  5
23  8  5

$$$$
