310944200
  -OEChem-07211613022D

 32 36  0     1  0  0  0  0  0999 V2000
    2.4865   -0.0666    0.0000 O   0  0  0  0  0  0  0  0  0  0  0  0
    5.0174   -1.6873    0.0000 O   0  0  0  0  0  0  0  0  0  0  0  0
    5.5392   -0.3108    0.0000 O   0  0  0  0  0  0  0  0  0  0  0  0
    2.8750   -1.4763    0.0000 N   0  0  0  0  0  0  0  0  0  0  0  0
    0.1110   -0.3774    0.0000 N   0  0  0  0  0  0  0  0  0  0  0  0
   -4.2182    1.2765    0.0000 N   0  0  0  0  0  0  0  0  0  0  0  0
   -2.0536    0.8658    0.0000 N   0  0  0  0  0  0  0  0  0  0  0  0
   -2.7752    1.2765    0.0000 N   0  0  0  0  0  0  0  0  0  0  0  0
   -4.3070    2.0980    0.0000 N   0  0  0  0  0  0  0  0  0  0  0  0
   -5.1285    2.2645    0.0000 N   0  0  0  0  0  0  0  0  0  0  0  0
   -5.5392    1.5541    0.0000 N   0  0  0  0  0  0  0  0  0  0  0  0
    1.5429   -1.1877    0.0000 C   0  0  0  0  0  0  0  0  0  0  0  0
    2.2978   -0.8770    0.0000 C   0  0  0  0  0  0  0  0  0  0  0  0
    3.7075   -1.4098    0.0000 C   0  0  0  0  0  0  0  0  0  0  0  0
    1.5541   -2.0092    0.0000 C   0  0  0  0  0  0  0  0  0  0  0  0
    2.3422   -2.2645    0.0000 C   0  0  0  0  0  0  0  0  0  0  0  0
    0.8326   -1.5985    0.0000 C   0  0  0  0  0  0  0  0  0  0  0  0
    1.5541   -0.3663    0.0000 C   0  0  0  0  0  0  0  0  0  0  0  0
    4.1072   -0.6771    0.0000 C   0  0  0  0  0  0  0  0  0  0  0  0
    4.2847   -2.0092    0.0000 C   0  0  0  0  0  0  0  0  0  0  0  0
    0.1110   -1.1877    0.0000 C   0  0  0  0  0  0  0  0  0  0  0  0
    0.8214    0.0444    0.0000 C   0  0  0  0  0  0  0  0  0  0  0  0
    4.9064   -0.8658    0.0000 C   0  0  0  0  0  0  0  0  0  0  0  0
   -0.6216    0.0555    0.0000 C   0  0  3  0  0  0  0  0  0  0  0  0
    3.7741    0.0777    0.0000 C   0  0  0  0  0  0  0  0  0  0  0  0
   -1.3210   -0.3552    0.0000 C   0  0  0  0  0  0  0  0  0  0  0  0
   -2.0647    0.0444    0.0000 C   0  0  0  0  0  0  0  0  0  0  0  0
   -3.4967    0.8658    0.0000 C   0  0  0  0  0  0  0  0  0  0  0  0
   -2.7640   -0.3552    0.0000 C   0  0  0  0  0  0  0  0  0  0  0  0
   -3.4967    0.0444    0.0000 C   0  0  0  0  0  0  0  0  0  0  0  0
   -0.6105    0.8658    0.0000 C   0  0  0  0  0  0  0  0  0  0  0  0
   -4.9841    0.9547    0.0000 C   0  0  0  0  0  0  0  0  0  0  0  0
  1 13  2  0  0  0  0
  2 20  1  0  0  0  0
  2 23  1  0  0  0  0
  3 23  2  0  0  0  0
  4 13  1  0  0  0  0
  4 14  1  0  0  0  0
  4 16  1  0  0  0  0
  5 21  1  0  0  0  0
  5 22  1  0  0  0  0
  5 24  1  0  0  0  0
  6  9  1  0  0  0  0
  6 28  1  0  0  0  0
  6 32  1  0  0  0  0
  7  8  1  0  0  0  0
  7 27  2  0  0  0  0
  8 28  2  0  0  0  0
  9 10  2  0  0  0  0
 10 11  1  0  0  0  0
 11 32  2  0  0  0  0
 12 13  1  0  0  0  0
 12 15  1  0  0  0  0
 12 17  1  0  0  0  0
 12 18  1  0  0  0  0
 14 19  2  0  0  0  0
 14 20  1  0  0  0  0
 15 16  2  0  0  0  0
 17 21  1  0  0  0  0
 18 22  1  0  0  0  0
 19 23  1  0  0  0  0
 19 25  1  0  0  0  0
 24 26  1  0  0  0  0
 24 31  1  1  0  0  0
 26 27  1  0  0  0  0
 27 29  1  0  0  0  0
 28 30  1  0  0  0  0
 29 30  2  0  0  0  0
M  END
> <PUBCHEM_COMPOUND_ID_TYPE>
0

> <PUBCHEM_TOTAL_CHARGE>
0

> <PUBCHEM_SUBSTANCE_ID>
310944200

> <PUBCHEM_SUBSTANCE_VERSION>
1

> <PUBCHEM_EXT_DATASOURCE_NAME>
4488

> <PUBCHEM_EXT_DATASOURCE_REGID>
SCHEMBL16122275

> <PUBCHEM_SUBSTANCE_COMMENT>
InChI=1S/C21H24N8O3/c1-14(11-16-3-4-18(24-23-16)29-13-22-25-26-29)27-8-5-21(6-9-27)7-10-28(20(21)31)17-12-32-19(30)15(17)2/h3-4,7,10,13-14H,5-6,8-9,11-12H2,1-2H3/t14-/m1/s1
InChIKey=VJABAQUPUIIKAL-CQSZACIVSA-N

> <PUBCHEM_SUBSTANCE_SYNONYM>
SCHEMBL16122275

> <PUBCHEM_XREF_EXT_ID>
SCHEMBL16122275

> <PUBCHEM_EXT_DATASOURCE_URL>
https://www.surechembl.org/

> <PUBCHEM_EXT_SUBSTANCE_URL>
https://www.surechembl.org/chemical/SCHEMBL16122275

> <PUBCHEM_CID_ASSOCIATIONS>
117610471  1

> <PUBCHEM_COORDINATE_TYPE>
1
3

> <PUBCHEM_BONDANNOTATIONS>
24  31  5

$$$$
