310930939
  -OEChem-07211613022D

 14 15  0     1  0  0  0  0  0999 V2000
    1.4310    0.0000    0.0000 O   0  0  0  0  0  0  0  0  0  0  0  0
    0.0000    0.0000    0.0000 O   0  0  0  0  0  0  0  0  0  0  0  0
    2.5711   -4.4144    0.0000 O   0  0  0  0  0  0  0  0  0  0  0  0
    0.7034   -1.2370    0.0000 N   0  0  0  0  0  0  0  0  0  0  0  0
    0.7034   -3.7353    0.0000 C   0  0  3  0  0  0  0  0  0  0  0  0
    1.1157   -4.4387    0.0000 C   0  0  3  0  0  0  0  0  0  0  0  0
    0.7034   -2.8863    0.0000 C   0  0  0  0  0  0  0  0  0  0  0  0
    0.2911   -4.4629    0.0000 C   0  0  0  0  0  0  0  0  0  0  0  0
    1.4310   -2.4741    0.0000 C   0  0  0  0  0  0  0  0  0  0  0  0
    0.0000   -2.4741    0.0000 C   0  0  0  0  0  0  0  0  0  0  0  0
    1.4310   -1.6493    0.0000 C   0  0  0  0  0  0  0  0  0  0  0  0
    0.0000   -1.6493    0.0000 C   0  0  0  0  0  0  0  0  0  0  0  0
    1.8434   -4.8510    0.0000 C   0  0  0  0  0  0  0  0  0  0  0  0
    0.7034   -0.4124    0.0000 C   0  0  0  0  0  0  0  0  0  0  0  0
  1 14  2  0  0  0  0
  2 14  1  0  0  0  0
  3 13  1  0  0  0  0
  4 11  1  0  0  0  0
  4 12  1  0  0  0  0
  4 14  1  0  0  0  0
  5  6  1  0  0  0  0
  5  7  1  0  0  0  0
  5  8  1  1  0  0  0
  6  8  1  0  0  0  0
  6 13  1  6  0  0  0
  7  9  1  0  0  0  0
  7 10  1  0  0  0  0
  9 11  1  0  0  0  0
 10 12  1  0  0  0  0
M  END
> <PUBCHEM_COMPOUND_ID_TYPE>
0

> <PUBCHEM_TOTAL_CHARGE>
0

> <PUBCHEM_SUBSTANCE_ID>
310930939

> <PUBCHEM_SUBSTANCE_VERSION>
1

> <PUBCHEM_EXT_DATASOURCE_NAME>
4488

> <PUBCHEM_EXT_DATASOURCE_REGID>
SCHEMBL16108238

> <PUBCHEM_SUBSTANCE_COMMENT>
InChI=1S/C10H17NO3/c12-6-8-5-9(8)7-1-3-11(4-2-7)10(13)14/h7-9,12H,1-6H2,(H,13,14)/t8-,9-/m0/s1
InChIKey=SMJOTHFMDVWWLB-IUCAKERBSA-N

> <PUBCHEM_SUBSTANCE_SYNONYM>
SCHEMBL16108238

> <PUBCHEM_XREF_EXT_ID>
SCHEMBL16108238

> <PUBCHEM_EXT_DATASOURCE_URL>
https://www.surechembl.org/

> <PUBCHEM_EXT_SUBSTANCE_URL>
https://www.surechembl.org/chemical/SCHEMBL16108238

> <PUBCHEM_CID_ASSOCIATIONS>
117599896  1

> <PUBCHEM_COORDINATE_TYPE>
1
3

> <PUBCHEM_BONDANNOTATIONS>
5  8  5
6  13  6

$$$$
