310932753
  -OEChem-07211613022D

 27 31  0     0  0  0  0  0  0999 V2000
    4.4119   -5.5496    0.0000 O   0  0  0  0  0  0  0  0  0  0  0  0
    0.0278   -4.2455    0.0000 O   0  5  0  0  0  0  0  0  0  0  0  0
    3.3575    0.0000    0.0000 O   0  0  0  0  0  0  0  0  0  0  0  0
    2.6916   -1.3042    0.0000 N   0  0  0  0  0  0  0  0  0  0  0  0
    3.9957   -1.3319    0.0000 N   0  0  0  0  0  0  0  0  0  0  0  0
    0.4162   -3.5240    0.0000 N   0  3  0  0  0  0  0  0  0  0  0  0
    5.1611   -5.1611    0.0000 N   0  0  0  0  0  0  0  0  0  0  0  0
    2.4973   -2.8303    0.0000 C   0  0  0  0  0  0  0  0  0  0  0  0
    2.9135   -2.1089    0.0000 C   0  0  0  0  0  0  0  0  0  0  0  0
    1.6649   -2.8303    0.0000 C   0  0  0  0  0  0  0  0  0  0  0  0
    3.7737   -2.1089    0.0000 C   0  0  0  0  0  0  0  0  0  0  0  0
    3.7460   -3.5240    0.0000 C   0  0  0  0  0  0  0  0  0  0  0  0
    1.2209   -3.5240    0.0000 C   0  0  0  0  0  0  0  0  0  0  0  0
    2.8858   -3.5240    0.0000 C   0  0  0  0  0  0  0  0  0  0  0  0
    4.1622   -4.2455    0.0000 C   0  0  0  0  0  0  0  0  0  0  0  0
    4.1622   -2.8303    0.0000 C   0  0  0  0  0  0  0  0  0  0  0  0
    1.6372   -4.2455    0.0000 C   0  0  0  0  0  0  0  0  0  0  0  0
    3.3298   -0.8324    0.0000 C   0  0  0  0  0  0  0  0  0  0  0  0
    3.8292   -4.9946    0.0000 C   0  0  0  0  0  0  0  0  0  0  0  0
    4.9669   -4.3564    0.0000 C   0  0  0  0  0  0  0  0  0  0  0  0
    1.2209   -2.1089    0.0000 C   0  0  0  0  0  0  0  0  0  0  0  0
    2.3308   -4.6616    0.0000 C   0  0  0  0  0  0  0  0  0  0  0  0
    1.6372   -5.1056    0.0000 C   0  0  0  0  0  0  0  0  0  0  0  0
    0.0000   -2.8303    0.0000 C   0  0  0  0  0  0  0  0  0  0  0  0
    0.4162   -2.1089    0.0000 C   0  0  0  0  0  0  0  0  0  0  0  0
    2.9968   -5.1889    0.0000 C   0  0  0  0  0  0  0  0  0  0  0  0
    5.5219   -3.7460    0.0000 C   0  0  0  0  0  0  0  0  0  0  0  0
  1  7  1  0  0  0  0
  1 19  1  0  0  0  0
  2  6  1  0  0  0  0
  3 18  2  0  0  0  0
  4  9  1  0  0  0  0
  4 18  1  0  0  0  0
  5 11  1  0  0  0  0
  5 18  1  0  0  0  0
  6 13  1  0  0  0  0
  6 24  2  0  0  0  0
  7 20  2  0  0  0  0
  8  9  1  0  0  0  0
  8 10  1  0  0  0  0
  8 14  2  0  0  0  0
  9 11  2  0  0  0  0
 10 13  2  0  0  0  0
 10 21  1  0  0  0  0
 11 16  1  0  0  0  0
 12 14  1  0  0  0  0
 12 15  1  0  0  0  0
 12 16  2  0  0  0  0
 13 17  1  0  0  0  0
 15 19  2  0  0  0  0
 15 20  1  0  0  0  0
 17 22  1  0  0  0  0
 17 23  1  0  0  0  0
 19 26  1  0  0  0  0
 20 27  1  0  0  0  0
 21 25  2  0  0  0  0
 22 23  1  0  0  0  0
 24 25  1  0  0  0  0
M  CHG  2   2  -1   6   1
M  END
> <PUBCHEM_COMPOUND_ID_TYPE>
0

> <PUBCHEM_TOTAL_CHARGE>
0

> <PUBCHEM_SUBSTANCE_ID>
310932753

> <PUBCHEM_SUBSTANCE_VERSION>
1

> <PUBCHEM_EXT_DATASOURCE_NAME>
4488

> <PUBCHEM_EXT_DATASOURCE_REGID>
SCHEMBL16110139

> <PUBCHEM_SUBSTANCE_COMMENT>
InChI=1S/C20H18N4O3/c1-10-17(11(2)27-23-10)13-8-15(18-16(9-13)21-20(25)22-18)14-4-3-7-24(26)19(14)12-5-6-12/h3-4,7-9,12H,5-6H2,1-2H3,(H2,21,22,25)
InChIKey=PHDFIBRNNCGAFI-UHFFFAOYSA-N

> <PUBCHEM_SUBSTANCE_SYNONYM>
SCHEMBL16110139

> <PUBCHEM_XREF_EXT_ID>
SCHEMBL16110139

> <PUBCHEM_EXT_DATASOURCE_URL>
https://www.surechembl.org/

> <PUBCHEM_EXT_SUBSTANCE_URL>
https://www.surechembl.org/chemical/SCHEMBL16110139

> <PUBCHEM_CID_ASSOCIATIONS>
117601253  1

> <PUBCHEM_COORDINATE_TYPE>
1
3

$$$$
