310938868
  -OEChem-07211613022D

 25 28  0     0  0  0  0  0  0999 V2000
    0.9100    2.2277    0.0000 O   0  0  0  0  0  0  0  0  0  0  0  0
   -1.8784    2.9508    0.0000 O   0  0  0  0  0  0  0  0  0  0  0  0
    1.7144    0.5575    0.0000 N   0  0  0  0  0  0  0  0  0  0  0  0
    0.8361   -0.4478    0.0000 N   0  0  0  0  0  0  0  0  0  0  0  0
    1.3233   -2.2363    0.0000 N   0  0  0  0  0  0  0  0  0  0  0  0
    2.5928   -1.8238    0.0000 N   0  0  0  0  0  0  0  0  0  0  0  0
    1.8082   -2.9038    0.0000 N   0  0  0  0  0  0  0  0  0  0  0  0
   -2.5928    1.7133    0.0000 N   0  0  0  0  0  0  0  0  0  0  0  0
    0.9100    0.3739    0.0000 C   0  0  0  0  0  0  0  0  0  0  0  0
    1.5947   -0.7720    0.0000 C   0  0  0  0  0  0  0  0  0  0  0  0
    0.2650    0.8883    0.0000 C   0  0  0  0  0  0  0  0  0  0  0  0
    1.8082   -1.5689    0.0000 C   0  0  0  0  0  0  0  0  0  0  0  0
    2.1375   -0.1507    0.0000 C   0  0  0  0  0  0  0  0  0  0  0  0
    0.2650    1.7133    0.0000 C   0  0  0  0  0  0  0  0  0  0  0  0
   -0.4494    0.4758    0.0000 C   0  0  0  0  0  0  0  0  0  0  0  0
    2.0723    1.3008    0.0000 C   0  0  0  0  0  0  0  0  0  0  0  0
   -0.4494    2.1258    0.0000 C   0  0  0  0  0  0  0  0  0  0  0  0
   -1.1639    1.7133    0.0000 C   0  0  0  0  0  0  0  0  0  0  0  0
    0.4983   -2.2363    0.0000 C   0  0  0  0  0  0  0  0  0  0  0  0
   -1.1639    0.8883    0.0000 C   0  0  0  0  0  0  0  0  0  0  0  0
    1.7144    2.0441    0.0000 C   0  0  0  0  0  0  0  0  0  0  0  0
    2.5928   -2.6488    0.0000 C   0  0  0  0  0  0  0  0  0  0  0  0
   -1.8784    2.1258    0.0000 C   0  0  0  0  0  0  0  0  0  0  0  0
    0.0858   -2.9508    0.0000 C   0  0  0  0  0  0  0  0  0  0  0  0
    0.0858   -1.5219    0.0000 C   0  0  0  0  0  0  0  0  0  0  0  0
  1 14  1  0  0  0  0
  1 21  1  0  0  0  0
  2 23  2  0  0  0  0
  3  9  1  0  0  0  0
  3 13  1  0  0  0  0
  3 16  1  0  0  0  0
  4  9  2  0  0  0  0
  4 10  1  0  0  0  0
  5  7  1  0  0  0  0
  5 12  1  0  0  0  0
  5 19  1  0  0  0  0
  6 12  2  0  0  0  0
  6 22  1  0  0  0  0
  7 22  2  0  0  0  0
  8 23  1  0  0  0  0
  9 11  1  0  0  0  0
 10 12  1  0  0  0  0
 10 13  2  0  0  0  0
 11 14  1  0  0  0  0
 11 15  2  0  0  0  0
 14 17  2  0  0  0  0
 15 20  1  0  0  0  0
 16 21  1  0  0  0  0
 17 18  1  0  0  0  0
 18 20  2  0  0  0  0
 18 23  1  0  0  0  0
 19 24  1  0  0  0  0
 19 25  1  0  0  0  0
M  END
> <PUBCHEM_COMPOUND_ID_TYPE>
0

> <PUBCHEM_TOTAL_CHARGE>
0

> <PUBCHEM_SUBSTANCE_ID>
310938868

> <PUBCHEM_SUBSTANCE_VERSION>
1

> <PUBCHEM_EXT_DATASOURCE_NAME>
4488

> <PUBCHEM_EXT_DATASOURCE_REGID>
SCHEMBL16116787

> <PUBCHEM_SUBSTANCE_COMMENT>
InChI=1S/C17H18N6O2/c1-10(2)23-17(19-9-20-23)13-8-22-5-6-25-14-7-11(15(18)24)3-4-12(14)16(22)21-13/h3-4,7-10H,5-6H2,1-2H3,(H2,18,24)
InChIKey=PPUQXCPSJFTMIG-UHFFFAOYSA-N

> <PUBCHEM_SUBSTANCE_SYNONYM>
SCHEMBL16116787

> <PUBCHEM_XREF_EXT_ID>
SCHEMBL16116787

> <PUBCHEM_EXT_DATASOURCE_URL>
https://www.surechembl.org/

> <PUBCHEM_EXT_SUBSTANCE_URL>
https://www.surechembl.org/chemical/SCHEMBL16116787

> <PUBCHEM_CID_ASSOCIATIONS>
117606265  1

> <PUBCHEM_COORDINATE_TYPE>
1
3

$$$$
