310940875
  -OEChem-07211613022D

 31 32  0     1  0  0  0  0  0999 V2000
    2.5334    1.0134    0.0000 O   0  0  0  0  0  0  0  0  0  0  0  0
   -0.3354    0.1855    0.0000 O   0  0  0  0  0  0  0  0  0  0  0  0
    1.8055    2.2551    0.0000 O   0  0  0  0  0  0  0  0  0  0  0  0
   -2.4906    2.2551    0.0000 O   0  0  0  0  0  0  0  0  0  0  0  0
   -5.3736    2.2551    0.0000 O   0  0  0  0  0  0  0  0  0  0  0  0
    0.3782    1.4272    0.0000 N   0  0  0  0  0  0  0  0  0  0  0  0
   -1.7769    1.0134    0.0000 N   0  0  0  0  0  0  0  0  0  0  0  0
   -3.9321    1.4272    0.0000 N   0  0  0  0  0  0  0  0  0  0  0  0
    1.1061    1.0419    0.0000 C   0  0  3  0  0  0  0  0  0  0  0  0
   -0.3354    1.0562    0.0000 C   0  0  0  0  0  0  0  0  0  0  0  0
   -1.0776    1.4558    0.0000 C   0  0  3  0  0  0  0  0  0  0  0  0
    1.8055    1.4272    0.0000 C   0  0  0  0  0  0  0  0  0  0  0  0
   -2.5048    1.4272    0.0000 C   0  0  0  0  0  0  0  0  0  0  0  0
    1.1204    0.2141    0.0000 C   0  0  0  0  0  0  0  0  0  0  0  0
   -3.2042    1.0419    0.0000 C   0  0  0  0  0  0  0  0  0  0  0  0
    0.3925   -0.1998    0.0000 C   0  0  0  0  0  0  0  0  0  0  0  0
    0.3782   -1.0419    0.0000 C   0  0  0  0  0  0  0  0  0  0  0  0
   -3.9321    2.2693    0.0000 C   0  0  0  0  0  0  0  0  0  0  0  0
   -4.6457    1.0419    0.0000 C   0  0  0  0  0  0  0  0  0  0  0  0
   -1.0633    2.2836    0.0000 C   0  0  0  0  0  0  0  0  0  0  0  0
   -0.3354   -1.4558    0.0000 C   0  0  0  0  0  0  0  0  0  0  0  0
    1.0918   -1.4558    0.0000 C   0  0  0  0  0  0  0  0  0  0  0  0
   -4.6600    2.6975    0.0000 C   0  0  0  0  0  0  0  0  0  0  0  0
   -5.3593    1.4558    0.0000 C   0  0  0  0  0  0  0  0  0  0  0  0
    3.2327    1.4130    0.0000 C   0  0  0  0  0  0  0  0  0  0  0  0
   -0.3354   -2.2836    0.0000 C   0  0  0  0  0  0  0  0  0  0  0  0
    1.0918   -2.2836    0.0000 C   0  0  0  0  0  0  0  0  0  0  0  0
    0.3782   -2.6975    0.0000 C   0  0  0  0  0  0  0  0  0  0  0  0
    3.9463    1.0134    0.0000 C   0  0  0  0  0  0  0  0  0  0  0  0
    4.6600    1.4272    0.0000 C   0  0  0  0  0  0  0  0  0  0  0  0
    5.3736    1.0134    0.0000 C   0  0  0  0  0  0  0  0  0  0  0  0
  1 12  1  0  0  0  0
  1 25  1  0  0  0  0
  2 10  2  0  0  0  0
  3 12  2  0  0  0  0
  4 13  2  0  0  0  0
  5 23  1  0  0  0  0
  5 24  1  0  0  0  0
  9  6  1  6  0  0  0
  6 10  1  0  0  0  0
  7 11  1  0  0  0  0
  7 13  1  0  0  0  0
  8 15  1  0  0  0  0
  8 18  1  0  0  0  0
  8 19  1  0  0  0  0
  9 12  1  0  0  0  0
  9 14  1  0  0  0  0
 10 11  1  0  0  0  0
 11 20  1  1  0  0  0
 13 15  1  0  0  0  0
 14 16  1  0  0  0  0
 16 17  1  0  0  0  0
 17 21  2  0  0  0  0
 17 22  1  0  0  0  0
 18 23  1  0  0  0  0
 19 24  1  0  0  0  0
 21 26  1  0  0  0  0
 22 27  2  0  0  0  0
 25 29  1  0  0  0  0
 26 28  2  0  0  0  0
 27 28  1  0  0  0  0
 29 30  1  0  0  0  0
 30 31  1  0  0  0  0
M  END
> <PUBCHEM_COMPOUND_ID_TYPE>
0

> <PUBCHEM_TOTAL_CHARGE>
0

> <PUBCHEM_SUBSTANCE_ID>
310940875

> <PUBCHEM_SUBSTANCE_VERSION>
1

> <PUBCHEM_EXT_DATASOURCE_NAME>
4488

> <PUBCHEM_EXT_DATASOURCE_REGID>
SCHEMBL16118834

> <PUBCHEM_SUBSTANCE_COMMENT>
InChI=1S/C23H35N3O5/c1-3-4-14-31-23(29)20(11-10-19-8-6-5-7-9-19)25-22(28)18(2)24-21(27)17-26-12-15-30-16-13-26/h5-9,18,20H,3-4,10-17H2,1-2H3,(H,24,27)(H,25,28)/t18-,20-/m0/s1
InChIKey=VUUCMTDOYPYDBX-ICSRJNTNSA-N

> <PUBCHEM_SUBSTANCE_SYNONYM>
SCHEMBL16118834

> <PUBCHEM_XREF_EXT_ID>
SCHEMBL16118834

> <PUBCHEM_EXT_DATASOURCE_URL>
https://www.surechembl.org/

> <PUBCHEM_EXT_SUBSTANCE_URL>
https://www.surechembl.org/chemical/SCHEMBL16118834

> <PUBCHEM_CID_ASSOCIATIONS>
117607792  1

> <PUBCHEM_COORDINATE_TYPE>
1
3

> <PUBCHEM_BONDANNOTATIONS>
11  20  5
9  6  6

$$$$
