310940643
  -OEChem-07211613022D

 35 39  0     1  0  0  0  0  0999 V2000
    2.3226   -0.7558    0.0000 O   0  0  0  0  0  0  0  0  0  0  0  0
    2.5424    0.6597    0.0000 O   0  0  0  0  0  0  0  0  0  0  0  0
   -1.8690   -0.8796    0.0000 O   0  0  0  0  0  0  0  0  0  0  0  0
   -3.1471   -2.8173    0.0000 O   0  0  0  0  0  0  0  0  0  0  0  0
    3.1471   -2.1302    0.0000 O   0  0  0  0  0  0  0  0  0  0  0  0
    1.1956   -0.0687    0.0000 N   0  0  0  0  0  0  0  0  0  0  0  0
    1.0307   -2.5562    0.0000 N   0  0  0  0  0  0  0  0  0  0  0  0
   -2.7348   -3.5457    0.0000 N   0  0  0  0  0  0  0  0  0  0  0  0
   -0.7284    3.8892    0.0000 N   0  0  0  0  0  0  0  0  0  0  0  0
    0.9895   -0.8108    0.0000 C   0  0  0  0  0  0  0  0  0  0  0  0
    0.2886   -1.2368    0.0000 C   0  0  0  0  0  0  0  0  0  0  0  0
    1.7178   -1.2231    0.0000 C   0  0  0  0  0  0  0  0  0  0  0  0
    0.2748   -2.0477    0.0000 C   0  0  0  0  0  0  0  0  0  0  0  0
    1.7041   -2.0614    0.0000 C   0  0  0  0  0  0  0  0  0  0  0  0
    1.9789    0.0549    0.0000 C   0  0  0  0  0  0  0  0  0  0  0  0
   -1.1682   -2.0614    0.0000 C   0  0  0  0  0  0  0  0  0  0  0  0
   -0.4398   -0.8245    0.0000 C   0  0  0  0  0  0  0  0  0  0  0  0
    0.5909    0.5634    0.0000 C   0  0  3  0  0  0  0  0  0  0  0  0
   -1.1544   -1.2368    0.0000 C   0  0  0  0  0  0  0  0  0  0  0  0
   -0.4398   -2.4599    0.0000 C   0  0  0  0  0  0  0  0  0  0  0  0
   -1.8828   -2.4737    0.0000 C   0  0  0  0  0  0  0  0  0  0  0  0
    0.7971    1.4018    0.0000 C   0  0  0  0  0  0  0  0  0  0  0  0
    2.4599   -2.4599    0.0000 C   0  0  0  0  0  0  0  0  0  0  0  0
   -2.6249   -2.1302    0.0000 C   0  0  0  0  0  0  0  0  0  0  0  0
   -1.9652   -3.2983    0.0000 C   0  0  0  0  0  0  0  0  0  0  0  0
   -0.1924    0.3711    0.0000 C   0  0  0  0  0  0  0  0  0  0  0  0
    0.2199    1.9515    0.0000 C   0  0  0  0  0  0  0  0  0  0  0  0
    1.5942    1.6079    0.0000 C   0  0  0  0  0  0  0  0  0  0  0  0
    0.4261    2.7760    0.0000 C   0  0  0  0  0  0  0  0  0  0  0  0
   -2.7898   -1.3193    0.0000 C   0  0  0  0  0  0  0  0  0  0  0  0
   -1.3606   -3.8892    0.0000 C   0  0  0  0  0  0  0  0  0  0  0  0
    1.8003    2.4050    0.0000 C   0  0  0  0  0  0  0  0  0  0  0  0
   -1.8828    0.0275    0.0000 C   0  0  0  0  0  0  0  0  0  0  0  0
    1.2231    2.9684    0.0000 C   0  0  0  0  0  0  0  0  0  0  0  0
   -0.1512    3.3533    0.0000 C   0  0  0  0  0  0  0  0  0  0  0  0
  1 12  1  0  0  0  0
  1 15  1  0  0  0  0
  2 15  2  0  0  0  0
  3 19  1  0  0  0  0
  3 33  1  0  0  0  0
  4  8  1  0  0  0  0
  4 24  1  0  0  0  0
  5 23  1  0  0  0  0
  6 10  1  0  0  0  0
  6 15  1  0  0  0  0
  6 18  1  0  0  0  0
  7 13  2  0  0  0  0
  7 14  1  0  0  0  0
  8 25  2  0  0  0  0
  9 35  3  0  0  0  0
 10 11  2  0  0  0  0
 10 12  1  0  0  0  0
 11 13  1  0  0  0  0
 11 17  1  0  0  0  0
 12 14  2  0  0  0  0
 13 20  1  0  0  0  0
 14 23  1  0  0  0  0
 16 19  1  0  0  0  0
 16 20  2  0  0  0  0
 16 21  1  0  0  0  0
 17 19  2  0  0  0  0
 18 22  1  0  0  0  0
 18 26  1  6  0  0  0
 21 24  2  0  0  0  0
 21 25  1  0  0  0  0
 22 27  2  0  0  0  0
 22 28  1  0  0  0  0
 24 30  1  0  0  0  0
 25 31  1  0  0  0  0
 27 29  1  0  0  0  0
 28 32  2  0  0  0  0
 29 34  2  0  0  0  0
 29 35  1  0  0  0  0
 32 34  1  0  0  0  0
M  END
> <PUBCHEM_COMPOUND_ID_TYPE>
0

> <PUBCHEM_TOTAL_CHARGE>
0

> <PUBCHEM_SUBSTANCE_ID>
310940643

> <PUBCHEM_SUBSTANCE_VERSION>
1

> <PUBCHEM_EXT_DATASOURCE_NAME>
4488

> <PUBCHEM_EXT_DATASOURCE_REGID>
SCHEMBL16118598

> <PUBCHEM_SUBSTANCE_COMMENT>
InChI=1S/C26H22N4O5/c1-13-23(15(3)35-29-13)19-9-20-18(10-22(19)33-4)24-25(21(12-31)28-20)34-26(32)30(24)14(2)17-7-5-6-16(8-17)11-27/h5-10,14,31H,12H2,1-4H3/t14-/m1/s1
InChIKey=SJWUCRKQTKVQMV-CQSZACIVSA-N

> <PUBCHEM_SUBSTANCE_SYNONYM>
SCHEMBL16118598

> <PUBCHEM_XREF_EXT_ID>
SCHEMBL16118598

> <PUBCHEM_EXT_DATASOURCE_URL>
https://www.surechembl.org/

> <PUBCHEM_EXT_SUBSTANCE_URL>
https://www.surechembl.org/chemical/SCHEMBL16118598

> <PUBCHEM_CID_ASSOCIATIONS>
117607622  1

> <PUBCHEM_COORDINATE_TYPE>
1
3

> <PUBCHEM_BONDANNOTATIONS>
18  26  6

$$$$
