310940362
  -OEChem-07211613022D

 16 17  0     0  0  0  0  0  0999 V2000
   -2.8411    1.6590    0.0000 Cl  0  0  0  0  0  0  0  0  0  0  0  0
    1.3618   -0.3456    0.0000 O   0  0  0  0  0  0  0  0  0  0  0  0
   -0.3387   -0.1106    0.0000 N   0  0  0  0  0  0  0  0  0  0  0  0
    2.8411    0.5668    0.0000 N   0  0  0  0  0  0  0  0  0  0  0  0
    0.8226   -0.9540    0.0000 C   0  0  0  0  0  0  0  0  0  0  0  0
    2.1360   -0.6637    0.0000 C   0  0  0  0  0  0  0  0  0  0  0  0
   -1.1544   -0.0138    0.0000 C   0  0  0  0  0  0  0  0  0  0  0  0
    1.2511   -1.6590    0.0000 C   0  0  0  0  0  0  0  0  0  0  0  0
   -0.0069   -0.8434    0.0000 C   0  0  0  0  0  0  0  0  0  0  0  0
    2.0392   -1.4930    0.0000 C   0  0  0  0  0  0  0  0  0  0  0  0
   -1.4585    0.7466    0.0000 C   0  0  0  0  0  0  0  0  0  0  0  0
   -2.2742    0.8986    0.0000 C   0  0  0  0  0  0  0  0  0  0  0  0
   -1.6798   -0.6498    0.0000 C   0  0  0  0  0  0  0  0  0  0  0  0
    2.8411   -0.2626    0.0000 C   0  0  0  0  0  0  0  0  0  0  0  0
   -2.7858    0.2488    0.0000 C   0  0  0  0  0  0  0  0  0  0  0  0
   -2.4954   -0.5115    0.0000 C   0  0  0  0  0  0  0  0  0  0  0  0
  1 12  1  0  0  0  0
  2  5  1  0  0  0  0
  2  6  1  0  0  0  0
  3  7  1  0  0  0  0
  3  9  2  0  0  0  0
  4 14  2  3  0  0  0
  5  8  2  0  0  0  0
  5  9  1  0  0  0  0
  6 10  2  0  0  0  0
  6 14  1  0  0  0  0
  7 11  2  0  0  0  0
  7 13  1  0  0  0  0
  8 10  1  0  0  0  0
 11 12  1  0  0  0  0
 12 15  2  0  0  0  0
 13 16  2  0  0  0  0
 15 16  1  0  0  0  0
M  END
> <PUBCHEM_COMPOUND_ID_TYPE>
0

> <PUBCHEM_TOTAL_CHARGE>
0

> <PUBCHEM_SUBSTANCE_ID>
310940362

> <PUBCHEM_SUBSTANCE_VERSION>
1

> <PUBCHEM_EXT_DATASOURCE_NAME>
4488

> <PUBCHEM_EXT_DATASOURCE_REGID>
SCHEMBL16118306

> <PUBCHEM_SUBSTANCE_COMMENT>
InChI=1S/C12H9ClN2O/c13-9-2-1-3-10(6-9)15-8-12-5-4-11(7-14)16-12/h1-8,14H/b14-7?,15-8+
InChIKey=QYVXCMFFAJDLKF-QMAYSTCJSA-N

> <PUBCHEM_SUBSTANCE_SYNONYM>
SCHEMBL16118306

> <PUBCHEM_XREF_EXT_ID>
SCHEMBL16118306

> <PUBCHEM_EXT_DATASOURCE_URL>
https://www.surechembl.org/

> <PUBCHEM_EXT_SUBSTANCE_URL>
https://www.surechembl.org/chemical/SCHEMBL16118306

> <PUBCHEM_CID_ASSOCIATIONS>
117607403  1

> <PUBCHEM_COORDINATE_TYPE>
1
3

> <PUBCHEM_BONDANNOTATIONS>
3  7  3

$$$$
