310937683
  -OEChem-07211613022D

 25 28  0     0  0  0  0  0  0999 V2000
    1.2663   -4.9927    0.0000 O   0  0  0  0  0  0  0  0  0  0  0  0
    2.8582   -2.3879    0.0000 O   0  0  0  0  0  0  0  0  0  0  0  0
    3.5817    0.0000    0.0000 O   0  0  0  0  0  0  0  0  0  0  0  0
    0.4703   -2.9667    0.0000 N   0  0  0  0  0  0  0  0  0  0  0  0
    0.0000   -4.5948    0.0000 N   0  0  0  0  0  0  0  0  0  0  0  0
    0.0000   -5.3907    0.0000 N   0  0  0  0  0  0  0  0  0  0  0  0
    1.5195   -1.9899    0.0000 C   0  0  0  0  0  0  0  0  0  0  0  0
    1.0130   -3.5456    0.0000 C   0  0  0  0  0  0  0  0  0  0  0  0
    2.0622   -2.5688    0.0000 C   0  0  0  0  0  0  0  0  0  0  0  0
    0.7598   -4.3415    0.0000 C   0  0  0  0  0  0  0  0  0  0  0  0
    1.7728   -1.1939    0.0000 C   0  0  0  0  0  0  0  0  0  0  0  0
    0.7598   -5.6802    0.0000 C   0  0  0  0  0  0  0  0  0  0  0  0
    1.8451   -3.4009    0.0000 C   0  0  0  0  0  0  0  0  0  0  0  0
    0.6874   -2.1346    0.0000 C   0  0  0  0  0  0  0  0  0  0  0  0
    1.0130   -6.4399    0.0000 C   0  0  0  0  0  0  0  0  0  0  0  0
    1.6281   -0.3980    0.0000 C   0  0  0  0  0  0  0  0  0  0  0  0
    2.3879   -0.6512    0.0000 C   0  0  0  0  0  0  0  0  0  0  0  0
    3.1114   -1.5919    0.0000 C   0  0  0  0  0  0  0  0  0  0  0  0
    0.2171   -6.7294    0.0000 C   0  0  0  0  0  0  0  0  0  0  0  0
    1.2663   -7.2359    0.0000 C   0  0  0  0  0  0  0  0  0  0  0  0
    1.8090   -6.1867    0.0000 C   0  0  0  0  0  0  0  0  0  0  0  0
    3.9073   -1.3748    0.0000 C   0  0  0  0  0  0  0  0  0  0  0  0
    2.5688   -0.9768    0.0000 C   0  0  0  0  0  0  0  0  0  0  0  0
    4.1606   -0.6150    0.0000 C   0  0  0  0  0  0  0  0  0  0  0  0
    2.7858   -0.2171    0.0000 C   0  0  0  0  0  0  0  0  0  0  0  0
  1 10  1  0  0  0  0
  1 12  1  0  0  0  0
  2  9  1  0  0  0  0
  2 18  1  0  0  0  0
  3 24  1  0  0  0  0
  3 25  1  0  0  0  0
  4  8  1  0  0  0  0
  4 14  2  0  0  0  0
  5  6  1  0  0  0  0
  5 10  2  0  0  0  0
  6 12  2  0  0  0  0
  7  9  2  0  0  0  0
  7 11  1  0  0  0  0
  7 14  1  0  0  0  0
  8 10  1  0  0  0  0
  8 13  2  0  0  0  0
  9 13  1  0  0  0  0
 11 16  1  0  0  0  0
 11 17  1  0  0  0  0
 12 15  1  0  0  0  0
 15 19  1  0  0  0  0
 15 20  1  0  0  0  0
 15 21  1  0  0  0  0
 16 17  1  0  0  0  0
 18 22  1  0  0  0  0
 18 23  1  0  0  0  0
 22 24  1  0  0  0  0
 23 25  1  0  0  0  0
M  END
> <PUBCHEM_COMPOUND_ID_TYPE>
0

> <PUBCHEM_TOTAL_CHARGE>
0

> <PUBCHEM_SUBSTANCE_ID>
310937683

> <PUBCHEM_SUBSTANCE_VERSION>
1

> <PUBCHEM_EXT_DATASOURCE_NAME>
4488

> <PUBCHEM_EXT_DATASOURCE_REGID>
SCHEMBL16115475

> <PUBCHEM_SUBSTANCE_COMMENT>
InChI=1S/C19H25N3O3/c1-19(2,3)18-22-21-17(25-18)15-10-16(14(11-20-15)12-4-5-12)24-13-6-8-23-9-7-13/h10-13H,4-9H2,1-3H3
InChIKey=XJXRVGULPJQRKD-UHFFFAOYSA-N

> <PUBCHEM_SUBSTANCE_SYNONYM>
SCHEMBL16115475

> <PUBCHEM_XREF_EXT_ID>
SCHEMBL16115475

> <PUBCHEM_EXT_DATASOURCE_URL>
https://www.surechembl.org/

> <PUBCHEM_EXT_SUBSTANCE_URL>
https://www.surechembl.org/chemical/SCHEMBL16115475

> <PUBCHEM_CID_ASSOCIATIONS>
117605366  1

> <PUBCHEM_COORDINATE_TYPE>
1
3

$$$$
