310948636
  -OEChem-07211613022D

 31 35  0     1  0  0  0  0  0999 V2000
   -2.6016    1.7684    0.0000 O   0  0  0  0  0  0  0  0  0  0  0  0
   -1.2684   -3.4534    0.0000 O   0  0  0  0  0  0  0  0  0  0  0  0
    0.1759    1.6388    0.0000 N   0  0  0  0  0  0  0  0  0  0  0  0
   -0.1574    0.8796    0.0000 N   0  0  0  0  0  0  0  0  0  0  0  0
   -1.5462    0.3611    0.0000 N   0  0  0  0  0  0  0  0  0  0  0  0
   -1.8794    3.0275    0.0000 N   0  0  0  0  0  0  0  0  0  0  0  0
    0.1204   -3.0646    0.0000 N   0  0  0  0  0  0  0  0  0  0  0  0
    1.0277   -0.3796    0.0000 N   0  0  0  0  0  0  0  0  0  0  0  0
   -1.1388    1.7869    0.0000 C   0  0  0  0  0  0  0  0  0  0  0  0
   -0.4536    2.1942    0.0000 C   0  0  0  0  0  0  0  0  0  0  0  0
   -0.9907    0.9907    0.0000 C   0  0  0  0  0  0  0  0  0  0  0  0
    0.9722    1.8054    0.0000 C   0  0  3  0  0  0  0  0  0  0  0  0
   -1.8794    2.2128    0.0000 C   0  0  0  0  0  0  0  0  0  0  0  0
   -0.4351    3.0275    0.0000 C   0  0  0  0  0  0  0  0  0  0  0  0
   -1.3239   -0.4351    0.0000 C   0  0  0  0  0  0  0  0  0  0  0  0
   -0.3241   -1.4536    0.0000 C   0  0  0  0  0  0  0  0  0  0  0  0
    1.5276    1.2128    0.0000 C   0  0  3  0  0  0  0  0  0  0  0  0
    0.5092   -1.6758    0.0000 C   0  0  0  0  0  0  0  0  0  0  0  0
   -0.8981   -2.0462    0.0000 C   0  0  0  0  0  0  0  0  0  0  0  0
   -0.5277   -0.6759    0.0000 C   0  0  0  0  0  0  0  0  0  0  0  0
   -1.1573    3.4534    0.0000 C   0  0  0  0  0  0  0  0  0  0  0  0
    1.2499    2.6016    0.0000 C   0  0  0  0  0  0  0  0  0  0  0  0
   -1.8980   -1.0277    0.0000 C   0  0  0  0  0  0  0  0  0  0  0  0
   -1.6943   -1.8239    0.0000 C   0  0  0  0  0  0  0  0  0  0  0  0
    1.2684   -1.4721    0.0000 C   0  0  0  0  0  0  0  0  0  0  0  0
    1.0833   -2.2313    0.0000 C   0  0  0  0  0  0  0  0  0  0  0  0
    2.3424    1.3795    0.0000 C   0  0  0  0  0  0  0  0  0  0  0  0
   -0.6944   -2.8053    0.0000 C   0  0  0  0  0  0  0  0  0  0  0  0
    1.2684    0.4351    0.0000 C   0  0  0  0  0  0  0  0  0  0  0  0
    2.0462    2.7683    0.0000 C   0  0  0  0  0  0  0  0  0  0  0  0
    2.6016    2.1757    0.0000 C   0  0  0  0  0  0  0  0  0  0  0  0
  1 13  2  0  0  0  0
  2 28  2  0  0  0  0
  3  4  1  0  0  0  0
  3 10  1  0  0  0  0
 12  3  1  1  0  0  0
  4 11  2  0  0  0  0
  5 11  1  0  0  0  0
  5 15  1  0  0  0  0
  6 13  1  0  0  0  0
  6 21  1  0  0  0  0
  7 28  1  0  0  0  0
  8 29  3  0  0  0  0
  9 10  2  0  0  0  0
  9 11  1  0  0  0  0
  9 13  1  0  0  0  0
 10 14  1  0  0  0  0
 12 17  1  0  0  0  0
 12 22  1  0  0  0  0
 14 21  2  0  0  0  0
 15 20  1  0  0  0  0
 15 23  2  0  0  0  0
 16 18  1  0  0  0  0
 16 19  1  0  0  0  0
 16 20  2  0  0  0  0
 17 27  1  0  0  0  0
 17 29  1  6  0  0  0
 18 25  1  0  0  0  0
 18 26  1  0  0  0  0
 19 24  2  0  0  0  0
 19 28  1  0  0  0  0
 22 30  1  0  0  0  0
 23 24  1  0  0  0  0
 25 26  1  0  0  0  0
 27 31  1  0  0  0  0
 30 31  1  0  0  0  0
M  END
> <PUBCHEM_COMPOUND_ID_TYPE>
0

> <PUBCHEM_TOTAL_CHARGE>
0

> <PUBCHEM_SUBSTANCE_ID>
310948636

> <PUBCHEM_SUBSTANCE_VERSION>
1

> <PUBCHEM_EXT_DATASOURCE_NAME>
4488

> <PUBCHEM_EXT_DATASOURCE_REGID>
SCHEMBL16126820

> <PUBCHEM_SUBSTANCE_COMMENT>
InChI=1S/C23H24N6O2/c24-12-14-3-1-2-4-18(14)29-19-9-10-26-23(31)20(19)22(28-29)27-15-7-8-16(21(25)30)17(11-15)13-5-6-13/h7-11,13-14,18H,1-6H2,(H2,25,30)(H,26,31)(H,27,28)/t14-,18+/m1/s1
InChIKey=SBZAVTKPRPRJRF-KDOFPFPSSA-N

> <PUBCHEM_SUBSTANCE_SYNONYM>
SCHEMBL16126820

> <PUBCHEM_XREF_EXT_ID>
SCHEMBL16126820

> <PUBCHEM_EXT_DATASOURCE_URL>
https://www.surechembl.org/

> <PUBCHEM_EXT_SUBSTANCE_URL>
https://www.surechembl.org/chemical/SCHEMBL16126820

> <PUBCHEM_CID_ASSOCIATIONS>
117614180  1

> <PUBCHEM_COORDINATE_TYPE>
1
3

> <PUBCHEM_BONDANNOTATIONS>
17  29  6
12  3  5

$$$$
