310933574
  -OEChem-07211613022D

 14 14  0     0  0  0  0  0  0999 V2000
    1.2173   -2.0339    0.0000 S   0  0  0  0  0  0  0  0  0  0  0  0
    3.4739    0.0000    0.0000 O   0  0  0  0  0  0  0  0  0  0  0  0
    4.1865   -1.2470    0.0000 O   0  0  0  0  0  0  0  0  0  0  0  0
    2.7613   -2.0784    0.0000 N   0  0  0  0  0  0  0  0  0  0  0  0
    3.4739   -2.4941    0.0000 N   0  3  0  0  0  0  0  0  0  0  0  0
    4.1865   -2.9098    0.0000 N   0  5  0  0  0  0  0  0  0  0  0  0
    1.3213   -1.2322    0.0000 C   0  0  0  0  0  0  0  0  0  0  0  0
    2.7613   -1.2470    0.0000 C   0  0  0  0  0  0  0  0  0  0  0  0
    2.0339   -0.8165    0.0000 C   0  0  0  0  0  0  0  0  0  0  0  0
    0.4008   -2.2269    0.0000 C   0  0  0  0  0  0  0  0  0  0  0  0
    0.5642   -0.8908    0.0000 C   0  0  0  0  0  0  0  0  0  0  0  0
    3.4739   -0.8314    0.0000 C   0  0  0  0  0  0  0  0  0  0  0  0
    0.0000   -1.4846    0.0000 C   0  0  0  0  0  0  0  0  0  0  0  0
    0.0594   -2.9692    0.0000 C   0  0  0  0  0  0  0  0  0  0  0  0
  1  7  1  0  0  0  0
  1 10  1  0  0  0  0
  2 12  2  0  0  0  0
  3 12  1  0  0  0  0
  4  5  2  0  0  0  0
  4  8  1  0  0  0  0
  5  6  2  0  0  0  0
  7  9  1  0  0  0  0
  7 11  2  0  0  0  0
  8  9  2  0  0  0  0
  8 12  1  0  0  0  0
 10 13  2  0  0  0  0
 10 14  1  0  0  0  0
 11 13  1  0  0  0  0
M  CHG  2   5   1   6  -1
M  END
> <PUBCHEM_COMPOUND_ID_TYPE>
0

> <PUBCHEM_TOTAL_CHARGE>
0

> <PUBCHEM_SUBSTANCE_ID>
310933574

> <PUBCHEM_SUBSTANCE_VERSION>
1

> <PUBCHEM_EXT_DATASOURCE_NAME>
4488

> <PUBCHEM_EXT_DATASOURCE_REGID>
SCHEMBL16111001

> <PUBCHEM_SUBSTANCE_COMMENT>
InChI=1S/C8H7N3O2S/c1-5-2-3-6(14-5)4-7(8(12)13)10-11-9/h2-4H,1H3,(H,12,13)/b7-4-
InChIKey=QSSXFWAXOAKIKK-DAXSKMNVSA-N

> <PUBCHEM_SUBSTANCE_SYNONYM>
SCHEMBL16111001

> <PUBCHEM_XREF_EXT_ID>
SCHEMBL16111001

> <PUBCHEM_EXT_DATASOURCE_URL>
https://www.surechembl.org/

> <PUBCHEM_EXT_SUBSTANCE_URL>
https://www.surechembl.org/chemical/SCHEMBL16111001

> <PUBCHEM_CID_ASSOCIATIONS>
117601957  1

> <PUBCHEM_COORDINATE_TYPE>
1
3

$$$$
