310948676
  -OEChem-07211613022D

 34 38  0     1  0  0  0  0  0999 V2000
    1.9660    3.4370    0.0000 F   0  0  0  0  0  0  0  0  0  0  0  0
    2.7771    2.6947    0.0000 F   0  0  0  0  0  0  0  0  0  0  0  0
   -2.7771    1.9385    0.0000 O   0  0  0  0  0  0  0  0  0  0  0  0
   -1.1411   -3.3271    0.0000 O   0  0  0  0  0  0  0  0  0  0  0  0
   -0.0138    1.7873    0.0000 N   0  0  0  0  0  0  0  0  0  0  0  0
   -0.3575    1.0311    0.0000 N   0  0  0  0  0  0  0  0  0  0  0  0
   -1.7323    0.5224    0.0000 N   0  0  0  0  0  0  0  0  0  0  0  0
   -2.0485    3.1758    0.0000 N   0  0  0  0  0  0  0  0  0  0  0  0
    0.0550   -2.8184    0.0000 N   0  0  0  0  0  0  0  0  0  0  0  0
    1.2236   -0.2337    0.0000 N   0  0  0  0  0  0  0  0  0  0  0  0
   -0.6324    2.3510    0.0000 C   0  0  0  0  0  0  0  0  0  0  0  0
   -1.3473    1.9385    0.0000 C   0  0  0  0  0  0  0  0  0  0  0  0
    0.7974    1.9522    0.0000 C   0  0  3  0  0  0  0  0  0  0  0  0
   -1.1823    1.1549    0.0000 C   0  0  0  0  0  0  0  0  0  0  0  0
    1.4160    1.4023    0.0000 C   0  0  3  0  0  0  0  0  0  0  0  0
    1.9660    2.6122    0.0000 C   0  0  0  0  0  0  0  0  0  0  0  0
   -2.0622    2.3647    0.0000 C   0  0  0  0  0  0  0  0  0  0  0  0
    1.1411    2.6947    0.0000 C   0  0  0  0  0  0  0  0  0  0  0  0
   -0.6186    3.1484    0.0000 C   0  0  0  0  0  0  0  0  0  0  0  0
    2.1172    1.8010    0.0000 C   0  0  0  0  0  0  0  0  0  0  0  0
   -1.4848   -0.2613    0.0000 C   0  0  0  0  0  0  0  0  0  0  0  0
   -1.3611    3.5745    0.0000 C   0  0  0  0  0  0  0  0  0  0  0  0
    1.3061    0.5912    0.0000 C   0  0  0  0  0  0  0  0  0  0  0  0
   -0.9761   -1.8422    0.0000 C   0  0  0  0  0  0  0  0  0  0  0  0
   -0.6737   -0.4399    0.0000 C   0  0  0  0  0  0  0  0  0  0  0  0
   -0.4262   -1.2236    0.0000 C   0  0  0  0  0  0  0  0  0  0  0  0
   -2.0210   -0.8524    0.0000 C   0  0  0  0  0  0  0  0  0  0  0  0
   -0.7286   -2.5847    0.0000 C   0  0  0  0  0  0  0  0  0  0  0  0
   -1.7873   -1.6498    0.0000 C   0  0  0  0  0  0  0  0  0  0  0  0
    0.3987   -1.3886    0.0000 C   0  0  0  0  0  0  0  0  0  0  0  0
    0.3437   -3.5745    0.0000 C   0  0  0  0  0  0  0  0  0  0  0  0
    0.6874   -2.3097    0.0000 C   0  0  0  0  0  0  0  0  0  0  0  0
    1.1549   -3.5470    0.0000 C   0  0  0  0  0  0  0  0  0  0  0  0
    1.3749   -2.7634    0.0000 C   0  0  0  0  0  0  0  0  0  0  0  0
  1 16  1  0  0  0  0
  2 16  1  0  0  0  0
  3 17  2  0  0  0  0
  4 28  2  0  0  0  0
  5  6  1  0  0  0  0
  5 11  1  0  0  0  0
 13  5  1  1  0  0  0
  6 14  2  0  0  0  0
  7 14  1  0  0  0  0
  7 21  1  0  0  0  0
  8 17  1  0  0  0  0
  8 22  1  0  0  0  0
  9 28  1  0  0  0  0
  9 31  1  0  0  0  0
  9 32  1  0  0  0  0
 10 23  3  0  0  0  0
 11 12  2  0  0  0  0
 11 19  1  0  0  0  0
 12 14  1  0  0  0  0
 12 17  1  0  0  0  0
 13 15  1  0  0  0  0
 13 18  1  0  0  0  0
 15 20  1  0  0  0  0
 15 23  1  6  0  0  0
 16 18  1  0  0  0  0
 16 20  1  0  0  0  0
 19 22  2  0  0  0  0
 21 25  1  0  0  0  0
 21 27  2  0  0  0  0
 24 26  1  0  0  0  0
 24 28  1  0  0  0  0
 24 29  2  0  0  0  0
 25 26  2  0  0  0  0
 26 30  1  0  0  0  0
 27 29  1  0  0  0  0
 31 33  1  0  0  0  0
 32 34  1  0  0  0  0
 33 34  1  0  0  0  0
M  END
> <PUBCHEM_COMPOUND_ID_TYPE>
0

> <PUBCHEM_TOTAL_CHARGE>
0

> <PUBCHEM_SUBSTANCE_ID>
310948676

> <PUBCHEM_SUBSTANCE_VERSION>
1

> <PUBCHEM_EXT_DATASOURCE_NAME>
4488

> <PUBCHEM_EXT_DATASOURCE_REGID>
SCHEMBL16126860

> <PUBCHEM_SUBSTANCE_COMMENT>
InChI=1S/C24H24F2N6O2/c1-14-10-16(4-5-17(14)23(34)31-8-2-3-9-31)29-21-20-18(6-7-28-22(20)33)32(30-21)19-12-24(25,26)11-15(19)13-27/h4-7,10,15,19H,2-3,8-9,11-12H2,1H3,(H,28,33)(H,29,30)/t15-,19+/m1/s1
InChIKey=IIBGSSDECOOUPY-BEFAXECRSA-N

> <PUBCHEM_SUBSTANCE_SYNONYM>
SCHEMBL16126860

> <PUBCHEM_XREF_EXT_ID>
SCHEMBL16126860

> <PUBCHEM_EXT_DATASOURCE_URL>
https://www.surechembl.org/

> <PUBCHEM_EXT_SUBSTANCE_URL>
https://www.surechembl.org/chemical/SCHEMBL16126860

> <PUBCHEM_CID_ASSOCIATIONS>
117614217  1

> <PUBCHEM_COORDINATE_TYPE>
1
3

> <PUBCHEM_BONDANNOTATIONS>
15  23  6
13  5  5

$$$$
