310947473
  -OEChem-07211613022D

 26 28  0     0  0  0  0  0  0999 V2000
    2.6589   -0.7963    0.0000 O   0  0  0  0  0  0  0  0  0  0  0  0
    1.4213   -0.0818    0.0000 O   0  0  0  0  0  0  0  0  0  0  0  0
   -0.7924   -1.7658    0.0000 O   0  0  0  0  0  0  0  0  0  0  0  0
    0.6365   -2.5909    0.0000 N   0  0  0  0  0  0  0  0  0  0  0  0
   -1.5069   -3.0033    0.0000 N   0  0  0  0  0  0  0  0  0  0  0  0
    1.4213   -2.8457    0.0000 C   0  0  0  0  0  0  0  0  0  0  0  0
    1.9062   -2.1782    0.0000 C   0  0  0  0  0  0  0  0  0  0  0  0
    1.4213   -1.5108    0.0000 C   0  0  0  0  0  0  0  0  0  0  0  0
    0.6365   -1.7658    0.0000 C   0  0  0  0  0  0  0  0  0  0  0  0
   -0.0779   -3.0033    0.0000 C   0  0  0  0  0  0  0  0  0  0  0  0
    1.8338   -0.7963    0.0000 C   0  0  0  0  0  0  0  0  0  0  0  0
    1.7569   -3.5994    0.0000 C   0  0  0  0  0  0  0  0  0  0  0  0
    2.7268   -2.2645    0.0000 C   0  0  0  0  0  0  0  0  0  0  0  0
   -0.7924   -2.5909    0.0000 C   0  0  0  0  0  0  0  0  0  0  0  0
    2.5774   -3.6856    0.0000 C   0  0  0  0  0  0  0  0  0  0  0  0
    3.0623   -3.0182    0.0000 C   0  0  0  0  0  0  0  0  0  0  0  0
   -1.5069   -3.8283    0.0000 C   0  0  0  0  0  0  0  0  0  0  0  0
   -2.2213   -2.5909    0.0000 C   0  0  0  0  0  0  0  0  0  0  0  0
   -2.2213   -4.2409    0.0000 C   0  0  0  0  0  0  0  0  0  0  0  0
   -0.7924   -4.2409    0.0000 C   0  0  0  0  0  0  0  0  0  0  0  0
   -2.2213   -5.0659    0.0000 C   0  0  0  0  0  0  0  0  0  0  0  0
   -0.7924   -5.0659    0.0000 C   0  0  0  0  0  0  0  0  0  0  0  0
   -2.2213   -1.7658    0.0000 C   0  0  0  0  0  0  0  0  0  0  0  0
    3.1303    0.0202    0.0000 C   0  0  0  0  0  0  0  0  0  0  0  0
   -1.5069   -5.4784    0.0000 C   0  0  0  0  0  0  0  0  0  0  0  0
   -2.9359   -1.3532    0.0000 C   0  0  0  0  0  0  0  0  0  0  0  0
  1 11  1  0  0  0  0
  1 24  1  0  0  0  0
  2 11  2  0  0  0  0
  3 14  2  0  0  0  0
  4  6  1  0  0  0  0
  4  9  1  0  0  0  0
  4 10  1  0  0  0  0
  5 14  1  0  0  0  0
  5 17  1  0  0  0  0
  5 18  1  0  0  0  0
  6  7  2  0  0  0  0
  6 12  1  0  0  0  0
  7  8  1  0  0  0  0
  7 13  1  0  0  0  0
  8  9  2  0  0  0  0
  8 11  1  0  0  0  0
 10 14  1  0  0  0  0
 12 15  2  0  0  0  0
 13 16  2  0  0  0  0
 15 16  1  0  0  0  0
 17 19  2  0  0  0  0
 17 20  1  0  0  0  0
 18 23  1  0  0  0  0
 19 21  1  0  0  0  0
 20 22  2  0  0  0  0
 21 25  2  0  0  0  0
 22 25  1  0  0  0  0
 23 26  1  0  0  0  0
M  END
> <PUBCHEM_COMPOUND_ID_TYPE>
0

> <PUBCHEM_TOTAL_CHARGE>
0

> <PUBCHEM_SUBSTANCE_ID>
310947473

> <PUBCHEM_SUBSTANCE_VERSION>
1

> <PUBCHEM_EXT_DATASOURCE_NAME>
4488

> <PUBCHEM_EXT_DATASOURCE_REGID>
SCHEMBL16125634

> <PUBCHEM_SUBSTANCE_COMMENT>
InChI=1S/C21H22N2O3/c1-3-13-23(16-9-5-4-6-10-16)20(24)15-22-14-18(21(25)26-2)17-11-7-8-12-19(17)22/h4-12,14H,3,13,15H2,1-2H3
InChIKey=FFYGTYVQYGHKTF-UHFFFAOYSA-N

> <PUBCHEM_SUBSTANCE_SYNONYM>
SCHEMBL16125634

> <PUBCHEM_XREF_EXT_ID>
SCHEMBL16125634

> <PUBCHEM_EXT_DATASOURCE_URL>
https://www.surechembl.org/

> <PUBCHEM_EXT_SUBSTANCE_URL>
https://www.surechembl.org/chemical/SCHEMBL16125634

> <PUBCHEM_CID_ASSOCIATIONS>
117613204  1

> <PUBCHEM_COORDINATE_TYPE>
1
3

$$$$
