310942685
  -OEChem-07211613022D

 54 59  0     1  0  0  0  0  0999 V2000
   -2.9028    3.3725    0.0000 F   0  0  0  0  0  0  0  0  0  0  0  0
   -2.9028    0.0470    0.0000 F   0  0  0  0  0  0  0  0  0  0  0  0
    3.6167    2.2264    0.0000 F   0  0  0  0  0  0  0  0  0  0  0  0
   -0.1409    1.3810    0.0000 O   0  0  0  0  0  0  0  0  0  0  0  0
    1.9446    5.0070    0.0000 O   0  0  0  0  0  0  0  0  0  0  0  0
    0.7046   -1.5124    0.0000 O   0  0  0  0  0  0  0  0  0  0  0  0
   -0.0470   -6.0591    0.0000 O   0  0  0  0  0  0  0  0  0  0  0  0
    2.5082   -4.5749    0.0000 O   0  0  0  0  0  0  0  0  0  0  0  0
    1.9446   -2.2264    0.0000 O   0  0  0  0  0  0  0  0  0  0  0  0
   -0.5543    3.5604    0.0000 N   0  0  0  0  0  0  0  0  0  0  0  0
    1.1179    2.0949    0.0000 N   0  0  0  0  0  0  0  0  0  0  0  0
   -0.7046    2.2076    0.0000 N   0  0  0  0  0  0  0  0  0  0  0  0
    1.1179    0.6670    0.0000 N   0  0  0  0  0  0  0  0  0  0  0  0
    2.9779    0.1785    0.0000 N   0  0  0  0  0  0  0  0  0  0  0  0
    1.1179   -5.1198    0.0000 N   0  0  0  0  0  0  0  0  0  0  0  0
    0.6857   -2.9403    0.0000 N   0  0  0  0  0  0  0  0  0  0  0  0
   -0.1409    2.8464    0.0000 C   0  0  0  0  0  0  0  0  0  0  0  0
    0.6857    2.8276    0.0000 C   0  0  3  0  0  0  0  0  0  0  0  0
   -1.4749    2.5646    0.0000 C   0  0  0  0  0  0  0  0  0  0  0  0
    1.1179    3.5604    0.0000 C   0  0  0  0  0  0  0  0  0  0  0  0
   -1.3621    3.3725    0.0000 C   0  0  0  0  0  0  0  0  0  0  0  0
   -2.1888    2.1325    0.0000 C   0  0  0  0  0  0  0  0  0  0  0  0
    0.7046    1.3810    0.0000 C   0  0  0  0  0  0  0  0  0  0  0  0
   -0.1409    4.2555    0.0000 C   0  0  0  0  0  0  0  0  0  0  0  0
    1.9633    2.0949    0.0000 C   0  0  0  0  0  0  0  0  0  0  0  0
   -2.9028    2.5458    0.0000 C   0  0  0  0  0  0  0  0  0  0  0  0
   -2.1888    1.2869    0.0000 C   0  0  0  0  0  0  0  0  0  0  0  0
    2.3579    1.3997    0.0000 C   0  0  3  0  0  0  0  0  0  0  0  0
    0.7046    4.2743    0.0000 C   0  0  0  0  0  0  0  0  0  0  0  0
    1.9446    3.5416    0.0000 C   0  0  0  0  0  0  0  0  0  0  0  0
   -0.5730    5.0070    0.0000 C   0  0  0  0  0  0  0  0  0  0  0  0
   -2.9028    0.8924    0.0000 C   0  0  0  0  0  0  0  0  0  0  0  0
   -3.6167    2.1325    0.0000 C   0  0  0  0  0  0  0  0  0  0  0  0
    3.1846    1.4937    0.0000 C   0  0  3  0  0  0  0  0  0  0  0  0
   -3.6167    1.2869    0.0000 C   0  0  0  0  0  0  0  0  0  0  0  0
    1.1179    5.0070    0.0000 C   0  0  0  0  0  0  0  0  0  0  0  0
    2.3579    4.3119    0.0000 C   0  0  0  0  0  0  0  0  0  0  0  0
    2.2640    0.5918    0.0000 C   0  0  0  0  0  0  0  0  0  0  0  0
   -1.3810    5.0070    0.0000 C   0  0  0  0  0  0  0  0  0  0  0  0
   -0.1597    5.7210    0.0000 C   0  0  0  0  0  0  0  0  0  0  0  0
    0.7046   -0.0658    0.0000 C   0  0  3  0  0  0  0  0  0  0  0  0
    3.5604    0.7797    0.0000 C   0  0  0  0  0  0  0  0  0  0  0  0
   -1.7943    5.7210    0.0000 C   0  0  0  0  0  0  0  0  0  0  0  0
   -0.5543    6.4349    0.0000 C   0  0  0  0  0  0  0  0  0  0  0  0
    1.0991   -0.7797    0.0000 C   0  0  0  0  0  0  0  0  0  0  0  0
   -1.3810    6.4349    0.0000 C   0  0  0  0  0  0  0  0  0  0  0  0
   -0.1221   -0.0658    0.0000 C   0  0  0  0  0  0  0  0  0  0  0  0
    0.7797   -5.8713    0.0000 C   0  0  0  0  0  0  0  0  0  0  0  0
    1.9258   -5.2325    0.0000 C   0  0  0  0  0  0  0  0  0  0  0  0
    1.0803   -2.2264    0.0000 C   0  0  0  0  0  0  0  0  0  0  0  0
    1.3997   -6.4349    0.0000 C   0  0  0  0  0  0  0  0  0  0  0  0
    2.0949   -6.0216    0.0000 C   0  0  0  0  0  0  0  0  0  0  0  0
    0.7046   -4.4058    0.0000 C   0  0  0  0  0  0  0  0  0  0  0  0
    1.1179   -3.6730    0.0000 C   0  0  0  0  0  0  0  0  0  0  0  0
  1 26  1  0  0  0  0
  2 32  1  0  0  0  0
 34  3  1  1  0  0  0
  4 23  2  0  0  0  0
  5 36  1  0  0  0  0
  5 37  1  0  0  0  0
  6 45  1  0  0  0  0
  6 50  1  0  0  0  0
  7 48  2  0  0  0  0
  8 49  2  0  0  0  0
  9 50  2  0  0  0  0
 10 17  1  0  0  0  0
 10 21  1  0  0  0  0
 10 24  1  0  0  0  0
 18 11  1  1  0  0  0
 11 23  1  0  0  0  0
 11 25  1  0  0  0  0
 12 17  2  0  0  0  0
 12 19  1  0  0  0  0
 13 23  1  0  0  0  0
 13 41  1  0  0  0  0
 14 38  1  0  0  0  0
 14 42  1  0  0  0  0
 15 48  1  0  0  0  0
 15 49  1  0  0  0  0
 15 53  1  0  0  0  0
 16 50  1  0  0  0  0
 16 54  1  0  0  0  0
 17 18  1  0  0  0  0
 18 20  1  0  0  0  0
 19 21  2  0  0  0  0
 19 22  1  0  0  0  0
 20 29  1  0  0  0  0
 20 30  1  0  0  0  0
 22 26  1  0  0  0  0
 22 27  2  0  0  0  0
 24 31  1  0  0  0  0
 28 25  1  1  0  0  0
 26 33  2  0  0  0  0
 27 32  1  0  0  0  0
 28 34  1  0  0  0  0
 28 38  1  0  0  0  0
 29 36  1  0  0  0  0
 30 37  1  0  0  0  0
 31 39  2  0  0  0  0
 31 40  1  0  0  0  0
 32 35  2  0  0  0  0
 33 35  1  0  0  0  0
 34 42  1  0  0  0  0
 39 43  1  0  0  0  0
 40 44  2  0  0  0  0
 41 45  1  0  0  0  0
 41 47  1  6  0  0  0
 43 46  2  0  0  0  0
 44 46  1  0  0  0  0
 48 51  1  0  0  0  0
 49 52  1  0  0  0  0
 51 52  2  0  0  0  0
 53 54  1  0  0  0  0
M  END
> <PUBCHEM_COMPOUND_ID_TYPE>
0

> <PUBCHEM_TOTAL_CHARGE>
0

> <PUBCHEM_SUBSTANCE_ID>
310942685

> <PUBCHEM_SUBSTANCE_VERSION>
1

> <PUBCHEM_EXT_DATASOURCE_NAME>
4488

> <PUBCHEM_EXT_DATASOURCE_REGID>
SCHEMBL16120731

> <PUBCHEM_SUBSTANCE_COMMENT>
InChI=1S/C38H44F3N7O6/c1-24(23-54-38(52)43-13-14-47-33(49)9-10-34(47)50)44-37(51)48(21-27-18-42-19-31(27)41)35(26-11-15-53-16-12-26)36-45-32(29-17-28(39)7-8-30(29)40)22-46(36)20-25-5-3-2-4-6-25/h2-10,17,22,24,26-27,31,35,42H,11-16,18-21,23H2,1H3,(H,43,52)(H,44,51)/t24-,27-,31-,35+/m0/s1
InChIKey=AKLBNAHIPBQZBY-MZCYQSHYSA-N

> <PUBCHEM_SUBSTANCE_SYNONYM>
SCHEMBL16120731

> <PUBCHEM_XREF_EXT_ID>
SCHEMBL16120731

> <PUBCHEM_EXT_DATASOURCE_URL>
https://www.surechembl.org/

> <PUBCHEM_EXT_SUBSTANCE_URL>
https://www.surechembl.org/chemical/SCHEMBL16120731

> <PUBCHEM_CID_ASSOCIATIONS>
117609213  1

> <PUBCHEM_COORDINATE_TYPE>
1
3

> <PUBCHEM_BONDANNOTATIONS>
18  11  5
28  25  5
34  3  5
41  47  6

$$$$
