310945564
  -OEChem-07211613022D

 25 28  0     0  0  0  0  0  0999 V2000
    2.8490    3.0166    0.0000 F   0  0  0  0  0  0  0  0  0  0  0  0
   -2.2952    1.4427    0.0000 O   0  0  0  0  0  0  0  0  0  0  0  0
    0.5174    0.6995    0.0000 N   0  0  0  0  0  0  0  0  0  0  0  0
    2.5429    1.6321    0.0000 N   0  0  0  0  0  0  0  0  0  0  0  0
   -0.2404   -1.3844    0.0000 N   0  0  0  0  0  0  0  0  0  0  0  0
   -0.2404   -3.0166    0.0000 N   0  0  0  0  0  0  0  0  0  0  0  0
    1.1877    1.1950    0.0000 C   0  0  0  0  0  0  0  0  0  0  0  0
    0.9399    1.9819    0.0000 C   0  0  0  0  0  0  0  0  0  0  0  0
    0.1093    1.9819    0.0000 C   0  0  0  0  0  0  0  0  0  0  0  0
   -0.1530    1.1950    0.0000 C   0  0  0  0  0  0  0  0  0  0  0  0
    1.9892    1.0201    0.0000 C   0  0  0  0  0  0  0  0  0  0  0  0
    1.4791    2.5794    0.0000 C   0  0  0  0  0  0  0  0  0  0  0  0
   -0.9399    1.0201    0.0000 C   0  0  0  0  0  0  0  0  0  0  0  0
   -0.4299    2.5648    0.0000 C   0  0  0  0  0  0  0  0  0  0  0  0
    0.5027   -0.1603    0.0000 C   0  0  0  0  0  0  0  0  0  0  0  0
    2.2952    2.4045    0.0000 C   0  0  0  0  0  0  0  0  0  0  0  0
   -1.5083    1.6321    0.0000 C   0  0  0  0  0  0  0  0  0  0  0  0
   -1.2314    2.4045    0.0000 C   0  0  0  0  0  0  0  0  0  0  0  0
   -0.2258   -0.5538    0.0000 C   0  0  0  0  0  0  0  0  0  0  0  0
    2.3097    0.1312    0.0000 C   0  0  0  0  0  0  0  0  0  0  0  0
   -0.9399   -1.7779    0.0000 C   0  0  0  0  0  0  0  0  0  0  0  0
    0.4882   -1.7925    0.0000 C   0  0  0  0  0  0  0  0  0  0  0  0
   -2.8490    2.0402    0.0000 C   0  0  0  0  0  0  0  0  0  0  0  0
   -0.9399   -2.6085    0.0000 C   0  0  0  0  0  0  0  0  0  0  0  0
    0.4736   -2.6085    0.0000 C   0  0  0  0  0  0  0  0  0  0  0  0
  1 16  1  0  0  0  0
  2 17  1  0  0  0  0
  2 23  1  0  0  0  0
  3  7  1  0  0  0  0
  3 10  1  0  0  0  0
  3 15  1  0  0  0  0
  4 11  2  0  0  0  0
  4 16  1  0  0  0  0
  5 19  1  0  0  0  0
  5 21  1  0  0  0  0
  5 22  1  0  0  0  0
  6 24  1  0  0  0  0
  6 25  1  0  0  0  0
  7  8  2  0  0  0  0
  7 11  1  0  0  0  0
  8  9  1  0  0  0  0
  8 12  1  0  0  0  0
  9 10  2  0  0  0  0
  9 14  1  0  0  0  0
 10 13  1  0  0  0  0
 11 20  1  0  0  0  0
 12 16  2  0  0  0  0
 13 17  2  0  0  0  0
 14 18  2  0  0  0  0
 15 19  1  0  0  0  0
 17 18  1  0  0  0  0
 21 24  1  0  0  0  0
 22 25  1  0  0  0  0
M  END
> <PUBCHEM_COMPOUND_ID_TYPE>
0

> <PUBCHEM_TOTAL_CHARGE>
0

> <PUBCHEM_SUBSTANCE_ID>
310945564

> <PUBCHEM_SUBSTANCE_VERSION>
1

> <PUBCHEM_EXT_DATASOURCE_NAME>
4488

> <PUBCHEM_EXT_DATASOURCE_REGID>
SCHEMBL16123662

> <PUBCHEM_SUBSTANCE_COMMENT>
InChI=1S/C19H23FN4O/c1-13-19-16(12-18(20)22-13)15-4-3-14(25-2)11-17(15)24(19)10-9-23-7-5-21-6-8-23/h3-4,11-12,21H,5-10H2,1-2H3
InChIKey=MJSJIUPKXTVDFW-UHFFFAOYSA-N

> <PUBCHEM_SUBSTANCE_SYNONYM>
SCHEMBL16123662

> <PUBCHEM_XREF_EXT_ID>
SCHEMBL16123662

> <PUBCHEM_EXT_DATASOURCE_URL>
https://www.surechembl.org/

> <PUBCHEM_EXT_SUBSTANCE_URL>
https://www.surechembl.org/chemical/SCHEMBL16123662

> <PUBCHEM_CID_ASSOCIATIONS>
117611598  1

> <PUBCHEM_COORDINATE_TYPE>
1
3

$$$$
