310932044
  -OEChem-07211613022D

 18 19  0     0  0  0  0  0  0999 V2000
    5.8176    0.0000    0.0000 F   0  0  0  0  0  0  0  0  0  0  0  0
    4.4020    0.0000    0.0000 F   0  0  0  0  0  0  0  0  0  0  0  0
    4.4020   -0.8145    0.0000 F   0  0  0  0  0  0  0  0  0  0  0  0
    5.1001   -1.2217    0.0000 O   0  0  0  0  0  0  0  0  0  0  0  0
    2.2688   -3.6845    0.0000 O   0  0  0  0  0  0  0  0  0  0  0  0
    1.5513   -1.6289    0.0000 O   0  0  0  0  0  0  0  0  0  0  0  0
    2.9864   -2.4628    0.0000 C   0  0  0  0  0  0  0  0  0  0  0  0
    2.2688   -2.8700    0.0000 C   0  0  0  0  0  0  0  0  0  0  0  0
    1.5513   -2.4628    0.0000 C   0  0  0  0  0  0  0  0  0  0  0  0
    0.8338   -2.8700    0.0000 C   0  0  0  0  0  0  0  0  0  0  0  0
    4.4020   -1.6289    0.0000 C   0  0  0  0  0  0  0  0  0  0  0  0
    5.1001   -0.4073    0.0000 C   0  0  0  0  0  0  0  0  0  0  0  0
    2.9864   -1.6289    0.0000 C   0  0  0  0  0  0  0  0  0  0  0  0
    3.6845   -2.8506    0.0000 C   0  0  0  0  0  0  0  0  0  0  0  0
    3.6845   -1.2217    0.0000 C   0  0  0  0  0  0  0  0  0  0  0  0
    4.3826   -2.4628    0.0000 C   0  0  0  0  0  0  0  0  0  0  0  0
    0.4266   -3.5681    0.0000 C   0  0  0  0  0  0  0  0  0  0  0  0
    0.0000   -2.8700    0.0000 C   0  0  0  0  0  0  0  0  0  0  0  0
  1 12  1  0  0  0  0
  2 12  1  0  0  0  0
  3 12  1  0  0  0  0
  4 11  1  0  0  0  0
  4 12  1  0  0  0  0
  5  8  2  0  0  0  0
  6  9  2  0  0  0  0
  7  8  1  0  0  0  0
  7 13  2  0  0  0  0
  7 14  1  0  0  0  0
  8  9  1  0  0  0  0
  9 10  1  0  0  0  0
 10 17  1  0  0  0  0
 10 18  1  0  0  0  0
 11 15  2  0  0  0  0
 11 16  1  0  0  0  0
 13 15  1  0  0  0  0
 14 16  2  0  0  0  0
 17 18  1  0  0  0  0
M  END
> <PUBCHEM_COMPOUND_ID_TYPE>
0

> <PUBCHEM_TOTAL_CHARGE>
0

> <PUBCHEM_SUBSTANCE_ID>
310932044

> <PUBCHEM_SUBSTANCE_VERSION>
1

> <PUBCHEM_EXT_DATASOURCE_NAME>
4488

> <PUBCHEM_EXT_DATASOURCE_REGID>
SCHEMBL16109389

> <PUBCHEM_SUBSTANCE_COMMENT>
InChI=1S/C12H9F3O3/c13-12(14,15)18-9-5-3-8(4-6-9)11(17)10(16)7-1-2-7/h3-7H,1-2H2
InChIKey=LWHVRYYPUJAKBW-UHFFFAOYSA-N

> <PUBCHEM_SUBSTANCE_SYNONYM>
SCHEMBL16109389

> <PUBCHEM_XREF_EXT_ID>
SCHEMBL16109389

> <PUBCHEM_EXT_DATASOURCE_URL>
https://www.surechembl.org/

> <PUBCHEM_EXT_SUBSTANCE_URL>
https://www.surechembl.org/chemical/SCHEMBL16109389

> <PUBCHEM_CID_ASSOCIATIONS>
117600676  1

> <PUBCHEM_COORDINATE_TYPE>
1
3

$$$$
