310938092
  -OEChem-07211613022D

 44 47  0     1  0  0  0  0  0999 V2000
    8.7352    5.9180    0.0000 O   0  0  0  0  0  0  0  0  0  0  0  0
    9.2120    6.9355    0.0000 O   0  0  0  0  0  0  0  0  0  0  0  0
    8.4651    2.9557    0.0000 O   0  0  0  0  0  0  0  0  0  0  0  0
    5.4947    3.1116    0.0000 O   0  0  0  0  0  0  0  0  0  0  0  0
    9.5453    1.7084    0.0000 O   0  0  0  0  0  0  0  0  0  0  0  0
   10.6255    2.6439    0.0000 O   0  0  0  0  0  0  0  0  0  0  0  0
   10.0854    5.4502    0.0000 N   0  0  0  0  0  0  0  0  0  0  0  0
    8.1951    4.3589    0.0000 N   0  0  0  0  0  0  0  0  0  0  0  0
   10.4631    7.6260    0.0000 N   0  0  0  0  0  0  0  0  0  0  0  0
    6.8449    2.6439    0.0000 N   0  0  0  0  0  0  0  0  0  0  0  0
   11.3126    9.1250    0.0000 N   0  0  0  0  0  0  0  0  0  0  0  0
   10.1697    9.8147    0.0000 N   0  0  0  0  0  0  0  0  0  0  0  0
   11.4997    9.9285    0.0000 N   0  0  0  0  0  0  0  0  0  0  0  0
   10.7934   10.3547    0.0000 N   0  0  0  0  0  0  0  0  0  0  0  0
   10.6877    4.8865    0.0000 C   0  0  0  0  0  0  0  0  0  0  0  0
   10.4355    6.1973    0.0000 C   0  0  3  0  0  0  0  0  0  0  0  0
   11.4100    5.2851    0.0000 C   0  0  0  0  0  0  0  0  0  0  0  0
    9.2753    5.2943    0.0000 C   0  0  0  0  0  0  0  0  0  0  0  0
   11.2541    6.0952    0.0000 C   0  0  0  0  0  0  0  0  0  0  0  0
   10.0368    6.9196    0.0000 C   0  0  0  0  0  0  0  0  0  0  0  0
    9.0052    4.5148    0.0000 C   0  0  3  0  0  0  0  0  0  0  0  0
   10.6718    4.0616    0.0000 C   0  0  0  0  0  0  0  0  0  0  0  0
   12.1164    4.8589    0.0000 C   0  0  0  0  0  0  0  0  0  0  0  0
   11.3782    3.6354    0.0000 C   0  0  0  0  0  0  0  0  0  0  0  0
   12.1005    4.0340    0.0000 C   0  0  0  0  0  0  0  0  0  0  0  0
    9.5453    3.8911    0.0000 C   0  0  0  0  0  0  0  0  0  0  0  0
    7.9251    3.5793    0.0000 C   0  0  0  0  0  0  0  0  0  0  0  0
    7.1149    3.4234    0.0000 C   0  0  3  0  0  0  0  0  0  0  0  0
   10.0644    8.3483    0.0000 C   0  0  0  0  0  0  0  0  0  0  0  0
    9.2753    3.1116    0.0000 C   0  0  0  0  0  0  0  0  0  0  0  0
    6.5748    4.0470    0.0000 C   0  0  3  0  0  0  0  0  0  0  0  0
   10.4907    9.0546    0.0000 C   0  0  0  0  0  0  0  0  0  0  0  0
    6.0347    2.4879    0.0000 C   0  0  0  0  0  0  0  0  0  0  0  0
    9.8154    2.4879    0.0000 C   0  0  0  0  0  0  0  0  0  0  0  0
    5.7647    3.8911    0.0000 C   0  0  0  0  0  0  0  0  0  0  0  0
    6.8449    4.8266    0.0000 C   0  0  0  0  0  0  0  0  0  0  0  0
    5.7647    1.7084    0.0000 C   0  0  0  0  0  0  0  0  0  0  0  0
    4.9546    1.5525    0.0000 C   0  0  0  0  0  0  0  0  0  0  0  0
    5.2246    4.5148    0.0000 C   0  0  0  0  0  0  0  0  0  0  0  0
    4.6845    0.7729    0.0000 C   0  0  0  0  0  0  0  0  0  0  0  0
    4.4145    2.1761    0.0000 C   0  0  0  0  0  0  0  0  0  0  0  0
    3.8744    0.6170    0.0000 C   0  0  0  0  0  0  0  0  0  0  0  0
    3.6043    2.0202    0.0000 C   0  0  0  0  0  0  0  0  0  0  0  0
    3.3343    1.2407    0.0000 C   0  0  0  0  0  0  0  0  0  0  0  0
  1 18  2  0  0  0  0
  2 20  2  0  0  0  0
  3 27  2  0  0  0  0
  4 33  2  0  0  0  0
  5 34  2  0  0  0  0
  6 34  1  0  0  0  0
  7 15  1  0  0  0  0
  7 16  1  0  0  0  0
  7 18  1  0  0  0  0
  8 21  1  0  0  0  0
  8 27  1  0  0  0  0
  9 20  1  0  0  0  0
  9 29  1  0  0  0  0
 28 10  1  1  0  0  0
 10 33  1  0  0  0  0
 11 13  2  0  0  0  0
 11 32  1  0  0  0  0
 12 14  1  0  0  0  0
 12 32  2  0  0  0  0
 13 14  1  0  0  0  0
 15 17  1  0  0  0  0
 15 22  2  0  0  0  0
 16 19  1  0  0  0  0
 16 20  1  6  0  0  0
 17 19  1  0  0  0  0
 17 23  2  0  0  0  0
 18 21  1  0  0  0  0
 21 26  1  0  0  0  0
 22 24  1  0  0  0  0
 23 25  1  0  0  0  0
 24 25  2  0  0  0  0
 26 30  1  0  0  0  0
 27 28  1  0  0  0  0
 28 31  1  0  0  0  0
 29 32  1  0  0  0  0
 30 34  1  0  0  0  0
 31 35  1  0  0  0  0
 31 36  1  6  0  0  0
 33 37  1  0  0  0  0
 35 39  1  0  0  0  0
 37 38  1  0  0  0  0
 38 40  2  0  0  0  0
 38 41  1  0  0  0  0
 40 42  1  0  0  0  0
 41 43  2  0  0  0  0
 42 44  2  0  0  0  0
 43 44  1  0  0  0  0
M  END
> <PUBCHEM_COMPOUND_ID_TYPE>
0

> <PUBCHEM_TOTAL_CHARGE>
0

> <PUBCHEM_SUBSTANCE_ID>
310938092

> <PUBCHEM_SUBSTANCE_VERSION>
1

> <PUBCHEM_EXT_DATASOURCE_NAME>
4488

> <PUBCHEM_EXT_DATASOURCE_REGID>
SCHEMBL16115937

> <PUBCHEM_SUBSTANCE_COMMENT>
InChI=1S/C30H36N8O6/c1-3-18(2)27(33-25(39)15-19-9-5-4-6-10-19)29(43)32-21(13-14-26(40)41)30(44)38-22-12-8-7-11-20(22)16-23(38)28(42)31-17-24-34-36-37-35-24/h4-12,18,21,23,27H,3,13-17H2,1-2H3,(H,31,42)(H,32,43)(H,33,39)(H,40,41)(H,34,35,36,37)/t18-,21?,23-,27-/m0/s1
InChIKey=WXOBINFPJVSYQZ-AXDGZPMDSA-N

> <PUBCHEM_SUBSTANCE_SYNONYM>
SCHEMBL16115937

> <PUBCHEM_XREF_EXT_ID>
SCHEMBL16115937

> <PUBCHEM_EXT_DATASOURCE_URL>
https://www.surechembl.org/

> <PUBCHEM_EXT_SUBSTANCE_URL>
https://www.surechembl.org/chemical/SCHEMBL16115937

> <PUBCHEM_CID_ASSOCIATIONS>
117605655  1

> <PUBCHEM_COORDINATE_TYPE>
1
3

> <PUBCHEM_BONDANNOTATIONS>
28  10  5
16  20  6
31  36  6

$$$$
