310938864
  -OEChem-07211613022D

 31 34  0     1  0  0  0  0  0999 V2000
   -0.7147    1.4568    0.0000 O   0  0  0  0  0  0  0  0  0  0  0  0
   -3.5732    3.1197    0.0000 O   0  0  0  0  0  0  0  0  0  0  0  0
    0.0000    0.2336    0.0000 N   0  0  0  0  0  0  0  0  0  0  0  0
    0.7147   -1.8416    0.0000 N   0  0  0  0  0  0  0  0  0  0  0  0
    2.1577   -1.8416    0.0000 N   0  0  0  0  0  0  0  0  0  0  0  0
   -2.1439    3.1334    0.0000 N   0  0  0  0  0  0  0  0  0  0  0  0
    2.8723   -3.0922    0.0000 N   0  0  0  0  0  0  0  0  0  0  0  0
    3.5870   -1.8553    0.0000 N   0  0  0  0  0  0  0  0  0  0  0  0
    0.0275   -3.9168    0.0000 N   0  0  0  0  0  0  0  0  0  0  0  0
   -1.4293    0.2336    0.0000 C   0  0  0  0  0  0  0  0  0  0  0  0
   -2.1439    0.6459    0.0000 C   0  0  0  0  0  0  0  0  0  0  0  0
   -1.4293   -0.5910    0.0000 C   0  0  0  0  0  0  0  0  0  0  0  0
   -0.7284    0.6184    0.0000 C   0  0  0  0  0  0  0  0  0  0  0  0
    0.0138   -0.6047    0.0000 C   0  0  0  0  0  0  0  0  0  0  0  0
   -2.1439    1.4705    0.0000 C   0  0  0  0  0  0  0  0  0  0  0  0
   -0.7009   -1.0170    0.0000 C   0  0  0  0  0  0  0  0  0  0  0  0
    0.7284   -1.0170    0.0000 C   0  0  3  0  0  0  0  0  0  0  0  0
   -2.8586    0.2199    0.0000 C   0  0  0  0  0  0  0  0  0  0  0  0
   -2.1439   -1.0170    0.0000 C   0  0  0  0  0  0  0  0  0  0  0  0
    1.4430   -2.2676    0.0000 C   0  0  0  0  0  0  0  0  0  0  0  0
   -2.8448   -0.6047    0.0000 C   0  0  0  0  0  0  0  0  0  0  0  0
   -2.8586    1.8966    0.0000 C   0  0  0  0  0  0  0  0  0  0  0  0
   -1.4293    1.8828    0.0000 C   0  0  0  0  0  0  0  0  0  0  0  0
    1.4293   -3.0922    0.0000 C   0  0  0  0  0  0  0  0  0  0  0  0
   -2.8586    2.7211    0.0000 C   0  0  0  0  0  0  0  0  0  0  0  0
    2.8723   -2.2676    0.0000 C   0  0  0  0  0  0  0  0  0  0  0  0
   -1.4293    2.7074    0.0000 C   0  0  0  0  0  0  0  0  0  0  0  0
    2.1714   -3.5045    0.0000 C   0  0  0  0  0  0  0  0  0  0  0  0
    1.4568   -0.6184    0.0000 C   0  0  0  0  0  0  0  0  0  0  0  0
    0.7147   -3.5183    0.0000 C   0  0  0  0  0  0  0  0  0  0  0  0
   -3.5870    3.9168    0.0000 C   0  0  0  0  0  0  0  0  0  0  0  0
  1 13  2  0  0  0  0
  2 25  1  0  0  0  0
  2 31  1  0  0  0  0
  3 13  1  0  0  0  0
  3 14  2  0  0  0  0
  4 17  1  0  0  0  0
  4 20  1  0  0  0  0
  5 20  1  0  0  0  0
  5 26  2  0  0  0  0
  6 25  1  0  0  0  0
  6 27  2  0  0  0  0
  7 26  1  0  0  0  0
  7 28  2  0  0  0  0
  8 26  1  0  0  0  0
  9 30  3  0  0  0  0
 10 11  2  0  0  0  0
 10 12  1  0  0  0  0
 10 13  1  0  0  0  0
 11 15  1  0  0  0  0
 11 18  1  0  0  0  0
 12 16  1  0  0  0  0
 12 19  2  0  0  0  0
 14 16  1  0  0  0  0
 14 17  1  0  0  0  0
 15 22  1  0  0  0  0
 15 23  2  0  0  0  0
 17 29  1  6  0  0  0
 18 21  2  0  0  0  0
 19 21  1  0  0  0  0
 20 24  2  0  0  0  0
 22 25  2  0  0  0  0
 23 27  1  0  0  0  0
 24 28  1  0  0  0  0
 24 30  1  0  0  0  0
M  END
> <PUBCHEM_COMPOUND_ID_TYPE>
0

> <PUBCHEM_TOTAL_CHARGE>
0

> <PUBCHEM_SUBSTANCE_ID>
310938864

> <PUBCHEM_SUBSTANCE_VERSION>
1

> <PUBCHEM_EXT_DATASOURCE_NAME>
4488

> <PUBCHEM_EXT_DATASOURCE_REGID>
SCHEMBL16116783

> <PUBCHEM_SUBSTANCE_COMMENT>
InChI=1S/C22H19N7O2/c1-12(27-20-15(10-23)11-26-22(24)29-20)17-8-14-4-3-5-16(19(14)21(30)28-17)13-6-7-25-18(9-13)31-2/h3-7,9,11-12H,8H2,1-2H3,(H3,24,26,27,29)/t12-/m0/s1
InChIKey=UCMPHCZZJDWSNO-LBPRGKRZSA-N

> <PUBCHEM_SUBSTANCE_SYNONYM>
SCHEMBL16116783

> <PUBCHEM_XREF_EXT_ID>
SCHEMBL16116783

> <PUBCHEM_EXT_DATASOURCE_URL>
https://www.surechembl.org/

> <PUBCHEM_EXT_SUBSTANCE_URL>
https://www.surechembl.org/chemical/SCHEMBL16116783

> <PUBCHEM_CID_ASSOCIATIONS>
117606261  1

> <PUBCHEM_COORDINATE_TYPE>
1
3

> <PUBCHEM_BONDANNOTATIONS>
17  29  6

$$$$
