310944739
  -OEChem-07211613022D

 23 24  0     0  0  0  0  0  0999 V2000
    3.9418   -0.2117    0.0000 Cl  0  0  0  0  0  0  0  0  0  0  0  0
    2.4846    2.2792    0.0000 O   0  0  0  0  0  0  0  0  0  0  0  0
    1.0524   -0.2117    0.0000 O   0  0  0  0  0  0  0  0  0  0  0  0
   -2.5469   -2.2792    0.0000 O   0  0  0  0  0  0  0  0  0  0  0  0
   -0.3674   -0.1992    0.0000 N   0  0  0  0  0  0  0  0  0  0  0  0
   -1.7996   -1.0337    0.0000 N   0  0  0  0  0  0  0  0  0  0  0  0
    1.0648    1.4572    0.0000 N   0  0  0  0  0  0  0  0  0  0  0  0
    1.7872    1.0462    0.0000 C   0  0  0  0  0  0  0  0  0  0  0  0
    2.4971    1.4572    0.0000 C   0  0  0  0  0  0  0  0  0  0  0  0
    0.3176    0.2242    0.0000 C   0  0  0  0  0  0  0  0  0  0  0  0
    2.4971   -0.1992    0.0000 C   0  0  0  0  0  0  0  0  0  0  0  0
    3.2070    0.2242    0.0000 C   0  0  0  0  0  0  0  0  0  0  0  0
    1.7872    0.2117    0.0000 C   0  0  0  0  0  0  0  0  0  0  0  0
    3.2195    1.0462    0.0000 C   0  0  0  0  0  0  0  0  0  0  0  0
   -1.1022    0.2117    0.0000 C   0  0  0  0  0  0  0  0  0  0  0  0
   -0.3798   -1.0462    0.0000 C   0  0  0  0  0  0  0  0  0  0  0  0
    0.3550    1.0462    0.0000 C   0  0  0  0  0  0  0  0  0  0  0  0
   -1.7996   -0.1992    0.0000 C   0  0  0  0  0  0  0  0  0  0  0  0
   -1.0898   -1.4447    0.0000 C   0  0  0  0  0  0  0  0  0  0  0  0
   -2.5345   -1.4323    0.0000 C   0  0  0  0  0  0  0  0  0  0  0  0
    2.4971   -1.0337    0.0000 C   0  0  0  0  0  0  0  0  0  0  0  0
   -3.2568   -1.0337    0.0000 C   0  0  0  0  0  0  0  0  0  0  0  0
   -3.9418   -1.4945    0.0000 C   0  0  0  0  0  0  0  0  0  0  0  0
  1 12  1  0  0  0  0
  2  9  1  0  0  0  0
  3 10  2  0  0  0  0
  4 20  2  0  0  0  0
  5 10  1  0  0  0  0
  5 15  1  0  0  0  0
  5 16  1  0  0  0  0
  6 18  1  0  0  0  0
  6 19  1  0  0  0  0
  6 20  1  0  0  0  0
  7  8  1  0  0  0  0
  7 17  1  0  0  0  0
  8  9  1  0  0  0  0
  8 13  2  0  0  0  0
  9 14  2  0  0  0  0
 10 17  1  0  0  0  0
 11 12  2  0  0  0  0
 11 13  1  0  0  0  0
 11 21  1  0  0  0  0
 12 14  1  0  0  0  0
 15 18  1  0  0  0  0
 16 19  1  0  0  0  0
 20 22  1  0  0  0  0
 22 23  2  0  0  0  0
M  END
> <PUBCHEM_COMPOUND_ID_TYPE>
0

> <PUBCHEM_TOTAL_CHARGE>
0

> <PUBCHEM_SUBSTANCE_ID>
310944739

> <PUBCHEM_SUBSTANCE_VERSION>
1

> <PUBCHEM_EXT_DATASOURCE_NAME>
4488

> <PUBCHEM_EXT_DATASOURCE_REGID>
SCHEMBL16122818

> <PUBCHEM_SUBSTANCE_COMMENT>
InChI=1S/C16H20ClN3O3/c1-3-15(22)19-4-6-20(7-5-19)16(23)10-18-13-8-11(2)12(17)9-14(13)21/h3,8-9,18,21H,1,4-7,10H2,2H3
InChIKey=RLZAXKJOFUOGBD-UHFFFAOYSA-N

> <PUBCHEM_SUBSTANCE_SYNONYM>
SCHEMBL16122818

> <PUBCHEM_XREF_EXT_ID>
SCHEMBL16122818

> <PUBCHEM_EXT_DATASOURCE_URL>
https://www.surechembl.org/

> <PUBCHEM_EXT_SUBSTANCE_URL>
https://www.surechembl.org/chemical/SCHEMBL16122818

> <PUBCHEM_CID_ASSOCIATIONS>
117610956  1

> <PUBCHEM_COORDINATE_TYPE>
1
3

$$$$
