310939359
  -OEChem-07211613022D

 34 36  0     1  0  0  0  0  0999 V2000
    0.3572    1.4437    0.0000 Cl  0  0  0  0  0  0  0  0  0  0  0  0
   -1.0717   -1.0313    0.0000 F   0  0  0  0  0  0  0  0  0  0  0  0
    3.2151    1.4437    0.0000 F   0  0  0  0  0  0  0  0  0  0  0  0
    0.3572   -0.2063    0.0000 O   0  0  0  0  0  0  0  0  0  0  0  0
    3.2151   -1.0312    0.0000 O   0  0  0  0  0  0  0  0  0  0  0  0
    5.3585    1.0313    0.0000 O   0  0  0  0  0  0  0  0  0  0  0  0
   -5.3585   -0.2063    0.0000 O   0  0  0  0  0  0  0  0  0  0  0  0
    3.9296    0.2063    0.0000 N   0  0  0  0  0  0  0  0  0  0  0  0
   -3.2151    0.2062    0.0000 N   0  0  0  0  0  0  0  0  0  0  0  0
   -4.6441    1.0312    0.0000 N   0  0  0  0  0  0  0  0  0  0  0  0
   -0.3572    0.2062    0.0000 C   0  0  0  0  0  0  0  0  0  0  0  0
   -1.0717   -0.2063    0.0000 C   0  0  0  0  0  0  0  0  0  0  0  0
   -1.7862    0.2062    0.0000 C   0  0  0  0  0  0  0  0  0  0  0  0
    2.5006    0.2062    0.0000 C   0  0  0  0  0  0  0  0  0  0  0  0
    1.0717    0.2062    0.0000 C   0  0  0  0  0  0  0  0  0  0  0  0
   -0.3572    1.0312    0.0000 C   0  0  0  0  0  0  0  0  0  0  0  0
   -2.5006   -0.2063    0.0000 C   0  0  3  0  0  0  0  0  0  0  0  0
    3.2151   -0.2063    0.0000 C   0  0  0  0  0  0  0  0  0  0  0  0
    1.7862   -0.2062    0.0000 C   0  0  0  0  0  0  0  0  0  0  0  0
    2.5006    1.0312    0.0000 C   0  0  0  0  0  0  0  0  0  0  0  0
   -1.7862    1.0312    0.0000 C   0  0  0  0  0  0  0  0  0  0  0  0
   -1.0717    1.4438    0.0000 C   0  0  0  0  0  0  0  0  0  0  0  0
    1.0717    1.0312    0.0000 C   0  0  0  0  0  0  0  0  0  0  0  0
    1.7862    1.4437    0.0000 C   0  0  0  0  0  0  0  0  0  0  0  0
   -2.5006   -1.0313    0.0000 C   0  0  0  0  0  0  0  0  0  0  0  0
    4.6441   -0.2062    0.0000 C   0  0  0  0  0  0  0  0  0  0  0  0
    3.9296    1.0313    0.0000 C   0  0  0  0  0  0  0  0  0  0  0  0
   -3.2151    1.0312    0.0000 C   0  0  3  0  0  0  0  0  0  0  0  0
    5.3585    0.2063    0.0000 C   0  0  0  0  0  0  0  0  0  0  0  0
    4.6441    1.4437    0.0000 C   0  0  0  0  0  0  0  0  0  0  0  0
   -1.7862   -1.4438    0.0000 C   0  0  0  0  0  0  0  0  0  0  0  0
   -3.9296    1.4437    0.0000 C   0  0  0  0  0  0  0  0  0  0  0  0
   -2.5006    1.4437    0.0000 C   0  0  0  0  0  0  0  0  0  0  0  0
   -4.6441    0.2062    0.0000 C   0  0  0  0  0  0  0  0  0  0  0  0
  1 16  1  0  0  0  0
  2 12  1  0  0  0  0
  3 20  1  0  0  0  0
  4 11  1  0  0  0  0
  4 15  1  0  0  0  0
  5 18  2  0  0  0  0
  6 29  1  0  0  0  0
  6 30  1  0  0  0  0
  7 34  2  0  0  0  0
  8 18  1  0  0  0  0
  8 26  1  0  0  0  0
  8 27  1  0  0  0  0
 17  9  1  1  0  0  0
  9 28  1  0  0  0  0
 10 32  1  0  0  0  0
 10 34  1  0  0  0  0
 11 12  2  0  0  0  0
 11 16  1  0  0  0  0
 12 13  1  0  0  0  0
 13 17  1  0  0  0  0
 13 21  2  0  0  0  0
 14 18  1  0  0  0  0
 14 19  1  0  0  0  0
 14 20  2  0  0  0  0
 15 19  2  0  0  0  0
 15 23  1  0  0  0  0
 16 22  2  0  0  0  0
 17 25  1  0  0  0  0
 20 24  1  0  0  0  0
 21 22  1  0  0  0  0
 23 24  2  0  0  0  0
 25 31  1  0  0  0  0
 26 29  1  0  0  0  0
 27 30  1  0  0  0  0
 28 32  1  0  0  0  0
 28 33  1  1  0  0  0
M  END
> <PUBCHEM_COMPOUND_ID_TYPE>
0

> <PUBCHEM_TOTAL_CHARGE>
0

> <PUBCHEM_SUBSTANCE_ID>
310939359

> <PUBCHEM_SUBSTANCE_VERSION>
1

> <PUBCHEM_EXT_DATASOURCE_NAME>
4488

> <PUBCHEM_EXT_DATASOURCE_REGID>
SCHEMBL16117280

> <PUBCHEM_SUBSTANCE_COMMENT>
InChI=1S/C24H28ClF2N3O4/c1-3-21(29-15(2)13-28-14-31)17-5-6-19(25)23(22(17)27)34-16-4-7-20(26)18(12-16)24(32)30-8-10-33-11-9-30/h4-7,12,14-15,21,29H,3,8-11,13H2,1-2H3,(H,28,31)/t15-,21-/m1/s1
InChIKey=YCZWIJOIEYGMOV-QVKFZJNVSA-N

> <PUBCHEM_SUBSTANCE_SYNONYM>
SCHEMBL16117280

> <PUBCHEM_XREF_EXT_ID>
SCHEMBL16117280

> <PUBCHEM_EXT_DATASOURCE_URL>
https://www.surechembl.org/

> <PUBCHEM_EXT_SUBSTANCE_URL>
https://www.surechembl.org/chemical/SCHEMBL16117280

> <PUBCHEM_CID_ASSOCIATIONS>
117606686  1

> <PUBCHEM_COORDINATE_TYPE>
1
3

> <PUBCHEM_BONDANNOTATIONS>
28  33  5
17  9  5

$$$$
