310941881
  -OEChem-07211613022D

 20 23  0     1  0  0  0  0  0999 V2000
    2.8665   -1.1067    0.0000 Br  0  0  0  0  0  0  0  0  0  0  0  0
   -0.7080    0.5155    0.0000 O   0  0  0  0  0  0  0  0  0  0  0  0
    1.4504   -0.7218    0.0000 N   0  0  0  0  0  0  0  0  0  0  0  0
    0.9005   -1.9316    0.0000 N   0  0  0  0  0  0  0  0  0  0  0  0
    1.7254   -2.0279    0.0000 N   0  0  0  0  0  0  0  0  0  0  0  0
   -2.1378   -1.1204    0.0000 N   0  0  0  0  0  0  0  0  0  0  0  0
    0.7218    0.5155    0.0000 C   0  0  0  0  0  0  0  0  0  0  0  0
    0.7355   -1.1342    0.0000 C   0  0  0  0  0  0  0  0  0  0  0  0
    0.0206    0.1169    0.0000 C   0  0  0  0  0  0  0  0  0  0  0  0
    0.7355    1.3679    0.0000 C   0  0  0  0  0  0  0  0  0  0  0  0
    1.4367    0.1031    0.0000 C   0  0  0  0  0  0  0  0  0  0  0  0
    0.0069   -0.7080    0.0000 C   0  0  0  0  0  0  0  0  0  0  0  0
    2.0553   -1.2579    0.0000 C   0  0  0  0  0  0  0  0  0  0  0  0
    0.3369    2.0279    0.0000 C   0  0  0  0  0  0  0  0  0  0  0  0
    1.1204    2.0279    0.0000 C   0  0  0  0  0  0  0  0  0  0  0  0
   -1.4229    0.1169    0.0000 C   0  0  3  0  0  0  0  0  0  0  0  0
   -1.4367   -0.7080    0.0000 C   0  0  0  0  0  0  0  0  0  0  0  0
   -2.1515    0.5155    0.0000 C   0  0  0  0  0  0  0  0  0  0  0  0
   -2.8527    0.1169    0.0000 C   0  0  0  0  0  0  0  0  0  0  0  0
   -2.8665   -0.6943    0.0000 C   0  0  0  0  0  0  0  0  0  0  0  0
  1 13  1  0  0  0  0
  2  9  1  0  0  0  0
 16  2  1  1  0  0  0
  3  8  1  0  0  0  0
  3 11  1  0  0  0  0
  3 13  1  0  0  0  0
  4  5  1  0  0  0  0
  4  8  2  0  0  0  0
  5 13  2  0  0  0  0
  6 17  1  0  0  0  0
  6 20  1  0  0  0  0
  7  9  1  0  0  0  0
  7 10  1  0  0  0  0
  7 11  2  0  0  0  0
  8 12  1  0  0  0  0
  9 12  2  0  0  0  0
 10 14  1  0  0  0  0
 10 15  1  0  0  0  0
 14 15  1  0  0  0  0
 16 17  1  0  0  0  0
 16 18  1  0  0  0  0
 18 19  1  0  0  0  0
 19 20  1  0  0  0  0
M  END
> <PUBCHEM_COMPOUND_ID_TYPE>
0

> <PUBCHEM_TOTAL_CHARGE>
0

> <PUBCHEM_SUBSTANCE_ID>
310941881

> <PUBCHEM_SUBSTANCE_VERSION>
1

> <PUBCHEM_EXT_DATASOURCE_NAME>
4488

> <PUBCHEM_EXT_DATASOURCE_REGID>
SCHEMBL16119913

> <PUBCHEM_SUBSTANCE_COMMENT>
InChI=1S/C14H17BrN4O/c15-14-18-17-13-6-12(20-10-2-1-5-16-7-10)11(8-19(13)14)9-3-4-9/h6,8-10,16H,1-5,7H2/t10-/m1/s1
InChIKey=LKXDJTWSJXWZSL-SNVBAGLBSA-N

> <PUBCHEM_SUBSTANCE_SYNONYM>
SCHEMBL16119913

> <PUBCHEM_XREF_EXT_ID>
SCHEMBL16119913

> <PUBCHEM_EXT_DATASOURCE_URL>
https://www.surechembl.org/

> <PUBCHEM_EXT_SUBSTANCE_URL>
https://www.surechembl.org/chemical/SCHEMBL16119913

> <PUBCHEM_CID_ASSOCIATIONS>
117608617  1

> <PUBCHEM_COORDINATE_TYPE>
1
3

> <PUBCHEM_BONDANNOTATIONS>
16  2  5

$$$$
