310942708
  -OEChem-07211613022D

 82 89  0     1  0  0  0  0  0999 V2000
    4.9508   -2.1680    0.0000 F   0  0  0  0  0  0  0  0  0  0  0  0
   10.0958    1.9253    0.0000 F   0  0  0  0  0  0  0  0  0  0  0  0
    7.6042    4.1257    0.0000 F   0  0  0  0  0  0  0  0  0  0  0  0
    5.1611    1.5047    0.0000 O   0  0  0  0  0  0  0  0  0  0  0  0
    6.7791    1.1811    0.0000 O   0  0  0  0  0  0  0  0  0  0  0  0
    2.3460   -0.4045    0.0000 O   0  0  0  0  0  0  0  0  0  0  0  0
    3.0579    0.8413    0.0000 O   0  0  0  0  0  0  0  0  0  0  0  0
    8.1057   -2.7505    0.0000 O   0  0  0  0  0  0  0  0  0  0  0  0
   -1.9738   -0.4045    0.0000 O   0  0  0  0  0  0  0  0  0  0  0  0
   -4.1419   -2.4754    0.0000 O   0  0  0  0  0  0  0  0  0  0  0  0
  -11.3578   -2.6857    0.0000 O   0  0  0  0  0  0  0  0  0  0  0  0
   -8.4293   -2.7019    0.0000 O   0  0  0  0  0  0  0  0  0  0  0  0
   -6.2775   -0.4045    0.0000 O   0  0  0  0  0  0  0  0  0  0  0  0
   -4.8538   -2.8961    0.0000 O   0  0  0  0  0  0  0  0  0  0  0  0
    6.4879   -0.2265    0.0000 N   0  0  0  0  0  0  0  0  0  0  0  0
    3.7859   -0.4045    0.0000 N   0  0  0  0  0  0  0  0  0  0  0  0
    8.6720    0.0809    0.0000 N   0  0  0  0  0  0  0  0  0  0  0  0
    7.7660    1.0679    0.0000 N   0  0  0  0  0  0  0  0  0  0  0  0
   -1.2620   -1.6341    0.0000 N   0  0  0  0  0  0  0  0  0  0  0  0
   -3.4138   -1.2296    0.0000 N   0  0  0  0  0  0  0  0  0  0  0  0
   -9.9016   -2.4593    0.0000 N   0  0  0  0  0  0  0  0  0  0  0  0
   -5.5818   -1.6341    0.0000 N   0  0  0  0  0  0  0  0  0  0  0  0
   -4.1419   -4.1257    0.0000 N   0  0  0  0  0  0  0  0  0  0  0  0
   -5.5818   -4.1257    0.0000 N   0  0  0  0  0  0  0  0  0  0  0  0
    4.6110   -0.0809    0.0000 C   0  0  3  0  0  0  0  0  0  0  0  0
    5.1288   -0.6795    0.0000 C   0  0  3  0  0  0  0  0  0  0  0  0
    7.3130   -0.3883    0.0000 C   0  0  3  0  0  0  0  0  0  0  0  0
    5.4200    0.7442    0.0000 C   0  0  3  0  0  0  0  0  0  0  0  0
    6.2128    0.5501    0.0000 C   0  0  0  0  0  0  0  0  0  0  0  0
    5.9378   -0.8413    0.0000 C   0  0  0  0  0  0  0  0  0  0  0  0
    7.8631    0.2589    0.0000 C   0  0  0  0  0  0  0  0  0  0  0  0
    4.6758   -1.3752    0.0000 C   0  0  3  0  0  0  0  0  0  0  0  0
    3.8830   -1.1649    0.0000 C   0  0  0  0  0  0  0  0  0  0  0  0
    7.5718   -1.1487    0.0000 C   0  0  0  0  0  0  0  0  0  0  0  0
    3.0579    0.0000    0.0000 C   0  0  0  0  0  0  0  0  0  0  0  0
    8.5102    1.4076    0.0000 C   0  0  0  0  0  0  0  0  0  0  0  0
    9.0765    0.8090    0.0000 C   0  0  0  0  0  0  0  0  0  0  0  0
    8.6882    2.2327    0.0000 C   0  0  0  0  0  0  0  0  0  0  0  0
    8.9470   -0.7119    0.0000 C   0  0  0  0  0  0  0  0  0  0  0  0
    7.0217   -1.8121    0.0000 C   0  0  0  0  0  0  0  0  0  0  0  0
    8.3969   -1.3429    0.0000 C   0  0  0  0  0  0  0  0  0  0  0  0
    9.4648    2.4916    0.0000 C   0  0  0  0  0  0  0  0  0  0  0  0
    9.7560   -0.8736    0.0000 C   0  0  0  0  0  0  0  0  0  0  0  0
    8.0734    2.7666    0.0000 C   0  0  0  0  0  0  0  0  0  0  0  0
    7.2968   -2.5725    0.0000 C   0  0  0  0  0  0  0  0  0  0  0  0
    8.6558   -2.1356    0.0000 C   0  0  0  0  0  0  0  0  0  0  0  0
    8.2352    3.5756    0.0000 C   0  0  0  0  0  0  0  0  0  0  0  0
    1.6180    0.0000    0.0000 C   0  0  0  0  0  0  0  0  0  0  0  0
    9.6266    3.3006    0.0000 C   0  0  0  0  0  0  0  0  0  0  0  0
    9.0118    3.8345    0.0000 C   0  0  0  0  0  0  0  0  0  0  0  0
    9.9987   -1.6341    0.0000 C   0  0  0  0  0  0  0  0  0  0  0  0
   10.3384   -0.2912    0.0000 C   0  0  0  0  0  0  0  0  0  0  0  0
    0.9060   -0.4045    0.0000 C   0  0  0  0  0  0  0  0  0  0  0  0
   10.7915   -1.8282    0.0000 C   0  0  0  0  0  0  0  0  0  0  0  0
   11.1151   -0.4854    0.0000 C   0  0  0  0  0  0  0  0  0  0  0  0
    0.8898   -1.2296    0.0000 C   0  0  0  0  0  0  0  0  0  0  0  0
    0.1779    0.0000    0.0000 C   0  0  0  0  0  0  0  0  0  0  0  0
   11.3578   -1.2620    0.0000 C   0  0  0  0  0  0  0  0  0  0  0  0
    0.1941   -1.6341    0.0000 C   0  0  0  0  0  0  0  0  0  0  0  0
   -0.5339   -0.4045    0.0000 C   0  0  0  0  0  0  0  0  0  0  0  0
   -0.5501   -1.2296    0.0000 C   0  0  0  0  0  0  0  0  0  0  0  0
   -1.9900   -1.2458    0.0000 C   0  0  0  0  0  0  0  0  0  0  0  0
   -2.6857   -1.6341    0.0000 C   0  0  3  0  0  0  0  0  0  0  0  0
   -4.1419   -1.6180    0.0000 C   0  0  0  0  0  0  0  0  0  0  0  0
   -2.6857   -2.4593    0.0000 C   0  0  0  0  0  0  0  0  0  0  0  0
   -4.8699   -1.2296    0.0000 C   0  0  3  0  0  0  0  0  0  0  0  0
  -10.5327   -2.9446    0.0000 C   0  0  0  0  0  0  0  0  0  0  0  0
   -9.2383   -2.9608    0.0000 C   0  0  0  0  0  0  0  0  0  0  0  0
   -4.8376   -0.3722    0.0000 C   0  0  0  0  0  0  0  0  0  0  0  0
   -3.3976   -2.8799    0.0000 C   0  0  0  0  0  0  0  0  0  0  0  0
  -10.3061   -3.7212    0.0000 C   0  0  0  0  0  0  0  0  0  0  0  0
   -9.4810   -3.7374    0.0000 C   0  0  0  0  0  0  0  0  0  0  0  0
   -9.8855   -1.6180    0.0000 C   0  0  0  0  0  0  0  0  0  0  0  0
   -6.3098   -1.2458    0.0000 C   0  0  0  0  0  0  0  0  0  0  0  0
   -3.4300   -3.7212    0.0000 C   0  0  0  0  0  0  0  0  0  0  0  0
   -9.1736   -1.2135    0.0000 C   0  0  0  0  0  0  0  0  0  0  0  0
   -6.9894   -1.6341    0.0000 C   0  0  0  0  0  0  0  0  0  0  0  0
   -5.5818    0.0323    0.0000 C   0  0  0  0  0  0  0  0  0  0  0  0
   -4.1257    0.0323    0.0000 C   0  0  0  0  0  0  0  0  0  0  0  0
   -8.4455   -1.6341    0.0000 C   0  0  0  0  0  0  0  0  0  0  0  0
   -7.7498   -1.2296    0.0000 C   0  0  0  0  0  0  0  0  0  0  0  0
   -4.8699   -3.7374    0.0000 C   0  0  0  0  0  0  0  0  0  0  0  0
 32  1  1  1  0  0  0
  2 42  1  0  0  0  0
  3 47  1  0  0  0  0
 28  4  1  6  0  0  0
  5 29  2  0  0  0  0
  6 35  1  0  0  0  0
  6 48  1  0  0  0  0
  7 35  2  0  0  0  0
  8 45  1  0  0  0  0
  8 46  1  0  0  0  0
  9 62  2  0  0  0  0
 10 64  2  0  0  0  0
 11 67  2  0  0  0  0
 12 68  2  0  0  0  0
 13 74  2  0  0  0  0
 14 82  2  0  0  0  0
 15 27  1  0  0  0  0
 15 29  1  0  0  0  0
 15 30  1  0  0  0  0
 16 25  1  0  0  0  0
 16 33  1  0  0  0  0
 16 35  1  0  0  0  0
 17 31  1  0  0  0  0
 17 37  1  0  0  0  0
 17 39  1  0  0  0  0
 18 31  2  0  0  0  0
 18 36  1  0  0  0  0
 19 61  1  0  0  0  0
 19 62  1  0  0  0  0
 63 20  1  6  0  0  0
 20 64  1  0  0  0  0
 21 67  1  0  0  0  0
 21 68  1  0  0  0  0
 21 73  1  0  0  0  0
 66 22  1  1  0  0  0
 22 74  1  0  0  0  0
 23 75  1  0  0  0  0
 23 82  1  0  0  0  0
 24 82  1  0  0  0  0
 25 26  1  0  0  0  0
 25 28  1  0  0  0  0
 26 30  1  1  0  0  0
 26 32  1  0  0  0  0
 27 31  1  1  0  0  0
 27 34  1  0  0  0  0
 28 29  1  0  0  0  0
 32 33  1  0  0  0  0
 34 40  1  0  0  0  0
 34 41  1  0  0  0  0
 36 37  2  0  0  0  0
 36 38  1  0  0  0  0
 38 42  1  0  0  0  0
 38 44  2  0  0  0  0
 39 43  1  0  0  0  0
 40 45  1  0  0  0  0
 41 46  1  0  0  0  0
 42 49  2  0  0  0  0
 43 51  2  0  0  0  0
 43 52  1  0  0  0  0
 44 47  1  0  0  0  0
 47 50  2  0  0  0  0
 48 53  1  0  0  0  0
 49 50  1  0  0  0  0
 51 54  1  0  0  0  0
 52 55  2  0  0  0  0
 53 56  2  0  0  0  0
 53 57  1  0  0  0  0
 54 58  2  0  0  0  0
 55 58  1  0  0  0  0
 56 59  1  0  0  0  0
 57 60  2  0  0  0  0
 59 61  2  0  0  0  0
 60 61  1  0  0  0  0
 62 63  1  0  0  0  0
 63 65  1  0  0  0  0
 64 66  1  0  0  0  0
 65 70  1  0  0  0  0
 66 69  1  0  0  0  0
 67 71  1  0  0  0  0
 68 72  1  0  0  0  0
 69 78  1  0  0  0  0
 69 79  1  0  0  0  0
 70 75  1  0  0  0  0
 71 72  2  0  0  0  0
 73 76  1  0  0  0  0
 74 77  1  0  0  0  0
 76 80  1  0  0  0  0
 77 81  1  0  0  0  0
 80 81  1  0  0  0  0
M  END
> <PUBCHEM_COMPOUND_ID_TYPE>
0

> <PUBCHEM_TOTAL_CHARGE>
0

> <PUBCHEM_SUBSTANCE_ID>
310942708

> <PUBCHEM_SUBSTANCE_VERSION>
1

> <PUBCHEM_EXT_DATASOURCE_NAME>
4488

> <PUBCHEM_EXT_DATASOURCE_REGID>
SCHEMBL16120754

> <PUBCHEM_SUBSTANCE_COMMENT>
InChI=1S/C58H69F3N10O11/c1-34(2)49(67-46(72)13-7-4-8-25-69-47(73)20-21-48(69)74)55(77)66-44(12-9-24-63-57(62)79)54(76)64-39-17-14-36(15-18-39)33-82-58(80)71-31-43(61)41-30-70(56(78)52(75)51(41)71)50(37-22-26-81-27-23-37)53-65-45(40-28-38(59)16-19-42(40)60)32-68(53)29-35-10-5-3-6-11-35/h3,5-6,10-11,14-21,28,32,34,37,41,43-44,49-52,75H,4,7-9,12-13,22-27,29-31,33H2,1-2H3,(H,64,76)(H,66,77)(H,67,72)(H3,62,63,79)/t41-,43-,44-,49-,50+,51?,52-/m0/s1
InChIKey=XFYBLKVVWNIPQW-COUBXUBISA-N

> <PUBCHEM_SUBSTANCE_SYNONYM>
SCHEMBL16120754

> <PUBCHEM_XREF_EXT_ID>
SCHEMBL16120754

> <PUBCHEM_EXT_DATASOURCE_URL>
https://www.surechembl.org/

> <PUBCHEM_EXT_SUBSTANCE_URL>
https://www.surechembl.org/chemical/SCHEMBL16120754

> <PUBCHEM_CID_ASSOCIATIONS>
117609233  1

> <PUBCHEM_COORDINATE_TYPE>
1
3

> <PUBCHEM_BONDANNOTATIONS>
32  1  5
63  20  6
66  22  5
26  30  5
27  31  5
28  4  6

$$$$
