310931710
  -OEChem-07211613022D

 22 24  0     0  0  0  0  0  0999 V2000
    2.2809   -2.4751    0.0000 O   0  0  0  0  0  0  0  0  0  0  0  0
    1.5530   -0.4125    0.0000 O   0  0  0  0  0  0  0  0  0  0  0  0
    6.6002   -1.6743    0.0000 N   0  0  0  0  0  0  0  0  0  0  0  0
    3.0089   -1.2375    0.0000 C   0  0  0  0  0  0  0  0  0  0  0  0
    2.2809   -1.6501    0.0000 C   0  0  0  0  0  0  0  0  0  0  0  0
    1.5530   -1.2375    0.0000 C   0  0  0  0  0  0  0  0  0  0  0  0
    0.8493   -1.6501    0.0000 C   0  0  0  0  0  0  0  0  0  0  0  0
    4.4406   -1.2375    0.0000 C   0  0  0  0  0  0  0  0  0  0  0  0
    5.1442   -1.6501    0.0000 C   0  0  0  0  0  0  0  0  0  0  0  0
    3.7126   -1.6501    0.0000 C   0  0  0  0  0  0  0  0  0  0  0  0
    0.4367   -2.3537    0.0000 C   0  0  0  0  0  0  0  0  0  0  0  0
    0.0000   -1.6501    0.0000 C   0  0  0  0  0  0  0  0  0  0  0  0
    3.0089   -0.4125    0.0000 C   0  0  0  0  0  0  0  0  0  0  0  0
    4.4406   -0.4125    0.0000 C   0  0  0  0  0  0  0  0  0  0  0  0
    5.1685   -2.4751    0.0000 C   0  0  0  0  0  0  0  0  0  0  0  0
    3.7126    0.0000    0.0000 C   0  0  0  0  0  0  0  0  0  0  0  0
    5.8722   -2.8876    0.0000 C   0  0  0  0  0  0  0  0  0  0  0  0
    5.8964   -1.2618    0.0000 C   0  0  0  0  0  0  0  0  0  0  0  0
    6.6002   -2.4993    0.0000 C   0  0  0  0  0  0  0  0  0  0  0  0
    5.8479   -3.7126    0.0000 C   0  0  0  0  0  0  0  0  0  0  0  0
    6.5517   -4.1251    0.0000 C   0  0  0  0  0  0  0  0  0  0  0  0
    7.2796   -3.7369    0.0000 C   0  0  0  0  0  0  0  0  0  0  0  0
  1  5  2  0  0  0  0
  2  6  2  0  0  0  0
  3 18  1  0  0  0  0
  3 19  2  0  0  0  0
  4  5  1  0  0  0  0
  4 10  1  0  0  0  0
  4 13  2  0  0  0  0
  5  6  1  0  0  0  0
  6  7  1  0  0  0  0
  7 11  1  0  0  0  0
  7 12  1  0  0  0  0
  8  9  1  0  0  0  0
  8 10  2  0  0  0  0
  8 14  1  0  0  0  0
  9 15  1  0  0  0  0
  9 18  2  0  0  0  0
 11 12  1  0  0  0  0
 13 16  1  0  0  0  0
 14 16  2  0  0  0  0
 15 17  2  0  0  0  0
 17 19  1  0  0  0  0
 17 20  1  0  0  0  0
 20 21  3  0  0  0  0
 21 22  1  0  0  0  0
M  END
> <PUBCHEM_COMPOUND_ID_TYPE>
0

> <PUBCHEM_TOTAL_CHARGE>
0

> <PUBCHEM_SUBSTANCE_ID>
310931710

> <PUBCHEM_SUBSTANCE_VERSION>
1

> <PUBCHEM_EXT_DATASOURCE_NAME>
4488

> <PUBCHEM_EXT_DATASOURCE_REGID>
SCHEMBL16109039

> <PUBCHEM_SUBSTANCE_COMMENT>
InChI=1S/C19H15NO2/c1-2-4-13-9-17(12-20-11-13)15-5-3-6-16(10-15)19(22)18(21)14-7-8-14/h3,5-6,9-12,14H,7-8H2,1H3
InChIKey=XHHJQZUTRVSOGJ-UHFFFAOYSA-N

> <PUBCHEM_SUBSTANCE_SYNONYM>
SCHEMBL16109039

> <PUBCHEM_XREF_EXT_ID>
SCHEMBL16109039

> <PUBCHEM_EXT_DATASOURCE_URL>
https://www.surechembl.org/

> <PUBCHEM_EXT_SUBSTANCE_URL>
https://www.surechembl.org/chemical/SCHEMBL16109039

> <PUBCHEM_CID_ASSOCIATIONS>
117600409  1

> <PUBCHEM_COORDINATE_TYPE>
1
3

$$$$
