310949734
  -OEChem-07211613022D

 23 24  0     0  0  0  0  0  0999 V2000
   -3.8767   -1.8087    0.0000 F   0  0  0  0  0  0  0  0  0  0  0  0
   -1.0243   -1.0826    0.0000 O   0  0  0  0  0  0  0  0  0  0  0  0
   -2.6579    1.8087    0.0000 O   0  0  0  0  0  0  0  0  0  0  0  0
   -1.4262    1.0826    0.0000 O   0  0  0  0  0  0  0  0  0  0  0  0
    3.8767    1.8087    0.0000 O   0  0  0  0  0  0  0  0  0  0  0  0
   -1.0373    0.3566    0.0000 N   0  0  0  0  0  0  0  0  0  0  0  0
   -2.2560   -0.3566    0.0000 C   0  0  0  0  0  0  0  0  0  0  0  0
   -2.6709    0.3695    0.0000 C   0  0  0  0  0  0  0  0  0  0  0  0
   -1.4521   -0.3436    0.0000 C   0  0  0  0  0  0  0  0  0  0  0  0
   -2.6579   -1.0826    0.0000 C   0  0  0  0  0  0  0  0  0  0  0  0
   -2.2430    1.0826    0.0000 C   0  0  0  0  0  0  0  0  0  0  0  0
   -3.4747    0.3566    0.0000 C   0  0  0  0  0  0  0  0  0  0  0  0
   -3.4747   -1.0697    0.0000 C   0  0  0  0  0  0  0  0  0  0  0  0
   -0.2075    0.3695    0.0000 C   0  0  0  0  0  0  0  0  0  0  0  0
   -3.8767   -0.3695    0.0000 C   0  0  0  0  0  0  0  0  0  0  0  0
    0.2075   -0.3566    0.0000 C   0  0  0  0  0  0  0  0  0  0  0  0
    0.2075    1.0826    0.0000 C   0  0  0  0  0  0  0  0  0  0  0  0
    1.4262    0.3695    0.0000 C   0  0  0  0  0  0  0  0  0  0  0  0
    1.0113   -0.3566    0.0000 C   0  0  0  0  0  0  0  0  0  0  0  0
    1.0113    1.0826    0.0000 C   0  0  0  0  0  0  0  0  0  0  0  0
    2.2430    0.3695    0.0000 C   0  0  0  0  0  0  0  0  0  0  0  0
    2.6579    1.0826    0.0000 C   0  0  0  0  0  0  0  0  0  0  0  0
    3.4488    1.0826    0.0000 C   0  0  0  0  0  0  0  0  0  0  0  0
  1 13  1  0  0  0  0
  2  9  2  0  0  0  0
  3 11  2  0  0  0  0
  4 11  1  0  0  0  0
  5 23  1  0  0  0  0
  6  9  1  0  0  0  0
  6 14  1  0  0  0  0
  7  8  1  0  0  0  0
  7  9  1  0  0  0  0
  7 10  2  0  0  0  0
  8 11  1  0  0  0  0
  8 12  2  0  0  0  0
 10 13  1  0  0  0  0
 12 15  1  0  0  0  0
 13 15  2  0  0  0  0
 14 16  2  0  0  0  0
 14 17  1  0  0  0  0
 16 19  1  0  0  0  0
 17 20  2  0  0  0  0
 18 19  2  0  0  0  0
 18 20  1  0  0  0  0
 18 21  1  0  0  0  0
 21 22  1  0  0  0  0
 22 23  1  0  0  0  0
M  END
> <PUBCHEM_COMPOUND_ID_TYPE>
0

> <PUBCHEM_TOTAL_CHARGE>
0

> <PUBCHEM_SUBSTANCE_ID>
310949734

> <PUBCHEM_SUBSTANCE_VERSION>
1

> <PUBCHEM_EXT_DATASOURCE_NAME>
4488

> <PUBCHEM_EXT_DATASOURCE_REGID>
SCHEMBL16127932

> <PUBCHEM_SUBSTANCE_COMMENT>
InChI=1S/C17H16FNO4/c18-12-5-8-14(17(22)23)15(10-12)16(21)19-13-6-3-11(4-7-13)2-1-9-20/h3-8,10,20H,1-2,9H2,(H,19,21)(H,22,23)
InChIKey=NMRXBFIKCRWJKH-UHFFFAOYSA-N

> <PUBCHEM_SUBSTANCE_SYNONYM>
SCHEMBL16127932

> <PUBCHEM_XREF_EXT_ID>
SCHEMBL16127932

> <PUBCHEM_EXT_DATASOURCE_URL>
https://www.surechembl.org/

> <PUBCHEM_EXT_SUBSTANCE_URL>
https://www.surechembl.org/chemical/SCHEMBL16127932

> <PUBCHEM_CID_ASSOCIATIONS>
85471798  1

> <PUBCHEM_COORDINATE_TYPE>
1
3

$$$$
