310942405
  -OEChem-07211613022D

 28 30  0     0  0  0  0  0  0999 V2000
    0.7129    1.8997    0.0000 S   0  0  0  0  0  0  0  0  0  0  0  0
   -3.6179    0.2524    0.0000 S   0  0  0  0  0  0  0  0  0  0  0  0
    0.2967    2.6082    0.0000 O   0  0  0  0  0  0  0  0  0  0  0  0
    1.1292    2.6082    0.0000 O   0  0  0  0  0  0  0  0  0  0  0  0
    3.6001    0.2524    0.0000 O   0  0  0  0  0  0  0  0  0  0  0  0
   -0.7307    0.2435    0.0000 N   0  0  0  0  0  0  0  0  0  0  0  0
   -2.1654    0.2435    0.0000 N   0  0  0  0  0  0  0  0  0  0  0  0
   -2.8916    1.4834    0.0000 N   0  0  0  0  0  0  0  0  0  0  0  0
   -0.0487   -1.1646    0.0000 N   0  0  0  0  0  0  0  0  0  0  0  0
   -0.2790   -1.9351    0.0000 N   0  0  0  0  0  0  0  0  0  0  0  0
   -1.4480    0.6598    0.0000 C   0  0  0  0  0  0  0  0  0  0  0  0
   -1.4392    1.4834    0.0000 C   0  0  0  0  0  0  0  0  0  0  0  0
    1.4480    1.4834    0.0000 C   0  0  0  0  0  0  0  0  0  0  0  0
    0.0044    1.4834    0.0000 C   0  0  0  0  0  0  0  0  0  0  0  0
   -0.7218    1.8909    0.0000 C   0  0  0  0  0  0  0  0  0  0  0  0
   -0.7395   -0.6598    0.0000 C   0  0  0  0  0  0  0  0  0  0  0  0
   -2.8916    0.6598    0.0000 C   0  0  0  0  0  0  0  0  0  0  0  0
   -2.1654    1.8909    0.0000 C   0  0  0  0  0  0  0  0  0  0  0  0
    1.4480    0.6687    0.0000 C   0  0  0  0  0  0  0  0  0  0  0  0
    2.1743    1.8909    0.0000 C   0  0  0  0  0  0  0  0  0  0  0  0
    2.8828    0.6687    0.0000 C   0  0  0  0  0  0  0  0  0  0  0  0
    2.1654    0.2613    0.0000 C   0  0  0  0  0  0  0  0  0  0  0  0
    2.8828    1.4834    0.0000 C   0  0  0  0  0  0  0  0  0  0  0  0
   -1.3861   -1.1735    0.0000 C   0  0  0  0  0  0  0  0  0  0  0  0
   -1.1115   -1.9351    0.0000 C   0  0  0  0  0  0  0  0  0  0  0  0
    0.2347   -2.6082    0.0000 C   0  0  0  0  0  0  0  0  0  0  0  0
   -4.3440    0.6598    0.0000 C   0  0  0  0  0  0  0  0  0  0  0  0
    4.3440    0.6687    0.0000 C   0  0  0  0  0  0  0  0  0  0  0  0
  1  3  2  0  0  0  0
  1  4  2  0  0  0  0
  1 13  1  0  0  0  0
  1 14  1  0  0  0  0
  2 17  1  0  0  0  0
  2 27  1  0  0  0  0
  5 21  1  0  0  0  0
  5 28  1  0  0  0  0
  6 11  1  0  0  0  0
  6 16  1  0  0  0  0
  7 11  2  0  0  0  0
  7 17  1  0  0  0  0
  8 17  2  0  0  0  0
  8 18  1  0  0  0  0
  9 10  1  0  0  0  0
  9 16  2  0  0  0  0
 10 25  1  0  0  0  0
 10 26  1  0  0  0  0
 11 12  1  0  0  0  0
 12 15  1  0  0  0  0
 12 18  2  0  0  0  0
 13 19  2  0  0  0  0
 13 20  1  0  0  0  0
 14 15  2  0  0  0  0
 16 24  1  0  0  0  0
 19 22  1  0  0  0  0
 20 23  2  0  0  0  0
 21 22  2  0  0  0  0
 21 23  1  0  0  0  0
 24 25  2  0  0  0  0
M  END
> <PUBCHEM_COMPOUND_ID_TYPE>
0

> <PUBCHEM_TOTAL_CHARGE>
0

> <PUBCHEM_SUBSTANCE_ID>
310942405

> <PUBCHEM_SUBSTANCE_VERSION>
1

> <PUBCHEM_EXT_DATASOURCE_NAME>
4488

> <PUBCHEM_EXT_DATASOURCE_REGID>
SCHEMBL16120441

> <PUBCHEM_SUBSTANCE_COMMENT>
InChI=1S/C18H19N5O3S2/c1-23-10-8-16(22-23)20-17-13(12-19-18(21-17)27-3)9-11-28(24,25)15-6-4-14(26-2)5-7-15/h4-12H,1-3H3,(H,19,20,21,22)/b11-9+
InChIKey=FHQKSHBENYJWGX-PKNBQFBNSA-N

> <PUBCHEM_SUBSTANCE_SYNONYM>
SCHEMBL16120441

> <PUBCHEM_XREF_EXT_ID>
SCHEMBL16120441

> <PUBCHEM_EXT_DATASOURCE_URL>
https://www.surechembl.org/

> <PUBCHEM_EXT_SUBSTANCE_URL>
https://www.surechembl.org/chemical/SCHEMBL16120441

> <PUBCHEM_CID_ASSOCIATIONS>
117609009  1

> <PUBCHEM_COORDINATE_TYPE>
1
3

$$$$
