310940294
  -OEChem-07211613022D

 34 38  0     0  0  0  0  0  0999 V2000
   -1.2235   -4.1390    0.0000 Cl  0  0  0  0  0  0  0  0  0  0  0  0
   -3.3233    0.4599    0.0000 O   0  0  0  0  0  0  0  0  0  0  0  0
   -0.5293    0.3211    0.0000 N   0  0  0  0  0  0  0  0  0  0  0  0
   -0.8590   -0.4426    0.0000 N   0  0  0  0  0  0  0  0  0  0  0  0
   -2.2474   -0.9632    0.0000 N   0  0  0  0  0  0  0  0  0  0  0  0
   -2.5945    1.7094    0.0000 N   0  0  0  0  0  0  0  0  0  0  0  0
    0.9285    2.9069    0.0000 N   0  0  0  0  0  0  0  0  0  0  0  0
    2.4556    0.1996    0.0000 N   0  0  0  0  0  0  0  0  0  0  0  0
    0.2516    0.4946    0.0000 C   0  0  0  0  0  0  0  0  0  0  0  0
   -1.1714    0.8764    0.0000 C   0  0  0  0  0  0  0  0  0  0  0  0
   -1.8656    0.4772    0.0000 C   0  0  0  0  0  0  0  0  0  0  0  0
   -1.7094   -0.3384    0.0000 C   0  0  0  0  0  0  0  0  0  0  0  0
   -2.5945    0.8937    0.0000 C   0  0  0  0  0  0  0  0  0  0  0  0
   -0.3037    1.0847    0.0000 C   0  0  0  0  0  0  0  0  0  0  0  0
    1.0673    0.7202    0.0000 C   0  0  0  0  0  0  0  0  0  0  0  0
   -1.1541    1.7094    0.0000 C   0  0  0  0  0  0  0  0  0  0  0  0
    0.8590   -0.1475    0.0000 C   0  0  0  0  0  0  0  0  0  0  0  0
   -1.8829    2.1259    0.0000 C   0  0  0  0  0  0  0  0  0  0  0  0
   -0.0954    1.8829    0.0000 C   0  0  0  0  0  0  0  0  0  0  0  0
    1.2929    1.4838    0.0000 C   0  0  0  0  0  0  0  0  0  0  0  0
    0.7029    2.0912    0.0000 C   0  0  0  0  0  0  0  0  0  0  0  0
   -2.0044   -1.7441    0.0000 C   0  0  0  0  0  0  0  0  0  0  0  0
    1.6573    0.0434    0.0000 C   0  0  0  0  0  0  0  0  0  0  0  0
   -2.5424   -2.3689    0.0000 C   0  0  0  0  0  0  0  0  0  0  0  0
   -1.1888   -1.9524    0.0000 C   0  0  0  0  0  0  0  0  0  0  0  0
    1.7094    3.1325    0.0000 C   0  0  0  0  0  0  0  0  0  0  0  0
   -2.2994   -3.1672    0.0000 C   0  0  0  0  0  0  0  0  0  0  0  0
   -0.9458   -2.7333    0.0000 C   0  0  0  0  0  0  0  0  0  0  0  0
   -1.5011   -3.3407    0.0000 C   0  0  0  0  0  0  0  0  0  0  0  0
    2.3168    2.5424    0.0000 C   0  0  0  0  0  0  0  0  0  0  0  0
    1.9524    3.9308    0.0000 C   0  0  0  0  0  0  0  0  0  0  0  0
    3.1151    2.7507    0.0000 C   0  0  0  0  0  0  0  0  0  0  0  0
    2.7507    4.1390    0.0000 C   0  0  0  0  0  0  0  0  0  0  0  0
    3.3233    3.5490    0.0000 C   0  0  0  0  0  0  0  0  0  0  0  0
  1 29  1  0  0  0  0
  2 13  2  0  0  0  0
  3  4  1  0  0  0  0
  3  9  1  0  0  0  0
  3 10  1  0  0  0  0
  4 12  2  0  0  0  0
  5 12  1  0  0  0  0
  5 22  1  0  0  0  0
  6 13  1  0  0  0  0
  6 18  1  0  0  0  0
 21  7  1  6  0  0  0
  7 26  1  0  0  0  0
  8 23  3  0  0  0  0
  9 14  1  0  0  0  0
  9 15  1  0  0  0  0
  9 17  1  6  0  0  0
 10 11  2  0  0  0  0
 10 16  1  0  0  0  0
 11 12  1  0  0  0  0
 11 13  1  0  0  0  0
 14 19  1  0  0  0  0
 15 20  1  0  0  0  0
 16 18  2  0  0  0  0
 17 23  1  0  0  0  0
 19 21  1  0  0  0  0
 20 21  1  0  0  0  0
 22 24  2  0  0  0  0
 22 25  1  0  0  0  0
 24 27  1  0  0  0  0
 25 28  2  0  0  0  0
 26 30  2  0  0  0  0
 26 31  1  0  0  0  0
 27 29  2  0  0  0  0
 28 29  1  0  0  0  0
 30 32  1  0  0  0  0
 31 33  2  0  0  0  0
 32 34  2  0  0  0  0
 33 34  1  0  0  0  0
M  END
> <PUBCHEM_COMPOUND_ID_TYPE>
0

> <PUBCHEM_TOTAL_CHARGE>
0

> <PUBCHEM_SUBSTANCE_ID>
310940294

> <PUBCHEM_SUBSTANCE_VERSION>
1

> <PUBCHEM_EXT_DATASOURCE_NAME>
4488

> <PUBCHEM_EXT_DATASOURCE_REGID>
SCHEMBL16118237

> <PUBCHEM_SUBSTANCE_COMMENT>
InChI=1S/C26H25ClN6O/c27-18-6-8-20(9-7-18)31-24-23-22(12-17-29-25(23)34)33(32-24)26(15-16-28)13-10-21(11-14-26)30-19-4-2-1-3-5-19/h1-9,12,17,21,30H,10-11,13-15H2,(H,29,34)(H,31,32)/t21-,26-
InChIKey=NEJWWYPJJOPHHP-WVPZODRTSA-N

> <PUBCHEM_SUBSTANCE_SYNONYM>
SCHEMBL16118237

> <PUBCHEM_XREF_EXT_ID>
SCHEMBL16118237

> <PUBCHEM_EXT_DATASOURCE_URL>
https://www.surechembl.org/

> <PUBCHEM_EXT_SUBSTANCE_URL>
https://www.surechembl.org/chemical/SCHEMBL16118237

> <PUBCHEM_CID_ASSOCIATIONS>
90462894  1

> <PUBCHEM_COORDINATE_TYPE>
1
3

> <PUBCHEM_BONDANNOTATIONS>
21  7  6
9  17  6

$$$$
