310948252
  -OEChem-07211613022D

 43 47  0     0  0  0  0  0  0999 V2000
   -3.9265    1.4640    0.0000 Cl  0  0  0  0  0  0  0  0  0  0  0  0
    2.2008    2.5110    0.0000 Cl  0  0  0  0  0  0  0  0  0  0  0  0
    3.6551    0.0291    0.0000 Cl  0  0  0  0  0  0  0  0  0  0  0  0
    3.0928   -1.4251    0.0000 S   0  0  0  0  0  0  0  0  0  0  0  0
   -3.2090    2.6274    0.0000 F   0  0  0  0  0  0  0  0  0  0  0  0
   -2.6080    3.5775    0.0000 F   0  0  0  0  0  0  0  0  0  0  0  0
   -1.6579    2.9570    0.0000 F   0  0  0  0  0  0  0  0  0  0  0  0
    1.1537   -3.5775    0.0000 F   0  0  0  0  0  0  0  0  0  0  0  0
   -0.5527    1.9681    0.0000 O   0  0  0  0  0  0  0  0  0  0  0  0
    3.9265   -1.5997    0.0000 O   0  0  0  0  0  0  0  0  0  0  0  0
    2.3753   -1.2312    0.0000 O   0  0  0  0  0  0  0  0  0  0  0  0
    3.5387   -2.8019    0.0000 O   0  0  0  0  0  0  0  0  0  0  0  0
   -1.5803    0.8241    0.0000 N   0  0  0  0  0  0  0  0  0  0  0  0
   -1.4834    1.6579    0.0000 N   0  0  0  0  0  0  0  0  0  0  0  0
    0.6689    2.5110    0.0000 N   0  0  0  0  0  0  0  0  0  0  0  0
   -0.1648    0.5332    0.0000 C   0  0  0  0  0  0  0  0  0  0  0  0
   -0.9404    0.2812    0.0000 C   0  0  0  0  0  0  0  0  0  0  0  0
    0.0097    1.3670    0.0000 C   0  0  0  0  0  0  0  0  0  0  0  0
    0.7659    1.6966    0.0000 C   0  0  0  0  0  0  0  0  0  0  0  0
    0.2618   -0.8241    0.0000 C   0  0  0  0  0  0  0  0  0  0  0  0
    0.4363    0.0097    0.0000 C   0  0  0  0  0  0  0  0  0  0  0  0
   -2.2589    2.0263    0.0000 C   0  0  0  0  0  0  0  0  0  0  0  0
    0.9016   -1.3670    0.0000 C   0  0  0  0  0  0  0  0  0  0  0  0
    1.4834    1.2701    0.0000 C   0  0  0  0  0  0  0  0  0  0  0  0
   -1.1150   -0.5332    0.0000 C   0  0  0  0  0  0  0  0  0  0  0  0
   -2.8019    1.3864    0.0000 C   0  0  0  0  0  0  0  0  0  0  0  0
   -2.3559    0.6689    0.0000 C   0  0  0  0  0  0  0  0  0  0  0  0
   -0.1260    2.7049    0.0000 C   0  0  0  0  0  0  0  0  0  0  0  0
   -0.5138   -1.0567    0.0000 C   0  0  0  0  0  0  0  0  0  0  0  0
    2.3171   -1.6579    0.0000 C   0  0  0  0  0  0  0  0  0  0  0  0
   -2.4335    2.8019    0.0000 C   0  0  0  0  0  0  0  0  0  0  0  0
    1.7160   -1.1537    0.0000 C   0  0  0  0  0  0  0  0  0  0  0  0
    2.1232   -2.4722    0.0000 C   0  0  0  0  0  0  0  0  0  0  0  0
    0.7465   -2.2008    0.0000 C   0  0  0  0  0  0  0  0  0  0  0  0
    1.3476   -2.7243    0.0000 C   0  0  0  0  0  0  0  0  0  0  0  0
    2.2202    1.6966    0.0000 C   0  0  0  0  0  0  0  0  0  0  0  0
    1.5027    0.4557    0.0000 C   0  0  0  0  0  0  0  0  0  0  0  0
    2.9376    1.2701    0.0000 C   0  0  0  0  0  0  0  0  0  0  0  0
    2.2202    0.0485    0.0000 C   0  0  0  0  0  0  0  0  0  0  0  0
    2.9182    0.4557    0.0000 C   0  0  0  0  0  0  0  0  0  0  0  0
    2.7825   -3.0345    0.0000 C   0  0  0  0  0  0  0  0  0  0  0  0
   -0.4557    3.4612    0.0000 C   0  0  0  0  0  0  0  0  0  0  0  0
    3.2867   -0.5914    0.0000 C   0  0  0  0  0  0  0  0  0  0  0  0
  1 26  1  0  0  0  0
  2 36  1  0  0  0  0
  3 40  1  0  0  0  0
  4 10  2  0  0  0  0
  4 11  2  0  0  0  0
  4 30  1  0  0  0  0
  4 43  1  0  0  0  0
  5 31  1  0  0  0  0
  6 31  1  0  0  0  0
  7 31  1  0  0  0  0
  8 35  1  0  0  0  0
  9 18  1  0  0  0  0
  9 28  1  0  0  0  0
 12 41  1  0  0  0  0
 13 14  1  0  0  0  0
 13 17  1  0  0  0  0
 13 27  1  0  0  0  0
 14 22  2  0  0  0  0
 15 19  1  0  0  0  0
 15 28  2  0  0  0  0
 16 17  1  0  0  0  0
 16 18  1  0  0  0  0
 16 21  2  0  0  0  0
 17 25  2  0  0  0  0
 18 19  2  0  0  0  0
 19 24  1  0  0  0  0
 20 21  1  0  0  0  0
 20 23  1  0  0  0  0
 20 29  2  0  0  0  0
 22 26  1  0  0  0  0
 22 31  1  0  0  0  0
 23 32  1  0  0  0  0
 23 34  2  0  0  0  0
 24 36  2  0  0  0  0
 24 37  1  0  0  0  0
 25 29  1  0  0  0  0
 26 27  2  0  0  0  0
 28 42  1  0  0  0  0
 30 32  2  0  0  0  0
 30 33  1  0  0  0  0
 33 35  2  0  0  0  0
 33 41  1  0  0  0  0
 34 35  1  0  0  0  0
 36 38  1  0  0  0  0
 37 39  2  0  0  0  0
 38 40  2  0  0  0  0
 39 40  1  0  0  0  0
M  END
> <PUBCHEM_COMPOUND_ID_TYPE>
0

> <PUBCHEM_TOTAL_CHARGE>
0

> <PUBCHEM_SUBSTANCE_ID>
310948252

> <PUBCHEM_SUBSTANCE_VERSION>
1

> <PUBCHEM_EXT_DATASOURCE_NAME>
4488

> <PUBCHEM_EXT_DATASOURCE_REGID>
SCHEMBL16126429

> <PUBCHEM_SUBSTANCE_COMMENT>
InChI=1S/C28H18Cl3F4N3O4S/c1-13-36-25(17-5-4-16(29)10-20(17)30)26(42-13)18-7-14(15-8-22(32)19(12-39)24(9-15)43(2,40)41)3-6-23(18)38-11-21(31)27(37-38)28(33,34)35/h3-11,39H,12H2,1-2H3
InChIKey=WRTUYMUJBCWFGU-UHFFFAOYSA-N

> <PUBCHEM_SUBSTANCE_SYNONYM>
SCHEMBL16126429

> <PUBCHEM_XREF_EXT_ID>
SCHEMBL16126429

> <PUBCHEM_EXT_DATASOURCE_URL>
https://www.surechembl.org/

> <PUBCHEM_EXT_SUBSTANCE_URL>
https://www.surechembl.org/chemical/SCHEMBL16126429

> <PUBCHEM_CID_ASSOCIATIONS>
117613832  1

> <PUBCHEM_COORDINATE_TYPE>
1
3

$$$$
