310945283
  -OEChem-07211613022D

 19 20  0     0  0  0  0  0  0999 V2000
   -2.1792   -1.4574    0.0000 O   0  0  0  0  0  0  0  0  0  0  0  0
    0.7081   -0.6324    0.0000 O   0  0  0  0  0  0  0  0  0  0  0  0
   -0.7356   -0.6187    0.0000 N   0  0  0  0  0  0  0  0  0  0  0  0
    0.7081   -3.0935    0.0000 N   0  0  0  0  0  0  0  0  0  0  0  0
    1.4368    2.2686    0.0000 N   0  0  0  0  0  0  0  0  0  0  0  0
   -0.7493   -1.4436    0.0000 C   0  0  0  0  0  0  0  0  0  0  0  0
   -1.4505   -1.8561    0.0000 C   0  0  0  0  0  0  0  0  0  0  0  0
   -0.0481   -0.1925    0.0000 C   0  0  0  0  0  0  0  0  0  0  0  0
   -0.0206   -1.8561    0.0000 C   0  0  0  0  0  0  0  0  0  0  0  0
   -1.4642   -0.2200    0.0000 C   0  0  0  0  0  0  0  0  0  0  0  0
   -1.4505   -2.6811    0.0000 C   0  0  0  0  0  0  0  0  0  0  0  0
   -0.0206   -2.6673    0.0000 C   0  0  0  0  0  0  0  0  0  0  0  0
   -2.1792   -0.6187    0.0000 C   0  0  0  0  0  0  0  0  0  0  0  0
   -0.7356   -3.0935    0.0000 C   0  0  0  0  0  0  0  0  0  0  0  0
    0.0069    0.6187    0.0000 C   0  0  0  0  0  0  0  0  0  0  0  0
    0.7081    1.0312    0.0000 C   0  0  0  0  0  0  0  0  0  0  0  0
    0.7219    1.8561    0.0000 C   0  0  0  0  0  0  0  0  0  0  0  0
    1.4231    3.0935    0.0000 C   0  0  0  0  0  0  0  0  0  0  0  0
    2.1792    1.8424    0.0000 C   0  0  0  0  0  0  0  0  0  0  0  0
  1  7  1  0  0  0  0
  1 13  1  0  0  0  0
  2  8  2  0  0  0  0
  3  6  1  0  0  0  0
  3  8  1  0  0  0  0
  3 10  1  0  0  0  0
  4 12  1  0  0  0  0
  5 17  1  0  0  0  0
  5 18  1  0  0  0  0
  5 19  1  0  0  0  0
  6  7  2  0  0  0  0
  6  9  1  0  0  0  0
  7 11  1  0  0  0  0
  8 15  1  0  0  0  0
  9 12  2  0  0  0  0
 10 13  1  0  0  0  0
 11 14  2  0  0  0  0
 12 14  1  0  0  0  0
 15 16  2  0  0  0  0
 16 17  1  0  0  0  0
M  END
> <PUBCHEM_COMPOUND_ID_TYPE>
0

> <PUBCHEM_TOTAL_CHARGE>
0

> <PUBCHEM_SUBSTANCE_ID>
310945283

> <PUBCHEM_SUBSTANCE_VERSION>
1

> <PUBCHEM_EXT_DATASOURCE_NAME>
4488

> <PUBCHEM_EXT_DATASOURCE_REGID>
SCHEMBL16123378

> <PUBCHEM_SUBSTANCE_COMMENT>
InChI=1S/C14H19N3O2/c1-16(2)7-3-4-14(18)17-8-9-19-13-6-5-11(15)10-12(13)17/h3-6,10H,7-9,15H2,1-2H3/b4-3+
InChIKey=QASPRMDTXLBBOR-ONEGZZNKSA-N

> <PUBCHEM_SUBSTANCE_SYNONYM>
SCHEMBL16123378

> <PUBCHEM_XREF_EXT_ID>
SCHEMBL16123378

> <PUBCHEM_EXT_DATASOURCE_URL>
https://www.surechembl.org/

> <PUBCHEM_EXT_SUBSTANCE_URL>
https://www.surechembl.org/chemical/SCHEMBL16123378

> <PUBCHEM_CID_ASSOCIATIONS>
117611344  1

> <PUBCHEM_COORDINATE_TYPE>
1
3

$$$$
