310930889
  -OEChem-07211613022D

 20 21  0     0  0  0  0  0  0999 V2000
    0.7012   -4.1251    0.0000 Br  0  0  0  0  0  0  0  0  0  0  0  0
    4.2695   -2.8875    0.0000 O   0  0  0  0  0  0  0  0  0  0  0  0
    2.8463   -1.2375    0.0000 O   0  0  0  0  0  0  0  0  0  0  0  0
    3.5476   -1.6500    0.0000 O   0  0  0  0  0  0  0  0  0  0  0  0
    2.1244   -2.4751    0.0000 C   0  0  0  0  0  0  0  0  0  0  0  0
    2.8463   -2.8875    0.0000 C   0  0  0  0  0  0  0  0  0  0  0  0
    2.1244   -1.6500    0.0000 C   0  0  0  0  0  0  0  0  0  0  0  0
    1.4231   -2.8875    0.0000 C   0  0  0  0  0  0  0  0  0  0  0  0
    3.5476   -2.4751    0.0000 C   0  0  0  0  0  0  0  0  0  0  0  0
    1.4231   -1.2375    0.0000 C   0  0  0  0  0  0  0  0  0  0  0  0
    2.8463   -3.7125    0.0000 C   0  0  0  0  0  0  0  0  0  0  0  0
    1.4231   -3.7125    0.0000 C   0  0  0  0  0  0  0  0  0  0  0  0
    2.1244   -4.1251    0.0000 C   0  0  0  0  0  0  0  0  0  0  0  0
    1.4231   -0.4125    0.0000 C   0  0  0  0  0  0  0  0  0  0  0  0
    0.7219   -1.6500    0.0000 C   0  0  0  0  0  0  0  0  0  0  0  0
    0.7219    0.0000    0.0000 C   0  0  0  0  0  0  0  0  0  0  0  0
    0.0000   -1.2375    0.0000 C   0  0  0  0  0  0  0  0  0  0  0  0
    0.0000   -0.4125    0.0000 C   0  0  0  0  0  0  0  0  0  0  0  0
    4.9913   -2.4751    0.0000 C   0  0  0  0  0  0  0  0  0  0  0  0
    4.9913   -1.6500    0.0000 C   0  0  0  0  0  0  0  0  0  0  0  0
  1 12  1  0  0  0  0
  2  9  1  0  0  0  0
  2 19  1  0  0  0  0
  3  7  2  0  0  0  0
  4  9  2  0  0  0  0
  5  6  2  0  0  0  0
  5  7  1  0  0  0  0
  5  8  1  0  0  0  0
  6  9  1  0  0  0  0
  6 11  1  0  0  0  0
  7 10  1  0  0  0  0
  8 12  2  0  0  0  0
 10 14  2  0  0  0  0
 10 15  1  0  0  0  0
 11 13  2  0  0  0  0
 12 13  1  0  0  0  0
 14 16  1  0  0  0  0
 15 17  2  0  0  0  0
 16 18  2  0  0  0  0
 17 18  1  0  0  0  0
 19 20  1  0  0  0  0
M  END
> <PUBCHEM_COMPOUND_ID_TYPE>
0

> <PUBCHEM_TOTAL_CHARGE>
0

> <PUBCHEM_SUBSTANCE_ID>
310930889

> <PUBCHEM_SUBSTANCE_VERSION>
1

> <PUBCHEM_EXT_DATASOURCE_NAME>
4488

> <PUBCHEM_EXT_DATASOURCE_REGID>
SCHEMBL16108187

> <PUBCHEM_SUBSTANCE_COMMENT>
InChI=1S/C16H13BrO3/c1-2-20-16(19)13-9-8-12(17)10-14(13)15(18)11-6-4-3-5-7-11/h3-10H,2H2,1H3
InChIKey=ALFUABVITUJPHC-UHFFFAOYSA-N

> <PUBCHEM_SUBSTANCE_SYNONYM>
SCHEMBL16108187

> <PUBCHEM_XREF_EXT_ID>
SCHEMBL16108187

> <PUBCHEM_EXT_DATASOURCE_URL>
https://www.surechembl.org/

> <PUBCHEM_EXT_SUBSTANCE_URL>
https://www.surechembl.org/chemical/SCHEMBL16108187

> <PUBCHEM_CID_ASSOCIATIONS>
117599862  1

> <PUBCHEM_COORDINATE_TYPE>
1
3

$$$$
