310932905
  -OEChem-07211613022D

 28 30  0     0  0  0  0  0  0999 V2000
    3.7451   -2.0986    0.0000 O   0  0  0  0  0  0  0  0  0  0  0  0
    0.0000   -1.0654    0.0000 O   0  0  0  0  0  0  0  0  0  0  0  0
    8.2328   -2.1954    0.0000 O   0  0  0  0  0  0  0  0  0  0  0  0
    8.9753   -5.9405    0.0000 O   0  0  0  0  0  0  0  0  0  0  0  0
    4.6491   -0.9686    0.0000 N   0  0  0  0  0  0  0  0  0  0  0  0
    4.5522   -0.1292    0.0000 N   0  0  0  0  0  0  0  0  0  0  0  0
    6.0697   -0.9686    0.0000 N   0  0  0  0  0  0  0  0  0  0  0  0
    1.3560   -1.6466    0.0000 N   0  0  0  0  0  0  0  0  0  0  0  0
    7.5225   -3.4545    0.0000 N   0  0  0  0  0  0  0  0  0  0  0  0
    3.3254   -0.7103    0.0000 C   0  0  0  0  0  0  0  0  0  0  0  0
    3.9066   -1.2914    0.0000 C   0  0  0  0  0  0  0  0  0  0  0  0
    2.5182   -0.7749    0.0000 C   0  0  0  0  0  0  0  0  0  0  0  0
    5.3594   -1.3882    0.0000 C   0  0  0  0  0  0  0  0  0  0  0  0
    3.7451    0.0000    0.0000 C   0  0  0  0  0  0  0  0  0  0  0  0
    2.1631   -1.5497    0.0000 C   0  0  0  0  0  0  0  0  0  0  0  0
    5.3594   -2.1954    0.0000 C   0  0  0  0  0  0  0  0  0  0  0  0
    2.0017   -0.1292    0.0000 C   0  0  0  0  0  0  0  0  0  0  0  0
    6.7799   -2.1954    0.0000 C   0  0  0  0  0  0  0  0  0  0  0  0
    0.8394   -0.9686    0.0000 C   0  0  0  0  0  0  0  0  0  0  0  0
    6.7799   -1.3882    0.0000 C   0  0  0  0  0  0  0  0  0  0  0  0
    6.0697   -2.6151    0.0000 C   0  0  0  0  0  0  0  0  0  0  0  0
    1.1945   -0.2260    0.0000 C   0  0  0  0  0  0  0  0  0  0  0  0
    7.5225   -2.6151    0.0000 C   0  0  0  0  0  0  0  0  0  0  0  0
    1.0008   -2.3891    0.0000 C   0  0  0  0  0  0  0  0  0  0  0  0
    8.2328   -3.8742    0.0000 C   0  0  0  0  0  0  0  0  0  0  0  0
    8.2328   -4.6814    0.0000 C   0  0  0  0  0  0  0  0  0  0  0  0
    8.9431   -5.1011    0.0000 C   0  0  0  0  0  0  0  0  0  0  0  0
    9.6856   -6.3279    0.0000 C   0  0  0  0  0  0  0  0  0  0  0  0
  1 11  1  0  0  0  0
  2 19  2  0  0  0  0
  3 23  2  0  0  0  0
  4 27  1  0  0  0  0
  4 28  1  0  0  0  0
  5  6  1  0  0  0  0
  5 11  1  0  0  0  0
  5 13  1  0  0  0  0
  6 14  2  0  0  0  0
  7 13  2  0  0  0  0
  7 20  1  0  0  0  0
  8 15  1  0  0  0  0
  8 19  1  0  0  0  0
  8 24  1  0  0  0  0
  9 23  1  0  0  0  0
  9 25  1  0  0  0  0
 10 11  2  0  0  0  0
 10 12  1  0  0  0  0
 10 14  1  0  0  0  0
 12 15  2  0  0  0  0
 12 17  1  0  0  0  0
 13 16  1  0  0  0  0
 16 21  2  0  0  0  0
 17 22  2  0  0  0  0
 18 20  2  0  0  0  0
 18 21  1  0  0  0  0
 18 23  1  0  0  0  0
 19 22  1  0  0  0  0
 25 26  1  0  0  0  0
 26 27  1  0  0  0  0
M  END
> <PUBCHEM_COMPOUND_ID_TYPE>
0

> <PUBCHEM_TOTAL_CHARGE>
0

> <PUBCHEM_SUBSTANCE_ID>
310932905

> <PUBCHEM_SUBSTANCE_VERSION>
1

> <PUBCHEM_EXT_DATASOURCE_NAME>
4488

> <PUBCHEM_EXT_DATASOURCE_REGID>
SCHEMBL16110299

> <PUBCHEM_SUBSTANCE_COMMENT>
InChI=1S/C19H21N5O4/c1-23-12-14(5-7-17(23)25)15-11-22-24(19(15)27)16-6-4-13(10-21-16)18(26)20-8-3-9-28-2/h4-7,10-12,27H,3,8-9H2,1-2H3,(H,20,26)
InChIKey=MTYQLWBRCMFZMN-UHFFFAOYSA-N

> <PUBCHEM_SUBSTANCE_SYNONYM>
SCHEMBL16110299

> <PUBCHEM_XREF_EXT_ID>
SCHEMBL16110299

> <PUBCHEM_EXT_DATASOURCE_URL>
https://www.surechembl.org/

> <PUBCHEM_EXT_SUBSTANCE_URL>
https://www.surechembl.org/chemical/SCHEMBL16110299

> <PUBCHEM_CID_ASSOCIATIONS>
117601387  1

> <PUBCHEM_COORDINATE_TYPE>
1
3

$$$$
