310941168
  -OEChem-07211613022D

 42 45  0     1  0  0  0  0  0999 V2000
    5.2335   -1.4327    0.0000 O   0  0  0  0  0  0  0  0  0  0  0  0
    4.0932    0.5409    0.0000 O   0  0  0  0  0  0  0  0  0  0  0  0
    1.7104   -1.4180    0.0000 O   0  0  0  0  0  0  0  0  0  0  0  0
    3.8740    2.3244    0.0000 O   0  0  0  0  0  0  0  0  0  0  0  0
   -0.4678    0.6579    0.0000 O   0  0  0  0  0  0  0  0  0  0  0  0
    2.4267    3.1722    0.0000 O   0  0  0  0  0  0  0  0  0  0  0  0
   -2.6314   -1.4180    0.0000 O   0  0  0  0  0  0  0  0  0  0  0  0
   -5.5113   -1.4180    0.0000 O   0  0  0  0  0  0  0  0  0  0  0  0
    2.4121   -0.1754    0.0000 N   0  0  0  0  0  0  0  0  0  0  0  0
    0.2486   -0.5847    0.0000 N   0  0  0  0  0  0  0  0  0  0  0  0
   -1.9151   -0.1754    0.0000 N   0  0  0  0  0  0  0  0  0  0  0  0
   -4.0786   -0.5847    0.0000 N   0  0  0  0  0  0  0  0  0  0  0  0
    4.8095   -0.7017    0.0000 C   0  0  3  0  0  0  0  0  0  0  0  0
    4.0202   -0.2778    0.0000 C   0  0  0  0  0  0  0  0  0  0  0  0
    4.4002   -1.3888    0.0000 C   0  0  0  0  0  0  0  0  0  0  0  0
    3.3769   -0.6724    0.0000 C   0  0  3  0  0  0  0  0  0  0  0  0
    5.5113   -0.2778    0.0000 C   0  0  0  0  0  0  0  0  0  0  0  0
    3.3477   -1.7689    0.0000 C   0  0  0  0  0  0  0  0  0  0  0  0
    1.6958   -0.5409    0.0000 C   0  0  0  0  0  0  0  0  0  0  0  0
    0.9794   -0.1462    0.0000 C   0  0  3  0  0  0  0  0  0  0  0  0
    2.6460   -2.1928    0.0000 C   0  0  0  0  0  0  0  0  0  0  0  0
    0.9941    0.6871    0.0000 C   0  0  0  0  0  0  0  0  0  0  0  0
    1.6811    1.1111    0.0000 C   0  0  0  0  0  0  0  0  0  0  0  0
   -0.4824   -0.1608    0.0000 C   0  0  0  0  0  0  0  0  0  0  0  0
    1.8712   -1.8566    0.0000 C   0  0  0  0  0  0  0  0  0  0  0  0
    2.5436   -3.0115    0.0000 C   0  0  0  0  0  0  0  0  0  0  0  0
    1.7104    1.9443    0.0000 C   0  0  0  0  0  0  0  0  0  0  0  0
    2.4267    2.3536    0.0000 C   0  0  0  0  0  0  0  0  0  0  0  0
    3.1430    1.9443    0.0000 C   0  0  0  0  0  0  0  0  0  0  0  0
    2.4267    0.7017    0.0000 C   0  0  0  0  0  0  0  0  0  0  0  0
   -1.1841   -0.5555    0.0000 C   0  0  3  0  0  0  0  0  0  0  0  0
    3.1430    1.1111    0.0000 C   0  0  0  0  0  0  0  0  0  0  0  0
    1.3303   -2.4706    0.0000 C   0  0  0  0  0  0  0  0  0  0  0  0
    1.7250   -3.1722    0.0000 C   0  0  0  0  0  0  0  0  0  0  0  0
   -2.6314   -0.5409    0.0000 C   0  0  0  0  0  0  0  0  0  0  0  0
   -1.1841   -1.3742    0.0000 C   0  0  0  0  0  0  0  0  0  0  0  0
   -3.3769   -0.1462    0.0000 C   0  0  0  0  0  0  0  0  0  0  0  0
   -4.0786   -1.3888    0.0000 C   0  0  0  0  0  0  0  0  0  0  0  0
   -4.8095   -0.1462    0.0000 C   0  0  0  0  0  0  0  0  0  0  0  0
    4.6049    1.9151    0.0000 C   0  0  0  0  0  0  0  0  0  0  0  0
   -4.7950   -1.8127    0.0000 C   0  0  0  0  0  0  0  0  0  0  0  0
   -5.5113   -0.5555    0.0000 C   0  0  0  0  0  0  0  0  0  0  0  0
  1 13  1  0  0  0  0
  1 15  1  0  0  0  0
  2 14  2  0  0  0  0
  3 19  2  0  0  0  0
  4 29  1  0  0  0  0
  4 40  1  0  0  0  0
  5 24  2  0  0  0  0
  6 28  1  0  0  0  0
  7 35  2  0  0  0  0
  8 41  1  0  0  0  0
  8 42  1  0  0  0  0
 16  9  1  6  0  0  0
  9 19  1  0  0  0  0
 20 10  1  1  0  0  0
 10 24  1  0  0  0  0
 11 31  1  0  0  0  0
 11 35  1  0  0  0  0
 12 37  1  0  0  0  0
 12 38  1  0  0  0  0
 12 39  1  0  0  0  0
 13 14  1  6  0  0  0
 13 15  1  0  0  0  0
 13 17  1  1  0  0  0
 14 16  1  0  0  0  0
 16 18  1  0  0  0  0
 18 21  1  0  0  0  0
 19 20  1  0  0  0  0
 20 22  1  0  0  0  0
 21 25  2  0  0  0  0
 21 26  1  0  0  0  0
 22 23  1  0  0  0  0
 23 27  1  0  0  0  0
 23 30  2  0  0  0  0
 24 31  1  0  0  0  0
 25 33  1  0  0  0  0
 26 34  1  0  0  0  0
 27 28  2  0  0  0  0
 28 29  1  0  0  0  0
 29 32  2  0  0  0  0
 30 32  1  0  0  0  0
 31 36  1  6  0  0  0
 33 34  1  0  0  0  0
 35 37  1  0  0  0  0
 38 41  1  0  0  0  0
 39 42  1  0  0  0  0
M  END
> <PUBCHEM_COMPOUND_ID_TYPE>
0

> <PUBCHEM_TOTAL_CHARGE>
0

> <PUBCHEM_SUBSTANCE_ID>
310941168

> <PUBCHEM_SUBSTANCE_VERSION>
1

> <PUBCHEM_EXT_DATASOURCE_NAME>
4488

> <PUBCHEM_EXT_DATASOURCE_REGID>
SCHEMBL16119128

> <PUBCHEM_SUBSTANCE_COMMENT>
InChI=1S/C30H42N4O8/c1-19(31-26(36)17-34-10-12-41-13-11-34)28(38)33-23(15-21-8-9-25(40-3)24(35)16-21)29(39)32-22(14-20-6-4-5-7-20)27(37)30(2)18-42-30/h6,8-9,16,19,22-23,35H,4-5,7,10-15,17-18H2,1-3H3,(H,31,36)(H,32,39)(H,33,38)/t19-,22-,23-,30+/m0/s1
InChIKey=KHDJFXOXBXYGNT-UMKVOQDKSA-N

> <PUBCHEM_SUBSTANCE_SYNONYM>
SCHEMBL16119128

> <PUBCHEM_XREF_EXT_ID>
SCHEMBL16119128

> <PUBCHEM_EXT_DATASOURCE_URL>
https://www.surechembl.org/

> <PUBCHEM_EXT_SUBSTANCE_URL>
https://www.surechembl.org/chemical/SCHEMBL16119128

> <PUBCHEM_CID_ASSOCIATIONS>
117608044  1

> <PUBCHEM_COORDINATE_TYPE>
1
3

> <PUBCHEM_BONDANNOTATIONS>
20  10  5
13  14  6
13  17  5
31  36  6
16  9  6

$$$$
