310932529
  -OEChem-07211613022D

 30 33  0     0  0  0  0  0  0999 V2000
    7.4528    0.0000    0.0000 F   0  0  0  0  0  0  0  0  0  0  0  0
    5.1071   -1.3659    0.0000 O   0  0  0  0  0  0  0  0  0  0  0  0
    0.9799   -3.0584    0.0000 O   0  0  0  0  0  0  0  0  0  0  0  0
    0.4751   -0.1188    0.0000 O   0  0  0  0  0  0  0  0  0  0  0  0
    4.7211   -2.7614    0.0000 N   0  0  0  0  0  0  0  0  0  0  0  0
    5.1368   -3.4740    0.0000 N   0  0  0  0  0  0  0  0  0  0  0  0
    3.4444   -3.3256    0.0000 N   0  0  0  0  0  0  0  0  0  0  0  0
    1.1283   -1.6331    0.0000 N   0  0  0  0  0  0  0  0  0  0  0  0
    8.9078    0.0000    0.0000 N   0  0  0  0  0  0  0  0  0  0  0  0
    6.0276   -2.4942    0.0000 C   0  0  0  0  0  0  0  0  0  0  0  0
    5.2853   -2.1676    0.0000 C   0  0  0  0  0  0  0  0  0  0  0  0
    6.7402   -2.0785    0.0000 C   0  0  0  0  0  0  0  0  0  0  0  0
    3.9194   -2.6723    0.0000 C   0  0  0  0  0  0  0  0  0  0  0  0
    5.9385   -3.2959    0.0000 C   0  0  0  0  0  0  0  0  0  0  0  0
    7.4528   -2.4942    0.0000 C   0  0  0  0  0  0  0  0  0  0  0  0
    6.7402   -1.2471    0.0000 C   0  0  0  0  0  0  0  0  0  0  0  0
    7.4528   -0.8314    0.0000 C   0  0  0  0  0  0  0  0  0  0  0  0
    2.2863   -2.4942    0.0000 C   0  0  0  0  0  0  0  0  0  0  0  0
    8.1655   -1.2471    0.0000 C   0  0  0  0  0  0  0  0  0  0  0  0
    3.5928   -1.9003    0.0000 C   0  0  0  0  0  0  0  0  0  0  0  0
    8.1655   -2.0785    0.0000 C   0  0  0  0  0  0  0  0  0  0  0  0
    1.4549   -2.4051    0.0000 C   0  0  0  0  0  0  0  0  0  0  0  0
    2.6130   -3.2662    0.0000 C   0  0  0  0  0  0  0  0  0  0  0  0
    2.7614   -1.8409    0.0000 C   0  0  0  0  0  0  0  0  0  0  0  0
    7.4528   -3.2959    0.0000 C   0  0  0  0  0  0  0  0  0  0  0  0
    8.9078   -0.8314    0.0000 C   0  0  0  0  0  0  0  0  0  0  0  0
    0.3266   -1.5440    0.0000 C   0  0  0  0  0  0  0  0  0  0  0  0
    1.6331   -0.9799    0.0000 C   0  0  0  0  0  0  0  0  0  0  0  0
    1.3065   -0.2376    0.0000 C   0  0  0  0  0  0  0  0  0  0  0  0
    0.0000   -0.8017    0.0000 C   0  0  0  0  0  0  0  0  0  0  0  0
  1 17  1  0  0  0  0
  2 11  1  0  0  0  0
  3 22  2  0  0  0  0
  4 29  1  0  0  0  0
  4 30  1  0  0  0  0
  5  6  1  0  0  0  0
  5 11  1  0  0  0  0
  5 13  1  0  0  0  0
  6 14  2  0  0  0  0
  7 13  1  0  0  0  0
  7 23  2  0  0  0  0
  8 22  1  0  0  0  0
  8 27  1  0  0  0  0
  8 28  1  0  0  0  0
  9 26  3  0  0  0  0
 10 11  2  0  0  0  0
 10 12  1  0  0  0  0
 10 14  1  0  0  0  0
 12 15  1  0  0  0  0
 12 16  2  0  0  0  0
 13 20  2  0  0  0  0
 15 21  2  0  0  0  0
 15 25  1  0  0  0  0
 16 17  1  0  0  0  0
 17 19  2  0  0  0  0
 18 22  1  0  0  0  0
 18 23  1  0  0  0  0
 18 24  2  0  0  0  0
 19 21  1  0  0  0  0
 19 26  1  0  0  0  0
 20 24  1  0  0  0  0
 27 30  1  0  0  0  0
 28 29  1  0  0  0  0
M  END
> <PUBCHEM_COMPOUND_ID_TYPE>
0

> <PUBCHEM_TOTAL_CHARGE>
0

> <PUBCHEM_SUBSTANCE_ID>
310932529

> <PUBCHEM_SUBSTANCE_VERSION>
1

> <PUBCHEM_EXT_DATASOURCE_NAME>
4488

> <PUBCHEM_EXT_DATASOURCE_REGID>
SCHEMBL16109904

> <PUBCHEM_SUBSTANCE_COMMENT>
InChI=1S/C21H18FN5O3/c1-13-8-15(10-23)18(22)9-16(13)17-12-25-27(21(17)29)19-3-2-14(11-24-19)20(28)26-4-6-30-7-5-26/h2-3,8-9,11-12,29H,4-7H2,1H3
InChIKey=ZNFFKADYPCAFNM-UHFFFAOYSA-N

> <PUBCHEM_SUBSTANCE_SYNONYM>
SCHEMBL16109904

> <PUBCHEM_XREF_EXT_ID>
SCHEMBL16109904

> <PUBCHEM_EXT_DATASOURCE_URL>
https://www.surechembl.org/

> <PUBCHEM_EXT_SUBSTANCE_URL>
https://www.surechembl.org/chemical/SCHEMBL16109904

> <PUBCHEM_CID_ASSOCIATIONS>
117601061  1

> <PUBCHEM_COORDINATE_TYPE>
1
3

$$$$
