310940418
  -OEChem-07211613022D

 19 20  0     0  0  0  0  0  0999 V2000
   -2.8271   -0.1935    0.0000 F   0  0  0  0  0  0  0  0  0  0  0  0
   -3.6288    0.6083    0.0000 F   0  0  0  0  0  0  0  0  0  0  0  0
   -2.8271    1.4100    0.0000 F   0  0  0  0  0  0  0  0  0  0  0  0
    2.1497   -0.0968    0.0000 O   0  0  0  0  0  0  0  0  0  0  0  0
    0.4492    0.1382    0.0000 N   0  0  0  0  0  0  0  0  0  0  0  0
    3.6288    0.8157    0.0000 N   0  0  0  0  0  0  0  0  0  0  0  0
   -2.0115    0.4838    0.0000 C   0  0  0  0  0  0  0  0  0  0  0  0
   -2.8271    0.6221    0.0000 C   0  0  0  0  0  0  0  0  0  0  0  0
   -0.3663    0.2350    0.0000 C   0  0  0  0  0  0  0  0  0  0  0  0
    1.6106   -0.7051    0.0000 C   0  0  0  0  0  0  0  0  0  0  0  0
   -1.4861    1.1336    0.0000 C   0  0  0  0  0  0  0  0  0  0  0  0
   -1.7073   -0.2626    0.0000 C   0  0  0  0  0  0  0  0  0  0  0  0
    2.9238   -0.4147    0.0000 C   0  0  0  0  0  0  0  0  0  0  0  0
   -0.6705    0.9953    0.0000 C   0  0  0  0  0  0  0  0  0  0  0  0
   -0.8917   -0.4008    0.0000 C   0  0  0  0  0  0  0  0  0  0  0  0
    0.7811   -0.5945    0.0000 C   0  0  0  0  0  0  0  0  0  0  0  0
    2.0391   -1.4100    0.0000 C   0  0  0  0  0  0  0  0  0  0  0  0
    2.8271   -1.2442    0.0000 C   0  0  0  0  0  0  0  0  0  0  0  0
    3.6288   -0.0138    0.0000 C   0  0  0  0  0  0  0  0  0  0  0  0
  1  8  1  0  0  0  0
  2  8  1  0  0  0  0
  3  8  1  0  0  0  0
  4 10  1  0  0  0  0
  4 13  1  0  0  0  0
  5  9  1  0  0  0  0
  5 16  2  0  0  0  0
  6 19  2  3  0  0  0
  7  8  1  0  0  0  0
  7 11  2  0  0  0  0
  7 12  1  0  0  0  0
  9 14  2  0  0  0  0
  9 15  1  0  0  0  0
 10 16  1  0  0  0  0
 10 17  2  0  0  0  0
 11 14  1  0  0  0  0
 12 15  2  0  0  0  0
 13 18  2  0  0  0  0
 13 19  1  0  0  0  0
 17 18  1  0  0  0  0
M  END
> <PUBCHEM_COMPOUND_ID_TYPE>
0

> <PUBCHEM_TOTAL_CHARGE>
0

> <PUBCHEM_SUBSTANCE_ID>
310940418

> <PUBCHEM_SUBSTANCE_VERSION>
1

> <PUBCHEM_EXT_DATASOURCE_NAME>
4488

> <PUBCHEM_EXT_DATASOURCE_REGID>
SCHEMBL16118366

> <PUBCHEM_SUBSTANCE_COMMENT>
InChI=1S/C13H9F3N2O/c14-13(15,16)9-1-3-10(4-2-9)18-8-12-6-5-11(7-17)19-12/h1-8,17H/b17-7?,18-8+
InChIKey=ZQZXGBSCEXWKKZ-YDVCFDMCSA-N

> <PUBCHEM_SUBSTANCE_SYNONYM>
SCHEMBL16118366

> <PUBCHEM_XREF_EXT_ID>
SCHEMBL16118366

> <PUBCHEM_EXT_DATASOURCE_URL>
https://www.surechembl.org/

> <PUBCHEM_EXT_SUBSTANCE_URL>
https://www.surechembl.org/chemical/SCHEMBL16118366

> <PUBCHEM_CID_ASSOCIATIONS>
117607443  1

> <PUBCHEM_COORDINATE_TYPE>
1
3

> <PUBCHEM_BONDANNOTATIONS>
5  9  3

$$$$
