310940414
  -OEChem-07211613022D

 29 31  0     0  0  0  0  0  0999 V2000
    0.7529   -1.6592    0.0000 O   0  0  0  0  0  0  0  0  0  0  0  0
   -4.0295    0.4880    0.0000 O   0  0  0  0  0  0  0  0  0  0  0  0
    4.4199    2.1751    0.0000 O   0  0  0  0  0  0  0  0  0  0  0  0
   -2.6770    1.0039    0.0000 O   0  0  0  0  0  0  0  0  0  0  0  0
    2.9698    2.1751    0.0000 O   0  0  0  0  0  0  0  0  0  0  0  0
   -0.9621   -1.4221    0.0000 N   0  0  0  0  0  0  0  0  0  0  0  0
    2.2448   -0.7390    0.0000 N   0  0  0  0  0  0  0  0  0  0  0  0
    0.2092   -2.2866    0.0000 C   0  0  0  0  0  0  0  0  0  0  0  0
    1.5337   -1.9799    0.0000 C   0  0  0  0  0  0  0  0  0  0  0  0
   -1.7847   -1.3106    0.0000 C   0  0  0  0  0  0  0  0  0  0  0  0
    2.9838   -0.3347    0.0000 C   0  0  0  0  0  0  0  0  0  0  0  0
   -2.9141   -0.4044    0.0000 C   0  0  0  0  0  0  0  0  0  0  0  0
    3.6949    0.9202    0.0000 C   0  0  0  0  0  0  0  0  0  0  0  0
    0.6135   -2.9838    0.0000 C   0  0  0  0  0  0  0  0  0  0  0  0
    1.4361   -2.8304    0.0000 C   0  0  0  0  0  0  0  0  0  0  0  0
   -0.6274   -2.1751    0.0000 C   0  0  0  0  0  0  0  0  0  0  0  0
    2.2448   -1.5755    0.0000 C   0  0  0  0  0  0  0  0  0  0  0  0
   -2.0915   -0.5577    0.0000 C   0  0  0  0  0  0  0  0  0  0  0  0
    2.9838    0.5019    0.0000 C   0  0  0  0  0  0  0  0  0  0  0  0
   -3.2208    0.3486    0.0000 C   0  0  0  0  0  0  0  0  0  0  0  0
    3.7227    1.7568    0.0000 C   0  0  0  0  0  0  0  0  0  0  0  0
   -2.3284   -1.9799    0.0000 C   0  0  0  0  0  0  0  0  0  0  0  0
    3.7088   -0.7250    0.0000 C   0  0  0  0  0  0  0  0  0  0  0  0
   -3.4299   -1.0736    0.0000 C   0  0  0  0  0  0  0  0  0  0  0  0
    4.4199    0.5019    0.0000 C   0  0  0  0  0  0  0  0  0  0  0  0
   -3.1372   -1.8405    0.0000 C   0  0  0  0  0  0  0  0  0  0  0  0
    4.4199   -0.3207    0.0000 C   0  0  0  0  0  0  0  0  0  0  0  0
   -4.4199    1.1712    0.0000 C   0  0  0  0  0  0  0  0  0  0  0  0
    4.4199    2.9838    0.0000 C   0  0  0  0  0  0  0  0  0  0  0  0
  1  8  1  0  0  0  0
  1  9  1  0  0  0  0
  2 20  1  0  0  0  0
  2 28  1  0  0  0  0
  3 21  1  0  0  0  0
  3 29  1  0  0  0  0
  4 20  2  0  0  0  0
  5 21  2  0  0  0  0
  6 10  1  0  0  0  0
  6 16  2  0  0  0  0
  7 11  1  0  0  0  0
  7 17  2  0  0  0  0
  8 14  2  0  0  0  0
  8 16  1  0  0  0  0
  9 15  2  0  0  0  0
  9 17  1  0  0  0  0
 10 18  2  0  0  0  0
 10 22  1  0  0  0  0
 11 19  1  0  0  0  0
 11 23  2  0  0  0  0
 12 18  1  0  0  0  0
 12 20  1  0  0  0  0
 12 24  2  0  0  0  0
 13 19  2  0  0  0  0
 13 21  1  0  0  0  0
 13 25  1  0  0  0  0
 14 15  1  0  0  0  0
 22 26  2  0  0  0  0
 23 27  1  0  0  0  0
 24 26  1  0  0  0  0
 25 27  2  0  0  0  0
M  END
> <PUBCHEM_COMPOUND_ID_TYPE>
0

> <PUBCHEM_TOTAL_CHARGE>
0

> <PUBCHEM_SUBSTANCE_ID>
310940414

> <PUBCHEM_SUBSTANCE_VERSION>
1

> <PUBCHEM_EXT_DATASOURCE_NAME>
4488

> <PUBCHEM_EXT_DATASOURCE_REGID>
SCHEMBL16118362

> <PUBCHEM_SUBSTANCE_COMMENT>
InChI=1S/C22H18N2O5/c1-27-21(25)15-5-3-7-17(11-15)23-13-19-9-10-20(29-19)14-24-18-8-4-6-16(12-18)22(26)28-2/h3-14H,1-2H3/b23-13+,24-14+
InChIKey=RUNOPQQKEMVKHI-RNIAWFEPSA-N

> <PUBCHEM_SUBSTANCE_SYNONYM>
SCHEMBL16118362

> <PUBCHEM_XREF_EXT_ID>
SCHEMBL16118362

> <PUBCHEM_EXT_DATASOURCE_URL>
https://www.surechembl.org/

> <PUBCHEM_EXT_SUBSTANCE_URL>
https://www.surechembl.org/chemical/SCHEMBL16118362

> <PUBCHEM_CID_ASSOCIATIONS>
117607439  1

> <PUBCHEM_COORDINATE_TYPE>
1
3

> <PUBCHEM_BONDANNOTATIONS>
6  10  3
7  11  3

$$$$
