310944254
  -OEChem-07211613022D

 31 35  0     0  0  0  0  0  0999 V2000
   -0.0072    1.5332    0.0000 N   0  0  0  0  0  0  0  0  0  0  0  0
    2.1809    1.0725    0.0000 N   0  0  0  0  0  0  0  0  0  0  0  0
   -2.1809    1.0293    0.0000 N   0  0  0  0  0  0  0  0  0  0  0  0
    0.6694    2.0514    0.0000 C   0  0  0  0  0  0  0  0  0  0  0  0
   -0.7126    2.0370    0.0000 C   0  0  0  0  0  0  0  0  0  0  0  0
    0.0072    0.7126    0.0000 C   0  0  0  0  0  0  0  0  0  0  0  0
    0.4247    2.8144    0.0000 C   0  0  0  0  0  0  0  0  0  0  0  0
   -0.4391    2.8144    0.0000 C   0  0  0  0  0  0  0  0  0  0  0  0
    0.7413    0.3239    0.0000 C   0  0  0  0  0  0  0  0  0  0  0  0
   -0.7269    0.3095    0.0000 C   0  0  0  0  0  0  0  0  0  0  0  0
    0.0072   -0.9285    0.0000 C   0  0  0  0  0  0  0  0  0  0  0  0
   -1.5044    1.8498    0.0000 C   0  0  0  0  0  0  0  0  0  0  0  0
    1.4900    1.8786    0.0000 C   0  0  0  0  0  0  0  0  0  0  0  0
    0.7269   -0.5111    0.0000 C   0  0  0  0  0  0  0  0  0  0  0  0
   -0.7126   -0.5255    0.0000 C   0  0  0  0  0  0  0  0  0  0  0  0
   -0.9861    3.4046    0.0000 C   0  0  0  0  0  0  0  0  0  0  0  0
    0.9717    3.4046    0.0000 C   0  0  0  0  0  0  0  0  0  0  0  0
    0.0072   -1.7778    0.0000 C   0  0  0  0  0  0  0  0  0  0  0  0
    1.4468    0.7126    0.0000 C   0  0  0  0  0  0  0  0  0  0  0  0
   -1.4612    0.6838    0.0000 C   0  0  0  0  0  0  0  0  0  0  0  0
   -2.0658    2.4401    0.0000 C   0  0  0  0  0  0  0  0  0  0  0  0
    2.0514    2.4689    0.0000 C   0  0  0  0  0  0  0  0  0  0  0  0
   -1.8210    3.2174    0.0000 C   0  0  0  0  0  0  0  0  0  0  0  0
    1.7922    3.2462    0.0000 C   0  0  0  0  0  0  0  0  0  0  0  0
   -0.6981   -2.1809    0.0000 C   0  0  0  0  0  0  0  0  0  0  0  0
    0.7557   -2.1666    0.0000 C   0  0  0  0  0  0  0  0  0  0  0  0
   -0.7126   -2.9871    0.0000 C   0  0  0  0  0  0  0  0  0  0  0  0
    0.7413   -3.0159    0.0000 C   0  0  0  0  0  0  0  0  0  0  0  0
    0.0504   -3.4046    0.0000 C   0  0  0  0  0  0  0  0  0  0  0  0
   -1.4468   -1.7922    0.0000 C   0  0  0  0  0  0  0  0  0  0  0  0
    1.4900   -1.7634    0.0000 C   0  0  0  0  0  0  0  0  0  0  0  0
  1  4  1  0  0  0  0
  1  5  1  0  0  0  0
  1  6  1  0  0  0  0
  2 19  3  0  0  0  0
  3 20  3  0  0  0  0
  4  7  2  0  0  0  0
  4 13  1  0  0  0  0
  5  8  2  0  0  0  0
  5 12  1  0  0  0  0
  6  9  2  0  0  0  0
  6 10  1  0  0  0  0
  7  8  1  0  0  0  0
  7 17  1  0  0  0  0
  8 16  1  0  0  0  0
  9 14  1  0  0  0  0
  9 19  1  0  0  0  0
 10 15  2  0  0  0  0
 10 20  1  0  0  0  0
 11 14  2  0  0  0  0
 11 15  1  0  0  0  0
 11 18  1  0  0  0  0
 12 21  2  0  0  0  0
 13 22  2  0  0  0  0
 16 23  2  0  0  0  0
 17 24  2  0  0  0  0
 18 25  2  0  0  0  0
 18 26  1  0  0  0  0
 21 23  1  0  0  0  0
 22 24  1  0  0  0  0
 25 27  1  0  0  0  0
 25 30  1  0  0  0  0
 26 28  2  0  0  0  0
 26 31  1  0  0  0  0
 27 29  2  0  0  0  0
 28 29  1  0  0  0  0
M  END
> <PUBCHEM_COMPOUND_ID_TYPE>
0

> <PUBCHEM_TOTAL_CHARGE>
0

> <PUBCHEM_SUBSTANCE_ID>
310944254

> <PUBCHEM_SUBSTANCE_VERSION>
1

> <PUBCHEM_EXT_DATASOURCE_NAME>
4488

> <PUBCHEM_EXT_DATASOURCE_REGID>
SCHEMBL16122329

> <PUBCHEM_SUBSTANCE_COMMENT>
InChI=1S/C28H19N3/c1-18-8-7-9-19(2)27(18)20-14-21(16-29)28(22(15-20)17-30)31-25-12-5-3-10-23(25)24-11-4-6-13-26(24)31/h3-15H,1-2H3
InChIKey=YKMCVUJHECIFPS-UHFFFAOYSA-N

> <PUBCHEM_SUBSTANCE_SYNONYM>
SCHEMBL16122329

> <PUBCHEM_XREF_EXT_ID>
SCHEMBL16122329

> <PUBCHEM_EXT_DATASOURCE_URL>
https://www.surechembl.org/

> <PUBCHEM_EXT_SUBSTANCE_URL>
https://www.surechembl.org/chemical/SCHEMBL16122329

> <PUBCHEM_CID_ASSOCIATIONS>
117610524  1

> <PUBCHEM_COORDINATE_TYPE>
1
3

$$$$
