310933170
  -OEChem-07211613022D

 18 19  0     0  0  0  0  0  0999 V2000
    0.0000   -1.3556    0.0000 I   0  0  0  0  0  0  0  0  0  0  0  0
    4.1516   -1.0803    0.0000 O   0  0  0  0  0  0  0  0  0  0  0  0
    2.1181   -4.2363    0.0000 O   0  5  0  0  0  0  0  0  0  0  0  0
    0.6990   -4.2363    0.0000 O   0  0  0  0  0  0  0  0  0  0  0  0
    1.4192   -3.8338    0.0000 N   0  3  0  0  0  0  0  0  0  0  0  0
    3.7491   -0.3601    0.0000 N   0  0  0  0  0  0  0  0  0  0  0  0
    0.0000   -3.0078    0.0000 N   0  0  0  0  0  0  0  0  0  0  0  0
    2.1393   -1.7793    0.0000 C   0  0  0  0  0  0  0  0  0  0  0  0
    2.8383   -1.3556    0.0000 C   0  0  0  0  0  0  0  0  0  0  0  0
    1.4192   -3.0078    0.0000 C   0  0  0  0  0  0  0  0  0  0  0  0
    0.6990   -2.5842    0.0000 C   0  0  0  0  0  0  0  0  0  0  0  0
    2.1393   -2.5842    0.0000 C   0  0  0  0  0  0  0  0  0  0  0  0
    0.6990   -1.7793    0.0000 C   0  0  0  0  0  0  0  0  0  0  0  0
    3.6009   -1.6945    0.0000 C   0  0  0  0  0  0  0  0  0  0  0  0
    2.9443   -0.5507    0.0000 C   0  0  0  0  0  0  0  0  0  0  0  0
    1.4192   -1.3556    0.0000 C   0  0  0  0  0  0  0  0  0  0  0  0
    3.7703   -2.4783    0.0000 C   0  0  0  0  0  0  0  0  0  0  0  0
    2.3300    0.0000    0.0000 C   0  0  0  0  0  0  0  0  0  0  0  0
  1 13  1  0  0  0  0
  2  6  1  0  0  0  0
  2 14  1  0  0  0  0
  3  5  1  0  0  0  0
  4  5  2  0  0  0  0
  5 10  1  0  0  0  0
  6 15  2  0  0  0  0
  7 11  1  0  0  0  0
  8  9  1  0  0  0  0
  8 12  1  0  0  0  0
  8 16  2  0  0  0  0
  9 14  2  0  0  0  0
  9 15  1  0  0  0  0
 10 11  1  0  0  0  0
 10 12  2  0  0  0  0
 11 13  2  0  0  0  0
 13 16  1  0  0  0  0
 14 17  1  0  0  0  0
 15 18  1  0  0  0  0
M  CHG  2   3  -1   5   1
M  END
> <PUBCHEM_COMPOUND_ID_TYPE>
0

> <PUBCHEM_TOTAL_CHARGE>
0

> <PUBCHEM_SUBSTANCE_ID>
310933170

> <PUBCHEM_SUBSTANCE_VERSION>
1

> <PUBCHEM_EXT_DATASOURCE_NAME>
4488

> <PUBCHEM_EXT_DATASOURCE_REGID>
SCHEMBL16110579

> <PUBCHEM_SUBSTANCE_COMMENT>
InChI=1S/C11H10IN3O3/c1-5-10(6(2)18-14-5)7-3-8(12)11(13)9(4-7)15(16)17/h3-4H,13H2,1-2H3
InChIKey=UTICYFGULAXWJU-UHFFFAOYSA-N

> <PUBCHEM_SUBSTANCE_SYNONYM>
SCHEMBL16110579

> <PUBCHEM_XREF_EXT_ID>
SCHEMBL16110579

> <PUBCHEM_EXT_DATASOURCE_URL>
https://www.surechembl.org/

> <PUBCHEM_EXT_SUBSTANCE_URL>
https://www.surechembl.org/chemical/SCHEMBL16110579

> <PUBCHEM_CID_ASSOCIATIONS>
117601618  1

> <PUBCHEM_COORDINATE_TYPE>
1
3

$$$$
