310945299
  -OEChem-07211613022D

 32 36  0     1  0  0  0  0  0999 V2000
    1.7050    1.8976    0.0000 S   0  0  0  0  0  0  0  0  0  0  0  0
    3.3734    1.9892    0.0000 O   0  0  0  0  0  0  0  0  0  0  0  0
   -2.6401    0.4125    0.0000 O   0  0  0  0  0  0  0  0  0  0  0  0
    1.9251   -0.2841    0.0000 N   0  0  0  0  0  0  0  0  0  0  0  0
   -1.2101    0.3942    0.0000 N   0  0  0  0  0  0  0  0  0  0  0  0
    3.5751    0.6142    0.0000 N   0  0  0  0  0  0  0  0  0  0  0  0
   -4.0701    0.3942    0.0000 N   0  0  0  0  0  0  0  0  0  0  0  0
    0.9167    0.8342    0.0000 C   0  0  0  0  0  0  0  0  0  0  0  0
    1.7050    0.5775    0.0000 C   0  0  0  0  0  0  0  0  0  0  0  0
    0.9350    1.6592    0.0000 C   0  0  0  0  0  0  0  0  0  0  0  0
    0.2200    0.4125    0.0000 C   0  0  0  0  0  0  0  0  0  0  0  0
    2.2001    1.2559    0.0000 C   0  0  0  0  0  0  0  0  0  0  0  0
   -0.4950    0.8342    0.0000 C   0  0  0  0  0  0  0  0  0  0  0  0
    3.0067    1.2376    0.0000 C   0  0  0  0  0  0  0  0  0  0  0  0
    0.2017    2.0626    0.0000 C   0  0  0  0  0  0  0  0  0  0  0  0
   -0.4767    1.6592    0.0000 C   0  0  0  0  0  0  0  0  0  0  0  0
    0.2017   -0.4308    0.0000 C   0  0  0  0  0  0  0  0  0  0  0  0
   -1.2101   -0.4125    0.0000 C   0  0  0  0  0  0  0  0  0  0  0  0
   -0.5133   -0.8342    0.0000 C   0  0  0  0  0  0  0  0  0  0  0  0
   -1.9250   -0.8342    0.0000 C   0  0  0  0  0  0  0  0  0  0  0  0
    2.7134   -0.5959    0.0000 C   0  0  0  0  0  0  0  0  0  0  0  0
    3.4101   -0.2108    0.0000 C   0  0  3  0  0  0  0  0  0  0  0  0
   -2.6585   -0.4308    0.0000 C   0  0  0  0  0  0  0  0  0  0  0  0
   -1.9250   -1.6592    0.0000 C   0  0  0  0  0  0  0  0  0  0  0  0
   -3.3551   -0.8342    0.0000 C   0  0  0  0  0  0  0  0  0  0  0  0
    4.0701   -0.6875    0.0000 C   0  0  0  0  0  0  0  0  0  0  0  0
   -2.6217   -2.0626    0.0000 C   0  0  0  0  0  0  0  0  0  0  0  0
   -3.3368   -1.6592    0.0000 C   0  0  0  0  0  0  0  0  0  0  0  0
   -4.0701   -0.4125    0.0000 C   0  0  0  0  0  0  0  0  0  0  0  0
   -3.3918    0.8525    0.0000 C   0  0  0  0  0  0  0  0  0  0  0  0
   -3.3368    1.6592    0.0000 C   0  0  0  0  0  0  0  0  0  0  0  0
   -2.5851    1.9892    0.0000 C   0  0  0  0  0  0  0  0  0  0  0  0
  1 10  1  0  0  0  0
  1 12  1  0  0  0  0
  2 14  2  0  0  0  0
  3 30  2  0  0  0  0
  4  9  1  0  0  0  0
  4 21  1  0  0  0  0
  5 13  1  0  0  0  0
  5 18  2  0  0  0  0
  6 14  1  0  0  0  0
  6 22  1  0  0  0  0
  7 29  1  0  0  0  0
  7 30  1  0  0  0  0
  8  9  1  0  0  0  0
  8 10  1  0  0  0  0
  8 11  2  0  0  0  0
  9 12  2  0  0  0  0
 10 15  2  0  0  0  0
 11 13  1  0  0  0  0
 11 17  1  0  0  0  0
 12 14  1  0  0  0  0
 13 16  2  0  0  0  0
 15 16  1  0  0  0  0
 17 19  2  0  0  0  0
 18 19  1  0  0  0  0
 18 20  1  0  0  0  0
 20 23  1  0  0  0  0
 20 24  2  0  0  0  0
 21 22  1  0  0  0  0
 22 26  1  6  0  0  0
 23 25  2  0  0  0  0
 24 27  1  0  0  0  0
 25 28  1  0  0  0  0
 25 29  1  0  0  0  0
 27 28  2  0  0  0  0
 30 31  1  0  0  0  0
 31 32  2  0  0  0  0
M  END
> <PUBCHEM_COMPOUND_ID_TYPE>
0

> <PUBCHEM_TOTAL_CHARGE>
0

> <PUBCHEM_SUBSTANCE_ID>
310945299

> <PUBCHEM_SUBSTANCE_VERSION>
1

> <PUBCHEM_EXT_DATASOURCE_NAME>
4488

> <PUBCHEM_EXT_DATASOURCE_REGID>
SCHEMBL16123397

> <PUBCHEM_SUBSTANCE_COMMENT>
InChI=1S/C25H22N4O2S/c1-3-21(30)26-13-15-5-4-6-16(11-15)18-8-7-17-19(29-18)9-10-20-22(17)23-24(32-20)25(31)28-14(2)12-27-23/h3-11,14,27H,1,12-13H2,2H3,(H,26,30)(H,28,31)/t14-/m1/s1
InChIKey=POOLZRFDXMWDNT-CQSZACIVSA-N

> <PUBCHEM_SUBSTANCE_SYNONYM>
SCHEMBL16123397

> <PUBCHEM_XREF_EXT_ID>
SCHEMBL16123397

> <PUBCHEM_EXT_DATASOURCE_URL>
https://www.surechembl.org/

> <PUBCHEM_EXT_SUBSTANCE_URL>
https://www.surechembl.org/chemical/SCHEMBL16123397

> <PUBCHEM_CID_ASSOCIATIONS>
117611358  1

> <PUBCHEM_COORDINATE_TYPE>
1
3

> <PUBCHEM_BONDANNOTATIONS>
22  26  6

$$$$
