310941992
  -OEChem-07211613022D

 21 22  0     0  0  0  0  0  0999 V2000
    0.0299   -1.4531    0.0000 O   0  5  0  0  0  0  0  0  0  0  0  0
   -1.2283   -2.1571    0.0000 O   0  0  0  0  0  0  0  0  0  0  0  0
    0.0000    1.4081    0.0000 O   0  0  0  0  0  0  0  0  0  0  0  0
    2.5016    1.4381    0.0000 O   0  0  0  0  0  0  0  0  0  0  0  0
   -0.8239   -1.4531    0.0000 N   0  3  0  0  0  0  0  0  0  0  0  0
   -1.2583    2.1271    0.0000 N   0  0  0  0  0  0  0  0  0  0  0  0
   -0.8389    0.0150    0.0000 C   0  0  0  0  0  0  0  0  0  0  0  0
   -1.2433   -0.7041    0.0000 C   0  0  0  0  0  0  0  0  0  0  0  0
   -1.2733    0.7041    0.0000 C   0  0  0  0  0  0  0  0  0  0  0  0
    0.0000    0.0150    0.0000 C   0  0  0  0  0  0  0  0  0  0  0  0
    0.4194    0.7191    0.0000 C   0  0  0  0  0  0  0  0  0  0  0  0
   -2.0822   -0.7191    0.0000 C   0  0  0  0  0  0  0  0  0  0  0  0
   -2.0822    0.7041    0.0000 C   0  0  0  0  0  0  0  0  0  0  0  0
   -0.8688    1.4381    0.0000 C   0  0  0  0  0  0  0  0  0  0  0  0
    0.4344   -0.6890    0.0000 C   0  0  0  0  0  0  0  0  0  0  0  0
    1.2283    0.7340    0.0000 C   0  0  0  0  0  0  0  0  0  0  0  0
   -2.5016   -0.0150    0.0000 C   0  0  0  0  0  0  0  0  0  0  0  0
    1.6628    0.0000    0.0000 C   0  0  0  0  0  0  0  0  0  0  0  0
    1.2583   -0.6890    0.0000 C   0  0  0  0  0  0  0  0  0  0  0  0
    1.6328    1.4680    0.0000 C   0  0  0  0  0  0  0  0  0  0  0  0
    1.2134    2.1571    0.0000 C   0  0  0  0  0  0  0  0  0  0  0  0
  1  5  1  0  0  0  0
  2  5  2  0  0  0  0
  3 14  2  0  0  0  0
  4 20  2  0  0  0  0
  5  8  1  0  0  0  0
  6 14  1  0  0  0  0
  7  8  1  0  0  0  0
  7  9  2  0  0  0  0
  7 10  1  0  0  0  0
  8 12  2  0  0  0  0
  9 13  1  0  0  0  0
  9 14  1  0  0  0  0
 10 11  1  0  0  0  0
 10 15  2  0  0  0  0
 11 16  2  0  0  0  0
 12 17  1  0  0  0  0
 13 17  2  0  0  0  0
 15 19  1  0  0  0  0
 16 18  1  0  0  0  0
 16 20  1  0  0  0  0
 18 19  2  0  0  0  0
 20 21  1  0  0  0  0
M  CHG  2   1  -1   5   1
M  END
> <PUBCHEM_COMPOUND_ID_TYPE>
0

> <PUBCHEM_TOTAL_CHARGE>
0

> <PUBCHEM_SUBSTANCE_ID>
310941992

> <PUBCHEM_SUBSTANCE_VERSION>
1

> <PUBCHEM_EXT_DATASOURCE_NAME>
4488

> <PUBCHEM_EXT_DATASOURCE_REGID>
SCHEMBL16120026

> <PUBCHEM_SUBSTANCE_COMMENT>
InChI=1S/C15H12N2O4/c1-9(18)10-4-2-5-11(8-10)14-12(15(16)19)6-3-7-13(14)17(20)21/h2-8H,1H3,(H2,16,19)
InChIKey=XLHNPARMLLEVDX-UHFFFAOYSA-N

> <PUBCHEM_SUBSTANCE_SYNONYM>
SCHEMBL16120026

> <PUBCHEM_XREF_EXT_ID>
SCHEMBL16120026

> <PUBCHEM_EXT_DATASOURCE_URL>
https://www.surechembl.org/

> <PUBCHEM_EXT_SUBSTANCE_URL>
https://www.surechembl.org/chemical/SCHEMBL16120026

> <PUBCHEM_CID_ASSOCIATIONS>
117608690  1

> <PUBCHEM_COORDINATE_TYPE>
1
3

$$$$
