310945702
  -OEChem-07211613022D

 43 47  0     1  0  0  0  0  0999 V2000
    5.4941    0.9769    0.0000 O   0  0  0  0  0  0  0  0  0  0  0  0
    4.3579   -0.9769    0.0000 O   0  0  0  0  0  0  0  0  0  0  0  0
    1.9746    0.9630    0.0000 O   0  0  0  0  0  0  0  0  0  0  0  0
   -2.3487    0.9630    0.0000 O   0  0  0  0  0  0  0  0  0  0  0  0
   -0.1871   -1.1016    0.0000 O   0  0  0  0  0  0  0  0  0  0  0  0
    4.1362   -2.7644    0.0000 O   0  0  0  0  0  0  0  0  0  0  0  0
    2.6951   -0.2702    0.0000 N   0  0  0  0  0  0  0  0  0  0  0  0
    0.5335    0.1455    0.0000 N   0  0  0  0  0  0  0  0  0  0  0  0
   -5.3002   -1.3510    0.0000 N   0  0  0  0  0  0  0  0  0  0  0  0
   -1.6281   -0.2702    0.0000 N   0  0  0  0  0  0  0  0  0  0  0  0
   -5.7851   -0.6859    0.0000 N   0  0  0  0  0  0  0  0  0  0  0  0
    5.0785    0.3118    0.0000 C   0  0  3  0  0  0  0  0  0  0  0  0
    4.3579   -0.1177    0.0000 C   0  0  0  0  0  0  0  0  0  0  0  0
    4.6905    0.9907    0.0000 C   0  0  0  0  0  0  0  0  0  0  0  0
    3.6373    0.2841    0.0000 C   0  0  3  0  0  0  0  0  0  0  0  0
    5.7851   -0.1177    0.0000 C   0  0  0  0  0  0  0  0  0  0  0  0
    3.6373    1.3649    0.0000 C   0  0  0  0  0  0  0  0  0  0  0  0
    1.9746    0.1455    0.0000 C   0  0  0  0  0  0  0  0  0  0  0  0
    1.2679   -0.2425    0.0000 C   0  0  3  0  0  0  0  0  0  0  0  0
    2.9029    1.7945    0.0000 C   0  0  0  0  0  0  0  0  0  0  0  0
   -4.4964   -0.2563    0.0000 C   0  0  0  0  0  0  0  0  0  0  0  0
   -4.5103   -1.0739    0.0000 C   0  0  0  0  0  0  0  0  0  0  0  0
   -3.0554   -0.2563    0.0000 C   0  0  3  0  0  0  0  0  0  0  0  0
   -3.7898    0.1594    0.0000 C   0  0  0  0  0  0  0  0  0  0  0  0
   -2.2933    0.1455    0.0000 C   0  0  0  0  0  0  0  0  0  0  0  0
    1.2540   -1.1016    0.0000 C   0  0  0  0  0  0  0  0  0  0  0  0
   -0.1732   -0.2286    0.0000 C   0  0  0  0  0  0  0  0  0  0  0  0
   -3.7759   -1.4758    0.0000 C   0  0  0  0  0  0  0  0  0  0  0  0
   -3.0554   -1.0739    0.0000 C   0  0  0  0  0  0  0  0  0  0  0  0
   -0.8937    0.1732    0.0000 C   0  0  3  0  0  0  0  0  0  0  0  0
   -5.2863    0.0069    0.0000 C   0  0  0  0  0  0  0  0  0  0  0  0
    2.0023   -1.4896    0.0000 C   0  0  0  0  0  0  0  0  0  0  0  0
    2.1547    1.4480    0.0000 C   0  0  0  0  0  0  0  0  0  0  0  0
    2.8198    2.5981    0.0000 C   0  0  0  0  0  0  0  0  0  0  0  0
    1.6143    2.0577    0.0000 C   0  0  0  0  0  0  0  0  0  0  0  0
    2.0300    2.7644    0.0000 C   0  0  0  0  0  0  0  0  0  0  0  0
    2.0023   -2.3210    0.0000 C   0  0  0  0  0  0  0  0  0  0  0  0
    2.6951   -1.0877    0.0000 C   0  0  0  0  0  0  0  0  0  0  0  0
    3.4295   -2.3071    0.0000 C   0  0  0  0  0  0  0  0  0  0  0  0
    2.7090   -2.7228    0.0000 C   0  0  0  0  0  0  0  0  0  0  0  0
    3.4295   -1.5034    0.0000 C   0  0  0  0  0  0  0  0  0  0  0  0
   -0.9076    0.9769    0.0000 C   0  0  0  0  0  0  0  0  0  0  0  0
    4.8845   -2.3349    0.0000 C   0  0  0  0  0  0  0  0  0  0  0  0
  1 12  1  0  0  0  0
  1 14  1  0  0  0  0
  2 13  2  0  0  0  0
  3 18  2  0  0  0  0
  4 25  2  0  0  0  0
  5 27  2  0  0  0  0
  6 39  1  0  0  0  0
  6 43  1  0  0  0  0
 15  7  1  1  0  0  0
  7 18  1  0  0  0  0
 19  8  1  6  0  0  0
  8 27  1  0  0  0  0
  9 11  1  0  0  0  0
  9 22  1  0  0  0  0
 10 25  1  0  0  0  0
 10 30  1  0  0  0  0
 11 31  2  0  0  0  0
 12 13  1  1  0  0  0
 12 14  1  0  0  0  0
 12 16  1  6  0  0  0
 13 15  1  0  0  0  0
 15 17  1  0  0  0  0
 17 20  1  0  0  0  0
 18 19  1  0  0  0  0
 19 26  1  0  0  0  0
 20 33  1  0  0  0  0
 20 34  1  0  0  0  0
 21 22  2  0  0  0  0
 21 24  1  0  0  0  0
 21 31  1  0  0  0  0
 22 28  1  0  0  0  0
 23 24  1  0  0  0  0
 23 25  1  6  0  0  0
 23 29  1  0  0  0  0
 26 32  1  0  0  0  0
 27 30  1  0  0  0  0
 28 29  1  0  0  0  0
 30 42  1  6  0  0  0
 32 37  2  0  0  0  0
 32 38  1  0  0  0  0
 33 35  1  0  0  0  0
 34 36  1  0  0  0  0
 35 36  1  0  0  0  0
 37 40  1  0  0  0  0
 38 41  2  0  0  0  0
 39 40  2  0  0  0  0
 39 41  1  0  0  0  0
M  END
> <PUBCHEM_COMPOUND_ID_TYPE>
0

> <PUBCHEM_TOTAL_CHARGE>
0

> <PUBCHEM_SUBSTANCE_ID>
310945702

> <PUBCHEM_SUBSTANCE_VERSION>
1

> <PUBCHEM_EXT_DATASOURCE_NAME>
4488

> <PUBCHEM_EXT_DATASOURCE_REGID>
SCHEMBL16123803

> <PUBCHEM_SUBSTANCE_COMMENT>
InChI=1S/C32H43N5O6/c1-19(34-30(40)22-10-13-25-23(16-22)17-33-37-25)29(39)36-27(15-21-8-11-24(42-3)12-9-21)31(41)35-26(14-20-6-4-5-7-20)28(38)32(2)18-43-32/h8-9,11-12,17,19-20,22,26-27H,4-7,10,13-16,18H2,1-3H3,(H,33,37)(H,34,40)(H,35,41)(H,36,39)/t19-,22-,26+,27+,32-/m1/s1
InChIKey=ZDBCVOCALPOFFY-FKECHVMZSA-N

> <PUBCHEM_SUBSTANCE_SYNONYM>
SCHEMBL16123803

> <PUBCHEM_XREF_EXT_ID>
SCHEMBL16123803

> <PUBCHEM_EXT_DATASOURCE_URL>
https://www.surechembl.org/

> <PUBCHEM_EXT_SUBSTANCE_URL>
https://www.surechembl.org/chemical/SCHEMBL16123803

> <PUBCHEM_CID_ASSOCIATIONS>
117611699  1

> <PUBCHEM_COORDINATE_TYPE>
1
3

> <PUBCHEM_BONDANNOTATIONS>
12  13  5
12  16  6
23  25  6
30  42  6
15  7  5
19  8  6

$$$$
