310938452
  -OEChem-07211613022D

 24 26  0     1  0  0  0  0  0999 V2000
    3.2300   -3.9958    0.0000 Br  0  0  0  0  0  0  0  0  0  0  0  0
   -0.7476    0.5795    0.0000 O   0  0  0  0  0  0  0  0  0  0  0  0
    0.4796    1.3115    0.0000 O   0  0  0  0  0  0  0  0  0  0  0  0
    0.4999   -0.1173    0.0000 N   0  0  0  0  0  0  0  0  0  0  0  0
    1.1564   -3.3139    0.0000 N   0  0  0  0  0  0  0  0  0  0  0  0
    3.6485   -1.9986    0.0000 N   0  0  0  0  0  0  0  0  0  0  0  0
    2.1275   -1.3591    0.0000 C   0  0  0  0  0  0  0  0  0  0  0  0
    1.0605   -0.5572    0.0000 C   0  0  3  0  0  0  0  0  0  0  0  0
    0.6396   -0.9304    0.0000 C   0  0  3  0  0  0  0  0  0  0  0  0
    1.9893   -0.5417    0.0000 C   0  0  0  0  0  0  0  0  0  0  0  0
    1.6113   -0.9304    0.0000 C   0  0  0  0  0  0  0  0  0  0  0  0
    2.0225   -2.1774    0.0000 C   0  0  0  0  0  0  0  0  0  0  0  0
    0.0773    0.5912    0.0000 C   0  0  0  0  0  0  0  0  0  0  0  0
    0.7400   -1.2658    0.0000 C   0  0  0  0  0  0  0  0  0  0  0  0
    0.1197   -1.6427    0.0000 C   0  0  0  0  0  0  0  0  0  0  0  0
    2.8880   -1.6789    0.0000 C   0  0  0  0  0  0  0  0  0  0  0  0
    2.6787   -2.6774    0.0000 C   0  0  0  0  0  0  0  0  0  0  0  0
    1.2614   -2.4957    0.0000 C   0  0  0  0  0  0  0  0  0  0  0  0
    2.5738   -3.4957    0.0000 C   0  0  0  0  0  0  0  0  0  0  0  0
   -1.1702    1.2881    0.0000 C   0  0  0  0  0  0  0  0  0  0  0  0
    1.8126   -3.8140    0.0000 C   0  0  0  0  0  0  0  0  0  0  0  0
   -1.5928    1.9966    0.0000 C   0  0  0  0  0  0  0  0  0  0  0  0
   -1.8788    0.8655    0.0000 C   0  0  0  0  0  0  0  0  0  0  0  0
   -0.4617    1.7107    0.0000 C   0  0  0  0  0  0  0  0  0  0  0  0
  1 19  1  0  0  0  0
  2 13  1  0  0  0  0
  2 20  1  0  0  0  0
  3 13  2  0  0  0  0
  8  4  1  1  0  0  0
  4  9  1  0  0  0  0
  4 13  1  0  0  0  0
  5 18  2  0  0  0  0
  5 21  1  0  0  0  0
  6 16  3  0  0  0  0
  7 10  1  0  0  0  0
  7 11  1  0  0  0  0
  7 12  1  0  0  0  0
  7 16  1  0  0  0  0
  8 10  1  0  0  0  0
  8 14  1  0  0  0  0
  9 11  1  6  0  0  0
  9 15  1  0  0  0  0
 12 17  2  0  0  0  0
 12 18  1  0  0  0  0
 14 15  2  0  0  0  0
 17 19  1  0  0  0  0
 19 21  2  0  0  0  0
 20 22  1  0  0  0  0
 20 23  1  0  0  0  0
 20 24  1  0  0  0  0
M  END
> <PUBCHEM_COMPOUND_ID_TYPE>
0

> <PUBCHEM_TOTAL_CHARGE>
0

> <PUBCHEM_SUBSTANCE_ID>
310938452

> <PUBCHEM_SUBSTANCE_VERSION>
1

> <PUBCHEM_EXT_DATASOURCE_NAME>
4488

> <PUBCHEM_EXT_DATASOURCE_REGID>
SCHEMBL16116351

> <PUBCHEM_SUBSTANCE_COMMENT>
InChI=1S/C18H20BrN3O2/c1-17(2,3)24-16(23)22-14-4-5-15(22)8-18(7-14,11-20)12-6-13(19)10-21-9-12/h4-6,9-10,14-15H,7-8H2,1-3H3/t14-,15+,18?
InChIKey=ADTFVIBGKJBPTD-MVVMVCHASA-N

> <PUBCHEM_SUBSTANCE_SYNONYM>
SCHEMBL16116351

> <PUBCHEM_XREF_EXT_ID>
SCHEMBL16116351

> <PUBCHEM_EXT_DATASOURCE_URL>
https://www.surechembl.org/

> <PUBCHEM_EXT_SUBSTANCE_URL>
https://www.surechembl.org/chemical/SCHEMBL16116351

> <PUBCHEM_CID_ASSOCIATIONS>
117605105  1

> <PUBCHEM_COORDINATE_TYPE>
1
3

> <PUBCHEM_BONDANNOTATIONS>
8  4  5
9  11  6

$$$$
