310929977
  -OEChem-07211613022D

 26 29  0     0  0  0  0  0  0999 V2000
    5.3269   -6.4568    0.0000 I   0  0  0  0  0  0  0  0  0  0  0  0
    3.6804   -6.4245    0.0000 Br  0  0  0  0  0  0  0  0  0  0  0  0
    4.1647   -2.8733    0.0000 N   0  0  0  0  0  0  0  0  0  0  0  0
    2.9056   -3.5835    0.0000 N   0  0  0  0  0  0  0  0  0  0  0  0
    2.9056   -2.1631    0.0000 N   0  0  0  0  0  0  0  0  0  0  0  0
    3.7127   -3.5835    0.0000 C   0  0  0  0  0  0  0  0  0  0  0  0
    3.7127   -2.1631    0.0000 C   0  0  0  0  0  0  0  0  0  0  0  0
    2.4859   -2.8733    0.0000 C   0  0  0  0  0  0  0  0  0  0  0  0
    4.1323   -4.2938    0.0000 C   0  0  0  0  0  0  0  0  0  0  0  0
    4.1323   -1.4528    0.0000 C   0  0  0  0  0  0  0  0  0  0  0  0
    1.6465   -2.8733    0.0000 C   0  0  0  0  0  0  0  0  0  0  0  0
    3.7127   -5.0041    0.0000 C   0  0  0  0  0  0  0  0  0  0  0  0
    4.9717   -4.2938    0.0000 C   0  0  0  0  0  0  0  0  0  0  0  0
    4.1323   -5.7143    0.0000 C   0  0  0  0  0  0  0  0  0  0  0  0
    4.9395   -5.7466    0.0000 C   0  0  0  0  0  0  0  0  0  0  0  0
    5.3592   -5.0363    0.0000 C   0  0  0  0  0  0  0  0  0  0  0  0
    3.7127   -0.7425    0.0000 C   0  0  0  0  0  0  0  0  0  0  0  0
    1.2268   -3.5835    0.0000 C   0  0  0  0  0  0  0  0  0  0  0  0
    4.9395   -1.4205    0.0000 C   0  0  0  0  0  0  0  0  0  0  0  0
    1.2268   -2.1631    0.0000 C   0  0  0  0  0  0  0  0  0  0  0  0
    4.1001    0.0000    0.0000 C   0  0  0  0  0  0  0  0  0  0  0  0
    0.4197   -3.5835    0.0000 C   0  0  0  0  0  0  0  0  0  0  0  0
    5.3592   -0.7103    0.0000 C   0  0  0  0  0  0  0  0  0  0  0  0
    0.4197   -2.1631    0.0000 C   0  0  0  0  0  0  0  0  0  0  0  0
    4.9395    0.0000    0.0000 C   0  0  0  0  0  0  0  0  0  0  0  0
    0.0000   -2.8733    0.0000 C   0  0  0  0  0  0  0  0  0  0  0  0
  1 15  1  0  0  0  0
  2 14  1  0  0  0  0
  3  6  2  0  0  0  0
  3  7  1  0  0  0  0
  4  6  1  0  0  0  0
  4  8  2  0  0  0  0
  5  7  2  0  0  0  0
  5  8  1  0  0  0  0
  6  9  1  0  0  0  0
  7 10  1  0  0  0  0
  8 11  1  0  0  0  0
  9 12  1  0  0  0  0
  9 13  2  0  0  0  0
 10 17  2  0  0  0  0
 10 19  1  0  0  0  0
 11 18  2  0  0  0  0
 11 20  1  0  0  0  0
 12 14  2  0  0  0  0
 13 16  1  0  0  0  0
 14 15  1  0  0  0  0
 15 16  2  0  0  0  0
 17 21  1  0  0  0  0
 18 22  1  0  0  0  0
 19 23  2  0  0  0  0
 20 24  2  0  0  0  0
 21 25  2  0  0  0  0
 22 26  2  0  0  0  0
 23 25  1  0  0  0  0
 24 26  1  0  0  0  0
M  END
> <PUBCHEM_COMPOUND_ID_TYPE>
0

> <PUBCHEM_TOTAL_CHARGE>
0

> <PUBCHEM_SUBSTANCE_ID>
310929977

> <PUBCHEM_SUBSTANCE_VERSION>
1

> <PUBCHEM_EXT_DATASOURCE_NAME>
4488

> <PUBCHEM_EXT_DATASOURCE_REGID>
SCHEMBL16107210

> <PUBCHEM_SUBSTANCE_COMMENT>
InChI=1S/C21H13BrIN3/c22-17-13-16(11-12-18(17)23)21-25-19(14-7-3-1-4-8-14)24-20(26-21)15-9-5-2-6-10-15/h1-13H
InChIKey=QPBMJYKJBXUFEQ-UHFFFAOYSA-N

> <PUBCHEM_SUBSTANCE_SYNONYM>
SCHEMBL16107210

> <PUBCHEM_XREF_EXT_ID>
SCHEMBL16107210

> <PUBCHEM_EXT_DATASOURCE_URL>
https://www.surechembl.org/

> <PUBCHEM_EXT_SUBSTANCE_URL>
https://www.surechembl.org/chemical/SCHEMBL16107210

> <PUBCHEM_CID_ASSOCIATIONS>
117599234  1

> <PUBCHEM_COORDINATE_TYPE>
1
3

$$$$
