310949128
  -OEChem-07211613022D

 37 40  0     0  0  0  0  0  0999 V2000
    0.3542   -1.4583    0.0000 F   0  0  0  0  0  0  0  0  0  0  0  0
    3.0624   -0.3750    0.0000 F   0  0  0  0  0  0  0  0  0  0  0  0
   -0.7847    0.2361    0.0000 F   0  0  0  0  0  0  0  0  0  0  0  0
    0.7431    2.4999    0.0000 F   0  0  0  0  0  0  0  0  0  0  0  0
   -2.2152   -1.4444    0.0000 O   0  0  0  0  0  0  0  0  0  0  0  0
   -0.6736   -0.3611    0.0000 N   0  0  0  0  0  0  0  0  0  0  0  0
    0.6320    0.2778    0.0000 C   0  0  0  0  0  0  0  0  0  0  0  0
    1.3958   -0.0973    0.0000 C   0  0  0  0  0  0  0  0  0  0  0  0
    0.6458    1.0833    0.0000 C   0  0  0  0  0  0  0  0  0  0  0  0
    1.6875   -0.8611    0.0000 C   0  0  0  0  0  0  0  0  0  0  0  0
   -0.0903    1.4861    0.0000 C   0  0  0  0  0  0  0  0  0  0  0  0
   -1.4652   -0.0139    0.0000 C   0  0  0  0  0  0  0  0  0  0  0  0
   -0.7708   -1.1527    0.0000 C   0  0  0  0  0  0  0  0  0  0  0  0
    2.0902    0.2778    0.0000 C   0  0  0  0  0  0  0  0  0  0  0  0
    1.3819    1.5000    0.0000 C   0  0  0  0  0  0  0  0  0  0  0  0
    1.1597   -1.5000    0.0000 C   0  0  0  0  0  0  0  0  0  0  0  0
    2.5347   -0.9722    0.0000 C   0  0  0  0  0  0  0  0  0  0  0  0
   -0.8124    1.0694    0.0000 C   0  0  0  0  0  0  0  0  0  0  0  0
   -0.0903    2.3055    0.0000 C   0  0  0  0  0  0  0  0  0  0  0  0
    2.0902    1.1111    0.0000 C   0  0  0  0  0  0  0  0  0  0  0  0
   -2.0069   -0.6388    0.0000 C   0  0  0  0  0  0  0  0  0  0  0  0
   -1.7153    0.7222    0.0000 C   0  0  0  0  0  0  0  0  0  0  0  0
    1.4652   -2.2500    0.0000 C   0  0  0  0  0  0  0  0  0  0  0  0
    2.8263   -1.7499    0.0000 C   0  0  0  0  0  0  0  0  0  0  0  0
   -1.5208    1.4583    0.0000 C   0  0  0  0  0  0  0  0  0  0  0  0
   -0.8124    2.6805    0.0000 C   0  0  0  0  0  0  0  0  0  0  0  0
   -0.1875   -1.7361    0.0000 C   0  0  0  0  0  0  0  0  0  0  0  0
   -2.7985   -0.4861    0.0000 C   0  0  0  0  0  0  0  0  0  0  0  0
    2.2846   -2.3749    0.0000 C   0  0  0  0  0  0  0  0  0  0  0  0
   -1.5347    2.2638    0.0000 C   0  0  0  0  0  0  0  0  0  0  0  0
   -1.7569   -1.3750    0.0000 C   0  0  0  0  0  0  0  0  0  0  0  0
   -2.5347    0.8750    0.0000 C   0  0  0  0  0  0  0  0  0  0  0  0
   -3.0624    0.2500    0.0000 C   0  0  0  0  0  0  0  0  0  0  0  0
   -0.4236   -2.4999    0.0000 C   0  0  0  0  0  0  0  0  0  0  0  0
   -1.2569   -2.6805    0.0000 C   0  0  0  0  0  0  0  0  0  0  0  0
   -1.7986   -2.1249    0.0000 C   0  0  0  0  0  0  0  0  0  0  0  0
   -1.5625   -1.3750    0.0000 C   0  0  0  0  0  0  0  0  0  0  0  0
  1 16  1  0  0  0  0
  2 17  1  0  0  0  0
  3 18  1  0  0  0  0
  4 19  1  0  0  0  0
  5 21  1  0  0  0  0
  6  7  1  0  0  0  0
  6 12  1  0  0  0  0
  6 13  1  0  0  0  0
  7  8  1  0  0  0  0
  7  9  2  0  0  0  0
  8 10  1  0  0  0  0
  8 14  2  0  0  0  0
  9 11  1  0  0  0  0
  9 15  1  0  0  0  0
 10 16  1  0  0  0  0
 10 17  2  0  0  0  0
 11 18  1  0  0  0  0
 11 19  2  0  0  0  0
 12 21  2  0  0  0  0
 12 22  1  0  0  0  0
 13 27  1  0  0  0  0
 13 31  2  0  0  0  0
 14 20  1  0  0  0  0
 15 20  2  0  0  0  0
 16 23  2  0  0  0  0
 17 24  1  0  0  0  0
 18 25  2  0  0  0  0
 19 26  1  0  0  0  0
 21 28  1  0  0  0  0
 22 32  2  0  0  0  0
 23 29  1  0  0  0  0
 24 29  2  0  0  0  0
 25 30  1  0  0  0  0
 26 30  2  0  0  0  0
 27 34  2  0  0  0  0
 28 33  2  0  0  0  0
 32 33  1  0  0  0  0
 34 35  1  0  0  0  0
 35 36  2  0  0  0  0
 36 37  1  0  0  0  0
M  END
> <PUBCHEM_COMPOUND_ID_TYPE>
0

> <PUBCHEM_TOTAL_CHARGE>
0

> <PUBCHEM_SUBSTANCE_ID>
310949128

> <PUBCHEM_SUBSTANCE_VERSION>
1

> <PUBCHEM_EXT_DATASOURCE_NAME>
4488

> <PUBCHEM_EXT_DATASOURCE_REGID>
SCHEMBL16127318

> <PUBCHEM_SUBSTANCE_COMMENT>
InChI=1S/C31H23F4NO/c1-3-4-5-11-20(2)36(27-18-6-7-19-28(27)37)31-21(29-23(32)14-9-15-24(29)33)12-8-13-22(31)30-25(34)16-10-17-26(30)35/h3-19,37H,2H2,1H3/b4-3-,11-5-
InChIKey=JFBJWVIAGIKHTI-RUTRJIIFSA-N

> <PUBCHEM_SUBSTANCE_SYNONYM>
SCHEMBL16127318

> <PUBCHEM_XREF_EXT_ID>
SCHEMBL16127318

> <PUBCHEM_EXT_DATASOURCE_URL>
https://www.surechembl.org/

> <PUBCHEM_EXT_SUBSTANCE_URL>
https://www.surechembl.org/chemical/SCHEMBL16127318

> <PUBCHEM_CID_ASSOCIATIONS>
117614625  1

> <PUBCHEM_COORDINATE_TYPE>
1
3

$$$$
