310947517
  -OEChem-07211613022D

 11 11  0     1  0  0  0  0  0999 V2000
    6.0692    0.1883    0.0000 F   0  0  0  0  0  0  0  0  0  0  0  0
    6.8942    2.1724    0.0000 O   0  0  0  0  0  0  0  0  0  0  0  0
    8.2761    2.0999    0.0000 O   0  0  0  0  0  0  0  0  0  0  0  0
    7.7192    0.1883    0.0000 O   0  0  0  0  0  0  0  0  0  0  0  0
    7.3067    0.9028    0.0000 C   0  0  0  0  0  0  0  0  0  0  0  0
    6.4817    0.9028    0.0000 C   0  0  3  0  0  0  0  0  0  0  0  0
    7.5617    1.6874    0.0000 C   0  0  3  0  0  0  0  0  0  0  0  0
    6.2268    1.6874    0.0000 C   0  0  3  0  0  0  0  0  0  0  0  0
    5.8143    2.4019    0.0000 C   0  0  0  0  0  0  0  0  0  0  0  0
    8.9906    1.6874    0.0000 C   0  0  0  0  0  0  0  0  0  0  0  0
    4.9893    2.4019    0.0000 C   0  0  0  0  0  0  0  0  0  0  0  0
  6  1  1  6  0  0  0
  2  7  1  0  0  0  0
  2  8  1  0  0  0  0
  7  3  1  6  0  0  0
  3 10  1  0  0  0  0
  4  5  2  0  0  0  0
  5  6  1  0  0  0  0
  5  7  1  0  0  0  0
  6  8  1  0  0  0  0
  8  9  1  1  0  0  0
  9 11  1  0  0  0  0
M  END
> <PUBCHEM_COMPOUND_ID_TYPE>
0

> <PUBCHEM_TOTAL_CHARGE>
0

> <PUBCHEM_SUBSTANCE_ID>
310947517

> <PUBCHEM_SUBSTANCE_VERSION>
1

> <PUBCHEM_EXT_DATASOURCE_NAME>
4488

> <PUBCHEM_EXT_DATASOURCE_REGID>
SCHEMBL16125679

> <PUBCHEM_SUBSTANCE_COMMENT>
InChI=1S/C7H11FO3/c1-3-4-5(8)6(9)7(10-2)11-4/h4-5,7H,3H2,1-2H3/t4-,5-,7+/m1/s1
InChIKey=MBFNQCVHYGEGDE-XAHCXIQSSA-N

> <PUBCHEM_SUBSTANCE_SYNONYM>
SCHEMBL16125679

> <PUBCHEM_XREF_EXT_ID>
SCHEMBL16125679

> <PUBCHEM_EXT_DATASOURCE_URL>
https://www.surechembl.org/

> <PUBCHEM_EXT_SUBSTANCE_URL>
https://www.surechembl.org/chemical/SCHEMBL16125679

> <PUBCHEM_CID_ASSOCIATIONS>
117613239  1

> <PUBCHEM_COORDINATE_TYPE>
1
3

> <PUBCHEM_BONDANNOTATIONS>
6  1  6
7  3  6
8  9  5

$$$$
