310932391
  -OEChem-07211613022D

 28 30  0     1  0  0  0  0  0999 V2000
    3.9832   -2.7269    0.0000 O   0  0  0  0  0  0  0  0  0  0  0  0
    8.4260   -2.8189    0.0000 O   0  0  0  0  0  0  0  0  0  0  0  0
    4.8718   -1.5933    0.0000 N   0  0  0  0  0  0  0  0  0  0  0  0
    4.8105   -0.7660    0.0000 N   0  0  0  0  0  0  0  0  0  0  0  0
    6.3119   -1.5933    0.0000 N   0  0  0  0  0  0  0  0  0  0  0  0
    7.7213   -4.0445    0.0000 N   0  0  0  0  0  0  0  0  0  0  0  0
    0.0000   -2.4512    0.0000 N   0  0  0  0  0  0  0  0  0  0  0  0
    3.5849   -1.3175    0.0000 C   0  0  0  0  0  0  0  0  0  0  0  0
    4.1364   -1.9304    0.0000 C   0  0  0  0  0  0  0  0  0  0  0  0
    2.7576   -1.4094    0.0000 C   0  0  0  0  0  0  0  0  0  0  0  0
    5.6071   -1.9916    0.0000 C   0  0  0  0  0  0  0  0  0  0  0  0
    3.9832   -0.6128    0.0000 C   0  0  0  0  0  0  0  0  0  0  0  0
    2.2673   -0.7660    0.0000 C   0  0  0  0  0  0  0  0  0  0  0  0
    2.4512   -2.1754    0.0000 C   0  0  0  0  0  0  0  0  0  0  0  0
    5.6071   -2.8189    0.0000 C   0  0  0  0  0  0  0  0  0  0  0  0
    7.0165   -2.8189    0.0000 C   0  0  0  0  0  0  0  0  0  0  0  0
    1.4707   -0.8579    0.0000 C   0  0  0  0  0  0  0  0  0  0  0  0
    7.0165   -1.9916    0.0000 C   0  0  0  0  0  0  0  0  0  0  0  0
    6.3119   -3.2172    0.0000 C   0  0  0  0  0  0  0  0  0  0  0  0
    1.1337   -1.5933    0.0000 C   0  0  0  0  0  0  0  0  0  0  0  0
    1.6239   -2.2673    0.0000 C   0  0  0  0  0  0  0  0  0  0  0  0
    7.7213   -3.2172    0.0000 C   0  0  0  0  0  0  0  0  0  0  0  0
    2.6044    0.0000    0.0000 C   0  0  0  0  0  0  0  0  0  0  0  0
    0.3064   -1.6852    0.0000 C   0  0  0  0  0  0  0  0  0  0  0  0
    8.4566   -4.4735    0.0000 C   0  0  3  0  0  0  0  0  0  0  0  0
    8.4566   -5.2701    0.0000 C   0  0  0  0  0  0  0  0  0  0  0  0
    9.1920   -4.0445    0.0000 C   0  0  0  0  0  0  0  0  0  0  0  0
    9.1614   -5.6990    0.0000 C   0  0  0  0  0  0  0  0  0  0  0  0
  1  9  1  0  0  0  0
  2 22  2  0  0  0  0
  3  4  1  0  0  0  0
  3  9  1  0  0  0  0
  3 11  1  0  0  0  0
  4 12  2  0  0  0  0
  5 11  2  0  0  0  0
  5 18  1  0  0  0  0
  6 22  1  0  0  0  0
  6 25  1  0  0  0  0
  7 24  3  0  0  0  0
  8  9  2  0  0  0  0
  8 10  1  0  0  0  0
  8 12  1  0  0  0  0
 10 13  1  0  0  0  0
 10 14  2  0  0  0  0
 11 15  1  0  0  0  0
 13 17  2  0  0  0  0
 13 23  1  0  0  0  0
 14 21  1  0  0  0  0
 15 19  2  0  0  0  0
 16 18  2  0  0  0  0
 16 19  1  0  0  0  0
 16 22  1  0  0  0  0
 17 20  1  0  0  0  0
 20 21  2  0  0  0  0
 20 24  1  0  0  0  0
 25 26  1  0  0  0  0
 25 27  1  6  0  0  0
 26 28  1  0  0  0  0
M  END
> <PUBCHEM_COMPOUND_ID_TYPE>
0

> <PUBCHEM_TOTAL_CHARGE>
0

> <PUBCHEM_SUBSTANCE_ID>
310932391

> <PUBCHEM_SUBSTANCE_VERSION>
1

> <PUBCHEM_EXT_DATASOURCE_NAME>
4488

> <PUBCHEM_EXT_DATASOURCE_REGID>
SCHEMBL16109759

> <PUBCHEM_SUBSTANCE_COMMENT>
InChI=1S/C21H21N5O2/c1-4-14(3)25-20(27)16-6-8-19(23-11-16)26-21(28)18(12-24-26)17-7-5-15(10-22)9-13(17)2/h5-9,11-12,14,28H,4H2,1-3H3,(H,25,27)/t14-/m1/s1
InChIKey=RTWKUBDWDRVOIR-CQSZACIVSA-N

> <PUBCHEM_SUBSTANCE_SYNONYM>
SCHEMBL16109759

> <PUBCHEM_XREF_EXT_ID>
SCHEMBL16109759

> <PUBCHEM_EXT_DATASOURCE_URL>
https://www.surechembl.org/

> <PUBCHEM_EXT_SUBSTANCE_URL>
https://www.surechembl.org/chemical/SCHEMBL16109759

> <PUBCHEM_CID_ASSOCIATIONS>
117600946  1

> <PUBCHEM_COORDINATE_TYPE>
1
3

> <PUBCHEM_BONDANNOTATIONS>
25  27  6

$$$$
