310947382
  -OEChem-07211613022D

 31 34  0     1  0  0  0  0  0999 V2000
   -5.3857   -0.3057    0.0000 Br  0  0  0  0  0  0  0  0  0  0  0  0
   -1.0998    2.1691    0.0000 O   0  0  0  0  0  0  0  0  0  0  0  0
    1.8283   -0.1483    0.0000 N   0  0  0  0  0  0  0  0  0  0  0  0
    2.3132    0.5191    0.0000 N   0  0  0  0  0  0  0  0  0  0  0  0
   -1.8142    0.9316    0.0000 N   0  0  0  0  0  0  0  0  0  0  0  0
    5.3857    0.3778    0.0000 N   0  0  0  0  0  0  0  0  0  0  0  0
    1.0436    0.1066    0.0000 C   0  0  0  0  0  0  0  0  0  0  0  0
    1.0436    0.9316    0.0000 C   0  0  0  0  0  0  0  0  0  0  0  0
    1.8283    1.1866    0.0000 C   0  0  0  0  0  0  0  0  0  0  0  0
    0.3292    1.3441    0.0000 C   0  0  0  0  0  0  0  0  0  0  0  0
   -0.3853    0.9316    0.0000 C   0  0  0  0  0  0  0  0  0  0  0  0
    0.3292   -0.3059    0.0000 C   0  0  0  0  0  0  0  0  0  0  0  0
   -0.3853    0.1066    0.0000 C   0  0  0  0  0  0  0  0  0  0  0  0
    2.0418   -0.9452    0.0000 C   0  0  0  0  0  0  0  0  0  0  0  0
   -1.0998    1.3441    0.0000 C   0  0  0  0  0  0  0  0  0  0  0  0
    2.8387   -1.1587    0.0000 C   0  0  0  0  0  0  0  0  0  0  0  0
    2.2408    1.9010    0.0000 C   0  0  0  0  0  0  0  0  0  0  0  0
   -2.5287    1.3441    0.0000 C   0  0  3  0  0  0  0  0  0  0  0  0
    3.4220   -0.5754    0.0000 C   0  0  0  0  0  0  0  0  0  0  0  0
   -3.2432    0.9316    0.0000 C   0  0  0  0  0  0  0  0  0  0  0  0
    3.0522   -1.9556    0.0000 C   0  0  0  0  0  0  0  0  0  0  0  0
    4.2189   -0.7889    0.0000 C   0  0  0  0  0  0  0  0  0  0  0  0
    3.8491   -2.1691    0.0000 C   0  0  0  0  0  0  0  0  0  0  0  0
   -3.9577    1.3441    0.0000 C   0  0  0  0  0  0  0  0  0  0  0  0
   -3.2432    0.1071    0.0000 C   0  0  0  0  0  0  0  0  0  0  0  0
    4.4325   -1.5858    0.0000 C   0  0  0  0  0  0  0  0  0  0  0  0
   -2.5287    2.1687    0.0000 C   0  0  0  0  0  0  0  0  0  0  0  0
   -4.6714    0.1071    0.0000 C   0  0  0  0  0  0  0  0  0  0  0  0
   -4.6721    0.9316    0.0000 C   0  0  0  0  0  0  0  0  0  0  0  0
   -3.9571   -0.3054    0.0000 C   0  0  0  0  0  0  0  0  0  0  0  0
    4.8023   -0.2055    0.0000 C   0  0  0  0  0  0  0  0  0  0  0  0
  1 28  1  0  0  0  0
  2 15  2  0  0  0  0
  3  4  1  0  0  0  0
  3  7  1  0  0  0  0
  3 14  1  0  0  0  0
  4  9  2  0  0  0  0
  5 15  1  0  0  0  0
  5 18  1  0  0  0  0
  6 31  3  0  0  0  0
  7  8  1  0  0  0  0
  7 12  2  0  0  0  0
  8  9  1  0  0  0  0
  8 10  2  0  0  0  0
  9 17  1  0  0  0  0
 10 11  1  0  0  0  0
 11 13  2  0  0  0  0
 11 15  1  0  0  0  0
 12 13  1  0  0  0  0
 14 16  1  0  0  0  0
 16 19  1  0  0  0  0
 16 21  2  0  0  0  0
 18 20  1  0  0  0  0
 18 27  1  6  0  0  0
 19 22  2  0  0  0  0
 20 24  2  0  0  0  0
 20 25  1  0  0  0  0
 21 23  1  0  0  0  0
 22 26  1  0  0  0  0
 22 31  1  0  0  0  0
 23 26  2  0  0  0  0
 24 29  1  0  0  0  0
 25 30  2  0  0  0  0
 28 29  2  0  0  0  0
 28 30  1  0  0  0  0
M  END
> <PUBCHEM_COMPOUND_ID_TYPE>
0

> <PUBCHEM_TOTAL_CHARGE>
0

> <PUBCHEM_SUBSTANCE_ID>
310947382

> <PUBCHEM_SUBSTANCE_VERSION>
1

> <PUBCHEM_EXT_DATASOURCE_NAME>
4488

> <PUBCHEM_EXT_DATASOURCE_REGID>
SCHEMBL16125538

> <PUBCHEM_SUBSTANCE_COMMENT>
InChI=1S/C25H21BrN4O/c1-16(20-6-9-22(26)10-7-20)28-25(31)21-8-11-24-23(13-21)17(2)29-30(24)15-19-5-3-4-18(12-19)14-27/h3-13,16H,15H2,1-2H3,(H,28,31)/t16-/m0/s1
InChIKey=PVDIKPCYTWKJGB-INIZCTEOSA-N

> <PUBCHEM_SUBSTANCE_SYNONYM>
SCHEMBL16125538

> <PUBCHEM_XREF_EXT_ID>
SCHEMBL16125538

> <PUBCHEM_EXT_DATASOURCE_URL>
https://www.surechembl.org/

> <PUBCHEM_EXT_SUBSTANCE_URL>
https://www.surechembl.org/chemical/SCHEMBL16125538

> <PUBCHEM_CID_ASSOCIATIONS>
71577314  1

> <PUBCHEM_COORDINATE_TYPE>
1
3

> <PUBCHEM_BONDANNOTATIONS>
18  27  6

$$$$
