310944620
  -OEChem-07211613022D

 19 20  0     0  0  0  0  0  0999 V2000
    0.0065    3.0225    0.0000 F   0  0  0  0  0  0  0  0  0  0  0  0
    2.1847    2.5842    0.0000 N   0  0  0  0  0  0  0  0  0  0  0  0
   -2.1847    2.5198    0.0000 N   0  0  0  0  0  0  0  0  0  0  0  0
    0.0193    0.6122    0.0000 C   0  0  0  0  0  0  0  0  0  0  0  0
   -0.0065    2.2234    0.0000 C   0  0  0  0  0  0  0  0  0  0  0  0
    0.7282    1.8238    0.0000 C   0  0  0  0  0  0  0  0  0  0  0  0
   -0.7154    1.8109    0.0000 C   0  0  0  0  0  0  0  0  0  0  0  0
    0.0065   -0.2127    0.0000 C   0  0  0  0  0  0  0  0  0  0  0  0
    0.7154    1.0118    0.0000 C   0  0  0  0  0  0  0  0  0  0  0  0
   -0.7154    1.0118    0.0000 C   0  0  0  0  0  0  0  0  0  0  0  0
   -0.7282   -0.6380    0.0000 C   0  0  0  0  0  0  0  0  0  0  0  0
    0.7154   -0.6122    0.0000 C   0  0  0  0  0  0  0  0  0  0  0  0
    1.4629    2.2234    0.0000 C   0  0  0  0  0  0  0  0  0  0  0  0
   -1.4629    2.1847    0.0000 C   0  0  0  0  0  0  0  0  0  0  0  0
    0.0193   -1.8238    0.0000 C   0  0  0  0  0  0  0  0  0  0  0  0
   -0.7154   -1.4371    0.0000 C   0  0  0  0  0  0  0  0  0  0  0  0
    0.7282   -1.3985    0.0000 C   0  0  0  0  0  0  0  0  0  0  0  0
    0.0065   -2.6487    0.0000 C   0  0  0  0  0  0  0  0  0  0  0  0
   -0.7411   -3.0225    0.0000 C   0  0  0  0  0  0  0  0  0  0  0  0
  1  5  1  0  0  0  0
  2 13  3  0  0  0  0
  3 14  3  0  0  0  0
  4  8  1  0  0  0  0
  4  9  2  0  0  0  0
  4 10  1  0  0  0  0
  5  6  2  0  0  0  0
  5  7  1  0  0  0  0
  6  9  1  0  0  0  0
  6 13  1  0  0  0  0
  7 10  2  0  0  0  0
  7 14  1  0  0  0  0
  8 11  2  0  0  0  0
  8 12  1  0  0  0  0
 11 16  1  0  0  0  0
 12 17  2  0  0  0  0
 15 16  2  0  0  0  0
 15 17  1  0  0  0  0
 15 18  1  0  0  0  0
 18 19  2  0  0  0  0
M  END
> <PUBCHEM_COMPOUND_ID_TYPE>
0

> <PUBCHEM_TOTAL_CHARGE>
0

> <PUBCHEM_SUBSTANCE_ID>
310944620

> <PUBCHEM_SUBSTANCE_VERSION>
1

> <PUBCHEM_EXT_DATASOURCE_NAME>
4488

> <PUBCHEM_EXT_DATASOURCE_REGID>
SCHEMBL16122698

> <PUBCHEM_SUBSTANCE_COMMENT>
InChI=1S/C16H9FN2/c1-2-11-3-5-12(6-4-11)13-7-14(9-18)16(17)15(8-13)10-19/h2-8H,1H2
InChIKey=JSZDUMMEWWXHOT-UHFFFAOYSA-N

> <PUBCHEM_SUBSTANCE_SYNONYM>
SCHEMBL16122698

> <PUBCHEM_XREF_EXT_ID>
SCHEMBL16122698

> <PUBCHEM_EXT_DATASOURCE_URL>
https://www.surechembl.org/

> <PUBCHEM_EXT_SUBSTANCE_URL>
https://www.surechembl.org/chemical/SCHEMBL16122698

> <PUBCHEM_CID_ASSOCIATIONS>
117610850  1

> <PUBCHEM_COORDINATE_TYPE>
1
3

$$$$
