310936499
  -OEChem-07211613022D

 23 25  0     0  0  0  0  0  0999 V2000
    0.9959   -6.9359    0.0000 Cl  0  0  0  0  0  0  0  0  0  0  0  0
    4.1260   -4.8018    0.0000 O   0  0  0  0  0  0  0  0  0  0  0  0
    0.0000    0.0000    0.0000 O   0  0  0  0  0  0  0  0  0  0  0  0
    1.5295   -2.0274    0.0000 N   0  0  0  0  0  0  0  0  0  0  0  0
    3.5213   -3.4857    0.0000 N   0  0  0  0  0  0  0  0  0  0  0  0
    0.8892   -1.4939    0.0000 N   0  0  0  0  0  0  0  0  0  0  0  0
    2.0630   -0.8181    0.0000 N   0  0  0  0  0  0  0  0  0  0  0  0
    2.7032   -4.6595    0.0000 C   0  0  0  0  0  0  0  0  0  0  0  0
    3.4857   -4.3394    0.0000 C   0  0  0  0  0  0  0  0  0  0  0  0
    2.5965   -5.4776    0.0000 C   0  0  0  0  0  0  0  0  0  0  0  0
    2.0986   -3.3434    0.0000 C   0  0  0  0  0  0  0  0  0  0  0  0
    2.0274   -4.1616    0.0000 C   0  0  0  0  0  0  0  0  0  0  0  0
    1.4227   -2.8455    0.0000 C   0  0  0  0  0  0  0  0  0  0  0  0
    2.8811   -3.0234    0.0000 C   0  0  0  0  0  0  0  0  0  0  0  0
    1.8496   -5.7977    0.0000 C   0  0  0  0  0  0  0  0  0  0  0  0
    1.2093   -0.7114    0.0000 C   0  0  0  0  0  0  0  0  0  0  0  0
    3.2723   -5.9756    0.0000 C   0  0  0  0  0  0  0  0  0  0  0  0
    2.2409   -1.6361    0.0000 C   0  0  0  0  0  0  0  0  0  0  0  0
    1.7429   -6.6158    0.0000 C   0  0  0  0  0  0  0  0  0  0  0  0
    3.1656   -6.7936    0.0000 C   0  0  0  0  0  0  0  0  0  0  0  0
    2.4187   -7.1138    0.0000 C   0  0  0  0  0  0  0  0  0  0  0  0
    0.8181    0.0000    0.0000 C   0  0  0  0  0  0  0  0  0  0  0  0
    4.9085   -4.4816    0.0000 C   0  0  0  0  0  0  0  0  0  0  0  0
  1 19  1  0  0  0  0
  2  9  1  0  0  0  0
  2 23  1  0  0  0  0
  3 22  1  0  0  0  0
  4  6  1  0  0  0  0
  4 13  1  0  0  0  0
  4 18  1  0  0  0  0
  5  9  2  0  0  0  0
  5 14  1  0  0  0  0
  6 16  2  0  0  0  0
  7 16  1  0  0  0  0
  7 18  2  0  0  0  0
  8  9  1  0  0  0  0
  8 10  1  0  0  0  0
  8 12  2  0  0  0  0
 10 15  1  0  0  0  0
 10 17  2  0  0  0  0
 11 12  1  0  0  0  0
 11 13  1  0  0  0  0
 11 14  2  0  0  0  0
 15 19  2  0  0  0  0
 16 22  1  0  0  0  0
 17 20  1  0  0  0  0
 19 21  1  0  0  0  0
 20 21  2  0  0  0  0
M  END
> <PUBCHEM_COMPOUND_ID_TYPE>
0

> <PUBCHEM_TOTAL_CHARGE>
0

> <PUBCHEM_SUBSTANCE_ID>
310936499

> <PUBCHEM_SUBSTANCE_VERSION>
1

> <PUBCHEM_EXT_DATASOURCE_NAME>
4488

> <PUBCHEM_EXT_DATASOURCE_REGID>
SCHEMBL16114149

> <PUBCHEM_SUBSTANCE_COMMENT>
InChI=1S/C16H15ClN4O2/c1-23-16-14(12-3-2-4-13(17)6-12)5-11(7-18-16)8-21-10-19-15(9-22)20-21/h2-7,10,22H,8-9H2,1H3
InChIKey=RLBPYDJTUQSNQG-UHFFFAOYSA-N

> <PUBCHEM_SUBSTANCE_SYNONYM>
SCHEMBL16114149

> <PUBCHEM_XREF_EXT_ID>
SCHEMBL16114149

> <PUBCHEM_EXT_DATASOURCE_URL>
https://www.surechembl.org/

> <PUBCHEM_EXT_SUBSTANCE_URL>
https://www.surechembl.org/chemical/SCHEMBL16114149

> <PUBCHEM_CID_ASSOCIATIONS>
117604426  1

> <PUBCHEM_COORDINATE_TYPE>
1
3

$$$$
