310946401
  -OEChem-07211613022D

 27 31  0     0  0  0  0  0  0999 V2000
   -3.3183   -9.5138    0.0000 Cl  0  0  0  0  0  0  0  0  0  0  0  0
    1.2131   -7.9108    0.0000 N   0  0  0  0  0  0  0  0  0  0  0  0
   -2.6038   -7.4513    0.0000 N   0  0  0  0  0  0  0  0  0  0  0  0
    1.2131   -9.2457    0.0000 N   0  0  0  0  0  0  0  0  0  0  0  0
   -1.8192   -8.5312    0.0000 N   0  0  0  0  0  0  0  0  0  0  0  0
   -4.0328   -8.2763    0.0000 N   0  0  0  0  0  0  0  0  0  0  0  0
    1.9977   -8.9907    0.0000 C   0  0  0  0  0  0  0  0  0  0  0  0
    1.9977   -8.1657    0.0000 C   0  0  0  0  0  0  0  0  0  0  0  0
    2.7122   -9.4032    0.0000 C   0  0  0  0  0  0  0  0  0  0  0  0
    0.7282   -8.5782    0.0000 C   0  0  0  0  0  0  0  0  0  0  0  0
   -2.6038   -8.2763    0.0000 C   0  0  0  0  0  0  0  0  0  0  0  0
    3.4267   -8.9907    0.0000 C   0  0  0  0  0  0  0  0  0  0  0  0
   -1.3343   -7.8638    0.0000 C   0  0  0  0  0  0  0  0  0  0  0  0
   -1.8192   -7.1963    0.0000 C   0  0  0  0  0  0  0  0  0  0  0  0
    2.7122   -7.7532    0.0000 C   0  0  0  0  0  0  0  0  0  0  0  0
   -3.3183   -8.6888    0.0000 C   0  0  0  0  0  0  0  0  0  0  0  0
   -3.3183   -7.0388    0.0000 C   0  0  0  0  0  0  0  0  0  0  0  0
   -0.0968   -8.5782    0.0000 C   0  0  0  0  0  0  0  0  0  0  0  0
    3.4267   -8.1657    0.0000 C   0  0  0  0  0  0  0  0  0  0  0  0
   -0.5093   -7.8638    0.0000 C   0  0  0  0  0  0  0  0  0  0  0  0
    2.7122  -10.2282    0.0000 C   0  0  0  0  0  0  0  0  0  0  0  0
   -4.0328   -7.4513    0.0000 C   0  0  0  0  0  0  0  0  0  0  0  0
    4.1412   -9.4032    0.0000 C   0  0  0  0  0  0  0  0  0  0  0  0
    0.8006   -7.1963    0.0000 C   0  0  0  0  0  0  0  0  0  0  0  0
    3.4267  -10.6407    0.0000 C   0  0  0  0  0  0  0  0  0  0  0  0
    4.1412  -10.2282    0.0000 C   0  0  0  0  0  0  0  0  0  0  0  0
   -3.3183   -6.2138    0.0000 C   0  0  0  0  0  0  0  0  0  0  0  0
  1 16  1  0  0  0  0
  2  8  1  0  0  0  0
  2 10  1  0  0  0  0
  2 24  1  0  0  0  0
  3 11  1  0  0  0  0
  3 14  1  0  0  0  0
  3 17  1  0  0  0  0
  4  7  1  0  0  0  0
  4 10  2  0  0  0  0
  5 11  2  0  0  0  0
  5 13  1  0  0  0  0
  6 16  2  0  0  0  0
  6 22  1  0  0  0  0
  7  8  2  0  0  0  0
  7  9  1  0  0  0  0
  8 15  1  0  0  0  0
  9 12  2  0  0  0  0
  9 21  1  0  0  0  0
 10 18  1  0  0  0  0
 11 16  1  0  0  0  0
 12 19  1  0  0  0  0
 12 23  1  0  0  0  0
 13 14  2  0  0  0  0
 13 20  1  0  0  0  0
 15 19  2  0  0  0  0
 17 22  2  0  0  0  0
 17 27  1  0  0  0  0
 18 20  1  0  0  0  0
 21 25  2  0  0  0  0
 23 26  2  0  0  0  0
 25 26  1  0  0  0  0
M  END
> <PUBCHEM_COMPOUND_ID_TYPE>
0

> <PUBCHEM_TOTAL_CHARGE>
0

> <PUBCHEM_SUBSTANCE_ID>
310946401

> <PUBCHEM_SUBSTANCE_VERSION>
1

> <PUBCHEM_EXT_DATASOURCE_NAME>
4488

> <PUBCHEM_EXT_DATASOURCE_REGID>
SCHEMBL16124522

> <PUBCHEM_SUBSTANCE_COMMENT>
InChI=1S/C21H18ClN5/c1-13-11-23-20(22)21-24-15(12-27(13)21)8-10-18-25-19-16-6-4-3-5-14(16)7-9-17(19)26(18)2/h3-7,9,11-12H,8,10H2,1-2H3
InChIKey=SRPFXXRVXFAVBP-UHFFFAOYSA-N

> <PUBCHEM_SUBSTANCE_SYNONYM>
SCHEMBL16124522

> <PUBCHEM_XREF_EXT_ID>
SCHEMBL16124522

> <PUBCHEM_EXT_DATASOURCE_URL>
https://www.surechembl.org/

> <PUBCHEM_EXT_SUBSTANCE_URL>
https://www.surechembl.org/chemical/SCHEMBL16124522

> <PUBCHEM_CID_ASSOCIATIONS>
117612320  1

> <PUBCHEM_COORDINATE_TYPE>
1
3

$$$$
