310936157
  -OEChem-07211613022D

 41 46  0     0  0  0  0  0  0999 V2000
    3.5311   -2.4999    0.0000 F   0  0  0  0  0  0  0  0  0  0  0  0
    8.8747   -0.8437    0.0000 F   0  0  0  0  0  0  0  0  0  0  0  0
    5.0624   -0.1875    0.0000 O   0  0  0  0  0  0  0  0  0  0  0  0
    0.7188   -4.1874    0.0000 O   0  0  0  0  0  0  0  0  0  0  0  0
    4.7811   -2.9062    0.0000 O   0  0  0  0  0  0  0  0  0  0  0  0
    0.0000   -2.9374    0.0000 O   0  0  0  0  0  0  0  0  0  0  0  0
    1.5937   -0.5937    0.0000 O   0  0  0  0  0  0  0  0  0  0  0  0
    2.1562   -4.1874    0.0000 N   0  0  0  0  0  0  0  0  0  0  0  0
    6.1249   -2.4686    0.0000 N   0  0  0  0  0  0  0  0  0  0  0  0
    2.1562   -4.9999    0.0000 C   0  0  0  0  0  0  0  0  0  0  0  0
    4.2811   -1.2812    0.0000 C   0  0  0  0  0  0  0  0  0  0  0  0
    5.0624   -1.4999    0.0000 C   0  0  0  0  0  0  0  0  0  0  0  0
    2.8437   -1.2812    0.0000 C   0  0  0  0  0  0  0  0  0  0  0  0
    4.2811   -0.4062    0.0000 C   0  0  0  0  0  0  0  0  0  0  0  0
    2.1249   -6.2498    0.0000 C   0  0  0  0  0  0  0  0  0  0  0  0
    3.5624   -1.6562    0.0000 C   0  0  0  0  0  0  0  0  0  0  0  0
    5.5623   -0.8437    0.0000 C   0  0  0  0  0  0  0  0  0  0  0  0
    2.7812   -5.6248    0.0000 C   0  0  0  0  0  0  0  0  0  0  0  0
    1.7812   -5.6248    0.0000 C   0  0  0  0  0  0  0  0  0  0  0  0
    1.5312   -5.6248    0.0000 C   0  0  0  0  0  0  0  0  0  0  0  0
    2.1562   -1.6875    0.0000 C   0  0  0  0  0  0  0  0  0  0  0  0
    2.8437   -0.4062    0.0000 C   0  0  0  0  0  0  0  0  0  0  0  0
    3.5624   -0.0312    0.0000 C   0  0  0  0  0  0  0  0  0  0  0  0
    1.4374   -2.9374    0.0000 C   0  0  0  0  0  0  0  0  0  0  0  0
    1.4374   -3.7499    0.0000 C   0  0  0  0  0  0  0  0  0  0  0  0
    5.3124   -2.2812    0.0000 C   0  0  0  0  0  0  0  0  0  0  0  0
    6.3748   -0.8437    0.0000 C   0  0  0  0  0  0  0  0  0  0  0  0
    2.1562   -2.5312    0.0000 C   0  0  0  0  0  0  0  0  0  0  0  0
    1.4374   -1.2812    0.0000 C   0  0  0  0  0  0  0  0  0  0  0  0
    0.7188   -2.5312    0.0000 C   0  0  0  0  0  0  0  0  0  0  0  0
    0.7188   -1.6875    0.0000 C   0  0  0  0  0  0  0  0  0  0  0  0
    2.1562    0.0000    0.0000 C   0  0  0  0  0  0  0  0  0  0  0  0
    6.8123   -0.1250    0.0000 C   0  0  0  0  0  0  0  0  0  0  0  0
    6.8123   -1.5624    0.0000 C   0  0  0  0  0  0  0  0  0  0  0  0
    1.4062   -0.4687    0.0000 C   0  0  0  0  0  0  0  0  0  0  0  0
    7.6248   -0.1250    0.0000 C   0  0  0  0  0  0  0  0  0  0  0  0
    7.6248   -1.5624    0.0000 C   0  0  0  0  0  0  0  0  0  0  0  0
    8.0310   -0.8437    0.0000 C   0  0  0  0  0  0  0  0  0  0  0  0
    6.3748   -3.2499    0.0000 C   0  0  0  0  0  0  0  0  0  0  0  0
    0.0000   -3.7499    0.0000 C   0  0  0  0  0  0  0  0  0  0  0  0
    1.5937   -1.4062    0.0000 C   0  0  0  0  0  0  0  0  0  0  0  0
  1 16  1  0  0  0  0
  2 38  1  0  0  0  0
  3 14  1  0  0  0  0
  3 17  1  0  0  0  0
  4 25  2  0  0  0  0
  5 26  2  0  0  0  0
  6 30  1  0  0  0  0
  6 40  1  0  0  0  0
  7 32  1  0  0  0  0
  7 41  1  0  0  0  0
  8 10  1  0  0  0  0
  8 25  1  0  0  0  0
  9 26  1  0  0  0  0
  9 39  1  0  0  0  0
 10 18  1  0  0  0  0
 10 19  1  0  0  0  0
 10 20  1  0  0  0  0
 11 12  1  0  0  0  0
 11 14  2  0  0  0  0
 11 16  1  0  0  0  0
 12 17  2  0  0  0  0
 12 26  1  0  0  0  0
 13 16  2  0  0  0  0
 13 21  1  0  0  0  0
 13 22  1  0  0  0  0
 14 23  1  0  0  0  0
 15 18  1  0  0  0  0
 15 19  1  0  0  0  0
 15 20  1  0  0  0  0
 17 27  1  0  0  0  0
 21 28  2  0  0  0  0
 21 29  1  0  0  0  0
 22 23  2  0  0  0  0
 22 32  1  0  0  0  0
 24 25  1  0  0  0  0
 24 28  1  0  0  0  0
 24 30  2  0  0  0  0
 27 33  2  0  0  0  0
 27 34  1  0  0  0  0
 29 31  2  0  0  0  0
 29 35  1  0  0  0  0
 30 31  1  0  0  0  0
 33 36  1  0  0  0  0
 34 37  2  0  0  0  0
 36 38  2  0  0  0  0
 37 38  1  0  0  0  0
M  END
> <PUBCHEM_COMPOUND_ID_TYPE>
0

> <PUBCHEM_TOTAL_CHARGE>
0

> <PUBCHEM_SUBSTANCE_ID>
310936157

> <PUBCHEM_SUBSTANCE_VERSION>
1

> <PUBCHEM_EXT_DATASOURCE_NAME>
4488

> <PUBCHEM_EXT_DATASOURCE_REGID>
SCHEMBL16113767

> <PUBCHEM_SUBSTANCE_COMMENT>
InChI=1S/C32H30F2N2O5/c1-16-9-23(40-4)22(30(37)36-32-12-17(13-32)14-32)11-21(16)25-19(15-39-3)10-24-26(28(25)34)27(31(38)35-2)29(41-24)18-5-7-20(33)8-6-18/h5-11,17H,12-15H2,1-4H3,(H,35,38)(H,36,37)
InChIKey=FDORPORSAPJCCF-UHFFFAOYSA-N

> <PUBCHEM_SUBSTANCE_SYNONYM>
SCHEMBL16113767

> <PUBCHEM_XREF_EXT_ID>
SCHEMBL16113767

> <PUBCHEM_EXT_DATASOURCE_URL>
https://www.surechembl.org/

> <PUBCHEM_EXT_SUBSTANCE_URL>
https://www.surechembl.org/chemical/SCHEMBL16113767

> <PUBCHEM_CID_ASSOCIATIONS>
85470246  1

> <PUBCHEM_COORDINATE_TYPE>
1
3

$$$$
