310942650
  -OEChem-07211613022D

 89 95  0     1  0  0  0  0  0999 V2000
    6.7021    0.6979    0.0000 F   0  0  0  0  0  0  0  0  0  0  0  0
    9.3508   -3.7046    0.0000 F   0  0  0  0  0  0  0  0  0  0  0  0
    6.4695   -0.9664    0.0000 O   0  0  0  0  0  0  0  0  0  0  0  0
    7.6507   -0.1790    0.0000 O   0  0  0  0  0  0  0  0  0  0  0  0
   11.7131   -1.0380    0.0000 O   0  0  0  0  0  0  0  0  0  0  0  0
    4.8768   -1.2170    0.0000 O   0  0  0  0  0  0  0  0  0  0  0  0
    3.8388   -0.7517    0.0000 O   0  0  0  0  0  0  0  0  0  0  0  0
    0.9575    0.0895    0.0000 O   0  0  0  0  0  0  0  0  0  0  0  0
    1.6733    1.3243    0.0000 O   0  0  0  0  0  0  0  0  0  0  0  0
   -3.3556    0.0716    0.0000 O   0  0  0  0  0  0  0  0  0  0  0  0
   -5.5210   -2.0044    0.0000 O   0  0  0  0  0  0  0  0  0  0  0  0
   -7.6865    0.0716    0.0000 O   0  0  0  0  0  0  0  0  0  0  0  0
   -6.2369   -2.4160    0.0000 O   0  0  0  0  0  0  0  0  0  0  0  0
    9.5119    0.9485    0.0000 N   0  0  0  0  0  0  0  0  0  0  0  0
    8.7245   -1.1274    0.0000 N   0  0  0  0  0  0  0  0  0  0  0  0
    8.2233    0.5369    0.0000 N   0  0  0  0  0  0  0  0  0  0  0  0
    4.5546    0.5011    0.0000 N   0  0  0  0  0  0  0  0  0  0  0  0
    7.2390   -3.2214    0.0000 N   0  0  0  0  0  0  0  0  0  0  0  0
    2.3892    0.0895    0.0000 N   0  0  0  0  0  0  0  0  0  0  0  0
   -2.6397   -1.1633    0.0000 N   0  0  0  0  0  0  0  0  0  0  0  0
   -4.8052   -0.7517    0.0000 N   0  0  0  0  0  0  0  0  0  0  0  0
   -6.9706   -1.1633    0.0000 N   0  0  0  0  0  0  0  0  0  0  0  0
   -5.5210   -3.6687    0.0000 N   0  0  0  0  0  0  0  0  0  0  0  0
   -6.9706   -3.6687    0.0000 N   0  0  0  0  0  0  0  0  0  0  0  0
  -11.9995   -0.7517    0.0000 N   0  0  0  0  0  0  0  0  0  0  0  0
    9.0108    0.2863    0.0000 C   0  0  0  0  0  0  0  0  0  0  0  0
    9.2793   -0.4832    0.0000 C   0  0  3  0  0  0  0  0  0  0  0  0
    8.2413    1.3780    0.0000 C   0  0  0  0  0  0  0  0  0  0  0  0
   10.0845   -0.6801    0.0000 C   0  0  0  0  0  0  0  0  0  0  0  0
    9.0287    1.6286    0.0000 C   0  0  0  0  0  0  0  0  0  0  0  0
    7.5433    1.8791    0.0000 C   0  0  0  0  0  0  0  0  0  0  0  0
    7.9012   -0.9485    0.0000 C   0  0  0  0  0  0  0  0  0  0  0  0
    8.9750   -1.8970    0.0000 C   0  0  0  0  0  0  0  0  0  0  0  0
   10.3530    0.9664    0.0000 C   0  0  0  0  0  0  0  0  0  0  0  0
    6.7917    1.5390    0.0000 C   0  0  0  0  0  0  0  0  0  0  0  0
    7.2212   -1.3601    0.0000 C   0  0  3  0  0  0  0  0  0  0  0  0
    8.4202   -2.5234    0.0000 C   0  0  3  0  0  0  0  0  0  0  0  0
   10.3709   -1.4675    0.0000 C   0  0  0  0  0  0  0  0  0  0  0  0
   10.6393   -0.0716    0.0000 C   0  0  0  0  0  0  0  0  0  0  0  0
    7.6328    2.6844    0.0000 C   0  0  0  0  0  0  0  0  0  0  0  0
   10.7646    1.7002    0.0000 C   0  0  0  0  0  0  0  0  0  0  0  0
    6.9706    3.1855    0.0000 C   0  0  0  0  0  0  0  0  0  0  0  0
    8.5813   -3.3466    0.0000 C   0  0  3  0  0  0  0  0  0  0  0  0
    6.1295    2.0222    0.0000 C   0  0  0  0  0  0  0  0  0  0  0  0
   11.4447   -0.2326    0.0000 C   0  0  0  0  0  0  0  0  0  0  0  0
   11.1762   -1.6465    0.0000 C   0  0  0  0  0  0  0  0  0  0  0  0
    5.5031   -0.6085    0.0000 C   0  0  0  0  0  0  0  0  0  0  0  0
    7.5970   -2.4518    0.0000 C   0  0  0  0  0  0  0  0  0  0  0  0
    6.2189    2.8455    0.0000 C   0  0  0  0  0  0  0  0  0  0  0  0
    5.3241    0.1610    0.0000 C   0  0  3  0  0  0  0  0  0  0  0  0
   11.5878    1.6822    0.0000 C   0  0  0  0  0  0  0  0  0  0  0  0
   10.3530    2.3981    0.0000 C   0  0  0  0  0  0  0  0  0  0  0  0
    7.8654   -3.7582    0.0000 C   0  0  0  0  0  0  0  0  0  0  0  0
    7.1853   -2.1834    0.0000 C   0  0  0  0  0  0  0  0  0  0  0  0
    3.8388    0.1253    0.0000 C   0  0  0  0  0  0  0  0  0  0  0  0
    5.8789    0.8054    0.0000 C   0  0  0  0  0  0  0  0  0  0  0  0
    4.6620    1.3422    0.0000 C   0  0  0  0  0  0  0  0  0  0  0  0
    7.0422    3.7582    0.0000 C   0  0  0  0  0  0  0  0  0  0  0  0
   11.9995    2.4160    0.0000 C   0  0  0  0  0  0  0  0  0  0  0  0
   10.7646    3.1139    0.0000 C   0  0  0  0  0  0  0  0  0  0  0  0
    5.4673    1.5033    0.0000 C   0  0  0  0  0  0  0  0  0  0  0  0
    3.1050    0.5011    0.0000 C   0  0  3  0  0  0  0  0  0  0  0  0
   11.5878    3.1139    0.0000 C   0  0  0  0  0  0  0  0  0  0  0  0
    3.1229    1.3243    0.0000 C   0  0  0  0  0  0  0  0  0  0  0  0
    1.6733    0.5011    0.0000 C   0  0  0  0  0  0  0  0  0  0  0  0
    0.2237    0.5011    0.0000 C   0  0  0  0  0  0  0  0  0  0  0  0
   -0.4743    0.1074    0.0000 C   0  0  0  0  0  0  0  0  0  0  0  0
   -1.9239   -0.7338    0.0000 C   0  0  0  0  0  0  0  0  0  0  0  0
   -4.0714   -1.1454    0.0000 C   0  0  3  0  0  0  0  0  0  0  0  0
   -3.3735   -0.7517    0.0000 C   0  0  0  0  0  0  0  0  0  0  0  0
   -0.4921   -0.7338    0.0000 C   0  0  0  0  0  0  0  0  0  0  0  0
   -1.2080    0.5011    0.0000 C   0  0  0  0  0  0  0  0  0  0  0  0
   -5.5210   -1.1274    0.0000 C   0  0  0  0  0  0  0  0  0  0  0  0
   -6.2548   -0.7338    0.0000 C   0  0  3  0  0  0  0  0  0  0  0  0
   -1.1901   -1.1454    0.0000 C   0  0  0  0  0  0  0  0  0  0  0  0
   -1.9060    0.0895    0.0000 C   0  0  0  0  0  0  0  0  0  0  0  0
   -6.2369    0.1253    0.0000 C   0  0  0  0  0  0  0  0  0  0  0  0
   -4.0714   -1.9686    0.0000 C   0  0  0  0  0  0  0  0  0  0  0  0
   -7.6865   -0.7517    0.0000 C   0  0  0  0  0  0  0  0  0  0  0  0
   -4.7872   -2.3981    0.0000 C   0  0  0  0  0  0  0  0  0  0  0  0
   -6.9706    0.5011    0.0000 C   0  0  0  0  0  0  0  0  0  0  0  0
   -5.5031    0.5190    0.0000 C   0  0  0  0  0  0  0  0  0  0  0  0
   -8.3845   -1.1454    0.0000 C   0  0  0  0  0  0  0  0  0  0  0  0
   -4.8231   -3.2571    0.0000 C   0  0  0  0  0  0  0  0  0  0  0  0
   -9.1361   -0.7517    0.0000 C   0  0  0  0  0  0  0  0  0  0  0  0
   -6.2369   -3.2571    0.0000 C   0  0  0  0  0  0  0  0  0  0  0  0
   -9.8340   -1.1454    0.0000 C   0  0  0  0  0  0  0  0  0  0  0  0
  -10.5857   -0.7517    0.0000 C   0  0  0  0  0  0  0  0  0  0  0  0
  -11.2657   -1.1454    0.0000 C   0  0  0  0  0  0  0  0  0  0  0  0
  1 35  1  0  0  0  0
 43  2  1  1  0  0  0
  3 36  1  0  0  0  0
  3 47  1  0  0  0  0
  4 32  2  0  0  0  0
  5 45  1  0  0  0  0
  5 46  1  0  0  0  0
  6 47  2  0  0  0  0
  7 55  2  0  0  0  0
  8 65  1  0  0  0  0
  8 66  1  0  0  0  0
  9 65  2  0  0  0  0
 10 70  2  0  0  0  0
 11 73  2  0  0  0  0
 12 79  2  0  0  0  0
 13 86  2  0  0  0  0
 14 26  1  0  0  0  0
 14 30  1  0  0  0  0
 14 34  1  0  0  0  0
 27 15  1  1  0  0  0
 15 32  1  0  0  0  0
 15 33  1  0  0  0  0
 16 26  2  0  0  0  0
 16 28  1  0  0  0  0
 17 50  1  0  0  0  0
 17 55  1  0  0  0  0
 17 57  1  0  0  0  0
 18 48  1  0  0  0  0
 18 53  1  0  0  0  0
 19 62  1  0  0  0  0
 19 65  1  0  0  0  0
 20 68  1  0  0  0  0
 20 70  1  0  0  0  0
 69 21  1  6  0  0  0
 21 73  1  0  0  0  0
 74 22  1  1  0  0  0
 22 79  1  0  0  0  0
 23 84  1  0  0  0  0
 23 86  1  0  0  0  0
 24 86  1  0  0  0  0
 25 89  1  0  0  0  0
 26 27  1  0  0  0  0
 27 29  1  0  0  0  0
 28 30  2  0  0  0  0
 28 31  1  0  0  0  0
 29 38  1  0  0  0  0
 29 39  1  0  0  0  0
 31 35  1  0  0  0  0
 31 40  2  0  0  0  0
 32 36  1  0  0  0  0
 37 33  1  1  0  0  0
 34 41  1  0  0  0  0
 35 44  2  0  0  0  0
 36 54  1  6  0  0  0
 37 43  1  0  0  0  0
 37 48  1  0  0  0  0
 38 46  1  0  0  0  0
 39 45  1  0  0  0  0
 40 42  1  0  0  0  0
 41 51  2  0  0  0  0
 41 52  1  0  0  0  0
 42 49  2  0  0  0  0
 42 58  1  0  0  0  0
 43 53  1  0  0  0  0
 44 49  1  0  0  0  0
 50 47  1  1  0  0  0
 50 56  1  0  0  0  0
 51 59  1  0  0  0  0
 52 60  2  0  0  0  0
 55 62  1  0  0  0  0
 56 61  1  0  0  0  0
 57 61  1  0  0  0  0
 59 63  2  0  0  0  0
 60 63  1  0  0  0  0
 62 64  1  6  0  0  0
 66 67  1  0  0  0  0
 67 71  2  0  0  0  0
 67 72  1  0  0  0  0
 68 75  2  0  0  0  0
 68 76  1  0  0  0  0
 69 70  1  0  0  0  0
 69 78  1  0  0  0  0
 71 75  1  0  0  0  0
 72 76  2  0  0  0  0
 73 74  1  0  0  0  0
 74 77  1  0  0  0  0
 77 81  1  0  0  0  0
 77 82  1  0  0  0  0
 78 80  1  0  0  0  0
 79 83  1  0  0  0  0
 80 84  1  0  0  0  0
 83 85  1  0  0  0  0
 85 87  1  0  0  0  0
 87 88  1  0  0  0  0
 88 89  1  0  0  0  0
M  END
> <PUBCHEM_COMPOUND_ID_TYPE>
0

> <PUBCHEM_TOTAL_CHARGE>
0

> <PUBCHEM_SUBSTANCE_ID>
310942650

> <PUBCHEM_SUBSTANCE_VERSION>
1

> <PUBCHEM_EXT_DATASOURCE_NAME>
4488

> <PUBCHEM_EXT_DATASOURCE_REGID>
SCHEMBL16120696

> <PUBCHEM_SUBSTANCE_COMMENT>
InChI=1S/C64H88F2N12O11/c1-39(2)55(75-54(79)18-10-7-11-27-67)59(81)74-51(16-12-28-70-63(68)85)58(80)72-47-22-20-44(21-23-47)38-88-64(86)71-41(4)60(82)77-29-13-17-53(77)62(84)89-42(5)61(83)78(36-46-33-69-34-50(46)66)56(45-25-30-87-31-26-45)57-73-52(48-32-40(3)19-24-49(48)65)37-76(57)35-43-14-8-6-9-15-43/h6,8-9,14-15,19-24,32,37,39,41-42,45-46,50-51,53,55-56,69H,7,10-13,16-18,25-31,33-36,38,67H2,1-5H3,(H,71,86)(H,72,80)(H,74,81)(H,75,79)(H3,68,70,85)/t41-,42+,46+,50+,51+,53+,55+,56-/m1/s1
InChIKey=KYOFZXLTBYBGCQ-XZSRIEPTSA-N

> <PUBCHEM_SUBSTANCE_SYNONYM>
SCHEMBL16120696

> <PUBCHEM_XREF_EXT_ID>
SCHEMBL16120696

> <PUBCHEM_EXT_DATASOURCE_URL>
https://www.surechembl.org/

> <PUBCHEM_EXT_SUBSTANCE_URL>
https://www.surechembl.org/chemical/SCHEMBL16120696

> <PUBCHEM_CID_ASSOCIATIONS>
117609180  1

> <PUBCHEM_COORDINATE_TYPE>
1
3

> <PUBCHEM_BONDANNOTATIONS>
27  15  5
43  2  5
69  21  6
74  22  5
37  33  5
36  54  6
50  47  5
62  64  6

$$$$
