310948610
  -OEChem-07211613022D

 28 30  0     1  0  0  0  0  0999 V2000
   -1.4063   -0.2078    0.0000 F   0  0  0  0  0  0  0  0  0  0  0  0
   -2.9443    0.1939    0.0000 O   0  0  0  0  0  0  0  0  0  0  0  0
   -3.6648    1.4410    0.0000 O   0  0  0  0  0  0  0  0  0  0  0  0
    0.7690    2.6879    0.0000 O   0  0  0  0  0  0  0  0  0  0  0  0
    1.4895   -0.2078    0.0000 N   0  0  3  0  0  0  0  0  0  0  0  0
    1.4895    1.4548    0.0000 N   0  0  0  0  0  0  0  0  0  0  0  0
   -1.4202    1.4548    0.0000 C   0  0  3  0  0  0  0  0  0  0  0  0
   -0.6720    1.0392    0.0000 C   0  0  0  0  0  0  0  0  0  0  0  0
   -2.2099    1.4548    0.0000 C   0  0  3  0  0  0  0  0  0  0  0  0
   -1.8220    2.1476    0.0000 C   0  0  0  0  0  0  0  0  0  0  0  0
    0.7552    0.2217    0.0000 C   0  0  0  0  0  0  0  0  0  0  0  0
   -0.6720    0.2078    0.0000 C   0  0  0  0  0  0  0  0  0  0  0  0
    0.7690    1.0392    0.0000 C   0  0  0  0  0  0  0  0  0  0  0  0
    0.0485    1.4410    0.0000 C   0  0  0  0  0  0  0  0  0  0  0  0
    0.0485   -0.2078    0.0000 C   0  0  0  0  0  0  0  0  0  0  0  0
   -2.9997    1.0530    0.0000 C   0  0  0  0  0  0  0  0  0  0  0  0
    1.4895   -1.0392    0.0000 C   0  0  0  0  0  0  0  0  0  0  0  0
    2.1961    0.2078    0.0000 C   0  0  0  0  0  0  0  0  0  0  0  0
    1.5033    2.2723    0.0000 C   0  0  0  0  0  0  0  0  0  0  0  0
    0.7690   -1.4548    0.0000 C   0  0  0  0  0  0  0  0  0  0  0  0
    2.1961   -1.4548    0.0000 C   0  0  0  0  0  0  0  0  0  0  0  0
    2.9304   -0.1939    0.0000 C   0  0  0  0  0  0  0  0  0  0  0  0
    0.7690   -2.2723    0.0000 C   0  0  0  0  0  0  0  0  0  0  0  0
    2.1961   -2.2862    0.0000 C   0  0  0  0  0  0  0  0  0  0  0  0
    1.4756   -2.6879    0.0000 C   0  0  0  0  0  0  0  0  0  0  0  0
    1.9329    2.5078    0.0000 C   0  0  0  0  0  0  0  0  0  0  0  0
    3.6648    0.1939    0.0000 C   0  0  0  0  0  0  0  0  0  0  0  0
    2.9443   -1.0530    0.0000 C   0  0  0  0  0  0  0  0  0  0  0  0
  1 12  1  0  0  0  0
  2 16  2  0  0  0  0
  3 16  1  0  0  0  0
  4 19  2  0  0  0  0
  5 11  1  0  0  0  0
  5 17  1  0  0  0  0
  5 18  1  0  0  0  0
  6 13  1  0  0  0  0
  6 19  1  0  0  0  0
  7  8  1  0  0  0  0
  7  9  1  0  0  0  0
  7 10  1  6  0  0  0
  8 12  2  0  0  0  0
  8 14  1  0  0  0  0
  9 10  1  0  0  0  0
  9 16  1  6  0  0  0
 11 13  1  0  0  0  0
 11 15  2  0  0  0  0
 12 15  1  0  0  0  0
 13 14  2  0  0  0  0
 17 20  1  0  0  0  0
 17 21  1  0  0  0  0
 18 22  1  0  0  0  0
 19 26  1  0  0  0  0
 20 23  1  0  0  0  0
 21 24  1  0  0  0  0
 22 27  1  0  0  0  0
 22 28  1  0  0  0  0
 23 25  1  0  0  0  0
 24 25  1  0  0  0  0
M  END
> <PUBCHEM_COMPOUND_ID_TYPE>
0

> <PUBCHEM_TOTAL_CHARGE>
0

> <PUBCHEM_SUBSTANCE_ID>
310948610

> <PUBCHEM_SUBSTANCE_VERSION>
1

> <PUBCHEM_EXT_DATASOURCE_NAME>
4488

> <PUBCHEM_EXT_DATASOURCE_REGID>
SCHEMBL16126793

> <PUBCHEM_SUBSTANCE_COMMENT>
InChI=1S/C22H31FN2O3/c1-13(2)12-25(15-7-5-4-6-8-15)21-11-19(23)17(10-20(21)24-14(3)26)16-9-18(16)22(27)28/h10-11,13,15-16,18H,4-9,12H2,1-3H3,(H,24,26)(H,27,28)/t16-,18-/m1/s1
InChIKey=CEOUTONUKLEJKR-SJLPKXTDSA-N

> <PUBCHEM_SUBSTANCE_SYNONYM>
SCHEMBL16126793

> <PUBCHEM_XREF_EXT_ID>
SCHEMBL16126793

> <PUBCHEM_EXT_DATASOURCE_URL>
https://www.surechembl.org/

> <PUBCHEM_EXT_SUBSTANCE_URL>
https://www.surechembl.org/chemical/SCHEMBL16126793

> <PUBCHEM_CID_ASSOCIATIONS>
117614154  1

> <PUBCHEM_COORDINATE_TYPE>
1
3

> <PUBCHEM_BONDANNOTATIONS>
7  10  6
9  16  6

$$$$
