310943881
  -OEChem-07211613022D

 14 15  0     0  0  0  0  0  0999 V2000
   -1.1269   -0.3353    0.0000 N   0  0  0  0  0  0  0  0  0  0  0  0
    0.3023   -0.3353    0.0000 N   0  0  0  0  0  0  0  0  0  0  0  0
   -1.8745    0.0055    0.0000 N   0  0  0  0  0  0  0  0  0  0  0  0
    0.3023    1.3247    0.0000 N   0  0  0  0  0  0  0  0  0  0  0  0
   -2.4242   -0.6101    0.0000 N   0  0  0  0  0  0  0  0  0  0  0  0
   -2.0174   -1.3247    0.0000 N   0  0  0  0  0  0  0  0  0  0  0  0
   -0.4233    0.0824    0.0000 C   0  0  0  0  0  0  0  0  0  0  0  0
    1.0059    0.0824    0.0000 C   0  0  0  0  0  0  0  0  0  0  0  0
    1.0169    0.9070    0.0000 C   0  0  0  0  0  0  0  0  0  0  0  0
   -0.4013    0.9180    0.0000 C   0  0  0  0  0  0  0  0  0  0  0  0
   -1.2148   -1.1488    0.0000 C   0  0  0  0  0  0  0  0  0  0  0  0
    1.7205    1.3247    0.0000 C   0  0  0  0  0  0  0  0  0  0  0  0
    1.7755   -0.2694    0.0000 C   0  0  0  0  0  0  0  0  0  0  0  0
    2.4242    0.8630    0.0000 C   0  0  0  0  0  0  0  0  0  0  0  0
  1  3  1  0  0  0  0
  1  7  1  0  0  0  0
  1 11  1  0  0  0  0
  2  7  1  0  0  0  0
  2  8  2  0  0  0  0
  3  5  2  0  0  0  0
  4  9  2  0  0  0  0
  4 10  1  0  0  0  0
  5  6  1  0  0  0  0
  6 11  2  0  0  0  0
  7 10  2  0  0  0  0
  8  9  1  0  0  0  0
  8 13  1  0  0  0  0
  9 12  1  0  0  0  0
 12 14  2  0  0  0  0
M  END
> <PUBCHEM_COMPOUND_ID_TYPE>
0

> <PUBCHEM_TOTAL_CHARGE>
0

> <PUBCHEM_SUBSTANCE_ID>
310943881

> <PUBCHEM_SUBSTANCE_VERSION>
1

> <PUBCHEM_EXT_DATASOURCE_NAME>
4488

> <PUBCHEM_EXT_DATASOURCE_REGID>
SCHEMBL16121952

> <PUBCHEM_SUBSTANCE_COMMENT>
InChI=1S/C8H8N6/c1-3-7-6(2)11-8(4-9-7)14-5-10-12-13-14/h3-5H,1H2,2H3
InChIKey=BLFLJHJPBWKEGR-UHFFFAOYSA-N

> <PUBCHEM_SUBSTANCE_SYNONYM>
SCHEMBL16121952

> <PUBCHEM_XREF_EXT_ID>
SCHEMBL16121952

> <PUBCHEM_EXT_DATASOURCE_URL>
https://www.surechembl.org/

> <PUBCHEM_EXT_SUBSTANCE_URL>
https://www.surechembl.org/chemical/SCHEMBL16121952

> <PUBCHEM_CID_ASSOCIATIONS>
117610207  1

> <PUBCHEM_COORDINATE_TYPE>
1
3

$$$$
