310932678
  -OEChem-07211613022D

 30 33  0     0  0  0  0  0  0999 V2000
    3.2945   -5.0298    0.0000 F   0  0  0  0  0  0  0  0  0  0  0  0
    0.8299   -2.1628    0.0000 O   0  0  0  0  0  0  0  0  0  0  0  0
    5.4071   -3.9987    0.0000 O   0  0  0  0  0  0  0  0  0  0  0  0
    1.6599   -0.7545    0.0000 N   0  0  0  0  0  0  0  0  0  0  0  0
    0.4275   -1.4335    0.0000 N   0  0  0  0  0  0  0  0  0  0  0  0
    0.8299   -3.5963    0.0000 N   0  0  0  0  0  0  0  0  0  0  0  0
    5.4071   -3.1688    0.0000 N   0  0  0  0  0  0  0  0  0  0  0  0
    1.6599   -5.0046    0.0000 N   0  0  0  0  0  0  0  0  0  0  0  0
    1.6599   -2.1628    0.0000 C   0  0  0  0  0  0  0  0  0  0  0  0
    2.0622   -2.8670    0.0000 C   0  0  0  0  0  0  0  0  0  0  0  0
    3.3197   -3.5963    0.0000 C   0  0  0  0  0  0  0  0  0  0  0  0
    1.6599   -3.5963    0.0000 C   0  0  0  0  0  0  0  0  0  0  0  0
    2.0622   -1.4335    0.0000 C   0  0  0  0  0  0  0  0  0  0  0  0
    1.2323   -1.4335    0.0000 C   0  0  0  0  0  0  0  0  0  0  0  0
    2.8921   -2.8670    0.0000 C   0  0  0  0  0  0  0  0  0  0  0  0
    2.8921   -4.3005    0.0000 C   0  0  0  0  0  0  0  0  0  0  0  0
    2.0622   -4.3005    0.0000 C   0  0  0  0  0  0  0  0  0  0  0  0
    4.1244   -3.5963    0.0000 C   0  0  0  0  0  0  0  0  0  0  0  0
    4.6274   -4.2502    0.0000 C   0  0  0  0  0  0  0  0  0  0  0  0
    4.6274   -2.9424    0.0000 C   0  0  0  0  0  0  0  0  0  0  0  0
    2.8921   -1.4586    0.0000 C   0  0  0  0  0  0  0  0  0  0  0  0
    1.8359   -0.8802    0.0000 C   0  0  0  0  0  0  0  0  0  0  0  0
    2.0370    0.0000    0.0000 C   0  0  0  0  0  0  0  0  0  0  0  0
    0.0000   -0.7293    0.0000 C   0  0  0  0  0  0  0  0  0  0  0  0
    3.2945   -0.7041    0.0000 C   0  0  0  0  0  0  0  0  0  0  0  0
    1.2323   -0.0252    0.0000 C   0  0  0  0  0  0  0  0  0  0  0  0
    4.3759   -5.0298    0.0000 C   0  0  0  0  0  0  0  0  0  0  0  0
    4.3759   -2.1377    0.0000 C   0  0  0  0  0  0  0  0  0  0  0  0
    2.8670   -0.0252    0.0000 C   0  0  0  0  0  0  0  0  0  0  0  0
    0.4275   -0.0252    0.0000 C   0  0  0  0  0  0  0  0  0  0  0  0
  1 16  1  0  0  0  0
  2  9  1  0  0  0  0
  3  7  1  0  0  0  0
  3 19  1  0  0  0  0
  4 13  1  0  0  0  0
  4 23  2  0  0  0  0
  5 14  1  0  0  0  0
  5 24  2  0  0  0  0
  6 12  1  0  0  0  0
  7 20  2  0  0  0  0
  8 17  1  0  0  0  0
  9 10  1  0  0  0  0
  9 13  1  0  0  0  0
  9 14  1  0  0  0  0
 10 12  1  0  0  0  0
 10 15  2  0  0  0  0
 11 15  1  0  0  0  0
 11 16  2  0  0  0  0
 11 18  1  0  0  0  0
 12 17  2  0  0  0  0
 13 21  2  0  0  0  0
 14 22  2  0  0  0  0
 16 17  1  0  0  0  0
 18 19  2  0  0  0  0
 18 20  1  0  0  0  0
 19 27  1  0  0  0  0
 20 28  1  0  0  0  0
 21 25  1  0  0  0  0
 22 26  1  0  0  0  0
 23 29  1  0  0  0  0
 24 30  1  0  0  0  0
 25 29  2  0  0  0  0
 26 30  2  0  0  0  0
M  END
> <PUBCHEM_COMPOUND_ID_TYPE>
0

> <PUBCHEM_TOTAL_CHARGE>
0

> <PUBCHEM_SUBSTANCE_ID>
310932678

> <PUBCHEM_SUBSTANCE_VERSION>
1

> <PUBCHEM_EXT_DATASOURCE_NAME>
4488

> <PUBCHEM_EXT_DATASOURCE_REGID>
SCHEMBL16110058

> <PUBCHEM_SUBSTANCE_COMMENT>
InChI=1S/C22H20FN5O2/c1-12-18(13(2)30-28-12)14-11-15(20(24)21(25)19(14)23)22(29,16-7-3-5-9-26-16)17-8-4-6-10-27-17/h3-11,29H,24-25H2,1-2H3
InChIKey=PVNGTVOMBJZDFO-UHFFFAOYSA-N

> <PUBCHEM_SUBSTANCE_SYNONYM>
SCHEMBL16110058

> <PUBCHEM_XREF_EXT_ID>
SCHEMBL16110058

> <PUBCHEM_EXT_DATASOURCE_URL>
https://www.surechembl.org/

> <PUBCHEM_EXT_SUBSTANCE_URL>
https://www.surechembl.org/chemical/SCHEMBL16110058

> <PUBCHEM_CID_ASSOCIATIONS>
117601191  1

> <PUBCHEM_COORDINATE_TYPE>
1
3

$$$$
