310939307
  -OEChem-07211613022D

 23 24  0     1  0  0  0  0  0999 V2000
    3.2151    0.0000    0.0000 Cl  0  0  0  0  0  0  0  0  0  0  0  0
    0.3572    0.0000    0.0000 F   0  0  0  0  0  0  0  0  0  0  0  0
    1.7862   -0.8250    0.0000 O   0  0  0  0  0  0  0  0  0  0  0  0
   -3.2151    1.2375    0.0000 O   0  0  0  0  0  0  0  0  0  0  0  0
   -0.3572    1.2375    0.0000 N   0  0  0  0  0  0  0  0  0  0  0  0
   -2.5006    2.4750    0.0000 N   0  0  0  0  0  0  0  0  0  0  0  0
    1.7862    0.0000    0.0000 C   0  0  0  0  0  0  0  0  0  0  0  0
    1.0717    0.4125    0.0000 C   0  0  0  0  0  0  0  0  0  0  0  0
    1.0717    1.2375    0.0000 C   0  0  0  0  0  0  0  0  0  0  0  0
    2.5006    0.4125    0.0000 C   0  0  0  0  0  0  0  0  0  0  0  0
    1.7862    1.6500    0.0000 C   0  0  0  0  0  0  0  0  0  0  0  0
    2.5006    1.2375    0.0000 C   0  0  0  0  0  0  0  0  0  0  0  0
    1.0717   -1.2375    0.0000 C   0  0  0  0  0  0  0  0  0  0  0  0
    0.3572    1.6500    0.0000 C   0  0  0  0  0  0  0  0  0  0  0  0
    1.0717   -2.0625    0.0000 C   0  0  0  0  0  0  0  0  0  0  0  0
    0.3572   -0.8250    0.0000 C   0  0  0  0  0  0  0  0  0  0  0  0
   -1.0717    1.6500    0.0000 C   0  0  3  0  0  0  0  0  0  0  0  0
    0.3572   -2.4750    0.0000 C   0  0  0  0  0  0  0  0  0  0  0  0
   -0.3572   -1.2375    0.0000 C   0  0  0  0  0  0  0  0  0  0  0  0
   -0.3572   -2.0625    0.0000 C   0  0  0  0  0  0  0  0  0  0  0  0
   -1.7862    1.2375    0.0000 C   0  0  0  0  0  0  0  0  0  0  0  0
   -2.5006    1.6500    0.0000 C   0  0  0  0  0  0  0  0  0  0  0  0
   -1.0717    2.4750    0.0000 C   0  0  0  0  0  0  0  0  0  0  0  0
  1 10  1  0  0  0  0
  2  8  1  0  0  0  0
  3  7  1  0  0  0  0
  3 13  1  0  0  0  0
  4 22  2  0  0  0  0
  5 14  1  0  0  0  0
  5 17  1  0  0  0  0
  6 22  1  0  0  0  0
  7  8  2  0  0  0  0
  7 10  1  0  0  0  0
  8  9  1  0  0  0  0
  9 11  2  0  0  0  0
  9 14  1  0  0  0  0
 10 12  2  0  0  0  0
 11 12  1  0  0  0  0
 13 15  2  0  0  0  0
 13 16  1  0  0  0  0
 15 18  1  0  0  0  0
 16 19  2  0  0  0  0
 17 21  1  0  0  0  0
 17 23  1  6  0  0  0
 18 20  2  0  0  0  0
 19 20  1  0  0  0  0
 21 22  1  0  0  0  0
M  END
> <PUBCHEM_COMPOUND_ID_TYPE>
0

> <PUBCHEM_TOTAL_CHARGE>
0

> <PUBCHEM_SUBSTANCE_ID>
310939307

> <PUBCHEM_SUBSTANCE_VERSION>
1

> <PUBCHEM_EXT_DATASOURCE_NAME>
4488

> <PUBCHEM_EXT_DATASOURCE_REGID>
SCHEMBL16117228

> <PUBCHEM_SUBSTANCE_COMMENT>
InChI=1S/C17H18ClFN2O2/c1-11(9-15(20)22)21-10-12-7-8-14(18)17(16(12)19)23-13-5-3-2-4-6-13/h2-8,11,21H,9-10H2,1H3,(H2,20,22)/t11-/m0/s1
InChIKey=FABSLGBAWCABJJ-NSHDSACASA-N

> <PUBCHEM_SUBSTANCE_SYNONYM>
SCHEMBL16117228

> <PUBCHEM_XREF_EXT_ID>
SCHEMBL16117228

> <PUBCHEM_EXT_DATASOURCE_URL>
https://www.surechembl.org/

> <PUBCHEM_EXT_SUBSTANCE_URL>
https://www.surechembl.org/chemical/SCHEMBL16117228

> <PUBCHEM_CID_ASSOCIATIONS>
117606647  1

> <PUBCHEM_COORDINATE_TYPE>
1
3

> <PUBCHEM_BONDANNOTATIONS>
17  23  6

$$$$
