310936719
  -OEChem-07211613022D

 44 48  0     1  0  0  0  0  0999 V2000
   -5.8304   -2.9324    0.0000 F   0  0  0  0  0  0  0  0  0  0  0  0
   -5.0099   -3.0186    0.0000 F   0  0  0  0  0  0  0  0  0  0  0  0
   -6.1659   -2.1787    0.0000 F   0  0  0  0  0  0  0  0  0  0  0  0
   -4.5618    1.2447    0.0000 F   0  0  0  0  0  0  0  0  0  0  0  0
   -5.3823    1.3310    0.0000 F   0  0  0  0  0  0  0  0  0  0  0  0
   -5.8672    0.6635    0.0000 F   0  0  0  0  0  0  0  0  0  0  0  0
   -2.3221   -1.8170    0.0000 O   0  0  0  0  0  0  0  0  0  0  0  0
    2.2295   -3.8616    0.0000 O   0  0  0  0  0  0  0  0  0  0  0  0
   -0.9021   -2.1975    0.0000 O   0  0  0  0  0  0  0  0  0  0  0  0
    0.8250   -0.8250    0.0000 N   0  0  3  0  0  0  0  0  0  0  0  0
    0.0000    0.0000    0.0000 N   0  0  3  0  0  0  0  0  0  0  0  0
   -1.4290   -0.8250    0.0000 N   0  0  0  0  0  0  0  0  0  0  0  0
    0.0000   -2.2540    0.0000 N   0  0  0  0  0  0  0  0  0  0  0  0
    1.5151   -4.2741    0.0000 N   0  0  0  0  0  0  0  0  0  0  0  0
    0.0000   -0.8250    0.0000 C   0  0  3  0  0  0  0  0  0  0  0  0
   -0.7144   -0.4125    0.0000 C   0  0  0  0  0  0  0  0  0  0  0  0
   -0.4125   -1.5394    0.0000 C   0  0  0  0  0  0  0  0  0  0  0  0
    0.8250   -2.2540    0.0000 C   0  0  0  0  0  0  0  0  0  0  0  0
   -2.7346   -1.1026    0.0000 C   0  0  3  0  0  0  0  0  0  0  0  0
    1.2375   -1.5394    0.0000 C   0  0  0  0  0  0  0  0  0  0  0  0
   -1.5152   -1.6455    0.0000 C   0  0  0  0  0  0  0  0  0  0  0  0
   -3.5551   -1.0163    0.0000 C   0  0  0  0  0  0  0  0  0  0  0  0
    1.2375   -2.9684    0.0000 C   0  0  0  0  0  0  0  0  0  0  0  0
   -2.1826   -0.4895    0.0000 C   0  0  0  0  0  0  0  0  0  0  0  0
   -4.8605   -1.5975    0.0000 C   0  0  0  0  0  0  0  0  0  0  0  0
   -4.7112   -0.1764    0.0000 C   0  0  0  0  0  0  0  0  0  0  0  0
    0.7144    0.4125    0.0000 C   0  0  0  0  0  0  0  0  0  0  0  0
   -3.8907   -0.2626    0.0000 C   0  0  0  0  0  0  0  0  0  0  0  0
   -4.0400   -1.6838    0.0000 C   0  0  0  0  0  0  0  0  0  0  0  0
    2.0580   -3.0546    0.0000 C   0  0  0  0  0  0  0  0  0  0  0  0
    0.9020   -3.7221    0.0000 C   0  0  0  0  0  0  0  0  0  0  0  0
   -0.7144    0.4125    0.0000 C   0  0  0  0  0  0  0  0  0  0  0  0
   -5.1961   -0.8439    0.0000 C   0  0  0  0  0  0  0  0  0  0  0  0
    1.2375   -0.1105    0.0000 C   0  0  0  0  0  0  0  0  0  0  0  0
   -5.3455   -2.2649    0.0000 C   0  0  0  0  0  0  0  0  0  0  0  0
   -5.0467    0.5773    0.0000 C   0  0  0  0  0  0  0  0  0  0  0  0
    0.7144    1.2375    0.0000 C   0  0  0  0  0  0  0  0  0  0  0  0
    2.6100   -2.4415    0.0000 C   0  0  0  0  0  0  0  0  0  0  0  0
    0.0950   -3.8936    0.0000 C   0  0  0  0  0  0  0  0  0  0  0  0
    0.0470    1.7224    0.0000 C   0  0  0  0  0  0  0  0  0  0  0  0
    1.3819    1.7224    0.0000 C   0  0  0  0  0  0  0  0  0  0  0  0
   -1.4290    0.0000    0.0000 C   0  0  0  0  0  0  0  0  0  0  0  0
    0.3019    2.5071    0.0000 C   0  0  0  0  0  0  0  0  0  0  0  0
    1.1269    2.5071    0.0000 C   0  0  0  0  0  0  0  0  0  0  0  0
  1 35  1  0  0  0  0
  2 35  1  0  0  0  0
  3 35  1  0  0  0  0
  4 36  1  0  0  0  0
  5 36  1  0  0  0  0
  6 36  1  0  0  0  0
 19  7  1  6  0  0  0
  7 21  1  0  0  0  0
  8 14  1  0  0  0  0
  8 30  1  0  0  0  0
  9 21  2  0  0  0  0
 10 15  1  0  0  0  0
 10 20  1  0  0  0  0
 10 34  1  0  0  0  0
 11 15  1  0  0  0  0
 11 27  1  0  0  0  0
 11 32  1  0  0  0  0
 12 16  1  0  0  0  0
 12 21  1  0  0  0  0
 12 24  1  0  0  0  0
 13 17  2  0  0  0  0
 13 18  1  0  0  0  0
 14 31  2  0  0  0  0
 15 16  1  0  0  0  0
 15 17  1  0  0  0  0
 18 20  2  0  0  0  0
 18 23  1  0  0  0  0
 19 22  1  0  0  0  0
 19 24  1  0  0  0  0
 22 28  2  0  0  0  0
 22 29  1  0  0  0  0
 23 30  2  0  0  0  0
 23 31  1  0  0  0  0
 25 29  2  0  0  0  0
 25 33  1  0  0  0  0
 25 35  1  0  0  0  0
 26 28  1  0  0  0  0
 26 33  2  0  0  0  0
 26 36  1  0  0  0  0
 27 37  1  0  0  0  0
 30 38  1  0  0  0  0
 31 39  1  0  0  0  0
 32 42  1  0  0  0  0
 37 40  1  0  0  0  0
 37 41  1  0  0  0  0
 40 43  1  0  0  0  0
 41 44  1  0  0  0  0
 43 44  1  0  0  0  0
M  END
> <PUBCHEM_COMPOUND_ID_TYPE>
0

> <PUBCHEM_TOTAL_CHARGE>
0

> <PUBCHEM_SUBSTANCE_ID>
310936719

> <PUBCHEM_SUBSTANCE_VERSION>
1

> <PUBCHEM_EXT_DATASOURCE_NAME>
4488

> <PUBCHEM_EXT_DATASOURCE_REGID>
SCHEMBL16114397

> <PUBCHEM_SUBSTANCE_COMMENT>
InChI=1S/C30H35F6N5O3/c1-5-41(13-20-8-6-7-9-20)28(16-37-24(14-39(28)4)26-18(2)38-44-19(26)3)17-40-15-25(43-27(40)42)21-10-22(29(31,32)33)12-23(11-21)30(34,35)36/h10-12,14,16,20,25H,5-9,13,15,17H2,1-4H3/t25-,28?/m0/s1
InChIKey=UBHAWIRFMIJYPI-ALLRNTDFSA-N

> <PUBCHEM_SUBSTANCE_SYNONYM>
SCHEMBL16114397

> <PUBCHEM_XREF_EXT_ID>
SCHEMBL16114397

> <PUBCHEM_EXT_DATASOURCE_URL>
https://www.surechembl.org/

> <PUBCHEM_EXT_SUBSTANCE_URL>
https://www.surechembl.org/chemical/SCHEMBL16114397

> <PUBCHEM_CID_ASSOCIATIONS>
117604620  1

> <PUBCHEM_COORDINATE_TYPE>
1
3

> <PUBCHEM_BONDANNOTATIONS>
19  7  6

$$$$
