310941726
  -OEChem-07211613022D

 34 38  0     0  0  0  0  0  0999 V2000
   -2.5512   -3.8758    0.0000 Br  0  0  0  0  0  0  0  0  0  0  0  0
   -2.6203    0.9848    0.0000 S   0  0  0  0  0  0  0  0  0  0  0  0
   -1.9869   -0.3974    0.0000 O   0  0  0  0  0  0  0  0  0  0  0  0
   -0.4089   -2.1366    0.0000 O   0  0  0  0  0  0  0  0  0  0  0  0
    2.4821   -1.9523    0.0000 N   0  0  0  0  0  0  0  0  0  0  0  0
   -3.2883   -0.3052    0.0000 N   0  0  0  0  0  0  0  0  0  0  0  0
   -3.9680    0.9963    0.0000 N   0  0  0  0  0  0  0  0  0  0  0  0
   -3.7030    1.7910    0.0000 N   0  0  0  0  0  0  0  0  0  0  0  0
   -1.1230   -3.2078    0.0000 N   0  0  0  0  0  0  0  0  0  0  0  0
    1.0424   -2.7816    0.0000 N   0  0  0  0  0  0  0  0  0  0  0  0
   -2.5743   -1.5261    0.0000 C   0  0  0  0  0  0  0  0  0  0  0  0
   -1.8486   -2.7585    0.0000 C   0  0  0  0  0  0  0  0  0  0  0  0
   -3.2769    0.5471    0.0000 C   0  0  0  0  0  0  0  0  0  0  0  0
   -2.8853    1.8025    0.0000 C   0  0  0  0  0  0  0  0  0  0  0  0
   -2.5628   -0.7084    0.0000 C   0  0  0  0  0  0  0  0  0  0  0  0
    3.1962   -1.5031    0.0000 C   0  0  0  0  0  0  0  0  0  0  0  0
   -1.8486   -1.9523    0.0000 C   0  0  0  0  0  0  0  0  0  0  0  0
   -2.5628   -3.1847    0.0000 C   0  0  0  0  0  0  0  0  0  0  0  0
   -2.3900    2.4936    0.0000 C   0  0  0  0  0  0  0  0  0  0  0  0
   -3.2769   -1.9408    0.0000 C   0  0  0  0  0  0  0  0  0  0  0  0
    3.5648   -0.8581    0.0000 C   0  0  0  0  0  0  0  0  0  0  0  0
    3.9680   -1.5146    0.0000 C   0  0  0  0  0  0  0  0  0  0  0  0
   -3.2769   -2.7701    0.0000 C   0  0  0  0  0  0  0  0  0  0  0  0
   -0.4089   -2.7816    0.0000 C   0  0  0  0  0  0  0  0  0  0  0  0
    2.4821   -2.7585    0.0000 C   0  0  0  0  0  0  0  0  0  0  0  0
    1.7449   -1.5376    0.0000 C   0  0  0  0  0  0  0  0  0  0  0  0
    0.3398   -3.1847    0.0000 C   0  0  0  0  0  0  0  0  0  0  0  0
    1.7449   -3.1847    0.0000 C   0  0  0  0  0  0  0  0  0  0  0  0
    1.0654   -1.9293    0.0000 C   0  0  0  0  0  0  0  0  0  0  0  0
   -1.5607    2.3439    0.0000 C   0  0  0  0  0  0  0  0  0  0  0  0
   -2.6433    3.2769    0.0000 C   0  0  0  0  0  0  0  0  0  0  0  0
   -1.0424    2.9429    0.0000 C   0  0  0  0  0  0  0  0  0  0  0  0
   -2.1250    3.8758    0.0000 C   0  0  0  0  0  0  0  0  0  0  0  0
   -1.3073    3.7376    0.0000 C   0  0  0  0  0  0  0  0  0  0  0  0
  1 18  1  0  0  0  0
  2 13  1  0  0  0  0
  2 14  1  0  0  0  0
  3 15  2  0  0  0  0
  4 24  2  0  0  0  0
  5 16  1  0  0  0  0
  5 25  1  0  0  0  0
  5 26  1  0  0  0  0
  6 13  1  0  0  0  0
  6 15  1  0  0  0  0
  7  8  1  0  0  0  0
  7 13  2  0  0  0  0
  8 14  2  0  0  0  0
  9 12  1  0  0  0  0
  9 24  1  0  0  0  0
 10 27  1  0  0  0  0
 10 28  1  0  0  0  0
 10 29  1  0  0  0  0
 11 15  1  0  0  0  0
 11 17  1  0  0  0  0
 11 20  2  0  0  0  0
 12 17  2  0  0  0  0
 12 18  1  0  0  0  0
 14 19  1  0  0  0  0
 16 21  1  0  0  0  0
 16 22  1  0  0  0  0
 18 23  2  0  0  0  0
 19 30  2  0  0  0  0
 19 31  1  0  0  0  0
 20 23  1  0  0  0  0
 21 22  1  0  0  0  0
 24 27  1  0  0  0  0
 25 28  1  0  0  0  0
 26 29  1  0  0  0  0
 30 32  1  0  0  0  0
 31 33  2  0  0  0  0
 32 34  2  0  0  0  0
 33 34  1  0  0  0  0
M  END
> <PUBCHEM_COMPOUND_ID_TYPE>
0

> <PUBCHEM_TOTAL_CHARGE>
0

> <PUBCHEM_SUBSTANCE_ID>
310941726

> <PUBCHEM_SUBSTANCE_VERSION>
1

> <PUBCHEM_EXT_DATASOURCE_NAME>
4488

> <PUBCHEM_EXT_DATASOURCE_REGID>
SCHEMBL16119757

> <PUBCHEM_SUBSTANCE_COMMENT>
InChI=1S/C24H25BrN6O2S/c25-19-9-6-17(22(33)27-24-29-28-23(34-24)16-4-2-1-3-5-16)14-20(19)26-21(32)15-30-10-12-31(13-11-30)18-7-8-18/h1-6,9,14,18H,7-8,10-13,15H2,(H,26,32)(H,27,29,33)
InChIKey=WCDZUSIBEQNATE-UHFFFAOYSA-N

> <PUBCHEM_SUBSTANCE_SYNONYM>
SCHEMBL16119757

> <PUBCHEM_XREF_EXT_ID>
SCHEMBL16119757

> <PUBCHEM_EXT_DATASOURCE_URL>
https://www.surechembl.org/

> <PUBCHEM_EXT_SUBSTANCE_URL>
https://www.surechembl.org/chemical/SCHEMBL16119757

> <PUBCHEM_CID_ASSOCIATIONS>
117608496  1

> <PUBCHEM_COORDINATE_TYPE>
1
3

$$$$
