310947361
  -OEChem-07211613022D

 41 45  0     1  0  0  0  0  0999 V2000
   -7.4544   -0.1849    0.0000 Br  0  0  0  0  0  0  0  0  0  0  0  0
   -3.1676    2.2906    0.0000 O   0  0  0  0  0  0  0  0  0  0  0  0
   -0.2396   -0.0269    0.0000 N   0  0  0  0  0  0  0  0  0  0  0  0
    0.2453    0.6406    0.0000 N   0  0  0  0  0  0  0  0  0  0  0  0
   -3.8821    1.0531    0.0000 N   0  0  0  0  0  0  0  0  0  0  0  0
   -1.0242    1.0531    0.0000 C   0  0  0  0  0  0  0  0  0  0  0  0
   -1.0242    0.2281    0.0000 C   0  0  0  0  0  0  0  0  0  0  0  0
   -0.2396    1.3080    0.0000 C   0  0  0  0  0  0  0  0  0  0  0  0
   -1.7387    1.4656    0.0000 C   0  0  0  0  0  0  0  0  0  0  0  0
   -2.4532    1.0531    0.0000 C   0  0  0  0  0  0  0  0  0  0  0  0
   -1.7387   -0.1844    0.0000 C   0  0  0  0  0  0  0  0  0  0  0  0
   -0.0261   -0.8237    0.0000 C   0  0  0  0  0  0  0  0  0  0  0  0
   -0.0261    2.1049    0.0000 C   0  0  0  0  0  0  0  0  0  0  0  0
   -2.4532    0.2281    0.0000 C   0  0  0  0  0  0  0  0  0  0  0  0
    0.7708   -1.0373    0.0000 C   0  0  0  0  0  0  0  0  0  0  0  0
   -3.1676    1.4656    0.0000 C   0  0  0  0  0  0  0  0  0  0  0  0
    3.1615   -1.6778    0.0000 C   0  0  0  0  0  0  0  0  0  0  0  0
    2.3646   -1.4643    0.0000 C   0  0  0  0  0  0  0  0  0  0  0  0
    3.7448   -1.0945    0.0000 C   0  0  0  0  0  0  0  0  0  0  0  0
    0.9843   -1.8341    0.0000 C   0  0  0  0  0  0  0  0  0  0  0  0
    1.3541   -0.4539    0.0000 C   0  0  0  0  0  0  0  0  0  0  0  0
    3.5313   -0.2977    0.0000 C   0  0  0  0  0  0  0  0  0  0  0  0
    1.7812   -2.0476    0.0000 C   0  0  0  0  0  0  0  0  0  0  0  0
    2.1511   -0.6675    0.0000 C   0  0  0  0  0  0  0  0  0  0  0  0
   -0.6094    2.6882    0.0000 C   0  0  0  0  0  0  0  0  0  0  0  0
    0.7708    2.3184    0.0000 C   0  0  0  0  0  0  0  0  0  0  0  0
    3.3750   -2.4747    0.0000 C   0  0  0  0  0  0  0  0  0  0  0  0
    4.5416   -1.3080    0.0000 C   0  0  0  0  0  0  0  0  0  0  0  0
   -4.5966    1.4656    0.0000 C   0  0  3  0  0  0  0  0  0  0  0  0
   -5.3110    1.0531    0.0000 C   0  0  0  0  0  0  0  0  0  0  0  0
    4.1718   -2.6882    0.0000 C   0  0  0  0  0  0  0  0  0  0  0  0
    4.7552   -2.1049    0.0000 C   0  0  0  0  0  0  0  0  0  0  0  0
    2.5506   -0.5604    0.0000 C   0  0  0  0  0  0  0  0  0  0  0  0
    3.2685    0.6832    0.0000 C   0  0  0  0  0  0  0  0  0  0  0  0
    4.5121   -0.0348    0.0000 C   0  0  0  0  0  0  0  0  0  0  0  0
   -6.0255    1.4656    0.0000 C   0  0  0  0  0  0  0  0  0  0  0  0
   -5.3110    0.2276    0.0000 C   0  0  0  0  0  0  0  0  0  0  0  0
   -4.5966    2.2911    0.0000 C   0  0  0  0  0  0  0  0  0  0  0  0
   -6.7400    0.2276    0.0000 C   0  0  0  0  0  0  0  0  0  0  0  0
   -6.7400    1.0531    0.0000 C   0  0  0  0  0  0  0  0  0  0  0  0
   -6.0249   -0.1855    0.0000 C   0  0  0  0  0  0  0  0  0  0  0  0
  1 39  1  0  0  0  0
  2 16  2  0  0  0  0
  3  4  1  0  0  0  0
  3  7  1  0  0  0  0
  3 12  1  0  0  0  0
  4  8  2  0  0  0  0
  5 16  1  0  0  0  0
  5 29  1  0  0  0  0
  6  7  1  0  0  0  0
  6  8  1  0  0  0  0
  6  9  2  0  0  0  0
  7 11  2  0  0  0  0
  8 13  1  0  0  0  0
  9 10  1  0  0  0  0
 10 14  2  0  0  0  0
 10 16  1  0  0  0  0
 11 14  1  0  0  0  0
 12 15  1  0  0  0  0
 13 25  1  0  0  0  0
 13 26  1  0  0  0  0
 15 20  2  0  0  0  0
 15 21  1  0  0  0  0
 17 18  1  0  0  0  0
 17 19  1  0  0  0  0
 17 27  2  0  0  0  0
 18 23  2  0  0  0  0
 18 24  1  0  0  0  0
 19 22  1  0  0  0  0
 19 28  2  0  0  0  0
 20 23  1  0  0  0  0
 21 24  2  0  0  0  0
 22 33  1  0  0  0  0
 22 34  1  0  0  0  0
 22 35  1  0  0  0  0
 27 31  1  0  0  0  0
 28 32  1  0  0  0  0
 29 30  1  0  0  0  0
 29 38  1  6  0  0  0
 30 36  2  0  0  0  0
 30 37  1  0  0  0  0
 31 32  2  0  0  0  0
 36 40  1  0  0  0  0
 37 41  2  0  0  0  0
 39 40  2  0  0  0  0
 39 41  1  0  0  0  0
M  END
> <PUBCHEM_COMPOUND_ID_TYPE>
0

> <PUBCHEM_TOTAL_CHARGE>
0

> <PUBCHEM_SUBSTANCE_ID>
310947361

> <PUBCHEM_SUBSTANCE_VERSION>
1

> <PUBCHEM_EXT_DATASOURCE_NAME>
4488

> <PUBCHEM_EXT_DATASOURCE_REGID>
SCHEMBL16125517

> <PUBCHEM_SUBSTANCE_COMMENT>
InChI=1S/C36H38BrN3O/c1-23(2)34-31-21-28(35(41)38-24(3)26-15-18-29(37)19-16-26)17-20-33(31)40(39-34)22-25-11-13-27(14-12-25)30-9-7-8-10-32(30)36(4,5)6/h7-21,23-24H,22H2,1-6H3,(H,38,41)/t24-/m0/s1
InChIKey=ZNEVLSKFJICCAM-DEOSSOPVSA-N

> <PUBCHEM_SUBSTANCE_SYNONYM>
SCHEMBL16125517

> <PUBCHEM_XREF_EXT_ID>
SCHEMBL16125517

> <PUBCHEM_EXT_DATASOURCE_URL>
https://www.surechembl.org/

> <PUBCHEM_EXT_SUBSTANCE_URL>
https://www.surechembl.org/chemical/SCHEMBL16125517

> <PUBCHEM_CID_ASSOCIATIONS>
117613106  1

> <PUBCHEM_COORDINATE_TYPE>
1
3

> <PUBCHEM_BONDANNOTATIONS>
29  38  6

$$$$
