310931451
  -OEChem-07211613022D

 28 30  0     0  0  0  0  0  0999 V2000
    0.9056   -2.2808    0.0000 O   0  0  0  0  0  0  0  0  0  0  0  0
    0.0000   -5.9703    0.0000 O   0  0  0  0  0  0  0  0  0  0  0  0
    3.4212   -6.2386    0.0000 O   0  0  0  0  0  0  0  0  0  0  0  0
    2.3479   -2.0460    0.0000 N   0  0  0  0  0  0  0  0  0  0  0  0
    2.7503   -3.3205    0.0000 N   0  0  0  0  0  0  0  0  0  0  0  0
    3.7901   -2.2808    0.0000 N   0  0  0  0  0  0  0  0  0  0  0  0
    1.9118   -3.3205    0.0000 C   0  0  0  0  0  0  0  0  0  0  0  0
    1.6770   -2.5155    0.0000 C   0  0  0  0  0  0  0  0  0  0  0  0
    1.4422   -3.9914    0.0000 C   0  0  0  0  0  0  0  0  0  0  0  0
    2.2808   -4.0584    0.0000 C   0  0  0  0  0  0  0  0  0  0  0  0
    2.9851   -2.5155    0.0000 C   0  0  0  0  0  0  0  0  0  0  0  0
    2.3479   -1.2410    0.0000 C   0  0  0  0  0  0  0  0  0  0  0  0
    1.7777   -4.7293    0.0000 C   0  0  0  0  0  0  0  0  0  0  0  0
    3.1193   -4.0920    0.0000 C   0  0  0  0  0  0  0  0  0  0  0  0
    0.6373   -3.8908    0.0000 C   0  0  0  0  0  0  0  0  0  0  0  0
    2.0125   -4.8970    0.0000 C   0  0  0  0  0  0  0  0  0  0  0  0
    1.6100   -0.8385    0.0000 C   0  0  0  0  0  0  0  0  0  0  0  0
    1.3081   -5.4001    0.0000 C   0  0  0  0  0  0  0  0  0  0  0  0
    3.4883   -4.8299    0.0000 C   0  0  0  0  0  0  0  0  0  0  0  0
    0.1342   -4.5616    0.0000 C   0  0  0  0  0  0  0  0  0  0  0  0
    2.2137   -5.4671    0.0000 C   0  0  0  0  0  0  0  0  0  0  0  0
    0.4696   -5.2995    0.0000 C   0  0  0  0  0  0  0  0  0  0  0  0
    3.0522   -5.5007    0.0000 C   0  0  0  0  0  0  0  0  0  0  0  0
    0.9056   -1.2410    0.0000 C   0  0  0  0  0  0  0  0  0  0  0  0
    1.6100    0.0000    0.0000 C   0  0  0  0  0  0  0  0  0  0  0  0
    2.3479   -0.4025    0.0000 C   0  0  0  0  0  0  0  0  0  0  0  0
    0.3354   -6.7082    0.0000 C   0  0  0  0  0  0  0  0  0  0  0  0
    4.2262   -6.2722    0.0000 C   0  0  0  0  0  0  0  0  0  0  0  0
  1  8  2  0  0  0  0
  2 22  1  0  0  0  0
  2 27  1  0  0  0  0
  3 23  1  0  0  0  0
  3 28  1  0  0  0  0
  4  8  1  0  0  0  0
  4 11  1  0  0  0  0
  4 12  1  0  0  0  0
  5  7  1  0  0  0  0
  5 11  1  0  0  0  0
  6 11  2  3  0  0  0
  7  8  1  0  0  0  0
  7  9  1  0  0  0  0
  7 10  1  0  0  0  0
  9 13  2  0  0  0  0
  9 15  1  0  0  0  0
 10 14  2  0  0  0  0
 10 16  1  0  0  0  0
 12 17  1  0  0  0  0
 13 18  1  0  0  0  0
 14 19  1  0  0  0  0
 15 20  2  0  0  0  0
 16 21  2  0  0  0  0
 17 24  1  0  0  0  0
 17 25  1  0  0  0  0
 17 26  1  0  0  0  0
 18 22  2  0  0  0  0
 19 23  2  0  0  0  0
 20 22  1  0  0  0  0
 21 23  1  0  0  0  0
M  END
> <PUBCHEM_COMPOUND_ID_TYPE>
0

> <PUBCHEM_TOTAL_CHARGE>
0

> <PUBCHEM_SUBSTANCE_ID>
310931451

> <PUBCHEM_SUBSTANCE_VERSION>
1

> <PUBCHEM_EXT_DATASOURCE_NAME>
4488

> <PUBCHEM_EXT_DATASOURCE_REGID>
SCHEMBL16108776

> <PUBCHEM_SUBSTANCE_COMMENT>
InChI=1S/C22H27N3O3/c1-21(2,3)14-25-19(26)22(24-20(25)23,15-6-10-17(27-4)11-7-15)16-8-12-18(28-5)13-9-16/h6-13H,14H2,1-5H3,(H2,23,24)
InChIKey=PJKPUVZCRRTLKU-UHFFFAOYSA-N

> <PUBCHEM_SUBSTANCE_SYNONYM>
SCHEMBL16108776

> <PUBCHEM_XREF_EXT_ID>
SCHEMBL16108776

> <PUBCHEM_EXT_DATASOURCE_URL>
https://www.surechembl.org/

> <PUBCHEM_EXT_SUBSTANCE_URL>
https://www.surechembl.org/chemical/SCHEMBL16108776

> <PUBCHEM_CID_ASSOCIATIONS>
86275044  1

> <PUBCHEM_COORDINATE_TYPE>
1
3

$$$$
