310942053
  -OEChem-07211613022D

 30 31  0     0  0  0  0  0  0999 V2000
   -2.1574   -1.5179    0.0000 O   0  0  0  0  0  0  0  0  0  0  0  0
   -1.4411    2.2001    0.0000 O   0  0  0  0  0  0  0  0  0  0  0  0
   -0.7248    0.9551    0.0000 O   0  0  0  0  0  0  0  0  0  0  0  0
   -0.0085   -0.2728    0.0000 O   0  0  0  0  0  0  0  0  0  0  0  0
    4.2723   -1.1256    0.0000 O   0  0  0  0  0  0  0  0  0  0  0  0
   -3.5730    0.9721    0.0000 N   0  0  0  0  0  0  0  0  0  0  0  0
   -1.4411   -0.2899    0.0000 N   0  0  0  0  0  0  0  0  0  0  0  0
    0.7078   -1.5179    0.0000 N   0  0  0  0  0  0  0  0  0  0  0  0
    3.5559   -1.5179    0.0000 N   0  0  0  0  0  0  0  0  0  0  0  0
   -2.8567   -0.2558    0.0000 C   0  0  0  0  0  0  0  0  0  0  0  0
   -2.1574    0.1706    0.0000 C   0  0  0  0  0  0  0  0  0  0  0  0
   -3.5900    0.1535    0.0000 C   0  0  0  0  0  0  0  0  0  0  0  0
   -2.1403    0.9892    0.0000 C   0  0  0  0  0  0  0  0  0  0  0  0
   -2.8908   -1.0745    0.0000 C   0  0  0  0  0  0  0  0  0  0  0  0
   -2.8908    1.3985    0.0000 C   0  0  0  0  0  0  0  0  0  0  0  0
   -4.2723   -0.2388    0.0000 C   0  0  0  0  0  0  0  0  0  0  0  0
   -1.4411    1.3814    0.0000 C   0  0  0  0  0  0  0  0  0  0  0  0
   -3.5730   -1.4838    0.0000 C   0  0  0  0  0  0  0  0  0  0  0  0
   -0.7418   -1.5009    0.0000 C   0  0  0  0  0  0  0  0  0  0  0  0
   -4.2723   -1.0745    0.0000 C   0  0  0  0  0  0  0  0  0  0  0  0
   -1.4411   -1.0915    0.0000 C   0  0  0  0  0  0  0  0  0  0  0  0
   -0.0256   -1.0915    0.0000 C   0  0  0  0  0  0  0  0  0  0  0  0
   -2.8567    2.2342    0.0000 C   0  0  0  0  0  0  0  0  0  0  0  0
   -1.1342   -2.2342    0.0000 C   0  0  0  0  0  0  0  0  0  0  0  0
   -0.2984   -2.2342    0.0000 C   0  0  0  0  0  0  0  0  0  0  0  0
    2.1233   -1.5009    0.0000 C   0  0  0  0  0  0  0  0  0  0  0  0
    1.3900   -1.0915    0.0000 C   0  0  0  0  0  0  0  0  0  0  0  0
    2.8226   -1.0745    0.0000 C   0  0  0  0  0  0  0  0  0  0  0  0
    1.6969   -2.2171    0.0000 C   0  0  0  0  0  0  0  0  0  0  0  0
    2.5497   -2.2171    0.0000 C   0  0  0  0  0  0  0  0  0  0  0  0
  1 14  1  0  0  0  0
  1 21  1  0  0  0  0
  2 17  2  0  0  0  0
  3 17  1  0  0  0  0
  4 22  2  0  0  0  0
  5  9  2  0  0  0  0
  6 12  1  0  0  0  0
  6 15  2  0  0  0  0
  7 11  1  0  0  0  0
  8 22  1  0  0  0  0
  8 27  1  0  0  0  0
  9 28  1  0  0  0  0
 10 11  1  0  0  0  0
 10 12  1  0  0  0  0
 10 14  2  0  0  0  0
 11 13  2  0  0  0  0
 12 16  2  0  0  0  0
 13 15  1  0  0  0  0
 13 17  1  0  0  0  0
 14 18  1  0  0  0  0
 15 23  1  0  0  0  0
 16 20  1  0  0  0  0
 18 20  2  0  0  0  0
 19 21  1  0  0  0  0
 19 22  1  0  0  0  0
 19 24  1  0  0  0  0
 19 25  1  0  0  0  0
 26 27  1  0  0  0  0
 26 28  1  0  0  0  0
 26 29  1  0  0  0  0
 26 30  1  0  0  0  0
M  END
> <PUBCHEM_COMPOUND_ID_TYPE>
0

> <PUBCHEM_TOTAL_CHARGE>
0

> <PUBCHEM_SUBSTANCE_ID>
310942053

> <PUBCHEM_SUBSTANCE_VERSION>
1

> <PUBCHEM_EXT_DATASOURCE_NAME>
4488

> <PUBCHEM_EXT_DATASOURCE_REGID>
SCHEMBL16120088

> <PUBCHEM_SUBSTANCE_COMMENT>
InChI=1S/C21H28N4O5/c1-12-15(18(26)27)17(22)16-13(25-12)7-6-8-14(16)30-11-21(4,5)19(28)23-9-20(2,3)10-24-29/h6-8H,9-11H2,1-5H3,(H2,22,25)(H,23,28)(H,26,27)
InChIKey=GNFQYQMYSRTGTG-UHFFFAOYSA-N

> <PUBCHEM_SUBSTANCE_SYNONYM>
SCHEMBL16120088

> <PUBCHEM_XREF_EXT_ID>
SCHEMBL16120088

> <PUBCHEM_EXT_DATASOURCE_URL>
https://www.surechembl.org/

> <PUBCHEM_EXT_SUBSTANCE_URL>
https://www.surechembl.org/chemical/SCHEMBL16120088

> <PUBCHEM_CID_ASSOCIATIONS>
117608731  1

> <PUBCHEM_COORDINATE_TYPE>
1
3

$$$$
