310942117
  -OEChem-07211613022D

 31 32  0     1  0  0  0  0  0999 V2000
    2.5124    0.4063    0.0000 Cl  0  0  0  0  0  0  0  0  0  0  0  0
    1.0624   -2.0936    0.0000 F   0  0  0  0  0  0  0  0  0  0  0  0
    2.4999   -1.2561    0.0000 O   0  0  0  0  0  0  0  0  0  0  0  0
    0.3375    1.6562    0.0000 O   0  0  0  0  0  0  0  0  0  0  0  0
   -2.5499    2.4936    0.0000 O   0  0  0  0  0  0  0  0  0  0  0  0
   -1.0875   -0.8437    0.0000 N   0  0  0  0  0  0  0  0  0  0  0  0
   -1.0999    1.6562    0.0000 N   0  0  0  0  0  0  0  0  0  0  0  0
   -3.2498    1.2437    0.0000 N   0  0  0  0  0  0  0  0  0  0  0  0
    0.3375   -0.8312    0.0000 C   0  0  0  0  0  0  0  0  0  0  0  0
    1.0624   -1.2437    0.0000 C   0  0  0  0  0  0  0  0  0  0  0  0
    1.7749   -0.8312    0.0000 C   0  0  0  0  0  0  0  0  0  0  0  0
    1.7874    0.0062    0.0000 C   0  0  0  0  0  0  0  0  0  0  0  0
   -0.3625   -1.2437    0.0000 C   0  0  3  0  0  0  0  0  0  0  0  0
    0.3625   -0.0062    0.0000 C   0  0  0  0  0  0  0  0  0  0  0  0
    1.0750    0.4063    0.0000 C   0  0  0  0  0  0  0  0  0  0  0  0
    3.2249   -0.8312    0.0000 C   0  0  0  0  0  0  0  0  0  0  0  0
   -0.3750   -2.0936    0.0000 C   0  0  0  0  0  0  0  0  0  0  0  0
   -1.0875    0.0062    0.0000 C   0  0  3  0  0  0  0  0  0  0  0  0
    3.2498   -0.0062    0.0000 C   0  0  0  0  0  0  0  0  0  0  0  0
    3.9623   -1.2437    0.0000 C   0  0  0  0  0  0  0  0  0  0  0  0
   -0.3750    0.4063    0.0000 C   0  0  0  0  0  0  0  0  0  0  0  0
    3.9623    0.4063    0.0000 C   0  0  0  0  0  0  0  0  0  0  0  0
    4.6747   -0.8312    0.0000 C   0  0  0  0  0  0  0  0  0  0  0  0
   -0.3875    1.2437    0.0000 C   0  0  0  0  0  0  0  0  0  0  0  0
   -1.0875   -2.4936    0.0000 C   0  0  0  0  0  0  0  0  0  0  0  0
   -1.8124    0.4063    0.0000 C   0  0  0  0  0  0  0  0  0  0  0  0
    4.6747   -0.0062    0.0000 C   0  0  0  0  0  0  0  0  0  0  0  0
   -1.8124    1.2437    0.0000 C   0  0  0  0  0  0  0  0  0  0  0  0
   -2.5499    1.6437    0.0000 C   0  0  0  0  0  0  0  0  0  0  0  0
   -3.9873    1.6562    0.0000 C   0  0  0  0  0  0  0  0  0  0  0  0
   -4.6747    1.2437    0.0000 C   0  0  0  0  0  0  0  0  0  0  0  0
  1 12  1  0  0  0  0
  2 10  1  0  0  0  0
  3 11  1  0  0  0  0
  3 16  1  0  0  0  0
  4 24  2  0  0  0  0
  5 29  2  0  0  0  0
 13  6  1  1  0  0  0
  6 18  1  0  0  0  0
  7 24  1  0  0  0  0
  7 28  1  0  0  0  0
  8 29  1  0  0  0  0
  8 30  1  0  0  0  0
  9 10  2  0  0  0  0
  9 13  1  0  0  0  0
  9 14  1  0  0  0  0
 10 11  1  0  0  0  0
 11 12  2  0  0  0  0
 12 15  1  0  0  0  0
 13 17  1  0  0  0  0
 14 15  2  0  0  0  0
 16 19  2  0  0  0  0
 16 20  1  0  0  0  0
 17 25  1  0  0  0  0
 18 21  1  0  0  0  0
 18 26  1  1  0  0  0
 19 22  1  0  0  0  0
 20 23  2  0  0  0  0
 21 24  1  0  0  0  0
 22 27  2  0  0  0  0
 23 27  1  0  0  0  0
 28 29  1  0  0  0  0
 30 31  1  0  0  0  0
M  END
> <PUBCHEM_COMPOUND_ID_TYPE>
0

> <PUBCHEM_TOTAL_CHARGE>
0

> <PUBCHEM_SUBSTANCE_ID>
310942117

> <PUBCHEM_SUBSTANCE_VERSION>
1

> <PUBCHEM_EXT_DATASOURCE_NAME>
4488

> <PUBCHEM_EXT_DATASOURCE_REGID>
SCHEMBL16120152

> <PUBCHEM_SUBSTANCE_COMMENT>
InChI=1S/C23H29ClFN3O3/c1-4-19(28-15(3)13-20(29)27-14-21(30)26-5-2)17-11-12-18(24)23(22(17)25)31-16-9-7-6-8-10-16/h6-12,15,19,28H,4-5,13-14H2,1-3H3,(H,26,30)(H,27,29)/t15-,19+/m0/s1
InChIKey=HGTPQEXEEYNHNN-HNAYVOBHSA-N

> <PUBCHEM_SUBSTANCE_SYNONYM>
SCHEMBL16120152

> <PUBCHEM_XREF_EXT_ID>
SCHEMBL16120152

> <PUBCHEM_EXT_DATASOURCE_URL>
https://www.surechembl.org/

> <PUBCHEM_EXT_SUBSTANCE_URL>
https://www.surechembl.org/chemical/SCHEMBL16120152

> <PUBCHEM_CID_ASSOCIATIONS>
117608777  1

> <PUBCHEM_COORDINATE_TYPE>
1
3

> <PUBCHEM_BONDANNOTATIONS>
18  26  5
13  6  5

$$$$
