310942772
  -OEChem-07211613022D

 42 47  0     1  0  0  0  0  0999 V2000
    1.7997    1.0560    0.0000 O   0  0  0  0  0  0  0  0  0  0  0  0
    2.3054   -1.0709    0.0000 O   0  0  0  0  0  0  0  0  0  0  0  0
    1.0709   -1.0114    0.0000 O   0  0  0  0  0  0  0  0  0  0  0  0
    3.1680    0.7288    0.0000 N   0  0  0  0  0  0  0  0  0  0  0  0
    3.8671   -0.6247    0.0000 N   0  0  0  0  0  0  0  0  0  0  0  0
   -0.3272    0.6247    0.0000 N   0  0  3  0  0  0  0  0  0  0  0  0
    5.2651   -0.5206    0.0000 N   0  0  0  0  0  0  0  0  0  0  0  0
    5.8899    0.7734    0.0000 N   0  0  0  0  0  0  0  0  0  0  0  0
   -2.6326   -0.9222    0.0000 N   0  0  0  0  0  0  0  0  0  0  0  0
   -3.3019   -2.0823    0.0000 N   0  0  0  0  0  0  0  0  0  0  0  0
    2.3946    0.5206    0.0000 C   0  0  3  0  0  0  0  0  0  0  0  0
    3.8225    0.2231    0.0000 C   0  0  0  0  0  0  0  0  0  0  0  0
    4.4769    0.6693    0.0000 C   0  0  0  0  0  0  0  0  0  0  0  0
    2.0823   -0.2528    0.0000 C   0  0  3  0  0  0  0  0  0  0  0  0
    4.2686    1.4576    0.0000 C   0  0  0  0  0  0  0  0  0  0  0  0
    1.1006    0.6396    0.0000 C   0  0  3  0  0  0  0  0  0  0  0  0
    1.2643   -0.1785    0.0000 C   0  0  3  0  0  0  0  0  0  0  0  0
    3.4655    1.5022    0.0000 C   0  0  0  0  0  0  0  0  0  0  0  0
    5.2205    0.2974    0.0000 C   0  0  0  0  0  0  0  0  0  0  0  0
    0.3718    1.0263    0.0000 C   0  0  0  0  0  0  0  0  0  0  0  0
   -0.5206   -0.1933    0.0000 C   0  0  0  0  0  0  0  0  0  0  0  0
    4.5810   -0.9817    0.0000 C   0  0  0  0  0  0  0  0  0  0  0  0
    4.7892    2.1269    0.0000 C   0  0  0  0  0  0  0  0  0  0  0  0
   -0.8032   -1.2940    0.0000 C   0  0  0  0  0  0  0  0  0  0  0  0
   -1.1899   -0.5950    0.0000 C   0  0  0  0  0  0  0  0  0  0  0  0
   -0.1190   -0.9222    0.0000 C   0  0  0  0  0  0  0  0  0  0  0  0
   -1.0114    1.0263    0.0000 C   0  0  0  0  0  0  0  0  0  0  0  0
   -3.4358   -0.7288    0.0000 C   0  0  0  0  0  0  0  0  0  0  0  0
   -3.8522   -1.4576    0.0000 C   0  0  0  0  0  0  0  0  0  0  0  0
   -2.5434   -1.7253    0.0000 C   0  0  0  0  0  0  0  0  0  0  0  0
   -4.6851   -0.0148    0.0000 C   0  0  0  0  0  0  0  0  0  0  0  0
   -3.8671   -0.0298    0.0000 C   0  0  0  0  0  0  0  0  0  0  0  0
   -1.0114   -2.1269    0.0000 C   0  0  0  0  0  0  0  0  0  0  0  0
   -5.1016    0.7139    0.0000 C   0  0  0  0  0  0  0  0  0  0  0  0
   -1.8443   -2.1269    0.0000 C   0  0  0  0  0  0  0  0  0  0  0  0
   -4.6553   -1.4576    0.0000 C   0  0  0  0  0  0  0  0  0  0  0  0
   -5.0569   -0.7734    0.0000 C   0  0  0  0  0  0  0  0  0  0  0  0
   -1.0263    1.8591    0.0000 C   0  0  0  0  0  0  0  0  0  0  0  0
   -1.7253    0.6098    0.0000 C   0  0  0  0  0  0  0  0  0  0  0  0
   -5.8899    0.6544    0.0000 C   0  0  0  0  0  0  0  0  0  0  0  0
   -5.5031    1.4130    0.0000 C   0  0  0  0  0  0  0  0  0  0  0  0
   -4.6851    1.4278    0.0000 C   0  0  0  0  0  0  0  0  0  0  0  0
 11  1  1  1  0  0  0
  1 16  1  0  0  0  0
 14  2  1  6  0  0  0
 17  3  1  6  0  0  0
  4 11  1  0  0  0  0
  4 12  1  0  0  0  0
  4 18  1  0  0  0  0
  5 12  1  0  0  0  0
  5 22  2  0  0  0  0
  6 20  1  0  0  0  0
 21  6  1  1  0  0  0
  6 27  1  0  0  0  0
  7 19  2  0  0  0  0
  7 22  1  0  0  0  0
  8 19  1  0  0  0  0
  9 28  1  0  0  0  0
  9 30  2  0  0  0  0
 10 29  1  0  0  0  0
 10 30  1  0  0  0  0
 11 14  1  0  0  0  0
 12 13  2  0  0  0  0
 13 15  1  0  0  0  0
 13 19  1  0  0  0  0
 14 17  1  0  0  0  0
 15 18  2  0  0  0  0
 15 23  1  0  0  0  0
 16 17  1  0  0  0  0
 16 20  1  1  0  0  0
 21 25  1  0  0  0  0
 21 26  1  0  0  0  0
 24 25  1  0  0  0  0
 24 26  1  0  0  0  0
 24 33  1  1  0  0  0
 27 38  1  0  0  0  0
 27 39  1  0  0  0  0
 28 29  2  0  0  0  0
 28 32  1  0  0  0  0
 29 36  1  0  0  0  0
 30 35  1  0  0  0  0
 31 32  2  0  0  0  0
 31 34  1  0  0  0  0
 31 37  1  0  0  0  0
 33 35  1  0  0  0  0
 34 40  1  0  0  0  0
 34 41  1  0  0  0  0
 34 42  1  0  0  0  0
 36 37  2  0  0  0  0
M  END
> <PUBCHEM_COMPOUND_ID_TYPE>
0

> <PUBCHEM_TOTAL_CHARGE>
0

> <PUBCHEM_SUBSTANCE_ID>
310942772

> <PUBCHEM_SUBSTANCE_VERSION>
1

> <PUBCHEM_EXT_DATASOURCE_NAME>
4488

> <PUBCHEM_EXT_DATASOURCE_REGID>
SCHEMBL16120825

> <PUBCHEM_SUBSTANCE_COMMENT>
InChI=1S/C32H45N7O3/c1-17(2)38(15-24-27(40)28(41)31(42-24)39-14-18(3)26-29(33)34-16-35-30(26)39)21-11-19(12-21)7-10-25-36-22-9-8-20(32(4,5)6)13-23(22)37-25/h8-9,13-14,16-17,19,21,24,27-28,31,40-41H,7,10-12,15H2,1-6H3,(H,36,37)(H2,33,34,35)/t19-,21+,24-,27-,28-,31-/m1/s1
InChIKey=MTTOUFWIXUQGDN-PTCVGUSLSA-N

> <PUBCHEM_SUBSTANCE_SYNONYM>
SCHEMBL16120825

> <PUBCHEM_XREF_EXT_ID>
SCHEMBL16120825

> <PUBCHEM_EXT_DATASOURCE_URL>
https://www.surechembl.org/

> <PUBCHEM_EXT_SUBSTANCE_URL>
https://www.surechembl.org/chemical/SCHEMBL16120825

> <PUBCHEM_CID_ASSOCIATIONS>
86274955  1

> <PUBCHEM_COORDINATE_TYPE>
1
3

> <PUBCHEM_BONDANNOTATIONS>
11  1  5
16  20  5
14  2  6
24  33  5
17  3  6
21  6  5

$$$$
