310942413
  -OEChem-07211613022D

 36 37  0     0  0  0  0  0  0999 V2000
    7.9052    0.2546    0.0000 S   0  0  0  0  0  0  0  0  0  0  0  0
    4.2414   -0.8384    0.0000 O   0  0  0  0  0  0  0  0  0  0  0  0
    2.0927    1.2357    0.0000 O   0  0  0  0  0  0  0  0  0  0  0  0
   -1.4966   -0.0062    0.0000 O   0  0  0  0  0  0  0  0  0  0  0  0
   -3.6452    0.4036    0.0000 O   0  0  0  0  0  0  0  0  0  0  0  0
   -5.7938   -0.0062    0.0000 O   0  0  0  0  0  0  0  0  0  0  0  0
   -9.3831    1.2357    0.0000 O   0  0  0  0  0  0  0  0  0  0  0  0
    7.9176   -1.0867    0.0000 N   0  0  0  0  0  0  0  0  0  0  0  0
    4.9741    0.4036    0.0000 N   0  0  0  0  0  0  0  0  0  0  0  0
   10.0538   -0.4160    0.0000 N   0  0  0  0  0  0  0  0  0  0  0  0
    1.3973   -0.0062    0.0000 N   0  0  0  0  0  0  0  0  0  0  0  0
   -8.6504   -0.0062    0.0000 N   0  0  0  0  0  0  0  0  0  0  0  0
    7.1352    0.0062    0.0000 C   0  0  0  0  0  0  0  0  0  0  0  0
    7.1103   -0.8259    0.0000 C   0  0  0  0  0  0  0  0  0  0  0  0
    8.3896   -0.4160    0.0000 C   0  0  0  0  0  0  0  0  0  0  0  0
    6.4148    0.4036    0.0000 C   0  0  0  0  0  0  0  0  0  0  0  0
    5.6944   -0.0062    0.0000 C   0  0  0  0  0  0  0  0  0  0  0  0
    6.4148   -1.2357    0.0000 C   0  0  0  0  0  0  0  0  0  0  0  0
    5.6944   -0.8259    0.0000 C   0  0  0  0  0  0  0  0  0  0  0  0
    9.2341   -0.4285    0.0000 C   0  0  0  0  0  0  0  0  0  0  0  0
    4.2538    0.0186    0.0000 C   0  0  0  0  0  0  0  0  0  0  0  0
    3.5334    0.4036    0.0000 C   0  0  0  0  0  0  0  0  0  0  0  0
    2.8255   -0.0062    0.0000 C   0  0  0  0  0  0  0  0  0  0  0  0
    2.0927    0.4036    0.0000 C   0  0  0  0  0  0  0  0  0  0  0  0
    0.6644    0.4036    0.0000 C   0  0  0  0  0  0  0  0  0  0  0  0
   -0.0435   -0.0062    0.0000 C   0  0  0  0  0  0  0  0  0  0  0  0
   -0.7762    0.4036    0.0000 C   0  0  0  0  0  0  0  0  0  0  0  0
   -2.2045    0.4036    0.0000 C   0  0  0  0  0  0  0  0  0  0  0  0
   -2.9124   -0.0062    0.0000 C   0  0  0  0  0  0  0  0  0  0  0  0
   -4.3407   -0.0062    0.0000 C   0  0  0  0  0  0  0  0  0  0  0  0
   -5.0735    0.4036    0.0000 C   0  0  0  0  0  0  0  0  0  0  0  0
   -6.5142    0.4036    0.0000 C   0  0  0  0  0  0  0  0  0  0  0  0
   -7.2096   -0.0062    0.0000 C   0  0  0  0  0  0  0  0  0  0  0  0
   -7.9425    0.4036    0.0000 C   0  0  0  0  0  0  0  0  0  0  0  0
   -9.3831    0.4036    0.0000 C   0  0  0  0  0  0  0  0  0  0  0  0
  -10.0538    0.0062    0.0000 C   0  0  0  0  0  0  0  0  0  0  0  0
  1 13  1  0  0  0  0
  1 15  1  0  0  0  0
  2 21  2  0  0  0  0
  3 24  2  0  0  0  0
  4 27  1  0  0  0  0
  4 28  1  0  0  0  0
  5 29  1  0  0  0  0
  5 30  1  0  0  0  0
  6 31  1  0  0  0  0
  6 32  1  0  0  0  0
  7 35  2  0  0  0  0
  8 14  1  0  0  0  0
  8 15  2  0  0  0  0
  9 17  1  0  0  0  0
  9 21  1  0  0  0  0
 10 20  3  0  0  0  0
 11 24  1  0  0  0  0
 11 25  1  0  0  0  0
 12 34  1  0  0  0  0
 12 35  1  0  0  0  0
 13 14  1  0  0  0  0
 13 16  2  0  0  0  0
 14 18  2  0  0  0  0
 15 20  1  0  0  0  0
 16 17  1  0  0  0  0
 17 19  2  0  0  0  0
 18 19  1  0  0  0  0
 21 22  1  0  0  0  0
 22 23  1  0  0  0  0
 23 24  1  0  0  0  0
 25 26  1  0  0  0  0
 26 27  1  0  0  0  0
 28 29  1  0  0  0  0
 30 31  1  0  0  0  0
 32 33  1  0  0  0  0
 33 34  1  0  0  0  0
 35 36  1  0  0  0  0
M  END
> <PUBCHEM_COMPOUND_ID_TYPE>
0

> <PUBCHEM_TOTAL_CHARGE>
0

> <PUBCHEM_SUBSTANCE_ID>
310942413

> <PUBCHEM_SUBSTANCE_VERSION>
1

> <PUBCHEM_EXT_DATASOURCE_NAME>
4488

> <PUBCHEM_EXT_DATASOURCE_REGID>
SCHEMBL16120449

> <PUBCHEM_SUBSTANCE_COMMENT>
InChI=1S/C24H33N5O6S/c1-18(30)26-8-2-10-33-12-14-35-15-13-34-11-3-9-27-22(31)6-7-23(32)28-19-4-5-20-21(16-19)36-24(17-25)29-20/h4-5,16H,2-3,6-15H2,1H3,(H,26,30)(H,27,31)(H,28,32)
InChIKey=NGTCLOVJQDUAOL-UHFFFAOYSA-N

> <PUBCHEM_SUBSTANCE_SYNONYM>
SCHEMBL16120449

> <PUBCHEM_XREF_EXT_ID>
SCHEMBL16120449

> <PUBCHEM_EXT_DATASOURCE_URL>
https://www.surechembl.org/

> <PUBCHEM_EXT_SUBSTANCE_URL>
https://www.surechembl.org/chemical/SCHEMBL16120449

> <PUBCHEM_CID_ASSOCIATIONS>
117609015  1

> <PUBCHEM_COORDINATE_TYPE>
1
3

$$$$
