310930442
  -OEChem-07211613022D

 31 34  0     0  0  0  0  0  0999 V2000
    4.9821   -3.5724    0.0000 S   0  0  0  0  0  0  0  0  0  0  0  0
    0.7846    0.6674    0.0000 S   0  0  0  0  0  0  0  0  0  0  0  0
    4.9821   -6.4302    0.0000 F   0  0  0  0  0  0  0  0  0  0  0  0
    4.2675   -3.9849    0.0000 O   0  0  0  0  0  0  0  0  0  0  0  0
    5.6965   -3.1599    0.0000 O   0  0  0  0  0  0  0  0  0  0  0  0
    4.1571   -5.0013    0.0000 O   0  0  0  0  0  0  0  0  0  0  0  0
    2.5071    0.7145    0.0000 O   0  0  0  0  0  0  0  0  0  0  0  0
    2.5071   -0.7145    0.0000 N   0  0  0  0  0  0  0  0  0  0  0  0
   -1.4290    0.4125    0.0000 N   0  0  0  0  0  0  0  0  0  0  0  0
    5.3946   -4.2868    0.0000 C   0  0  0  0  0  0  0  0  0  0  0  0
    4.5696   -2.8579    0.0000 C   0  0  0  0  0  0  0  0  0  0  0  0
    4.9821   -5.0013    0.0000 C   0  0  0  0  0  0  0  0  0  0  0  0
    5.3946   -5.7158    0.0000 C   0  0  0  0  0  0  0  0  0  0  0  0
    6.2196   -4.2868    0.0000 C   0  0  0  0  0  0  0  0  0  0  0  0
    1.2696    0.0000    0.0000 C   0  0  0  0  0  0  0  0  0  0  0  0
    0.0000    0.4125    0.0000 C   0  0  0  0  0  0  0  0  0  0  0  0
    0.0000   -0.4125    0.0000 C   0  0  0  0  0  0  0  0  0  0  0  0
    3.7446   -2.8579    0.0000 C   0  0  0  0  0  0  0  0  0  0  0  0
    4.9821   -2.1434    0.0000 C   0  0  0  0  0  0  0  0  0  0  0  0
    3.7446   -1.4290    0.0000 C   0  0  0  0  0  0  0  0  0  0  0  0
    0.7846   -0.6674    0.0000 C   0  0  0  0  0  0  0  0  0  0  0  0
    6.2196   -5.7158    0.0000 C   0  0  0  0  0  0  0  0  0  0  0  0
    2.0946    0.0000    0.0000 C   0  0  0  0  0  0  0  0  0  0  0  0
    6.6321   -5.0013    0.0000 C   0  0  0  0  0  0  0  0  0  0  0  0
    3.3321   -2.1434    0.0000 C   0  0  0  0  0  0  0  0  0  0  0  0
    4.5696   -1.4290    0.0000 C   0  0  0  0  0  0  0  0  0  0  0  0
   -0.7145    0.8250    0.0000 C   0  0  0  0  0  0  0  0  0  0  0  0
   -0.7145   -0.8250    0.0000 C   0  0  0  0  0  0  0  0  0  0  0  0
    3.3321   -0.7145    0.0000 C   0  0  0  0  0  0  0  0  0  0  0  0
   -1.4290   -0.4125    0.0000 C   0  0  0  0  0  0  0  0  0  0  0  0
    3.7446   -5.7158    0.0000 C   0  0  0  0  0  0  0  0  0  0  0  0
  1  4  2  0  0  0  0
  1  5  2  0  0  0  0
  1 10  1  0  0  0  0
  1 11  1  0  0  0  0
  2 15  1  0  0  0  0
  2 16  1  0  0  0  0
  3 13  1  0  0  0  0
  6 12  1  0  0  0  0
  6 31  1  0  0  0  0
  7 23  2  0  0  0  0
  8 23  1  0  0  0  0
  8 29  1  0  0  0  0
  9 27  2  0  0  0  0
  9 30  1  0  0  0  0
 10 12  1  0  0  0  0
 10 14  2  0  0  0  0
 11 18  2  0  0  0  0
 11 19  1  0  0  0  0
 12 13  2  0  0  0  0
 13 22  1  0  0  0  0
 14 24  1  0  0  0  0
 15 21  2  0  0  0  0
 15 23  1  0  0  0  0
 16 17  2  0  0  0  0
 16 27  1  0  0  0  0
 17 21  1  0  0  0  0
 17 28  1  0  0  0  0
 18 25  1  0  0  0  0
 19 26  2  0  0  0  0
 20 25  2  0  0  0  0
 20 26  1  0  0  0  0
 20 29  1  0  0  0  0
 22 24  2  0  0  0  0
 28 30  2  0  0  0  0
M  END
> <PUBCHEM_COMPOUND_ID_TYPE>
0

> <PUBCHEM_TOTAL_CHARGE>
0

> <PUBCHEM_SUBSTANCE_ID>
310930442

> <PUBCHEM_SUBSTANCE_VERSION>
1

> <PUBCHEM_EXT_DATASOURCE_NAME>
4488

> <PUBCHEM_EXT_DATASOURCE_REGID>
SCHEMBL16107732

> <PUBCHEM_SUBSTANCE_COMMENT>
InChI=1S/C22H17FN2O4S2/c1-29-21-17(23)3-2-4-20(21)31(27,28)16-7-5-14(6-8-16)12-25-22(26)18-11-15-9-10-24-13-19(15)30-18/h2-11,13H,12H2,1H3,(H,25,26)
InChIKey=HAOFQVOCVBSGGX-UHFFFAOYSA-N

> <PUBCHEM_SUBSTANCE_SYNONYM>
SCHEMBL16107732

> <PUBCHEM_XREF_EXT_ID>
SCHEMBL16107732

> <PUBCHEM_EXT_DATASOURCE_URL>
https://www.surechembl.org/

> <PUBCHEM_EXT_SUBSTANCE_URL>
https://www.surechembl.org/chemical/SCHEMBL16107732

> <PUBCHEM_CID_ASSOCIATIONS>
90011924  1

> <PUBCHEM_COORDINATE_TYPE>
1
3

$$$$
