310947426
  -OEChem-07211613022D

 23 24  0     0  0  0  0  0  0999 V2000
   -0.3952   15.4385    0.0000 O   0  0  0  0  0  0  0  0  0  0  0  0
   -2.5386   15.8510    0.0000 O   0  0  0  0  0  0  0  0  0  0  0  0
    1.7482   10.9010    0.0000 O   0  0  0  0  0  0  0  0  0  0  0  0
   -1.1097   14.2010    0.0000 N   0  0  0  0  0  0  0  0  0  0  0  0
    1.7482   11.7260    0.0000 N   0  0  0  0  0  0  0  0  0  0  0  0
   -0.3952   14.6135    0.0000 C   0  0  0  0  0  0  0  0  0  0  0  0
    0.3193   14.2010    0.0000 C   0  0  0  0  0  0  0  0  0  0  0  0
   -1.1097   13.3760    0.0000 C   0  0  0  0  0  0  0  0  0  0  0  0
    1.0338   14.6135    0.0000 C   0  0  0  0  0  0  0  0  0  0  0  0
    0.3193   13.3760    0.0000 C   0  0  0  0  0  0  0  0  0  0  0  0
    1.7482   13.3760    0.0000 C   0  0  0  0  0  0  0  0  0  0  0  0
   -1.8241   14.6135    0.0000 C   0  0  0  0  0  0  0  0  0  0  0  0
    1.7482   14.2010    0.0000 C   0  0  0  0  0  0  0  0  0  0  0  0
    1.0338   12.9635    0.0000 C   0  0  0  0  0  0  0  0  0  0  0  0
   -1.8241   12.9635    0.0000 C   0  0  0  0  0  0  0  0  0  0  0  0
   -0.3952   12.9635    0.0000 C   0  0  0  0  0  0  0  0  0  0  0  0
    2.4627   12.9635    0.0000 C   0  0  0  0  0  0  0  0  0  0  0  0
   -1.8241   12.1385    0.0000 C   0  0  0  0  0  0  0  0  0  0  0  0
   -0.3952   12.1385    0.0000 C   0  0  0  0  0  0  0  0  0  0  0  0
   -1.8241   15.4385    0.0000 C   0  0  0  0  0  0  0  0  0  0  0  0
   -1.1097   11.7260    0.0000 C   0  0  0  0  0  0  0  0  0  0  0  0
    2.4627   12.1385    0.0000 C   0  0  0  0  0  0  0  0  0  0  0  0
    3.1772   11.7260    0.0000 C   0  0  0  0  0  0  0  0  0  0  0  0
  1  6  2  0  0  0  0
  2 20  1  0  0  0  0
  3  5  1  0  0  0  0
  4  6  1  0  0  0  0
  4  8  1  0  0  0  0
  4 12  1  0  0  0  0
  5 22  1  0  0  0  0
  6  7  1  0  0  0  0
  7  9  2  0  0  0  0
  7 10  1  0  0  0  0
  8 15  2  0  0  0  0
  8 16  1  0  0  0  0
  9 13  1  0  0  0  0
 10 14  2  0  0  0  0
 11 13  2  0  0  0  0
 11 14  1  0  0  0  0
 11 17  1  0  0  0  0
 12 20  1  0  0  0  0
 15 18  1  0  0  0  0
 16 19  2  0  0  0  0
 17 22  1  0  0  0  0
 18 21  2  0  0  0  0
 19 21  1  0  0  0  0
 22 23  2  0  0  0  0
M  END
> <PUBCHEM_COMPOUND_ID_TYPE>
0

> <PUBCHEM_TOTAL_CHARGE>
0

> <PUBCHEM_SUBSTANCE_ID>
310947426

> <PUBCHEM_SUBSTANCE_VERSION>
1

> <PUBCHEM_EXT_DATASOURCE_NAME>
4488

> <PUBCHEM_EXT_DATASOURCE_REGID>
SCHEMBL16125587

> <PUBCHEM_SUBSTANCE_COMMENT>
InChI=1S/C18H20N2O3/c1-14(19-23)13-15-7-9-16(10-8-15)18(22)20(11-12-21)17-5-3-2-4-6-17/h2-10,19,21,23H,1,11-13H2
InChIKey=FXEWTKZNMSLHLF-UHFFFAOYSA-N

> <PUBCHEM_SUBSTANCE_SYNONYM>
SCHEMBL16125587

> <PUBCHEM_XREF_EXT_ID>
SCHEMBL16125587

> <PUBCHEM_EXT_DATASOURCE_URL>
https://www.surechembl.org/

> <PUBCHEM_EXT_SUBSTANCE_URL>
https://www.surechembl.org/chemical/SCHEMBL16125587

> <PUBCHEM_CID_ASSOCIATIONS>
117613158  1

> <PUBCHEM_COORDINATE_TYPE>
1
3

$$$$
