310936241
  -OEChem-07211613022D

 36 39  0     0  0  0  0  0  0999 V2000
   11.7330   -1.6426    0.0000 F   0  0  0  0  0  0  0  0  0  0  0  0
    7.9393   -1.0168    0.0000 O   0  0  0  0  0  0  0  0  0  0  0  0
    5.0452   -2.5031    0.0000 O   0  0  0  0  0  0  0  0  0  0  0  0
    7.6656   -3.7155    0.0000 O   0  0  0  0  0  0  0  0  0  0  0  0
    2.8550   -1.2515    0.0000 O   0  0  0  0  0  0  0  0  0  0  0  0
    2.1511    0.0000    0.0000 O   0  0  0  0  0  0  0  0  0  0  0  0
    8.9953   -3.2852    0.0000 N   0  0  0  0  0  0  0  0  0  0  0  0
    7.1571   -2.0728    0.0000 C   0  0  0  0  0  0  0  0  0  0  0  0
    7.9393   -2.3075    0.0000 C   0  0  0  0  0  0  0  0  0  0  0  0
    8.4478   -1.6426    0.0000 C   0  0  0  0  0  0  0  0  0  0  0  0
    7.1571   -1.2515    0.0000 C   0  0  0  0  0  0  0  0  0  0  0  0
    6.4532   -2.5031    0.0000 C   0  0  0  0  0  0  0  0  0  0  0  0
    9.2691   -1.6426    0.0000 C   0  0  0  0  0  0  0  0  0  0  0  0
    5.7491   -2.1119    0.0000 C   0  0  0  0  0  0  0  0  0  0  0  0
    8.2131   -3.0897    0.0000 C   0  0  0  0  0  0  0  0  0  0  0  0
    6.4140   -0.8604    0.0000 C   0  0  0  0  0  0  0  0  0  0  0  0
    5.7491   -1.2515    0.0000 C   0  0  0  0  0  0  0  0  0  0  0  0
    9.6602   -0.9386    0.0000 C   0  0  0  0  0  0  0  0  0  0  0  0
    9.6993   -2.3466    0.0000 C   0  0  0  0  0  0  0  0  0  0  0  0
    5.0061   -0.8213    0.0000 C   0  0  0  0  0  0  0  0  0  0  0  0
   10.4815   -0.9386    0.0000 C   0  0  0  0  0  0  0  0  0  0  0  0
   10.5206   -2.3466    0.0000 C   0  0  0  0  0  0  0  0  0  0  0  0
   10.9117   -1.6426    0.0000 C   0  0  0  0  0  0  0  0  0  0  0  0
    5.0061   -3.3635    0.0000 C   0  0  0  0  0  0  0  0  0  0  0  0
    4.3021   -1.2515    0.0000 C   0  0  0  0  0  0  0  0  0  0  0  0
    9.2691   -4.0674    0.0000 C   0  0  0  0  0  0  0  0  0  0  0  0
    3.5981   -0.8213    0.0000 C   0  0  0  0  0  0  0  0  0  0  0  0
    4.3021   -3.7545    0.0000 C   0  0  0  0  0  0  0  0  0  0  0  0
    5.7491   -3.7545    0.0000 C   0  0  0  0  0  0  0  0  0  0  0  0
    2.1511   -0.8213    0.0000 C   0  0  0  0  0  0  0  0  0  0  0  0
    1.4471   -1.2515    0.0000 C   0  0  0  0  0  0  0  0  0  0  0  0
    0.7431   -0.8213    0.0000 C   0  0  0  0  0  0  0  0  0  0  0  0
    1.4471   -2.0728    0.0000 C   0  0  0  0  0  0  0  0  0  0  0  0
    0.0000   -1.2515    0.0000 C   0  0  0  0  0  0  0  0  0  0  0  0
    0.7431   -2.4639    0.0000 C   0  0  0  0  0  0  0  0  0  0  0  0
    0.0000   -2.0728    0.0000 C   0  0  0  0  0  0  0  0  0  0  0  0
  1 23  1  0  0  0  0
  2 10  1  0  0  0  0
  2 11  1  0  0  0  0
  3 14  1  0  0  0  0
  3 24  1  0  0  0  0
  4 15  2  0  0  0  0
  5 27  1  0  0  0  0
  5 30  1  0  0  0  0
  6 30  2  0  0  0  0
  7 15  1  0  0  0  0
  7 26  1  0  0  0  0
  8  9  1  0  0  0  0
  8 11  2  0  0  0  0
  8 12  1  0  0  0  0
  9 10  2  0  0  0  0
  9 15  1  0  0  0  0
 10 13  1  0  0  0  0
 11 16  1  0  0  0  0
 12 14  2  0  0  0  0
 13 18  2  0  0  0  0
 13 19  1  0  0  0  0
 14 17  1  0  0  0  0
 16 17  2  0  0  0  0
 17 20  1  0  0  0  0
 18 21  1  0  0  0  0
 19 22  2  0  0  0  0
 20 25  1  0  0  0  0
 21 23  2  0  0  0  0
 22 23  1  0  0  0  0
 24 28  1  0  0  0  0
 24 29  1  0  0  0  0
 25 27  1  0  0  0  0
 30 31  1  0  0  0  0
 31 32  2  0  0  0  0
 31 33  1  0  0  0  0
 32 34  1  0  0  0  0
 33 35  2  0  0  0  0
 34 36  2  0  0  0  0
 35 36  1  0  0  0  0
M  END
> <PUBCHEM_COMPOUND_ID_TYPE>
0

> <PUBCHEM_TOTAL_CHARGE>
0

> <PUBCHEM_SUBSTANCE_ID>
310936241

> <PUBCHEM_SUBSTANCE_VERSION>
1

> <PUBCHEM_EXT_DATASOURCE_NAME>
4488

> <PUBCHEM_EXT_DATASOURCE_REGID>
SCHEMBL16113856

> <PUBCHEM_SUBSTANCE_COMMENT>
InChI=1S/C29H28FNO5/c1-18(2)35-24-17-23-25(16-21(24)10-7-15-34-29(33)20-8-5-4-6-9-20)36-27(26(23)28(32)31-3)19-11-13-22(30)14-12-19/h4-6,8-9,11-14,16-18H,7,10,15H2,1-3H3,(H,31,32)
InChIKey=NXSGDPMEZGECIH-UHFFFAOYSA-N

> <PUBCHEM_SUBSTANCE_SYNONYM>
SCHEMBL16113856

> <PUBCHEM_XREF_EXT_ID>
SCHEMBL16113856

> <PUBCHEM_EXT_DATASOURCE_URL>
https://www.surechembl.org/

> <PUBCHEM_EXT_SUBSTANCE_URL>
https://www.surechembl.org/chemical/SCHEMBL16113856

> <PUBCHEM_CID_ASSOCIATIONS>
117604190  1

> <PUBCHEM_COORDINATE_TYPE>
1
3

$$$$
