310930247
  -OEChem-07211613022D

 16 18  0     0  0  0  0  0  0999 V2000
    3.6913   -1.4133    0.0000 N   0  0  0  0  0  0  0  0  0  0  0  0
    2.9108    0.0000    0.0000 N   0  0  0  0  0  0  0  0  0  0  0  0
    1.6664   -2.1093    0.0000 C   0  0  0  0  0  0  0  0  0  0  0  0
    1.2234   -1.4133    0.0000 C   0  0  0  0  0  0  0  0  0  0  0  0
    1.2234   -2.8054    0.0000 C   0  0  0  0  0  0  0  0  0  0  0  0
    0.4640   -2.8054    0.0000 C   0  0  0  0  0  0  0  0  0  0  0  0
    2.4890   -2.1093    0.0000 C   0  0  0  0  0  0  0  0  0  0  0  0
    2.8898   -1.4133    0.0000 C   0  0  0  0  0  0  0  0  0  0  0  0
    2.4890   -0.6961    0.0000 C   0  0  0  0  0  0  0  0  0  0  0  0
    1.6664   -0.6961    0.0000 C   0  0  0  0  0  0  0  0  0  0  0  0
    0.4640   -1.4133    0.0000 C   0  0  0  0  0  0  0  0  0  0  0  0
    0.0000   -2.1093    0.0000 C   0  0  0  0  0  0  0  0  0  0  0  0
    1.6664   -3.5225    0.0000 C   0  0  0  0  0  0  0  0  0  0  0  0
    0.0000   -3.5225    0.0000 C   0  0  0  0  0  0  0  0  0  0  0  0
    1.2234   -4.2186    0.0000 C   0  0  0  0  0  0  0  0  0  0  0  0
    0.4640   -4.2186    0.0000 C   0  0  0  0  0  0  0  0  0  0  0  0
  1  8  1  0  0  0  0
  2  9  1  0  0  0  0
  3  4  1  0  0  0  0
  3  5  2  0  0  0  0
  3  7  1  0  0  0  0
  4 10  1  0  0  0  0
  4 11  2  0  0  0  0
  5  6  1  0  0  0  0
  5 13  1  0  0  0  0
  6 12  2  0  0  0  0
  6 14  1  0  0  0  0
  7  8  2  0  0  0  0
  8  9  1  0  0  0  0
  9 10  2  0  0  0  0
 11 12  1  0  0  0  0
 13 15  2  0  0  0  0
 14 16  2  0  0  0  0
 15 16  1  0  0  0  0
M  END
> <PUBCHEM_COMPOUND_ID_TYPE>
0

> <PUBCHEM_TOTAL_CHARGE>
0

> <PUBCHEM_SUBSTANCE_ID>
310930247

> <PUBCHEM_SUBSTANCE_VERSION>
1

> <PUBCHEM_EXT_DATASOURCE_NAME>
4488

> <PUBCHEM_EXT_DATASOURCE_REGID>
SCHEMBL16107521

> <PUBCHEM_SUBSTANCE_COMMENT>
InChI=1S/C14H12N2/c15-13-7-10-6-5-9-3-1-2-4-11(9)12(10)8-14(13)16/h1-8H,15-16H2
InChIKey=ZYUTXANXSHWMJD-UHFFFAOYSA-N

> <PUBCHEM_SUBSTANCE_SYNONYM>
SCHEMBL16107521

> <PUBCHEM_XREF_EXT_ID>
SCHEMBL16107521

> <PUBCHEM_EXT_DATASOURCE_URL>
https://www.surechembl.org/

> <PUBCHEM_EXT_SUBSTANCE_URL>
https://www.surechembl.org/chemical/SCHEMBL16107521

> <PUBCHEM_CID_ASSOCIATIONS>
89422258  1

> <PUBCHEM_COORDINATE_TYPE>
1
3

$$$$
