310938909
  -OEChem-07211613022D

 26 30  0     0  0  0  0  0  0999 V2000
    0.9133   -3.9118    0.0000 P   0  0  0  0  0  0  0  0  0  0  0  0
   -0.0078   -2.5818    0.0000 O   0  0  0  0  0  0  0  0  0  0  0  0
   -0.0116   -5.6608    0.0000 O   0  0  0  0  0  0  0  0  0  0  0  0
    1.7383   -3.9118    0.0000 O   0  0  0  0  0  0  0  0  0  0  0  0
   -1.5473   -2.9943    0.0000 C   0  0  0  0  0  0  0  0  0  0  0  0
   -1.5511   -5.2483    0.0000 C   0  0  0  0  0  0  0  0  0  0  0  0
   -2.2617   -2.5818    0.0000 C   0  0  0  0  0  0  0  0  0  0  0  0
   -2.2655   -5.6608    0.0000 C   0  0  0  0  0  0  0  0  0  0  0  0
   -0.8328   -2.5818    0.0000 C   0  0  0  0  0  0  0  0  0  0  0  0
   -0.8366   -5.6608    0.0000 C   0  0  0  0  0  0  0  0  0  0  0  0
   -1.5473   -4.0127    0.0000 C   0  0  0  0  0  0  0  0  0  0  0  0
   -2.2617   -1.7568    0.0000 C   0  0  0  0  0  0  0  0  0  0  0  0
   -2.2655   -6.4858    0.0000 C   0  0  0  0  0  0  0  0  0  0  0  0
   -0.8328   -1.7568    0.0000 C   0  0  0  0  0  0  0  0  0  0  0  0
   -0.8366   -6.4858    0.0000 C   0  0  0  0  0  0  0  0  0  0  0  0
   -1.5473   -1.3443    0.0000 C   0  0  0  0  0  0  0  0  0  0  0  0
   -1.5511   -6.8983    0.0000 C   0  0  0  0  0  0  0  0  0  0  0  0
   -2.9800   -5.2483    0.0000 C   0  0  0  0  0  0  0  0  0  0  0  0
   -2.9762   -2.9943    0.0000 C   0  0  0  0  0  0  0  0  0  0  0  0
   -2.9800   -6.8983    0.0000 C   0  0  0  0  0  0  0  0  0  0  0  0
   -2.9762   -1.3443    0.0000 C   0  0  0  0  0  0  0  0  0  0  0  0
   -3.6945   -5.6608    0.0000 C   0  0  0  0  0  0  0  0  0  0  0  0
   -3.6907   -2.5818    0.0000 C   0  0  0  0  0  0  0  0  0  0  0  0
   -3.6945   -6.4858    0.0000 C   0  0  0  0  0  0  0  0  0  0  0  0
   -3.6907   -1.7568    0.0000 C   0  0  0  0  0  0  0  0  0  0  0  0
    3.6945   -3.9118    0.0000 C   0  0  0  0  0  0  0  0  0  0  0  0
  1  2  1  0  0  0  0
  1  3  1  0  0  0  0
  1  4  1  0  0  0  0
  2  9  1  0  0  0  0
  3 10  1  0  0  0  0
  4 26  1  0  0  0  0
  5  7  2  0  0  0  0
  5  9  1  0  0  0  0
  5 11  1  0  0  0  0
  6  8  2  0  0  0  0
  6 10  1  0  0  0  0
  6 11  1  0  0  0  0
  7 12  1  0  0  0  0
  7 19  1  0  0  0  0
  8 13  1  0  0  0  0
  8 18  1  0  0  0  0
  9 14  2  0  0  0  0
 10 15  2  0  0  0  0
 12 16  2  0  0  0  0
 12 21  1  0  0  0  0
 13 17  2  0  0  0  0
 13 20  1  0  0  0  0
 14 16  1  0  0  0  0
 15 17  1  0  0  0  0
 18 22  2  0  0  0  0
 19 23  2  0  0  0  0
 20 24  2  0  0  0  0
 21 25  2  0  0  0  0
 22 24  1  0  0  0  0
 23 25  1  0  0  0  0
M  END
> <PUBCHEM_COMPOUND_ID_TYPE>
0

> <PUBCHEM_TOTAL_CHARGE>
0

> <PUBCHEM_SUBSTANCE_ID>
310938909

> <PUBCHEM_SUBSTANCE_VERSION>
1

> <PUBCHEM_EXT_DATASOURCE_NAME>
4488

> <PUBCHEM_EXT_DATASOURCE_REGID>
SCHEMBL16116828

> <PUBCHEM_SUBSTANCE_COMMENT>
InChI=1S/C22H17O3P/c1-23-26-24-21-12-10-15-6-2-4-8-17(15)19(21)14-20-18-9-5-3-7-16(18)11-13-22(20)25-26/h2-13H,14H2,1H3
InChIKey=GXBJKWIMKKAPKD-UHFFFAOYSA-N

> <PUBCHEM_SUBSTANCE_SYNONYM>
SCHEMBL16116828

> <PUBCHEM_XREF_EXT_ID>
SCHEMBL16116828

> <PUBCHEM_EXT_DATASOURCE_URL>
https://www.surechembl.org/

> <PUBCHEM_EXT_SUBSTANCE_URL>
https://www.surechembl.org/chemical/SCHEMBL16116828

> <PUBCHEM_CID_ASSOCIATIONS>
117606306  1

> <PUBCHEM_COORDINATE_TYPE>
1
3

$$$$
