310942074
  -OEChem-07211613022D

 20 22  0     0  0  0  0  0  0999 V2000
   -3.0048    0.2072    0.0000 O   0  0  0  0  0  0  0  0  0  0  0  0
    3.0048    1.6578    0.0000 O   0  0  0  0  0  0  0  0  0  0  0  0
   -0.1402   -0.5607    0.0000 N   0  0  0  0  0  0  0  0  0  0  0  0
    0.2743    0.7436    0.0000 C   0  0  0  0  0  0  0  0  0  0  0  0
   -0.5668    0.7558    0.0000 C   0  0  0  0  0  0  0  0  0  0  0  0
    0.5302   -0.0243    0.0000 C   0  0  0  0  0  0  0  0  0  0  0  0
   -0.8350   -0.0366    0.0000 C   0  0  0  0  0  0  0  0  0  0  0  0
    0.8228    1.3531    0.0000 C   0  0  0  0  0  0  0  0  0  0  0  0
   -1.6395   -0.2194    0.0000 C   0  0  0  0  0  0  0  0  0  0  0  0
    1.3470   -0.2194    0.0000 C   0  0  0  0  0  0  0  0  0  0  0  0
   -1.1154    1.3409    0.0000 C   0  0  0  0  0  0  0  0  0  0  0  0
    1.6274    1.2068    0.0000 C   0  0  0  0  0  0  0  0  0  0  0  0
   -0.1524   -1.3774    0.0000 C   0  0  0  0  0  0  0  0  0  0  0  0
   -2.2124    0.4022    0.0000 C   0  0  0  0  0  0  0  0  0  0  0  0
    1.8955    0.3901    0.0000 C   0  0  0  0  0  0  0  0  0  0  0  0
   -1.9199    1.1824    0.0000 C   0  0  0  0  0  0  0  0  0  0  0  0
    2.1759    1.8529    0.0000 C   0  0  0  0  0  0  0  0  0  0  0  0
   -0.8594   -1.7919    0.0000 C   0  0  0  0  0  0  0  0  0  0  0  0
    1.9077    2.6330    0.0000 C   0  0  0  0  0  0  0  0  0  0  0  0
   -0.8472   -2.6330    0.0000 C   0  0  0  0  0  0  0  0  0  0  0  0
  1 14  1  0  0  0  0
  2 17  2  0  0  0  0
  3  6  1  0  0  0  0
  3  7  1  0  0  0  0
  3 13  1  0  0  0  0
  4  5  1  0  0  0  0
  4  6  2  0  0  0  0
  4  8  1  0  0  0  0
  5  7  1  0  0  0  0
  5 11  2  0  0  0  0
  6 10  1  0  0  0  0
  7  9  2  0  0  0  0
  8 12  2  0  0  0  0
  9 14  1  0  0  0  0
 10 15  2  0  0  0  0
 11 16  1  0  0  0  0
 12 15  1  0  0  0  0
 12 17  1  0  0  0  0
 13 18  1  0  0  0  0
 14 16  2  0  0  0  0
 17 19  1  0  0  0  0
 18 20  1  0  0  0  0
M  END
> <PUBCHEM_COMPOUND_ID_TYPE>
0

> <PUBCHEM_TOTAL_CHARGE>
0

> <PUBCHEM_SUBSTANCE_ID>
310942074

> <PUBCHEM_SUBSTANCE_VERSION>
1

> <PUBCHEM_EXT_DATASOURCE_NAME>
4488

> <PUBCHEM_EXT_DATASOURCE_REGID>
SCHEMBL16120109

> <PUBCHEM_SUBSTANCE_COMMENT>
InChI=1S/C17H17NO2/c1-3-8-18-16-7-4-12(11(2)19)9-15(16)14-6-5-13(20)10-17(14)18/h4-7,9-10,20H,3,8H2,1-2H3
InChIKey=MSIWRXDXSBVTOV-UHFFFAOYSA-N

> <PUBCHEM_SUBSTANCE_SYNONYM>
SCHEMBL16120109

> <PUBCHEM_XREF_EXT_ID>
SCHEMBL16120109

> <PUBCHEM_EXT_DATASOURCE_URL>
https://www.surechembl.org/

> <PUBCHEM_EXT_SUBSTANCE_URL>
https://www.surechembl.org/chemical/SCHEMBL16120109

> <PUBCHEM_CID_ASSOCIATIONS>
117608744  1

> <PUBCHEM_COORDINATE_TYPE>
1
3

$$$$
