310932887
  -OEChem-07211613022D

  8  8  0     0  0  0  0  0  0999 V2000
    0.0000   -2.8105    0.0000 O   0  0  0  0  0  0  0  0  0  0  0  0
    1.3692   -1.5674    0.0000 N   0  0  0  0  0  0  0  0  0  0  0  0
    0.9729   -0.8467    0.0000 C   0  0  0  0  0  0  0  0  0  0  0  0
    0.2702   -0.4143    0.0000 C   0  0  0  0  0  0  0  0  0  0  0  0
    0.9729    0.0000    0.0000 C   0  0  0  0  0  0  0  0  0  0  0  0
    0.3783   -1.4233    0.0000 C   0  0  0  0  0  0  0  0  0  0  0  0
    0.5945   -2.2159    0.0000 C   0  0  0  0  0  0  0  0  0  0  0  0
    0.1982   -3.6031    0.0000 C   0  0  0  0  0  0  0  0  0  0  0  0
  1  7  1  0  0  0  0
  1  8  1  0  0  0  0
  2  3  1  0  0  0  0
  3  4  1  0  0  0  0
  3  5  1  0  0  0  0
  3  6  1  0  0  0  0
  4  5  1  0  0  0  0
  6  7  1  0  0  0  0
M  END
> <PUBCHEM_COMPOUND_ID_TYPE>
0

> <PUBCHEM_TOTAL_CHARGE>
0

> <PUBCHEM_SUBSTANCE_ID>
310932887

> <PUBCHEM_SUBSTANCE_VERSION>
1

> <PUBCHEM_EXT_DATASOURCE_NAME>
4488

> <PUBCHEM_EXT_DATASOURCE_REGID>
SCHEMBL16110280

> <PUBCHEM_SUBSTANCE_COMMENT>
InChI=1S/C6H13NO/c1-8-5-4-6(7)2-3-6/h2-5,7H2,1H3
InChIKey=JNXFZENQJRJCPG-UHFFFAOYSA-N

> <PUBCHEM_SUBSTANCE_SYNONYM>
SCHEMBL16110280

> <PUBCHEM_XREF_EXT_ID>
SCHEMBL16110280

> <PUBCHEM_EXT_DATASOURCE_URL>
https://www.surechembl.org/

> <PUBCHEM_EXT_SUBSTANCE_URL>
https://www.surechembl.org/chemical/SCHEMBL16110280

> <PUBCHEM_CID_ASSOCIATIONS>
62677366  1

> <PUBCHEM_COORDINATE_TYPE>
1
3

$$$$
