310940983
  -OEChem-07211613022D

 42 46  0     1  0  0  0  0  0999 V2000
    5.1971   -1.0222    0.0000 O   0  0  0  0  0  0  0  0  0  0  0  0
    4.0742    0.9502    0.0000 O   0  0  0  0  0  0  0  0  0  0  0  0
   -5.5138   -1.0077    0.0000 O   0  0  0  0  0  0  0  0  0  0  0  0
    1.6844   -1.0077    0.0000 O   0  0  0  0  0  0  0  0  0  0  0  0
   -0.4751    1.0798    0.0000 O   0  0  0  0  0  0  0  0  0  0  0  0
   -2.6346   -1.0077    0.0000 O   0  0  0  0  0  0  0  0  0  0  0  0
    3.8439    2.7497    0.0000 O   0  0  0  0  0  0  0  0  0  0  0  0
    2.4186    0.2447    0.0000 N   0  0  0  0  0  0  0  0  0  0  0  0
   -4.0742   -0.1728    0.0000 N   0  0  0  0  0  0  0  0  0  0  0  0
    0.2448   -0.1728    0.0000 N   0  0  0  0  0  0  0  0  0  0  0  0
   -1.9148    0.2447    0.0000 N   0  0  0  0  0  0  0  0  0  0  0  0
    4.7796   -0.2736    0.0000 C   0  0  3  0  0  0  0  0  0  0  0  0
    4.0022    0.1440    0.0000 C   0  0  0  0  0  0  0  0  0  0  0  0
    4.3909   -0.9790    0.0000 C   0  0  0  0  0  0  0  0  0  0  0  0
    3.3544   -0.2591    0.0000 C   0  0  3  0  0  0  0  0  0  0  0  0
    5.5138    0.1440    0.0000 C   0  0  0  0  0  0  0  0  0  0  0  0
    3.3687   -1.3389    0.0000 C   0  0  0  0  0  0  0  0  0  0  0  0
   -4.8084   -1.3533    0.0000 C   0  0  3  0  0  0  0  0  0  0  0  0
   -5.4850   -0.1584    0.0000 C   0  0  3  0  0  0  0  0  0  0  0  0
    1.6988   -0.1152    0.0000 C   0  0  0  0  0  0  0  0  0  0  0  0
   -4.9811   -0.6767    0.0000 C   0  0  0  0  0  0  0  0  0  0  0  0
    0.9646    0.2736    0.0000 C   0  0  3  0  0  0  0  0  0  0  0  0
   -4.8084    0.2736    0.0000 C   0  0  0  0  0  0  0  0  0  0  0  0
   -4.0742   -0.9646    0.0000 C   0  0  0  0  0  0  0  0  0  0  0  0
    2.6201   -1.7564    0.0000 C   0  0  0  0  0  0  0  0  0  0  0  0
   -3.3687    0.2736    0.0000 C   0  0  0  0  0  0  0  0  0  0  0  0
    0.9790    1.1086    0.0000 C   0  0  0  0  0  0  0  0  0  0  0  0
   -0.4895    0.2591    0.0000 C   0  0  0  0  0  0  0  0  0  0  0  0
   -2.6346   -0.1152    0.0000 C   0  0  0  0  0  0  0  0  0  0  0  0
    1.6844    1.5260    0.0000 C   0  0  0  0  0  0  0  0  0  0  0  0
   -1.1805   -0.1296    0.0000 C   0  0  3  0  0  0  0  0  0  0  0  0
    1.8572   -1.4396    0.0000 C   0  0  0  0  0  0  0  0  0  0  0  0
    2.5194   -2.5913    0.0000 C   0  0  0  0  0  0  0  0  0  0  0  0
    1.3245   -2.0587    0.0000 C   0  0  0  0  0  0  0  0  0  0  0  0
    1.7276   -2.7497    0.0000 C   0  0  0  0  0  0  0  0  0  0  0  0
    2.4042    1.1229    0.0000 C   0  0  0  0  0  0  0  0  0  0  0  0
    1.6988    2.3610    0.0000 C   0  0  0  0  0  0  0  0  0  0  0  0
    3.1240    2.3610    0.0000 C   0  0  0  0  0  0  0  0  0  0  0  0
    3.1240    1.5260    0.0000 C   0  0  0  0  0  0  0  0  0  0  0  0
    2.4042    2.7497    0.0000 C   0  0  0  0  0  0  0  0  0  0  0  0
   -1.1949   -0.9502    0.0000 C   0  0  0  0  0  0  0  0  0  0  0  0
    4.5780    2.3322    0.0000 C   0  0  0  0  0  0  0  0  0  0  0  0
  1 12  1  0  0  0  0
  1 14  1  0  0  0  0
  2 13  2  0  0  0  0
  3 18  1  0  0  0  0
  3 19  1  0  0  0  0
  4 20  2  0  0  0  0
  5 28  2  0  0  0  0
  6 29  2  0  0  0  0
  7 38  1  0  0  0  0
  7 42  1  0  0  0  0
 15  8  1  6  0  0  0
  8 20  1  0  0  0  0
  9 23  1  0  0  0  0
  9 24  1  0  0  0  0
  9 26  1  0  0  0  0
 22 10  1  1  0  0  0
 10 28  1  0  0  0  0
 11 29  1  0  0  0  0
 11 31  1  0  0  0  0
 12 13  1  6  0  0  0
 12 14  1  0  0  0  0
 12 16  1  1  0  0  0
 13 15  1  0  0  0  0
 15 17  1  0  0  0  0
 17 25  1  0  0  0  0
 18 21  1  0  0  0  0
 18 24  1  0  0  0  0
 19 21  1  0  0  0  0
 19 23  1  0  0  0  0
 20 22  1  0  0  0  0
 22 27  1  0  0  0  0
 25 32  1  0  0  0  0
 25 33  1  0  0  0  0
 26 29  1  0  0  0  0
 27 30  1  0  0  0  0
 28 31  1  0  0  0  0
 30 36  2  0  0  0  0
 30 37  1  0  0  0  0
 31 41  1  6  0  0  0
 32 34  1  0  0  0  0
 33 35  1  0  0  0  0
 34 35  1  0  0  0  0
 36 39  1  0  0  0  0
 37 40  2  0  0  0  0
 38 39  2  0  0  0  0
 38 40  1  0  0  0  0
M  END
> <PUBCHEM_COMPOUND_ID_TYPE>
0

> <PUBCHEM_TOTAL_CHARGE>
0

> <PUBCHEM_SUBSTANCE_ID>
310940983

> <PUBCHEM_SUBSTANCE_VERSION>
1

> <PUBCHEM_EXT_DATASOURCE_NAME>
4488

> <PUBCHEM_EXT_DATASOURCE_REGID>
SCHEMBL16118942

> <PUBCHEM_SUBSTANCE_COMMENT>
InChI=1S/C31H44N4O7/c1-19(32-27(36)17-35-15-23-14-24(16-35)42-23)29(38)34-26(13-21-8-10-22(40-3)11-9-21)30(39)33-25(12-20-6-4-5-7-20)28(37)31(2)18-41-31/h8-11,19-20,23-26H,4-7,12-18H2,1-3H3,(H,32,36)(H,33,39)(H,34,38)/t19-,23?,24?,25-,26-,31+/m0/s1
InChIKey=AUDINYYKOGWZLY-LEPZJBQRSA-N

> <PUBCHEM_SUBSTANCE_SYNONYM>
SCHEMBL16118942

> <PUBCHEM_XREF_EXT_ID>
SCHEMBL16118942

> <PUBCHEM_EXT_DATASOURCE_URL>
https://www.surechembl.org/

> <PUBCHEM_EXT_SUBSTANCE_URL>
https://www.surechembl.org/chemical/SCHEMBL16118942

> <PUBCHEM_CID_ASSOCIATIONS>
117607889  1

> <PUBCHEM_COORDINATE_TYPE>
1
3

> <PUBCHEM_BONDANNOTATIONS>
22  10  5
12  13  6
12  16  5
31  41  6
15  8  6

$$$$
