310942162
  -OEChem-07211613022D

 22 23  0     1  0  0  0  0  0999 V2000
   -0.3609    0.3903    0.0000 O   0  0  0  0  0  0  0  0  0  0  0  0
    2.5116   -2.0844    0.0000 O   0  0  0  0  0  0  0  0  0  0  0  0
    0.3461   -0.8323    0.0000 N   0  0  0  0  0  0  0  0  0  0  0  0
   -1.8046   -0.4198    0.0000 N   0  0  3  0  0  0  0  0  0  0  0  0
    1.0827   -0.4051    0.0000 C   0  0  0  0  0  0  0  0  0  0  0  0
   -1.0974   -0.7881    0.0000 C   0  0  3  0  0  0  0  0  0  0  0  0
   -0.3756   -0.4198    0.0000 C   0  0  0  0  0  0  0  0  0  0  0  0
    1.8046   -0.8176    0.0000 C   0  0  0  0  0  0  0  0  0  0  0  0
    1.0827    0.4198    0.0000 C   0  0  0  0  0  0  0  0  0  0  0  0
   -1.0974   -1.6571    0.0000 C   0  0  0  0  0  0  0  0  0  0  0  0
    2.5116   -0.4051    0.0000 C   0  0  0  0  0  0  0  0  0  0  0  0
    1.7750    0.8176    0.0000 C   0  0  0  0  0  0  0  0  0  0  0  0
   -2.5116   -0.8176    0.0000 C   0  0  0  0  0  0  0  0  0  0  0  0
    2.5116    0.4198    0.0000 C   0  0  0  0  0  0  0  0  0  0  0  0
   -1.8046    0.4198    0.0000 C   0  0  0  0  0  0  0  0  0  0  0  0
    1.7898   -1.6424    0.0000 C   0  0  0  0  0  0  0  0  0  0  0  0
   -1.7898   -2.0549    0.0000 C   0  0  0  0  0  0  0  0  0  0  0  0
   -2.5116   -1.6571    0.0000 C   0  0  0  0  0  0  0  0  0  0  0  0
    0.3461    0.8176    0.0000 C   0  0  0  0  0  0  0  0  0  0  0  0
   -1.0974    0.8323    0.0000 C   0  0  0  0  0  0  0  0  0  0  0  0
   -1.0680    1.6719    0.0000 C   0  0  0  0  0  0  0  0  0  0  0  0
   -0.3461    2.0844    0.0000 C   0  0  0  0  0  0  0  0  0  0  0  0
  1  7  2  0  0  0  0
  2 16  1  0  0  0  0
  3  5  1  0  0  0  0
  3  7  1  0  0  0  0
  4  6  1  0  0  0  0
  4 13  1  0  0  0  0
  4 15  1  0  0  0  0
  5  8  2  0  0  0  0
  5  9  1  0  0  0  0
  6  7  1  6  0  0  0
  6 10  1  0  0  0  0
  8 11  1  0  0  0  0
  8 16  1  0  0  0  0
  9 12  2  0  0  0  0
  9 19  1  0  0  0  0
 10 17  1  0  0  0  0
 11 14  2  0  0  0  0
 12 14  1  0  0  0  0
 13 18  1  0  0  0  0
 15 20  1  0  0  0  0
 17 18  1  0  0  0  0
 20 21  1  0  0  0  0
 21 22  1  0  0  0  0
M  END
> <PUBCHEM_COMPOUND_ID_TYPE>
0

> <PUBCHEM_TOTAL_CHARGE>
0

> <PUBCHEM_SUBSTANCE_ID>
310942162

> <PUBCHEM_SUBSTANCE_VERSION>
1

> <PUBCHEM_EXT_DATASOURCE_NAME>
4488

> <PUBCHEM_EXT_DATASOURCE_REGID>
SCHEMBL16120197

> <PUBCHEM_SUBSTANCE_COMMENT>
InChI=1S/C18H28N2O2/c1-3-4-11-20-12-6-5-10-16(20)18(22)19-17-14(2)8-7-9-15(17)13-21/h7-9,16,21H,3-6,10-13H2,1-2H3,(H,19,22)/t16-/m0/s1
InChIKey=ADMQOYXCYDWEMI-INIZCTEOSA-N

> <PUBCHEM_SUBSTANCE_SYNONYM>
SCHEMBL16120197

> <PUBCHEM_XREF_EXT_ID>
SCHEMBL16120197

> <PUBCHEM_EXT_DATASOURCE_URL>
https://www.surechembl.org/

> <PUBCHEM_EXT_SUBSTANCE_URL>
https://www.surechembl.org/chemical/SCHEMBL16120197

> <PUBCHEM_CID_ASSOCIATIONS>
117608816  1

> <PUBCHEM_COORDINATE_TYPE>
1
3

> <PUBCHEM_BONDANNOTATIONS>
6  7  6

$$$$
