310941826
  -OEChem-07211613022D

 15 16  0     0  0  0  0  0  0999 V2000
   -0.0108   -2.4968    0.0000 Cl  0  0  0  0  0  0  0  0  0  0  0  0
    1.4623   -1.6627    0.0000 F   0  0  0  0  0  0  0  0  0  0  0  0
   -1.4623   -0.0054    0.0000 N   0  0  0  0  0  0  0  0  0  0  0  0
   -0.0217    0.0163    0.0000 C   0  0  0  0  0  0  0  0  0  0  0  0
   -0.7258   -0.4062    0.0000 C   0  0  0  0  0  0  0  0  0  0  0  0
   -0.0108    0.8503    0.0000 C   0  0  0  0  0  0  0  0  0  0  0  0
    0.7041   -1.2294    0.0000 C   0  0  0  0  0  0  0  0  0  0  0  0
   -0.0108   -1.6519    0.0000 C   0  0  0  0  0  0  0  0  0  0  0  0
    0.7149   -0.4062    0.0000 C   0  0  0  0  0  0  0  0  0  0  0  0
   -0.7258   -1.2403    0.0000 C   0  0  0  0  0  0  0  0  0  0  0  0
    0.7041    1.2620    0.0000 C   0  0  0  0  0  0  0  0  0  0  0  0
   -0.7366    1.2511    0.0000 C   0  0  0  0  0  0  0  0  0  0  0  0
    0.7041    2.0852    0.0000 C   0  0  0  0  0  0  0  0  0  0  0  0
   -0.7366    2.0744    0.0000 C   0  0  0  0  0  0  0  0  0  0  0  0
   -0.0108    2.4968    0.0000 C   0  0  0  0  0  0  0  0  0  0  0  0
  1  8  1  0  0  0  0
  2  7  1  0  0  0  0
  3  5  1  0  0  0  0
  4  5  1  0  0  0  0
  4  6  1  0  0  0  0
  4  9  2  0  0  0  0
  5 10  2  0  0  0  0
  6 11  2  0  0  0  0
  6 12  1  0  0  0  0
  7  8  2  0  0  0  0
  7  9  1  0  0  0  0
  8 10  1  0  0  0  0
 11 13  1  0  0  0  0
 12 14  2  0  0  0  0
 13 15  2  0  0  0  0
 14 15  1  0  0  0  0
M  END
> <PUBCHEM_COMPOUND_ID_TYPE>
0

> <PUBCHEM_TOTAL_CHARGE>
0

> <PUBCHEM_SUBSTANCE_ID>
310941826

> <PUBCHEM_SUBSTANCE_VERSION>
1

> <PUBCHEM_EXT_DATASOURCE_NAME>
4488

> <PUBCHEM_EXT_DATASOURCE_REGID>
SCHEMBL16119858

> <PUBCHEM_SUBSTANCE_COMMENT>
InChI=1S/C12H9ClFN/c13-10-7-12(15)9(6-11(10)14)8-4-2-1-3-5-8/h1-7H,15H2
InChIKey=SKGQRNLEJCZDBW-UHFFFAOYSA-N

> <PUBCHEM_SUBSTANCE_SYNONYM>
SCHEMBL16119858

> <PUBCHEM_XREF_EXT_ID>
SCHEMBL16119858

> <PUBCHEM_EXT_DATASOURCE_URL>
https://www.surechembl.org/

> <PUBCHEM_EXT_SUBSTANCE_URL>
https://www.surechembl.org/chemical/SCHEMBL16119858

> <PUBCHEM_CID_ASSOCIATIONS>
117608570  1

> <PUBCHEM_COORDINATE_TYPE>
1
3

$$$$
