310936031
  -OEChem-07211613022D

 25 27  0     0  0  0  0  0  0999 V2000
    0.9248   -6.9363    0.0000 Cl  0  0  0  0  0  0  0  0  0  0  0  0
    4.0906   -4.8376    0.0000 O   0  0  0  0  0  0  0  0  0  0  0  0
    0.0000    0.0000    0.0000 O   0  0  0  0  0  0  0  0  0  0  0  0
    1.5295   -2.0275    0.0000 N   0  0  0  0  0  0  0  0  0  0  0  0
    3.5215   -3.5215    0.0000 N   0  0  0  0  0  0  0  0  0  0  0  0
    2.0987   -0.8181    0.0000 N   0  0  0  0  0  0  0  0  0  0  0  0
    2.6678   -4.6598    0.0000 C   0  0  0  0  0  0  0  0  0  0  0  0
    2.0987   -3.3436    0.0000 C   0  0  0  0  0  0  0  0  0  0  0  0
    3.4503   -4.3752    0.0000 C   0  0  0  0  0  0  0  0  0  0  0  0
    2.5611   -5.4778    0.0000 C   0  0  0  0  0  0  0  0  0  0  0  0
    2.0275   -4.1618    0.0000 C   0  0  0  0  0  0  0  0  0  0  0  0
    1.4228   -2.8457    0.0000 C   0  0  0  0  0  0  0  0  0  0  0  0
    2.2409   -1.6007    0.0000 C   0  0  0  0  0  0  0  0  0  0  0  0
    1.2450   -0.7114    0.0000 C   0  0  0  0  0  0  0  0  0  0  0  0
    2.8812   -3.0235    0.0000 C   0  0  0  0  0  0  0  0  0  0  0  0
    0.9248   -1.4584    0.0000 C   0  0  0  0  0  0  0  0  0  0  0  0
    1.8141   -5.7980    0.0000 C   0  0  0  0  0  0  0  0  0  0  0  0
    3.2369   -6.0114    0.0000 C   0  0  0  0  0  0  0  0  0  0  0  0
    1.7074   -6.6161    0.0000 C   0  0  0  0  0  0  0  0  0  0  0  0
    3.1302   -6.7940    0.0000 C   0  0  0  0  0  0  0  0  0  0  0  0
    0.8537    0.0000    0.0000 C   0  0  0  0  0  0  0  0  0  0  0  0
    2.3477   -7.1141    0.0000 C   0  0  0  0  0  0  0  0  0  0  0  0
    2.9879   -1.9564    0.0000 C   0  0  0  0  0  0  0  0  0  0  0  0
    4.8732   -4.5174    0.0000 C   0  0  0  0  0  0  0  0  0  0  0  0
    4.9443   -3.6993    0.0000 C   0  0  0  0  0  0  0  0  0  0  0  0
  1 19  1  0  0  0  0
  2  9  1  0  0  0  0
  2 24  1  0  0  0  0
  3 21  1  0  0  0  0
  4 12  1  0  0  0  0
  4 13  1  0  0  0  0
  4 16  1  0  0  0  0
  5  9  2  0  0  0  0
  5 15  1  0  0  0  0
  6 13  2  0  0  0  0
  6 14  1  0  0  0  0
  7  9  1  0  0  0  0
  7 10  1  0  0  0  0
  7 11  2  0  0  0  0
  8 11  1  0  0  0  0
  8 12  1  0  0  0  0
  8 15  2  0  0  0  0
 10 17  1  0  0  0  0
 10 18  2  0  0  0  0
 13 23  1  0  0  0  0
 14 16  2  0  0  0  0
 14 21  1  0  0  0  0
 17 19  2  0  0  0  0
 18 20  1  0  0  0  0
 19 22  1  0  0  0  0
 20 22  2  0  0  0  0
 24 25  1  0  0  0  0
M  END
> <PUBCHEM_COMPOUND_ID_TYPE>
0

> <PUBCHEM_TOTAL_CHARGE>
0

> <PUBCHEM_SUBSTANCE_ID>
310936031

> <PUBCHEM_SUBSTANCE_VERSION>
1

> <PUBCHEM_EXT_DATASOURCE_NAME>
4488

> <PUBCHEM_EXT_DATASOURCE_REGID>
SCHEMBL16113634

> <PUBCHEM_SUBSTANCE_COMMENT>
InChI=1S/C19H20ClN3O2/c1-3-25-19-18(15-5-4-6-16(20)8-15)7-14(9-21-19)10-23-11-17(12-24)22-13(23)2/h4-9,11,24H,3,10,12H2,1-2H3
InChIKey=OEEZQHBKTFAAAO-UHFFFAOYSA-N

> <PUBCHEM_SUBSTANCE_SYNONYM>
SCHEMBL16113634

> <PUBCHEM_XREF_EXT_ID>
SCHEMBL16113634

> <PUBCHEM_EXT_DATASOURCE_URL>
https://www.surechembl.org/

> <PUBCHEM_EXT_SUBSTANCE_URL>
https://www.surechembl.org/chemical/SCHEMBL16113634

> <PUBCHEM_CID_ASSOCIATIONS>
117603998  1

> <PUBCHEM_COORDINATE_TYPE>
1
3

$$$$
