310941684
  -OEChem-07211613022D

 15 15  0     0  0  0  0  0  0999 V2000
   -0.9900   -0.9103    0.0000 O   0  0  0  0  0  0  0  0  0  0  0  0
    2.4541    0.8915    0.0000 O   0  0  0  0  0  0  0  0  0  0  0  0
   -1.7221    0.3472    0.0000 O   0  0  0  0  0  0  0  0  0  0  0  0
    0.9995    0.0563    0.0000 N   0  0  0  0  0  0  0  0  0  0  0  0
    0.4082   -0.5162    0.0000 C   0  0  0  0  0  0  0  0  0  0  0  0
   -0.3988   -0.3003    0.0000 C   0  0  0  0  0  0  0  0  0  0  0  0
    1.7315   -0.3285    0.0000 C   0  0  0  0  0  0  0  0  0  0  0  0
    0.9995    0.9197    0.0000 C   0  0  0  0  0  0  0  0  0  0  0  0
    0.1830   -1.3326    0.0000 C   0  0  0  0  0  0  0  0  0  0  0  0
    1.1402   -0.9478    0.0000 C   0  0  0  0  0  0  0  0  0  0  0  0
    2.4353    0.0844    0.0000 C   0  0  0  0  0  0  0  0  0  0  0  0
    1.7127    1.3326    0.0000 C   0  0  0  0  0  0  0  0  0  0  0  0
   -1.7315   -0.4786    0.0000 C   0  0  0  0  0  0  0  0  0  0  0  0
   -2.0881   -0.6851    0.0000 C   0  0  0  0  0  0  0  0  0  0  0  0
   -2.4541   -0.9009    0.0000 C   0  0  0  0  0  0  0  0  0  0  0  0
  1  6  1  0  0  0  0
  1 13  1  0  0  0  0
  2 11  1  0  0  0  0
  2 12  1  0  0  0  0
  3 13  2  0  0  0  0
  4  5  1  0  0  0  0
  4  7  1  0  0  0  0
  4  8  1  0  0  0  0
  5  6  1  0  0  0  0
  5  9  1  0  0  0  0
  5 10  1  0  0  0  0
  7 11  1  0  0  0  0
  8 12  1  0  0  0  0
 13 14  1  0  0  0  0
 14 15  1  0  0  0  0
M  END
> <PUBCHEM_COMPOUND_ID_TYPE>
0

> <PUBCHEM_TOTAL_CHARGE>
0

> <PUBCHEM_SUBSTANCE_ID>
310941684

> <PUBCHEM_SUBSTANCE_VERSION>
1

> <PUBCHEM_EXT_DATASOURCE_NAME>
4488

> <PUBCHEM_EXT_DATASOURCE_REGID>
SCHEMBL16119715

> <PUBCHEM_SUBSTANCE_COMMENT>
InChI=1S/C11H21NO3/c1-4-10(13)15-9-11(2,3)12-5-7-14-8-6-12/h4-9H2,1-3H3
InChIKey=ZEPGHVDBUWFGEC-UHFFFAOYSA-N

> <PUBCHEM_SUBSTANCE_SYNONYM>
SCHEMBL16119715

> <PUBCHEM_XREF_EXT_ID>
SCHEMBL16119715

> <PUBCHEM_EXT_DATASOURCE_URL>
https://www.surechembl.org/

> <PUBCHEM_EXT_SUBSTANCE_URL>
https://www.surechembl.org/chemical/SCHEMBL16119715

> <PUBCHEM_CID_ASSOCIATIONS>
117608459  1

> <PUBCHEM_COORDINATE_TYPE>
1
3

$$$$
