310949513
  -OEChem-07211613022D

 26 28  0     0  0  0  0  0  0999 V2000
   -1.6430   -0.8148    0.0000 S   0  0  0  0  0  0  0  0  0  0  0  0
   -0.7950   -0.8148    0.0000 O   0  0  0  0  0  0  0  0  0  0  0  0
   -1.6430   -1.6496    0.0000 O   0  0  0  0  0  0  0  0  0  0  0  0
   -4.1472   -0.8148    0.0000 O   0  0  0  0  0  0  0  0  0  0  0  0
    0.5300    1.2521    0.0000 O   0  0  0  0  0  0  0  0  0  0  0  0
   -2.4777   -0.8148    0.0000 N   0  0  0  0  0  0  0  0  0  0  0  0
   -0.1988    0.0066    0.0000 N   0  0  0  0  0  0  0  0  0  0  0  0
    4.1472    0.8414    0.0000 N   0  0  0  0  0  0  0  0  0  0  0  0
   -1.6298    0.0066    0.0000 C   0  0  0  0  0  0  0  0  0  0  0  0
   -0.9275    0.4306    0.0000 C   0  0  0  0  0  0  0  0  0  0  0  0
   -2.3585    0.4173    0.0000 C   0  0  0  0  0  0  0  0  0  0  0  0
   -0.9275    1.2521    0.0000 C   0  0  0  0  0  0  0  0  0  0  0  0
   -2.9018   -0.1126    0.0000 C   0  0  0  0  0  0  0  0  0  0  0  0
   -2.9018   -1.5436    0.0000 C   0  0  0  0  0  0  0  0  0  0  0  0
    0.5168    0.4041    0.0000 C   0  0  0  0  0  0  0  0  0  0  0  0
    1.2587   -0.0066    0.0000 C   0  0  0  0  0  0  0  0  0  0  0  0
   -2.3585    1.2521    0.0000 C   0  0  0  0  0  0  0  0  0  0  0  0
   -1.6562    1.6496    0.0000 C   0  0  0  0  0  0  0  0  0  0  0  0
   -3.7233   -0.1126    0.0000 C   0  0  0  0  0  0  0  0  0  0  0  0
   -3.7365   -1.5303    0.0000 C   0  0  0  0  0  0  0  0  0  0  0  0
    1.9610    0.4041    0.0000 C   0  0  0  0  0  0  0  0  0  0  0  0
    1.2587   -0.8281    0.0000 C   0  0  0  0  0  0  0  0  0  0  0  0
    2.7030    0.0066    0.0000 C   0  0  0  0  0  0  0  0  0  0  0  0
    1.9742   -1.2256    0.0000 C   0  0  0  0  0  0  0  0  0  0  0  0
    2.7030   -0.8148    0.0000 C   0  0  0  0  0  0  0  0  0  0  0  0
    3.4185    0.4173    0.0000 C   0  0  0  0  0  0  0  0  0  0  0  0
  1  2  2  0  0  0  0
  1  3  2  0  0  0  0
  1  6  1  0  0  0  0
  1  9  1  0  0  0  0
  4 19  1  0  0  0  0
  4 20  1  0  0  0  0
  5 15  2  0  0  0  0
  6 13  1  0  0  0  0
  6 14  1  0  0  0  0
  7 10  1  0  0  0  0
  7 15  1  0  0  0  0
  8 26  3  0  0  0  0
  9 10  1  0  0  0  0
  9 11  2  0  0  0  0
 10 12  2  0  0  0  0
 11 17  1  0  0  0  0
 12 18  1  0  0  0  0
 13 19  1  0  0  0  0
 14 20  1  0  0  0  0
 15 16  1  0  0  0  0
 16 21  2  0  0  0  0
 16 22  1  0  0  0  0
 17 18  2  0  0  0  0
 21 23  1  0  0  0  0
 22 24  2  0  0  0  0
 23 25  2  0  0  0  0
 23 26  1  0  0  0  0
 24 25  1  0  0  0  0
M  END
> <PUBCHEM_COMPOUND_ID_TYPE>
0

> <PUBCHEM_TOTAL_CHARGE>
0

> <PUBCHEM_SUBSTANCE_ID>
310949513

> <PUBCHEM_SUBSTANCE_VERSION>
1

> <PUBCHEM_EXT_DATASOURCE_NAME>
4488

> <PUBCHEM_EXT_DATASOURCE_REGID>
SCHEMBL16127708

> <PUBCHEM_SUBSTANCE_COMMENT>
InChI=1S/C18H17N3O4S/c19-13-14-4-3-5-15(12-14)18(22)20-16-6-1-2-7-17(16)26(23,24)21-8-10-25-11-9-21/h1-7,12H,8-11H2,(H,20,22)
InChIKey=RIJWVCFNWXWNCF-UHFFFAOYSA-N

> <PUBCHEM_SUBSTANCE_SYNONYM>
SCHEMBL16127708

> <PUBCHEM_XREF_EXT_ID>
SCHEMBL16127708

> <PUBCHEM_EXT_DATASOURCE_URL>
https://www.surechembl.org/

> <PUBCHEM_EXT_SUBSTANCE_URL>
https://www.surechembl.org/chemical/SCHEMBL16127708

> <PUBCHEM_CID_ASSOCIATIONS>
117614949  1

> <PUBCHEM_COORDINATE_TYPE>
1
3

$$$$
