310941264
  -OEChem-07211613022D

 44 47  0     1  0  0  0  0  0999 V2000
    5.0835    0.6750    0.0000 O   0  0  0  0  0  0  0  0  0  0  0  0
    3.9585   -1.2796    0.0000 O   0  0  0  0  0  0  0  0  0  0  0  0
    1.8070    0.7875    0.0000 O   0  0  0  0  0  0  0  0  0  0  0  0
   -0.3586   -1.2796    0.0000 O   0  0  0  0  0  0  0  0  0  0  0  0
   -0.3586    1.1953    0.0000 O   0  0  0  0  0  0  0  0  0  0  0  0
   -2.5101    0.7875    0.0000 O   0  0  0  0  0  0  0  0  0  0  0  0
    3.9585   -2.9389    0.0000 O   0  0  0  0  0  0  0  0  0  0  0  0
   -5.3787    0.7875    0.0000 O   0  0  0  0  0  0  0  0  0  0  0  0
    2.5241   -0.4641    0.0000 N   0  0  0  0  0  0  0  0  0  0  0  0
    0.3727   -0.0422    0.0000 N   0  0  0  0  0  0  0  0  0  0  0  0
   -1.7789   -0.4641    0.0000 N   0  0  0  0  0  0  0  0  0  0  0  0
   -3.9444   -0.0422    0.0000 N   0  0  0  0  0  0  0  0  0  0  0  0
    4.6616    0.0000    0.0000 C   0  0  3  0  0  0  0  0  0  0  0  0
    3.9585   -0.4218    0.0000 C   0  0  0  0  0  0  0  0  0  0  0  0
    4.2819    0.6891    0.0000 C   0  0  0  0  0  0  0  0  0  0  0  0
    3.2273   -0.0141    0.0000 C   0  0  3  0  0  0  0  0  0  0  0  0
    5.3787   -0.4218    0.0000 C   0  0  0  0  0  0  0  0  0  0  0  0
    3.2413    1.3078    0.0000 C   0  0  0  0  0  0  0  0  0  0  0  0
    1.8070   -0.0422    0.0000 C   0  0  0  0  0  0  0  0  0  0  0  0
    1.1180   -0.4218    0.0000 C   0  0  3  0  0  0  0  0  0  0  0  0
    2.5101    1.7296    0.0000 C   0  0  0  0  0  0  0  0  0  0  0  0
   -0.3305   -0.4078    0.0000 C   0  0  0  0  0  0  0  0  0  0  0  0
    1.0757   -1.2796    0.0000 C   0  0  0  0  0  0  0  0  0  0  0  0
   -1.0617   -0.0141    0.0000 C   0  0  3  0  0  0  0  0  0  0  0  0
    1.8210   -1.6734    0.0000 C   0  0  0  0  0  0  0  0  0  0  0  0
    1.8210    1.3218    0.0000 C   0  0  0  0  0  0  0  0  0  0  0  0
    2.5241    2.5312    0.0000 C   0  0  0  0  0  0  0  0  0  0  0  0
   -1.0617    0.8016    0.0000 C   0  0  3  0  0  0  0  0  0  0  0  0
    2.5101   -1.2796    0.0000 C   0  0  0  0  0  0  0  0  0  0  0  0
    1.8210   -2.5030    0.0000 C   0  0  0  0  0  0  0  0  0  0  0  0
   -2.5101   -0.0422    0.0000 C   0  0  0  0  0  0  0  0  0  0  0  0
    1.1039    1.7296    0.0000 C   0  0  0  0  0  0  0  0  0  0  0  0
    1.8070    2.9389    0.0000 C   0  0  0  0  0  0  0  0  0  0  0  0
    3.2413   -2.4889    0.0000 C   0  0  0  0  0  0  0  0  0  0  0  0
    3.2413   -1.6875    0.0000 C   0  0  0  0  0  0  0  0  0  0  0  0
    2.5382   -2.9108    0.0000 C   0  0  0  0  0  0  0  0  0  0  0  0
    1.1039    2.5452    0.0000 C   0  0  0  0  0  0  0  0  0  0  0  0
   -3.1991   -0.4218    0.0000 C   0  0  0  0  0  0  0  0  0  0  0  0
   -1.7929    1.2093    0.0000 C   0  0  0  0  0  0  0  0  0  0  0  0
   -3.9303    0.8016    0.0000 C   0  0  0  0  0  0  0  0  0  0  0  0
   -4.6335   -0.4218    0.0000 C   0  0  0  0  0  0  0  0  0  0  0  0
   -4.6616    1.2234    0.0000 C   0  0  0  0  0  0  0  0  0  0  0  0
   -5.3647   -0.0282    0.0000 C   0  0  0  0  0  0  0  0  0  0  0  0
    4.6897   -2.4889    0.0000 C   0  0  0  0  0  0  0  0  0  0  0  0
  1 13  1  0  0  0  0
  1 15  1  0  0  0  0
  2 14  2  0  0  0  0
  3 19  2  0  0  0  0
  4 22  2  0  0  0  0
 28  5  1  6  0  0  0
  6 31  2  0  0  0  0
  7 34  1  0  0  0  0
  7 44  1  0  0  0  0
  8 42  1  0  0  0  0
  8 43  1  0  0  0  0
 16  9  1  1  0  0  0
  9 19  1  0  0  0  0
 20 10  1  6  0  0  0
 10 22  1  0  0  0  0
 24 11  1  1  0  0  0
 11 31  1  0  0  0  0
 12 38  1  0  0  0  0
 12 40  1  0  0  0  0
 12 41  1  0  0  0  0
 13 14  1  1  0  0  0
 13 15  1  0  0  0  0
 13 17  1  6  0  0  0
 14 16  1  0  0  0  0
 16 18  1  0  0  0  0
 18 21  1  0  0  0  0
 19 20  1  0  0  0  0
 20 23  1  0  0  0  0
 21 26  2  0  0  0  0
 21 27  1  0  0  0  0
 22 24  1  0  0  0  0
 23 25  1  0  0  0  0
 24 28  1  0  0  0  0
 25 29  2  0  0  0  0
 25 30  1  0  0  0  0
 26 32  1  0  0  0  0
 27 33  2  0  0  0  0
 28 39  1  0  0  0  0
 29 35  1  0  0  0  0
 30 36  2  0  0  0  0
 31 38  1  0  0  0  0
 32 37  2  0  0  0  0
 33 37  1  0  0  0  0
 34 35  2  0  0  0  0
 34 36  1  0  0  0  0
 40 42  1  0  0  0  0
 41 43  1  0  0  0  0
M  END
> <PUBCHEM_COMPOUND_ID_TYPE>
0

> <PUBCHEM_TOTAL_CHARGE>
0

> <PUBCHEM_SUBSTANCE_ID>
310941264

> <PUBCHEM_SUBSTANCE_VERSION>
1

> <PUBCHEM_EXT_DATASOURCE_NAME>
4488

> <PUBCHEM_EXT_DATASOURCE_REGID>
SCHEMBL16119224

> <PUBCHEM_SUBSTANCE_COMMENT>
InChI=1S/C32H42N4O8/c1-21(37)28(35-27(38)19-36-13-15-43-16-14-36)31(41)34-26(18-23-9-11-24(42-3)12-10-23)30(40)33-25(29(39)32(2)20-44-32)17-22-7-5-4-6-8-22/h4-12,21,25-26,28,37H,13-20H2,1-3H3,(H,33,40)(H,34,41)(H,35,38)/t21-,25-,26-,28-,32+/m0/s1
InChIKey=WIIFCSJXHGZNEG-YBCYSWMNSA-N

> <PUBCHEM_SUBSTANCE_SYNONYM>
SCHEMBL16119224

> <PUBCHEM_XREF_EXT_ID>
SCHEMBL16119224

> <PUBCHEM_EXT_DATASOURCE_URL>
https://www.surechembl.org/

> <PUBCHEM_EXT_SUBSTANCE_URL>
https://www.surechembl.org/chemical/SCHEMBL16119224

> <PUBCHEM_CID_ASSOCIATIONS>
117608123  1

> <PUBCHEM_COORDINATE_TYPE>
1
3

> <PUBCHEM_BONDANNOTATIONS>
20  10  6
24  11  5
13  14  5
13  17  6
28  5  6
16  9  5

$$$$
