310945270
  -OEChem-07211613022D

 17 17  0     0  0  0  0  0  0999 V2000
   -0.7356   -0.4193    0.0000 O   0  0  0  0  0  0  0  0  0  0  0  0
    2.1104    0.4056    0.0000 O   0  0  0  0  0  0  0  0  0  0  0  0
   -1.4505    1.6704    0.0000 O   0  0  0  0  0  0  0  0  0  0  0  0
    0.6943    0.4193    0.0000 N   0  0  0  0  0  0  0  0  0  0  0  0
    2.1242   -2.0829    0.0000 N   0  0  0  0  0  0  0  0  0  0  0  0
    0.6943   -0.4056    0.0000 C   0  0  0  0  0  0  0  0  0  0  0  0
   -0.0069   -0.8180    0.0000 C   0  0  0  0  0  0  0  0  0  0  0  0
    1.4092   -0.8318    0.0000 C   0  0  0  0  0  0  0  0  0  0  0  0
    1.3955   -1.6567    0.0000 C   0  0  0  0  0  0  0  0  0  0  0  0
   -0.0069   -1.6704    0.0000 C   0  0  0  0  0  0  0  0  0  0  0  0
    0.7080   -2.0692    0.0000 C   0  0  0  0  0  0  0  0  0  0  0  0
    1.3818    0.8593    0.0000 C   0  0  0  0  0  0  0  0  0  0  0  0
   -0.7218    0.4193    0.0000 C   0  0  0  0  0  0  0  0  0  0  0  0
    1.4230    1.6842    0.0000 C   0  0  0  0  0  0  0  0  0  0  0  0
   -1.4367    0.8456    0.0000 C   0  0  0  0  0  0  0  0  0  0  0  0
    2.1654    2.0279    0.0000 C   0  0  0  0  0  0  0  0  0  0  0  0
   -2.1654    2.0829    0.0000 C   0  0  0  0  0  0  0  0  0  0  0  0
  1  7  1  0  0  0  0
  1 13  1  0  0  0  0
  2 12  2  0  0  0  0
  3 15  1  0  0  0  0
  3 17  1  0  0  0  0
  4  6  1  0  0  0  0
  4 12  1  0  0  0  0
  5  9  1  0  0  0  0
  6  7  2  0  0  0  0
  6  8  1  0  0  0  0
  7 10  1  0  0  0  0
  8  9  2  0  0  0  0
  9 11  1  0  0  0  0
 10 11  2  0  0  0  0
 12 14  1  0  0  0  0
 13 15  1  0  0  0  0
 14 16  2  0  0  0  0
M  END
> <PUBCHEM_COMPOUND_ID_TYPE>
0

> <PUBCHEM_TOTAL_CHARGE>
0

> <PUBCHEM_SUBSTANCE_ID>
310945270

> <PUBCHEM_SUBSTANCE_VERSION>
1

> <PUBCHEM_EXT_DATASOURCE_NAME>
4488

> <PUBCHEM_EXT_DATASOURCE_REGID>
SCHEMBL16123364

> <PUBCHEM_SUBSTANCE_COMMENT>
InChI=1S/C12H16N2O3/c1-3-12(15)14-10-8-9(13)4-5-11(10)17-7-6-16-2/h3-5,8H,1,6-7,13H2,2H3,(H,14,15)
InChIKey=YRDVIKXYNYIUOQ-UHFFFAOYSA-N

> <PUBCHEM_SUBSTANCE_SYNONYM>
SCHEMBL16123364

> <PUBCHEM_XREF_EXT_ID>
SCHEMBL16123364

> <PUBCHEM_EXT_DATASOURCE_URL>
https://www.surechembl.org/

> <PUBCHEM_EXT_SUBSTANCE_URL>
https://www.surechembl.org/chemical/SCHEMBL16123364

> <PUBCHEM_CID_ASSOCIATIONS>
117611334  1

> <PUBCHEM_COORDINATE_TYPE>
1
3

$$$$
