310931719
  -OEChem-07211613022D

 24 26  0     0  0  0  0  0  0999 V2000
    4.2386   -2.4749    0.0000 O   0  0  0  0  0  0  0  0  0  0  0  0
    3.5274   -0.4267    0.0000 O   0  0  0  0  0  0  0  0  0  0  0  0
    0.7112   -1.2517    0.0000 O   0  0  0  0  0  0  0  0  0  0  0  0
    8.5058   -1.6784    0.0000 N   0  0  0  0  0  0  0  0  0  0  0  0
    4.9498   -1.2517    0.0000 C   0  0  0  0  0  0  0  0  0  0  0  0
    4.2386   -1.6499    0.0000 C   0  0  0  0  0  0  0  0  0  0  0  0
    3.5274   -1.2517    0.0000 C   0  0  0  0  0  0  0  0  0  0  0  0
    2.8163   -1.6499    0.0000 C   0  0  0  0  0  0  0  0  0  0  0  0
    6.3722   -1.2517    0.0000 C   0  0  0  0  0  0  0  0  0  0  0  0
    5.6610   -1.6499    0.0000 C   0  0  0  0  0  0  0  0  0  0  0  0
    7.0834   -1.6499    0.0000 C   0  0  0  0  0  0  0  0  0  0  0  0
    4.9498   -0.4267    0.0000 C   0  0  0  0  0  0  0  0  0  0  0  0
    2.1051   -1.2517    0.0000 C   0  0  0  0  0  0  0  0  0  0  0  0
    6.3722   -0.4267    0.0000 C   0  0  0  0  0  0  0  0  0  0  0  0
    2.8163   -2.4749    0.0000 C   0  0  0  0  0  0  0  0  0  0  0  0
    1.4224   -1.6499    0.0000 C   0  0  0  0  0  0  0  0  0  0  0  0
    5.6610    0.0000    0.0000 C   0  0  0  0  0  0  0  0  0  0  0  0
    7.8230   -1.2801    0.0000 C   0  0  0  0  0  0  0  0  0  0  0  0
    7.0834   -2.4749    0.0000 C   0  0  0  0  0  0  0  0  0  0  0  0
    2.1051   -2.9016    0.0000 C   0  0  0  0  0  0  0  0  0  0  0  0
    1.3939   -2.4749    0.0000 C   0  0  0  0  0  0  0  0  0  0  0  0
    7.7946   -2.9016    0.0000 C   0  0  0  0  0  0  0  0  0  0  0  0
    8.5342   -2.5034    0.0000 C   0  0  0  0  0  0  0  0  0  0  0  0
    0.0000   -1.6499    0.0000 C   0  0  0  0  0  0  0  0  0  0  0  0
  1  6  2  0  0  0  0
  2  7  2  0  0  0  0
  3 16  1  0  0  0  0
  3 24  1  0  0  0  0
  4 18  1  0  0  0  0
  4 23  2  0  0  0  0
  5  6  1  0  0  0  0
  5 10  1  0  0  0  0
  5 12  2  0  0  0  0
  6  7  1  0  0  0  0
  7  8  1  0  0  0  0
  8 13  1  0  0  0  0
  8 15  2  0  0  0  0
  9 10  2  0  0  0  0
  9 11  1  0  0  0  0
  9 14  1  0  0  0  0
 11 18  2  0  0  0  0
 11 19  1  0  0  0  0
 12 17  1  0  0  0  0
 13 16  2  0  0  0  0
 14 17  2  0  0  0  0
 15 20  1  0  0  0  0
 16 21  1  0  0  0  0
 19 22  2  0  0  0  0
 20 21  2  0  0  0  0
 22 23  1  0  0  0  0
M  END
> <PUBCHEM_COMPOUND_ID_TYPE>
0

> <PUBCHEM_TOTAL_CHARGE>
0

> <PUBCHEM_SUBSTANCE_ID>
310931719

> <PUBCHEM_SUBSTANCE_VERSION>
1

> <PUBCHEM_EXT_DATASOURCE_NAME>
4488

> <PUBCHEM_EXT_DATASOURCE_REGID>
SCHEMBL16109048

> <PUBCHEM_SUBSTANCE_COMMENT>
InChI=1S/C20H15NO3/c1-24-18-9-3-7-16(12-18)20(23)19(22)15-6-2-5-14(11-15)17-8-4-10-21-13-17/h2-13H,1H3
InChIKey=FZPYJCBYGCJTHV-UHFFFAOYSA-N

> <PUBCHEM_SUBSTANCE_SYNONYM>
SCHEMBL16109048

> <PUBCHEM_XREF_EXT_ID>
SCHEMBL16109048

> <PUBCHEM_EXT_DATASOURCE_URL>
https://www.surechembl.org/

> <PUBCHEM_EXT_SUBSTANCE_URL>
https://www.surechembl.org/chemical/SCHEMBL16109048

> <PUBCHEM_CID_ASSOCIATIONS>
117600416  1

> <PUBCHEM_COORDINATE_TYPE>
1
3

$$$$
