310949997
  -OEChem-07211613022D

 28 33  0     1  0  0  0  0  0999 V2000
   -0.6988    1.5638    0.0000 N   0  0  0  0  0  0  0  0  0  0  0  0
   -0.6988    2.9200    0.0000 N   0  0  0  0  0  0  0  0  0  0  0  0
    0.0761   -0.8027    0.0000 N   0  0  0  0  0  0  0  0  0  0  0  0
    1.0310    1.5223    0.0000 N   0  0  0  0  0  0  0  0  0  0  0  0
   -0.2145    2.2557    0.0000 C   0  0  0  0  0  0  0  0  0  0  0  0
   -1.4876    1.8544    0.0000 C   0  0  0  0  0  0  0  0  0  0  0  0
   -1.4738    2.6709    0.0000 C   0  0  0  0  0  0  0  0  0  0  0  0
   -0.4498    0.8165    0.0000 C   0  0  0  0  0  0  0  0  0  0  0  0
    0.6297    2.2419    0.0000 C   0  0  3  0  0  0  0  0  0  0  0  0
   -2.1934    1.4254    0.0000 C   0  0  0  0  0  0  0  0  0  0  0  0
   -2.2072    3.0584    0.0000 C   0  0  0  0  0  0  0  0  0  0  0  0
   -0.9756    0.1937    0.0000 C   0  0  0  0  0  0  0  0  0  0  0  0
    0.3667    0.6089    0.0000 C   0  0  0  0  0  0  0  0  0  0  0  0
    1.1832   -1.7990    0.0000 C   0  0  3  0  0  0  0  0  0  0  0  0
    1.8059   -2.2972    0.0000 C   0  0  3  0  0  0  0  0  0  0  0  0
    2.6086   -2.1726    0.0000 C   0  0  3  0  0  0  0  0  0  0  0  0
    1.1694    2.8646    0.0000 C   0  0  0  0  0  0  0  0  0  0  0  0
   -0.7404   -0.6089    0.0000 C   0  0  0  0  0  0  0  0  0  0  0  0
    0.6158   -0.1799    0.0000 C   0  0  0  0  0  0  0  0  0  0  0  0
    0.3252   -1.5776    0.0000 C   0  0  0  0  0  0  0  0  0  0  0  0
    1.9720   -1.7021    0.0000 C   0  0  0  0  0  0  0  0  0  0  0  0
   -2.9130    1.8405    0.0000 C   0  0  0  0  0  0  0  0  0  0  0  0
    2.8853   -1.4668    0.0000 C   0  0  0  0  0  0  0  0  0  0  0  0
   -2.9130    2.6709    0.0000 C   0  0  0  0  0  0  0  0  0  0  0  0
    2.1104   -3.0584    0.0000 C   0  0  0  0  0  0  0  0  0  0  0  0
    2.9130   -2.9476    0.0000 C   0  0  0  0  0  0  0  0  0  0  0  0
    1.8336    1.7021    0.0000 C   0  0  0  0  0  0  0  0  0  0  0  0
    1.9305    2.5186    0.0000 C   0  0  0  0  0  0  0  0  0  0  0  0
  1  5  1  0  0  0  0
  1  6  1  0  0  0  0
  1  8  1  0  0  0  0
  2  5  2  0  0  0  0
  2  7  1  0  0  0  0
  3 18  1  0  0  0  0
  3 19  1  0  0  0  0
  3 20  1  0  0  0  0
  9  4  1  6  0  0  0
  4 27  1  0  0  0  0
  5  9  1  0  0  0  0
  6  7  2  0  0  0  0
  6 10  1  0  0  0  0
  7 11  1  0  0  0  0
  8 12  1  0  0  0  0
  8 13  1  0  0  0  0
  9 17  1  0  0  0  0
 10 22  2  0  0  0  0
 11 24  2  0  0  0  0
 12 18  1  0  0  0  0
 13 19  1  0  0  0  0
 14 15  1  0  0  0  0
 14 20  1  0  0  0  0
 14 21  1  0  0  0  0
 15 23  1  0  0  0  0
 15 25  1  0  0  0  0
 16 21  1  0  0  0  0
 16 23  1  0  0  0  0
 16 26  1  0  0  0  0
 17 28  1  0  0  0  0
 22 24  1  0  0  0  0
 25 26  2  0  0  0  0
 27 28  1  0  0  0  0
M  END
> <PUBCHEM_COMPOUND_ID_TYPE>
0

> <PUBCHEM_TOTAL_CHARGE>
0

> <PUBCHEM_SUBSTANCE_ID>
310949997

> <PUBCHEM_SUBSTANCE_VERSION>
1

> <PUBCHEM_EXT_DATASOURCE_NAME>
4488

> <PUBCHEM_EXT_DATASOURCE_REGID>
SCHEMBL16128226

> <PUBCHEM_SUBSTANCE_COMMENT>
InChI=1S/C24H32N4/c1-2-6-23-21(4-1)26-24(22-5-3-11-25-22)28(23)20-9-12-27(13-10-20)16-19-15-17-7-8-18(19)14-17/h1-2,4,6-8,17-20,22,25H,3,5,9-16H2/t17?,18?,19?,22-/m0/s1
InChIKey=DTRXLAKHOUZKPC-MUJSTJFPSA-N

> <PUBCHEM_SUBSTANCE_SYNONYM>
SCHEMBL16128226

> <PUBCHEM_XREF_EXT_ID>
SCHEMBL16128226

> <PUBCHEM_EXT_DATASOURCE_URL>
https://www.surechembl.org/

> <PUBCHEM_EXT_SUBSTANCE_URL>
https://www.surechembl.org/chemical/SCHEMBL16128226

> <PUBCHEM_CID_ASSOCIATIONS>
86275014  1

> <PUBCHEM_COORDINATE_TYPE>
1
3

> <PUBCHEM_BONDANNOTATIONS>
9  4  6

$$$$
