310942926
  -OEChem-07211613022D

 28 31  0     0  0  0  0  0  0999 V2000
    0.4075    0.3852    0.0000 O   0  0  0  0  0  0  0  0  0  0  0  0
   -0.8668    0.7630    0.0000 O   0  0  0  0  0  0  0  0  0  0  0  0
    2.9410    1.7335    0.0000 O   0  0  0  0  0  0  0  0  0  0  0  0
   -3.7263    0.5630    0.0000 O   0  0  0  0  0  0  0  0  0  0  0  0
    1.3409   -1.1409    0.0000 N   0  0  0  0  0  0  0  0  0  0  0  0
   -0.8445   -1.0223    0.0000 N   0  0  0  0  0  0  0  0  0  0  0  0
    2.8892    0.3112    0.0000 N   0  0  0  0  0  0  0  0  0  0  0  0
   -2.9262   -0.6149    0.0000 N   0  0  0  0  0  0  0  0  0  0  0  0
    1.6742    1.0668    0.0000 N   0  0  0  0  0  0  0  0  0  0  0  0
   -2.3039    0.6741    0.0000 N   0  0  0  0  0  0  0  0  0  0  0  0
    2.6743   -1.1853    0.0000 N   0  0  0  0  0  0  0  0  0  0  0  0
   -1.9187   -1.7558    0.0000 N   0  0  0  0  0  0  0  0  0  0  0  0
    1.6224   -0.3630    0.0000 C   0  0  0  0  0  0  0  0  0  0  0  0
   -1.5038   -0.5112    0.0000 C   0  0  0  0  0  0  0  0  0  0  0  0
    2.4447   -0.3926    0.0000 C   0  0  0  0  0  0  0  0  0  0  0  0
   -2.1854   -0.9779    0.0000 C   0  0  0  0  0  0  0  0  0  0  0  0
    1.2446    0.3704    0.0000 C   0  0  0  0  0  0  0  0  0  0  0  0
   -1.5705    0.3038    0.0000 C   0  0  0  0  0  0  0  0  0  0  0  0
    2.4891    1.0223    0.0000 C   0  0  0  0  0  0  0  0  0  0  0  0
   -2.9707    0.2000    0.0000 C   0  0  0  0  0  0  0  0  0  0  0  0
    2.0002   -1.6446    0.0000 C   0  0  0  0  0  0  0  0  0  0  0  0
   -1.1334   -1.8002    0.0000 C   0  0  0  0  0  0  0  0  0  0  0  0
   -0.0518   -0.8001    0.0000 C   0  0  0  0  0  0  0  0  0  0  0  0
    0.5408   -1.3631    0.0000 C   0  0  0  0  0  0  0  0  0  0  0  0
    3.7263    0.2815    0.0000 C   0  0  0  0  0  0  0  0  0  0  0  0
   -3.6226   -1.0890    0.0000 C   0  0  0  0  0  0  0  0  0  0  0  0
    1.2742    1.8002    0.0000 C   0  0  0  0  0  0  0  0  0  0  0  0
   -2.3483    1.5112    0.0000 C   0  0  0  0  0  0  0  0  0  0  0  0
  1 17  2  0  0  0  0
  2 18  2  0  0  0  0
  3 19  2  0  0  0  0
  4 20  2  0  0  0  0
  5 13  1  0  0  0  0
  5 21  1  0  0  0  0
  5 24  1  0  0  0  0
  6 14  1  0  0  0  0
  6 22  1  0  0  0  0
  6 23  1  0  0  0  0
  7 15  1  0  0  0  0
  7 19  1  0  0  0  0
  7 25  1  0  0  0  0
  8 16  1  0  0  0  0
  8 20  1  0  0  0  0
  8 26  1  0  0  0  0
  9 17  1  0  0  0  0
  9 19  1  0  0  0  0
  9 27  1  0  0  0  0
 10 18  1  0  0  0  0
 10 20  1  0  0  0  0
 10 28  1  0  0  0  0
 11 15  1  0  0  0  0
 11 21  2  0  0  0  0
 12 16  1  0  0  0  0
 12 22  2  0  0  0  0
 13 15  2  0  0  0  0
 13 17  1  0  0  0  0
 14 16  2  0  0  0  0
 14 18  1  0  0  0  0
 23 24  1  0  0  0  0
M  END
> <PUBCHEM_COMPOUND_ID_TYPE>
0

> <PUBCHEM_TOTAL_CHARGE>
0

> <PUBCHEM_SUBSTANCE_ID>
310942926

> <PUBCHEM_SUBSTANCE_VERSION>
1

> <PUBCHEM_EXT_DATASOURCE_NAME>
4488

> <PUBCHEM_EXT_DATASOURCE_REGID>
SCHEMBL16120984

> <PUBCHEM_SUBSTANCE_COMMENT>
InChI=1S/C16H18N8O4/c1-19-11-9(13(25)21(3)15(19)27)23(7-17-11)5-6-24-8-18-12-10(24)14(26)22(4)16(28)20(12)2/h7-8H,5-6H2,1-4H3
InChIKey=XFHJZTCQWZHTFE-UHFFFAOYSA-N

> <PUBCHEM_SUBSTANCE_SYNONYM>
SCHEMBL16120984

> <PUBCHEM_XREF_EXT_ID>
SCHEMBL16120984

> <PUBCHEM_EXT_DATASOURCE_URL>
https://www.surechembl.org/

> <PUBCHEM_EXT_SUBSTANCE_URL>
https://www.surechembl.org/chemical/SCHEMBL16120984

> <PUBCHEM_CID_ASSOCIATIONS>
1274112  1

> <PUBCHEM_COORDINATE_TYPE>
1
3

$$$$
