310949424
  -OEChem-07211613022D

 28 33  0     1  0  0  0  0  0999 V2000
    2.4454    0.7292    0.0000 O   0  0  0  0  0  0  0  0  0  0  0  0
    2.2097   -0.7439    0.0000 O   0  0  0  0  0  0  0  0  0  0  0  0
    2.2097    2.2024    0.0000 O   0  0  0  0  0  0  0  0  0  0  0  0
   -0.3536   -1.7604    0.0000 O   0  0  0  0  0  0  0  0  0  0  0  0
   -1.3111   -2.7622    0.0000 O   0  0  0  0  0  0  0  0  0  0  0  0
   -0.2946    0.3315    0.0000 C   0  0  3  0  0  0  0  0  0  0  0  0
    0.4125   -0.0663    0.0000 C   0  0  3  0  0  0  0  0  0  0  0  0
   -1.0017   -0.0810    0.0000 C   0  0  3  0  0  0  0  0  0  0  0  0
    0.2062    2.2466    0.0000 C   0  0  3  0  0  0  0  0  0  0  0  0
    1.1343    0.3462    0.0000 C   0  0  3  0  0  0  0  0  0  0  0  0
    0.3241    1.7899    0.0000 C   0  0  3  0  0  0  0  0  0  0  0  0
    0.5893    1.3332    0.0000 C   0  0  3  0  0  0  0  0  0  0  0  0
   -0.2652    1.1711    0.0000 C   0  0  0  0  0  0  0  0  0  0  0  0
    1.1491    1.1564    0.0000 C   0  0  3  0  0  0  0  0  0  0  0  0
    0.0884    0.5229    0.0000 C   0  0  0  0  0  0  0  0  0  0  0  0
   -1.0017   -0.9060    0.0000 C   0  0  3  0  0  0  0  0  0  0  0  0
    0.4272   -0.9207    0.0000 C   0  0  0  0  0  0  0  0  0  0  0  0
    1.9151    0.1105    0.0000 C   0  0  0  0  0  0  0  0  0  0  0  0
   -1.7236   -1.3332    0.0000 C   0  0  3  0  0  0  0  0  0  0  0  0
   -0.2799   -1.3332    0.0000 C   0  0  0  0  0  0  0  0  0  0  0  0
   -1.7236    0.3167    0.0000 C   0  0  0  0  0  0  0  0  0  0  0  0
    1.9151    1.3921    0.0000 C   0  0  0  0  0  0  0  0  0  0  0  0
   -1.0165    0.7587    0.0000 C   0  0  0  0  0  0  0  0  0  0  0  0
    0.1031    2.7622    0.0000 C   0  0  0  0  0  0  0  0  0  0  0  0
   -2.4454   -0.9207    0.0000 C   0  0  0  0  0  0  0  0  0  0  0  0
   -2.4454   -0.0957    0.0000 C   0  0  0  0  0  0  0  0  0  0  0  0
   -1.1343   -1.9519    0.0000 C   0  0  0  0  0  0  0  0  0  0  0  0
   -2.3128   -1.9666    0.0000 C   0  0  0  0  0  0  0  0  0  0  0  0
  1 18  1  0  0  0  0
  1 22  1  0  0  0  0
  2 18  2  0  0  0  0
  3 22  2  0  0  0  0
  4 27  2  0  0  0  0
  5 27  1  0  0  0  0
  6  7  1  0  0  0  0
  6  8  1  0  0  0  0
  6  9  1  0  0  0  0
  6 13  1  0  0  0  0
  7 10  1  0  0  0  0
  7 15  1  0  0  0  0
  7 17  1  0  0  0  0
  8 16  1  0  0  0  0
  8 21  1  0  0  0  0
  8 23  1  0  0  0  0
  9 11  1  0  0  0  0
  9 24  1  0  0  0  0
 10 14  1  0  0  0  0
 10 18  1  0  0  0  0
 11 12  1  0  0  0  0
 11 15  1  1  0  0  0
 12 13  1  0  0  0  0
 12 14  1  0  0  0  0
 14 22  1  0  0  0  0
 16 19  1  0  0  0  0
 16 20  1  0  0  0  0
 17 20  1  0  0  0  0
 19 25  1  0  0  0  0
 19 27  1  0  0  0  0
 19 28  1  0  0  0  0
 21 26  1  0  0  0  0
 25 26  1  0  0  0  0
M  END
> <PUBCHEM_COMPOUND_ID_TYPE>
0

> <PUBCHEM_TOTAL_CHARGE>
0

> <PUBCHEM_SUBSTANCE_ID>
310949424

> <PUBCHEM_SUBSTANCE_VERSION>
1

> <PUBCHEM_EXT_DATASOURCE_NAME>
4488

> <PUBCHEM_EXT_DATASOURCE_REGID>
SCHEMBL16127618

> <PUBCHEM_SUBSTANCE_COMMENT>
InChI=1S/C23H30O5/c1-11-12-9-22-8-5-14-20(2,19(26)27)6-4-7-21(14,3)23(11,22)10-13(12)15-16(22)18(25)28-17(15)24/h11-16H,4-10H2,1-3H3,(H,26,27)/t11?,12-,13?,14?,15?,16?,20?,21?,22?,23?/m0/s1
InChIKey=XYYVVPGSCACUBZ-OZSLMDLCSA-N

> <PUBCHEM_SUBSTANCE_SYNONYM>
SCHEMBL16127618

> <PUBCHEM_XREF_EXT_ID>
SCHEMBL16127618

> <PUBCHEM_EXT_DATASOURCE_URL>
https://www.surechembl.org/

> <PUBCHEM_EXT_SUBSTANCE_URL>
https://www.surechembl.org/chemical/SCHEMBL16127618

> <PUBCHEM_CID_ASSOCIATIONS>
117614875  1

> <PUBCHEM_COORDINATE_TYPE>
1
3

> <PUBCHEM_BONDANNOTATIONS>
11  15  5

$$$$
