310945041
  -OEChem-07211613022D

 41 45  0     0  0  0  0  0  0999 V2000
    4.6083    0.3043    0.0000 O   0  0  0  0  0  0  0  0  0  0  0  0
    3.8779   -0.9477    0.0000 O   0  0  0  0  0  0  0  0  0  0  0  0
   -4.3127   -1.1042    0.0000 N   0  0  0  0  0  0  0  0  0  0  0  0
   -4.7300   -0.3738    0.0000 N   0  0  0  0  0  0  0  0  0  0  0  0
   -4.5039   -3.2779    0.0000 N   0  0  0  0  0  0  0  0  0  0  0  0
   -0.5043    1.5216    0.0000 C   0  0  0  0  0  0  0  0  0  0  0  0
   -0.4696    2.3737    0.0000 C   0  0  0  0  0  0  0  0  0  0  0  0
   -1.1999    1.1216    0.0000 C   0  0  0  0  0  0  0  0  0  0  0  0
   -1.2521    2.7910    0.0000 C   0  0  0  0  0  0  0  0  0  0  0  0
    0.2435    1.1216    0.0000 C   0  0  0  0  0  0  0  0  0  0  0  0
    0.2435    2.7736    0.0000 C   0  0  0  0  0  0  0  0  0  0  0  0
   -2.6780    0.2869    0.0000 C   0  0  0  0  0  0  0  0  0  0  0  0
   -1.9476    1.5216    0.0000 C   0  0  0  0  0  0  0  0  0  0  0  0
   -1.2173    0.2869    0.0000 C   0  0  0  0  0  0  0  0  0  0  0  0
   -2.0172    2.5650    0.0000 C   0  0  0  0  0  0  0  0  0  0  0  0
   -1.4260    3.5562    0.0000 C   0  0  0  0  0  0  0  0  0  0  0  0
   -3.3910   -0.1305    0.0000 C   0  0  0  0  0  0  0  0  0  0  0  0
    0.2435    0.2869    0.0000 C   0  0  0  0  0  0  0  0  0  0  0  0
    0.9564    1.5216    0.0000 C   0  0  0  0  0  0  0  0  0  0  0  0
   -2.6433    1.1216    0.0000 C   0  0  0  0  0  0  0  0  0  0  0  0
   -1.9303   -0.1130    0.0000 C   0  0  0  0  0  0  0  0  0  0  0  0
    0.9564    2.3737    0.0000 C   0  0  0  0  0  0  0  0  0  0  0  0
    0.2608    3.5910    0.0000 C   0  0  0  0  0  0  0  0  0  0  0  0
   -2.2259    3.3475    0.0000 C   0  0  0  0  0  0  0  0  0  0  0  0
    1.6868    0.2869    0.0000 C   0  0  0  0  0  0  0  0  0  0  0  0
    0.9912   -0.1130    0.0000 C   0  0  0  0  0  0  0  0  0  0  0  0
    1.6868    1.1042    0.0000 C   0  0  0  0  0  0  0  0  0  0  0  0
   -3.4953   -0.9477    0.0000 C   0  0  0  0  0  0  0  0  0  0  0  0
   -4.1735    0.2000    0.0000 C   0  0  0  0  0  0  0  0  0  0  0  0
    1.6868    2.7736    0.0000 C   0  0  0  0  0  0  0  0  0  0  0  0
    0.9739    3.9910    0.0000 C   0  0  0  0  0  0  0  0  0  0  0  0
    1.6868    3.5910    0.0000 C   0  0  0  0  0  0  0  0  0  0  0  0
    2.4519   -0.1305    0.0000 C   0  0  0  0  0  0  0  0  0  0  0  0
   -4.6431   -1.9042    0.0000 C   0  0  0  0  0  0  0  0  0  0  0  0
    3.1476    0.2869    0.0000 C   0  0  0  0  0  0  0  0  0  0  0  0
   -4.1562   -2.5476    0.0000 C   0  0  0  0  0  0  0  0  0  0  0  0
    3.8953   -0.1130    0.0000 C   0  0  0  0  0  0  0  0  0  0  0  0
   -5.3387   -3.4171    0.0000 C   0  0  0  0  0  0  0  0  0  0  0  0
   -3.9823   -3.9910    0.0000 C   0  0  0  0  0  0  0  0  0  0  0  0
    5.3213   -0.0783    0.0000 C   0  0  0  0  0  0  0  0  0  0  0  0
    5.3387   -0.9130    0.0000 C   0  0  0  0  0  0  0  0  0  0  0  0
  1 37  1  0  0  0  0
  1 40  1  0  0  0  0
  2 37  2  0  0  0  0
  3  4  1  0  0  0  0
  3 28  1  0  0  0  0
  3 34  1  0  0  0  0
  4 29  2  0  0  0  0
  5 36  1  0  0  0  0
  5 38  1  0  0  0  0
  5 39  1  0  0  0  0
  6  7  2  0  0  0  0
  6  8  1  0  0  0  0
  6 10  1  0  0  0  0
  7  9  1  0  0  0  0
  7 11  1  0  0  0  0
  8 13  2  0  0  0  0
  8 14  1  0  0  0  0
  9 15  1  0  0  0  0
  9 16  1  0  0  0  0
 10 18  2  0  0  0  0
 10 19  1  0  0  0  0
 11 22  2  0  0  0  0
 11 23  1  0  0  0  0
 12 17  1  0  0  0  0
 12 20  2  0  0  0  0
 12 21  1  0  0  0  0
 13 20  1  0  0  0  0
 14 21  2  0  0  0  0
 15 24  1  0  0  0  0
 16 24  1  0  0  0  0
 17 28  2  0  0  0  0
 17 29  1  0  0  0  0
 18 26  1  0  0  0  0
 19 27  2  0  0  0  0
 22 30  1  0  0  0  0
 23 31  2  0  0  0  0
 25 26  2  0  0  0  0
 25 27  1  0  0  0  0
 25 33  1  0  0  0  0
 30 32  2  0  0  0  0
 31 32  1  0  0  0  0
 33 35  2  0  0  0  0
 34 36  1  0  0  0  0
 35 37  1  0  0  0  0
 40 41  1  0  0  0  0
M  END
> <PUBCHEM_COMPOUND_ID_TYPE>
0

> <PUBCHEM_TOTAL_CHARGE>
0

> <PUBCHEM_SUBSTANCE_ID>
310945041

> <PUBCHEM_SUBSTANCE_VERSION>
1

> <PUBCHEM_EXT_DATASOURCE_NAME>
4488

> <PUBCHEM_EXT_DATASOURCE_REGID>
SCHEMBL16123129

> <PUBCHEM_SUBSTANCE_COMMENT>
InChI=1S/C36H39N3O2/c1-4-41-34(40)22-15-27-13-16-31(17-14-27)36(35(30-11-8-12-30)29-9-6-5-7-10-29)32-20-18-28(19-21-32)33-25-37-39(26-33)24-23-38(2)3/h5-7,9-10,13-22,25-26,30H,4,8,11-12,23-24H2,1-3H3/b22-15+,36-35-
InChIKey=GWROTFKUQQOWSM-MYKORYCJSA-N

> <PUBCHEM_SUBSTANCE_SYNONYM>
SCHEMBL16123129

> <PUBCHEM_XREF_EXT_ID>
SCHEMBL16123129

> <PUBCHEM_EXT_DATASOURCE_URL>
https://www.surechembl.org/

> <PUBCHEM_EXT_SUBSTANCE_URL>
https://www.surechembl.org/chemical/SCHEMBL16123129

> <PUBCHEM_CID_ASSOCIATIONS>
117611169  1

> <PUBCHEM_COORDINATE_TYPE>
1
3

$$$$
