310942105
  -OEChem-07211613022D

 27 28  0     1  0  0  0  0  0999 V2000
   -0.1978   -2.5036    0.0000 F   0  0  0  0  0  0  0  0  0  0  0  0
    2.2749   -1.0695    0.0000 F   0  0  0  0  0  0  0  0  0  0  0  0
    1.4342   -2.5036    0.0000 O   0  0  0  0  0  0  0  0  0  0  0  0
   -3.9193   -0.3647    0.0000 O   0  0  0  0  0  0  0  0  0  0  0  0
   -3.5112    3.2084    0.0000 O   0  0  0  0  0  0  0  0  0  0  0  0
   -1.4342   -0.3524    0.0000 N   0  0  0  0  0  0  0  0  0  0  0  0
   -3.9069    1.0695    0.0000 N   0  0  0  0  0  0  0  0  0  0  0  0
    1.0385   -1.7866    0.0000 C   0  0  0  0  0  0  0  0  0  0  0  0
    0.2102   -1.7742    0.0000 C   0  0  0  0  0  0  0  0  0  0  0  0
   -0.1978   -1.0695    0.0000 C   0  0  0  0  0  0  0  0  0  0  0  0
    1.4465   -1.0695    0.0000 C   0  0  0  0  0  0  0  0  0  0  0  0
   -1.0262   -1.0695    0.0000 C   0  0  3  0  0  0  0  0  0  0  0  0
    0.2226   -0.3647    0.0000 C   0  0  0  0  0  0  0  0  0  0  0  0
    1.0385   -0.3647    0.0000 C   0  0  0  0  0  0  0  0  0  0  0  0
    2.2749   -2.5036    0.0000 C   0  0  0  0  0  0  0  0  0  0  0  0
   -1.4342   -1.7866    0.0000 C   0  0  0  0  0  0  0  0  0  0  0  0
    2.6829   -3.2084    0.0000 C   0  0  0  0  0  0  0  0  0  0  0  0
    2.6829   -1.7989    0.0000 C   0  0  0  0  0  0  0  0  0  0  0  0
   -2.2625   -0.3524    0.0000 C   0  0  0  0  0  0  0  0  0  0  0  0
    3.5112   -3.2084    0.0000 C   0  0  0  0  0  0  0  0  0  0  0  0
    3.5112   -1.7989    0.0000 C   0  0  0  0  0  0  0  0  0  0  0  0
   -2.2502   -1.7989    0.0000 C   0  0  0  0  0  0  0  0  0  0  0  0
    3.9193   -2.4913    0.0000 C   0  0  0  0  0  0  0  0  0  0  0  0
   -2.6581    0.3400    0.0000 C   0  0  0  0  0  0  0  0  0  0  0  0
   -3.4866    0.3771    0.0000 C   0  0  0  0  0  0  0  0  0  0  0  0
   -3.4989    1.7742    0.0000 C   0  0  0  0  0  0  0  0  0  0  0  0
   -3.9069    2.4913    0.0000 C   0  0  0  0  0  0  0  0  0  0  0  0
  1  9  1  0  0  0  0
  2 11  1  0  0  0  0
  3  8  1  0  0  0  0
  3 15  1  0  0  0  0
  4 25  2  0  0  0  0
  5 27  1  0  0  0  0
 12  6  1  6  0  0  0
  6 19  1  0  0  0  0
  7 25  1  0  0  0  0
  7 26  1  0  0  0  0
  8  9  1  0  0  0  0
  8 11  2  0  0  0  0
  9 10  2  0  0  0  0
 10 12  1  0  0  0  0
 10 13  1  0  0  0  0
 11 14  1  0  0  0  0
 12 16  1  0  0  0  0
 13 14  2  0  0  0  0
 15 17  2  0  0  0  0
 15 18  1  0  0  0  0
 16 22  1  0  0  0  0
 17 20  1  0  0  0  0
 18 21  2  0  0  0  0
 19 24  1  0  0  0  0
 20 23  2  0  0  0  0
 21 23  1  0  0  0  0
 24 25  1  0  0  0  0
 26 27  1  0  0  0  0
M  END
> <PUBCHEM_COMPOUND_ID_TYPE>
0

> <PUBCHEM_TOTAL_CHARGE>
0

> <PUBCHEM_SUBSTANCE_ID>
310942105

> <PUBCHEM_SUBSTANCE_VERSION>
1

> <PUBCHEM_EXT_DATASOURCE_NAME>
4488

> <PUBCHEM_EXT_DATASOURCE_REGID>
SCHEMBL16120140

> <PUBCHEM_SUBSTANCE_COMMENT>
InChI=1S/C20H24F2N2O3/c1-2-17(23-11-10-18(26)24-12-13-25)15-8-9-16(21)20(19(15)22)27-14-6-4-3-5-7-14/h3-9,17,23,25H,2,10-13H2,1H3,(H,24,26)/t17-/m0/s1
InChIKey=FOEJGCGNSIBDAH-KRWDZBQOSA-N

> <PUBCHEM_SUBSTANCE_SYNONYM>
SCHEMBL16120140

> <PUBCHEM_XREF_EXT_ID>
SCHEMBL16120140

> <PUBCHEM_EXT_DATASOURCE_URL>
https://www.surechembl.org/

> <PUBCHEM_EXT_SUBSTANCE_URL>
https://www.surechembl.org/chemical/SCHEMBL16120140

> <PUBCHEM_CID_ASSOCIATIONS>
117608766  1

> <PUBCHEM_COORDINATE_TYPE>
1
3

> <PUBCHEM_BONDANNOTATIONS>
12  6  6

$$$$
