310944878
  -OEChem-07211613022D

 39 43  0     0  0  0  0  0  0999 V2000
   -0.6990    2.2211    0.0000 Cl  0  0  0  0  0  0  0  0  0  0  0  0
    2.0617    2.9113    0.0000 F   0  0  0  0  0  0  0  0  0  0  0  0
    3.1590    2.6280    0.0000 F   0  0  0  0  0  0  0  0  0  0  0  0
    2.8405    1.5308    0.0000 F   0  0  0  0  0  0  0  0  0  0  0  0
    3.8846   -2.7343    0.0000 O   0  0  0  0  0  0  0  0  0  0  0  0
    4.5925   -1.4954    0.0000 O   0  0  0  0  0  0  0  0  0  0  0  0
    1.0176    0.5752    0.0000 N   0  0  0  0  0  0  0  0  0  0  0  0
   -4.5925   -2.1857    0.0000 N   0  0  0  0  0  0  0  0  0  0  0  0
   -4.1855   -2.9113    0.0000 N   0  0  0  0  0  0  0  0  0  0  0  0
   -0.4159    0.5575    0.0000 C   0  0  0  0  0  0  0  0  0  0  0  0
   -0.4336   -0.2743    0.0000 C   0  0  0  0  0  0  0  0  0  0  0  0
    0.2920    0.9645    0.0000 C   0  0  0  0  0  0  0  0  0  0  0  0
   -1.1769    0.9823    0.0000 C   0  0  0  0  0  0  0  0  0  0  0  0
   -1.1238   -0.6813    0.0000 C   0  0  0  0  0  0  0  0  0  0  0  0
    0.3097   -0.6813    0.0000 C   0  0  0  0  0  0  0  0  0  0  0  0
    0.3097    1.7963    0.0000 C   0  0  0  0  0  0  0  0  0  0  0  0
    1.7432    1.7963    0.0000 C   0  0  0  0  0  0  0  0  0  0  0  0
    0.9999    2.2034    0.0000 C   0  0  0  0  0  0  0  0  0  0  0  0
   -1.9202    0.7521    0.0000 C   0  0  0  0  0  0  0  0  0  0  0  0
   -1.3538    1.7432    0.0000 C   0  0  0  0  0  0  0  0  0  0  0  0
    1.7255    0.9468    0.0000 C   0  0  0  0  0  0  0  0  0  0  0  0
    2.4511    2.2211    0.0000 C   0  0  0  0  0  0  0  0  0  0  0  0
   -1.8671   -0.2920    0.0000 C   0  0  0  0  0  0  0  0  0  0  0  0
   -1.1415   -1.5131    0.0000 C   0  0  0  0  0  0  0  0  0  0  0  0
    0.3097   -1.5308    0.0000 C   0  0  0  0  0  0  0  0  0  0  0  0
    0.9999   -0.2920    0.0000 C   0  0  0  0  0  0  0  0  0  0  0  0
   -2.1326    1.5308    0.0000 C   0  0  0  0  0  0  0  0  0  0  0  0
   -2.5750   -1.5131    0.0000 C   0  0  0  0  0  0  0  0  0  0  0  0
   -2.5396   -0.6813    0.0000 C   0  0  0  0  0  0  0  0  0  0  0  0
   -1.8317   -1.9202    0.0000 C   0  0  0  0  0  0  0  0  0  0  0  0
   -3.2829   -1.9202    0.0000 C   0  0  0  0  0  0  0  0  0  0  0  0
    1.0176   -1.9202    0.0000 C   0  0  0  0  0  0  0  0  0  0  0  0
    1.7255   -0.6990    0.0000 C   0  0  0  0  0  0  0  0  0  0  0  0
    1.7255   -1.5131    0.0000 C   0  0  0  0  0  0  0  0  0  0  0  0
   -4.0439   -1.6017    0.0000 C   0  0  0  0  0  0  0  0  0  0  0  0
   -3.3714   -2.7520    0.0000 C   0  0  0  0  0  0  0  0  0  0  0  0
    2.4511   -1.9379    0.0000 C   0  0  0  0  0  0  0  0  0  0  0  0
    3.1413   -1.5308    0.0000 C   0  0  0  0  0  0  0  0  0  0  0  0
    3.8846   -1.9025    0.0000 C   0  0  0  0  0  0  0  0  0  0  0  0
  1 16  1  0  0  0  0
  2 22  1  0  0  0  0
  3 22  1  0  0  0  0
  4 22  1  0  0  0  0
  5 39  2  0  0  0  0
  6 39  1  0  0  0  0
  7 12  2  0  0  0  0
  7 21  1  0  0  0  0
  8  9  1  0  0  0  0
  8 35  2  0  0  0  0
  9 36  1  0  0  0  0
 10 11  2  0  0  0  0
 10 12  1  0  0  0  0
 10 13  1  0  0  0  0
 11 14  1  0  0  0  0
 11 15  1  0  0  0  0
 12 16  1  0  0  0  0
 13 19  1  0  0  0  0
 13 20  1  0  0  0  0
 14 23  2  0  0  0  0
 14 24  1  0  0  0  0
 15 25  2  0  0  0  0
 15 26  1  0  0  0  0
 16 18  2  0  0  0  0
 17 18  1  0  0  0  0
 17 21  2  0  0  0  0
 17 22  1  0  0  0  0
 19 27  1  0  0  0  0
 20 27  1  0  0  0  0
 23 29  1  0  0  0  0
 24 30  2  0  0  0  0
 25 32  1  0  0  0  0
 26 33  2  0  0  0  0
 28 29  2  0  0  0  0
 28 30  1  0  0  0  0
 28 31  1  0  0  0  0
 31 35  1  0  0  0  0
 31 36  2  0  0  0  0
 32 34  2  0  0  0  0
 33 34  1  0  0  0  0
 34 37  1  0  0  0  0
 37 38  2  0  0  0  0
 38 39  1  0  0  0  0
M  END
> <PUBCHEM_COMPOUND_ID_TYPE>
0

> <PUBCHEM_TOTAL_CHARGE>
0

> <PUBCHEM_SUBSTANCE_ID>
310944878

> <PUBCHEM_SUBSTANCE_VERSION>
1

> <PUBCHEM_EXT_DATASOURCE_NAME>
4488

> <PUBCHEM_EXT_DATASOURCE_REGID>
SCHEMBL16122962

> <PUBCHEM_SUBSTANCE_COMMENT>
InChI=1S/C30H23ClF3N3O2/c31-25-14-24(30(32,33)34)17-35-29(25)28(20-2-1-3-20)27(21-7-4-18(5-8-21)6-13-26(38)39)22-11-9-19(10-12-22)23-15-36-37-16-23/h4-17,20H,1-3H2,(H,36,37)(H,38,39)/b13-6+,28-27+
InChIKey=ZHWVYZBRVRMCNU-GWYNGDBJSA-N

> <PUBCHEM_SUBSTANCE_SYNONYM>
SCHEMBL16122962

> <PUBCHEM_XREF_EXT_ID>
SCHEMBL16122962

> <PUBCHEM_EXT_DATASOURCE_URL>
https://www.surechembl.org/

> <PUBCHEM_EXT_SUBSTANCE_URL>
https://www.surechembl.org/chemical/SCHEMBL16122962

> <PUBCHEM_CID_ASSOCIATIONS>
86271925  1

> <PUBCHEM_COORDINATE_TYPE>
1
3

$$$$
