310940900
  -OEChem-07211613022D

 22 22  0     1  0  0  0  0  0999 V2000
    0.1433   -2.3281    0.0000 O   0  0  0  0  0  0  0  0  0  0  0  0
   -1.9040    1.1924    0.0000 O   0  0  0  0  0  0  0  0  0  0  0  0
    0.2777   -0.1166    0.0000 O   0  0  0  0  0  0  0  0  0  0  0  0
   -0.4363   -1.3463    0.0000 O   0  0  0  0  0  0  0  0  0  0  0  0
   -0.3601   -3.1560    0.0000 O   0  0  0  0  0  0  0  0  0  0  0  0
    1.8445    2.3428    0.0000 O   0  0  0  0  0  0  0  0  0  0  0  0
   -1.9040   -0.4934    0.0000 N   0  0  0  0  0  0  0  0  0  0  0  0
   -1.1702   -0.0372    0.0000 C   0  0  3  0  0  0  0  0  0  0  0  0
   -1.1504    0.8156    0.0000 C   0  0  3  0  0  0  0  0  0  0  0  0
   -0.4165    1.1924    0.0000 C   0  0  0  0  0  0  0  0  0  0  0  0
   -0.4363   -0.4934    0.0000 C   0  0  0  0  0  0  0  0  0  0  0  0
   -0.3601   -2.6189    0.0000 C   0  0  0  0  0  0  0  0  0  0  0  0
    0.3372    0.7561    0.0000 C   0  0  0  0  0  0  0  0  0  0  0  0
   -0.3372    2.0453    0.0000 C   0  0  0  0  0  0  0  0  0  0  0  0
    0.1544   -1.7687    0.0000 C   0  0  0  0  0  0  0  0  0  0  0  0
    1.1107    1.9858    0.0000 C   0  0  0  0  0  0  0  0  0  0  0  0
    1.0710    1.1329    0.0000 C   0  0  0  0  0  0  0  0  0  0  0  0
    0.3769    2.4221    0.0000 C   0  0  0  0  0  0  0  0  0  0  0  0
    0.6578   -1.7463    0.0000 C   0  0  0  0  0  0  0  0  0  0  0  0
   -0.3601   -1.7687    0.0000 C   0  0  0  0  0  0  0  0  0  0  0  0
    0.1433   -1.2206    0.0000 C   0  0  0  0  0  0  0  0  0  0  0  0
    1.9040    3.1560    0.0000 C   0  0  0  0  0  0  0  0  0  0  0  0
  1 12  1  0  0  0  0
  1 15  1  0  0  0  0
  9  2  1  1  0  0  0
  3 11  2  0  0  0  0
  4 11  1  0  0  0  0
  5 12  2  0  0  0  0
  6 16  1  0  0  0  0
  6 22  1  0  0  0  0
  8  7  1  1  0  0  0
  7 12  1  0  0  0  0
  8  9  1  0  0  0  0
  8 11  1  0  0  0  0
  9 10  1  0  0  0  0
 10 13  2  0  0  0  0
 10 14  1  0  0  0  0
 13 17  1  0  0  0  0
 14 18  2  0  0  0  0
 15 19  1  0  0  0  0
 15 20  1  0  0  0  0
 15 21  1  0  0  0  0
 16 17  2  0  0  0  0
 16 18  1  0  0  0  0
M  END
> <PUBCHEM_COMPOUND_ID_TYPE>
0

> <PUBCHEM_TOTAL_CHARGE>
0

> <PUBCHEM_SUBSTANCE_ID>
310940900

> <PUBCHEM_SUBSTANCE_VERSION>
1

> <PUBCHEM_EXT_DATASOURCE_NAME>
4488

> <PUBCHEM_EXT_DATASOURCE_REGID>
SCHEMBL16118859

> <PUBCHEM_SUBSTANCE_COMMENT>
InChI=1S/C15H21NO6/c1-15(2,3)22-14(20)16-11(13(18)19)12(17)9-5-7-10(21-4)8-6-9/h5-8,11-12,17H,1-4H3,(H,16,20)(H,18,19)/t11-,12-/m0/s1
InChIKey=DKLAHKISZYXPOL-RYUDHWBXSA-N

> <PUBCHEM_SUBSTANCE_SYNONYM>
SCHEMBL16118859

> <PUBCHEM_XREF_EXT_ID>
SCHEMBL16118859

> <PUBCHEM_EXT_DATASOURCE_URL>
https://www.surechembl.org/

> <PUBCHEM_EXT_SUBSTANCE_URL>
https://www.surechembl.org/chemical/SCHEMBL16118859

> <PUBCHEM_CID_ASSOCIATIONS>
93516499  1

> <PUBCHEM_COORDINATE_TYPE>
1
3

> <PUBCHEM_BONDANNOTATIONS>
9  2  5
8  7  5

$$$$
