310945197
  -OEChem-07211613022D

 12 12  0     0  0  0  0  0  0999 V2000
   -2.6952   -0.6054    0.0000 I   0  0  0  0  0  0  0  0  0  0  0  0
   -1.6005   -0.7214    0.0000 S   0  0  0  0  0  0  0  0  0  0  0  0
    0.5391    0.4892    0.0000 N   0  0  0  0  0  0  0  0  0  0  0  0
    0.5391   -0.2903    0.0000 C   0  0  0  0  0  0  0  0  0  0  0  0
    1.2688   -0.7049    0.0000 C   0  0  0  0  0  0  0  0  0  0  0  0
    1.9489   -0.2903    0.0000 C   0  0  0  0  0  0  0  0  0  0  0  0
   -0.1576   -0.7049    0.0000 C   0  0  0  0  0  0  0  0  0  0  0  0
    1.9654    0.5224    0.0000 C   0  0  0  0  0  0  0  0  0  0  0  0
    1.2356    0.9205    0.0000 C   0  0  0  0  0  0  0  0  0  0  0  0
   -0.8873   -0.3068    0.0000 C   0  0  0  0  0  0  0  0  0  0  0  0
    2.6952   -0.7214    0.0000 C   0  0  0  0  0  0  0  0  0  0  0  0
   -2.3138   -0.3068    0.0000 C   0  0  0  0  0  0  0  0  0  0  0  0
  1 12  1  0  0  0  0
  2 10  1  0  0  0  0
  2 12  1  0  0  0  0
  3  4  2  0  0  0  0
  3  9  1  0  0  0  0
  4  5  1  0  0  0  0
  4  7  1  0  0  0  0
  5  6  2  0  0  0  0
  6  8  1  0  0  0  0
  6 11  1  0  0  0  0
  7 10  2  0  0  0  0
  8  9  2  0  0  0  0
M  END
> <PUBCHEM_COMPOUND_ID_TYPE>
0

> <PUBCHEM_TOTAL_CHARGE>
0

> <PUBCHEM_SUBSTANCE_ID>
310945197

> <PUBCHEM_SUBSTANCE_VERSION>
1

> <PUBCHEM_EXT_DATASOURCE_NAME>
4488

> <PUBCHEM_EXT_DATASOURCE_REGID>
SCHEMBL16123287

> <PUBCHEM_SUBSTANCE_COMMENT>
InChI=1S/C9H10INS/c1-8-2-4-11-9(6-8)3-5-12-7-10/h2-6H,7H2,1H3/b5-3+
InChIKey=AXKZMIJODOSVBV-HWKANZROSA-N

> <PUBCHEM_SUBSTANCE_SYNONYM>
SCHEMBL16123287

> <PUBCHEM_XREF_EXT_ID>
SCHEMBL16123287

> <PUBCHEM_EXT_DATASOURCE_URL>
https://www.surechembl.org/

> <PUBCHEM_EXT_SUBSTANCE_URL>
https://www.surechembl.org/chemical/SCHEMBL16123287

> <PUBCHEM_CID_ASSOCIATIONS>
117611281  1

> <PUBCHEM_COORDINATE_TYPE>
1
3

$$$$
