310945600
  -OEChem-07211613022D

 34 36  0     1  0  0  0  0  0999 V2000
   -2.6810   -2.4338    0.0000 O   0  0  0  0  0  0  0  0  0  0  0  0
    3.5963   -1.7711    0.0000 O   0  0  0  0  0  0  0  0  0  0  0  0
    3.1036   -2.5814    0.0000 O   0  0  0  0  0  0  0  0  0  0  0  0
   -2.6810    0.8497    0.0000 N   0  0  0  0  0  0  0  0  0  0  0  0
    0.1735    0.8497    0.0000 N   0  0  0  0  0  0  0  0  0  0  0  0
   -1.9550   -0.3877    0.0000 N   0  0  0  0  0  0  0  0  0  0  0  0
   -1.2455    2.4998    0.0000 N   0  0  0  0  0  0  0  0  0  0  0  0
    1.5925    0.0247    0.0000 N   0  0  0  0  0  0  0  0  0  0  0  0
   -3.3740    2.8628    0.0000 N   0  0  0  0  0  0  0  0  0  0  0  0
   -1.9715    1.2623    0.0000 C   0  0  0  0  0  0  0  0  0  0  0  0
   -2.6810    0.0412    0.0000 C   0  0  0  0  0  0  0  0  0  0  0  0
   -0.5525    1.2623    0.0000 C   0  0  0  0  0  0  0  0  0  0  0  0
   -1.9550    2.1038    0.0000 C   0  0  0  0  0  0  0  0  0  0  0  0
   -1.2290    0.8662    0.0000 C   0  0  0  0  0  0  0  0  0  0  0  0
    0.8995    1.2623    0.0000 C   0  0  3  0  0  0  0  0  0  0  0  0
   -2.6645   -1.6088    0.0000 C   0  0  0  0  0  0  0  0  0  0  0  0
   -1.9715   -1.1962    0.0000 C   0  0  0  0  0  0  0  0  0  0  0  0
   -3.3905   -1.1962    0.0000 C   0  0  0  0  0  0  0  0  0  0  0  0
    1.6255    0.8662    0.0000 C   0  0  3  0  0  0  0  0  0  0  0  0
   -3.3576   -0.3712    0.0000 C   0  0  0  0  0  0  0  0  0  0  0  0
   -0.5360    2.0873    0.0000 C   0  0  0  0  0  0  0  0  0  0  0  0
    0.8995    2.0873    0.0000 C   0  0  0  0  0  0  0  0  0  0  0  0
    2.3020    1.2623    0.0000 C   0  0  0  0  0  0  0  0  0  0  0  0
   -2.6810    2.4998    0.0000 C   0  0  0  0  0  0  0  0  0  0  0  0
    3.1036   -2.0558    0.0000 C   0  0  0  0  0  0  0  0  0  0  0  0
    1.6090    2.4833    0.0000 C   0  0  0  0  0  0  0  0  0  0  0  0
    2.3020    2.0873    0.0000 C   0  0  0  0  0  0  0  0  0  0  0  0
   -1.2455   -1.6418    0.0000 C   0  0  0  0  0  0  0  0  0  0  0  0
   -4.1000   -1.6418    0.0000 C   0  0  0  0  0  0  0  0  0  0  0  0
    3.6073   -1.2235    0.0000 C   0  0  0  0  0  0  0  0  0  0  0  0
   -1.9385   -2.8628    0.0000 C   0  0  0  0  0  0  0  0  0  0  0  0
    4.1000   -1.2017    0.0000 C   0  0  0  0  0  0  0  0  0  0  0  0
    3.1036   -1.2235    0.0000 C   0  0  0  0  0  0  0  0  0  0  0  0
    3.5963   -0.6870    0.0000 C   0  0  0  0  0  0  0  0  0  0  0  0
  1 16  1  0  0  0  0
  1 31  1  0  0  0  0
  2 25  1  0  0  0  0
  2 30  1  0  0  0  0
  3 25  2  0  0  0  0
  4 10  1  0  0  0  0
  4 11  1  0  0  0  0
  5 12  1  0  0  0  0
 15  5  1  6  0  0  0
  6 11  1  0  0  0  0
  6 17  2  0  0  0  0
  7 13  1  0  0  0  0
  7 21  2  0  0  0  0
 19  8  1  6  0  0  0
  8 25  1  0  0  0  0
  9 24  3  0  0  0  0
 10 13  2  0  0  0  0
 10 14  1  0  0  0  0
 11 20  2  0  0  0  0
 12 14  2  0  0  0  0
 12 21  1  0  0  0  0
 13 24  1  0  0  0  0
 15 19  1  0  0  0  0
 15 22  1  0  0  0  0
 16 17  1  0  0  0  0
 16 18  2  0  0  0  0
 17 28  1  0  0  0  0
 18 20  1  0  0  0  0
 18 29  1  0  0  0  0
 19 23  1  0  0  0  0
 22 26  1  0  0  0  0
 23 27  1  0  0  0  0
 26 27  1  0  0  0  0
 30 32  1  0  0  0  0
 30 33  1  0  0  0  0
 30 34  1  0  0  0  0
M  END
> <PUBCHEM_COMPOUND_ID_TYPE>
0

> <PUBCHEM_TOTAL_CHARGE>
0

> <PUBCHEM_SUBSTANCE_ID>
310945600

> <PUBCHEM_SUBSTANCE_VERSION>
1

> <PUBCHEM_EXT_DATASOURCE_NAME>
4488

> <PUBCHEM_EXT_DATASOURCE_REGID>
SCHEMBL16123699

> <PUBCHEM_SUBSTANCE_COMMENT>
InChI=1S/C25H34N6O3/c1-15-11-22(28-16(2)23(15)33-6)30-20-12-17(14-27-21(20)13-26)29-18-9-7-8-10-19(18)31-24(32)34-25(3,4)5/h11-12,14,18-19,29H,7-10H2,1-6H3,(H,28,30)(H,31,32)/t18-,19+/m1/s1
InChIKey=ISWSNRKKJJUABZ-MOPGFXCFSA-N

> <PUBCHEM_SUBSTANCE_SYNONYM>
SCHEMBL16123699

> <PUBCHEM_XREF_EXT_ID>
SCHEMBL16123699

> <PUBCHEM_EXT_DATASOURCE_URL>
https://www.surechembl.org/

> <PUBCHEM_EXT_SUBSTANCE_URL>
https://www.surechembl.org/chemical/SCHEMBL16123699

> <PUBCHEM_CID_ASSOCIATIONS>
117611622  1

> <PUBCHEM_COORDINATE_TYPE>
1
3

> <PUBCHEM_BONDANNOTATIONS>
15  5  6
19  8  6

$$$$
