310946672
  -OEChem-07211613022D

 21 23  0     1  0  0  0  0  0999 V2000
   -2.5307   -1.5278    0.0000 O   0  0  0  0  0  0  0  0  0  0  0  0
    1.1060    2.2401    0.0000 O   0  0  0  0  0  0  0  0  0  0  0  0
   -0.3937   -0.2343    0.0000 C   0  0  3  0  0  0  0  0  0  0  0  0
    0.3562    0.1594    0.0000 C   0  0  0  0  0  0  0  0  0  0  0  0
   -0.4124   -1.0966    0.0000 C   0  0  3  0  0  0  0  0  0  0  0  0
    1.1060   -0.2531    0.0000 C   0  0  3  0  0  0  0  0  0  0  0  0
   -1.0872   -1.5278    0.0000 C   0  0  0  0  0  0  0  0  0  0  0  0
   -1.0685    0.1406    0.0000 C   0  0  0  0  0  0  0  0  0  0  0  0
    0.3749   -1.5091    0.0000 C   0  0  0  0  0  0  0  0  0  0  0  0
    1.0685   -1.1154    0.0000 C   0  0  0  0  0  0  0  0  0  0  0  0
   -1.8184   -1.0966    0.0000 C   0  0  0  0  0  0  0  0  0  0  0  0
    0.3749    0.9842    0.0000 C   0  0  0  0  0  0  0  0  0  0  0  0
    1.7996    0.1406    0.0000 C   0  0  0  0  0  0  0  0  0  0  0  0
   -1.8184   -0.2718    0.0000 C   0  0  0  0  0  0  0  0  0  0  0  0
   -0.3749    0.5530    0.0000 C   0  0  0  0  0  0  0  0  0  0  0  0
    1.8184   -0.7217    0.0000 C   0  0  0  0  0  0  0  0  0  0  0  0
    1.0872    1.3966    0.0000 C   0  0  0  0  0  0  0  0  0  0  0  0
    1.7996    0.9842    0.0000 C   0  0  0  0  0  0  0  0  0  0  0  0
   -0.7124   -2.2213    0.0000 C   0  0  0  0  0  0  0  0  0  0  0  0
   -1.5371   -2.2401    0.0000 C   0  0  0  0  0  0  0  0  0  0  0  0
    2.5307   -1.0966    0.0000 C   0  0  0  0  0  0  0  0  0  0  0  0
  1 11  2  0  0  0  0
  2 17  2  0  0  0  0
  3  4  1  0  0  0  0
  3  5  1  0  0  0  0
  3  8  1  0  0  0  0
  3 15  1  1  0  0  0
  4  6  1  0  0  0  0
  4 12  2  0  0  0  0
  5  7  1  0  0  0  0
  5  9  1  1  0  0  0
  6 10  1  0  0  0  0
  6 13  1  0  0  0  0
  6 16  1  0  0  0  0
  7 11  1  0  0  0  0
  7 19  1  0  0  0  0
  7 20  1  0  0  0  0
  8 14  1  0  0  0  0
  9 10  1  0  0  0  0
 11 14  1  0  0  0  0
 12 17  1  0  0  0  0
 13 18  1  0  0  0  0
 16 21  3  0  0  0  0
 17 18  1  0  0  0  0
M  END
> <PUBCHEM_COMPOUND_ID_TYPE>
0

> <PUBCHEM_TOTAL_CHARGE>
0

> <PUBCHEM_SUBSTANCE_ID>
310946672

> <PUBCHEM_SUBSTANCE_VERSION>
1

> <PUBCHEM_EXT_DATASOURCE_NAME>
4488

> <PUBCHEM_EXT_DATASOURCE_REGID>
SCHEMBL16124793

> <PUBCHEM_SUBSTANCE_COMMENT>
InChI=1S/C19H24O2/c1-5-19-10-6-13(20)12-15(19)18(4)9-8-16(21)17(2,3)14(18)7-11-19/h1,12,14H,6-11H2,2-4H3/t14-,18-,19?/m0/s1
InChIKey=RYCKKVSJKKEGFF-ZWSMLAFMSA-N

> <PUBCHEM_SUBSTANCE_SYNONYM>
SCHEMBL16124793

> <PUBCHEM_XREF_EXT_ID>
SCHEMBL16124793

> <PUBCHEM_EXT_DATASOURCE_URL>
https://www.surechembl.org/

> <PUBCHEM_EXT_SUBSTANCE_URL>
https://www.surechembl.org/chemical/SCHEMBL16124793

> <PUBCHEM_CID_ASSOCIATIONS>
117612570  1

> <PUBCHEM_COORDINATE_TYPE>
1
3

> <PUBCHEM_BONDANNOTATIONS>
3  15  5
5  9  5

$$$$
