310941866
  -OEChem-07211613022D

 31 36  0     0  0  0  0  0  0999 V2000
    3.0105    1.1585    0.0000 S   0  0  0  0  0  0  0  0  0  0  0  0
    4.0775    2.1493    0.0000 F   0  0  0  0  0  0  0  0  0  0  0  0
    4.3671    0.6859    0.0000 F   0  0  0  0  0  0  0  0  0  0  0  0
   -0.9679   -1.4177    0.0000 O   0  0  0  0  0  0  0  0  0  0  0  0
    2.8428    1.9968    0.0000 O   0  0  0  0  0  0  0  0  0  0  0  0
    3.1935    0.3049    0.0000 O   0  0  0  0  0  0  0  0  0  0  0  0
    1.1661   -0.1220    0.0000 N   0  0  0  0  0  0  0  0  0  0  0  0
    1.9587   -1.2500    0.0000 N   0  0  0  0  0  0  0  0  0  0  0  0
    2.4465   -0.5487    0.0000 N   0  0  0  0  0  0  0  0  0  0  0  0
    2.2179    0.9756    0.0000 N   0  0  0  0  0  0  0  0  0  0  0  0
   -2.4160   -1.4024    0.0000 C   0  0  0  0  0  0  0  0  0  0  0  0
   -0.2516   -0.1067    0.0000 C   0  0  0  0  0  0  0  0  0  0  0  0
    1.1509   -0.9756    0.0000 C   0  0  0  0  0  0  0  0  0  0  0  0
   -0.2820   -0.9756    0.0000 C   0  0  0  0  0  0  0  0  0  0  0  0
    1.9435    0.1525    0.0000 C   0  0  0  0  0  0  0  0  0  0  0  0
    0.4498    0.3202    0.0000 C   0  0  0  0  0  0  0  0  0  0  0  0
   -1.0137    0.3354    0.0000 C   0  0  0  0  0  0  0  0  0  0  0  0
    0.4498   -1.4024    0.0000 C   0  0  0  0  0  0  0  0  0  0  0  0
   -3.9861   -1.4328    0.0000 C   0  0  0  0  0  0  0  0  0  0  0  0
   -3.6202   -1.9054    0.0000 C   0  0  0  0  0  0  0  0  0  0  0  0
   -3.2240   -0.3507    0.0000 C   0  0  0  0  0  0  0  0  0  0  0  0
   -3.2392   -1.6462    0.0000 C   0  0  0  0  0  0  0  0  0  0  0  0
   -2.7971   -2.1341    0.0000 C   0  0  0  0  0  0  0  0  0  0  0  0
   -2.4008   -0.5639    0.0000 C   0  0  0  0  0  0  0  0  0  0  0  0
   -1.7148   -0.9908    0.0000 C   0  0  0  0  0  0  0  0  0  0  0  0
   -1.7758    0.3202    0.0000 C   0  0  0  0  0  0  0  0  0  0  0  0
   -1.3948    1.0213    0.0000 C   0  0  0  0  0  0  0  0  0  0  0  0
   -4.3671   -2.1493    0.0000 C   0  0  0  0  0  0  0  0  0  0  0  0
   -3.9708   -0.5487    0.0000 C   0  0  0  0  0  0  0  0  0  0  0  0
   -3.6049   -1.0670    0.0000 C   0  0  0  0  0  0  0  0  0  0  0  0
    3.8184    1.3415    0.0000 C   0  0  0  0  0  0  0  0  0  0  0  0
  1  5  2  0  0  0  0
  1  6  2  0  0  0  0
  1 10  1  0  0  0  0
  1 31  1  0  0  0  0
  2 31  1  0  0  0  0
  3 31  1  0  0  0  0
  4 14  1  0  0  0  0
  4 25  1  0  0  0  0
  7 13  1  0  0  0  0
  7 15  1  0  0  0  0
  7 16  1  0  0  0  0
  8  9  1  0  0  0  0
  8 13  2  0  0  0  0
  9 15  2  0  0  0  0
 10 15  1  0  0  0  0
 11 22  1  0  0  0  0
 11 23  1  0  0  0  0
 11 24  1  0  0  0  0
 11 25  1  0  0  0  0
 12 14  1  0  0  0  0
 12 16  2  0  0  0  0
 12 17  1  0  0  0  0
 13 18  1  0  0  0  0
 14 18  2  0  0  0  0
 17 26  1  0  0  0  0
 17 27  1  0  0  0  0
 19 22  1  0  0  0  0
 19 28  1  1  0  0  0
 19 29  1  0  0  0  0
 20 23  1  0  0  0  0
 20 28  1  0  0  0  0
 20 30  1  0  0  0  0
 21 24  1  0  0  0  0
 21 29  1  0  0  0  0
 21 30  1  0  0  0  0
 26 27  1  0  0  0  0
M  END
> <PUBCHEM_COMPOUND_ID_TYPE>
0

> <PUBCHEM_TOTAL_CHARGE>
0

> <PUBCHEM_SUBSTANCE_ID>
310941866

> <PUBCHEM_SUBSTANCE_VERSION>
1

> <PUBCHEM_EXT_DATASOURCE_NAME>
4488

> <PUBCHEM_EXT_DATASOURCE_REGID>
SCHEMBL16119898

> <PUBCHEM_SUBSTANCE_COMMENT>
InChI=1S/C21H26F2N4O3S/c22-19(23)31(28,29)26-20-25-24-18-6-17(16(10-27(18)20)15-1-2-15)30-11-21-7-12-3-13(8-21)5-14(4-12)9-21/h6,10,12-15,19H,1-5,7-9,11H2,(H,25,26)/t12-,13?,14?,21?
InChIKey=BZAYZAJIZQCRHW-RKWOAPGASA-N

> <PUBCHEM_SUBSTANCE_SYNONYM>
SCHEMBL16119898

> <PUBCHEM_XREF_EXT_ID>
SCHEMBL16119898

> <PUBCHEM_EXT_DATASOURCE_URL>
https://www.surechembl.org/

> <PUBCHEM_EXT_SUBSTANCE_URL>
https://www.surechembl.org/chemical/SCHEMBL16119898

> <PUBCHEM_CID_ASSOCIATIONS>
117608604  1

> <PUBCHEM_COORDINATE_TYPE>
1
3

> <PUBCHEM_BONDANNOTATIONS>
19  28  5

$$$$
