310945438
  -OEChem-07211613022D

 30 33  0     0  0  0  0  0  0999 V2000
   -1.0800    1.1678    0.0000 Cl  0  0  0  0  0  0  0  0  0  0  0  0
   -1.0976   -1.8351    0.0000 Cl  0  0  0  0  0  0  0  0  0  0  0  0
    3.0467   -2.0634    0.0000 S   0  0  0  0  0  0  0  0  0  0  0  0
    0.7990    1.3960    0.0000 F   0  0  0  0  0  0  0  0  0  0  0  0
    1.6068    2.2566    0.0000 F   0  0  0  0  0  0  0  0  0  0  0  0
    2.3970    1.3960    0.0000 F   0  0  0  0  0  0  0  0  0  0  0  0
   -3.4507   -1.2029    0.0000 F   0  0  0  0  0  0  0  0  0  0  0  0
   -4.2409   -0.3249    0.0000 F   0  0  0  0  0  0  0  0  0  0  0  0
   -3.4507    0.5356    0.0000 F   0  0  0  0  0  0  0  0  0  0  0  0
    0.1493    0.3600    0.0000 N   0  0  0  0  0  0  0  0  0  0  0  0
    0.1493   -1.0448    0.0000 N   0  0  0  0  0  0  0  0  0  0  0  0
    1.5892   -1.2029    0.0000 N   0  0  0  0  0  0  0  0  0  0  0  0
    2.2917    0.0966    0.0000 N   0  0  0  0  0  0  0  0  0  0  0  0
    0.9044    0.0790    0.0000 C   0  0  0  0  0  0  0  0  0  0  0  0
    0.8868   -0.7814    0.0000 C   0  0  0  0  0  0  0  0  0  0  0  0
    1.5892    0.5005    0.0000 C   0  0  0  0  0  0  0  0  0  0  0  0
   -0.2898   -0.3600    0.0000 C   0  0  0  0  0  0  0  0  0  0  0  0
   -1.1151   -0.3600    0.0000 C   0  0  0  0  0  0  0  0  0  0  0  0
    2.2917   -0.7814    0.0000 C   0  0  0  0  0  0  0  0  0  0  0  0
    1.5892    1.3785    0.0000 C   0  0  0  0  0  0  0  0  0  0  0  0
   -1.4839    0.3776    0.0000 C   0  0  0  0  0  0  0  0  0  0  0  0
   -1.4839   -1.1151    0.0000 C   0  0  0  0  0  0  0  0  0  0  0  0
   -2.6604   -0.3600    0.0000 C   0  0  0  0  0  0  0  0  0  0  0  0
    2.9765   -1.2205    0.0000 C   0  0  0  0  0  0  0  0  0  0  0  0
   -2.2566    0.3600    0.0000 C   0  0  0  0  0  0  0  0  0  0  0  0
   -2.2741   -1.0976    0.0000 C   0  0  0  0  0  0  0  0  0  0  0  0
   -3.4682   -0.3600    0.0000 C   0  0  0  0  0  0  0  0  0  0  0  0
    3.6790   -0.8868    0.0000 C   0  0  0  0  0  0  0  0  0  0  0  0
    3.8370   -2.2566    0.0000 C   0  0  0  0  0  0  0  0  0  0  0  0
    4.2409   -1.5014    0.0000 C   0  0  0  0  0  0  0  0  0  0  0  0
  1 21  1  0  0  0  0
  2 22  1  0  0  0  0
  3 24  1  0  0  0  0
  3 29  1  0  0  0  0
  4 20  1  0  0  0  0
  5 20  1  0  0  0  0
  6 20  1  0  0  0  0
  7 27  1  0  0  0  0
  8 27  1  0  0  0  0
  9 27  1  0  0  0  0
 10 14  1  0  0  0  0
 10 17  2  0  0  0  0
 11 15  1  0  0  0  0
 11 17  1  0  0  0  0
 12 15  1  0  0  0  0
 12 19  2  0  0  0  0
 13 16  2  0  0  0  0
 13 19  1  0  0  0  0
 14 15  2  0  0  0  0
 14 16  1  0  0  0  0
 16 20  1  0  0  0  0
 17 18  1  0  0  0  0
 18 21  2  0  0  0  0
 18 22  1  0  0  0  0
 19 24  1  0  0  0  0
 21 25  1  0  0  0  0
 22 26  2  0  0  0  0
 23 25  2  0  0  0  0
 23 26  1  0  0  0  0
 23 27  1  0  0  0  0
 24 28  2  0  0  0  0
 28 30  1  0  0  0  0
 29 30  2  0  0  0  0
M  END
> <PUBCHEM_COMPOUND_ID_TYPE>
0

> <PUBCHEM_TOTAL_CHARGE>
0

> <PUBCHEM_SUBSTANCE_ID>
310945438

> <PUBCHEM_SUBSTANCE_VERSION>
1

> <PUBCHEM_EXT_DATASOURCE_NAME>
4488

> <PUBCHEM_EXT_DATASOURCE_REGID>
SCHEMBL16123536

> <PUBCHEM_SUBSTANCE_COMMENT>
InChI=1S/C17H6Cl2F6N4S/c18-7-4-6(16(20,21)22)5-8(19)10(7)14-26-11-12(17(23,24)25)27-13(28-15(11)29-14)9-2-1-3-30-9/h1-5H,(H,26,27,28,29)
InChIKey=YACCRKLHZGXOJI-UHFFFAOYSA-N

> <PUBCHEM_SUBSTANCE_SYNONYM>
SCHEMBL16123536

> <PUBCHEM_XREF_EXT_ID>
SCHEMBL16123536

> <PUBCHEM_EXT_DATASOURCE_URL>
https://www.surechembl.org/

> <PUBCHEM_EXT_SUBSTANCE_URL>
https://www.surechembl.org/chemical/SCHEMBL16123536

> <PUBCHEM_CID_ASSOCIATIONS>
117611483  1

> <PUBCHEM_COORDINATE_TYPE>
1
3

$$$$
