310932077
  -OEChem-07211613022D

 30 33  0     0  0  0  0  0  0999 V2000
    2.8556   -2.1259    0.0000 O   0  0  0  0  0  0  0  0  0  0  0  0
    0.1269   -2.3797    0.0000 O   0  0  0  0  0  0  0  0  0  0  0  0
    7.3294   -2.2211    0.0000 O   0  0  0  0  0  0  0  0  0  0  0  0
    3.7440   -0.9836    0.0000 N   0  0  0  0  0  0  0  0  0  0  0  0
    3.6805   -0.1586    0.0000 N   0  0  0  0  0  0  0  0  0  0  0  0
    5.2036   -0.9836    0.0000 N   0  0  0  0  0  0  0  0  0  0  0  0
    0.0000   -0.9836    0.0000 N   0  0  0  0  0  0  0  0  0  0  0  0
    6.6313   -3.4584    0.0000 N   0  0  0  0  0  0  0  0  0  0  0  0
    2.4432   -0.7297    0.0000 C   0  0  0  0  0  0  0  0  0  0  0  0
    3.0143   -1.3326    0.0000 C   0  0  0  0  0  0  0  0  0  0  0  0
    4.4738   -1.3961    0.0000 C   0  0  0  0  0  0  0  0  0  0  0  0
    1.6182   -0.8249    0.0000 C   0  0  0  0  0  0  0  0  0  0  0  0
    2.8556    0.0000    0.0000 C   0  0  0  0  0  0  0  0  0  0  0  0
    4.4738   -2.2211    0.0000 C   0  0  0  0  0  0  0  0  0  0  0  0
    5.9016   -2.2211    0.0000 C   0  0  0  0  0  0  0  0  0  0  0  0
    1.3009   -1.5865    0.0000 C   0  0  0  0  0  0  0  0  0  0  0  0
    1.1422   -0.1586    0.0000 C   0  0  0  0  0  0  0  0  0  0  0  0
    5.9016   -1.3961    0.0000 C   0  0  0  0  0  0  0  0  0  0  0  0
    5.2036   -2.6335    0.0000 C   0  0  0  0  0  0  0  0  0  0  0  0
    0.4759   -1.6499    0.0000 C   0  0  0  0  0  0  0  0  0  0  0  0
    6.6313   -2.6335    0.0000 C   0  0  0  0  0  0  0  0  0  0  0  0
    0.3173   -0.2221    0.0000 C   0  0  0  0  0  0  0  0  0  0  0  0
    7.3294   -3.8709    0.0000 C   0  0  0  0  0  0  0  0  0  0  0  0
    8.0592   -3.4902    0.0000 C   0  0  0  0  0  0  0  0  0  0  0  0
    7.3611   -4.6959    0.0000 C   0  0  0  0  0  0  0  0  0  0  0  0
    8.7889   -4.7276    0.0000 C   0  0  0  0  0  0  0  0  0  0  0  0
    8.7889   -3.8709    0.0000 C   0  0  0  0  0  0  0  0  0  0  0  0
    8.0592   -5.1084    0.0000 C   0  0  0  0  0  0  0  0  0  0  0  0
    0.6028   -3.0777    0.0000 C   0  0  0  0  0  0  0  0  0  0  0  0
    9.5187   -5.1084    0.0000 C   0  0  0  0  0  0  0  0  0  0  0  0
  1 10  1  0  0  0  0
  2 20  1  0  0  0  0
  2 29  1  0  0  0  0
  3 21  2  0  0  0  0
  4  5  1  0  0  0  0
  4 10  1  0  0  0  0
  4 11  1  0  0  0  0
  5 13  2  0  0  0  0
  6 11  2  0  0  0  0
  6 18  1  0  0  0  0
  7 20  1  0  0  0  0
  7 22  2  0  0  0  0
  8 21  1  0  0  0  0
  8 23  1  0  0  0  0
  9 10  2  0  0  0  0
  9 12  1  0  0  0  0
  9 13  1  0  0  0  0
 11 14  1  0  0  0  0
 12 16  1  0  0  0  0
 12 17  2  0  0  0  0
 14 19  2  0  0  0  0
 15 18  2  0  0  0  0
 15 19  1  0  0  0  0
 15 21  1  0  0  0  0
 16 20  2  0  0  0  0
 17 22  1  0  0  0  0
 23 24  1  0  0  0  0
 23 25  1  0  0  0  0
 24 27  1  0  0  0  0
 25 28  1  0  0  0  0
 26 27  1  0  0  0  0
 26 28  1  0  0  0  0
 26 30  1  0  0  0  0
M  END
> <PUBCHEM_COMPOUND_ID_TYPE>
0

> <PUBCHEM_TOTAL_CHARGE>
0

> <PUBCHEM_SUBSTANCE_ID>
310932077

> <PUBCHEM_SUBSTANCE_VERSION>
1

> <PUBCHEM_EXT_DATASOURCE_NAME>
4488

> <PUBCHEM_EXT_DATASOURCE_REGID>
SCHEMBL16109424

> <PUBCHEM_SUBSTANCE_COMMENT>
InChI=1S/C22H25N5O3/c1-14-3-6-17(7-4-14)26-21(28)16-5-8-19(24-12-16)27-22(29)18(13-25-27)15-9-10-23-20(11-15)30-2/h5,8-14,17,29H,3-4,6-7H2,1-2H3,(H,26,28)
InChIKey=JQOIPUXSGKVWGQ-UHFFFAOYSA-N

> <PUBCHEM_SUBSTANCE_SYNONYM>
SCHEMBL16109424

> <PUBCHEM_XREF_EXT_ID>
SCHEMBL16109424

> <PUBCHEM_EXT_DATASOURCE_URL>
https://www.surechembl.org/

> <PUBCHEM_EXT_SUBSTANCE_URL>
https://www.surechembl.org/chemical/SCHEMBL16109424

> <PUBCHEM_CID_ASSOCIATIONS>
117600704  1

> <PUBCHEM_COORDINATE_TYPE>
1
3

$$$$
