310946938
  -OEChem-07211613022D

 41 45  0     0  0  0  0  0  0999 V2000
   -0.6227    4.2778    0.0000 F   0  0  0  0  0  0  0  0  0  0  0  0
    0.1213    1.4960    0.0000 F   0  0  0  0  0  0  0  0  0  0  0  0
   -0.0081   -4.2778    0.0000 O   0  0  0  0  0  0  0  0  0  0  0  0
    2.1429    3.5338    0.0000 O   0  0  0  0  0  0  0  0  0  0  0  0
   -0.2830   -0.4933    0.0000 N   0  0  0  0  0  0  0  0  0  0  0  0
   -0.4447   -2.6767    0.0000 N   0  0  0  0  0  0  0  0  0  0  0  0
   -1.6900   -0.8653    0.0000 N   0  0  0  0  0  0  0  0  0  0  0  0
    0.7359   -1.5122    0.0000 N   0  0  0  0  0  0  0  0  0  0  0  0
   -1.3020    1.8680    0.0000 N   0  0  0  0  0  0  0  0  0  0  0  0
   -2.0459   -2.2561    0.0000 N   0  0  0  0  0  0  0  0  0  0  0  0
   -0.8167    1.1887    0.0000 N   0  0  0  0  0  0  0  0  0  0  0  0
    2.5149    0.2506    0.0000 N   0  0  0  0  0  0  0  0  0  0  0  0
   -0.6712   -1.8518    0.0000 C   0  0  0  0  0  0  0  0  0  0  0  0
   -0.0728   -1.2534    0.0000 C   0  0  0  0  0  0  0  0  0  0  0  0
   -1.1079   -0.2345    0.0000 C   0  0  0  0  0  0  0  0  0  0  0  0
   -1.4637   -1.6254    0.0000 C   0  0  0  0  0  0  0  0  0  0  0  0
   -1.3181    0.5256    0.0000 C   0  0  0  0  0  0  0  0  0  0  0  0
   -2.1106    0.8167    0.0000 C   0  0  0  0  0  0  0  0  0  0  0  0
   -2.0944    1.6415    0.0000 C   0  0  0  0  0  0  0  0  0  0  0  0
    0.3639   -2.8869    0.0000 C   0  0  0  0  0  0  0  0  0  0  0  0
   -1.0270   -3.2427    0.0000 C   0  0  0  0  0  0  0  0  0  0  0  0
    1.3343   -0.8976    0.0000 C   0  0  0  0  0  0  0  0  0  0  0  0
   -2.8061    0.3962    0.0000 C   0  0  0  0  0  0  0  0  0  0  0  0
   -0.2668    2.9354    0.0000 C   0  0  0  0  0  0  0  0  0  0  0  0
   -2.8061    2.0297    0.0000 C   0  0  0  0  0  0  0  0  0  0  0  0
   -0.0566    3.7117    0.0000 C   0  0  0  0  0  0  0  0  0  0  0  0
    0.2992    2.3208    0.0000 C   0  0  0  0  0  0  0  0  0  0  0  0
   -1.0755    2.6928    0.0000 C   0  0  0  0  0  0  0  0  0  0  0  0
   -3.5338    0.8006    0.0000 C   0  0  0  0  0  0  0  0  0  0  0  0
    0.5741   -3.6632    0.0000 C   0  0  0  0  0  0  0  0  0  0  0  0
   -0.8329   -4.0190    0.0000 C   0  0  0  0  0  0  0  0  0  0  0  0
    1.3343    3.3397    0.0000 C   0  0  0  0  0  0  0  0  0  0  0  0
   -3.5500    1.6254    0.0000 C   0  0  0  0  0  0  0  0  0  0  0  0
    0.7359    3.9220    0.0000 C   0  0  0  0  0  0  0  0  0  0  0  0
    1.1079    2.5473    0.0000 C   0  0  0  0  0  0  0  0  0  0  0  0
    1.1241   -0.1213    0.0000 C   0  0  0  0  0  0  0  0  0  0  0  0
    2.1429   -1.1079    0.0000 C   0  0  0  0  0  0  0  0  0  0  0  0
    1.6900    0.4771    0.0000 C   0  0  0  0  0  0  0  0  0  0  0  0
    2.7252   -0.5094    0.0000 C   0  0  0  0  0  0  0  0  0  0  0  0
    2.7737    2.9678    0.0000 C   0  0  0  0  0  0  0  0  0  0  0  0
    3.5500    3.1618    0.0000 C   0  0  0  0  0  0  0  0  0  0  0  0
  1 26  1  0  0  0  0
  2 27  1  0  0  0  0
  3 30  1  0  0  0  0
  3 31  1  0  0  0  0
  4 32  1  0  0  0  0
  4 40  1  0  0  0  0
  5 14  1  0  0  0  0
  5 15  2  0  0  0  0
  6 13  1  0  0  0  0
  6 20  1  0  0  0  0
  6 21  1  0  0  0  0
  7 15  1  0  0  0  0
  7 16  2  0  0  0  0
  8 14  1  0  0  0  0
  8 22  1  0  0  0  0
  9 19  1  0  0  0  0
  9 28  1  0  0  0  0
 10 16  1  0  0  0  0
 11 17  2  3  0  0  0
 12 38  2  0  0  0  0
 12 39  1  0  0  0  0
 13 14  2  0  0  0  0
 13 16  1  0  0  0  0
 15 17  1  0  0  0  0
 17 18  1  0  0  0  0
 18 19  2  0  0  0  0
 18 23  1  0  0  0  0
 19 25  1  0  0  0  0
 20 30  1  0  0  0  0
 21 31  1  0  0  0  0
 22 36  2  0  0  0  0
 22 37  1  0  0  0  0
 23 29  2  0  0  0  0
 24 26  2  0  0  0  0
 24 27  1  0  0  0  0
 24 28  1  0  0  0  0
 25 33  2  0  0  0  0
 26 34  1  0  0  0  0
 27 35  2  0  0  0  0
 29 33  1  0  0  0  0
 32 34  2  0  0  0  0
 32 35  1  0  0  0  0
 36 38  1  0  0  0  0
 37 39  2  0  0  0  0
 40 41  1  0  0  0  0
M  END
> <PUBCHEM_COMPOUND_ID_TYPE>
0

> <PUBCHEM_TOTAL_CHARGE>
0

> <PUBCHEM_SUBSTANCE_ID>
310946938

> <PUBCHEM_SUBSTANCE_VERSION>
1

> <PUBCHEM_EXT_DATASOURCE_NAME>
4488

> <PUBCHEM_EXT_DATASOURCE_REGID>
SCHEMBL16125063

> <PUBCHEM_SUBSTANCE_COMMENT>
InChI=1S/C29H30F2N8O2/c1-2-41-19-15-22(30)21(23(31)16-19)17-35-24-6-4-3-5-20(24)25(32)28-37-27(33)26(39-11-13-40-14-12-39)29(38-28)36-18-7-9-34-10-8-18/h3-10,15-16,32,35H,2,11-14,17H2,1H3,(H3,33,34,36,37,38)
InChIKey=GSOLVBQHRSCHJL-UHFFFAOYSA-N

> <PUBCHEM_SUBSTANCE_SYNONYM>
SCHEMBL16125063

> <PUBCHEM_XREF_EXT_ID>
SCHEMBL16125063

> <PUBCHEM_EXT_DATASOURCE_URL>
https://www.surechembl.org/

> <PUBCHEM_EXT_SUBSTANCE_URL>
https://www.surechembl.org/chemical/SCHEMBL16125063

> <PUBCHEM_CID_ASSOCIATIONS>
117612794  1

> <PUBCHEM_COORDINATE_TYPE>
1
3

$$$$
