310934902
  -OEChem-07211613022D

 39 44  0     0  0  0  0  0  0999 V2000
    2.0218  -11.4133    0.0000 O   0  0  0  0  0  0  0  0  0  0  0  0
    0.5870  -11.4133    0.0000 O   0  0  0  0  0  0  0  0  0  0  0  0
    0.5870   -3.9784    0.0000 N   0  0  0  0  0  0  0  0  0  0  0  0
    0.0000   -3.4566    0.0000 N   0  0  0  0  0  0  0  0  0  0  0  0
    2.0218   -3.9784    0.0000 N   0  0  0  0  0  0  0  0  0  0  0  0
    2.8044   -0.9783    0.0000 N   0  0  0  0  0  0  0  0  0  0  0  0
    1.3044   -8.5437    0.0000 N   0  0  0  0  0  0  0  0  0  0  0  0
    1.3044  -10.1742    0.0000 N   0  0  0  0  0  0  0  0  0  0  0  0
    1.1739   -2.8044    0.0000 C   0  0  0  0  0  0  0  0  0  0  0  0
    1.3696   -3.5871    0.0000 C   0  0  0  0  0  0  0  0  0  0  0  0
    1.6957   -2.1523    0.0000 C   0  0  0  0  0  0  0  0  0  0  0  0
    2.5436   -2.3479    0.0000 C   0  0  0  0  0  0  0  0  0  0  0  0
    0.3261   -2.6740    0.0000 C   0  0  0  0  0  0  0  0  0  0  0  0
    1.3044   -5.2176    0.0000 C   0  0  0  0  0  0  0  0  0  0  0  0
    3.0653   -1.7609    0.0000 C   0  0  0  0  0  0  0  0  0  0  0  0
    0.5870   -4.8262    0.0000 C   0  0  0  0  0  0  0  0  0  0  0  0
    1.4348   -1.3696    0.0000 C   0  0  0  0  0  0  0  0  0  0  0  0
    1.3044   -6.0654    0.0000 C   0  0  0  0  0  0  0  0  0  0  0  0
    2.0218   -4.8262    0.0000 C   0  0  0  0  0  0  0  0  0  0  0  0
    2.0218   -0.7826    0.0000 C   0  0  0  0  0  0  0  0  0  0  0  0
    2.7392   -3.1305    0.0000 C   0  0  0  0  0  0  0  0  0  0  0  0
    3.8479   -1.8913    0.0000 C   0  0  0  0  0  0  0  0  0  0  0  0
    1.3044   -7.6959    0.0000 C   0  0  0  0  0  0  0  0  0  0  0  0
    0.5870   -6.4567    0.0000 C   0  0  0  0  0  0  0  0  0  0  0  0
    2.0218   -6.4567    0.0000 C   0  0  0  0  0  0  0  0  0  0  0  0
    3.5871   -3.2610    0.0000 C   0  0  0  0  0  0  0  0  0  0  0  0
    0.5870   -7.3046    0.0000 C   0  0  0  0  0  0  0  0  0  0  0  0
    2.0218   -7.3046    0.0000 C   0  0  0  0  0  0  0  0  0  0  0  0
    4.1088   -2.6740    0.0000 C   0  0  0  0  0  0  0  0  0  0  0  0
    1.7609    0.0000    0.0000 C   0  0  0  0  0  0  0  0  0  0  0  0
    0.5870   -8.9351    0.0000 C   0  0  0  0  0  0  0  0  0  0  0  0
    2.0218   -8.9351    0.0000 C   0  0  0  0  0  0  0  0  0  0  0  0
    2.0218   -9.7829    0.0000 C   0  0  0  0  0  0  0  0  0  0  0  0
    0.5870   -9.7829    0.0000 C   0  0  0  0  0  0  0  0  0  0  0  0
    1.3044  -11.0220    0.0000 C   0  0  0  0  0  0  0  0  0  0  0  0
    2.0218  -12.1960    0.0000 C   0  0  0  0  0  0  0  0  0  0  0  0
    1.1739  -12.1960    0.0000 C   0  0  0  0  0  0  0  0  0  0  0  0
    2.0218  -13.0438    0.0000 C   0  0  0  0  0  0  0  0  0  0  0  0
    2.8044  -12.1960    0.0000 C   0  0  0  0  0  0  0  0  0  0  0  0
  1 35  1  0  0  0  0
  1 36  1  0  0  0  0
  2 35  2  0  0  0  0
  3  4  1  0  0  0  0
  3 10  1  0  0  0  0
  3 16  1  0  0  0  0
  4 13  2  0  0  0  0
  5 10  1  0  0  0  0
  5 19  2  0  0  0  0
  6 15  2  0  0  0  0
  6 20  1  0  0  0  0
  7 23  1  0  0  0  0
  7 31  1  0  0  0  0
  7 32  1  0  0  0  0
  8 33  1  0  0  0  0
  8 34  1  0  0  0  0
  8 35  1  0  0  0  0
  9 10  2  0  0  0  0
  9 11  1  0  0  0  0
  9 13  1  0  0  0  0
 11 12  2  0  0  0  0
 11 17  1  0  0  0  0
 12 15  1  0  0  0  0
 12 21  1  0  0  0  0
 14 16  2  0  0  0  0
 14 18  1  0  0  0  0
 14 19  1  0  0  0  0
 15 22  1  0  0  0  0
 17 20  2  0  0  0  0
 18 24  2  0  0  0  0
 18 25  1  0  0  0  0
 20 30  1  0  0  0  0
 21 26  2  0  0  0  0
 22 29  2  0  0  0  0
 23 27  2  0  0  0  0
 23 28  1  0  0  0  0
 24 27  1  0  0  0  0
 25 28  2  0  0  0  0
 26 29  1  0  0  0  0
 31 34  1  0  0  0  0
 32 33  1  0  0  0  0
 36 37  1  0  0  0  0
 36 38  1  0  0  0  0
 36 39  1  0  0  0  0
M  END
> <PUBCHEM_COMPOUND_ID_TYPE>
0

> <PUBCHEM_TOTAL_CHARGE>
0

> <PUBCHEM_SUBSTANCE_ID>
310934902

> <PUBCHEM_SUBSTANCE_VERSION>
1

> <PUBCHEM_EXT_DATASOURCE_NAME>
4488

> <PUBCHEM_EXT_DATASOURCE_REGID>
SCHEMBL16112415

> <PUBCHEM_SUBSTANCE_COMMENT>
InChI=1S/C31H32N6O2/c1-21-17-26(25-7-5-6-8-28(25)34-21)27-19-33-37-20-23(18-32-29(27)37)22-9-11-24(12-10-22)35-13-15-36(16-14-35)30(38)39-31(2,3)4/h5-12,17-20H,13-16H2,1-4H3
InChIKey=UJYOBVKEIWGRGZ-UHFFFAOYSA-N

> <PUBCHEM_SUBSTANCE_SYNONYM>
SCHEMBL16112415

> <PUBCHEM_XREF_EXT_ID>
SCHEMBL16112415

> <PUBCHEM_EXT_DATASOURCE_URL>
https://www.surechembl.org/

> <PUBCHEM_EXT_SUBSTANCE_URL>
https://www.surechembl.org/chemical/SCHEMBL16112415

> <PUBCHEM_CID_ASSOCIATIONS>
117603029  1

> <PUBCHEM_COORDINATE_TYPE>
1
3

$$$$
