310946988
  -OEChem-07211613022D

 14 13  0     0  0  0  0  0  0999 V2000
    2.0650    0.4281    0.0000 O   0  0  0  0  0  0  0  0  0  0  0  0
    2.8960   -0.9066    0.0000 O   0  0  0  0  0  0  0  0  0  0  0  0
   -0.2267    0.1007    0.0000 C   0  0  0  0  0  0  0  0  0  0  0  0
   -1.3850    0.1007    0.0000 C   0  0  0  0  0  0  0  0  0  0  0  0
   -0.8058    0.4281    0.0000 C   0  0  0  0  0  0  0  0  0  0  0  0
    0.6548   -0.4030    0.0000 C   0  0  0  0  0  0  0  0  0  0  0  0
   -2.2412   -0.4030    0.0000 C   0  0  0  0  0  0  0  0  0  0  0  0
   -0.3526   -0.4030    0.0000 C   0  0  0  0  0  0  0  0  0  0  0  0
   -0.3526    0.8813    0.0000 C   0  0  0  0  0  0  0  0  0  0  0  0
   -1.2087   -0.3777    0.0000 C   0  0  0  0  0  0  0  0  0  0  0  0
   -1.2087    0.9066    0.0000 C   0  0  0  0  0  0  0  0  0  0  0  0
    2.8960   -0.0504    0.0000 C   0  0  0  0  0  0  0  0  0  0  0  0
   -3.6515    0.5037    0.0000 C   0  0  0  0  0  0  0  0  0  0  0  0
    3.6515    0.4281    0.0000 C   0  0  0  0  0  0  0  0  0  0  0  0
  1  6  1  0  0  0  0
  1 12  1  0  0  0  0
  2 12  2  0  0  0  0
  3  5  1  0  0  0  0
  3  6  1  0  0  0  0
  3  8  1  0  0  0  0
  3  9  1  0  0  0  0
  4  5  1  0  0  0  0
  4  7  1  0  0  0  0
  4 10  1  0  0  0  0
  4 11  1  0  0  0  0
  7 13  2  0  0  0  0
 12 14  1  0  0  0  0
M  END
> <PUBCHEM_COMPOUND_ID_TYPE>
0

> <PUBCHEM_TOTAL_CHARGE>
0

> <PUBCHEM_SUBSTANCE_ID>
310946988

> <PUBCHEM_SUBSTANCE_VERSION>
1

> <PUBCHEM_EXT_DATASOURCE_NAME>
4488

> <PUBCHEM_EXT_DATASOURCE_REGID>
SCHEMBL16125130

> <PUBCHEM_SUBSTANCE_COMMENT>
InChI=1S/C12H22O2/c1-7-11(3,4)8-12(5,6)9-14-10(2)13/h7H,1,8-9H2,2-6H3
InChIKey=KJZNATDRUZUMPR-UHFFFAOYSA-N

> <PUBCHEM_SUBSTANCE_SYNONYM>
SCHEMBL16125130

> <PUBCHEM_XREF_EXT_ID>
SCHEMBL16125130

> <PUBCHEM_EXT_DATASOURCE_URL>
https://www.surechembl.org/

> <PUBCHEM_EXT_SUBSTANCE_URL>
https://www.surechembl.org/chemical/SCHEMBL16125130

> <PUBCHEM_CID_ASSOCIATIONS>
117612841  1

> <PUBCHEM_COORDINATE_TYPE>
1
3

$$$$
