310943798
  -OEChem-07211613022D

 24 26  0     1  0  0  0  0  0999 V2000
   -1.8861    1.7864    0.0000 O   0  0  0  0  0  0  0  0  0  0  0  0
    0.3572   -1.8694    0.0000 N   0  0  0  0  0  0  0  0  0  0  0  0
   -0.3074   -2.3680    0.0000 N   0  0  0  0  0  0  0  0  0  0  0  0
    1.4042   -0.4902    0.0000 N   0  0  3  0  0  0  0  0  0  0  0  0
    3.1821    0.7727    0.0000 N   0  0  0  0  0  0  0  0  0  0  0  0
   -2.1353    1.0054    0.0000 C   0  0  0  0  0  0  0  0  0  0  0  0
   -3.2320    1.8029    0.0000 C   0  0  0  0  0  0  0  0  0  0  0  0
   -1.1881   -0.3406    0.0000 C   0  0  0  0  0  0  0  0  0  0  0  0
   -2.9661    1.0219    0.0000 C   0  0  0  0  0  0  0  0  0  0  0  0
   -0.6730   -1.0552    0.0000 C   0  0  0  0  0  0  0  0  0  0  0  0
   -2.4677    0.2410    0.0000 C   0  0  0  0  0  0  0  0  0  0  0  0
   -1.3210    1.0884    0.0000 C   0  0  0  0  0  0  0  0  0  0  0  0
    0.1080   -1.0385    0.0000 C   0  0  0  0  0  0  0  0  0  0  0  0
   -2.5507    2.3014    0.0000 C   0  0  0  0  0  0  0  0  0  0  0  0
   -2.0023   -0.4238    0.0000 C   0  0  0  0  0  0  0  0  0  0  0  0
   -0.8558    0.4071    0.0000 C   0  0  0  0  0  0  0  0  0  0  0  0
   -0.9555   -1.8362    0.0000 C   0  0  0  0  0  0  0  0  0  0  0  0
    0.6232   -0.3572    0.0000 C   0  0  0  0  0  0  0  0  0  0  0  0
   -4.0296    1.6035    0.0000 C   0  0  0  0  0  0  0  0  0  0  0  0
   -3.8468    2.3680    0.0000 C   0  0  0  0  0  0  0  0  0  0  0  0
    1.9192    0.2244    0.0000 C   0  0  0  0  0  0  0  0  0  0  0  0
    1.7697   -1.2379    0.0000 C   0  0  0  0  0  0  0  0  0  0  0  0
    2.7169    0.1413    0.0000 C   0  0  0  0  0  0  0  0  0  0  0  0
    4.0296    0.7229    0.0000 C   0  0  0  0  0  0  0  0  0  0  0  0
  6  1  1  1  0  0  0
  1 14  1  0  0  0  0
  2  3  1  0  0  0  0
  2 13  2  0  0  0  0
  3 17  1  0  0  0  0
  4 18  1  0  0  0  0
  4 21  1  0  0  0  0
  4 22  1  0  0  0  0
  5 23  1  0  0  0  0
  5 24  1  0  0  0  0
  6  9  1  0  0  0  0
  6 11  1  0  0  0  0
  6 12  1  0  0  0  0
  7  9  1  0  0  0  0
  7 14  1  0  0  0  0
  7 19  1  0  0  0  0
  7 20  1  0  0  0  0
  8 10  1  1  0  0  0
  8 15  1  0  0  0  0
  8 16  1  0  0  0  0
 10 13  1  0  0  0  0
 10 17  2  0  0  0  0
 11 15  1  0  0  0  0
 12 16  1  0  0  0  0
 13 18  1  0  0  0  0
 21 23  1  0  0  0  0
M  END
> <PUBCHEM_COMPOUND_ID_TYPE>
0

> <PUBCHEM_TOTAL_CHARGE>
0

> <PUBCHEM_SUBSTANCE_ID>
310943798

> <PUBCHEM_SUBSTANCE_VERSION>
1

> <PUBCHEM_EXT_DATASOURCE_NAME>
4488

> <PUBCHEM_EXT_DATASOURCE_REGID>
SCHEMBL16121869

> <PUBCHEM_SUBSTANCE_COMMENT>
InChI=1S/C19H34N4O/c1-18(2)13-19(24-14-18)7-5-15(6-8-19)16-11-21-22-17(16)12-23(4)10-9-20-3/h11,15,20H,5-10,12-14H2,1-4H3,(H,21,22)/t15-,19+
InChIKey=FAYLBCUQPAOZQJ-GLRZTSSQSA-N

> <PUBCHEM_SUBSTANCE_SYNONYM>
SCHEMBL16121869

> <PUBCHEM_XREF_EXT_ID>
SCHEMBL16121869

> <PUBCHEM_EXT_DATASOURCE_URL>
https://www.surechembl.org/

> <PUBCHEM_EXT_SUBSTANCE_URL>
https://www.surechembl.org/chemical/SCHEMBL16121869

> <PUBCHEM_CID_ASSOCIATIONS>
90461162  1

> <PUBCHEM_COORDINATE_TYPE>
1
3

> <PUBCHEM_BONDANNOTATIONS>
6  1  5
8  10  5

$$$$
