310945404
  -OEChem-07211613022D

 36 39  0     1  0  0  0  0  0999 V2000
    4.7827    0.7956    0.0000 S   0  0  0  0  0  0  0  0  0  0  0  0
   -0.1698   -1.2426    0.0000 O   0  0  0  0  0  0  0  0  0  0  0  0
   -1.2426   -1.8684    0.0000 O   0  0  0  0  0  0  0  0  0  0  0  0
   -5.5516   -1.9041    0.0000 O   0  0  0  0  0  0  0  0  0  0  0  0
    0.9923    0.4738    0.0000 O   0  0  0  0  0  0  0  0  0  0  0  0
    2.1902    2.3154    0.0000 O   0  0  0  0  0  0  0  0  0  0  0  0
    4.5682    1.5287    0.0000 O   0  0  0  0  0  0  0  0  0  0  0  0
    5.0151    0.0268    0.0000 O   0  0  0  0  0  0  0  0  0  0  0  0
    5.5516    1.0102    0.0000 O   0  0  0  0  0  0  0  0  0  0  0  0
    2.6014    0.9387    0.0000 N   0  0  0  0  0  0  0  0  0  0  0  0
   -1.2426    0.6526    0.0000 C   0  0  3  0  0  0  0  0  0  0  0  0
   -1.2426   -0.1877    0.0000 C   0  0  3  0  0  0  0  0  0  0  0  0
   -1.9578   -0.6347    0.0000 C   0  0  3  0  0  0  0  0  0  0  0  0
   -2.6730   -0.2235    0.0000 C   0  0  3  0  0  0  0  0  0  0  0  0
   -3.4060   -0.6168    0.0000 C   0  0  3  0  0  0  0  0  0  0  0  0
   -0.4738    0.9029    0.0000 C   0  0  3  0  0  0  0  0  0  0  0  0
   -0.4381   -0.4381    0.0000 C   0  0  3  0  0  0  0  0  0  0  0  0
   -1.9578   -1.4750    0.0000 C   0  0  3  0  0  0  0  0  0  0  0  0
   -3.3881   -1.4929    0.0000 C   0  0  3  0  0  0  0  0  0  0  0  0
   -1.9936    1.0102    0.0000 C   0  0  0  0  0  0  0  0  0  0  0  0
   -2.6909    0.5989    0.0000 C   0  0  0  0  0  0  0  0  0  0  0  0
    0.0268    0.2235    0.0000 C   0  0  0  0  0  0  0  0  0  0  0  0
   -2.6372   -1.8684    0.0000 C   0  0  0  0  0  0  0  0  0  0  0  0
   -0.1877    1.6896    0.0000 C   0  0  3  0  0  0  0  0  0  0  0  0
   -4.1033   -0.2593    0.0000 C   0  0  0  0  0  0  0  0  0  0  0  0
   -1.2605    1.4750    0.0000 C   0  0  0  0  0  0  0  0  0  0  0  0
   -4.1033   -1.9041    0.0000 C   0  0  0  0  0  0  0  0  0  0  0  0
   -3.4060    0.1877    0.0000 C   0  0  0  0  0  0  0  0  0  0  0  0
   -4.8363   -1.4750    0.0000 C   0  0  3  0  0  0  0  0  0  0  0  0
   -4.8363   -0.6526    0.0000 C   0  0  0  0  0  0  0  0  0  0  0  0
    0.6168    1.8505    0.0000 C   0  0  0  0  0  0  0  0  0  0  0  0
   -0.7956    2.2618    0.0000 C   0  0  0  0  0  0  0  0  0  0  0  0
    1.1890    1.3142    0.0000 C   0  0  3  0  0  0  0  0  0  0  0  0
    1.9936    1.4750    0.0000 C   0  0  0  0  0  0  0  0  0  0  0  0
    3.4060    1.1532    0.0000 C   0  0  0  0  0  0  0  0  0  0  0  0
    4.0139    0.5632    0.0000 C   0  0  0  0  0  0  0  0  0  0  0  0
  1  7  2  0  0  0  0
  1  8  2  0  0  0  0
  1  9  1  0  0  0  0
  1 36  1  0  0  0  0
 17  2  1  6  0  0  0
 18  3  1  6  0  0  0
 29  4  1  6  0  0  0
  5 33  1  0  0  0  0
  6 34  2  0  0  0  0
 10 34  1  0  0  0  0
 10 35  1  0  0  0  0
 12 11  1  1  0  0  0
 11 16  1  0  0  0  0
 11 20  1  0  0  0  0
 11 26  1  0  0  0  0
 12 13  1  0  0  0  0
 12 17  1  0  0  0  0
 13 14  1  0  0  0  0
 13 18  1  0  0  0  0
 14 15  1  0  0  0  0
 14 21  1  0  0  0  0
 15 19  1  0  0  0  0
 15 25  1  0  0  0  0
 15 28  1  0  0  0  0
 16 22  1  0  0  0  0
 16 24  1  0  0  0  0
 17 22  1  0  0  0  0
 18 23  1  0  0  0  0
 19 23  1  0  0  0  0
 19 27  1  0  0  0  0
 20 21  1  0  0  0  0
 24 31  1  0  0  0  0
 24 32  1  6  0  0  0
 25 30  1  0  0  0  0
 27 29  1  0  0  0  0
 29 30  1  0  0  0  0
 31 33  1  0  0  0  0
 33 34  1  0  0  0  0
 35 36  1  0  0  0  0
M  END
> <PUBCHEM_COMPOUND_ID_TYPE>
0

> <PUBCHEM_TOTAL_CHARGE>
0

> <PUBCHEM_SUBSTANCE_ID>
310945404

> <PUBCHEM_SUBSTANCE_VERSION>
1

> <PUBCHEM_EXT_DATASOURCE_NAME>
4488

> <PUBCHEM_EXT_DATASOURCE_REGID>
SCHEMBL16123502

> <PUBCHEM_SUBSTANCE_COMMENT>
InChI=1S/C26H45NO8S/c1-14(10-21(31)24(32)27-8-9-36(33,34)35)18-13-20(30)23-22-17(5-7-26(18,23)3)25(2)6-4-16(28)11-15(25)12-19(22)29/h14-23,28-31H,4-13H2,1-3H3,(H,27,32)(H,33,34,35)/t14-,15?,16-,17?,18?,19-,20+,21?,22?,23+,25?,26?/m1/s1
InChIKey=XIEUVWIWDLKEBC-SHKMDVRLSA-N

> <PUBCHEM_SUBSTANCE_SYNONYM>
SCHEMBL16123502

> <PUBCHEM_XREF_EXT_ID>
SCHEMBL16123502

> <PUBCHEM_EXT_DATASOURCE_URL>
https://www.surechembl.org/

> <PUBCHEM_EXT_SUBSTANCE_URL>
https://www.surechembl.org/chemical/SCHEMBL16123502

> <PUBCHEM_CID_ASSOCIATIONS>
117611450  1

> <PUBCHEM_COORDINATE_TYPE>
1
3

> <PUBCHEM_BONDANNOTATIONS>
12  11  5
17  2  6
24  32  6
18  3  6
29  4  6

$$$$
