310933662
  -OEChem-07211613022D

 15 16  0     0  0  0  0  0  0999 V2000
    0.8027   -2.5002    0.0000 O   0  0  0  0  0  0  0  0  0  0  0  0
    3.0764   -4.1519    0.0000 N   0  0  0  0  0  0  0  0  0  0  0  0
    0.8676   -0.9498    0.0000 C   0  0  0  0  0  0  0  0  0  0  0  0
    1.0794   -1.5759    0.0000 C   0  0  0  0  0  0  0  0  0  0  0  0
    1.5621   -1.2622    0.0000 C   0  0  0  0  0  0  0  0  0  0  0  0
    0.1119   -1.2807    0.0000 C   0  0  0  0  0  0  0  0  0  0  0  0
    0.9031   -0.1073    0.0000 C   0  0  0  0  0  0  0  0  0  0  0  0
    1.7831   -1.9021    0.0000 C   0  0  0  0  0  0  0  0  0  0  0  0
    0.2127   -1.9909    0.0000 C   0  0  0  0  0  0  0  0  0  0  0  0
    1.1332   -0.6770    0.0000 C   0  0  0  0  0  0  0  0  0  0  0  0
    0.7034   -1.8517    0.0000 C   0  0  0  0  0  0  0  0  0  0  0  0
    1.4964   -2.4290    0.0000 C   0  0  0  0  0  0  0  0  0  0  0  0
    0.2908   -3.1671    0.0000 C   0  0  0  0  0  0  0  0  0  0  0  0
    1.7713   -3.2537    0.0000 C   0  0  0  0  0  0  0  0  0  0  0  0
    2.4374   -3.7122    0.0000 C   0  0  0  0  0  0  0  0  0  0  0  0
  1  4  1  0  0  0  0
  1 13  1  0  0  0  0
  2 15  3  0  0  0  0
  3  5  1  0  0  0  0
  3  6  1  0  0  0  0
  3  7  1  0  0  0  0
  3 11  1  0  0  0  0
  4  8  1  0  0  0  0
  4  9  1  0  0  0  0
  4 10  1  0  0  0  0
  5  8  1  0  0  0  0
  6  9  1  0  0  0  0
  7 10  1  0  0  0  0
 11 12  1  0  0  0  0
 12 14  1  0  0  0  0
 14 15  1  0  0  0  0
M  END
> <PUBCHEM_COMPOUND_ID_TYPE>
0

> <PUBCHEM_TOTAL_CHARGE>
0

> <PUBCHEM_SUBSTANCE_ID>
310933662

> <PUBCHEM_SUBSTANCE_VERSION>
1

> <PUBCHEM_EXT_DATASOURCE_NAME>
4488

> <PUBCHEM_EXT_DATASOURCE_REGID>
SCHEMBL16111095

> <PUBCHEM_SUBSTANCE_COMMENT>
InChI=1S/C13H21NO/c1-15-13-8-5-12(6-9-13,7-10-13)4-2-3-11-14/h2-10H2,1H3
InChIKey=MTTSZQXSYSXJQU-UHFFFAOYSA-N

> <PUBCHEM_SUBSTANCE_SYNONYM>
SCHEMBL16111095

> <PUBCHEM_XREF_EXT_ID>
SCHEMBL16111095

> <PUBCHEM_EXT_DATASOURCE_URL>
https://www.surechembl.org/

> <PUBCHEM_EXT_SUBSTANCE_URL>
https://www.surechembl.org/chemical/SCHEMBL16111095

> <PUBCHEM_CID_ASSOCIATIONS>
117602033  1

> <PUBCHEM_COORDINATE_TYPE>
1
3

$$$$
