310929260
  -OEChem-07211613022D

 26 29  0     1  0  0  0  0  0999 V2000
    1.1472   -0.0213    0.0000 Cl  0  0  0  0  0  0  0  0  0  0  0  0
    5.1623   -2.8255    0.0000 F   0  0  0  0  0  0  0  0  0  0  0  0
    3.1229   -2.1244    0.0000 N   0  0  0  0  0  0  0  0  0  0  0  0
    0.6161   -3.2291    0.0000 N   0  0  0  0  0  0  0  0  0  0  0  0
    3.1229   -3.5265    0.0000 N   0  0  0  0  0  0  0  0  0  0  0  0
    0.0000   -1.8695    0.0000 N   0  0  0  0  0  0  0  0  0  0  0  0
    5.5235   -2.1244    0.0000 N   0  0  0  0  0  0  0  0  0  0  0  0
    6.3733   -0.7011    0.0000 N   0  0  0  0  0  0  0  0  0  0  0  0
    1.8695   -2.8255    0.0000 C   0  0  0  0  0  0  0  0  0  0  0  0
    1.4021   -2.1456    0.0000 C   0  0  0  0  0  0  0  0  0  0  0  0
    2.6768   -2.8255    0.0000 C   0  0  0  0  0  0  0  0  0  0  0  0
    3.9089   -2.1244    0.0000 C   0  0  0  0  0  0  0  0  0  0  0  0
    0.5949   -2.4218    0.0000 C   0  0  0  0  0  0  0  0  0  0  0  0
    4.3126   -1.4021    0.0000 C   0  0  3  0  0  0  0  0  0  0  0  0
    4.3551   -2.8255    0.0000 C   0  0  0  0  0  0  0  0  0  0  0  0
    1.4021   -3.5053    0.0000 C   0  0  0  0  0  0  0  0  0  0  0  0
    5.1199   -1.4021    0.0000 C   0  0  3  0  0  0  0  0  0  0  0  0
    1.5509   -1.3596    0.0000 C   0  0  0  0  0  0  0  0  0  0  0  0
    3.9089   -3.5265    0.0000 C   0  0  0  0  0  0  0  0  0  0  0  0
    0.9773   -0.8285    0.0000 C   0  0  0  0  0  0  0  0  0  0  0  0
    5.5660   -0.7011    0.0000 C   0  0  3  0  0  0  0  0  0  0  0  0
    3.8877   -0.7011    0.0000 C   0  0  0  0  0  0  0  0  0  0  0  0
    0.1700   -1.0835    0.0000 C   0  0  0  0  0  0  0  0  0  0  0  0
    5.1199    0.0000    0.0000 C   0  0  0  0  0  0  0  0  0  0  0  0
    4.3126    0.0000    0.0000 C   0  0  0  0  0  0  0  0  0  0  0  0
    6.3308   -2.1456    0.0000 C   0  0  0  0  0  0  0  0  0  0  0  0
  1 20  1  0  0  0  0
  2 15  1  0  0  0  0
  3 11  1  0  0  0  0
  3 12  2  0  0  0  0
  4 13  1  0  0  0  0
  4 16  1  0  0  0  0
  5 11  2  0  0  0  0
  5 19  1  0  0  0  0
  6 13  1  0  0  0  0
  6 23  2  0  0  0  0
 17  7  1  1  0  0  0
  7 26  1  0  0  0  0
 21  8  1  6  0  0  0
  9 10  1  0  0  0  0
  9 11  1  0  0  0  0
  9 16  2  0  0  0  0
 10 13  2  0  0  0  0
 10 18  1  0  0  0  0
 12 14  1  0  0  0  0
 12 15  1  0  0  0  0
 14 17  1  0  0  0  0
 14 22  1  0  0  0  0
 15 19  2  0  0  0  0
 17 21  1  0  0  0  0
 18 20  2  0  0  0  0
 20 23  1  0  0  0  0
 21 24  1  0  0  0  0
 22 25  1  0  0  0  0
 24 25  1  0  0  0  0
M  END
> <PUBCHEM_COMPOUND_ID_TYPE>
0

> <PUBCHEM_TOTAL_CHARGE>
0

> <PUBCHEM_SUBSTANCE_ID>
310929260

> <PUBCHEM_SUBSTANCE_VERSION>
1

> <PUBCHEM_EXT_DATASOURCE_NAME>
4488

> <PUBCHEM_EXT_DATASOURCE_REGID>
SCHEMBL16106424

> <PUBCHEM_SUBSTANCE_COMMENT>
InChI=1S/C18H20ClFN6/c1-22-16-10(3-2-4-14(16)21)15-13(20)8-25-18(26-15)12-7-24-17-11(12)5-9(19)6-23-17/h5-8,10,14,16,22H,2-4,21H2,1H3,(H,23,24)/t10?,14-,16-/m0/s1
InChIKey=ZBWYQEQMIQGWJO-OYUMKHJSSA-N

> <PUBCHEM_SUBSTANCE_SYNONYM>
SCHEMBL16106424

> <PUBCHEM_XREF_EXT_ID>
SCHEMBL16106424

> <PUBCHEM_EXT_DATASOURCE_URL>
https://www.surechembl.org/

> <PUBCHEM_EXT_SUBSTANCE_URL>
https://www.surechembl.org/chemical/SCHEMBL16106424

> <PUBCHEM_CID_ASSOCIATIONS>
117598685  1

> <PUBCHEM_COORDINATE_TYPE>
1
3

> <PUBCHEM_BONDANNOTATIONS>
17  7  5
21  8  6

$$$$
