310945566
  -OEChem-07211613022D

 33 36  0     0  0  0  0  0  0999 V2000
    2.7065    1.4415    0.0000 F   0  0  0  0  0  0  0  0  0  0  0  0
    2.2211    0.4119    0.0000 F   0  0  0  0  0  0  0  0  0  0  0  0
    1.1768    0.9120    0.0000 F   0  0  0  0  0  0  0  0  0  0  0  0
   -2.7065    2.5006    0.0000 O   0  0  0  0  0  0  0  0  0  0  0  0
    0.0882   -3.3243    0.0000 O   0  0  0  0  0  0  0  0  0  0  0  0
   -1.3533   -3.2066    0.0000 O   0  0  0  0  0  0  0  0  0  0  0  0
    0.1324    1.7504    0.0000 N   0  0  0  0  0  0  0  0  0  0  0  0
    2.1770    2.6771    0.0000 N   0  0  0  0  0  0  0  0  0  0  0  0
   -0.6325   -0.3530    0.0000 N   0  0  0  0  0  0  0  0  0  0  0  0
   -0.6325   -2.0151    0.0000 N   0  0  0  0  0  0  0  0  0  0  0  0
    0.7943    2.2652    0.0000 C   0  0  0  0  0  0  0  0  0  0  0  0
    0.5443    3.0154    0.0000 C   0  0  0  0  0  0  0  0  0  0  0  0
   -0.2942    3.0301    0.0000 C   0  0  0  0  0  0  0  0  0  0  0  0
   -0.5590    2.2358    0.0000 C   0  0  0  0  0  0  0  0  0  0  0  0
    1.6180    2.0593    0.0000 C   0  0  0  0  0  0  0  0  0  0  0  0
    1.9269    1.1768    0.0000 C   0  0  0  0  0  0  0  0  0  0  0  0
    1.1032    3.6332    0.0000 C   0  0  0  0  0  0  0  0  0  0  0  0
   -1.3533    2.0740    0.0000 C   0  0  0  0  0  0  0  0  0  0  0  0
   -0.8384    3.6332    0.0000 C   0  0  0  0  0  0  0  0  0  0  0  0
    0.1177    0.8825    0.0000 C   0  0  0  0  0  0  0  0  0  0  0  0
    1.9122    3.4714    0.0000 C   0  0  0  0  0  0  0  0  0  0  0  0
   -1.8975    2.6771    0.0000 C   0  0  0  0  0  0  0  0  0  0  0  0
   -1.6327    3.4567    0.0000 C   0  0  0  0  0  0  0  0  0  0  0  0
   -0.6325    0.4707    0.0000 C   0  0  0  0  0  0  0  0  0  0  0  0
   -1.3386   -0.7649    0.0000 C   0  0  0  0  0  0  0  0  0  0  0  0
    0.0882   -0.7649    0.0000 C   0  0  0  0  0  0  0  0  0  0  0  0
   -1.3533   -1.5886    0.0000 C   0  0  0  0  0  0  0  0  0  0  0  0
    0.0735   -1.6034    0.0000 C   0  0  0  0  0  0  0  0  0  0  0  0
   -0.6325   -2.8389    0.0000 C   0  0  0  0  0  0  0  0  0  0  0  0
    0.8678   -2.9566    0.0000 C   0  0  0  0  0  0  0  0  0  0  0  0
    1.2503   -3.6332    0.0000 C   0  0  0  0  0  0  0  0  0  0  0  0
    0.5148   -2.2799    0.0000 C   0  0  0  0  0  0  0  0  0  0  0  0
    1.6180   -2.5741    0.0000 C   0  0  0  0  0  0  0  0  0  0  0  0
  1 16  1  0  0  0  0
  2 16  1  0  0  0  0
  3 16  1  0  0  0  0
  4 22  1  0  0  0  0
  5 29  1  0  0  0  0
  5 30  1  0  0  0  0
  6 29  2  0  0  0  0
  7 11  1  0  0  0  0
  7 14  1  0  0  0  0
  7 20  1  0  0  0  0
  8 15  2  0  0  0  0
  8 21  1  0  0  0  0
  9 24  1  0  0  0  0
  9 25  1  0  0  0  0
  9 26  1  0  0  0  0
 10 27  1  0  0  0  0
 10 28  1  0  0  0  0
 10 29  1  0  0  0  0
 11 12  2  0  0  0  0
 11 15  1  0  0  0  0
 12 13  1  0  0  0  0
 12 17  1  0  0  0  0
 13 14  2  0  0  0  0
 13 19  1  0  0  0  0
 14 18  1  0  0  0  0
 15 16  1  0  0  0  0
 17 21  2  0  0  0  0
 18 22  2  0  0  0  0
 19 23  2  0  0  0  0
 20 24  1  0  0  0  0
 22 23  1  0  0  0  0
 25 27  1  0  0  0  0
 26 28  1  0  0  0  0
 30 31  1  0  0  0  0
 30 32  1  0  0  0  0
 30 33  1  0  0  0  0
M  END
> <PUBCHEM_COMPOUND_ID_TYPE>
0

> <PUBCHEM_TOTAL_CHARGE>
0

> <PUBCHEM_SUBSTANCE_ID>
310945566

> <PUBCHEM_SUBSTANCE_VERSION>
1

> <PUBCHEM_EXT_DATASOURCE_NAME>
4488

> <PUBCHEM_EXT_DATASOURCE_REGID>
SCHEMBL16123664

> <PUBCHEM_SUBSTANCE_COMMENT>
InChI=1S/C23H27F3N4O3/c1-22(2,3)33-21(32)29-11-8-28(9-12-29)10-13-30-18-14-15(31)4-5-16(18)17-6-7-27-20(19(17)30)23(24,25)26/h4-7,14,31H,8-13H2,1-3H3
InChIKey=AATBINYBUAJLJV-UHFFFAOYSA-N

> <PUBCHEM_SUBSTANCE_SYNONYM>
SCHEMBL16123664

> <PUBCHEM_XREF_EXT_ID>
SCHEMBL16123664

> <PUBCHEM_EXT_DATASOURCE_URL>
https://www.surechembl.org/

> <PUBCHEM_EXT_SUBSTANCE_URL>
https://www.surechembl.org/chemical/SCHEMBL16123664

> <PUBCHEM_CID_ASSOCIATIONS>
117611600  1

> <PUBCHEM_COORDINATE_TYPE>
1
3

$$$$
