310948673
  -OEChem-07211613022D

 35 37  0     1  0  0  0  0  0999 V2000
    2.5094    3.0938    0.0000 F   0  0  0  0  0  0  0  0  0  0  0  0
    3.6231    0.0550    0.0000 F   0  0  0  0  0  0  0  0  0  0  0  0
    3.9393   -1.0175    0.0000 F   0  0  0  0  0  0  0  0  0  0  0  0
    2.8394   -1.3200    0.0000 F   0  0  0  0  0  0  0  0  0  0  0  0
    0.3644   -0.6188    0.0000 O   0  0  0  0  0  0  0  0  0  0  0  0
   -3.9393   -0.6188    0.0000 O   0  0  0  0  0  0  0  0  0  0  0  0
   -2.4956   -0.6188    0.0000 O   0  0  0  0  0  0  0  0  0  0  0  0
   -0.3506    2.2688    0.0000 O   0  0  0  0  0  0  0  0  0  0  0  0
    0.3644    1.0450    0.0000 N   0  0  0  0  0  0  0  0  0  0  0  0
    1.0794    2.2688    0.0000 N   0  0  0  0  0  0  0  0  0  0  0  0
   -2.5368    1.0450    0.0000 C   0  0  3  0  0  0  0  0  0  0  0  0
   -3.2106    0.6050    0.0000 C   0  0  3  0  0  0  0  0  0  0  0  0
   -1.7531    0.6050    0.0000 C   0  0  0  0  0  0  0  0  0  0  0  0
   -3.2106    1.4300    0.0000 C   0  0  0  0  0  0  0  0  0  0  0  0
   -0.3506    0.6325    0.0000 C   0  0  0  0  0  0  0  0  0  0  0  0
   -0.3644   -0.1925    0.0000 C   0  0  0  0  0  0  0  0  0  0  0  0
   -1.0656   -0.6050    0.0000 C   0  0  0  0  0  0  0  0  0  0  0  0
   -1.0794    1.0175    0.0000 C   0  0  0  0  0  0  0  0  0  0  0  0
   -1.7806   -0.1925    0.0000 C   0  0  0  0  0  0  0  0  0  0  0  0
   -3.2243   -0.2062    0.0000 C   0  0  0  0  0  0  0  0  0  0  0  0
   -1.0656   -1.4300    0.0000 C   0  0  0  0  0  0  0  0  0  0  0  0
    0.3781    1.8562    0.0000 C   0  0  0  0  0  0  0  0  0  0  0  0
    1.0656   -0.2062    0.0000 C   0  0  0  0  0  0  0  0  0  0  0  0
    1.7944    1.8562    0.0000 C   0  0  0  0  0  0  0  0  0  0  0  0
   -0.3506   -1.8425    0.0000 C   0  0  0  0  0  0  0  0  0  0  0  0
    2.5094    2.2688    0.0000 C   0  0  0  0  0  0  0  0  0  0  0  0
    1.7944    1.0450    0.0000 C   0  0  0  0  0  0  0  0  0  0  0  0
    1.8082   -0.6050    0.0000 C   0  0  0  0  0  0  0  0  0  0  0  0
    3.2243    1.8562    0.0000 C   0  0  0  0  0  0  0  0  0  0  0  0
   -0.3506   -2.6675    0.0000 C   0  0  0  0  0  0  0  0  0  0  0  0
    2.5231    0.6325    0.0000 C   0  0  0  0  0  0  0  0  0  0  0  0
    2.4956   -0.2062    0.0000 C   0  0  0  0  0  0  0  0  0  0  0  0
    3.2243    1.0450    0.0000 C   0  0  0  0  0  0  0  0  0  0  0  0
    3.2243   -0.6325    0.0000 C   0  0  0  0  0  0  0  0  0  0  0  0
    0.3781   -3.0938    0.0000 C   0  0  0  0  0  0  0  0  0  0  0  0
  1 26  1  0  0  0  0
  2 34  1  0  0  0  0
  3 34  1  0  0  0  0
  4 34  1  0  0  0  0
  5 16  1  0  0  0  0
  5 23  1  0  0  0  0
  6 20  2  0  0  0  0
  7 20  1  0  0  0  0
  8 22  2  0  0  0  0
  9 15  1  0  0  0  0
  9 22  1  0  0  0  0
 10 22  1  0  0  0  0
 10 24  1  0  0  0  0
 11 12  1  0  0  0  0
 11 13  1  0  0  0  0
 11 14  1  1  0  0  0
 12 14  1  0  0  0  0
 12 20  1  1  0  0  0
 13 18  1  0  0  0  0
 13 19  2  0  0  0  0
 15 16  1  0  0  0  0
 15 18  2  0  0  0  0
 16 17  2  0  0  0  0
 17 19  1  0  0  0  0
 17 21  1  0  0  0  0
 21 25  1  0  0  0  0
 23 28  1  0  0  0  0
 24 26  1  0  0  0  0
 24 27  2  0  0  0  0
 25 30  1  0  0  0  0
 26 29  2  0  0  0  0
 27 31  1  0  0  0  0
 28 32  1  0  0  0  0
 29 33  1  0  0  0  0
 30 35  1  0  0  0  0
 31 33  2  0  0  0  0
 32 34  1  0  0  0  0
M  END
> <PUBCHEM_COMPOUND_ID_TYPE>
0

> <PUBCHEM_TOTAL_CHARGE>
0

> <PUBCHEM_SUBSTANCE_ID>
310948673

> <PUBCHEM_SUBSTANCE_VERSION>
1

> <PUBCHEM_EXT_DATASOURCE_NAME>
4488

> <PUBCHEM_EXT_DATASOURCE_REGID>
SCHEMBL16126857

> <PUBCHEM_SUBSTANCE_COMMENT>
InChI=1S/C25H28F4N2O4/c1-2-3-7-15-12-16(17-14-18(17)23(32)33)13-21(22(15)35-11-6-10-25(27,28)29)31-24(34)30-20-9-5-4-8-19(20)26/h4-5,8-9,12-13,17-18H,2-3,6-7,10-11,14H2,1H3,(H,32,33)(H2,30,31,34)/t17-,18-/m0/s1
InChIKey=DTOLLQKCPBFMCW-ROUUACIJSA-N

> <PUBCHEM_SUBSTANCE_SYNONYM>
SCHEMBL16126857

> <PUBCHEM_XREF_EXT_ID>
SCHEMBL16126857

> <PUBCHEM_EXT_DATASOURCE_URL>
https://www.surechembl.org/

> <PUBCHEM_EXT_SUBSTANCE_URL>
https://www.surechembl.org/chemical/SCHEMBL16126857

> <PUBCHEM_CID_ASSOCIATIONS>
117614214  1

> <PUBCHEM_COORDINATE_TYPE>
1
3

> <PUBCHEM_BONDANNOTATIONS>
11  14  5
12  20  5

$$$$
