310946813
  -OEChem-07211613022D

 29 32  0     1  0  0  0  0  0999 V2000
   -3.1477   -1.9416    0.0000 S   0  0  0  0  0  0  0  0  0  0  0  0
   -3.8622   -2.3541    0.0000 O   0  0  0  0  0  0  0  0  0  0  0  0
   -3.1477   -2.7666    0.0000 O   0  0  0  0  0  0  0  0  0  0  0  0
    1.8536    0.1209    0.0000 N   0  0  0  0  0  0  0  0  0  0  0  0
    0.4247    0.1209    0.0000 N   0  0  0  0  0  0  0  0  0  0  0  0
    1.1391    1.3584    0.0000 N   0  0  0  0  0  0  0  0  0  0  0  0
   -1.0043    0.1209    0.0000 N   0  0  0  0  0  0  0  0  0  0  0  0
   -0.2898    1.3584    0.0000 N   0  0  0  0  0  0  0  0  0  0  0  0
   -3.1477   -1.1166    0.0000 N   0  0  0  0  0  0  0  0  0  0  0  0
    2.6382    0.3759    0.0000 C   0  0  3  0  0  0  0  0  0  0  0  0
    1.1391    0.5334    0.0000 C   0  0  0  0  0  0  0  0  0  0  0  0
    2.8518    1.1728    0.0000 C   0  0  3  0  0  0  0  0  0  0  0  0
   -0.2898    0.5334    0.0000 C   0  0  0  0  0  0  0  0  0  0  0  0
    1.8536   -0.7041    0.0000 C   0  0  0  0  0  0  0  0  0  0  0  0
    3.1231   -0.2916    0.0000 C   0  0  0  0  0  0  0  0  0  0  0  0
    2.6382   -0.9590    0.0000 C   0  0  0  0  0  0  0  0  0  0  0  0
   -1.0043   -0.7041    0.0000 C   0  0  0  0  0  0  0  0  0  0  0  0
    0.4247    1.7709    0.0000 C   0  0  0  0  0  0  0  0  0  0  0  0
   -1.7188   -1.9416    0.0000 C   0  0  0  0  0  0  0  0  0  0  0  0
    2.2684    1.7561    0.0000 C   0  0  0  0  0  0  0  0  0  0  0  0
    3.6486    1.3863    0.0000 C   0  0  0  0  0  0  0  0  0  0  0  0
   -1.7188   -1.1166    0.0000 C   0  0  0  0  0  0  0  0  0  0  0  0
   -0.2898   -1.1166    0.0000 C   0  0  0  0  0  0  0  0  0  0  0  0
   -2.4332   -2.3541    0.0000 C   0  0  0  0  0  0  0  0  0  0  0  0
   -1.0043   -2.3541    0.0000 C   0  0  0  0  0  0  0  0  0  0  0  0
   -0.2898   -1.9416    0.0000 C   0  0  0  0  0  0  0  0  0  0  0  0
    2.4819    2.5530    0.0000 C   0  0  0  0  0  0  0  0  0  0  0  0
    3.8622    2.1832    0.0000 C   0  0  0  0  0  0  0  0  0  0  0  0
    3.2788    2.7666    0.0000 C   0  0  0  0  0  0  0  0  0  0  0  0
  1  2  2  0  0  0  0
  1  3  2  0  0  0  0
  1  9  1  0  0  0  0
  1 24  1  0  0  0  0
 10  4  1  1  0  0  0
  4 11  1  0  0  0  0
  4 14  1  0  0  0  0
  5 11  1  0  0  0  0
  5 13  2  0  0  0  0
  6 11  2  0  0  0  0
  6 18  1  0  0  0  0
  7 13  1  0  0  0  0
  7 17  1  0  0  0  0
  8 13  1  0  0  0  0
  8 18  2  0  0  0  0
 10 12  1  0  0  0  0
 10 15  1  0  0  0  0
 12 20  1  0  0  0  0
 12 21  1  0  0  0  0
 14 16  1  0  0  0  0
 15 16  1  0  0  0  0
 17 22  1  0  0  0  0
 17 23  2  0  0  0  0
 19 22  2  0  0  0  0
 19 24  1  0  0  0  0
 19 25  1  0  0  0  0
 20 27  2  0  0  0  0
 21 28  1  0  0  0  0
 23 26  1  0  0  0  0
 25 26  2  0  0  0  0
 27 29  1  0  0  0  0
 28 29  2  0  0  0  0
M  END
> <PUBCHEM_COMPOUND_ID_TYPE>
0

> <PUBCHEM_TOTAL_CHARGE>
0

> <PUBCHEM_SUBSTANCE_ID>
310946813

> <PUBCHEM_SUBSTANCE_VERSION>
1

> <PUBCHEM_EXT_DATASOURCE_NAME>
4488

> <PUBCHEM_EXT_DATASOURCE_REGID>
SCHEMBL16124937

> <PUBCHEM_SUBSTANCE_COMMENT>
InChI=1S/C20H24N6O2S/c21-29(27,28)13-15-6-4-9-17(12-15)24-19-22-14-23-20(25-19)26-11-5-10-18(26)16-7-2-1-3-8-16/h1-4,6-7,9,12,14,16,18H,5,8,10-11,13H2,(H2,21,27,28)(H,22,23,24,25)/t16?,18-/m1/s1
InChIKey=QTTPIJSAQBSKEB-UHUGOGIASA-N

> <PUBCHEM_SUBSTANCE_SYNONYM>
SCHEMBL16124937

> <PUBCHEM_XREF_EXT_ID>
SCHEMBL16124937

> <PUBCHEM_EXT_DATASOURCE_URL>
https://www.surechembl.org/

> <PUBCHEM_EXT_SUBSTANCE_URL>
https://www.surechembl.org/chemical/SCHEMBL16124937

> <PUBCHEM_CID_ASSOCIATIONS>
117612674  1

> <PUBCHEM_COORDINATE_TYPE>
1
3

> <PUBCHEM_BONDANNOTATIONS>
10  4  5

$$$$
