310949420
  -OEChem-07211613022D

 25 28  0     0  0  0  0  0  0999 V2000
   -2.4597    2.6833    0.0000 Br  0  0  0  0  0  0  0  0  0  0  0  0
    1.9752    3.3728    0.0000 S   0  0  0  0  0  0  0  0  0  0  0  0
   -0.1118   -3.0187    0.0000 O   0  0  0  0  0  0  0  0  0  0  0  0
    1.5280   -3.3728    0.0000 O   0  0  0  0  0  0  0  0  0  0  0  0
    0.8013    1.1926    0.0000 N   0  0  0  0  0  0  0  0  0  0  0  0
    1.2671   -2.5715    0.0000 N   0  0  0  0  0  0  0  0  0  0  0  0
    0.0000    1.4721    0.0000 C   0  0  0  0  0  0  0  0  0  0  0  0
    0.0186    2.2920    0.0000 C   0  0  0  0  0  0  0  0  0  0  0  0
    1.3044    1.8820    0.0000 C   0  0  0  0  0  0  0  0  0  0  0  0
    0.8013    2.5528    0.0000 C   0  0  0  0  0  0  0  0  0  0  0  0
   -0.6894    2.6833    0.0000 C   0  0  0  0  0  0  0  0  0  0  0  0
    1.0622    0.4099    0.0000 C   0  0  0  0  0  0  0  0  0  0  0  0
   -0.7267    1.0622    0.0000 C   0  0  0  0  0  0  0  0  0  0  0  0
    2.1243    1.9566    0.0000 C   0  0  0  0  0  0  0  0  0  0  0  0
    1.1553    3.2982    0.0000 C   0  0  0  0  0  0  0  0  0  0  0  0
   -1.4348    2.2920    0.0000 C   0  0  0  0  0  0  0  0  0  0  0  0
    0.5031   -0.2050    0.0000 C   0  0  0  0  0  0  0  0  0  0  0  0
   -1.4348    1.4535    0.0000 C   0  0  0  0  0  0  0  0  0  0  0  0
    2.4597    2.7206    0.0000 C   0  0  0  0  0  0  0  0  0  0  0  0
    0.7454   -0.9876    0.0000 C   0  0  0  0  0  0  0  0  0  0  0  0
    0.2050   -1.6025    0.0000 C   0  0  0  0  0  0  0  0  0  0  0  0
   -0.3168   -0.0373    0.0000 C   0  0  0  0  0  0  0  0  0  0  0  0
   -0.5963   -1.4348    0.0000 C   0  0  0  0  0  0  0  0  0  0  0  0
   -0.8385   -0.6150    0.0000 C   0  0  0  0  0  0  0  0  0  0  0  0
    0.4659   -2.3666    0.0000 C   0  0  0  0  0  0  0  0  0  0  0  0
  1 16  1  0  0  0  0
  2 15  1  0  0  0  0
  2 19  1  0  0  0  0
  3 25  2  0  0  0  0
  4  6  1  0  0  0  0
  5  7  1  0  0  0  0
  5  9  1  0  0  0  0
  5 12  1  0  0  0  0
  6 25  1  0  0  0  0
  7  8  1  0  0  0  0
  7 13  2  0  0  0  0
  8 10  1  0  0  0  0
  8 11  2  0  0  0  0
  9 10  2  0  0  0  0
  9 14  1  0  0  0  0
 10 15  1  0  0  0  0
 11 16  1  0  0  0  0
 12 17  1  0  0  0  0
 13 18  1  0  0  0  0
 14 19  1  0  0  0  0
 16 18  2  0  0  0  0
 17 20  1  0  0  0  0
 17 22  2  0  0  0  0
 20 21  2  0  0  0  0
 21 23  1  0  0  0  0
 21 25  1  0  0  0  0
 22 24  1  0  0  0  0
 23 24  2  0  0  0  0
M  END
> <PUBCHEM_COMPOUND_ID_TYPE>
0

> <PUBCHEM_TOTAL_CHARGE>
0

> <PUBCHEM_SUBSTANCE_ID>
310949420

> <PUBCHEM_SUBSTANCE_VERSION>
1

> <PUBCHEM_EXT_DATASOURCE_NAME>
4488

> <PUBCHEM_EXT_DATASOURCE_REGID>
SCHEMBL16127613

> <PUBCHEM_SUBSTANCE_COMMENT>
InChI=1S/C19H17BrN2O2S/c20-14-4-5-17-15(9-14)16-11-25-7-6-18(16)22(17)10-12-2-1-3-13(8-12)19(23)21-24/h1-5,8-9,24H,6-7,10-11H2,(H,21,23)
InChIKey=JZWDTPZVJXKHTH-UHFFFAOYSA-N

> <PUBCHEM_SUBSTANCE_SYNONYM>
SCHEMBL16127613

> <PUBCHEM_XREF_EXT_ID>
SCHEMBL16127613

> <PUBCHEM_EXT_DATASOURCE_URL>
https://www.surechembl.org/

> <PUBCHEM_EXT_SUBSTANCE_URL>
https://www.surechembl.org/chemical/SCHEMBL16127613

> <PUBCHEM_CID_ASSOCIATIONS>
117614871  1

> <PUBCHEM_COORDINATE_TYPE>
1
3

$$$$
