310944000
  -OEChem-07211613022D

 16 16  0     0  0  0  0  0  0999 V2000
   -1.7405   -0.8281    0.0000 Cl  0  0  0  0  0  0  0  0  0  0  0  0
    1.4132   -0.8380    0.0000 Cl  0  0  0  0  0  0  0  0  0  0  0  0
   -0.0446   -1.6612    0.0000 Cl  0  0  0  0  0  0  0  0  0  0  0  0
   -0.0347    1.6414    0.0000 F   0  0  0  0  0  0  0  0  0  0  0  0
    1.3835    1.6314    0.0000 O   0  0  0  0  0  0  0  0  0  0  0  0
   -2.1372    0.3025    0.0000 O   0  0  0  0  0  0  0  0  0  0  0  0
    2.1372    0.3620    0.0000 N   0  0  0  0  0  0  0  0  0  0  0  0
   -1.5521    1.6612    0.0000 N   0  0  0  0  0  0  0  0  0  0  0  0
    0.6892    0.4314    0.0000 C   0  0  0  0  0  0  0  0  0  0  0  0
   -0.7686    0.4314    0.0000 C   0  0  0  0  0  0  0  0  0  0  0  0
   -0.0545    0.8281    0.0000 C   0  0  0  0  0  0  0  0  0  0  0  0
   -0.7785   -0.3918    0.0000 C   0  0  0  0  0  0  0  0  0  0  0  0
    0.6694   -0.3918    0.0000 C   0  0  0  0  0  0  0  0  0  0  0  0
   -0.0446   -0.8083    0.0000 C   0  0  0  0  0  0  0  0  0  0  0  0
    1.4033    0.8182    0.0000 C   0  0  0  0  0  0  0  0  0  0  0  0
   -1.5025    0.8083    0.0000 C   0  0  0  0  0  0  0  0  0  0  0  0
  1 12  1  0  0  0  0
  2 13  1  0  0  0  0
  3 14  1  0  0  0  0
  4 11  1  0  0  0  0
  5 15  2  0  0  0  0
  6 16  2  0  0  0  0
  7 15  1  0  0  0  0
  8 16  1  0  0  0  0
  9 11  2  0  0  0  0
  9 13  1  0  0  0  0
  9 15  1  0  0  0  0
 10 11  1  0  0  0  0
 10 12  2  0  0  0  0
 10 16  1  0  0  0  0
 12 14  1  0  0  0  0
 13 14  2  0  0  0  0
M  END
> <PUBCHEM_COMPOUND_ID_TYPE>
0

> <PUBCHEM_TOTAL_CHARGE>
0

> <PUBCHEM_SUBSTANCE_ID>
310944000

> <PUBCHEM_SUBSTANCE_VERSION>
1

> <PUBCHEM_EXT_DATASOURCE_NAME>
4488

> <PUBCHEM_EXT_DATASOURCE_REGID>
SCHEMBL16122071

> <PUBCHEM_SUBSTANCE_COMMENT>
InChI=1S/C8H4Cl3FN2O2/c9-3-1(7(13)15)6(12)2(8(14)16)4(10)5(3)11/h(H2,13,15)(H2,14,16)
InChIKey=AFRYSOMPGMYUTB-UHFFFAOYSA-N

> <PUBCHEM_SUBSTANCE_SYNONYM>
SCHEMBL16122071

> <PUBCHEM_XREF_EXT_ID>
SCHEMBL16122071

> <PUBCHEM_EXT_DATASOURCE_URL>
https://www.surechembl.org/

> <PUBCHEM_EXT_SUBSTANCE_URL>
https://www.surechembl.org/chemical/SCHEMBL16122071

> <PUBCHEM_CID_ASSOCIATIONS>
12449400  1

> <PUBCHEM_COORDINATE_TYPE>
1
3

$$$$
