310933262
  -OEChem-07211613022D

 18 19  0     0  0  0  0  0  0999 V2000
    5.8174   -3.1220    0.0000 Cl  0  0  0  0  0  0  0  0  0  0  0  0
    4.1691   -3.1220    0.0000 F   0  0  0  0  0  0  0  0  0  0  0  0
    4.1691   -0.2521    0.0000 F   0  0  0  0  0  0  0  0  0  0  0  0
    2.0749   -2.0942    0.0000 O   0  0  0  0  0  0  0  0  0  0  0  0
    0.6593   -1.1441    0.0000 O   0  0  0  0  0  0  0  0  0  0  0  0
    1.4931    0.0000    0.0000 O   0  0  0  0  0  0  0  0  0  0  0  0
    2.8505   -2.3657    0.0000 N   0  0  0  0  0  0  0  0  0  0  0  0
    4.1691   -1.6870    0.0000 C   0  0  0  0  0  0  0  0  0  0  0  0
    3.3353   -1.6870    0.0000 C   0  0  0  0  0  0  0  0  0  0  0  0
    4.5763   -2.4045    0.0000 C   0  0  0  0  0  0  0  0  0  0  0  0
    4.5763   -0.9695    0.0000 C   0  0  0  0  0  0  0  0  0  0  0  0
    2.0749   -1.2798    0.0000 C   0  0  0  0  0  0  0  0  0  0  0  0
    2.8505   -1.0277    0.0000 C   0  0  0  0  0  0  0  0  0  0  0  0
    5.4101   -2.4045    0.0000 C   0  0  0  0  0  0  0  0  0  0  0  0
    5.4101   -0.9695    0.0000 C   0  0  0  0  0  0  0  0  0  0  0  0
    5.8174   -1.6870    0.0000 C   0  0  0  0  0  0  0  0  0  0  0  0
    1.4155   -0.8144    0.0000 C   0  0  0  0  0  0  0  0  0  0  0  0
    0.0000   -0.6593    0.0000 C   0  0  0  0  0  0  0  0  0  0  0  0
  1 14  1  0  0  0  0
  2 10  1  0  0  0  0
  3 11  1  0  0  0  0
  4  7  1  0  0  0  0
  4 12  1  0  0  0  0
  5 17  1  0  0  0  0
  5 18  1  0  0  0  0
  6 17  2  0  0  0  0
  7  9  2  0  0  0  0
  8  9  1  0  0  0  0
  8 10  1  0  0  0  0
  8 11  2  0  0  0  0
  9 13  1  0  0  0  0
 10 14  2  0  0  0  0
 11 15  1  0  0  0  0
 12 13  2  0  0  0  0
 12 17  1  0  0  0  0
 14 16  1  0  0  0  0
 15 16  2  0  0  0  0
M  END
> <PUBCHEM_COMPOUND_ID_TYPE>
0

> <PUBCHEM_TOTAL_CHARGE>
0

> <PUBCHEM_SUBSTANCE_ID>
310933262

> <PUBCHEM_SUBSTANCE_VERSION>
1

> <PUBCHEM_EXT_DATASOURCE_NAME>
4488

> <PUBCHEM_EXT_DATASOURCE_REGID>
SCHEMBL16110671

> <PUBCHEM_SUBSTANCE_COMMENT>
InChI=1S/C11H6ClF2NO3/c1-17-11(16)8-4-7(15-18-8)9-6(13)3-2-5(12)10(9)14/h2-4H,1H3
InChIKey=SROGCDKDOBDDGW-UHFFFAOYSA-N

> <PUBCHEM_SUBSTANCE_SYNONYM>
SCHEMBL16110671

> <PUBCHEM_XREF_EXT_ID>
SCHEMBL16110671

> <PUBCHEM_EXT_DATASOURCE_URL>
https://www.surechembl.org/

> <PUBCHEM_EXT_SUBSTANCE_URL>
https://www.surechembl.org/chemical/SCHEMBL16110671

> <PUBCHEM_CID_ASSOCIATIONS>
117601693  1

> <PUBCHEM_COORDINATE_TYPE>
1
3

$$$$
