310932946
  -OEChem-07211613022D

 28 32  0     0  0  0  0  0  0999 V2000
    0.0000   -4.4475    0.0000 O   0  0  0  0  0  0  0  0  0  0  0  0
    5.5248   -3.3149    0.0000 O   0  0  0  0  0  0  0  0  0  0  0  0
    4.2265   -2.6519    0.0000 N   0  0  0  0  0  0  0  0  0  0  0  0
    4.2265   -3.9778    0.0000 N   0  0  0  0  0  0  0  0  0  0  0  0
    2.6796   -0.0276    0.0000 N   0  0  0  0  0  0  0  0  0  0  0  0
    0.3867   -5.1657    0.0000 N   0  0  0  0  0  0  0  0  0  0  0  0
    2.7071   -2.4862    0.0000 C   0  0  0  0  0  0  0  0  0  0  0  0
    3.4254   -2.8729    0.0000 C   0  0  0  0  0  0  0  0  0  0  0  0
    2.6796   -1.6574    0.0000 C   0  0  0  0  0  0  0  0  0  0  0  0
    3.4254   -3.7569    0.0000 C   0  0  0  0  0  0  0  0  0  0  0  0
    2.0165   -3.7569    0.0000 C   0  0  0  0  0  0  0  0  0  0  0  0
    2.0165   -2.8729    0.0000 C   0  0  0  0  0  0  0  0  0  0  0  0
    3.3977   -1.2431    0.0000 C   0  0  0  0  0  0  0  0  0  0  0  0
    1.2983   -4.1436    0.0000 C   0  0  0  0  0  0  0  0  0  0  0  0
    2.7071   -4.1436    0.0000 C   0  0  0  0  0  0  0  0  0  0  0  0
    1.9613   -1.2707    0.0000 C   0  0  0  0  0  0  0  0  0  0  0  0
    3.3977   -0.4144    0.0000 C   0  0  0  0  0  0  0  0  0  0  0  0
    4.6961   -3.3149    0.0000 C   0  0  0  0  0  0  0  0  0  0  0  0
    0.5249   -3.8398    0.0000 C   0  0  0  0  0  0  0  0  0  0  0  0
    1.2155   -4.9723    0.0000 C   0  0  0  0  0  0  0  0  0  0  0  0
    1.9613   -0.4420    0.0000 C   0  0  0  0  0  0  0  0  0  0  0  0
    4.1160   -1.6574    0.0000 C   0  0  0  0  0  0  0  0  0  0  0  0
    4.0883    0.0000    0.0000 C   0  0  0  0  0  0  0  0  0  0  0  0
    1.2431   -1.6851    0.0000 C   0  0  0  0  0  0  0  0  0  0  0  0
    4.8066   -1.2155    0.0000 C   0  0  0  0  0  0  0  0  0  0  0  0
    4.8066   -0.4144    0.0000 C   0  0  0  0  0  0  0  0  0  0  0  0
    0.3591   -3.0386    0.0000 C   0  0  0  0  0  0  0  0  0  0  0  0
    1.8232   -5.5248    0.0000 C   0  0  0  0  0  0  0  0  0  0  0  0
  1  6  1  0  0  0  0
  1 19  1  0  0  0  0
  2 18  2  0  0  0  0
  3  8  1  0  0  0  0
  3 18  1  0  0  0  0
  4 10  1  0  0  0  0
  4 18  1  0  0  0  0
  5 17  2  0  0  0  0
  5 21  1  0  0  0  0
  6 20  2  0  0  0  0
  7  8  1  0  0  0  0
  7  9  1  0  0  0  0
  7 12  2  0  0  0  0
  8 10  2  0  0  0  0
  9 13  2  0  0  0  0
  9 16  1  0  0  0  0
 10 15  1  0  0  0  0
 11 12  1  0  0  0  0
 11 14  1  0  0  0  0
 11 15  2  0  0  0  0
 13 17  1  0  0  0  0
 13 22  1  0  0  0  0
 14 19  2  0  0  0  0
 14 20  1  0  0  0  0
 16 21  2  0  0  0  0
 16 24  1  0  0  0  0
 17 23  1  0  0  0  0
 19 27  1  0  0  0  0
 20 28  1  0  0  0  0
 22 25  2  0  0  0  0
 23 26  2  0  0  0  0
 25 26  1  0  0  0  0
M  END
> <PUBCHEM_COMPOUND_ID_TYPE>
0

> <PUBCHEM_TOTAL_CHARGE>
0

> <PUBCHEM_SUBSTANCE_ID>
310932946

> <PUBCHEM_SUBSTANCE_VERSION>
1

> <PUBCHEM_EXT_DATASOURCE_NAME>
4488

> <PUBCHEM_EXT_DATASOURCE_REGID>
SCHEMBL16110342

> <PUBCHEM_SUBSTANCE_COMMENT>
InChI=1S/C22H18N4O2/c1-11-10-23-17-7-5-4-6-15(17)19(11)16-8-14(20-12(2)26-28-13(20)3)9-18-21(16)25-22(27)24-18/h4-10H,1-3H3,(H2,24,25,27)
InChIKey=JZMRECXTXYZXPS-UHFFFAOYSA-N

> <PUBCHEM_SUBSTANCE_SYNONYM>
SCHEMBL16110342

> <PUBCHEM_XREF_EXT_ID>
SCHEMBL16110342

> <PUBCHEM_EXT_DATASOURCE_URL>
https://www.surechembl.org/

> <PUBCHEM_EXT_SUBSTANCE_URL>
https://www.surechembl.org/chemical/SCHEMBL16110342

> <PUBCHEM_CID_ASSOCIATIONS>
117601425  1

> <PUBCHEM_COORDINATE_TYPE>
1
3

$$$$
