310931185
  -OEChem-07211613022D

 55 60  0     1  0  0  0  0  0999 V2000
   -0.8739   -6.8079    0.0000 S   0  0  0  0  0  0  0  0  0  0  0  0
   -0.9210   -8.5304    0.0000 S   0  0  0  0  0  0  0  0  0  0  0  0
   -2.7245   -6.6455    0.0000 F   0  0  0  0  0  0  0  0  0  0  0  0
   -0.8739   -3.9501    0.0000 F   0  0  0  0  0  0  0  0  0  0  0  0
   -6.2364   -6.0935    0.0000 F   0  0  0  0  0  0  0  0  0  0  0  0
   -2.5239   -3.9501    0.0000 O   0  0  0  0  0  0  0  0  0  0  0  0
   -0.4614   -7.5224    0.0000 O   0  0  0  0  0  0  0  0  0  0  0  0
   -0.1595   -6.3954    0.0000 O   0  0  0  0  0  0  0  0  0  0  0  0
   -4.9989   -1.0922    0.0000 O   0  0  0  0  0  0  0  0  0  0  0  0
   -3.7318   -5.9829    0.0000 O   0  0  0  0  0  0  0  0  0  0  0  0
   -5.1607   -8.4579    0.0000 O   0  0  0  0  0  0  0  0  0  0  0  0
   -4.9989    1.7657    0.0000 O   0  0  0  0  0  0  0  0  0  0  0  0
   -3.7614   -1.8067    0.0000 N   0  0  0  0  0  0  0  0  0  0  0  0
   -1.5884   -7.2204    0.0000 N   0  0  0  0  0  0  0  0  0  0  0  0
   -2.2558   -8.5304    0.0000 N   0  0  0  0  0  0  0  0  0  0  0  0
   -1.1759   -9.3150    0.0000 N   0  0  0  0  0  0  0  0  0  0  0  0
   -4.5864   -3.2356    0.0000 C   0  0  3  0  0  0  0  0  0  0  0  0
   -3.7614   -3.2356    0.0000 C   0  0  3  0  0  0  0  0  0  0  0  0
   -4.9989   -3.9501    0.0000 C   0  0  0  0  0  0  0  0  0  0  0  0
   -4.9989   -2.5211    0.0000 C   0  0  0  0  0  0  0  0  0  0  0  0
   -3.3489   -2.5211    0.0000 C   0  0  0  0  0  0  0  0  0  0  0  0
   -4.5864   -1.8067    0.0000 C   0  0  0  0  0  0  0  0  0  0  0  0
   -3.3489   -3.9501    0.0000 C   0  0  0  0  0  0  0  0  0  0  0  0
   -1.2864   -6.0935    0.0000 C   0  0  0  0  0  0  0  0  0  0  0  0
   -2.1114   -4.6645    0.0000 C   0  0  0  0  0  0  0  0  0  0  0  0
   -2.1114   -6.0935    0.0000 C   0  0  0  0  0  0  0  0  0  0  0  0
   -5.8239   -3.9501    0.0000 C   0  0  0  0  0  0  0  0  0  0  0  0
   -4.5864   -4.6645    0.0000 C   0  0  0  0  0  0  0  0  0  0  0  0
   -1.2864   -4.6645    0.0000 C   0  0  0  0  0  0  0  0  0  0  0  0
   -0.8739   -5.3790    0.0000 C   0  0  0  0  0  0  0  0  0  0  0  0
   -1.5884   -8.0454    0.0000 C   0  0  0  0  0  0  0  0  0  0  0  0
   -2.5239   -5.3790    0.0000 C   0  0  0  0  0  0  0  0  0  0  0  0
   -3.3489   -1.0922    0.0000 C   0  0  0  0  0  0  0  0  0  0  0  0
   -2.3029   -6.8079    0.0000 C   0  0  0  0  0  0  0  0  0  0  0  0
   -6.2364   -4.6645    0.0000 C   0  0  0  0  0  0  0  0  0  0  0  0
   -4.9989   -5.3790    0.0000 C   0  0  0  0  0  0  0  0  0  0  0  0
   -3.0173   -7.2204    0.0000 C   0  0  0  0  0  0  0  0  0  0  0  0
   -5.8239   -5.3790    0.0000 C   0  0  0  0  0  0  0  0  0  0  0  0
   -3.7614   -0.3777    0.0000 C   0  0  0  0  0  0  0  0  0  0  0  0
   -3.7318   -6.8079    0.0000 C   0  0  0  0  0  0  0  0  0  0  0  0
   -3.0173   -8.0454    0.0000 C   0  0  0  0  0  0  0  0  0  0  0  0
   -2.0009   -9.3150    0.0000 C   0  0  0  0  0  0  0  0  0  0  0  0
   -3.3489    0.3368    0.0000 C   0  0  0  0  0  0  0  0  0  0  0  0
   -4.5864   -0.3777    0.0000 C   0  0  0  0  0  0  0  0  0  0  0  0
   -4.4463   -7.2204    0.0000 C   0  0  0  0  0  0  0  0  0  0  0  0
   -4.4463   -8.0454    0.0000 C   0  0  0  0  0  0  0  0  0  0  0  0
   -3.7318   -8.4579    0.0000 C   0  0  0  0  0  0  0  0  0  0  0  0
   -3.7614    1.0512    0.0000 C   0  0  0  0  0  0  0  0  0  0  0  0
   -4.9989    0.3368    0.0000 C   0  0  0  0  0  0  0  0  0  0  0  0
   -4.5864    1.0512    0.0000 C   0  0  0  0  0  0  0  0  0  0  0  0
   -3.0173   -5.5704    0.0000 C   0  0  0  0  0  0  0  0  0  0  0  0
   -5.8752   -8.0454    0.0000 C   0  0  0  0  0  0  0  0  0  0  0  0
   -4.5864    2.4802    0.0000 C   0  0  0  0  0  0  0  0  0  0  0  0
   -4.4432   -4.0481    0.0000 H   0  0  0  0  0  0  0  0  0  0  0  0
   -3.9047   -4.0481    0.0000 H   0  0  0  0  0  0  0  0  0  0  0  0
  1  7  2  0  0  0  0
  1  8  2  0  0  0  0
  1 14  1  0  0  0  0
  1 24  1  0  0  0  0
  2 16  1  0  0  0  0
  2 31  1  0  0  0  0
  3 26  1  0  0  0  0
  4 29  1  0  0  0  0
  5 38  1  0  0  0  0
  6 23  1  0  0  0  0
  6 25  1  0  0  0  0
  9 22  2  0  0  0  0
 10 40  1  0  0  0  0
 10 51  1  0  0  0  0
 11 46  1  0  0  0  0
 11 52  1  0  0  0  0
 12 50  1  0  0  0  0
 12 53  1  0  0  0  0
 13 21  1  0  0  0  0
 13 22  1  0  0  0  0
 13 33  1  0  0  0  0
 14 31  1  0  0  0  0
 14 34  1  0  0  0  0
 15 31  2  0  0  0  0
 15 42  1  0  0  0  0
 16 42  2  0  0  0  0
 17 18  1  0  0  0  0
 17 19  1  0  0  0  0
 17 20  1  0  0  0  0
 17 54  1  1  0  0  0
 18 21  1  0  0  0  0
 18 23  1  0  0  0  0
 18 55  1  6  0  0  0
 19 27  2  0  0  0  0
 19 28  1  0  0  0  0
 20 22  1  0  0  0  0
 24 26  2  0  0  0  0
 24 30  1  0  0  0  0
 25 29  1  0  0  0  0
 25 32  2  0  0  0  0
 26 32  1  0  0  0  0
 27 35  1  0  0  0  0
 28 36  2  0  0  0  0
 29 30  2  0  0  0  0
 33 39  1  0  0  0  0
 34 37  1  0  0  0  0
 35 38  2  0  0  0  0
 36 38  1  0  0  0  0
 37 40  2  0  0  0  0
 37 41  1  0  0  0  0
 39 43  2  0  0  0  0
 39 44  1  0  0  0  0
 40 45  1  0  0  0  0
 41 47  2  0  0  0  0
 43 48  1  0  0  0  0
 44 49  2  0  0  0  0
 45 46  2  0  0  0  0
 46 47  1  0  0  0  0
 48 50  2  0  0  0  0
 49 50  1  0  0  0  0
M  END
> <PUBCHEM_COMPOUND_ID_TYPE>
0

> <PUBCHEM_TOTAL_CHARGE>
0

> <PUBCHEM_SUBSTANCE_ID>
310931185

> <PUBCHEM_SUBSTANCE_VERSION>
1

> <PUBCHEM_EXT_DATASOURCE_NAME>
4488

> <PUBCHEM_EXT_DATASOURCE_REGID>
SCHEMBL16108494

> <PUBCHEM_SUBSTANCE_COMMENT>
InChI=1S/C37H35F3N4O7S2/c1-48-28-11-4-23(5-12-28)18-43-19-26(30(15-36(43)45)24-6-9-27(38)10-7-24)21-51-34-16-32(40)35(17-31(34)39)53(46,47)44(37-41-22-42-52-37)20-25-8-13-29(49-2)14-33(25)50-3/h4-14,16-17,22,26,30H,15,18-21H2,1-3H3/t26-,30-/m0/s1
InChIKey=AGNSGKREJJYDOZ-YZNIXAGQSA-N

> <PUBCHEM_SUBSTANCE_SYNONYM>
SCHEMBL16108494

> <PUBCHEM_XREF_EXT_ID>
SCHEMBL16108494

> <PUBCHEM_EXT_DATASOURCE_URL>
https://www.surechembl.org/

> <PUBCHEM_EXT_SUBSTANCE_URL>
https://www.surechembl.org/chemical/SCHEMBL16108494

> <PUBCHEM_CID_ASSOCIATIONS>
117600043  1

> <PUBCHEM_COORDINATE_TYPE>
1
3

> <PUBCHEM_BONDANNOTATIONS>
17  54  5
18  55  6

$$$$
