310930601
  -OEChem-07211613022D

 29 32  0     0  0  0  0  0  0999 V2000
    6.0770   -3.8280    0.0000 O   0  0  0  0  0  0  0  0  0  0  0  0
    6.4359   -0.4067    0.0000 O   0  5  0  0  0  0  0  0  0  0  0  0
    7.1776   -1.6269    0.0000 O   0  0  0  0  0  0  0  0  0  0  0  0
    0.7178   -0.4307    0.0000 O   0  0  0  0  0  0  0  0  0  0  0  0
    0.0000   -1.6748    0.0000 O   0  0  0  0  0  0  0  0  0  0  0  0
    3.5888   -2.9189    0.0000 N   0  0  0  0  0  0  0  0  0  0  0  0
    5.2396   -3.7323    0.0000 N   0  0  0  0  0  0  0  0  0  0  0  0
    6.3881   -3.0625    0.0000 N   0  0  0  0  0  0  0  0  0  0  0  0
    6.4599   -1.2441    0.0000 N   0  3  0  0  0  0  0  0  0  0  0  0
    5.0243   -2.9429    0.0000 C   0  0  0  0  0  0  0  0  0  0  0  0
    5.7899   -2.4883    0.0000 C   0  0  0  0  0  0  0  0  0  0  0  0
    4.3065   -2.5122    0.0000 C   0  0  0  0  0  0  0  0  0  0  0  0
    5.7421   -1.6748    0.0000 C   0  0  0  0  0  0  0  0  0  0  0  0
    2.8711   -2.5122    0.0000 C   0  0  0  0  0  0  0  0  0  0  0  0
    2.8711   -1.6748    0.0000 C   0  0  0  0  0  0  0  0  0  0  0  0
    4.4740   -1.8662    0.0000 C   0  0  0  0  0  0  0  0  0  0  0  0
    5.2157   -1.4355    0.0000 C   0  0  0  0  0  0  0  0  0  0  0  0
    3.5888   -1.2681    0.0000 C   0  0  0  0  0  0  0  0  0  0  0  0
    2.1533   -1.2681    0.0000 C   0  0  0  0  0  0  0  0  0  0  0  0
    2.1533   -2.9189    0.0000 C   0  0  0  0  0  0  0  0  0  0  0  0
    1.4355   -1.6748    0.0000 C   0  0  0  0  0  0  0  0  0  0  0  0
    1.4355   -2.5122    0.0000 C   0  0  0  0  0  0  0  0  0  0  0  0
    3.5888   -0.4067    0.0000 C   0  0  0  0  0  0  0  0  0  0  0  0
    4.3065   -1.6748    0.0000 C   0  0  0  0  0  0  0  0  0  0  0  0
    0.7178   -1.2681    0.0000 C   0  0  0  0  0  0  0  0  0  0  0  0
    4.3065    0.0000    0.0000 C   0  0  0  0  0  0  0  0  0  0  0  0
    5.0243   -1.2441    0.0000 C   0  0  0  0  0  0  0  0  0  0  0  0
    5.0243   -0.4067    0.0000 C   0  0  0  0  0  0  0  0  0  0  0  0
    5.7660    0.0000    0.0000 C   0  0  0  0  0  0  0  0  0  0  0  0
  1  7  1  0  0  0  0
  1  8  1  0  0  0  0
  2  9  1  0  0  0  0
  3  9  2  0  0  0  0
  4 25  2  0  0  0  0
  5 25  1  0  0  0  0
  6 12  1  0  0  0  0
  6 14  1  0  0  0  0
  7 10  2  0  0  0  0
  8 11  2  0  0  0  0
  9 13  1  0  0  0  0
 10 11  1  0  0  0  0
 10 12  1  0  0  0  0
 11 13  1  0  0  0  0
 12 16  2  0  0  0  0
 13 17  2  0  0  0  0
 14 15  2  0  0  0  0
 14 20  1  0  0  0  0
 15 18  1  0  0  0  0
 15 19  1  0  0  0  0
 16 17  1  0  0  0  0
 18 23  2  0  0  0  0
 18 24  1  0  0  0  0
 19 21  2  0  0  0  0
 20 22  2  0  0  0  0
 21 22  1  0  0  0  0
 21 25  1  0  0  0  0
 23 26  1  0  0  0  0
 24 27  2  0  0  0  0
 26 28  2  0  0  0  0
 27 28  1  0  0  0  0
 28 29  1  0  0  0  0
M  CHG  2   2  -1   9   1
M  END
> <PUBCHEM_COMPOUND_ID_TYPE>
0

> <PUBCHEM_TOTAL_CHARGE>
0

> <PUBCHEM_SUBSTANCE_ID>
310930601

> <PUBCHEM_SUBSTANCE_VERSION>
1

> <PUBCHEM_EXT_DATASOURCE_NAME>
4488

> <PUBCHEM_EXT_DATASOURCE_REGID>
SCHEMBL16107898

> <PUBCHEM_SUBSTANCE_COMMENT>
InChI=1S/C20H14N4O5/c1-11-2-4-12(5-3-11)14-10-13(20(25)26)6-7-15(14)21-16-8-9-17(24(27)28)19-18(16)22-29-23-19/h2-10,21H,1H3,(H,25,26)
InChIKey=LZQZNFCYICMVKC-UHFFFAOYSA-N

> <PUBCHEM_SUBSTANCE_SYNONYM>
SCHEMBL16107898

> <PUBCHEM_XREF_EXT_ID>
SCHEMBL16107898

> <PUBCHEM_EXT_DATASOURCE_URL>
https://www.surechembl.org/

> <PUBCHEM_EXT_SUBSTANCE_URL>
https://www.surechembl.org/chemical/SCHEMBL16107898

> <PUBCHEM_CID_ASSOCIATIONS>
117599677  1

> <PUBCHEM_COORDINATE_TYPE>
1
3

$$$$
