310931596
  -OEChem-07211613022D

 24 25  0     0  0  0  0  0  0999 V2000
    0.7177   -0.4067    0.0000 F   0  0  0  0  0  0  0  0  0  0  0  0
    7.1776   -1.6508    0.0000 F   0  0  0  0  0  0  0  0  0  0  0  0
    6.4837   -0.4067    0.0000 F   0  0  0  0  0  0  0  0  0  0  0  0
    6.4598   -2.0815    0.0000 F   0  0  0  0  0  0  0  0  0  0  0  0
    2.1532   -0.4067    0.0000 O   0  0  0  0  0  0  0  0  0  0  0  0
    2.8710   -2.4882    0.0000 O   0  5  0  0  0  0  0  0  0  0  0  0
    2.1532   -3.7323    0.0000 O   0  0  0  0  0  0  0  0  0  0  0  0
    2.8710   -1.6508    0.0000 N   0  0  0  0  0  0  0  0  0  0  0  0
    2.1532   -2.8950    0.0000 N   0  3  0  0  0  0  0  0  0  0  0  0
    1.4355   -1.6508    0.0000 C   0  0  0  0  0  0  0  0  0  0  0  0
    1.4355   -2.4882    0.0000 C   0  0  0  0  0  0  0  0  0  0  0  0
    2.1532   -1.2441    0.0000 C   0  0  0  0  0  0  0  0  0  0  0  0
    0.7177   -1.2441    0.0000 C   0  0  0  0  0  0  0  0  0  0  0  0
    3.6127   -1.2441    0.0000 C   0  0  0  0  0  0  0  0  0  0  0  0
    0.7177   -2.8950    0.0000 C   0  0  0  0  0  0  0  0  0  0  0  0
    0.0000   -1.6508    0.0000 C   0  0  0  0  0  0  0  0  0  0  0  0
    5.0243   -1.2441    0.0000 C   0  0  0  0  0  0  0  0  0  0  0  0
    4.3065   -1.6508    0.0000 C   0  0  0  0  0  0  0  0  0  0  0  0
    0.0000   -2.4882    0.0000 C   0  0  0  0  0  0  0  0  0  0  0  0
    3.6127   -0.4067    0.0000 C   0  0  0  0  0  0  0  0  0  0  0  0
    5.7421   -1.6508    0.0000 C   0  0  0  0  0  0  0  0  0  0  0  0
    6.4598   -1.2441    0.0000 C   0  0  0  0  0  0  0  0  0  0  0  0
    5.0482   -0.4067    0.0000 C   0  0  0  0  0  0  0  0  0  0  0  0
    4.3065    0.0000    0.0000 C   0  0  0  0  0  0  0  0  0  0  0  0
  1 13  1  0  0  0  0
  2 22  1  0  0  0  0
  3 22  1  0  0  0  0
  4 22  1  0  0  0  0
  5 12  2  0  0  0  0
  6  9  1  0  0  0  0
  7  9  2  0  0  0  0
  8 12  1  0  0  0  0
  8 14  1  0  0  0  0
  9 11  1  0  0  0  0
 10 11  1  0  0  0  0
 10 12  1  0  0  0  0
 10 13  2  0  0  0  0
 11 15  2  0  0  0  0
 13 16  1  0  0  0  0
 14 18  1  0  0  0  0
 14 20  2  0  0  0  0
 15 19  1  0  0  0  0
 16 19  2  0  0  0  0
 17 18  2  0  0  0  0
 17 21  1  0  0  0  0
 17 23  1  0  0  0  0
 20 24  1  0  0  0  0
 21 22  1  0  0  0  0
 23 24  2  0  0  0  0
M  CHG  2   6  -1   9   1
M  END
> <PUBCHEM_COMPOUND_ID_TYPE>
0

> <PUBCHEM_TOTAL_CHARGE>
0

> <PUBCHEM_SUBSTANCE_ID>
310931596

> <PUBCHEM_SUBSTANCE_VERSION>
1

> <PUBCHEM_EXT_DATASOURCE_NAME>
4488

> <PUBCHEM_EXT_DATASOURCE_REGID>
SCHEMBL16108922

> <PUBCHEM_SUBSTANCE_COMMENT>
InChI=1S/C15H10F4N2O3/c16-11-5-2-6-12(21(23)24)13(11)14(22)20-10-4-1-3-9(7-10)8-15(17,18)19/h1-7H,8H2,(H,20,22)
InChIKey=OUQVNEVBSZXRQF-UHFFFAOYSA-N

> <PUBCHEM_SUBSTANCE_SYNONYM>
SCHEMBL16108922

> <PUBCHEM_XREF_EXT_ID>
SCHEMBL16108922

> <PUBCHEM_EXT_DATASOURCE_URL>
https://www.surechembl.org/

> <PUBCHEM_EXT_SUBSTANCE_URL>
https://www.surechembl.org/chemical/SCHEMBL16108922

> <PUBCHEM_CID_ASSOCIATIONS>
117600326  1

> <PUBCHEM_COORDINATE_TYPE>
1
3

$$$$
