310936901
  -OEChem-07211613022D

 28 30  0     0  0  0  0  0  0999 V2000
    1.4401    0.0000    0.0000 F   0  0  0  0  0  0  0  0  0  0  0  0
    0.0000   -0.1532    0.0000 F   0  0  0  0  0  0  0  0  0  0  0  0
    4.2591   -1.8997    0.0000 F   0  0  0  0  0  0  0  0  0  0  0  0
    3.0334   -2.5739    0.0000 F   0  0  0  0  0  0  0  0  0  0  0  0
    1.7159   -6.1282    0.0000 O   0  0  0  0  0  0  0  0  0  0  0  0
    4.2284   -3.3092    0.0000 O   0  0  0  0  0  0  0  0  0  0  0  0
    0.5515   -2.5739    0.0000 N   0  0  0  0  0  0  0  0  0  0  0  0
    1.5627   -1.6853    0.0000 N   0  0  0  0  0  0  0  0  0  0  0  0
    0.5209   -5.3928    0.0000 N   0  0  0  0  0  0  0  0  0  0  0  0
    4.1978   -4.7187    0.0000 N   0  0  0  0  0  0  0  0  0  0  0  0
    1.7772   -4.6881    0.0000 C   0  0  0  0  0  0  0  0  0  0  0  0
    2.5739   -4.6881    0.0000 C   0  0  0  0  0  0  0  0  0  0  0  0
    0.5209   -3.9833    0.0000 C   0  0  0  0  0  0  0  0  0  0  0  0
    1.3176   -5.3928    0.0000 C   0  0  0  0  0  0  0  0  0  0  0  0
    1.3176   -3.9833    0.0000 C   0  0  0  0  0  0  0  0  0  0  0  0
    1.3482   -2.4819    0.0000 C   0  0  0  0  0  0  0  0  0  0  0  0
    0.8273   -1.2869    0.0000 C   0  0  0  0  0  0  0  0  0  0  0  0
    0.1225   -3.2786    0.0000 C   0  0  0  0  0  0  0  0  0  0  0  0
    0.2451   -1.8078    0.0000 C   0  0  0  0  0  0  0  0  0  0  0  0
    0.0919   -4.6881    0.0000 C   0  0  0  0  0  0  0  0  0  0  0  0
    2.9721   -3.9833    0.0000 C   0  0  0  0  0  0  0  0  0  0  0  0
    3.7995   -4.0139    0.0000 C   0  0  0  0  0  0  0  0  0  0  0  0
    2.9721   -5.3928    0.0000 C   0  0  0  0  0  0  0  0  0  0  0  0
    0.7660   -0.4902    0.0000 C   0  0  0  0  0  0  0  0  0  0  0  0
    3.7995   -5.4234    0.0000 C   0  0  0  0  0  0  0  0  0  0  0  0
    1.8997   -3.1253    0.0000 C   0  0  0  0  0  0  0  0  0  0  0  0
    3.8301   -2.6044    0.0000 C   0  0  0  0  0  0  0  0  0  0  0  0
    2.5432   -6.1282    0.0000 C   0  0  0  0  0  0  0  0  0  0  0  0
  1 24  1  0  0  0  0
  2 24  1  0  0  0  0
  3 27  1  0  0  0  0
  4 27  1  0  0  0  0
  5 14  1  0  0  0  0
  5 28  1  0  0  0  0
  6 22  1  0  0  0  0
  6 27  1  0  0  0  0
  7 16  1  0  0  0  0
  7 18  1  0  0  0  0
  7 19  1  0  0  0  0
  8 16  2  0  0  0  0
  8 17  1  0  0  0  0
  9 14  1  0  0  0  0
  9 20  2  0  0  0  0
 10 22  1  0  0  0  0
 10 25  2  0  0  0  0
 11 12  1  0  0  0  0
 11 14  2  0  0  0  0
 11 15  1  0  0  0  0
 12 21  1  0  0  0  0
 12 23  2  0  0  0  0
 13 15  2  0  0  0  0
 13 18  1  0  0  0  0
 13 20  1  0  0  0  0
 16 26  1  0  0  0  0
 17 19  2  0  0  0  0
 17 24  1  0  0  0  0
 21 22  2  0  0  0  0
 23 25  1  0  0  0  0
M  END
> <PUBCHEM_COMPOUND_ID_TYPE>
0

> <PUBCHEM_TOTAL_CHARGE>
0

> <PUBCHEM_SUBSTANCE_ID>
310936901

> <PUBCHEM_SUBSTANCE_VERSION>
1

> <PUBCHEM_EXT_DATASOURCE_NAME>
4488

> <PUBCHEM_EXT_DATASOURCE_REGID>
SCHEMBL16114600

> <PUBCHEM_SUBSTANCE_COMMENT>
InChI=1S/C18H16F4N4O2/c1-10-25-14(16(19)20)9-26(10)8-11-5-13(17(27-2)24-7-11)12-3-4-23-15(6-12)28-18(21)22/h3-7,9,16,18H,8H2,1-2H3
InChIKey=JINKSJWWYJZKGZ-UHFFFAOYSA-N

> <PUBCHEM_SUBSTANCE_SYNONYM>
SCHEMBL16114600

> <PUBCHEM_XREF_EXT_ID>
SCHEMBL16114600

> <PUBCHEM_EXT_DATASOURCE_URL>
https://www.surechembl.org/

> <PUBCHEM_EXT_SUBSTANCE_URL>
https://www.surechembl.org/chemical/SCHEMBL16114600

> <PUBCHEM_CID_ASSOCIATIONS>
117604787  1

> <PUBCHEM_COORDINATE_TYPE>
1
3

$$$$
