310931265
  -OEChem-07211613022D

 28 31  0     0  0  0  0  0  0999 V2000
    2.0623   -2.3069    0.0000 O   0  0  0  0  0  0  0  0  0  0  0  0
    0.4893   -4.5440    0.0000 O   0  0  0  0  0  0  0  0  0  0  0  0
    2.9361   -6.2568    0.0000 O   0  0  0  0  0  0  0  0  0  0  0  0
    3.5304   -2.0972    0.0000 N   0  0  0  0  0  0  0  0  0  0  0  0
    3.9498   -3.3906    0.0000 N   0  0  0  0  0  0  0  0  0  0  0  0
    4.9634   -2.3069    0.0000 N   0  0  0  0  0  0  0  0  0  0  0  0
    3.1109   -3.3906    0.0000 C   0  0  0  0  0  0  0  0  0  0  0  0
    2.8662   -2.5866    0.0000 C   0  0  0  0  0  0  0  0  0  0  0  0
    2.6215   -4.0547    0.0000 C   0  0  0  0  0  0  0  0  0  0  0  0
    3.4604   -4.1245    0.0000 C   0  0  0  0  0  0  0  0  0  0  0  0
    4.1945   -2.5866    0.0000 C   0  0  0  0  0  0  0  0  0  0  0  0
    3.5304   -1.2583    0.0000 C   0  0  0  0  0  0  0  0  0  0  0  0
    1.7826   -3.9847    0.0000 C   0  0  0  0  0  0  0  0  0  0  0  0
    3.1808   -4.9984    0.0000 C   0  0  0  0  0  0  0  0  0  0  0  0
    2.9361   -4.8236    0.0000 C   0  0  0  0  0  0  0  0  0  0  0  0
    4.2993   -4.1595    0.0000 C   0  0  0  0  0  0  0  0  0  0  0  0
    1.2933   -4.6489    0.0000 C   0  0  0  0  0  0  0  0  0  0  0  0
    3.3906   -5.5577    0.0000 C   0  0  0  0  0  0  0  0  0  0  0  0
    2.8313   -0.7690    0.0000 C   0  0  0  0  0  0  0  0  0  0  0  0
    4.1945   -0.7690    0.0000 C   0  0  0  0  0  0  0  0  0  0  0  0
    2.4467   -5.4878    0.0000 C   0  0  0  0  0  0  0  0  0  0  0  0
    4.6838   -4.8936    0.0000 C   0  0  0  0  0  0  0  0  0  0  0  0
    1.6428   -5.3829    0.0000 C   0  0  0  0  0  0  0  0  0  0  0  0
    4.2295   -5.5926    0.0000 C   0  0  0  0  0  0  0  0  0  0  0  0
    3.1109    0.0000    0.0000 C   0  0  0  0  0  0  0  0  0  0  0  0
    3.9148    0.0000    0.0000 C   0  0  0  0  0  0  0  0  0  0  0  0
    0.0000   -5.2431    0.0000 C   0  0  0  0  0  0  0  0  0  0  0  0
    3.3206   -6.9908    0.0000 C   0  0  0  0  0  0  0  0  0  0  0  0
  1  8  2  0  0  0  0
  2 17  1  0  0  0  0
  2 27  1  0  0  0  0
  3 18  1  0  0  0  0
  3 28  1  0  0  0  0
  4  8  1  0  0  0  0
  4 11  1  0  0  0  0
  4 12  1  0  0  0  0
  5  7  1  0  0  0  0
  5 11  1  0  0  0  0
  6 11  2  3  0  0  0
  7  8  1  0  0  0  0
  7  9  1  0  0  0  0
  7 10  1  0  0  0  0
  9 13  1  0  0  0  0
  9 15  2  0  0  0  0
 10 14  1  0  0  0  0
 10 16  2  0  0  0  0
 12 19  1  0  0  0  0
 12 20  1  0  0  0  0
 13 17  2  0  0  0  0
 14 18  2  0  0  0  0
 15 21  1  0  0  0  0
 16 22  1  0  0  0  0
 17 23  1  0  0  0  0
 18 24  1  0  0  0  0
 19 25  1  0  0  0  0
 20 26  1  0  0  0  0
 21 23  2  0  0  0  0
 22 24  2  0  0  0  0
 25 26  1  0  0  0  0
M  END
> <PUBCHEM_COMPOUND_ID_TYPE>
0

> <PUBCHEM_TOTAL_CHARGE>
0

> <PUBCHEM_SUBSTANCE_ID>
310931265

> <PUBCHEM_SUBSTANCE_VERSION>
1

> <PUBCHEM_EXT_DATASOURCE_NAME>
4488

> <PUBCHEM_EXT_DATASOURCE_REGID>
SCHEMBL16108579

> <PUBCHEM_SUBSTANCE_COMMENT>
InChI=1S/C22H25N3O3/c1-27-18-11-5-7-15(13-18)22(16-8-6-12-19(14-16)28-2)20(26)25(21(23)24-22)17-9-3-4-10-17/h5-8,11-14,17H,3-4,9-10H2,1-2H3,(H2,23,24)
InChIKey=JHJREQJHTZTNBJ-UHFFFAOYSA-N

> <PUBCHEM_SUBSTANCE_SYNONYM>
SCHEMBL16108579

> <PUBCHEM_XREF_EXT_ID>
SCHEMBL16108579

> <PUBCHEM_EXT_DATASOURCE_URL>
https://www.surechembl.org/

> <PUBCHEM_EXT_SUBSTANCE_URL>
https://www.surechembl.org/chemical/SCHEMBL16108579

> <PUBCHEM_CID_ASSOCIATIONS>
86272175  1

> <PUBCHEM_COORDINATE_TYPE>
1
3

$$$$
