310934736
  -OEChem-07211613022D

 26 27  0     0  0  0  0  0  0999 V2000
    6.7031   -2.9178    0.0000 O   0  0  0  0  0  0  0  0  0  0  0  0
    4.1796   -0.3418    0.0000 O   0  0  0  0  0  0  0  0  0  0  0  0
    3.1807   -1.3406    0.0000 O   0  0  0  0  0  0  0  0  0  0  0  0
    5.7042   -3.9167    0.0000 O   0  0  0  0  0  0  0  0  0  0  0  0
    1.8401   -0.5257    0.0000 O   0  0  0  0  0  0  0  0  0  0  0  0
    0.1052   -2.7601    0.0000 O   0  0  0  0  0  0  0  0  0  0  0  0
    5.3625   -2.5498    0.0000 N   0  0  0  0  0  0  0  0  0  0  0  0
    3.7853   -2.0241    0.0000 N   0  0  0  0  0  0  0  0  0  0  0  0
    4.5476   -1.7086    0.0000 C   0  0  0  0  0  0  0  0  0  0  0  0
    4.5476   -2.5498    0.0000 C   0  0  0  0  0  0  0  0  0  0  0  0
    5.3625   -1.7086    0.0000 C   0  0  0  0  0  0  0  0  0  0  0  0
    3.9693   -1.1303    0.0000 C   0  0  0  0  0  0  0  0  0  0  0  0
    5.9145   -3.1281    0.0000 C   0  0  0  0  0  0  0  0  0  0  0  0
    3.1281   -1.5246    0.0000 C   0  0  0  0  0  0  0  0  0  0  0  0
    2.3921   -1.8401    0.0000 C   0  0  0  0  0  0  0  0  0  0  0  0
    1.7349   -1.3144    0.0000 C   0  0  0  0  0  0  0  0  0  0  0  0
    7.3077   -3.4961    0.0000 C   0  0  0  0  0  0  0  0  0  0  0  0
    2.2607   -2.6549    0.0000 C   0  0  0  0  0  0  0  0  0  0  0  0
    0.9726   -1.6298    0.0000 C   0  0  0  0  0  0  0  0  0  0  0  0
    0.8412   -2.4447    0.0000 C   0  0  0  0  0  0  0  0  0  0  0  0
    1.4983   -2.9704    0.0000 C   0  0  0  0  0  0  0  0  0  0  0  0
    6.7031   -4.1008    0.0000 C   0  0  0  0  0  0  0  0  0  0  0  0
    7.8860   -4.0745    0.0000 C   0  0  0  0  0  0  0  0  0  0  0  0
    7.8860   -2.9178    0.0000 C   0  0  0  0  0  0  0  0  0  0  0  0
    1.1829    0.0000    0.0000 C   0  0  0  0  0  0  0  0  0  0  0  0
    0.0000   -3.5750    0.0000 C   0  0  0  0  0  0  0  0  0  0  0  0
  1 13  1  0  0  0  0
  1 17  1  0  0  0  0
  2 12  2  0  0  0  0
  3 12  1  0  0  0  0
  4 13  2  0  0  0  0
  5 16  1  0  0  0  0
  5 25  1  0  0  0  0
  6 20  1  0  0  0  0
  6 26  1  0  0  0  0
  7 10  1  0  0  0  0
  7 11  1  0  0  0  0
  7 13  1  0  0  0  0
  8  9  1  0  0  0  0
  8 14  1  0  0  0  0
  9 10  1  0  0  0  0
  9 11  1  0  0  0  0
  9 12  1  0  0  0  0
 14 15  1  0  0  0  0
 15 16  2  0  0  0  0
 15 18  1  0  0  0  0
 16 19  1  0  0  0  0
 17 22  1  0  0  0  0
 17 23  1  0  0  0  0
 17 24  1  0  0  0  0
 18 21  2  0  0  0  0
 19 20  2  0  0  0  0
 20 21  1  0  0  0  0
M  END
> <PUBCHEM_COMPOUND_ID_TYPE>
0

> <PUBCHEM_TOTAL_CHARGE>
0

> <PUBCHEM_SUBSTANCE_ID>
310934736

> <PUBCHEM_SUBSTANCE_VERSION>
1

> <PUBCHEM_EXT_DATASOURCE_NAME>
4488

> <PUBCHEM_EXT_DATASOURCE_REGID>
SCHEMBL16112237

> <PUBCHEM_SUBSTANCE_COMMENT>
InChI=1S/C18H26N2O6/c1-17(2,3)26-16(23)20-10-18(11-20,15(21)22)19-9-12-6-7-13(24-4)8-14(12)25-5/h6-8,19H,9-11H2,1-5H3,(H,21,22)
InChIKey=FNLKOCIYAQVIMF-UHFFFAOYSA-N

> <PUBCHEM_SUBSTANCE_SYNONYM>
SCHEMBL16112237

> <PUBCHEM_XREF_EXT_ID>
SCHEMBL16112237

> <PUBCHEM_EXT_DATASOURCE_URL>
https://www.surechembl.org/

> <PUBCHEM_EXT_SUBSTANCE_URL>
https://www.surechembl.org/chemical/SCHEMBL16112237

> <PUBCHEM_CID_ASSOCIATIONS>
117602889  1

> <PUBCHEM_COORDINATE_TYPE>
1
3

$$$$
