310931203
  -OEChem-07211613022D

 32 35  0     0  0  0  0  0  0999 V2000
    2.4751   -6.9399    0.0000 S   0  0  0  0  0  0  0  0  0  0  0  0
    4.9987   -6.8914    0.0000 F   0  0  0  0  0  0  0  0  0  0  0  0
    3.5913   -6.6002    0.0000 F   0  0  0  0  0  0  0  0  0  0  0  0
    4.8046   -7.6679    0.0000 F   0  0  0  0  0  0  0  0  0  0  0  0
    3.2031   -6.5032    0.0000 O   0  0  0  0  0  0  0  0  0  0  0  0
    1.7471   -7.3282    0.0000 O   0  0  0  0  0  0  0  0  0  0  0  0
    0.0000   -2.7177    0.0000 O   0  0  0  0  0  0  0  0  0  0  0  0
    3.8340   -8.5415    0.0000 N   0  0  0  0  0  0  0  0  0  0  0  0
    3.1060   -8.9297    0.0000 N   0  0  0  0  0  0  0  0  0  0  0  0
    2.4266   -1.3103    0.0000 N   0  0  0  0  0  0  0  0  0  0  0  0
    1.2133   -3.3972    0.0000 N   0  0  0  0  0  0  0  0  0  0  0  0
    2.5722    0.0000    0.0000 N   0  0  0  0  0  0  0  0  0  0  0  0
    2.8633   -7.6194    0.0000 C   0  0  0  0  0  0  0  0  0  0  0  0
    3.6398   -7.7164    0.0000 C   0  0  0  0  0  0  0  0  0  0  0  0
    2.0383   -6.2120    0.0000 C   0  0  0  0  0  0  0  0  0  0  0  0
    4.1737   -7.1341    0.0000 C   0  0  0  0  0  0  0  0  0  0  0  0
    2.5236   -8.3959    0.0000 C   0  0  0  0  0  0  0  0  0  0  0  0
    2.4751   -5.5325    0.0000 C   0  0  0  0  0  0  0  0  0  0  0  0
    1.2133   -6.2120    0.0000 C   0  0  0  0  0  0  0  0  0  0  0  0
    1.2133   -4.8046    0.0000 C   0  0  0  0  0  0  0  0  0  0  0  0
    2.0383   -4.8046    0.0000 C   0  0  0  0  0  0  0  0  0  0  0  0
    0.8250   -5.5325    0.0000 C   0  0  0  0  0  0  0  0  0  0  0  0
    3.0089   -9.7062    0.0000 C   0  0  0  0  0  0  0  0  0  0  0  0
    2.0383   -0.6309    0.0000 C   0  0  0  0  0  0  0  0  0  0  0  0
    1.2133   -2.0383    0.0000 C   0  0  0  0  0  0  0  0  0  0  0  0
    2.0383   -2.0383    0.0000 C   0  0  0  0  0  0  0  0  0  0  0  0
    0.8250   -2.7177    0.0000 C   0  0  0  0  0  0  0  0  0  0  0  0
    0.8250   -4.1251    0.0000 C   0  0  0  0  0  0  0  0  0  0  0  0
    1.2133   -0.6309    0.0000 C   0  0  0  0  0  0  0  0  0  0  0  0
    0.8250   -1.3103    0.0000 C   0  0  0  0  0  0  0  0  0  0  0  0
    3.2516   -1.1162    0.0000 C   0  0  0  0  0  0  0  0  0  0  0  0
    3.3001   -0.3397    0.0000 C   0  0  0  0  0  0  0  0  0  0  0  0
  1  5  2  0  0  0  0
  1  6  2  0  0  0  0
  1 13  1  0  0  0  0
  1 15  1  0  0  0  0
  2 16  1  0  0  0  0
  3 16  1  0  0  0  0
  4 16  1  0  0  0  0
  7 27  2  0  0  0  0
  8  9  1  0  0  0  0
  8 14  2  0  0  0  0
  9 17  1  0  0  0  0
  9 23  1  0  0  0  0
 10 24  1  0  0  0  0
 10 26  1  0  0  0  0
 10 31  1  0  0  0  0
 11 27  1  0  0  0  0
 11 28  1  0  0  0  0
 12 24  2  0  0  0  0
 12 32  1  0  0  0  0
 13 14  1  0  0  0  0
 13 17  2  0  0  0  0
 14 16  1  0  0  0  0
 15 18  2  0  0  0  0
 15 19  1  0  0  0  0
 18 21  1  0  0  0  0
 19 22  2  0  0  0  0
 20 21  2  0  0  0  0
 20 22  1  0  0  0  0
 20 28  1  0  0  0  0
 24 29  1  0  0  0  0
 25 26  2  0  0  0  0
 25 27  1  0  0  0  0
 25 30  1  0  0  0  0
 29 30  2  0  0  0  0
 31 32  2  0  0  0  0
M  END
> <PUBCHEM_COMPOUND_ID_TYPE>
0

> <PUBCHEM_TOTAL_CHARGE>
0

> <PUBCHEM_SUBSTANCE_ID>
310931203

> <PUBCHEM_SUBSTANCE_VERSION>
1

> <PUBCHEM_EXT_DATASOURCE_NAME>
4488

> <PUBCHEM_EXT_DATASOURCE_REGID>
SCHEMBL16108512

> <PUBCHEM_SUBSTANCE_COMMENT>
InChI=1S/C20H16F3N5O3S/c1-27-12-16(18(26-27)20(21,22)23)32(30,31)15-5-2-13(3-6-15)10-25-19(29)14-4-7-17-24-8-9-28(17)11-14/h2-9,11-12H,10H2,1H3,(H,25,29)
InChIKey=WAYMYUUMWJWZGG-UHFFFAOYSA-N

> <PUBCHEM_SUBSTANCE_SYNONYM>
SCHEMBL16108512

> <PUBCHEM_XREF_EXT_ID>
SCHEMBL16108512

> <PUBCHEM_EXT_DATASOURCE_URL>
https://www.surechembl.org/

> <PUBCHEM_EXT_SUBSTANCE_URL>
https://www.surechembl.org/chemical/SCHEMBL16108512

> <PUBCHEM_CID_ASSOCIATIONS>
90013241  1

> <PUBCHEM_COORDINATE_TYPE>
1
3

$$$$
