310937991
  -OEChem-07211613022D

 18 19  0     0  0  0  0  0  0999 V2000
    4.5766   -1.4738    0.0000 O   0  0  0  0  0  0  0  0  0  0  0  0
    4.5766   -2.9088    0.0000 O   0  0  0  0  0  0  0  0  0  0  0  0
    2.8700   -2.8700    0.0000 N   0  0  0  0  0  0  0  0  0  0  0  0
    0.0969   -0.3490    0.0000 N   0  0  0  0  0  0  0  0  0  0  0  0
    2.8700   -1.5126    0.0000 C   0  0  0  0  0  0  0  0  0  0  0  0
    2.0944   -1.7841    0.0000 C   0  0  0  0  0  0  0  0  0  0  0  0
    3.3548   -2.1913    0.0000 C   0  0  0  0  0  0  0  0  0  0  0  0
    1.4156   -1.2993    0.0000 C   0  0  0  0  0  0  0  0  0  0  0  0
    2.0944   -2.5985    0.0000 C   0  0  0  0  0  0  0  0  0  0  0  0
    4.1693   -2.1913    0.0000 C   0  0  0  0  0  0  0  0  0  0  0  0
    3.1222   -0.7369    0.0000 C   0  0  0  0  0  0  0  0  0  0  0  0
    1.5126   -0.5042    0.0000 C   0  0  0  0  0  0  0  0  0  0  0  0
    0.6593   -1.6677    0.0000 C   0  0  0  0  0  0  0  0  0  0  0  0
    0.8533    0.0000    0.0000 C   0  0  0  0  0  0  0  0  0  0  0  0
    0.0000   -1.1441    0.0000 C   0  0  0  0  0  0  0  0  0  0  0  0
    2.5792   -0.1163    0.0000 C   0  0  0  0  0  0  0  0  0  0  0  0
    5.4105   -1.4738    0.0000 C   0  0  0  0  0  0  0  0  0  0  0  0
    5.8177   -0.7563    0.0000 C   0  0  0  0  0  0  0  0  0  0  0  0
  1 10  1  0  0  0  0
  1 17  1  0  0  0  0
  2 10  2  0  0  0  0
  3  7  1  0  0  0  0
  3  9  1  0  0  0  0
  4 14  2  0  0  0  0
  4 15  1  0  0  0  0
  5  6  1  0  0  0  0
  5  7  2  0  0  0  0
  5 11  1  0  0  0  0
  6  8  1  0  0  0  0
  6  9  2  0  0  0  0
  7 10  1  0  0  0  0
  8 12  2  0  0  0  0
  8 13  1  0  0  0  0
 11 16  1  0  0  0  0
 12 14  1  0  0  0  0
 13 15  2  0  0  0  0
 17 18  1  0  0  0  0
M  END
> <PUBCHEM_COMPOUND_ID_TYPE>
0

> <PUBCHEM_TOTAL_CHARGE>
0

> <PUBCHEM_SUBSTANCE_ID>
310937991

> <PUBCHEM_SUBSTANCE_VERSION>
1

> <PUBCHEM_EXT_DATASOURCE_NAME>
4488

> <PUBCHEM_EXT_DATASOURCE_REGID>
SCHEMBL16115828

> <PUBCHEM_SUBSTANCE_COMMENT>
InChI=1S/C14H16N2O2/c1-3-11-12(10-5-7-15-8-6-10)9-16-13(11)14(17)18-4-2/h5-9,16H,3-4H2,1-2H3
InChIKey=ZMAYIOAIACOJCS-UHFFFAOYSA-N

> <PUBCHEM_SUBSTANCE_SYNONYM>
SCHEMBL16115828

> <PUBCHEM_XREF_EXT_ID>
SCHEMBL16115828

> <PUBCHEM_EXT_DATASOURCE_URL>
https://www.surechembl.org/

> <PUBCHEM_EXT_SUBSTANCE_URL>
https://www.surechembl.org/chemical/SCHEMBL16115828

> <PUBCHEM_CID_ASSOCIATIONS>
117605588  1

> <PUBCHEM_COORDINATE_TYPE>
1
3

$$$$
