310932933
  -OEChem-07211613022D

 33 37  0     0  0  0  0  0  0999 V2000
    4.0345   -2.7281    0.0000 O   0  0  0  0  0  0  0  0  0  0  0  0
    8.5685   -2.8434    0.0000 O   0  0  0  0  0  0  0  0  0  0  0  0
    4.9567   -1.5754    0.0000 N   0  0  0  0  0  0  0  0  0  0  0  0
    4.8798   -0.7685    0.0000 N   0  0  0  0  0  0  0  0  0  0  0  0
    6.4168   -1.5754    0.0000 N   0  0  0  0  0  0  0  0  0  0  0  0
    9.9902   -5.3025    0.0000 N   0  0  0  0  0  0  0  0  0  0  0  0
    7.8385   -4.0729    0.0000 N   0  0  0  0  0  0  0  0  0  0  0  0
    0.0000   -2.4591    0.0000 N   0  0  0  0  0  0  0  0  0  0  0  0
    3.6503   -1.3448    0.0000 C   0  0  0  0  0  0  0  0  0  0  0  0
    4.2266   -1.9212    0.0000 C   0  0  0  0  0  0  0  0  0  0  0  0
    2.8049   -1.4217    0.0000 C   0  0  0  0  0  0  0  0  0  0  0  0
    5.6867   -1.9981    0.0000 C   0  0  0  0  0  0  0  0  0  0  0  0
    4.0345   -0.6148    0.0000 C   0  0  0  0  0  0  0  0  0  0  0  0
    2.3055   -0.7685    0.0000 C   0  0  0  0  0  0  0  0  0  0  0  0
    5.6867   -2.8434    0.0000 C   0  0  0  0  0  0  0  0  0  0  0  0
    2.4975   -2.1901    0.0000 C   0  0  0  0  0  0  0  0  0  0  0  0
    7.1084   -2.8434    0.0000 C   0  0  0  0  0  0  0  0  0  0  0  0
    7.1084   -1.9981    0.0000 C   0  0  0  0  0  0  0  0  0  0  0  0
    6.4168   -3.2276    0.0000 C   0  0  0  0  0  0  0  0  0  0  0  0
    1.4985   -0.8453    0.0000 C   0  0  0  0  0  0  0  0  0  0  0  0
    7.8385   -3.2276    0.0000 C   0  0  0  0  0  0  0  0  0  0  0  0
    1.1527   -1.6138    0.0000 C   0  0  0  0  0  0  0  0  0  0  0  0
   10.7203   -5.7252    0.0000 C   0  0  0  0  0  0  0  0  0  0  0  0
    1.6522   -2.2670    0.0000 C   0  0  0  0  0  0  0  0  0  0  0  0
    8.5685   -4.4956    0.0000 C   0  0  0  0  0  0  0  0  0  0  0  0
   11.5272   -5.7252    0.0000 C   0  0  0  0  0  0  0  0  0  0  0  0
   11.1430   -6.4552    0.0000 C   0  0  0  0  0  0  0  0  0  0  0  0
    2.6512    0.0000    0.0000 C   0  0  0  0  0  0  0  0  0  0  0  0
    9.2602   -5.7636    0.0000 C   0  0  0  0  0  0  0  0  0  0  0  0
    9.9902   -4.4956    0.0000 C   0  0  0  0  0  0  0  0  0  0  0  0
    8.5685   -5.3409    0.0000 C   0  0  0  0  0  0  0  0  0  0  0  0
    9.2602   -4.0729    0.0000 C   0  0  0  0  0  0  0  0  0  0  0  0
    0.3458   -1.6907    0.0000 C   0  0  0  0  0  0  0  0  0  0  0  0
  1 10  1  0  0  0  0
  2 21  2  0  0  0  0
  3  4  1  0  0  0  0
  3 10  1  0  0  0  0
  3 12  1  0  0  0  0
  4 13  2  0  0  0  0
  5 12  2  0  0  0  0
  5 18  1  0  0  0  0
  6 23  1  0  0  0  0
  6 29  1  0  0  0  0
  6 30  1  0  0  0  0
  7 21  1  0  0  0  0
  7 25  1  0  0  0  0
  8 33  3  0  0  0  0
  9 10  2  0  0  0  0
  9 11  1  0  0  0  0
  9 13  1  0  0  0  0
 11 14  1  0  0  0  0
 11 16  2  0  0  0  0
 12 15  1  0  0  0  0
 14 20  2  0  0  0  0
 14 28  1  0  0  0  0
 15 19  2  0  0  0  0
 16 24  1  0  0  0  0
 17 18  2  0  0  0  0
 17 19  1  0  0  0  0
 17 21  1  0  0  0  0
 20 22  1  0  0  0  0
 22 24  2  0  0  0  0
 22 33  1  0  0  0  0
 23 26  1  0  0  0  0
 23 27  1  0  0  0  0
 25 31  1  0  0  0  0
 25 32  1  0  0  0  0
 26 27  1  0  0  0  0
 29 31  1  0  0  0  0
 30 32  1  0  0  0  0
M  END
> <PUBCHEM_COMPOUND_ID_TYPE>
0

> <PUBCHEM_TOTAL_CHARGE>
0

> <PUBCHEM_SUBSTANCE_ID>
310932933

> <PUBCHEM_SUBSTANCE_VERSION>
1

> <PUBCHEM_EXT_DATASOURCE_NAME>
4488

> <PUBCHEM_EXT_DATASOURCE_REGID>
SCHEMBL16110328

> <PUBCHEM_SUBSTANCE_COMMENT>
InChI=1S/C25H26N6O2/c1-16-12-17(13-26)2-6-21(16)22-15-28-31(25(22)33)23-7-3-18(14-27-23)24(32)29-19-8-10-30(11-9-19)20-4-5-20/h2-3,6-7,12,14-15,19-20,33H,4-5,8-11H2,1H3,(H,29,32)
InChIKey=RYABEKIWVBZWOU-UHFFFAOYSA-N

> <PUBCHEM_SUBSTANCE_SYNONYM>
SCHEMBL16110328

> <PUBCHEM_XREF_EXT_ID>
SCHEMBL16110328

> <PUBCHEM_EXT_DATASOURCE_URL>
https://www.surechembl.org/

> <PUBCHEM_EXT_SUBSTANCE_URL>
https://www.surechembl.org/chemical/SCHEMBL16110328

> <PUBCHEM_CID_ASSOCIATIONS>
117601414  1

> <PUBCHEM_COORDINATE_TYPE>
1
3

$$$$
