310934450
  -OEChem-07211613022D

 40 45  0     0  0  0  0  0  0999 V2000
    1.5131   -5.3743    0.0000 O   0  0  0  0  0  0  0  0  0  0  0  0
    0.7827   -1.6696    0.0000 O   0  0  0  0  0  0  0  0  0  0  0  0
    2.2436   -1.6696    0.0000 O   0  0  0  0  0  0  0  0  0  0  0  0
    5.8439   -6.9917    0.0000 N   0  0  0  0  0  0  0  0  0  0  0  0
    6.6265   -6.7830    0.0000 N   0  0  0  0  0  0  0  0  0  0  0  0
    5.1134   -8.2440    0.0000 N   0  0  0  0  0  0  0  0  0  0  0  0
    8.7657   -9.9659    0.0000 N   0  0  0  0  0  0  0  0  0  0  0  0
    3.6524   -5.7395    0.0000 N   0  0  0  0  0  0  0  0  0  0  0  0
    1.5131   -2.8698    0.0000 N   0  0  0  0  0  0  0  0  0  0  0  0
    6.6265   -8.0875    0.0000 C   0  0  0  0  0  0  0  0  0  0  0  0
    5.8439   -7.8788    0.0000 C   0  0  0  0  0  0  0  0  0  0  0  0
    6.8874   -8.8701    0.0000 C   0  0  0  0  0  0  0  0  0  0  0  0
    7.6701   -9.0266    0.0000 C   0  0  0  0  0  0  0  0  0  0  0  0
    7.0961   -7.4092    0.0000 C   0  0  0  0  0  0  0  0  0  0  0  0
    4.4350   -6.9917    0.0000 C   0  0  0  0  0  0  0  0  0  0  0  0
    7.9310   -9.8093    0.0000 C   0  0  0  0  0  0  0  0  0  0  0  0
    5.1134   -6.6265    0.0000 C   0  0  0  0  0  0  0  0  0  0  0  0
    6.3656   -9.4963    0.0000 C   0  0  0  0  0  0  0  0  0  0  0  0
    4.4350   -7.8788    0.0000 C   0  0  0  0  0  0  0  0  0  0  0  0
    3.7046   -6.5743    0.0000 C   0  0  0  0  0  0  0  0  0  0  0  0
    8.2440   -8.4005    0.0000 C   0  0  0  0  0  0  0  0  0  0  0  0
    7.4092  -10.4355    0.0000 C   0  0  0  0  0  0  0  0  0  0  0  0
    6.6265  -10.2789    0.0000 C   0  0  0  0  0  0  0  0  0  0  0  0
    9.3397   -9.3397    0.0000 C   0  0  0  0  0  0  0  0  0  0  0  0
    9.0266   -8.5570    0.0000 C   0  0  0  0  0  0  0  0  0  0  0  0
    2.9741   -6.9917    0.0000 C   0  0  0  0  0  0  0  0  0  0  0  0
    2.2436   -5.7395    0.0000 C   0  0  0  0  0  0  0  0  0  0  0  0
    2.9741   -5.3743    0.0000 C   0  0  0  0  0  0  0  0  0  0  0  0
    2.2436   -6.5743    0.0000 C   0  0  0  0  0  0  0  0  0  0  0  0
    1.5131   -4.5394    0.0000 C   0  0  0  0  0  0  0  0  0  0  0  0
   10.1224   -9.4963    0.0000 C   0  0  0  0  0  0  0  0  0  0  0  0
    1.5131   -2.0349    0.0000 C   0  0  0  0  0  0  0  0  0  0  0  0
    2.2436   -4.1220    0.0000 C   0  0  0  0  0  0  0  0  0  0  0  0
    0.7827   -4.1220    0.0000 C   0  0  0  0  0  0  0  0  0  0  0  0
    2.2436   -3.2872    0.0000 C   0  0  0  0  0  0  0  0  0  0  0  0
    0.7827   -3.2872    0.0000 C   0  0  0  0  0  0  0  0  0  0  0  0
    0.7827   -0.8349    0.0000 C   0  0  0  0  0  0  0  0  0  0  0  0
    1.6696   -0.8349    0.0000 C   0  0  0  0  0  0  0  0  0  0  0  0
    0.7827    0.0000    0.0000 C   0  0  0  0  0  0  0  0  0  0  0  0
    0.0000   -0.8349    0.0000 C   0  0  0  0  0  0  0  0  0  0  0  0
  1 27  1  0  0  0  0
  1 30  1  0  0  0  0
  2 32  1  0  0  0  0
  2 37  1  0  0  0  0
  3 32  2  0  0  0  0
  4  5  1  0  0  0  0
  4 11  1  0  0  0  0
  4 17  1  0  0  0  0
  5 14  2  0  0  0  0
  6 11  1  0  0  0  0
  6 19  2  0  0  0  0
  7 16  2  0  0  0  0
  7 24  1  0  0  0  0
  8 20  2  0  0  0  0
  8 28  1  0  0  0  0
  9 32  1  0  0  0  0
  9 35  1  0  0  0  0
  9 36  1  0  0  0  0
 10 11  2  0  0  0  0
 10 12  1  0  0  0  0
 10 14  1  0  0  0  0
 12 13  1  0  0  0  0
 12 18  2  0  0  0  0
 13 16  1  0  0  0  0
 13 21  2  0  0  0  0
 15 17  2  0  0  0  0
 15 19  1  0  0  0  0
 15 20  1  0  0  0  0
 16 22  1  0  0  0  0
 18 23  1  0  0  0  0
 20 26  1  0  0  0  0
 21 25  1  0  0  0  0
 22 23  2  0  0  0  0
 24 25  2  0  0  0  0
 24 31  1  0  0  0  0
 26 29  2  0  0  0  0
 27 28  2  0  0  0  0
 27 29  1  0  0  0  0
 30 33  1  0  0  0  0
 30 34  1  0  0  0  0
 33 35  1  0  0  0  0
 34 36  1  0  0  0  0
 37 38  1  0  0  0  0
 37 39  1  0  0  0  0
 37 40  1  0  0  0  0
M  END
> <PUBCHEM_COMPOUND_ID_TYPE>
0

> <PUBCHEM_TOTAL_CHARGE>
0

> <PUBCHEM_SUBSTANCE_ID>
310934450

> <PUBCHEM_SUBSTANCE_VERSION>
1

> <PUBCHEM_EXT_DATASOURCE_NAME>
4488

> <PUBCHEM_EXT_DATASOURCE_REGID>
SCHEMBL16111929

> <PUBCHEM_SUBSTANCE_COMMENT>
InChI=1S/C31H32N6O3/c1-20-8-10-25-24(6-5-7-28(25)35-20)26-18-34-37-19-21(16-33-29(26)37)27-11-9-23(17-32-27)39-22-12-14-36(15-13-22)30(38)40-31(2,3)4/h5-11,16-19,22H,12-15H2,1-4H3
InChIKey=DFZDEJXXMYYBDY-UHFFFAOYSA-N

> <PUBCHEM_SUBSTANCE_SYNONYM>
SCHEMBL16111929

> <PUBCHEM_XREF_EXT_ID>
SCHEMBL16111929

> <PUBCHEM_EXT_DATASOURCE_URL>
https://www.surechembl.org/

> <PUBCHEM_EXT_SUBSTANCE_URL>
https://www.surechembl.org/chemical/SCHEMBL16111929

> <PUBCHEM_CID_ASSOCIATIONS>
117602657  1

> <PUBCHEM_COORDINATE_TYPE>
1
3

$$$$
