310942527
  -OEChem-07211613022D

 66 70  0     0  0  0  0  0  0999 V2000
    0.3671   -5.4432    0.0000 Cl  0  0  0  0  0  0  0  0  0  0  0  0
   -1.5366    3.3282    0.0000 O   0  0  0  0  0  0  0  0  0  0  0  0
    3.9378   -0.0436    0.0000 O   0  0  0  0  0  0  0  0  0  0  0  0
    3.2286    2.0218    0.0000 O   0  0  0  0  0  0  0  0  0  0  0  0
    2.5070   -2.5319    0.0000 O   0  0  0  0  0  0  0  0  0  0  0  0
   -2.5194   -3.7761    0.0000 O   0  0  0  0  0  0  0  0  0  0  0  0
   -5.3935   -2.9549    0.0000 O   0  0  0  0  0  0  0  0  0  0  0  0
   -4.6843   -5.0202    0.0000 O   0  0  0  0  0  0  0  0  0  0  0  0
    0.9767    3.3282    0.0000 N   0  0  0  0  0  0  0  0  0  0  0  0
    1.2255    2.5444    0.0000 N   0  0  0  0  0  0  0  0  0  0  0  0
   -0.1431    4.0497    0.0000 N   0  0  0  0  0  0  0  0  0  0  0  0
   -1.3872    4.7714    0.0000 N   0  0  0  0  0  0  0  0  0  0  0  0
    4.0871    3.2784    0.0000 N   0  0  0  0  0  0  0  0  0  0  0  0
    1.0886   -1.6983    0.0000 N   0  0  0  0  0  0  0  0  0  0  0  0
    0.3671   -1.2877    0.0000 N   0  0  0  0  0  0  0  0  0  0  0  0
   -3.2286   -2.5319    0.0000 N   0  0  0  0  0  0  0  0  0  0  0  0
    0.5412    2.0591    0.0000 C   0  0  0  0  0  0  0  0  0  0  0  0
    0.1306    3.3282    0.0000 C   0  0  0  0  0  0  0  0  0  0  0  0
    1.5490    3.9254    0.0000 C   0  0  0  0  0  0  0  0  0  0  0  0
   -0.1182    2.5444    0.0000 C   0  0  0  0  0  0  0  0  0  0  0  0
    0.3297    1.2379    0.0000 C   0  0  0  0  0  0  0  0  0  0  0  0
    2.3452    3.7139    0.0000 C   0  0  0  0  0  0  0  0  0  0  0  0
    1.3499    4.7092    0.0000 C   0  0  0  0  0  0  0  0  0  0  0  0
    2.9301    4.2986    0.0000 C   0  0  0  0  0  0  0  0  0  0  0  0
   -1.1011    4.0747    0.0000 C   0  0  0  0  0  0  0  0  0  0  0  0
   -0.4541    1.0264    0.0000 C   0  0  0  0  0  0  0  0  0  0  0  0
    0.9269    0.6656    0.0000 C   0  0  0  0  0  0  0  0  0  0  0  0
    0.1306    0.4541    0.0000 C   0  0  0  0  0  0  0  0  0  0  0  0
    1.9222    5.2939    0.0000 C   0  0  0  0  0  0  0  0  0  0  0  0
    2.7309    5.0824    0.0000 C   0  0  0  0  0  0  0  0  0  0  0  0
    3.7512    4.0622    0.0000 C   0  0  0  0  0  0  0  0  0  0  0  0
   -2.5568    4.7589    0.0000 C   0  0  0  0  0  0  0  0  0  0  0  0
   -2.9674    5.4432    0.0000 C   0  0  0  0  0  0  0  0  0  0  0  0
   -2.9424    4.0374    0.0000 C   0  0  0  0  0  0  0  0  0  0  0  0
    3.9627    2.4448    0.0000 C   0  0  0  0  0  0  0  0  0  0  0  0
    1.7979   -1.2877    0.0000 C   0  0  0  0  0  0  0  0  0  0  0  0
    2.5194   -1.6983    0.0000 C   0  0  0  0  0  0  0  0  0  0  0  0
    3.2411   -0.4541    0.0000 C   0  0  0  0  0  0  0  0  0  0  0  0
   -3.8009    5.4309    0.0000 C   0  0  0  0  0  0  0  0  0  0  0  0
   -3.7761    4.0249    0.0000 C   0  0  0  0  0  0  0  0  0  0  0  0
   -0.3546   -1.6983    0.0000 C   0  0  0  0  0  0  0  0  0  0  0  0
    3.2411   -1.2877    0.0000 C   0  0  0  0  0  0  0  0  0  0  0  0
    1.8103   -0.4666    0.0000 C   0  0  0  0  0  0  0  0  0  0  0  0
   -1.7979   -2.5319    0.0000 C   0  0  0  0  0  0  0  0  0  0  0  0
    2.5194   -0.0560    0.0000 C   0  0  0  0  0  0  0  0  0  0  0  0
   -4.2115    4.7465    0.0000 C   0  0  0  0  0  0  0  0  0  0  0  0
    4.6719    2.0218    0.0000 C   0  0  0  0  0  0  0  0  0  0  0  0
   -1.0638   -1.3002    0.0000 C   0  0  0  0  0  0  0  0  0  0  0  0
   -0.3546   -2.5319    0.0000 C   0  0  0  0  0  0  0  0  0  0  0  0
   -1.7854   -1.7107    0.0000 C   0  0  0  0  0  0  0  0  0  0  0  0
   -1.0638   -2.9424    0.0000 C   0  0  0  0  0  0  0  0  0  0  0  0
   -2.5070   -2.9301    0.0000 C   0  0  0  0  0  0  0  0  0  0  0  0
    4.6719    1.2006    0.0000 C   0  0  0  0  0  0  0  0  0  0  0  0
    4.6843   -0.4541    0.0000 C   0  0  0  0  0  0  0  0  0  0  0  0
    5.3935    0.7776    0.0000 C   0  0  0  0  0  0  0  0  0  0  0  0
    5.3935   -0.0560    0.0000 C   0  0  0  0  0  0  0  0  0  0  0  0
   -3.9378   -2.9424    0.0000 C   0  0  0  0  0  0  0  0  0  0  0  0
   -4.6594   -2.5319    0.0000 C   0  0  0  0  0  0  0  0  0  0  0  0
   -5.3811   -3.7761    0.0000 C   0  0  0  0  0  0  0  0  0  0  0  0
   -4.6594   -4.1991    0.0000 C   0  0  0  0  0  0  0  0  0  0  0  0
   -3.9378   -5.4309    0.0000 C   0  0  0  0  0  0  0  0  0  0  0  0
   -3.2286   -5.0202    0.0000 C   0  0  0  0  0  0  0  0  0  0  0  0
   -2.4946   -5.4309    0.0000 C   0  0  0  0  0  0  0  0  0  0  0  0
   -1.7979   -5.0202    0.0000 C   0  0  0  0  0  0  0  0  0  0  0  0
   -1.0638   -5.4309    0.0000 C   0  0  0  0  0  0  0  0  0  0  0  0
   -0.3546   -5.0202    0.0000 C   0  0  0  0  0  0  0  0  0  0  0  0
  1 66  1  0  0  0  0
  2 25  2  0  0  0  0
  3 38  1  0  0  0  0
  3 54  1  0  0  0  0
  4 35  2  0  0  0  0
  5 37  1  0  0  0  0
  6 52  2  0  0  0  0
  7 58  1  0  0  0  0
  7 59  1  0  0  0  0
  8 60  1  0  0  0  0
  8 61  1  0  0  0  0
  9 10  1  0  0  0  0
  9 18  1  0  0  0  0
  9 19  1  0  0  0  0
 10 17  2  0  0  0  0
 11 18  1  0  0  0  0
 11 25  1  0  0  0  0
 12 25  1  0  0  0  0
 12 32  1  0  0  0  0
 13 31  1  0  0  0  0
 13 35  1  0  0  0  0
 14 15  2  0  0  0  0
 14 36  1  0  0  0  0
 15 41  1  0  0  0  0
 16 52  1  0  0  0  0
 16 57  1  0  0  0  0
 17 20  1  0  0  0  0
 17 21  1  0  0  0  0
 18 20  2  0  0  0  0
 19 22  2  0  0  0  0
 19 23  1  0  0  0  0
 21 26  1  0  0  0  0
 21 27  1  0  0  0  0
 21 28  1  0  0  0  0
 22 24  1  0  0  0  0
 23 29  2  0  0  0  0
 24 30  2  0  0  0  0
 24 31  1  0  0  0  0
 29 30  1  0  0  0  0
 32 33  2  0  0  0  0
 32 34  1  0  0  0  0
 33 39  1  0  0  0  0
 34 40  2  0  0  0  0
 35 47  1  0  0  0  0
 36 37  1  0  0  0  0
 36 43  2  0  0  0  0
 37 42  2  0  0  0  0
 38 42  1  0  0  0  0
 38 45  2  0  0  0  0
 39 46  2  0  0  0  0
 40 46  1  0  0  0  0
 41 48  2  0  0  0  0
 41 49  1  0  0  0  0
 43 45  1  0  0  0  0
 44 50  2  0  0  0  0
 44 51  1  0  0  0  0
 44 52  1  0  0  0  0
 47 53  1  0  0  0  0
 48 50  1  0  0  0  0
 49 51  2  0  0  0  0
 53 55  1  0  0  0  0
 54 56  1  0  0  0  0
 55 56  1  0  0  0  0
 57 58  1  0  0  0  0
 59 60  1  0  0  0  0
 61 62  1  0  0  0  0
 62 63  1  0  0  0  0
 63 64  1  0  0  0  0
 64 65  1  0  0  0  0
 65 66  1  0  0  0  0
M  END
> <PUBCHEM_COMPOUND_ID_TYPE>
0

> <PUBCHEM_TOTAL_CHARGE>
0

> <PUBCHEM_SUBSTANCE_ID>
310942527

> <PUBCHEM_SUBSTANCE_VERSION>
1

> <PUBCHEM_EXT_DATASOURCE_NAME>
4488

> <PUBCHEM_EXT_DATASOURCE_REGID>
SCHEMBL16120563

> <PUBCHEM_SUBSTANCE_COMMENT>
InChI=1S/C50H63ClN8O7/c1-50(2,3)45-35-46(55-49(63)54-39-16-8-6-9-17-39)59(58-45)41-18-14-15-37(33-41)36-53-47(61)19-10-7-13-29-66-42-24-25-43(44(60)34-42)57-56-40-22-20-38(21-23-40)48(62)52-27-30-65-32-31-64-28-12-5-4-11-26-51/h6,8-9,14-18,20-25,33-35,60H,4-5,7,10-13,19,26-32,36H2,1-3H3,(H,52,62)(H,53,61)(H2,54,55,63)/b57-56+
InChIKey=GSDGIPOYJBWKJS-ZKYIHRRISA-N

> <PUBCHEM_SUBSTANCE_SYNONYM>
SCHEMBL16120563

> <PUBCHEM_XREF_EXT_ID>
SCHEMBL16120563

> <PUBCHEM_EXT_DATASOURCE_URL>
https://www.surechembl.org/

> <PUBCHEM_EXT_SUBSTANCE_URL>
https://www.surechembl.org/chemical/SCHEMBL16120563

> <PUBCHEM_CID_ASSOCIATIONS>
117609087  1

> <PUBCHEM_COORDINATE_TYPE>
1
3

$$$$
