310933120
  -OEChem-07211613022D

 18 18  0     0  0  0  0  0  0999 V2000
    3.6000   -1.2375    0.0000 O   0  0  0  0  0  0  0  0  0  0  0  0
    3.5812   -3.7500    0.0000 O   0  0  0  0  0  0  0  0  0  0  0  0
    2.8874    0.0000    0.0000 O   0  0  0  0  0  0  0  0  0  0  0  0
    2.1562   -3.7124    0.0000 N   0  0  0  0  0  0  0  0  0  0  0  0
    0.7312   -1.2375    0.0000 N   0  0  0  0  0  0  0  0  0  0  0  0
    2.1750   -1.2375    0.0000 C   0  0  0  0  0  0  0  0  0  0  0  0
    2.1750   -2.0812    0.0000 C   0  0  0  0  0  0  0  0  0  0  0  0
    2.8874   -0.8250    0.0000 C   0  0  0  0  0  0  0  0  0  0  0  0
    2.8874   -2.4750    0.0000 C   0  0  0  0  0  0  0  0  0  0  0  0
    2.8687   -3.3187    0.0000 C   0  0  0  0  0  0  0  0  0  0  0  0
    1.4625   -2.4750    0.0000 C   0  0  0  0  0  0  0  0  0  0  0  0
    1.4437   -0.8250    0.0000 C   0  0  0  0  0  0  0  0  0  0  0  0
    1.4250   -3.3187    0.0000 C   0  0  0  0  0  0  0  0  0  0  0  0
    4.3124   -0.8250    0.0000 C   0  0  0  0  0  0  0  0  0  0  0  0
    0.0000   -0.8250    0.0000 C   0  0  0  0  0  0  0  0  0  0  0  0
    0.7312   -2.0625    0.0000 C   0  0  0  0  0  0  0  0  0  0  0  0
    4.2937   -3.3375    0.0000 C   0  0  0  0  0  0  0  0  0  0  0  0
    4.3124    0.0000    0.0000 C   0  0  0  0  0  0  0  0  0  0  0  0
  1  8  1  0  0  0  0
  1 14  1  0  0  0  0
  2 10  1  0  0  0  0
  2 17  1  0  0  0  0
  3  8  2  0  0  0  0
  4 10  1  0  0  0  0
  4 13  2  0  0  0  0
  5 12  1  0  0  0  0
  5 15  1  0  0  0  0
  5 16  1  0  0  0  0
  6  7  1  0  0  0  0
  6  8  1  0  0  0  0
  6 12  2  0  0  0  0
  7  9  1  0  0  0  0
  7 11  2  0  0  0  0
  9 10  2  0  0  0  0
 11 13  1  0  0  0  0
 14 18  1  0  0  0  0
M  END
> <PUBCHEM_COMPOUND_ID_TYPE>
0

> <PUBCHEM_TOTAL_CHARGE>
0

> <PUBCHEM_SUBSTANCE_ID>
310933120

> <PUBCHEM_SUBSTANCE_VERSION>
1

> <PUBCHEM_EXT_DATASOURCE_NAME>
4488

> <PUBCHEM_EXT_DATASOURCE_REGID>
SCHEMBL16110522

> <PUBCHEM_SUBSTANCE_COMMENT>
InChI=1S/C13H18N2O3/c1-5-18-13(16)11(9-15(2)3)10-6-7-14-12(8-10)17-4/h6-9H,5H2,1-4H3/b11-9+
InChIKey=LKMPRVUYXKMEGF-PKNBQFBNSA-N

> <PUBCHEM_SUBSTANCE_SYNONYM>
SCHEMBL16110522

> <PUBCHEM_XREF_EXT_ID>
SCHEMBL16110522

> <PUBCHEM_EXT_DATASOURCE_URL>
https://www.surechembl.org/

> <PUBCHEM_EXT_SUBSTANCE_URL>
https://www.surechembl.org/chemical/SCHEMBL16110522

> <PUBCHEM_CID_ASSOCIATIONS>
117601576  1

> <PUBCHEM_COORDINATE_TYPE>
1
3

$$$$
