310941118
  -OEChem-07211613022D

 41 44  0     1  0  0  0  0  0999 V2000
    4.6589    0.6636    0.0000 O   0  0  0  0  0  0  0  0  0  0  0  0
    3.5253   -1.2857    0.0000 O   0  0  0  0  0  0  0  0  0  0  0  0
    1.3686    0.7742    0.0000 O   0  0  0  0  0  0  0  0  0  0  0  0
   -0.7881   -1.2857    0.0000 O   0  0  0  0  0  0  0  0  0  0  0  0
   -2.9309    0.7742    0.0000 O   0  0  0  0  0  0  0  0  0  0  0  0
    3.5253   -2.9447    0.0000 O   0  0  0  0  0  0  0  0  0  0  0  0
    2.0876   -0.4562    0.0000 N   0  0  0  0  0  0  0  0  0  0  0  0
   -0.0553   -0.0415    0.0000 N   0  0  0  0  0  0  0  0  0  0  0  0
   -3.7327   -1.2857    0.0000 N   0  0  3  0  0  0  0  0  0  0  0  0
   -2.2120   -0.4562    0.0000 N   0  0  0  0  0  0  0  0  0  0  0  0
    4.2304    0.0000    0.0000 C   0  0  3  0  0  0  0  0  0  0  0  0
    3.5253   -0.4285    0.0000 C   0  0  0  0  0  0  0  0  0  0  0  0
    3.8571    0.6774    0.0000 C   0  0  0  0  0  0  0  0  0  0  0  0
    2.8065   -0.0277    0.0000 C   0  0  3  0  0  0  0  0  0  0  0  0
    4.9493   -0.4285    0.0000 C   0  0  0  0  0  0  0  0  0  0  0  0
    2.8065    1.2995    0.0000 C   0  0  0  0  0  0  0  0  0  0  0  0
    1.3686   -0.0415    0.0000 C   0  0  0  0  0  0  0  0  0  0  0  0
    0.6774   -0.4285    0.0000 C   0  0  3  0  0  0  0  0  0  0  0  0
    2.0876    1.7281    0.0000 C   0  0  0  0  0  0  0  0  0  0  0  0
    0.6498   -1.2857    0.0000 C   0  0  0  0  0  0  0  0  0  0  0  0
   -0.7742   -0.4147    0.0000 C   0  0  0  0  0  0  0  0  0  0  0  0
   -3.6358   -0.4424    0.0000 C   0  0  3  0  0  0  0  0  0  0  0  0
    1.3824   -1.6728    0.0000 C   0  0  0  0  0  0  0  0  0  0  0  0
   -1.5069   -0.0277    0.0000 C   0  0  3  0  0  0  0  0  0  0  0  0
   -2.9170   -0.0277    0.0000 C   0  0  0  0  0  0  0  0  0  0  0  0
    2.0876    2.5299    0.0000 C   0  0  0  0  0  0  0  0  0  0  0  0
    1.3824    1.3133    0.0000 C   0  0  0  0  0  0  0  0  0  0  0  0
   -4.3962   -0.1106    0.0000 C   0  0  0  0  0  0  0  0  0  0  0  0
    1.3962   -2.5161    0.0000 C   0  0  0  0  0  0  0  0  0  0  0  0
    2.0876   -1.2857    0.0000 C   0  0  0  0  0  0  0  0  0  0  0  0
   -4.5483   -1.4101    0.0000 C   0  0  0  0  0  0  0  0  0  0  0  0
    1.3686    2.9447    0.0000 C   0  0  0  0  0  0  0  0  0  0  0  0
    0.6774    1.7143    0.0000 C   0  0  0  0  0  0  0  0  0  0  0  0
   -4.9493   -0.7327    0.0000 C   0  0  0  0  0  0  0  0  0  0  0  0
    2.7926   -2.5022    0.0000 C   0  0  0  0  0  0  0  0  0  0  0  0
    2.0876   -2.9032    0.0000 C   0  0  0  0  0  0  0  0  0  0  0  0
    2.8065   -1.6866    0.0000 C   0  0  0  0  0  0  0  0  0  0  0  0
    0.6774    2.5299    0.0000 C   0  0  0  0  0  0  0  0  0  0  0  0
   -1.4930    0.8019    0.0000 C   0  0  0  0  0  0  0  0  0  0  0  0
   -3.0968   -1.8111    0.0000 C   0  0  0  0  0  0  0  0  0  0  0  0
    4.2718   -2.5022    0.0000 C   0  0  0  0  0  0  0  0  0  0  0  0
  1 11  1  0  0  0  0
  1 13  1  0  0  0  0
  2 12  2  0  0  0  0
  3 17  2  0  0  0  0
  4 21  2  0  0  0  0
  5 25  2  0  0  0  0
  6 35  1  0  0  0  0
  6 41  1  0  0  0  0
 14  7  1  1  0  0  0
  7 17  1  0  0  0  0
 18  8  1  6  0  0  0
  8 21  1  0  0  0  0
  9 22  1  0  0  0  0
  9 31  1  0  0  0  0
  9 40  1  0  0  0  0
 10 24  1  0  0  0  0
 10 25  1  0  0  0  0
 11 12  1  1  0  0  0
 11 13  1  0  0  0  0
 11 15  1  6  0  0  0
 12 14  1  0  0  0  0
 14 16  1  0  0  0  0
 16 19  1  0  0  0  0
 17 18  1  0  0  0  0
 18 20  1  0  0  0  0
 19 26  2  0  0  0  0
 19 27  1  0  0  0  0
 20 23  1  0  0  0  0
 21 24  1  0  0  0  0
 22 25  1  1  0  0  0
 22 28  1  0  0  0  0
 23 29  2  0  0  0  0
 23 30  1  0  0  0  0
 24 39  1  1  0  0  0
 26 32  1  0  0  0  0
 27 33  2  0  0  0  0
 28 34  1  0  0  0  0
 29 36  1  0  0  0  0
 30 37  2  0  0  0  0
 31 34  1  0  0  0  0
 32 38  2  0  0  0  0
 33 38  1  0  0  0  0
 35 36  2  0  0  0  0
 35 37  1  0  0  0  0
M  END
> <PUBCHEM_COMPOUND_ID_TYPE>
0

> <PUBCHEM_TOTAL_CHARGE>
0

> <PUBCHEM_SUBSTANCE_ID>
310941118

> <PUBCHEM_SUBSTANCE_VERSION>
1

> <PUBCHEM_EXT_DATASOURCE_NAME>
4488

> <PUBCHEM_EXT_DATASOURCE_REGID>
SCHEMBL16119078

> <PUBCHEM_SUBSTANCE_COMMENT>
InChI=1S/C31H40N4O6/c1-20(32-30(39)26-11-8-16-35(26)3)28(37)34-25(18-22-12-14-23(40-4)15-13-22)29(38)33-24(27(36)31(2)19-41-31)17-21-9-6-5-7-10-21/h5-7,9-10,12-15,20,24-26H,8,11,16-19H2,1-4H3,(H,32,39)(H,33,38)(H,34,37)/t20-,24-,25-,26-,31+/m0/s1
InChIKey=BNGHLDNCDCCLFZ-JMJGQLIDSA-N

> <PUBCHEM_SUBSTANCE_SYNONYM>
SCHEMBL16119078

> <PUBCHEM_XREF_EXT_ID>
SCHEMBL16119078

> <PUBCHEM_EXT_DATASOURCE_URL>
https://www.surechembl.org/

> <PUBCHEM_EXT_SUBSTANCE_URL>
https://www.surechembl.org/chemical/SCHEMBL16119078

> <PUBCHEM_CID_ASSOCIATIONS>
117608001  1

> <PUBCHEM_COORDINATE_TYPE>
1
3

> <PUBCHEM_BONDANNOTATIONS>
11  12  5
11  15  6
22  25  5
24  39  5
14  7  5
18  8  6

$$$$
