310946338
  -OEChem-07211613022D

 26 28  0     0  0  0  0  0  0999 V2000
   -1.3748   -3.8253    0.0000 I   0  0  0  0  0  0  0  0  0  0  0  0
    0.0541   -1.3503    0.0000 I   0  0  0  0  0  0  0  0  0  0  0  0
   -4.2327   -2.1753    0.0000 I   0  0  0  0  0  0  0  0  0  0  0  0
   -1.3748   -2.1753    0.0000 O   0  0  0  0  0  0  0  0  0  0  0  0
    2.1975   -2.5878    0.0000 O   0  0  0  0  0  0  0  0  0  0  0  0
   -4.2327   -3.8253    0.0000 O   0  0  0  0  0  0  0  0  0  0  0  0
    2.9120   -3.8253    0.0000 N   0  0  0  0  0  0  0  0  0  0  0  0
   -0.6603   -2.5878    0.0000 C   0  0  0  0  0  0  0  0  0  0  0  0
   -0.6603   -3.4128    0.0000 C   0  0  0  0  0  0  0  0  0  0  0  0
    0.0541   -2.1753    0.0000 C   0  0  0  0  0  0  0  0  0  0  0  0
    0.7686   -3.4128    0.0000 C   0  0  0  0  0  0  0  0  0  0  0  0
   -2.0893   -2.5878    0.0000 C   0  0  0  0  0  0  0  0  0  0  0  0
    0.0541   -3.8253    0.0000 C   0  0  0  0  0  0  0  0  0  0  0  0
    0.7686   -2.5878    0.0000 C   0  0  0  0  0  0  0  0  0  0  0  0
    1.4831   -3.8253    0.0000 C   0  0  0  0  0  0  0  0  0  0  0  0
   -2.8037   -2.1753    0.0000 C   0  0  0  0  0  0  0  0  0  0  0  0
   -3.5182   -2.5878    0.0000 C   0  0  0  0  0  0  0  0  0  0  0  0
    2.1975   -3.4128    0.0000 C   0  0  0  0  0  0  0  0  0  0  0  0
   -2.0893   -3.4128    0.0000 C   0  0  0  0  0  0  0  0  0  0  0  0
   -3.5182   -3.4128    0.0000 C   0  0  0  0  0  0  0  0  0  0  0  0
   -2.8037   -3.8253    0.0000 C   0  0  0  0  0  0  0  0  0  0  0  0
    3.6265   -3.4128    0.0000 C   0  0  0  0  0  0  0  0  0  0  0  0
    2.9120   -4.6503    0.0000 C   0  0  0  0  0  0  0  0  0  0  0  0
    4.3410   -3.8253    0.0000 C   0  0  0  0  0  0  0  0  0  0  0  0
    3.6265   -5.0628    0.0000 C   0  0  0  0  0  0  0  0  0  0  0  0
    4.3410   -4.6503    0.0000 C   0  0  0  0  0  0  0  0  0  0  0  0
  1  9  1  0  0  0  0
  2 10  1  0  0  0  0
  3 17  1  0  0  0  0
  4  8  1  0  0  0  0
  4 12  1  0  0  0  0
  5 18  2  0  0  0  0
  6 20  1  0  0  0  0
  7 18  1  0  0  0  0
  7 22  1  0  0  0  0
  7 23  1  0  0  0  0
  8  9  2  0  0  0  0
  8 10  1  0  0  0  0
  9 13  1  0  0  0  0
 10 14  2  0  0  0  0
 11 13  2  0  0  0  0
 11 14  1  0  0  0  0
 11 15  1  0  0  0  0
 12 16  2  0  0  0  0
 12 19  1  0  0  0  0
 15 18  1  0  0  0  0
 16 17  1  0  0  0  0
 17 20  2  0  0  0  0
 19 21  2  0  0  0  0
 20 21  1  0  0  0  0
 22 24  1  0  0  0  0
 23 25  1  0  0  0  0
 24 26  1  0  0  0  0
 25 26  1  0  0  0  0
M  END
> <PUBCHEM_COMPOUND_ID_TYPE>
0

> <PUBCHEM_TOTAL_CHARGE>
0

> <PUBCHEM_SUBSTANCE_ID>
310946338

> <PUBCHEM_SUBSTANCE_VERSION>
1

> <PUBCHEM_EXT_DATASOURCE_NAME>
4488

> <PUBCHEM_EXT_DATASOURCE_REGID>
SCHEMBL16124457

> <PUBCHEM_SUBSTANCE_COMMENT>
InChI=1S/C19H18I3NO3/c20-14-11-13(4-5-17(14)24)26-19-15(21)8-12(9-16(19)22)10-18(25)23-6-2-1-3-7-23/h4-5,8-9,11,24H,1-3,6-7,10H2
InChIKey=IKRIZNZFZYVEKN-UHFFFAOYSA-N

> <PUBCHEM_SUBSTANCE_SYNONYM>
SCHEMBL16124457

> <PUBCHEM_XREF_EXT_ID>
SCHEMBL16124457

> <PUBCHEM_EXT_DATASOURCE_URL>
https://www.surechembl.org/

> <PUBCHEM_EXT_SUBSTANCE_URL>
https://www.surechembl.org/chemical/SCHEMBL16124457

> <PUBCHEM_CID_ASSOCIATIONS>
71583752  1

> <PUBCHEM_COORDINATE_TYPE>
1
3

$$$$
