310941003
  -OEChem-07211613022D

 22 24  0     0  0  0  0  0  0999 V2000
   -1.2039    2.5753    0.0000 O   0  0  0  0  0  0  0  0  0  0  0  0
    0.7447   -1.9920    0.0000 O   0  0  0  0  0  0  0  0  0  0  0  0
    2.7677    0.0310    0.0000 O   0  0  0  0  0  0  0  0  0  0  0  0
    0.0248    0.7757    0.0000 N   0  0  0  0  0  0  0  0  0  0  0  0
   -2.5691    0.5150    0.0000 N   0  0  0  0  0  0  0  0  0  0  0  0
   -2.5815    1.8555    0.0000 N   0  0  0  0  0  0  0  0  0  0  0  0
   -1.1791   -0.2048    0.0000 N   0  0  0  0  0  0  0  0  0  0  0  0
   -1.2660    1.1853    0.0000 C   0  0  0  0  0  0  0  0  0  0  0  0
   -0.7695    0.5275    0.0000 C   0  0  0  0  0  0  0  0  0  0  0  0
   -0.7695    1.8555    0.0000 C   0  0  0  0  0  0  0  0  0  0  0  0
    0.6082    0.1924    0.0000 C   0  0  0  0  0  0  0  0  0  0  0  0
    0.0124    1.5949    0.0000 C   0  0  0  0  0  0  0  0  0  0  0  0
   -2.0975    1.1977    0.0000 C   0  0  0  0  0  0  0  0  0  0  0  0
    1.4149    0.3909    0.0000 C   0  0  0  0  0  0  0  0  0  0  0  0
    0.3971   -0.6144    0.0000 C   0  0  0  0  0  0  0  0  0  0  0  0
    0.9681   -1.1853    0.0000 C   0  0  0  0  0  0  0  0  0  0  0  0
    1.9734   -0.1800    0.0000 C   0  0  0  0  0  0  0  0  0  0  0  0
    1.7624   -0.9743    0.0000 C   0  0  0  0  0  0  0  0  0  0  0  0
   -3.3635    0.7757    0.0000 C   0  0  0  0  0  0  0  0  0  0  0  0
   -3.3510    1.6072    0.0000 C   0  0  0  0  0  0  0  0  0  0  0  0
    1.3404   -2.5753    0.0000 C   0  0  0  0  0  0  0  0  0  0  0  0
    3.3635   -0.5523    0.0000 C   0  0  0  0  0  0  0  0  0  0  0  0
  1 10  2  0  0  0  0
  2 16  1  0  0  0  0
  2 21  1  0  0  0  0
  3 17  1  0  0  0  0
  3 22  1  0  0  0  0
  4  9  1  0  0  0  0
  4 11  1  0  0  0  0
  4 12  1  0  0  0  0
  5 13  2  0  0  0  0
  5 19  1  0  0  0  0
  6 13  1  0  0  0  0
  6 20  1  0  0  0  0
  7  9  1  0  0  0  0
  8  9  2  0  0  0  0
  8 10  1  0  0  0  0
  8 13  1  0  0  0  0
 10 12  1  0  0  0  0
 11 14  2  0  0  0  0
 11 15  1  0  0  0  0
 14 17  1  0  0  0  0
 15 16  2  0  0  0  0
 16 18  1  0  0  0  0
 17 18  2  0  0  0  0
 19 20  2  0  0  0  0
M  END
> <PUBCHEM_COMPOUND_ID_TYPE>
0

> <PUBCHEM_TOTAL_CHARGE>
0

> <PUBCHEM_SUBSTANCE_ID>
310941003

> <PUBCHEM_SUBSTANCE_VERSION>
1

> <PUBCHEM_EXT_DATASOURCE_NAME>
4488

> <PUBCHEM_EXT_DATASOURCE_REGID>
SCHEMBL16118962

> <PUBCHEM_SUBSTANCE_COMMENT>
InChI=1S/C15H16N4O3/c1-21-10-5-9(6-11(7-10)22-2)19-8-12(20)13(14(19)16)15-17-3-4-18-15/h3-7H,8,16H2,1-2H3,(H,17,18)
InChIKey=IWMZHCLNSCTXOS-UHFFFAOYSA-N

> <PUBCHEM_SUBSTANCE_SYNONYM>
SCHEMBL16118962

> <PUBCHEM_XREF_EXT_ID>
SCHEMBL16118962

> <PUBCHEM_EXT_DATASOURCE_URL>
https://www.surechembl.org/

> <PUBCHEM_EXT_SUBSTANCE_URL>
https://www.surechembl.org/chemical/SCHEMBL16118962

> <PUBCHEM_CID_ASSOCIATIONS>
117607909  1

> <PUBCHEM_COORDINATE_TYPE>
1
3

$$$$
