310938714
  -OEChem-07211613022D

 52 61  0     0  0  0  0  0  0999 V2000
   -4.9844   -8.0305    0.0000 N   0  0  0  0  0  0  0  0  0  0  0  0
    4.5820   -9.3349    0.0000 N   0  0  0  0  0  0  0  0  0  0  0  0
    4.5820  -10.6698    0.0000 N   0  0  0  0  0  0  0  0  0  0  0  0
   -4.1774   -7.8590    0.0000 C   0  0  0  0  0  0  0  0  0  0  0  0
   -3.7648   -8.5735    0.0000 C   0  0  0  0  0  0  0  0  0  0  0  0
   -5.0706   -8.8510    0.0000 C   0  0  0  0  0  0  0  0  0  0  0  0
   -4.3170   -9.1865    0.0000 C   0  0  0  0  0  0  0  0  0  0  0  0
   -5.3968   -7.3160    0.0000 C   0  0  0  0  0  0  0  0  0  0  0  0
   -2.9399   -8.5735    0.0000 C   0  0  0  0  0  0  0  0  0  0  0  0
   -2.5274   -7.8590    0.0000 C   0  0  0  0  0  0  0  0  0  0  0  0
   -3.7648   -7.1444    0.0000 C   0  0  0  0  0  0  0  0  0  0  0  0
    4.0970  -10.0024    0.0000 C   0  0  0  0  0  0  0  0  0  0  0  0
   -5.7380   -9.3359    0.0000 C   0  0  0  0  0  0  0  0  0  0  0  0
    5.3665   -9.5898    0.0000 C   0  0  0  0  0  0  0  0  0  0  0  0
   -4.2306  -10.0069    0.0000 C   0  0  0  0  0  0  0  0  0  0  0  0
    5.3665  -10.4148    0.0000 C   0  0  0  0  0  0  0  0  0  0  0  0
   -2.9399   -7.1444    0.0000 C   0  0  0  0  0  0  0  0  0  0  0  0
   -1.8008   -7.8590    0.0000 C   0  0  0  0  0  0  0  0  0  0  0  0
    3.4493  -10.0024    0.0000 C   0  0  0  0  0  0  0  0  0  0  0  0
    4.3684   -8.5380    0.0000 C   0  0  0  0  0  0  0  0  0  0  0  0
   -4.9844   -6.6015    0.0000 C   0  0  0  0  0  0  0  0  0  0  0  0
   -6.2218   -7.3160    0.0000 C   0  0  0  0  0  0  0  0  0  0  0  0
   -5.6518  -10.1564    0.0000 C   0  0  0  0  0  0  0  0  0  0  0  0
   -4.8981  -10.4919    0.0000 C   0  0  0  0  0  0  0  0  0  0  0  0
    6.0810   -9.1774    0.0000 C   0  0  0  0  0  0  0  0  0  0  0  0
   -1.3884   -8.5735    0.0000 C   0  0  0  0  0  0  0  0  0  0  0  0
    6.0810  -10.8274    0.0000 C   0  0  0  0  0  0  0  0  0  0  0  0
   -0.5634   -8.5735    0.0000 C   0  0  0  0  0  0  0  0  0  0  0  0
    3.0367  -10.7168    0.0000 C   0  0  0  0  0  0  0  0  0  0  0  0
    3.0367   -9.2879    0.0000 C   0  0  0  0  0  0  0  0  0  0  0  0
   -1.3884   -7.1444    0.0000 C   0  0  0  0  0  0  0  0  0  0  0  0
    1.7993  -10.0024    0.0000 C   0  0  0  0  0  0  0  0  0  0  0  0
   -0.1508   -9.2879    0.0000 C   0  0  0  0  0  0  0  0  0  0  0  0
    4.9518   -7.9546    0.0000 C   0  0  0  0  0  0  0  0  0  0  0  0
    3.5716   -8.3244    0.0000 C   0  0  0  0  0  0  0  0  0  0  0  0
    1.0866  -10.0024    0.0000 C   0  0  0  0  0  0  0  0  0  0  0  0
   -5.3968   -5.8871    0.0000 C   0  0  0  0  0  0  0  0  0  0  0  0
   -6.6344   -6.6015    0.0000 C   0  0  0  0  0  0  0  0  0  0  0  0
    2.2117  -10.7168    0.0000 C   0  0  0  0  0  0  0  0  0  0  0  0
    2.2117   -9.2879    0.0000 C   0  0  0  0  0  0  0  0  0  0  0  0
    6.7955   -9.5898    0.0000 C   0  0  0  0  0  0  0  0  0  0  0  0
    6.7955  -10.4148    0.0000 C   0  0  0  0  0  0  0  0  0  0  0  0
    0.6742   -9.2879    0.0000 C   0  0  0  0  0  0  0  0  0  0  0  0
   -0.1508   -7.8590    0.0000 C   0  0  0  0  0  0  0  0  0  0  0  0
   -0.5634   -7.1444    0.0000 C   0  0  0  0  0  0  0  0  0  0  0  0
   -6.2218   -5.8871    0.0000 C   0  0  0  0  0  0  0  0  0  0  0  0
   -0.5634  -10.0024    0.0000 C   0  0  0  0  0  0  0  0  0  0  0  0
    0.6742  -10.7168    0.0000 C   0  0  0  0  0  0  0  0  0  0  0  0
    4.7383   -7.1578    0.0000 C   0  0  0  0  0  0  0  0  0  0  0  0
    3.3580   -7.5275    0.0000 C   0  0  0  0  0  0  0  0  0  0  0  0
   -0.1508  -10.7168    0.0000 C   0  0  0  0  0  0  0  0  0  0  0  0
    3.9414   -6.9443    0.0000 C   0  0  0  0  0  0  0  0  0  0  0  0
  1  4  1  0  0  0  0
  1  6  1  0  0  0  0
  1  8  1  0  0  0  0
  2 12  1  0  0  0  0
  2 14  1  0  0  0  0
  2 20  1  0  0  0  0
  3 12  2  0  0  0  0
  3 16  1  0  0  0  0
  4  5  1  0  0  0  0
  4 11  2  0  0  0  0
  5  7  1  0  0  0  0
  5  9  2  0  0  0  0
  6  7  1  0  0  0  0
  6 13  2  0  0  0  0
  7 15  2  0  0  0  0
  8 21  2  0  0  0  0
  8 22  1  0  0  0  0
  9 10  1  0  0  0  0
 10 17  2  0  0  0  0
 10 18  1  0  0  0  0
 11 17  1  0  0  0  0
 12 19  1  0  0  0  0
 13 23  1  0  0  0  0
 14 16  2  0  0  0  0
 14 25  1  0  0  0  0
 15 24  1  0  0  0  0
 16 27  1  0  0  0  0
 18 26  1  0  0  0  0
 18 31  2  0  0  0  0
 19 29  2  0  0  0  0
 19 30  1  0  0  0  0
 20 34  2  0  0  0  0
 20 35  1  0  0  0  0
 21 37  1  0  0  0  0
 22 38  2  0  0  0  0
 23 24  2  0  0  0  0
 25 41  2  0  0  0  0
 26 28  2  0  0  0  0
 27 42  2  0  0  0  0
 28 33  1  0  0  0  0
 28 44  1  0  0  0  0
 29 39  1  0  0  0  0
 30 40  2  0  0  0  0
 31 45  1  0  0  0  0
 32 36  1  0  0  0  0
 32 39  2  0  0  0  0
 32 40  1  0  0  0  0
 33 43  1  0  0  0  0
 33 47  2  0  0  0  0
 34 49  1  0  0  0  0
 35 50  2  0  0  0  0
 36 43  2  0  0  0  0
 36 48  1  0  0  0  0
 37 46  2  0  0  0  0
 38 46  1  0  0  0  0
 41 42  1  0  0  0  0
 44 45  2  0  0  0  0
 47 51  1  0  0  0  0
 48 51  2  0  0  0  0
 49 52  2  0  0  0  0
 50 52  1  0  0  0  0
M  END
> <PUBCHEM_COMPOUND_ID_TYPE>
0

> <PUBCHEM_TOTAL_CHARGE>
0

> <PUBCHEM_SUBSTANCE_ID>
310938714

> <PUBCHEM_SUBSTANCE_VERSION>
1

> <PUBCHEM_EXT_DATASOURCE_NAME>
4488

> <PUBCHEM_EXT_DATASOURCE_REGID>
SCHEMBL16116628

> <PUBCHEM_SUBSTANCE_COMMENT>
InChI=1S/C49H33N3/c1-3-17-41(18-4-1)51-46-23-9-7-21-43(46)44-33-40(29-30-47(44)51)39-16-12-15-38(32-39)37-14-11-13-36(31-37)34-25-27-35(28-26-34)49-50-45-22-8-10-24-48(45)52(49)42-19-5-2-6-20-42/h1-33H
InChIKey=KVYNBENWHUAXMW-UHFFFAOYSA-N

> <PUBCHEM_SUBSTANCE_SYNONYM>
SCHEMBL16116628

> <PUBCHEM_XREF_EXT_ID>
SCHEMBL16116628

> <PUBCHEM_EXT_DATASOURCE_URL>
https://www.surechembl.org/

> <PUBCHEM_EXT_SUBSTANCE_URL>
https://www.surechembl.org/chemical/SCHEMBL16116628

> <PUBCHEM_CID_ASSOCIATIONS>
117606142  1

> <PUBCHEM_COORDINATE_TYPE>
1
3

$$$$
