310941628
  -OEChem-07211613022D

 29 32  0     0  0  0  0  0  0999 V2000
    0.4564    2.3611    0.0000 S   0  0  0  0  0  0  0  0  0  0  0  0
   -1.8783   -0.2896    0.0000 O   0  0  0  0  0  0  0  0  0  0  0  0
   -0.4388   -0.2896    0.0000 O   0  0  0  0  0  0  0  0  0  0  0  0
   -4.0199   -1.5185    0.0000 O   0  0  0  0  0  0  0  0  0  0  0  0
   -2.5980   -1.5185    0.0000 O   0  0  0  0  0  0  0  0  0  0  0  0
    0.3335    1.0444    0.0000 N   0  0  0  0  0  0  0  0  0  0  0  0
    1.7028    1.5711    0.0000 N   0  0  0  0  0  0  0  0  0  0  0  0
   -1.1410    0.9743    0.0000 C   0  0  0  0  0  0  0  0  0  0  0  0
   -2.5980    0.1492    0.0000 C   0  0  0  0  0  0  0  0  0  0  0  0
   -2.5805    0.9743    0.0000 C   0  0  0  0  0  0  0  0  0  0  0  0
   -0.4564    1.3780    0.0000 C   0  0  0  0  0  0  0  0  0  0  0  0
   -1.1937    0.1492    0.0000 C   0  0  0  0  0  0  0  0  0  0  0  0
   -3.3002   -0.2721    0.0000 C   0  0  0  0  0  0  0  0  0  0  0  0
   -1.8432    1.3605    0.0000 C   0  0  0  0  0  0  0  0  0  0  0  0
    0.8602    1.6589    0.0000 C   0  0  0  0  0  0  0  0  0  0  0  0
   -3.3354    1.3605    0.0000 C   0  0  0  0  0  0  0  0  0  0  0  0
   -0.3335    2.2031    0.0000 C   0  0  0  0  0  0  0  0  0  0  0  0
   -3.3354   -1.0796    0.0000 C   0  0  0  0  0  0  0  0  0  0  0  0
   -4.0024    0.1317    0.0000 C   0  0  0  0  0  0  0  0  0  0  0  0
   -4.0024    0.9567    0.0000 C   0  0  0  0  0  0  0  0  0  0  0  0
    2.0363    0.8163    0.0000 C   0  0  0  0  0  0  0  0  0  0  0  0
    1.5623    0.1317    0.0000 C   0  0  0  0  0  0  0  0  0  0  0  0
    2.8438    0.7110    0.0000 C   0  0  0  0  0  0  0  0  0  0  0  0
    1.8783   -0.5881    0.0000 C   0  0  0  0  0  0  0  0  0  0  0  0
    3.1773   -0.0088    0.0000 C   0  0  0  0  0  0  0  0  0  0  0  0
    2.7209   -0.6934    0.0000 C   0  0  0  0  0  0  0  0  0  0  0  0
   -4.0199   -2.3611    0.0000 C   0  0  0  0  0  0  0  0  0  0  0  0
    1.4745   -1.3429    0.0000 C   0  0  0  0  0  0  0  0  0  0  0  0
    4.0199   -0.0439    0.0000 C   0  0  0  0  0  0  0  0  0  0  0  0
  1 15  1  0  0  0  0
  1 17  1  0  0  0  0
  2  9  1  0  0  0  0
  2 12  1  0  0  0  0
  3 12  2  0  0  0  0
  4 18  1  0  0  0  0
  4 27  1  0  0  0  0
  5 18  2  0  0  0  0
  6 11  1  0  0  0  0
  6 15  2  0  0  0  0
  7 15  1  0  0  0  0
  7 21  1  0  0  0  0
  8 11  1  0  0  0  0
  8 12  1  0  0  0  0
  8 14  2  0  0  0  0
  9 10  1  0  0  0  0
  9 13  2  0  0  0  0
 10 14  1  0  0  0  0
 10 16  2  0  0  0  0
 11 17  2  0  0  0  0
 13 18  1  0  0  0  0
 13 19  1  0  0  0  0
 16 20  1  0  0  0  0
 19 20  2  0  0  0  0
 21 22  2  0  0  0  0
 21 23  1  0  0  0  0
 22 24  1  0  0  0  0
 23 25  2  0  0  0  0
 24 26  2  0  0  0  0
 24 28  1  0  0  0  0
 25 26  1  0  0  0  0
 25 29  1  0  0  0  0
M  END
> <PUBCHEM_COMPOUND_ID_TYPE>
0

> <PUBCHEM_TOTAL_CHARGE>
0

> <PUBCHEM_SUBSTANCE_ID>
310941628

> <PUBCHEM_SUBSTANCE_VERSION>
1

> <PUBCHEM_EXT_DATASOURCE_NAME>
4488

> <PUBCHEM_EXT_DATASOURCE_REGID>
SCHEMBL16119659

> <PUBCHEM_SUBSTANCE_COMMENT>
InChI=1S/C22H18N2O4S/c1-12-7-13(2)9-15(8-12)23-22-24-18(11-29-22)17-10-14-5-4-6-16(20(25)27-3)19(14)28-21(17)26/h4-11H,1-3H3,(H,23,24)
InChIKey=NVVWYTRTRZWWTM-UHFFFAOYSA-N

> <PUBCHEM_SUBSTANCE_SYNONYM>
SCHEMBL16119659

> <PUBCHEM_XREF_EXT_ID>
SCHEMBL16119659

> <PUBCHEM_EXT_DATASOURCE_URL>
https://www.surechembl.org/

> <PUBCHEM_EXT_SUBSTANCE_URL>
https://www.surechembl.org/chemical/SCHEMBL16119659

> <PUBCHEM_CID_ASSOCIATIONS>
117608416  1

> <PUBCHEM_COORDINATE_TYPE>
1
3

$$$$
