310943208
  -OEChem-07211613022D

 33 37  0     0  0  0  0  0  0999 V2000
   -2.7012   -1.8990    0.0000 O   0  0  0  0  0  0  0  0  0  0  0  0
   -5.5864    1.4867    0.0000 O   0  0  0  0  0  0  0  0  0  0  0  0
    1.8916    1.5309    0.0000 O   0  0  0  0  0  0  0  0  0  0  0  0
   -3.4225   -0.6624    0.0000 N   0  0  0  0  0  0  0  0  0  0  0  0
   -4.1585    0.6624    0.0000 N   0  0  0  0  0  0  0  0  0  0  0  0
   -0.4195    1.8990    0.0000 N   0  0  0  0  0  0  0  0  0  0  0  0
    1.0231    0.2355    0.0000 N   0  0  0  0  0  0  0  0  0  0  0  0
    4.0408   -0.5299    0.0000 N   0  0  0  0  0  0  0  0  0  0  0  0
   -1.9651    0.1620    0.0000 C   0  0  0  0  0  0  0  0  0  0  0  0
   -3.4078    0.1767    0.0000 C   0  0  0  0  0  0  0  0  0  0  0  0
   -1.1409    0.6477    0.0000 C   0  0  0  0  0  0  0  0  0  0  0  0
   -2.7012    0.5741    0.0000 C   0  0  0  0  0  0  0  0  0  0  0  0
   -2.7012   -1.0452    0.0000 C   0  0  0  0  0  0  0  0  0  0  0  0
   -1.9799   -0.6624    0.0000 C   0  0  0  0  0  0  0  0  0  0  0  0
   -1.1261    1.4867    0.0000 C   0  0  0  0  0  0  0  0  0  0  0  0
   -0.3901    0.2355    0.0000 C   0  0  0  0  0  0  0  0  0  0  0  0
    0.3018    0.6477    0.0000 C   0  0  0  0  0  0  0  0  0  0  0  0
    4.0555    0.3091    0.0000 C   0  0  0  0  0  0  0  0  0  0  0  0
    4.7915    0.7361    0.0000 C   0  0  0  0  0  0  0  0  0  0  0  0
    2.6129    0.2944    0.0000 C   0  0  0  0  0  0  0  0  0  0  0  0
    1.8769    0.6918    0.0000 C   0  0  0  0  0  0  0  0  0  0  0  0
    0.3165    1.4720    0.0000 C   0  0  0  0  0  0  0  0  0  0  0  0
    3.3047    0.7065    0.0000 C   0  0  0  0  0  0  0  0  0  0  0  0
   -4.1585    1.4867    0.0000 C   0  0  0  0  0  0  0  0  0  0  0  0
   -4.8651    0.2503    0.0000 C   0  0  0  0  0  0  0  0  0  0  0  0
   -4.1291   -1.0893    0.0000 C   0  0  0  0  0  0  0  0  0  0  0  0
    5.1890    1.4132    0.0000 C   0  0  0  0  0  0  0  0  0  0  0  0
    5.5864    0.7508    0.0000 C   0  0  0  0  0  0  0  0  0  0  0  0
    2.6129   -0.5299    0.0000 C   0  0  0  0  0  0  0  0  0  0  0  0
   -1.8621    1.8695    0.0000 C   0  0  0  0  0  0  0  0  0  0  0  0
    3.3342   -0.9421    0.0000 C   0  0  0  0  0  0  0  0  0  0  0  0
   -4.8799    1.8990    0.0000 C   0  0  0  0  0  0  0  0  0  0  0  0
   -5.5864    0.6477    0.0000 C   0  0  0  0  0  0  0  0  0  0  0  0
  1 13  2  0  0  0  0
  2 32  1  0  0  0  0
  2 33  1  0  0  0  0
  3 21  2  0  0  0  0
  4 10  1  0  0  0  0
  4 13  1  0  0  0  0
  4 26  1  0  0  0  0
  5 10  1  0  0  0  0
  5 24  1  0  0  0  0
  5 25  1  0  0  0  0
  6 15  2  0  0  0  0
  6 22  1  0  0  0  0
  7 17  1  0  0  0  0
  7 21  1  0  0  0  0
  8 18  1  0  0  0  0
  8 31  2  0  0  0  0
  9 11  1  0  0  0  0
  9 12  1  0  0  0  0
  9 14  2  0  0  0  0
 10 12  2  0  0  0  0
 11 15  1  0  0  0  0
 11 16  2  0  0  0  0
 13 14  1  0  0  0  0
 15 30  1  0  0  0  0
 16 17  1  0  0  0  0
 17 22  2  0  0  0  0
 18 19  1  0  0  0  0
 18 23  2  0  0  0  0
 19 27  1  0  0  0  0
 19 28  1  0  0  0  0
 20 21  1  0  0  0  0
 20 23  1  0  0  0  0
 20 29  2  0  0  0  0
 24 32  1  0  0  0  0
 25 33  1  0  0  0  0
 27 28  1  0  0  0  0
 29 31  1  0  0  0  0
M  END
> <PUBCHEM_COMPOUND_ID_TYPE>
0

> <PUBCHEM_TOTAL_CHARGE>
0

> <PUBCHEM_SUBSTANCE_ID>
310943208

> <PUBCHEM_SUBSTANCE_VERSION>
1

> <PUBCHEM_EXT_DATASOURCE_NAME>
4488

> <PUBCHEM_EXT_DATASOURCE_REGID>
SCHEMBL16121269

> <PUBCHEM_SUBSTANCE_COMMENT>
InChI=1S/C25H27N5O3/c1-16-21(19-12-23(29(2)24(31)13-19)30-7-9-33-10-8-30)14-20(15-27-16)28-25(32)18-5-6-26-22(11-18)17-3-4-17/h5-6,11-15,17H,3-4,7-10H2,1-2H3,(H,28,32)
InChIKey=YLYFKVFQUUUXST-UHFFFAOYSA-N

> <PUBCHEM_SUBSTANCE_SYNONYM>
SCHEMBL16121269

> <PUBCHEM_XREF_EXT_ID>
SCHEMBL16121269

> <PUBCHEM_EXT_DATASOURCE_URL>
https://www.surechembl.org/

> <PUBCHEM_EXT_SUBSTANCE_URL>
https://www.surechembl.org/chemical/SCHEMBL16121269

> <PUBCHEM_CID_ASSOCIATIONS>
117609634  1

> <PUBCHEM_COORDINATE_TYPE>
1
3

$$$$
