310932517
  -OEChem-07211613022D

 32 35  0     0  0  0  0  0  0999 V2000
    8.0914   -0.7298    0.0000 F   0  0  0  0  0  0  0  0  0  0  0  0
    5.7433   -2.0625    0.0000 O   0  0  0  0  0  0  0  0  0  0  0  0
    1.6183   -3.7760    0.0000 O   0  0  0  0  0  0  0  0  0  0  0  0
    0.7933   -0.0952    0.0000 O   0  0  0  0  0  0  0  0  0  0  0  0
    5.3626   -3.4587    0.0000 N   0  0  0  0  0  0  0  0  0  0  0  0
    5.7751   -4.1885    0.0000 N   0  0  0  0  0  0  0  0  0  0  0  0
    4.0933   -4.0298    0.0000 N   0  0  0  0  0  0  0  0  0  0  0  0
    1.7769   -2.3481    0.0000 N   0  0  0  0  0  0  0  0  0  0  0  0
    9.5193   -0.7298    0.0000 N   0  0  0  0  0  0  0  0  0  0  0  0
    6.6635   -3.1731    0.0000 C   0  0  0  0  0  0  0  0  0  0  0  0
    5.9020   -2.8558    0.0000 C   0  0  0  0  0  0  0  0  0  0  0  0
    7.3616   -2.7606    0.0000 C   0  0  0  0  0  0  0  0  0  0  0  0
    4.5376   -3.3635    0.0000 C   0  0  0  0  0  0  0  0  0  0  0  0
    7.3616   -1.9673    0.0000 C   0  0  0  0  0  0  0  0  0  0  0  0
    6.5683   -3.9981    0.0000 C   0  0  0  0  0  0  0  0  0  0  0  0
    8.0914   -1.5548    0.0000 C   0  0  0  0  0  0  0  0  0  0  0  0
    8.0914   -3.1731    0.0000 C   0  0  0  0  0  0  0  0  0  0  0  0
    8.7895   -1.9673    0.0000 C   0  0  0  0  0  0  0  0  0  0  0  0
    2.9192   -3.2049    0.0000 C   0  0  0  0  0  0  0  0  0  0  0  0
    4.2203   -2.6019    0.0000 C   0  0  0  0  0  0  0  0  0  0  0  0
    8.7895   -2.7606    0.0000 C   0  0  0  0  0  0  0  0  0  0  0  0
    2.1260   -3.1097    0.0000 C   0  0  0  0  0  0  0  0  0  0  0  0
    3.2683   -3.9664    0.0000 C   0  0  0  0  0  0  0  0  0  0  0  0
    3.3952   -2.5385    0.0000 C   0  0  0  0  0  0  0  0  0  0  0  0
    6.6635   -1.5548    0.0000 C   0  0  0  0  0  0  0  0  0  0  0  0
    9.5193   -1.5548    0.0000 C   0  0  0  0  0  0  0  0  0  0  0  0
    0.9519   -2.2847    0.0000 C   0  0  0  0  0  0  0  0  0  0  0  0
    2.2847   -1.7135    0.0000 C   0  0  0  0  0  0  0  0  0  0  0  0
    1.1423   -0.8567    0.0000 C   0  0  0  0  0  0  0  0  0  0  0  0
    0.6346   -1.5231    0.0000 C   0  0  0  0  0  0  0  0  0  0  0  0
    1.9673   -0.9519    0.0000 C   0  0  0  0  0  0  0  0  0  0  0  0
    0.0000    0.0000    0.0000 C   0  0  0  0  0  0  0  0  0  0  0  0
  1 16  1  0  0  0  0
  2 11  1  0  0  0  0
  3 22  2  0  0  0  0
  4 29  1  0  0  0  0
  4 32  1  0  0  0  0
  5  6  1  0  0  0  0
  5 11  1  0  0  0  0
  5 13  1  0  0  0  0
  6 15  2  0  0  0  0
  7 13  1  0  0  0  0
  7 23  2  0  0  0  0
  8 22  1  0  0  0  0
  8 27  1  0  0  0  0
  8 28  1  0  0  0  0
  9 26  3  0  0  0  0
 10 11  2  0  0  0  0
 10 12  1  0  0  0  0
 10 15  1  0  0  0  0
 12 14  2  0  0  0  0
 12 17  1  0  0  0  0
 13 20  2  0  0  0  0
 14 16  1  0  0  0  0
 14 25  1  0  0  0  0
 16 18  2  0  0  0  0
 17 21  2  0  0  0  0
 18 21  1  0  0  0  0
 18 26  1  0  0  0  0
 19 22  1  0  0  0  0
 19 23  1  0  0  0  0
 19 24  2  0  0  0  0
 20 24  1  0  0  0  0
 27 30  1  0  0  0  0
 28 31  1  0  0  0  0
 29 30  1  0  0  0  0
 29 31  1  0  0  0  0
M  END
> <PUBCHEM_COMPOUND_ID_TYPE>
0

> <PUBCHEM_TOTAL_CHARGE>
0

> <PUBCHEM_SUBSTANCE_ID>
310932517

> <PUBCHEM_SUBSTANCE_VERSION>
1

> <PUBCHEM_EXT_DATASOURCE_NAME>
4488

> <PUBCHEM_EXT_DATASOURCE_REGID>
SCHEMBL16109892

> <PUBCHEM_SUBSTANCE_COMMENT>
InChI=1S/C23H22FN5O3/c1-14-18(5-3-15(11-25)21(14)24)19-13-27-29(23(19)31)20-6-4-16(12-26-20)22(30)28-9-7-17(32-2)8-10-28/h3-6,12-13,17,31H,7-10H2,1-2H3
InChIKey=SXFQBAILEHXLCO-UHFFFAOYSA-N

> <PUBCHEM_SUBSTANCE_SYNONYM>
SCHEMBL16109892

> <PUBCHEM_XREF_EXT_ID>
SCHEMBL16109892

> <PUBCHEM_EXT_DATASOURCE_URL>
https://www.surechembl.org/

> <PUBCHEM_EXT_SUBSTANCE_URL>
https://www.surechembl.org/chemical/SCHEMBL16109892

> <PUBCHEM_CID_ASSOCIATIONS>
117601052  1

> <PUBCHEM_COORDINATE_TYPE>
1
3

$$$$
