310932769
  -OEChem-07211613022D

 30 33  0     0  0  0  0  0  0999 V2000
    7.4527    0.0000    0.0000 F   0  0  0  0  0  0  0  0  0  0  0  0
    5.1071   -1.3658    0.0000 O   0  0  0  0  0  0  0  0  0  0  0  0
    0.9798   -3.0583    0.0000 O   0  0  0  0  0  0  0  0  0  0  0  0
    0.4751   -0.1188    0.0000 O   0  0  0  0  0  0  0  0  0  0  0  0
    4.7210   -2.7614    0.0000 N   0  0  0  0  0  0  0  0  0  0  0  0
    5.1368   -3.4740    0.0000 N   0  0  0  0  0  0  0  0  0  0  0  0
    3.4443   -3.3255    0.0000 N   0  0  0  0  0  0  0  0  0  0  0  0
    1.1283   -1.6330    0.0000 N   0  0  0  0  0  0  0  0  0  0  0  0
    8.9076    0.0000    0.0000 N   0  0  0  0  0  0  0  0  0  0  0  0
    6.0275   -2.4942    0.0000 C   0  0  0  0  0  0  0  0  0  0  0  0
    5.2852   -2.1675    0.0000 C   0  0  0  0  0  0  0  0  0  0  0  0
    6.7401   -2.0784    0.0000 C   0  0  0  0  0  0  0  0  0  0  0  0
    3.9194   -2.6723    0.0000 C   0  0  0  0  0  0  0  0  0  0  0  0
    6.7401   -1.2471    0.0000 C   0  0  0  0  0  0  0  0  0  0  0  0
    5.9384   -3.2958    0.0000 C   0  0  0  0  0  0  0  0  0  0  0  0
    7.4527   -0.8314    0.0000 C   0  0  0  0  0  0  0  0  0  0  0  0
    7.4527   -2.4942    0.0000 C   0  0  0  0  0  0  0  0  0  0  0  0
    8.1653   -1.2471    0.0000 C   0  0  0  0  0  0  0  0  0  0  0  0
    2.2863   -2.4942    0.0000 C   0  0  0  0  0  0  0  0  0  0  0  0
    3.5927   -1.9003    0.0000 C   0  0  0  0  0  0  0  0  0  0  0  0
    8.1653   -2.0784    0.0000 C   0  0  0  0  0  0  0  0  0  0  0  0
    1.4549   -2.4051    0.0000 C   0  0  0  0  0  0  0  0  0  0  0  0
    2.6129   -3.2661    0.0000 C   0  0  0  0  0  0  0  0  0  0  0  0
    2.7614   -1.8409    0.0000 C   0  0  0  0  0  0  0  0  0  0  0  0
    6.0275   -0.8314    0.0000 C   0  0  0  0  0  0  0  0  0  0  0  0
    8.9076   -0.8314    0.0000 C   0  0  0  0  0  0  0  0  0  0  0  0
    0.3266   -1.5440    0.0000 C   0  0  0  0  0  0  0  0  0  0  0  0
    1.6330   -0.9798    0.0000 C   0  0  0  0  0  0  0  0  0  0  0  0
    1.3065   -0.2375    0.0000 C   0  0  0  0  0  0  0  0  0  0  0  0
    0.0000   -0.8017    0.0000 C   0  0  0  0  0  0  0  0  0  0  0  0
  1 16  1  0  0  0  0
  2 11  1  0  0  0  0
  3 22  2  0  0  0  0
  4 29  1  0  0  0  0
  4 30  1  0  0  0  0
  5  6  1  0  0  0  0
  5 11  1  0  0  0  0
  5 13  1  0  0  0  0
  6 15  2  0  0  0  0
  7 13  1  0  0  0  0
  7 23  2  0  0  0  0
  8 22  1  0  0  0  0
  8 27  1  0  0  0  0
  8 28  1  0  0  0  0
  9 26  3  0  0  0  0
 10 11  2  0  0  0  0
 10 12  1  0  0  0  0
 10 15  1  0  0  0  0
 12 14  2  0  0  0  0
 12 17  1  0  0  0  0
 13 20  2  0  0  0  0
 14 16  1  0  0  0  0
 14 25  1  0  0  0  0
 16 18  2  0  0  0  0
 17 21  2  0  0  0  0
 18 21  1  0  0  0  0
 18 26  1  0  0  0  0
 19 22  1  0  0  0  0
 19 23  1  0  0  0  0
 19 24  2  0  0  0  0
 20 24  1  0  0  0  0
 27 30  1  0  0  0  0
 28 29  1  0  0  0  0
M  END
> <PUBCHEM_COMPOUND_ID_TYPE>
0

> <PUBCHEM_TOTAL_CHARGE>
0

> <PUBCHEM_SUBSTANCE_ID>
310932769

> <PUBCHEM_SUBSTANCE_VERSION>
1

> <PUBCHEM_EXT_DATASOURCE_NAME>
4488

> <PUBCHEM_EXT_DATASOURCE_REGID>
SCHEMBL16110155

> <PUBCHEM_SUBSTANCE_COMMENT>
InChI=1S/C21H18FN5O3/c1-13-16(4-2-14(10-23)19(13)22)17-12-25-27(21(17)29)18-5-3-15(11-24-18)20(28)26-6-8-30-9-7-26/h2-5,11-12,29H,6-9H2,1H3
InChIKey=LMYGAQORWWQDEU-UHFFFAOYSA-N

> <PUBCHEM_SUBSTANCE_SYNONYM>
SCHEMBL16110155

> <PUBCHEM_XREF_EXT_ID>
SCHEMBL16110155

> <PUBCHEM_EXT_DATASOURCE_URL>
https://www.surechembl.org/

> <PUBCHEM_EXT_SUBSTANCE_URL>
https://www.surechembl.org/chemical/SCHEMBL16110155

> <PUBCHEM_CID_ASSOCIATIONS>
117601266  1

> <PUBCHEM_COORDINATE_TYPE>
1
3

$$$$
