310936571
  -OEChem-07211613022D

 46 52  0     0  0  0  0  0  0999 V2000
    0.0000   -2.3674    0.0000 F   0  0  0  0  0  0  0  0  0  0  0  0
    3.7577   -3.0062    0.0000 O   0  0  0  0  0  0  0  0  0  0  0  0
    8.7930   -2.7056    0.0000 O   0  0  0  0  0  0  0  0  0  0  0  0
    4.0208   -0.3006    0.0000 O   0  0  0  0  0  0  0  0  0  0  0  0
    9.5070   -3.1940    0.0000 O   0  0  0  0  0  0  0  0  0  0  0  0
   10.1834   -4.3965    0.0000 O   0  0  0  0  0  0  0  0  0  0  0  0
    9.4694   -1.5031    0.0000 N   0  0  0  0  0  0  0  0  0  0  0  0
    2.7056   -0.7515    0.0000 N   0  0  0  0  0  0  0  0  0  0  0  0
   10.1834   -1.8788    0.0000 C   0  0  0  0  0  0  0  0  0  0  0  0
   11.2731   -2.5176    0.0000 C   0  0  0  0  0  0  0  0  0  0  0  0
   11.0101   -1.6534    0.0000 C   0  0  0  0  0  0  0  0  0  0  0  0
   10.5592   -2.5176    0.0000 C   0  0  0  0  0  0  0  0  0  0  0  0
   10.4088   -2.7431    0.0000 C   0  0  0  0  0  0  0  0  0  0  0  0
    4.5092   -1.9164    0.0000 C   0  0  0  0  0  0  0  0  0  0  0  0
    3.7577   -1.6910    0.0000 C   0  0  0  0  0  0  0  0  0  0  0  0
    4.5468   -2.7807    0.0000 C   0  0  0  0  0  0  0  0  0  0  0  0
    3.2692   -2.3674    0.0000 C   0  0  0  0  0  0  0  0  0  0  0  0
    5.9371   -1.9164    0.0000 C   0  0  0  0  0  0  0  0  0  0  0  0
    5.2608   -1.5407    0.0000 C   0  0  0  0  0  0  0  0  0  0  0  0
    8.7554   -1.9164    0.0000 C   0  0  0  0  0  0  0  0  0  0  0  0
    5.9371   -2.7807    0.0000 C   0  0  0  0  0  0  0  0  0  0  0  0
    5.2608   -3.1565    0.0000 C   0  0  0  0  0  0  0  0  0  0  0  0
    6.6511   -1.5031    0.0000 C   0  0  0  0  0  0  0  0  0  0  0  0
    2.4425   -2.3674    0.0000 C   0  0  0  0  0  0  0  0  0  0  0  0
    8.0415   -1.5031    0.0000 C   0  0  0  0  0  0  0  0  0  0  0  0
    3.4947   -0.9395    0.0000 C   0  0  0  0  0  0  0  0  0  0  0  0
    7.3651   -1.9164    0.0000 C   0  0  0  0  0  0  0  0  0  0  0  0
    6.6511   -0.6764    0.0000 C   0  0  0  0  0  0  0  0  0  0  0  0
    6.6511   -3.1940    0.0000 C   0  0  0  0  0  0  0  0  0  0  0  0
    8.0415   -0.6764    0.0000 C   0  0  0  0  0  0  0  0  0  0  0  0
    2.0292   -3.0813    0.0000 C   0  0  0  0  0  0  0  0  0  0  0  0
    2.0292   -1.6534    0.0000 C   0  0  0  0  0  0  0  0  0  0  0  0
    7.3275   -0.2631    0.0000 C   0  0  0  0  0  0  0  0  0  0  0  0
    1.2025   -3.0813    0.0000 C   0  0  0  0  0  0  0  0  0  0  0  0
    1.2025   -1.6534    0.0000 C   0  0  0  0  0  0  0  0  0  0  0  0
    0.8267   -2.3674    0.0000 C   0  0  0  0  0  0  0  0  0  0  0  0
    7.3651   -2.7807    0.0000 C   0  0  0  0  0  0  0  0  0  0  0  0
    2.4425    0.0000    0.0000 C   0  0  0  0  0  0  0  0  0  0  0  0
    8.0791   -3.1940    0.0000 C   0  0  0  0  0  0  0  0  0  0  0  0
    8.0791   -4.0208    0.0000 C   0  0  0  0  0  0  0  0  0  0  0  0
    8.7930   -4.3965    0.0000 C   0  0  0  0  0  0  0  0  0  0  0  0
    7.3651   -4.3965    0.0000 C   0  0  0  0  0  0  0  0  0  0  0  0
    9.5070   -4.0208    0.0000 C   0  0  0  0  0  0  0  0  0  0  0  0
    8.7930   -5.2232    0.0000 C   0  0  0  0  0  0  0  0  0  0  0  0
    7.3651   -5.2232    0.0000 C   0  0  0  0  0  0  0  0  0  0  0  0
    8.0791   -5.6365    0.0000 C   0  0  0  0  0  0  0  0  0  0  0  0
  1 36  1  0  0  0  0
  2 16  1  0  0  0  0
  2 17  1  0  0  0  0
  3 20  2  0  0  0  0
  4 26  2  0  0  0  0
  5 43  2  0  0  0  0
  6 43  1  0  0  0  0
  7  9  1  0  0  0  0
  7 20  1  0  0  0  0
  8 26  1  0  0  0  0
  8 38  1  0  0  0  0
  9 11  1  0  0  0  0
  9 12  1  0  0  0  0
  9 13  1  0  0  0  0
 10 11  1  0  0  0  0
 10 12  1  0  0  0  0
 10 13  1  0  0  0  0
 14 15  1  0  0  0  0
 14 16  2  0  0  0  0
 14 19  1  0  0  0  0
 15 17  2  0  0  0  0
 15 26  1  0  0  0  0
 16 22  1  0  0  0  0
 17 24  1  0  0  0  0
 18 19  2  0  0  0  0
 18 21  1  0  0  0  0
 18 23  1  0  0  0  0
 20 25  1  0  0  0  0
 21 22  2  0  0  0  0
 21 29  1  0  0  0  0
 23 27  1  0  0  0  0
 23 28  2  0  0  0  0
 24 31  2  0  0  0  0
 24 32  1  0  0  0  0
 25 27  2  0  0  0  0
 25 30  1  0  0  0  0
 28 33  1  0  0  0  0
 29 37  1  0  0  0  0
 30 33  2  0  0  0  0
 31 34  1  0  0  0  0
 32 35  2  0  0  0  0
 34 36  2  0  0  0  0
 35 36  1  0  0  0  0
 37 39  1  0  0  0  0
 39 40  1  0  0  0  0
 40 41  2  0  0  0  0
 40 42  1  0  0  0  0
 41 43  1  0  0  0  0
 41 44  1  0  0  0  0
 42 45  2  0  0  0  0
 44 46  2  0  0  0  0
 45 46  1  0  0  0  0
M  END
> <PUBCHEM_COMPOUND_ID_TYPE>
0

> <PUBCHEM_TOTAL_CHARGE>
0

> <PUBCHEM_SUBSTANCE_ID>
310936571

> <PUBCHEM_SUBSTANCE_VERSION>
1

> <PUBCHEM_EXT_DATASOURCE_NAME>
4488

> <PUBCHEM_EXT_DATASOURCE_REGID>
SCHEMBL16114227

> <PUBCHEM_SUBSTANCE_COMMENT>
InChI=1S/C38H33FN2O5/c1-40-36(43)33-31-18-30(25-8-5-10-27(16-25)35(42)41-38-19-22(20-38)21-38)26(9-4-7-23-6-2-3-11-29(23)37(44)45)17-32(31)46-34(33)24-12-14-28(39)15-13-24/h2-3,5-6,8,10-18,22H,4,7,9,19-21H2,1H3,(H,40,43)(H,41,42)(H,44,45)
InChIKey=RNTMXGZVIDWHTN-UHFFFAOYSA-N

> <PUBCHEM_SUBSTANCE_SYNONYM>
SCHEMBL16114227

> <PUBCHEM_XREF_EXT_ID>
SCHEMBL16114227

> <PUBCHEM_EXT_DATASOURCE_URL>
https://www.surechembl.org/

> <PUBCHEM_EXT_SUBSTANCE_URL>
https://www.surechembl.org/chemical/SCHEMBL16114227

> <PUBCHEM_CID_ASSOCIATIONS>
117604491  1

> <PUBCHEM_COORDINATE_TYPE>
1
3

$$$$
