310946829
  -OEChem-07211613022D

 26 27  0     0  0  0  0  0  0999 V2000
   -2.3743   -1.8443    0.0000 Cl  0  0  0  0  0  0  0  0  0  0  0  0
   -3.1993   -0.4153    0.0000 O   0  0  0  0  0  0  0  0  0  0  0  0
   -3.3336    1.0136    0.0000 O   0  0  0  0  0  0  0  0  0  0  0  0
    0.1007   -0.4153    0.0000 N   0  0  0  0  0  0  0  0  0  0  0  0
    3.4007   -0.4153    0.0000 N   0  0  0  0  0  0  0  0  0  0  0  0
   -4.7726    1.8443    0.0000 N   0  0  0  0  0  0  0  0  0  0  0  0
   -0.7243   -0.4153    0.0000 C   0  0  0  0  0  0  0  0  0  0  0  0
   -1.1367   -1.1299    0.0000 C   0  0  0  0  0  0  0  0  0  0  0  0
   -1.9617   -1.1299    0.0000 C   0  0  0  0  0  0  0  0  0  0  0  0
   -2.3743   -0.4153    0.0000 C   0  0  0  0  0  0  0  0  0  0  0  0
   -1.9617    0.2991    0.0000 C   0  0  0  0  0  0  0  0  0  0  0  0
   -1.1367    0.2991    0.0000 C   0  0  0  0  0  0  0  0  0  0  0  0
    0.9257   -0.4153    0.0000 C   0  0  0  0  0  0  0  0  0  0  0  0
    1.3383    0.2991    0.0000 C   0  0  0  0  0  0  0  0  0  0  0  0
    2.5757   -0.4153    0.0000 C   0  0  0  0  0  0  0  0  0  0  0  0
    1.3383   -1.1299    0.0000 C   0  0  0  0  0  0  0  0  0  0  0  0
    2.1633    0.2991    0.0000 C   0  0  0  0  0  0  0  0  0  0  0  0
   -2.3743    1.0136    0.0000 C   0  0  0  0  0  0  0  0  0  0  0  0
    2.1633   -1.1299    0.0000 C   0  0  0  0  0  0  0  0  0  0  0  0
   -0.7243   -1.8443    0.0000 C   0  0  0  0  0  0  0  0  0  0  0  0
    0.9257    1.0136    0.0000 C   0  0  0  0  0  0  0  0  0  0  0  0
    3.8133    0.2991    0.0000 C   0  0  0  0  0  0  0  0  0  0  0  0
    3.8133   -1.1299    0.0000 C   0  0  0  0  0  0  0  0  0  0  0  0
   -3.8133    1.8443    0.0000 C   0  0  0  0  0  0  0  0  0  0  0  0
    3.3336    1.1299    0.0000 C   0  0  0  0  0  0  0  0  0  0  0  0
    4.7726   -1.1299    0.0000 C   0  0  0  0  0  0  0  0  0  0  0  0
  1  9  1  0  0  0  0
  2 10  2  0  0  0  0
  3 18  1  0  0  0  0
  3 24  1  0  0  0  0
  4  7  2  3  0  0  0
  4 13  1  0  0  0  0
  5 15  1  0  0  0  0
  5 22  1  0  0  0  0
  5 23  1  0  0  0  0
  6 24  2  3  0  0  0
  7  8  1  0  0  0  0
  7 12  1  0  0  0  0
  8  9  2  0  0  0  0
  8 20  1  0  0  0  0
  9 10  1  0  0  0  0
 10 11  1  0  0  0  0
 11 12  2  0  0  0  0
 11 18  1  0  0  0  0
 13 14  1  0  0  0  0
 13 16  2  0  0  0  0
 14 17  2  0  0  0  0
 14 21  1  0  0  0  0
 15 17  1  0  0  0  0
 15 19  2  0  0  0  0
 16 19  1  0  0  0  0
 22 25  1  0  0  0  0
 23 26  1  0  0  0  0
M  END
> <PUBCHEM_COMPOUND_ID_TYPE>
0

> <PUBCHEM_TOTAL_CHARGE>
0

> <PUBCHEM_SUBSTANCE_ID>
310946829

> <PUBCHEM_SUBSTANCE_VERSION>
1

> <PUBCHEM_EXT_DATASOURCE_NAME>
4488

> <PUBCHEM_EXT_DATASOURCE_REGID>
SCHEMBL16124953

> <PUBCHEM_SUBSTANCE_COMMENT>
InChI=1S/C20H24ClN3O2/c1-5-24(6-2)16-7-8-17(13(3)9-16)23-18-10-15(11-26-12-22)20(25)19(21)14(18)4/h7-10,12,22H,5-6,11H2,1-4H3
InChIKey=DSGGZNLRELQEFH-UHFFFAOYSA-N

> <PUBCHEM_SUBSTANCE_SYNONYM>
SCHEMBL16124953

> <PUBCHEM_XREF_EXT_ID>
SCHEMBL16124953

> <PUBCHEM_EXT_DATASOURCE_URL>
https://www.surechembl.org/

> <PUBCHEM_EXT_SUBSTANCE_URL>
https://www.surechembl.org/chemical/SCHEMBL16124953

> <PUBCHEM_CID_ASSOCIATIONS>
117612689  1

> <PUBCHEM_COORDINATE_TYPE>
1
3

$$$$
