310939809
  -OEChem-07211613022D

 32 34  0     0  0  0  0  0  0999 V2000
    1.4289    2.6260    0.0000 Cl  0  0  0  0  0  0  0  0  0  0  0  0
    3.5724    3.8635    0.0000 Cl  0  0  0  0  0  0  0  0  0  0  0  0
   -2.8579   -3.1490    0.0000 S   0  0  0  0  0  0  0  0  0  0  0  0
    0.0000    0.1510    0.0000 O   0  0  0  0  0  0  0  0  0  0  0  0
    1.4289   -2.3240    0.0000 O   0  0  0  0  0  0  0  0  0  0  0  0
   -2.4454   -2.4345    0.0000 O   0  0  0  0  0  0  0  0  0  0  0  0
   -3.2704   -3.8635    0.0000 O   0  0  0  0  0  0  0  0  0  0  0  0
    1.4289   -0.6740    0.0000 N   0  0  0  0  0  0  0  0  0  0  0  0
    0.0000   -2.3240    0.0000 N   0  0  0  0  0  0  0  0  0  0  0  0
   -2.1434   -3.5615    0.0000 N   0  0  0  0  0  0  0  0  0  0  0  0
    2.1434    1.3885    0.0000 C   0  0  0  0  0  0  0  0  0  0  0  0
    1.4289    0.1510    0.0000 C   0  0  0  0  0  0  0  0  0  0  0  0
    1.4289    1.8010    0.0000 C   0  0  0  0  0  0  0  0  0  0  0  0
    0.7145    0.5635    0.0000 C   0  0  0  0  0  0  0  0  0  0  0  0
    2.8579    1.8010    0.0000 C   0  0  0  0  0  0  0  0  0  0  0  0
    2.1434    0.5635    0.0000 C   0  0  0  0  0  0  0  0  0  0  0  0
    0.7145    1.3885    0.0000 C   0  0  0  0  0  0  0  0  0  0  0  0
    2.8579    2.6260    0.0000 C   0  0  0  0  0  0  0  0  0  0  0  0
    3.5724    1.3885    0.0000 C   0  0  0  0  0  0  0  0  0  0  0  0
    0.7145   -1.9115    0.0000 C   0  0  0  0  0  0  0  0  0  0  0  0
   -1.4289   -3.1490    0.0000 C   0  0  0  0  0  0  0  0  0  0  0  0
    0.7145   -1.0865    0.0000 C   0  0  0  0  0  0  0  0  0  0  0  0
    3.5724    3.0385    0.0000 C   0  0  0  0  0  0  0  0  0  0  0  0
   -0.7145   -1.9115    0.0000 C   0  0  0  0  0  0  0  0  0  0  0  0
    0.0000   -3.1490    0.0000 C   0  0  0  0  0  0  0  0  0  0  0  0
   -1.4289   -2.3240    0.0000 C   0  0  0  0  0  0  0  0  0  0  0  0
   -0.7145   -3.5615    0.0000 C   0  0  0  0  0  0  0  0  0  0  0  0
    4.2868    1.8010    0.0000 C   0  0  0  0  0  0  0  0  0  0  0  0
    4.2868    2.6260    0.0000 C   0  0  0  0  0  0  0  0  0  0  0  0
   -3.5724   -2.7365    0.0000 C   0  0  0  0  0  0  0  0  0  0  0  0
   -0.7145    0.5635    0.0000 C   0  0  0  0  0  0  0  0  0  0  0  0
   -4.2868   -3.1490    0.0000 C   0  0  0  0  0  0  0  0  0  0  0  0
  1 13  1  0  0  0  0
  2 23  1  0  0  0  0
  3  6  2  0  0  0  0
  3  7  2  0  0  0  0
  3 10  1  0  0  0  0
  3 30  1  0  0  0  0
  4 14  1  0  0  0  0
  4 31  1  0  0  0  0
  5 20  2  0  0  0  0
  8 12  1  0  0  0  0
  8 22  1  0  0  0  0
  9 20  1  0  0  0  0
  9 24  1  0  0  0  0
  9 25  1  0  0  0  0
 10 21  1  0  0  0  0
 11 13  2  0  0  0  0
 11 15  1  0  0  0  0
 11 16  1  0  0  0  0
 12 14  1  0  0  0  0
 12 16  2  0  0  0  0
 13 17  1  0  0  0  0
 14 17  2  0  0  0  0
 15 18  1  0  0  0  0
 15 19  2  0  0  0  0
 18 23  2  0  0  0  0
 19 28  1  0  0  0  0
 20 22  1  0  0  0  0
 21 26  1  0  0  0  0
 21 27  1  0  0  0  0
 23 29  1  0  0  0  0
 24 26  1  0  0  0  0
 25 27  1  0  0  0  0
 28 29  2  0  0  0  0
 30 32  2  0  0  0  0
M  END
> <PUBCHEM_COMPOUND_ID_TYPE>
0

> <PUBCHEM_TOTAL_CHARGE>
0

> <PUBCHEM_SUBSTANCE_ID>
310939809

> <PUBCHEM_SUBSTANCE_VERSION>
1

> <PUBCHEM_EXT_DATASOURCE_NAME>
4488

> <PUBCHEM_EXT_DATASOURCE_REGID>
SCHEMBL16117739

> <PUBCHEM_SUBSTANCE_COMMENT>
InChI=1S/C22H25Cl2N3O4S/c1-3-32(29,30)26-17-7-9-27(10-8-17)22(28)14-25-20-12-18(19(24)13-21(20)31-2)15-5-4-6-16(23)11-15/h3-6,11-13,17,25-26H,1,7-10,14H2,2H3
InChIKey=ONAFMWOMTXXOEL-UHFFFAOYSA-N

> <PUBCHEM_SUBSTANCE_SYNONYM>
SCHEMBL16117739

> <PUBCHEM_XREF_EXT_ID>
SCHEMBL16117739

> <PUBCHEM_EXT_DATASOURCE_URL>
https://www.surechembl.org/

> <PUBCHEM_EXT_SUBSTANCE_URL>
https://www.surechembl.org/chemical/SCHEMBL16117739

> <PUBCHEM_CID_ASSOCIATIONS>
117607027  1

> <PUBCHEM_COORDINATE_TYPE>
1
3

$$$$
