310929767
  -OEChem-07211613022D

 49 54  0     1  0  0  0  0  0999 V2000
    5.3540   -2.4711    0.0000 O   0  0  0  0  0  0  0  0  0  0  0  0
    6.4065   -5.3540    0.0000 O   0  0  0  0  0  0  0  0  0  0  0  0
    1.4643   -0.9610    0.0000 O   0  0  0  0  0  0  0  0  0  0  0  0
    0.8694   -4.5304    0.0000 O   0  0  0  0  0  0  0  0  0  0  0  0
    4.2558   -0.1373    0.0000 O   0  0  0  0  0  0  0  0  0  0  0  0
    2.8372    0.0000    0.0000 O   0  0  0  0  0  0  0  0  0  0  0  0
    0.0000   -3.7066    0.0000 O   0  0  0  0  0  0  0  0  0  0  0  0
    2.9287   -8.3285    0.0000 O   0  0  0  0  0  0  0  0  0  0  0  0
    2.6541   -1.2813    0.0000 N   0  0  0  0  0  0  0  0  0  0  0  0
    6.3608   -2.8830    0.0000 N   0  0  0  0  0  0  0  0  0  0  0  0
    0.8694   -2.8830    0.0000 N   0  0  0  0  0  0  0  0  0  0  0  0
    4.3015   -6.6354    0.0000 N   0  0  0  0  0  0  0  0  0  0  0  0
    5.6286   -4.0727    0.0000 C   0  0  0  0  0  0  0  0  0  0  0  0
    6.3608   -4.5304    0.0000 C   0  0  0  0  0  0  0  0  0  0  0  0
    5.6286   -3.3406    0.0000 C   0  0  0  0  0  0  0  0  0  0  0  0
    7.0014   -4.0727    0.0000 C   0  0  0  0  0  0  0  0  0  0  0  0
    3.3863   -1.2813    0.0000 C   0  0  3  0  0  0  0  0  0  0  0  0
    4.8964   -1.8305    0.0000 C   0  0  3  0  0  0  0  0  0  0  0  0
    7.0014   -3.3406    0.0000 C   0  0  0  0  0  0  0  0  0  0  0  0
    1.9220   -1.6474    0.0000 C   0  0  0  0  0  0  0  0  0  0  0  0
    3.9355   -0.9152    0.0000 C   0  0  0  0  0  0  0  0  0  0  0  0
    1.2813   -2.1965    0.0000 C   0  0  3  0  0  0  0  0  0  0  0  0
    4.2100   -1.4643    0.0000 C   0  0  0  0  0  0  0  0  0  0  0  0
    0.6407   -1.6932    0.0000 C   0  0  0  0  0  0  0  0  0  0  0  0
    3.4778   -0.4576    0.0000 C   0  0  0  0  0  0  0  0  0  0  0  0
    7.7336   -4.5304    0.0000 C   0  0  0  0  0  0  0  0  0  0  0  0
    5.3540   -4.8964    0.0000 C   0  0  0  0  0  0  0  0  0  0  0  0
    7.7336   -2.8830    0.0000 C   0  0  0  0  0  0  0  0  0  0  0  0
    1.2813   -5.1710    0.0000 C   0  0  3  0  0  0  0  0  0  0  0  0
    1.9220   -5.7201    0.0000 C   0  0  3  0  0  0  0  0  0  0  0  0
    5.6744   -5.8116    0.0000 C   0  0  0  0  0  0  0  0  0  0  0  0
    0.7779   -3.7066    0.0000 C   0  0  0  0  0  0  0  0  0  0  0  0
    1.0983   -6.0405    0.0000 C   0  0  0  0  0  0  0  0  0  0  0  0
    8.5115   -4.0727    0.0000 C   0  0  0  0  0  0  0  0  0  0  0  0
    8.5115   -3.3406    0.0000 C   0  0  0  0  0  0  0  0  0  0  0  0
    4.8964   -5.5371    0.0000 C   0  0  0  0  0  0  0  0  0  0  0  0
    2.6541   -6.1320    0.0000 C   0  0  0  0  0  0  0  0  0  0  0  0
    1.1440   -1.0525    0.0000 C   0  0  0  0  0  0  0  0  0  0  0  0
    0.0000   -1.1898    0.0000 C   0  0  0  0  0  0  0  0  0  0  0  0
    0.1373   -2.3338    0.0000 C   0  0  0  0  0  0  0  0  0  0  0  0
    4.9422   -5.3998    0.0000 C   0  0  0  0  0  0  0  0  0  0  0  0
    5.7201   -6.5896    0.0000 C   0  0  0  0  0  0  0  0  0  0  0  0
    4.2100   -5.9032    0.0000 C   0  0  0  0  0  0  0  0  0  0  0  0
    3.3863   -6.1320    0.0000 C   0  0  0  0  0  0  0  0  0  0  0  0
    4.4388   -5.9947    0.0000 C   0  0  0  0  0  0  0  0  0  0  0  0
    5.0337   -7.0472    0.0000 C   0  0  0  0  0  0  0  0  0  0  0  0
    3.6151   -7.0930    0.0000 C   0  0  0  0  0  0  0  0  0  0  0  0
    3.6151   -7.9166    0.0000 C   0  0  0  0  0  0  0  0  0  0  0  0
    2.9745   -9.1522    0.0000 C   0  0  0  0  0  0  0  0  0  0  0  0
  1 15  1  0  0  0  0
  1 18  1  0  0  0  0
  2 14  1  0  0  0  0
  2 31  1  0  0  0  0
  3 20  2  0  0  0  0
  4 29  1  0  0  0  0
  4 32  1  0  0  0  0
  5 25  2  0  0  0  0
  6 25  1  0  0  0  0
  7 32  2  0  0  0  0
  8 48  1  0  0  0  0
  8 49  1  0  0  0  0
  9 17  1  0  0  0  0
  9 20  1  0  0  0  0
  9 21  1  0  0  0  0
 10 15  1  0  0  0  0
 10 19  2  0  0  0  0
 11 22  1  0  0  0  0
 11 32  1  0  0  0  0
 12 45  1  0  0  0  0
 12 46  1  0  0  0  0
 12 47  1  0  0  0  0
 13 14  1  0  0  0  0
 13 15  2  0  0  0  0
 13 27  1  0  0  0  0
 14 16  2  0  0  0  0
 16 19  1  0  0  0  0
 16 26  1  0  0  0  0
 17 23  1  0  0  0  0
 17 25  1  6  0  0  0
 18 21  1  0  0  0  0
 18 23  1  1  0  0  0
 19 28  1  0  0  0  0
 20 22  1  0  0  0  0
 22 24  1  1  0  0  0
 24 38  1  0  0  0  0
 24 39  1  0  0  0  0
 24 40  1  0  0  0  0
 26 34  2  0  0  0  0
 27 36  1  0  0  0  0
 28 35  2  0  0  0  0
 29 30  1  0  0  0  0
 29 33  1  1  0  0  0
 30 33  1  6  0  0  0
 30 37  1  0  0  0  0
 31 41  1  0  0  0  0
 31 42  1  0  0  0  0
 34 35  1  0  0  0  0
 36 43  1  0  0  0  0
 37 44  1  0  0  0  0
 41 45  1  0  0  0  0
 42 46  1  0  0  0  0
 43 44  1  0  0  0  0
 47 48  1  0  0  0  0
M  END
> <PUBCHEM_COMPOUND_ID_TYPE>
0

> <PUBCHEM_TOTAL_CHARGE>
0

> <PUBCHEM_SUBSTANCE_ID>
310929767

> <PUBCHEM_SUBSTANCE_VERSION>
1

> <PUBCHEM_EXT_DATASOURCE_NAME>
4488

> <PUBCHEM_EXT_DATASOURCE_REGID>
SCHEMBL16106965

> <PUBCHEM_SUBSTANCE_COMMENT>
InChI=1S/C37H52N4O8/c1-37(2,3)32-34(42)41-22-25(21-29(41)35(43)44)48-33-27(12-7-5-6-10-23-20-30(23)49-36(45)39-32)31(26-11-8-9-13-28(26)38-33)47-24-14-16-40(17-15-24)18-19-46-4/h8-9,11,13,23-25,29-30,32H,5-7,10,12,14-22H2,1-4H3,(H,39,45)(H,43,44)/t23-,25-,29+,30-,32-/m1/s1
InChIKey=WJPQSJLPDSWGHV-RXNHMOGISA-N

> <PUBCHEM_SUBSTANCE_SYNONYM>
SCHEMBL16106965

> <PUBCHEM_XREF_EXT_ID>
SCHEMBL16106965

> <PUBCHEM_EXT_DATASOURCE_URL>
https://www.surechembl.org/

> <PUBCHEM_EXT_SUBSTANCE_URL>
https://www.surechembl.org/chemical/SCHEMBL16106965

> <PUBCHEM_CID_ASSOCIATIONS>
117599053  1

> <PUBCHEM_COORDINATE_TYPE>
1
3

> <PUBCHEM_BONDANNOTATIONS>
17  25  6
18  23  5
22  24  5
29  33  5
30  33  6

$$$$
