310940632
  -OEChem-07211613022D

 16 16  0     0  0  0  0  0  0999 V2000
    0.2587    1.2427    0.0000 O   0  0  0  0  0  0  0  0  0  0  0  0
   -0.4555   -0.0036    0.0000 N   0  0  0  0  0  0  0  0  0  0  0  0
    3.8300   -0.8272    0.0000 N   0  0  0  0  0  0  0  0  0  0  0  0
   -3.3053   -0.0036    0.0000 N   0  0  0  0  0  0  0  0  0  0  0  0
    0.9803    0.0036    0.0000 C   0  0  0  0  0  0  0  0  0  0  0  0
    0.2660    0.4118    0.0000 C   0  0  0  0  0  0  0  0  0  0  0  0
    2.4015   -0.8199    0.0000 C   0  0  0  0  0  0  0  0  0  0  0  0
    0.9803   -0.8272    0.0000 C   0  0  0  0  0  0  0  0  0  0  0  0
    1.6872    0.4118    0.0000 C   0  0  0  0  0  0  0  0  0  0  0  0
    1.6945   -1.2427    0.0000 C   0  0  0  0  0  0  0  0  0  0  0  0
    2.4015   -0.0036    0.0000 C   0  0  0  0  0  0  0  0  0  0  0  0
    3.1303   -1.2427    0.0000 C   0  0  0  0  0  0  0  0  0  0  0  0
   -1.1698    0.4118    0.0000 C   0  0  0  0  0  0  0  0  0  0  0  0
   -1.8695    0.0036    0.0000 C   0  0  0  0  0  0  0  0  0  0  0  0
   -2.5983    0.4118    0.0000 C   0  0  0  0  0  0  0  0  0  0  0  0
   -3.8300    0.2952    0.0000 C   0  0  0  0  0  0  0  0  0  0  0  0
  1  6  2  0  0  0  0
  2  6  1  0  0  0  0
  2 13  1  0  0  0  0
  3 12  1  0  0  0  0
  4 15  1  0  0  0  0
  4 16  1  0  0  0  0
  5  6  1  0  0  0  0
  5  8  1  0  0  0  0
  5  9  1  0  0  0  0
  7 10  1  0  0  0  0
  7 11  1  0  0  0  0
  7 12  1  0  0  0  0
  8 10  1  0  0  0  0
  9 11  1  0  0  0  0
 13 14  1  0  0  0  0
 14 15  1  0  0  0  0
M  END
> <PUBCHEM_COMPOUND_ID_TYPE>
0

> <PUBCHEM_TOTAL_CHARGE>
0

> <PUBCHEM_SUBSTANCE_ID>
310940632

> <PUBCHEM_SUBSTANCE_VERSION>
1

> <PUBCHEM_EXT_DATASOURCE_NAME>
4488

> <PUBCHEM_EXT_DATASOURCE_REGID>
SCHEMBL16118587

> <PUBCHEM_SUBSTANCE_COMMENT>
InChI=1S/C12H25N3O/c1-14-7-2-8-15-12(16)11-5-3-10(9-13)4-6-11/h10-11,14H,2-9,13H2,1H3,(H,15,16)
InChIKey=AZVOHMWKTHUPQL-UHFFFAOYSA-N

> <PUBCHEM_SUBSTANCE_SYNONYM>
SCHEMBL16118587

> <PUBCHEM_XREF_EXT_ID>
SCHEMBL16118587

> <PUBCHEM_EXT_DATASOURCE_URL>
https://www.surechembl.org/

> <PUBCHEM_EXT_SUBSTANCE_URL>
https://www.surechembl.org/chemical/SCHEMBL16118587

> <PUBCHEM_CID_ASSOCIATIONS>
82680244  1

> <PUBCHEM_COORDINATE_TYPE>
1
3

$$$$
