310948231
  -OEChem-07211613022D

 43 47  0     0  0  0  0  0  0999 V2000
    3.6662   -3.7952    0.0000 F   0  0  0  0  0  0  0  0  0  0  0  0
    3.1320   -2.7451    0.0000 F   0  0  0  0  0  0  0  0  0  0  0  0
    2.6161   -4.2742    0.0000 F   0  0  0  0  0  0  0  0  0  0  0  0
    0.7369    1.1238    0.0000 O   0  0  0  0  0  0  0  0  0  0  0  0
    2.1002   -3.2609    0.0000 O   0  0  0  0  0  0  0  0  0  0  0  0
   -2.9477   -2.5792    0.0000 O   0  0  0  0  0  0  0  0  0  0  0  0
   -0.7922    1.1422    0.0000 N   0  0  0  0  0  0  0  0  0  0  0  0
    1.9712    0.5895    0.0000 N   0  0  0  0  0  0  0  0  0  0  0  0
   -1.4554    1.6213    0.0000 N   0  0  0  0  0  0  0  0  0  0  0  0
   -3.6662   -3.8136    0.0000 N   0  0  0  0  0  0  0  0  0  0  0  0
   -1.0133    4.5321    0.0000 N   0  0  0  0  0  0  0  0  0  0  0  0
   -0.0553   -0.0921    0.0000 C   0  0  0  0  0  0  0  0  0  0  0  0
    0.6448    0.3132    0.0000 C   0  0  0  0  0  0  0  0  0  0  0  0
   -0.7922    0.3132    0.0000 C   0  0  0  0  0  0  0  0  0  0  0  0
    1.4186   -0.0185    0.0000 C   0  0  0  0  0  0  0  0  0  0  0  0
   -0.7738   -1.3265    0.0000 C   0  0  0  0  0  0  0  0  0  0  0  0
   -0.0737   -0.9212    0.0000 C   0  0  0  0  0  0  0  0  0  0  0  0
    1.5660   -0.8475    0.0000 C   0  0  0  0  0  0  0  0  0  0  0  0
    1.5660    1.2896    0.0000 C   0  0  0  0  0  0  0  0  0  0  0  0
   -1.4739   -0.0921    0.0000 C   0  0  0  0  0  0  0  0  0  0  0  0
   -0.7922   -2.1555    0.0000 C   0  0  0  0  0  0  0  0  0  0  0  0
   -1.4922   -0.9212    0.0000 C   0  0  0  0  0  0  0  0  0  0  0  0
   -1.4922   -3.3898    0.0000 C   0  0  0  0  0  0  0  0  0  0  0  0
   -0.1106    1.6396    0.0000 C   0  0  0  0  0  0  0  0  0  0  0  0
   -1.4739   -2.5792    0.0000 C   0  0  0  0  0  0  0  0  0  0  0  0
   -2.2108   -3.8320    0.0000 C   0  0  0  0  0  0  0  0  0  0  0  0
    2.3766   -1.0870    0.0000 C   0  0  0  0  0  0  0  0  0  0  0  0
    0.9764   -1.3818    0.0000 C   0  0  0  0  0  0  0  0  0  0  0  0
   -1.1975    2.4134    0.0000 C   0  0  0  0  0  0  0  0  0  0  0  0
   -0.0737   -2.5792    0.0000 C   0  0  0  0  0  0  0  0  0  0  0  0
   -0.3501    2.3950    0.0000 C   0  0  0  0  0  0  0  0  0  0  0  0
    1.9344   -2.4319    0.0000 C   0  0  0  0  0  0  0  0  0  0  0  0
   -0.7922   -3.7952    0.0000 C   0  0  0  0  0  0  0  0  0  0  0  0
    2.5424   -1.8976    0.0000 C   0  0  0  0  0  0  0  0  0  0  0  0
    1.1606   -2.1739    0.0000 C   0  0  0  0  0  0  0  0  0  0  0  0
    1.8976    2.0634    0.0000 C   0  0  0  0  0  0  0  0  0  0  0  0
   -0.0737   -3.4083    0.0000 C   0  0  0  0  0  0  0  0  0  0  0  0
   -2.9477   -3.4267    0.0000 C   0  0  0  0  0  0  0  0  0  0  0  0
   -1.6765    3.0582    0.0000 C   0  0  0  0  0  0  0  0  0  0  0  0
   -1.8055   -4.5321    0.0000 C   0  0  0  0  0  0  0  0  0  0  0  0
   -3.0214   -4.5321    0.0000 C   0  0  0  0  0  0  0  0  0  0  0  0
    2.8925   -3.5188    0.0000 C   0  0  0  0  0  0  0  0  0  0  0  0
   -1.3449    3.8136    0.0000 C   0  0  0  0  0  0  0  0  0  0  0  0
  1 42  1  0  0  0  0
  2 42  1  0  0  0  0
  3 42  1  0  0  0  0
  4 13  1  0  0  0  0
  4 19  1  0  0  0  0
  5 32  1  0  0  0  0
  5 42  1  0  0  0  0
  6 38  2  0  0  0  0
  7  9  1  0  0  0  0
  7 14  1  0  0  0  0
  7 24  1  0  0  0  0
  8 15  1  0  0  0  0
  8 19  2  0  0  0  0
  9 29  2  0  0  0  0
 10 38  1  0  0  0  0
 11 43  3  0  0  0  0
 12 13  1  0  0  0  0
 12 14  1  0  0  0  0
 12 17  2  0  0  0  0
 13 15  2  0  0  0  0
 14 20  2  0  0  0  0
 15 18  1  0  0  0  0
 16 17  1  0  0  0  0
 16 21  1  0  0  0  0
 16 22  2  0  0  0  0
 18 27  2  0  0  0  0
 18 28  1  0  0  0  0
 19 36  1  0  0  0  0
 20 22  1  0  0  0  0
 21 25  1  0  0  0  0
 21 30  2  0  0  0  0
 23 25  2  0  0  0  0
 23 26  1  0  0  0  0
 23 33  1  0  0  0  0
 24 31  2  0  0  0  0
 26 38  1  0  0  0  0
 26 40  1  0  0  0  0
 26 41  1  0  0  0  0
 27 34  1  0  0  0  0
 28 35  2  0  0  0  0
 29 31  1  0  0  0  0
 29 39  1  0  0  0  0
 30 37  1  0  0  0  0
 32 34  2  0  0  0  0
 32 35  1  0  0  0  0
 33 37  2  0  0  0  0
 39 43  1  0  0  0  0
M  END
> <PUBCHEM_COMPOUND_ID_TYPE>
0

> <PUBCHEM_TOTAL_CHARGE>
0

> <PUBCHEM_SUBSTANCE_ID>
310948231

> <PUBCHEM_SUBSTANCE_VERSION>
1

> <PUBCHEM_EXT_DATASOURCE_NAME>
4488

> <PUBCHEM_EXT_DATASOURCE_REGID>
SCHEMBL16126408

> <PUBCHEM_SUBSTANCE_COMMENT>
InChI=1S/C32H26F3N5O3/c1-19-38-28(20-7-10-25(11-8-20)43-32(33,34)35)29(42-19)26-18-22(9-12-27(26)40-16-14-24(39-40)13-15-36)21-5-4-6-23(17-21)31(2,3)30(37)41/h4-12,14,16-18H,13H2,1-3H3,(H2,37,41)
InChIKey=QRQWXOCCEHSJTR-UHFFFAOYSA-N

> <PUBCHEM_SUBSTANCE_SYNONYM>
SCHEMBL16126408

> <PUBCHEM_XREF_EXT_ID>
SCHEMBL16126408

> <PUBCHEM_EXT_DATASOURCE_URL>
https://www.surechembl.org/

> <PUBCHEM_EXT_SUBSTANCE_URL>
https://www.surechembl.org/chemical/SCHEMBL16126408

> <PUBCHEM_CID_ASSOCIATIONS>
117613811  1

> <PUBCHEM_COORDINATE_TYPE>
1
3

$$$$
