310942810
  -OEChem-07211613022D

 80 84  0     1  0  0  0  0  0999 V2000
    9.9202   -1.0923    0.0000 F   0  0  0  0  0  0  0  0  0  0  0  0
    7.9802   -3.7985    0.0000 F   0  0  0  0  0  0  0  0  0  0  0  0
    3.7578    0.4891    0.0000 F   0  0  0  0  0  0  0  0  0  0  0  0
    6.6434   -1.1738    0.0000 O   0  0  0  0  0  0  0  0  0  0  0  0
    5.1924   -2.0052    0.0000 O   0  0  0  0  0  0  0  0  0  0  0  0
   10.6701    1.9890    0.0000 O   0  0  0  0  0  0  0  0  0  0  0  0
    3.0404    2.5595    0.0000 O   0  0  0  0  0  0  0  0  0  0  0  0
    3.7578    3.7985    0.0000 O   0  0  0  0  0  0  0  0  0  0  0  0
   -1.2797    2.5595    0.0000 O   0  0  0  0  0  0  0  0  0  0  0  0
   -3.4480    0.4891    0.0000 O   0  0  0  0  0  0  0  0  0  0  0  0
  -10.6701    0.2608    0.0000 O   0  0  0  0  0  0  0  0  0  0  0  0
   -7.7356    0.2608    0.0000 O   0  0  0  0  0  0  0  0  0  0  0  0
   -5.5837    2.5595    0.0000 O   0  0  0  0  0  0  0  0  0  0  0  0
   -4.1654    0.0652    0.0000 O   0  0  0  0  0  0  0  0  0  0  0  0
    8.0943    0.4076    0.0000 N   0  0  0  0  0  0  0  0  0  0  0  0
    5.9097    0.0652    0.0000 N   0  0  0  0  0  0  0  0  0  0  0  0
    7.4259   -0.7663    0.0000 N   0  0  0  0  0  0  0  0  0  0  0  0
    4.4588    2.5595    0.0000 N   0  0  0  0  0  0  0  0  0  0  0  0
   -9.2192    0.5054    0.0000 N   0  0  0  0  0  0  0  0  0  0  0  0
   -2.7307    1.7281    0.0000 N   0  0  0  0  0  0  0  0  0  0  0  0
   -0.5787    1.3205    0.0000 N   0  0  0  0  0  0  0  0  0  0  0  0
   -4.8990    1.3205    0.0000 N   0  0  0  0  0  0  0  0  0  0  0  0
   -3.4643   -1.1738    0.0000 N   0  0  0  0  0  0  0  0  0  0  0  0
   -4.8990   -1.1738    0.0000 N   0  0  0  0  0  0  0  0  0  0  0  0
    7.3607    0.0815    0.0000 C   0  0  0  0  0  0  0  0  0  0  0  0
    6.6434    0.4891    0.0000 C   0  0  3  0  0  0  0  0  0  0  0  0
    8.2573   -0.9130    0.0000 C   0  0  0  0  0  0  0  0  0  0  0  0
    6.6434    1.3531    0.0000 C   0  0  0  0  0  0  0  0  0  0  0  0
    8.6649   -0.2120    0.0000 C   0  0  0  0  0  0  0  0  0  0  0  0
    8.5834   -1.6629    0.0000 C   0  0  0  0  0  0  0  0  0  0  0  0
    5.8771   -0.7336    0.0000 C   0  0  0  0  0  0  0  0  0  0  0  0
    8.2899    1.2390    0.0000 C   0  0  0  0  0  0  0  0  0  0  0  0
    9.4148   -1.7607    0.0000 C   0  0  0  0  0  0  0  0  0  0  0  0
    5.1924    0.5054    0.0000 C   0  0  0  0  0  0  0  0  0  0  0  0
    8.1269   -2.3476    0.0000 C   0  0  0  0  0  0  0  0  0  0  0  0
    9.0725    1.4998    0.0000 C   0  0  0  0  0  0  0  0  0  0  0  0
    5.9261    1.7607    0.0000 C   0  0  0  0  0  0  0  0  0  0  0  0
    6.6271    2.1683    0.0000 C   0  0  0  0  0  0  0  0  0  0  0  0
    7.3607    1.7607    0.0000 C   0  0  0  0  0  0  0  0  0  0  0  0
    5.1924   -1.1575    0.0000 C   0  0  3  0  0  0  0  0  0  0  0  0
    8.4529   -3.0975    0.0000 C   0  0  0  0  0  0  0  0  0  0  0  0
    9.7572   -2.5269    0.0000 C   0  0  0  0  0  0  0  0  0  0  0  0
    5.1924    1.3205    0.0000 C   0  0  0  0  0  0  0  0  0  0  0  0
    9.2844   -3.1790    0.0000 C   0  0  0  0  0  0  0  0  0  0  0  0
    9.2681    2.2987    0.0000 C   0  0  0  0  0  0  0  0  0  0  0  0
    9.6919    0.9293    0.0000 C   0  0  0  0  0  0  0  0  0  0  0  0
    4.4588    1.7444    0.0000 C   0  0  3  0  0  0  0  0  0  0  0  0
    4.4588   -0.7663    0.0000 C   0  0  0  0  0  0  0  0  0  0  0  0
   10.0506    2.5432    0.0000 C   0  0  0  0  0  0  0  0  0  0  0  0
   10.4745    1.1738    0.0000 C   0  0  0  0  0  0  0  0  0  0  0  0
    3.7741    1.3368    0.0000 C   0  0  0  0  0  0  0  0  0  0  0  0
    3.7414    2.9671    0.0000 C   0  0  0  0  0  0  0  0  0  0  0  0
    2.3068    2.9834    0.0000 C   0  0  0  0  0  0  0  0  0  0  0  0
    1.5895    2.5758    0.0000 C   0  0  0  0  0  0  0  0  0  0  0  0
   -1.9971    1.3368    0.0000 C   0  0  3  0  0  0  0  0  0  0  0  0
    0.1549    1.7444    0.0000 C   0  0  0  0  0  0  0  0  0  0  0  0
   -1.2961    1.7281    0.0000 C   0  0  0  0  0  0  0  0  0  0  0  0
   -4.1817    1.7444    0.0000 C   0  0  3  0  0  0  0  0  0  0  0  0
   -3.4480    1.3531    0.0000 C   0  0  0  0  0  0  0  0  0  0  0  0
   -9.8549    0.0163    0.0000 C   0  0  0  0  0  0  0  0  0  0  0  0
   -8.5508    0.0163    0.0000 C   0  0  0  0  0  0  0  0  0  0  0  0
    1.5895    1.7444    0.0000 C   0  0  0  0  0  0  0  0  0  0  0  0
    0.8722    2.9834    0.0000 C   0  0  0  0  0  0  0  0  0  0  0  0
    0.8885    1.3368    0.0000 C   0  0  0  0  0  0  0  0  0  0  0  0
    0.1712    2.5758    0.0000 C   0  0  0  0  0  0  0  0  0  0  0  0
   -9.6268   -0.7663    0.0000 C   0  0  0  0  0  0  0  0  0  0  0  0
   -8.7953   -0.7825    0.0000 C   0  0  0  0  0  0  0  0  0  0  0  0
   -4.1654    2.6084    0.0000 C   0  0  0  0  0  0  0  0  0  0  0  0
   -9.2029    1.3531    0.0000 C   0  0  0  0  0  0  0  0  0  0  0  0
   -1.9808    0.4891    0.0000 C   0  0  0  0  0  0  0  0  0  0  0  0
   -5.6163    1.7281    0.0000 C   0  0  0  0  0  0  0  0  0  0  0  0
   -8.5018    1.7444    0.0000 C   0  0  0  0  0  0  0  0  0  0  0  0
   -2.7144    0.0815    0.0000 C   0  0  0  0  0  0  0  0  0  0  0  0
   -6.3336    1.3368    0.0000 C   0  0  0  0  0  0  0  0  0  0  0  0
   -4.8990    2.9671    0.0000 C   0  0  0  0  0  0  0  0  0  0  0  0
   -3.4317    2.9671    0.0000 C   0  0  0  0  0  0  0  0  0  0  0  0
   -7.7519    1.3368    0.0000 C   0  0  0  0  0  0  0  0  0  0  0  0
   -7.0509    1.7444    0.0000 C   0  0  0  0  0  0  0  0  0  0  0  0
   -2.7307   -0.7663    0.0000 C   0  0  0  0  0  0  0  0  0  0  0  0
   -4.1817   -0.7825    0.0000 C   0  0  0  0  0  0  0  0  0  0  0  0
  1 33  1  0  0  0  0
  2 41  1  0  0  0  0
  3 51  1  0  0  0  0
  4 31  2  0  0  0  0
 40  5  1  1  0  0  0
  6 49  1  0  0  0  0
  6 50  1  0  0  0  0
  7 52  1  0  0  0  0
  7 53  1  0  0  0  0
  8 52  2  0  0  0  0
  9 57  2  0  0  0  0
 10 59  2  0  0  0  0
 11 60  2  0  0  0  0
 12 61  2  0  0  0  0
 13 71  2  0  0  0  0
 14 80  2  0  0  0  0
 15 25  1  0  0  0  0
 15 29  1  0  0  0  0
 15 32  1  0  0  0  0
 26 16  1  6  0  0  0
 16 31  1  0  0  0  0
 16 34  1  0  0  0  0
 17 25  2  0  0  0  0
 17 27  1  0  0  0  0
 47 18  1  1  0  0  0
 18 52  1  0  0  0  0
 19 60  1  0  0  0  0
 19 61  1  0  0  0  0
 19 69  1  0  0  0  0
 55 20  1  6  0  0  0
 20 59  1  0  0  0  0
 21 56  1  0  0  0  0
 21 57  1  0  0  0  0
 58 22  1  1  0  0  0
 22 71  1  0  0  0  0
 23 79  1  0  0  0  0
 23 80  1  0  0  0  0
 24 80  1  0  0  0  0
 25 26  1  0  0  0  0
 26 28  1  0  0  0  0
 27 29  2  0  0  0  0
 27 30  1  0  0  0  0
 28 37  1  0  0  0  0
 28 38  1  0  0  0  0
 28 39  1  0  0  0  0
 30 33  2  0  0  0  0
 30 35  1  0  0  0  0
 31 40  1  0  0  0  0
 32 36  1  0  0  0  0
 33 42  1  0  0  0  0
 34 43  1  0  0  0  0
 35 41  2  0  0  0  0
 36 45  1  0  0  0  0
 36 46  1  0  0  0  0
 40 48  1  0  0  0  0
 41 44  1  0  0  0  0
 42 44  2  0  0  0  0
 43 47  1  0  0  0  0
 45 49  1  0  0  0  0
 46 50  1  0  0  0  0
 47 51  1  0  0  0  0
 53 54  1  0  0  0  0
 54 62  2  0  0  0  0
 54 63  1  0  0  0  0
 55 57  1  0  0  0  0
 55 70  1  0  0  0  0
 56 64  2  0  0  0  0
 56 65  1  0  0  0  0
 58 59  1  0  0  0  0
 58 68  1  0  0  0  0
 60 66  1  0  0  0  0
 61 67  1  0  0  0  0
 62 64  1  0  0  0  0
 63 65  2  0  0  0  0
 66 67  2  0  0  0  0
 68 75  1  0  0  0  0
 68 76  1  0  0  0  0
 69 72  1  0  0  0  0
 70 73  1  0  0  0  0
 71 74  1  0  0  0  0
 72 77  1  0  0  0  0
 73 79  1  0  0  0  0
 74 78  1  0  0  0  0
 77 78  1  0  0  0  0
M  END
> <PUBCHEM_COMPOUND_ID_TYPE>
0

> <PUBCHEM_TOTAL_CHARGE>
0

> <PUBCHEM_SUBSTANCE_ID>
310942810

> <PUBCHEM_SUBSTANCE_VERSION>
1

> <PUBCHEM_EXT_DATASOURCE_NAME>
4488

> <PUBCHEM_EXT_DATASOURCE_REGID>
SCHEMBL16120864

> <PUBCHEM_SUBSTANCE_COMMENT>
InChI=1S/C56H77F3N10O11/c1-34(2)48(66-45(71)12-8-7-9-25-68-46(72)19-20-47(68)73)52(75)65-43(11-10-24-61-54(60)77)51(74)62-39-16-13-37(14-17-39)33-80-55(78)63-40(30-57)21-26-69(53(76)35(3)70)49(56(4,5)6)50-64-44(41-29-38(58)15-18-42(41)59)32-67(50)31-36-22-27-79-28-23-36/h13-20,29,32,34-36,40,43,48-49,70H,7-12,21-28,30-31,33H2,1-6H3,(H,62,74)(H,63,78)(H,65,75)(H,66,71)(H3,60,61,77)/t35-,40-,43-,48-,49-/m0/s1
InChIKey=DQZYGLJAGNVJPO-KBVKWLMBSA-N

> <PUBCHEM_SUBSTANCE_SYNONYM>
SCHEMBL16120864

> <PUBCHEM_XREF_EXT_ID>
SCHEMBL16120864

> <PUBCHEM_EXT_DATASOURCE_URL>
https://www.surechembl.org/

> <PUBCHEM_EXT_SUBSTANCE_URL>
https://www.surechembl.org/chemical/SCHEMBL16120864

> <PUBCHEM_CID_ASSOCIATIONS>
117609313  1

> <PUBCHEM_COORDINATE_TYPE>
1
3

> <PUBCHEM_BONDANNOTATIONS>
26  16  6
47  18  5
55  20  6
58  22  5
40  5  5

$$$$
