310944894
  -OEChem-07211613022D

 16 17  0     0  0  0  0  0  0999 V2000
   -2.9288    0.3871    0.0000 N   0  0  0  0  0  0  0  0  0  0  0  0
   -2.9288   -0.5050    0.0000 N   0  0  0  0  0  0  0  0  0  0  0  0
   -1.6833   -0.0673    0.0000 C   0  0  0  0  0  0  0  0  0  0  0  0
   -0.8585   -0.0673    0.0000 C   0  0  0  0  0  0  0  0  0  0  0  0
   -2.1377    0.6059    0.0000 C   0  0  0  0  0  0  0  0  0  0  0  0
   -2.1545   -0.7911    0.0000 C   0  0  0  0  0  0  0  0  0  0  0  0
   -0.4545    0.6564    0.0000 C   0  0  0  0  0  0  0  0  0  0  0  0
   -0.4545   -0.8416    0.0000 C   0  0  0  0  0  0  0  0  0  0  0  0
    0.7574   -0.0673    0.0000 C   0  0  0  0  0  0  0  0  0  0  0  0
    0.3535    0.6564    0.0000 C   0  0  0  0  0  0  0  0  0  0  0  0
    0.3535   -0.8416    0.0000 C   0  0  0  0  0  0  0  0  0  0  0  0
    1.5654   -0.1010    0.0000 C   0  0  0  0  0  0  0  0  0  0  0  0
   -3.5853    0.8416    0.0000 C   0  0  0  0  0  0  0  0  0  0  0  0
    2.3902   -0.0842    0.0000 C   0  0  0  0  0  0  0  0  0  0  0  0
    3.1981   -0.0842    0.0000 C   0  0  0  0  0  0  0  0  0  0  0  0
    3.5853    0.6900    0.0000 C   0  0  0  0  0  0  0  0  0  0  0  0
  1  2  1  0  0  0  0
  1  5  1  0  0  0  0
  1 13  1  0  0  0  0
  2  6  2  0  0  0  0
  3  4  1  0  0  0  0
  3  5  2  0  0  0  0
  3  6  1  0  0  0  0
  4  7  2  0  0  0  0
  4  8  1  0  0  0  0
  7 10  1  0  0  0  0
  8 11  2  0  0  0  0
  9 10  2  0  0  0  0
  9 11  1  0  0  0  0
  9 12  1  0  0  0  0
 12 14  3  0  0  0  0
 14 15  1  0  0  0  0
 15 16  1  0  0  0  0
M  END
> <PUBCHEM_COMPOUND_ID_TYPE>
0

> <PUBCHEM_TOTAL_CHARGE>
0

> <PUBCHEM_SUBSTANCE_ID>
310944894

> <PUBCHEM_SUBSTANCE_VERSION>
1

> <PUBCHEM_EXT_DATASOURCE_NAME>
4488

> <PUBCHEM_EXT_DATASOURCE_REGID>
SCHEMBL16122978

> <PUBCHEM_SUBSTANCE_COMMENT>
InChI=1S/C14H14N2/c1-3-4-5-12-6-8-13(9-7-12)14-10-15-16(2)11-14/h6-11H,3H2,1-2H3
InChIKey=KSVPTOBKEYOMJR-UHFFFAOYSA-N

> <PUBCHEM_SUBSTANCE_SYNONYM>
SCHEMBL16122978

> <PUBCHEM_XREF_EXT_ID>
SCHEMBL16122978

> <PUBCHEM_EXT_DATASOURCE_URL>
https://www.surechembl.org/

> <PUBCHEM_EXT_SUBSTANCE_URL>
https://www.surechembl.org/chemical/SCHEMBL16122978

> <PUBCHEM_CID_ASSOCIATIONS>
117611076  1

> <PUBCHEM_COORDINATE_TYPE>
1
3

$$$$
