310945462
  -OEChem-07211613022D

 31 34  0     0  0  0  0  0  0999 V2000
    0.7489    1.6304    0.0000 F   0  0  0  0  0  0  0  0  0  0  0  0
    1.5262    2.5405    0.0000 F   0  0  0  0  0  0  0  0  0  0  0  0
    2.3035    1.6304    0.0000 F   0  0  0  0  0  0  0  0  0  0  0  0
   -3.4410   -1.1565    0.0000 F   0  0  0  0  0  0  0  0  0  0  0  0
   -4.1994   -0.2275    0.0000 F   0  0  0  0  0  0  0  0  0  0  0  0
   -3.4220    0.7015    0.0000 F   0  0  0  0  0  0  0  0  0  0  0  0
    3.5358    0.2465    0.0000 O   0  0  0  0  0  0  0  0  0  0  0  0
    0.0853    0.5308    0.0000 N   0  0  0  0  0  0  0  0  0  0  0  0
    0.0853   -0.9669    0.0000 N   0  0  0  0  0  0  0  0  0  0  0  0
    2.1897    0.2465    0.0000 N   0  0  0  0  0  0  0  0  0  0  0  0
    1.5072   -1.1375    0.0000 N   0  0  0  0  0  0  0  0  0  0  0  0
   -2.2845   -1.0238    0.0000 N   0  0  0  0  0  0  0  0  0  0  0  0
    0.8437    0.2085    0.0000 C   0  0  0  0  0  0  0  0  0  0  0  0
    1.5072    0.6825    0.0000 C   0  0  0  0  0  0  0  0  0  0  0  0
    0.8057   -0.7015    0.0000 C   0  0  0  0  0  0  0  0  0  0  0  0
   -0.3507   -0.2654    0.0000 C   0  0  0  0  0  0  0  0  0  0  0  0
    2.1897   -0.7015    0.0000 C   0  0  0  0  0  0  0  0  0  0  0  0
    1.5262    1.5925    0.0000 C   0  0  0  0  0  0  0  0  0  0  0  0
   -1.1280   -0.2275    0.0000 C   0  0  0  0  0  0  0  0  0  0  0  0
    2.8722   -1.1944    0.0000 C   0  0  0  0  0  0  0  0  0  0  0  0
    3.5168   -0.7204    0.0000 C   0  0  0  0  0  0  0  0  0  0  0  0
   -1.5072   -1.0617    0.0000 C   0  0  0  0  0  0  0  0  0  0  0  0
   -1.4883    0.5308    0.0000 C   0  0  0  0  0  0  0  0  0  0  0  0
   -2.6637   -0.2654    0.0000 C   0  0  0  0  0  0  0  0  0  0  0  0
    2.8722   -2.1044    0.0000 C   0  0  0  0  0  0  0  0  0  0  0  0
   -2.2656    0.5498    0.0000 C   0  0  0  0  0  0  0  0  0  0  0  0
   -3.4410   -0.2654    0.0000 C   0  0  0  0  0  0  0  0  0  0  0  0
    4.1804   -1.1754    0.0000 C   0  0  0  0  0  0  0  0  0  0  0  0
    3.5358   -2.5405    0.0000 C   0  0  0  0  0  0  0  0  0  0  0  0
    4.1804   -2.1044    0.0000 C   0  0  0  0  0  0  0  0  0  0  0  0
    4.1994    0.7015    0.0000 C   0  0  0  0  0  0  0  0  0  0  0  0
  1 18  1  0  0  0  0
  2 18  1  0  0  0  0
  3 18  1  0  0  0  0
  4 27  1  0  0  0  0
  5 27  1  0  0  0  0
  6 27  1  0  0  0  0
  7 21  1  0  0  0  0
  7 31  1  0  0  0  0
  8 13  1  0  0  0  0
  8 16  2  0  0  0  0
  9 15  1  0  0  0  0
  9 16  1  0  0  0  0
 10 14  2  0  0  0  0
 10 17  1  0  0  0  0
 11 15  1  0  0  0  0
 11 17  2  0  0  0  0
 12 22  2  0  0  0  0
 12 24  1  0  0  0  0
 13 14  1  0  0  0  0
 13 15  2  0  0  0  0
 14 18  1  0  0  0  0
 16 19  1  0  0  0  0
 17 20  1  0  0  0  0
 19 22  1  0  0  0  0
 19 23  2  0  0  0  0
 20 21  1  0  0  0  0
 20 25  2  0  0  0  0
 21 28  2  0  0  0  0
 23 26  1  0  0  0  0
 24 26  2  0  0  0  0
 24 27  1  0  0  0  0
 25 29  1  0  0  0  0
 28 30  1  0  0  0  0
 29 30  2  0  0  0  0
M  END
> <PUBCHEM_COMPOUND_ID_TYPE>
0

> <PUBCHEM_TOTAL_CHARGE>
0

> <PUBCHEM_SUBSTANCE_ID>
310945462

> <PUBCHEM_SUBSTANCE_VERSION>
1

> <PUBCHEM_EXT_DATASOURCE_NAME>
4488

> <PUBCHEM_EXT_DATASOURCE_REGID>
SCHEMBL16123560

> <PUBCHEM_SUBSTANCE_COMMENT>
InChI=1S/C19H11F6N5O/c1-31-11-5-3-2-4-10(11)16-28-14(19(23,24)25)13-17(30-16)29-15(27-13)9-6-7-12(26-8-9)18(20,21)22/h2-8H,1H3,(H,27,28,29,30)
InChIKey=CSTNJEDBLADYOB-UHFFFAOYSA-N

> <PUBCHEM_SUBSTANCE_SYNONYM>
SCHEMBL16123560

> <PUBCHEM_XREF_EXT_ID>
SCHEMBL16123560

> <PUBCHEM_EXT_DATASOURCE_URL>
https://www.surechembl.org/

> <PUBCHEM_EXT_SUBSTANCE_URL>
https://www.surechembl.org/chemical/SCHEMBL16123560

> <PUBCHEM_CID_ASSOCIATIONS>
117611507  1

> <PUBCHEM_COORDINATE_TYPE>
1
3

$$$$
