310941667
  -OEChem-07211613022D

 13 13  0     0  0  0  0  0  0999 V2000
    0.9998   -0.9908    0.0000 S   0  0  0  0  0  0  0  0  0  0  0  0
   -1.0899    1.0629    0.0000 O   0  0  0  0  0  0  0  0  0  0  0  0
    0.3693    0.2522    0.0000 N   0  0  0  0  0  0  0  0  0  0  0  0
    1.7745    0.2522    0.0000 N   0  0  0  0  0  0  0  0  0  0  0  0
   -0.3513   -0.1801    0.0000 C   0  0  0  0  0  0  0  0  0  0  0  0
   -1.0899    0.2162    0.0000 C   0  0  0  0  0  0  0  0  0  0  0  0
   -0.3693   -1.0088    0.0000 C   0  0  0  0  0  0  0  0  0  0  0  0
   -1.7385   -0.1621    0.0000 C   0  0  0  0  0  0  0  0  0  0  0  0
   -1.0719   -1.3872    0.0000 C   0  0  0  0  0  0  0  0  0  0  0  0
    1.0359   -0.1442    0.0000 C   0  0  0  0  0  0  0  0  0  0  0  0
   -1.7385   -1.0088    0.0000 C   0  0  0  0  0  0  0  0  0  0  0  0
    0.3333   -1.4412    0.0000 C   0  0  0  0  0  0  0  0  0  0  0  0
   -1.7745    1.4412    0.0000 C   0  0  0  0  0  0  0  0  0  0  0  0
  1 10  2  0  0  0  0
  2  6  1  0  0  0  0
  2 13  1  0  0  0  0
  3  5  1  0  0  0  0
  3 10  1  0  0  0  0
  4 10  1  0  0  0  0
  5  6  2  0  0  0  0
  5  7  1  0  0  0  0
  6  8  1  0  0  0  0
  7  9  2  0  0  0  0
  7 12  1  0  0  0  0
  8 11  2  0  0  0  0
  9 11  1  0  0  0  0
M  END
> <PUBCHEM_COMPOUND_ID_TYPE>
0

> <PUBCHEM_TOTAL_CHARGE>
0

> <PUBCHEM_SUBSTANCE_ID>
310941667

> <PUBCHEM_SUBSTANCE_VERSION>
1

> <PUBCHEM_EXT_DATASOURCE_NAME>
4488

> <PUBCHEM_EXT_DATASOURCE_REGID>
SCHEMBL16119698

> <PUBCHEM_SUBSTANCE_COMMENT>
InChI=1S/C9H12N2OS/c1-6-4-3-5-7(12-2)8(6)11-9(10)13/h3-5H,1-2H3,(H3,10,11,13)
InChIKey=LJHUMPLYBYPXTD-UHFFFAOYSA-N

> <PUBCHEM_SUBSTANCE_SYNONYM>
SCHEMBL16119698

> <PUBCHEM_XREF_EXT_ID>
SCHEMBL16119698

> <PUBCHEM_EXT_DATASOURCE_URL>
https://www.surechembl.org/

> <PUBCHEM_EXT_SUBSTANCE_URL>
https://www.surechembl.org/chemical/SCHEMBL16119698

> <PUBCHEM_CID_ASSOCIATIONS>
117608449  1

> <PUBCHEM_COORDINATE_TYPE>
1
3

$$$$
