310932953
  -OEChem-07211613022D

 19 21  0     0  0  0  0  0  0999 V2000
    2.7148   -3.8783    0.0000 I   0  0  0  0  0  0  0  0  0  0  0  0
    0.4266   -0.3878    0.0000 O   0  0  0  0  0  0  0  0  0  0  0  0
    5.5654   -2.2300    0.0000 O   0  0  0  0  0  0  0  0  0  0  0  0
    4.2468   -2.8894    0.0000 N   0  0  0  0  0  0  0  0  0  0  0  0
    4.2468   -1.5707    0.0000 N   0  0  0  0  0  0  0  0  0  0  0  0
    0.0000   -1.1053    0.0000 N   0  0  0  0  0  0  0  0  0  0  0  0
    3.4517   -2.6566    0.0000 C   0  0  0  0  0  0  0  0  0  0  0  0
    3.4517   -1.8034    0.0000 C   0  0  0  0  0  0  0  0  0  0  0  0
    2.0361   -1.8034    0.0000 C   0  0  0  0  0  0  0  0  0  0  0  0
    1.3187   -1.3768    0.0000 C   0  0  0  0  0  0  0  0  0  0  0  0
    2.7342   -3.0639    0.0000 C   0  0  0  0  0  0  0  0  0  0  0  0
    2.7342   -1.3962    0.0000 C   0  0  0  0  0  0  0  0  0  0  0  0
    4.7509   -2.2300    0.0000 C   0  0  0  0  0  0  0  0  0  0  0  0
    2.0361   -2.6566    0.0000 C   0  0  0  0  0  0  0  0  0  0  0  0
    1.2217   -0.5624    0.0000 C   0  0  0  0  0  0  0  0  0  0  0  0
    0.5624   -1.7065    0.0000 C   0  0  0  0  0  0  0  0  0  0  0  0
    4.4989   -3.6844    0.0000 C   0  0  0  0  0  0  0  0  0  0  0  0
    1.8422    0.0000    0.0000 C   0  0  0  0  0  0  0  0  0  0  0  0
    0.3878   -2.5209    0.0000 C   0  0  0  0  0  0  0  0  0  0  0  0
  1 11  1  0  0  0  0
  2  6  1  0  0  0  0
  2 15  1  0  0  0  0
  3 13  2  0  0  0  0
  4  7  1  0  0  0  0
  4 13  1  0  0  0  0
  4 17  1  0  0  0  0
  5  8  1  0  0  0  0
  5 13  1  0  0  0  0
  6 16  2  0  0  0  0
  7  8  2  0  0  0  0
  7 11  1  0  0  0  0
  8 12  1  0  0  0  0
  9 10  1  0  0  0  0
  9 12  2  0  0  0  0
  9 14  1  0  0  0  0
 10 15  2  0  0  0  0
 10 16  1  0  0  0  0
 11 14  2  0  0  0  0
 15 18  1  0  0  0  0
 16 19  1  0  0  0  0
M  END
> <PUBCHEM_COMPOUND_ID_TYPE>
0

> <PUBCHEM_TOTAL_CHARGE>
0

> <PUBCHEM_SUBSTANCE_ID>
310932953

> <PUBCHEM_SUBSTANCE_VERSION>
1

> <PUBCHEM_EXT_DATASOURCE_NAME>
4488

> <PUBCHEM_EXT_DATASOURCE_REGID>
SCHEMBL16110349

> <PUBCHEM_SUBSTANCE_COMMENT>
InChI=1S/C13H12IN3O2/c1-6-11(7(2)19-16-6)8-4-9(14)12-10(5-8)15-13(18)17(12)3/h4-5H,1-3H3,(H,15,18)
InChIKey=JBASLVFAGSTZOD-UHFFFAOYSA-N

> <PUBCHEM_SUBSTANCE_SYNONYM>
SCHEMBL16110349

> <PUBCHEM_XREF_EXT_ID>
SCHEMBL16110349

> <PUBCHEM_EXT_DATASOURCE_URL>
https://www.surechembl.org/

> <PUBCHEM_EXT_SUBSTANCE_URL>
https://www.surechembl.org/chemical/SCHEMBL16110349

> <PUBCHEM_CID_ASSOCIATIONS>
117601430  1

> <PUBCHEM_COORDINATE_TYPE>
1
3

$$$$
