310933969
  -OEChem-07211613022D

 65 73  0     0  0  0  0  0  0999 V2000
    9.4486    1.2264    0.0000 Br  0  0  0  0  0  0  0  0  0  0  0  0
    3.4538   -1.4556    0.0000 S   0  0  0  0  0  0  0  0  0  0  0  0
    1.6077    1.4045    0.0000 S   0  0  0  0  0  0  0  0  0  0  0  0
    5.8542    0.9582    0.0000 S   0  0  0  0  0  0  0  0  0  0  0  0
   -0.6193    1.6135    0.0000 S   0  0  0  0  0  0  0  0  0  0  0  0
    8.0760    0.6996    0.0000 S   0  0  0  0  0  0  0  0  0  0  0  0
    4.1683   -1.0431    0.0000 N   0  0  0  0  0  0  0  0  0  0  0  0
    2.8407   -0.9036    0.0000 N   0  0  0  0  0  0  0  0  0  0  0  0
   -4.3139    2.6729    0.0000 N   0  0  0  0  0  0  0  0  0  0  0  0
    3.9968   -0.2361    0.0000 C   0  0  0  0  0  0  0  0  0  0  0  0
    3.1762   -0.1499    0.0000 C   0  0  0  0  0  0  0  0  0  0  0  0
    4.4817    0.4314    0.0000 C   0  0  0  0  0  0  0  0  0  0  0  0
    2.8407    0.6038    0.0000 C   0  0  0  0  0  0  0  0  0  0  0  0
    5.3022    0.3451    0.0000 C   0  0  0  0  0  0  0  0  0  0  0  0
    2.0202    0.6901    0.0000 C   0  0  0  0  0  0  0  0  0  0  0  0
    4.1461    1.1850    0.0000 C   0  0  0  0  0  0  0  0  0  0  0  0
    3.3256    1.2713    0.0000 C   0  0  0  0  0  0  0  0  0  0  0  0
    4.9220   -1.3787    0.0000 C   0  0  0  0  0  0  0  0  0  0  0  0
    0.8007    1.2330    0.0000 C   0  0  0  0  0  0  0  0  0  0  0  0
    6.6079    0.6226    0.0000 C   0  0  0  0  0  0  0  0  0  0  0  0
    0.7145    0.4125    0.0000 C   0  0  0  0  0  0  0  0  0  0  0  0
    5.7147   -0.3694    0.0000 C   0  0  0  0  0  0  0  0  0  0  0  0
    1.4682    0.0770    0.0000 C   0  0  0  0  0  0  0  0  0  0  0  0
    6.5217   -0.1978    0.0000 C   0  0  0  0  0  0  0  0  0  0  0  0
    0.1876    1.7850    0.0000 C   0  0  0  0  0  0  0  0  0  0  0  0
    7.3224    1.0352    0.0000 C   0  0  0  0  0  0  0  0  0  0  0  0
    5.0082   -2.1991    0.0000 C   0  0  0  0  0  0  0  0  0  0  0  0
    5.5894   -0.8937    0.0000 C   0  0  0  0  0  0  0  0  0  0  0  0
    0.0000    0.0000    0.0000 C   0  0  0  0  0  0  0  0  0  0  0  0
    7.1348   -0.7499    0.0000 C   0  0  0  0  0  0  0  0  0  0  0  0
    0.2738    2.6055    0.0000 C   0  0  0  0  0  0  0  0  0  0  0  0
   -1.0319    2.3280    0.0000 C   0  0  0  0  0  0  0  0  0  0  0  0
    7.4086    1.8556    0.0000 C   0  0  0  0  0  0  0  0  0  0  0  0
   -0.4799    2.9411    0.0000 C   0  0  0  0  0  0  0  0  0  0  0  0
    5.7619   -2.5347    0.0000 C   0  0  0  0  0  0  0  0  0  0  0  0
    6.3431   -1.2293    0.0000 C   0  0  0  0  0  0  0  0  0  0  0  0
    8.6281    1.3127    0.0000 C   0  0  0  0  0  0  0  0  0  0  0  0
   -1.8524    2.4142    0.0000 C   0  0  0  0  0  0  0  0  0  0  0  0
    8.2156    2.0272    0.0000 C   0  0  0  0  0  0  0  0  0  0  0  0
    6.4293   -2.0498    0.0000 C   0  0  0  0  0  0  0  0  0  0  0  0
   -0.7145    0.4125    0.0000 C   0  0  0  0  0  0  0  0  0  0  0  0
    7.9194   -0.4949    0.0000 C   0  0  0  0  0  0  0  0  0  0  0  0
   -2.3373    1.7468    0.0000 C   0  0  0  0  0  0  0  0  0  0  0  0
   -2.1879    3.1679    0.0000 C   0  0  0  0  0  0  0  0  0  0  0  0
   -1.4290    0.0000    0.0000 C   0  0  0  0  0  0  0  0  0  0  0  0
    8.5027   -1.0783    0.0000 C   0  0  0  0  0  0  0  0  0  0  0  0
   -3.4933    2.5867    0.0000 C   0  0  0  0  0  0  0  0  0  0  0  0
   -3.1578    1.8330    0.0000 C   0  0  0  0  0  0  0  0  0  0  0  0
   -3.0084    3.2541    0.0000 C   0  0  0  0  0  0  0  0  0  0  0  0
   -2.1434    0.4125    0.0000 C   0  0  0  0  0  0  0  0  0  0  0  0
    9.2996   -0.8648    0.0000 C   0  0  0  0  0  0  0  0  0  0  0  0
   -4.6494    3.4266    0.0000 C   0  0  0  0  0  0  0  0  0  0  0  0
   -2.8579    0.0000    0.0000 C   0  0  0  0  0  0  0  0  0  0  0  0
    9.8830   -1.4482    0.0000 C   0  0  0  0  0  0  0  0  0  0  0  0
   -4.1645    4.0941    0.0000 C   0  0  0  0  0  0  0  0  0  0  0  0
   -5.4699    3.5128    0.0000 C   0  0  0  0  0  0  0  0  0  0  0  0
   -4.5000    4.8478    0.0000 C   0  0  0  0  0  0  0  0  0  0  0  0
   -5.8055    4.2665    0.0000 C   0  0  0  0  0  0  0  0  0  0  0  0
   -3.5724    0.4125    0.0000 C   0  0  0  0  0  0  0  0  0  0  0  0
   10.6799   -1.2346    0.0000 C   0  0  0  0  0  0  0  0  0  0  0  0
   -5.3206    4.9340    0.0000 C   0  0  0  0  0  0  0  0  0  0  0  0
   -4.2869    0.0000    0.0000 C   0  0  0  0  0  0  0  0  0  0  0  0
   11.2633   -1.8180    0.0000 C   0  0  0  0  0  0  0  0  0  0  0  0
   -5.0013    0.4125    0.0000 C   0  0  0  0  0  0  0  0  0  0  0  0
   12.0602   -1.6045    0.0000 C   0  0  0  0  0  0  0  0  0  0  0  0
  1 37  1  0  0  0  0
  2  7  1  0  0  0  0
  2  8  1  0  0  0  0
  3 15  1  0  0  0  0
  3 19  1  0  0  0  0
  4 14  1  0  0  0  0
  4 20  1  0  0  0  0
  5 25  1  0  0  0  0
  5 32  1  0  0  0  0
  6 26  1  0  0  0  0
  6 37  1  0  0  0  0
  7 10  1  0  0  0  0
  7 18  1  0  0  0  0
  8 11  1  0  0  0  0
  9 47  1  0  0  0  0
  9 52  1  0  0  0  0
 10 11  1  0  0  0  0
 10 12  2  0  0  0  0
 11 13  2  0  0  0  0
 12 14  1  0  0  0  0
 12 16  1  0  0  0  0
 13 15  1  0  0  0  0
 13 17  1  0  0  0  0
 14 22  2  0  0  0  0
 15 23  2  0  0  0  0
 16 17  2  0  0  0  0
 18 27  2  0  0  0  0
 18 28  1  0  0  0  0
 19 21  2  0  0  0  0
 19 25  1  0  0  0  0
 20 24  2  0  0  0  0
 20 26  1  0  0  0  0
 21 23  1  0  0  0  0
 21 29  1  0  0  0  0
 22 24  1  0  0  0  0
 24 30  1  0  0  0  0
 25 31  2  0  0  0  0
 26 33  2  0  0  0  0
 27 35  1  0  0  0  0
 28 36  2  0  0  0  0
 29 41  1  0  0  0  0
 30 42  1  0  0  0  0
 31 34  1  0  0  0  0
 32 34  2  0  0  0  0
 32 38  1  0  0  0  0
 33 39  1  0  0  0  0
 35 40  2  0  0  0  0
 36 40  1  0  0  0  0
 37 39  2  0  0  0  0
 38 43  2  0  0  0  0
 38 44  1  0  0  0  0
 41 45  1  0  0  0  0
 42 46  1  0  0  0  0
 43 48  1  0  0  0  0
 44 49  2  0  0  0  0
 45 50  1  0  0  0  0
 46 51  1  0  0  0  0
 47 48  2  0  0  0  0
 47 49  1  0  0  0  0
 50 53  1  0  0  0  0
 51 54  1  0  0  0  0
 52 55  2  0  0  0  0
 52 56  1  0  0  0  0
 53 59  1  0  0  0  0
 54 60  1  0  0  0  0
 55 57  1  0  0  0  0
 56 58  2  0  0  0  0
 57 61  2  0  0  0  0
 58 61  1  0  0  0  0
 59 62  1  0  0  0  0
 60 63  1  0  0  0  0
 62 64  1  0  0  0  0
 63 65  1  0  0  0  0
M  END
> <PUBCHEM_COMPOUND_ID_TYPE>
0

> <PUBCHEM_TOTAL_CHARGE>
0

> <PUBCHEM_SUBSTANCE_ID>
310933969

> <PUBCHEM_SUBSTANCE_VERSION>
1

> <PUBCHEM_EXT_DATASOURCE_NAME>
4488

> <PUBCHEM_EXT_DATASOURCE_REGID>
SCHEMBL16111409

> <PUBCHEM_SUBSTANCE_COMMENT>
InChI=1S/C56H58BrN3S5/c1-3-5-7-9-11-15-21-40-37-50(63-55(40)48-34-33-47(61-48)39-27-29-43(30-28-39)58-42-23-17-13-18-24-42)45-31-32-46(54-53(45)59-65-60(54)44-25-19-14-20-26-44)51-38-41(22-16-12-10-8-6-4-2)56(64-51)49-35-36-52(57)62-49/h13-14,17-20,23-38,58-59H,3-12,15-16,21-22H2,1-2H3
InChIKey=JYUZTOXHQMQEBX-UHFFFAOYSA-N

> <PUBCHEM_SUBSTANCE_SYNONYM>
SCHEMBL16111409

> <PUBCHEM_XREF_EXT_ID>
SCHEMBL16111409

> <PUBCHEM_EXT_DATASOURCE_URL>
https://www.surechembl.org/

> <PUBCHEM_EXT_SUBSTANCE_URL>
https://www.surechembl.org/chemical/SCHEMBL16111409

> <PUBCHEM_CID_ASSOCIATIONS>
117602285  1

> <PUBCHEM_COORDINATE_TYPE>
1
3

$$$$
