310934218
  -OEChem-07211613022D

 16 17  0     0  0  0  0  0  0999 V2000
    0.0000   -2.5209    0.0000 O   0  0  0  0  0  0  0  0  0  0  0  0
    5.1000   -1.2217    0.0000 O   0  0  0  0  0  0  0  0  0  0  0  0
    4.3825    0.0000    0.0000 O   0  0  0  0  0  0  0  0  0  0  0  0
    2.2688   -1.2217    0.0000 C   0  0  0  0  0  0  0  0  0  0  0  0
    0.6981   -2.1137    0.0000 C   0  0  0  0  0  0  0  0  0  0  0  0
    2.2688   -2.1331    0.0000 C   0  0  0  0  0  0  0  0  0  0  0  0
    1.4738   -0.7757    0.0000 C   0  0  0  0  0  0  0  0  0  0  0  0
    1.9004   -1.8228    0.0000 C   0  0  0  0  0  0  0  0  0  0  0  0
    1.4738   -2.5597    0.0000 C   0  0  0  0  0  0  0  0  0  0  0  0
    0.6981   -1.2217    0.0000 C   0  0  0  0  0  0  0  0  0  0  0  0
    1.3768   -2.1137    0.0000 C   0  0  0  0  0  0  0  0  0  0  0  0
    2.9669   -0.8144    0.0000 C   0  0  0  0  0  0  0  0  0  0  0  0
    3.6844   -1.2217    0.0000 C   0  0  0  0  0  0  0  0  0  0  0  0
    4.3825   -0.8144    0.0000 C   0  0  0  0  0  0  0  0  0  0  0  0
    0.0000   -3.3548    0.0000 C   0  0  0  0  0  0  0  0  0  0  0  0
    5.8175   -0.8144    0.0000 C   0  0  0  0  0  0  0  0  0  0  0  0
  1  5  1  0  0  0  0
  1 15  1  0  0  0  0
  2 14  1  0  0  0  0
  2 16  1  0  0  0  0
  3 14  2  0  0  0  0
  4  6  1  0  0  0  0
  4  7  1  0  0  0  0
  4  8  1  0  0  0  0
  4 12  1  0  0  0  0
  5  9  1  0  0  0  0
  5 10  1  0  0  0  0
  5 11  1  0  0  0  0
  6  9  1  0  0  0  0
  7 10  1  0  0  0  0
  8 11  1  0  0  0  0
 12 13  2  0  0  0  0
 13 14  1  0  0  0  0
M  END
> <PUBCHEM_COMPOUND_ID_TYPE>
0

> <PUBCHEM_TOTAL_CHARGE>
0

> <PUBCHEM_SUBSTANCE_ID>
310934218

> <PUBCHEM_SUBSTANCE_VERSION>
1

> <PUBCHEM_EXT_DATASOURCE_NAME>
4488

> <PUBCHEM_EXT_DATASOURCE_REGID>
SCHEMBL16111673

> <PUBCHEM_SUBSTANCE_COMMENT>
InChI=1S/C13H20O3/c1-15-11(14)3-4-12-5-8-13(16-2,9-6-12)10-7-12/h3-4H,5-10H2,1-2H3/b4-3+
InChIKey=ZQBABQUTHWATLC-ONEGZZNKSA-N

> <PUBCHEM_SUBSTANCE_SYNONYM>
SCHEMBL16111673

> <PUBCHEM_XREF_EXT_ID>
SCHEMBL16111673

> <PUBCHEM_EXT_DATASOURCE_URL>
https://www.surechembl.org/

> <PUBCHEM_EXT_SUBSTANCE_URL>
https://www.surechembl.org/chemical/SCHEMBL16111673

> <PUBCHEM_CID_ASSOCIATIONS>
117602481  1

> <PUBCHEM_COORDINATE_TYPE>
1
3

$$$$
