310931348
  -OEChem-07211613022D

 53 59  0     1  0  0  0  0  0999 V2000
    1.5477    0.0000    0.0000 F   0  0  0  0  0  0  0  0  0  0  0  0
    0.7530   -0.2092    0.0000 F   0  0  0  0  0  0  0  0  0  0  0  0
    0.5438   -3.1372    0.0000 F   0  0  0  0  0  0  0  0  0  0  0  0
    0.0000   -2.5098    0.0000 F   0  0  0  0  0  0  0  0  0  0  0  0
    3.9738   -0.8366    0.0000 F   0  0  0  0  0  0  0  0  0  0  0  0
    2.8444    0.0000    0.0000 F   0  0  0  0  0  0  0  0  0  0  0  0
    6.5255   -5.9399    0.0000 F   0  0  0  0  0  0  0  0  0  0  0  0
    7.9477   -3.4719    0.0000 F   0  0  0  0  0  0  0  0  0  0  0  0
    3.0117   -4.7268    0.0000 O   0  0  0  0  0  0  0  0  0  0  0  0
    8.2405   -5.8144    0.0000 O   0  0  0  0  0  0  0  0  0  0  0  0
    2.2170   -8.3660    0.0000 O   0  0  0  0  0  0  0  0  0  0  0  0
    2.3006   -2.6771    0.0000 N   0  0  0  0  0  0  0  0  0  0  0  0
    2.9699   -2.1752    0.0000 N   0  0  0  0  0  0  0  0  0  0  0  0
    3.6810   -3.4719    0.0000 N   0  0  0  0  0  0  0  0  0  0  0  0
    3.7228   -5.1451    0.0000 N   0  0  0  0  0  0  0  0  0  0  0  0
    8.4914   -4.3503    0.0000 N   0  0  0  0  0  0  0  0  0  0  0  0
    1.5896   -7.1529    0.0000 N   0  0  0  0  0  0  0  0  0  0  0  0
    1.8824   -1.3804    0.0000 C   0  0  0  0  0  0  0  0  0  0  0  0
    1.5896   -2.2170    0.0000 C   0  0  0  0  0  0  0  0  0  0  0  0
    1.2968   -0.7948    0.0000 C   0  0  0  0  0  0  0  0  0  0  0  0
    0.7948   -2.3425    0.0000 C   0  0  0  0  0  0  0  0  0  0  0  0
    2.6771   -1.4222    0.0000 C   0  0  0  0  0  0  0  0  0  0  0  0
    0.5438   -0.9621    0.0000 C   0  0  0  0  0  0  0  0  0  0  0  0
    0.2928   -1.7569    0.0000 C   0  0  0  0  0  0  0  0  0  0  0  0
    3.1790   -0.7530    0.0000 C   0  0  0  0  0  0  0  0  0  0  0  0
    2.3006   -3.4719    0.0000 C   0  0  0  0  0  0  0  0  0  0  0  0
    3.0117   -3.8902    0.0000 C   0  0  0  0  0  0  0  0  0  0  0  0
    4.3921   -4.7268    0.0000 C   0  0  0  0  0  0  0  0  0  0  0  0
    4.3921   -3.8902    0.0000 C   0  0  3  0  0  0  0  0  0  0  0  0
    5.1033   -5.1451    0.0000 C   0  0  0  0  0  0  0  0  0  0  0  0
    5.9817   -4.8941    0.0000 C   0  0  0  0  0  0  0  0  0  0  0  0
    7.4039   -4.9359    0.0000 C   0  0  0  0  0  0  0  0  0  0  0  0
    3.7228   -5.9399    0.0000 C   0  0  0  0  0  0  0  0  0  0  0  0
    6.6928   -5.3124    0.0000 C   0  0  0  0  0  0  0  0  0  0  0  0
    5.1033   -5.9399    0.0000 C   0  0  0  0  0  0  0  0  0  0  0  0
    7.4039   -4.0993    0.0000 C   0  0  0  0  0  0  0  0  0  0  0  0
    5.1033   -3.4719    0.0000 C   0  0  0  0  0  0  0  0  0  0  0  0
    5.9817   -4.0993    0.0000 C   0  0  0  0  0  0  0  0  0  0  0  0
    4.3921   -6.4000    0.0000 C   0  0  0  0  0  0  0  0  0  0  0  0
    8.0313   -5.0196    0.0000 C   0  0  0  0  0  0  0  0  0  0  0  0
    3.0117   -6.3582    0.0000 C   0  0  0  0  0  0  0  0  0  0  0  0
    6.6928   -3.6810    0.0000 C   0  0  0  0  0  0  0  0  0  0  0  0
    5.8144   -3.8902    0.0000 C   0  0  0  0  0  0  0  0  0  0  0  0
    8.0313   -3.6810    0.0000 C   0  0  0  0  0  0  0  0  0  0  0  0
    3.0117   -7.1947    0.0000 C   0  0  0  0  0  0  0  0  0  0  0  0
    2.3006   -5.9399    0.0000 C   0  0  0  0  0  0  0  0  0  0  0  0
    6.5255   -3.4719    0.0000 C   0  0  0  0  0  0  0  0  0  0  0  0
    5.8144   -4.6849    0.0000 C   0  0  0  0  0  0  0  0  0  0  0  0
    2.2588   -7.5294    0.0000 C   0  0  0  0  0  0  0  0  0  0  0  0
    6.5255   -5.1033    0.0000 C   0  0  0  0  0  0  0  0  0  0  0  0
    7.2366   -3.8902    0.0000 C   0  0  0  0  0  0  0  0  0  0  0  0
    1.5896   -6.3163    0.0000 C   0  0  0  0  0  0  0  0  0  0  0  0
    7.2366   -4.6849    0.0000 C   0  0  0  0  0  0  0  0  0  0  0  0
  1 20  1  0  0  0  0
  2 20  1  0  0  0  0
  3 21  1  0  0  0  0
  4 21  1  0  0  0  0
  5 25  1  0  0  0  0
  6 25  1  0  0  0  0
  7 50  1  0  0  0  0
  8 51  1  0  0  0  0
  9 27  2  0  0  0  0
 10 40  2  0  0  0  0
 11 49  2  0  0  0  0
 12 13  1  0  0  0  0
 12 19  1  0  0  0  0
 12 26  1  0  0  0  0
 13 22  2  0  0  0  0
 14 27  1  0  0  0  0
 29 14  1  1  0  0  0
 15 28  2  0  0  0  0
 15 33  1  0  0  0  0
 16 40  1  0  0  0  0
 16 44  1  0  0  0  0
 17 49  1  0  0  0  0
 17 52  1  0  0  0  0
 18 19  2  0  0  0  0
 18 20  1  0  0  0  0
 18 22  1  0  0  0  0
 19 21  1  0  0  0  0
 20 23  1  0  0  0  0
 21 24  1  0  0  0  0
 22 25  1  0  0  0  0
 23 24  1  0  0  0  0
 26 27  1  0  0  0  0
 28 29  1  0  0  0  0
 28 30  1  0  0  0  0
 29 37  1  0  0  0  0
 30 31  1  0  0  0  0
 30 35  2  0  0  0  0
 31 34  1  0  0  0  0
 31 38  2  0  0  0  0
 32 34  2  0  0  0  0
 32 36  1  0  0  0  0
 32 40  1  0  0  0  0
 33 39  2  0  0  0  0
 33 41  1  0  0  0  0
 35 39  1  0  0  0  0
 36 42  2  0  0  0  0
 36 44  1  0  0  0  0
 37 43  1  0  0  0  0
 38 42  1  0  0  0  0
 41 45  2  0  0  0  0
 41 46  1  0  0  0  0
 43 47  2  0  0  0  0
 43 48  1  0  0  0  0
 45 49  1  0  0  0  0
 46 52  2  0  0  0  0
 47 51  1  0  0  0  0
 48 50  2  0  0  0  0
 50 53  1  0  0  0  0
 51 53  2  0  0  0  0
M  END
> <PUBCHEM_COMPOUND_ID_TYPE>
0

> <PUBCHEM_TOTAL_CHARGE>
0

> <PUBCHEM_SUBSTANCE_ID>
310931348

> <PUBCHEM_SUBSTANCE_VERSION>
1

> <PUBCHEM_EXT_DATASOURCE_NAME>
4488

> <PUBCHEM_EXT_DATASOURCE_REGID>
SCHEMBL16108668

> <PUBCHEM_SUBSTANCE_COMMENT>
InChI=1S/C36H26F8N6O3/c37-21-9-17(10-22(38)14-21)11-26(47-28(52)16-50-32-29(31(49-50)33(39)40)35(41,42)6-7-36(32,43)44)30-23(18-1-2-20-15-46-34(53)24(20)12-18)3-4-25(48-30)19-5-8-45-27(51)13-19/h1-5,8-10,12-14,26,33H,6-7,11,15-16H2,(H,45,51)(H,46,53)(H,47,52)/t26-/m0/s1
InChIKey=HXCPOIQEWDQQJP-SANMLTNESA-N

> <PUBCHEM_SUBSTANCE_SYNONYM>
SCHEMBL16108668

> <PUBCHEM_XREF_EXT_ID>
SCHEMBL16108668

> <PUBCHEM_EXT_DATASOURCE_URL>
https://www.surechembl.org/

> <PUBCHEM_EXT_SUBSTANCE_URL>
https://www.surechembl.org/chemical/SCHEMBL16108668

> <PUBCHEM_CID_ASSOCIATIONS>
117600152  1

> <PUBCHEM_COORDINATE_TYPE>
1
3

> <PUBCHEM_BONDANNOTATIONS>
29  14  5

$$$$
