310949102
  -OEChem-07211613022D

 19 20  0     0  0  0  0  0  0999 V2000
   -1.4490    0.6079    0.0000 O   0  0  0  0  0  0  0  0  0  0  0  0
   -1.2665   -0.7295    0.0000 O   0  0  0  0  0  0  0  0  0  0  0  0
    1.0638    3.5056    0.0000 O   0  0  0  0  0  0  0  0  0  0  0  0
   -0.1723    1.3374    0.0000 C   0  0  0  0  0  0  0  0  0  0  0  0
   -0.5572    0.6079    0.0000 C   0  0  0  0  0  0  0  0  0  0  0  0
    0.1520   -1.3374    0.0000 C   0  0  0  0  0  0  0  0  0  0  0  0
   -0.3952   -0.7295    0.0000 C   0  0  0  0  0  0  0  0  0  0  0  0
   -0.0101    0.0203    0.0000 C   0  0  0  0  0  0  0  0  0  0  0  0
   -0.5775    2.0467    0.0000 C   0  0  0  0  0  0  0  0  0  0  0  0
    0.6585    1.3374    0.0000 C   0  0  0  0  0  0  0  0  0  0  0  0
   -0.2331   -2.0670    0.0000 C   0  0  0  0  0  0  0  0  0  0  0  0
    1.0030   -1.3374    0.0000 C   0  0  0  0  0  0  0  0  0  0  0  0
    0.6383    2.7761    0.0000 C   0  0  0  0  0  0  0  0  0  0  0  0
   -0.1723    2.7559    0.0000 C   0  0  0  0  0  0  0  0  0  0  0  0
    1.0638    2.0670    0.0000 C   0  0  0  0  0  0  0  0  0  0  0  0
    1.0030   -2.7761    0.0000 C   0  0  0  0  0  0  0  0  0  0  0  0
    0.1723   -2.7559    0.0000 C   0  0  0  0  0  0  0  0  0  0  0  0
    1.4084   -2.0264    0.0000 C   0  0  0  0  0  0  0  0  0  0  0  0
    1.4490   -3.5056    0.0000 C   0  0  0  0  0  0  0  0  0  0  0  0
  1  5  2  0  0  0  0
  2  7  2  0  0  0  0
  3 13  1  0  0  0  0
  4  5  1  0  0  0  0
  4  9  2  0  0  0  0
  4 10  1  0  0  0  0
  5  8  1  0  0  0  0
  6  7  1  0  0  0  0
  6 11  2  0  0  0  0
  6 12  1  0  0  0  0
  7  8  1  0  0  0  0
  9 14  1  0  0  0  0
 10 15  2  0  0  0  0
 11 17  1  0  0  0  0
 12 18  2  0  0  0  0
 13 14  2  0  0  0  0
 13 15  1  0  0  0  0
 16 17  2  0  0  0  0
 16 18  1  0  0  0  0
 16 19  1  0  0  0  0
M  END
> <PUBCHEM_COMPOUND_ID_TYPE>
0

> <PUBCHEM_TOTAL_CHARGE>
0

> <PUBCHEM_SUBSTANCE_ID>
310949102

> <PUBCHEM_SUBSTANCE_VERSION>
1

> <PUBCHEM_EXT_DATASOURCE_NAME>
4488

> <PUBCHEM_EXT_DATASOURCE_REGID>
SCHEMBL16127292

> <PUBCHEM_SUBSTANCE_COMMENT>
InChI=1S/C16H14O3/c1-11-2-4-12(5-3-11)15(18)10-16(19)13-6-8-14(17)9-7-13/h2-9,17H,10H2,1H3
InChIKey=ZCPBLFIFHPNLGD-UHFFFAOYSA-N

> <PUBCHEM_SUBSTANCE_SYNONYM>
SCHEMBL16127292

> <PUBCHEM_XREF_EXT_ID>
SCHEMBL16127292

> <PUBCHEM_EXT_DATASOURCE_URL>
https://www.surechembl.org/

> <PUBCHEM_EXT_SUBSTANCE_URL>
https://www.surechembl.org/chemical/SCHEMBL16127292

> <PUBCHEM_CID_ASSOCIATIONS>
85826971  1

> <PUBCHEM_COORDINATE_TYPE>
1
3

$$$$
