310946736
  -OEChem-07211613022D

 40 43  0     0  0  0  0  0  0999 V2000
   -0.6124    4.2544    0.0000 F   0  0  0  0  0  0  0  0  0  0  0  0
    0.1289    1.4826    0.0000 F   0  0  0  0  0  0  0  0  0  0  0  0
    2.1433    3.4970    0.0000 O   0  0  0  0  0  0  0  0  0  0  0  0
   -1.8371   -3.0296    0.0000 O   0  0  0  0  0  0  0  0  0  0  0  0
   -0.0161   -4.2544    0.0000 O   0  0  0  0  0  0  0  0  0  0  0  0
   -0.2739   -0.4835    0.0000 N   0  0  0  0  0  0  0  0  0  0  0  0
   -1.6760   -0.8541    0.0000 N   0  0  0  0  0  0  0  0  0  0  0  0
    0.7413   -1.5148    0.0000 N   0  0  0  0  0  0  0  0  0  0  0  0
   -0.4512   -2.6590    0.0000 N   0  0  0  0  0  0  0  0  0  0  0  0
   -1.2892    1.8693    0.0000 N   0  0  0  0  0  0  0  0  0  0  0  0
   -0.8058    1.1925    0.0000 N   0  0  0  0  0  0  0  0  0  0  0  0
   -2.0466   -2.2400    0.0000 N   0  0  0  0  0  0  0  0  0  0  0  0
    2.1433   -1.1441    0.0000 N   0  0  0  0  0  0  0  0  0  0  0  0
    2.5140    0.2417    0.0000 N   0  0  0  0  0  0  0  0  0  0  0  0
   -1.0797   -0.2417    0.0000 C   0  0  0  0  0  0  0  0  0  0  0  0
   -0.6607   -1.8533    0.0000 C   0  0  0  0  0  0  0  0  0  0  0  0
   -0.0644   -1.2409    0.0000 C   0  0  0  0  0  0  0  0  0  0  0  0
   -1.3053    0.5318    0.0000 C   0  0  0  0  0  0  0  0  0  0  0  0
   -1.4826   -1.6438    0.0000 C   0  0  0  0  0  0  0  0  0  0  0  0
   -2.1111    0.8058    0.0000 C   0  0  0  0  0  0  0  0  0  0  0  0
   -2.0789    1.6438    0.0000 C   0  0  0  0  0  0  0  0  0  0  0  0
   -0.2901    2.9007    0.0000 C   0  0  0  0  0  0  0  0  0  0  0  0
   -2.7879    0.4029    0.0000 C   0  0  0  0  0  0  0  0  0  0  0  0
    1.3214   -0.8863    0.0000 C   0  0  0  0  0  0  0  0  0  0  0  0
   -2.7879    2.0305    0.0000 C   0  0  0  0  0  0  0  0  0  0  0  0
   -0.0484    3.7065    0.0000 C   0  0  0  0  0  0  0  0  0  0  0  0
    0.3223    2.3206    0.0000 C   0  0  0  0  0  0  0  0  0  0  0  0
   -1.0636    2.6913    0.0000 C   0  0  0  0  0  0  0  0  0  0  0  0
   -1.0314   -3.2230    0.0000 C   0  0  0  0  0  0  0  0  0  0  0  0
    1.3376    3.3197    0.0000 C   0  0  0  0  0  0  0  0  0  0  0  0
   -3.5131    0.8058    0.0000 C   0  0  0  0  0  0  0  0  0  0  0  0
    0.7413    3.8838    0.0000 C   0  0  0  0  0  0  0  0  0  0  0  0
    1.1119    2.5140    0.0000 C   0  0  0  0  0  0  0  0  0  0  0  0
   -3.5292    1.6276    0.0000 C   0  0  0  0  0  0  0  0  0  0  0  0
    1.1281   -0.1289    0.0000 C   0  0  0  0  0  0  0  0  0  0  0  0
   -0.8218   -4.0127    0.0000 C   0  0  0  0  0  0  0  0  0  0  0  0
    2.7235   -0.5318    0.0000 C   0  0  0  0  0  0  0  0  0  0  0  0
    1.6921    0.4673    0.0000 C   0  0  0  0  0  0  0  0  0  0  0  0
    2.7235    2.9491    0.0000 C   0  0  0  0  0  0  0  0  0  0  0  0
    3.5292    3.1264    0.0000 C   0  0  0  0  0  0  0  0  0  0  0  0
  1 26  1  0  0  0  0
  2 27  1  0  0  0  0
  3 30  1  0  0  0  0
  3 39  1  0  0  0  0
  4 29  2  0  0  0  0
  5 36  1  0  0  0  0
  6 15  2  0  0  0  0
  6 17  1  0  0  0  0
  7 15  1  0  0  0  0
  7 19  2  0  0  0  0
  8 17  1  0  0  0  0
  8 24  1  0  0  0  0
  9 16  1  0  0  0  0
  9 29  1  0  0  0  0
 10 21  1  0  0  0  0
 10 28  1  0  0  0  0
 11 18  2  3  0  0  0
 12 19  1  0  0  0  0
 13 24  1  0  0  0  0
 13 37  1  0  0  0  0
 14 37  1  0  0  0  0
 14 38  2  0  0  0  0
 15 18  1  0  0  0  0
 16 17  2  0  0  0  0
 16 19  1  0  0  0  0
 18 20  1  0  0  0  0
 20 21  2  0  0  0  0
 20 23  1  0  0  0  0
 21 25  1  0  0  0  0
 22 26  2  0  0  0  0
 22 27  1  0  0  0  0
 22 28  1  0  0  0  0
 23 31  2  0  0  0  0
 24 35  2  0  0  0  0
 25 34  2  0  0  0  0
 26 32  1  0  0  0  0
 27 33  2  0  0  0  0
 29 36  1  0  0  0  0
 30 32  2  0  0  0  0
 30 33  1  0  0  0  0
 31 34  1  0  0  0  0
 35 38  1  0  0  0  0
 39 40  1  0  0  0  0
M  END
> <PUBCHEM_COMPOUND_ID_TYPE>
0

> <PUBCHEM_TOTAL_CHARGE>
0

> <PUBCHEM_SUBSTANCE_ID>
310946736

> <PUBCHEM_SUBSTANCE_VERSION>
1

> <PUBCHEM_EXT_DATASOURCE_NAME>
4488

> <PUBCHEM_EXT_DATASOURCE_REGID>
SCHEMBL16124860

> <PUBCHEM_SUBSTANCE_COMMENT>
InChI=1S/C26H27F2N9O3/c1-2-40-14-9-17(27)16(18(28)10-14)11-32-19-6-4-3-5-15(19)22(29)25-36-24(30)23(35-21(39)12-38)26(37-25)34-20-7-8-31-13-33-20/h3-10,29,32-33,38H,2,11-13H2,1H3,(H,35,39)(H3,30,34,36,37)
InChIKey=AAVOKHBVCBAHLO-UHFFFAOYSA-N

> <PUBCHEM_SUBSTANCE_SYNONYM>
SCHEMBL16124860

> <PUBCHEM_XREF_EXT_ID>
SCHEMBL16124860

> <PUBCHEM_EXT_DATASOURCE_URL>
https://www.surechembl.org/

> <PUBCHEM_EXT_SUBSTANCE_URL>
https://www.surechembl.org/chemical/SCHEMBL16124860

> <PUBCHEM_CID_ASSOCIATIONS>
117612623  1

> <PUBCHEM_COORDINATE_TYPE>
1
3

$$$$
