310931054
  -OEChem-07211613022D

 36 39  0     1  0  0  0  0  0999 V2000
   -0.7766   -1.5644    0.0000 S   0  0  0  0  0  0  0  0  0  0  0  0
    7.7649   -0.6118    0.0000 F   0  0  0  0  0  0  0  0  0  0  0  0
    7.0505   -1.8493    0.0000 F   0  0  0  0  0  0  0  0  0  0  0  0
    7.7649   -1.4368    0.0000 F   0  0  0  0  0  0  0  0  0  0  0  0
   -0.3902   -2.0202    0.0000 O   0  0  0  0  0  0  0  0  0  0  0  0
    1.5337   -2.5357    0.0000 O   0  0  0  0  0  0  0  0  0  0  0  0
   -1.9327    0.7044    0.0000 O   0  0  0  0  0  0  0  0  0  0  0  0
    3.4781    0.2132    0.0000 O   0  0  0  0  0  0  0  0  0  0  0  0
    4.9071    0.2132    0.0000 O   0  0  0  0  0  0  0  0  0  0  0  0
    0.1253   -0.0963    0.0000 N   0  0  0  0  0  0  0  0  0  0  0  0
    2.0492   -0.6118    0.0000 N   0  0  0  0  0  0  0  0  0  0  0  0
    5.6215   -1.0243    0.0000 N   0  0  0  0  0  0  0  0  0  0  0  0
    0.5378   -0.8108    0.0000 C   0  0  0  0  0  0  0  0  0  0  0  0
    1.3347   -1.0243    0.0000 C   0  0  0  0  0  0  0  0  0  0  0  0
    0.3243   -1.6077    0.0000 C   0  0  0  0  0  0  0  0  0  0  0  0
    1.1212   -1.8212    0.0000 C   0  0  0  0  0  0  0  0  0  0  0  0
   -0.6997   -0.0963    0.0000 C   0  0  3  0  0  0  0  0  0  0  0  0
    2.7636   -1.0243    0.0000 C   0  0  0  0  0  0  0  0  0  0  0  0
   -1.1122    0.6182    0.0000 C   0  0  0  0  0  0  0  0  0  0  0  0
    3.4781   -0.6118    0.0000 C   0  0  0  0  0  0  0  0  0  0  0  0
   -1.1122   -0.8108    0.0000 C   0  0  3  0  0  0  0  0  0  0  0  0
    4.1926   -1.0243    0.0000 C   0  0  0  0  0  0  0  0  0  0  0  0
    2.7636   -1.8493    0.0000 C   0  0  0  0  0  0  0  0  0  0  0  0
    4.9071   -0.6118    0.0000 C   0  0  0  0  0  0  0  0  0  0  0  0
   -0.7766    1.3718    0.0000 C   0  0  0  0  0  0  0  0  0  0  0  0
    4.1926   -1.8493    0.0000 C   0  0  0  0  0  0  0  0  0  0  0  0
   -1.9327   -0.8970    0.0000 C   0  0  0  0  0  0  0  0  0  0  0  0
   -2.1042    1.5114    0.0000 C   0  0  0  0  0  0  0  0  0  0  0  0
    3.4781   -2.2618    0.0000 C   0  0  0  0  0  0  0  0  0  0  0  0
   -1.3897    1.9239    0.0000 C   0  0  0  0  0  0  0  0  0  0  0  0
   -1.3897   -2.1165    0.0000 C   0  0  0  0  0  0  0  0  0  0  0  0
   -2.1042   -1.7040    0.0000 C   0  0  0  0  0  0  0  0  0  0  0  0
    6.3360   -0.6118    0.0000 C   0  0  0  0  0  0  0  0  0  0  0  0
    7.0505   -1.0243    0.0000 C   0  0  0  0  0  0  0  0  0  0  0  0
   -2.8579    1.8470    0.0000 C   0  0  0  0  0  0  0  0  0  0  0  0
    5.6215   -1.8493    0.0000 C   0  0  0  0  0  0  0  0  0  0  0  0
  1 21  1  0  0  0  0
  1 31  1  0  0  0  0
  2 34  1  0  0  0  0
  3 34  1  0  0  0  0
  4 34  1  0  0  0  0
  5 15  2  0  0  0  0
  6 16  2  0  0  0  0
  7 19  1  0  0  0  0
  7 28  1  0  0  0  0
  8 20  1  0  0  0  0
  9 24  2  0  0  0  0
 10 13  1  0  0  0  0
 10 17  1  0  0  0  0
 11 14  1  0  0  0  0
 11 18  1  0  0  0  0
 12 24  1  0  0  0  0
 12 33  1  0  0  0  0
 12 36  1  0  0  0  0
 13 14  2  0  0  0  0
 13 15  1  0  0  0  0
 14 16  1  0  0  0  0
 15 16  1  0  0  0  0
 17 19  1  0  0  0  0
 21 17  1  1  0  0  0
 18 20  2  0  0  0  0
 18 23  1  0  0  0  0
 19 25  2  0  0  0  0
 20 22  1  0  0  0  0
 21 27  1  0  0  0  0
 22 24  1  0  0  0  0
 22 26  2  0  0  0  0
 23 29  2  0  0  0  0
 25 30  1  0  0  0  0
 26 29  1  0  0  0  0
 27 32  1  0  0  0  0
 28 30  2  0  0  0  0
 28 35  1  0  0  0  0
 31 32  1  0  0  0  0
 33 34  1  0  0  0  0
M  END
> <PUBCHEM_COMPOUND_ID_TYPE>
0

> <PUBCHEM_TOTAL_CHARGE>
0

> <PUBCHEM_SUBSTANCE_ID>
310931054

> <PUBCHEM_SUBSTANCE_VERSION>
1

> <PUBCHEM_EXT_DATASOURCE_NAME>
4488

> <PUBCHEM_EXT_DATASOURCE_REGID>
SCHEMBL16108356

> <PUBCHEM_SUBSTANCE_COMMENT>
InChI=1S/C24H24F3N3O5S/c1-12-8-9-15(35-12)17(16-7-4-10-36-16)29-19-18(21(32)22(19)33)28-14-6-3-5-13(20(14)31)23(34)30(2)11-24(25,26)27/h3,5-6,8-9,16-17,28-29,31H,4,7,10-11H2,1-2H3/t16-,17?/m0/s1
InChIKey=KBLOFZHBIDLNIS-BHWOMJMDSA-N

> <PUBCHEM_SUBSTANCE_SYNONYM>
SCHEMBL16108356

> <PUBCHEM_XREF_EXT_ID>
SCHEMBL16108356

> <PUBCHEM_EXT_DATASOURCE_URL>
https://www.surechembl.org/

> <PUBCHEM_EXT_SUBSTANCE_URL>
https://www.surechembl.org/chemical/SCHEMBL16108356

> <PUBCHEM_CID_ASSOCIATIONS>
71526069  1

> <PUBCHEM_COORDINATE_TYPE>
1
3

> <PUBCHEM_BONDANNOTATIONS>
21  17  5

$$$$
