310934676
  -OEChem-07211613022D

 35 40  0     0  0  0  0  0  0999 V2000
    5.4086   -6.6385    0.0000 O   0  0  0  0  0  0  0  0  0  0  0  0
    1.8414   -3.7445    0.0000 N   0  0  0  0  0  0  0  0  0  0  0  0
    1.0164   -3.7445    0.0000 N   0  0  0  0  0  0  0  0  0  0  0  0
    2.9034   -2.7884    0.0000 N   0  0  0  0  0  0  0  0  0  0  0  0
    0.0000    0.0000    0.0000 N   0  0  0  0  0  0  0  0  0  0  0  0
    4.0496   -6.1969    0.0000 N   0  0  0  0  0  0  0  0  0  0  0  0
    7.5746   -6.9085    0.0000 N   0  0  0  0  0  0  0  0  0  0  0  0
    9.1885   -6.5655    0.0000 N   0  0  0  0  0  0  0  0  0  0  0  0
    1.4289   -2.4750    0.0000 C   0  0  0  0  0  0  0  0  0  0  0  0
    2.0964   -2.9599    0.0000 C   0  0  0  0  0  0  0  0  0  0  0  0
    1.4289   -1.6500    0.0000 C   0  0  0  0  0  0  0  0  0  0  0  0
    0.7145   -1.2375    0.0000 C   0  0  0  0  0  0  0  0  0  0  0  0
    0.7615   -2.9599    0.0000 C   0  0  0  0  0  0  0  0  0  0  0  0
    3.2004   -4.1861    0.0000 C   0  0  0  0  0  0  0  0  0  0  0  0
    2.3935   -4.3576    0.0000 C   0  0  0  0  0  0  0  0  0  0  0  0
    0.7145   -0.4125    0.0000 C   0  0  0  0  0  0  0  0  0  0  0  0
    3.4554   -3.4015    0.0000 C   0  0  0  0  0  0  0  0  0  0  0  0
    2.1434   -1.2375    0.0000 C   0  0  0  0  0  0  0  0  0  0  0  0
    3.7525   -4.7992    0.0000 C   0  0  0  0  0  0  0  0  0  0  0  0
    0.0000   -1.6500    0.0000 C   0  0  0  0  0  0  0  0  0  0  0  0
    1.4289    0.0000    0.0000 C   0  0  0  0  0  0  0  0  0  0  0  0
    2.1434   -0.4125    0.0000 C   0  0  0  0  0  0  0  0  0  0  0  0
    3.4975   -5.5838    0.0000 C   0  0  0  0  0  0  0  0  0  0  0  0
    4.5595   -4.6277    0.0000 C   0  0  0  0  0  0  0  0  0  0  0  0
   -0.7145   -1.2375    0.0000 C   0  0  0  0  0  0  0  0  0  0  0  0
   -0.7145   -0.4125    0.0000 C   0  0  0  0  0  0  0  0  0  0  0  0
    4.8565   -6.0254    0.0000 C   0  0  0  0  0  0  0  0  0  0  0  0
    5.1115   -5.2408    0.0000 C   0  0  0  0  0  0  0  0  0  0  0  0
    6.2155   -6.4670    0.0000 C   0  0  0  0  0  0  0  0  0  0  0  0
    6.7676   -7.0801    0.0000 C   0  0  0  0  0  0  0  0  0  0  0  0
    7.8295   -6.1239    0.0000 C   0  0  0  0  0  0  0  0  0  0  0  0
    8.1266   -7.5216    0.0000 C   0  0  0  0  0  0  0  0  0  0  0  0
    8.6365   -5.9524    0.0000 C   0  0  0  0  0  0  0  0  0  0  0  0
    8.9336   -7.3501    0.0000 C   0  0  0  0  0  0  0  0  0  0  0  0
    9.9955   -6.3939    0.0000 C   0  0  0  0  0  0  0  0  0  0  0  0
  1 27  1  0  0  0  0
  1 29  1  0  0  0  0
  2  3  1  0  0  0  0
  2 10  1  0  0  0  0
  2 15  1  0  0  0  0
  3 13  2  0  0  0  0
  4 10  1  0  0  0  0
  4 17  2  0  0  0  0
  5 16  1  0  0  0  0
  5 26  2  0  0  0  0
  6 23  2  0  0  0  0
  6 27  1  0  0  0  0
  7 30  1  0  0  0  0
  7 31  1  0  0  0  0
  7 32  1  0  0  0  0
  8 33  1  0  0  0  0
  8 34  1  0  0  0  0
  8 35  1  0  0  0  0
  9 10  2  0  0  0  0
  9 11  1  0  0  0  0
  9 13  1  0  0  0  0
 11 12  1  0  0  0  0
 11 18  2  0  0  0  0
 12 16  2  0  0  0  0
 12 20  1  0  0  0  0
 14 15  2  0  0  0  0
 14 17  1  0  0  0  0
 14 19  1  0  0  0  0
 16 21  1  0  0  0  0
 18 22  1  0  0  0  0
 19 23  1  0  0  0  0
 19 24  2  0  0  0  0
 20 25  2  0  0  0  0
 21 22  2  0  0  0  0
 24 28  1  0  0  0  0
 25 26  1  0  0  0  0
 27 28  2  0  0  0  0
 29 30  1  0  0  0  0
 31 33  1  0  0  0  0
 32 34  1  0  0  0  0
M  END
> <PUBCHEM_COMPOUND_ID_TYPE>
0

> <PUBCHEM_TOTAL_CHARGE>
0

> <PUBCHEM_SUBSTANCE_ID>
310934676

> <PUBCHEM_SUBSTANCE_VERSION>
1

> <PUBCHEM_EXT_DATASOURCE_NAME>
4488

> <PUBCHEM_EXT_DATASOURCE_REGID>
SCHEMBL16112175

> <PUBCHEM_SUBSTANCE_COMMENT>
InChI=1S/C27H27N7O/c1-32-10-12-33(13-11-32)14-15-35-26-8-7-20(16-29-26)21-17-30-27-24(18-31-34(27)19-21)22-4-2-6-25-23(22)5-3-9-28-25/h2-9,16-19H,10-15H2,1H3
InChIKey=FTSHNQVAJPKPPY-UHFFFAOYSA-N

> <PUBCHEM_SUBSTANCE_SYNONYM>
SCHEMBL16112175

> <PUBCHEM_XREF_EXT_ID>
SCHEMBL16112175

> <PUBCHEM_EXT_DATASOURCE_URL>
https://www.surechembl.org/

> <PUBCHEM_EXT_SUBSTANCE_URL>
https://www.surechembl.org/chemical/SCHEMBL16112175

> <PUBCHEM_CID_ASSOCIATIONS>
117602841  1

> <PUBCHEM_COORDINATE_TYPE>
1
3

$$$$
