310929184
  -OEChem-07211613022D

 18 18  0     0  0  0  0  0  0999 V2000
    1.9500   -4.3001    0.0000 O   0  0  0  0  0  0  0  0  0  0  0  0
    3.2000   -0.7000    0.0000 O   0  0  0  0  0  0  0  0  0  0  0  0
    0.7250   -5.0001    0.0000 O   0  0  0  0  0  0  0  0  0  0  0  0
    4.4501   -1.4250    0.0000 O   0  0  0  0  0  0  0  0  0  0  0  0
    0.7250   -3.5751    0.0000 N   0  0  0  0  0  0  0  0  0  0  0  0
    3.2000   -2.1250    0.0000 N   0  0  0  0  0  0  0  0  0  0  0  0
    1.1250   -1.4250    0.0000 C   0  0  0  0  0  0  0  0  0  0  0  0
    0.7000   -0.7000    0.0000 C   0  0  0  0  0  0  0  0  0  0  0  0
    1.1250   -2.8501    0.0000 C   0  0  0  0  0  0  0  0  0  0  0  0
    2.3750   -2.1250    0.0000 C   0  0  0  0  0  0  0  0  0  0  0  0
    1.9500   -1.4250    0.0000 C   0  0  0  0  0  0  0  0  0  0  0  0
    0.7250   -2.1250    0.0000 C   0  0  0  0  0  0  0  0  0  0  0  0
    1.9500   -2.8501    0.0000 C   0  0  0  0  0  0  0  0  0  0  0  0
    1.1250   -4.3001    0.0000 C   0  0  0  0  0  0  0  0  0  0  0  0
    3.6251   -1.4250    0.0000 C   0  0  0  0  0  0  0  0  0  0  0  0
    1.4500   -0.2750    0.0000 C   0  0  0  0  0  0  0  0  0  0  0  0
    0.3000    0.0000    0.0000 C   0  0  0  0  0  0  0  0  0  0  0  0
    0.0000   -1.1250    0.0000 C   0  0  0  0  0  0  0  0  0  0  0  0
  1 14  2  0  0  0  0
  2 15  2  0  0  0  0
  3 14  1  0  0  0  0
  4 15  1  0  0  0  0
  5  9  1  0  0  0  0
  5 14  1  0  0  0  0
  6 10  1  0  0  0  0
  6 15  1  0  0  0  0
  7  8  1  0  0  0  0
  7 11  2  0  0  0  0
  7 12  1  0  0  0  0
  8 16  1  0  0  0  0
  8 17  1  0  0  0  0
  8 18  1  0  0  0  0
  9 12  2  0  0  0  0
  9 13  1  0  0  0  0
 10 11  1  0  0  0  0
 10 13  2  0  0  0  0
M  END
> <PUBCHEM_COMPOUND_ID_TYPE>
0

> <PUBCHEM_TOTAL_CHARGE>
0

> <PUBCHEM_SUBSTANCE_ID>
310929184

> <PUBCHEM_SUBSTANCE_VERSION>
1

> <PUBCHEM_EXT_DATASOURCE_NAME>
4488

> <PUBCHEM_EXT_DATASOURCE_REGID>
SCHEMBL16106347

> <PUBCHEM_SUBSTANCE_COMMENT>
InChI=1S/C12H16N2O4/c1-12(2,3)7-4-8(13-10(15)16)6-9(5-7)14-11(17)18/h4-6,13-14H,1-3H3,(H,15,16)(H,17,18)
InChIKey=AVLRGEBAXBJSNH-UHFFFAOYSA-N

> <PUBCHEM_SUBSTANCE_SYNONYM>
SCHEMBL16106347

> <PUBCHEM_XREF_EXT_ID>
SCHEMBL16106347

> <PUBCHEM_EXT_DATASOURCE_URL>
https://www.surechembl.org/

> <PUBCHEM_EXT_SUBSTANCE_URL>
https://www.surechembl.org/chemical/SCHEMBL16106347

> <PUBCHEM_CID_ASSOCIATIONS>
117598639  1

> <PUBCHEM_COORDINATE_TYPE>
1
3

$$$$
