310942246
  -OEChem-07211613022D

 34 36  0     1  0  0  0  0  0999 V2000
   -2.3251    0.2325    0.0000 F   0  0  0  0  0  0  0  0  0  0  0  0
   -1.9814   -3.0226    0.0000 F   0  0  0  0  0  0  0  0  0  0  0  0
    0.6268   -2.3149    0.0000 O   0  0  0  0  0  0  0  0  0  0  0  0
   -0.0607   -1.0614    0.0000 O   0  0  0  0  0  0  0  0  0  0  0  0
   -0.0404    0.6369    0.0000 N   0  0  0  0  0  0  0  0  0  0  0  0
   -0.0404   -0.6975    0.0000 N   0  0  0  0  0  0  0  0  0  0  0  0
    1.6781   -0.7379    0.0000 N   0  0  0  0  0  0  0  0  0  0  0  0
    0.4448   -0.0101    0.0000 C   0  0  0  0  0  0  0  0  0  0  0  0
    1.2738   -0.0303    0.0000 C   0  0  3  0  0  0  0  0  0  0  0  0
   -0.8289   -0.4347    0.0000 C   0  0  0  0  0  0  0  0  0  0  0  0
    1.6781    0.6975    0.0000 C   0  0  0  0  0  0  0  0  0  0  0  0
   -0.8087    0.3942    0.0000 C   0  0  0  0  0  0  0  0  0  0  0  0
   -1.4962   -0.9199    0.0000 C   0  0  0  0  0  0  0  0  0  0  0  0
    0.2224    1.4052    0.0000 C   0  0  0  0  0  0  0  0  0  0  0  0
   -2.2442   -0.5762    0.0000 C   0  0  0  0  0  0  0  0  0  0  0  0
   -1.4152   -1.7489    0.0000 C   0  0  0  0  0  0  0  0  0  0  0  0
    2.5272    0.6571    0.0000 C   0  0  0  0  0  0  0  0  0  0  0  0
   -0.3437    2.0319    0.0000 C   0  0  0  0  0  0  0  0  0  0  0  0
    0.6268   -1.4456    0.0000 C   0  0  0  0  0  0  0  0  0  0  0  0
   -2.0420   -2.1937    0.0000 C   0  0  0  0  0  0  0  0  0  0  0  0
    0.9503    1.0817    0.0000 C   0  0  0  0  0  0  0  0  0  0  0  0
    1.6781    1.5265    0.0000 C   0  0  0  0  0  0  0  0  0  0  0  0
   -2.8911   -1.0614    0.0000 C   0  0  0  0  0  0  0  0  0  0  0  0
   -2.8305   -1.8701    0.0000 C   0  0  0  0  0  0  0  0  0  0  0  0
   -0.0809    2.8204    0.0000 C   0  0  0  0  0  0  0  0  0  0  0  0
   -1.1322    1.8701    0.0000 C   0  0  0  0  0  0  0  0  0  0  0  0
    1.3344   -2.7396    0.0000 C   0  0  0  0  0  0  0  0  0  0  0  0
    2.8911   -0.0910    0.0000 C   0  0  0  0  0  0  0  0  0  0  0  0
   -0.6268    3.4067    0.0000 C   0  0  0  0  0  0  0  0  0  0  0  0
   -1.6579    2.4565    0.0000 C   0  0  0  0  0  0  0  0  0  0  0  0
   -1.4152    3.2450    0.0000 C   0  0  0  0  0  0  0  0  0  0  0  0
    0.9907   -3.4067    0.0000 C   0  0  0  0  0  0  0  0  0  0  0  0
    1.7186   -2.0724    0.0000 C   0  0  0  0  0  0  0  0  0  0  0  0
    2.0622   -3.1439    0.0000 C   0  0  0  0  0  0  0  0  0  0  0  0
  1 15  1  0  0  0  0
  2 20  1  0  0  0  0
  3 19  1  0  0  0  0
  3 27  1  0  0  0  0
  4 19  2  0  0  0  0
  5  8  1  0  0  0  0
  5 12  1  0  0  0  0
  5 14  1  0  0  0  0
  6  8  2  0  0  0  0
  6 10  1  0  0  0  0
  9  7  1  1  0  0  0
  7 19  1  0  0  0  0
  8  9  1  0  0  0  0
  9 11  1  0  0  0  0
 10 12  2  0  0  0  0
 10 13  1  0  0  0  0
 11 17  1  0  0  0  0
 11 21  1  0  0  0  0
 11 22  1  0  0  0  0
 13 15  2  0  0  0  0
 13 16  1  0  0  0  0
 14 18  1  0  0  0  0
 15 23  1  0  0  0  0
 16 20  2  0  0  0  0
 17 28  2  0  0  0  0
 18 25  2  0  0  0  0
 18 26  1  0  0  0  0
 20 24  1  0  0  0  0
 23 24  2  0  0  0  0
 25 29  1  0  0  0  0
 26 30  2  0  0  0  0
 27 32  1  0  0  0  0
 27 33  1  0  0  0  0
 27 34  1  0  0  0  0
 29 31  2  0  0  0  0
 30 31  1  0  0  0  0
M  END
> <PUBCHEM_COMPOUND_ID_TYPE>
0

> <PUBCHEM_TOTAL_CHARGE>
0

> <PUBCHEM_SUBSTANCE_ID>
310942246

> <PUBCHEM_SUBSTANCE_VERSION>
1

> <PUBCHEM_EXT_DATASOURCE_NAME>
4488

> <PUBCHEM_EXT_DATASOURCE_REGID>
SCHEMBL16120281

> <PUBCHEM_SUBSTANCE_COMMENT>
InChI=1S/C27H31F2N3O2/c1-7-27(5,6)23(31-25(33)34-26(2,3)4)24-30-22(20-15-19(28)13-14-21(20)29)17-32(24)16-18-11-9-8-10-12-18/h7-15,17,23H,1,16H2,2-6H3,(H,31,33)/t23-/m0/s1
InChIKey=XUKIPINBLOXSKY-QHCPKHFHSA-N

> <PUBCHEM_SUBSTANCE_SYNONYM>
SCHEMBL16120281

> <PUBCHEM_XREF_EXT_ID>
SCHEMBL16120281

> <PUBCHEM_EXT_DATASOURCE_URL>
https://www.surechembl.org/

> <PUBCHEM_EXT_SUBSTANCE_URL>
https://www.surechembl.org/chemical/SCHEMBL16120281

> <PUBCHEM_CID_ASSOCIATIONS>
117608897  1

> <PUBCHEM_COORDINATE_TYPE>
1
3

> <PUBCHEM_BONDANNOTATIONS>
9  7  5

$$$$
