310939998
  -OEChem-07211613022D

 13 14  0     0  0  0  0  0  0999 V2000
   -0.3529    3.5711    0.0000 O   0  0  0  0  0  0  0  0  0  0  0  0
   -2.3446    2.1422    0.0000 N   0  0  0  0  0  0  0  0  0  0  0  0
   -0.3529    2.1422    0.0000 N   0  0  0  0  0  0  0  0  0  0  0  0
   -1.1779    2.1422    0.0000 C   0  0  0  0  0  0  0  0  0  0  0  0
   -3.1697    2.1422    0.0000 C   0  0  0  0  0  0  0  0  0  0  0  0
   -1.7613    2.7256    0.0000 C   0  0  0  0  0  0  0  0  0  0  0  0
   -1.7613    1.5589    0.0000 C   0  0  0  0  0  0  0  0  0  0  0  0
   -3.7529    2.7256    0.0000 C   0  0  0  0  0  0  0  0  0  0  0  0
   -3.7529    1.5589    0.0000 C   0  0  0  0  0  0  0  0  0  0  0  0
    0.0596    2.8566    0.0000 C   0  0  0  0  0  0  0  0  0  0  0  0
   -4.3363    2.1422    0.0000 C   0  0  0  0  0  0  0  0  0  0  0  0
    0.8846    2.8566    0.0000 C   0  0  0  0  0  0  0  0  0  0  0  0
    1.2971    3.5711    0.0000 C   0  0  0  0  0  0  0  0  0  0  0  0
  1 10  2  0  0  0  0
  2  5  1  0  0  0  0
  2  6  1  0  0  0  0
  2  7  1  0  0  0  0
  3  4  1  0  0  0  0
  3 10  1  0  0  0  0
  4  6  1  0  0  0  0
  4  7  1  0  0  0  0
  5  8  1  0  0  0  0
  5  9  1  0  0  0  0
  8 11  1  0  0  0  0
  9 11  1  0  0  0  0
 10 12  1  0  0  0  0
 12 13  2  0  0  0  0
M  END
> <PUBCHEM_COMPOUND_ID_TYPE>
0

> <PUBCHEM_TOTAL_CHARGE>
0

> <PUBCHEM_SUBSTANCE_ID>
310939998

> <PUBCHEM_SUBSTANCE_VERSION>
1

> <PUBCHEM_EXT_DATASOURCE_NAME>
4488

> <PUBCHEM_EXT_DATASOURCE_REGID>
SCHEMBL16117928

> <PUBCHEM_SUBSTANCE_COMMENT>
InChI=1S/C10H16N2O/c1-2-10(13)11-8-6-12(7-8)9-4-3-5-9/h2,8-9H,1,3-7H2,(H,11,13)
InChIKey=MRGBVCZTXGIWIO-UHFFFAOYSA-N

> <PUBCHEM_SUBSTANCE_SYNONYM>
SCHEMBL16117928

> <PUBCHEM_XREF_EXT_ID>
SCHEMBL16117928

> <PUBCHEM_EXT_DATASOURCE_URL>
https://www.surechembl.org/

> <PUBCHEM_EXT_SUBSTANCE_URL>
https://www.surechembl.org/chemical/SCHEMBL16117928

> <PUBCHEM_CID_ASSOCIATIONS>
117607161  1

> <PUBCHEM_COORDINATE_TYPE>
1
3

$$$$
