310932008
  -OEChem-07211613022D

 25 27  0     0  0  0  0  0  0999 V2000
   -2.9144   -2.3850    0.0000 S   0  0  0  0  0  0  0  0  0  0  0  0
   -0.0172    0.1670    0.0000 O   0  0  0  0  0  0  0  0  0  0  0  0
   -0.0172   -1.4830    0.0000 O   0  0  0  0  0  0  0  0  0  0  0  0
    0.6973   -2.7205    0.0000 O   0  0  0  0  0  0  0  0  0  0  0  0
   -0.7317   -1.0705    0.0000 N   0  0  0  0  0  0  0  0  0  0  0  0
   -2.2469   -3.5410    0.0000 N   0  0  0  0  0  0  0  0  0  0  0  0
   -1.4462   -2.3080    0.0000 C   0  0  0  0  0  0  0  0  0  0  0  0
   -2.1607   -2.7205    0.0000 C   0  0  0  0  0  0  0  0  0  0  0  0
   -1.4462   -1.4830    0.0000 C   0  0  0  0  0  0  0  0  0  0  0  0
   -0.7317   -0.2455    0.0000 C   0  0  0  0  0  0  0  0  0  0  0  0
   -0.7317   -2.7205    0.0000 C   0  0  0  0  0  0  0  0  0  0  0  0
   -3.4664   -2.9981    0.0000 C   0  0  0  0  0  0  0  0  0  0  0  0
   -2.1607   -1.0705    0.0000 C   0  0  0  0  0  0  0  0  0  0  0  0
   -3.0539   -3.7126    0.0000 C   0  0  0  0  0  0  0  0  0  0  0  0
   -1.4462    0.1670    0.0000 C   0  0  0  0  0  0  0  0  0  0  0  0
   -2.1607   -0.2455    0.0000 C   0  0  0  0  0  0  0  0  0  0  0  0
   -0.0172   -2.3080    0.0000 C   0  0  0  0  0  0  0  0  0  0  0  0
    0.6973   -0.2455    0.0000 C   0  0  0  0  0  0  0  0  0  0  0  0
   -4.2869   -2.9118    0.0000 C   0  0  0  0  0  0  0  0  0  0  0  0
    1.4117    0.1670    0.0000 C   0  0  0  0  0  0  0  0  0  0  0  0
    2.1262   -0.2455    0.0000 C   0  0  0  0  0  0  0  0  0  0  0  0
    1.4117    0.9920    0.0000 C   0  0  0  0  0  0  0  0  0  0  0  0
    2.8407    0.1670    0.0000 C   0  0  0  0  0  0  0  0  0  0  0  0
    2.1262    1.4045    0.0000 C   0  0  0  0  0  0  0  0  0  0  0  0
    2.8407    0.9920    0.0000 C   0  0  0  0  0  0  0  0  0  0  0  0
  1  8  1  0  0  0  0
  1 12  1  0  0  0  0
  2 10  1  0  0  0  0
  2 18  1  0  0  0  0
  3 17  2  0  0  0  0
  4 17  1  0  0  0  0
  5  9  2  0  0  0  0
  5 10  1  0  0  0  0
  6  8  2  0  0  0  0
  6 14  1  0  0  0  0
  7  8  1  0  0  0  0
  7  9  1  0  0  0  0
  7 11  2  3  0  0  0
  9 13  1  0  0  0  0
 10 15  2  0  0  0  0
 11 17  1  0  0  0  0
 12 14  2  0  0  0  0
 12 19  1  0  0  0  0
 13 16  2  0  0  0  0
 15 16  1  0  0  0  0
 18 20  1  0  0  0  0
 20 21  2  0  0  0  0
 20 22  1  0  0  0  0
 21 23  1  0  0  0  0
 22 24  2  0  0  0  0
 23 25  2  0  0  0  0
 24 25  1  0  0  0  0
M  END
> <PUBCHEM_COMPOUND_ID_TYPE>
0

> <PUBCHEM_TOTAL_CHARGE>
0

> <PUBCHEM_SUBSTANCE_ID>
310932008

> <PUBCHEM_SUBSTANCE_VERSION>
1

> <PUBCHEM_EXT_DATASOURCE_NAME>
4488

> <PUBCHEM_EXT_DATASOURCE_REGID>
SCHEMBL16109350

> <PUBCHEM_SUBSTANCE_COMMENT>
InChI=1S/C19H16N2O3S/c1-13-11-20-19(25-13)15(10-18(22)23)16-8-5-9-17(21-16)24-12-14-6-3-2-4-7-14/h2-11H,12H2,1H3,(H,22,23)/b15-10+
InChIKey=OSBCMIYGAWMQLM-XNTDXEJSSA-N

> <PUBCHEM_SUBSTANCE_SYNONYM>
SCHEMBL16109350

> <PUBCHEM_XREF_EXT_ID>
SCHEMBL16109350

> <PUBCHEM_EXT_DATASOURCE_URL>
https://www.surechembl.org/

> <PUBCHEM_EXT_SUBSTANCE_URL>
https://www.surechembl.org/chemical/SCHEMBL16109350

> <PUBCHEM_CID_ASSOCIATIONS>
117600648  1

> <PUBCHEM_COORDINATE_TYPE>
1
3

> <PUBCHEM_BONDANNOTATIONS>
7  11  1

$$$$
