310934735
  -OEChem-07211613022D

 29 32  0     0  0  0  0  0  0999 V2000
    5.8223   -4.9976    0.0000 F   0  0  0  0  0  0  0  0  0  0  0  0
    1.4993   -0.4498    0.0000 O   0  0  0  0  0  0  0  0  0  0  0  0
    0.0000   -1.1245    0.0000 O   0  0  0  0  0  0  0  0  0  0  0  0
    2.0740   -2.5738    0.0000 N   0  0  0  0  0  0  0  0  0  0  0  0
    4.1731   -2.1490    0.0000 N   0  0  0  0  0  0  0  0  0  0  0  0
    2.8737   -2.8236    0.0000 N   0  0  0  0  0  0  0  0  0  0  0  0
    0.6747   -1.5992    0.0000 N   0  0  0  0  0  0  0  0  0  0  0  0
    3.3484   -2.1490    0.0000 C   0  0  0  0  0  0  0  0  0  0  0  0
    2.0740   -1.7492    0.0000 C   0  0  0  0  0  0  0  0  0  0  0  0
    2.8737   -1.4743    0.0000 C   0  0  0  0  0  0  0  0  0  0  0  0
    4.5728   -2.8487    0.0000 C   0  0  0  0  0  0  0  0  0  0  0  0
    1.4243   -3.0486    0.0000 C   0  0  0  0  0  0  0  0  0  0  0  0
    4.5728   -1.4243    0.0000 C   0  0  0  0  0  0  0  0  0  0  0  0
    1.4243   -1.2744    0.0000 C   0  0  0  0  0  0  0  0  0  0  0  0
    5.3975   -2.8487    0.0000 C   0  0  0  0  0  0  0  0  0  0  0  0
    4.1731   -3.5733    0.0000 C   0  0  0  0  0  0  0  0  0  0  0  0
    1.4993   -3.8732    0.0000 C   0  0  0  0  0  0  0  0  0  0  0  0
    0.6747   -2.6988    0.0000 C   0  0  0  0  0  0  0  0  0  0  0  0
    4.1480   -0.7247    0.0000 C   0  0  0  0  0  0  0  0  0  0  0  0
    5.3975   -1.4243    0.0000 C   0  0  0  0  0  0  0  0  0  0  0  0
    5.8223   -3.5733    0.0000 C   0  0  0  0  0  0  0  0  0  0  0  0
    4.5728   -4.2730    0.0000 C   0  0  0  0  0  0  0  0  0  0  0  0
    5.3975   -4.2730    0.0000 C   0  0  0  0  0  0  0  0  0  0  0  0
    0.8246   -4.3480    0.0000 C   0  0  0  0  0  0  0  0  0  0  0  0
    0.0000   -3.1735    0.0000 C   0  0  0  0  0  0  0  0  0  0  0  0
    4.5478    0.0000    0.0000 C   0  0  0  0  0  0  0  0  0  0  0  0
    5.7973   -0.7247    0.0000 C   0  0  0  0  0  0  0  0  0  0  0  0
    0.0750   -3.9981    0.0000 C   0  0  0  0  0  0  0  0  0  0  0  0
    5.3725    0.0000    0.0000 C   0  0  0  0  0  0  0  0  0  0  0  0
  1 23  1  0  0  0  0
  2 14  2  0  0  0  0
  3  7  1  0  0  0  0
  4  6  1  0  0  0  0
  4  9  1  0  0  0  0
  4 12  1  0  0  0  0
  5  8  1  0  0  0  0
  5 11  1  0  0  0  0
  5 13  1  0  0  0  0
  6  8  2  0  0  0  0
  7 14  1  0  0  0  0
  8 10  1  0  0  0  0
  9 10  2  0  0  0  0
  9 14  1  0  0  0  0
 11 15  2  0  0  0  0
 11 16  1  0  0  0  0
 12 17  2  0  0  0  0
 12 18  1  0  0  0  0
 13 19  2  0  0  0  0
 13 20  1  0  0  0  0
 15 21  1  0  0  0  0
 16 22  2  0  0  0  0
 17 24  1  0  0  0  0
 18 25  2  0  0  0  0
 19 26  1  0  0  0  0
 20 27  2  0  0  0  0
 21 23  2  0  0  0  0
 22 23  1  0  0  0  0
 24 28  2  0  0  0  0
 25 28  1  0  0  0  0
 26 29  2  0  0  0  0
 27 29  1  0  0  0  0
M  END
> <PUBCHEM_COMPOUND_ID_TYPE>
0

> <PUBCHEM_TOTAL_CHARGE>
0

> <PUBCHEM_SUBSTANCE_ID>
310934735

> <PUBCHEM_SUBSTANCE_VERSION>
1

> <PUBCHEM_EXT_DATASOURCE_NAME>
4488

> <PUBCHEM_EXT_DATASOURCE_REGID>
SCHEMBL16112236

> <PUBCHEM_SUBSTANCE_COMMENT>
InChI=1S/C22H17FN4O2/c23-16-11-13-18(14-12-16)26(17-7-3-1-4-8-17)21-15-20(22(28)25-29)27(24-21)19-9-5-2-6-10-19/h1-15,29H,(H,25,28)
InChIKey=HXZZNGAADQVFHE-UHFFFAOYSA-N

> <PUBCHEM_SUBSTANCE_SYNONYM>
SCHEMBL16112236

> <PUBCHEM_XREF_EXT_ID>
SCHEMBL16112236

> <PUBCHEM_EXT_DATASOURCE_URL>
https://www.surechembl.org/

> <PUBCHEM_EXT_SUBSTANCE_URL>
https://www.surechembl.org/chemical/SCHEMBL16112236

> <PUBCHEM_CID_ASSOCIATIONS>
86292244  1

> <PUBCHEM_COORDINATE_TYPE>
1
3

$$$$
