310932942
  -OEChem-07211613022D

 20 20  0     0  0  0  0  0  0999 V2000
    1.7085   -5.2571    0.0000 F   0  0  0  0  0  0  0  0  0  0  0  0
    2.9702   -4.5473    0.0000 F   0  0  0  0  0  0  0  0  0  0  0  0
    1.3142   -4.5473    0.0000 F   0  0  0  0  0  0  0  0  0  0  0  0
    3.5485   -1.2354    0.0000 O   0  0  0  0  0  0  0  0  0  0  0  0
    2.8388    0.0000    0.0000 O   0  0  0  0  0  0  0  0  0  0  0  0
    0.7097   -1.2354    0.0000 N   0  0  0  0  0  0  0  0  0  0  0  0
    2.1291   -2.0765    0.0000 C   0  0  0  0  0  0  0  0  0  0  0  0
    2.1291   -3.7063    0.0000 C   0  0  0  0  0  0  0  0  0  0  0  0
    2.1291   -1.2354    0.0000 C   0  0  0  0  0  0  0  0  0  0  0  0
    2.1291   -4.5473    0.0000 C   0  0  0  0  0  0  0  0  0  0  0  0
    2.8651   -2.4971    0.0000 C   0  0  0  0  0  0  0  0  0  0  0  0
    1.4194   -2.4971    0.0000 C   0  0  0  0  0  0  0  0  0  0  0  0
    2.8651   -3.3120    0.0000 C   0  0  0  0  0  0  0  0  0  0  0  0
    1.4194   -3.3120    0.0000 C   0  0  0  0  0  0  0  0  0  0  0  0
    2.8388   -0.8411    0.0000 C   0  0  0  0  0  0  0  0  0  0  0  0
    1.4194   -0.8148    0.0000 C   0  0  0  0  0  0  0  0  0  0  0  0
    4.2845   -0.8411    0.0000 C   0  0  0  0  0  0  0  0  0  0  0  0
    0.0000   -0.8148    0.0000 C   0  0  0  0  0  0  0  0  0  0  0  0
    0.7097   -2.0503    0.0000 C   0  0  0  0  0  0  0  0  0  0  0  0
    4.2845    0.0000    0.0000 C   0  0  0  0  0  0  0  0  0  0  0  0
  1 10  1  0  0  0  0
  2 10  1  0  0  0  0
  3 10  1  0  0  0  0
  4 15  1  0  0  0  0
  4 17  1  0  0  0  0
  5 15  2  0  0  0  0
  6 16  1  0  0  0  0
  6 18  1  0  0  0  0
  6 19  1  0  0  0  0
  7  9  1  0  0  0  0
  7 11  2  0  0  0  0
  7 12  1  0  0  0  0
  8 10  1  0  0  0  0
  8 13  2  0  0  0  0
  8 14  1  0  0  0  0
  9 15  1  0  0  0  0
  9 16  2  0  0  0  0
 11 13  1  0  0  0  0
 12 14  2  0  0  0  0
 17 20  1  0  0  0  0
M  END
> <PUBCHEM_COMPOUND_ID_TYPE>
0

> <PUBCHEM_TOTAL_CHARGE>
0

> <PUBCHEM_SUBSTANCE_ID>
310932942

> <PUBCHEM_SUBSTANCE_VERSION>
1

> <PUBCHEM_EXT_DATASOURCE_NAME>
4488

> <PUBCHEM_EXT_DATASOURCE_REGID>
SCHEMBL16110337

> <PUBCHEM_SUBSTANCE_COMMENT>
InChI=1S/C14H16F3NO2/c1-4-20-13(19)12(9-18(2)3)10-5-7-11(8-6-10)14(15,16)17/h5-9H,4H2,1-3H3/b12-9+
InChIKey=TWGUVAIDXIBORZ-FMIVXFBMSA-N

> <PUBCHEM_SUBSTANCE_SYNONYM>
SCHEMBL16110337

> <PUBCHEM_XREF_EXT_ID>
SCHEMBL16110337

> <PUBCHEM_EXT_DATASOURCE_URL>
https://www.surechembl.org/

> <PUBCHEM_EXT_SUBSTANCE_URL>
https://www.surechembl.org/chemical/SCHEMBL16110337

> <PUBCHEM_CID_ASSOCIATIONS>
117601422  1

> <PUBCHEM_COORDINATE_TYPE>
1
3

$$$$
