310941820
  -OEChem-07211613022D

 26 30  0     0  0  0  0  0  0999 V2000
    3.5528    1.1712    0.0000 S   0  0  0  0  0  0  0  0  0  0  0  0
   -0.6760   -1.0769    0.0000 O   0  0  0  0  0  0  0  0  0  0  0  0
    2.9554    1.7686    0.0000 O   0  0  0  0  0  0  0  0  0  0  0  0
    4.1345    0.5738    0.0000 O   0  0  0  0  0  0  0  0  0  0  0  0
    1.5091    0.1965    0.0000 N   0  0  0  0  0  0  0  0  0  0  0  0
    0.9589    1.4384    0.0000 N   0  0  0  0  0  0  0  0  0  0  0  0
    1.7922    1.5327    0.0000 N   0  0  0  0  0  0  0  0  0  0  0  0
    2.9554    0.5895    0.0000 N   0  0  0  0  0  0  0  0  0  0  0  0
   -2.1537   -1.0612    0.0000 C   0  0  0  0  0  0  0  0  0  0  0  0
    0.7546    0.6210    0.0000 C   0  0  0  0  0  0  0  0  0  0  0  0
   -3.3956   -1.5484    0.0000 C   0  0  0  0  0  0  0  0  0  0  0  0
   -3.7415   -1.0769    0.0000 C   0  0  0  0  0  0  0  0  0  0  0  0
   -2.9554   -0.0393    0.0000 C   0  0  0  0  0  0  0  0  0  0  0  0
   -2.5467   -1.7843    0.0000 C   0  0  0  0  0  0  0  0  0  0  0  0
   -2.9712   -1.2969    0.0000 C   0  0  0  0  0  0  0  0  0  0  0  0
   -2.1380   -0.2436    0.0000 C   0  0  0  0  0  0  0  0  0  0  0  0
    2.1223    0.7624    0.0000 C   0  0  0  0  0  0  0  0  0  0  0  0
   -1.4148   -0.6681    0.0000 C   0  0  0  0  0  0  0  0  0  0  0  0
    0.0314   -0.6524    0.0000 C   0  0  0  0  0  0  0  0  0  0  0  0
   -4.1345   -1.7843    0.0000 C   0  0  0  0  0  0  0  0  0  0  0  0
   -3.3642   -0.7310    0.0000 C   0  0  0  0  0  0  0  0  0  0  0  0
   -3.7415   -0.2279    0.0000 C   0  0  0  0  0  0  0  0  0  0  0  0
    0.0472    0.1965    0.0000 C   0  0  0  0  0  0  0  0  0  0  0  0
    1.4777   -0.6681    0.0000 C   0  0  0  0  0  0  0  0  0  0  0  0
    0.7860   -1.0612    0.0000 C   0  0  0  0  0  0  0  0  0  0  0  0
    4.1345    1.7843    0.0000 C   0  0  0  0  0  0  0  0  0  0  0  0
  1  3  2  0  0  0  0
  1  4  2  0  0  0  0
  1  8  1  0  0  0  0
  1 26  1  0  0  0  0
  2 18  1  0  0  0  0
  2 19  1  0  0  0  0
  5 10  1  0  0  0  0
  5 17  1  0  0  0  0
  5 24  1  0  0  0  0
  6  7  1  0  0  0  0
  6 10  2  0  0  0  0
  7 17  2  0  0  0  0
  8 17  1  0  0  0  0
  9 14  1  0  0  0  0
  9 15  1  0  0  0  0
  9 16  1  0  0  0  0
  9 18  1  0  0  0  0
 10 23  1  0  0  0  0
 11 14  1  0  0  0  0
 11 20  1  1  0  0  0
 11 21  1  0  0  0  0
 12 15  1  0  0  0  0
 12 20  1  0  0  0  0
 12 22  1  0  0  0  0
 13 16  1  0  0  0  0
 13 21  1  0  0  0  0
 13 22  1  0  0  0  0
 19 23  2  0  0  0  0
 19 25  1  0  0  0  0
 24 25  2  0  0  0  0
M  END
> <PUBCHEM_COMPOUND_ID_TYPE>
0

> <PUBCHEM_TOTAL_CHARGE>
0

> <PUBCHEM_SUBSTANCE_ID>
310941820

> <PUBCHEM_SUBSTANCE_VERSION>
1

> <PUBCHEM_EXT_DATASOURCE_NAME>
4488

> <PUBCHEM_EXT_DATASOURCE_REGID>
SCHEMBL16119852

> <PUBCHEM_SUBSTANCE_COMMENT>
InChI=1S/C18H24N4O3S/c1-26(23,24)21-17-20-19-16-7-15(2-3-22(16)17)25-11-18-8-12-4-13(9-18)6-14(5-12)10-18/h2-3,7,12-14H,4-6,8-11H2,1H3,(H,20,21)/t12-,13?,14?,18?
InChIKey=ZKUVXTDMDZFHMH-LQYJCAPXSA-N

> <PUBCHEM_SUBSTANCE_SYNONYM>
SCHEMBL16119852

> <PUBCHEM_XREF_EXT_ID>
SCHEMBL16119852

> <PUBCHEM_EXT_DATASOURCE_URL>
https://www.surechembl.org/

> <PUBCHEM_EXT_SUBSTANCE_URL>
https://www.surechembl.org/chemical/SCHEMBL16119852

> <PUBCHEM_CID_ASSOCIATIONS>
90460903  1

> <PUBCHEM_COORDINATE_TYPE>
1
3

> <PUBCHEM_BONDANNOTATIONS>
11  20  5

$$$$
