310945474
  -OEChem-07211613022D

 42 46  0     1  0  0  0  0  0999 V2000
    3.4929   -1.6667    0.0000 I   0  0  0  0  0  0  0  0  0  0  0  0
    0.6028   -0.8688    0.0000 O   0  0  0  0  0  0  0  0  0  0  0  0
    1.6135   -0.1773    0.0000 O   0  0  0  0  0  0  0  0  0  0  0  0
   -3.7589   -0.9397    0.0000 O   0  0  0  0  0  0  0  0  0  0  0  0
   -0.1241   -2.1277    0.0000 O   0  0  0  0  0  0  0  0  0  0  0  0
   -4.4681    0.2305    0.0000 O   0  0  0  0  0  0  0  0  0  0  0  0
    4.3795    1.9326    0.0000 O   0  0  0  0  0  0  0  0  0  0  0  0
    3.9716    3.3334    0.0000 O   0  0  0  0  0  0  0  0  0  0  0  0
    0.5496    1.6667    0.0000 C   0  0  3  0  0  0  0  0  0  0  0  0
    0.5319    0.8156    0.0000 C   0  0  3  0  0  0  0  0  0  0  0  0
   -0.1950    0.4078    0.0000 C   0  0  3  0  0  0  0  0  0  0  0  0
   -0.9043    0.7802    0.0000 C   0  0  3  0  0  0  0  0  0  0  0  0
   -1.6312    0.3901    0.0000 C   0  0  3  0  0  0  0  0  0  0  0  0
    1.3298    1.8972    0.0000 C   0  0  0  0  0  0  0  0  0  0  0  0
   -0.1595   -0.4433    0.0000 C   0  0  3  0  0  0  0  0  0  0  0  0
    1.3476    0.5674    0.0000 C   0  0  0  0  0  0  0  0  0  0  0  0
   -1.5957   -0.5142    0.0000 C   0  0  3  0  0  0  0  0  0  0  0  0
   -0.1773    2.0567    0.0000 C   0  0  0  0  0  0  0  0  0  0  0  0
   -0.9043    1.5957    0.0000 C   0  0  0  0  0  0  0  0  0  0  0  0
    1.8263    1.2412    0.0000 C   0  0  0  0  0  0  0  0  0  0  0  0
   -0.8511   -0.8688    0.0000 C   0  0  0  0  0  0  0  0  0  0  0  0
   -2.3405    0.7447    0.0000 C   0  0  0  0  0  0  0  0  0  0  0  0
    1.5957    2.6419    0.0000 C   0  0  3  0  0  0  0  0  0  0  0  0
    0.5142    2.4823    0.0000 C   0  0  0  0  0  0  0  0  0  0  0  0
   -2.2873   -0.9043    0.0000 C   0  0  0  0  0  0  0  0  0  0  0  0
   -1.6135    1.1880    0.0000 C   0  0  0  0  0  0  0  0  0  0  0  0
   -3.0319   -0.5142    0.0000 C   0  0  3  0  0  0  0  0  0  0  0  0
   -3.0674    0.3192    0.0000 C   0  0  0  0  0  0  0  0  0  0  0  0
    0.6028   -1.7022    0.0000 C   0  0  0  0  0  0  0  0  0  0  0  0
    2.3759    2.8724    0.0000 C   0  0  0  0  0  0  0  0  0  0  0  0
    0.9929    3.2093    0.0000 C   0  0  0  0  0  0  0  0  0  0  0  0
    1.3298   -2.1099    0.0000 C   0  0  0  0  0  0  0  0  0  0  0  0
    2.9433    2.3227    0.0000 C   0  0  0  0  0  0  0  0  0  0  0  0
   -4.4858   -0.5319    0.0000 C   0  0  0  0  0  0  0  0  0  0  0  0
    2.0390   -1.6844    0.0000 C   0  0  0  0  0  0  0  0  0  0  0  0
    1.3830   -2.9610    0.0000 C   0  0  0  0  0  0  0  0  0  0  0  0
    3.7235    2.4823    0.0000 C   0  0  0  0  0  0  0  0  0  0  0  0
    2.7837   -2.0922    0.0000 C   0  0  0  0  0  0  0  0  0  0  0  0
    2.1099   -3.3334    0.0000 C   0  0  0  0  0  0  0  0  0  0  0  0
    2.8015   -2.9256    0.0000 C   0  0  0  0  0  0  0  0  0  0  0  0
   -5.1419   -0.9397    0.0000 C   0  0  0  0  0  0  0  0  0  0  0  0
    5.1419    2.1986    0.0000 C   0  0  0  0  0  0  0  0  0  0  0  0
  1 38  1  0  0  0  0
 15  2  1  6  0  0  0
  2 29  1  0  0  0  0
  3 16  2  0  0  0  0
 27  4  1  6  0  0  0
  4 34  1  0  0  0  0
  5 29  2  0  0  0  0
  6 34  2  0  0  0  0
  7 37  1  0  0  0  0
  7 42  1  0  0  0  0
  8 37  2  0  0  0  0
  9 10  1  0  0  0  0
  9 14  1  0  0  0  0
  9 18  1  0  0  0  0
  9 24  1  0  0  0  0
 10 11  1  0  0  0  0
 10 16  1  1  0  0  0
 11 12  1  0  0  0  0
 11 15  1  0  0  0  0
 12 13  1  0  0  0  0
 12 19  1  0  0  0  0
 13 17  1  0  0  0  0
 13 22  1  0  0  0  0
 13 26  1  1  0  0  0
 14 20  2  0  0  0  0
 14 23  1  0  0  0  0
 15 21  1  0  0  0  0
 16 20  1  0  0  0  0
 17 21  1  6  0  0  0
 17 25  1  0  0  0  0
 18 19  1  0  0  0  0
 22 28  1  0  0  0  0
 23 30  1  0  0  0  0
 23 31  1  6  0  0  0
 25 27  1  0  0  0  0
 27 28  1  0  0  0  0
 29 32  1  0  0  0  0
 30 33  1  0  0  0  0
 32 35  1  0  0  0  0
 32 36  2  0  0  0  0
 33 37  1  0  0  0  0
 34 41  1  0  0  0  0
 35 38  2  0  0  0  0
 36 39  1  0  0  0  0
 38 40  1  0  0  0  0
 39 40  2  0  0  0  0
M  END
> <PUBCHEM_COMPOUND_ID_TYPE>
0

> <PUBCHEM_TOTAL_CHARGE>
0

> <PUBCHEM_SUBSTANCE_ID>
310945474

> <PUBCHEM_SUBSTANCE_VERSION>
1

> <PUBCHEM_EXT_DATASOURCE_NAME>
4488

> <PUBCHEM_EXT_DATASOURCE_REGID>
SCHEMBL16123572

> <PUBCHEM_SUBSTANCE_COMMENT>
InChI=1S/C34H43IO7/c1-19(9-10-29(38)40-5)26-18-27(37)31-30-25(12-14-34(26,31)4)33(3)13-11-24(41-20(2)36)16-22(33)17-28(30)42-32(39)21-7-6-8-23(35)15-21/h6-8,15,18-19,22,24-25,28,30-31H,9-14,16-17H2,1-5H3/t19-,22+,24-,25?,28-,30?,31+,33+,34?/m1/s1
InChIKey=RNWQYHLSMWPBLS-RVOWTFCLSA-N

> <PUBCHEM_SUBSTANCE_SYNONYM>
SCHEMBL16123572

> <PUBCHEM_XREF_EXT_ID>
SCHEMBL16123572

> <PUBCHEM_EXT_DATASOURCE_URL>
https://www.surechembl.org/

> <PUBCHEM_EXT_SUBSTANCE_URL>
https://www.surechembl.org/chemical/SCHEMBL16123572

> <PUBCHEM_CID_ASSOCIATIONS>
117611519  1

> <PUBCHEM_COORDINATE_TYPE>
1
3

> <PUBCHEM_BONDANNOTATIONS>
10  16  5
13  26  5
17  21  6
15  2  6
23  31  6
27  4  6

$$$$
