310929992
  -OEChem-07211613022D

 44 43  0     0  0  0  0  0  0999 V2000
    0.7145   -5.3626    0.0000 O   0  0  0  0  0  0  0  0  0  0  0  0
    0.0000   -6.6001    0.0000 N   0  0  0  0  0  0  0  0  0  0  0  0
   -2.1435   -2.8876    0.0000 N   0  0  0  0  0  0  0  0  0  0  0  0
    0.0000   -5.7751    0.0000 C   0  0  0  0  0  0  0  0  0  0  0  0
    0.7145   -7.0127    0.0000 C   0  0  0  0  0  0  0  0  0  0  0  0
   -0.7145   -7.0127    0.0000 C   0  0  0  0  0  0  0  0  0  0  0  0
   -0.7145   -5.3626    0.0000 C   0  0  0  0  0  0  0  0  0  0  0  0
    1.4290   -6.6001    0.0000 C   0  0  0  0  0  0  0  0  0  0  0  0
   -1.4290   -6.6001    0.0000 C   0  0  0  0  0  0  0  0  0  0  0  0
   -0.7145   -4.5376    0.0000 C   0  0  0  0  0  0  0  0  0  0  0  0
    2.1435   -7.0127    0.0000 C   0  0  0  0  0  0  0  0  0  0  0  0
   -2.1435   -7.0127    0.0000 C   0  0  0  0  0  0  0  0  0  0  0  0
   -1.4290   -4.1251    0.0000 C   0  0  0  0  0  0  0  0  0  0  0  0
    2.8579   -6.6001    0.0000 C   0  0  0  0  0  0  0  0  0  0  0  0
   -2.8579   -6.6001    0.0000 C   0  0  0  0  0  0  0  0  0  0  0  0
   -1.4290   -3.3001    0.0000 C   0  0  0  0  0  0  0  0  0  0  0  0
    3.5724   -7.0127    0.0000 C   0  0  0  0  0  0  0  0  0  0  0  0
   -3.5724   -7.0127    0.0000 C   0  0  0  0  0  0  0  0  0  0  0  0
    4.2869   -6.6001    0.0000 C   0  0  0  0  0  0  0  0  0  0  0  0
   -4.2869   -6.6001    0.0000 C   0  0  0  0  0  0  0  0  0  0  0  0
    5.0014   -7.0127    0.0000 C   0  0  0  0  0  0  0  0  0  0  0  0
   -5.0014   -7.0127    0.0000 C   0  0  0  0  0  0  0  0  0  0  0  0
    5.7159   -6.6001    0.0000 C   0  0  0  0  0  0  0  0  0  0  0  0
   -5.7159   -6.6001    0.0000 C   0  0  0  0  0  0  0  0  0  0  0  0
    6.4304   -7.0127    0.0000 C   0  0  0  0  0  0  0  0  0  0  0  0
   -6.4304   -7.0127    0.0000 C   0  0  0  0  0  0  0  0  0  0  0  0
    7.2554   -7.0127    0.0000 C   0  0  0  0  0  0  0  0  0  0  0  0
   -7.2554   -7.0127    0.0000 C   0  0  0  0  0  0  0  0  0  0  0  0
    7.9699   -6.6001    0.0000 C   0  0  0  0  0  0  0  0  0  0  0  0
   -7.9699   -6.6001    0.0000 C   0  0  0  0  0  0  0  0  0  0  0  0
    8.6844   -7.0127    0.0000 C   0  0  0  0  0  0  0  0  0  0  0  0
   -8.6844   -7.0127    0.0000 C   0  0  0  0  0  0  0  0  0  0  0  0
    9.5094   -7.0127    0.0000 C   0  0  0  0  0  0  0  0  0  0  0  0
   -9.5094   -7.0127    0.0000 C   0  0  0  0  0  0  0  0  0  0  0  0
   10.2239   -6.6001    0.0000 C   0  0  0  0  0  0  0  0  0  0  0  0
  -10.2239   -6.6001    0.0000 C   0  0  0  0  0  0  0  0  0  0  0  0
   10.9384   -7.0127    0.0000 C   0  0  0  0  0  0  0  0  0  0  0  0
  -10.9384   -7.0127    0.0000 C   0  0  0  0  0  0  0  0  0  0  0  0
   11.6529   -6.6001    0.0000 C   0  0  0  0  0  0  0  0  0  0  0  0
  -11.6529   -6.6001    0.0000 C   0  0  0  0  0  0  0  0  0  0  0  0
   12.3673   -7.0127    0.0000 C   0  0  0  0  0  0  0  0  0  0  0  0
  -12.3673   -7.0127    0.0000 C   0  0  0  0  0  0  0  0  0  0  0  0
   13.0818   -6.6001    0.0000 C   0  0  0  0  0  0  0  0  0  0  0  0
  -13.0818   -6.6001    0.0000 C   0  0  0  0  0  0  0  0  0  0  0  0
  1  4  2  0  0  0  0
  2  4  1  0  0  0  0
  2  5  1  0  0  0  0
  2  6  1  0  0  0  0
  3 16  1  0  0  0  0
  4  7  1  0  0  0  0
  5  8  1  0  0  0  0
  6  9  1  0  0  0  0
  7 10  1  0  0  0  0
  8 11  1  0  0  0  0
  9 12  1  0  0  0  0
 10 13  1  0  0  0  0
 11 14  1  0  0  0  0
 12 15  1  0  0  0  0
 13 16  1  0  0  0  0
 14 17  1  0  0  0  0
 15 18  1  0  0  0  0
 17 19  1  0  0  0  0
 18 20  1  0  0  0  0
 19 21  1  0  0  0  0
 20 22  1  0  0  0  0
 21 23  1  0  0  0  0
 22 24  1  0  0  0  0
 23 25  1  0  0  0  0
 24 26  1  0  0  0  0
 25 27  2  0  0  0  0
 26 28  2  0  0  0  0
 27 29  1  0  0  0  0
 28 30  1  0  0  0  0
 29 31  1  0  0  0  0
 30 32  1  0  0  0  0
 31 33  2  0  0  0  0
 32 34  2  0  0  0  0
 33 35  1  0  0  0  0
 34 36  1  0  0  0  0
 35 37  1  0  0  0  0
 36 38  1  0  0  0  0
 37 39  1  0  0  0  0
 38 40  1  0  0  0  0
 39 41  1  0  0  0  0
 40 42  1  0  0  0  0
 41 43  1  0  0  0  0
 42 44  1  0  0  0  0
M  END
> <PUBCHEM_COMPOUND_ID_TYPE>
0

> <PUBCHEM_TOTAL_CHARGE>
0

> <PUBCHEM_SUBSTANCE_ID>
310929992

> <PUBCHEM_SUBSTANCE_VERSION>
1

> <PUBCHEM_EXT_DATASOURCE_NAME>
4488

> <PUBCHEM_EXT_DATASOURCE_REGID>
SCHEMBL16107229

> <PUBCHEM_SUBSTANCE_COMMENT>
InChI=1S/C41H76N2O/c1-3-5-7-9-11-13-15-17-19-21-23-25-27-29-31-35-39-43(41(44)37-33-34-38-42)40-36-32-30-28-26-24-22-20-18-16-14-12-10-8-6-4-2/h11-14,17-20H,3-10,15-16,21-40,42H2,1-2H3/b13-11-,14-12-,19-17-,20-18-
InChIKey=PRYGUJBRBHFIDP-MAZCIEHSSA-N

> <PUBCHEM_SUBSTANCE_SYNONYM>
SCHEMBL16107229

> <PUBCHEM_XREF_EXT_ID>
SCHEMBL16107229

> <PUBCHEM_EXT_DATASOURCE_URL>
https://www.surechembl.org/

> <PUBCHEM_EXT_SUBSTANCE_URL>
https://www.surechembl.org/chemical/SCHEMBL16107229

> <PUBCHEM_CID_ASSOCIATIONS>
72948138  1

> <PUBCHEM_COORDINATE_TYPE>
1
3

$$$$
