310936798
  -OEChem-07211613022D

 48 52  0     1  0  0  0  0  0999 V2000
   -2.3833   -7.5163    0.0000 F   0  0  0  0  0  0  0  0  0  0  0  0
   -1.6491   -6.6096    0.0000 F   0  0  0  0  0  0  0  0  0  0  0  0
   -1.4766   -8.2506    0.0000 F   0  0  0  0  0  0  0  0  0  0  0  0
    1.5329   -9.2599    0.0000 F   0  0  0  0  0  0  0  0  0  0  0  0
    0.3805   -9.0774    0.0000 F   0  0  0  0  0  0  0  0  0  0  0  0
    1.7154   -8.1076    0.0000 F   0  0  0  0  0  0  0  0  0  0  0  0
    1.5562   -5.5787    0.0000 O   0  0  0  0  0  0  0  0  0  0  0  0
    3.7676   -3.8062    0.0000 O   0  0  0  0  0  0  0  0  0  0  0  0
    2.3569   -4.3457    0.0000 O   0  0  0  0  0  0  0  0  0  0  0  0
    3.4656   -1.2991    0.0000 O   0  0  0  0  0  0  0  0  0  0  0  0
    4.8946   -1.2991    0.0000 O   0  0  0  0  0  0  0  0  0  0  0  0
    0.8888   -4.4227    0.0000 N   0  0  0  0  0  0  0  0  0  0  0  0
    0.3742   -2.0018    0.0000 N   0  0  3  0  0  0  0  0  0  0  0  0
    1.7719   -1.7047    0.0000 N   0  0  0  0  0  0  0  0  0  0  0  0
    4.5926   -3.8062    0.0000 N   0  0  0  0  0  0  0  0  0  0  0  0
    0.7492   -5.7503    0.0000 C   0  0  3  0  0  0  0  0  0  0  0  0
    0.3367   -5.0358    0.0000 C   0  0  3  0  0  0  0  0  0  0  0  0
    0.4137   -6.5039    0.0000 C   0  0  0  0  0  0  0  0  0  0  0  0
    1.3303   -3.0637    0.0000 C   0  0  0  0  0  0  0  0  0  0  0  0
    1.6425   -4.7582    0.0000 C   0  0  0  0  0  0  0  0  0  0  0  0
    1.1588   -2.2567    0.0000 C   0  0  0  0  0  0  0  0  0  0  0  0
    0.7172   -3.6157    0.0000 C   0  0  0  0  0  0  0  0  0  0  0  0
    2.7281   -2.7666    0.0000 C   0  0  0  0  0  0  0  0  0  0  0  0
    3.5127   -3.0215    0.0000 C   0  0  0  0  0  0  0  0  0  0  0  0
   -0.7424   -7.3438    0.0000 C   0  0  0  0  0  0  0  0  0  0  0  0
    0.5631   -7.9250    0.0000 C   0  0  0  0  0  0  0  0  0  0  0  0
    0.8986   -7.1714    0.0000 C   0  0  0  0  0  0  0  0  0  0  0  0
   -0.4068   -6.5902    0.0000 C   0  0  0  0  0  0  0  0  0  0  0  0
    4.1801   -2.5366    0.0000 C   0  0  0  0  0  0  0  0  0  0  0  0
    2.1150   -3.3186    0.0000 C   0  0  0  0  0  0  0  0  0  0  0  0
   -0.2574   -8.0113    0.0000 C   0  0  0  0  0  0  0  0  0  0  0  0
   -1.5628   -7.4301    0.0000 C   0  0  0  0  0  0  0  0  0  0  0  0
    1.0480   -8.5925    0.0000 C   0  0  0  0  0  0  0  0  0  0  0  0
    2.5565   -1.9596    0.0000 C   0  0  0  0  0  0  0  0  0  0  0  0
    4.8476   -3.0215    0.0000 C   0  0  0  0  0  0  0  0  0  0  0  0
    4.1801   -1.7116    0.0000 C   0  0  0  0  0  0  0  0  0  0  0  0
   -0.4837   -4.9495    0.0000 C   0  0  0  0  0  0  0  0  0  0  0  0
    0.2027   -1.1948    0.0000 C   0  0  0  0  0  0  0  0  0  0  0  0
   -0.2389   -2.5538    0.0000 C   0  0  0  0  0  0  0  0  0  0  0  0
   -0.5820   -0.9399    0.0000 C   0  0  0  0  0  0  0  0  0  0  0  0
    0.8158   -0.6428    0.0000 C   0  0  0  0  0  0  0  0  0  0  0  0
    5.6322   -2.7666    0.0000 C   0  0  0  0  0  0  0  0  0  0  0  0
   -0.7535   -0.1329    0.0000 C   0  0  0  0  0  0  0  0  0  0  0  0
    0.6442    0.1642    0.0000 C   0  0  0  0  0  0  0  0  0  0  0  0
   -1.0235   -2.2989    0.0000 C   0  0  0  0  0  0  0  0  0  0  0  0
    3.4656   -0.4741    0.0000 C   0  0  0  0  0  0  0  0  0  0  0  0
   -0.1404    0.4191    0.0000 C   0  0  0  0  0  0  0  0  0  0  0  0
    4.1801   -0.0616    0.0000 C   0  0  0  0  0  0  0  0  0  0  0  0
  1 32  1  0  0  0  0
  2 32  1  0  0  0  0
  3 32  1  0  0  0  0
  4 33  1  0  0  0  0
  5 33  1  0  0  0  0
  6 33  1  0  0  0  0
 16  7  1  6  0  0  0
  7 20  1  0  0  0  0
  8 15  1  0  0  0  0
  8 24  1  0  0  0  0
  9 20  2  0  0  0  0
 10 36  1  0  0  0  0
 10 46  1  0  0  0  0
 11 36  2  0  0  0  0
 12 17  1  0  0  0  0
 12 20  1  0  0  0  0
 12 22  1  0  0  0  0
 13 21  1  0  0  0  0
 13 38  1  0  0  0  0
 13 39  1  0  0  0  0
 14 21  1  0  0  0  0
 14 34  2  0  0  0  0
 15 35  2  0  0  0  0
 16 17  1  0  0  0  0
 16 18  1  0  0  0  0
 17 37  1  6  0  0  0
 18 27  2  0  0  0  0
 18 28  1  0  0  0  0
 19 21  2  0  0  0  0
 19 22  1  0  0  0  0
 19 30  1  0  0  0  0
 23 24  1  0  0  0  0
 23 30  2  0  0  0  0
 23 34  1  0  0  0  0
 24 29  2  0  0  0  0
 25 28  2  0  0  0  0
 25 31  1  0  0  0  0
 25 32  1  0  0  0  0
 26 27  1  0  0  0  0
 26 31  2  0  0  0  0
 26 33  1  0  0  0  0
 29 35  1  0  0  0  0
 29 36  1  0  0  0  0
 35 42  1  0  0  0  0
 38 40  1  0  0  0  0
 38 41  1  0  0  0  0
 39 45  1  0  0  0  0
 40 43  1  0  0  0  0
 41 44  1  0  0  0  0
 43 47  1  0  0  0  0
 44 47  1  0  0  0  0
 46 48  1  0  0  0  0
M  END
> <PUBCHEM_COMPOUND_ID_TYPE>
0

> <PUBCHEM_TOTAL_CHARGE>
0

> <PUBCHEM_SUBSTANCE_ID>
310936798

> <PUBCHEM_SUBSTANCE_VERSION>
1

> <PUBCHEM_EXT_DATASOURCE_NAME>
4488

> <PUBCHEM_EXT_DATASOURCE_REGID>
SCHEMBL16114484

> <PUBCHEM_SUBSTANCE_COMMENT>
InChI=1S/C33H36F6N4O5/c1-5-42(25-10-8-7-9-11-25)29-22(12-21(16-40-29)28-26(18(3)41-48-28)30(44)46-6-2)17-43-19(4)27(47-31(43)45)20-13-23(32(34,35)36)15-24(14-20)33(37,38)39/h12-16,19,25,27H,5-11,17H2,1-4H3/t19-,27-/m0/s1
InChIKey=SRWJTGRBZIECQD-PPHZAIPVSA-N

> <PUBCHEM_SUBSTANCE_SYNONYM>
SCHEMBL16114484

> <PUBCHEM_XREF_EXT_ID>
SCHEMBL16114484

> <PUBCHEM_EXT_DATASOURCE_URL>
https://www.surechembl.org/

> <PUBCHEM_EXT_SUBSTANCE_URL>
https://www.surechembl.org/chemical/SCHEMBL16114484

> <PUBCHEM_CID_ASSOCIATIONS>
117604692  1

> <PUBCHEM_COORDINATE_TYPE>
1
3

> <PUBCHEM_BONDANNOTATIONS>
17  37  6
16  7  6

$$$$
