310949551
  -OEChem-07211613022D

137146  0     1  0  0  0  0  0999 V2000
   -6.9546   -1.3695    0.0000 S   0  0  0  0  0  0  0  0  0  0  0  0
   -3.8857    6.4514    0.0000 F   0  0  0  0  0  0  0  0  0  0  0  0
   -1.8892    4.4054    0.0000 F   0  0  0  0  0  0  0  0  0  0  0  0
   -2.3017    6.0059    0.0000 F   0  0  0  0  0  0  0  0  0  0  0  0
    1.0972    2.2109    0.0000 O   0  0  0  0  0  0  0  0  0  0  0  0
    3.2752    3.8444    0.0000 O   0  0  0  0  0  0  0  0  0  0  0  0
    1.5262    0.9899    0.0000 O   0  0  0  0  0  0  0  0  0  0  0  0
   -1.0807    3.8444    0.0000 O   0  0  0  0  0  0  0  0  0  0  0  0
    4.4797   -5.1644    0.0000 O   0  0  0  0  0  0  0  0  0  0  0  0
   -3.4896    1.8149    0.0000 O   0  0  0  0  0  0  0  0  0  0  0  0
    2.2852   -3.5309    0.0000 O   0  0  0  0  0  0  0  0  0  0  0  0
    5.8821    1.6004    0.0000 O   0  0  0  0  0  0  0  0  0  0  0  0
    9.8421   -0.0660    0.0000 O   0  0  0  0  0  0  0  0  0  0  0  0
    6.5257   -2.1285    0.0000 O   0  0  0  0  0  0  0  0  0  0  0  0
    0.1072   -5.1644    0.0000 O   0  0  0  0  0  0  0  0  0  0  0  0
    4.3477    4.1744    0.0000 O   0  0  0  0  0  0  0  0  0  0  0  0
    5.3376    5.1974    0.0000 O   0  0  0  0  0  0  0  0  0  0  0  0
   -5.1067    0.3300    0.0000 O   0  0  0  0  0  0  0  0  0  0  0  0
   -2.3347   -2.7885    0.0000 O   0  0  0  0  0  0  0  0  0  0  0  0
    2.0542   -1.7490    0.0000 O   0  0  0  0  0  0  0  0  0  0  0  0
   -5.1067   -4.1249    0.0000 O   0  0  0  0  0  0  0  0  0  0  0  0
   -4.9251   -6.2864    0.0000 O   0  0  0  0  0  0  0  0  0  0  0  0
   -7.3011   -3.8774    0.0000 O   0  0  0  0  0  0  0  0  0  0  0  0
   -9.6276   -2.6729    0.0000 O   0  0  0  0  0  0  0  0  0  0  0  0
    1.9222    3.0359    0.0000 N   0  0  0  0  0  0  0  0  0  0  0  0
   -0.2557    3.0194    0.0000 N   0  0  0  0  0  0  0  0  0  0  0  0
   -2.8792    2.8050    0.0000 N   0  0  0  0  0  0  0  0  0  0  0  0
    3.6547   -4.3229    0.0000 N   0  0  0  0  0  0  0  0  0  0  0  0
    4.1167    3.0194    0.0000 N   0  0  0  0  0  0  0  0  0  0  0  0
    8.1591   -1.6335    0.0000 N   0  0  0  0  0  0  0  0  0  0  0  0
    1.4767   -4.3559    0.0000 N   0  0  0  0  0  0  0  0  0  0  0  0
    5.7336   -4.0259    0.0000 N   0  0  0  0  0  0  0  0  0  0  0  0
    7.4166    2.1780    0.0000 N   0  0  0  0  0  0  0  0  0  0  0  0
   -1.2127   -2.3429    0.0000 N   0  0  0  0  0  0  0  0  0  0  0  0
   -5.9316    2.0295    0.0000 N   0  0  0  0  0  0  0  0  0  0  0  0
   -0.7013   -4.3229    0.0000 N   0  0  0  0  0  0  0  0  0  0  0  0
   -3.5227   -3.6299    0.0000 N   0  0  0  0  0  0  0  0  0  0  0  0
   -5.8161   -3.2834    0.0000 N   0  0  0  0  0  0  0  0  0  0  0  0
   -7.9941   -2.9370    0.0000 N   0  0  0  0  0  0  0  0  0  0  0  0
   -9.8421   -4.0920    0.0000 N   0  0  0  0  0  0  0  0  0  0  0  0
    2.5987    2.5740    0.0000 C   0  0  3  0  0  0  0  0  0  0  0  0
    1.0972    3.0690    0.0000 C   0  0  0  0  0  0  0  0  0  0  0  0
    0.4042    3.5144    0.0000 C   0  0  3  0  0  0  0  0  0  0  0  0
    1.7243    2.2109    0.0000 C   0  0  0  0  0  0  0  0  0  0  0  0
    3.3082    3.0359    0.0000 C   0  0  0  0  0  0  0  0  0  0  0  0
    2.5822    1.7160    0.0000 C   0  0  0  0  0  0  0  0  0  0  0  0
    1.9552    1.7160    0.0000 C   0  0  3  0  0  0  0  0  0  0  0  0
   -1.0807    3.0194    0.0000 C   0  0  0  0  0  0  0  0  0  0  0  0
   -1.7407    2.5574    0.0000 C   0  0  3  0  0  0  0  0  0  0  0  0
    0.4042    4.3394    0.0000 C   0  0  0  0  0  0  0  0  0  0  0  0
    2.9947   -4.8179    0.0000 C   0  0  3  0  0  0  0  0  0  0  0  0
    4.4962   -4.4714    0.0000 C   0  0  0  0  0  0  0  0  0  0  0  0
    5.5356    3.0194    0.0000 C   0  0  3  0  0  0  0  0  0  0  0  0
   -3.6876    2.6234    0.0000 C   0  0  0  0  0  0  0  0  0  0  0  0
    5.1396   -3.9764    0.0000 C   0  0  3  0  0  0  0  0  0  0  0  0
    2.2357   -4.3229    0.0000 C   0  0  0  0  0  0  0  0  0  0  0  0
   -1.7737    1.6995    0.0000 C   0  0  0  0  0  0  0  0  0  0  0  0
    0.0908   -2.6069    0.0000 C   0  0  0  0  0  0  0  0  0  0  0  0
    0.0083   -1.7984    0.0000 C   0  0  0  0  0  0  0  0  0  0  0  0
    0.8002   -3.8774    0.0000 C   0  0  3  0  0  0  0  0  0  0  0  0
    6.0966    2.4089    0.0000 C   0  0  0  0  0  0  0  0  0  0  0  0
   -4.4797    2.9039    0.0000 C   0  0  3  0  0  0  0  0  0  0  0  0
    0.0248    2.2109    0.0000 C   0  0  0  0  0  0  0  0  0  0  0  0
    7.8621   -2.7225    0.0000 C   0  0  3  0  0  0  0  0  0  0  0  0
   -0.8002   -1.6170    0.0000 C   0  0  0  0  0  0  0  0  0  0  0  0
    3.8197   -5.2634    0.0000 C   0  0  0  0  0  0  0  0  0  0  0  0
    2.7142   -5.5274    0.0000 C   0  0  0  0  0  0  0  0  0  0  0  0
    8.5716    1.5344    0.0000 C   0  0  3  0  0  0  0  0  0  0  0  0
    9.0006   -0.0495    0.0000 C   0  0  0  0  0  0  0  0  0  0  0  0
    7.0371   -2.7719    0.0000 C   0  0  0  0  0  0  0  0  0  0  0  0
    0.8333   -3.0359    0.0000 C   0  0  0  0  0  0  0  0  0  0  0  0
   -1.0478    1.3199    0.0000 C   0  0  0  0  0  0  0  0  0  0  0  0
    3.4896   -5.9564    0.0000 C   0  0  0  0  0  0  0  0  0  0  0  0
   -0.3052    4.7519    0.0000 C   0  0  0  0  0  0  0  0  0  0  0  0
    0.1237   -4.3229    0.0000 C   0  0  0  0  0  0  0  0  0  0  0  0
   -0.6517   -2.9534    0.0000 C   0  0  0  0  0  0  0  0  0  0  0  0
    5.7336    3.8279    0.0000 C   0  0  0  0  0  0  0  0  0  0  0  0
    5.0736   -3.1514    0.0000 C   0  0  0  0  0  0  0  0  0  0  0  0
   -2.8957    3.6464    0.0000 C   0  0  0  0  0  0  0  0  0  0  0  0
   -4.6446    3.7289    0.0000 C   0  0  0  0  0  0  0  0  0  0  0  0
    0.5528   -1.1879    0.0000 C   0  0  0  0  0  0  0  0  0  0  0  0
   -4.0672    4.2899    0.0000 C   0  0  0  0  0  0  0  0  0  0  0  0
    8.3736   -3.3659    0.0000 C   0  0  0  0  0  0  0  0  0  0  0  0
   -1.0312   -0.8250    0.0000 C   0  0  0  0  0  0  0  0  0  0  0  0
    8.9841    2.3100    0.0000 C   0  0  0  0  0  0  0  0  0  0  0  0
    4.2981   -2.7719    0.0000 C   0  0  0  0  0  0  0  0  0  0  0  0
   -0.8333    0.5115    0.0000 C   0  0  0  0  0  0  0  0  0  0  0  0
   -0.4702    1.8809    0.0000 C   0  0  0  0  0  0  0  0  0  0  0  0
    5.1396    4.4054    0.0000 C   0  0  0  0  0  0  0  0  0  0  0  0
   -1.7903   -4.1414    0.0000 C   0  0  3  0  0  0  0  0  0  0  0  0
    0.3052   -0.3960    0.0000 C   0  0  0  0  0  0  0  0  0  0  0  0
    8.0601   -4.1414    0.0000 C   0  0  0  0  0  0  0  0  0  0  0  0
   -0.5033   -0.2310    0.0000 C   0  0  0  0  0  0  0  0  0  0  0  0
   -3.2752    4.0589    0.0000 C   0  0  0  0  0  0  0  0  0  0  0  0
   -4.2652    5.0819    0.0000 C   0  0  0  0  0  0  0  0  0  0  0  0
    9.0006   -1.5180    0.0000 C   0  0  0  0  0  0  0  0  0  0  0  0
   -5.9481    0.5610    0.0000 C   0  0  0  0  0  0  0  0  0  0  0  0
   -0.3052    5.5769    0.0000 C   0  0  0  0  0  0  0  0  0  0  0  0
   -3.7042    5.6594    0.0000 C   0  0  0  0  0  0  0  0  0  0  0  0
   -2.6977    4.6529    0.0000 C   0  0  0  0  0  0  0  0  0  0  0  0
   -2.8957    5.4449    0.0000 C   0  0  0  0  0  0  0  0  0  0  0  0
   -2.6482   -3.3659    0.0000 C   0  0  0  0  0  0  0  0  0  0  0  0
    4.2321   -1.9800    0.0000 C   0  0  0  0  0  0  0  0  0  0  0  0
    3.6382   -3.2670    0.0000 C   0  0  0  0  0  0  0  0  0  0  0  0
   -0.0412    0.2970    0.0000 C   0  0  0  0  0  0  0  0  0  0  0  0
    0.3217    1.6664    0.0000 C   0  0  0  0  0  0  0  0  0  0  0  0
   -1.8892   -4.9829    0.0000 C   0  0  0  0  0  0  0  0  0  0  0  0
    7.2516   -4.2569    0.0000 C   0  0  0  0  0  0  0  0  0  0  0  0
    8.5551   -4.8014    0.0000 C   0  0  0  0  0  0  0  0  0  0  0  0
    8.5551    2.9865    0.0000 C   0  0  0  0  0  0  0  0  0  0  0  0
    9.8091    2.2934    0.0000 C   0  0  0  0  0  0  0  0  0  0  0  0
    0.5362    0.8910    0.0000 C   0  0  0  0  0  0  0  0  0  0  0  0
    3.4732   -1.6335    0.0000 C   0  0  0  0  0  0  0  0  0  0  0  0
    2.8957   -2.9205    0.0000 C   0  0  0  0  0  0  0  0  0  0  0  0
    2.8132   -2.0955    0.0000 C   0  0  0  0  0  0  0  0  0  0  0  0
   -6.7236    0.1155    0.0000 C   0  0  0  0  0  0  0  0  0  0  0  0
   -2.6317   -5.2964    0.0000 C   0  0  0  0  0  0  0  0  0  0  0  0
   -4.1167   -3.0854    0.0000 C   0  0  3  0  0  0  0  0  0  0  0  0
   -1.0312    5.9729    0.0000 C   0  0  0  0  0  0  0  0  0  0  0  0
    6.9546   -5.0159    0.0000 C   0  0  0  0  0  0  0  0  0  0  0  0
    8.2416   -5.5604    0.0000 C   0  0  0  0  0  0  0  0  0  0  0  0
   -4.9251   -3.3164    0.0000 C   0  0  0  0  0  0  0  0  0  0  0  0
    7.4331   -5.6594    0.0000 C   0  0  0  0  0  0  0  0  0  0  0  0
   -3.3247   -4.8179    0.0000 C   0  0  0  0  0  0  0  0  0  0  0  0
   -2.7472   -6.1214    0.0000 C   0  0  0  0  0  0  0  0  0  0  0  0
   -6.4101   -2.7059    0.0000 C   0  0  3  0  0  0  0  0  0  0  0  0
   -3.9352   -2.2605    0.0000 C   0  0  0  0  0  0  0  0  0  0  0  0
   -6.2781   -1.8975    0.0000 C   0  0  0  0  0  0  0  0  0  0  0  0
   -4.0507   -5.1479    0.0000 C   0  0  0  0  0  0  0  0  0  0  0  0
   -3.4896   -6.4514    0.0000 C   0  0  0  0  0  0  0  0  0  0  0  0
   -4.1827   -5.9564    0.0000 C   0  0  0  0  0  0  0  0  0  0  0  0
   -7.1691   -3.0524    0.0000 C   0  0  0  0  0  0  0  0  0  0  0  0
   -4.5786   -1.6995    0.0000 C   0  0  0  0  0  0  0  0  0  0  0  0
   -4.3806   -0.8910    0.0000 C   0  0  0  0  0  0  0  0  0  0  0  0
   -5.3542   -1.9635    0.0000 C   0  0  0  0  0  0  0  0  0  0  0  0
   -8.5056   -3.5804    0.0000 C   0  0  0  0  0  0  0  0  0  0  0  0
   -9.3140   -3.4484    0.0000 C   0  0  0  0  0  0  0  0  0  0  0  0
  1116  1  0  0  0  0
  1128  1  0  0  0  0
  2 99  1  0  0  0  0
  3100  1  0  0  0  0
  4101  1  0  0  0  0
  5 42  2  0  0  0  0
  6 45  2  0  0  0  0
 47  7  1  1  0  0  0
  8 48  2  0  0  0  0
  9 52  2  0  0  0  0
 10 54  2  0  0  0  0
 11 56  2  0  0  0  0
 12 61  2  0  0  0  0
 13 69  2  0  0  0  0
 14 70  2  0  0  0  0
 15 75  2  0  0  0  0
 16 89  2  0  0  0  0
 17 89  1  0  0  0  0
 18 97  2  0  0  0  0
 19102  2  0  0  0  0
 20115  1  0  0  0  0
 21122  2  0  0  0  0
 22131  1  0  0  0  0
 23132  2  0  0  0  0
 24137  2  0  0  0  0
 25 41  1  0  0  0  0
 25 42  1  0  0  0  0
 25 44  1  0  0  0  0
 26 43  1  0  0  0  0
 26 48  1  0  0  0  0
 26 63  1  0  0  0  0
 27 49  1  0  0  0  0
 27 54  1  0  0  0  0
 27 79  1  0  0  0  0
 51 28  1  6  0  0  0
 28 52  1  0  0  0  0
 28 66  1  0  0  0  0
 29 45  1  0  0  0  0
 29 53  1  0  0  0  0
 30 64  1  0  0  0  0
 30 69  1  0  0  0  0
 30 96  1  0  0  0  0
 31 56  1  0  0  0  0
 31 60  1  0  0  0  0
 32 55  1  0  0  0  0
 32 70  1  0  0  0  0
 33 61  1  0  0  0  0
 33 68  1  0  0  0  0
 34 65  1  0  0  0  0
 34 76  1  0  0  0  0
 35 62  1  0  0  0  0
 35 97  1  0  0  0  0
 36 75  1  0  0  0  0
 36 90  1  0  0  0  0
 37102  1  0  0  0  0
 37118  1  0  0  0  0
 38122  1  0  0  0  0
 38126  1  0  0  0  0
 39132  1  0  0  0  0
 39136  1  0  0  0  0
 40137  1  0  0  0  0
 41 45  1  0  0  0  0
 41 46  1  1  0  0  0
 42 43  1  0  0  0  0
 43 50  1  1  0  0  0
 44 47  1  0  0  0  0
 46 47  1  0  0  0  0
 48 49  1  0  0  0  0
 49 57  1  6  0  0  0
 50 74  1  0  0  0  0
 51 56  1  0  0  0  0
 51 67  1  0  0  0  0
 52 55  1  0  0  0  0
 53 61  1  0  0  0  0
 53 77  1  1  0  0  0
 54 62  1  0  0  0  0
 55 78  1  6  0  0  0
 57 72  1  0  0  0  0
 58 59  1  0  0  0  0
 58 71  1  0  0  0  0
 58 76  2  0  0  0  0
 59 65  2  0  0  0  0
 59 81  1  0  0  0  0
 60 71  1  6  0  0  0
 60 75  1  0  0  0  0
 62 80  1  1  0  0  0
 64 70  1  0  0  0  0
 64 83  1  1  0  0  0
 65 84  1  0  0  0  0
 66 73  1  0  0  0  0
 67 73  1  0  0  0  0
 68 69  1  0  0  0  0
 68 85  1  1  0  0  0
 72 87  2  0  0  0  0
 72 88  1  0  0  0  0
 74 98  1  0  0  0  0
 77 89  1  0  0  0  0
 78 86  1  0  0  0  0
 80 82  1  0  0  0  0
 81 91  2  0  0  0  0
 82 94  2  0  0  0  0
 82 95  1  0  0  0  0
 83 92  1  0  0  0  0
 84 93  2  0  0  0  0
 85110  1  0  0  0  0
 85111  1  0  0  0  0
 86103  2  0  0  0  0
 86104  1  0  0  0  0
 87105  1  0  0  0  0
 88106  2  0  0  0  0
 90102  1  0  0  0  0
 90107  1  1  0  0  0
 91 93  1  0  0  0  0
 92108  2  0  0  0  0
 92109  1  0  0  0  0
 94100  1  0  0  0  0
 95 99  2  0  0  0  0
 97116  1  0  0  0  0
 98119  1  0  0  0  0
 99101  1  0  0  0  0
100101  2  0  0  0  0
103113  1  0  0  0  0
104114  2  0  0  0  0
105112  2  0  0  0  0
106112  1  0  0  0  0
107117  1  0  0  0  0
108120  1  0  0  0  0
109121  2  0  0  0  0
113115  2  0  0  0  0
114115  1  0  0  0  0
117124  2  0  0  0  0
117125  1  0  0  0  0
118122  1  0  0  0  0
118127  1  6  0  0  0
120123  2  0  0  0  0
121123  1  0  0  0  0
124129  1  0  0  0  0
125130  2  0  0  0  0
126128  1  0  0  0  0
126132  1  6  0  0  0
127133  1  0  0  0  0
129131  2  0  0  0  0
130131  1  0  0  0  0
133134  1  0  0  0  0
133135  1  0  0  0  0
136137  1  0  0  0  0
M  END
> <PUBCHEM_COMPOUND_ID_TYPE>
0

> <PUBCHEM_TOTAL_CHARGE>
0

> <PUBCHEM_SUBSTANCE_ID>
310949551

> <PUBCHEM_SUBSTANCE_VERSION>
1

> <PUBCHEM_EXT_DATASOURCE_NAME>
4488

> <PUBCHEM_EXT_DATASOURCE_REGID>
SCHEMBL16127746

> <PUBCHEM_SUBSTANCE_COMMENT>
InChI=1S/C97H119F3N16O20S/c1-9-10-26-76-96(135)116-50-63(119)46-78(116)92(131)108-71(47-82(122)123)89(128)111-84(54(4)5)97(136)113(7)77(43-55-20-13-11-14-21-55)91(130)109-73(41-58-30-34-62(118)35-31-58)94(133)115-36-19-27-75(115)90(129)107-70(45-60-48-102-67-25-18-17-24-64(60)67)88(127)106-69(40-57-28-32-61(117)33-29-57)87(126)105-68(37-53(2)3)86(125)110-74(85(124)103-49-80(101)120)51-137-52-81(121)104-72(42-59-38-65(98)83(100)66(99)39-59)93(132)114(8)79(95(134)112(76)6)44-56-22-15-12-16-23-56/h11-18,20-25,28-35,38-39,48,53-54,63,68-79,84,102,117-119H,9-10,19,26-27,36-37,40-47,49-52H2,1-8H3,(H2,101,120)(H,103,124)(H,104,121)(H,105,126)(H,106,127)(H,107,129)(H,108,131)(H,109,130)(H,110,125)(H,111,128)(H,122,123)/t63-,68+,69+,70+,71+,72+,73+,74+,75-,76+,77+,78-,79+,84+/m1/s1
InChIKey=CKUWYCFKQKHPRJ-WQRFHFGHSA-N

> <PUBCHEM_SUBSTANCE_SYNONYM>
SCHEMBL16127746

> <PUBCHEM_XREF_EXT_ID>
SCHEMBL16127746

> <PUBCHEM_EXT_DATASOURCE_URL>
https://www.surechembl.org/

> <PUBCHEM_EXT_SUBSTANCE_URL>
https://www.surechembl.org/chemical/SCHEMBL16127746

> <PUBCHEM_CID_ASSOCIATIONS>
117614973  1

> <PUBCHEM_COORDINATE_TYPE>
1
3

> <PUBCHEM_BONDANNOTATIONS>
118  127  6
126  132  6
51  28  6
41  46  5
43  50  5
49  57  6
53  77  5
55  78  6
60  71  6
62  80  5
64  83  5
68  85  5
47  7  5
90  107  5

$$$$
