310938943
  -OEChem-07211613022D

 29 31  0     1  0  0  0  0  0999 V2000
    2.7069    7.1101    0.0000 O   0  0  0  0  0  0  0  0  0  0  0  0
   -0.5635    4.7457    0.0000 N   0  0  3  0  0  0  0  0  0  0  0  0
    1.6905    4.7457    0.0000 N   0  0  3  0  0  0  0  0  0  0  0  0
    0.5635    6.6976    0.0000 N   0  0  0  0  0  0  0  0  0  0  0  0
    0.1510    5.1582    0.0000 C   0  0  0  0  0  0  0  0  0  0  0  0
    0.9760    5.1582    0.0000 C   0  0  0  0  0  0  0  0  0  0  0  0
    0.5635    5.8726    0.0000 C   0  0  0  0  0  0  0  0  0  0  0  0
   -1.2780    5.1582    0.0000 C   0  0  3  0  0  0  0  0  0  0  0  0
    2.4049    5.1582    0.0000 C   0  0  0  0  0  0  0  0  0  0  0  0
    1.2780    7.1101    0.0000 C   0  0  3  0  0  0  0  0  0  0  0  0
   -1.9924    4.7457    0.0000 C   0  0  0  0  0  0  0  0  0  0  0  0
   -0.5635    3.9207    0.0000 C   0  0  0  0  0  0  0  0  0  0  0  0
    1.6905    3.9207    0.0000 C   0  0  0  0  0  0  0  0  0  0  0  0
    1.2780    7.9351    0.0000 C   0  0  0  0  0  0  0  0  0  0  0  0
   -1.2780    5.9832    0.0000 C   0  0  0  0  0  0  0  0  0  0  0  0
    1.9924    6.6976    0.0000 C   0  0  0  0  0  0  0  0  0  0  0  0
   -2.7069    5.1582    0.0000 C   0  0  0  0  0  0  0  0  0  0  0  0
   -1.9924    3.9207    0.0000 C   0  0  0  0  0  0  0  0  0  0  0  0
    3.1194    4.7457    0.0000 C   0  0  0  0  0  0  0  0  0  0  0  0
    2.4049    5.9832    0.0000 C   0  0  0  0  0  0  0  0  0  0  0  0
    1.9924    8.3476    0.0000 C   0  0  0  0  0  0  0  0  0  0  0  0
   -3.4214    4.7457    0.0000 C   0  0  0  0  0  0  0  0  0  0  0  0
   -2.7069    3.5082    0.0000 C   0  0  0  0  0  0  0  0  0  0  0  0
   -3.4214    3.9207    0.0000 C   0  0  0  0  0  0  0  0  0  0  0  0
    2.7069    7.9351    0.0000 C   0  0  0  0  0  0  0  0  0  0  0  0
    1.9924    9.1726    0.0000 C   0  0  0  0  0  0  0  0  0  0  0  0
    3.4214    8.3476    0.0000 C   0  0  0  0  0  0  0  0  0  0  0  0
    2.7069    9.5851    0.0000 C   0  0  0  0  0  0  0  0  0  0  0  0
    3.4214    9.1726    0.0000 C   0  0  0  0  0  0  0  0  0  0  0  0
  1 16  1  0  0  0  0
  2  5  1  0  0  0  0
  2  8  1  0  0  0  0
  2 12  1  0  0  0  0
  3  6  1  0  0  0  0
  3  9  1  0  0  0  0
  3 13  1  0  0  0  0
  4  7  2  0  0  0  0
 10  4  1  1  0  0  0
  5  6  2  0  0  0  0
  5  7  1  0  0  0  0
  6  7  1  0  0  0  0
  8 11  1  0  0  0  0
  8 15  1  1  0  0  0
  9 19  1  0  0  0  0
  9 20  1  0  0  0  0
 10 14  1  0  0  0  0
 10 16  1  0  0  0  0
 11 17  2  0  0  0  0
 11 18  1  0  0  0  0
 14 21  1  0  0  0  0
 17 22  1  0  0  0  0
 18 23  2  0  0  0  0
 21 25  2  0  0  0  0
 21 26  1  0  0  0  0
 22 24  2  0  0  0  0
 23 24  1  0  0  0  0
 25 27  1  0  0  0  0
 26 28  2  0  0  0  0
 27 29  2  0  0  0  0
 28 29  1  0  0  0  0
M  END
> <PUBCHEM_COMPOUND_ID_TYPE>
0

> <PUBCHEM_TOTAL_CHARGE>
0

> <PUBCHEM_SUBSTANCE_ID>
310938943

> <PUBCHEM_SUBSTANCE_VERSION>
1

> <PUBCHEM_EXT_DATASOURCE_NAME>
4488

> <PUBCHEM_EXT_DATASOURCE_REGID>
SCHEMBL16116862

> <PUBCHEM_SUBSTANCE_COMMENT>
InChI=1S/C25H33N3O/c1-18(2)27(4)24-23(26-22(17-29)16-20-12-8-6-9-13-20)25(24)28(5)19(3)21-14-10-7-11-15-21/h6-15,18-19,22,29H,16-17H2,1-5H3/b26-23+/t19-,22+/m1/s1
InChIKey=VCGXJGTXNAGHKP-QSFIDTTJSA-N

> <PUBCHEM_SUBSTANCE_SYNONYM>
SCHEMBL16116862

> <PUBCHEM_XREF_EXT_ID>
SCHEMBL16116862

> <PUBCHEM_EXT_DATASOURCE_URL>
https://www.surechembl.org/

> <PUBCHEM_EXT_SUBSTANCE_URL>
https://www.surechembl.org/chemical/SCHEMBL16116862

> <PUBCHEM_CID_ASSOCIATIONS>
117606338  1

> <PUBCHEM_COORDINATE_TYPE>
1
3

> <PUBCHEM_BONDANNOTATIONS>
10  4  5
8  15  5

$$$$
