310933745
  -OEChem-07211613022D

 16 18  0     0  0  0  0  0  0999 V2000
    2.1282   -2.4830    0.0000 N   0  0  0  0  0  0  0  0  0  0  0  0
    2.7933   -2.9707    0.0000 N   0  0  0  0  0  0  0  0  0  0  0  0
    1.7070   -3.7688    0.0000 N   0  0  0  0  0  0  0  0  0  0  0  0
    0.0000   -0.4212    0.0000 N   0  0  0  0  0  0  0  0  0  0  0  0
    2.1504   -1.6627    0.0000 C   0  0  0  0  0  0  0  0  0  0  0  0
    1.4410   -1.2415    0.0000 C   0  0  0  0  0  0  0  0  0  0  0  0
    1.4410   -0.4212    0.0000 C   0  0  0  0  0  0  0  0  0  0  0  0
    2.8598   -1.2415    0.0000 C   0  0  0  0  0  0  0  0  0  0  0  0
    1.4632   -2.9707    0.0000 C   0  0  0  0  0  0  0  0  0  0  0  0
    2.5273   -3.7688    0.0000 C   0  0  0  0  0  0  0  0  0  0  0  0
    0.7316   -1.6627    0.0000 C   0  0  0  0  0  0  0  0  0  0  0  0
    2.1504    0.0000    0.0000 C   0  0  0  0  0  0  0  0  0  0  0  0
    0.7316    0.0000    0.0000 C   0  0  0  0  0  0  0  0  0  0  0  0
    2.8598   -0.4212    0.0000 C   0  0  0  0  0  0  0  0  0  0  0  0
    0.0000   -1.2415    0.0000 C   0  0  0  0  0  0  0  0  0  0  0  0
    3.0150   -4.4339    0.0000 C   0  0  0  0  0  0  0  0  0  0  0  0
  1  2  1  0  0  0  0
  1  5  1  0  0  0  0
  1  9  1  0  0  0  0
  2 10  2  0  0  0  0
  3  9  2  0  0  0  0
  3 10  1  0  0  0  0
  4 13  2  0  0  0  0
  4 15  1  0  0  0  0
  5  6  1  0  0  0  0
  5  8  2  0  0  0  0
  6  7  2  0  0  0  0
  6 11  1  0  0  0  0
  7 12  1  0  0  0  0
  7 13  1  0  0  0  0
  8 14  1  0  0  0  0
 10 16  1  0  0  0  0
 11 15  2  0  0  0  0
 12 14  2  0  0  0  0
M  END
> <PUBCHEM_COMPOUND_ID_TYPE>
0

> <PUBCHEM_TOTAL_CHARGE>
0

> <PUBCHEM_SUBSTANCE_ID>
310933745

> <PUBCHEM_SUBSTANCE_VERSION>
1

> <PUBCHEM_EXT_DATASOURCE_NAME>
4488

> <PUBCHEM_EXT_DATASOURCE_REGID>
SCHEMBL16111180

> <PUBCHEM_SUBSTANCE_COMMENT>
InChI=1S/C12H10N4/c1-9-14-8-16(15-9)12-4-2-3-10-7-13-6-5-11(10)12/h2-8H,1H3
InChIKey=QQJSNYJJSQLIHC-UHFFFAOYSA-N

> <PUBCHEM_SUBSTANCE_SYNONYM>
SCHEMBL16111180

> <PUBCHEM_XREF_EXT_ID>
SCHEMBL16111180

> <PUBCHEM_EXT_DATASOURCE_URL>
https://www.surechembl.org/

> <PUBCHEM_EXT_SUBSTANCE_URL>
https://www.surechembl.org/chemical/SCHEMBL16111180

> <PUBCHEM_CID_ASSOCIATIONS>
117602104  1

> <PUBCHEM_COORDINATE_TYPE>
1
3

$$$$
