310936217
  -OEChem-07211613022D

 28 30  0     0  0  0  0  0  0999 V2000
    8.1070   -1.6754    0.0000 F   0  0  0  0  0  0  0  0  0  0  0  0
    4.3237   -0.9999    0.0000 O   0  0  0  0  0  0  0  0  0  0  0  0
    1.4052   -2.5132    0.0000 O   0  0  0  0  0  0  0  0  0  0  0  0
    4.0264   -3.7292    0.0000 O   0  0  0  0  0  0  0  0  0  0  0  0
    0.7026   -1.2430    0.0000 O   0  0  0  0  0  0  0  0  0  0  0  0
    1.4322    0.0000    0.0000 O   0  0  0  0  0  0  0  0  0  0  0  0
    5.3776   -3.2698    0.0000 N   0  0  0  0  0  0  0  0  0  0  0  0
    3.5400   -2.0808    0.0000 C   0  0  0  0  0  0  0  0  0  0  0  0
    4.3237   -2.3240    0.0000 C   0  0  0  0  0  0  0  0  0  0  0  0
    3.5400   -1.2430    0.0000 C   0  0  0  0  0  0  0  0  0  0  0  0
    4.8101   -1.6754    0.0000 C   0  0  0  0  0  0  0  0  0  0  0  0
    2.1348   -1.2430    0.0000 C   0  0  0  0  0  0  0  0  0  0  0  0
    2.8104   -2.4861    0.0000 C   0  0  0  0  0  0  0  0  0  0  0  0
    2.1348   -2.0808    0.0000 C   0  0  0  0  0  0  0  0  0  0  0  0
    2.8104   -0.8377    0.0000 C   0  0  0  0  0  0  0  0  0  0  0  0
    5.6208   -1.6754    0.0000 C   0  0  0  0  0  0  0  0  0  0  0  0
    4.5669   -3.1077    0.0000 C   0  0  0  0  0  0  0  0  0  0  0  0
    1.4052   -0.8377    0.0000 C   0  0  0  0  0  0  0  0  0  0  0  0
    6.0532   -0.9458    0.0000 C   0  0  0  0  0  0  0  0  0  0  0  0
    6.0532   -2.3780    0.0000 C   0  0  0  0  0  0  0  0  0  0  0  0
    6.8639   -0.9458    0.0000 C   0  0  0  0  0  0  0  0  0  0  0  0
    6.8639   -2.3780    0.0000 C   0  0  0  0  0  0  0  0  0  0  0  0
    1.4052   -3.3238    0.0000 C   0  0  0  0  0  0  0  0  0  0  0  0
    7.2692   -1.6754    0.0000 C   0  0  0  0  0  0  0  0  0  0  0  0
    5.6208   -4.0535    0.0000 C   0  0  0  0  0  0  0  0  0  0  0  0
    0.7026   -3.7562    0.0000 C   0  0  0  0  0  0  0  0  0  0  0  0
    2.1078   -3.7562    0.0000 C   0  0  0  0  0  0  0  0  0  0  0  0
    0.0000   -0.8377    0.0000 C   0  0  0  0  0  0  0  0  0  0  0  0
  1 24  1  0  0  0  0
  2 10  1  0  0  0  0
  2 11  1  0  0  0  0
  3 14  1  0  0  0  0
  3 23  1  0  0  0  0
  4 17  2  0  0  0  0
  5 18  1  0  0  0  0
  5 28  1  0  0  0  0
  6 18  2  0  0  0  0
  7 17  1  0  0  0  0
  7 25  1  0  0  0  0
  8  9  1  0  0  0  0
  8 10  2  0  0  0  0
  8 13  1  0  0  0  0
  9 11  2  0  0  0  0
  9 17  1  0  0  0  0
 10 15  1  0  0  0  0
 11 16  1  0  0  0  0
 12 14  1  0  0  0  0
 12 15  2  0  0  0  0
 12 18  1  0  0  0  0
 13 14  2  0  0  0  0
 16 19  2  0  0  0  0
 16 20  1  0  0  0  0
 19 21  1  0  0  0  0
 20 22  2  0  0  0  0
 21 24  2  0  0  0  0
 22 24  1  0  0  0  0
 23 26  1  0  0  0  0
 23 27  1  0  0  0  0
M  END
> <PUBCHEM_COMPOUND_ID_TYPE>
0

> <PUBCHEM_TOTAL_CHARGE>
0

> <PUBCHEM_SUBSTANCE_ID>
310936217

> <PUBCHEM_SUBSTANCE_VERSION>
1

> <PUBCHEM_EXT_DATASOURCE_NAME>
4488

> <PUBCHEM_EXT_DATASOURCE_REGID>
SCHEMBL16113829

> <PUBCHEM_SUBSTANCE_COMMENT>
InChI=1S/C21H20FNO5/c1-11(2)27-17-9-14-16(10-15(17)21(25)26-4)28-19(18(14)20(24)23-3)12-5-7-13(22)8-6-12/h5-11H,1-4H3,(H,23,24)
InChIKey=FPLDVLZSCSLUOY-UHFFFAOYSA-N

> <PUBCHEM_SUBSTANCE_SYNONYM>
SCHEMBL16113829

> <PUBCHEM_XREF_EXT_ID>
SCHEMBL16113829

> <PUBCHEM_EXT_DATASOURCE_URL>
https://www.surechembl.org/

> <PUBCHEM_EXT_SUBSTANCE_URL>
https://www.surechembl.org/chemical/SCHEMBL16113829

> <PUBCHEM_CID_ASSOCIATIONS>
117604170  1

> <PUBCHEM_COORDINATE_TYPE>
1
3

$$$$
