310931550
  -OEChem-07211613022D

 38 43  0     1  0  0  0  0  0999 V2000
    0.0512    0.0000    0.0000 Cl  0  0  0  0  0  0  0  0  0  0  0  0
    0.7674   -5.7812    0.0000 S   0  0  0  0  0  0  0  0  0  0  0  0
    5.0138   -7.3672    0.0000 F   0  0  0  0  0  0  0  0  0  0  0  0
    2.5581   -1.4325    0.0000 F   0  0  0  0  0  0  0  0  0  0  0  0
    4.1441   -5.8324    0.0000 O   0  0  0  0  0  0  0  0  0  0  0  0
    1.2279   -3.6325    0.0000 O   0  0  0  0  0  0  0  0  0  0  0  0
    1.6372  -10.2323    0.0000 O   0  0  0  0  0  0  0  0  0  0  0  0
    2.0465   -5.1161    0.0000 N   0  0  0  0  0  0  0  0  0  0  0  0
    3.7348   -7.9811    0.0000 N   0  0  0  0  0  0  0  0  0  0  0  0
    2.5069   -2.9162    0.0000 N   0  0  0  0  0  0  0  0  0  0  0  0
    0.8186   -4.3487    0.0000 N   0  0  0  0  0  0  0  0  0  0  0  0
    0.4604   -2.1999    0.0000 N   0  0  0  0  0  0  0  0  0  0  0  0
    2.4557   -5.8324    0.0000 C   0  0  3  0  0  0  0  0  0  0  0  0
    2.8650   -6.5486    0.0000 C   0  0  0  0  0  0  0  0  0  0  0  0
    2.9162   -5.0650    0.0000 C   0  0  0  0  0  0  0  0  0  0  0  0
    3.7348   -6.5486    0.0000 C   0  0  0  0  0  0  0  0  0  0  0  0
    3.7348   -5.1161    0.0000 C   0  0  0  0  0  0  0  0  0  0  0  0
    1.9953   -6.5486    0.0000 C   0  0  0  0  0  0  0  0  0  0  0  0
    2.4557   -7.3160    0.0000 C   0  0  0  0  0  0  0  0  0  0  0  0
    4.1441   -7.3160    0.0000 C   0  0  0  0  0  0  0  0  0  0  0  0
    2.4557   -4.3487    0.0000 C   0  0  0  0  0  0  0  0  0  0  0  0
    2.8650   -7.9811    0.0000 C   0  0  0  0  0  0  0  0  0  0  0  0
    4.1952   -4.3487    0.0000 C   0  0  0  0  0  0  0  0  0  0  0  0
    1.1767   -5.0650    0.0000 C   0  0  0  0  0  0  0  0  0  0  0  0
    2.9162   -3.6325    0.0000 C   0  0  0  0  0  0  0  0  0  0  0  0
    1.1767   -6.5486    0.0000 C   0  0  0  0  0  0  0  0  0  0  0  0
    3.7348   -3.6836    0.0000 C   0  0  0  0  0  0  0  0  0  0  0  0
    2.4557   -8.7486    0.0000 C   0  0  0  0  0  0  0  0  0  0  0  0
    1.6883   -2.9162    0.0000 C   0  0  0  0  0  0  0  0  0  0  0  0
    1.6372   -8.7486    0.0000 C   0  0  0  0  0  0  0  0  0  0  0  0
    2.8650   -9.4648    0.0000 C   0  0  0  0  0  0  0  0  0  0  0  0
    1.2790   -2.1999    0.0000 C   0  0  0  0  0  0  0  0  0  0  0  0
    1.6883   -1.4325    0.0000 C   0  0  0  0  0  0  0  0  0  0  0  0
    1.2279   -9.4648    0.0000 C   0  0  0  0  0  0  0  0  0  0  0  0
    2.4557  -10.1811    0.0000 C   0  0  0  0  0  0  0  0  0  0  0  0
    1.2790   -0.7162    0.0000 C   0  0  0  0  0  0  0  0  0  0  0  0
    0.4604   -0.7162    0.0000 C   0  0  0  0  0  0  0  0  0  0  0  0
    0.0000   -1.4325    0.0000 C   0  0  0  0  0  0  0  0  0  0  0  0
  1 37  1  0  0  0  0
  2 24  1  0  0  0  0
  2 26  1  0  0  0  0
  3 20  1  0  0  0  0
  4 33  1  0  0  0  0
  5 16  1  0  0  0  0
  5 17  1  0  0  0  0
  6 29  2  0  0  0  0
  7 34  1  0  0  0  0
  7 35  1  0  0  0  0
 13  8  1  1  0  0  0
  8 24  2  0  0  0  0
  9 20  1  0  0  0  0
  9 22  2  0  0  0  0
 10 25  1  0  0  0  0
 10 29  1  0  0  0  0
 11 24  1  0  0  0  0
 12 32  1  0  0  0  0
 12 38  2  0  0  0  0
 13 14  1  0  0  0  0
 13 15  1  0  0  0  0
 13 18  1  0  0  0  0
 14 16  1  0  0  0  0
 14 19  2  0  0  0  0
 15 17  2  0  0  0  0
 15 21  1  0  0  0  0
 16 20  2  0  0  0  0
 17 23  1  0  0  0  0
 18 26  1  0  0  0  0
 19 22  1  0  0  0  0
 21 25  2  0  0  0  0
 22 28  1  0  0  0  0
 23 27  2  0  0  0  0
 25 27  1  0  0  0  0
 28 30  2  0  0  0  0
 28 31  1  0  0  0  0
 29 32  1  0  0  0  0
 30 34  1  0  0  0  0
 31 35  1  0  0  0  0
 32 33  2  0  0  0  0
 33 36  1  0  0  0  0
 36 37  2  0  0  0  0
 37 38  1  0  0  0  0
M  END
> <PUBCHEM_COMPOUND_ID_TYPE>
0

> <PUBCHEM_TOTAL_CHARGE>
0

> <PUBCHEM_SUBSTANCE_ID>
310931550

> <PUBCHEM_SUBSTANCE_VERSION>
1

> <PUBCHEM_EXT_DATASOURCE_NAME>
4488

> <PUBCHEM_EXT_DATASOURCE_REGID>
SCHEMBL16108876

> <PUBCHEM_SUBSTANCE_COMMENT>
InChI=1S/C26H20ClF2N5O3S/c27-14-9-18(28)21(31-12-14)24(35)32-15-1-2-20-16(10-15)26(5-8-38-25(30)34-26)17-11-19(13-3-6-36-7-4-13)33-23(29)22(17)37-20/h1-3,9-12H,4-8H2,(H2,30,34)(H,32,35)/t26-/m0/s1
InChIKey=IKNNQADYEZQTQZ-SANMLTNESA-N

> <PUBCHEM_SUBSTANCE_SYNONYM>
SCHEMBL16108876

> <PUBCHEM_XREF_EXT_ID>
SCHEMBL16108876

> <PUBCHEM_EXT_DATASOURCE_URL>
https://www.surechembl.org/

> <PUBCHEM_EXT_SUBSTANCE_URL>
https://www.surechembl.org/chemical/SCHEMBL16108876

> <PUBCHEM_CID_ASSOCIATIONS>
117600298  1

> <PUBCHEM_COORDINATE_TYPE>
1
3

> <PUBCHEM_BONDANNOTATIONS>
13  8  5

$$$$
