310944410
  -OEChem-07211613022D

 10 10  0     0  0  0  0  0  0999 V2000
   -0.6481    1.6629    0.0000 Br  0  0  0  0  0  0  0  0  0  0  0  0
    1.3551    0.3273    0.0000 O   0  0  0  0  0  0  0  0  0  0  0  0
   -1.3421   -0.4321    0.0000 N   0  0  0  0  0  0  0  0  0  0  0  0
   -0.5827   -1.6629    0.0000 N   0  0  0  0  0  0  0  0  0  0  0  0
    0.0982    0.4321    0.0000 C   0  0  0  0  0  0  0  0  0  0  0  0
   -0.6612    0.8249    0.0000 C   0  0  0  0  0  0  0  0  0  0  0  0
   -0.5957   -0.8380    0.0000 C   0  0  0  0  0  0  0  0  0  0  0  0
    0.0982   -0.4059    0.0000 C   0  0  0  0  0  0  0  0  0  0  0  0
   -1.3551    0.3928    0.0000 C   0  0  0  0  0  0  0  0  0  0  0  0
    0.6350    0.7463    0.0000 C   0  0  0  0  0  0  0  0  0  0  0  0
  1  6  1  0  0  0  0
  2 10  1  0  0  0  0
  3  7  2  0  0  0  0
  3  9  1  0  0  0  0
  4  7  1  0  0  0  0
  5  6  1  0  0  0  0
  5  8  2  0  0  0  0
  5 10  1  0  0  0  0
  6  9  2  0  0  0  0
  7  8  1  0  0  0  0
M  END
> <PUBCHEM_COMPOUND_ID_TYPE>
0

> <PUBCHEM_TOTAL_CHARGE>
0

> <PUBCHEM_SUBSTANCE_ID>
310944410

> <PUBCHEM_SUBSTANCE_VERSION>
1

> <PUBCHEM_EXT_DATASOURCE_NAME>
4488

> <PUBCHEM_EXT_DATASOURCE_REGID>
SCHEMBL16122485

> <PUBCHEM_SUBSTANCE_COMMENT>
InChI=1S/C6H7BrN2O/c7-5-2-9-6(8)1-4(5)3-10/h1-2,10H,3H2,(H2,8,9)
InChIKey=WUKXICVURKZQSQ-UHFFFAOYSA-N

> <PUBCHEM_SUBSTANCE_SYNONYM>
SCHEMBL16122485

> <PUBCHEM_XREF_EXT_ID>
SCHEMBL16122485

> <PUBCHEM_EXT_DATASOURCE_URL>
https://www.surechembl.org/

> <PUBCHEM_EXT_SUBSTANCE_URL>
https://www.surechembl.org/chemical/SCHEMBL16122485

> <PUBCHEM_CID_ASSOCIATIONS>
84671196  1

> <PUBCHEM_COORDINATE_TYPE>
1
3

$$$$
