310931027
  -OEChem-07211613022D

 36 39  0     1  0  0  0  0  0999 V2000
   -3.5949   -3.1381    0.0000 O   0  0  0  0  0  0  0  0  0  0  0  0
    0.1536    1.3672    0.0000 O   0  0  0  0  0  0  0  0  0  0  0  0
   -0.9083   -3.7192    0.0000 O   0  0  0  0  0  0  0  0  0  0  0  0
   -2.7942   -1.9052    0.0000 O   0  0  0  0  0  0  0  0  0  0  0  0
   -1.2054    0.9256    0.0000 O   0  0  0  0  0  0  0  0  0  0  0  0
   -0.1435   -0.0305    0.0000 N   0  0  0  0  0  0  0  0  0  0  0  0
   -2.2673   -3.2777    0.0000 N   0  0  0  0  0  0  0  0  0  0  0  0
   -1.7575   -1.7084    0.0000 N   0  0  0  0  0  0  0  0  0  0  0  0
   -1.5025   -0.9238    0.0000 N   0  3  0  0  0  0  0  0  0  0  0  0
   -1.2476   -0.1392    0.0000 N   0  5  0  0  0  0  0  0  0  0  0  0
   -0.1435   -1.3654    0.0000 C   0  0  0  0  0  0  0  0  0  0  0  0
    0.6411   -1.1104    0.0000 C   0  0  0  0  0  0  0  0  0  0  0  0
    0.6411   -0.2854    0.0000 C   0  0  0  0  0  0  0  0  0  0  0  0
   -0.3984   -2.1500    0.0000 C   0  0  3  0  0  0  0  0  0  0  0  0
   -1.2054   -2.3215    0.0000 C   0  0  3  0  0  0  0  0  0  0  0  0
   -1.4604   -3.1062    0.0000 C   0  0  0  0  0  0  0  0  0  0  0  0
   -0.6284   -0.6979    0.0000 C   0  0  0  0  0  0  0  0  0  0  0  0
   -2.6029   -4.0314    0.0000 C   0  0  3  0  0  0  0  0  0  0  0  0
   -2.8804   -2.7256    0.0000 C   0  0  0  0  0  0  0  0  0  0  0  0
   -0.3984    0.7541    0.0000 C   0  0  0  0  0  0  0  0  0  0  0  0
    1.3556   -1.5229    0.0000 C   0  0  0  0  0  0  0  0  0  0  0  0
    1.3556    0.1271    0.0000 C   0  0  0  0  0  0  0  0  0  0  0  0
   -2.1904   -4.7458    0.0000 C   0  0  0  0  0  0  0  0  0  0  0  0
   -3.4234   -3.9451    0.0000 C   0  0  0  0  0  0  0  0  0  0  0  0
    0.1536   -2.7631    0.0000 C   0  0  0  0  0  0  0  0  0  0  0  0
    2.0701   -1.1104    0.0000 C   0  0  0  0  0  0  0  0  0  0  0  0
    2.0701   -0.2854    0.0000 C   0  0  0  0  0  0  0  0  0  0  0  0
   -1.3654   -4.7458    0.0000 C   0  0  0  0  0  0  0  0  0  0  0  0
   -2.6029   -5.4603    0.0000 C   0  0  0  0  0  0  0  0  0  0  0  0
   -0.1014    2.1518    0.0000 C   0  0  0  0  0  0  0  0  0  0  0  0
   -0.9529   -5.4603    0.0000 C   0  0  0  0  0  0  0  0  0  0  0  0
   -2.1904   -6.1748    0.0000 C   0  0  0  0  0  0  0  0  0  0  0  0
   -1.3654   -6.1748    0.0000 C   0  0  0  0  0  0  0  0  0  0  0  0
   -0.3563    2.9365    0.0000 C   0  0  0  0  0  0  0  0  0  0  0  0
   -0.8860    1.8969    0.0000 C   0  0  0  0  0  0  0  0  0  0  0  0
    0.6833    2.4068    0.0000 C   0  0  0  0  0  0  0  0  0  0  0  0
  1 19  1  0  0  0  0
  1 24  1  0  0  0  0
  2 20  1  0  0  0  0
  2 30  1  0  0  0  0
  3 16  2  0  0  0  0
  4 19  2  0  0  0  0
  5 20  2  0  0  0  0
  6 13  1  0  0  0  0
  6 17  1  0  0  0  0
  6 20  1  0  0  0  0
  7 16  1  0  0  0  0
  7 18  1  0  0  0  0
  7 19  1  0  0  0  0
  8  9  2  0  0  0  0
  8 15  1  0  0  0  0
  9 10  2  0  0  0  0
 11 12  1  0  0  0  0
 11 14  1  0  0  0  0
 11 17  2  0  0  0  0
 12 13  2  0  0  0  0
 12 21  1  0  0  0  0
 13 22  1  0  0  0  0
 14 15  1  0  0  0  0
 14 25  1  6  0  0  0
 15 16  1  1  0  0  0
 18 23  1  0  0  0  0
 18 24  1  0  0  0  0
 21 26  2  0  0  0  0
 22 27  2  0  0  0  0
 23 28  2  0  0  0  0
 23 29  1  0  0  0  0
 26 27  1  0  0  0  0
 28 31  1  0  0  0  0
 29 32  2  0  0  0  0
 30 34  1  0  0  0  0
 30 35  1  0  0  0  0
 30 36  1  0  0  0  0
 31 33  2  0  0  0  0
 32 33  1  0  0  0  0
M  CHG  2   9   1  10  -1
M  END
> <PUBCHEM_COMPOUND_ID_TYPE>
0

> <PUBCHEM_TOTAL_CHARGE>
0

> <PUBCHEM_SUBSTANCE_ID>
310931027

> <PUBCHEM_SUBSTANCE_VERSION>
1

> <PUBCHEM_EXT_DATASOURCE_NAME>
4488

> <PUBCHEM_EXT_DATASOURCE_REGID>
SCHEMBL16108328

> <PUBCHEM_SUBSTANCE_COMMENT>
InChI=1S/C26H27N5O5/c1-16(19-14-30(24(33)36-26(2,3)4)20-13-9-8-12-18(19)20)22(28-29-27)23(32)31-21(15-35-25(31)34)17-10-6-5-7-11-17/h5-14,16,21-22H,15H2,1-4H3/t16-,21?,22-/m0/s1
InChIKey=NVLAEGRRNJQTRE-URJRECBDSA-N

> <PUBCHEM_SUBSTANCE_SYNONYM>
SCHEMBL16108328

> <PUBCHEM_XREF_EXT_ID>
SCHEMBL16108328

> <PUBCHEM_EXT_DATASOURCE_URL>
https://www.surechembl.org/

> <PUBCHEM_EXT_SUBSTANCE_URL>
https://www.surechembl.org/chemical/SCHEMBL16108328

> <PUBCHEM_CID_ASSOCIATIONS>
117599945  1

> <PUBCHEM_COORDINATE_TYPE>
1
3

> <PUBCHEM_BONDANNOTATIONS>
14  25  6
15  16  5

$$$$
