310948545
  -OEChem-07211613022D

 46 50  0     0  0  0  0  0  0999 V2000
    4.8106   -2.5876    0.0000 S   0  0  0  0  0  0  0  0  0  0  0  0
   -3.0219   -0.2778    0.0000 F   0  0  0  0  0  0  0  0  0  0  0  0
   -2.1882   -0.2778    0.0000 F   0  0  0  0  0  0  0  0  0  0  0  0
    4.1855    3.2476    0.0000 F   0  0  0  0  0  0  0  0  0  0  0  0
    3.1954    2.6223    0.0000 F   0  0  0  0  0  0  0  0  0  0  0  0
    4.7758    2.2403    0.0000 F   0  0  0  0  0  0  0  0  0  0  0  0
    3.8033    1.6499    0.0000 O   0  0  0  0  0  0  0  0  0  0  0  0
    5.4879   -2.1014    0.0000 O   0  0  0  0  0  0  0  0  0  0  0  0
    4.1332   -3.0739    0.0000 O   0  0  0  0  0  0  0  0  0  0  0  0
   -5.4879   -2.6745    0.0000 O   0  0  0  0  0  0  0  0  0  0  0  0
    0.3647   -0.1563    0.0000 N   0  0  0  0  0  0  0  0  0  0  0  0
   -0.9899   -2.4140    0.0000 N   0  0  0  0  0  0  0  0  0  0  0  0
   -1.7888   -2.2403    0.0000 N   0  0  0  0  0  0  0  0  0  0  0  0
   -0.4689   -0.1563    0.0000 N   0  0  0  0  0  0  0  0  0  0  0  0
   -0.7294    0.6426    0.0000 N   0  0  0  0  0  0  0  0  0  0  0  0
   -4.0464   -1.0073    0.0000 N   0  0  0  0  0  0  0  0  0  0  0  0
    0.8510   -0.8162    0.0000 C   0  0  0  0  0  0  0  0  0  0  0  0
    0.5210   -1.5630    0.0000 C   0  0  0  0  0  0  0  0  0  0  0  0
   -0.5732   -1.6845    0.0000 C   0  0  0  0  0  0  0  0  0  0  0  0
    0.6426    0.6426    0.0000 C   0  0  0  0  0  0  0  0  0  0  0  0
   -1.8756   -1.4241    0.0000 C   0  0  0  0  0  0  0  0  0  0  0  0
    1.6845   -0.7467    0.0000 C   0  0  0  0  0  0  0  0  0  0  0  0
   -1.1288   -1.0767    0.0000 C   0  0  0  0  0  0  0  0  0  0  0  0
    2.1709   -1.3893    0.0000 C   0  0  0  0  0  0  0  0  0  0  0  0
    1.0073   -2.2403    0.0000 C   0  0  0  0  0  0  0  0  0  0  0  0
   -2.6050   -0.9725    0.0000 C   0  0  0  0  0  0  0  0  0  0  0  0
    1.4068    0.9031    0.0000 C   0  0  0  0  0  0  0  0  0  0  0  0
    1.8409   -2.1535    0.0000 C   0  0  0  0  0  0  0  0  0  0  0  0
    3.0045   -1.3025    0.0000 C   0  0  0  0  0  0  0  0  0  0  0  0
   -0.0694    1.1115    0.0000 C   0  0  0  0  0  0  0  0  0  0  0  0
    3.5080   -1.9797    0.0000 C   0  0  0  0  0  0  0  0  0  0  0  0
   -3.2997   -1.4068    0.0000 C   0  0  0  0  0  0  0  0  0  0  0  0
    4.3243   -1.9103    0.0000 C   0  0  0  0  0  0  0  0  0  0  0  0
    2.0320    0.3473    0.0000 C   0  0  0  0  0  0  0  0  0  0  0  0
    1.5977    1.7020    0.0000 C   0  0  0  0  0  0  0  0  0  0  0  0
   -0.6426   -3.1607    0.0000 C   0  0  0  0  0  0  0  0  0  0  0  0
    3.3517   -0.5732    0.0000 C   0  0  0  0  0  0  0  0  0  0  0  0
    3.0045    1.4068    0.0000 C   0  0  0  0  0  0  0  0  0  0  0  0
    2.8307    0.6078    0.0000 C   0  0  0  0  0  0  0  0  0  0  0  0
    2.3793    1.9451    0.0000 C   0  0  0  0  0  0  0  0  0  0  0  0
    4.6542   -1.1288    0.0000 C   0  0  0  0  0  0  0  0  0  0  0  0
    4.1855   -0.4863    0.0000 C   0  0  0  0  0  0  0  0  0  0  0  0
    3.9943    2.4487    0.0000 C   0  0  0  0  0  0  0  0  0  0  0  0
    5.2968   -3.2476    0.0000 C   0  0  0  0  0  0  0  0  0  0  0  0
   -4.7584   -1.4068    0.0000 C   0  0  0  0  0  0  0  0  0  0  0  0
   -4.7932   -2.2577    0.0000 C   0  0  0  0  0  0  0  0  0  0  0  0
  1  8  2  0  0  0  0
  1  9  2  0  0  0  0
  1 33  1  0  0  0  0
  1 44  1  0  0  0  0
  2 26  1  0  0  0  0
  3 26  1  0  0  0  0
  4 43  1  0  0  0  0
  5 43  1  0  0  0  0
  6 43  1  0  0  0  0
  7 38  1  0  0  0  0
  7 43  1  0  0  0  0
 10 46  1  0  0  0  0
 11 14  1  0  0  0  0
 11 17  1  0  0  0  0
 11 20  1  0  0  0  0
 12 13  1  0  0  0  0
 12 19  1  0  0  0  0
 12 36  1  0  0  0  0
 13 21  2  0  0  0  0
 14 15  2  0  0  0  0
 15 30  1  0  0  0  0
 16 32  1  0  0  0  0
 16 45  1  0  0  0  0
 17 18  2  0  0  0  0
 17 22  1  0  0  0  0
 18 19  1  0  0  0  0
 18 25  1  0  0  0  0
 19 23  2  0  0  0  0
 20 27  1  0  0  0  0
 20 30  2  0  0  0  0
 21 23  1  0  0  0  0
 21 26  1  0  0  0  0
 22 24  2  0  0  0  0
 24 28  1  0  0  0  0
 24 29  1  0  0  0  0
 25 28  2  0  0  0  0
 26 32  1  0  0  0  0
 27 34  2  0  0  0  0
 27 35  1  0  0  0  0
 29 31  1  0  0  0  0
 29 37  2  0  0  0  0
 31 33  2  0  0  0  0
 33 41  1  0  0  0  0
 34 39  1  0  0  0  0
 35 40  2  0  0  0  0
 37 42  1  0  0  0  0
 38 39  2  0  0  0  0
 38 40  1  0  0  0  0
 41 42  2  0  0  0  0
 45 46  1  0  0  0  0
M  END
> <PUBCHEM_COMPOUND_ID_TYPE>
0

> <PUBCHEM_TOTAL_CHARGE>
0

> <PUBCHEM_SUBSTANCE_ID>
310948545

> <PUBCHEM_SUBSTANCE_VERSION>
1

> <PUBCHEM_EXT_DATASOURCE_NAME>
4488

> <PUBCHEM_EXT_DATASOURCE_REGID>
SCHEMBL16126727

> <PUBCHEM_SUBSTANCE_COMMENT>
InChI=1S/C30H27F5N6O4S/c1-40-25(16-28(38-40)29(31,32)18-36-12-13-42)24-11-8-21(20-4-3-5-23(14-20)46(2,43)44)15-26(24)41-27(17-37-39-41)19-6-9-22(10-7-19)45-30(33,34)35/h3-11,14-17,36,42H,12-13,18H2,1-2H3
InChIKey=GZJMFKRVNSFHEY-UHFFFAOYSA-N

> <PUBCHEM_SUBSTANCE_SYNONYM>
SCHEMBL16126727

> <PUBCHEM_XREF_EXT_ID>
SCHEMBL16126727

> <PUBCHEM_EXT_DATASOURCE_URL>
https://www.surechembl.org/

> <PUBCHEM_EXT_SUBSTANCE_URL>
https://www.surechembl.org/chemical/SCHEMBL16126727

> <PUBCHEM_CID_ASSOCIATIONS>
86276045  1

> <PUBCHEM_COORDINATE_TYPE>
1
3

$$$$
