310931811
  -OEChem-07211613022D

 21 23  0     0  0  0  0  0  0999 V2000
    2.5559    7.7270    0.0000 O   0  0  0  0  0  0  0  0  0  0  0  0
    1.8414    4.0145    0.0000 O   0  0  0  0  0  0  0  0  0  0  0  0
    3.9849    4.4270    0.0000 O   0  0  0  0  0  0  0  0  0  0  0  0
    1.8414    6.4895    0.0000 C   0  0  0  0  0  0  0  0  0  0  0  0
    2.5559    5.2520    0.0000 C   0  0  0  0  0  0  0  0  0  0  0  0
    2.5559    4.4270    0.0000 C   0  0  0  0  0  0  0  0  0  0  0  0
    3.2704    4.0145    0.0000 C   0  0  0  0  0  0  0  0  0  0  0  0
    2.5559    6.9020    0.0000 C   0  0  0  0  0  0  0  0  0  0  0  0
    3.2704    3.1895    0.0000 C   0  0  0  0  0  0  0  0  0  0  0  0
    1.8414    5.6645    0.0000 C   0  0  0  0  0  0  0  0  0  0  0  0
    1.1270    6.9020    0.0000 C   0  0  0  0  0  0  0  0  0  0  0  0
    3.2704    5.6645    0.0000 C   0  0  0  0  0  0  0  0  0  0  0  0
    3.2704    6.4895    0.0000 C   0  0  0  0  0  0  0  0  0  0  0  0
    3.6829    2.4750    0.0000 C   0  0  0  0  0  0  0  0  0  0  0  0
    2.8579    2.4750    0.0000 C   0  0  0  0  0  0  0  0  0  0  0  0
    0.4125    6.4895    0.0000 C   0  0  0  0  0  0  0  0  0  0  0  0
    1.1270    7.7270    0.0000 C   0  0  0  0  0  0  0  0  0  0  0  0
   -0.3020    6.9020    0.0000 C   0  0  0  0  0  0  0  0  0  0  0  0
    0.4125    8.1395    0.0000 C   0  0  0  0  0  0  0  0  0  0  0  0
   -0.3020    7.7270    0.0000 C   0  0  0  0  0  0  0  0  0  0  0  0
    3.2704    8.1395    0.0000 C   0  0  0  0  0  0  0  0  0  0  0  0
  1  8  1  0  0  0  0
  1 21  1  0  0  0  0
  2  6  2  0  0  0  0
  3  7  2  0  0  0  0
  4  8  2  0  0  0  0
  4 10  1  0  0  0  0
  4 11  1  0  0  0  0
  5  6  1  0  0  0  0
  5 10  2  0  0  0  0
  5 12  1  0  0  0  0
  6  7  1  0  0  0  0
  7  9  1  0  0  0  0
  8 13  1  0  0  0  0
  9 14  1  0  0  0  0
  9 15  1  0  0  0  0
 11 16  2  0  0  0  0
 11 17  1  0  0  0  0
 12 13  2  0  0  0  0
 14 15  1  0  0  0  0
 16 18  1  0  0  0  0
 17 19  2  0  0  0  0
 18 20  2  0  0  0  0
 19 20  1  0  0  0  0
M  END
> <PUBCHEM_COMPOUND_ID_TYPE>
0

> <PUBCHEM_TOTAL_CHARGE>
0

> <PUBCHEM_SUBSTANCE_ID>
310931811

> <PUBCHEM_SUBSTANCE_VERSION>
1

> <PUBCHEM_EXT_DATASOURCE_NAME>
4488

> <PUBCHEM_EXT_DATASOURCE_REGID>
SCHEMBL16109144

> <PUBCHEM_SUBSTANCE_COMMENT>
InChI=1S/C18H16O3/c1-21-16-10-9-14(18(20)17(19)13-7-8-13)11-15(16)12-5-3-2-4-6-12/h2-6,9-11,13H,7-8H2,1H3
InChIKey=CPEDWHJZYMJTPH-UHFFFAOYSA-N

> <PUBCHEM_SUBSTANCE_SYNONYM>
SCHEMBL16109144

> <PUBCHEM_XREF_EXT_ID>
SCHEMBL16109144

> <PUBCHEM_EXT_DATASOURCE_URL>
https://www.surechembl.org/

> <PUBCHEM_EXT_SUBSTANCE_URL>
https://www.surechembl.org/chemical/SCHEMBL16109144

> <PUBCHEM_CID_ASSOCIATIONS>
117600488  1

> <PUBCHEM_COORDINATE_TYPE>
1
3

$$$$
