310938657
  -OEChem-07211613022D

 24 26  0     0  0  0  0  0  0999 V2000
    1.2428   -3.1536    0.0000 O   0  0  0  0  0  0  0  0  0  0  0  0
    1.9102   -4.4636    0.0000 N   0  0  0  0  0  0  0  0  0  0  0  0
    3.4216   -4.2646    0.0000 N   0  0  0  0  0  0  0  0  0  0  0  0
    1.2428   -3.9786    0.0000 C   0  0  0  0  0  0  0  0  0  0  0  0
    0.5753   -4.4636    0.0000 C   0  0  0  0  0  0  0  0  0  0  0  0
    1.6553   -5.2482    0.0000 C   0  0  0  0  0  0  0  0  0  0  0  0
    0.8303   -5.2482    0.0000 C   0  0  0  0  0  0  0  0  0  0  0  0
   -0.1391   -4.0511    0.0000 C   0  0  0  0  0  0  0  0  0  0  0  0
    2.6247   -4.0511    0.0000 C   0  0  0  0  0  0  0  0  0  0  0  0
   -0.7225   -4.6344    0.0000 C   0  0  0  0  0  0  0  0  0  0  0  0
    2.0678   -5.9626    0.0000 C   0  0  0  0  0  0  0  0  0  0  0  0
   -1.5194   -4.4209    0.0000 C   0  0  0  0  0  0  0  0  0  0  0  0
   -0.5090   -5.4313    0.0000 C   0  0  0  0  0  0  0  0  0  0  0  0
   -1.8892   -5.8011    0.0000 C   0  0  0  0  0  0  0  0  0  0  0  0
   -2.1027   -5.0043    0.0000 C   0  0  0  0  0  0  0  0  0  0  0  0
   -1.0923   -6.0147    0.0000 C   0  0  0  0  0  0  0  0  0  0  0  0
    4.0049   -3.6812    0.0000 C   0  0  0  0  0  0  0  0  0  0  0  0
    3.6351   -5.0615    0.0000 C   0  0  0  0  0  0  0  0  0  0  0  0
   -2.4726   -6.3845    0.0000 C   0  0  0  0  0  0  0  0  0  0  0  0
    4.8018   -3.8947    0.0000 C   0  0  0  0  0  0  0  0  0  0  0  0
    4.4320   -5.2750    0.0000 C   0  0  0  0  0  0  0  0  0  0  0  0
    5.0154   -4.6916    0.0000 C   0  0  0  0  0  0  0  0  0  0  0  0
   -3.2695   -6.1710    0.0000 C   0  0  0  0  0  0  0  0  0  0  0  0
   -2.2591   -7.1814    0.0000 C   0  0  0  0  0  0  0  0  0  0  0  0
  1  4  2  0  0  0  0
  2  4  1  0  0  0  0
  2  6  1  0  0  0  0
  2  9  1  0  0  0  0
  3  9  1  0  0  0  0
  3 17  1  0  0  0  0
  3 18  1  0  0  0  0
  4  5  1  0  0  0  0
  5  7  1  0  0  0  0
  5  8  2  0  0  0  0
  6  7  1  0  0  0  0
  6 11  2  0  0  0  0
  8 10  1  0  0  0  0
 10 12  2  0  0  0  0
 10 13  1  0  0  0  0
 12 15  1  0  0  0  0
 13 16  2  0  0  0  0
 14 15  2  0  0  0  0
 14 16  1  0  0  0  0
 14 19  1  0  0  0  0
 17 20  1  0  0  0  0
 18 21  1  0  0  0  0
 19 23  1  0  0  0  0
 19 24  1  0  0  0  0
 20 22  1  0  0  0  0
 21 22  1  0  0  0  0
M  END
> <PUBCHEM_COMPOUND_ID_TYPE>
0

> <PUBCHEM_TOTAL_CHARGE>
0

> <PUBCHEM_SUBSTANCE_ID>
310938657

> <PUBCHEM_SUBSTANCE_VERSION>
1

> <PUBCHEM_EXT_DATASOURCE_NAME>
4488

> <PUBCHEM_EXT_DATASOURCE_REGID>
SCHEMBL16116571

> <PUBCHEM_SUBSTANCE_COMMENT>
InChI=1S/C21H28N2O/c1-16(2)19-9-7-18(8-10-19)14-20-13-17(3)23(21(20)24)15-22-11-5-4-6-12-22/h7-10,14,16H,3-6,11-13,15H2,1-2H3/b20-14+
InChIKey=CHJAVOATSYBGJO-XSFVSMFZSA-N

> <PUBCHEM_SUBSTANCE_SYNONYM>
SCHEMBL16116571

> <PUBCHEM_XREF_EXT_ID>
SCHEMBL16116571

> <PUBCHEM_EXT_DATASOURCE_URL>
https://www.surechembl.org/

> <PUBCHEM_EXT_SUBSTANCE_URL>
https://www.surechembl.org/chemical/SCHEMBL16116571

> <PUBCHEM_CID_ASSOCIATIONS>
117606089  1

> <PUBCHEM_COORDINATE_TYPE>
1
3

$$$$
