310930169
  -OEChem-07211613022D

 27 30  0     0  0  0  0  0  0999 V2000
    4.8931   -2.8448    0.0000 O   0  0  0  0  0  0  0  0  0  0  0  0
    0.0000   -4.2673    0.0000 O   0  0  0  0  0  0  0  0  0  0  0  0
    1.2233   -4.9501    0.0000 O   0  0  0  0  0  0  0  0  0  0  0  0
    3.6414   -2.1336    0.0000 N   0  0  0  0  0  0  0  0  0  0  0  0
    1.2233   -3.5561    0.0000 N   0  0  0  0  0  0  0  0  0  0  0  0
    3.2431   -1.4224    0.0000 C   0  0  0  0  0  0  0  0  0  0  0  0
    2.4181   -1.4224    0.0000 C   0  0  0  0  0  0  0  0  0  0  0  0
    3.6414   -0.7112    0.0000 C   0  0  0  0  0  0  0  0  0  0  0  0
    2.0198   -2.1336    0.0000 C   0  0  0  0  0  0  0  0  0  0  0  0
    4.4664   -2.1336    0.0000 C   0  0  0  0  0  0  0  0  0  0  0  0
    2.0198   -0.7112    0.0000 C   0  0  0  0  0  0  0  0  0  0  0  0
    4.4664   -0.7112    0.0000 C   0  0  0  0  0  0  0  0  0  0  0  0
    3.2431    0.0000    0.0000 C   0  0  0  0  0  0  0  0  0  0  0  0
    2.4750   -2.8448    0.0000 C   0  0  0  0  0  0  0  0  0  0  0  0
    1.2233   -2.1336    0.0000 C   0  0  0  0  0  0  0  0  0  0  0  0
    4.8931   -1.4224    0.0000 C   0  0  0  0  0  0  0  0  0  0  0  0
    2.4181    0.0000    0.0000 C   0  0  0  0  0  0  0  0  0  0  0  0
    2.0198   -3.5561    0.0000 C   0  0  0  0  0  0  0  0  0  0  0  0
    0.7681   -2.8448    0.0000 C   0  0  0  0  0  0  0  0  0  0  0  0
    0.8250   -4.2673    0.0000 C   0  0  0  0  0  0  0  0  0  0  0  0
    4.4664   -3.5561    0.0000 C   0  0  0  0  0  0  0  0  0  0  0  0
    4.8931   -4.2673    0.0000 C   0  0  0  0  0  0  0  0  0  0  0  0
    4.4664   -4.9785    0.0000 C   0  0  0  0  0  0  0  0  0  0  0  0
    5.7181   -4.2673    0.0000 C   0  0  0  0  0  0  0  0  0  0  0  0
    4.8647   -5.6897    0.0000 C   0  0  0  0  0  0  0  0  0  0  0  0
    6.1164   -4.9785    0.0000 C   0  0  0  0  0  0  0  0  0  0  0  0
    5.7181   -5.6897    0.0000 C   0  0  0  0  0  0  0  0  0  0  0  0
  1 10  1  0  0  0  0
  1 21  1  0  0  0  0
  2 20  2  0  0  0  0
  3 20  1  0  0  0  0
  4  6  2  0  0  0  0
  4 10  1  0  0  0  0
  5 18  1  0  0  0  0
  5 19  1  0  0  0  0
  5 20  1  0  0  0  0
  6  7  1  0  0  0  0
  6  8  1  0  0  0  0
  7  9  1  0  0  0  0
  7 11  2  0  0  0  0
  8 12  2  0  0  0  0
  8 13  1  0  0  0  0
  9 14  2  0  0  0  0
  9 15  1  0  0  0  0
 10 16  2  0  0  0  0
 11 17  1  0  0  0  0
 12 16  1  0  0  0  0
 13 17  2  0  0  0  0
 14 18  1  0  0  0  0
 15 19  1  0  0  0  0
 21 22  1  0  0  0  0
 22 23  2  0  0  0  0
 22 24  1  0  0  0  0
 23 25  1  0  0  0  0
 24 26  2  0  0  0  0
 25 27  2  0  0  0  0
 26 27  1  0  0  0  0
M  END
> <PUBCHEM_COMPOUND_ID_TYPE>
0

> <PUBCHEM_TOTAL_CHARGE>
0

> <PUBCHEM_SUBSTANCE_ID>
310930169

> <PUBCHEM_SUBSTANCE_VERSION>
1

> <PUBCHEM_EXT_DATASOURCE_NAME>
4488

> <PUBCHEM_EXT_DATASOURCE_REGID>
SCHEMBL16107429

> <PUBCHEM_SUBSTANCE_COMMENT>
InChI=1S/C22H20N2O3/c25-22(26)24-13-11-17(12-14-24)19-8-4-7-18-9-10-20(23-21(18)19)27-15-16-5-2-1-3-6-16/h1-11H,12-15H2,(H,25,26)
InChIKey=IIEKSTZGLNLZLB-UHFFFAOYSA-N

> <PUBCHEM_SUBSTANCE_SYNONYM>
SCHEMBL16107429

> <PUBCHEM_XREF_EXT_ID>
SCHEMBL16107429

> <PUBCHEM_EXT_DATASOURCE_URL>
https://www.surechembl.org/

> <PUBCHEM_EXT_SUBSTANCE_URL>
https://www.surechembl.org/chemical/SCHEMBL16107429

> <PUBCHEM_CID_ASSOCIATIONS>
117599389  1

> <PUBCHEM_COORDINATE_TYPE>
1
3

$$$$
