310937609
  -OEChem-07211613022D

 17 18  0     0  0  0  0  0  0999 V2000
    2.8670   -3.7126    0.0000 O   0  0  0  0  0  0  0  0  0  0  0  0
    3.5682   -2.4751    0.0000 O   0  0  0  0  0  0  0  0  0  0  0  0
    1.4231   -1.2376    0.0000 N   0  0  0  0  0  0  0  0  0  0  0  0
    3.5888   -1.6294    0.0000 N   0  0  0  0  0  0  0  0  0  0  0  0
    2.8876   -0.4125    0.0000 N   0  0  0  0  0  0  0  0  0  0  0  0
    2.1451   -1.6501    0.0000 C   0  0  0  0  0  0  0  0  0  0  0  0
    2.1451   -2.4751    0.0000 C   0  0  0  0  0  0  0  0  0  0  0  0
    2.8464   -1.2376    0.0000 C   0  0  0  0  0  0  0  0  0  0  0  0
    2.8670   -2.8876    0.0000 C   0  0  0  0  0  0  0  0  0  0  0  0
    1.4231   -2.8876    0.0000 C   0  0  0  0  0  0  0  0  0  0  0  0
    0.7013   -2.4751    0.0000 C   0  0  0  0  0  0  0  0  0  0  0  0
    0.7013   -1.6501    0.0000 C   0  0  0  0  0  0  0  0  0  0  0  0
    4.2901   -1.2376    0.0000 C   0  0  0  0  0  0  0  0  0  0  0  0
    3.5888    0.0000    0.0000 C   0  0  0  0  0  0  0  0  0  0  0  0
    4.3108   -0.3919    0.0000 C   0  0  0  0  0  0  0  0  0  0  0  0
    0.0000   -2.8876    0.0000 C   0  0  0  0  0  0  0  0  0  0  0  0
    3.5888   -4.1251    0.0000 C   0  0  0  0  0  0  0  0  0  0  0  0
  1  9  1  0  0  0  0
  1 17  1  0  0  0  0
  2  9  2  0  0  0  0
  3  6  1  0  0  0  0
  3 12  2  0  0  0  0
  4  8  2  0  0  0  0
  4 13  1  0  0  0  0
  5  8  1  0  0  0  0
  5 14  2  0  0  0  0
  6  7  2  0  0  0  0
  6  8  1  0  0  0  0
  7  9  1  0  0  0  0
  7 10  1  0  0  0  0
 10 11  2  0  0  0  0
 11 12  1  0  0  0  0
 11 16  1  0  0  0  0
 13 15  2  0  0  0  0
 14 15  1  0  0  0  0
M  END
> <PUBCHEM_COMPOUND_ID_TYPE>
0

> <PUBCHEM_TOTAL_CHARGE>
0

> <PUBCHEM_SUBSTANCE_ID>
310937609

> <PUBCHEM_SUBSTANCE_VERSION>
1

> <PUBCHEM_EXT_DATASOURCE_NAME>
4488

> <PUBCHEM_EXT_DATASOURCE_REGID>
SCHEMBL16115391

> <PUBCHEM_SUBSTANCE_COMMENT>
InChI=1S/C12H11N3O2/c1-8-6-9(12(16)17-2)10(15-7-8)11-13-4-3-5-14-11/h3-7H,1-2H3
InChIKey=HWWONBVBEFIPIV-UHFFFAOYSA-N

> <PUBCHEM_SUBSTANCE_SYNONYM>
SCHEMBL16115391

> <PUBCHEM_XREF_EXT_ID>
SCHEMBL16115391

> <PUBCHEM_EXT_DATASOURCE_URL>
https://www.surechembl.org/

> <PUBCHEM_EXT_SUBSTANCE_URL>
https://www.surechembl.org/chemical/SCHEMBL16115391

> <PUBCHEM_CID_ASSOCIATIONS>
117605309  1

> <PUBCHEM_COORDINATE_TYPE>
1
3

$$$$
