310932465
  -OEChem-07211613022D

 31 34  0     0  0  0  0  0  0999 V2000
    4.0071   -2.1214    0.0000 O   0  0  0  0  0  0  0  0  0  0  0  0
    8.4464   -2.2000    0.0000 O   0  0  0  0  0  0  0  0  0  0  0  0
    9.1929   -5.8929    0.0000 O   0  0  0  0  0  0  0  0  0  0  0  0
    4.9107   -0.9821    0.0000 N   0  0  0  0  0  0  0  0  0  0  0  0
    4.7928   -0.1571    0.0000 N   0  0  0  0  0  0  0  0  0  0  0  0
    6.3250   -0.9821    0.0000 N   0  0  0  0  0  0  0  0  0  0  0  0
    7.7392   -3.4179    0.0000 N   0  0  0  0  0  0  0  0  0  0  0  0
    0.0000   -1.8071    0.0000 N   0  0  0  0  0  0  0  0  0  0  0  0
    3.5750   -0.7071    0.0000 C   0  0  0  0  0  0  0  0  0  0  0  0
    4.1643   -1.2964    0.0000 C   0  0  0  0  0  0  0  0  0  0  0  0
    5.6178   -1.3750    0.0000 C   0  0  0  0  0  0  0  0  0  0  0  0
    2.7893   -0.7857    0.0000 C   0  0  0  0  0  0  0  0  0  0  0  0
    4.0071    0.0000    0.0000 C   0  0  0  0  0  0  0  0  0  0  0  0
    5.6178   -2.2000    0.0000 C   0  0  0  0  0  0  0  0  0  0  0  0
    7.0321   -2.2000    0.0000 C   0  0  0  0  0  0  0  0  0  0  0  0
    2.4357   -1.5714    0.0000 C   0  0  0  0  0  0  0  0  0  0  0  0
    2.2786   -0.1571    0.0000 C   0  0  0  0  0  0  0  0  0  0  0  0
    7.0321   -1.3750    0.0000 C   0  0  0  0  0  0  0  0  0  0  0  0
    6.3250   -2.5929    0.0000 C   0  0  0  0  0  0  0  0  0  0  0  0
    7.7392   -2.5929    0.0000 C   0  0  0  0  0  0  0  0  0  0  0  0
    1.1393   -0.9821    0.0000 C   0  0  0  0  0  0  0  0  0  0  0  0
    1.6107   -1.6500    0.0000 C   0  0  0  0  0  0  0  0  0  0  0  0
    1.4536   -0.2357    0.0000 C   0  0  0  0  0  0  0  0  0  0  0  0
    0.3143   -1.0607    0.0000 C   0  0  0  0  0  0  0  0  0  0  0  0
    8.4464   -3.8500    0.0000 C   0  0  0  0  0  0  0  0  0  0  0  0
    9.8999   -7.1107    0.0000 C   0  0  0  0  0  0  0  0  0  0  0  0
   10.2928   -7.8178    0.0000 C   0  0  0  0  0  0  0  0  0  0  0  0
    9.5071   -7.8571    0.0000 C   0  0  0  0  0  0  0  0  0  0  0  0
    9.8999   -6.2857    0.0000 C   0  0  0  0  0  0  0  0  0  0  0  0
    8.4857   -4.6750    0.0000 C   0  0  0  0  0  0  0  0  0  0  0  0
    9.1929   -5.0679    0.0000 C   0  0  0  0  0  0  0  0  0  0  0  0
  1 10  1  0  0  0  0
  2 20  2  0  0  0  0
  3 29  1  0  0  0  0
  3 31  1  0  0  0  0
  4  5  1  0  0  0  0
  4 10  1  0  0  0  0
  4 11  1  0  0  0  0
  5 13  2  0  0  0  0
  6 11  2  0  0  0  0
  6 18  1  0  0  0  0
  7 20  1  0  0  0  0
  7 25  1  0  0  0  0
  8 24  3  0  0  0  0
  9 10  2  0  0  0  0
  9 12  1  0  0  0  0
  9 13  1  0  0  0  0
 11 14  1  0  0  0  0
 12 16  2  0  0  0  0
 12 17  1  0  0  0  0
 14 19  2  0  0  0  0
 15 18  2  0  0  0  0
 15 19  1  0  0  0  0
 15 20  1  0  0  0  0
 16 22  1  0  0  0  0
 17 23  2  0  0  0  0
 21 22  2  0  0  0  0
 21 23  1  0  0  0  0
 21 24  1  0  0  0  0
 25 30  1  0  0  0  0
 26 27  1  0  0  0  0
 26 28  1  0  0  0  0
 26 29  1  0  0  0  0
 27 28  1  0  0  0  0
 30 31  1  0  0  0  0
M  END
> <PUBCHEM_COMPOUND_ID_TYPE>
0

> <PUBCHEM_TOTAL_CHARGE>
0

> <PUBCHEM_SUBSTANCE_ID>
310932465

> <PUBCHEM_SUBSTANCE_VERSION>
1

> <PUBCHEM_EXT_DATASOURCE_NAME>
4488

> <PUBCHEM_EXT_DATASOURCE_REGID>
SCHEMBL16109837

> <PUBCHEM_SUBSTANCE_COMMENT>
InChI=1S/C23H23N5O3/c24-12-16-4-6-18(7-5-16)20-14-27-28(23(20)30)21-9-8-19(13-26-21)22(29)25-10-1-11-31-15-17-2-3-17/h4-9,13-14,17,30H,1-3,10-11,15H2,(H,25,29)
InChIKey=YDROSZUAEOLHJN-UHFFFAOYSA-N

> <PUBCHEM_SUBSTANCE_SYNONYM>
SCHEMBL16109837

> <PUBCHEM_XREF_EXT_ID>
SCHEMBL16109837

> <PUBCHEM_EXT_DATASOURCE_URL>
https://www.surechembl.org/

> <PUBCHEM_EXT_SUBSTANCE_URL>
https://www.surechembl.org/chemical/SCHEMBL16109837

> <PUBCHEM_CID_ASSOCIATIONS>
117601006  1

> <PUBCHEM_COORDINATE_TYPE>
1
3

$$$$
