310933619
  -OEChem-07211613022D

 12 14  0     0  0  0  0  0  0999 V2000
    2.5330   -0.1871    0.0000 Br  0  0  0  0  0  0  0  0  0  0  0  0
    1.4823   -2.0581    0.0000 O   0  0  0  0  0  0  0  0  0  0  0  0
    2.2739   -2.3171    0.0000 N   0  0  0  0  0  0  0  0  0  0  0  0
    1.4823   -1.2377    0.0000 C   0  0  0  0  0  0  0  0  0  0  0  0
    2.7489   -1.6407    0.0000 C   0  0  0  0  0  0  0  0  0  0  0  0
    2.2739   -0.9643    0.0000 C   0  0  0  0  0  0  0  0  0  0  0  0
    0.8204   -0.7484    0.0000 C   0  0  0  0  0  0  0  0  0  0  0  0
    3.5836   -1.6407    0.0000 C   0  0  0  0  0  0  0  0  0  0  0  0
    0.0000   -0.6764    0.0000 C   0  0  0  0  0  0  0  0  0  0  0  0
    0.4605    0.0000    0.0000 C   0  0  0  0  0  0  0  0  0  0  0  0
    4.2888   -1.2377    0.0000 C   0  0  0  0  0  0  0  0  0  0  0  0
    4.3176   -2.0581    0.0000 C   0  0  0  0  0  0  0  0  0  0  0  0
  1  6  1  0  0  0  0
  2  3  1  0  0  0  0
  2  4  1  0  0  0  0
  3  5  2  0  0  0  0
  4  6  2  0  0  0  0
  4  7  1  0  0  0  0
  5  6  1  0  0  0  0
  5  8  1  0  0  0  0
  7  9  1  0  0  0  0
  7 10  1  0  0  0  0
  8 11  1  0  0  0  0
  8 12  1  0  0  0  0
  9 10  1  0  0  0  0
 11 12  1  0  0  0  0
M  END
> <PUBCHEM_COMPOUND_ID_TYPE>
0

> <PUBCHEM_TOTAL_CHARGE>
0

> <PUBCHEM_SUBSTANCE_ID>
310933619

> <PUBCHEM_SUBSTANCE_VERSION>
1

> <PUBCHEM_EXT_DATASOURCE_NAME>
4488

> <PUBCHEM_EXT_DATASOURCE_REGID>
SCHEMBL16111049

> <PUBCHEM_SUBSTANCE_COMMENT>
InChI=1S/C9H10BrNO/c10-7-8(5-1-2-5)11-12-9(7)6-3-4-6/h5-6H,1-4H2
InChIKey=DHKJYHWXVQQSQV-UHFFFAOYSA-N

> <PUBCHEM_SUBSTANCE_SYNONYM>
SCHEMBL16111049

> <PUBCHEM_XREF_EXT_ID>
SCHEMBL16111049

> <PUBCHEM_EXT_DATASOURCE_URL>
https://www.surechembl.org/

> <PUBCHEM_EXT_SUBSTANCE_URL>
https://www.surechembl.org/chemical/SCHEMBL16111049

> <PUBCHEM_CID_ASSOCIATIONS>
117601993  1

> <PUBCHEM_COORDINATE_TYPE>
1
3

$$$$
