310938141
  -OEChem-07211613022D

 21 24  0     0  0  0  0  0  0999 V2000
    2.2290   -2.7926    0.0000 O   0  0  0  0  0  0  0  0  0  0  0  0
    6.3025   -2.0752    0.0000 O   0  0  0  0  0  0  0  0  0  0  0  0
    4.4835   -3.7661    0.0000 N   0  0  0  0  0  0  0  0  0  0  0  0
    5.0471   -1.6653    0.0000 N   0  0  0  0  0  0  0  0  0  0  0  0
    5.8413   -2.7413    0.0000 N   0  0  0  0  0  0  0  0  0  0  0  0
    3.0744   -3.9199    0.0000 C   0  0  0  0  0  0  0  0  0  0  0  0
    2.9719   -3.1256    0.0000 C   0  0  0  0  0  0  0  0  0  0  0  0
    4.3810   -2.9463    0.0000 C   0  0  0  0  0  0  0  0  0  0  0  0
    2.4083   -4.3810    0.0000 C   0  0  0  0  0  0  0  0  0  0  0  0
    5.0471   -2.4852    0.0000 C   0  0  0  0  0  0  0  0  0  0  0  0
    3.6381   -2.6132    0.0000 C   0  0  0  0  0  0  0  0  0  0  0  0
    3.8173   -4.2529    0.0000 C   0  0  0  0  0  0  0  0  0  0  0  0
    2.0496   -5.1240    0.0000 C   0  0  0  0  0  0  0  0  0  0  0  0
    1.5628   -4.4835    0.0000 C   0  0  0  0  0  0  0  0  0  0  0  0
    5.8413   -1.4091    0.0000 C   0  0  0  0  0  0  0  0  0  0  0  0
    0.8199   -2.9463    0.0000 C   0  0  0  0  0  0  0  0  0  0  0  0
    1.5628   -3.2793    0.0000 C   0  0  0  0  0  0  0  0  0  0  0  0
    6.0975   -0.6149    0.0000 C   0  0  0  0  0  0  0  0  0  0  0  0
    0.0000   -3.0488    0.0000 C   0  0  0  0  0  0  0  0  0  0  0  0
    0.3074   -2.2802    0.0000 C   0  0  0  0  0  0  0  0  0  0  0  0
    5.5339    0.0000    0.0000 C   0  0  0  0  0  0  0  0  0  0  0  0
  1  7  1  0  0  0  0
  1 17  1  0  0  0  0
  2  5  1  0  0  0  0
  2 15  1  0  0  0  0
  3  8  1  0  0  0  0
  3 12  2  0  0  0  0
  4 10  1  0  0  0  0
  4 15  2  0  0  0  0
  5 10  2  0  0  0  0
  6  7  2  0  0  0  0
  6  9  1  0  0  0  0
  6 12  1  0  0  0  0
  7 11  1  0  0  0  0
  8 10  1  0  0  0  0
  8 11  2  0  0  0  0
  9 13  1  0  0  0  0
  9 14  1  0  0  0  0
 13 14  1  0  0  0  0
 15 18  1  0  0  0  0
 16 17  1  0  0  0  0
 16 19  1  0  0  0  0
 16 20  1  0  0  0  0
 18 21  1  0  0  0  0
 19 20  1  0  0  0  0
M  END
> <PUBCHEM_COMPOUND_ID_TYPE>
0

> <PUBCHEM_TOTAL_CHARGE>
0

> <PUBCHEM_SUBSTANCE_ID>
310938141

> <PUBCHEM_SUBSTANCE_VERSION>
1

> <PUBCHEM_EXT_DATASOURCE_NAME>
4488

> <PUBCHEM_EXT_DATASOURCE_REGID>
SCHEMBL16115992

> <PUBCHEM_SUBSTANCE_COMMENT>
InChI=1S/C16H19N3O2/c1-2-15-18-16(19-21-15)13-7-14(20-9-10-3-4-10)12(8-17-13)11-5-6-11/h7-8,10-11H,2-6,9H2,1H3
InChIKey=GKEGYWKEZZYQMZ-UHFFFAOYSA-N

> <PUBCHEM_SUBSTANCE_SYNONYM>
SCHEMBL16115992

> <PUBCHEM_XREF_EXT_ID>
SCHEMBL16115992

> <PUBCHEM_EXT_DATASOURCE_URL>
https://www.surechembl.org/

> <PUBCHEM_EXT_SUBSTANCE_URL>
https://www.surechembl.org/chemical/SCHEMBL16115992

> <PUBCHEM_CID_ASSOCIATIONS>
86275870  1

> <PUBCHEM_COORDINATE_TYPE>
1
3

$$$$
