310931747
  -OEChem-07211613022D

 26 27  0     0  0  0  0  0  0999 V2000
    5.0170   -1.2184    0.0000 O   0  0  0  0  0  0  0  0  0  0  0  0
    5.7337   -3.2969    0.0000 O   0  0  0  0  0  0  0  0  0  0  0  0
    2.1501   -3.6911    0.0000 O   0  0  0  0  0  0  0  0  0  0  0  0
    8.6364   -0.8242    0.0000 O   0  0  0  0  0  0  0  0  0  0  0  0
    5.0170   -2.0426    0.0000 C   0  0  0  0  0  0  0  0  0  0  0  0
    5.7337   -2.4727    0.0000 C   0  0  0  0  0  0  0  0  0  0  0  0
    4.3003   -2.4727    0.0000 C   0  0  0  0  0  0  0  0  0  0  0  0
    6.4863   -2.0426    0.0000 C   0  0  0  0  0  0  0  0  0  0  0  0
    4.3003   -3.2969    0.0000 C   0  0  0  0  0  0  0  0  0  0  0  0
    6.4863   -1.2184    0.0000 C   0  0  0  0  0  0  0  0  0  0  0  0
    3.5836   -2.0426    0.0000 C   0  0  0  0  0  0  0  0  0  0  0  0
    7.2030   -2.4727    0.0000 C   0  0  0  0  0  0  0  0  0  0  0  0
    2.8669   -3.2969    0.0000 C   0  0  0  0  0  0  0  0  0  0  0  0
    7.9197   -1.2184    0.0000 C   0  0  0  0  0  0  0  0  0  0  0  0
    3.5836   -3.7269    0.0000 C   0  0  0  0  0  0  0  0  0  0  0  0
    7.2030   -0.7884    0.0000 C   0  0  0  0  0  0  0  0  0  0  0  0
    2.8669   -2.4727    0.0000 C   0  0  0  0  0  0  0  0  0  0  0  0
    7.8839   -2.0426    0.0000 C   0  0  0  0  0  0  0  0  0  0  0  0
    1.4334   -3.2969    0.0000 C   0  0  0  0  0  0  0  0  0  0  0  0
    9.3531   -1.2184    0.0000 C   0  0  0  0  0  0  0  0  0  0  0  0
    0.7167   -3.6911    0.0000 C   0  0  0  0  0  0  0  0  0  0  0  0
   10.0698   -0.8242    0.0000 C   0  0  0  0  0  0  0  0  0  0  0  0
    0.0000   -3.2611    0.0000 C   0  0  0  0  0  0  0  0  0  0  0  0
    0.7167   -4.5153    0.0000 C   0  0  0  0  0  0  0  0  0  0  0  0
   10.7507   -1.2542    0.0000 C   0  0  0  0  0  0  0  0  0  0  0  0
   10.0698    0.0000    0.0000 C   0  0  0  0  0  0  0  0  0  0  0  0
  1  5  2  0  0  0  0
  2  6  2  0  0  0  0
  3 13  1  0  0  0  0
  3 19  1  0  0  0  0
  4 14  1  0  0  0  0
  4 20  1  0  0  0  0
  5  6  1  0  0  0  0
  5  7  1  0  0  0  0
  6  8  1  0  0  0  0
  7  9  2  0  0  0  0
  7 11  1  0  0  0  0
  8 10  2  0  0  0  0
  8 12  1  0  0  0  0
  9 15  1  0  0  0  0
 10 16  1  0  0  0  0
 11 17  2  0  0  0  0
 12 18  2  0  0  0  0
 13 15  2  0  0  0  0
 13 17  1  0  0  0  0
 14 16  2  0  0  0  0
 14 18  1  0  0  0  0
 19 21  1  0  0  0  0
 20 22  1  0  0  0  0
 21 23  1  0  0  0  0
 21 24  1  0  0  0  0
 22 25  1  0  0  0  0
 22 26  1  0  0  0  0
M  END
> <PUBCHEM_COMPOUND_ID_TYPE>
0

> <PUBCHEM_TOTAL_CHARGE>
0

> <PUBCHEM_SUBSTANCE_ID>
310931747

> <PUBCHEM_SUBSTANCE_VERSION>
1

> <PUBCHEM_EXT_DATASOURCE_NAME>
4488

> <PUBCHEM_EXT_DATASOURCE_REGID>
SCHEMBL16109076

> <PUBCHEM_SUBSTANCE_COMMENT>
InChI=1S/C22H26O4/c1-15(2)13-25-19-9-5-17(6-10-19)21(23)22(24)18-7-11-20(12-8-18)26-14-16(3)4/h5-12,15-16H,13-14H2,1-4H3
InChIKey=JCNISIBEIUFRFC-UHFFFAOYSA-N

> <PUBCHEM_SUBSTANCE_SYNONYM>
SCHEMBL16109076

> <PUBCHEM_XREF_EXT_ID>
SCHEMBL16109076

> <PUBCHEM_EXT_DATASOURCE_URL>
https://www.surechembl.org/

> <PUBCHEM_EXT_SUBSTANCE_URL>
https://www.surechembl.org/chemical/SCHEMBL16109076

> <PUBCHEM_CID_ASSOCIATIONS>
117600438  1

> <PUBCHEM_COORDINATE_TYPE>
1
3

$$$$
