310942957
  -OEChem-07211613022D

 35 38  0     1  0  0  0  0  0999 V2000
    2.4771    0.2452    0.0000 F   0  0  0  0  0  0  0  0  0  0  0  0
    3.2719    0.0423    0.0000 F   0  0  0  0  0  0  0  0  0  0  0  0
    3.4917   -0.7525    0.0000 F   0  0  0  0  0  0  0  0  0  0  0  0
   -2.8323   -0.4650    0.0000 O   0  0  0  0  0  0  0  0  0  0  0  0
   -1.2090    4.0159    0.0000 O   0  0  0  0  0  0  0  0  0  0  0  0
   -1.2428    1.8177    0.0000 N   0  0  0  0  0  0  0  0  0  0  0  0
   -0.7863    1.1244    0.0000 N   0  0  0  0  0  0  0  0  0  0  0  0
   -1.0737   -0.3297    0.0000 N   0  0  0  0  0  0  0  0  0  0  0  0
   -3.4917    0.8032    0.0000 N   0  0  0  0  0  0  0  0  0  0  0  0
    0.9046    1.4626    0.0000 N   0  0  0  0  0  0  0  0  0  0  0  0
    2.3588   -1.9530    0.0000 N   0  0  0  0  0  0  0  0  0  0  0  0
   -2.0882    0.7694    0.0000 C   0  0  0  0  0  0  0  0  0  0  0  0
   -2.0206    1.5978    0.0000 C   0  0  0  0  0  0  0  0  0  0  0  0
   -1.2935    0.4649    0.0000 C   0  0  0  0  0  0  0  0  0  0  0  0
   -0.9554    2.6124    0.0000 C   0  0  3  0  0  0  0  0  0  0  0  0
   -2.7984    0.3804    0.0000 C   0  0  0  0  0  0  0  0  0  0  0  0
   -2.7307    2.0375    0.0000 C   0  0  0  0  0  0  0  0  0  0  0  0
   -0.1437    2.7307    0.0000 C   0  0  3  0  0  0  0  0  0  0  0  0
   -0.2790   -0.5326    0.0000 C   0  0  0  0  0  0  0  0  0  0  0  0
   -3.4578    1.6655    0.0000 C   0  0  0  0  0  0  0  0  0  0  0  0
   -1.4795    3.2211    0.0000 C   0  0  0  0  0  0  0  0  0  0  0  0
    1.3104   -0.9385    0.0000 C   0  0  0  0  0  0  0  0  0  0  0  0
    2.1221   -1.1582    0.0000 C   0  0  3  0  0  0  0  0  0  0  0  0
   -0.0423   -1.3273    0.0000 C   0  0  0  0  0  0  0  0  0  0  0  0
    0.3128    0.0592    0.0000 C   0  0  0  0  0  0  0  0  0  0  0  0
    0.1437    3.5255    0.0000 C   0  0  0  0  0  0  0  0  0  0  0  0
    2.7138   -0.5157    0.0000 C   0  0  0  0  0  0  0  0  0  0  0  0
    0.7525   -1.5302    0.0000 C   0  0  0  0  0  0  0  0  0  0  0  0
    1.0906   -0.1437    0.0000 C   0  0  0  0  0  0  0  0  0  0  0  0
   -0.3804    4.1511    0.0000 C   0  0  0  0  0  0  0  0  0  0  0  0
    1.7839   -2.5447    0.0000 C   0  0  0  0  0  0  0  0  0  0  0  0
    2.0037   -3.3395    0.0000 C   0  0  0  0  0  0  0  0  0  0  0  0
    1.4119   -3.9143    0.0000 C   0  0  0  0  0  0  0  0  0  0  0  0
    2.8154   -3.5255    0.0000 C   0  0  0  0  0  0  0  0  0  0  0  0
    2.2404   -4.1511    0.0000 C   0  0  0  0  0  0  0  0  0  0  0  0
  1 27  1  0  0  0  0
  2 27  1  0  0  0  0
  3 27  1  0  0  0  0
  4 16  2  0  0  0  0
  5 21  1  0  0  0  0
  5 30  1  0  0  0  0
  6  7  1  0  0  0  0
  6 13  1  0  0  0  0
 15  6  1  1  0  0  0
  7 14  2  0  0  0  0
  8 14  1  0  0  0  0
  8 19  1  0  0  0  0
  9 16  1  0  0  0  0
  9 20  1  0  0  0  0
 18 10  1  6  0  0  0
 11 23  1  0  0  0  0
 11 31  1  0  0  0  0
 12 13  2  0  0  0  0
 12 14  1  0  0  0  0
 12 16  1  0  0  0  0
 13 17  1  0  0  0  0
 15 18  1  0  0  0  0
 15 21  1  0  0  0  0
 17 20  2  0  0  0  0
 18 26  1  0  0  0  0
 19 24  2  0  0  0  0
 19 25  1  0  0  0  0
 22 23  1  0  0  0  0
 22 28  2  0  0  0  0
 22 29  1  0  0  0  0
 23 27  1  0  0  0  0
 24 28  1  0  0  0  0
 25 29  2  0  0  0  0
 26 30  1  0  0  0  0
 31 32  1  0  0  0  0
 32 33  1  0  0  0  0
 32 34  1  0  0  0  0
 32 35  1  0  0  0  0
M  END
> <PUBCHEM_COMPOUND_ID_TYPE>
0

> <PUBCHEM_TOTAL_CHARGE>
0

> <PUBCHEM_SUBSTANCE_ID>
310942957

> <PUBCHEM_SUBSTANCE_VERSION>
1

> <PUBCHEM_EXT_DATASOURCE_NAME>
4488

> <PUBCHEM_EXT_DATASOURCE_REGID>
SCHEMBL16121016

> <PUBCHEM_SUBSTANCE_COMMENT>
InChI=1S/C24H31F3N6O2/c1-23(2,3)13-30-20(24(25,26)27)14-4-6-15(7-5-14)31-21-19-17(8-10-29-22(19)34)33(32-21)18-12-35-11-9-16(18)28/h4-8,10,16,18,20,30H,9,11-13,28H2,1-3H3,(H,29,34)(H,31,32)/t16-,18-,20?/m0/s1
InChIKey=LFFJGIAUTSSNSL-WWKKGYIRSA-N

> <PUBCHEM_SUBSTANCE_SYNONYM>
SCHEMBL16121016

> <PUBCHEM_XREF_EXT_ID>
SCHEMBL16121016

> <PUBCHEM_EXT_DATASOURCE_URL>
https://www.surechembl.org/

> <PUBCHEM_EXT_SUBSTANCE_URL>
https://www.surechembl.org/chemical/SCHEMBL16121016

> <PUBCHEM_CID_ASSOCIATIONS>
117609419  1

> <PUBCHEM_COORDINATE_TYPE>
1
3

> <PUBCHEM_BONDANNOTATIONS>
18  10  6
15  6  5

$$$$
