310949075
  -OEChem-07211613022D

 29 31  0     0  0  0  0  0  0999 V2000
   -0.6139   -0.2047    0.0000 Br  0  0  0  0  0  0  0  0  0  0  0  0
    0.3410    2.7116    0.0000 F   0  0  0  0  0  0  0  0  0  0  0  0
   -1.0573    0.1876    0.0000 F   0  0  0  0  0  0  0  0  0  0  0  0
    2.5240   -1.0062    0.0000 F   0  0  0  0  0  0  0  0  0  0  0  0
   -0.3410   -1.0403    0.0000 F   0  0  0  0  0  0  0  0  0  0  0  0
   -2.5069    0.9891    0.0000 F   0  0  0  0  0  0  0  0  0  0  0  0
   -1.0914    3.5131    0.0000 F   0  0  0  0  0  0  0  0  0  0  0  0
   -0.3410   -2.7116    0.0000 F   0  0  0  0  0  0  0  0  0  0  0  0
    2.5069   -2.6775    0.0000 F   0  0  0  0  0  0  0  0  0  0  0  0
   -2.5240    2.6604    0.0000 F   0  0  0  0  0  0  0  0  0  0  0  0
    1.0573   -3.5131    0.0000 F   0  0  0  0  0  0  0  0  0  0  0  0
   -0.3752    1.4837    0.0000 C   0  0  0  0  0  0  0  0  0  0  0  0
    1.0573   -1.0062    0.0000 C   0  0  0  0  0  0  0  0  0  0  0  0
    0.3410    1.0744    0.0000 C   0  0  0  0  0  0  0  0  0  0  0  0
    1.0573   -0.1535    0.0000 C   0  0  0  0  0  0  0  0  0  0  0  0
    0.3240    0.2388    0.0000 C   0  0  0  0  0  0  0  0  0  0  0  0
   -0.3581    2.3023    0.0000 C   0  0  0  0  0  0  0  0  0  0  0  0
   -1.0744    1.0573    0.0000 C   0  0  0  0  0  0  0  0  0  0  0  0
    1.7907   -1.3984    0.0000 C   0  0  0  0  0  0  0  0  0  0  0  0
    0.3752   -1.4155    0.0000 C   0  0  0  0  0  0  0  0  0  0  0  0
   -1.7907    1.4326    0.0000 C   0  0  0  0  0  0  0  0  0  0  0  0
   -1.1085    2.7116    0.0000 C   0  0  0  0  0  0  0  0  0  0  0  0
    0.3410   -2.2511    0.0000 C   0  0  0  0  0  0  0  0  0  0  0  0
    1.7566   -2.2170    0.0000 C   0  0  0  0  0  0  0  0  0  0  0  0
   -1.8077    2.2682    0.0000 C   0  0  0  0  0  0  0  0  0  0  0  0
    1.0573   -2.6604    0.0000 C   0  0  0  0  0  0  0  0  0  0  0  0
    1.0403    1.4667    0.0000 C   0  0  0  0  0  0  0  0  0  0  0  0
    1.7736    0.2558    0.0000 C   0  0  0  0  0  0  0  0  0  0  0  0
    1.7566    1.0744    0.0000 C   0  0  0  0  0  0  0  0  0  0  0  0
  1 16  1  0  0  0  0
  2 17  1  0  0  0  0
  3 18  1  0  0  0  0
  4 19  1  0  0  0  0
  5 20  1  0  0  0  0
  6 21  1  0  0  0  0
  7 22  1  0  0  0  0
  8 23  1  0  0  0  0
  9 24  1  0  0  0  0
 10 25  1  0  0  0  0
 11 26  1  0  0  0  0
 12 14  1  0  0  0  0
 12 17  2  0  0  0  0
 12 18  1  0  0  0  0
 13 15  1  0  0  0  0
 13 19  2  0  0  0  0
 13 20  1  0  0  0  0
 14 16  2  0  0  0  0
 14 27  1  0  0  0  0
 15 16  1  0  0  0  0
 15 28  2  0  0  0  0
 17 22  1  0  0  0  0
 18 21  2  0  0  0  0
 19 24  1  0  0  0  0
 20 23  2  0  0  0  0
 21 25  1  0  0  0  0
 22 25  2  0  0  0  0
 23 26  1  0  0  0  0
 24 26  2  0  0  0  0
 27 29  2  0  0  0  0
 28 29  1  0  0  0  0
M  END
> <PUBCHEM_COMPOUND_ID_TYPE>
0

> <PUBCHEM_TOTAL_CHARGE>
0

> <PUBCHEM_SUBSTANCE_ID>
310949075

> <PUBCHEM_SUBSTANCE_VERSION>
1

> <PUBCHEM_EXT_DATASOURCE_NAME>
4488

> <PUBCHEM_EXT_DATASOURCE_REGID>
SCHEMBL16127265

> <PUBCHEM_SUBSTANCE_COMMENT>
InChI=1S/C18H3BrF10/c19-8-4(6-9(20)13(24)17(28)14(25)10(6)21)2-1-3-5(8)7-11(22)15(26)18(29)16(27)12(7)23/h1-3H
InChIKey=FPQCVVVZFFYVKT-UHFFFAOYSA-N

> <PUBCHEM_SUBSTANCE_SYNONYM>
SCHEMBL16127265

> <PUBCHEM_XREF_EXT_ID>
SCHEMBL16127265

> <PUBCHEM_EXT_DATASOURCE_URL>
https://www.surechembl.org/

> <PUBCHEM_EXT_SUBSTANCE_URL>
https://www.surechembl.org/chemical/SCHEMBL16127265

> <PUBCHEM_CID_ASSOCIATIONS>
117614580  1

> <PUBCHEM_COORDINATE_TYPE>
1
3

$$$$
