310945833
  -OEChem-07211613022D

 13 14  0     0  0  0  0  0  0999 V2000
   -0.1891    0.5988    0.0000 S   0  0  0  0  0  0  0  0  0  0  0  0
    2.0170   -0.5673    0.0000 O   0  0  0  0  0  0  0  0  0  0  0  0
   -1.5916    0.0788    0.0000 N   0  0  0  0  0  0  0  0  0  0  0  0
   -0.3309   -0.7407    0.0000 N   0  0  0  0  0  0  0  0  0  0  0  0
    2.7420    0.6776    0.0000 N   0  0  0  0  0  0  0  0  0  0  0  0
   -0.7407    0.0000    0.0000 C   0  0  0  0  0  0  0  0  0  0  0  0
    0.5830    0.2994    0.0000 C   0  0  0  0  0  0  0  0  0  0  0  0
    0.4885   -0.5515    0.0000 C   0  0  0  0  0  0  0  0  0  0  0  0
   -2.1274    0.7407    0.0000 C   0  0  0  0  0  0  0  0  0  0  0  0
   -2.2219   -0.4255    0.0000 C   0  0  0  0  0  0  0  0  0  0  0  0
    1.3080    0.7092    0.0000 C   0  0  0  0  0  0  0  0  0  0  0  0
   -2.7420    0.2049    0.0000 C   0  0  0  0  0  0  0  0  0  0  0  0
    2.0328    0.3152    0.0000 C   0  0  0  0  0  0  0  0  0  0  0  0
  1  6  1  0  0  0  0
  1  7  1  0  0  0  0
  2 13  2  0  0  0  0
  3  6  1  0  0  0  0
  3  9  1  0  0  0  0
  3 10  1  0  0  0  0
  4  6  2  0  0  0  0
  4  8  1  0  0  0  0
  5 13  1  0  0  0  0
  7  8  2  0  0  0  0
  7 11  1  0  0  0  0
  9 12  1  0  0  0  0
 10 12  1  0  0  0  0
 11 13  1  0  0  0  0
M  END
> <PUBCHEM_COMPOUND_ID_TYPE>
0

> <PUBCHEM_TOTAL_CHARGE>
0

> <PUBCHEM_SUBSTANCE_ID>
310945833

> <PUBCHEM_SUBSTANCE_VERSION>
1

> <PUBCHEM_EXT_DATASOURCE_NAME>
4488

> <PUBCHEM_EXT_DATASOURCE_REGID>
SCHEMBL16123938

> <PUBCHEM_SUBSTANCE_COMMENT>
InChI=1S/C8H11N3OS/c9-7(12)4-6-5-10-8(13-6)11-2-1-3-11/h5H,1-4H2,(H2,9,12)
InChIKey=HURYNSHXQOMFHC-UHFFFAOYSA-N

> <PUBCHEM_SUBSTANCE_SYNONYM>
SCHEMBL16123938

> <PUBCHEM_XREF_EXT_ID>
SCHEMBL16123938

> <PUBCHEM_EXT_DATASOURCE_URL>
https://www.surechembl.org/

> <PUBCHEM_EXT_SUBSTANCE_URL>
https://www.surechembl.org/chemical/SCHEMBL16123938

> <PUBCHEM_CID_ASSOCIATIONS>
117611819  1

> <PUBCHEM_COORDINATE_TYPE>
1
3

$$$$
