310941889
  -OEChem-07211613022D

 29 33  0     1  0  0  0  0  0999 V2000
   -0.2844   -0.2971    0.0000 O   0  0  0  0  0  0  0  0  0  0  0  0
   -1.2751   -1.3192    0.0000 O   0  0  0  0  0  0  0  0  0  0  0  0
   -1.7624   -2.1205    0.0000 O   0  0  0  0  0  0  0  0  0  0  0  0
   -3.2566    0.4566    0.0000 N   0  0  0  0  0  0  0  0  0  0  0  0
    1.9341    0.9970    0.0000 N   0  0  0  0  0  0  0  0  0  0  0  0
    2.7447   -0.1407    0.0000 N   0  0  0  0  0  0  0  0  0  0  0  0
    3.2566    0.5419    0.0000 N   0  0  0  0  0  0  0  0  0  0  0  0
    0.4693    0.9827    0.0000 C   0  0  0  0  0  0  0  0  0  0  0  0
   -2.8158   -0.2687    0.0000 C   0  0  3  0  0  0  0  0  0  0  0  0
   -2.8158    1.1818    0.0000 C   0  0  3  0  0  0  0  0  0  0  0  0
    0.4550    0.1579    0.0000 C   0  0  0  0  0  0  0  0  0  0  0  0
   -0.2987    1.4236    0.0000 C   0  0  0  0  0  0  0  0  0  0  0  0
   -1.5643    0.4423    0.0000 C   0  0  0  0  0  0  0  0  0  0  0  0
    1.9341    0.1295    0.0000 C   0  0  0  0  0  0  0  0  0  0  0  0
   -1.7624   -1.6007    0.0000 C   0  0  0  0  0  0  0  0  0  0  0  0
    1.1804    1.4094    0.0000 C   0  0  0  0  0  0  0  0  0  0  0  0
   -1.9909    1.1960    0.0000 C   0  0  0  0  0  0  0  0  0  0  0  0
   -1.9909   -0.2829    0.0000 C   0  0  0  0  0  0  0  0  0  0  0  0
    1.2088   -0.2971    0.0000 C   0  0  0  0  0  0  0  0  0  0  0  0
   -2.4602    0.1010    0.0000 C   0  0  0  0  0  0  0  0  0  0  0  0
   -2.4318    0.7125    0.0000 C   0  0  0  0  0  0  0  0  0  0  0  0
   -1.1093    1.4378    0.0000 C   0  0  0  0  0  0  0  0  0  0  0  0
   -0.7111    2.1205    0.0000 C   0  0  0  0  0  0  0  0  0  0  0  0
   -0.7252    0.4423    0.0000 C   0  0  0  0  0  0  0  0  0  0  0  0
    2.7304    1.2529    0.0000 C   0  0  0  0  0  0  0  0  0  0  0  0
   -1.2643   -0.7778    0.0000 C   0  0  0  0  0  0  0  0  0  0  0  0
   -0.7770   -0.7561    0.0000 C   0  0  0  0  0  0  0  0  0  0  0  0
   -1.7624   -0.7778    0.0000 C   0  0  0  0  0  0  0  0  0  0  0  0
   -1.2751   -0.2473    0.0000 C   0  0  0  0  0  0  0  0  0  0  0  0
  1 11  1  0  0  0  0
  1 24  1  0  0  0  0
  2 15  1  0  0  0  0
  2 26  1  0  0  0  0
  3 15  2  0  0  0  0
  4  9  1  0  0  0  0
  4 10  1  0  0  0  0
  4 15  1  0  0  0  0
  5 14  1  0  0  0  0
  5 16  1  0  0  0  0
  5 25  1  0  0  0  0
  6  7  1  0  0  0  0
  6 14  2  0  0  0  0
  7 25  2  0  0  0  0
  8 11  1  0  0  0  0
  8 12  1  0  0  0  0
  8 16  2  0  0  0  0
  9 18  1  6  0  0  0
  9 20  1  0  0  0  0
 10 17  1  6  0  0  0
 10 21  1  0  0  0  0
 11 19  2  0  0  0  0
 12 22  1  0  0  0  0
 12 23  1  0  0  0  0
 13 17  1  0  0  0  0
 13 18  1  0  0  0  0
 13 24  1  6  0  0  0
 14 19  1  0  0  0  0
 20 21  1  0  0  0  0
 22 23  1  0  0  0  0
 26 27  1  0  0  0  0
 26 28  1  0  0  0  0
 26 29  1  0  0  0  0
M  END
> <PUBCHEM_COMPOUND_ID_TYPE>
0

> <PUBCHEM_TOTAL_CHARGE>
0

> <PUBCHEM_SUBSTANCE_ID>
310941889

> <PUBCHEM_SUBSTANCE_VERSION>
1

> <PUBCHEM_EXT_DATASOURCE_NAME>
4488

> <PUBCHEM_EXT_DATASOURCE_REGID>
SCHEMBL16119921

> <PUBCHEM_SUBSTANCE_COMMENT>
InChI=1S/C22H30N4O3/c1-22(2,3)29-21(27)26-16-6-7-17(26)9-14(8-16)12-28-19-10-20-24-23-13-25(20)11-18(19)15-4-5-15/h10-11,13-17H,4-9,12H2,1-3H3/t14-,16-,17+
InChIKey=LCYCXCAHDQCAOW-XGBSXSJOSA-N

> <PUBCHEM_SUBSTANCE_SYNONYM>
SCHEMBL16119921

> <PUBCHEM_XREF_EXT_ID>
SCHEMBL16119921

> <PUBCHEM_EXT_DATASOURCE_URL>
https://www.surechembl.org/

> <PUBCHEM_EXT_SUBSTANCE_URL>
https://www.surechembl.org/chemical/SCHEMBL16119921

> <PUBCHEM_CID_ASSOCIATIONS>
117608625  1

> <PUBCHEM_COORDINATE_TYPE>
1
3

> <PUBCHEM_BONDANNOTATIONS>
10  17  6
13  24  6
9  18  6

$$$$
