310935380
  -OEChem-07211613022D

 18 19  0     0  0  0  0  0  0999 V2000
    0.0000    0.0000    0.0000 Br  0  0  0  0  0  0  0  0  0  0  0  0
    2.8314   -1.6561    0.0000 O   0  0  0  0  0  0  0  0  0  0  0  0
    3.5525   -3.7128    0.0000 N   0  0  0  0  0  0  0  0  0  0  0  0
    2.8314   -2.4841    0.0000 C   0  0  0  0  0  0  0  0  0  0  0  0
    2.1369   -1.2287    0.0000 C   0  0  0  0  0  0  0  0  0  0  0  0
    3.5525   -2.8848    0.0000 C   0  0  0  0  0  0  0  0  0  0  0  0
    2.1369   -0.4007    0.0000 C   0  0  0  0  0  0  0  0  0  0  0  0
    1.4156   -1.6561    0.0000 C   0  0  0  0  0  0  0  0  0  0  0  0
    0.7212   -0.4007    0.0000 C   0  0  0  0  0  0  0  0  0  0  0  0
    2.1369   -2.8848    0.0000 C   0  0  0  0  0  0  0  0  0  0  0  0
    3.5525   -2.0567    0.0000 C   0  0  0  0  0  0  0  0  0  0  0  0
    1.4156    0.0000    0.0000 C   0  0  0  0  0  0  0  0  0  0  0  0
    0.7212   -1.2287    0.0000 C   0  0  0  0  0  0  0  0  0  0  0  0
    4.2737   -4.1135    0.0000 C   0  0  0  0  0  0  0  0  0  0  0  0
    2.8581   -4.1135    0.0000 C   0  0  0  0  0  0  0  0  0  0  0  0
    4.2737   -4.9148    0.0000 C   0  0  0  0  0  0  0  0  0  0  0  0
    2.8581   -4.9148    0.0000 C   0  0  0  0  0  0  0  0  0  0  0  0
    3.5525   -5.3422    0.0000 C   0  0  0  0  0  0  0  0  0  0  0  0
  1  9  1  0  0  0  0
  2  4  1  0  0  0  0
  2  5  1  0  0  0  0
  3  6  1  0  0  0  0
  3 14  1  0  0  0  0
  3 15  1  0  0  0  0
  4  6  1  0  0  0  0
  4 10  1  0  0  0  0
  4 11  1  0  0  0  0
  5  7  2  0  0  0  0
  5  8  1  0  0  0  0
  7 12  1  0  0  0  0
  8 13  2  0  0  0  0
  9 12  2  0  0  0  0
  9 13  1  0  0  0  0
 14 16  1  0  0  0  0
 15 17  1  0  0  0  0
 16 18  1  0  0  0  0
 17 18  1  0  0  0  0
M  END
> <PUBCHEM_COMPOUND_ID_TYPE>
0

> <PUBCHEM_TOTAL_CHARGE>
0

> <PUBCHEM_SUBSTANCE_ID>
310935380

> <PUBCHEM_SUBSTANCE_VERSION>
1

> <PUBCHEM_EXT_DATASOURCE_NAME>
4488

> <PUBCHEM_EXT_DATASOURCE_REGID>
SCHEMBL16112920

> <PUBCHEM_SUBSTANCE_COMMENT>
InChI=1S/C15H22BrNO/c1-15(2,12-17-10-4-3-5-11-17)18-14-8-6-13(16)7-9-14/h6-9H,3-5,10-12H2,1-2H3
InChIKey=XYXCUYQQOJGIKV-UHFFFAOYSA-N

> <PUBCHEM_SUBSTANCE_SYNONYM>
SCHEMBL16112920

> <PUBCHEM_XREF_EXT_ID>
SCHEMBL16112920

> <PUBCHEM_EXT_DATASOURCE_URL>
https://www.surechembl.org/

> <PUBCHEM_EXT_SUBSTANCE_URL>
https://www.surechembl.org/chemical/SCHEMBL16112920

> <PUBCHEM_CID_ASSOCIATIONS>
117603432  1

> <PUBCHEM_COORDINATE_TYPE>
1
3

$$$$
