310931560
  -OEChem-07211613022D

 38 41  0     1  0  0  0  0  0999 V2000
    5.5926    1.4830    0.0000 S   0  0  0  0  0  0  0  0  0  0  0  0
    5.5926   -0.1670    0.0000 F   0  0  0  0  0  0  0  0  0  0  0  0
    2.7346    1.4830    0.0000 F   0  0  0  0  0  0  0  0  0  0  0  0
    4.1636   -2.6420    0.0000 F   0  0  0  0  0  0  0  0  0  0  0  0
    5.1801    2.1974    0.0000 O   0  0  0  0  0  0  0  0  0  0  0  0
    6.0051    0.7685    0.0000 O   0  0  0  0  0  0  0  0  0  0  0  0
    2.7346   -0.1670    0.0000 O   0  0  0  0  0  0  0  0  0  0  0  0
   -1.5522   -0.1670    0.0000 O   0  0  0  0  0  0  0  0  0  0  0  0
   -0.8377    1.0705    0.0000 O   0  0  0  0  0  0  0  0  0  0  0  0
    6.3070    1.8955    0.0000 N   0  0  0  0  0  0  0  0  0  0  0  0
    7.0607    1.5600    0.0000 N   0  0  0  0  0  0  0  0  0  0  0  0
   -0.1232   -0.1670    0.0000 N   0  0  0  0  0  0  0  0  0  0  0  0
    4.8780    1.0705    0.0000 C   0  0  0  0  0  0  0  0  0  0  0  0
    4.8780    0.2455    0.0000 C   0  0  0  0  0  0  0  0  0  0  0  0
    4.1636    1.4830    0.0000 C   0  0  0  0  0  0  0  0  0  0  0  0
    3.4491    0.2455    0.0000 C   0  0  0  0  0  0  0  0  0  0  0  0
    3.4491    1.0705    0.0000 C   0  0  0  0  0  0  0  0  0  0  0  0
    4.1636   -0.1670    0.0000 C   0  0  0  0  0  0  0  0  0  0  0  0
    1.3057   -0.1670    0.0000 C   0  0  3  0  0  0  0  0  0  0  0  0
    1.3057   -0.9920    0.0000 C   0  0  3  0  0  0  0  0  0  0  0  0
    6.3932    2.7160    0.0000 C   0  0  0  0  0  0  0  0  0  0  0  0
    2.0202    0.2455    0.0000 C   0  0  0  0  0  0  0  0  0  0  0  0
    2.0202   -1.4045    0.0000 C   0  0  0  0  0  0  0  0  0  0  0  0
    0.5912    0.2455    0.0000 C   0  0  0  0  0  0  0  0  0  0  0  0
    0.5912   -1.4045    0.0000 C   0  0  0  0  0  0  0  0  0  0  0  0
    7.6127    2.1731    0.0000 C   0  0  0  0  0  0  0  0  0  0  0  0
    7.2002    2.8875    0.0000 C   0  0  0  0  0  0  0  0  0  0  0  0
   -0.1232   -0.9920    0.0000 C   0  0  0  0  0  0  0  0  0  0  0  0
   -0.8377    0.2455    0.0000 C   0  0  0  0  0  0  0  0  0  0  0  0
    2.7346   -0.9920    0.0000 C   0  0  0  0  0  0  0  0  0  0  0  0
    2.0202   -2.2295    0.0000 C   0  0  0  0  0  0  0  0  0  0  0  0
   -2.2666    0.2455    0.0000 C   0  0  0  0  0  0  0  0  0  0  0  0
    3.4491   -1.4045    0.0000 C   0  0  0  0  0  0  0  0  0  0  0  0
    2.7346   -2.6420    0.0000 C   0  0  0  0  0  0  0  0  0  0  0  0
    3.4491   -2.2295    0.0000 C   0  0  0  0  0  0  0  0  0  0  0  0
   -2.2666    1.0705    0.0000 C   0  0  0  0  0  0  0  0  0  0  0  0
   -2.9811    0.6580    0.0000 C   0  0  0  0  0  0  0  0  0  0  0  0
   -2.9811   -0.1670    0.0000 C   0  0  0  0  0  0  0  0  0  0  0  0
  1  5  2  0  0  0  0
  1  6  2  0  0  0  0
  1 10  1  0  0  0  0
  1 13  1  0  0  0  0
  2 14  1  0  0  0  0
  3 17  1  0  0  0  0
  4 35  1  0  0  0  0
  7 16  1  0  0  0  0
  7 22  1  0  0  0  0
  8 29  1  0  0  0  0
  8 32  1  0  0  0  0
  9 29  2  0  0  0  0
 10 11  1  0  0  0  0
 10 21  1  0  0  0  0
 11 26  2  0  0  0  0
 12 24  1  0  0  0  0
 12 28  1  0  0  0  0
 12 29  1  0  0  0  0
 13 14  2  0  0  0  0
 13 15  1  0  0  0  0
 14 18  1  0  0  0  0
 15 17  2  0  0  0  0
 16 17  1  0  0  0  0
 16 18  2  0  0  0  0
 19 20  1  0  0  0  0
 19 22  1  6  0  0  0
 19 24  1  0  0  0  0
 20 23  1  0  0  0  0
 20 25  1  1  0  0  0
 21 27  2  0  0  0  0
 23 30  2  0  0  0  0
 23 31  1  0  0  0  0
 25 28  1  0  0  0  0
 26 27  1  0  0  0  0
 30 33  1  0  0  0  0
 31 34  2  0  0  0  0
 32 36  1  0  0  0  0
 32 37  1  0  0  0  0
 32 38  1  0  0  0  0
 33 35  2  0  0  0  0
 34 35  1  0  0  0  0
M  END
> <PUBCHEM_COMPOUND_ID_TYPE>
0

> <PUBCHEM_TOTAL_CHARGE>
0

> <PUBCHEM_SUBSTANCE_ID>
310931560

> <PUBCHEM_SUBSTANCE_VERSION>
1

> <PUBCHEM_EXT_DATASOURCE_NAME>
4488

> <PUBCHEM_EXT_DATASOURCE_REGID>
SCHEMBL16108886

> <PUBCHEM_SUBSTANCE_COMMENT>
InChI=1S/C26H28F3N3O5S/c1-26(2,3)37-25(33)31-12-9-20(17-5-7-19(27)8-6-17)18(15-31)16-36-23-13-22(29)24(14-21(23)28)38(34,35)32-11-4-10-30-32/h4-8,10-11,13-14,18,20H,9,12,15-16H2,1-3H3/t18-,20-/m1/s1
InChIKey=MFNYNJXOINARFL-UYAOXDASSA-N

> <PUBCHEM_SUBSTANCE_SYNONYM>
SCHEMBL16108886

> <PUBCHEM_XREF_EXT_ID>
SCHEMBL16108886

> <PUBCHEM_EXT_DATASOURCE_URL>
https://www.surechembl.org/

> <PUBCHEM_EXT_SUBSTANCE_URL>
https://www.surechembl.org/chemical/SCHEMBL16108886

> <PUBCHEM_CID_ASSOCIATIONS>
117600307  1

> <PUBCHEM_COORDINATE_TYPE>
1
3

> <PUBCHEM_BONDANNOTATIONS>
19  22  6
20  25  5

$$$$
