310942085
  -OEChem-07211613022D

 21 24  0     0  0  0  0  0  0999 V2000
    2.4265    1.4672    0.0000 O   0  0  0  0  0  0  0  0  0  0  0  0
   -0.7462   -0.7399    0.0000 N   0  0  0  0  0  0  0  0  0  0  0  0
   -0.3323    0.5392    0.0000 C   0  0  0  0  0  0  0  0  0  0  0  0
   -0.0815   -0.2257    0.0000 C   0  0  0  0  0  0  0  0  0  0  0  0
   -1.1474    0.5643    0.0000 C   0  0  0  0  0  0  0  0  0  0  0  0
   -1.4233   -0.2132    0.0000 C   0  0  0  0  0  0  0  0  0  0  0  0
    0.2320    1.1412    0.0000 C   0  0  0  0  0  0  0  0  0  0  0  0
    1.0346    0.9656    0.0000 C   0  0  0  0  0  0  0  0  0  0  0  0
    0.7210   -0.4264    0.0000 C   0  0  0  0  0  0  0  0  0  0  0  0
   -1.6741    1.1537    0.0000 C   0  0  0  0  0  0  0  0  0  0  0  0
   -2.2259   -0.3762    0.0000 C   0  0  0  0  0  0  0  0  0  0  0  0
    1.2729    0.1755    0.0000 C   0  0  0  0  0  0  0  0  0  0  0  0
    1.5989    1.6051    0.0000 C   0  0  0  0  0  0  0  0  0  0  0  0
   -0.7712   -1.5675    0.0000 C   0  0  0  0  0  0  0  0  0  0  0  0
   -2.5018    1.0157    0.0000 C   0  0  0  0  0  0  0  0  0  0  0  0
   -2.7651    0.2257    0.0000 C   0  0  0  0  0  0  0  0  0  0  0  0
    1.4359    2.4077    0.0000 C   0  0  0  0  0  0  0  0  0  0  0  0
   -1.4734   -1.9563    0.0000 C   0  0  0  0  0  0  0  0  0  0  0  0
    2.7651    2.2446    0.0000 C   0  0  0  0  0  0  0  0  0  0  0  0
    2.1506    2.8090    0.0000 C   0  0  0  0  0  0  0  0  0  0  0  0
   -1.4986   -2.8090    0.0000 C   0  0  0  0  0  0  0  0  0  0  0  0
  1 13  1  0  0  0  0
  1 19  1  0  0  0  0
  2  4  1  0  0  0  0
  2  6  1  0  0  0  0
  2 14  1  0  0  0  0
  3  4  2  0  0  0  0
  3  5  1  0  0  0  0
  3  7  1  0  0  0  0
  4  9  1  0  0  0  0
  5  6  2  0  0  0  0
  5 10  1  0  0  0  0
  6 11  1  0  0  0  0
  7  8  2  0  0  0  0
  8 12  1  0  0  0  0
  8 13  1  0  0  0  0
  9 12  2  0  0  0  0
 10 15  2  0  0  0  0
 11 16  2  0  0  0  0
 13 17  2  0  0  0  0
 14 18  1  0  0  0  0
 15 16  1  0  0  0  0
 17 20  1  0  0  0  0
 18 21  1  0  0  0  0
 19 20  2  0  0  0  0
M  END
> <PUBCHEM_COMPOUND_ID_TYPE>
0

> <PUBCHEM_TOTAL_CHARGE>
0

> <PUBCHEM_SUBSTANCE_ID>
310942085

> <PUBCHEM_SUBSTANCE_VERSION>
1

> <PUBCHEM_EXT_DATASOURCE_NAME>
4488

> <PUBCHEM_EXT_DATASOURCE_REGID>
SCHEMBL16120120

> <PUBCHEM_SUBSTANCE_COMMENT>
InChI=1S/C19H17NO/c1-2-11-20-17-7-4-3-6-15(17)16-13-14(9-10-18(16)20)19-8-5-12-21-19/h3-10,12-13H,2,11H2,1H3
InChIKey=BUWKEPLBZMIFKH-UHFFFAOYSA-N

> <PUBCHEM_SUBSTANCE_SYNONYM>
SCHEMBL16120120

> <PUBCHEM_XREF_EXT_ID>
SCHEMBL16120120

> <PUBCHEM_EXT_DATASOURCE_URL>
https://www.surechembl.org/

> <PUBCHEM_EXT_SUBSTANCE_URL>
https://www.surechembl.org/chemical/SCHEMBL16120120

> <PUBCHEM_CID_ASSOCIATIONS>
86270959  1

> <PUBCHEM_COORDINATE_TYPE>
1
3

$$$$
