310928696
  -OEChem-07211613022D

 20 21  0     0  0  0  0  0  0999 V2000
    3.2151    0.2062    0.0000 F   0  0  0  0  0  0  0  0  0  0  0  0
    2.5006    0.6187    0.0000 F   0  0  0  0  0  0  0  0  0  0  0  0
    3.2151   -0.6188    0.0000 F   0  0  0  0  0  0  0  0  0  0  0  0
    0.3572    1.0313    0.0000 F   0  0  0  0  0  0  0  0  0  0  0  0
   -2.5006    1.8563    0.0000 O   0  0  0  0  0  0  0  0  0  0  0  0
   -3.2151    0.6188    0.0000 O   0  0  0  0  0  0  0  0  0  0  0  0
   -0.3572   -0.2062    0.0000 C   0  0  0  0  0  0  0  0  0  0  0  0
    0.3572   -0.6188    0.0000 C   0  0  0  0  0  0  0  0  0  0  0  0
    1.7862   -0.6188    0.0000 C   0  0  0  0  0  0  0  0  0  0  0  0
    2.5006   -0.2062    0.0000 C   0  0  0  0  0  0  0  0  0  0  0  0
   -0.3572    0.6188    0.0000 C   0  0  0  0  0  0  0  0  0  0  0  0
    1.0717   -0.2062    0.0000 C   0  0  0  0  0  0  0  0  0  0  0  0
   -1.7862    0.6188    0.0000 C   0  0  0  0  0  0  0  0  0  0  0  0
   -1.0717   -0.6187    0.0000 C   0  0  0  0  0  0  0  0  0  0  0  0
    0.3572   -1.4438    0.0000 C   0  0  0  0  0  0  0  0  0  0  0  0
   -1.0717    1.0313    0.0000 C   0  0  0  0  0  0  0  0  0  0  0  0
    1.7862   -1.4438    0.0000 C   0  0  0  0  0  0  0  0  0  0  0  0
   -1.7862   -0.2062    0.0000 C   0  0  0  0  0  0  0  0  0  0  0  0
    1.0717   -1.8563    0.0000 C   0  0  0  0  0  0  0  0  0  0  0  0
   -2.5006    1.0313    0.0000 C   0  0  0  0  0  0  0  0  0  0  0  0
  1 10  1  0  0  0  0
  2 10  1  0  0  0  0
  3 10  1  0  0  0  0
  4 11  1  0  0  0  0
  5 20  2  0  0  0  0
  6 20  1  0  0  0  0
  7  8  1  0  0  0  0
  7 11  2  0  0  0  0
  7 14  1  0  0  0  0
  8 12  2  0  0  0  0
  8 15  1  0  0  0  0
  9 10  1  0  0  0  0
  9 12  1  0  0  0  0
  9 17  2  0  0  0  0
 11 16  1  0  0  0  0
 13 16  2  0  0  0  0
 13 18  1  0  0  0  0
 13 20  1  0  0  0  0
 14 18  2  0  0  0  0
 15 19  2  0  0  0  0
 17 19  1  0  0  0  0
M  END
> <PUBCHEM_COMPOUND_ID_TYPE>
0

> <PUBCHEM_TOTAL_CHARGE>
0

> <PUBCHEM_SUBSTANCE_ID>
310928696

> <PUBCHEM_SUBSTANCE_VERSION>
1

> <PUBCHEM_EXT_DATASOURCE_NAME>
11752

> <PUBCHEM_EXT_DATASOURCE_REGID>
BD240405

> <PUBCHEM_SUBSTANCE_SYNONYM>
1261750-12-2
2-Fluoro-3'-(trifluoromethyl)-[1,1'-biphenyl]-4-carboxylic acid

> <PUBCHEM_GENERIC_REGISTRY_NAME>
1261750-12-2

> <PUBCHEM_XREF_EXT_ID>
BD240405

> <PUBCHEM_EXT_DATASOURCE_URL>
http://www.bidepharmatech.com/en/index.html

> <PUBCHEM_EXT_SUBSTANCE_URL>
http://www.bidepharmatech.com/en/goodsview_goodscode_BD240405.html

> <PUBCHEM_CID_ASSOCIATIONS>
53211613  1

> <PUBCHEM_COORDINATE_TYPE>
1
3

$$$$
