310930249
  -OEChem-07211613022D

 26 29  0     0  0  0  0  0  0999 V2000
    1.8902   -2.5840    0.0000 O   0  0  0  0  0  0  0  0  0  0  0  0
    0.7178   -1.2442    0.0000 O   0  0  0  0  0  0  0  0  0  0  0  0
    4.3066   -1.6270    0.0000 N   0  0  0  0  0  0  0  0  0  0  0  0
    2.7036   -2.4644    0.0000 N   0  0  0  0  0  0  0  0  0  0  0  0
    1.5552   -1.8184    0.0000 N   0  0  0  0  0  0  0  0  0  0  0  0
    1.4356    0.0000    0.0000 N   0  0  0  0  0  0  0  0  0  0  0  0
    2.8711   -1.6748    0.0000 C   0  0  0  0  0  0  0  0  0  0  0  0
    2.1294   -1.2442    0.0000 C   0  0  0  0  0  0  0  0  0  0  0  0
    3.5889   -1.2442    0.0000 C   0  0  0  0  0  0  0  0  0  0  0  0
    2.1533   -0.4306    0.0000 C   0  0  0  0  0  0  0  0  0  0  0  0
    4.3306   -2.4644    0.0000 C   0  0  0  0  0  0  0  0  0  0  0  0
    3.5889   -0.4306    0.0000 C   0  0  0  0  0  0  0  0  0  0  0  0
    2.8233    0.0000    0.0000 C   0  0  0  0  0  0  0  0  0  0  0  0
    5.0483   -2.8472    0.0000 C   0  0  0  0  0  0  0  0  0  0  0  0
    5.7422   -2.4165    0.0000 C   0  0  0  0  0  0  0  0  0  0  0  0
    3.6128   -2.8711    0.0000 C   0  0  0  0  0  0  0  0  0  0  0  0
    5.0483   -3.6846    0.0000 C   0  0  0  0  0  0  0  0  0  0  0  0
    0.7178   -0.4306    0.0000 C   0  0  0  0  0  0  0  0  0  0  0  0
    3.6367   -3.7085    0.0000 C   0  0  0  0  0  0  0  0  0  0  0  0
    4.3545   -4.1152    0.0000 C   0  0  0  0  0  0  0  0  0  0  0  0
    5.7422   -1.5791    0.0000 C   0  0  0  0  0  0  0  0  0  0  0  0
    6.4839   -2.8233    0.0000 C   0  0  0  0  0  0  0  0  0  0  0  0
    6.4600   -1.1723    0.0000 C   0  0  0  0  0  0  0  0  0  0  0  0
    7.1777   -2.3926    0.0000 C   0  0  0  0  0  0  0  0  0  0  0  0
    7.1777   -1.5791    0.0000 C   0  0  0  0  0  0  0  0  0  0  0  0
    0.0000    0.0000    0.0000 C   0  0  0  0  0  0  0  0  0  0  0  0
  1  4  1  0  0  0  0
  1  5  1  0  0  0  0
  2 18  2  0  0  0  0
  3  9  1  0  0  0  0
  3 11  1  0  0  0  0
  4  7  2  0  0  0  0
  5  8  2  0  0  0  0
  6 10  1  0  0  0  0
  6 18  1  0  0  0  0
  7  8  1  0  0  0  0
  7  9  1  0  0  0  0
  8 10  1  0  0  0  0
  9 12  2  0  0  0  0
 10 13  2  0  0  0  0
 11 14  1  0  0  0  0
 11 16  2  0  0  0  0
 12 13  1  0  0  0  0
 14 15  1  0  0  0  0
 14 17  2  0  0  0  0
 15 21  2  0  0  0  0
 15 22  1  0  0  0  0
 16 19  1  0  0  0  0
 17 20  1  0  0  0  0
 18 26  1  0  0  0  0
 19 20  2  0  0  0  0
 21 23  1  0  0  0  0
 22 24  2  0  0  0  0
 23 25  2  0  0  0  0
 24 25  1  0  0  0  0
M  END
> <PUBCHEM_COMPOUND_ID_TYPE>
0

> <PUBCHEM_TOTAL_CHARGE>
0

> <PUBCHEM_SUBSTANCE_ID>
310930249

> <PUBCHEM_SUBSTANCE_VERSION>
1

> <PUBCHEM_EXT_DATASOURCE_NAME>
4488

> <PUBCHEM_EXT_DATASOURCE_REGID>
SCHEMBL16107523

> <PUBCHEM_SUBSTANCE_COMMENT>
InChI=1S/C20H16N4O2/c1-13(25)21-17-11-12-18(20-19(17)23-26-24-20)22-16-10-6-5-9-15(16)14-7-3-2-4-8-14/h2-12,22H,1H3,(H,21,25)
InChIKey=RAJIDKQXZFEESD-UHFFFAOYSA-N

> <PUBCHEM_SUBSTANCE_SYNONYM>
SCHEMBL16107523

> <PUBCHEM_XREF_EXT_ID>
SCHEMBL16107523

> <PUBCHEM_EXT_DATASOURCE_URL>
https://www.surechembl.org/

> <PUBCHEM_EXT_SUBSTANCE_URL>
https://www.surechembl.org/chemical/SCHEMBL16107523

> <PUBCHEM_CID_ASSOCIATIONS>
71517579  1

> <PUBCHEM_COORDINATE_TYPE>
1
3

$$$$
