310940363
  -OEChem-07211613022D

 23 25  0     0  0  0  0  0  0999 V2000
   -4.6658    0.0968    0.0000 F   0  0  0  0  0  0  0  0  0  0  0  0
    4.6658    1.9354    0.0000 F   0  0  0  0  0  0  0  0  0  0  0  0
    0.3249   -0.6221    0.0000 O   0  0  0  0  0  0  0  0  0  0  0  0
   -1.3755   -0.3872    0.0000 N   0  0  0  0  0  0  0  0  0  0  0  0
    1.8041    0.2903    0.0000 N   0  0  0  0  0  0  0  0  0  0  0  0
   -0.2143   -1.2442    0.0000 C   0  0  0  0  0  0  0  0  0  0  0  0
    1.0991   -0.9539    0.0000 C   0  0  0  0  0  0  0  0  0  0  0  0
    0.1867   -1.9354    0.0000 C   0  0  0  0  0  0  0  0  0  0  0  0
    1.0023   -1.7834    0.0000 C   0  0  0  0  0  0  0  0  0  0  0  0
   -1.0438   -1.1337    0.0000 C   0  0  0  0  0  0  0  0  0  0  0  0
    1.8041   -0.5391    0.0000 C   0  0  0  0  0  0  0  0  0  0  0  0
   -2.1912   -0.2765    0.0000 C   0  0  0  0  0  0  0  0  0  0  0  0
    2.5368    0.6912    0.0000 C   0  0  0  0  0  0  0  0  0  0  0  0
   -2.4953    0.4700    0.0000 C   0  0  0  0  0  0  0  0  0  0  0  0
    3.2557    0.3042    0.0000 C   0  0  0  0  0  0  0  0  0  0  0  0
   -2.7304   -0.9401    0.0000 C   0  0  0  0  0  0  0  0  0  0  0  0
    2.5368    1.5207    0.0000 C   0  0  0  0  0  0  0  0  0  0  0  0
   -3.8364   -0.0415    0.0000 C   0  0  0  0  0  0  0  0  0  0  0  0
    3.9608    1.5345    0.0000 C   0  0  0  0  0  0  0  0  0  0  0  0
   -3.3109    0.5945    0.0000 C   0  0  0  0  0  0  0  0  0  0  0  0
    3.9608    0.7050    0.0000 C   0  0  0  0  0  0  0  0  0  0  0  0
   -3.5322   -0.8018    0.0000 C   0  0  0  0  0  0  0  0  0  0  0  0
    3.2557    1.9354    0.0000 C   0  0  0  0  0  0  0  0  0  0  0  0
  1 18  1  0  0  0  0
  2 19  1  0  0  0  0
  3  6  1  0  0  0  0
  3  7  1  0  0  0  0
  4 10  2  0  0  0  0
  4 12  1  0  0  0  0
  5 11  2  0  0  0  0
  5 13  1  0  0  0  0
  6  8  2  0  0  0  0
  6 10  1  0  0  0  0
  7  9  2  0  0  0  0
  7 11  1  0  0  0  0
  8  9  1  0  0  0  0
 12 14  2  0  0  0  0
 12 16  1  0  0  0  0
 13 15  2  0  0  0  0
 13 17  1  0  0  0  0
 14 20  1  0  0  0  0
 15 21  1  0  0  0  0
 16 22  2  0  0  0  0
 17 23  2  0  0  0  0
 18 20  2  0  0  0  0
 18 22  1  0  0  0  0
 19 21  2  0  0  0  0
 19 23  1  0  0  0  0
M  END
> <PUBCHEM_COMPOUND_ID_TYPE>
0

> <PUBCHEM_TOTAL_CHARGE>
0

> <PUBCHEM_SUBSTANCE_ID>
310940363

> <PUBCHEM_SUBSTANCE_VERSION>
1

> <PUBCHEM_EXT_DATASOURCE_NAME>
4488

> <PUBCHEM_EXT_DATASOURCE_REGID>
SCHEMBL16118307

> <PUBCHEM_SUBSTANCE_COMMENT>
InChI=1S/C18H12F2N2O/c19-13-1-5-15(6-2-13)21-11-17-9-10-18(23-17)12-22-16-7-3-14(20)4-8-16/h1-12H/b21-11+,22-12+
InChIKey=WANKTWYQPRSALE-XHQRYOPUSA-N

> <PUBCHEM_SUBSTANCE_SYNONYM>
SCHEMBL16118307

> <PUBCHEM_XREF_EXT_ID>
SCHEMBL16118307

> <PUBCHEM_EXT_DATASOURCE_URL>
https://www.surechembl.org/

> <PUBCHEM_EXT_SUBSTANCE_URL>
https://www.surechembl.org/chemical/SCHEMBL16118307

> <PUBCHEM_CID_ASSOCIATIONS>
117607404  1

> <PUBCHEM_COORDINATE_TYPE>
1
3

> <PUBCHEM_BONDANNOTATIONS>
4  12  3
5  13  3

$$$$
