310929421
  -OEChem-07211613022D

 20 20  0     0  0  0  0  0  0999 V2000
    1.2528   -0.8291    0.0000 S   0  0  0  0  0  0  0  0  0  0  0  0
    1.2528   -2.2662    0.0000 O   0  0  0  0  0  0  0  0  0  0  0  0
    1.2344   -1.6582    0.0000 O   0  0  0  0  0  0  0  0  0  0  0  0
    1.2344    0.0000    0.0000 O   0  0  0  0  0  0  0  0  0  0  0  0
    2.0635   -0.8291    0.0000 N   0  0  0  0  0  0  0  0  0  0  0  0
    0.4238   -0.8291    0.0000 N   0  0  0  0  0  0  0  0  0  0  0  0
    2.0635   -3.6848    0.0000 N   0  0  0  0  0  0  0  0  0  0  0  0
    2.4873   -1.5476    0.0000 C   0  0  0  0  0  0  0  0  0  0  0  0
    2.0819   -2.2662    0.0000 C   0  0  0  0  0  0  0  0  0  0  0  0
    3.7217   -2.2662    0.0000 C   0  0  0  0  0  0  0  0  0  0  0  0
    2.4873   -2.9663    0.0000 C   0  0  0  0  0  0  0  0  0  0  0  0
    3.3164   -1.5476    0.0000 C   0  0  0  0  0  0  0  0  0  0  0  0
    4.5508   -2.2662    0.0000 C   0  0  0  0  0  0  0  0  0  0  0  0
    3.2979   -2.9847    0.0000 C   0  0  0  0  0  0  0  0  0  0  0  0
    4.5508   -3.0953    0.0000 C   0  0  0  0  0  0  0  0  0  0  0  0
    5.3614   -2.2662    0.0000 C   0  0  0  0  0  0  0  0  0  0  0  0
    4.5508   -1.4555    0.0000 C   0  0  0  0  0  0  0  0  0  0  0  0
    0.0000   -0.1105    0.0000 C   0  0  0  0  0  0  0  0  0  0  0  0
    0.0184   -1.5476    0.0000 C   0  0  0  0  0  0  0  0  0  0  0  0
    0.8475   -2.9847    0.0000 C   0  0  0  0  0  0  0  0  0  0  0  0
  1  3  2  0  0  0  0
  1  4  2  0  0  0  0
  1  5  1  0  0  0  0
  1  6  1  0  0  0  0
  2  9  1  0  0  0  0
  2 20  1  0  0  0  0
  5  8  1  0  0  0  0
  6 18  1  0  0  0  0
  6 19  1  0  0  0  0
  7 11  1  0  0  0  0
  8  9  1  0  0  0  0
  8 12  2  0  0  0  0
  9 11  2  0  0  0  0
 10 12  1  0  0  0  0
 10 13  1  0  0  0  0
 10 14  2  0  0  0  0
 11 14  1  0  0  0  0
 13 15  1  0  0  0  0
 13 16  1  0  0  0  0
 13 17  1  0  0  0  0
M  END
> <PUBCHEM_COMPOUND_ID_TYPE>
0

> <PUBCHEM_TOTAL_CHARGE>
0

> <PUBCHEM_SUBSTANCE_ID>
310929421

> <PUBCHEM_SUBSTANCE_VERSION>
1

> <PUBCHEM_EXT_DATASOURCE_NAME>
4488

> <PUBCHEM_EXT_DATASOURCE_REGID>
SCHEMBL16106595

> <PUBCHEM_SUBSTANCE_COMMENT>
InChI=1S/C13H23N3O3S/c1-13(2,3)9-7-10(14)12(19-6)11(8-9)15-20(17,18)16(4)5/h7-8,15H,14H2,1-6H3
InChIKey=QLLDNAQFNLNJNN-UHFFFAOYSA-N

> <PUBCHEM_SUBSTANCE_SYNONYM>
SCHEMBL16106595

> <PUBCHEM_XREF_EXT_ID>
SCHEMBL16106595

> <PUBCHEM_EXT_DATASOURCE_URL>
https://www.surechembl.org/

> <PUBCHEM_EXT_SUBSTANCE_URL>
https://www.surechembl.org/chemical/SCHEMBL16106595

> <PUBCHEM_CID_ASSOCIATIONS>
117598781  1

> <PUBCHEM_COORDINATE_TYPE>
1
3

$$$$
