310941998
  -OEChem-07211613022D

 22 25  0     0  0  0  0  0  0999 V2000
   -1.7246   -3.1066    0.0000 F   0  0  0  0  0  0  0  0  0  0  0  0
    2.3363    3.1066    0.0000 O   0  0  0  0  0  0  0  0  0  0  0  0
   -0.2800   -0.6376    0.0000 N   0  0  0  0  0  0  0  0  0  0  0  0
    0.9655    2.6570    0.0000 N   0  0  0  0  0  0  0  0  0  0  0  0
    0.1327    0.6302    0.0000 C   0  0  0  0  0  0  0  0  0  0  0  0
    0.3832   -0.1437    0.0000 C   0  0  0  0  0  0  0  0  0  0  0  0
   -0.7150    0.6376    0.0000 C   0  0  0  0  0  0  0  0  0  0  0  0
   -0.9803   -0.1437    0.0000 C   0  0  0  0  0  0  0  0  0  0  0  0
    0.6855    1.2640    0.0000 C   0  0  0  0  0  0  0  0  0  0  0  0
    1.4962    1.0945    0.0000 C   0  0  0  0  0  0  0  0  0  0  0  0
    1.2087   -0.3132    0.0000 C   0  0  0  0  0  0  0  0  0  0  0  0
    1.7540    0.2911    0.0000 C   0  0  0  0  0  0  0  0  0  0  0  0
   -1.2603    1.2345    0.0000 C   0  0  0  0  0  0  0  0  0  0  0  0
   -1.7835   -0.3205    0.0000 C   0  0  0  0  0  0  0  0  0  0  0  0
    0.4200    2.0231    0.0000 C   0  0  0  0  0  0  0  0  0  0  0  0
   -0.2874   -1.4630    0.0000 C   0  0  0  0  0  0  0  0  0  0  0  0
    2.0416    1.7135    0.0000 C   0  0  0  0  0  0  0  0  0  0  0  0
    1.7688    2.4801    0.0000 C   0  0  0  0  0  0  0  0  0  0  0  0
   -2.0711    1.0723    0.0000 C   0  0  0  0  0  0  0  0  0  0  0  0
   -2.3363    0.2911    0.0000 C   0  0  0  0  0  0  0  0  0  0  0  0
   -0.9950   -1.8684    0.0000 C   0  0  0  0  0  0  0  0  0  0  0  0
   -1.0023   -2.7012    0.0000 C   0  0  0  0  0  0  0  0  0  0  0  0
  1 22  1  0  0  0  0
  2 18  2  0  0  0  0
  3  6  1  0  0  0  0
  3  8  1  0  0  0  0
  3 16  1  0  0  0  0
  4 15  1  0  0  0  0
  4 18  1  0  0  0  0
  5  6  2  0  0  0  0
  5  7  1  0  0  0  0
  5  9  1  0  0  0  0
  6 11  1  0  0  0  0
  7  8  1  0  0  0  0
  7 13  2  0  0  0  0
  8 14  2  0  0  0  0
  9 10  2  0  0  0  0
  9 15  1  0  0  0  0
 10 12  1  0  0  0  0
 10 17  1  0  0  0  0
 11 12  2  0  0  0  0
 13 19  1  0  0  0  0
 14 20  1  0  0  0  0
 16 21  1  0  0  0  0
 17 18  1  0  0  0  0
 19 20  2  0  0  0  0
 21 22  1  0  0  0  0
M  END
> <PUBCHEM_COMPOUND_ID_TYPE>
0

> <PUBCHEM_TOTAL_CHARGE>
0

> <PUBCHEM_SUBSTANCE_ID>
310941998

> <PUBCHEM_SUBSTANCE_VERSION>
1

> <PUBCHEM_EXT_DATASOURCE_NAME>
4488

> <PUBCHEM_EXT_DATASOURCE_REGID>
SCHEMBL16120032

> <PUBCHEM_SUBSTANCE_COMMENT>
InChI=1S/C18H17FN2O/c19-8-3-9-21-15-5-2-1-4-13(15)18-14-11-20-17(22)10-12(14)6-7-16(18)21/h1-2,4-7H,3,8-11H2,(H,20,22)
InChIKey=XQYLUDOJPSNPDG-UHFFFAOYSA-N

> <PUBCHEM_SUBSTANCE_SYNONYM>
SCHEMBL16120032

> <PUBCHEM_XREF_EXT_ID>
SCHEMBL16120032

> <PUBCHEM_EXT_DATASOURCE_URL>
https://www.surechembl.org/

> <PUBCHEM_EXT_SUBSTANCE_URL>
https://www.surechembl.org/chemical/SCHEMBL16120032

> <PUBCHEM_CID_ASSOCIATIONS>
86274043  1

> <PUBCHEM_COORDINATE_TYPE>
1
3

$$$$
