310943922
  -OEChem-07211613022D

 32 36  0     1  0  0  0  0  0999 V2000
    2.5750    1.0674    0.0000 O   0  0  0  0  0  0  0  0  0  0  0  0
    5.3920    0.1760    0.0000 O   0  0  0  0  0  0  0  0  0  0  0  0
    5.5021    1.6507    0.0000 O   0  0  0  0  0  0  0  0  0  0  0  0
    3.3013   -0.2201    0.0000 N   0  0  0  0  0  0  0  0  0  0  0  0
    0.3852    0.1871    0.0000 N   0  0  0  0  0  0  0  0  0  0  0  0
   -4.1706    0.7373    0.0000 N   0  0  0  0  0  0  0  0  0  0  0  0
   -2.7840    1.0894    0.0000 N   0  0  0  0  0  0  0  0  0  0  0  0
   -2.3769   -0.5172    0.0000 N   0  0  0  0  0  0  0  0  0  0  0  0
   -4.4568    1.5076    0.0000 N   0  0  0  0  0  0  0  0  0  0  0  0
   -5.2710    1.4856    0.0000 N   0  0  0  0  0  0  0  0  0  0  0  0
   -5.5021    0.6823    0.0000 N   0  0  0  0  0  0  0  0  0  0  0  0
    1.9698   -0.2421    0.0000 C   0  0  0  0  0  0  0  0  0  0  0  0
    2.6080    0.2311    0.0000 C   0  0  0  0  0  0  0  0  0  0  0  0
    3.0702   -1.0124    0.0000 C   0  0  3  0  0  0  0  0  0  0  0  0
    2.2558   -1.0344    0.0000 C   0  0  0  0  0  0  0  0  0  0  0  0
    4.0716    0.0881    0.0000 C   0  0  0  0  0  0  0  0  0  0  0  0
    1.3755   -0.8363    0.0000 C   0  0  0  0  0  0  0  0  0  0  0  0
    1.7717    0.5393    0.0000 C   0  0  0  0  0  0  0  0  0  0  0  0
    0.5833   -0.6053    0.0000 C   0  0  0  0  0  0  0  0  0  0  0  0
    0.9683    0.7702    0.0000 C   0  0  0  0  0  0  0  0  0  0  0  0
    4.2697    0.8803    0.0000 C   0  0  0  0  0  0  0  0  0  0  0  0
    4.7759   -0.3522    0.0000 C   0  0  0  0  0  0  0  0  0  0  0  0
    3.5874   -1.6507    0.0000 C   0  0  0  0  0  0  0  0  0  0  0  0
    5.0619    0.9243    0.0000 C   0  0  0  0  0  0  0  0  0  0  0  0
   -0.4072    0.4182    0.0000 C   0  0  0  0  0  0  0  0  0  0  0  0
   -1.7937    0.0771    0.0000 C   0  0  0  0  0  0  0  0  0  0  0  0
   -3.3783    0.5172    0.0000 C   0  0  0  0  0  0  0  0  0  0  0  0
   -2.0028    0.8693    0.0000 C   0  0  0  0  0  0  0  0  0  0  0  0
   -1.0014   -0.1541    0.0000 C   0  0  0  0  0  0  0  0  0  0  0  0
   -3.1802   -0.2751    0.0000 C   0  0  0  0  0  0  0  0  0  0  0  0
   -4.8089    0.2311    0.0000 C   0  0  0  0  0  0  0  0  0  0  0  0
   -1.3976    1.4636    0.0000 C   0  0  0  0  0  0  0  0  0  0  0  0
  1 13  2  0  0  0  0
  2 22  1  0  0  0  0
  2 24  1  0  0  0  0
  3 24  2  0  0  0  0
  4 13  1  0  0  0  0
  4 14  1  0  0  0  0
  4 16  1  0  0  0  0
  5 19  1  0  0  0  0
  5 20  1  0  0  0  0
  5 25  1  0  0  0  0
  6  9  1  0  0  0  0
  6 27  1  0  0  0  0
  6 31  1  0  0  0  0
  7 27  2  0  0  0  0
  7 28  1  0  0  0  0
  8 26  1  0  0  0  0
  8 30  2  0  0  0  0
  9 10  2  0  0  0  0
 10 11  1  0  0  0  0
 11 31  2  0  0  0  0
 12 13  1  0  0  0  0
 12 15  1  0  0  0  0
 12 17  1  0  0  0  0
 12 18  1  0  0  0  0
 14 15  1  0  0  0  0
 14 23  1  1  0  0  0
 16 21  2  0  0  0  0
 16 22  1  0  0  0  0
 17 19  1  0  0  0  0
 18 20  1  0  0  0  0
 21 24  1  0  0  0  0
 25 29  1  0  0  0  0
 26 28  2  0  0  0  0
 26 29  1  0  0  0  0
 27 30  1  0  0  0  0
 28 32  1  0  0  0  0
M  END
> <PUBCHEM_COMPOUND_ID_TYPE>
0

> <PUBCHEM_TOTAL_CHARGE>
0

> <PUBCHEM_SUBSTANCE_ID>
310943922

> <PUBCHEM_SUBSTANCE_VERSION>
1

> <PUBCHEM_EXT_DATASOURCE_NAME>
4488

> <PUBCHEM_EXT_DATASOURCE_REGID>
SCHEMBL16121993

> <PUBCHEM_SUBSTANCE_COMMENT>
InChI=1S/C21H26N8O3/c1-14-10-21(20(31)29(14)16-9-19(30)32-12-16)4-7-27(8-5-21)6-3-17-15(2)24-18(11-22-17)28-13-23-25-26-28/h9,11,13-14H,3-8,10,12H2,1-2H3/t14-/m0/s1
InChIKey=GCEKBIMYBBGRSU-AWEZNQCLSA-N

> <PUBCHEM_SUBSTANCE_SYNONYM>
SCHEMBL16121993

> <PUBCHEM_XREF_EXT_ID>
SCHEMBL16121993

> <PUBCHEM_EXT_DATASOURCE_URL>
https://www.surechembl.org/

> <PUBCHEM_EXT_SUBSTANCE_URL>
https://www.surechembl.org/chemical/SCHEMBL16121993

> <PUBCHEM_CID_ASSOCIATIONS>
117610235  1

> <PUBCHEM_COORDINATE_TYPE>
1
3

> <PUBCHEM_BONDANNOTATIONS>
14  23  5

$$$$
