310947650
  -OEChem-07211613022D

 79 78  0     1  0  0  0  0  0999 V2000
   -4.8557  -13.4861    0.0000 S   0  0  0  0  0  0  0  0  0  0  0  0
   -5.5702  -13.0736    0.0000 S   0  0  0  0  0  0  0  0  0  0  0  0
   -4.8557  -14.3111    0.0000 O   0  0  0  0  0  0  0  0  0  0  0  0
   -8.4280  -12.2486    0.0000 O   0  0  0  0  0  0  0  0  0  0  0  0
   -2.7123  -12.2486    0.0000 O   0  0  0  0  0  0  0  0  0  0  0  0
   -4.1412  -17.1987    0.0000 O   0  0  0  0  0  0  0  0  0  0  0  0
   -7.7137   -9.3611    0.0000 O   0  0  0  0  0  0  0  0  0  0  0  0
   -7.7137  -14.3111    0.0000 O   0  0  0  0  0  0  0  0  0  0  0  0
   -8.6490  -13.0736    0.0000 O   0  0  0  0  0  0  0  0  0  0  0  0
   -6.9991  -17.1987    0.0000 O   0  0  0  0  0  0  0  0  0  0  0  0
   -4.8557   -9.3611    0.0000 O   0  0  0  0  0  0  0  0  0  0  0  0
    2.2891  -11.8361    0.0000 O   0  0  0  0  0  0  0  0  0  0  0  0
    0.8602  -11.8361    0.0000 O   0  0  0  0  0  0  0  0  0  0  0  0
   -3.4268  -14.3111    0.0000 N   0  0  0  0  0  0  0  0  0  0  0  0
   -3.4268  -15.9612    0.0000 N   0  0  0  0  0  0  0  0  0  0  0  0
   -6.9991  -12.2486    0.0000 N   0  0  0  0  0  0  0  0  0  0  0  0
   -8.4280  -10.5986    0.0000 N   0  0  0  0  0  0  0  0  0  0  0  0
   -1.9977  -13.4861    0.0000 N   0  0  0  0  0  0  0  0  0  0  0  0
   -2.7123  -18.0236    0.0000 N   0  0  0  0  0  0  0  0  0  0  0  0
   -9.1426   -8.5360    0.0000 N   0  0  0  0  0  0  0  0  0  0  0  0
   -7.7137  -15.9612    0.0000 N   0  0  0  0  0  0  0  0  0  0  0  0
   -4.1412  -10.5986    0.0000 N   0  0  0  0  0  0  0  0  0  0  0  0
   -8.4280  -18.0236    0.0000 N   0  0  0  0  0  0  0  0  0  0  0  0
    2.2891  -13.4861    0.0000 N   0  0  0  0  0  0  0  0  0  0  0  0
   -3.4268   -8.5360    0.0000 N   0  0  0  0  0  0  0  0  0  0  0  0
    0.8602  -16.7861    0.0000 N   0  0  0  0  0  0  0  0  0  0  0  0
  -12.7150   -9.7735    0.0000 N   0  0  0  0  0  0  0  0  0  0  0  0
  -12.0005  -16.7861    0.0000 N   0  0  0  0  0  0  0  0  0  0  0  0
    0.1457   -9.7735    0.0000 N   0  0  0  0  0  0  0  0  0  0  0  0
   -4.1412  -15.5487    0.0000 C   0  0  3  0  0  0  0  0  0  0  0  0
   -4.1412  -14.7236    0.0000 C   0  0  0  0  0  0  0  0  0  0  0  0
   -3.4268  -13.4861    0.0000 C   0  0  3  0  0  0  0  0  0  0  0  0
   -7.7137  -11.0110    0.0000 C   0  0  3  0  0  0  0  0  0  0  0  0
   -7.7137  -11.8361    0.0000 C   0  0  0  0  0  0  0  0  0  0  0  0
   -2.7123  -13.0736    0.0000 C   0  0  0  0  0  0  0  0  0  0  0  0
   -6.9991  -13.0736    0.0000 C   0  0  3  0  0  0  0  0  0  0  0  0
   -3.4268  -16.7861    0.0000 C   0  0  0  0  0  0  0  0  0  0  0  0
   -4.1412  -13.0736    0.0000 C   0  0  0  0  0  0  0  0  0  0  0  0
   -4.8557  -15.9612    0.0000 C   0  0  0  0  0  0  0  0  0  0  0  0
   -8.4280   -9.7735    0.0000 C   0  0  0  0  0  0  0  0  0  0  0  0
   -7.7137  -13.4861    0.0000 C   0  0  0  0  0  0  0  0  0  0  0  0
   -2.7123  -17.1987    0.0000 C   0  0  3  0  0  0  0  0  0  0  0  0
   -6.2846  -13.4861    0.0000 C   0  0  0  0  0  0  0  0  0  0  0  0
   -6.9991  -10.5986    0.0000 C   0  0  0  0  0  0  0  0  0  0  0  0
   -9.1426   -9.3611    0.0000 C   0  0  3  0  0  0  0  0  0  0  0  0
   -5.5702  -15.5487    0.0000 C   0  0  0  0  0  0  0  0  0  0  0  0
   -6.2846  -11.0110    0.0000 C   0  0  0  0  0  0  0  0  0  0  0  0
   -1.9977  -16.7861    0.0000 C   0  0  0  0  0  0  0  0  0  0  0  0
   -9.8571   -9.7735    0.0000 C   0  0  0  0  0  0  0  0  0  0  0  0
   -1.2833  -13.0736    0.0000 C   0  0  0  0  0  0  0  0  0  0  0  0
   -6.2846  -15.9612    0.0000 C   0  0  0  0  0  0  0  0  0  0  0  0
   -5.5702  -10.5986    0.0000 C   0  0  0  0  0  0  0  0  0  0  0  0
   -1.2833  -17.1987    0.0000 C   0  0  0  0  0  0  0  0  0  0  0  0
   -0.5688  -13.4861    0.0000 C   0  0  0  0  0  0  0  0  0  0  0  0
  -10.5715   -9.3611    0.0000 C   0  0  0  0  0  0  0  0  0  0  0  0
   -6.9991  -15.5487    0.0000 C   0  0  0  0  0  0  0  0  0  0  0  0
   -4.8557  -11.0110    0.0000 C   0  0  0  0  0  0  0  0  0  0  0  0
    0.1457  -13.0736    0.0000 C   0  0  0  0  0  0  0  0  0  0  0  0
   -7.7137  -16.7861    0.0000 C   0  0  0  0  0  0  0  0  0  0  0  0
   -0.5688  -16.7861    0.0000 C   0  0  0  0  0  0  0  0  0  0  0  0
   -4.1412   -9.7735    0.0000 C   0  0  0  0  0  0  0  0  0  0  0  0
  -11.2860   -9.7735    0.0000 C   0  0  0  0  0  0  0  0  0  0  0  0
   -8.4280  -17.1987    0.0000 C   0  0  3  0  0  0  0  0  0  0  0  0
    0.8602  -13.4861    0.0000 C   0  0  0  0  0  0  0  0  0  0  0  0
    1.5746  -13.0736    0.0000 C   0  0  3  0  0  0  0  0  0  0  0  0
   -3.4268   -9.3611    0.0000 C   0  0  3  0  0  0  0  0  0  0  0  0
    1.5746  -12.2486    0.0000 C   0  0  0  0  0  0  0  0  0  0  0  0
    0.1457  -17.1987    0.0000 C   0  0  0  0  0  0  0  0  0  0  0  0
   -9.1426  -16.7861    0.0000 C   0  0  0  0  0  0  0  0  0  0  0  0
  -12.0005   -9.3611    0.0000 C   0  0  0  0  0  0  0  0  0  0  0  0
   -2.7123   -9.7735    0.0000 C   0  0  0  0  0  0  0  0  0  0  0  0
   -9.8571  -17.1987    0.0000 C   0  0  0  0  0  0  0  0  0  0  0  0
   -1.9977   -9.3611    0.0000 C   0  0  0  0  0  0  0  0  0  0  0  0
    2.2891  -11.0110    0.0000 C   0  0  0  0  0  0  0  0  0  0  0  0
  -10.5715  -16.7861    0.0000 C   0  0  0  0  0  0  0  0  0  0  0  0
   -1.2833   -9.7735    0.0000 C   0  0  0  0  0  0  0  0  0  0  0  0
  -11.2860  -17.1987    0.0000 C   0  0  0  0  0  0  0  0  0  0  0  0
    3.0036  -10.5986    0.0000 C   0  0  0  0  0  0  0  0  0  0  0  0
   -0.5688   -9.3611    0.0000 C   0  0  0  0  0  0  0  0  0  0  0  0
  1  2  1  0  0  0  0
  1 38  1  0  0  0  0
  2 43  1  0  0  0  0
  3 31  2  0  0  0  0
  4 34  2  0  0  0  0
  5 35  2  0  0  0  0
  6 37  2  0  0  0  0
  7 40  2  0  0  0  0
  8 41  2  0  0  0  0
  9 41  1  0  0  0  0
 10 59  2  0  0  0  0
 11 61  2  0  0  0  0
 12 67  1  0  0  0  0
 12 74  1  0  0  0  0
 13 67  2  0  0  0  0
 14 31  1  0  0  0  0
 32 14  1  1  0  0  0
 30 15  1  1  0  0  0
 15 37  1  0  0  0  0
 16 34  1  0  0  0  0
 36 16  1  1  0  0  0
 33 17  1  1  0  0  0
 17 40  1  0  0  0  0
 18 35  1  0  0  0  0
 18 50  1  0  0  0  0
 19 42  1  0  0  0  0
 20 45  1  0  0  0  0
 21 56  1  0  0  0  0
 21 59  1  0  0  0  0
 22 57  1  0  0  0  0
 22 61  1  0  0  0  0
 63 23  1  1  0  0  0
 65 24  1  1  0  0  0
 66 25  1  1  0  0  0
 26 68  1  0  0  0  0
 27 70  1  0  0  0  0
 28 77  1  0  0  0  0
 29 79  1  0  0  0  0
 30 31  1  0  0  0  0
 30 39  1  0  0  0  0
 32 35  1  0  0  0  0
 32 38  1  0  0  0  0
 33 34  1  0  0  0  0
 33 44  1  0  0  0  0
 36 41  1  0  0  0  0
 36 43  1  0  0  0  0
 37 42  1  0  0  0  0
 39 46  1  0  0  0  0
 40 45  1  0  0  0  0
 42 48  1  0  0  0  0
 44 47  1  0  0  0  0
 45 49  1  0  0  0  0
 46 51  1  0  0  0  0
 47 52  1  0  0  0  0
 48 53  1  0  0  0  0
 49 55  1  0  0  0  0
 50 54  1  0  0  0  0
 51 56  1  0  0  0  0
 52 57  1  0  0  0  0
 53 60  1  0  0  0  0
 54 58  1  0  0  0  0
 55 62  1  0  0  0  0
 58 64  1  0  0  0  0
 59 63  1  0  0  0  0
 60 68  1  0  0  0  0
 61 66  1  0  0  0  0
 62 70  1  0  0  0  0
 63 69  1  0  0  0  0
 64 65  1  0  0  0  0
 65 67  1  0  0  0  0
 66 71  1  0  0  0  0
 69 72  1  0  0  0  0
 71 73  1  0  0  0  0
 72 75  1  0  0  0  0
 73 76  1  0  0  0  0
 74 78  1  0  0  0  0
 75 77  1  0  0  0  0
 76 79  1  0  0  0  0
M  END
> <PUBCHEM_COMPOUND_ID_TYPE>
0

> <PUBCHEM_TOTAL_CHARGE>
0

> <PUBCHEM_SUBSTANCE_ID>
310947650

> <PUBCHEM_SUBSTANCE_VERSION>
1

> <PUBCHEM_EXT_DATASOURCE_NAME>
4488

> <PUBCHEM_EXT_DATASOURCE_REGID>
SCHEMBL16125817

> <PUBCHEM_SUBSTANCE_COMMENT>
InChI=1S/C50H100N16O11S2/c1-2-77-50(76)37(59)21-7-14-30-62-46(71)40(65-47(72)38(63-44(69)35(57)19-5-12-26-53)22-8-15-28-60-42(67)33(55)17-3-10-24-51)31-78-79-32-41(49(74)75)66-48(73)39(64-45(70)36(58)20-6-13-27-54)23-9-16-29-61-43(68)34(56)18-4-11-25-52/h33-41H,2-32,51-59H2,1H3,(H,60,67)(H,61,68)(H,62,71)(H,63,69)(H,64,70)(H,65,72)(H,66,73)(H,74,75)/t33-,34-,35?,36?,37-,38-,39-,40-,41-/m0/s1
InChIKey=IAYSRXJOVFRAFQ-OVLAOSGESA-N

> <PUBCHEM_SUBSTANCE_SYNONYM>
SCHEMBL16125817

> <PUBCHEM_XREF_EXT_ID>
SCHEMBL16125817

> <PUBCHEM_EXT_DATASOURCE_URL>
https://www.surechembl.org/

> <PUBCHEM_EXT_SUBSTANCE_URL>
https://www.surechembl.org/chemical/SCHEMBL16125817

> <PUBCHEM_CID_ASSOCIATIONS>
117613366  1

> <PUBCHEM_COORDINATE_TYPE>
1
3

> <PUBCHEM_BONDANNOTATIONS>
32  14  5
30  15  5
36  16  5
33  17  5
63  23  5
65  24  5
66  25  5

$$$$
