310930563
  -OEChem-07211613022D

 16 16  0     0  0  0  0  0  0999 V2000
   -1.0558    1.6913    0.0000 S   0  0  0  0  0  0  0  0  0  0  0  0
   -0.4204    2.6698    0.0000 F   0  0  0  0  0  0  0  0  0  0  0  0
   -2.0343    2.3267    0.0000 F   0  0  0  0  0  0  0  0  0  0  0  0
   -2.1835    3.5602    0.0000 F   0  0  0  0  0  0  0  0  0  0  0  0
   -0.7858    3.8573    0.0000 F   0  0  0  0  0  0  0  0  0  0  0  0
   -0.8843    0.8843    0.0000 O   0  0  0  0  0  0  0  0  0  0  0  0
   -0.2489    1.8628    0.0000 O   0  0  0  0  0  0  0  0  0  0  0  0
   -1.8628    1.5197    0.0000 O   0  0  0  0  0  0  0  0  0  0  0  0
    0.5678    1.1143    0.0000 N   0  0  0  0  0  0  0  0  0  0  0  0
    0.1553   -0.1553    0.0000 N   0  0  0  0  0  0  0  0  0  0  0  0
   -1.2274    2.4982    0.0000 C   0  0  0  0  0  0  0  0  0  0  0  0
   -1.3989    3.3052    0.0000 C   0  0  0  0  0  0  0  0  0  0  0  0
   -0.0997    0.6294    0.0000 C   0  0  0  0  0  0  0  0  0  0  0  0
    1.2352    0.6294    0.0000 C   0  0  0  0  0  0  0  0  0  0  0  0
    0.9803   -0.1553    0.0000 C   0  0  0  0  0  0  0  0  0  0  0  0
    0.5678    1.9393    0.0000 C   0  0  0  0  0  0  0  0  0  0  0  0
  1  6  1  0  0  0  0
  1  7  2  0  0  0  0
  1  8  2  0  0  0  0
  1 11  1  0  0  0  0
  2 11  1  0  0  0  0
  3 11  1  0  0  0  0
  4 12  1  0  0  0  0
  5 12  1  0  0  0  0
  6 13  1  0  0  0  0
  9 13  1  0  0  0  0
  9 14  1  0  0  0  0
  9 16  1  0  0  0  0
 10 13  2  0  0  0  0
 10 15  1  0  0  0  0
 11 12  1  0  0  0  0
 14 15  2  0  0  0  0
M  END
> <PUBCHEM_COMPOUND_ID_TYPE>
0

> <PUBCHEM_TOTAL_CHARGE>
0

> <PUBCHEM_SUBSTANCE_ID>
310930563

> <PUBCHEM_SUBSTANCE_VERSION>
1

> <PUBCHEM_EXT_DATASOURCE_NAME>
4488

> <PUBCHEM_EXT_DATASOURCE_REGID>
SCHEMBL16107858

> <PUBCHEM_SUBSTANCE_COMMENT>
InChI=1S/C6H6F4N2O3S/c1-12-3-2-11-5(12)15-16(13,14)6(9,10)4(7)8/h2-4H,1H3
InChIKey=ULBRYIROQPCGMW-UHFFFAOYSA-N

> <PUBCHEM_SUBSTANCE_SYNONYM>
SCHEMBL16107858

> <PUBCHEM_XREF_EXT_ID>
SCHEMBL16107858

> <PUBCHEM_EXT_DATASOURCE_URL>
https://www.surechembl.org/

> <PUBCHEM_EXT_SUBSTANCE_URL>
https://www.surechembl.org/chemical/SCHEMBL16107858

> <PUBCHEM_CID_ASSOCIATIONS>
117599652  1

> <PUBCHEM_COORDINATE_TYPE>
1
3

$$$$
