310931494
  -OEChem-07211613022D

 31 34  0     0  0  0  0  0  0999 V2000
    0.8959   -2.6879    0.0000 O   0  0  0  0  0  0  0  0  0  0  0  0
    0.0000   -6.4150    0.0000 O   0  0  0  0  0  0  0  0  0  0  0  0
    3.4405   -6.7017    0.0000 O   0  0  0  0  0  0  0  0  0  0  0  0
    2.3653   -2.4728    0.0000 N   0  0  0  0  0  0  0  0  0  0  0  0
    2.7596   -3.7630    0.0000 N   0  0  0  0  0  0  0  0  0  0  0  0
    3.7989   -2.6879    0.0000 N   0  0  0  0  0  0  0  0  0  0  0  0
    1.9352   -3.7630    0.0000 C   0  0  0  0  0  0  0  0  0  0  0  0
    1.6844   -2.9746    0.0000 C   0  0  0  0  0  0  0  0  0  0  0  0
    1.4693   -4.4081    0.0000 C   0  0  0  0  0  0  0  0  0  0  0  0
    2.3295   -4.4798    0.0000 C   0  0  0  0  0  0  0  0  0  0  0  0
    3.0104   -2.9746    0.0000 C   0  0  0  0  0  0  0  0  0  0  0  0
    2.3653   -1.6486    0.0000 C   0  0  0  0  0  0  0  0  0  0  0  0
    1.7919   -5.1607    0.0000 C   0  0  0  0  0  0  0  0  0  0  0  0
    3.1537   -4.5156    0.0000 C   0  0  0  0  0  0  0  0  0  0  0  0
    0.6451   -4.3364    0.0000 C   0  0  0  0  0  0  0  0  0  0  0  0
    2.0428   -5.3399    0.0000 C   0  0  0  0  0  0  0  0  0  0  0  0
    1.6486   -1.2185    0.0000 C   0  0  0  0  0  0  0  0  0  0  0  0
    1.3260   -5.8416    0.0000 C   0  0  0  0  0  0  0  0  0  0  0  0
    3.5121   -5.2682    0.0000 C   0  0  0  0  0  0  0  0  0  0  0  0
    0.1434   -5.0174    0.0000 C   0  0  0  0  0  0  0  0  0  0  0  0
    2.2578   -5.9133    0.0000 C   0  0  0  0  0  0  0  0  0  0  0  0
    0.5017   -5.7341    0.0000 C   0  0  0  0  0  0  0  0  0  0  0  0
    3.0462   -5.9491    0.0000 C   0  0  0  0  0  0  0  0  0  0  0  0
    1.6127   -0.4300    0.0000 C   0  0  0  0  0  0  0  0  0  0  0  0
    0.8959   -1.6486    0.0000 C   0  0  0  0  0  0  0  0  0  0  0  0
    0.9318    0.0000    0.0000 C   0  0  0  0  0  0  0  0  0  0  0  0
    0.2150   -1.2185    0.0000 C   0  0  0  0  0  0  0  0  0  0  0  0
    0.2150   -0.3942    0.0000 C   0  0  0  0  0  0  0  0  0  0  0  0
    2.3295    0.0000    0.0000 C   0  0  0  0  0  0  0  0  0  0  0  0
    0.3225   -7.1676    0.0000 C   0  0  0  0  0  0  0  0  0  0  0  0
    4.2647   -6.7375    0.0000 C   0  0  0  0  0  0  0  0  0  0  0  0
  1  8  2  0  0  0  0
  2 22  1  0  0  0  0
  2 30  1  0  0  0  0
  3 23  1  0  0  0  0
  3 31  1  0  0  0  0
  4  8  1  0  0  0  0
  4 11  1  0  0  0  0
  4 12  1  0  0  0  0
  5  7  1  0  0  0  0
  5 11  1  0  0  0  0
  6 11  2  3  0  0  0
  7  8  1  0  0  0  0
  7  9  1  0  0  0  0
  7 10  1  0  0  0  0
  9 13  2  0  0  0  0
  9 15  1  0  0  0  0
 10 14  2  0  0  0  0
 10 16  1  0  0  0  0
 12 17  1  0  0  0  0
 13 18  1  0  0  0  0
 14 19  1  0  0  0  0
 15 20  2  0  0  0  0
 16 21  2  0  0  0  0
 17 24  1  0  0  0  0
 17 25  2  0  0  0  0
 18 22  2  0  0  0  0
 19 23  2  0  0  0  0
 20 22  1  0  0  0  0
 21 23  1  0  0  0  0
 24 26  2  0  0  0  0
 24 29  1  0  0  0  0
 25 27  1  0  0  0  0
 26 28  1  0  0  0  0
 27 28  2  0  0  0  0
M  END
> <PUBCHEM_COMPOUND_ID_TYPE>
0

> <PUBCHEM_TOTAL_CHARGE>
0

> <PUBCHEM_SUBSTANCE_ID>
310931494

> <PUBCHEM_SUBSTANCE_VERSION>
1

> <PUBCHEM_EXT_DATASOURCE_NAME>
4488

> <PUBCHEM_EXT_DATASOURCE_REGID>
SCHEMBL16108819

> <PUBCHEM_SUBSTANCE_COMMENT>
InChI=1S/C25H25N3O3/c1-17-6-4-5-7-18(17)16-28-23(29)25(27-24(28)26,19-8-12-21(30-2)13-9-19)20-10-14-22(31-3)15-11-20/h4-15H,16H2,1-3H3,(H2,26,27)
InChIKey=VNVOIFTUZUGEIL-UHFFFAOYSA-N

> <PUBCHEM_SUBSTANCE_SYNONYM>
SCHEMBL16108819

> <PUBCHEM_XREF_EXT_ID>
SCHEMBL16108819

> <PUBCHEM_EXT_DATASOURCE_URL>
https://www.surechembl.org/

> <PUBCHEM_EXT_SUBSTANCE_URL>
https://www.surechembl.org/chemical/SCHEMBL16108819

> <PUBCHEM_CID_ASSOCIATIONS>
86275289  1

> <PUBCHEM_COORDINATE_TYPE>
1
3

$$$$
