310944884
  -OEChem-07211613022D

 37 41  0     0  0  0  0  0  0999 V2000
   -4.3874   -3.6942    0.0000 O   0  0  0  0  0  0  0  0  0  0  0  0
    3.8960   -1.3075    0.0000 O   0  0  0  0  0  0  0  0  0  0  0  0
    4.6155   -0.0614    0.0000 O   0  0  0  0  0  0  0  0  0  0  0  0
   -4.1944   -1.4654    0.0000 N   0  0  0  0  0  0  0  0  0  0  0  0
   -4.6155   -0.7458    0.0000 N   0  0  0  0  0  0  0  0  0  0  0  0
   -0.4388    1.1846    0.0000 C   0  0  0  0  0  0  0  0  0  0  0  0
   -0.4212    2.0270    0.0000 C   0  0  0  0  0  0  0  0  0  0  0  0
   -1.1407    0.7809    0.0000 C   0  0  0  0  0  0  0  0  0  0  0  0
   -1.1758    2.4657    0.0000 C   0  0  0  0  0  0  0  0  0  0  0  0
    0.2984    0.7809    0.0000 C   0  0  0  0  0  0  0  0  0  0  0  0
    0.2984    2.4482    0.0000 C   0  0  0  0  0  0  0  0  0  0  0  0
   -2.5798   -0.0614    0.0000 C   0  0  0  0  0  0  0  0  0  0  0  0
   -1.8603    1.1671    0.0000 C   0  0  0  0  0  0  0  0  0  0  0  0
   -1.1582   -0.0790    0.0000 C   0  0  0  0  0  0  0  0  0  0  0  0
   -1.9304    2.2376    0.0000 C   0  0  0  0  0  0  0  0  0  0  0  0
   -1.3514    3.2379    0.0000 C   0  0  0  0  0  0  0  0  0  0  0  0
   -3.2993   -0.4826    0.0000 C   0  0  0  0  0  0  0  0  0  0  0  0
    0.3159   -0.0614    0.0000 C   0  0  0  0  0  0  0  0  0  0  0  0
    1.0178    1.1671    0.0000 C   0  0  0  0  0  0  0  0  0  0  0  0
   -2.5622    0.7634    0.0000 C   0  0  0  0  0  0  0  0  0  0  0  0
   -1.8778   -0.4650    0.0000 C   0  0  0  0  0  0  0  0  0  0  0  0
    1.0355    2.0445    0.0000 C   0  0  0  0  0  0  0  0  0  0  0  0
    0.3159    3.2905    0.0000 C   0  0  0  0  0  0  0  0  0  0  0  0
   -2.1411    3.0273    0.0000 C   0  0  0  0  0  0  0  0  0  0  0  0
    1.7374   -0.0614    0.0000 C   0  0  0  0  0  0  0  0  0  0  0  0
   -3.3870   -1.3250    0.0000 C   0  0  0  0  0  0  0  0  0  0  0  0
    1.0003   -0.4650    0.0000 C   0  0  0  0  0  0  0  0  0  0  0  0
    1.7199    0.7634    0.0000 C   0  0  0  0  0  0  0  0  0  0  0  0
   -4.0715   -0.1491    0.0000 C   0  0  0  0  0  0  0  0  0  0  0  0
    1.7199    2.4482    0.0000 C   0  0  0  0  0  0  0  0  0  0  0  0
    1.0003    3.6942    0.0000 C   0  0  0  0  0  0  0  0  0  0  0  0
    1.7199    3.2905    0.0000 C   0  0  0  0  0  0  0  0  0  0  0  0
    2.4394   -0.4826    0.0000 C   0  0  0  0  0  0  0  0  0  0  0  0
   -4.5278   -2.2727    0.0000 C   0  0  0  0  0  0  0  0  0  0  0  0
    3.1589   -0.0790    0.0000 C   0  0  0  0  0  0  0  0  0  0  0  0
   -4.0540   -2.9395    0.0000 C   0  0  0  0  0  0  0  0  0  0  0  0
    3.8960   -0.4650    0.0000 C   0  0  0  0  0  0  0  0  0  0  0  0
  1 36  1  0  0  0  0
  2 37  2  0  0  0  0
  3 37  1  0  0  0  0
  4  5  1  0  0  0  0
  4 26  1  0  0  0  0
  4 34  1  0  0  0  0
  5 29  2  0  0  0  0
  6  7  2  0  0  0  0
  6  8  1  0  0  0  0
  6 10  1  0  0  0  0
  7  9  1  0  0  0  0
  7 11  1  0  0  0  0
  8 13  2  0  0  0  0
  8 14  1  0  0  0  0
  9 15  1  0  0  0  0
  9 16  1  0  0  0  0
 10 18  2  0  0  0  0
 10 19  1  0  0  0  0
 11 22  2  0  0  0  0
 11 23  1  0  0  0  0
 12 17  1  0  0  0  0
 12 20  2  0  0  0  0
 12 21  1  0  0  0  0
 13 20  1  0  0  0  0
 14 21  2  0  0  0  0
 15 24  1  0  0  0  0
 16 24  1  0  0  0  0
 17 26  2  0  0  0  0
 17 29  1  0  0  0  0
 18 27  1  0  0  0  0
 19 28  2  0  0  0  0
 22 30  1  0  0  0  0
 23 31  2  0  0  0  0
 25 27  2  0  0  0  0
 25 28  1  0  0  0  0
 25 33  1  0  0  0  0
 30 32  2  0  0  0  0
 31 32  1  0  0  0  0
 33 35  2  0  0  0  0
 34 36  1  0  0  0  0
 35 37  1  0  0  0  0
M  END
> <PUBCHEM_COMPOUND_ID_TYPE>
0

> <PUBCHEM_TOTAL_CHARGE>
0

> <PUBCHEM_SUBSTANCE_ID>
310944884

> <PUBCHEM_SUBSTANCE_VERSION>
1

> <PUBCHEM_EXT_DATASOURCE_NAME>
4488

> <PUBCHEM_EXT_DATASOURCE_REGID>
SCHEMBL16122968

> <PUBCHEM_SUBSTANCE_COMMENT>
InChI=1S/C32H30N2O3/c35-20-19-34-22-29(21-33-34)24-14-16-28(17-15-24)32(27-12-9-23(10-13-27)11-18-30(36)37)31(26-7-4-8-26)25-5-2-1-3-6-25/h1-3,5-6,9-18,21-22,26,35H,4,7-8,19-20H2,(H,36,37)/b18-11+,32-31-
InChIKey=QQWUFEQPYKEJEC-HCGDUPFOSA-N

> <PUBCHEM_SUBSTANCE_SYNONYM>
SCHEMBL16122968

> <PUBCHEM_XREF_EXT_ID>
SCHEMBL16122968

> <PUBCHEM_EXT_DATASOURCE_URL>
https://www.surechembl.org/

> <PUBCHEM_EXT_SUBSTANCE_URL>
https://www.surechembl.org/chemical/SCHEMBL16122968

> <PUBCHEM_CID_ASSOCIATIONS>
86270611  1

> <PUBCHEM_COORDINATE_TYPE>
1
3

$$$$
