310937793
  -OEChem-07211613022D

 16 17  0     0  0  0  0  0  0999 V2000
    0.5583   -2.4855    0.0000 Cl  0  0  0  0  0  0  0  0  0  0  0  0
    4.5747   -1.4769    0.0000 O   0  0  0  0  0  0  0  0  0  0  0  0
    4.5747   -2.9177    0.0000 O   0  0  0  0  0  0  0  0  0  0  0  0
    2.8637   -2.8637    0.0000 N   0  0  0  0  0  0  0  0  0  0  0  0
    0.0901   -0.3602    0.0000 N   0  0  0  0  0  0  0  0  0  0  0  0
    2.0712   -1.7831    0.0000 C   0  0  0  0  0  0  0  0  0  0  0  0
    1.4049   -1.3148    0.0000 C   0  0  0  0  0  0  0  0  0  0  0  0
    3.3500   -2.1973    0.0000 C   0  0  0  0  0  0  0  0  0  0  0  0
    2.8637   -1.5309    0.0000 C   0  0  0  0  0  0  0  0  0  0  0  0
    0.6484   -1.6570    0.0000 C   0  0  0  0  0  0  0  0  0  0  0  0
    2.0712   -2.6116    0.0000 C   0  0  0  0  0  0  0  0  0  0  0  0
    4.1605   -2.1973    0.0000 C   0  0  0  0  0  0  0  0  0  0  0  0
    1.4949   -0.5043    0.0000 C   0  0  0  0  0  0  0  0  0  0  0  0
    0.0000   -1.1527    0.0000 C   0  0  0  0  0  0  0  0  0  0  0  0
    0.8285    0.0000    0.0000 C   0  0  0  0  0  0  0  0  0  0  0  0
    5.4033   -1.4769    0.0000 C   0  0  0  0  0  0  0  0  0  0  0  0
  1 10  1  0  0  0  0
  2 12  1  0  0  0  0
  2 16  1  0  0  0  0
  3 12  2  0  0  0  0
  4  8  1  0  0  0  0
  4 11  1  0  0  0  0
  5 14  1  0  0  0  0
  5 15  2  0  0  0  0
  6  7  1  0  0  0  0
  6  9  1  0  0  0  0
  6 11  2  0  0  0  0
  7 10  1  0  0  0  0
  7 13  2  0  0  0  0
  8  9  2  0  0  0  0
  8 12  1  0  0  0  0
 10 14  2  0  0  0  0
 13 15  1  0  0  0  0
M  END
> <PUBCHEM_COMPOUND_ID_TYPE>
0

> <PUBCHEM_TOTAL_CHARGE>
0

> <PUBCHEM_SUBSTANCE_ID>
310937793

> <PUBCHEM_SUBSTANCE_VERSION>
1

> <PUBCHEM_EXT_DATASOURCE_NAME>
4488

> <PUBCHEM_EXT_DATASOURCE_REGID>
SCHEMBL16115606

> <PUBCHEM_SUBSTANCE_COMMENT>
InChI=1S/C11H9ClN2O2/c1-16-11(15)10-4-7(5-14-10)8-2-3-13-6-9(8)12/h2-6,14H,1H3
InChIKey=UDYSMIIVDFDSEE-UHFFFAOYSA-N

> <PUBCHEM_SUBSTANCE_SYNONYM>
SCHEMBL16115606

> <PUBCHEM_XREF_EXT_ID>
SCHEMBL16115606

> <PUBCHEM_EXT_DATASOURCE_URL>
https://www.surechembl.org/

> <PUBCHEM_EXT_SUBSTANCE_URL>
https://www.surechembl.org/chemical/SCHEMBL16115606

> <PUBCHEM_CID_ASSOCIATIONS>
117605443  1

> <PUBCHEM_COORDINATE_TYPE>
1
3

$$$$
