310936115
  -OEChem-07211613022D

 25 28  0     1  0  0  0  0  0999 V2000
   -0.1435    2.1904    0.0000 O   0  0  0  0  0  0  0  0  0  0  0  0
    4.5075    0.6807    0.0000 O   0  0  0  0  0  0  0  0  0  0  0  0
    3.4990    1.9354    0.0000 O   0  0  0  0  0  0  0  0  0  0  0  0
   -0.6284    1.5229    0.0000 N   0  0  0  0  0  0  0  0  0  0  0  0
    2.0701    1.1104    0.0000 C   0  0  3  0  0  0  0  0  0  0  0  0
    2.3522    0.3352    0.0000 C   0  0  3  0  0  0  0  0  0  0  0  0
    3.1647    0.1919    0.0000 C   0  0  3  0  0  0  0  0  0  0  0  0
    3.4469   -0.5833    0.0000 C   0  0  0  0  0  0  0  0  0  0  0  0
    2.0701    1.9354    0.0000 C   0  0  3  0  0  0  0  0  0  0  0  0
    2.9166   -1.2153    0.0000 C   0  0  0  0  0  0  0  0  0  0  0  0
    1.3556    0.6979    0.0000 C   0  0  0  0  0  0  0  0  0  0  0  0
    3.3537   -1.9149    0.0000 C   0  0  0  0  0  0  0  0  0  0  0  0
    0.6411    1.1104    0.0000 C   0  0  0  0  0  0  0  0  0  0  0  0
    1.8219   -0.2968    0.0000 C   0  0  0  0  0  0  0  0  0  0  0  0
    0.6411    1.9354    0.0000 C   0  0  0  0  0  0  0  0  0  0  0  0
    1.3556    2.3479    0.0000 C   0  0  0  0  0  0  0  0  0  0  0  0
    2.1041   -1.0720    0.0000 C   0  0  0  0  0  0  0  0  0  0  0  0
    4.2118   -0.8924    0.0000 C   0  0  0  0  0  0  0  0  0  0  0  0
    4.1542   -1.7154    0.0000 C   0  0  0  0  0  0  0  0  0  0  0  0
    2.8825    1.2537    0.0000 C   0  0  0  0  0  0  0  0  0  0  0  0
    3.6950    0.8239    0.0000 C   0  0  0  0  0  0  0  0  0  0  0  0
    2.7845    2.3479    0.0000 C   0  0  0  0  0  0  0  0  0  0  0  0
   -0.1435    0.8555    0.0000 C   0  0  0  0  0  0  0  0  0  0  0  0
    3.6359   -2.6902    0.0000 C   0  0  0  0  0  0  0  0  0  0  0  0
    2.6122   -2.2766    0.0000 C   0  0  0  0  0  0  0  0  0  0  0  0
  1  4  1  0  0  0  0
  1 15  1  0  0  0  0
  2 21  1  0  0  0  0
  3 22  1  0  0  0  0
  4 23  2  0  0  0  0
  5  6  1  0  0  0  0
  5  9  1  0  0  0  0
  5 11  1  0  0  0  0
  5 20  1  6  0  0  0
  6  7  1  0  0  0  0
  6 14  1  6  0  0  0
  7  8  1  0  0  0  0
  7 21  1  1  0  0  0
  8 10  2  0  0  0  0
  8 18  1  0  0  0  0
  9 16  1  0  0  0  0
  9 22  1  6  0  0  0
 10 12  1  0  0  0  0
 10 17  1  0  0  0  0
 11 13  1  0  0  0  0
 12 19  1  0  0  0  0
 12 24  1  0  0  0  0
 12 25  1  0  0  0  0
 13 15  2  0  0  0  0
 13 23  1  0  0  0  0
 14 17  1  0  0  0  0
 15 16  1  0  0  0  0
 18 19  1  0  0  0  0
M  END
> <PUBCHEM_COMPOUND_ID_TYPE>
0

> <PUBCHEM_TOTAL_CHARGE>
0

> <PUBCHEM_SUBSTANCE_ID>
310936115

> <PUBCHEM_SUBSTANCE_VERSION>
1

> <PUBCHEM_EXT_DATASOURCE_NAME>
4488

> <PUBCHEM_EXT_DATASOURCE_REGID>
SCHEMBL16113723

> <PUBCHEM_SUBSTANCE_COMMENT>
InChI=1S/C21H31NO3/c1-20(2)7-6-15-16(12-24)18(5-4-17(15)20)21(3)9-13-10-22-25-19(13)8-14(21)11-23/h10,14,16,18,23-24H,4-9,11-12H2,1-3H3/t14-,16+,18+,21+/m1/s1
InChIKey=YNXNMJIMLYYEGY-JXNBOPDTSA-N

> <PUBCHEM_SUBSTANCE_SYNONYM>
SCHEMBL16113723

> <PUBCHEM_XREF_EXT_ID>
SCHEMBL16113723

> <PUBCHEM_EXT_DATASOURCE_URL>
https://www.surechembl.org/

> <PUBCHEM_EXT_SUBSTANCE_URL>
https://www.surechembl.org/chemical/SCHEMBL16113723

> <PUBCHEM_CID_ASSOCIATIONS>
117604080  1

> <PUBCHEM_COORDINATE_TYPE>
1
3

> <PUBCHEM_BONDANNOTATIONS>
5  20  6
6  14  6
7  21  5
9  22  6

$$$$
