310942366
  -OEChem-07211613022D

 31 33  0     1  0  0  0  0  0999 V2000
   -3.1195   -0.2031    0.0000 P   0  0  3  0  0  0  0  0  0  0  0  0
   -0.3346   -0.4303    0.0000 O   0  0  0  0  0  0  0  0  0  0  0  0
    0.3107   -2.5339    0.0000 O   0  0  0  0  0  0  0  0  0  0  0  0
   -0.9682   -2.5339    0.0000 O   0  0  0  0  0  0  0  0  0  0  0  0
   -2.2828   -0.2031    0.0000 O   0  0  0  0  0  0  0  0  0  0  0  0
   -3.1195    0.6454    0.0000 O   0  0  0  0  0  0  0  0  0  0  0  0
    0.6454    0.1673    0.0000 N   0  0  0  0  0  0  0  0  0  0  0  0
    0.6454    1.5299    0.0000 N   0  0  0  0  0  0  0  0  0  0  0  0
    2.1753    0.0000    0.0000 N   0  0  0  0  0  0  0  0  0  0  0  0
    2.9044    1.2669    0.0000 N   0  0  0  0  0  0  0  0  0  0  0  0
    2.1753    2.5339    0.0000 N   0  0  0  0  0  0  0  0  0  0  0  0
    0.3107   -0.8845    0.0000 C   0  0  3  0  0  0  0  0  0  0  0  0
    1.4343    0.4661    0.0000 C   0  0  0  0  0  0  0  0  0  0  0  0
    1.4582    1.2908    0.0000 C   0  0  0  0  0  0  0  0  0  0  0  0
    0.0837   -1.6972    0.0000 C   0  0  3  0  0  0  0  0  0  0  0  0
   -1.0040   -0.8845    0.0000 C   0  0  3  0  0  0  0  0  0  0  0  0
   -0.7530   -1.6972    0.0000 C   0  0  3  0  0  0  0  0  0  0  0  0
    0.1554    0.8606    0.0000 C   0  0  0  0  0  0  0  0  0  0  0  0
    2.1633    1.6972    0.0000 C   0  0  0  0  0  0  0  0  0  0  0  0
   -1.4343   -0.1912    0.0000 C   0  0  0  0  0  0  0  0  0  0  0  0
   -1.8168   -0.1673    0.0000 C   0  0  3  0  0  0  0  0  0  0  0  0
    2.9044    0.4542    0.0000 C   0  0  0  0  0  0  0  0  0  0  0  0
   -1.8645    0.4303    0.0000 C   0  0  0  0  0  0  0  0  0  0  0  0
   -2.1753   -1.3865    0.0000 C   0  0  0  0  0  0  0  0  0  0  0  0
    3.6215    1.6852    0.0000 C   0  0  0  0  0  0  0  0  0  0  0  0
   -3.6215   -0.1793    0.0000 C   0  0  0  0  0  0  0  0  0  0  0  0
   -2.1514    1.1713    0.0000 C   0  0  0  0  0  0  0  0  0  0  0  0
   -3.4661    0.7291    0.0000 C   0  0  0  0  0  0  0  0  0  0  0  0
   -3.4542   -0.9801    0.0000 C   0  0  0  0  0  0  0  0  0  0  0  0
   -3.2749    1.1833    0.0000 C   0  0  0  0  0  0  0  0  0  0  0  0
   -3.2390   -1.4223    0.0000 C   0  0  0  0  0  0  0  0  0  0  0  0
  1  5  1  0  0  0  0
  1  6  2  0  0  0  0
  1 26  1  0  0  0  0
  2 12  1  0  0  0  0
  2 16  1  0  0  0  0
 15  3  1  6  0  0  0
 17  4  1  6  0  0  0
  5 21  1  0  0  0  0
  7 12  1  0  0  0  0
  7 13  1  0  0  0  0
  7 18  1  0  0  0  0
  8 14  1  0  0  0  0
  8 18  2  0  0  0  0
  9 13  1  0  0  0  0
  9 22  2  0  0  0  0
 10 19  1  0  0  0  0
 10 22  1  0  0  0  0
 10 25  1  0  0  0  0
 11 19  2  3  0  0  0
 12 15  1  0  0  0  0
 13 14  2  0  0  0  0
 14 19  1  0  0  0  0
 15 17  1  0  0  0  0
 16 17  1  0  0  0  0
 16 20  1  1  0  0  0
 20 21  1  0  0  0  0
 21 23  1  0  0  0  0
 21 24  1  0  0  0  0
 23 27  1  0  0  0  0
 26 28  1  0  0  0  0
 26 29  1  0  0  0  0
 28 30  1  0  0  0  0
 29 31  1  0  0  0  0
M  END
> <PUBCHEM_COMPOUND_ID_TYPE>
0

> <PUBCHEM_TOTAL_CHARGE>
0

> <PUBCHEM_SUBSTANCE_ID>
310942366

> <PUBCHEM_SUBSTANCE_VERSION>
1

> <PUBCHEM_EXT_DATASOURCE_NAME>
4488

> <PUBCHEM_EXT_DATASOURCE_REGID>
SCHEMBL16120402

> <PUBCHEM_SUBSTANCE_COMMENT>
InChI=1S/C20H34N5O5P/c1-6-12(7-2)31(28)30-20(4,8-3)9-13-15(26)16(27)19(29-13)25-11-22-14-17(21)24(5)10-23-18(14)25/h10-13,15-16,19,21,26-27,31H,6-9H2,1-5H3/t13-,15-,16-,19?,20?/m1/s1
InChIKey=OHJCFBMYBVSONV-JSMJAWQLSA-N

> <PUBCHEM_SUBSTANCE_SYNONYM>
SCHEMBL16120402

> <PUBCHEM_XREF_EXT_ID>
SCHEMBL16120402

> <PUBCHEM_EXT_DATASOURCE_URL>
https://www.surechembl.org/

> <PUBCHEM_EXT_SUBSTANCE_URL>
https://www.surechembl.org/chemical/SCHEMBL16120402

> <PUBCHEM_CID_ASSOCIATIONS>
117608984  1

> <PUBCHEM_COORDINATE_TYPE>
1
3

> <PUBCHEM_BONDANNOTATIONS>
16  20  5
15  3  6
17  4  6

$$$$
