310949276
  -OEChem-07211613022D

 53 60  0     0  0  0  0  0  0999 V2000
    0.0072    0.1872    0.0000 N   0  0  0  0  0  0  0  0  0  0  0  0
    2.1533   -0.2593    0.0000 N   0  0  0  0  0  0  0  0  0  0  0  0
   -2.1533   -0.2449    0.0000 N   0  0  0  0  0  0  0  0  0  0  0  0
   -0.0360   -3.9609    0.0000 N   0  0  0  0  0  0  0  0  0  0  0  0
   -0.0072   -0.6338    0.0000 C   0  0  0  0  0  0  0  0  0  0  0  0
   -0.6842    0.7057    0.0000 C   0  0  0  0  0  0  0  0  0  0  0  0
    0.6553    0.7057    0.0000 C   0  0  0  0  0  0  0  0  0  0  0  0
   -0.3961    1.5124    0.0000 C   0  0  0  0  0  0  0  0  0  0  0  0
    0.4537    1.4835    0.0000 C   0  0  0  0  0  0  0  0  0  0  0  0
    0.7274   -1.0515    0.0000 C   0  0  0  0  0  0  0  0  0  0  0  0
   -0.6986   -1.0227    0.0000 C   0  0  0  0  0  0  0  0  0  0  0  0
    0.6986   -1.8869    0.0000 C   0  0  0  0  0  0  0  0  0  0  0  0
   -0.7418   -1.8580    0.0000 C   0  0  0  0  0  0  0  0  0  0  0  0
   -0.0216   -2.2758    0.0000 C   0  0  0  0  0  0  0  0  0  0  0  0
   -0.9578    2.1029    0.0000 C   0  0  0  0  0  0  0  0  0  0  0  0
    0.9867    2.0740    0.0000 C   0  0  0  0  0  0  0  0  0  0  0  0
   -1.4908    0.5474    0.0000 C   0  0  0  0  0  0  0  0  0  0  0  0
    1.4764    0.5330    0.0000 C   0  0  0  0  0  0  0  0  0  0  0  0
   -1.7500    1.9444    0.0000 C   0  0  0  0  0  0  0  0  0  0  0  0
    1.7932    1.9013    0.0000 C   0  0  0  0  0  0  0  0  0  0  0  0
    1.4331   -2.2902    0.0000 C   0  0  0  0  0  0  0  0  0  0  0  0
   -1.4764   -2.2469    0.0000 C   0  0  0  0  0  0  0  0  0  0  0  0
   -2.0236    1.1379    0.0000 C   0  0  0  0  0  0  0  0  0  0  0  0
    2.0525    1.1379    0.0000 C   0  0  0  0  0  0  0  0  0  0  0  0
    1.4331   -0.6482    0.0000 C   0  0  0  0  0  0  0  0  0  0  0  0
   -1.4476   -0.6193    0.0000 C   0  0  0  0  0  0  0  0  0  0  0  0
   -2.3262    2.5926    0.0000 C   0  0  0  0  0  0  0  0  0  0  0  0
    2.3550    2.5494    0.0000 C   0  0  0  0  0  0  0  0  0  0  0  0
   -0.0360   -3.1400    0.0000 C   0  0  0  0  0  0  0  0  0  0  0  0
    1.4331   -3.1111    0.0000 C   0  0  0  0  0  0  0  0  0  0  0  0
    2.1533   -1.9013    0.0000 C   0  0  0  0  0  0  0  0  0  0  0  0
   -2.1677   -1.8436    0.0000 C   0  0  0  0  0  0  0  0  0  0  0  0
   -1.4764   -3.0823    0.0000 C   0  0  0  0  0  0  0  0  0  0  0  0
   -2.0525    3.3848    0.0000 C   0  0  0  0  0  0  0  0  0  0  0  0
    3.1183    2.3333    0.0000 C   0  0  0  0  0  0  0  0  0  0  0  0
   -3.1471    2.4198    0.0000 C   0  0  0  0  0  0  0  0  0  0  0  0
    2.0813    3.3271    0.0000 C   0  0  0  0  0  0  0  0  0  0  0  0
    2.1389   -3.5289    0.0000 C   0  0  0  0  0  0  0  0  0  0  0  0
    2.8303   -2.3189    0.0000 C   0  0  0  0  0  0  0  0  0  0  0  0
   -2.8878   -2.2613    0.0000 C   0  0  0  0  0  0  0  0  0  0  0  0
   -2.1821   -3.4856    0.0000 C   0  0  0  0  0  0  0  0  0  0  0  0
   -2.5998    3.9609    0.0000 C   0  0  0  0  0  0  0  0  0  0  0  0
    3.6945    2.9815    0.0000 C   0  0  0  0  0  0  0  0  0  0  0  0
   -3.6945    3.0391    0.0000 C   0  0  0  0  0  0  0  0  0  0  0  0
    2.6574    3.9321    0.0000 C   0  0  0  0  0  0  0  0  0  0  0  0
    2.8303   -3.1255    0.0000 C   0  0  0  0  0  0  0  0  0  0  0  0
   -2.9023   -3.0823    0.0000 C   0  0  0  0  0  0  0  0  0  0  0  0
   -3.4208    3.8313    0.0000 C   0  0  0  0  0  0  0  0  0  0  0  0
    3.4352    3.7593    0.0000 C   0  0  0  0  0  0  0  0  0  0  0  0
   -1.2459    3.5289    0.0000 C   0  0  0  0  0  0  0  0  0  0  0  0
    3.4064    1.5556    0.0000 C   0  0  0  0  0  0  0  0  0  0  0  0
   -3.3775    1.6276    0.0000 C   0  0  0  0  0  0  0  0  0  0  0  0
    1.2603    3.4856    0.0000 C   0  0  0  0  0  0  0  0  0  0  0  0
  1  5  1  0  0  0  0
  1  6  1  0  0  0  0
  1  7  1  0  0  0  0
  2 25  3  0  0  0  0
  3 26  3  0  0  0  0
  4 29  3  0  0  0  0
  5 10  2  0  0  0  0
  5 11  1  0  0  0  0
  6  8  2  0  0  0  0
  6 17  1  0  0  0  0
  7  9  2  0  0  0  0
  7 18  1  0  0  0  0
  8  9  1  0  0  0  0
  8 15  1  0  0  0  0
  9 16  1  0  0  0  0
 10 12  1  0  0  0  0
 10 25  1  0  0  0  0
 11 13  2  0  0  0  0
 11 26  1  0  0  0  0
 12 14  2  0  0  0  0
 12 21  1  0  0  0  0
 13 14  1  0  0  0  0
 13 22  1  0  0  0  0
 14 29  1  0  0  0  0
 15 19  2  0  0  0  0
 16 20  2  0  0  0  0
 17 23  2  0  0  0  0
 18 24  2  0  0  0  0
 19 23  1  0  0  0  0
 19 27  1  0  0  0  0
 20 24  1  0  0  0  0
 20 28  1  0  0  0  0
 21 30  2  0  0  0  0
 21 31  1  0  0  0  0
 22 32  2  0  0  0  0
 22 33  1  0  0  0  0
 27 34  2  0  0  0  0
 27 36  1  0  0  0  0
 28 35  2  0  0  0  0
 28 37  1  0  0  0  0
 30 38  1  0  0  0  0
 31 39  2  0  0  0  0
 32 40  1  0  0  0  0
 33 41  2  0  0  0  0
 34 42  1  0  0  0  0
 34 50  1  0  0  0  0
 35 43  1  0  0  0  0
 35 51  1  0  0  0  0
 36 44  2  0  0  0  0
 36 52  1  0  0  0  0
 37 45  2  0  0  0  0
 37 53  1  0  0  0  0
 38 46  2  0  0  0  0
 39 46  1  0  0  0  0
 40 47  2  0  0  0  0
 41 47  1  0  0  0  0
 42 48  2  0  0  0  0
 43 49  2  0  0  0  0
 44 48  1  0  0  0  0
 45 49  1  0  0  0  0
M  END
> <PUBCHEM_COMPOUND_ID_TYPE>
0

> <PUBCHEM_TOTAL_CHARGE>
0

> <PUBCHEM_SUBSTANCE_ID>
310949276

> <PUBCHEM_SUBSTANCE_VERSION>
1

> <PUBCHEM_EXT_DATASOURCE_NAME>
4488

> <PUBCHEM_EXT_DATASOURCE_REGID>
SCHEMBL16127466

> <PUBCHEM_SUBSTANCE_COMMENT>
InChI=1S/C49H34N4/c1-30-13-11-14-31(2)45(30)36-21-23-43-38(25-36)39-26-37(46-32(3)15-12-16-33(46)4)22-24-44(39)53(43)49-41(28-51)47(34-17-7-5-8-18-34)40(27-50)48(42(49)29-52)35-19-9-6-10-20-35/h5-26H,1-4H3
InChIKey=UPVIVNXTOZFLCF-UHFFFAOYSA-N

> <PUBCHEM_SUBSTANCE_SYNONYM>
SCHEMBL16127466

> <PUBCHEM_XREF_EXT_ID>
SCHEMBL16127466

> <PUBCHEM_EXT_DATASOURCE_URL>
https://www.surechembl.org/

> <PUBCHEM_EXT_SUBSTANCE_URL>
https://www.surechembl.org/chemical/SCHEMBL16127466

> <PUBCHEM_CID_ASSOCIATIONS>
117614762  1

> <PUBCHEM_COORDINATE_TYPE>
1
3

$$$$
