310936665
  -OEChem-07211613022D

 27 29  0     0  0  0  0  0  0999 V2000
    1.4025   -8.2500    0.0000 Cl  0  0  0  0  0  0  0  0  0  0  0  0
    4.2900   -5.8163    0.0000 O   0  0  0  0  0  0  0  0  0  0  0  0
    3.5475   -4.5788    0.0000 N   0  0  0  0  0  0  0  0  0  0  0  0
    0.7013   -2.0625    0.0000 N   0  0  0  0  0  0  0  0  0  0  0  0
    2.1450   -2.0625    0.0000 N   0  0  0  0  0  0  0  0  0  0  0  0
    0.0000    0.0000    0.0000 N   0  0  0  0  0  0  0  0  0  0  0  0
    2.8462   -5.7750    0.0000 C   0  0  0  0  0  0  0  0  0  0  0  0
    2.8462   -6.6000    0.0000 C   0  0  0  0  0  0  0  0  0  0  0  0
    3.5887   -5.4038    0.0000 C   0  0  0  0  0  0  0  0  0  0  0  0
    2.1450   -4.5788    0.0000 C   0  0  0  0  0  0  0  0  0  0  0  0
    2.1450   -5.4038    0.0000 C   0  0  0  0  0  0  0  0  0  0  0  0
    1.4025   -1.6500    0.0000 C   0  0  0  0  0  0  0  0  0  0  0  0
    1.4025   -0.8250    0.0000 C   0  0  0  0  0  0  0  0  0  0  0  0
    1.4025   -3.3000    0.0000 C   0  0  0  0  0  0  0  0  0  0  0  0
    1.4025   -4.1250    0.0000 C   0  0  0  0  0  0  0  0  0  0  0  0
    2.8462   -4.1663    0.0000 C   0  0  0  0  0  0  0  0  0  0  0  0
    2.1450   -7.0125    0.0000 C   0  0  0  0  0  0  0  0  0  0  0  0
    0.7013   -2.8875    0.0000 C   0  0  0  0  0  0  0  0  0  0  0  0
    2.1450   -2.8875    0.0000 C   0  0  0  0  0  0  0  0  0  0  0  0
    3.5475   -7.0538    0.0000 C   0  0  0  0  0  0  0  0  0  0  0  0
    2.1038   -7.8375    0.0000 C   0  0  0  0  0  0  0  0  0  0  0  0
    0.7013   -0.4125    0.0000 C   0  0  0  0  0  0  0  0  0  0  0  0
    3.5475   -7.8788    0.0000 C   0  0  0  0  0  0  0  0  0  0  0  0
    2.8050   -8.2500    0.0000 C   0  0  0  0  0  0  0  0  0  0  0  0
    2.1450   -0.4125    0.0000 C   0  0  0  0  0  0  0  0  0  0  0  0
    1.4025    0.0000    0.0000 C   0  0  0  0  0  0  0  0  0  0  0  0
    4.9913   -5.4038    0.0000 C   0  0  0  0  0  0  0  0  0  0  0  0
  1 21  1  0  0  0  0
  2  9  1  0  0  0  0
  2 27  1  0  0  0  0
  3  9  2  0  0  0  0
  3 16  1  0  0  0  0
  4 12  2  0  0  0  0
  4 18  1  0  0  0  0
  5 12  1  0  0  0  0
  5 19  2  0  0  0  0
  6 22  3  0  0  0  0
  7  8  1  0  0  0  0
  7  9  1  0  0  0  0
  7 11  2  0  0  0  0
  8 17  1  0  0  0  0
  8 20  2  0  0  0  0
 10 11  1  0  0  0  0
 10 15  1  0  0  0  0
 10 16  2  0  0  0  0
 12 13  1  0  0  0  0
 13 22  1  0  0  0  0
 13 25  1  0  0  0  0
 13 26  1  0  0  0  0
 14 15  1  0  0  0  0
 14 18  2  0  0  0  0
 14 19  1  0  0  0  0
 17 21  2  0  0  0  0
 20 23  1  0  0  0  0
 21 24  1  0  0  0  0
 23 24  2  0  0  0  0
M  END
> <PUBCHEM_COMPOUND_ID_TYPE>
0

> <PUBCHEM_TOTAL_CHARGE>
0

> <PUBCHEM_SUBSTANCE_ID>
310936665

> <PUBCHEM_SUBSTANCE_VERSION>
1

> <PUBCHEM_EXT_DATASOURCE_NAME>
4488

> <PUBCHEM_EXT_DATASOURCE_REGID>
SCHEMBL16114335

> <PUBCHEM_SUBSTANCE_COMMENT>
InChI=1S/C21H19ClN4O/c1-21(2,13-23)20-25-11-15(12-26-20)7-14-8-18(19(27-3)24-10-14)16-5-4-6-17(22)9-16/h4-6,8-12H,7H2,1-3H3
InChIKey=BJCQRPKSPCRZSX-UHFFFAOYSA-N

> <PUBCHEM_SUBSTANCE_SYNONYM>
SCHEMBL16114335

> <PUBCHEM_XREF_EXT_ID>
SCHEMBL16114335

> <PUBCHEM_EXT_DATASOURCE_URL>
https://www.surechembl.org/

> <PUBCHEM_EXT_SUBSTANCE_URL>
https://www.surechembl.org/chemical/SCHEMBL16114335

> <PUBCHEM_CID_ASSOCIATIONS>
117604575  1

> <PUBCHEM_COORDINATE_TYPE>
1
3

$$$$
