310929521
  -OEChem-07211613022D

 68 76  0     1  0  0  0  0  0999 V2000
    2.3848   -5.1547    0.0000 S   0  0  0  0  0  0  0  0  0  0  0  0
   -4.2868   -0.8250    0.0000 O   0  0  0  0  0  0  0  0  0  0  0  0
    1.5598   -3.7257    0.0000 O   0  0  0  0  0  0  0  0  0  0  0  0
   -1.4290   -0.8250    0.0000 O   0  0  0  0  0  0  0  0  0  0  0  0
    2.3848   -5.9797    0.0000 O   0  0  0  0  0  0  0  0  0  0  0  0
    2.3848   -4.3297    0.0000 O   0  0  0  0  0  0  0  0  0  0  0  0
   -1.3277   -4.4402    0.0000 O   0  0  0  0  0  0  0  0  0  0  0  0
   -2.8579   -4.1250    0.0000 O   0  0  0  0  0  0  0  0  0  0  0  0
   -5.0013   -2.0625    0.0000 O   0  0  0  0  0  0  0  0  0  0  0  0
    0.0000    1.6500    0.0000 O   0  0  0  0  0  0  0  0  0  0  0  0
    2.8579    4.1250    0.0000 O   0  0  0  0  0  0  0  0  0  0  0  0
   -0.0902   -3.7257    0.0000 N   0  0  0  0  0  0  0  0  0  0  0  0
    1.5598   -5.1547    0.0000 N   0  0  0  0  0  0  0  0  0  0  0  0
   -2.1434   -2.8875    0.0000 N   0  0  0  0  0  0  0  0  0  0  0  0
   -3.5724   -2.0625    0.0000 N   0  0  0  0  0  0  0  0  0  0  0  0
    0.0000   -0.8250    0.0000 N   0  0  0  0  0  0  0  0  0  0  0  0
    1.4290    3.3000    0.0000 N   0  0  0  0  0  0  0  0  0  0  0  0
    0.3223   -4.4402    0.0000 C   0  0  3  0  0  0  0  0  0  0  0  0
   -5.0013   -0.4125    0.0000 C   0  0  3  0  0  0  0  0  0  0  0  0
    0.3223   -5.2651    0.0000 C   0  0  3  0  0  0  0  0  0  0  0  0
   -5.0013    0.4125    0.0000 C   0  0  3  0  0  0  0  0  0  0  0  0
   -0.3922   -4.8526    0.0000 C   0  0  0  0  0  0  0  0  0  0  0  0
    1.1473   -4.4402    0.0000 C   0  0  0  0  0  0  0  0  0  0  0  0
   -5.7158    0.0000    0.0000 C   0  0  0  0  0  0  0  0  0  0  0  0
    3.2098   -5.1547    0.0000 C   0  0  0  0  0  0  0  0  0  0  0  0
   -0.9152   -3.7257    0.0000 C   0  0  0  0  0  0  0  0  0  0  0  0
   -1.3277   -3.0112    0.0000 C   0  0  3  0  0  0  0  0  0  0  0  0
   -1.4290   -1.6500    0.0000 C   0  0  3  0  0  0  0  0  0  0  0  0
   -4.2868    0.8250    0.0000 C   0  0  0  0  0  0  0  0  0  0  0  0
    0.7348   -5.9797    0.0000 C   0  0  0  0  0  0  0  0  0  0  0  0
   -0.9152   -2.2967    0.0000 C   0  0  0  0  0  0  0  0  0  0  0  0
   -2.8579   -3.3000    0.0000 C   0  0  0  0  0  0  0  0  0  0  0  0
    3.6223   -4.4402    0.0000 C   0  0  0  0  0  0  0  0  0  0  0  0
    4.0348   -5.1547    0.0000 C   0  0  0  0  0  0  0  0  0  0  0  0
   -2.1434   -2.0625    0.0000 C   0  0  0  0  0  0  0  0  0  0  0  0
   -3.5724   -2.8875    0.0000 C   0  0  3  0  0  0  0  0  0  0  0  0
   -4.2868   -1.6500    0.0000 C   0  0  0  0  0  0  0  0  0  0  0  0
   -4.2868   -3.3000    0.0000 C   0  0  0  0  0  0  0  0  0  0  0  0
    2.7973   -5.8691    0.0000 C   0  0  0  0  0  0  0  0  0  0  0  0
   -0.7144   -0.4125    0.0000 C   0  0  0  0  0  0  0  0  0  0  0  0
   -3.5724    0.4125    0.0000 C   0  0  0  0  0  0  0  0  0  0  0  0
   -0.7144    0.4125    0.0000 C   0  0  0  0  0  0  0  0  0  0  0  0
    1.5598   -5.9797    0.0000 C   0  0  0  0  0  0  0  0  0  0  0  0
    0.0000    0.8250    0.0000 C   0  0  0  0  0  0  0  0  0  0  0  0
    0.7144    0.4125    0.0000 C   0  0  0  0  0  0  0  0  0  0  0  0
    0.7144   -0.4125    0.0000 C   0  0  0  0  0  0  0  0  0  0  0  0
   -4.2868   -4.1250    0.0000 C   0  0  0  0  0  0  0  0  0  0  0  0
   -5.0013   -2.8875    0.0000 C   0  0  0  0  0  0  0  0  0  0  0  0
   -2.8579    0.8250    0.0000 C   0  0  0  0  0  0  0  0  0  0  0  0
   -4.2868   -2.4750    0.0000 C   0  0  0  0  0  0  0  0  0  0  0  0
   -1.4290    0.8250    0.0000 C   0  0  0  0  0  0  0  0  0  0  0  0
   -2.1434    0.4125    0.0000 C   0  0  0  0  0  0  0  0  0  0  0  0
   -5.0013   -4.5375    0.0000 C   0  0  0  0  0  0  0  0  0  0  0  0
   -5.7158   -3.3000    0.0000 C   0  0  0  0  0  0  0  0  0  0  0  0
    1.4290    0.8250    0.0000 C   0  0  0  0  0  0  0  0  0  0  0  0
    1.4290   -0.8250    0.0000 C   0  0  0  0  0  0  0  0  0  0  0  0
   -5.7158   -4.1250    0.0000 C   0  0  0  0  0  0  0  0  0  0  0  0
    2.1434    0.4125    0.0000 C   0  0  0  0  0  0  0  0  0  0  0  0
    2.1434   -0.4125    0.0000 C   0  0  0  0  0  0  0  0  0  0  0  0
    0.7144    2.0625    0.0000 C   0  0  0  0  0  0  0  0  0  0  0  0
    0.7144    2.8875    0.0000 C   0  0  0  0  0  0  0  0  0  0  0  0
    1.4290    4.1250    0.0000 C   0  0  0  0  0  0  0  0  0  0  0  0
    2.1434    2.8875    0.0000 C   0  0  0  0  0  0  0  0  0  0  0  0
    2.1434    4.5375    0.0000 C   0  0  0  0  0  0  0  0  0  0  0  0
    2.8579    3.3000    0.0000 C   0  0  0  0  0  0  0  0  0  0  0  0
   -5.4138   -1.1270    0.0000 H   0  0  0  0  0  0  0  0  0  0  0  0
   -5.4138    1.1270    0.0000 H   0  0  0  0  0  0  0  0  0  0  0  0
   -0.6500   -1.3783    0.0000 H   0  0  0  0  0  0  0  0  0  0  0  0
  1  5  2  0  0  0  0
  1  6  2  0  0  0  0
  1 13  1  0  0  0  0
  1 25  1  0  0  0  0
  2 19  1  0  0  0  0
  2 37  1  0  0  0  0
  3 23  2  0  0  0  0
  4 28  1  0  0  0  0
  4 40  1  0  0  0  0
  7 26  2  0  0  0  0
  8 32  2  0  0  0  0
  9 37  2  0  0  0  0
 10 44  1  0  0  0  0
 10 60  1  0  0  0  0
 11 64  1  0  0  0  0
 11 65  1  0  0  0  0
 18 12  1  1  0  0  0
 12 26  1  0  0  0  0
 13 23  1  0  0  0  0
 14 27  1  0  0  0  0
 14 32  1  0  0  0  0
 14 35  1  0  0  0  0
 15 36  1  0  0  0  0
 15 37  1  0  0  0  0
 16 40  2  0  0  0  0
 16 46  1  0  0  0  0
 17 61  1  0  0  0  0
 17 62  1  0  0  0  0
 17 63  1  0  0  0  0
 18 20  1  0  0  0  0
 18 22  1  0  0  0  0
 18 23  1  6  0  0  0
 19 21  1  0  0  0  0
 19 24  1  0  0  0  0
 19 66  1  1  0  0  0
 20 22  1  0  0  0  0
 20 30  1  6  0  0  0
 21 24  1  0  0  0  0
 21 29  1  0  0  0  0
 21 67  1  6  0  0  0
 25 33  1  0  0  0  0
 25 34  1  0  0  0  0
 25 39  1  0  0  0  0
 27 26  1  1  0  0  0
 27 31  1  0  0  0  0
 28 31  1  0  0  0  0
 28 35  1  0  0  0  0
 28 68  1  1  0  0  0
 29 41  1  0  0  0  0
 30 43  2  0  0  0  0
 36 32  1  6  0  0  0
 33 34  1  0  0  0  0
 36 38  1  0  0  0  0
 38 47  1  0  0  0  0
 38 48  1  0  0  0  0
 38 50  1  0  0  0  0
 40 42  1  0  0  0  0
 41 49  1  0  0  0  0
 42 44  2  0  0  0  0
 42 51  1  0  0  0  0
 44 45  1  0  0  0  0
 45 46  1  0  0  0  0
 45 55  2  0  0  0  0
 46 56  2  0  0  0  0
 47 53  1  0  0  0  0
 48 54  1  0  0  0  0
 49 52  1  0  0  0  0
 51 52  1  0  0  0  0
 53 57  1  0  0  0  0
 54 57  1  0  0  0  0
 55 58  1  0  0  0  0
 56 59  1  0  0  0  0
 58 59  2  0  0  0  0
 60 61  1  0  0  0  0
 62 64  1  0  0  0  0
 63 65  1  0  0  0  0
M  END
> <PUBCHEM_COMPOUND_ID_TYPE>
0

> <PUBCHEM_TOTAL_CHARGE>
0

> <PUBCHEM_SUBSTANCE_ID>
310929521

> <PUBCHEM_SUBSTANCE_VERSION>
1

> <PUBCHEM_EXT_DATASOURCE_NAME>
4488

> <PUBCHEM_EXT_DATASOURCE_REGID>
SCHEMBL16106701

> <PUBCHEM_SUBSTANCE_COMMENT>
InChI=1S/C48H66N6O10S/c1-4-32-29-48(32,44(57)52-65(59,60)47(3)19-20-47)51-41(55)37-28-33-30-54(37)43(56)40(46(2)17-11-6-12-18-46)50-45(58)64-38-27-31(38)13-7-5-8-15-35-39(62-26-23-53-21-24-61-25-22-53)34-14-9-10-16-36(34)49-42(35)63-33/h4,9-10,14,16,31-33,37-38,40H,1,5-8,11-13,15,17-30H2,2-3H3,(H,50,58)(H,51,55)(H,52,57)/t31-,32-,33-,37+,38-,40-,48-/m1/s1
InChIKey=WOHXYYFCOSLPJZ-UCPWVXRUSA-N

> <PUBCHEM_SUBSTANCE_SYNONYM>
SCHEMBL16106701

> <PUBCHEM_XREF_EXT_ID>
SCHEMBL16106701

> <PUBCHEM_EXT_DATASOURCE_URL>
https://www.surechembl.org/

> <PUBCHEM_EXT_SUBSTANCE_URL>
https://www.surechembl.org/chemical/SCHEMBL16106701

> <PUBCHEM_CID_ASSOCIATIONS>
117598844  1

> <PUBCHEM_COORDINATE_TYPE>
1
3

> <PUBCHEM_BONDANNOTATIONS>
18  12  5
18  23  6
19  66  5
20  30  6
21  67  6
27  26  5
28  68  5
36  32  6

$$$$
