310934813
  -OEChem-07211613022D

 13 13  0     0  0  0  0  0  0999 V2000
    0.0000   -4.1249    0.0000 F   0  0  0  0  0  0  0  0  0  0  0  0
    1.4437   -1.6499    0.0000 O   0  0  0  0  0  0  0  0  0  0  0  0
    2.8668   -1.6499    0.0000 N   0  0  0  0  0  0  0  0  0  0  0  0
    1.4437   -2.4749    0.0000 C   0  0  0  0  0  0  0  0  0  0  0  0
    2.1450   -2.8874    0.0000 C   0  0  0  0  0  0  0  0  0  0  0  0
    0.7219   -2.8874    0.0000 C   0  0  0  0  0  0  0  0  0  0  0  0
    0.7219   -3.7124    0.0000 C   0  0  0  0  0  0  0  0  0  0  0  0
    2.1450   -3.7124    0.0000 C   0  0  0  0  0  0  0  0  0  0  0  0
    1.4437   -4.1249    0.0000 C   0  0  0  0  0  0  0  0  0  0  0  0
    2.8668   -2.4749    0.0000 C   0  0  0  0  0  0  0  0  0  0  0  0
    0.7219   -1.2375    0.0000 C   0  0  0  0  0  0  0  0  0  0  0  0
    0.7219   -0.4125    0.0000 C   0  0  0  0  0  0  0  0  0  0  0  0
    0.0000    0.0000    0.0000 C   0  0  0  0  0  0  0  0  0  0  0  0
  1  7  1  0  0  0  0
  2  4  1  0  0  0  0
  2 11  1  0  0  0  0
  3 10  3  0  0  0  0
  4  5  2  0  0  0  0
  4  6  1  0  0  0  0
  5  8  1  0  0  0  0
  5 10  1  0  0  0  0
  6  7  2  0  0  0  0
  7  9  1  0  0  0  0
  8  9  2  0  0  0  0
 11 12  1  0  0  0  0
 12 13  2  0  0  0  0
M  END
> <PUBCHEM_COMPOUND_ID_TYPE>
0

> <PUBCHEM_TOTAL_CHARGE>
0

> <PUBCHEM_SUBSTANCE_ID>
310934813

> <PUBCHEM_SUBSTANCE_VERSION>
1

> <PUBCHEM_EXT_DATASOURCE_NAME>
4488

> <PUBCHEM_EXT_DATASOURCE_REGID>
SCHEMBL16112318

> <PUBCHEM_SUBSTANCE_COMMENT>
InChI=1S/C10H8FNO/c1-2-5-13-10-6-9(11)4-3-8(10)7-12/h2-4,6H,1,5H2
InChIKey=GKCQBEVIWJNJSR-UHFFFAOYSA-N

> <PUBCHEM_SUBSTANCE_SYNONYM>
SCHEMBL16112318

> <PUBCHEM_XREF_EXT_ID>
SCHEMBL16112318

> <PUBCHEM_EXT_DATASOURCE_URL>
https://www.surechembl.org/

> <PUBCHEM_EXT_SUBSTANCE_URL>
https://www.surechembl.org/chemical/SCHEMBL16112318

> <PUBCHEM_CID_ASSOCIATIONS>
117602958  1

> <PUBCHEM_COORDINATE_TYPE>
1
3

$$$$
