310932762
  -OEChem-07211613022D

 28 30  0     0  0  0  0  0  0999 V2000
    4.0546   -2.1340    0.0000 O   0  0  0  0  0  0  0  0  0  0  0  0
    8.5360   -2.2051    0.0000 O   0  0  0  0  0  0  0  0  0  0  0  0
    4.9438   -0.9603    0.0000 N   0  0  0  0  0  0  0  0  0  0  0  0
    4.8727   -0.1423    0.0000 N   0  0  0  0  0  0  0  0  0  0  0  0
    6.4020   -0.9603    0.0000 N   0  0  0  0  0  0  0  0  0  0  0  0
    7.8247   -3.4500    0.0000 N   0  0  0  0  0  0  0  0  0  0  0  0
    0.0000   -1.8495    0.0000 N   0  0  0  0  0  0  0  0  0  0  0  0
    9.9587   -3.8768    0.0000 N   0  0  0  0  0  0  0  0  0  0  0  0
    4.1969   -1.3160    0.0000 C   0  0  0  0  0  0  0  0  0  0  0  0
    3.6278   -0.7114    0.0000 C   0  0  0  0  0  0  0  0  0  0  0  0
    5.6552   -1.3871    0.0000 C   0  0  0  0  0  0  0  0  0  0  0  0
    2.8098   -0.8180    0.0000 C   0  0  0  0  0  0  0  0  0  0  0  0
    4.0546    0.0000    0.0000 C   0  0  0  0  0  0  0  0  0  0  0  0
    5.6552   -2.2051    0.0000 C   0  0  0  0  0  0  0  0  0  0  0  0
    7.1134   -2.2051    0.0000 C   0  0  0  0  0  0  0  0  0  0  0  0
    2.4897   -1.5649    0.0000 C   0  0  0  0  0  0  0  0  0  0  0  0
    2.3119   -0.1423    0.0000 C   0  0  0  0  0  0  0  0  0  0  0  0
    7.1134   -1.3871    0.0000 C   0  0  0  0  0  0  0  0  0  0  0  0
    6.4020   -2.6319    0.0000 C   0  0  0  0  0  0  0  0  0  0  0  0
    7.8247   -2.6319    0.0000 C   0  0  0  0  0  0  0  0  0  0  0  0
    1.1737   -0.9959    0.0000 C   0  0  0  0  0  0  0  0  0  0  0  0
    1.6716   -1.6361    0.0000 C   0  0  0  0  0  0  0  0  0  0  0  0
    1.4938   -0.2490    0.0000 C   0  0  0  0  0  0  0  0  0  0  0  0
    0.3556   -1.0670    0.0000 C   0  0  0  0  0  0  0  0  0  0  0  0
    8.5360   -3.8768    0.0000 C   0  0  0  0  0  0  0  0  0  0  0  0
    9.2830   -3.4500    0.0000 C   0  0  0  0  0  0  0  0  0  0  0  0
    9.9943   -4.6948    0.0000 C   0  0  0  0  0  0  0  0  0  0  0  0
   10.6700   -3.4500    0.0000 C   0  0  0  0  0  0  0  0  0  0  0  0
  1  9  1  0  0  0  0
  2 20  2  0  0  0  0
  3  4  1  0  0  0  0
  3  9  1  0  0  0  0
  3 11  1  0  0  0  0
  4 13  2  0  0  0  0
  5 11  2  0  0  0  0
  5 18  1  0  0  0  0
  6 20  1  0  0  0  0
  6 25  1  0  0  0  0
  7 24  3  0  0  0  0
  8 26  1  0  0  0  0
  8 27  1  0  0  0  0
  8 28  1  0  0  0  0
  9 10  2  0  0  0  0
 10 12  1  0  0  0  0
 10 13  1  0  0  0  0
 11 14  1  0  0  0  0
 12 16  2  0  0  0  0
 12 17  1  0  0  0  0
 14 19  2  0  0  0  0
 15 18  2  0  0  0  0
 15 19  1  0  0  0  0
 15 20  1  0  0  0  0
 16 22  1  0  0  0  0
 17 23  2  0  0  0  0
 21 22  2  0  0  0  0
 21 23  1  0  0  0  0
 21 24  1  0  0  0  0
 25 26  1  0  0  0  0
M  END
> <PUBCHEM_COMPOUND_ID_TYPE>
0

> <PUBCHEM_TOTAL_CHARGE>
0

> <PUBCHEM_SUBSTANCE_ID>
310932762

> <PUBCHEM_SUBSTANCE_VERSION>
1

> <PUBCHEM_EXT_DATASOURCE_NAME>
4488

> <PUBCHEM_EXT_DATASOURCE_REGID>
SCHEMBL16110148

> <PUBCHEM_SUBSTANCE_COMMENT>
InChI=1S/C20H20N6O2/c1-25(2)10-9-22-19(27)16-7-8-18(23-12-16)26-20(28)17(13-24-26)15-5-3-14(11-21)4-6-15/h3-8,12-13,28H,9-10H2,1-2H3,(H,22,27)
InChIKey=MVFFDUHVHBITSI-UHFFFAOYSA-N

> <PUBCHEM_SUBSTANCE_SYNONYM>
SCHEMBL16110148

> <PUBCHEM_XREF_EXT_ID>
SCHEMBL16110148

> <PUBCHEM_EXT_DATASOURCE_URL>
https://www.surechembl.org/

> <PUBCHEM_EXT_SUBSTANCE_URL>
https://www.surechembl.org/chemical/SCHEMBL16110148

> <PUBCHEM_CID_ASSOCIATIONS>
117601259  1

> <PUBCHEM_COORDINATE_TYPE>
1
3

$$$$
