310949650
  -OEChem-07211613022D

 25 27  0     0  0  0  0  0  0999 V2000
    3.0320   -0.6600    0.0000 O   0  0  0  0  0  0  0  0  0  0  0  0
    3.0320   -2.0076    0.0000 O   0  0  0  0  0  0  0  0  0  0  0  0
   -1.6844   -1.3338    0.0000 O   0  0  0  0  0  0  0  0  0  0  0  0
   -1.6844    2.0076    0.0000 O   0  0  0  0  0  0  0  0  0  0  0  0
   -0.9832    0.7563    0.0000 O   0  0  0  0  0  0  0  0  0  0  0  0
   -0.9832   -0.0825    0.0000 N   0  0  0  0  0  0  0  0  0  0  0  0
    2.5369   -1.3338    0.0000 C   0  0  0  0  0  0  0  0  0  0  0  0
   -2.3995   -0.0687    0.0000 C   0  0  0  0  0  0  0  0  0  0  0  0
   -2.3995    0.7563    0.0000 C   0  0  0  0  0  0  0  0  0  0  0  0
   -1.6844   -0.4813    0.0000 C   0  0  0  0  0  0  0  0  0  0  0  0
    1.1344   -1.3200    0.0000 C   0  0  0  0  0  0  0  0  0  0  0  0
    1.8219   -1.7463    0.0000 C   0  0  0  0  0  0  0  0  0  0  0  0
   -0.2682   -0.4950    0.0000 C   0  0  0  0  0  0  0  0  0  0  0  0
   -3.0869   -0.4950    0.0000 C   0  0  0  0  0  0  0  0  0  0  0  0
   -1.6981    1.1550    0.0000 C   0  0  0  0  0  0  0  0  0  0  0  0
    0.4194   -1.7463    0.0000 C   0  0  0  0  0  0  0  0  0  0  0  0
    1.1344   -0.5088    0.0000 C   0  0  0  0  0  0  0  0  0  0  0  0
   -0.2682   -1.3338    0.0000 C   0  0  0  0  0  0  0  0  0  0  0  0
    0.4194   -0.0963    0.0000 C   0  0  0  0  0  0  0  0  0  0  0  0
   -3.1145    1.1550    0.0000 C   0  0  0  0  0  0  0  0  0  0  0  0
    3.8020   -0.9213    0.0000 C   0  0  0  0  0  0  0  0  0  0  0  0
    3.8020   -1.7601    0.0000 C   0  0  0  0  0  0  0  0  0  0  0  0
    1.8219   -0.9213    0.0000 C   0  0  0  0  0  0  0  0  0  0  0  0
   -3.8020   -0.0825    0.0000 C   0  0  0  0  0  0  0  0  0  0  0  0
   -3.8020    0.7425    0.0000 C   0  0  0  0  0  0  0  0  0  0  0  0
  1  7  1  0  0  0  0
  1 21  1  0  0  0  0
  2  7  1  0  0  0  0
  2 22  1  0  0  0  0
  3 10  2  0  0  0  0
  4 15  2  0  0  0  0
  5 15  1  0  0  0  0
  6 10  1  0  0  0  0
  6 13  1  0  0  0  0
  7 12  1  0  0  0  0
  7 23  1  0  0  0  0
  8  9  1  0  0  0  0
  8 10  1  0  0  0  0
  8 14  2  0  0  0  0
  9 15  1  0  0  0  0
  9 20  2  0  0  0  0
 11 12  1  0  0  0  0
 11 16  2  0  0  0  0
 11 17  1  0  0  0  0
 13 18  2  0  0  0  0
 13 19  1  0  0  0  0
 14 24  1  0  0  0  0
 16 18  1  0  0  0  0
 17 19  2  0  0  0  0
 20 25  1  0  0  0  0
 21 22  1  0  0  0  0
 24 25  2  0  0  0  0
M  END
> <PUBCHEM_COMPOUND_ID_TYPE>
0

> <PUBCHEM_TOTAL_CHARGE>
0

> <PUBCHEM_SUBSTANCE_ID>
310949650

> <PUBCHEM_SUBSTANCE_VERSION>
1

> <PUBCHEM_EXT_DATASOURCE_NAME>
4488

> <PUBCHEM_EXT_DATASOURCE_REGID>
SCHEMBL16127848

> <PUBCHEM_SUBSTANCE_COMMENT>
InChI=1S/C19H19NO5/c1-19(24-10-11-25-19)12-13-6-8-14(9-7-13)20-17(21)15-4-2-3-5-16(15)18(22)23/h2-9H,10-12H2,1H3,(H,20,21)(H,22,23)
InChIKey=YFJFYLDXFUWIIK-UHFFFAOYSA-N

> <PUBCHEM_SUBSTANCE_SYNONYM>
SCHEMBL16127848

> <PUBCHEM_XREF_EXT_ID>
SCHEMBL16127848

> <PUBCHEM_EXT_DATASOURCE_URL>
https://www.surechembl.org/

> <PUBCHEM_EXT_SUBSTANCE_URL>
https://www.surechembl.org/chemical/SCHEMBL16127848

> <PUBCHEM_CID_ASSOCIATIONS>
117615028  1

> <PUBCHEM_COORDINATE_TYPE>
1
3

$$$$
