310945383
  -OEChem-07211613022D

 17 18  0     0  0  0  0  0  0999 V2000
    2.8795    1.8748    0.0000 Br  0  0  0  0  0  0  0  0  0  0  0  0
   -2.1545   -1.8748    0.0000 O   0  0  0  0  0  0  0  0  0  0  0  0
    0.0000    0.1968    0.0000 N   0  0  0  0  0  0  0  0  0  0  0  0
   -1.4501   -0.6318    0.0000 N   0  0  0  0  0  0  0  0  0  0  0  0
    0.0000    1.8748    0.0000 N   0  0  0  0  0  0  0  0  0  0  0  0
    0.7044    0.6318    0.0000 C   0  0  0  0  0  0  0  0  0  0  0  0
    0.7251    1.4605    0.0000 C   0  0  0  0  0  0  0  0  0  0  0  0
    0.0000   -0.6111    0.0000 C   0  0  0  0  0  0  0  0  0  0  0  0
   -0.7458    0.6111    0.0000 C   0  0  0  0  0  0  0  0  0  0  0  0
    1.4501    0.2382    0.0000 C   0  0  0  0  0  0  0  0  0  0  0  0
   -0.6836   -1.0254    0.0000 C   0  0  0  0  0  0  0  0  0  0  0  0
   -1.4294    0.2175    0.0000 C   0  0  0  0  0  0  0  0  0  0  0  0
    1.4294    1.8541    0.0000 C   0  0  0  0  0  0  0  0  0  0  0  0
    2.1545    1.4605    0.0000 C   0  0  0  0  0  0  0  0  0  0  0  0
    2.1545    0.6318    0.0000 C   0  0  0  0  0  0  0  0  0  0  0  0
   -2.1545   -1.0047    0.0000 C   0  0  0  0  0  0  0  0  0  0  0  0
   -2.8795   -0.6318    0.0000 C   0  0  0  0  0  0  0  0  0  0  0  0
  1 14  1  0  0  0  0
  2 16  2  0  0  0  0
  3  6  1  0  0  0  0
  3  8  1  0  0  0  0
  3  9  1  0  0  0  0
  4 11  1  0  0  0  0
  4 12  1  0  0  0  0
  4 16  1  0  0  0  0
  5  7  1  0  0  0  0
  6  7  2  0  0  0  0
  6 10  1  0  0  0  0
  7 13  1  0  0  0  0
  8 11  1  0  0  0  0
  9 12  1  0  0  0  0
 10 15  2  0  0  0  0
 13 14  2  0  0  0  0
 14 15  1  0  0  0  0
 16 17  1  0  0  0  0
M  END
> <PUBCHEM_COMPOUND_ID_TYPE>
0

> <PUBCHEM_TOTAL_CHARGE>
0

> <PUBCHEM_SUBSTANCE_ID>
310945383

> <PUBCHEM_SUBSTANCE_VERSION>
1

> <PUBCHEM_EXT_DATASOURCE_NAME>
4488

> <PUBCHEM_EXT_DATASOURCE_REGID>
SCHEMBL16123481

> <PUBCHEM_SUBSTANCE_COMMENT>
InChI=1S/C12H16BrN3O/c1-9(17)15-4-6-16(7-5-15)12-3-2-10(13)8-11(12)14/h2-3,8H,4-7,14H2,1H3
InChIKey=GWGSEARFTABRFK-UHFFFAOYSA-N

> <PUBCHEM_SUBSTANCE_SYNONYM>
SCHEMBL16123481

> <PUBCHEM_XREF_EXT_ID>
SCHEMBL16123481

> <PUBCHEM_EXT_DATASOURCE_URL>
https://www.surechembl.org/

> <PUBCHEM_EXT_SUBSTANCE_URL>
https://www.surechembl.org/chemical/SCHEMBL16123481

> <PUBCHEM_CID_ASSOCIATIONS>
24691108  1

> <PUBCHEM_COORDINATE_TYPE>
1
3

$$$$
