310941283
  -OEChem-07211613022D

 44 47  0     1  0  0  0  0  0999 V2000
    0.3797    1.2867    0.0000 F   0  0  0  0  0  0  0  0  0  0  0  0
    5.0905    0.6679    0.0000 O   0  0  0  0  0  0  0  0  0  0  0  0
    3.9655   -1.2867    0.0000 O   0  0  0  0  0  0  0  0  0  0  0  0
    1.8000    0.7805    0.0000 O   0  0  0  0  0  0  0  0  0  0  0  0
    0.3797    2.9319    0.0000 O   0  0  0  0  0  0  0  0  0  0  0  0
   -0.3516   -1.2867    0.0000 O   0  0  0  0  0  0  0  0  0  0  0  0
    3.9655   -2.9319    0.0000 O   0  0  0  0  0  0  0  0  0  0  0  0
   -2.5031    0.7805    0.0000 O   0  0  0  0  0  0  0  0  0  0  0  0
   -5.3717    0.7805    0.0000 O   0  0  0  0  0  0  0  0  0  0  0  0
    2.5312   -0.4570    0.0000 N   0  0  0  0  0  0  0  0  0  0  0  0
    0.3797   -0.0352    0.0000 N   0  0  0  0  0  0  0  0  0  0  0  0
   -1.7718   -0.4570    0.0000 N   0  0  0  0  0  0  0  0  0  0  0  0
   -3.9374   -0.0352    0.0000 N   0  0  0  0  0  0  0  0  0  0  0  0
    4.6686   -0.0211    0.0000 C   0  0  3  0  0  0  0  0  0  0  0  0
    3.9515   -0.4430    0.0000 C   0  0  0  0  0  0  0  0  0  0  0  0
    4.2890    0.6539    0.0000 C   0  0  0  0  0  0  0  0  0  0  0  0
    3.2343   -0.0352    0.0000 C   0  0  3  0  0  0  0  0  0  0  0  0
    5.3717   -0.4289    0.0000 C   0  0  0  0  0  0  0  0  0  0  0  0
    3.2484    1.2867    0.0000 C   0  0  0  0  0  0  0  0  0  0  0  0
    1.8140   -0.0633    0.0000 C   0  0  0  0  0  0  0  0  0  0  0  0
    2.5171    1.7085    0.0000 C   0  0  0  0  0  0  0  0  0  0  0  0
    1.1109   -0.4430    0.0000 C   0  0  3  0  0  0  0  0  0  0  0  0
    1.8140    1.2867    0.0000 C   0  0  0  0  0  0  0  0  0  0  0  0
    2.5312    2.5101    0.0000 C   0  0  0  0  0  0  0  0  0  0  0  0
    1.0828   -1.2867    0.0000 C   0  0  0  0  0  0  0  0  0  0  0  0
    1.0968    1.6944    0.0000 C   0  0  0  0  0  0  0  0  0  0  0  0
    1.0968    2.5241    0.0000 C   0  0  0  0  0  0  0  0  0  0  0  0
    1.8140   -1.6944    0.0000 C   0  0  0  0  0  0  0  0  0  0  0  0
   -0.3375   -0.4289    0.0000 C   0  0  0  0  0  0  0  0  0  0  0  0
    1.8140    2.9179    0.0000 C   0  0  0  0  0  0  0  0  0  0  0  0
   -1.0687   -0.0352    0.0000 C   0  0  3  0  0  0  0  0  0  0  0  0
    2.5452   -1.2867    0.0000 C   0  0  0  0  0  0  0  0  0  0  0  0
    1.8140   -2.5101    0.0000 C   0  0  0  0  0  0  0  0  0  0  0  0
    3.2343   -2.5101    0.0000 C   0  0  0  0  0  0  0  0  0  0  0  0
    3.2484   -1.6944    0.0000 C   0  0  0  0  0  0  0  0  0  0  0  0
    2.5452   -2.9179    0.0000 C   0  0  0  0  0  0  0  0  0  0  0  0
   -2.5031   -0.0492    0.0000 C   0  0  0  0  0  0  0  0  0  0  0  0
   -1.0547    0.7805    0.0000 C   0  0  0  0  0  0  0  0  0  0  0  0
   -3.1921   -0.4430    0.0000 C   0  0  0  0  0  0  0  0  0  0  0  0
   -3.9233    0.7805    0.0000 C   0  0  0  0  0  0  0  0  0  0  0  0
   -4.6265   -0.4430    0.0000 C   0  0  0  0  0  0  0  0  0  0  0  0
   -4.6405    1.2023    0.0000 C   0  0  0  0  0  0  0  0  0  0  0  0
   -5.3577   -0.0352    0.0000 C   0  0  0  0  0  0  0  0  0  0  0  0
    4.6968   -2.4960    0.0000 C   0  0  0  0  0  0  0  0  0  0  0  0
  1 26  1  0  0  0  0
  2 14  1  0  0  0  0
  2 16  1  0  0  0  0
  3 15  2  0  0  0  0
  4 20  2  0  0  0  0
  5 27  1  0  0  0  0
  6 29  2  0  0  0  0
  7 34  1  0  0  0  0
  7 44  1  0  0  0  0
  8 37  2  0  0  0  0
  9 42  1  0  0  0  0
  9 43  1  0  0  0  0
 17 10  1  1  0  0  0
 10 20  1  0  0  0  0
 22 11  1  6  0  0  0
 11 29  1  0  0  0  0
 12 31  1  0  0  0  0
 12 37  1  0  0  0  0
 13 39  1  0  0  0  0
 13 40  1  0  0  0  0
 13 41  1  0  0  0  0
 14 15  1  1  0  0  0
 14 16  1  0  0  0  0
 14 18  1  6  0  0  0
 15 17  1  0  0  0  0
 17 19  1  0  0  0  0
 19 21  1  0  0  0  0
 20 22  1  0  0  0  0
 21 23  1  0  0  0  0
 21 24  2  0  0  0  0
 22 25  1  0  0  0  0
 23 26  2  0  0  0  0
 24 30  1  0  0  0  0
 25 28  1  0  0  0  0
 26 27  1  0  0  0  0
 27 30  2  0  0  0  0
 28 32  2  0  0  0  0
 28 33  1  0  0  0  0
 29 31  1  0  0  0  0
 31 38  1  1  0  0  0
 32 35  1  0  0  0  0
 33 36  2  0  0  0  0
 34 35  2  0  0  0  0
 34 36  1  0  0  0  0
 37 39  1  0  0  0  0
 40 42  1  0  0  0  0
 41 43  1  0  0  0  0
M  END
> <PUBCHEM_COMPOUND_ID_TYPE>
0

> <PUBCHEM_TOTAL_CHARGE>
0

> <PUBCHEM_SUBSTANCE_ID>
310941283

> <PUBCHEM_SUBSTANCE_VERSION>
1

> <PUBCHEM_EXT_DATASOURCE_NAME>
4488

> <PUBCHEM_EXT_DATASOURCE_REGID>
SCHEMBL16119243

> <PUBCHEM_SUBSTANCE_COMMENT>
InChI=1S/C31H39FN4O8/c1-19(33-27(38)17-36-10-12-43-13-11-36)29(40)35-25(15-20-4-7-22(42-3)8-5-20)30(41)34-24(28(39)31(2)18-44-31)16-21-6-9-26(37)23(32)14-21/h4-9,14,19,24-25,37H,10-13,15-18H2,1-3H3,(H,33,38)(H,34,41)(H,35,40)/t19-,24-,25-,31+/m0/s1
InChIKey=RKJQKVCVCUWBBU-ASVCMYAISA-N

> <PUBCHEM_SUBSTANCE_SYNONYM>
SCHEMBL16119243

> <PUBCHEM_XREF_EXT_ID>
SCHEMBL16119243

> <PUBCHEM_EXT_DATASOURCE_URL>
https://www.surechembl.org/

> <PUBCHEM_EXT_SUBSTANCE_URL>
https://www.surechembl.org/chemical/SCHEMBL16119243

> <PUBCHEM_CID_ASSOCIATIONS>
117608132  1

> <PUBCHEM_COORDINATE_TYPE>
1
3

> <PUBCHEM_BONDANNOTATIONS>
17  10  5
22  11  6
14  15  5
14  18  6
31  38  5

$$$$
