310939357
  -OEChem-07211613022D

 30 32  0     1  0  0  0  0  0999 V2000
    0.7942    0.9038    0.0000 Cl  0  0  0  0  0  0  0  0  0  0  0  0
   -0.6348   -1.5712    0.0000 F   0  0  0  0  0  0  0  0  0  0  0  0
    0.7942   -0.7462    0.0000 O   0  0  0  0  0  0  0  0  0  0  0  0
   -4.9216   -0.7462    0.0000 O   0  0  0  0  0  0  0  0  0  0  0  0
   -2.7782   -0.3337    0.0000 N   0  0  0  0  0  0  0  0  0  0  0  0
    3.6521    1.7288    0.0000 N   0  0  0  0  0  0  0  0  0  0  0  0
    4.4367    1.9837    0.0000 N   0  0  0  0  0  0  0  0  0  0  0  0
   -4.2071    0.4913    0.0000 N   0  0  0  0  0  0  0  0  0  0  0  0
    0.0797   -0.3337    0.0000 C   0  0  0  0  0  0  0  0  0  0  0  0
   -0.6348   -0.7462    0.0000 C   0  0  0  0  0  0  0  0  0  0  0  0
   -1.3492   -0.3337    0.0000 C   0  0  0  0  0  0  0  0  0  0  0  0
    0.0797    0.4913    0.0000 C   0  0  0  0  0  0  0  0  0  0  0  0
   -2.0637   -0.7462    0.0000 C   0  0  3  0  0  0  0  0  0  0  0  0
   -1.3492    0.4913    0.0000 C   0  0  0  0  0  0  0  0  0  0  0  0
    1.5086   -0.3337    0.0000 C   0  0  0  0  0  0  0  0  0  0  0  0
   -0.6348    0.9038    0.0000 C   0  0  0  0  0  0  0  0  0  0  0  0
    2.9376    0.4913    0.0000 C   0  0  0  0  0  0  0  0  0  0  0  0
    3.6521    0.9038    0.0000 C   0  0  0  0  0  0  0  0  0  0  0  0
    2.2231   -0.7462    0.0000 C   0  0  0  0  0  0  0  0  0  0  0  0
    1.5086    0.4913    0.0000 C   0  0  0  0  0  0  0  0  0  0  0  0
    2.9376   -0.3337    0.0000 C   0  0  0  0  0  0  0  0  0  0  0  0
    2.2231    0.9038    0.0000 C   0  0  0  0  0  0  0  0  0  0  0  0
   -2.0637   -1.5712    0.0000 C   0  0  0  0  0  0  0  0  0  0  0  0
   -2.7782    0.4913    0.0000 C   0  0  3  0  0  0  0  0  0  0  0  0
    4.4367    0.6488    0.0000 C   0  0  0  0  0  0  0  0  0  0  0  0
    4.9216    1.3163    0.0000 C   0  0  0  0  0  0  0  0  0  0  0  0
   -3.4927    0.9038    0.0000 C   0  0  0  0  0  0  0  0  0  0  0  0
   -1.3492   -1.9837    0.0000 C   0  0  0  0  0  0  0  0  0  0  0  0
   -2.0637    0.9038    0.0000 C   0  0  0  0  0  0  0  0  0  0  0  0
   -4.2071   -0.3337    0.0000 C   0  0  0  0  0  0  0  0  0  0  0  0
  1 12  1  0  0  0  0
  2 10  1  0  0  0  0
  3  9  1  0  0  0  0
  3 15  1  0  0  0  0
  4 30  2  0  0  0  0
 13  5  1  1  0  0  0
  5 24  1  0  0  0  0
  6  7  1  0  0  0  0
  6 18  1  0  0  0  0
  7 26  2  0  0  0  0
  8 27  1  0  0  0  0
  8 30  1  0  0  0  0
  9 10  2  0  0  0  0
  9 12  1  0  0  0  0
 10 11  1  0  0  0  0
 11 13  1  0  0  0  0
 11 14  2  0  0  0  0
 12 16  2  0  0  0  0
 13 23  1  0  0  0  0
 14 16  1  0  0  0  0
 15 19  2  0  0  0  0
 15 20  1  0  0  0  0
 17 18  1  0  0  0  0
 17 21  2  0  0  0  0
 17 22  1  0  0  0  0
 18 25  2  0  0  0  0
 19 21  1  0  0  0  0
 20 22  2  0  0  0  0
 23 28  1  0  0  0  0
 24 27  1  0  0  0  0
 24 29  1  1  0  0  0
 25 26  1  0  0  0  0
M  END
> <PUBCHEM_COMPOUND_ID_TYPE>
0

> <PUBCHEM_TOTAL_CHARGE>
0

> <PUBCHEM_SUBSTANCE_ID>
310939357

> <PUBCHEM_SUBSTANCE_VERSION>
1

> <PUBCHEM_EXT_DATASOURCE_NAME>
4488

> <PUBCHEM_EXT_DATASOURCE_REGID>
SCHEMBL16117278

> <PUBCHEM_SUBSTANCE_COMMENT>
InChI=1S/C22H24ClFN4O2/c1-3-19(27-14(2)12-25-13-29)17-8-9-18(23)22(21(17)24)30-16-6-4-15(5-7-16)20-10-11-26-28-20/h4-11,13-14,19,27H,3,12H2,1-2H3,(H,25,29)(H,26,28)/t14-,19-/m1/s1
InChIKey=NJYYTWGLOCVWJV-AUUYWEPGSA-N

> <PUBCHEM_SUBSTANCE_SYNONYM>
SCHEMBL16117278

> <PUBCHEM_XREF_EXT_ID>
SCHEMBL16117278

> <PUBCHEM_EXT_DATASOURCE_URL>
https://www.surechembl.org/

> <PUBCHEM_EXT_SUBSTANCE_URL>
https://www.surechembl.org/chemical/SCHEMBL16117278

> <PUBCHEM_CID_ASSOCIATIONS>
117606684  1

> <PUBCHEM_COORDINATE_TYPE>
1
3

> <PUBCHEM_BONDANNOTATIONS>
24  29  5
13  5  5

$$$$
