310949617
  -OEChem-07211613022D

 23 24  0     0  0  0  0  0  0999 V2000
   -1.4742   -0.8247    0.0000 O   0  0  0  0  0  0  0  0  0  0  0  0
    1.4330   -1.6907    0.0000 O   0  0  0  0  0  0  0  0  0  0  0  0
    0.7113   -0.4330    0.0000 N   0  0  0  0  0  0  0  0  0  0  0  0
    2.8763   -0.8453    0.0000 N   0  0  0  0  0  0  0  0  0  0  0  0
    2.1547    0.4124    0.0000 N   0  0  0  0  0  0  0  0  0  0  0  0
   -2.1753    0.4330    0.0000 C   0  0  0  0  0  0  0  0  0  0  0  0
   -1.4330    0.8660    0.0000 C   0  0  0  0  0  0  0  0  0  0  0  0
   -2.1958   -0.3917    0.0000 C   0  0  0  0  0  0  0  0  0  0  0  0
    1.4330   -0.8247    0.0000 C   0  0  0  0  0  0  0  0  0  0  0  0
    2.1340   -0.4124    0.0000 C   0  0  0  0  0  0  0  0  0  0  0  0
   -2.8969    0.8247    0.0000 C   0  0  0  0  0  0  0  0  0  0  0  0
   -2.8763   -0.8042    0.0000 C   0  0  0  0  0  0  0  0  0  0  0  0
   -0.0309   -0.8247    0.0000 C   0  0  0  0  0  0  0  0  0  0  0  0
   -0.7320   -0.4124    0.0000 C   0  0  0  0  0  0  0  0  0  0  0  0
   -3.6185    0.4330    0.0000 C   0  0  0  0  0  0  0  0  0  0  0  0
   -3.6185   -0.4124    0.0000 C   0  0  0  0  0  0  0  0  0  0  0  0
   -1.4536    1.6907    0.0000 C   0  0  0  0  0  0  0  0  0  0  0  0
   -0.7113    1.2783    0.0000 C   0  0  0  0  0  0  0  0  0  0  0  0
   -0.7113    0.4330    0.0000 C   0  0  0  0  0  0  0  0  0  0  0  0
    3.6185   -0.4124    0.0000 C   0  0  0  0  0  0  0  0  0  0  0  0
    2.8556    0.8247    0.0000 C   0  0  0  0  0  0  0  0  0  0  0  0
    0.7320    0.4124    0.0000 C   0  0  0  0  0  0  0  0  0  0  0  0
    3.6185    0.3917    0.0000 C   0  0  0  0  0  0  0  0  0  0  0  0
  1  8  1  0  0  0  0
  1 14  1  0  0  0  0
  2  9  2  0  0  0  0
  3  9  1  0  0  0  0
  3 13  1  0  0  0  0
  3 22  1  0  0  0  0
  4 10  2  0  0  0  0
  4 20  1  0  0  0  0
  5 10  1  0  0  0  0
  5 21  2  0  0  0  0
  6  7  1  0  0  0  0
  6  8  1  0  0  0  0
  6 11  2  0  0  0  0
  7 17  1  0  0  0  0
  7 18  1  0  0  0  0
  7 19  1  0  0  0  0
  8 12  2  0  0  0  0
  9 10  1  0  0  0  0
 11 15  1  0  0  0  0
 12 16  1  0  0  0  0
 13 14  1  0  0  0  0
 15 16  2  0  0  0  0
 20 23  2  0  0  0  0
 21 23  1  0  0  0  0
M  END
> <PUBCHEM_COMPOUND_ID_TYPE>
0

> <PUBCHEM_TOTAL_CHARGE>
0

> <PUBCHEM_SUBSTANCE_ID>
310949617

> <PUBCHEM_SUBSTANCE_VERSION>
1

> <PUBCHEM_EXT_DATASOURCE_NAME>
4488

> <PUBCHEM_EXT_DATASOURCE_REGID>
SCHEMBL16127815

> <PUBCHEM_SUBSTANCE_COMMENT>
InChI=1S/C18H23N3O2/c1-18(2,3)14-8-5-6-9-15(14)23-13-12-21(4)17(22)16-19-10-7-11-20-16/h5-11H,12-13H2,1-4H3
InChIKey=KJWOLIBDJRXPCW-UHFFFAOYSA-N

> <PUBCHEM_SUBSTANCE_SYNONYM>
SCHEMBL16127815

> <PUBCHEM_XREF_EXT_ID>
SCHEMBL16127815

> <PUBCHEM_EXT_DATASOURCE_URL>
https://www.surechembl.org/

> <PUBCHEM_EXT_SUBSTANCE_URL>
https://www.surechembl.org/chemical/SCHEMBL16127815

> <PUBCHEM_CID_ASSOCIATIONS>
117615008  1

> <PUBCHEM_COORDINATE_TYPE>
1
3

$$$$
