310933116
  -OEChem-07211613022D

 26 28  0     0  0  0  0  0  0999 V2000
    3.9723   -2.1084    0.0000 O   0  0  0  0  0  0  0  0  0  0  0  0
    8.4335   -2.2001    0.0000 O   0  0  0  0  0  0  0  0  0  0  0  0
    4.8585   -0.9778    0.0000 N   0  0  0  0  0  0  0  0  0  0  0  0
    4.7973   -0.1528    0.0000 N   0  0  0  0  0  0  0  0  0  0  0  0
    6.2946   -0.9778    0.0000 N   0  0  0  0  0  0  0  0  0  0  0  0
    7.7307   -3.4223    0.0000 N   0  0  0  0  0  0  0  0  0  0  0  0
    0.0000   -1.8028    0.0000 N   0  0  0  0  0  0  0  0  0  0  0  0
    4.1251   -1.3139    0.0000 C   0  0  0  0  0  0  0  0  0  0  0  0
    3.5751   -0.7028    0.0000 C   0  0  0  0  0  0  0  0  0  0  0  0
    5.5918   -1.3751    0.0000 C   0  0  0  0  0  0  0  0  0  0  0  0
    2.7501   -0.7945    0.0000 C   0  0  0  0  0  0  0  0  0  0  0  0
    3.9723    0.0000    0.0000 C   0  0  0  0  0  0  0  0  0  0  0  0
    5.5918   -2.2001    0.0000 C   0  0  0  0  0  0  0  0  0  0  0  0
    6.9974   -2.2001    0.0000 C   0  0  0  0  0  0  0  0  0  0  0  0
    2.4445   -1.5584    0.0000 C   0  0  0  0  0  0  0  0  0  0  0  0
    2.2612   -0.1222    0.0000 C   0  0  0  0  0  0  0  0  0  0  0  0
    6.9974   -1.3751    0.0000 C   0  0  0  0  0  0  0  0  0  0  0  0
    6.2946   -2.5973    0.0000 C   0  0  0  0  0  0  0  0  0  0  0  0
    7.7307   -2.5973    0.0000 C   0  0  0  0  0  0  0  0  0  0  0  0
    1.1306   -0.9778    0.0000 C   0  0  0  0  0  0  0  0  0  0  0  0
    1.6195   -1.6195    0.0000 C   0  0  0  0  0  0  0  0  0  0  0  0
    1.4667   -0.2444    0.0000 C   0  0  0  0  0  0  0  0  0  0  0  0
    0.3056   -1.0695    0.0000 C   0  0  0  0  0  0  0  0  0  0  0  0
    8.4335   -3.8195    0.0000 C   0  0  0  0  0  0  0  0  0  0  0  0
    9.1669   -3.4223    0.0000 C   0  0  0  0  0  0  0  0  0  0  0  0
    8.4335   -4.6445    0.0000 C   0  0  0  0  0  0  0  0  0  0  0  0
  1  8  1  0  0  0  0
  2 19  2  0  0  0  0
  3  4  1  0  0  0  0
  3  8  1  0  0  0  0
  3 10  1  0  0  0  0
  4 12  2  0  0  0  0
  5 10  2  0  0  0  0
  5 17  1  0  0  0  0
  6 19  1  0  0  0  0
  6 24  1  0  0  0  0
  7 23  3  0  0  0  0
  8  9  2  0  0  0  0
  9 11  1  0  0  0  0
  9 12  1  0  0  0  0
 10 13  1  0  0  0  0
 11 15  2  0  0  0  0
 11 16  1  0  0  0  0
 13 18  2  0  0  0  0
 14 17  2  0  0  0  0
 14 18  1  0  0  0  0
 14 19  1  0  0  0  0
 15 21  1  0  0  0  0
 16 22  2  0  0  0  0
 20 21  2  0  0  0  0
 20 22  1  0  0  0  0
 20 23  1  0  0  0  0
 24 25  1  0  0  0  0
 24 26  1  0  0  0  0
M  END
> <PUBCHEM_COMPOUND_ID_TYPE>
0

> <PUBCHEM_TOTAL_CHARGE>
0

> <PUBCHEM_SUBSTANCE_ID>
310933116

> <PUBCHEM_SUBSTANCE_VERSION>
1

> <PUBCHEM_EXT_DATASOURCE_NAME>
4488

> <PUBCHEM_EXT_DATASOURCE_REGID>
SCHEMBL16110518

> <PUBCHEM_SUBSTANCE_COMMENT>
InChI=1S/C19H17N5O2/c1-12(2)23-18(25)15-7-8-17(21-10-15)24-19(26)16(11-22-24)14-5-3-13(9-20)4-6-14/h3-8,10-12,26H,1-2H3,(H,23,25)
InChIKey=BRWJLZBEQYIBHN-UHFFFAOYSA-N

> <PUBCHEM_SUBSTANCE_SYNONYM>
SCHEMBL16110518

> <PUBCHEM_XREF_EXT_ID>
SCHEMBL16110518

> <PUBCHEM_EXT_DATASOURCE_URL>
https://www.surechembl.org/

> <PUBCHEM_EXT_SUBSTANCE_URL>
https://www.surechembl.org/chemical/SCHEMBL16110518

> <PUBCHEM_CID_ASSOCIATIONS>
117601573  1

> <PUBCHEM_COORDINATE_TYPE>
1
3

$$$$
