310944290
  -OEChem-07211613022D

 14 15  0     0  0  0  0  0  0999 V2000
    0.9651    0.7583    0.0000 O   0  0  0  0  0  0  0  0  0  0  0  0
    0.2757   -2.2060    0.0000 N   0  0  0  0  0  0  0  0  0  0  0  0
   -0.5239   -2.4128    0.0000 N   0  0  0  0  0  0  0  0  0  0  0  0
    0.2757    0.2896    0.0000 C   0  0  0  0  0  0  0  0  0  0  0  0
   -0.1517    1.5717    0.0000 C   0  0  0  0  0  0  0  0  0  0  0  0
   -0.3998    0.7859    0.0000 C   0  0  0  0  0  0  0  0  0  0  0  0
   -0.4550   -0.1241    0.0000 C   0  0  0  0  0  0  0  0  0  0  0  0
    0.9789   -0.1379    0.0000 C   0  0  0  0  0  0  0  0  0  0  0  0
    0.7032    1.5442    0.0000 C   0  0  0  0  0  0  0  0  0  0  0  0
    0.2619   -1.3373    0.0000 C   0  0  0  0  0  0  0  0  0  0  0  0
   -0.4550   -0.9376    0.0000 C   0  0  0  0  0  0  0  0  0  0  0  0
    0.9789   -0.9513    0.0000 C   0  0  0  0  0  0  0  0  0  0  0  0
   -0.9789    1.5442    0.0000 C   0  0  0  0  0  0  0  0  0  0  0  0
   -0.1517    2.4128    0.0000 C   0  0  0  0  0  0  0  0  0  0  0  0
  1  4  1  0  0  0  0
  1  9  1  0  0  0  0
  2  3  1  0  0  0  0
  2 10  1  0  0  0  0
  4  6  1  0  0  0  0
  4  7  1  0  0  0  0
  4  8  1  0  0  0  0
  5  6  1  0  0  0  0
  5  9  1  0  0  0  0
  5 13  1  0  0  0  0
  5 14  1  0  0  0  0
  7 11  1  0  0  0  0
  8 12  1  0  0  0  0
 10 11  1  0  0  0  0
 10 12  1  0  0  0  0
M  END
> <PUBCHEM_COMPOUND_ID_TYPE>
0

> <PUBCHEM_TOTAL_CHARGE>
0

> <PUBCHEM_SUBSTANCE_ID>
310944290

> <PUBCHEM_SUBSTANCE_VERSION>
1

> <PUBCHEM_EXT_DATASOURCE_NAME>
4488

> <PUBCHEM_EXT_DATASOURCE_REGID>
SCHEMBL16122365

> <PUBCHEM_SUBSTANCE_COMMENT>
InChI=1S/C11H22N2O/c1-10(2)7-11(14-8-10)5-3-9(13-12)4-6-11/h9,13H,3-8,12H2,1-2H3
InChIKey=YDXCXQNTSZRWTP-UHFFFAOYSA-N

> <PUBCHEM_SUBSTANCE_SYNONYM>
SCHEMBL16122365

> <PUBCHEM_XREF_EXT_ID>
SCHEMBL16122365

> <PUBCHEM_EXT_DATASOURCE_URL>
https://www.surechembl.org/

> <PUBCHEM_EXT_SUBSTANCE_URL>
https://www.surechembl.org/chemical/SCHEMBL16122365

> <PUBCHEM_CID_ASSOCIATIONS>
90455933  1

> <PUBCHEM_COORDINATE_TYPE>
1
3

$$$$
