310937217
  -OEChem-07211613022D

 31 35  0     0  0  0  0  0  0999 V2000
    9.8919   -0.7254    0.0000 Cl  0  0  0  0  0  0  0  0  0  0  0  0
    4.0886   -2.2092    0.0000 O   0  0  0  0  0  0  0  0  0  0  0  0
    0.0000   -3.7589    0.0000 O   0  0  0  0  0  0  0  0  0  0  0  0
    1.6486   -3.7259    0.0000 N   0  0  0  0  0  0  0  0  0  0  0  0
    4.9459   -3.5941    0.0000 N   0  0  0  0  0  0  0  0  0  0  0  0
    4.1546   -5.0778    0.0000 N   0  0  0  0  0  0  0  0  0  0  0  0
    7.4189   -2.1432    0.0000 N   0  0  0  0  0  0  0  0  0  0  0  0
    8.6389   -1.4178    0.0000 N   0  0  0  0  0  0  0  0  0  0  0  0
    8.6389    0.0000    0.0000 N   0  0  0  0  0  0  0  0  0  0  0  0
    4.1216   -3.6270    0.0000 C   0  0  0  0  0  0  0  0  0  0  0  0
    3.6930   -2.9346    0.0000 C   0  0  0  0  0  0  0  0  0  0  0  0
    3.7259   -4.3524    0.0000 C   0  0  0  0  0  0  0  0  0  0  0  0
    2.4730   -3.6930    0.0000 C   0  0  0  0  0  0  0  0  0  0  0  0
    2.8687   -2.9676    0.0000 C   0  0  0  0  0  0  0  0  0  0  0  0
    2.9346   -4.4184    0.0000 C   0  0  0  0  0  0  0  0  0  0  0  0
    4.9130   -2.2092    0.0000 C   0  0  0  0  0  0  0  0  0  0  0  0
    5.3746   -4.3194    0.0000 C   0  0  0  0  0  0  0  0  0  0  0  0
    5.0119   -5.0448    0.0000 C   0  0  0  0  0  0  0  0  0  0  0  0
    1.2530   -4.4513    0.0000 C   0  0  0  0  0  0  0  0  0  0  0  0
    1.2200   -3.0335    0.0000 C   0  0  0  0  0  0  0  0  0  0  0  0
    6.5946   -2.1762    0.0000 C   0  0  0  0  0  0  0  0  0  0  0  0
    5.3746   -2.9016    0.0000 C   0  0  0  0  0  0  0  0  0  0  0  0
    5.3416   -1.4838    0.0000 C   0  0  0  0  0  0  0  0  0  0  0  0
    6.1660   -2.9016    0.0000 C   0  0  0  0  0  0  0  0  0  0  0  0
    6.1330   -1.4508    0.0000 C   0  0  0  0  0  0  0  0  0  0  0  0
    7.8146   -1.4178    0.0000 C   0  0  0  0  0  0  0  0  0  0  0  0
    0.4616   -4.4843    0.0000 C   0  0  0  0  0  0  0  0  0  0  0  0
    0.4286   -3.0335    0.0000 C   0  0  0  0  0  0  0  0  0  0  0  0
    7.3859   -0.7254    0.0000 C   0  0  0  0  0  0  0  0  0  0  0  0
    9.0676   -0.7254    0.0000 C   0  0  0  0  0  0  0  0  0  0  0  0
    7.8146    0.0000    0.0000 C   0  0  0  0  0  0  0  0  0  0  0  0
  1 30  1  0  0  0  0
  2 11  1  0  0  0  0
  2 16  1  0  0  0  0
  3 27  1  0  0  0  0
  3 28  1  0  0  0  0
  4 13  1  0  0  0  0
  4 19  1  0  0  0  0
  4 20  1  0  0  0  0
  5 10  2  0  0  0  0
  5 17  1  0  0  0  0
  6 12  2  0  0  0  0
  6 18  1  0  0  0  0
  7 21  1  0  0  0  0
  7 26  1  0  0  0  0
  8 26  2  0  0  0  0
  8 30  1  0  0  0  0
  9 30  2  0  0  0  0
  9 31  1  0  0  0  0
 10 11  1  0  0  0  0
 10 12  1  0  0  0  0
 11 14  2  0  0  0  0
 12 15  1  0  0  0  0
 13 14  1  0  0  0  0
 13 15  2  0  0  0  0
 16 22  1  0  0  0  0
 16 23  1  0  0  0  0
 17 18  2  0  0  0  0
 19 27  1  0  0  0  0
 20 28  1  0  0  0  0
 21 24  1  0  0  0  0
 21 25  1  0  0  0  0
 22 24  1  0  0  0  0
 23 25  1  0  0  0  0
 26 29  1  0  0  0  0
 29 31  2  0  0  0  0
M  END
> <PUBCHEM_COMPOUND_ID_TYPE>
0

> <PUBCHEM_TOTAL_CHARGE>
0

> <PUBCHEM_SUBSTANCE_ID>
310937217

> <PUBCHEM_SUBSTANCE_VERSION>
1

> <PUBCHEM_EXT_DATASOURCE_NAME>
4488

> <PUBCHEM_EXT_DATASOURCE_REGID>
SCHEMBL16114949

> <PUBCHEM_SUBSTANCE_COMMENT>
InChI=1S/C22H25ClN6O2/c23-22-26-6-5-20(28-22)27-15-1-3-17(4-2-15)31-19-14-16(29-9-11-30-12-10-29)13-18-21(19)25-8-7-24-18/h5-8,13-15,17H,1-4,9-12H2,(H,26,27,28)
InChIKey=OFOUYWMDSRKHCR-UHFFFAOYSA-N

> <PUBCHEM_SUBSTANCE_SYNONYM>
SCHEMBL16114949

> <PUBCHEM_XREF_EXT_ID>
SCHEMBL16114949

> <PUBCHEM_EXT_DATASOURCE_URL>
https://www.surechembl.org/

> <PUBCHEM_EXT_SUBSTANCE_URL>
https://www.surechembl.org/chemical/SCHEMBL16114949

> <PUBCHEM_CID_ASSOCIATIONS>
117605024  1

> <PUBCHEM_COORDINATE_TYPE>
1
3

$$$$
