310930672
  -OEChem-07211613022D

 31 35  0     1  0  0  0  0  0999 V2000
    4.2651   -5.8645    0.0000 F   0  0  0  0  0  0  0  0  0  0  0  0
    2.8852   -5.8645    0.0000 O   0  0  0  0  0  0  0  0  0  0  0  0
    2.1325   -4.6101    0.0000 N   0  0  0  0  0  0  0  0  0  0  0  0
    2.8852   -3.3870    0.0000 N   0  0  0  0  0  0  0  0  0  0  0  0
    1.4426   -2.5716    0.0000 N   0  0  0  0  0  0  0  0  0  0  0  0
    1.5680   -0.7527    0.0000 N   0  0  0  0  0  0  0  0  0  0  0  0
    3.6065   -1.3485    0.0000 N   0  0  0  0  0  0  0  0  0  0  0  0
    2.7284   -0.1254    0.0000 N   0  0  0  0  0  0  0  0  0  0  0  0
    2.1325   -3.7947    0.0000 C   0  0  0  0  0  0  0  0  0  0  0  0
    3.5752   -4.6101    0.0000 C   0  0  0  0  0  0  0  0  0  0  0  0
    2.8852   -5.0178    0.0000 C   0  0  0  0  0  0  0  0  0  0  0  0
    3.5752   -3.7947    0.0000 C   0  0  0  0  0  0  0  0  0  0  0  0
    1.4426   -3.3870    0.0000 C   0  0  3  0  0  0  0  0  0  0  0  0
    1.4426   -5.0178    0.0000 C   0  0  0  0  0  0  0  0  0  0  0  0
    4.2651   -5.0178    0.0000 C   0  0  0  0  0  0  0  0  0  0  0  0
    2.1639   -2.1639    0.0000 C   0  0  0  0  0  0  0  0  0  0  0  0
    2.1325   -1.3172    0.0000 C   0  0  0  0  0  0  0  0  0  0  0  0
    4.2651   -3.3870    0.0000 C   0  0  0  0  0  0  0  0  0  0  0  0
    2.8852   -0.9095    0.0000 C   0  0  0  0  0  0  0  0  0  0  0  0
    4.9864   -4.6101    0.0000 C   0  0  0  0  0  0  0  0  0  0  0  0
    1.4426   -5.8645    0.0000 C   0  0  0  0  0  0  0  0  0  0  0  0
    0.8781   -4.7982    0.0000 C   0  0  0  0  0  0  0  0  0  0  0  0
    0.7213   -3.7947    0.0000 C   0  0  0  0  0  0  0  0  0  0  0  0
    4.9864   -3.7947    0.0000 C   0  0  0  0  0  0  0  0  0  0  0  0
    2.8225   -2.5716    0.0000 C   0  0  0  0  0  0  0  0  0  0  0  0
    3.5752   -2.1639    0.0000 C   0  0  0  0  0  0  0  0  0  0  0  0
    1.9130    0.0000    0.0000 C   0  0  0  0  0  0  0  0  0  0  0  0
    0.7213   -6.2722    0.0000 C   0  0  0  0  0  0  0  0  0  0  0  0
    0.0000   -5.0491    0.0000 C   0  0  0  0  0  0  0  0  0  0  0  0
    0.0000   -5.8645    0.0000 C   0  0  0  0  0  0  0  0  0  0  0  0
    0.7213   -4.6101    0.0000 C   0  0  0  0  0  0  0  0  0  0  0  0
  1 15  1  0  0  0  0
  2 11  2  0  0  0  0
  3  9  1  0  0  0  0
  3 11  1  0  0  0  0
  3 14  1  0  0  0  0
  4  9  2  0  0  0  0
  4 12  1  0  0  0  0
 13  5  1  6  0  0  0
  5 16  1  0  0  0  0
  6 17  1  0  0  0  0
  6 27  2  0  0  0  0
  7 19  1  0  0  0  0
  7 26  2  0  0  0  0
  8 19  1  0  0  0  0
  8 27  1  0  0  0  0
  9 13  1  0  0  0  0
 10 11  1  0  0  0  0
 10 12  2  0  0  0  0
 10 15  1  0  0  0  0
 12 18  1  0  0  0  0
 13 23  1  0  0  0  0
 14 21  2  0  0  0  0
 14 22  1  0  0  0  0
 15 20  2  0  0  0  0
 16 17  1  0  0  0  0
 16 25  2  0  0  0  0
 17 19  2  0  0  0  0
 18 24  2  0  0  0  0
 20 24  1  0  0  0  0
 21 28  1  0  0  0  0
 22 29  2  0  0  0  0
 23 31  1  0  0  0  0
 25 26  1  0  0  0  0
 28 30  2  0  0  0  0
 29 30  1  0  0  0  0
M  END
> <PUBCHEM_COMPOUND_ID_TYPE>
0

> <PUBCHEM_TOTAL_CHARGE>
0

> <PUBCHEM_SUBSTANCE_ID>
310930672

> <PUBCHEM_SUBSTANCE_VERSION>
1

> <PUBCHEM_EXT_DATASOURCE_NAME>
4488

> <PUBCHEM_EXT_DATASOURCE_REGID>
SCHEMBL16107969

> <PUBCHEM_SUBSTANCE_COMMENT>
InChI=1S/C23H19FN6O/c1-2-16(28-18-11-12-25-21-20(18)26-13-27-21)22-29-17-10-6-9-15(24)19(17)23(31)30(22)14-7-4-3-5-8-14/h3-13,16H,2H2,1H3,(H2,25,26,27,28)/t16-/m0/s1
InChIKey=XKCQEFRUZNPUEA-INIZCTEOSA-N

> <PUBCHEM_SUBSTANCE_SYNONYM>
SCHEMBL16107969

> <PUBCHEM_XREF_EXT_ID>
SCHEMBL16107969

> <PUBCHEM_EXT_DATASOURCE_URL>
https://www.surechembl.org/

> <PUBCHEM_EXT_SUBSTANCE_URL>
https://www.surechembl.org/chemical/SCHEMBL16107969

> <PUBCHEM_CID_ASSOCIATIONS>
86272146  1

> <PUBCHEM_COORDINATE_TYPE>
1
3

> <PUBCHEM_BONDANNOTATIONS>
13  5  6

$$$$
