310935803
  -OEChem-07211613022D

 24 26  0     0  0  0  0  0  0999 V2000
    5.8215   -1.1949    0.0000 Cl  0  0  0  0  0  0  0  0  0  0  0  0
    4.5653   -0.4902    0.0000 Cl  0  0  0  0  0  0  0  0  0  0  0  0
    5.4232   -1.8996    0.0000 Cl  0  0  0  0  0  0  0  0  0  0  0  0
    0.0000    0.0000    0.0000 F   0  0  0  0  0  0  0  0  0  0  0  0
    4.3202   -2.4512    0.0000 N   0  0  0  0  0  0  0  0  0  0  0  0
    3.5848   -1.2256    0.0000 N   0  0  0  0  0  0  0  0  0  0  0  0
    2.9107   -2.4512    0.0000 N   0  0  0  0  0  0  0  0  0  0  0  0
    3.5848   -3.6768    0.0000 N   0  0  0  0  0  0  0  0  0  0  0  0
    3.5848   -6.1279    0.0000 N   0  0  0  0  0  0  0  0  0  0  0  0
    4.2895   -1.6239    0.0000 C   0  0  0  0  0  0  0  0  0  0  0  0
    3.5848   -2.8495    0.0000 C   0  0  0  0  0  0  0  0  0  0  0  0
    2.8495   -1.6239    0.0000 C   0  0  0  0  0  0  0  0  0  0  0  0
    4.9943   -1.1949    0.0000 C   0  0  0  0  0  0  0  0  0  0  0  0
    2.1448   -1.2256    0.0000 C   0  0  0  0  0  0  0  0  0  0  0  0
    4.3202   -4.0751    0.0000 C   0  0  0  0  0  0  0  0  0  0  0  0
    2.8801   -4.0751    0.0000 C   0  0  0  0  0  0  0  0  0  0  0  0
    1.4401   -1.6546    0.0000 C   0  0  0  0  0  0  0  0  0  0  0  0
    2.1141   -0.3983    0.0000 C   0  0  0  0  0  0  0  0  0  0  0  0
    4.3202   -4.9023    0.0000 C   0  0  0  0  0  0  0  0  0  0  0  0
    2.8801   -4.9023    0.0000 C   0  0  0  0  0  0  0  0  0  0  0  0
    3.5848   -5.3006    0.0000 C   0  0  0  0  0  0  0  0  0  0  0  0
    0.7047   -1.2256    0.0000 C   0  0  0  0  0  0  0  0  0  0  0  0
    1.4094    0.0000    0.0000 C   0  0  0  0  0  0  0  0  0  0  0  0
    0.7047   -0.4290    0.0000 C   0  0  0  0  0  0  0  0  0  0  0  0
  1 13  1  0  0  0  0
  2 13  1  0  0  0  0
  3 13  1  0  0  0  0
  4 24  1  0  0  0  0
  5 10  1  0  0  0  0
  5 11  2  0  0  0  0
  6 10  2  0  0  0  0
  6 12  1  0  0  0  0
  7 11  1  0  0  0  0
  7 12  2  0  0  0  0
  8 11  1  0  0  0  0
  8 15  1  0  0  0  0
  8 16  1  0  0  0  0
  9 21  1  0  0  0  0
 10 13  1  0  0  0  0
 12 14  1  0  0  0  0
 14 17  2  0  0  0  0
 14 18  1  0  0  0  0
 15 19  1  0  0  0  0
 16 20  1  0  0  0  0
 17 22  1  0  0  0  0
 18 23  2  0  0  0  0
 19 21  1  0  0  0  0
 20 21  1  0  0  0  0
 22 24  2  0  0  0  0
 23 24  1  0  0  0  0
M  END
> <PUBCHEM_COMPOUND_ID_TYPE>
0

> <PUBCHEM_TOTAL_CHARGE>
0

> <PUBCHEM_SUBSTANCE_ID>
310935803

> <PUBCHEM_SUBSTANCE_VERSION>
1

> <PUBCHEM_EXT_DATASOURCE_NAME>
4488

> <PUBCHEM_EXT_DATASOURCE_REGID>
SCHEMBL16113389

> <PUBCHEM_SUBSTANCE_COMMENT>
InChI=1S/C15H15Cl3FN5/c16-15(17,18)13-21-12(9-1-3-10(19)4-2-9)22-14(23-13)24-7-5-11(20)6-8-24/h1-4,11H,5-8,20H2
InChIKey=CQKPIURRPBGJMF-UHFFFAOYSA-N

> <PUBCHEM_SUBSTANCE_SYNONYM>
SCHEMBL16113389

> <PUBCHEM_XREF_EXT_ID>
SCHEMBL16113389

> <PUBCHEM_EXT_DATASOURCE_URL>
https://www.surechembl.org/

> <PUBCHEM_EXT_SUBSTANCE_URL>
https://www.surechembl.org/chemical/SCHEMBL16113389

> <PUBCHEM_CID_ASSOCIATIONS>
85471614  1

> <PUBCHEM_COORDINATE_TYPE>
1
3

$$$$
