310930080
  -OEChem-07211613022D

 26 28  0     1  0  0  0  0  0999 V2000
    3.1195   -3.9062    0.0000 Cl  0  0  0  0  0  0  0  0  0  0  0  0
    1.5733    0.0000    0.0000 F   0  0  0  0  0  0  0  0  0  0  0  0
    0.5968   -1.0308    0.0000 F   0  0  0  0  0  0  0  0  0  0  0  0
    2.1973   -0.5697    0.0000 F   0  0  0  0  0  0  0  0  0  0  0  0
    0.8409   -1.4377    0.0000 O   0  0  0  0  0  0  0  0  0  0  0  0
    4.5572   -1.4377    0.0000 O   0  0  0  0  0  0  0  0  0  0  0  0
    7.4326   -0.6239    0.0000 O   0  0  0  0  0  0  0  0  0  0  0  0
    8.1379   -1.8446    0.0000 O   0  0  0  0  0  0  0  0  0  0  0  0
    1.6547   -1.6004    0.0000 C   0  0  3  0  0  0  0  0  0  0  0  0
    2.3871   -1.8175    0.0000 C   0  0  0  0  0  0  0  0  0  0  0  0
    1.1122   -2.2515    0.0000 C   0  0  0  0  0  0  0  0  0  0  0  0
    2.3600   -2.6584    0.0000 C   0  0  0  0  0  0  0  0  0  0  0  0
    1.6276   -2.9025    0.0000 C   0  0  0  0  0  0  0  0  0  0  0  0
    1.3834   -0.8138    0.0000 C   0  0  0  0  0  0  0  0  0  0  0  0
    3.1195   -3.0924    0.0000 C   0  0  0  0  0  0  0  0  0  0  0  0
    3.1467   -1.4106    0.0000 C   0  0  0  0  0  0  0  0  0  0  0  0
    0.3255   -2.3329    0.0000 C   0  0  0  0  0  0  0  0  0  0  0  0
    1.2478   -3.6349    0.0000 C   0  0  0  0  0  0  0  0  0  0  0  0
    3.8248   -1.8175    0.0000 C   0  0  0  0  0  0  0  0  0  0  0  0
    3.8248   -2.6855    0.0000 C   0  0  0  0  0  0  0  0  0  0  0  0
    0.0000   -3.0653    0.0000 C   0  0  0  0  0  0  0  0  0  0  0  0
    0.4611   -3.7163    0.0000 C   0  0  0  0  0  0  0  0  0  0  0  0
    5.2625   -1.8446    0.0000 C   0  0  0  0  0  0  0  0  0  0  0  0
    5.9678   -1.4648    0.0000 C   0  0  0  0  0  0  0  0  0  0  0  0
    6.7002   -1.8446    0.0000 C   0  0  0  0  0  0  0  0  0  0  0  0
    7.4326   -1.4377    0.0000 C   0  0  0  0  0  0  0  0  0  0  0  0
  1 15  1  0  0  0  0
  2 14  1  0  0  0  0
  3 14  1  0  0  0  0
  4 14  1  0  0  0  0
  9  5  1  1  0  0  0
  6 19  1  0  0  0  0
  6 23  1  0  0  0  0
  7 26  2  0  0  0  0
  8 26  1  0  0  0  0
  9 10  1  0  0  0  0
  9 11  1  0  0  0  0
  9 14  1  6  0  0  0
 10 12  2  0  0  0  0
 10 16  1  0  0  0  0
 11 13  2  0  0  0  0
 11 17  1  0  0  0  0
 12 13  1  0  0  0  0
 12 15  1  0  0  0  0
 13 18  1  0  0  0  0
 15 20  2  0  0  0  0
 16 19  2  0  0  0  0
 17 21  2  0  0  0  0
 18 22  2  0  0  0  0
 19 20  1  0  0  0  0
 21 22  1  0  0  0  0
 23 24  1  0  0  0  0
 24 25  1  0  0  0  0
 25 26  1  0  0  0  0
M  END
> <PUBCHEM_COMPOUND_ID_TYPE>
0

> <PUBCHEM_TOTAL_CHARGE>
0

> <PUBCHEM_SUBSTANCE_ID>
310930080

> <PUBCHEM_SUBSTANCE_VERSION>
1

> <PUBCHEM_EXT_DATASOURCE_NAME>
4488

> <PUBCHEM_EXT_DATASOURCE_REGID>
SCHEMBL16107324

> <PUBCHEM_SUBSTANCE_COMMENT>
InChI=1S/C18H14ClF3O4/c19-14-9-10(26-7-3-6-15(23)24)8-13-16(14)11-4-1-2-5-12(11)17(13,25)18(20,21)22/h1-2,4-5,8-9,25H,3,6-7H2,(H,23,24)/t17-/m1/s1
InChIKey=LQPYVMZXAKJSNL-QGZVFWFLSA-N

> <PUBCHEM_SUBSTANCE_SYNONYM>
SCHEMBL16107324

> <PUBCHEM_XREF_EXT_ID>
SCHEMBL16107324

> <PUBCHEM_EXT_DATASOURCE_URL>
https://www.surechembl.org/

> <PUBCHEM_EXT_SUBSTANCE_URL>
https://www.surechembl.org/chemical/SCHEMBL16107324

> <PUBCHEM_CID_ASSOCIATIONS>
117599316  1

> <PUBCHEM_COORDINATE_TYPE>
1
3

> <PUBCHEM_BONDANNOTATIONS>
9  5  5
9  14  6

$$$$
