310941980
  -OEChem-07211613022D

 22 25  0     0  0  0  0  0  0999 V2000
   -2.2592   -3.0331    0.0000 F   0  0  0  0  0  0  0  0  0  0  0  0
    2.4340    1.6976    0.0000 O   0  0  0  0  0  0  0  0  0  0  0  0
   -0.7614   -0.5367    0.0000 N   0  0  0  0  0  0  0  0  0  0  0  0
    2.7959    2.4589    0.0000 N   0  0  0  0  0  0  0  0  0  0  0  0
   -0.3495    0.7614    0.0000 C   0  0  0  0  0  0  0  0  0  0  0  0
   -0.0999   -0.0124    0.0000 C   0  0  0  0  0  0  0  0  0  0  0  0
   -1.1733    0.7864    0.0000 C   0  0  0  0  0  0  0  0  0  0  0  0
   -1.4604   -0.0124    0.0000 C   0  0  0  0  0  0  0  0  0  0  0  0
    0.2122    1.3605    0.0000 C   0  0  0  0  0  0  0  0  0  0  0  0
    1.0235    1.1982    0.0000 C   0  0  0  0  0  0  0  0  0  0  0  0
    0.7115   -0.2122    0.0000 C   0  0  0  0  0  0  0  0  0  0  0  0
   -1.7225    1.3855    0.0000 C   0  0  0  0  0  0  0  0  0  0  0  0
   -2.2592   -0.1623    0.0000 C   0  0  0  0  0  0  0  0  0  0  0  0
    1.2731    0.3869    0.0000 C   0  0  0  0  0  0  0  0  0  0  0  0
    1.5977    1.8349    0.0000 C   0  0  0  0  0  0  0  0  0  0  0  0
   -0.7988   -1.3605    0.0000 C   0  0  0  0  0  0  0  0  0  0  0  0
   -2.5339    1.2357    0.0000 C   0  0  0  0  0  0  0  0  0  0  0  0
   -2.7959    0.4369    0.0000 C   0  0  0  0  0  0  0  0  0  0  0  0
    1.4479    2.6462    0.0000 C   0  0  0  0  0  0  0  0  0  0  0  0
   -1.5103   -1.7600    0.0000 C   0  0  0  0  0  0  0  0  0  0  0  0
    2.1344    3.0331    0.0000 C   0  0  0  0  0  0  0  0  0  0  0  0
   -1.5478   -2.6088    0.0000 C   0  0  0  0  0  0  0  0  0  0  0  0
  1 22  1  0  0  0  0
  2  4  1  0  0  0  0
  2 15  1  0  0  0  0
  3  6  1  0  0  0  0
  3  8  1  0  0  0  0
  3 16  1  0  0  0  0
  4 21  2  0  0  0  0
  5  6  2  0  0  0  0
  5  7  1  0  0  0  0
  5  9  1  0  0  0  0
  6 11  1  0  0  0  0
  7  8  2  0  0  0  0
  7 12  1  0  0  0  0
  8 13  1  0  0  0  0
  9 10  2  0  0  0  0
 10 14  1  0  0  0  0
 10 15  1  0  0  0  0
 11 14  2  0  0  0  0
 12 17  2  0  0  0  0
 13 18  2  0  0  0  0
 15 19  2  0  0  0  0
 16 20  1  0  0  0  0
 17 18  1  0  0  0  0
 19 21  1  0  0  0  0
 20 22  1  0  0  0  0
M  END
> <PUBCHEM_COMPOUND_ID_TYPE>
0

> <PUBCHEM_TOTAL_CHARGE>
0

> <PUBCHEM_SUBSTANCE_ID>
310941980

> <PUBCHEM_SUBSTANCE_VERSION>
1

> <PUBCHEM_EXT_DATASOURCE_NAME>
4488

> <PUBCHEM_EXT_DATASOURCE_REGID>
SCHEMBL16120014

> <PUBCHEM_SUBSTANCE_COMMENT>
InChI=1S/C18H15FN2O/c19-9-3-11-21-16-5-2-1-4-14(16)15-12-13(6-7-17(15)21)18-8-10-20-22-18/h1-2,4-8,10,12H,3,9,11H2
InChIKey=LVKYGCHQMHLUKJ-UHFFFAOYSA-N

> <PUBCHEM_SUBSTANCE_SYNONYM>
SCHEMBL16120014

> <PUBCHEM_XREF_EXT_ID>
SCHEMBL16120014

> <PUBCHEM_EXT_DATASOURCE_URL>
https://www.surechembl.org/

> <PUBCHEM_EXT_SUBSTANCE_URL>
https://www.surechembl.org/chemical/SCHEMBL16120014

> <PUBCHEM_CID_ASSOCIATIONS>
117608683  1

> <PUBCHEM_COORDINATE_TYPE>
1
3

$$$$
