310935452
  -OEChem-07211613022D

 35 38  0     0  0  0  0  0  0999 V2000
    0.0000    0.0000    0.0000 F   0  0  0  0  0  0  0  0  0  0  0  0
    1.1712   -7.9472    0.0000 F   0  0  0  0  0  0  0  0  0  0  0  0
    2.6351   -7.9472    0.0000 F   0  0  0  0  0  0  0  0  0  0  0  0
    1.9240   -8.3655    0.0000 F   0  0  0  0  0  0  0  0  0  0  0  0
    1.3385   -3.6390    0.0000 O   0  0  0  0  0  0  0  0  0  0  0  0
    2.6351   -6.2741    0.0000 O   0  0  0  0  0  0  0  0  0  0  0  0
    3.8481   -2.5515    0.0000 O   0  0  0  0  0  0  0  0  0  0  0  0
    6.2741   -4.1827    0.0000 O   0  0  0  0  0  0  0  0  0  0  0  0
    6.9852   -5.4376    0.0000 O   0  0  0  0  0  0  0  0  0  0  0  0
    2.8024   -1.5894    0.0000 N   0  0  0  0  0  0  0  0  0  0  0  0
    2.6770   -3.8063    0.0000 C   0  0  0  0  0  0  0  0  0  0  0  0
    2.4678   -3.0116    0.0000 C   0  0  0  0  0  0  0  0  0  0  0  0
    1.9240   -4.2246    0.0000 C   0  0  0  0  0  0  0  0  0  0  0  0
    1.6731   -2.8861    0.0000 C   0  0  0  0  0  0  0  0  0  0  0  0
    3.3880   -5.0193    0.0000 C   0  0  0  0  0  0  0  0  0  0  0  0
    3.3880   -4.2246    0.0000 C   0  0  0  0  0  0  0  0  0  0  0  0
    2.6351   -5.4794    0.0000 C   0  0  0  0  0  0  0  0  0  0  0  0
    1.9240   -5.0611    0.0000 C   0  0  0  0  0  0  0  0  0  0  0  0
    1.2548   -2.1750    0.0000 C   0  0  0  0  0  0  0  0  0  0  0  0
    3.0534   -2.3842    0.0000 C   0  0  0  0  0  0  0  0  0  0  0  0
    4.0991   -5.4376    0.0000 C   0  0  0  0  0  0  0  0  0  0  0  0
    0.4183   -2.1750    0.0000 C   0  0  0  0  0  0  0  0  0  0  0  0
    1.6313   -1.4640    0.0000 C   0  0  0  0  0  0  0  0  0  0  0  0
    4.8520   -5.0193    0.0000 C   0  0  0  0  0  0  0  0  0  0  0  0
    4.0991   -6.2741    0.0000 C   0  0  0  0  0  0  0  0  0  0  0  0
    5.5630   -5.4376    0.0000 C   0  0  0  0  0  0  0  0  0  0  0  0
    1.9240   -6.6924    0.0000 C   0  0  0  0  0  0  0  0  0  0  0  0
    0.0000   -1.4640    0.0000 C   0  0  0  0  0  0  0  0  0  0  0  0
    1.2130   -0.7110    0.0000 C   0  0  0  0  0  0  0  0  0  0  0  0
    0.4183   -0.7110    0.0000 C   0  0  0  0  0  0  0  0  0  0  0  0
    4.8520   -6.6924    0.0000 C   0  0  0  0  0  0  0  0  0  0  0  0
    5.5630   -6.2741    0.0000 C   0  0  0  0  0  0  0  0  0  0  0  0
    1.8823   -7.5289    0.0000 C   0  0  0  0  0  0  0  0  0  0  0  0
    6.2741   -5.0193    0.0000 C   0  0  0  0  0  0  0  0  0  0  0  0
    3.3462   -0.9620    0.0000 C   0  0  0  0  0  0  0  0  0  0  0  0
  1 30  1  0  0  0  0
  2 33  1  0  0  0  0
  3 33  1  0  0  0  0
  4 33  1  0  0  0  0
  5 13  1  0  0  0  0
  5 14  1  0  0  0  0
  6 17  1  0  0  0  0
  6 27  1  0  0  0  0
  7 20  2  0  0  0  0
  8 34  2  0  0  0  0
  9 34  1  0  0  0  0
 10 20  1  0  0  0  0
 10 35  1  0  0  0  0
 11 12  1  0  0  0  0
 11 13  2  0  0  0  0
 11 16  1  0  0  0  0
 12 14  2  0  0  0  0
 12 20  1  0  0  0  0
 13 18  1  0  0  0  0
 14 19  1  0  0  0  0
 15 16  2  0  0  0  0
 15 17  1  0  0  0  0
 15 21  1  0  0  0  0
 17 18  2  0  0  0  0
 19 22  2  0  0  0  0
 19 23  1  0  0  0  0
 21 24  1  0  0  0  0
 21 25  2  0  0  0  0
 22 28  1  0  0  0  0
 23 29  2  0  0  0  0
 24 26  2  0  0  0  0
 25 31  1  0  0  0  0
 26 32  1  0  0  0  0
 26 34  1  0  0  0  0
 27 33  1  0  0  0  0
 28 30  2  0  0  0  0
 29 30  1  0  0  0  0
 31 32  2  0  0  0  0
M  END
> <PUBCHEM_COMPOUND_ID_TYPE>
0

> <PUBCHEM_TOTAL_CHARGE>
0

> <PUBCHEM_SUBSTANCE_ID>
310935452

> <PUBCHEM_SUBSTANCE_VERSION>
1

> <PUBCHEM_EXT_DATASOURCE_NAME>
4488

> <PUBCHEM_EXT_DATASOURCE_REGID>
SCHEMBL16112996

> <PUBCHEM_SUBSTANCE_COMMENT>
InChI=1S/C25H17F4NO5/c1-30-23(31)21-18-10-17(14-3-2-4-15(9-14)24(32)33)19(34-12-25(27,28)29)11-20(18)35-22(21)13-5-7-16(26)8-6-13/h2-11H,12H2,1H3,(H,30,31)(H,32,33)
InChIKey=OKLAROGPJZDUQS-UHFFFAOYSA-N

> <PUBCHEM_SUBSTANCE_SYNONYM>
SCHEMBL16112996

> <PUBCHEM_XREF_EXT_ID>
SCHEMBL16112996

> <PUBCHEM_EXT_DATASOURCE_URL>
https://www.surechembl.org/

> <PUBCHEM_EXT_SUBSTANCE_URL>
https://www.surechembl.org/chemical/SCHEMBL16112996

> <PUBCHEM_CID_ASSOCIATIONS>
117603492  1

> <PUBCHEM_COORDINATE_TYPE>
1
3

$$$$
