310946663
  -OEChem-07211613022D

 28 31  0     1  0  0  0  0  0999 V2000
    6.9573    7.6975    0.0000 O   0  0  0  0  0  0  0  0  0  0  0  0
    6.8872    6.2050    0.0000 C   0  0  3  0  0  0  0  0  0  0  0  0
    6.8872    5.3800    0.0000 C   0  0  3  0  0  0  0  0  0  0  0  0
    5.4582    5.3800    0.0000 C   0  0  3  0  0  0  0  0  0  0  0  0
    6.1727    4.9675    0.0000 C   0  0  3  0  0  0  0  0  0  0  0  0
    4.7438    4.9675    0.0000 C   0  0  3  0  0  0  0  0  0  0  0  0
    7.6718    6.4600    0.0000 C   0  0  3  0  0  0  0  0  0  0  0  0
    4.7438    4.1425    0.0000 C   0  0  0  0  0  0  0  0  0  0  0  0
    6.1727    6.6175    0.0000 C   0  0  0  0  0  0  0  0  0  0  0  0
    5.4582    6.2050    0.0000 C   0  0  0  0  0  0  0  0  0  0  0  0
    7.6718    5.1251    0.0000 C   0  0  0  0  0  0  0  0  0  0  0  0
    6.1727    4.1425    0.0000 C   0  0  0  0  0  0  0  0  0  0  0  0
    8.1567    5.7925    0.0000 C   0  0  0  0  0  0  0  0  0  0  0  0
    4.0293    5.3800    0.0000 C   0  0  0  0  0  0  0  0  0  0  0  0
    5.4582    3.7300    0.0000 C   0  0  0  0  0  0  0  0  0  0  0  0
    7.6718    7.2850    0.0000 C   0  0  0  0  0  0  0  0  0  0  0  0
    6.8872    7.0300    0.0000 C   0  0  0  0  0  0  0  0  0  0  0  0
    4.0293    3.7300    0.0000 C   0  0  0  0  0  0  0  0  0  0  0  0
    4.7438    5.7925    0.0000 C   0  0  0  0  0  0  0  0  0  0  0  0
    3.3148    4.1425    0.0000 C   0  0  3  0  0  0  0  0  0  0  0  0
    3.3148    4.9675    0.0000 C   0  0  0  0  0  0  0  0  0  0  0  0
    8.3863    7.6975    0.0000 C   0  0  0  0  0  0  0  0  0  0  0  0
    2.6004    3.7300    0.0000 C   0  0  0  0  0  0  0  0  0  0  0  0
    9.1008    7.2850    0.0000 C   0  0  0  0  0  0  0  0  0  0  0  0
    9.8152    7.6975    0.0000 C   0  0  0  0  0  0  0  0  0  0  0  0
   10.5297    7.2850    0.0000 C   0  0  0  0  0  0  0  0  0  0  0  0
   11.2442    7.6975    0.0000 C   0  0  0  0  0  0  0  0  0  0  0  0
   10.5297    6.4600    0.0000 C   0  0  0  0  0  0  0  0  0  0  0  0
  1 16  2  0  0  0  0
  2  3  1  0  0  0  0
  2  7  1  0  0  0  0
  2  9  1  0  0  0  0
  2 17  1  1  0  0  0
  3  5  1  0  0  0  0
  3 11  1  0  0  0  0
  4  5  1  0  0  0  0
  4  6  1  0  0  0  0
  4 10  1  0  0  0  0
  5 12  1  0  0  0  0
  6  8  1  0  0  0  0
  6 14  1  0  0  0  0
  6 19  1  1  0  0  0
  7 13  1  0  0  0  0
  7 16  1  0  0  0  0
  8 15  2  0  0  0  0
  8 18  1  0  0  0  0
  9 10  1  0  0  0  0
 11 13  1  0  0  0  0
 12 15  1  0  0  0  0
 14 21  1  0  0  0  0
 16 22  1  0  0  0  0
 18 20  1  0  0  0  0
 20 21  1  0  0  0  0
 20 23  1  1  0  0  0
 22 24  1  0  0  0  0
 24 25  1  0  0  0  0
 25 26  2  0  0  0  0
 26 27  1  0  0  0  0
 26 28  1  0  0  0  0
M  END
> <PUBCHEM_COMPOUND_ID_TYPE>
0

> <PUBCHEM_TOTAL_CHARGE>
0

> <PUBCHEM_SUBSTANCE_ID>
310946663

> <PUBCHEM_SUBSTANCE_VERSION>
1

> <PUBCHEM_EXT_DATASOURCE_NAME>
4488

> <PUBCHEM_EXT_DATASOURCE_REGID>
SCHEMBL16124784

> <PUBCHEM_SUBSTANCE_COMMENT>
InChI=1S/C27H42O/c1-18(2)7-6-8-25(28)24-12-11-22-21-10-9-20-17-19(3)13-15-26(20,4)23(21)14-16-27(22,24)5/h7,9,19,21-24H,6,8,10-17H2,1-5H3/t19-,21?,22?,23?,24?,26-,27-/m0/s1
InChIKey=ISYVRKXHXLSOFV-MPBUNAJDSA-N

> <PUBCHEM_SUBSTANCE_SYNONYM>
SCHEMBL16124784

> <PUBCHEM_XREF_EXT_ID>
SCHEMBL16124784

> <PUBCHEM_EXT_DATASOURCE_URL>
https://www.surechembl.org/

> <PUBCHEM_EXT_SUBSTANCE_URL>
https://www.surechembl.org/chemical/SCHEMBL16124784

> <PUBCHEM_CID_ASSOCIATIONS>
117612563  1

> <PUBCHEM_COORDINATE_TYPE>
1
3

> <PUBCHEM_BONDANNOTATIONS>
2  17  5
20  23  5
6  19  5

$$$$
