310941843
  -OEChem-07211613022D

 11 11  0     0  0  0  0  0  0999 V2000
   -2.2099    0.0884    0.0000 I   0  0  0  0  0  0  0  0  0  0  0  0
    1.3996   -0.7219    0.0000 O   0  0  0  0  0  0  0  0  0  0  0  0
    1.4143    0.6924    0.0000 O   0  0  0  0  0  0  0  0  0  0  0  0
   -1.4733    0.0147    0.0000 N   0  0  0  0  0  0  0  0  0  0  0  0
    0.1768    0.0147    0.0000 C   0  0  0  0  0  0  0  0  0  0  0  0
    0.9724   -0.0147    0.0000 C   0  0  0  0  0  0  0  0  0  0  0  0
   -0.2357   -0.7071    0.0000 C   0  0  0  0  0  0  0  0  0  0  0  0
   -0.2210    0.7071    0.0000 C   0  0  0  0  0  0  0  0  0  0  0  0
   -1.0607   -0.7071    0.0000 C   0  0  0  0  0  0  0  0  0  0  0  0
   -1.0460    0.7219    0.0000 C   0  0  0  0  0  0  0  0  0  0  0  0
    2.2099   -0.7219    0.0000 C   0  0  0  0  0  0  0  0  0  0  0  0
  1  4  1  0  0  0  0
  2  6  1  0  0  0  0
  2 11  1  0  0  0  0
  3  6  2  0  0  0  0
  4  9  1  0  0  0  0
  4 10  1  0  0  0  0
  5  6  1  0  0  0  0
  5  7  1  0  0  0  0
  5  8  1  0  0  0  0
  7  9  1  0  0  0  0
  8 10  1  0  0  0  0
M  END
> <PUBCHEM_COMPOUND_ID_TYPE>
0

> <PUBCHEM_TOTAL_CHARGE>
0

> <PUBCHEM_SUBSTANCE_ID>
310941843

> <PUBCHEM_SUBSTANCE_VERSION>
1

> <PUBCHEM_EXT_DATASOURCE_NAME>
4488

> <PUBCHEM_EXT_DATASOURCE_REGID>
SCHEMBL16119875

> <PUBCHEM_SUBSTANCE_COMMENT>
InChI=1S/C7H12INO2/c1-11-7(10)6-2-4-9(8)5-3-6/h6H,2-5H2,1H3
InChIKey=VXGZQHLEPXRPFY-UHFFFAOYSA-N

> <PUBCHEM_SUBSTANCE_SYNONYM>
SCHEMBL16119875

> <PUBCHEM_XREF_EXT_ID>
SCHEMBL16119875

> <PUBCHEM_EXT_DATASOURCE_URL>
https://www.surechembl.org/

> <PUBCHEM_EXT_SUBSTANCE_URL>
https://www.surechembl.org/chemical/SCHEMBL16119875

> <PUBCHEM_CID_ASSOCIATIONS>
117608585  1

> <PUBCHEM_COORDINATE_TYPE>
1
3

$$$$
