310930070
  -OEChem-07211613022D

 70 78  0     1  0  0  0  0  0999 V2000
   -2.3860   -3.7235    0.0000 S   0  0  0  0  0  0  0  0  0  0  0  0
   -1.5610   -5.1524    0.0000 O   0  0  0  0  0  0  0  0  0  0  0  0
    1.4290   -0.8250    0.0000 O   0  0  0  0  0  0  0  0  0  0  0  0
    1.3265   -4.4380    0.0000 O   0  0  0  0  0  0  0  0  0  0  0  0
   -2.3860   -2.8985    0.0000 O   0  0  0  0  0  0  0  0  0  0  0  0
   -2.3860   -4.5485    0.0000 O   0  0  0  0  0  0  0  0  0  0  0  0
    2.8579   -4.1250    0.0000 O   0  0  0  0  0  0  0  0  0  0  0  0
    4.2868   -0.8250    0.0000 O   0  0  0  0  0  0  0  0  0  0  0  0
    0.0000    1.6500    0.0000 O   0  0  0  0  0  0  0  0  0  0  0  0
    5.0013   -2.0625    0.0000 O   0  0  0  0  0  0  0  0  0  0  0  0
    0.0890   -3.7235    0.0000 N   0  0  0  0  0  0  0  0  0  0  0  0
    2.1434   -2.8875    0.0000 N   0  0  0  0  0  0  0  0  0  0  0  0
   -1.5610   -3.7235    0.0000 N   0  0  0  0  0  0  0  0  0  0  0  0
    0.0000   -0.8250    0.0000 N   0  0  0  0  0  0  0  0  0  0  0  0
    3.5724   -2.0625    0.0000 N   0  0  0  0  0  0  0  0  0  0  0  0
   -1.4290    4.1250    0.0000 N   0  0  3  0  0  0  0  0  0  0  0  0
   -0.3235   -4.4380    0.0000 C   0  0  3  0  0  0  0  0  0  0  0  0
    0.3909   -4.8505    0.0000 C   0  0  3  0  0  0  0  0  0  0  0  0
   -0.3235   -5.2630    0.0000 C   0  0  0  0  0  0  0  0  0  0  0  0
   -1.1485   -4.4380    0.0000 C   0  0  0  0  0  0  0  0  0  0  0  0
    0.9140   -3.7235    0.0000 C   0  0  0  0  0  0  0  0  0  0  0  0
    1.3265   -3.0090    0.0000 C   0  0  3  0  0  0  0  0  0  0  0  0
    1.4290   -1.6500    0.0000 C   0  0  3  0  0  0  0  0  0  0  0  0
    1.2159   -4.8505    0.0000 C   0  0  0  0  0  0  0  0  0  0  0  0
    0.9140   -2.2945    0.0000 C   0  0  0  0  0  0  0  0  0  0  0  0
    2.1434   -2.0625    0.0000 C   0  0  0  0  0  0  0  0  0  0  0  0
    2.8579   -3.3000    0.0000 C   0  0  0  0  0  0  0  0  0  0  0  0
   -3.2110   -3.7235    0.0000 C   0  0  0  0  0  0  0  0  0  0  0  0
    0.7144   -0.4125    0.0000 C   0  0  0  0  0  0  0  0  0  0  0  0
    3.5724   -2.8875    0.0000 C   0  0  3  0  0  0  0  0  0  0  0  0
    0.7144    0.4125    0.0000 C   0  0  0  0  0  0  0  0  0  0  0  0
   -3.9255   -4.1360    0.0000 C   0  0  0  0  0  0  0  0  0  0  0  0
   -3.9255   -3.3110    0.0000 C   0  0  0  0  0  0  0  0  0  0  0  0
    0.0000    0.8250    0.0000 C   0  0  0  0  0  0  0  0  0  0  0  0
    5.0013   -0.4125    0.0000 C   0  0  3  0  0  0  0  0  0  0  0  0
    1.6284   -5.5649    0.0000 C   0  0  0  0  0  0  0  0  0  0  0  0
    5.0013    0.4125    0.0000 C   0  0  3  0  0  0  0  0  0  0  0  0
   -0.7144    0.4125    0.0000 C   0  0  0  0  0  0  0  0  0  0  0  0
   -0.7144   -0.4125    0.0000 C   0  0  0  0  0  0  0  0  0  0  0  0
    4.2868   -3.3000    0.0000 C   0  0  0  0  0  0  0  0  0  0  0  0
    4.2868   -1.6500    0.0000 C   0  0  0  0  0  0  0  0  0  0  0  0
    1.4290    0.8250    0.0000 C   0  0  0  0  0  0  0  0  0  0  0  0
    5.7859   -0.6674    0.0000 C   0  0  0  0  0  0  0  0  0  0  0  0
    5.7859    0.6674    0.0000 C   0  0  0  0  0  0  0  0  0  0  0  0
    4.2868    0.8250    0.0000 C   0  0  0  0  0  0  0  0  0  0  0  0
   -1.4290    0.8250    0.0000 C   0  0  0  0  0  0  0  0  0  0  0  0
   -1.4290   -0.8250    0.0000 C   0  0  0  0  0  0  0  0  0  0  0  0
    5.0405   -2.9645    0.0000 C   0  0  0  0  0  0  0  0  0  0  0  0
    4.3731   -4.1205    0.0000 C   0  0  0  0  0  0  0  0  0  0  0  0
    6.2708    0.0000    0.0000 C   0  0  0  0  0  0  0  0  0  0  0  0
    2.1434    0.4125    0.0000 C   0  0  0  0  0  0  0  0  0  0  0  0
   -2.1434    0.4125    0.0000 C   0  0  0  0  0  0  0  0  0  0  0  0
   -2.1434   -0.4125    0.0000 C   0  0  0  0  0  0  0  0  0  0  0  0
    5.5926   -3.5776    0.0000 C   0  0  0  0  0  0  0  0  0  0  0  0
    5.1801   -4.2920    0.0000 C   0  0  0  0  0  0  0  0  0  0  0  0
    3.5724    0.4125    0.0000 C   0  0  0  0  0  0  0  0  0  0  0  0
    2.8579    0.8250    0.0000 C   0  0  0  0  0  0  0  0  0  0  0  0
   -0.7144    2.0625    0.0000 C   0  0  0  0  0  0  0  0  0  0  0  0
   -0.7144    2.8875    0.0000 C   0  0  0  0  0  0  0  0  0  0  0  0
   -1.4290    3.3000    0.0000 C   0  0  0  0  0  0  0  0  0  0  0  0
   -2.1434    4.5375    0.0000 C   0  0  0  0  0  0  0  0  0  0  0  0
   -2.1434    5.3625    0.0000 C   0  0  0  0  0  0  0  0  0  0  0  0
   -0.7144    4.5375    0.0000 C   0  0  0  0  0  0  0  0  0  0  0  0
   -1.4290    5.7750    0.0000 C   0  0  0  0  0  0  0  0  0  0  0  0
   -0.7144    5.3625    0.0000 C   0  0  0  0  0  0  0  0  0  0  0  0
   -2.9684    5.3625    0.0000 C   0  0  0  0  0  0  0  0  0  0  0  0
   -2.5559    6.0770    0.0000 C   0  0  0  0  0  0  0  0  0  0  0  0
    0.6504   -1.3772    0.0000 H   0  0  0  0  0  0  0  0  0  0  0  0
    5.0875   -1.2330    0.0000 H   0  0  0  0  0  0  0  0  0  0  0  0
    5.0875    1.2330    0.0000 H   0  0  0  0  0  0  0  0  0  0  0  0
  1  5  2  0  0  0  0
  1  6  2  0  0  0  0
  1 13  1  0  0  0  0
  1 28  1  0  0  0  0
  2 20  2  0  0  0  0
  3 23  1  0  0  0  0
  3 29  1  0  0  0  0
  4 21  2  0  0  0  0
  7 27  2  0  0  0  0
  8 35  1  0  0  0  0
  8 41  1  0  0  0  0
  9 34  1  0  0  0  0
  9 58  1  0  0  0  0
 10 41  2  0  0  0  0
 17 11  1  1  0  0  0
 11 21  1  0  0  0  0
 12 22  1  0  0  0  0
 12 26  1  0  0  0  0
 12 27  1  0  0  0  0
 13 20  1  0  0  0  0
 14 29  2  0  0  0  0
 14 39  1  0  0  0  0
 15 30  1  0  0  0  0
 15 41  1  0  0  0  0
 16 60  1  0  0  0  0
 16 61  1  0  0  0  0
 16 63  1  0  0  0  0
 17 18  1  0  0  0  0
 17 19  1  0  0  0  0
 17 20  1  6  0  0  0
 18 19  1  0  0  0  0
 18 24  1  6  0  0  0
 22 21  1  6  0  0  0
 22 25  1  0  0  0  0
 23 25  1  0  0  0  0
 23 26  1  0  0  0  0
 23 68  1  6  0  0  0
 24 36  2  0  0  0  0
 30 27  1  1  0  0  0
 28 32  1  0  0  0  0
 28 33  1  0  0  0  0
 29 31  1  0  0  0  0
 30 40  1  0  0  0  0
 31 34  2  0  0  0  0
 31 42  1  0  0  0  0
 32 33  1  0  0  0  0
 34 38  1  0  0  0  0
 35 37  1  0  0  0  0
 35 43  1  0  0  0  0
 35 69  1  6  0  0  0
 37 44  1  0  0  0  0
 37 45  1  0  0  0  0
 37 70  1  1  0  0  0
 38 39  1  0  0  0  0
 38 46  2  0  0  0  0
 39 47  2  0  0  0  0
 40 48  1  0  0  0  0
 40 49  1  0  0  0  0
 42 51  1  0  0  0  0
 43 50  1  0  0  0  0
 44 50  1  0  0  0  0
 45 56  1  0  0  0  0
 46 52  1  0  0  0  0
 47 53  1  0  0  0  0
 48 54  1  0  0  0  0
 49 55  1  0  0  0  0
 51 57  2  0  0  0  0
 52 53  2  0  0  0  0
 54 55  1  0  0  0  0
 56 57  1  0  0  0  0
 58 59  1  0  0  0  0
 59 60  1  0  0  0  0
 61 62  1  0  0  0  0
 62 64  1  0  0  0  0
 62 66  1  0  0  0  0
 62 67  1  0  0  0  0
 63 65  1  0  0  0  0
 64 65  1  0  0  0  0
M  END
> <PUBCHEM_COMPOUND_ID_TYPE>
0

> <PUBCHEM_TOTAL_CHARGE>
0

> <PUBCHEM_SUBSTANCE_ID>
310930070

> <PUBCHEM_SUBSTANCE_VERSION>
1

> <PUBCHEM_EXT_DATASOURCE_NAME>
4488

> <PUBCHEM_EXT_DATASOURCE_REGID>
SCHEMBL16107313

> <PUBCHEM_SUBSTANCE_COMMENT>
InChI=1S/C51H70N6O9S/c1-4-35-30-51(35,48(60)55-67(62,63)37-23-24-37)54-45(58)41-29-36-31-57(41)47(59)43(34-16-8-9-17-34)53-49(61)66-42-22-12-18-33(42)15-6-5-7-20-39-44(38-19-10-11-21-40(38)52-46(39)65-36)64-28-14-27-56-26-13-25-50(2,3)32-56/h4-5,7,10-11,19,21,33-37,41-43H,1,6,8-9,12-18,20,22-32H2,2-3H3,(H,53,61)(H,54,58)(H,55,60)/b7-5+/t33-,35-,36-,41+,42-,43+,51-/m1/s1
InChIKey=ZPDKFLICJOHITA-CYEFDBMJSA-N

> <PUBCHEM_SUBSTANCE_SYNONYM>
SCHEMBL16107313

> <PUBCHEM_XREF_EXT_ID>
SCHEMBL16107313

> <PUBCHEM_EXT_DATASOURCE_URL>
https://www.surechembl.org/

> <PUBCHEM_EXT_SUBSTANCE_URL>
https://www.surechembl.org/chemical/SCHEMBL16107313

> <PUBCHEM_CID_ASSOCIATIONS>
117599309  1

> <PUBCHEM_COORDINATE_TYPE>
1
3

> <PUBCHEM_BONDANNOTATIONS>
17  11  5
17  20  6
18  24  6
22  21  6
23  68  6
30  27  5
35  69  6
37  70  5

$$$$
