310932994
  -OEChem-07211613022D

 27 30  0     1  0  0  0  0  0999 V2000
    2.4718   -0.7349    0.0000 O   0  0  0  0  0  0  0  0  0  0  0  0
    6.2130   -3.8414    0.0000 N   0  0  0  0  0  0  0  0  0  0  0  0
    6.1128   -3.0397    0.0000 N   0  0  0  0  0  0  0  0  0  0  0  0
    3.6744   -2.8727    0.0000 N   0  0  0  0  0  0  0  0  0  0  0  0
    4.6431   -6.1462    0.0000 N   0  0  0  0  0  0  0  0  0  0  0  0
    3.7078   -1.4363    0.0000 N   0  0  0  0  0  0  0  0  0  0  0  0
    5.4447   -6.3132    0.0000 N   0  0  0  0  0  0  0  0  0  0  0  0
    2.4718   -2.1378    0.0000 N   0  0  0  0  0  0  0  0  0  0  0  0
    4.9103   -3.6075    0.0000 C   0  0  0  0  0  0  0  0  0  0  0  0
    5.4781   -4.1754    0.0000 C   0  0  0  0  0  0  0  0  0  0  0  0
    5.3445   -2.8727    0.0000 C   0  0  0  0  0  0  0  0  0  0  0  0
    5.3111   -4.9771    0.0000 C   0  0  0  0  0  0  0  0  0  0  0  0
    4.9103   -2.1378    0.0000 C   0  0  0  0  0  0  0  0  0  0  0  0
    4.0752   -3.5741    0.0000 C   0  0  0  0  0  0  0  0  0  0  0  0
    4.1086   -2.1378    0.0000 C   0  0  0  0  0  0  0  0  0  0  0  0
    4.5762   -5.3445    0.0000 C   0  0  0  0  0  0  0  0  0  0  0  0
    5.8456   -5.6117    0.0000 C   0  0  0  0  0  0  0  0  0  0  0  0
    2.8727   -1.4363    0.0000 C   0  0  0  0  0  0  0  0  0  0  0  0
    1.6702   -2.1378    0.0000 C   0  0  3  0  0  0  0  0  0  0  0  0
    1.2359   -1.4363    0.0000 C   0  0  0  0  0  0  0  0  0  0  0  0
    4.0418   -6.6807    0.0000 C   0  0  0  0  0  0  0  0  0  0  0  0
    0.4009   -1.4363    0.0000 C   0  0  0  0  0  0  0  0  0  0  0  0
    1.6368   -0.7015    0.0000 C   0  0  0  0  0  0  0  0  0  0  0  0
    1.2359   -2.8727    0.0000 C   0  0  0  0  0  0  0  0  0  0  0  0
    0.0000   -0.7015    0.0000 C   0  0  0  0  0  0  0  0  0  0  0  0
    1.2359    0.0000    0.0000 C   0  0  0  0  0  0  0  0  0  0  0  0
    0.4342    0.0000    0.0000 C   0  0  0  0  0  0  0  0  0  0  0  0
  1 18  2  0  0  0  0
  2  3  1  0  0  0  0
  2 10  2  0  0  0  0
  3 11  1  0  0  0  0
  4 14  1  0  0  0  0
  4 15  2  0  0  0  0
  5  7  1  0  0  0  0
  5 16  1  0  0  0  0
  5 21  1  0  0  0  0
  6 15  1  0  0  0  0
  6 18  1  0  0  0  0
  7 17  2  0  0  0  0
  8 18  1  0  0  0  0
  8 19  1  0  0  0  0
  9 10  1  0  0  0  0
  9 11  1  0  0  0  0
  9 14  2  0  0  0  0
 10 12  1  0  0  0  0
 11 13  2  0  0  0  0
 12 16  2  0  0  0  0
 12 17  1  0  0  0  0
 13 15  1  0  0  0  0
 19 20  1  0  0  0  0
 19 24  1  6  0  0  0
 20 22  2  0  0  0  0
 20 23  1  0  0  0  0
 22 25  1  0  0  0  0
 23 26  2  0  0  0  0
 25 27  2  0  0  0  0
 26 27  1  0  0  0  0
M  END
> <PUBCHEM_COMPOUND_ID_TYPE>
0

> <PUBCHEM_TOTAL_CHARGE>
0

> <PUBCHEM_SUBSTANCE_ID>
310932994

> <PUBCHEM_SUBSTANCE_VERSION>
1

> <PUBCHEM_EXT_DATASOURCE_NAME>
4488

> <PUBCHEM_EXT_DATASOURCE_REGID>
SCHEMBL16110391

> <PUBCHEM_SUBSTANCE_COMMENT>
InChI=1S/C19H19N7O/c1-12(13-6-4-3-5-7-13)22-19(27)23-17-8-16-15(10-20-17)18(25-24-16)14-9-21-26(2)11-14/h3-12H,1-2H3,(H,24,25)(H2,20,22,23,27)/t12-/m1/s1
InChIKey=PAYQJEUBORBBLK-GFCCVEGCSA-N

> <PUBCHEM_SUBSTANCE_SYNONYM>
SCHEMBL16110391

> <PUBCHEM_XREF_EXT_ID>
SCHEMBL16110391

> <PUBCHEM_EXT_DATASOURCE_URL>
https://www.surechembl.org/

> <PUBCHEM_EXT_SUBSTANCE_URL>
https://www.surechembl.org/chemical/SCHEMBL16110391

> <PUBCHEM_CID_ASSOCIATIONS>
71555465  1

> <PUBCHEM_COORDINATE_TYPE>
1
3

> <PUBCHEM_BONDANNOTATIONS>
19  24  6

$$$$
