310941621
  -OEChem-07211613022D

 27 30  0     0  0  0  0  0  0999 V2000
   -3.3330   -1.7396    0.0000 Cl  0  0  0  0  0  0  0  0  0  0  0  0
    0.4678    1.7396    0.0000 S   0  0  0  0  0  0  0  0  0  0  0  0
   -1.8858   -0.9063    0.0000 O   0  0  0  0  0  0  0  0  0  0  0  0
   -0.4532   -0.9063    0.0000 O   0  0  0  0  0  0  0  0  0  0  0  0
    0.7163   -0.4093    0.0000 O   0  0  0  0  0  0  0  0  0  0  0  0
    0.3070    0.4093    0.0000 N   0  0  0  0  0  0  0  0  0  0  0  0
    1.6957    0.9502    0.0000 N   0  0  0  0  0  0  0  0  0  0  0  0
   -1.1548    0.3362    0.0000 C   0  0  0  0  0  0  0  0  0  0  0  0
   -0.4532    0.7601    0.0000 C   0  0  0  0  0  0  0  0  0  0  0  0
   -2.6167   -0.4824    0.0000 C   0  0  0  0  0  0  0  0  0  0  0  0
   -2.6021    0.3362    0.0000 C   0  0  0  0  0  0  0  0  0  0  0  0
   -1.1987   -0.4824    0.0000 C   0  0  0  0  0  0  0  0  0  0  0  0
   -1.9004    0.7455    0.0000 C   0  0  0  0  0  0  0  0  0  0  0  0
    0.8625    1.0379    0.0000 C   0  0  0  0  0  0  0  0  0  0  0  0
   -3.3183   -0.9063    0.0000 C   0  0  0  0  0  0  0  0  0  0  0  0
   -0.3508    1.5788    0.0000 C   0  0  0  0  0  0  0  0  0  0  0  0
   -3.3037    0.7455    0.0000 C   0  0  0  0  0  0  0  0  0  0  0  0
    2.0319    0.2047    0.0000 C   0  0  0  0  0  0  0  0  0  0  0  0
   -4.0346   -0.4970    0.0000 C   0  0  0  0  0  0  0  0  0  0  0  0
    1.5495   -0.4824    0.0000 C   0  0  0  0  0  0  0  0  0  0  0  0
   -4.0346    0.3362    0.0000 C   0  0  0  0  0  0  0  0  0  0  0  0
    2.8652    0.0877    0.0000 C   0  0  0  0  0  0  0  0  0  0  0  0
    3.1868   -0.6578    0.0000 C   0  0  0  0  0  0  0  0  0  0  0  0
    1.8858   -1.2279    0.0000 C   0  0  0  0  0  0  0  0  0  0  0  0
    2.7190   -1.3156    0.0000 C   0  0  0  0  0  0  0  0  0  0  0  0
    4.0346   -0.7602    0.0000 C   0  0  0  0  0  0  0  0  0  0  0  0
    0.2485   -1.0964    0.0000 C   0  0  0  0  0  0  0  0  0  0  0  0
  1 15  1  0  0  0  0
  2 14  1  0  0  0  0
  2 16  1  0  0  0  0
  3 10  1  0  0  0  0
  3 12  1  0  0  0  0
  4 12  2  0  0  0  0
  5 20  1  0  0  0  0
  5 27  1  0  0  0  0
  6  9  1  0  0  0  0
  6 14  2  0  0  0  0
  7 14  1  0  0  0  0
  7 18  1  0  0  0  0
  8  9  1  0  0  0  0
  8 12  1  0  0  0  0
  8 13  2  0  0  0  0
  9 16  2  0  0  0  0
 10 11  1  0  0  0  0
 10 15  2  0  0  0  0
 11 13  1  0  0  0  0
 11 17  2  0  0  0  0
 15 19  1  0  0  0  0
 17 21  1  0  0  0  0
 18 20  2  0  0  0  0
 18 22  1  0  0  0  0
 19 21  2  0  0  0  0
 20 24  1  0  0  0  0
 22 23  2  0  0  0  0
 23 25  1  0  0  0  0
 23 26  1  0  0  0  0
 24 25  2  0  0  0  0
M  END
> <PUBCHEM_COMPOUND_ID_TYPE>
0

> <PUBCHEM_TOTAL_CHARGE>
0

> <PUBCHEM_SUBSTANCE_ID>
310941621

> <PUBCHEM_SUBSTANCE_VERSION>
1

> <PUBCHEM_EXT_DATASOURCE_NAME>
4488

> <PUBCHEM_EXT_DATASOURCE_REGID>
SCHEMBL16119652

> <PUBCHEM_SUBSTANCE_COMMENT>
InChI=1S/C20H15ClN2O3S/c1-11-6-7-17(25-2)15(8-11)22-20-23-16(10-27-20)13-9-12-4-3-5-14(21)18(12)26-19(13)24/h3-10H,1-2H3,(H,22,23)
InChIKey=HWSJTRXBXZFKRC-UHFFFAOYSA-N

> <PUBCHEM_SUBSTANCE_SYNONYM>
SCHEMBL16119652

> <PUBCHEM_XREF_EXT_ID>
SCHEMBL16119652

> <PUBCHEM_EXT_DATASOURCE_URL>
https://www.surechembl.org/

> <PUBCHEM_EXT_SUBSTANCE_URL>
https://www.surechembl.org/chemical/SCHEMBL16119652

> <PUBCHEM_CID_ASSOCIATIONS>
117608410  1

> <PUBCHEM_COORDINATE_TYPE>
1
3

$$$$
