310930021
  -OEChem-07211613022D

 23 24  0     0  0  0  0  0  0999 V2000
   -0.4370    0.7106    0.0000 O   0  0  0  0  0  0  0  0  0  0  0  0
    0.7145   -3.8951    0.0000 O   0  0  0  0  0  0  0  0  0  0  0  0
   -1.8095    1.2375    0.0000 O   0  0  0  0  0  0  0  0  0  0  0  0
    0.0000   -5.1326    0.0000 O   0  0  0  0  0  0  0  0  0  0  0  0
   -2.8579   -4.3076    0.0000 O   0  0  0  0  0  0  0  0  0  0  0  0
   -0.7145   -3.8951    0.0000 N   0  0  0  0  0  0  0  0  0  0  0  0
   -1.4290   -0.1826    0.0000 C   0  0  0  0  0  0  0  0  0  0  0  0
   -0.7145   -0.5951    0.0000 C   0  0  0  0  0  0  0  0  0  0  0  0
   -1.2574    0.6244    0.0000 C   0  0  0  0  0  0  0  0  0  0  0  0
   -1.4290   -1.8326    0.0000 C   0  0  0  0  0  0  0  0  0  0  0  0
   -0.7145   -1.4201    0.0000 C   0  0  0  0  0  0  0  0  0  0  0  0
   -0.1014   -0.0430    0.0000 C   0  0  0  0  0  0  0  0  0  0  0  0
   -2.1434   -0.5951    0.0000 C   0  0  0  0  0  0  0  0  0  0  0  0
   -2.1434   -1.4201    0.0000 C   0  0  0  0  0  0  0  0  0  0  0  0
   -1.4290   -2.6576    0.0000 C   0  0  0  0  0  0  0  0  0  0  0  0
    0.0000   -4.3076    0.0000 C   0  0  0  0  0  0  0  0  0  0  0  0
   -0.7145   -3.0701    0.0000 C   0  0  0  0  0  0  0  0  0  0  0  0
    1.4290   -4.3076    0.0000 C   0  0  0  0  0  0  0  0  0  0  0  0
   -1.4290   -4.3076    0.0000 C   0  0  0  0  0  0  0  0  0  0  0  0
    2.1434   -3.8951    0.0000 C   0  0  0  0  0  0  0  0  0  0  0  0
    2.1434   -4.7201    0.0000 C   0  0  0  0  0  0  0  0  0  0  0  0
    1.4290   -5.1326    0.0000 C   0  0  0  0  0  0  0  0  0  0  0  0
   -2.1434   -3.8951    0.0000 C   0  0  0  0  0  0  0  0  0  0  0  0
  1  9  1  0  0  0  0
  1 12  1  0  0  0  0
  2 16  1  0  0  0  0
  2 18  1  0  0  0  0
  3  9  2  0  0  0  0
  4 16  2  0  0  0  0
  5 23  2  0  0  0  0
  6 16  1  0  0  0  0
  6 17  1  0  0  0  0
  6 19  1  0  0  0  0
  7  8  1  0  0  0  0
  7  9  1  0  0  0  0
  7 13  2  0  0  0  0
  8 11  2  0  0  0  0
  8 12  1  0  0  0  0
 10 11  1  0  0  0  0
 10 14  2  0  0  0  0
 10 15  1  0  0  0  0
 13 14  1  0  0  0  0
 15 17  1  0  0  0  0
 18 20  1  0  0  0  0
 18 21  1  0  0  0  0
 18 22  1  0  0  0  0
 19 23  1  0  0  0  0
M  END
> <PUBCHEM_COMPOUND_ID_TYPE>
0

> <PUBCHEM_TOTAL_CHARGE>
0

> <PUBCHEM_SUBSTANCE_ID>
310930021

> <PUBCHEM_SUBSTANCE_VERSION>
1

> <PUBCHEM_EXT_DATASOURCE_NAME>
4488

> <PUBCHEM_EXT_DATASOURCE_REGID>
SCHEMBL16107260

> <PUBCHEM_SUBSTANCE_COMMENT>
InChI=1S/C17H21NO5/c1-17(2,3)23-16(21)18(8-9-19)7-6-12-4-5-14-13(10-12)11-22-15(14)20/h4-5,9-10H,6-8,11H2,1-3H3
InChIKey=VQUGBBOJDGATPU-UHFFFAOYSA-N

> <PUBCHEM_SUBSTANCE_SYNONYM>
SCHEMBL16107260

> <PUBCHEM_XREF_EXT_ID>
SCHEMBL16107260

> <PUBCHEM_EXT_DATASOURCE_URL>
https://www.surechembl.org/

> <PUBCHEM_EXT_SUBSTANCE_URL>
https://www.surechembl.org/chemical/SCHEMBL16107260

> <PUBCHEM_CID_ASSOCIATIONS>
117599267  1

> <PUBCHEM_COORDINATE_TYPE>
1
3

$$$$
