310937124
  -OEChem-07211613022D

 19 20  0     1  0  0  0  0  0999 V2000
   13.3122   -0.6375    0.0000 O   0  0  0  0  0  0  0  0  0  0  0  0
   14.2054    0.3545    0.0000 O   0  0  0  0  0  0  0  0  0  0  0  0
   11.4316    0.0000    0.0000 O   0  0  0  0  0  0  0  0  0  0  0  0
    9.2882    0.4125    0.0000 O   0  0  0  0  0  0  0  0  0  0  0  0
    8.5736   -0.8250    0.0000 O   0  0  0  0  0  0  0  0  0  0  0  0
   13.3748    2.1582    0.0000 N   0  0  0  0  0  0  0  0  0  0  0  0
   12.8997    0.0770    0.0000 C   0  0  3  0  0  0  0  0  0  0  0  0
   13.4518    0.6901    0.0000 C   0  0  3  0  0  0  0  0  0  0  0  0
   12.1460    0.4125    0.0000 C   0  0  3  0  0  0  0  0  0  0  0  0
   14.1192   -0.4660    0.0000 C   0  0  0  0  0  0  0  0  0  0  0  0
   13.0393    1.4045    0.0000 C   0  0  3  0  0  0  0  0  0  0  0  0
   12.2322    1.2330    0.0000 C   0  0  0  0  0  0  0  0  0  0  0  0
   14.3741   -1.2506    0.0000 C   0  0  0  0  0  0  0  0  0  0  0  0
   14.9262   -0.6375    0.0000 C   0  0  0  0  0  0  0  0  0  0  0  0
   10.7171    0.4125    0.0000 C   0  0  0  0  0  0  0  0  0  0  0  0
   10.0026    0.0000    0.0000 C   0  0  0  0  0  0  0  0  0  0  0  0
    8.5736    0.0000    0.0000 C   0  0  0  0  0  0  0  0  0  0  0  0
    7.8592    0.4125    0.0000 C   0  0  0  0  0  0  0  0  0  0  0  0
   12.3477   -0.5361    0.0000 H   0  0  0  0  0  0  0  0  0  0  0  0
  1  7  1  0  0  0  0
  1 10  1  0  0  0  0
  2  8  1  0  0  0  0
  2 10  1  0  0  0  0
  9  3  1  1  0  0  0
  3 15  1  0  0  0  0
  4 16  1  0  0  0  0
  4 17  1  0  0  0  0
  5 17  2  0  0  0  0
  6 11  1  0  0  0  0
  7  8  1  0  0  0  0
  7  9  1  0  0  0  0
  7 19  1  1  0  0  0
  8 11  1  0  0  0  0
  9 12  1  0  0  0  0
 10 13  1  0  0  0  0
 10 14  1  0  0  0  0
 11 12  1  0  0  0  0
 15 16  1  0  0  0  0
 17 18  1  0  0  0  0
M  END
> <PUBCHEM_COMPOUND_ID_TYPE>
0

> <PUBCHEM_TOTAL_CHARGE>
0

> <PUBCHEM_SUBSTANCE_ID>
310937124

> <PUBCHEM_SUBSTANCE_VERSION>
1

> <PUBCHEM_EXT_DATASOURCE_NAME>
4488

> <PUBCHEM_EXT_DATASOURCE_REGID>
SCHEMBL16114843

> <PUBCHEM_SUBSTANCE_COMMENT>
InChI=1S/C12H21NO5/c1-7(14)15-4-5-16-9-6-8(13)10-11(9)18-12(2,3)17-10/h8-11H,4-6,13H2,1-3H3/t8?,9-,10?,11+/m0/s1
InChIKey=WTDZXIXAXZOYFL-QONHTCSSSA-N

> <PUBCHEM_SUBSTANCE_SYNONYM>
SCHEMBL16114843

> <PUBCHEM_XREF_EXT_ID>
SCHEMBL16114843

> <PUBCHEM_EXT_DATASOURCE_URL>
https://www.surechembl.org/

> <PUBCHEM_EXT_SUBSTANCE_URL>
https://www.surechembl.org/chemical/SCHEMBL16114843

> <PUBCHEM_CID_ASSOCIATIONS>
117604952  1

> <PUBCHEM_COORDINATE_TYPE>
1
3

> <PUBCHEM_BONDANNOTATIONS>
9  3  5
7  19  5

$$$$
