310942971
  -OEChem-07211613022D

 33 36  0     1  0  0  0  0  0999 V2000
    2.4868   -0.4802    0.0000 F   0  0  0  0  0  0  0  0  0  0  0  0
    3.2929   -0.6517    0.0000 F   0  0  0  0  0  0  0  0  0  0  0  0
    3.5501   -1.4406    0.0000 F   0  0  0  0  0  0  0  0  0  0  0  0
   -2.8470   -1.3892    0.0000 O   0  0  0  0  0  0  0  0  0  0  0  0
   -1.3720    3.1385    0.0000 O   0  0  0  0  0  0  0  0  0  0  0  0
   -1.3206    0.9433    0.0000 N   0  0  0  0  0  0  0  0  0  0  0  0
   -0.8232    0.2744    0.0000 N   0  0  0  0  0  0  0  0  0  0  0  0
   -1.0633   -1.1834    0.0000 N   0  0  0  0  0  0  0  0  0  0  0  0
   -3.5501   -0.1543    0.0000 N   0  0  0  0  0  0  0  0  0  0  0  0
    2.4353   -2.6755    0.0000 N   0  0  0  0  0  0  0  0  0  0  0  0
    0.8575    0.6689    0.0000 N   0  0  0  0  0  0  0  0  0  0  0  0
   -2.1267   -0.1372    0.0000 C   0  0  0  0  0  0  0  0  0  0  0  0
   -2.1095    0.6860    0.0000 C   0  0  0  0  0  0  0  0  0  0  0  0
   -1.3377   -0.3944    0.0000 C   0  0  0  0  0  0  0  0  0  0  0  0
   -1.0633    1.7322    0.0000 C   0  0  3  0  0  0  0  0  0  0  0  0
   -2.8299   -0.5489    0.0000 C   0  0  0  0  0  0  0  0  0  0  0  0
   -2.8470    1.0976    0.0000 C   0  0  0  0  0  0  0  0  0  0  0  0
   -0.2744    1.9037    0.0000 C   0  0  3  0  0  0  0  0  0  0  0  0
   -0.2744   -1.3549    0.0000 C   0  0  0  0  0  0  0  0  0  0  0  0
   -3.5501    0.7032    0.0000 C   0  0  0  0  0  0  0  0  0  0  0  0
   -1.6293    2.3324    0.0000 C   0  0  0  0  0  0  0  0  0  0  0  0
    2.1610   -1.8866    0.0000 C   0  0  3  0  0  0  0  0  0  0  0  0
    1.3377   -1.6979    0.0000 C   0  0  0  0  0  0  0  0  0  0  0  0
    2.7270   -1.2348    0.0000 C   0  0  0  0  0  0  0  0  0  0  0  0
    0.0000   -2.1438    0.0000 C   0  0  0  0  0  0  0  0  0  0  0  0
    0.2915   -0.7546    0.0000 C   0  0  0  0  0  0  0  0  0  0  0  0
    0.0000    2.6927    0.0000 C   0  0  0  0  0  0  0  0  0  0  0  0
    0.8061   -2.3153    0.0000 C   0  0  0  0  0  0  0  0  0  0  0  0
    1.0976   -0.9261    0.0000 C   0  0  0  0  0  0  0  0  0  0  0  0
    0.2744    1.2691    0.0000 C   0  0  0  0  0  0  0  0  0  0  0  0
   -0.5489    3.2929    0.0000 C   0  0  0  0  0  0  0  0  0  0  0  0
    1.8523   -3.2929    0.0000 C   0  0  0  0  0  0  0  0  0  0  0  0
    3.2586   -2.8299    0.0000 C   0  0  0  0  0  0  0  0  0  0  0  0
  1 24  1  0  0  0  0
  2 24  1  0  0  0  0
  3 24  1  0  0  0  0
  4 16  2  0  0  0  0
  5 21  1  0  0  0  0
  5 31  1  0  0  0  0
  6  7  1  0  0  0  0
  6 13  1  0  0  0  0
 15  6  1  1  0  0  0
  7 14  2  0  0  0  0
  8 14  1  0  0  0  0
  8 19  1  0  0  0  0
  9 16  1  0  0  0  0
  9 20  1  0  0  0  0
 10 22  1  0  0  0  0
 10 32  1  0  0  0  0
 10 33  1  0  0  0  0
 11 30  3  0  0  0  0
 12 13  2  0  0  0  0
 12 14  1  0  0  0  0
 12 16  1  0  0  0  0
 13 17  1  0  0  0  0
 15 18  1  0  0  0  0
 15 21  1  0  0  0  0
 17 20  2  0  0  0  0
 18 27  1  0  0  0  0
 18 30  1  6  0  0  0
 19 25  2  0  0  0  0
 19 26  1  0  0  0  0
 22 23  1  0  0  0  0
 22 24  1  0  0  0  0
 23 28  2  0  0  0  0
 23 29  1  0  0  0  0
 25 28  1  0  0  0  0
 26 29  2  0  0  0  0
 27 31  1  0  0  0  0
M  END
> <PUBCHEM_COMPOUND_ID_TYPE>
0

> <PUBCHEM_TOTAL_CHARGE>
0

> <PUBCHEM_SUBSTANCE_ID>
310942971

> <PUBCHEM_SUBSTANCE_VERSION>
1

> <PUBCHEM_EXT_DATASOURCE_NAME>
4488

> <PUBCHEM_EXT_DATASOURCE_REGID>
SCHEMBL16121030

> <PUBCHEM_SUBSTANCE_COMMENT>
InChI=1S/C22H23F3N6O2/c1-30(2)19(22(23,24)25)13-3-5-15(6-4-13)28-20-18-16(7-9-27-21(18)32)31(29-20)17-12-33-10-8-14(17)11-26/h3-7,9,14,17,19H,8,10,12H2,1-2H3,(H,27,32)(H,28,29)/t14-,17+,19?/m1/s1
InChIKey=DATDNGCXBBJWGO-DMRSJCKZSA-N

> <PUBCHEM_SUBSTANCE_SYNONYM>
SCHEMBL16121030

> <PUBCHEM_XREF_EXT_ID>
SCHEMBL16121030

> <PUBCHEM_EXT_DATASOURCE_URL>
https://www.surechembl.org/

> <PUBCHEM_EXT_SUBSTANCE_URL>
https://www.surechembl.org/chemical/SCHEMBL16121030

> <PUBCHEM_CID_ASSOCIATIONS>
117609433  1

> <PUBCHEM_COORDINATE_TYPE>
1
3

> <PUBCHEM_BONDANNOTATIONS>
18  30  6
15  6  5

$$$$
