310944808
  -OEChem-07211613022D

 15 15  0     0  0  0  0  0  0999 V2000
   -2.5778    0.4080    0.0000 Cl  0  0  0  0  0  0  0  0  0  0  0  0
   -2.5778   -1.2363    0.0000 Cl  0  0  0  0  0  0  0  0  0  0  0  0
    0.4389   -1.2363    0.0000 O   0  0  0  0  0  0  0  0  0  0  0  0
    1.8607    1.2363    0.0000 O   0  0  0  0  0  0  0  0  0  0  0  0
    2.5778    0.0000    0.0000 O   0  0  0  0  0  0  0  0  0  0  0  0
    0.4513    0.4204    0.0000 N   0  0  0  0  0  0  0  0  0  0  0  0
   -0.2659    0.0124    0.0000 C   0  0  0  0  0  0  0  0  0  0  0  0
   -0.2782   -0.8160    0.0000 C   0  0  0  0  0  0  0  0  0  0  0  0
   -1.6877    0.0000    0.0000 C   0  0  0  0  0  0  0  0  0  0  0  0
   -1.7000   -0.8160    0.0000 C   0  0  0  0  0  0  0  0  0  0  0  0
   -0.9706    0.4080    0.0000 C   0  0  0  0  0  0  0  0  0  0  0  0
   -0.9829   -1.2240    0.0000 C   0  0  0  0  0  0  0  0  0  0  0  0
    1.1684    0.0000    0.0000 C   0  0  0  0  0  0  0  0  0  0  0  0
    1.8607    0.3956    0.0000 C   0  0  0  0  0  0  0  0  0  0  0  0
    1.1684   -0.8284    0.0000 C   0  0  0  0  0  0  0  0  0  0  0  0
  1  9  1  0  0  0  0
  2 10  1  0  0  0  0
  3  8  1  0  0  0  0
  3 15  1  0  0  0  0
  4 14  2  0  0  0  0
  5 14  1  0  0  0  0
  6  7  1  0  0  0  0
  6 13  1  0  0  0  0
  7  8  1  0  0  0  0
  7 11  2  0  0  0  0
  8 12  2  0  0  0  0
  9 10  2  0  0  0  0
  9 11  1  0  0  0  0
 10 12  1  0  0  0  0
 13 14  1  0  0  0  0
M  END
> <PUBCHEM_COMPOUND_ID_TYPE>
0

> <PUBCHEM_TOTAL_CHARGE>
0

> <PUBCHEM_SUBSTANCE_ID>
310944808

> <PUBCHEM_SUBSTANCE_VERSION>
1

> <PUBCHEM_EXT_DATASOURCE_NAME>
4488

> <PUBCHEM_EXT_DATASOURCE_REGID>
SCHEMBL16122887

> <PUBCHEM_SUBSTANCE_COMMENT>
InChI=1S/C9H9Cl2NO3/c1-15-8-3-6(11)5(10)2-7(8)12-4-9(13)14/h2-3,12H,4H2,1H3,(H,13,14)
InChIKey=GTIIIPGYXFDIJA-UHFFFAOYSA-N

> <PUBCHEM_SUBSTANCE_SYNONYM>
SCHEMBL16122887

> <PUBCHEM_XREF_EXT_ID>
SCHEMBL16122887

> <PUBCHEM_EXT_DATASOURCE_URL>
https://www.surechembl.org/

> <PUBCHEM_EXT_SUBSTANCE_URL>
https://www.surechembl.org/chemical/SCHEMBL16122887

> <PUBCHEM_CID_ASSOCIATIONS>
117611019  1

> <PUBCHEM_COORDINATE_TYPE>
1
3

$$$$
