310947831
  -OEChem-07211613022D

 23 23  0     1  0  0  0  0  0999 V2000
    3.0908   -1.6012    0.0000 S   0  0  0  0  0  0  0  0  0  0  0  0
    2.2590   -1.6012    0.0000 O   0  0  0  0  0  0  0  0  0  0  0  0
   -0.3476   -1.6012    0.0000 O   0  0  0  0  0  0  0  0  0  0  0  0
   -0.4841    1.8744    0.0000 O   0  0  0  0  0  0  0  0  0  0  0  0
   -1.9115    1.0426    0.0000 O   0  0  0  0  0  0  0  0  0  0  0  0
    3.0783   -0.7821    0.0000 O   0  0  0  0  0  0  0  0  0  0  0  0
    3.0783   -2.4329    0.0000 O   0  0  0  0  0  0  0  0  0  0  0  0
    3.9100   -1.6012    0.0000 O   0  0  0  0  0  0  0  0  0  0  0  0
    0.2607   -0.1862    0.0000 N   0  0  0  0  0  0  0  0  0  0  0  0
    1.6881   -1.0178    0.0000 N   0  0  0  0  0  0  0  0  0  0  0  0
   -1.1791    0.6330    0.0000 N   0  0  0  0  0  0  0  0  0  0  0  0
   -3.9100    0.4593    0.0000 N   0  0  0  0  0  0  0  0  0  0  0  0
    0.2607    0.6330    0.0000 C   0  0  3  0  0  0  0  0  0  0  0  0
    0.2607   -0.9930    0.0000 C   0  0  0  0  0  0  0  0  0  0  0  0
   -0.5213    1.0426    0.0000 C   0  0  0  0  0  0  0  0  0  0  0  0
    0.9682   -0.6082    0.0000 C   0  0  0  0  0  0  0  0  0  0  0  0
    0.9558    1.0426    0.0000 C   0  0  0  0  0  0  0  0  0  0  0  0
    1.6633   -0.2110    0.0000 C   0  0  0  0  0  0  0  0  0  0  0  0
    1.6757    0.6330    0.0000 C   0  0  0  0  0  0  0  0  0  0  0  0
   -2.6066    0.6330    0.0000 C   0  0  0  0  0  0  0  0  0  0  0  0
   -3.3389    1.0551    0.0000 C   0  0  3  0  0  0  0  0  0  0  0  0
   -3.5500    1.8496    0.0000 C   0  0  0  0  0  0  0  0  0  0  0  0
   -2.9666    2.4329    0.0000 C   0  0  0  0  0  0  0  0  0  0  0  0
  1  2  1  0  0  0  0
  1  6  2  0  0  0  0
  1  7  2  0  0  0  0
  1  8  1  0  0  0  0
  2 10  1  0  0  0  0
  3 14  2  0  0  0  0
  4 15  2  0  0  0  0
  5 11  1  0  0  0  0
  5 20  1  0  0  0  0
  9 13  1  0  0  0  0
  9 14  1  0  0  0  0
  9 16  1  0  0  0  0
 10 14  1  0  0  0  0
 11 15  1  0  0  0  0
 12 21  1  0  0  0  0
 13 15  1  6  0  0  0
 13 17  1  0  0  0  0
 16 18  1  0  0  0  0
 17 19  1  0  0  0  0
 18 19  1  0  0  0  0
 20 21  1  0  0  0  0
 21 22  1  0  0  0  0
 22 23  1  0  0  0  0
M  END
> <PUBCHEM_COMPOUND_ID_TYPE>
0

> <PUBCHEM_TOTAL_CHARGE>
0

> <PUBCHEM_SUBSTANCE_ID>
310947831

> <PUBCHEM_SUBSTANCE_VERSION>
1

> <PUBCHEM_EXT_DATASOURCE_NAME>
4488

> <PUBCHEM_EXT_DATASOURCE_REGID>
SCHEMBL16126003

> <PUBCHEM_SUBSTANCE_COMMENT>
InChI=1S/C11H22N4O7S/c1-2-8(12)7-21-13-10(16)9-5-3-4-6-15(9)11(17)14-22-23(18,19)20/h8-9H,2-7,12H2,1H3,(H,13,16)(H,14,17)(H,18,19,20)/t8?,9-/m0/s1
InChIKey=KWPWDQWUGVIKJD-GKAPJAKFSA-N

> <PUBCHEM_SUBSTANCE_SYNONYM>
SCHEMBL16126003

> <PUBCHEM_XREF_EXT_ID>
SCHEMBL16126003

> <PUBCHEM_EXT_DATASOURCE_URL>
https://www.surechembl.org/

> <PUBCHEM_EXT_SUBSTANCE_URL>
https://www.surechembl.org/chemical/SCHEMBL16126003

> <PUBCHEM_CID_ASSOCIATIONS>
117613497  1

> <PUBCHEM_COORDINATE_TYPE>
1
3

> <PUBCHEM_BONDANNOTATIONS>
13  15  6

$$$$
