310931436
  -OEChem-07211613022D

 24 26  0     0  0  0  0  0  0999 V2000
    3.5323   -2.4674    0.0000 O   0  0  0  0  0  0  0  0  0  0  0  0
    2.8051   -0.4155    0.0000 O   0  0  0  0  0  0  0  0  0  0  0  0
    0.0000   -2.8570    0.0000 O   0  0  0  0  0  0  0  0  0  0  0  0
    7.7659   -1.6623    0.0000 N   0  0  0  0  0  0  0  0  0  0  0  0
    4.2336   -1.2467    0.0000 C   0  0  0  0  0  0  0  0  0  0  0  0
    3.5323   -1.6363    0.0000 C   0  0  0  0  0  0  0  0  0  0  0  0
    2.8051   -1.2467    0.0000 C   0  0  0  0  0  0  0  0  0  0  0  0
    5.6361   -1.2467    0.0000 C   0  0  0  0  0  0  0  0  0  0  0  0
    2.1298   -1.6363    0.0000 C   0  0  0  0  0  0  0  0  0  0  0  0
    4.9348   -1.6363    0.0000 C   0  0  0  0  0  0  0  0  0  0  0  0
    6.3633   -1.6363    0.0000 C   0  0  0  0  0  0  0  0  0  0  0  0
    4.2336   -0.4155    0.0000 C   0  0  0  0  0  0  0  0  0  0  0  0
    5.6621   -0.4155    0.0000 C   0  0  0  0  0  0  0  0  0  0  0  0
    2.1038   -2.4674    0.0000 C   0  0  0  0  0  0  0  0  0  0  0  0
    1.4025   -1.2467    0.0000 C   0  0  0  0  0  0  0  0  0  0  0  0
    4.9348    0.0000    0.0000 C   0  0  0  0  0  0  0  0  0  0  0  0
    0.7013   -2.4674    0.0000 C   0  0  0  0  0  0  0  0  0  0  0  0
    1.4025   -2.8830    0.0000 C   0  0  0  0  0  0  0  0  0  0  0  0
    0.7013   -1.6363    0.0000 C   0  0  0  0  0  0  0  0  0  0  0  0
    7.0646   -1.2727    0.0000 C   0  0  0  0  0  0  0  0  0  0  0  0
    6.3633   -2.4674    0.0000 C   0  0  0  0  0  0  0  0  0  0  0  0
    7.0646   -2.8830    0.0000 C   0  0  0  0  0  0  0  0  0  0  0  0
    7.7918   -2.4934    0.0000 C   0  0  0  0  0  0  0  0  0  0  0  0
    0.0000   -3.6882    0.0000 C   0  0  0  0  0  0  0  0  0  0  0  0
  1  6  2  0  0  0  0
  2  7  2  0  0  0  0
  3 17  1  0  0  0  0
  3 24  1  0  0  0  0
  4 20  1  0  0  0  0
  4 23  2  0  0  0  0
  5  6  1  0  0  0  0
  5 10  1  0  0  0  0
  5 12  2  0  0  0  0
  6  7  1  0  0  0  0
  7  9  1  0  0  0  0
  8 10  2  0  0  0  0
  8 11  1  0  0  0  0
  8 13  1  0  0  0  0
  9 14  2  0  0  0  0
  9 15  1  0  0  0  0
 11 20  2  0  0  0  0
 11 21  1  0  0  0  0
 12 16  1  0  0  0  0
 13 16  2  0  0  0  0
 14 18  1  0  0  0  0
 15 19  2  0  0  0  0
 17 18  2  0  0  0  0
 17 19  1  0  0  0  0
 21 22  2  0  0  0  0
 22 23  1  0  0  0  0
M  END
> <PUBCHEM_COMPOUND_ID_TYPE>
0

> <PUBCHEM_TOTAL_CHARGE>
0

> <PUBCHEM_SUBSTANCE_ID>
310931436

> <PUBCHEM_SUBSTANCE_VERSION>
1

> <PUBCHEM_EXT_DATASOURCE_NAME>
4488

> <PUBCHEM_EXT_DATASOURCE_REGID>
SCHEMBL16108761

> <PUBCHEM_SUBSTANCE_COMMENT>
InChI=1S/C20H15NO3/c1-24-18-9-7-14(8-10-18)19(22)20(23)16-5-2-4-15(12-16)17-6-3-11-21-13-17/h2-13H,1H3
InChIKey=HSMPVQKPIBRZDF-UHFFFAOYSA-N

> <PUBCHEM_SUBSTANCE_SYNONYM>
SCHEMBL16108761

> <PUBCHEM_XREF_EXT_ID>
SCHEMBL16108761

> <PUBCHEM_EXT_DATASOURCE_URL>
https://www.surechembl.org/

> <PUBCHEM_EXT_SUBSTANCE_URL>
https://www.surechembl.org/chemical/SCHEMBL16108761

> <PUBCHEM_CID_ASSOCIATIONS>
117600213  1

> <PUBCHEM_COORDINATE_TYPE>
1
3

$$$$
