310938705
  -OEChem-07211613022D

 66 78  0     0  0  0  0  0  0999 V2000
    2.9923   -9.6863    0.0000 N   0  0  0  0  0  0  0  0  0  0  0  0
    4.0722  -13.3288    0.0000 N   0  0  0  0  0  0  0  0  0  0  0  0
    4.0722  -10.4709    0.0000 N   0  0  0  0  0  0  0  0  0  0  0  0
    2.9923  -14.1134    0.0000 N   0  0  0  0  0  0  0  0  0  0  0  0
    3.2472  -10.4709    0.0000 C   0  0  0  0  0  0  0  0  0  0  0  0
    3.2472  -13.3288    0.0000 C   0  0  0  0  0  0  0  0  0  0  0  0
    2.8347  -11.1854    0.0000 C   0  0  0  0  0  0  0  0  0  0  0  0
    2.8347  -12.6143    0.0000 C   0  0  0  0  0  0  0  0  0  0  0  0
    3.6597   -9.2014    0.0000 C   0  0  0  0  0  0  0  0  0  0  0  0
    4.3272  -14.1134    0.0000 C   0  0  0  0  0  0  0  0  0  0  0  0
   -4.1778  -10.4709    0.0000 C   0  0  0  0  0  0  0  0  0  0  0  0
   -4.5903   -9.7565    0.0000 C   0  0  0  0  0  0  0  0  0  0  0  0
    4.3272   -9.6863    0.0000 C   0  0  0  0  0  0  0  0  0  0  0  0
    3.6597  -14.5983    0.0000 C   0  0  0  0  0  0  0  0  0  0  0  0
   -4.5903  -11.1854    0.0000 C   0  0  0  0  0  0  0  0  0  0  0  0
    3.2472  -11.8999    0.0000 C   0  0  0  0  0  0  0  0  0  0  0  0
   -5.4153   -9.7565    0.0000 C   0  0  0  0  0  0  0  0  0  0  0  0
   -5.4153  -11.1854    0.0000 C   0  0  0  0  0  0  0  0  0  0  0  0
   -5.8278  -10.4709    0.0000 C   0  0  0  0  0  0  0  0  0  0  0  0
    1.5972  -11.8999    0.0000 C   0  0  0  0  0  0  0  0  0  0  0  0
    2.0097  -11.1854    0.0000 C   0  0  0  0  0  0  0  0  0  0  0  0
    2.0097  -12.6143    0.0000 C   0  0  0  0  0  0  0  0  0  0  0  0
    2.1954   -9.4728    0.0000 C   0  0  0  0  0  0  0  0  0  0  0  0
    4.6556  -12.7454    0.0000 C   0  0  0  0  0  0  0  0  0  0  0  0
    0.7722  -11.8999    0.0000 C   0  0  0  0  0  0  0  0  0  0  0  0
   -3.3528  -10.4709    0.0000 C   0  0  0  0  0  0  0  0  0  0  0  0
   -2.9403   -9.7565    0.0000 C   0  0  0  0  0  0  0  0  0  0  0  0
   -4.1778   -9.0420    0.0000 C   0  0  0  0  0  0  0  0  0  0  0  0
    3.7460   -8.3809    0.0000 C   0  0  0  0  0  0  0  0  0  0  0  0
    5.0808  -14.4490    0.0000 C   0  0  0  0  0  0  0  0  0  0  0  0
    5.0808   -9.3507    0.0000 C   0  0  0  0  0  0  0  0  0  0  0  0
    3.7460  -15.4188    0.0000 C   0  0  0  0  0  0  0  0  0  0  0  0
   -4.1778  -11.8999    0.0000 C   0  0  0  0  0  0  0  0  0  0  0  0
   -5.8278   -9.0420    0.0000 C   0  0  0  0  0  0  0  0  0  0  0  0
   -5.8278  -11.8999    0.0000 C   0  0  0  0  0  0  0  0  0  0  0  0
   -6.6528  -10.4709    0.0000 C   0  0  0  0  0  0  0  0  0  0  0  0
   -2.1153   -9.7565    0.0000 C   0  0  0  0  0  0  0  0  0  0  0  0
   -3.3528   -9.0420    0.0000 C   0  0  0  0  0  0  0  0  0  0  0  0
    0.3597  -11.1854    0.0000 C   0  0  0  0  0  0  0  0  0  0  0  0
   -0.4653  -11.1854    0.0000 C   0  0  0  0  0  0  0  0  0  0  0  0
    1.9819   -8.6759    0.0000 C   0  0  0  0  0  0  0  0  0  0  0  0
    1.6120  -10.0561    0.0000 C   0  0  0  0  0  0  0  0  0  0  0  0
    5.4525  -12.9590    0.0000 C   0  0  0  0  0  0  0  0  0  0  0  0
    4.4421  -11.9486    0.0000 C   0  0  0  0  0  0  0  0  0  0  0  0
   -0.8778  -10.4709    0.0000 C   0  0  0  0  0  0  0  0  0  0  0  0
    4.4996   -8.0453    0.0000 C   0  0  0  0  0  0  0  0  0  0  0  0
    5.1671  -15.2695    0.0000 C   0  0  0  0  0  0  0  0  0  0  0  0
    0.3597  -12.6143    0.0000 C   0  0  0  0  0  0  0  0  0  0  0  0
    5.1671   -8.5303    0.0000 C   0  0  0  0  0  0  0  0  0  0  0  0
    4.4996  -15.7544    0.0000 C   0  0  0  0  0  0  0  0  0  0  0  0
   -1.7028  -10.4709    0.0000 C   0  0  0  0  0  0  0  0  0  0  0  0
   -4.5903  -12.6143    0.0000 C   0  0  0  0  0  0  0  0  0  0  0  0
   -6.6528   -9.0420    0.0000 C   0  0  0  0  0  0  0  0  0  0  0  0
   -5.4153  -12.6143    0.0000 C   0  0  0  0  0  0  0  0  0  0  0  0
   -7.0653   -9.7565    0.0000 C   0  0  0  0  0  0  0  0  0  0  0  0
   -1.7028   -9.0420    0.0000 C   0  0  0  0  0  0  0  0  0  0  0  0
   -0.8778  -11.8999    0.0000 C   0  0  0  0  0  0  0  0  0  0  0  0
   -0.4653  -12.6143    0.0000 C   0  0  0  0  0  0  0  0  0  0  0  0
    1.1850   -8.4624    0.0000 C   0  0  0  0  0  0  0  0  0  0  0  0
    0.8151   -9.8426    0.0000 C   0  0  0  0  0  0  0  0  0  0  0  0
    6.0358  -12.3756    0.0000 C   0  0  0  0  0  0  0  0  0  0  0  0
    5.0254  -11.3652    0.0000 C   0  0  0  0  0  0  0  0  0  0  0  0
   -0.4653   -9.7565    0.0000 C   0  0  0  0  0  0  0  0  0  0  0  0
   -0.8778   -9.0420    0.0000 C   0  0  0  0  0  0  0  0  0  0  0  0
    0.6016   -9.0457    0.0000 C   0  0  0  0  0  0  0  0  0  0  0  0
    5.8223  -11.5787    0.0000 C   0  0  0  0  0  0  0  0  0  0  0  0
  1  5  1  0  0  0  0
  1  9  1  0  0  0  0
  1 23  1  0  0  0  0
  2  6  1  0  0  0  0
  2 10  1  0  0  0  0
  2 24  1  0  0  0  0
  3  5  2  0  0  0  0
  3 13  1  0  0  0  0
  4  6  2  0  0  0  0
  4 14  1  0  0  0  0
  5  7  1  0  0  0  0
  6  8  1  0  0  0  0
  7 16  2  0  0  0  0
  7 21  1  0  0  0  0
  8 16  1  0  0  0  0
  8 22  2  0  0  0  0
  9 13  2  0  0  0  0
  9 29  1  0  0  0  0
 10 14  2  0  0  0  0
 10 30  1  0  0  0  0
 11 12  1  0  0  0  0
 11 15  2  0  0  0  0
 11 26  1  0  0  0  0
 12 17  2  0  0  0  0
 12 28  1  0  0  0  0
 13 31  1  0  0  0  0
 14 32  1  0  0  0  0
 15 18  1  0  0  0  0
 15 33  1  0  0  0  0
 17 19  1  0  0  0  0
 17 34  1  0  0  0  0
 18 19  2  0  0  0  0
 18 35  1  0  0  0  0
 19 36  1  0  0  0  0
 20 21  2  0  0  0  0
 20 22  1  0  0  0  0
 20 25  1  0  0  0  0
 23 41  2  0  0  0  0
 23 42  1  0  0  0  0
 24 43  2  0  0  0  0
 24 44  1  0  0  0  0
 25 39  1  0  0  0  0
 25 48  2  0  0  0  0
 26 27  2  0  0  0  0
 27 37  1  0  0  0  0
 27 38  1  0  0  0  0
 28 38  2  0  0  0  0
 29 46  2  0  0  0  0
 30 47  2  0  0  0  0
 31 49  2  0  0  0  0
 32 50  2  0  0  0  0
 33 52  2  0  0  0  0
 34 53  2  0  0  0  0
 35 54  2  0  0  0  0
 36 55  2  0  0  0  0
 37 51  2  0  0  0  0
 37 56  1  0  0  0  0
 39 40  2  0  0  0  0
 40 45  1  0  0  0  0
 40 57  1  0  0  0  0
 41 59  1  0  0  0  0
 42 60  2  0  0  0  0
 43 61  1  0  0  0  0
 44 62  2  0  0  0  0
 45 51  1  0  0  0  0
 45 63  2  0  0  0  0
 46 49  1  0  0  0  0
 47 50  1  0  0  0  0
 48 58  1  0  0  0  0
 52 54  1  0  0  0  0
 53 55  1  0  0  0  0
 56 64  2  0  0  0  0
 57 58  2  0  0  0  0
 59 65  2  0  0  0  0
 60 65  1  0  0  0  0
 61 66  2  0  0  0  0
 62 66  1  0  0  0  0
 63 64  1  0  0  0  0
M  END
> <PUBCHEM_COMPOUND_ID_TYPE>
0

> <PUBCHEM_TOTAL_CHARGE>
0

> <PUBCHEM_SUBSTANCE_ID>
310938705

> <PUBCHEM_SUBSTANCE_VERSION>
1

> <PUBCHEM_EXT_DATASOURCE_NAME>
4488

> <PUBCHEM_EXT_DATASOURCE_REGID>
SCHEMBL16116619

> <PUBCHEM_SUBSTANCE_COMMENT>
InChI=1S/C62H40N4/c1-3-21-49(22-4-1)65-59-31-13-11-29-57(59)63-61(65)47-37-46(38-48(39-47)62-64-58-30-12-14-32-60(58)66(62)50-23-5-2-6-24-50)44-20-16-18-42(36-44)41-17-15-19-43(35-41)45-33-34-55-53-27-8-7-25-51(53)52-26-9-10-28-54(52)56(55)40-45/h1-40H
InChIKey=QVSVEYFYKPQVCE-UHFFFAOYSA-N

> <PUBCHEM_SUBSTANCE_SYNONYM>
SCHEMBL16116619

> <PUBCHEM_XREF_EXT_ID>
SCHEMBL16116619

> <PUBCHEM_EXT_DATASOURCE_URL>
https://www.surechembl.org/

> <PUBCHEM_EXT_SUBSTANCE_URL>
https://www.surechembl.org/chemical/SCHEMBL16116619

> <PUBCHEM_CID_ASSOCIATIONS>
117606134  1

> <PUBCHEM_COORDINATE_TYPE>
1
3

$$$$
