310934599
  -OEChem-07211613022D

 24 25  0     0  0  0  0  0  0999 V2000
    2.8816   -2.9032    0.0000 O   0  0  0  0  0  0  0  0  0  0  0  0
    4.3331   -2.9032    0.0000 O   0  0  0  0  0  0  0  0  0  0  0  0
    0.0000   -2.9249    0.0000 O   0  0  0  0  0  0  0  0  0  0  0  0
    5.7631   -0.4117    0.0000 O   0  0  0  0  0  0  0  0  0  0  0  0
    3.5965   -1.6683    0.0000 O   0  0  0  0  0  0  0  0  0  0  0  0
    2.8599   -0.4117    0.0000 O   0  0  0  0  0  0  0  0  0  0  0  0
    6.4997   -4.1598    0.0000 O   0  0  0  0  0  0  0  0  0  0  0  0
    2.1666   -2.4916    0.0000 C   0  0  0  0  0  0  0  0  0  0  0  0
    5.0481   -2.4916    0.0000 C   0  0  0  0  0  0  0  0  0  0  0  0
    2.1449   -1.6683    0.0000 C   0  0  0  0  0  0  0  0  0  0  0  0
    5.7631   -2.9032    0.0000 C   0  0  0  0  0  0  0  0  0  0  0  0
    3.5965   -2.4916    0.0000 C   0  0  0  0  0  0  0  0  0  0  0  0
    1.4299   -2.9032    0.0000 C   0  0  0  0  0  0  0  0  0  0  0  0
    5.0481   -1.6466    0.0000 C   0  0  0  0  0  0  0  0  0  0  0  0
    0.7150   -2.5132    0.0000 C   0  0  0  0  0  0  0  0  0  0  0  0
    5.7631   -1.2350    0.0000 C   0  0  0  0  0  0  0  0  0  0  0  0
    1.4299   -1.2566    0.0000 C   0  0  0  0  0  0  0  0  0  0  0  0
    6.4781   -2.4916    0.0000 C   0  0  0  0  0  0  0  0  0  0  0  0
    0.7150   -1.6683    0.0000 C   0  0  0  0  0  0  0  0  0  0  0  0
    6.4997   -1.6683    0.0000 C   0  0  0  0  0  0  0  0  0  0  0  0
    2.8599   -1.2350    0.0000 C   0  0  0  0  0  0  0  0  0  0  0  0
    5.7631   -3.7265    0.0000 C   0  0  0  0  0  0  0  0  0  0  0  0
    0.0000   -3.7482    0.0000 C   0  0  0  0  0  0  0  0  0  0  0  0
    5.0481    0.0000    0.0000 C   0  0  0  0  0  0  0  0  0  0  0  0
  1  8  1  0  0  0  0
  1 12  1  0  0  0  0
  2  9  1  0  0  0  0
  2 12  1  0  0  0  0
  3 15  1  0  0  0  0
  3 23  1  0  0  0  0
  4 16  1  0  0  0  0
  4 24  1  0  0  0  0
  5 12  2  0  0  0  0
  6 21  1  0  0  0  0
  7 22  1  0  0  0  0
  8 10  1  0  0  0  0
  8 13  2  0  0  0  0
  9 11  1  0  0  0  0
  9 14  2  0  0  0  0
 10 17  2  0  0  0  0
 10 21  1  0  0  0  0
 11 18  2  0  0  0  0
 11 22  1  0  0  0  0
 13 15  1  0  0  0  0
 14 16  1  0  0  0  0
 15 19  2  0  0  0  0
 16 20  2  0  0  0  0
 17 19  1  0  0  0  0
 18 20  1  0  0  0  0
M  END
> <PUBCHEM_COMPOUND_ID_TYPE>
0

> <PUBCHEM_TOTAL_CHARGE>
0

> <PUBCHEM_SUBSTANCE_ID>
310934599

> <PUBCHEM_SUBSTANCE_VERSION>
1

> <PUBCHEM_EXT_DATASOURCE_NAME>
4488

> <PUBCHEM_EXT_DATASOURCE_REGID>
SCHEMBL16112093

> <PUBCHEM_SUBSTANCE_COMMENT>
InChI=1S/C17H18O7/c1-21-13-5-3-11(9-18)15(7-13)23-17(20)24-16-8-14(22-2)6-4-12(16)10-19/h3-8,18-19H,9-10H2,1-2H3
InChIKey=KQBRRDHABVIGTJ-UHFFFAOYSA-N

> <PUBCHEM_SUBSTANCE_SYNONYM>
SCHEMBL16112093

> <PUBCHEM_XREF_EXT_ID>
SCHEMBL16112093

> <PUBCHEM_EXT_DATASOURCE_URL>
https://www.surechembl.org/

> <PUBCHEM_EXT_SUBSTANCE_URL>
https://www.surechembl.org/chemical/SCHEMBL16112093

> <PUBCHEM_CID_ASSOCIATIONS>
117602780  1

> <PUBCHEM_COORDINATE_TYPE>
1
3

$$$$
