310941695
  -OEChem-07211613022D

 25 27  0     0  0  0  0  0  0999 V2000
   -0.6841    1.0312    0.0000 S   0  0  0  0  0  0  0  0  0  0  0  0
    1.5696    2.2587    0.0000 O   0  0  0  0  0  0  0  0  0  0  0  0
    2.3040   -1.4438    0.0000 O   0  5  0  0  0  0  0  0  0  0  0  0
    3.0183   -0.2164    0.0000 O   0  0  0  0  0  0  0  0  0  0  0  0
    0.1408    2.2688    0.0000 N   0  0  0  0  0  0  0  0  0  0  0  0
   -1.3482    2.1883    0.0000 N   0  0  0  0  0  0  0  0  0  0  0  0
   -1.9216    1.5746    0.0000 N   0  0  0  0  0  0  0  0  0  0  0  0
    2.3040   -0.6086    0.0000 N   0  3  0  0  0  0  0  0  0  0  0  0
    0.8351   -2.2688    0.0000 N   0  0  0  0  0  0  0  0  0  0  0  0
    0.8451    1.0514    0.0000 C   0  0  0  0  0  0  0  0  0  0  0  0
    1.5595   -0.1761    0.0000 C   0  0  0  0  0  0  0  0  0  0  0  0
   -0.6036    1.8764    0.0000 C   0  0  0  0  0  0  0  0  0  0  0  0
   -1.5193    0.8904    0.0000 C   0  0  0  0  0  0  0  0  0  0  0  0
    0.8351    1.8663    0.0000 C   0  0  0  0  0  0  0  0  0  0  0  0
    0.8451   -0.5986    0.0000 C   0  0  0  0  0  0  0  0  0  0  0  0
    1.5595    0.6288    0.0000 C   0  0  0  0  0  0  0  0  0  0  0  0
   -1.8512    0.1258    0.0000 C   0  0  0  0  0  0  0  0  0  0  0  0
    0.1308    0.6389    0.0000 C   0  0  0  0  0  0  0  0  0  0  0  0
    0.1308   -0.1862    0.0000 C   0  0  0  0  0  0  0  0  0  0  0  0
   -2.6763    0.0452    0.0000 C   0  0  0  0  0  0  0  0  0  0  0  0
   -1.3784   -0.5182    0.0000 C   0  0  0  0  0  0  0  0  0  0  0  0
    0.8451   -1.4136    0.0000 C   0  0  0  0  0  0  0  0  0  0  0  0
   -3.0183   -0.7093    0.0000 C   0  0  0  0  0  0  0  0  0  0  0  0
   -1.7004   -1.2728    0.0000 C   0  0  0  0  0  0  0  0  0  0  0  0
   -2.5354   -1.3533    0.0000 C   0  0  0  0  0  0  0  0  0  0  0  0
  1 12  1  0  0  0  0
  1 13  1  0  0  0  0
  2 14  2  0  0  0  0
  3  8  1  0  0  0  0
  4  8  2  0  0  0  0
  5 12  1  0  0  0  0
  5 14  1  0  0  0  0
  6  7  1  0  0  0  0
  6 12  2  0  0  0  0
  7 13  2  0  0  0  0
  8 11  1  0  0  0  0
  9 22  3  0  0  0  0
 10 14  1  0  0  0  0
 10 16  1  0  0  0  0
 10 18  2  0  0  0  0
 11 15  1  0  0  0  0
 11 16  2  0  0  0  0
 13 17  1  0  0  0  0
 15 19  2  0  0  0  0
 15 22  1  0  0  0  0
 17 20  2  0  0  0  0
 17 21  1  0  0  0  0
 18 19  1  0  0  0  0
 20 23  1  0  0  0  0
 21 24  2  0  0  0  0
 23 25  2  0  0  0  0
 24 25  1  0  0  0  0
M  CHG  2   3  -1   8   1
M  END
> <PUBCHEM_COMPOUND_ID_TYPE>
0

> <PUBCHEM_TOTAL_CHARGE>
0

> <PUBCHEM_SUBSTANCE_ID>
310941695

> <PUBCHEM_SUBSTANCE_VERSION>
1

> <PUBCHEM_EXT_DATASOURCE_NAME>
4488

> <PUBCHEM_EXT_DATASOURCE_REGID>
SCHEMBL16119726

> <PUBCHEM_SUBSTANCE_COMMENT>
InChI=1S/C16H9N5O3S/c17-9-12-7-6-11(8-13(12)21(23)24)14(22)18-16-20-19-15(25-16)10-4-2-1-3-5-10/h1-8H,(H,18,20,22)
InChIKey=TZGXNPGXFGOHBJ-UHFFFAOYSA-N

> <PUBCHEM_SUBSTANCE_SYNONYM>
SCHEMBL16119726

> <PUBCHEM_XREF_EXT_ID>
SCHEMBL16119726

> <PUBCHEM_EXT_DATASOURCE_URL>
https://www.surechembl.org/

> <PUBCHEM_EXT_SUBSTANCE_URL>
https://www.surechembl.org/chemical/SCHEMBL16119726

> <PUBCHEM_CID_ASSOCIATIONS>
117608468  1

> <PUBCHEM_COORDINATE_TYPE>
1
3

$$$$
