310932069
  -OEChem-07211613022D

 31 34  0     1  0  0  0  0  0999 V2000
    5.2839   -2.0043    0.0000 O   0  0  0  0  0  0  0  0  0  0  0  0
    1.1236   -3.7048    0.0000 O   0  0  0  0  0  0  0  0  0  0  0  0
    4.8892   -3.4012    0.0000 N   0  0  0  0  0  0  0  0  0  0  0  0
    5.3143   -4.1300    0.0000 N   0  0  0  0  0  0  0  0  0  0  0  0
    1.2754   -2.2775    0.0000 N   0  0  0  0  0  0  0  0  0  0  0  0
    3.6137   -3.9782    0.0000 N   0  0  0  0  0  0  0  0  0  0  0  0
    0.6377   -0.7592    0.0000 N   0  0  3  0  0  0  0  0  0  0  0  0
    9.1102   -0.6377    0.0000 N   0  0  0  0  0  0  0  0  0  0  0  0
    6.2253   -3.1278    0.0000 C   0  0  0  0  0  0  0  0  0  0  0  0
    5.4358   -2.7938    0.0000 C   0  0  0  0  0  0  0  0  0  0  0  0
    4.0692   -3.3100    0.0000 C   0  0  0  0  0  0  0  0  0  0  0  0
    6.9541   -2.7027    0.0000 C   0  0  0  0  0  0  0  0  0  0  0  0
    6.1342   -3.9478    0.0000 C   0  0  0  0  0  0  0  0  0  0  0  0
    2.4597   -3.1582    0.0000 C   0  0  0  0  0  0  0  0  0  0  0  0
    6.9541   -1.8828    0.0000 C   0  0  0  0  0  0  0  0  0  0  0  0
    1.6095   -3.0367    0.0000 C   0  0  0  0  0  0  0  0  0  0  0  0
    3.7656   -2.5509    0.0000 C   0  0  0  0  0  0  0  0  0  0  0  0
    2.7635   -3.9174    0.0000 C   0  0  0  0  0  0  0  0  0  0  0  0
    2.9153   -2.4901    0.0000 C   0  0  0  0  0  0  0  0  0  0  0  0
    7.6526   -3.1278    0.0000 C   0  0  0  0  0  0  0  0  0  0  0  0
    0.4555   -2.1865    0.0000 C   0  0  3  0  0  0  0  0  0  0  0  0
    7.6526   -1.4576    0.0000 C   0  0  0  0  0  0  0  0  0  0  0  0
    8.3814   -1.8828    0.0000 C   0  0  0  0  0  0  0  0  0  0  0  0
    8.3814   -2.7027    0.0000 C   0  0  0  0  0  0  0  0  0  0  0  0
    1.7917   -1.6399    0.0000 C   0  0  0  0  0  0  0  0  0  0  0  0
    0.1518   -1.4273    0.0000 C   0  0  0  0  0  0  0  0  0  0  0  0
    1.4576   -0.8503    0.0000 C   0  0  0  0  0  0  0  0  0  0  0  0
    6.2253   -1.4576    0.0000 C   0  0  0  0  0  0  0  0  0  0  0  0
    9.1102   -1.4576    0.0000 C   0  0  0  0  0  0  0  0  0  0  0  0
    0.0000   -2.8545    0.0000 C   0  0  0  0  0  0  0  0  0  0  0  0
    0.3037    0.0000    0.0000 C   0  0  0  0  0  0  0  0  0  0  0  0
  1 10  1  0  0  0  0
  2 16  2  0  0  0  0
  3  4  1  0  0  0  0
  3 10  1  0  0  0  0
  3 11  1  0  0  0  0
  4 13  2  0  0  0  0
  5 16  1  0  0  0  0
  5 21  1  0  0  0  0
  5 25  1  0  0  0  0
  6 11  1  0  0  0  0
  6 18  2  0  0  0  0
  7 26  1  0  0  0  0
  7 27  1  0  0  0  0
  7 31  1  0  0  0  0
  8 29  3  0  0  0  0
  9 10  2  0  0  0  0
  9 12  1  0  0  0  0
  9 13  1  0  0  0  0
 11 17  2  0  0  0  0
 12 15  2  0  0  0  0
 12 20  1  0  0  0  0
 14 16  1  0  0  0  0
 14 18  1  0  0  0  0
 14 19  2  0  0  0  0
 15 22  1  0  0  0  0
 15 28  1  0  0  0  0
 17 19  1  0  0  0  0
 20 24  2  0  0  0  0
 21 26  1  0  0  0  0
 21 30  1  1  0  0  0
 22 23  2  0  0  0  0
 23 24  1  0  0  0  0
 23 29  1  0  0  0  0
 25 27  1  0  0  0  0
M  END
> <PUBCHEM_COMPOUND_ID_TYPE>
0

> <PUBCHEM_TOTAL_CHARGE>
0

> <PUBCHEM_SUBSTANCE_ID>
310932069

> <PUBCHEM_SUBSTANCE_VERSION>
1

> <PUBCHEM_EXT_DATASOURCE_NAME>
4488

> <PUBCHEM_EXT_DATASOURCE_REGID>
SCHEMBL16109416

> <PUBCHEM_SUBSTANCE_COMMENT>
InChI=1S/C23H24N6O2/c1-15-10-17(11-24)4-6-19(15)20-13-26-29(23(20)31)21-7-5-18(12-25-21)22(30)28-9-8-27(3)14-16(28)2/h4-7,10,12-13,16,31H,8-9,14H2,1-3H3/t16-/m0/s1
InChIKey=PADVJXMCJSCREC-INIZCTEOSA-N

> <PUBCHEM_SUBSTANCE_SYNONYM>
SCHEMBL16109416

> <PUBCHEM_XREF_EXT_ID>
SCHEMBL16109416

> <PUBCHEM_EXT_DATASOURCE_URL>
https://www.surechembl.org/

> <PUBCHEM_EXT_SUBSTANCE_URL>
https://www.surechembl.org/chemical/SCHEMBL16109416

> <PUBCHEM_CID_ASSOCIATIONS>
117600696  1

> <PUBCHEM_COORDINATE_TYPE>
1
3

> <PUBCHEM_BONDANNOTATIONS>
21  30  5

$$$$
