310934111
  -OEChem-07211613022D

 38 43  0     0  0  0  0  0  0999 V2000
    1.4697   -7.6018    0.0000 O   0  0  0  0  0  0  0  0  0  0  0  0
    0.0000   -7.6018    0.0000 O   0  0  0  0  0  0  0  0  0  0  0  0
    2.8887   -0.9123    0.0000 N   0  0  0  0  0  0  0  0  0  0  0  0
    3.0914   -0.1014    0.0000 N   0  0  0  0  0  0  0  0  0  0  0  0
    3.6489   -2.1792    0.0000 N   0  0  0  0  0  0  0  0  0  0  0  0
    6.6897   -1.2670    0.0000 N   0  0  0  0  0  0  0  0  0  0  0  0
    0.7095   -4.6624    0.0000 N   0  0  0  0  0  0  0  0  0  0  0  0
    0.7095   -6.3349    0.0000 N   0  0  0  0  0  0  0  0  0  0  0  0
    4.2570   -0.7602    0.0000 C   0  0  0  0  0  0  0  0  0  0  0  0
    3.6489   -1.3177    0.0000 C   0  0  0  0  0  0  0  0  0  0  0  0
    5.0679   -0.9123    0.0000 C   0  0  0  0  0  0  0  0  0  0  0  0
    5.3213   -1.7231    0.0000 C   0  0  0  0  0  0  0  0  0  0  0  0
    3.9023    0.0000    0.0000 C   0  0  0  0  0  0  0  0  0  0  0  0
    6.1829   -1.8751    0.0000 C   0  0  0  0  0  0  0  0  0  0  0  0
    2.1792   -1.3683    0.0000 C   0  0  0  0  0  0  0  0  0  0  0  0
    5.6254   -0.3041    0.0000 C   0  0  0  0  0  0  0  0  0  0  0  0
    2.1792   -2.1792    0.0000 C   0  0  0  0  0  0  0  0  0  0  0  0
    2.9394   -2.5846    0.0000 C   0  0  0  0  0  0  0  0  0  0  0  0
    4.7638   -2.3312    0.0000 C   0  0  0  0  0  0  0  0  0  0  0  0
    6.4362   -0.4561    0.0000 C   0  0  0  0  0  0  0  0  0  0  0  0
    6.4362   -2.6860    0.0000 C   0  0  0  0  0  0  0  0  0  0  0  0
    5.0679   -3.1421    0.0000 C   0  0  0  0  0  0  0  0  0  0  0  0
    1.4697   -2.5846    0.0000 C   0  0  0  0  0  0  0  0  0  0  0  0
    5.8788   -3.2941    0.0000 C   0  0  0  0  0  0  0  0  0  0  0  0
    1.4697   -3.3955    0.0000 C   0  0  0  0  0  0  0  0  0  0  0  0
    0.7095   -3.8516    0.0000 C   0  0  0  0  0  0  0  0  0  0  0  0
    0.7095   -7.1964    0.0000 C   0  0  0  0  0  0  0  0  0  0  0  0
    0.0000   -5.1186    0.0000 C   0  0  0  0  0  0  0  0  0  0  0  0
    1.4697   -5.1186    0.0000 C   0  0  0  0  0  0  0  0  0  0  0  0
    1.4697   -5.9294    0.0000 C   0  0  0  0  0  0  0  0  0  0  0  0
    0.0000   -5.9294    0.0000 C   0  0  0  0  0  0  0  0  0  0  0  0
    1.4697   -8.4634    0.0000 C   0  0  0  0  0  0  0  0  0  0  0  0
    2.1792   -8.8688    0.0000 C   0  0  0  0  0  0  0  0  0  0  0  0
    2.1792   -9.6797    0.0000 C   0  0  0  0  0  0  0  0  0  0  0  0
    2.8887   -8.4634    0.0000 C   0  0  0  0  0  0  0  0  0  0  0  0
    2.8887  -10.1358    0.0000 C   0  0  0  0  0  0  0  0  0  0  0  0
    3.6489   -8.8688    0.0000 C   0  0  0  0  0  0  0  0  0  0  0  0
    3.6489   -9.7304    0.0000 C   0  0  0  0  0  0  0  0  0  0  0  0
  1 27  1  0  0  0  0
  1 32  1  0  0  0  0
  2 27  2  0  0  0  0
  3  4  1  0  0  0  0
  3 10  1  0  0  0  0
  3 15  1  0  0  0  0
  4 13  2  0  0  0  0
  5 10  1  0  0  0  0
  5 18  2  0  0  0  0
  6 14  2  0  0  0  0
  6 20  1  0  0  0  0
  7 26  1  0  0  0  0
  7 28  1  0  0  0  0
  7 29  1  0  0  0  0
  8 27  1  0  0  0  0
  8 30  1  0  0  0  0
  8 31  1  0  0  0  0
  9 10  2  0  0  0  0
  9 11  1  0  0  0  0
  9 13  1  0  0  0  0
 11 12  2  0  0  0  0
 11 16  1  0  0  0  0
 12 14  1  0  0  0  0
 12 19  1  0  0  0  0
 14 21  1  0  0  0  0
 15 17  2  0  0  0  0
 16 20  2  0  0  0  0
 17 18  1  0  0  0  0
 17 23  1  0  0  0  0
 19 22  2  0  0  0  0
 21 24  2  0  0  0  0
 22 24  1  0  0  0  0
 23 25  3  0  0  0  0
 25 26  1  0  0  0  0
 28 31  1  0  0  0  0
 29 30  1  0  0  0  0
 32 33  1  0  0  0  0
 33 34  2  0  0  0  0
 33 35  1  0  0  0  0
 34 36  1  0  0  0  0
 35 37  2  0  0  0  0
 36 38  2  0  0  0  0
 37 38  1  0  0  0  0
M  END
> <PUBCHEM_COMPOUND_ID_TYPE>
0

> <PUBCHEM_TOTAL_CHARGE>
0

> <PUBCHEM_SUBSTANCE_ID>
310934111

> <PUBCHEM_SUBSTANCE_VERSION>
1

> <PUBCHEM_EXT_DATASOURCE_NAME>
4488

> <PUBCHEM_EXT_DATASOURCE_REGID>
SCHEMBL16111557

> <PUBCHEM_SUBSTANCE_COMMENT>
InChI=1S/C30H26N6O2/c37-30(38-22-23-7-2-1-3-8-23)35-17-15-34(16-18-35)14-6-9-24-19-32-29-27(20-33-36(29)21-24)25-12-13-31-28-11-5-4-10-26(25)28/h1-5,7-8,10-13,19-21H,14-18,22H2
InChIKey=LYLBPHGHEMVLQG-UHFFFAOYSA-N

> <PUBCHEM_SUBSTANCE_SYNONYM>
SCHEMBL16111557

> <PUBCHEM_XREF_EXT_ID>
SCHEMBL16111557

> <PUBCHEM_EXT_DATASOURCE_URL>
https://www.surechembl.org/

> <PUBCHEM_EXT_SUBSTANCE_URL>
https://www.surechembl.org/chemical/SCHEMBL16111557

> <PUBCHEM_CID_ASSOCIATIONS>
117602390  1

> <PUBCHEM_COORDINATE_TYPE>
1
3

$$$$
