310942669
  -OEChem-07211613022D

 59 63  0     1  0  0  0  0  0999 V2000
    4.3462    1.7086    0.0000 S   0  0  0  0  0  0  0  0  0  0  0  0
   -5.8839   -0.1922    0.0000 F   0  0  0  0  0  0  0  0  0  0  0  0
    0.6087   -2.1144    0.0000 F   0  0  0  0  0  0  0  0  0  0  0  0
   -5.8839   -3.5453    0.0000 F   0  0  0  0  0  0  0  0  0  0  0  0
   -3.4919    3.5880    0.0000 F   0  0  0  0  0  0  0  0  0  0  0  0
   -3.3424   -1.9649    0.0000 O   0  0  0  0  0  0  0  0  0  0  0  0
   -3.5560   -3.1823    0.0000 O   0  0  0  0  0  0  0  0  0  0  0  0
   -0.6300    1.0251    0.0000 O   0  0  0  0  0  0  0  0  0  0  0  0
    3.5560    0.1068    0.0000 O   0  0  0  0  0  0  0  0  0  0  0  0
   -5.8198    1.9222    0.0000 O   0  0  0  0  0  0  0  0  0  0  0  0
    1.4844    2.1571    0.0000 O   0  0  0  0  0  0  0  0  0  0  0  0
    6.6101    3.5026    0.0000 O   0  0  0  0  0  0  0  0  0  0  0  0
   -3.5347   -0.0427    0.0000 N   0  0  0  0  0  0  0  0  0  0  0  0
   -1.9542   -1.6018    0.0000 N   0  0  0  0  0  0  0  0  0  0  0  0
   -3.6841   -1.3668    0.0000 N   0  0  0  0  0  0  0  0  0  0  0  0
    0.3737    0.0000    0.0000 N   0  0  0  0  0  0  0  0  0  0  0  0
    2.3599    0.9611    0.0000 N   0  0  0  0  0  0  0  0  0  0  0  0
   -0.7155   -3.8016    0.0000 N   0  0  0  0  0  0  0  0  0  0  0  0
    5.9907    1.9435    0.0000 N   0  0  0  0  0  0  0  0  0  0  0  0
   -2.2959   -0.8329    0.0000 C   0  0  3  0  0  0  0  0  0  0  0  0
   -3.1288   -0.7261    0.0000 C   0  0  0  0  0  0  0  0  0  0  0  0
   -1.8260   -0.1281    0.0000 C   0  0  0  0  0  0  0  0  0  0  0  0
   -4.4530   -1.0038    0.0000 C   0  0  0  0  0  0  0  0  0  0  0  0
   -4.3462   -0.1922    0.0000 C   0  0  0  0  0  0  0  0  0  0  0  0
   -5.1791   -1.4309    0.0000 C   0  0  0  0  0  0  0  0  0  0  0  0
   -2.5522   -2.1784    0.0000 C   0  0  0  0  0  0  0  0  0  0  0  0
   -0.9931   -0.3631    0.0000 C   0  0  0  0  0  0  0  0  0  0  0  0
   -1.1426   -1.6872    0.0000 C   0  0  0  0  0  0  0  0  0  0  0  0
   -3.1929    0.7261    0.0000 C   0  0  0  0  0  0  0  0  0  0  0  0
   -5.8839   -1.0251    0.0000 C   0  0  0  0  0  0  0  0  0  0  0  0
   -2.4027    0.4272    0.0000 C   0  0  0  0  0  0  0  0  0  0  0  0
   -1.6125    0.6620    0.0000 C   0  0  0  0  0  0  0  0  0  0  0  0
   -0.8222   -2.4347    0.0000 C   0  0  3  0  0  0  0  0  0  0  0  0
   -3.7054    1.4309    0.0000 C   0  0  0  0  0  0  0  0  0  0  0  0
   -5.1791   -2.2853    0.0000 C   0  0  0  0  0  0  0  0  0  0  0  0
   -2.7658   -2.9686    0.0000 C   0  0  3  0  0  0  0  0  0  0  0  0
   -0.4165    0.2135    0.0000 C   0  0  0  0  0  0  0  0  0  0  0  0
   -0.0320   -2.6269    0.0000 C   0  0  3  0  0  0  0  0  0  0  0  0
   -5.8839   -2.6697    0.0000 C   0  0  0  0  0  0  0  0  0  0  0  0
   -6.6101   -1.4309    0.0000 C   0  0  0  0  0  0  0  0  0  0  0  0
   -1.2494   -3.1608    0.0000 C   0  0  0  0  0  0  0  0  0  0  0  0
   -3.3638    2.1571    0.0000 C   0  0  0  0  0  0  0  0  0  0  0  0
   -4.4957    1.3242    0.0000 C   0  0  0  0  0  0  0  0  0  0  0  0
   -6.6101   -2.2638    0.0000 C   0  0  0  0  0  0  0  0  0  0  0  0
    0.0107   -3.4812    0.0000 C   0  0  0  0  0  0  0  0  0  0  0  0
    3.1502    0.8543    0.0000 C   0  0  0  0  0  0  0  0  0  0  0  0
   -3.8550    2.8405    0.0000 C   0  0  0  0  0  0  0  0  0  0  0  0
   -4.9869    1.9862    0.0000 C   0  0  0  0  0  0  0  0  0  0  0  0
    3.5560    1.5805    0.0000 C   0  0  3  0  0  0  0  0  0  0  0  0
    2.2318    1.7727    0.0000 C   0  0  0  0  0  0  0  0  0  0  0  0
   -2.1892   -3.5667    0.0000 C   0  0  0  0  0  0  0  0  0  0  0  0
   -4.6665    2.7338    0.0000 C   0  0  0  0  0  0  0  0  0  0  0  0
    0.9504    0.5766    0.0000 C   0  0  0  0  0  0  0  0  0  0  0  0
    2.9153    2.1357    0.0000 C   0  0  0  0  0  0  0  0  0  0  0  0
    1.7620    0.3631    0.0000 C   0  0  0  0  0  0  0  0  0  0  0  0
    4.6665    2.4775    0.0000 C   0  0  0  0  0  0  0  0  0  0  0  0
    5.4781    2.6056    0.0000 C   0  0  3  0  0  0  0  0  0  0  0  0
    5.7772    3.3745    0.0000 C   0  0  0  0  0  0  0  0  0  0  0  0
    5.4354    3.8016    0.0000 C   0  0  0  0  0  0  0  0  0  0  0  0
  1 49  1  0  0  0  0
  1 56  1  0  0  0  0
  2 30  1  0  0  0  0
 38  3  1  1  0  0  0
  4 39  1  0  0  0  0
  5 47  1  0  0  0  0
  6 26  2  0  0  0  0
 36  7  1  6  0  0  0
  8 37  2  0  0  0  0
  9 46  2  0  0  0  0
 10 48  1  0  0  0  0
 11 50  2  0  0  0  0
 12 58  1  0  0  0  0
 13 21  1  0  0  0  0
 13 24  1  0  0  0  0
 13 29  1  0  0  0  0
 20 14  1  1  0  0  0
 14 26  1  0  0  0  0
 14 28  1  0  0  0  0
 15 21  2  0  0  0  0
 15 23  1  0  0  0  0
 16 37  1  0  0  0  0
 16 53  1  0  0  0  0
 17 46  1  0  0  0  0
 17 50  1  0  0  0  0
 17 55  1  0  0  0  0
 18 41  1  0  0  0  0
 18 45  1  0  0  0  0
 57 19  1  1  0  0  0
 20 21  1  0  0  0  0
 20 22  1  0  0  0  0
 22 27  1  0  0  0  0
 22 31  1  0  0  0  0
 22 32  1  0  0  0  0
 23 24  2  0  0  0  0
 23 25  1  0  0  0  0
 25 30  2  0  0  0  0
 25 35  1  0  0  0  0
 26 36  1  0  0  0  0
 27 37  1  0  0  0  0
 33 28  1  1  0  0  0
 29 34  1  0  0  0  0
 30 40  1  0  0  0  0
 33 38  1  0  0  0  0
 33 41  1  0  0  0  0
 34 42  1  0  0  0  0
 34 43  2  0  0  0  0
 35 39  2  0  0  0  0
 36 51  1  0  0  0  0
 38 45  1  0  0  0  0
 39 44  1  0  0  0  0
 40 44  2  0  0  0  0
 42 47  2  0  0  0  0
 43 48  1  0  0  0  0
 46 49  1  0  0  0  0
 47 52  1  0  0  0  0
 48 52  2  0  0  0  0
 49 54  1  0  0  0  0
 50 54  1  0  0  0  0
 53 55  1  0  0  0  0
 56 57  1  0  0  0  0
 57 58  1  0  0  0  0
 58 59  2  0  0  0  0
M  END
> <PUBCHEM_COMPOUND_ID_TYPE>
0

> <PUBCHEM_TOTAL_CHARGE>
0

> <PUBCHEM_SUBSTANCE_ID>
310942669

> <PUBCHEM_SUBSTANCE_VERSION>
1

> <PUBCHEM_EXT_DATASOURCE_NAME>
4488

> <PUBCHEM_EXT_DATASOURCE_REGID>
SCHEMBL16120715

> <PUBCHEM_SUBSTANCE_COMMENT>
InChI=1S/C40H49F4N7O7S/c1-21(52)31(45)20-59-33-13-35(56)50(39(33)58)8-7-47-34(55)14-40(3,4)36(51(38(57)22(2)53)18-24-15-46-16-30(24)44)37-48-32(28-12-25(41)5-6-29(28)43)19-49(37)17-23-9-26(42)11-27(54)10-23/h5-6,9-12,19,22,24,30-31,33,36,46,52-54H,1,7-8,13-18,20,45H2,2-4H3,(H,47,55)/t22-,24-,30-,31-,33?,36-/m0/s1
InChIKey=XXCSUUDGNGCHSX-NPCMCRIPSA-N

> <PUBCHEM_SUBSTANCE_SYNONYM>
SCHEMBL16120715

> <PUBCHEM_XREF_EXT_ID>
SCHEMBL16120715

> <PUBCHEM_EXT_DATASOURCE_URL>
https://www.surechembl.org/

> <PUBCHEM_EXT_SUBSTANCE_URL>
https://www.surechembl.org/chemical/SCHEMBL16120715

> <PUBCHEM_CID_ASSOCIATIONS>
117609198  1

> <PUBCHEM_COORDINATE_TYPE>
1
3

> <PUBCHEM_BONDANNOTATIONS>
20  14  5
57  19  5
33  28  5
38  3  5
36  7  6

$$$$
