310934821
  -OEChem-07211613022D

 35 39  0     0  0  0  0  0  0999 V2000
    0.0000   -4.4900    0.0000 Cl  0  0  0  0  0  0  0  0  0  0  0  0
    6.1461   -1.0673    0.0000 F   0  0  0  0  0  0  0  0  0  0  0  0
    3.5331   -4.8948    0.0000 O   0  0  0  0  0  0  0  0  0  0  0  0
    2.6498   -1.8770    0.0000 N   0  0  0  0  0  0  0  0  0  0  0  0
    1.5089   -1.2145    0.0000 N   0  0  0  0  0  0  0  0  0  0  0  0
    1.4353   -6.1461    0.0000 N   0  0  0  0  0  0  0  0  0  0  0  0
    2.8338   -6.1461    0.0000 N   0  0  0  0  0  0  0  0  0  0  0  0
    5.7044   -6.9558    0.0000 N   0  0  0  0  0  0  0  0  0  0  0  0
    2.0609   -2.4290    0.0000 C   0  0  0  0  0  0  0  0  0  0  0  0
    1.3249   -2.0242    0.0000 C   0  0  0  0  0  0  0  0  0  0  0  0
    1.3985   -3.6803    0.0000 C   0  0  0  0  0  0  0  0  0  0  0  0
    1.3985   -4.4900    0.0000 C   0  0  0  0  0  0  0  0  0  0  0  0
    2.0609   -3.2755    0.0000 C   0  0  0  0  0  0  0  0  0  0  0  0
    0.6257   -2.4658    0.0000 C   0  0  0  0  0  0  0  0  0  0  0  0
    0.6257   -3.2755    0.0000 C   0  0  0  0  0  0  0  0  0  0  0  0
    2.3186   -1.1041    0.0000 C   0  0  0  0  0  0  0  0  0  0  0  0
    0.6993   -4.9316    0.0000 C   0  0  0  0  0  0  0  0  0  0  0  0
    2.1346   -4.8948    0.0000 C   0  0  0  0  0  0  0  0  0  0  0  0
    3.4594   -2.0242    0.0000 C   0  0  0  0  0  0  0  0  0  0  0  0
    2.1346   -5.7412    0.0000 C   0  0  0  0  0  0  0  0  0  0  0  0
    3.9747   -1.3985    0.0000 C   0  0  0  0  0  0  0  0  0  0  0  0
    0.6993   -5.7412    0.0000 C   0  0  0  0  0  0  0  0  0  0  0  0
    4.7843   -1.5457    0.0000 C   0  0  0  0  0  0  0  0  0  0  0  0
    3.7171   -0.6257    0.0000 C   0  0  0  0  0  0  0  0  0  0  0  0
    3.5331   -5.7412    0.0000 C   0  0  0  0  0  0  0  0  0  0  0  0
    5.3364   -0.9200    0.0000 C   0  0  0  0  0  0  0  0  0  0  0  0
    4.2323    0.0000    0.0000 C   0  0  0  0  0  0  0  0  0  0  0  0
    5.0788   -0.1472    0.0000 C   0  0  0  0  0  0  0  0  0  0  0  0
    4.2691   -6.1461    0.0000 C   0  0  0  0  0  0  0  0  0  0  0  0
    4.9684   -5.7412    0.0000 C   0  0  0  0  0  0  0  0  0  0  0  0
    5.7044   -6.1461    0.0000 C   0  0  0  0  0  0  0  0  0  0  0  0
    6.4037   -5.7044    0.0000 C   0  0  0  0  0  0  0  0  0  0  0  0
    6.4037   -7.3606    0.0000 C   0  0  0  0  0  0  0  0  0  0  0  0
    7.1030   -6.1093    0.0000 C   0  0  0  0  0  0  0  0  0  0  0  0
    7.1397   -6.9189    0.0000 C   0  0  0  0  0  0  0  0  0  0  0  0
  1 17  1  0  0  0  0
  2 26  1  0  0  0  0
  3 25  2  0  0  0  0
  4  9  1  0  0  0  0
  4 16  1  0  0  0  0
  4 19  1  0  0  0  0
  5 10  1  0  0  0  0
  5 16  2  0  0  0  0
  6 20  1  0  0  0  0
  6 22  2  0  0  0  0
  7 20  1  0  0  0  0
  7 25  1  0  0  0  0
  8 31  2  0  0  0  0
  8 33  1  0  0  0  0
  9 10  2  0  0  0  0
  9 13  1  0  0  0  0
 10 14  1  0  0  0  0
 11 12  1  0  0  0  0
 11 13  2  0  0  0  0
 11 15  1  0  0  0  0
 12 17  2  0  0  0  0
 12 18  1  0  0  0  0
 14 15  2  0  0  0  0
 17 22  1  0  0  0  0
 18 20  2  0  0  0  0
 19 21  1  0  0  0  0
 21 23  2  0  0  0  0
 21 24  1  0  0  0  0
 23 26  1  0  0  0  0
 24 27  2  0  0  0  0
 25 29  1  0  0  0  0
 26 28  2  0  0  0  0
 27 28  1  0  0  0  0
 29 30  2  0  0  0  0
 30 31  1  0  0  0  0
 31 32  1  0  0  0  0
 32 34  2  0  0  0  0
 33 35  2  0  0  0  0
 34 35  1  0  0  0  0
M  END
> <PUBCHEM_COMPOUND_ID_TYPE>
0

> <PUBCHEM_TOTAL_CHARGE>
0

> <PUBCHEM_SUBSTANCE_ID>
310934821

> <PUBCHEM_SUBSTANCE_VERSION>
1

> <PUBCHEM_EXT_DATASOURCE_NAME>
4488

> <PUBCHEM_EXT_DATASOURCE_REGID>
SCHEMBL16112326

> <PUBCHEM_SUBSTANCE_COMMENT>
InChI=1S/C27H19ClFN5O/c28-23-15-31-26(33-27(35)10-8-21-6-1-2-11-30-21)14-22(23)19-7-9-24-25(13-19)34(17-32-24)16-18-4-3-5-20(29)12-18/h1-15,17H,16H2,(H,31,33,35)/b10-8+
InChIKey=YIAVEOJDIBYZOC-CSKARUKUSA-N

> <PUBCHEM_SUBSTANCE_SYNONYM>
SCHEMBL16112326

> <PUBCHEM_XREF_EXT_ID>
SCHEMBL16112326

> <PUBCHEM_EXT_DATASOURCE_URL>
https://www.surechembl.org/

> <PUBCHEM_EXT_SUBSTANCE_URL>
https://www.surechembl.org/chemical/SCHEMBL16112326

> <PUBCHEM_CID_ASSOCIATIONS>
117602965  1

> <PUBCHEM_COORDINATE_TYPE>
1
3

$$$$
