310934708
  -OEChem-07211613022D

 20 21  0     0  0  0  0  0  0999 V2000
    5.7624   -0.1516    0.0000 O   0  0  0  0  0  0  0  0  0  0  0  0
    1.4255   -4.9435    0.0000 O   0  0  0  0  0  0  0  0  0  0  0  0
    2.1533   -2.9115    0.0000 O   0  0  0  0  0  0  0  0  0  0  0  0
    0.7279   -3.7001    0.0000 O   0  0  0  0  0  0  0  0  0  0  0  0
    2.1533   -3.7304    0.0000 N   0  0  0  0  0  0  0  0  0  0  0  0
    4.9738   -1.2434    0.0000 C   0  0  0  0  0  0  0  0  0  0  0  0
    4.9738   -0.3943    0.0000 C   0  0  0  0  0  0  0  0  0  0  0  0
    3.5484   -1.2434    0.0000 C   0  0  0  0  0  0  0  0  0  0  0  0
    4.2460   -1.6377    0.0000 C   0  0  0  0  0  0  0  0  0  0  0  0
    4.2460    0.0000    0.0000 C   0  0  0  0  0  0  0  0  0  0  0  0
    5.7624   -1.4861    0.0000 C   0  0  0  0  0  0  0  0  0  0  0  0
    3.5484   -0.3943    0.0000 C   0  0  0  0  0  0  0  0  0  0  0  0
    6.2476   -0.8189    0.0000 C   0  0  0  0  0  0  0  0  0  0  0  0
    2.8509   -1.6680    0.0000 C   0  0  0  0  0  0  0  0  0  0  0  0
    0.6975   -5.3378    0.0000 C   0  0  0  0  0  0  0  0  0  0  0  0
    1.4255   -4.1247    0.0000 C   0  0  0  0  0  0  0  0  0  0  0  0
    2.8509   -2.4869    0.0000 C   0  0  0  0  0  0  0  0  0  0  0  0
    0.3033   -4.6403    0.0000 C   0  0  0  0  0  0  0  0  0  0  0  0
    1.1221   -6.0657    0.0000 C   0  0  0  0  0  0  0  0  0  0  0  0
    0.0000   -5.7624    0.0000 C   0  0  0  0  0  0  0  0  0  0  0  0
  1  7  1  0  0  0  0
  1 13  1  0  0  0  0
  2 15  1  0  0  0  0
  2 16  1  0  0  0  0
  3  5  1  0  0  0  0
  3 17  1  0  0  0  0
  4 16  2  0  0  0  0
  5 16  1  0  0  0  0
  6  7  2  0  0  0  0
  6  9  1  0  0  0  0
  6 11  1  0  0  0  0
  7 10  1  0  0  0  0
  8  9  2  0  0  0  0
  8 12  1  0  0  0  0
  8 14  1  0  0  0  0
 10 12  2  0  0  0  0
 11 13  1  0  0  0  0
 14 17  1  0  0  0  0
 15 18  1  0  0  0  0
 15 19  1  0  0  0  0
 15 20  1  0  0  0  0
M  END
> <PUBCHEM_COMPOUND_ID_TYPE>
0

> <PUBCHEM_TOTAL_CHARGE>
0

> <PUBCHEM_SUBSTANCE_ID>
310934708

> <PUBCHEM_SUBSTANCE_VERSION>
1

> <PUBCHEM_EXT_DATASOURCE_NAME>
4488

> <PUBCHEM_EXT_DATASOURCE_REGID>
SCHEMBL16112209

> <PUBCHEM_SUBSTANCE_COMMENT>
InChI=1S/C15H21NO4/c1-15(2,3)20-14(17)16-19-9-6-11-4-5-13-12(10-11)7-8-18-13/h4-5,10H,6-9H2,1-3H3,(H,16,17)
InChIKey=FHPKWCWKEIAINA-UHFFFAOYSA-N

> <PUBCHEM_SUBSTANCE_SYNONYM>
SCHEMBL16112209

> <PUBCHEM_XREF_EXT_ID>
SCHEMBL16112209

> <PUBCHEM_EXT_DATASOURCE_URL>
https://www.surechembl.org/

> <PUBCHEM_EXT_SUBSTANCE_URL>
https://www.surechembl.org/chemical/SCHEMBL16112209

> <PUBCHEM_CID_ASSOCIATIONS>
117602867  1

> <PUBCHEM_COORDINATE_TYPE>
1
3

$$$$
