310930751
  -OEChem-07211613022D

 32 35  0     0  0  0  0  0  0999 V2000
    4.9821   -3.5724    0.0000 S   0  0  0  0  0  0  0  0  0  0  0  0
    3.7446   -4.2868    0.0000 F   0  0  0  0  0  0  0  0  0  0  0  0
    3.3321   -5.0013    0.0000 F   0  0  0  0  0  0  0  0  0  0  0  0
    3.7446   -5.7158    0.0000 F   0  0  0  0  0  0  0  0  0  0  0  0
    4.2675   -3.9849    0.0000 O   0  0  0  0  0  0  0  0  0  0  0  0
    5.6965   -3.1599    0.0000 O   0  0  0  0  0  0  0  0  0  0  0  0
    2.5071    0.7145    0.0000 O   0  0  0  0  0  0  0  0  0  0  0  0
    0.7846    0.6674    0.0000 N   0  0  0  0  0  0  0  0  0  0  0  0
    2.5071   -0.7145    0.0000 N   0  0  0  0  0  0  0  0  0  0  0  0
   -1.4290   -0.4125    0.0000 N   0  0  0  0  0  0  0  0  0  0  0  0
    5.3946   -4.2868    0.0000 C   0  0  0  0  0  0  0  0  0  0  0  0
    4.9821   -5.0013    0.0000 C   0  0  0  0  0  0  0  0  0  0  0  0
    4.5696   -2.8579    0.0000 C   0  0  0  0  0  0  0  0  0  0  0  0
    4.1571   -5.0013    0.0000 C   0  0  0  0  0  0  0  0  0  0  0  0
    6.2196   -4.2868    0.0000 C   0  0  0  0  0  0  0  0  0  0  0  0
    5.3946   -5.7158    0.0000 C   0  0  0  0  0  0  0  0  0  0  0  0
    3.7446   -2.8579    0.0000 C   0  0  0  0  0  0  0  0  0  0  0  0
    4.9821   -2.1434    0.0000 C   0  0  0  0  0  0  0  0  0  0  0  0
    1.2696    0.0000    0.0000 C   0  0  0  0  0  0  0  0  0  0  0  0
    0.0000   -0.4125    0.0000 C   0  0  0  0  0  0  0  0  0  0  0  0
    0.0000    0.4125    0.0000 C   0  0  0  0  0  0  0  0  0  0  0  0
    3.7446   -1.4290    0.0000 C   0  0  0  0  0  0  0  0  0  0  0  0
    6.6321   -5.0013    0.0000 C   0  0  0  0  0  0  0  0  0  0  0  0
    6.2196   -5.7158    0.0000 C   0  0  0  0  0  0  0  0  0  0  0  0
    3.3321   -2.1434    0.0000 C   0  0  0  0  0  0  0  0  0  0  0  0
    4.5696   -1.4290    0.0000 C   0  0  0  0  0  0  0  0  0  0  0  0
    0.7846   -0.6674    0.0000 C   0  0  0  0  0  0  0  0  0  0  0  0
    2.0946    0.0000    0.0000 C   0  0  0  0  0  0  0  0  0  0  0  0
    3.3321   -0.7145    0.0000 C   0  0  0  0  0  0  0  0  0  0  0  0
   -0.7145   -0.8250    0.0000 C   0  0  0  0  0  0  0  0  0  0  0  0
   -0.7145    0.8250    0.0000 C   0  0  0  0  0  0  0  0  0  0  0  0
   -1.4290    0.4125    0.0000 C   0  0  0  0  0  0  0  0  0  0  0  0
  1  5  2  0  0  0  0
  1  6  2  0  0  0  0
  1 11  1  0  0  0  0
  1 13  1  0  0  0  0
  2 14  1  0  0  0  0
  3 14  1  0  0  0  0
  4 14  1  0  0  0  0
  7 28  2  0  0  0  0
  8 19  1  0  0  0  0
  8 21  1  0  0  0  0
  9 28  1  0  0  0  0
  9 29  1  0  0  0  0
 10 30  2  0  0  0  0
 10 32  1  0  0  0  0
 11 12  1  0  0  0  0
 11 15  2  0  0  0  0
 12 14  1  0  0  0  0
 12 16  2  0  0  0  0
 13 17  2  0  0  0  0
 13 18  1  0  0  0  0
 15 23  1  0  0  0  0
 16 24  1  0  0  0  0
 17 25  1  0  0  0  0
 18 26  2  0  0  0  0
 19 27  2  0  0  0  0
 19 28  1  0  0  0  0
 20 21  2  0  0  0  0
 20 27  1  0  0  0  0
 20 30  1  0  0  0  0
 21 31  1  0  0  0  0
 22 25  2  0  0  0  0
 22 26  1  0  0  0  0
 22 29  1  0  0  0  0
 23 24  2  0  0  0  0
 31 32  2  0  0  0  0
M  END
> <PUBCHEM_COMPOUND_ID_TYPE>
0

> <PUBCHEM_TOTAL_CHARGE>
0

> <PUBCHEM_SUBSTANCE_ID>
310930751

> <PUBCHEM_SUBSTANCE_VERSION>
1

> <PUBCHEM_EXT_DATASOURCE_NAME>
4488

> <PUBCHEM_EXT_DATASOURCE_REGID>
SCHEMBL16108048

> <PUBCHEM_SUBSTANCE_COMMENT>
InChI=1S/C22H16F3N3O3S/c23-22(24,25)17-3-1-2-4-20(17)32(30,31)16-7-5-14(6-8-16)12-27-21(29)19-11-15-13-26-10-9-18(15)28-19/h1-11,13,28H,12H2,(H,27,29)
InChIKey=RYSFMSXUGZKPFT-UHFFFAOYSA-N

> <PUBCHEM_SUBSTANCE_SYNONYM>
SCHEMBL16108048

> <PUBCHEM_XREF_EXT_ID>
SCHEMBL16108048

> <PUBCHEM_EXT_DATASOURCE_URL>
https://www.surechembl.org/

> <PUBCHEM_EXT_SUBSTANCE_URL>
https://www.surechembl.org/chemical/SCHEMBL16108048

> <PUBCHEM_CID_ASSOCIATIONS>
71818728  1

> <PUBCHEM_COORDINATE_TYPE>
1
3

$$$$
