310944632
  -OEChem-07211613022D

 29 33  0     0  0  0  0  0  0999 V2000
    1.4641    1.2458    0.0000 F   0  0  0  0  0  0  0  0  0  0  0  0
    3.6320    0.7927    0.0000 N   0  0  0  0  0  0  0  0  0  0  0  0
    1.4641   -2.8636    0.0000 N   0  0  0  0  0  0  0  0  0  0  0  0
   -1.4803    0.4368    0.0000 C   0  0  0  0  0  0  0  0  0  0  0  0
   -1.4641    1.2619    0.0000 C   0  0  0  0  0  0  0  0  0  0  0  0
   -2.1759    0.0162    0.0000 C   0  0  0  0  0  0  0  0  0  0  0  0
   -2.1921    1.6502    0.0000 C   0  0  0  0  0  0  0  0  0  0  0  0
   -2.9202    0.4044    0.0000 C   0  0  0  0  0  0  0  0  0  0  0  0
   -2.9202    1.2458    0.0000 C   0  0  0  0  0  0  0  0  0  0  0  0
   -0.0242    0.4530    0.0000 C   0  0  0  0  0  0  0  0  0  0  0  0
   -0.7523    0.0486    0.0000 C   0  0  0  0  0  0  0  0  0  0  0  0
    0.7361    0.0324    0.0000 C   0  0  0  0  0  0  0  0  0  0  0  0
   -0.7684    1.6663    0.0000 C   0  0  0  0  0  0  0  0  0  0  0  0
   -0.0242    1.2619    0.0000 C   0  0  0  0  0  0  0  0  0  0  0  0
   -2.1921   -0.7927    0.0000 C   0  0  0  0  0  0  0  0  0  0  0  0
    1.4641    0.4368    0.0000 C   0  0  0  0  0  0  0  0  0  0  0  0
   -2.2083    2.4753    0.0000 C   0  0  0  0  0  0  0  0  0  0  0  0
   -3.6158    0.0000    0.0000 C   0  0  0  0  0  0  0  0  0  0  0  0
   -3.6320    1.6502    0.0000 C   0  0  0  0  0  0  0  0  0  0  0  0
    0.7523   -0.8090    0.0000 C   0  0  0  0  0  0  0  0  0  0  0  0
    2.2083    0.0324    0.0000 C   0  0  0  0  0  0  0  0  0  0  0  0
    1.4803   -1.1972    0.0000 C   0  0  0  0  0  0  0  0  0  0  0  0
   -2.9040   -1.1972    0.0000 C   0  0  0  0  0  0  0  0  0  0  0  0
   -2.9202    2.8636    0.0000 C   0  0  0  0  0  0  0  0  0  0  0  0
   -3.6158   -0.7927    0.0000 C   0  0  0  0  0  0  0  0  0  0  0  0
   -3.6320    2.4592    0.0000 C   0  0  0  0  0  0  0  0  0  0  0  0
    2.1921   -0.8090    0.0000 C   0  0  0  0  0  0  0  0  0  0  0  0
    2.9202    0.4206    0.0000 C   0  0  0  0  0  0  0  0  0  0  0  0
    1.4641   -2.0546    0.0000 C   0  0  0  0  0  0  0  0  0  0  0  0
  1 16  1  0  0  0  0
  2 28  3  0  0  0  0
  3 29  3  0  0  0  0
  4  5  1  0  0  0  0
  4  6  1  0  0  0  0
  4 11  2  0  0  0  0
  5  7  1  0  0  0  0
  5 13  2  0  0  0  0
  6  8  1  0  0  0  0
  6 15  2  0  0  0  0
  7  9  1  0  0  0  0
  7 17  2  0  0  0  0
  8  9  1  0  0  0  0
  8 18  2  0  0  0  0
  9 19  2  0  0  0  0
 10 11  1  0  0  0  0
 10 12  1  0  0  0  0
 10 14  2  0  0  0  0
 12 16  1  0  0  0  0
 12 20  2  0  0  0  0
 13 14  1  0  0  0  0
 15 23  1  0  0  0  0
 16 21  2  0  0  0  0
 17 24  1  0  0  0  0
 18 25  1  0  0  0  0
 19 26  1  0  0  0  0
 20 22  1  0  0  0  0
 21 27  1  0  0  0  0
 21 28  1  0  0  0  0
 22 27  2  0  0  0  0
 22 29  1  0  0  0  0
 23 25  2  0  0  0  0
 24 26  2  0  0  0  0
M  END
> <PUBCHEM_COMPOUND_ID_TYPE>
0

> <PUBCHEM_TOTAL_CHARGE>
0

> <PUBCHEM_SUBSTANCE_ID>
310944632

> <PUBCHEM_SUBSTANCE_VERSION>
1

> <PUBCHEM_EXT_DATASOURCE_NAME>
4488

> <PUBCHEM_EXT_DATASOURCE_REGID>
SCHEMBL16122710

> <PUBCHEM_SUBSTANCE_COMMENT>
InChI=1S/C26H13FN2/c27-26-18(15-29)11-16(14-28)12-24(26)17-9-10-23-21-7-2-1-5-19(21)20-6-3-4-8-22(20)25(23)13-17/h1-13H
InChIKey=GOGWWYVTKUSUGX-UHFFFAOYSA-N

> <PUBCHEM_SUBSTANCE_SYNONYM>
SCHEMBL16122710

> <PUBCHEM_XREF_EXT_ID>
SCHEMBL16122710

> <PUBCHEM_EXT_DATASOURCE_URL>
https://www.surechembl.org/

> <PUBCHEM_EXT_SUBSTANCE_URL>
https://www.surechembl.org/chemical/SCHEMBL16122710

> <PUBCHEM_CID_ASSOCIATIONS>
117610862  1

> <PUBCHEM_COORDINATE_TYPE>
1
3

$$$$
