310944793
  -OEChem-07211613022D

 26 30  0     1  0  0  0  0  0999 V2000
    1.7418    1.1734    0.0000 S   0  0  0  0  0  0  0  0  0  0  0  0
   -1.5401   -0.7334    0.0000 O   0  0  0  0  0  0  0  0  0  0  0  0
    3.3551    1.2284    0.0000 O   0  0  0  0  0  0  0  0  0  0  0  0
   -2.0534    0.5134    0.0000 N   0  0  0  0  0  0  0  0  0  0  0  0
    1.8518   -0.9350    0.0000 N   0  0  0  0  0  0  0  0  0  0  0  0
    3.5385   -0.1650    0.0000 N   0  0  0  0  0  0  0  0  0  0  0  0
   -3.8135    0.8434    0.0000 N   0  0  0  0  0  0  0  0  0  0  0  0
    0.8801    0.1650    0.0000 C   0  0  0  0  0  0  0  0  0  0  0  0
    1.6501   -0.1650    0.0000 C   0  0  0  0  0  0  0  0  0  0  0  0
    0.9350    0.9901    0.0000 C   0  0  0  0  0  0  0  0  0  0  0  0
    2.1818    0.4950    0.0000 C   0  0  0  0  0  0  0  0  0  0  0  0
   -0.5867    0.4033    0.0000 C   0  0  0  0  0  0  0  0  0  0  0  0
   -1.3201    0.0917    0.0000 C   0  0  0  0  0  0  0  0  0  0  0  0
    0.0733   -0.0917    0.0000 C   0  0  0  0  0  0  0  0  0  0  0  0
   -2.6768   -0.0367    0.0000 C   0  0  0  0  0  0  0  0  0  0  0  0
    3.0251    0.4767    0.0000 C   0  0  0  0  0  0  0  0  0  0  0  0
   -2.3651   -0.7700    0.0000 C   0  0  0  0  0  0  0  0  0  0  0  0
    0.3116    1.4851    0.0000 C   0  0  0  0  0  0  0  0  0  0  0  0
   -0.4584    1.2101    0.0000 C   0  0  0  0  0  0  0  0  0  0  0  0
   -3.5019    0.0917    0.0000 C   0  0  0  0  0  0  0  0  0  0  0  0
    2.6218   -1.3201    0.0000 C   0  0  0  0  0  0  0  0  0  0  0  0
    3.3551   -0.9717    0.0000 C   0  0  3  0  0  0  0  0  0  0  0  0
   -2.8601   -1.4301    0.0000 C   0  0  0  0  0  0  0  0  0  0  0  0
   -3.9785   -0.6050    0.0000 C   0  0  0  0  0  0  0  0  0  0  0  0
   -3.6669   -1.3201    0.0000 C   0  0  0  0  0  0  0  0  0  0  0  0
    3.9785   -1.4851    0.0000 C   0  0  0  0  0  0  0  0  0  0  0  0
  1 10  1  0  0  0  0
  1 11  1  0  0  0  0
  2 13  1  0  0  0  0
  2 17  1  0  0  0  0
  3 16  2  0  0  0  0
  4 13  2  0  0  0  0
  4 15  1  0  0  0  0
  5  9  1  0  0  0  0
  5 21  1  0  0  0  0
  6 16  1  0  0  0  0
  6 22  1  0  0  0  0
  7 20  1  0  0  0  0
  8  9  1  0  0  0  0
  8 10  2  0  0  0  0
  8 14  1  0  0  0  0
  9 11  2  0  0  0  0
 10 18  1  0  0  0  0
 11 16  1  0  0  0  0
 12 13  1  0  0  0  0
 12 14  2  0  0  0  0
 12 19  1  0  0  0  0
 15 17  2  0  0  0  0
 15 20  1  0  0  0  0
 17 23  1  0  0  0  0
 18 19  2  0  0  0  0
 20 24  2  0  0  0  0
 21 22  1  0  0  0  0
 22 26  1  6  0  0  0
 23 25  2  0  0  0  0
 24 25  1  0  0  0  0
M  END
> <PUBCHEM_COMPOUND_ID_TYPE>
0

> <PUBCHEM_TOTAL_CHARGE>
0

> <PUBCHEM_SUBSTANCE_ID>
310944793

> <PUBCHEM_SUBSTANCE_VERSION>
1

> <PUBCHEM_EXT_DATASOURCE_NAME>
4488

> <PUBCHEM_EXT_DATASOURCE_REGID>
SCHEMBL16122872

> <PUBCHEM_SUBSTANCE_COMMENT>
InChI=1S/C19H16N4O2S/c1-9-8-21-15-11-7-10(5-6-14(11)26-17(15)18(24)22-9)19-23-16-12(20)3-2-4-13(16)25-19/h2-7,9,21H,8,20H2,1H3,(H,22,24)/t9-/m1/s1
InChIKey=ZIVBLYOCBYHTKF-SECBINFHSA-N

> <PUBCHEM_SUBSTANCE_SYNONYM>
SCHEMBL16122872

> <PUBCHEM_XREF_EXT_ID>
SCHEMBL16122872

> <PUBCHEM_EXT_DATASOURCE_URL>
https://www.surechembl.org/

> <PUBCHEM_EXT_SUBSTANCE_URL>
https://www.surechembl.org/chemical/SCHEMBL16122872

> <PUBCHEM_CID_ASSOCIATIONS>
117611006  1

> <PUBCHEM_COORDINATE_TYPE>
1
3

> <PUBCHEM_BONDANNOTATIONS>
22  26  6

$$$$
