310936678
  -OEChem-07211613022D

 27 29  0     1  0  0  0  0  0999 V2000
    1.4289   -1.6500    0.0000 S   0  0  0  0  0  0  0  0  0  0  0  0
    2.6959    0.2460    0.0000 O   0  0  0  0  0  0  0  0  0  0  0  0
    5.9118   -1.3635    0.0000 O   0  0  0  0  0  0  0  0  0  0  0  0
    2.1434   -2.8875    0.0000 N   0  0  0  0  0  0  0  0  0  0  0  0
    0.7145   -2.8875    0.0000 N   0  0  0  0  0  0  0  0  0  0  0  0
    4.2868   -1.6500    0.0000 C   0  0  3  0  0  0  0  0  0  0  0  0
    4.2868   -2.4750    0.0000 C   0  0  3  0  0  0  0  0  0  0  0  0
    3.5724   -2.8875    0.0000 C   0  0  3  0  0  0  0  0  0  0  0  0
    3.5724   -3.7125    0.0000 C   0  0  0  0  0  0  0  0  0  0  0  0
    4.2868   -4.1250    0.0000 C   0  0  0  0  0  0  0  0  0  0  0  0
    4.1153   -4.9320    0.0000 C   0  0  0  0  0  0  0  0  0  0  0  0
    4.5690   -0.8748    0.0000 C   0  0  3  0  0  0  0  0  0  0  0  0
    5.0013   -2.8875    0.0000 C   0  0  0  0  0  0  0  0  0  0  0  0
    5.0013   -3.7125    0.0000 C   0  0  0  0  0  0  0  0  0  0  0  0
    2.9593   -4.2645    0.0000 C   0  0  0  0  0  0  0  0  0  0  0  0
    3.4744   -1.7933    0.0000 C   0  0  0  0  0  0  0  0  0  0  0  0
    3.2948   -5.0182    0.0000 C   0  0  0  0  0  0  0  0  0  0  0  0
    2.8579   -2.4750    0.0000 C   0  0  0  0  0  0  0  0  0  0  0  0
    4.0387   -0.2428    0.0000 C   0  0  0  0  0  0  0  0  0  0  0  0
    5.0993   -1.7933    0.0000 C   0  0  0  0  0  0  0  0  0  0  0  0
    3.2262   -0.3860    0.0000 C   0  0  3  0  0  0  0  0  0  0  0  0
    2.9441   -1.1613    0.0000 C   0  0  0  0  0  0  0  0  0  0  0  0
    5.3815   -0.7315    0.0000 C   0  0  0  0  0  0  0  0  0  0  0  0
    4.2953   -5.7371    0.0000 C   0  0  0  0  0  0  0  0  0  0  0  0
    4.8972   -5.1951    0.0000 C   0  0  0  0  0  0  0  0  0  0  0  0
    1.4289   -2.4750    0.0000 C   0  0  0  0  0  0  0  0  0  0  0  0
    0.0000   -2.4750    0.0000 C   0  0  0  0  0  0  0  0  0  0  0  0
  1 26  2  0  0  0  0
 21  2  1  6  0  0  0
  3 23  1  0  0  0  0
  4 18  1  0  0  0  0
  4 26  1  0  0  0  0
  5 26  1  0  0  0  0
  5 27  1  0  0  0  0
  6  7  1  0  0  0  0
  6 12  1  0  0  0  0
  6 16  1  0  0  0  0
  6 20  1  1  0  0  0
  7  8  1  0  0  0  0
  7 13  1  1  0  0  0
  8  9  1  0  0  0  0
  8 18  1  6  0  0  0
  9 10  2  0  0  0  0
  9 15  1  0  0  0  0
 10 11  1  0  0  0  0
 10 14  1  0  0  0  0
 11 17  1  0  0  0  0
 11 24  1  0  0  0  0
 11 25  1  0  0  0  0
 12 19  1  0  0  0  0
 12 23  1  6  0  0  0
 13 14  1  0  0  0  0
 15 17  1  0  0  0  0
 16 22  1  0  0  0  0
 19 21  1  0  0  0  0
 21 22  1  0  0  0  0
M  END
> <PUBCHEM_COMPOUND_ID_TYPE>
0

> <PUBCHEM_TOTAL_CHARGE>
0

> <PUBCHEM_SUBSTANCE_ID>
310936678

> <PUBCHEM_SUBSTANCE_VERSION>
1

> <PUBCHEM_EXT_DATASOURCE_NAME>
4488

> <PUBCHEM_EXT_DATASOURCE_REGID>
SCHEMBL16114351

> <PUBCHEM_SUBSTANCE_COMMENT>
InChI=1S/C22H38N2O2S/c1-21(2)9-8-16-17(12-24-20(27)23-4)19(6-5-18(16)21)22(3)10-7-15(26)11-14(22)13-25/h14-15,17,19,25-26H,5-13H2,1-4H3,(H2,23,24,27)/t14-,15+,17+,19+,22-/m1/s1
InChIKey=HJZNHFMLTZTGJR-GZEIPGDKSA-N

> <PUBCHEM_SUBSTANCE_SYNONYM>
SCHEMBL16114351

> <PUBCHEM_XREF_EXT_ID>
SCHEMBL16114351

> <PUBCHEM_EXT_DATASOURCE_URL>
https://www.surechembl.org/

> <PUBCHEM_EXT_SUBSTANCE_URL>
https://www.surechembl.org/chemical/SCHEMBL16114351

> <PUBCHEM_CID_ASSOCIATIONS>
117604585  1

> <PUBCHEM_COORDINATE_TYPE>
1
3

> <PUBCHEM_BONDANNOTATIONS>
12  23  6
21  2  6
6  20  5
7  13  5
8  18  6

$$$$
