310946717
  -OEChem-07211613022D

 60 63  0     1  0  0  0  0  0999 V2000
    2.4295    0.3484    0.0000 O   0  0  0  0  0  0  0  0  0  0  0  0
    3.7677   -0.1526    0.0000 O   0  0  0  0  0  0  0  0  0  0  0  0
    0.0412    0.1349    0.0000 O   0  0  0  0  0  0  0  0  0  0  0  0
    2.2622   -0.9539    0.0000 O   0  0  0  0  0  0  0  0  0  0  0  0
   -1.1683   -0.3661    0.0000 O   0  0  0  0  0  0  0  0  0  0  0  0
    0.4537   -0.1526    0.0000 O   0  0  0  0  0  0  0  0  0  0  0  0
   -3.7784   -0.1526    0.0000 O   0  0  0  0  0  0  0  0  0  0  0  0
    6.3778   -0.3661    0.0000 O   0  0  0  0  0  0  0  0  0  0  0  0
   -5.1166    0.3484    0.0000 O   0  0  0  0  0  0  0  0  0  0  0  0
   -1.3355    0.9186    0.0000 O   0  0  0  0  0  0  0  0  0  0  0  0
   -3.1440    0.1349    0.0000 O   0  0  0  0  0  0  0  0  0  0  0  0
    4.4021    0.1349    0.0000 O   0  0  0  0  0  0  0  0  0  0  0  0
    7.5049   -0.0641    0.0000 O   0  0  0  0  0  0  0  0  0  0  0  0
    1.4178    1.7613    0.0000 O   0  0  0  0  0  0  0  0  0  0  0  0
    6.2106    0.9186    0.0000 O   0  0  0  0  0  0  0  0  0  0  0  0
   -7.5049    0.1349    0.0000 O   0  0  0  0  0  0  0  0  0  0  0  0
    5.3662   -1.7613    0.0000 O   0  0  0  0  0  0  0  0  0  0  0  0
   -5.2839   -0.9539    0.0000 O   0  0  0  0  0  0  0  0  0  0  0  0
   -7.0924   -0.1526    0.0000 O   0  0  0  0  0  0  0  0  0  0  0  0
   -2.1799   -1.7613    0.0000 O   0  0  0  0  0  0  0  0  0  0  0  0
    4.3044    2.8028    0.0000 O   0  0  0  0  0  0  0  0  0  0  0  0
    5.0189    1.5653    0.0000 O   0  0  0  0  0  0  0  0  0  0  0  0
   -6.1283    1.7613    0.0000 O   0  0  0  0  0  0  0  0  0  0  0  0
    7.0162   -3.1902    0.0000 O   0  0  0  0  0  0  0  0  0  0  0  0
    7.0162   -1.7613    0.0000 O   0  0  0  0  0  0  0  0  0  0  0  0
   -4.4783    3.1902    0.0000 O   0  0  0  0  0  0  0  0  0  0  0  0
   -4.4783    1.7613    0.0000 O   0  0  0  0  0  0  0  0  0  0  0  0
    2.0487   -0.1570    0.0000 C   0  0  3  0  0  0  0  0  0  0  0  0
    1.2506   -0.3661    0.0000 C   0  0  3  0  0  0  0  0  0  0  0  0
    2.8419   -0.3661    0.0000 C   0  0  3  0  0  0  0  0  0  0  0  0
    0.8381    0.3484    0.0000 C   0  0  3  0  0  0  0  0  0  0  0  0
    1.6313    0.1394    0.0000 C   0  0  3  0  0  0  0  0  0  0  0  0
    4.7865   -0.3661    0.0000 C   0  0  3  0  0  0  0  0  0  0  0  0
   -0.7557    0.3484    0.0000 C   0  0  3  0  0  0  0  0  0  0  0  0
   -1.5490    0.1217    0.0000 C   0  0  3  0  0  0  0  0  0  0  0  0
    2.0487    0.6680    0.0000 C   0  0  0  0  0  0  0  0  0  0  0  0
   -2.7596   -0.3661    0.0000 C   0  0  3  0  0  0  0  0  0  0  0  0
   -2.3471    0.3484    0.0000 C   0  0  3  0  0  0  0  0  0  0  0  0
    5.1990    0.3484    0.0000 C   0  0  3  0  0  0  0  0  0  0  0  0
    5.5797   -0.1394    0.0000 C   0  0  3  0  0  0  0  0  0  0  0  0
   -1.9663   -0.1394    0.0000 C   0  0  3  0  0  0  0  0  0  0  0  0
    1.4178    0.9363    0.0000 C   0  0  0  0  0  0  0  0  0  0  0  0
    5.9971    0.1217    0.0000 C   0  0  3  0  0  0  0  0  0  0  0  0
    6.7904    0.3484    0.0000 C   0  0  3  0  0  0  0  0  0  0  0  0
   -4.7042   -0.3661    0.0000 C   0  0  3  0  0  0  0  0  0  0  0  0
    3.5899    1.5653    0.0000 C   0  0  0  0  0  0  0  0  0  0  0  0
   -5.4974   -0.1570    0.0000 C   0  0  3  0  0  0  0  0  0  0  0  0
   -6.2955   -0.3661    0.0000 C   0  0  3  0  0  0  0  0  0  0  0  0
   -6.7080    0.3484    0.0000 C   0  0  3  0  0  0  0  0  0  0  0  0
   -5.9147    0.1394    0.0000 C   0  0  3  0  0  0  0  0  0  0  0  0
    5.3662   -0.9363    0.0000 C   0  0  0  0  0  0  0  0  0  0  0  0
   -2.1799   -0.9363    0.0000 C   0  0  0  0  0  0  0  0  0  0  0  0
    4.3044    1.9778    0.0000 C   0  0  0  0  0  0  0  0  0  0  0  0
   -6.1283    0.9363    0.0000 C   0  0  0  0  0  0  0  0  0  0  0  0
    8.2193    0.3484    0.0000 C   0  0  0  0  0  0  0  0  0  0  0  0
    5.7787   -2.4757    0.0000 C   0  0  0  0  0  0  0  0  0  0  0  0
   -8.2193    0.5474    0.0000 C   0  0  0  0  0  0  0  0  0  0  0  0
    6.6037   -2.4757    0.0000 C   0  0  0  0  0  0  0  0  0  0  0  0
   -5.7158    2.4757    0.0000 C   0  0  0  0  0  0  0  0  0  0  0  0
   -4.8908    2.4757    0.0000 C   0  0  0  0  0  0  0  0  0  0  0  0
  1 30  1  0  0  0  0
  1 32  1  0  0  0  0
 30  2  1  1  0  0  0
 33  2  1  1  0  0  0
 31  3  1  6  0  0  0
 34  3  1  6  0  0  0
  4 28  1  0  0  0  0
  4 46  1  0  0  0  0
  5 34  1  0  0  0  0
  5 41  1  0  0  0  0
 29  6  1  1  0  0  0
 37  7  1  1  0  0  0
 45  7  1  1  0  0  0
  8 40  1  0  0  0  0
  8 44  1  0  0  0  0
  9 45  1  0  0  0  0
  9 50  1  0  0  0  0
 10 35  1  0  0  0  0
 11 38  1  0  0  0  0
 12 39  1  0  0  0  0
 44 13  1  6  0  0  0
 13 55  1  0  0  0  0
 14 42  1  0  0  0  0
 15 43  1  0  0  0  0
 49 16  1  6  0  0  0
 16 57  1  0  0  0  0
 17 51  1  0  0  0  0
 17 56  1  0  0  0  0
 18 47  1  0  0  0  0
 48 19  1  1  0  0  0
 20 52  1  0  0  0  0
 21 53  2  0  0  0  0
 22 53  1  0  0  0  0
 23 54  1  0  0  0  0
 23 59  1  0  0  0  0
 24 58  2  0  0  0  0
 25 58  1  0  0  0  0
 26 60  2  0  0  0  0
 27 60  1  0  0  0  0
 28 29  1  0  0  0  0
 28 30  1  0  0  0  0
 28 36  1  0  0  0  0
 29 31  1  0  0  0  0
 31 32  1  0  0  0  0
 32 42  1  0  0  0  0
 33 39  1  0  0  0  0
 33 40  1  0  0  0  0
 34 35  1  0  0  0  0
 35 38  1  0  0  0  0
 37 38  1  0  0  0  0
 37 41  1  0  0  0  0
 39 43  1  0  0  0  0
 40 51  1  6  0  0  0
 41 52  1  6  0  0  0
 43 44  1  0  0  0  0
 45 47  1  0  0  0  0
 46 53  1  0  0  0  0
 47 48  1  0  0  0  0
 48 49  1  0  0  0  0
 49 50  1  0  0  0  0
 50 54  1  0  0  0  0
 56 58  1  0  0  0  0
 59 60  1  0  0  0  0
M  END
> <PUBCHEM_COMPOUND_ID_TYPE>
0

> <PUBCHEM_TOTAL_CHARGE>
0

> <PUBCHEM_SUBSTANCE_ID>
310946717

> <PUBCHEM_SUBSTANCE_VERSION>
1

> <PUBCHEM_EXT_DATASOURCE_NAME>
4488

> <PUBCHEM_EXT_DATASOURCE_REGID>
SCHEMBL16124841

> <PUBCHEM_SUBSTANCE_COMMENT>
InChI=1S/C33H54O27/c1-33(53-10-17(40)41)28(48)27(12(5-35)57-32(33)60-26-14(7-52-9-16(38)39)55-29(50-3)21(45)19(26)43)59-30-23(47)20(44)25(11(4-34)54-30)58-31-22(46)18(42)24(49-2)13(56-31)6-51-8-15(36)37/h11-14,18-32,34-35,42-48H,4-10H2,1-3H3,(H,36,37)(H,38,39)(H,40,41)/t11-,12?,13?,14-,18+,19?,20?,21?,22?,23?,24+,25+,26+,27+,28-,29+,30-,31-,32-,33?/m0/s1
InChIKey=LZOJEZBRHWKDQA-VFDIQVMASA-N

> <PUBCHEM_SUBSTANCE_SYNONYM>
SCHEMBL16124841

> <PUBCHEM_XREF_EXT_ID>
SCHEMBL16124841

> <PUBCHEM_EXT_DATASOURCE_URL>
https://www.surechembl.org/

> <PUBCHEM_EXT_SUBSTANCE_URL>
https://www.surechembl.org/chemical/SCHEMBL16124841

> <PUBCHEM_CID_ASSOCIATIONS>
117612608  1

> <PUBCHEM_COORDINATE_TYPE>
1
3

> <PUBCHEM_BONDANNOTATIONS>
44  13  6
13  55  3
49  16  6
16  57  3
48  19  5
30  2  5
33  2  5
31  3  6
34  3  6
40  51  6
41  52  6
29  6  5
37  7  5
45  7  5

$$$$
