310930558
  -OEChem-07211613022D

 20 22  0     0  0  0  0  0  0999 V2000
    0.7478   -2.8579    0.0000 Br  0  0  0  0  0  0  0  0  0  0  0  0
    4.1667   -2.0566    0.0000 O   0  0  0  0  0  0  0  0  0  0  0  0
    1.4423   -0.0267    0.0000 O   0  5  0  0  0  0  0  0  0  0  0  0
    2.8579    0.0000    0.0000 O   0  0  0  0  0  0  0  0  0  0  0  0
    3.6593   -2.7244    0.0000 N   0  0  0  0  0  0  0  0  0  0  0  0
    3.6593   -1.4156    0.0000 N   0  0  0  0  0  0  0  0  0  0  0  0
    2.1635   -3.7126    0.0000 N   0  0  0  0  0  0  0  0  0  0  0  0
    2.1635   -0.4274    0.0000 N   0  3  0  0  0  0  0  0  0  0  0  0
    2.8846   -2.5107    0.0000 C   0  0  0  0  0  0  0  0  0  0  0  0
    2.8846   -1.6293    0.0000 C   0  0  0  0  0  0  0  0  0  0  0  0
    2.1635   -2.8846    0.0000 C   0  0  0  0  0  0  0  0  0  0  0  0
    2.1635   -1.2554    0.0000 C   0  0  0  0  0  0  0  0  0  0  0  0
    1.4690   -2.5107    0.0000 C   0  0  0  0  0  0  0  0  0  0  0  0
    1.4690   -1.6293    0.0000 C   0  0  0  0  0  0  0  0  0  0  0  0
    1.4423   -4.1133    0.0000 C   0  0  0  0  0  0  0  0  0  0  0  0
    0.7212   -3.6859    0.0000 C   0  0  0  0  0  0  0  0  0  0  0  0
    1.4156   -4.9413    0.0000 C   0  0  0  0  0  0  0  0  0  0  0  0
    0.0000   -4.0866    0.0000 C   0  0  0  0  0  0  0  0  0  0  0  0
    0.6945   -5.3420    0.0000 C   0  0  0  0  0  0  0  0  0  0  0  0
    0.0000   -4.9146    0.0000 C   0  0  0  0  0  0  0  0  0  0  0  0
  1 16  1  0  0  0  0
  2  5  1  0  0  0  0
  2  6  1  0  0  0  0
  3  8  1  0  0  0  0
  4  8  2  0  0  0  0
  5  9  2  0  0  0  0
  6 10  2  0  0  0  0
  7 11  1  0  0  0  0
  7 15  1  0  0  0  0
  8 12  1  0  0  0  0
  9 10  1  0  0  0  0
  9 11  1  0  0  0  0
 10 12  1  0  0  0  0
 11 13  2  0  0  0  0
 12 14  2  0  0  0  0
 13 14  1  0  0  0  0
 15 16  1  0  0  0  0
 15 17  2  0  0  0  0
 16 18  2  0  0  0  0
 17 19  1  0  0  0  0
 18 20  1  0  0  0  0
 19 20  2  0  0  0  0
M  CHG  2   3  -1   8   1
M  END
> <PUBCHEM_COMPOUND_ID_TYPE>
0

> <PUBCHEM_TOTAL_CHARGE>
0

> <PUBCHEM_SUBSTANCE_ID>
310930558

> <PUBCHEM_SUBSTANCE_VERSION>
1

> <PUBCHEM_EXT_DATASOURCE_NAME>
4488

> <PUBCHEM_EXT_DATASOURCE_REGID>
SCHEMBL16107852

> <PUBCHEM_SUBSTANCE_COMMENT>
InChI=1S/C12H7BrN4O3/c13-7-3-1-2-4-8(7)14-9-5-6-10(17(18)19)12-11(9)15-20-16-12/h1-6,14H
InChIKey=CQCYYJGYLYKECV-UHFFFAOYSA-N

> <PUBCHEM_SUBSTANCE_SYNONYM>
SCHEMBL16107852

> <PUBCHEM_XREF_EXT_ID>
SCHEMBL16107852

> <PUBCHEM_EXT_DATASOURCE_URL>
https://www.surechembl.org/

> <PUBCHEM_EXT_SUBSTANCE_URL>
https://www.surechembl.org/chemical/SCHEMBL16107852

> <PUBCHEM_CID_ASSOCIATIONS>
71517406  1

> <PUBCHEM_COORDINATE_TYPE>
1
3

$$$$
