310942437
  -OEChem-07211613022D

 18 19  0     0  0  0  0  0  0999 V2000
   -2.1575    0.0531    0.0000 S   0  0  0  0  0  0  0  0  0  0  0  0
   -0.7163    0.0531    0.0000 N   0  0  0  0  0  0  0  0  0  0  0  0
    0.7251    0.0531    0.0000 N   0  0  0  0  0  0  0  0  0  0  0  0
   -1.4324    1.2822    0.0000 N   0  0  0  0  0  0  0  0  0  0  0  0
    2.8826    2.0868    0.0000 N   0  0  0  0  0  0  0  0  0  0  0  0
    0.0088    0.4687    0.0000 C   0  0  0  0  0  0  0  0  0  0  0  0
    0.0177    1.2822    0.0000 C   0  0  0  0  0  0  0  0  0  0  0  0
   -1.4324    0.4687    0.0000 C   0  0  0  0  0  0  0  0  0  0  0  0
   -0.7163    1.6889    0.0000 C   0  0  0  0  0  0  0  0  0  0  0  0
    0.7163   -0.8223    0.0000 C   0  0  0  0  0  0  0  0  0  0  0  0
    0.7251    1.6889    0.0000 C   0  0  0  0  0  0  0  0  0  0  0  0
    0.0531   -1.3175    0.0000 C   0  0  0  0  0  0  0  0  0  0  0  0
    1.3794   -1.2998    0.0000 C   0  0  0  0  0  0  0  0  0  0  0  0
    0.3007   -2.0868    0.0000 C   0  0  0  0  0  0  0  0  0  0  0  0
    1.1318   -2.0868    0.0000 C   0  0  0  0  0  0  0  0  0  0  0  0
    1.4679    1.2910    0.0000 C   0  0  0  0  0  0  0  0  0  0  0  0
   -2.8826    0.4509    0.0000 C   0  0  0  0  0  0  0  0  0  0  0  0
    2.1664    1.6977    0.0000 C   0  0  0  0  0  0  0  0  0  0  0  0
  1  8  1  0  0  0  0
  1 17  1  0  0  0  0
  2  6  2  0  0  0  0
  2  8  1  0  0  0  0
  3  6  1  0  0  0  0
  3 10  1  0  0  0  0
  4  8  2  0  0  0  0
  4  9  1  0  0  0  0
  5 18  3  0  0  0  0
  6  7  1  0  0  0  0
  7  9  2  0  0  0  0
  7 11  1  0  0  0  0
 10 12  1  0  0  0  0
 10 13  1  0  0  0  0
 11 16  2  0  0  0  0
 12 14  1  0  0  0  0
 13 15  1  0  0  0  0
 14 15  1  0  0  0  0
 16 18  1  0  0  0  0
M  END
> <PUBCHEM_COMPOUND_ID_TYPE>
0

> <PUBCHEM_TOTAL_CHARGE>
0

> <PUBCHEM_SUBSTANCE_ID>
310942437

> <PUBCHEM_SUBSTANCE_VERSION>
1

> <PUBCHEM_EXT_DATASOURCE_NAME>
4488

> <PUBCHEM_EXT_DATASOURCE_REGID>
SCHEMBL16120473

> <PUBCHEM_SUBSTANCE_COMMENT>
InChI=1S/C13H16N4S/c1-18-13-15-9-10(5-4-8-14)12(17-13)16-11-6-2-3-7-11/h4-5,9,11H,2-3,6-7H2,1H3,(H,15,16,17)/b5-4+
InChIKey=CEVHIZLMZGYXJF-SNAWJCMRSA-N

> <PUBCHEM_SUBSTANCE_SYNONYM>
SCHEMBL16120473

> <PUBCHEM_XREF_EXT_ID>
SCHEMBL16120473

> <PUBCHEM_EXT_DATASOURCE_URL>
https://www.surechembl.org/

> <PUBCHEM_EXT_SUBSTANCE_URL>
https://www.surechembl.org/chemical/SCHEMBL16120473

> <PUBCHEM_CID_ASSOCIATIONS>
90467084  1

> <PUBCHEM_COORDINATE_TYPE>
1
3

$$$$
