310944085
  -OEChem-07211613022D

 31 35  0     1  0  0  0  0  0999 V2000
    2.3619   -0.4380    0.0000 O   0  0  0  0  0  0  0  0  0  0  0  0
    5.3668   -0.2717    0.0000 O   0  0  0  0  0  0  0  0  0  0  0  0
    5.1451   -1.7354    0.0000 O   0  0  0  0  0  0  0  0  0  0  0  0
   -0.3548   -0.4380    0.0000 O   0  0  0  0  0  0  0  0  0  0  0  0
    3.4153    0.6154    0.0000 N   0  0  0  0  0  0  0  0  0  0  0  0
    0.4768    0.9924    0.0000 N   0  0  0  0  0  0  0  0  0  0  0  0
   -4.0917    0.2606    0.0000 N   0  0  0  0  0  0  0  0  0  0  0  0
   -2.8387   -0.4491    0.0000 N   0  0  0  0  0  0  0  0  0  0  0  0
   -2.8498    0.9813    0.0000 N   0  0  0  0  0  0  0  0  0  0  0  0
   -4.5796    0.9259    0.0000 N   0  0  0  0  0  0  0  0  0  0  0  0
   -5.3668    0.6708    0.0000 N   0  0  0  0  0  0  0  0  0  0  0  0
   -5.3668   -0.1608    0.0000 N   0  0  0  0  0  0  0  0  0  0  0  0
    2.1290    1.0257    0.0000 C   0  0  0  0  0  0  0  0  0  0  0  0
    2.6280    0.3936    0.0000 C   0  0  0  0  0  0  0  0  0  0  0  0
    2.6169    1.6910    0.0000 C   0  0  0  0  0  0  0  0  0  0  0  0
    4.1027    0.1386    0.0000 C   0  0  0  0  0  0  0  0  0  0  0  0
    3.4042    1.4471    0.0000 C   0  0  0  0  0  0  0  0  0  0  0  0
    1.7298    0.3050    0.0000 C   0  0  0  0  0  0  0  0  0  0  0  0
    1.7187    1.7354    0.0000 C   0  0  0  0  0  0  0  0  0  0  0  0
    0.8981    0.2938    0.0000 C   0  0  0  0  0  0  0  0  0  0  0  0
    0.8871    1.7242    0.0000 C   0  0  0  0  0  0  0  0  0  0  0  0
    4.0917   -0.6820    0.0000 C   0  0  0  0  0  0  0  0  0  0  0  0
    4.8790    0.4048    0.0000 C   0  0  0  0  0  0  0  0  0  0  0  0
    4.8790   -0.9148    0.0000 C   0  0  0  0  0  0  0  0  0  0  0  0
   -0.3548    1.0036    0.0000 C   0  0  0  0  0  0  0  0  0  0  0  0
   -0.7762    0.2828    0.0000 C   0  0  3  0  0  0  0  0  0  0  0  0
   -1.5967    0.2828    0.0000 C   0  0  0  0  0  0  0  0  0  0  0  0
   -3.2601    0.2717    0.0000 C   0  0  0  0  0  0  0  0  0  0  0  0
   -2.0182   -0.4380    0.0000 C   0  0  0  0  0  0  0  0  0  0  0  0
   -2.0182    0.9924    0.0000 C   0  0  0  0  0  0  0  0  0  0  0  0
   -4.5796   -0.4048    0.0000 C   0  0  0  0  0  0  0  0  0  0  0  0
  1 14  2  0  0  0  0
  2 23  1  0  0  0  0
  2 24  1  0  0  0  0
  3 24  2  0  0  0  0
 26  4  1  1  0  0  0
  5 14  1  0  0  0  0
  5 16  1  0  0  0  0
  5 17  1  0  0  0  0
  6 20  1  0  0  0  0
  6 21  1  0  0  0  0
  6 25  1  0  0  0  0
  7 10  1  0  0  0  0
  7 28  1  0  0  0  0
  7 31  1  0  0  0  0
  8 28  2  0  0  0  0
  8 29  1  0  0  0  0
  9 28  1  0  0  0  0
  9 30  2  0  0  0  0
 10 11  2  0  0  0  0
 11 12  1  0  0  0  0
 12 31  2  0  0  0  0
 13 14  1  0  0  0  0
 13 15  1  0  0  0  0
 13 18  1  0  0  0  0
 13 19  1  0  0  0  0
 15 17  1  0  0  0  0
 16 22  2  0  0  0  0
 16 23  1  0  0  0  0
 18 20  1  0  0  0  0
 19 21  1  0  0  0  0
 22 24  1  0  0  0  0
 25 26  1  0  0  0  0
 26 27  1  0  0  0  0
 27 29  2  0  0  0  0
 27 30  1  0  0  0  0
M  END
> <PUBCHEM_COMPOUND_ID_TYPE>
0

> <PUBCHEM_TOTAL_CHARGE>
0

> <PUBCHEM_SUBSTANCE_ID>
310944085

> <PUBCHEM_SUBSTANCE_VERSION>
1

> <PUBCHEM_EXT_DATASOURCE_NAME>
4488

> <PUBCHEM_EXT_DATASOURCE_REGID>
SCHEMBL16122160

> <PUBCHEM_SUBSTANCE_COMMENT>
InChI=1S/C19H22N8O4/c28-15(13-8-20-18(21-9-13)27-12-22-23-24-27)10-25-4-1-19(2-5-25)3-6-26(17(19)30)14-7-16(29)31-11-14/h7-9,12,15,28H,1-6,10-11H2/t15-/m1/s1
InChIKey=ZBTNWKDKEXDUMW-OAHLLOKOSA-N

> <PUBCHEM_SUBSTANCE_SYNONYM>
SCHEMBL16122160

> <PUBCHEM_XREF_EXT_ID>
SCHEMBL16122160

> <PUBCHEM_EXT_DATASOURCE_URL>
https://www.surechembl.org/

> <PUBCHEM_EXT_SUBSTANCE_URL>
https://www.surechembl.org/chemical/SCHEMBL16122160

> <PUBCHEM_CID_ASSOCIATIONS>
117610377  1

> <PUBCHEM_COORDINATE_TYPE>
1
3

> <PUBCHEM_BONDANNOTATIONS>
26  4  5

$$$$
