310937753
  -OEChem-07211613022D

 27 30  0     0  0  0  0  0  0999 V2000
    2.1596   -0.8590    0.0000 F   0  0  0  0  0  0  0  0  0  0  0  0
    2.8713   -2.0860    0.0000 F   0  0  0  0  0  0  0  0  0  0  0  0
    2.8468   -0.4418    0.0000 F   0  0  0  0  0  0  0  0  0  0  0  0
    4.9328    0.0000    0.0000 O   0  0  0  0  0  0  0  0  0  0  0  0
    0.7117   -3.2640    0.0000 O   0  0  0  0  0  0  0  0  0  0  0  0
    4.2702   -1.2516    0.0000 N   0  0  0  0  0  0  0  0  0  0  0  0
    6.4789   -2.3314    0.0000 N   0  0  0  0  0  0  0  0  0  0  0  0
    4.2702   -3.6812    0.0000 N   0  0  0  0  0  0  0  0  0  0  0  0
    6.9452   -1.6688    0.0000 N   0  0  0  0  0  0  0  0  0  0  0  0
    2.1106   -4.9083    0.0000 N   0  0  0  0  0  0  0  0  0  0  0  0
    4.2702   -2.0860    0.0000 C   0  0  0  0  0  0  0  0  0  0  0  0
    4.9573   -2.5032    0.0000 C   0  0  0  0  0  0  0  0  0  0  0  0
    5.6691   -2.0860    0.0000 C   0  0  0  0  0  0  0  0  0  0  0  0
    5.6691   -1.2516    0.0000 C   0  0  0  0  0  0  0  0  0  0  0  0
    4.9573   -0.8344    0.0000 C   0  0  0  0  0  0  0  0  0  0  0  0
    3.5585   -2.5032    0.0000 C   0  0  0  0  0  0  0  0  0  0  0  0
    3.5585   -3.2640    0.0000 C   0  0  0  0  0  0  0  0  0  0  0  0
    4.9573   -3.2640    0.0000 C   0  0  0  0  0  0  0  0  0  0  0  0
    3.5585   -0.8344    0.0000 C   0  0  0  0  0  0  0  0  0  0  0  0
    6.4789   -0.9816    0.0000 C   0  0  0  0  0  0  0  0  0  0  0  0
    2.8468   -3.6812    0.0000 C   0  0  0  0  0  0  0  0  0  0  0  0
    2.8713   -1.2516    0.0000 C   0  0  0  0  0  0  0  0  0  0  0  0
    2.1106   -3.2885    0.0000 C   0  0  0  0  0  0  0  0  0  0  0  0
    2.8223   -4.5156    0.0000 C   0  0  0  0  0  0  0  0  0  0  0  0
    1.4234   -3.6812    0.0000 C   0  0  0  0  0  0  0  0  0  0  0  0
    1.3988   -4.5156    0.0000 C   0  0  0  0  0  0  0  0  0  0  0  0
    0.0000   -3.6812    0.0000 C   0  0  0  0  0  0  0  0  0  0  0  0
  1 22  1  0  0  0  0
  2 22  1  0  0  0  0
  3 22  1  0  0  0  0
  4 15  2  0  0  0  0
  5 25  1  0  0  0  0
  5 27  1  0  0  0  0
  6 11  1  0  0  0  0
  6 15  1  0  0  0  0
  6 19  1  0  0  0  0
  7  9  1  0  0  0  0
  7 13  1  0  0  0  0
  8 17  2  0  0  0  0
  8 18  1  0  0  0  0
  9 20  2  0  0  0  0
 10 24  1  0  0  0  0
 10 26  2  0  0  0  0
 11 12  1  0  0  0  0
 11 16  2  0  0  0  0
 12 13  1  0  0  0  0
 12 18  2  0  0  0  0
 13 14  2  0  0  0  0
 14 15  1  0  0  0  0
 14 20  1  0  0  0  0
 16 17  1  0  0  0  0
 17 21  1  0  0  0  0
 19 22  1  0  0  0  0
 21 23  1  0  0  0  0
 21 24  2  0  0  0  0
 23 25  2  0  0  0  0
 25 26  1  0  0  0  0
M  END
> <PUBCHEM_COMPOUND_ID_TYPE>
0

> <PUBCHEM_TOTAL_CHARGE>
0

> <PUBCHEM_SUBSTANCE_ID>
310937753

> <PUBCHEM_SUBSTANCE_VERSION>
1

> <PUBCHEM_EXT_DATASOURCE_NAME>
4488

> <PUBCHEM_EXT_DATASOURCE_REGID>
SCHEMBL16115558

> <PUBCHEM_SUBSTANCE_COMMENT>
InChI=1S/C17H12F3N5O2/c1-27-10-2-9(4-21-5-10)13-3-14-11(6-22-13)15-12(7-23-24-15)16(26)25(14)8-17(18,19)20/h2-7H,8H2,1H3,(H,23,24)
InChIKey=RPYYGJVIKUHHCT-UHFFFAOYSA-N

> <PUBCHEM_SUBSTANCE_SYNONYM>
SCHEMBL16115558

> <PUBCHEM_XREF_EXT_ID>
SCHEMBL16115558

> <PUBCHEM_EXT_DATASOURCE_URL>
https://www.surechembl.org/

> <PUBCHEM_EXT_SUBSTANCE_URL>
https://www.surechembl.org/chemical/SCHEMBL16115558

> <PUBCHEM_CID_ASSOCIATIONS>
86298891  1

> <PUBCHEM_COORDINATE_TYPE>
1
3

$$$$
