310938973
  -OEChem-07211613022D

 26 29  0     1  0  0  0  0  0999 V2000
    0.0553   -0.3572    0.0000 N   0  0  0  0  0  0  0  0  0  0  0  0
   -1.0717    1.5947    0.0000 N   0  0  0  0  0  0  0  0  0  0  0  0
   -0.6592    0.0553    0.0000 C   0  0  0  0  0  0  0  0  0  0  0  0
   -1.0717    0.7697    0.0000 C   0  0  0  0  0  0  0  0  0  0  0  0
   -1.4842    0.0553    0.0000 C   0  0  0  0  0  0  0  0  0  0  0  0
    0.0553   -1.1822    0.0000 C   0  0  0  0  0  0  0  0  0  0  0  0
    0.7697    0.0553    0.0000 C   0  0  0  0  0  0  0  0  0  0  0  0
   -2.1987   -0.3572    0.0000 C   0  0  0  0  0  0  0  0  0  0  0  0
   -0.3572    2.0072    0.0000 C   0  0  3  0  0  0  0  0  0  0  0  0
   -0.6592   -1.5947    0.0000 C   0  0  0  0  0  0  0  0  0  0  0  0
    0.7697   -1.5947    0.0000 C   0  0  0  0  0  0  0  0  0  0  0  0
    1.4842   -0.3572    0.0000 C   0  0  0  0  0  0  0  0  0  0  0  0
    0.7697    0.8803    0.0000 C   0  0  0  0  0  0  0  0  0  0  0  0
    0.3572    1.5947    0.0000 C   0  0  0  0  0  0  0  0  0  0  0  0
   -0.6592   -2.4197    0.0000 C   0  0  0  0  0  0  0  0  0  0  0  0
    0.7697   -2.4197    0.0000 C   0  0  0  0  0  0  0  0  0  0  0  0
    2.1987    0.0553    0.0000 C   0  0  0  0  0  0  0  0  0  0  0  0
    1.4842    1.2928    0.0000 C   0  0  0  0  0  0  0  0  0  0  0  0
   -0.3572    2.8322    0.0000 C   0  0  0  0  0  0  0  0  0  0  0  0
    0.3572    0.7697    0.0000 C   0  0  0  0  0  0  0  0  0  0  0  0
    1.0717    2.0072    0.0000 C   0  0  0  0  0  0  0  0  0  0  0  0
    0.0553   -2.8322    0.0000 C   0  0  0  0  0  0  0  0  0  0  0  0
    2.1987    0.8803    0.0000 C   0  0  0  0  0  0  0  0  0  0  0  0
    1.0717    0.3572    0.0000 C   0  0  0  0  0  0  0  0  0  0  0  0
    1.7862    1.5947    0.0000 C   0  0  0  0  0  0  0  0  0  0  0  0
    1.7862    0.7697    0.0000 C   0  0  0  0  0  0  0  0  0  0  0  0
  1  3  1  0  0  0  0
  1  6  1  0  0  0  0
  1  7  1  0  0  0  0
  2  4  2  0  0  0  0
  2  9  1  0  0  0  0
  3  4  1  0  0  0  0
  3  5  2  0  0  0  0
  4  5  1  0  0  0  0
  5  8  1  0  0  0  0
  6 10  1  0  0  0  0
  6 11  1  0  0  0  0
  7 12  1  0  0  0  0
  7 13  1  0  0  0  0
  9 14  1  0  0  0  0
  9 19  1  1  0  0  0
 10 15  1  0  0  0  0
 11 16  1  0  0  0  0
 12 17  1  0  0  0  0
 13 18  1  0  0  0  0
 14 20  2  0  0  0  0
 14 21  1  0  0  0  0
 15 22  1  0  0  0  0
 16 22  1  0  0  0  0
 17 23  1  0  0  0  0
 18 23  1  0  0  0  0
 20 24  1  0  0  0  0
 21 25  2  0  0  0  0
 24 26  2  0  0  0  0
 25 26  1  0  0  0  0
M  END
> <PUBCHEM_COMPOUND_ID_TYPE>
0

> <PUBCHEM_TOTAL_CHARGE>
0

> <PUBCHEM_SUBSTANCE_ID>
310938973

> <PUBCHEM_SUBSTANCE_VERSION>
1

> <PUBCHEM_EXT_DATASOURCE_NAME>
4488

> <PUBCHEM_EXT_DATASOURCE_REGID>
SCHEMBL16116892

> <PUBCHEM_SUBSTANCE_COMMENT>
InChI=1S/C24H34N2/c1-18-23(25-19(2)20-12-6-3-7-13-20)24(18)26(21-14-8-4-9-15-21)22-16-10-5-11-17-22/h3,6-7,12-13,19,21-22H,4-5,8-11,14-17H2,1-2H3/b25-23-/t19-/m0/s1
InChIKey=XURUDOOZQVUMCJ-VWOFGYOZSA-N

> <PUBCHEM_SUBSTANCE_SYNONYM>
SCHEMBL16116892

> <PUBCHEM_XREF_EXT_ID>
SCHEMBL16116892

> <PUBCHEM_EXT_DATASOURCE_URL>
https://www.surechembl.org/

> <PUBCHEM_EXT_SUBSTANCE_URL>
https://www.surechembl.org/chemical/SCHEMBL16116892

> <PUBCHEM_CID_ASSOCIATIONS>
117606358  1

> <PUBCHEM_COORDINATE_TYPE>
1
3

> <PUBCHEM_BONDANNOTATIONS>
9  19  5

$$$$
