310947359
  -OEChem-07211613022D

 33 36  0     0  0  0  0  0  0999 V2000
   -2.1753    2.4894    0.0000 O   0  0  0  0  0  0  0  0  0  0  0  0
    4.5238   -0.0988    0.0000 O   0  0  0  0  0  0  0  0  0  0  0  0
    3.2801    1.1449    0.0000 O   0  0  0  0  0  0  0  0  0  0  0  0
   -5.0332    1.6644    0.0000 O   0  0  0  0  0  0  0  0  0  0  0  0
    0.7528    0.1719    0.0000 N   0  0  0  0  0  0  0  0  0  0  0  0
    1.2377    0.8395    0.0000 N   0  0  0  0  0  0  0  0  0  0  0  0
   -2.8897    1.2520    0.0000 N   0  0  0  0  0  0  0  0  0  0  0  0
   -0.0319    0.4269    0.0000 C   0  0  0  0  0  0  0  0  0  0  0  0
   -0.0319    1.2520    0.0000 C   0  0  0  0  0  0  0  0  0  0  0  0
    0.7528    1.5069    0.0000 C   0  0  0  0  0  0  0  0  0  0  0  0
   -0.7464    1.6644    0.0000 C   0  0  0  0  0  0  0  0  0  0  0  0
   -1.4608    1.2520    0.0000 C   0  0  0  0  0  0  0  0  0  0  0  0
   -0.7464    0.0144    0.0000 C   0  0  0  0  0  0  0  0  0  0  0  0
    0.9663   -0.6249    0.0000 C   0  0  0  0  0  0  0  0  0  0  0  0
   -1.4608    0.4269    0.0000 C   0  0  0  0  0  0  0  0  0  0  0  0
    1.7632   -0.8384    0.0000 C   0  0  0  0  0  0  0  0  0  0  0  0
   -2.1753    1.6644    0.0000 C   0  0  0  0  0  0  0  0  0  0  0  0
    3.3569   -1.2655    0.0000 C   0  0  0  0  0  0  0  0  0  0  0  0
    4.1538   -1.4790    0.0000 C   0  0  0  0  0  0  0  0  0  0  0  0
    1.1652    2.2213    0.0000 C   0  0  0  0  0  0  0  0  0  0  0  0
    1.9768   -1.6353    0.0000 C   0  0  0  0  0  0  0  0  0  0  0  0
    2.3466   -0.2550    0.0000 C   0  0  0  0  0  0  0  0  0  0  0  0
    2.7736   -1.8489    0.0000 C   0  0  0  0  0  0  0  0  0  0  0  0
    3.1435   -0.4686    0.0000 C   0  0  0  0  0  0  0  0  0  0  0  0
    4.7372   -0.8957    0.0000 C   0  0  0  0  0  0  0  0  0  0  0  0
    4.3674   -2.2760    0.0000 C   0  0  0  0  0  0  0  0  0  0  0  0
    5.5341   -1.1091    0.0000 C   0  0  0  0  0  0  0  0  0  0  0  0
    5.1643   -2.4894    0.0000 C   0  0  0  0  0  0  0  0  0  0  0  0
    5.7477   -1.9060    0.0000 C   0  0  0  0  0  0  0  0  0  0  0  0
   -3.6042    1.6644    0.0000 C   0  0  0  0  0  0  0  0  0  0  0  0
    3.5430    0.1641    0.0000 C   0  0  0  0  0  0  0  0  0  0  0  0
   -4.3187    1.2520    0.0000 C   0  0  0  0  0  0  0  0  0  0  0  0
   -5.7477    1.2520    0.0000 C   0  0  0  0  0  0  0  0  0  0  0  0
  1 17  2  0  0  0  0
  2 25  1  0  0  0  0
  2 31  1  0  0  0  0
  3 31  2  0  0  0  0
  4 32  1  0  0  0  0
  4 33  1  0  0  0  0
  5  6  1  0  0  0  0
  5  8  1  0  0  0  0
  5 14  1  0  0  0  0
  6 10  2  0  0  0  0
  7 17  1  0  0  0  0
  7 30  1  0  0  0  0
  8  9  1  0  0  0  0
  8 13  2  0  0  0  0
  9 10  1  0  0  0  0
  9 11  2  0  0  0  0
 10 20  1  0  0  0  0
 11 12  1  0  0  0  0
 12 15  2  0  0  0  0
 12 17  1  0  0  0  0
 13 15  1  0  0  0  0
 14 16  1  0  0  0  0
 16 21  2  0  0  0  0
 16 22  1  0  0  0  0
 18 19  1  0  0  0  0
 18 23  2  0  0  0  0
 18 24  1  0  0  0  0
 19 25  1  0  0  0  0
 19 26  2  0  0  0  0
 21 23  1  0  0  0  0
 22 24  2  0  0  0  0
 25 27  2  0  0  0  0
 26 28  1  0  0  0  0
 27 29  1  0  0  0  0
 28 29  2  0  0  0  0
 30 32  1  0  0  0  0
M  END
> <PUBCHEM_COMPOUND_ID_TYPE>
0

> <PUBCHEM_TOTAL_CHARGE>
0

> <PUBCHEM_SUBSTANCE_ID>
310947359

> <PUBCHEM_SUBSTANCE_VERSION>
1

> <PUBCHEM_EXT_DATASOURCE_NAME>
4488

> <PUBCHEM_EXT_DATASOURCE_REGID>
SCHEMBL16125515

> <PUBCHEM_SUBSTANCE_COMMENT>
InChI=1S/C26H25N3O4/c1-18-23-15-21(26(31)27-13-14-32-2)11-12-24(23)29(28-18)16-19-7-9-20(10-8-19)22-5-3-4-6-25(22)33-17-30/h3-12,15,17H,13-14,16H2,1-2H3,(H,27,31)
InChIKey=KOELMIDJUFBPBK-UHFFFAOYSA-N

> <PUBCHEM_SUBSTANCE_SYNONYM>
SCHEMBL16125515

> <PUBCHEM_XREF_EXT_ID>
SCHEMBL16125515

> <PUBCHEM_EXT_DATASOURCE_URL>
https://www.surechembl.org/

> <PUBCHEM_EXT_SUBSTANCE_URL>
https://www.surechembl.org/chemical/SCHEMBL16125515

> <PUBCHEM_CID_ASSOCIATIONS>
117613104  1

> <PUBCHEM_COORDINATE_TYPE>
1
3

$$$$
