310935205
  -OEChem-07211613022D

 23 25  0     1  0  0  0  0  0999 V2000
    0.1119    2.6765    0.0000 F   0  0  0  0  0  0  0  0  0  0  0  0
    3.1270    3.1911    0.0000 O   0  0  0  0  0  0  0  0  0  0  0  0
    4.1889    2.2349    0.0000 O   0  0  0  0  0  0  0  0  0  0  0  0
    2.1874   -0.9282    0.0000 N   0  0  0  0  0  0  0  0  0  0  0  0
    1.5199   -1.4132    0.0000 N   0  0  0  0  0  0  0  0  0  0  0  0
    2.8299    1.7934    0.0000 C   0  0  3  0  0  0  0  0  0  0  0  0
    2.2778    2.4065    0.0000 C   0  0  0  0  0  0  0  0  0  0  0  0
    2.1624    1.3085    0.0000 C   0  0  0  0  0  0  0  0  0  0  0  0
    2.4174    0.5238    0.0000 C   0  0  3  0  0  0  0  0  0  0  0  0
    3.3819    2.4065    0.0000 C   0  0  0  0  0  0  0  0  0  0  0  0
    3.4973    1.3085    0.0000 C   0  0  0  0  0  0  0  0  0  0  0  0
    1.4709    2.2349    0.0000 C   0  0  0  0  0  0  0  0  0  0  0  0
    1.9324   -0.1436    0.0000 C   0  0  0  0  0  0  0  0  0  0  0  0
    3.2424    0.5238    0.0000 C   0  0  0  0  0  0  0  0  0  0  0  0
    2.5328    3.1911    0.0000 C   0  0  0  0  0  0  0  0  0  0  0  0
    0.9188    2.8480    0.0000 C   0  0  0  0  0  0  0  0  0  0  0  0
    1.1074   -0.1436    0.0000 C   0  0  0  0  0  0  0  0  0  0  0  0
    1.9807    3.8042    0.0000 C   0  0  0  0  0  0  0  0  0  0  0  0
    1.1738    3.6327    0.0000 C   0  0  0  0  0  0  0  0  0  0  0  0
    1.2159    1.4503    0.0000 C   0  0  0  0  0  0  0  0  0  0  0  0
    0.8525   -0.9282    0.0000 C   0  0  0  0  0  0  0  0  0  0  0  0
    2.9720   -1.1832    0.0000 C   0  0  0  0  0  0  0  0  0  0  0  0
    3.6790    3.8042    0.0000 C   0  0  0  0  0  0  0  0  0  0  0  0
  1 16  1  0  0  0  0
  2 10  1  0  0  0  0
  2 23  1  0  0  0  0
  3 10  2  0  0  0  0
  4  5  1  0  0  0  0
  4 13  1  0  0  0  0
  4 22  1  0  0  0  0
  5 21  2  0  0  0  0
  6  7  1  0  0  0  0
  6  8  1  0  0  0  0
  6 10  1  1  0  0  0
  6 11  1  0  0  0  0
  7 12  2  0  0  0  0
  7 15  1  0  0  0  0
  8  9  1  0  0  0  0
  9 13  1  0  0  0  0
  9 14  1  0  0  0  0
 11 14  1  0  0  0  0
 12 16  1  0  0  0  0
 12 20  1  0  0  0  0
 13 17  2  0  0  0  0
 15 18  2  0  0  0  0
 16 19  2  0  0  0  0
 17 21  1  0  0  0  0
 18 19  1  0  0  0  0
M  END
> <PUBCHEM_COMPOUND_ID_TYPE>
0

> <PUBCHEM_TOTAL_CHARGE>
0

> <PUBCHEM_SUBSTANCE_ID>
310935205

> <PUBCHEM_SUBSTANCE_VERSION>
1

> <PUBCHEM_EXT_DATASOURCE_NAME>
4488

> <PUBCHEM_EXT_DATASOURCE_REGID>
SCHEMBL16112733

> <PUBCHEM_SUBSTANCE_COMMENT>
InChI=1S/C18H21FN2O2/c1-12-14(5-4-6-15(12)19)18(17(22)23-3)9-7-13(11-18)16-8-10-20-21(16)2/h4-6,8,10,13H,7,9,11H2,1-3H3/t13?,18-/m0/s1
InChIKey=JXSSACOGDAUBNP-UWBLVGDVSA-N

> <PUBCHEM_SUBSTANCE_SYNONYM>
SCHEMBL16112733

> <PUBCHEM_XREF_EXT_ID>
SCHEMBL16112733

> <PUBCHEM_EXT_DATASOURCE_URL>
https://www.surechembl.org/

> <PUBCHEM_EXT_SUBSTANCE_URL>
https://www.surechembl.org/chemical/SCHEMBL16112733

> <PUBCHEM_CID_ASSOCIATIONS>
117603285  1

> <PUBCHEM_COORDINATE_TYPE>
1
3

> <PUBCHEM_BONDANNOTATIONS>
6  10  5

$$$$
