310938122
  -OEChem-07211613022D

 24 27  0     0  0  0  0  0  0999 V2000
    0.7578   -0.4235    0.0000 F   0  0  0  0  0  0  0  0  0  0  0  0
    1.4934   -1.6494    0.0000 F   0  0  0  0  0  0  0  0  0  0  0  0
    1.4711    0.0000    0.0000 F   0  0  0  0  0  0  0  0  0  0  0  0
    2.8975   -0.8024    0.0000 N   0  0  0  0  0  0  0  0  0  0  0  0
    3.5662   -2.8307    0.0000 N   0  0  0  0  0  0  0  0  0  0  0  0
    5.0596   -1.8946    0.0000 N   0  0  0  0  0  0  0  0  0  0  0  0
    5.5277   -1.2259    0.0000 N   0  0  0  0  0  0  0  0  0  0  0  0
    0.7356   -4.4578    0.0000 N   0  0  0  0  0  0  0  0  0  0  0  0
    3.5662   -2.0506    0.0000 C   0  0  0  0  0  0  0  0  0  0  0  0
    2.8975   -1.6271    0.0000 C   0  0  0  0  0  0  0  0  0  0  0  0
    4.2795   -1.6271    0.0000 C   0  0  0  0  0  0  0  0  0  0  0  0
    4.2795   -0.8024    0.0000 C   0  0  0  0  0  0  0  0  0  0  0  0
    3.5662   -0.3789    0.0000 C   0  0  0  0  0  0  0  0  0  0  0  0
    2.1620   -2.0506    0.0000 C   0  0  0  0  0  0  0  0  0  0  0  0
    2.1620   -2.8307    0.0000 C   0  0  0  0  0  0  0  0  0  0  0  0
    2.1843   -0.4012    0.0000 C   0  0  0  0  0  0  0  0  0  0  0  0
    5.0596   -0.5350    0.0000 C   0  0  0  0  0  0  0  0  0  0  0  0
    2.8975   -3.2319    0.0000 C   0  0  0  0  0  0  0  0  0  0  0  0
    1.4711   -0.8247    0.0000 C   0  0  0  0  0  0  0  0  0  0  0  0
    1.4488   -3.2319    0.0000 C   0  0  0  0  0  0  0  0  0  0  0  0
    1.4265   -4.0566    0.0000 C   0  0  0  0  0  0  0  0  0  0  0  0
    0.7132   -2.8307    0.0000 C   0  0  0  0  0  0  0  0  0  0  0  0
    0.0223   -3.2319    0.0000 C   0  0  0  0  0  0  0  0  0  0  0  0
    0.0000   -4.0566    0.0000 C   0  0  0  0  0  0  0  0  0  0  0  0
  1 19  1  0  0  0  0
  2 19  1  0  0  0  0
  3 19  1  0  0  0  0
  4 10  1  0  0  0  0
  4 13  1  0  0  0  0
  4 16  1  0  0  0  0
  5  9  1  0  0  0  0
  5 18  1  0  0  0  0
  6  7  1  0  0  0  0
  6 11  1  0  0  0  0
  7 17  2  0  0  0  0
  8 21  1  0  0  0  0
  8 24  2  0  0  0  0
  9 10  1  0  0  0  0
  9 11  2  0  0  0  0
 10 14  2  0  0  0  0
 11 12  1  0  0  0  0
 12 13  2  0  0  0  0
 12 17  1  0  0  0  0
 14 15  1  0  0  0  0
 15 18  2  0  0  0  0
 15 20  1  0  0  0  0
 16 19  1  0  0  0  0
 20 21  2  0  0  0  0
 20 22  1  0  0  0  0
 22 23  2  0  0  0  0
 23 24  1  0  0  0  0
M  END
> <PUBCHEM_COMPOUND_ID_TYPE>
0

> <PUBCHEM_TOTAL_CHARGE>
0

> <PUBCHEM_SUBSTANCE_ID>
310938122

> <PUBCHEM_SUBSTANCE_VERSION>
1

> <PUBCHEM_EXT_DATASOURCE_NAME>
4488

> <PUBCHEM_EXT_DATASOURCE_REGID>
SCHEMBL16115973

> <PUBCHEM_SUBSTANCE_COMMENT>
InChI=1S/C16H12F3N5/c17-16(18,19)9-24-8-12-7-22-23-14(12)15-13(24)4-11(6-21-15)10-2-1-3-20-5-10/h1-8,21,23H,9H2
InChIKey=AYXWZPHSIMRVCZ-UHFFFAOYSA-N

> <PUBCHEM_SUBSTANCE_SYNONYM>
SCHEMBL16115973

> <PUBCHEM_XREF_EXT_ID>
SCHEMBL16115973

> <PUBCHEM_EXT_DATASOURCE_URL>
https://www.surechembl.org/

> <PUBCHEM_EXT_SUBSTANCE_URL>
https://www.surechembl.org/chemical/SCHEMBL16115973

> <PUBCHEM_CID_ASSOCIATIONS>
117605681  1

> <PUBCHEM_COORDINATE_TYPE>
1
3

$$$$
