310941129
  -OEChem-07211613022D

 36 38  0     1  0  0  0  0  0999 V2000
    1.8142   -1.9057    0.0000 S   0  0  0  0  0  0  0  0  0  0  0  0
    5.0912    0.4711    0.0000 O   0  0  0  0  0  0  0  0  0  0  0  0
    3.9661   -1.4838    0.0000 O   0  0  0  0  0  0  0  0  0  0  0  0
    1.8142    0.5836    0.0000 O   0  0  0  0  0  0  0  0  0  0  0  0
   -0.3516   -1.4838    0.0000 O   0  0  0  0  0  0  0  0  0  0  0  0
   -2.5035    0.5836    0.0000 O   0  0  0  0  0  0  0  0  0  0  0  0
   -5.3725    0.5836    0.0000 O   0  0  0  0  0  0  0  0  0  0  0  0
    2.5316   -0.6540    0.0000 N   0  0  0  0  0  0  0  0  0  0  0  0
    0.3797   -0.2320    0.0000 N   0  0  0  0  0  0  0  0  0  0  0  0
   -1.7721   -0.6540    0.0000 N   0  0  0  0  0  0  0  0  0  0  0  0
   -3.9239   -0.2320    0.0000 N   0  0  0  0  0  0  0  0  0  0  0  0
    4.6693   -0.2039    0.0000 C   0  0  3  0  0  0  0  0  0  0  0  0
    3.9521   -0.6258    0.0000 C   0  0  0  0  0  0  0  0  0  0  0  0
    4.2896    0.4711    0.0000 C   0  0  0  0  0  0  0  0  0  0  0  0
    3.2488   -0.2320    0.0000 C   0  0  3  0  0  0  0  0  0  0  0  0
    5.3725   -0.6258    0.0000 C   0  0  0  0  0  0  0  0  0  0  0  0
    3.2488    1.0900    0.0000 C   0  0  0  0  0  0  0  0  0  0  0  0
    1.8142   -0.2602    0.0000 C   0  0  0  0  0  0  0  0  0  0  0  0
    2.5175    1.5119    0.0000 C   0  0  0  0  0  0  0  0  0  0  0  0
    1.1111   -0.6398    0.0000 C   0  0  3  0  0  0  0  0  0  0  0  0
   -0.3375   -0.6118    0.0000 C   0  0  0  0  0  0  0  0  0  0  0  0
    1.8142    1.1041    0.0000 C   0  0  0  0  0  0  0  0  0  0  0  0
    2.5316    2.3277    0.0000 C   0  0  0  0  0  0  0  0  0  0  0  0
    1.0829   -1.4697    0.0000 C   0  0  0  0  0  0  0  0  0  0  0  0
   -1.0549   -0.2320    0.0000 C   0  0  3  0  0  0  0  0  0  0  0  0
    1.0971    1.5119    0.0000 C   0  0  0  0  0  0  0  0  0  0  0  0
    1.8283    2.7355    0.0000 C   0  0  0  0  0  0  0  0  0  0  0  0
   -2.5035   -0.2461    0.0000 C   0  0  0  0  0  0  0  0  0  0  0  0
    1.0971    2.3277    0.0000 C   0  0  0  0  0  0  0  0  0  0  0  0
   -3.1925   -0.6398    0.0000 C   0  0  0  0  0  0  0  0  0  0  0  0
   -1.0549    0.5977    0.0000 C   0  0  0  0  0  0  0  0  0  0  0  0
   -3.9239    0.5977    0.0000 C   0  0  0  0  0  0  0  0  0  0  0  0
   -4.6271   -0.6398    0.0000 C   0  0  0  0  0  0  0  0  0  0  0  0
   -4.6552    1.0056    0.0000 C   0  0  0  0  0  0  0  0  0  0  0  0
   -5.3585   -0.2320    0.0000 C   0  0  0  0  0  0  0  0  0  0  0  0
    1.8424   -2.7355    0.0000 C   0  0  0  0  0  0  0  0  0  0  0  0
  1 24  1  0  0  0  0
  1 36  1  0  0  0  0
  2 12  1  0  0  0  0
  2 14  1  0  0  0  0
  3 13  2  0  0  0  0
  4 18  2  0  0  0  0
  5 21  2  0  0  0  0
  6 28  2  0  0  0  0
  7 34  1  0  0  0  0
  7 35  1  0  0  0  0
 15  8  1  1  0  0  0
  8 18  1  0  0  0  0
 20  9  1  6  0  0  0
  9 21  1  0  0  0  0
 10 25  1  0  0  0  0
 10 28  1  0  0  0  0
 11 30  1  0  0  0  0
 11 32  1  0  0  0  0
 11 33  1  0  0  0  0
 12 13  1  1  0  0  0
 12 14  1  0  0  0  0
 12 16  1  6  0  0  0
 13 15  1  0  0  0  0
 15 17  1  0  0  0  0
 17 19  1  0  0  0  0
 18 20  1  0  0  0  0
 19 22  2  0  0  0  0
 19 23  1  0  0  0  0
 20 24  1  0  0  0  0
 21 25  1  0  0  0  0
 22 26  1  0  0  0  0
 23 27  2  0  0  0  0
 25 31  1  1  0  0  0
 26 29  2  0  0  0  0
 27 29  1  0  0  0  0
 28 30  1  0  0  0  0
 32 34  1  0  0  0  0
 33 35  1  0  0  0  0
M  END
> <PUBCHEM_COMPOUND_ID_TYPE>
0

> <PUBCHEM_TOTAL_CHARGE>
0

> <PUBCHEM_SUBSTANCE_ID>
310941129

> <PUBCHEM_SUBSTANCE_VERSION>
1

> <PUBCHEM_EXT_DATASOURCE_NAME>
4488

> <PUBCHEM_EXT_DATASOURCE_REGID>
SCHEMBL16119089

> <PUBCHEM_SUBSTANCE_COMMENT>
InChI=1S/C25H36N4O6S/c1-17(26-21(30)14-29-9-11-34-12-10-29)23(32)28-20(15-36-3)24(33)27-19(22(31)25(2)16-35-25)13-18-7-5-4-6-8-18/h4-8,17,19-20H,9-16H2,1-3H3,(H,26,30)(H,27,33)(H,28,32)/t17-,19-,20-,25+/m0/s1
InChIKey=PZYAGDBYDVZSRI-YMGHSFPGSA-N

> <PUBCHEM_SUBSTANCE_SYNONYM>
SCHEMBL16119089

> <PUBCHEM_XREF_EXT_ID>
SCHEMBL16119089

> <PUBCHEM_EXT_DATASOURCE_URL>
https://www.surechembl.org/

> <PUBCHEM_EXT_SUBSTANCE_URL>
https://www.surechembl.org/chemical/SCHEMBL16119089

> <PUBCHEM_CID_ASSOCIATIONS>
117608012  1

> <PUBCHEM_COORDINATE_TYPE>
1
3

> <PUBCHEM_BONDANNOTATIONS>
12  13  5
12  16  6
25  31  5
15  8  5
20  9  6

$$$$
