310945446
  -OEChem-07211613022D

 28 31  0     0  0  0  0  0  0999 V2000
    3.0222   -2.1303    0.0000 S   0  0  0  0  0  0  0  0  0  0  0  0
    0.7880    1.4548    0.0000 F   0  0  0  0  0  0  0  0  0  0  0  0
    1.5847    2.3381    0.0000 F   0  0  0  0  0  0  0  0  0  0  0  0
    2.3987    1.4548    0.0000 F   0  0  0  0  0  0  0  0  0  0  0  0
   -3.4033   -1.2297    0.0000 F   0  0  0  0  0  0  0  0  0  0  0  0
   -4.1826   -0.3464    0.0000 F   0  0  0  0  0  0  0  0  0  0  0  0
   -3.4033    0.5542    0.0000 F   0  0  0  0  0  0  0  0  0  0  0  0
    0.1472    0.3810    0.0000 N   0  0  0  0  0  0  0  0  0  0  0  0
    0.1472   -1.0738    0.0000 N   0  0  0  0  0  0  0  0  0  0  0  0
    2.2775    0.1040    0.0000 N   0  0  0  0  0  0  0  0  0  0  0  0
    1.5674   -1.2297    0.0000 N   0  0  0  0  0  0  0  0  0  0  0  0
   -2.2428   -1.1258    0.0000 N   0  0  0  0  0  0  0  0  0  0  0  0
    0.8919    0.0693    0.0000 C   0  0  0  0  0  0  0  0  0  0  0  0
    1.5501    0.5369    0.0000 C   0  0  0  0  0  0  0  0  0  0  0  0
    0.8573   -0.8140    0.0000 C   0  0  0  0  0  0  0  0  0  0  0  0
   -0.3031   -0.3810    0.0000 C   0  0  0  0  0  0  0  0  0  0  0  0
    2.2602   -0.8140    0.0000 C   0  0  0  0  0  0  0  0  0  0  0  0
    1.5674    1.4375    0.0000 C   0  0  0  0  0  0  0  0  0  0  0  0
   -1.0824   -0.3464    0.0000 C   0  0  0  0  0  0  0  0  0  0  0  0
    2.9357   -1.2643    0.0000 C   0  0  0  0  0  0  0  0  0  0  0  0
   -1.4635   -1.1258    0.0000 C   0  0  0  0  0  0  0  0  0  0  0  0
   -1.4635    0.3983    0.0000 C   0  0  0  0  0  0  0  0  0  0  0  0
   -2.6412   -0.3637    0.0000 C   0  0  0  0  0  0  0  0  0  0  0  0
    3.6630   -0.9180    0.0000 C   0  0  0  0  0  0  0  0  0  0  0  0
   -2.2428    0.3983    0.0000 C   0  0  0  0  0  0  0  0  0  0  0  0
   -3.4206   -0.3637    0.0000 C   0  0  0  0  0  0  0  0  0  0  0  0
    3.8016   -2.3381    0.0000 C   0  0  0  0  0  0  0  0  0  0  0  0
    4.1826   -1.5588    0.0000 C   0  0  0  0  0  0  0  0  0  0  0  0
  1 20  1  0  0  0  0
  1 27  1  0  0  0  0
  2 18  1  0  0  0  0
  3 18  1  0  0  0  0
  4 18  1  0  0  0  0
  5 26  1  0  0  0  0
  6 26  1  0  0  0  0
  7 26  1  0  0  0  0
  8 13  1  0  0  0  0
  8 16  2  0  0  0  0
  9 15  1  0  0  0  0
  9 16  1  0  0  0  0
 10 14  2  0  0  0  0
 10 17  1  0  0  0  0
 11 15  1  0  0  0  0
 11 17  2  0  0  0  0
 12 21  2  0  0  0  0
 12 23  1  0  0  0  0
 13 14  1  0  0  0  0
 13 15  2  0  0  0  0
 14 18  1  0  0  0  0
 16 19  1  0  0  0  0
 17 20  1  0  0  0  0
 19 21  1  0  0  0  0
 19 22  2  0  0  0  0
 20 24  2  0  0  0  0
 22 25  1  0  0  0  0
 23 25  2  0  0  0  0
 23 26  1  0  0  0  0
 24 28  1  0  0  0  0
 27 28  2  0  0  0  0
M  END
> <PUBCHEM_COMPOUND_ID_TYPE>
0

> <PUBCHEM_TOTAL_CHARGE>
0

> <PUBCHEM_SUBSTANCE_ID>
310945446

> <PUBCHEM_SUBSTANCE_VERSION>
1

> <PUBCHEM_EXT_DATASOURCE_NAME>
4488

> <PUBCHEM_EXT_DATASOURCE_REGID>
SCHEMBL16123544

> <PUBCHEM_SUBSTANCE_COMMENT>
InChI=1S/C16H7F6N5S/c17-15(18,19)9-4-3-7(6-23-9)12-24-10-11(16(20,21)22)25-13(27-14(10)26-12)8-2-1-5-28-8/h1-6H,(H,24,25,26,27)
InChIKey=CKVPAAHAIUDVPG-UHFFFAOYSA-N

> <PUBCHEM_SUBSTANCE_SYNONYM>
SCHEMBL16123544

> <PUBCHEM_XREF_EXT_ID>
SCHEMBL16123544

> <PUBCHEM_EXT_DATASOURCE_URL>
https://www.surechembl.org/

> <PUBCHEM_EXT_SUBSTANCE_URL>
https://www.surechembl.org/chemical/SCHEMBL16123544

> <PUBCHEM_CID_ASSOCIATIONS>
117611491  1

> <PUBCHEM_COORDINATE_TYPE>
1
3

$$$$
