310942885
  -OEChem-07211613022D

 44 47  0     1  0  0  0  0  0999 V2000
   -5.9000    0.2248    0.0000 Cl  0  0  0  0  0  0  0  0  0  0  0  0
   -2.7720    2.7346    0.0000 O   0  0  0  0  0  0  0  0  0  0  0  0
   -2.7533   -0.6181    0.0000 O   0  0  0  0  0  0  0  0  0  0  0  0
    3.7273   -1.8730    0.0000 O   0  0  0  0  0  0  0  0  0  0  0  0
   -2.0417    1.4797    0.0000 N   0  0  0  0  0  0  0  0  0  0  0  0
   -2.7533    0.2248    0.0000 N   0  0  0  0  0  0  0  0  0  0  0  0
   -1.3298   -0.5994    0.0000 N   0  0  0  0  0  0  0  0  0  0  0  0
    1.5546   -0.5994    0.0000 N   0  0  0  0  0  0  0  0  0  0  0  0
    4.4390   -0.5994    0.0000 N   0  0  0  0  0  0  0  0  0  0  0  0
   -2.0604    0.6556    0.0000 C   0  0  0  0  0  0  0  0  0  0  0  0
   -1.3111    0.2435    0.0000 C   0  0  3  0  0  0  0  0  0  0  0  0
   -3.4838    1.4797    0.0000 C   0  0  0  0  0  0  0  0  0  0  0  0
   -2.7908    1.8918    0.0000 C   0  0  0  0  0  0  0  0  0  0  0  0
   -3.5026    0.6556    0.0000 C   0  0  0  0  0  0  0  0  0  0  0  0
   -1.3298    1.8918    0.0000 C   0  0  0  0  0  0  0  0  0  0  0  0
   -0.5994    0.6556    0.0000 C   0  0  0  0  0  0  0  0  0  0  0  0
   -2.0229   -1.0301    0.0000 C   0  0  0  0  0  0  0  0  0  0  0  0
   -4.1955    0.2435    0.0000 C   0  0  0  0  0  0  0  0  0  0  0  0
   -4.2330    1.8918    0.0000 C   0  0  0  0  0  0  0  0  0  0  0  0
   -4.9261    0.6556    0.0000 C   0  0  0  0  0  0  0  0  0  0  0  0
   -1.3111    2.7533    0.0000 C   0  0  0  0  0  0  0  0  0  0  0  0
   -4.9074    1.4797    0.0000 C   0  0  0  0  0  0  0  0  0  0  0  0
   -2.0604   -1.8543    0.0000 C   0  0  0  0  0  0  0  0  0  0  0  0
   -0.5994   -1.0301    0.0000 C   0  0  0  0  0  0  0  0  0  0  0  0
   -0.5807    1.4984    0.0000 C   0  0  0  0  0  0  0  0  0  0  0  0
    0.1499    0.2248    0.0000 C   0  0  0  0  0  0  0  0  0  0  0  0
   -2.7346   -2.2664    0.0000 C   0  0  0  0  0  0  0  0  0  0  0  0
   -1.3298   -2.2851    0.0000 C   0  0  0  0  0  0  0  0  0  0  0  0
   -0.5994    3.1467    0.0000 C   0  0  0  0  0  0  0  0  0  0  0  0
   -2.0229    3.1467    0.0000 C   0  0  0  0  0  0  0  0  0  0  0  0
    0.0937   -0.6181    0.0000 C   0  0  0  0  0  0  0  0  0  0  0  0
   -2.7346   -3.1092    0.0000 C   0  0  0  0  0  0  0  0  0  0  0  0
   -1.3298   -3.1092    0.0000 C   0  0  0  0  0  0  0  0  0  0  0  0
   -2.0229   -3.5213    0.0000 C   0  0  0  0  0  0  0  0  0  0  0  0
   -0.5994    3.9895    0.0000 C   0  0  0  0  0  0  0  0  0  0  0  0
   -2.0229    3.9895    0.0000 C   0  0  0  0  0  0  0  0  0  0  0  0
    0.8428   -1.0301    0.0000 C   0  0  0  0  0  0  0  0  0  0  0  0
   -1.3111    4.3828    0.0000 C   0  0  0  0  0  0  0  0  0  0  0  0
   -2.0229   -4.3828    0.0000 C   0  0  0  0  0  0  0  0  0  0  0  0
    2.2851   -1.0301    0.0000 C   0  0  0  0  0  0  0  0  0  0  0  0
    2.9781   -0.6181    0.0000 C   0  0  0  0  0  0  0  0  0  0  0  0
    3.7273   -0.9927    0.0000 C   0  0  0  0  0  0  0  0  0  0  0  0
    5.1696   -1.0301    0.0000 C   0  0  0  0  0  0  0  0  0  0  0  0
    5.9000   -0.6369    0.0000 C   0  0  0  0  0  0  0  0  0  0  0  0
  1 20  1  0  0  0  0
  2 13  2  0  0  0  0
  3 17  2  0  0  0  0
  4 42  2  0  0  0  0
  5 10  1  0  0  0  0
  5 13  1  0  0  0  0
  5 15  1  0  0  0  0
  6 10  2  0  0  0  0
  6 14  1  0  0  0  0
 11  7  1  1  0  0  0
  7 17  1  0  0  0  0
  7 24  1  0  0  0  0
  8 37  1  0  0  0  0
  8 40  1  0  0  0  0
  9 42  1  0  0  0  0
  9 43  1  0  0  0  0
 10 11  1  0  0  0  0
 11 16  1  0  0  0  0
 12 13  1  0  0  0  0
 12 14  2  0  0  0  0
 12 19  1  0  0  0  0
 14 18  1  0  0  0  0
 15 21  1  0  0  0  0
 16 25  1  0  0  0  0
 16 26  1  0  0  0  0
 17 23  1  0  0  0  0
 18 20  2  0  0  0  0
 19 22  2  0  0  0  0
 20 22  1  0  0  0  0
 21 29  2  0  0  0  0
 21 30  1  0  0  0  0
 23 27  2  0  0  0  0
 23 28  1  0  0  0  0
 24 31  1  0  0  0  0
 27 32  1  0  0  0  0
 28 33  2  0  0  0  0
 29 35  1  0  0  0  0
 30 36  2  0  0  0  0
 31 37  1  0  0  0  0
 32 34  2  0  0  0  0
 33 34  1  0  0  0  0
 34 39  1  0  0  0  0
 35 38  2  0  0  0  0
 36 38  1  0  0  0  0
 40 41  1  0  0  0  0
 41 42  1  0  0  0  0
 43 44  1  0  0  0  0
M  END
> <PUBCHEM_COMPOUND_ID_TYPE>
0

> <PUBCHEM_TOTAL_CHARGE>
0

> <PUBCHEM_SUBSTANCE_ID>
310942885

> <PUBCHEM_SUBSTANCE_VERSION>
1

> <PUBCHEM_EXT_DATASOURCE_NAME>
4488

> <PUBCHEM_EXT_DATASOURCE_REGID>
SCHEMBL16120943

> <PUBCHEM_SUBSTANCE_COMMENT>
InChI=1S/C35H42ClN5O3/c1-5-38-31(42)18-20-37-19-9-21-40(34(43)27-14-12-25(4)13-15-27)32(24(2)3)33-39-30-22-28(36)16-17-29(30)35(44)41(33)23-26-10-7-6-8-11-26/h6-8,10-17,22,24,32,37H,5,9,18-21,23H2,1-4H3,(H,38,42)/t32-/m1/s1
InChIKey=NJYCARRNAOFPPR-JGCGQSQUSA-N

> <PUBCHEM_SUBSTANCE_SYNONYM>
SCHEMBL16120943

> <PUBCHEM_XREF_EXT_ID>
SCHEMBL16120943

> <PUBCHEM_EXT_DATASOURCE_URL>
https://www.surechembl.org/

> <PUBCHEM_EXT_SUBSTANCE_URL>
https://www.surechembl.org/chemical/SCHEMBL16120943

> <PUBCHEM_CID_ASSOCIATIONS>
117609371  1

> <PUBCHEM_COORDINATE_TYPE>
1
3

> <PUBCHEM_BONDANNOTATIONS>
11  7  5

$$$$
