310944579
  -OEChem-07211613022D

 25 28  0     1  0  0  0  0  0999 V2000
    2.9027    1.2767    0.0000 O   0  0  0  0  0  0  0  0  0  0  0  0
    0.7122   -0.0269    0.0000 N   0  0  0  0  0  0  0  0  0  0  0  0
   -2.2039   -0.0269    0.0000 N   0  0  0  0  0  0  0  0  0  0  0  0
   -2.2980    0.8063    0.0000 N   0  0  0  0  0  0  0  0  0  0  0  0
    1.4514   -0.3897    0.0000 C   0  0  3  0  0  0  0  0  0  0  0  0
    0.7257    0.8466    0.0000 C   0  0  3  0  0  0  0  0  0  0  0  0
   -2.9968   -0.3494    0.0000 C   0  0  0  0  0  0  0  0  0  0  0  0
    2.1636    0.8466    0.0000 C   0  0  0  0  0  0  0  0  0  0  0  0
    1.4245    1.2498    0.0000 C   0  0  0  0  0  0  0  0  0  0  0  0
    2.1501    0.0000    0.0000 C   0  0  0  0  0  0  0  0  0  0  0  0
   -0.0403   -0.4300    0.0000 C   0  0  0  0  0  0  0  0  0  0  0  0
    1.6529    0.0537    0.0000 C   0  0  0  0  0  0  0  0  0  0  0  0
    1.2498    0.7391    0.0000 C   0  0  0  0  0  0  0  0  0  0  0  0
   -3.5612    0.2687    0.0000 C   0  0  0  0  0  0  0  0  0  0  0  0
   -0.7795   -0.0134    0.0000 C   0  0  3  0  0  0  0  0  0  0  0  0
   -1.4648   -0.4166    0.0000 C   0  0  0  0  0  0  0  0  0  0  0  0
   -3.1312    1.0079    0.0000 C   0  0  0  0  0  0  0  0  0  0  0  0
   -3.2522   -1.1557    0.0000 C   0  0  0  0  0  0  0  0  0  0  0  0
   -4.3675    0.0941    0.0000 C   0  0  0  0  0  0  0  0  0  0  0  0
   -4.0853   -1.3170    0.0000 C   0  0  0  0  0  0  0  0  0  0  0  0
   -4.6229   -0.7122    0.0000 C   0  0  0  0  0  0  0  0  0  0  0  0
   -0.7660    0.7660    0.0000 C   0  0  0  0  0  0  0  0  0  0  0  0
    3.4941    0.9676    0.0000 C   0  0  0  0  0  0  0  0  0  0  0  0
    4.0450    1.3170    0.0000 C   0  0  0  0  0  0  0  0  0  0  0  0
    4.6229    0.9273    0.0000 C   0  0  0  0  0  0  0  0  0  0  0  0
  8  1  1  1  0  0  0
  1 23  1  0  0  0  0
  5  2  1  6  0  0  0
  6  2  1  6  0  0  0
  2 11  1  0  0  0  0
  3  4  1  0  0  0  0
  3  7  1  0  0  0  0
  3 16  1  0  0  0  0
  4 17  2  0  0  0  0
  5 10  1  0  0  0  0
  5 12  1  0  0  0  0
  6  9  1  0  0  0  0
  6 13  1  0  0  0  0
  7 14  2  0  0  0  0
  7 18  1  0  0  0  0
  8  9  1  0  0  0  0
  8 10  1  0  0  0  0
 11 15  1  0  0  0  0
 12 13  1  0  0  0  0
 14 17  1  0  0  0  0
 14 19  1  0  0  0  0
 15 16  1  0  0  0  0
 15 22  1  6  0  0  0
 18 20  2  0  0  0  0
 19 21  2  0  0  0  0
 20 21  1  0  0  0  0
 23 24  1  0  0  0  0
 24 25  2  0  0  0  0
M  END
> <PUBCHEM_COMPOUND_ID_TYPE>
0

> <PUBCHEM_TOTAL_CHARGE>
0

> <PUBCHEM_SUBSTANCE_ID>
310944579

> <PUBCHEM_SUBSTANCE_VERSION>
1

> <PUBCHEM_EXT_DATASOURCE_NAME>
4488

> <PUBCHEM_EXT_DATASOURCE_REGID>
SCHEMBL16122657

> <PUBCHEM_SUBSTANCE_COMMENT>
InChI=1S/C21H29N3O/c1-3-10-25-20-11-18-8-9-19(12-20)23(18)14-16(2)15-24-21-7-5-4-6-17(21)13-22-24/h3-7,13,16,18-20H,1,8-12,14-15H2,2H3/t16-,18-,19+,20+/m1/s1
InChIKey=KPLBEVLULCOABA-LMCOJAPRSA-N

> <PUBCHEM_SUBSTANCE_SYNONYM>
SCHEMBL16122657

> <PUBCHEM_XREF_EXT_ID>
SCHEMBL16122657

> <PUBCHEM_EXT_DATASOURCE_URL>
https://www.surechembl.org/

> <PUBCHEM_EXT_SUBSTANCE_URL>
https://www.surechembl.org/chemical/SCHEMBL16122657

> <PUBCHEM_CID_ASSOCIATIONS>
117610810  1

> <PUBCHEM_COORDINATE_TYPE>
1
3

> <PUBCHEM_BONDANNOTATIONS>
8  1  5
15  22  6
5  2  6
6  2  6

$$$$
