310947360
  -OEChem-07211613022D

 35 38  0     0  0  0  0  0  0999 V2000
    2.7470   -3.3204    0.0000 O   0  0  0  0  0  0  0  0  0  0  0  0
   -4.7341   -1.3980    0.0000 O   0  0  0  0  0  0  0  0  0  0  0  0
   -5.4486   -2.6355    0.0000 O   0  0  0  0  0  0  0  0  0  0  0  0
    1.3669   -3.6902    0.0000 O   0  0  0  0  0  0  0  0  0  0  0  0
   -1.8061   -3.7154    0.0000 N   0  0  0  0  0  0  0  0  0  0  0  0
   -1.3212   -3.0480    0.0000 N   0  0  0  0  0  0  0  0  0  0  0  0
   -2.5907   -2.6355    0.0000 C   0  0  0  0  0  0  0  0  0  0  0  0
   -2.5907   -3.4605    0.0000 C   0  0  0  0  0  0  0  0  0  0  0  0
   -1.8061   -2.3806    0.0000 C   0  0  0  0  0  0  0  0  0  0  0  0
   -3.3052   -2.2230    0.0000 C   0  0  0  0  0  0  0  0  0  0  0  0
   -3.3052   -3.8730    0.0000 C   0  0  0  0  0  0  0  0  0  0  0  0
   -4.0197   -2.6355    0.0000 C   0  0  0  0  0  0  0  0  0  0  0  0
   -1.3936   -4.4299    0.0000 C   0  0  0  0  0  0  0  0  0  0  0  0
   -1.5926   -1.5837    0.0000 C   0  0  0  0  0  0  0  0  0  0  0  0
   -0.5967   -4.6434    0.0000 C   0  0  0  0  0  0  0  0  0  0  0  0
   -4.0197   -3.4605    0.0000 C   0  0  0  0  0  0  0  0  0  0  0  0
    1.7939   -5.2840    0.0000 C   0  0  0  0  0  0  0  0  0  0  0  0
    0.9969   -5.0705    0.0000 C   0  0  0  0  0  0  0  0  0  0  0  0
    2.3773   -4.7007    0.0000 C   0  0  0  0  0  0  0  0  0  0  0  0
   -4.7341   -2.2230    0.0000 C   0  0  0  0  0  0  0  0  0  0  0  0
   -0.3832   -5.4403    0.0000 C   0  0  0  0  0  0  0  0  0  0  0  0
   -0.0135   -4.0601    0.0000 C   0  0  0  0  0  0  0  0  0  0  0  0
    0.4137   -5.6538    0.0000 C   0  0  0  0  0  0  0  0  0  0  0  0
    0.7835   -4.2736    0.0000 C   0  0  0  0  0  0  0  0  0  0  0  0
    2.1636   -3.9038    0.0000 C   0  0  0  0  0  0  0  0  0  0  0  0
    2.0073   -6.0809    0.0000 C   0  0  0  0  0  0  0  0  0  0  0  0
    3.1741   -4.9141    0.0000 C   0  0  0  0  0  0  0  0  0  0  0  0
   -2.1760   -1.0004    0.0000 C   0  0  0  0  0  0  0  0  0  0  0  0
   -0.7958   -1.3702    0.0000 C   0  0  0  0  0  0  0  0  0  0  0  0
    2.8042   -6.2944    0.0000 C   0  0  0  0  0  0  0  0  0  0  0  0
    3.3876   -5.7111    0.0000 C   0  0  0  0  0  0  0  0  0  0  0  0
    2.5335   -2.5235    0.0000 C   0  0  0  0  0  0  0  0  0  0  0  0
    3.1168   -1.9401    0.0000 C   0  0  0  0  0  0  0  0  0  0  0  0
    1.7367   -2.3101    0.0000 C   0  0  0  0  0  0  0  0  0  0  0  0
    2.3201   -1.7266    0.0000 C   0  0  0  0  0  0  0  0  0  0  0  0
  1 25  1  0  0  0  0
  1 32  1  0  0  0  0
  2 20  2  0  0  0  0
  3 20  1  0  0  0  0
  4 25  2  0  0  0  0
  5  6  1  0  0  0  0
  5  8  1  0  0  0  0
  5 13  1  0  0  0  0
  6  9  2  0  0  0  0
  7  8  1  0  0  0  0
  7  9  1  0  0  0  0
  7 10  2  0  0  0  0
  8 11  2  0  0  0  0
  9 14  1  0  0  0  0
 10 12  1  0  0  0  0
 11 16  1  0  0  0  0
 12 16  2  0  0  0  0
 12 20  1  0  0  0  0
 13 15  1  0  0  0  0
 14 28  1  0  0  0  0
 14 29  1  0  0  0  0
 15 21  2  0  0  0  0
 15 22  1  0  0  0  0
 17 18  1  0  0  0  0
 17 19  1  0  0  0  0
 17 26  2  0  0  0  0
 18 23  2  0  0  0  0
 18 24  1  0  0  0  0
 19 25  1  0  0  0  0
 19 27  2  0  0  0  0
 21 23  1  0  0  0  0
 22 24  2  0  0  0  0
 26 30  1  0  0  0  0
 27 31  1  0  0  0  0
 30 31  2  0  0  0  0
 32 33  1  0  0  0  0
 32 34  1  0  0  0  0
 32 35  1  0  0  0  0
M  END
> <PUBCHEM_COMPOUND_ID_TYPE>
0

> <PUBCHEM_TOTAL_CHARGE>
0

> <PUBCHEM_SUBSTANCE_ID>
310947360

> <PUBCHEM_SUBSTANCE_VERSION>
1

> <PUBCHEM_EXT_DATASOURCE_NAME>
4488

> <PUBCHEM_EXT_DATASOURCE_REGID>
SCHEMBL16125516

> <PUBCHEM_SUBSTANCE_COMMENT>
InChI=1S/C29H30N2O4/c1-18(2)26-24-16-21(27(32)33)14-15-25(24)31(30-26)17-19-10-12-20(13-11-19)22-8-6-7-9-23(22)28(34)35-29(3,4)5/h6-16,18H,17H2,1-5H3,(H,32,33)
InChIKey=MKBYFWSRFMVMKY-UHFFFAOYSA-N

> <PUBCHEM_SUBSTANCE_SYNONYM>
SCHEMBL16125516

> <PUBCHEM_XREF_EXT_ID>
SCHEMBL16125516

> <PUBCHEM_EXT_DATASOURCE_URL>
https://www.surechembl.org/

> <PUBCHEM_EXT_SUBSTANCE_URL>
https://www.surechembl.org/chemical/SCHEMBL16125516

> <PUBCHEM_CID_ASSOCIATIONS>
117613105  1

> <PUBCHEM_COORDINATE_TYPE>
1
3

$$$$
