310929811
  -OEChem-07211613022D

 64 72  0     1  0  0  0  0  0999 V2000
    9.9550   -7.2600    0.0000 Br  0  0  0  0  0  0  0  0  0  0  0  0
    1.5400   -1.3750    0.0000 S   0  0  0  0  0  0  0  0  0  0  0  0
    2.9700   -0.5500    0.0000 O   0  0  0  0  0  0  0  0  0  0  0  0
    5.0050   -2.8050    0.0000 O   0  0  0  0  0  0  0  0  0  0  0  0
    6.1050   -5.2250    0.0000 O   0  0  0  0  0  0  0  0  0  0  0  0
    1.9250   -0.6600    0.0000 O   0  0  0  0  0  0  0  0  0  0  0  0
    1.1000   -2.0900    0.0000 O   0  0  0  0  0  0  0  0  0  0  0  0
    2.0350   -3.6300    0.0000 O   0  0  0  0  0  0  0  0  0  0  0  0
    7.0950   -8.0850    0.0000 O   0  0  0  0  0  0  0  0  0  0  0  0
    1.5400   -7.2600    0.0000 O   0  0  0  0  0  0  0  0  0  0  0  0
    0.6050   -6.3800    0.0000 O   0  0  0  0  0  0  0  0  0  0  0  0
    3.5750   -2.6400    0.0000 N   0  0  0  0  0  0  0  0  0  0  0  0
    2.2550   -1.8150    0.0000 N   0  0  0  0  0  0  0  0  0  0  0  0
    3.3000   -3.9600    0.0000 N   0  0  0  0  0  0  0  0  0  0  0  0
    7.0950   -5.6100    0.0000 N   0  0  0  0  0  0  0  0  0  0  0  0
    1.5400   -5.6100    0.0000 N   0  0  0  0  0  0  0  0  0  0  0  0
    3.6850   -1.8150    0.0000 C   0  0  3  0  0  0  0  0  0  0  0  0
    3.9050   -0.9900    0.0000 C   0  0  3  0  0  0  0  0  0  0  0  0
    4.5100   -1.5950    0.0000 C   0  0  0  0  0  0  0  0  0  0  0  0
    2.9700   -1.3750    0.0000 C   0  0  0  0  0  0  0  0  0  0  0  0
    4.2350   -3.1350    0.0000 C   0  0  0  0  0  0  0  0  0  0  0  0
    3.6850   -0.2200    0.0000 C   0  0  0  0  0  0  0  0  0  0  0  0
    4.1800   -3.9600    0.0000 C   0  0  3  0  0  0  0  0  0  0  0  0
    0.8250   -0.9900    0.0000 C   0  0  0  0  0  0  0  0  0  0  0  0
    4.9500   -4.1250    0.0000 C   0  0  0  0  0  0  0  0  0  0  0  0
    5.6100   -4.5100    0.0000 C   0  0  3  0  0  0  0  0  0  0  0  0
    4.6200   -3.5750    0.0000 C   0  0  0  0  0  0  0  0  0  0  0  0
    2.4750   -4.3450    0.0000 C   0  0  0  0  0  0  0  0  0  0  0  0
    0.0000   -0.9900    0.0000 C   0  0  0  0  0  0  0  0  0  0  0  0
    0.3850   -0.2750    0.0000 C   0  0  0  0  0  0  0  0  0  0  0  0
    6.3800   -5.9950    0.0000 C   0  0  0  0  0  0  0  0  0  0  0  0
    1.9250   -4.8950    0.0000 C   0  0  3  0  0  0  0  0  0  0  0  0
    2.8600    0.0000    0.0000 C   0  0  0  0  0  0  0  0  0  0  0  0
    6.3800   -6.8750    0.0000 C   0  0  0  0  0  0  0  0  0  0  0  0
    7.0950   -7.2600    0.0000 C   0  0  0  0  0  0  0  0  0  0  0  0
    7.7550   -6.8750    0.0000 C   0  0  0  0  0  0  0  0  0  0  0  0
    7.7550   -5.9950    0.0000 C   0  0  0  0  0  0  0  0  0  0  0  0
    1.2650   -4.4000    0.0000 C   0  0  0  0  0  0  0  0  0  0  0  0
    8.5250   -7.2600    0.0000 C   0  0  0  0  0  0  0  0  0  0  0  0
    6.1050   -7.6450    0.0000 C   0  0  0  0  0  0  0  0  0  0  0  0
    8.5250   -5.6100    0.0000 C   0  0  0  0  0  0  0  0  0  0  0  0
    9.2400   -6.8750    0.0000 C   0  0  0  0  0  0  0  0  0  0  0  0
    9.2400   -5.9950    0.0000 C   0  0  0  0  0  0  0  0  0  0  0  0
    0.4400   -4.6750    0.0000 C   0  0  0  0  0  0  0  0  0  0  0  0
    1.2650   -3.5750    0.0000 C   0  0  0  0  0  0  0  0  0  0  0  0
    1.4300   -6.3800    0.0000 C   0  0  0  0  0  0  0  0  0  0  0  0
    6.3800   -8.5250    0.0000 C   0  0  0  0  0  0  0  0  0  0  0  0
    5.6100   -8.2500    0.0000 C   0  0  0  0  0  0  0  0  0  0  0  0
    0.0000   -3.9600    0.0000 C   0  0  0  0  0  0  0  0  0  0  0  0
    0.4950   -3.3000    0.0000 C   0  0  0  0  0  0  0  0  0  0  0  0
    6.3800   -9.3500    0.0000 C   0  0  0  0  0  0  0  0  0  0  0  0
    1.9250   -7.9750    0.0000 C   0  0  3  0  0  0  0  0  0  0  0  0
    2.4750   -8.5250    0.0000 C   0  0  3  0  0  0  0  0  0  0  0  0
    4.7850   -8.4150    0.0000 C   0  0  0  0  0  0  0  0  0  0  0  0
    1.2100   -8.3600    0.0000 C   0  0  0  0  0  0  0  0  0  0  0  0
    3.3000   -8.8000    0.0000 C   0  0  0  0  0  0  0  0  0  0  0  0
    5.6650   -9.7350    0.0000 C   0  0  0  0  0  0  0  0  0  0  0  0
    7.0950   -9.7350    0.0000 C   0  0  0  0  0  0  0  0  0  0  0  0
    4.1800   -8.9100    0.0000 C   0  0  0  0  0  0  0  0  0  0  0  0
    2.2000   -9.2950    0.0000 C   0  0  0  0  0  0  0  0  0  0  0  0
    1.3200   -9.2400    0.0000 C   0  0  0  0  0  0  0  0  0  0  0  0
    5.6650  -10.6150    0.0000 C   0  0  0  0  0  0  0  0  0  0  0  0
    7.0950  -10.6150    0.0000 C   0  0  0  0  0  0  0  0  0  0  0  0
    6.3800  -11.0000    0.0000 C   0  0  0  0  0  0  0  0  0  0  0  0
  1 42  1  0  0  0  0
  2  6  2  0  0  0  0
  2  7  2  0  0  0  0
  2 13  1  0  0  0  0
  2 24  1  0  0  0  0
  3 20  2  0  0  0  0
  4 21  2  0  0  0  0
  5 26  1  0  0  0  0
  5 31  1  0  0  0  0
  8 28  2  0  0  0  0
  9 35  1  0  0  0  0
  9 47  1  0  0  0  0
 10 46  1  0  0  0  0
 10 52  1  0  0  0  0
 11 46  2  0  0  0  0
 17 12  1  1  0  0  0
 12 21  1  0  0  0  0
 13 20  1  0  0  0  0
 14 23  1  0  0  0  0
 14 27  1  0  0  0  0
 14 28  1  0  0  0  0
 15 31  1  0  0  0  0
 15 37  2  0  0  0  0
 16 32  1  0  0  0  0
 16 46  1  0  0  0  0
 17 18  1  0  0  0  0
 17 19  1  0  0  0  0
 17 20  1  6  0  0  0
 18 19  1  0  0  0  0
 18 22  1  6  0  0  0
 23 21  1  6  0  0  0
 22 33  2  0  0  0  0
 23 25  1  0  0  0  0
 24 29  1  0  0  0  0
 24 30  1  0  0  0  0
 26 25  1  1  0  0  0
 26 27  1  0  0  0  0
 32 28  1  1  0  0  0
 29 30  1  0  0  0  0
 31 34  2  0  0  0  0
 32 38  1  0  0  0  0
 34 35  1  0  0  0  0
 34 40  1  0  0  0  0
 35 36  2  0  0  0  0
 36 37  1  0  0  0  0
 36 39  1  0  0  0  0
 37 41  1  0  0  0  0
 38 44  1  0  0  0  0
 38 45  1  0  0  0  0
 39 42  2  0  0  0  0
 40 48  1  0  0  0  0
 41 43  2  0  0  0  0
 42 43  1  0  0  0  0
 44 49  1  0  0  0  0
 45 50  1  0  0  0  0
 47 51  1  0  0  0  0
 48 54  2  0  0  0  0
 49 50  1  0  0  0  0
 51 57  2  0  0  0  0
 51 58  1  0  0  0  0
 52 53  1  0  0  0  0
 52 55  1  1  0  0  0
 53 56  1  0  0  0  0
 53 60  1  6  0  0  0
 54 59  1  0  0  0  0
 55 61  1  0  0  0  0
 56 59  1  0  0  0  0
 57 62  1  0  0  0  0
 58 63  2  0  0  0  0
 60 61  1  0  0  0  0
 62 64  2  0  0  0  0
 63 64  1  0  0  0  0
M  END
> <PUBCHEM_COMPOUND_ID_TYPE>
0

> <PUBCHEM_TOTAL_CHARGE>
0

> <PUBCHEM_SUBSTANCE_ID>
310929811

> <PUBCHEM_SUBSTANCE_VERSION>
1

> <PUBCHEM_EXT_DATASOURCE_NAME>
4488

> <PUBCHEM_EXT_DATASOURCE_REGID>
SCHEMBL16107014

> <PUBCHEM_SUBSTANCE_COMMENT>
InChI=1S/C48H56BrN5O9S/c1-2-32-26-48(32,46(57)53-64(59,60)35-21-22-35)52-43(55)39-25-34-27-54(39)45(56)41(31-15-9-10-16-31)51-47(58)63-40-19-11-17-30(40)14-7-4-8-18-36-42(61-28-29-12-5-3-6-13-29)37-24-33(49)20-23-38(37)50-44(36)62-34/h2-6,8,12-13,20,23-24,30-32,34-35,39-41H,1,7,9-11,14-19,21-22,25-28H2,(H,51,58)(H,52,55)(H,53,57)/b8-4+/t30-,32-,34-,39+,40-,41+,48-/m1/s1
InChIKey=CBPLWGIVNTYBPL-QZXZZGOTSA-N

> <PUBCHEM_SUBSTANCE_SYNONYM>
SCHEMBL16107014

> <PUBCHEM_XREF_EXT_ID>
SCHEMBL16107014

> <PUBCHEM_EXT_DATASOURCE_URL>
https://www.surechembl.org/

> <PUBCHEM_EXT_SUBSTANCE_URL>
https://www.surechembl.org/chemical/SCHEMBL16107014

> <PUBCHEM_CID_ASSOCIATIONS>
117599088  1

> <PUBCHEM_COORDINATE_TYPE>
1
3

> <PUBCHEM_BONDANNOTATIONS>
17  12  5
17  20  6
18  22  6
23  21  6
26  25  5
32  28  5
52  55  5
53  60  6

$$$$
