310944634
  -OEChem-07211613022D

 21 23  0     0  0  0  0  0  0999 V2000
    0.7453    1.8352    0.0000 F   0  0  0  0  0  0  0  0  0  0  0  0
    2.9125    1.4218    0.0000 N   0  0  0  0  0  0  0  0  0  0  0  0
    0.7328   -2.2361    0.0000 N   0  0  0  0  0  0  0  0  0  0  0  0
    0.0188    0.6201    0.0000 C   0  0  0  0  0  0  0  0  0  0  0  0
   -0.7328    1.0335    0.0000 C   0  0  0  0  0  0  0  0  0  0  0  0
   -1.4719    0.6201    0.0000 C   0  0  0  0  0  0  0  0  0  0  0  0
    0.7328    1.0335    0.0000 C   0  0  0  0  0  0  0  0  0  0  0  0
    1.4719    0.6451    0.0000 C   0  0  0  0  0  0  0  0  0  0  0  0
    0.0188   -0.1942    0.0000 C   0  0  0  0  0  0  0  0  0  0  0  0
   -2.2110    1.0085    0.0000 C   0  0  0  0  0  0  0  0  0  0  0  0
    0.7453   -0.5825    0.0000 C   0  0  0  0  0  0  0  0  0  0  0  0
   -0.7453    1.8352    0.0000 C   0  0  0  0  0  0  0  0  0  0  0  0
    1.4594   -0.1691    0.0000 C   0  0  0  0  0  0  0  0  0  0  0  0
   -1.4719   -0.1816    0.0000 C   0  0  0  0  0  0  0  0  0  0  0  0
   -2.2110    1.8227    0.0000 C   0  0  0  0  0  0  0  0  0  0  0  0
   -1.4969    2.2361    0.0000 C   0  0  0  0  0  0  0  0  0  0  0  0
   -2.9125    0.5825    0.0000 C   0  0  0  0  0  0  0  0  0  0  0  0
    2.1985    1.0460    0.0000 C   0  0  0  0  0  0  0  0  0  0  0  0
    0.7328   -1.4218    0.0000 C   0  0  0  0  0  0  0  0  0  0  0  0
   -2.1609   -0.5950    0.0000 C   0  0  0  0  0  0  0  0  0  0  0  0
   -2.9125   -0.2067    0.0000 C   0  0  0  0  0  0  0  0  0  0  0  0
  1  7  1  0  0  0  0
  2 18  3  0  0  0  0
  3 19  3  0  0  0  0
  4  5  1  0  0  0  0
  4  7  1  0  0  0  0
  4  9  2  0  0  0  0
  5  6  1  0  0  0  0
  5 12  2  0  0  0  0
  6 10  1  0  0  0  0
  6 14  2  0  0  0  0
  7  8  2  0  0  0  0
  8 13  1  0  0  0  0
  8 18  1  0  0  0  0
  9 11  1  0  0  0  0
 10 15  1  0  0  0  0
 10 17  2  0  0  0  0
 11 13  2  0  0  0  0
 11 19  1  0  0  0  0
 12 16  1  0  0  0  0
 14 20  1  0  0  0  0
 15 16  2  0  0  0  0
 17 21  1  0  0  0  0
 20 21  2  0  0  0  0
M  END
> <PUBCHEM_COMPOUND_ID_TYPE>
0

> <PUBCHEM_TOTAL_CHARGE>
0

> <PUBCHEM_SUBSTANCE_ID>
310944634

> <PUBCHEM_SUBSTANCE_VERSION>
1

> <PUBCHEM_EXT_DATASOURCE_NAME>
4488

> <PUBCHEM_EXT_DATASOURCE_REGID>
SCHEMBL16122712

> <PUBCHEM_SUBSTANCE_COMMENT>
InChI=1S/C18H9FN2/c19-18-14(11-21)8-12(10-20)9-17(18)16-7-3-5-13-4-1-2-6-15(13)16/h1-9H
InChIKey=GWWUWLOOTNZEHZ-UHFFFAOYSA-N

> <PUBCHEM_SUBSTANCE_SYNONYM>
SCHEMBL16122712

> <PUBCHEM_XREF_EXT_ID>
SCHEMBL16122712

> <PUBCHEM_EXT_DATASOURCE_URL>
https://www.surechembl.org/

> <PUBCHEM_EXT_SUBSTANCE_URL>
https://www.surechembl.org/chemical/SCHEMBL16122712

> <PUBCHEM_CID_ASSOCIATIONS>
117610864  1

> <PUBCHEM_COORDINATE_TYPE>
1
3

$$$$
