310942484
  -OEChem-07211613022D

 41 45  0     1  0  0  0  0  0999 V2000
    1.1116   -3.2353    0.0000 S   0  0  0  0  0  0  0  0  0  0  0  0
   -2.8627    0.8880    0.0000 F   0  0  0  0  0  0  0  0  0  0  0  0
   -2.8627   -2.4281    0.0000 F   0  0  0  0  0  0  0  0  0  0  0  0
    3.5831   -0.2422    0.0000 F   0  0  0  0  0  0  0  0  0  0  0  0
   -0.1180   -1.0743    0.0000 O   0  0  0  0  0  0  0  0  0  0  0  0
    1.9437    2.5274    0.0000 O   0  0  0  0  0  0  0  0  0  0  0  0
   -0.5278    1.0619    0.0000 N   0  0  0  0  0  0  0  0  0  0  0  0
    1.1116   -0.3664    0.0000 N   0  0  0  0  0  0  0  0  0  0  0  0
   -0.6769   -0.2670    0.0000 N   0  0  0  0  0  0  0  0  0  0  0  0
    2.9621   -2.2914    0.0000 N   0  0  0  0  0  0  0  0  0  0  0  0
   -0.1304    0.3664    0.0000 C   0  0  0  0  0  0  0  0  0  0  0  0
    0.6769    0.3539    0.0000 C   0  0  3  0  0  0  0  0  0  0  0  0
   -1.4469    0.0683    0.0000 C   0  0  0  0  0  0  0  0  0  0  0  0
   -1.3475    0.9004    0.0000 C   0  0  0  0  0  0  0  0  0  0  0  0
    1.0991    1.0868    0.0000 C   0  0  0  0  0  0  0  0  0  0  0  0
   -2.1672   -0.3291    0.0000 C   0  0  0  0  0  0  0  0  0  0  0  0
    0.6893   -1.0991    0.0000 C   0  0  0  0  0  0  0  0  0  0  0  0
   -0.1304    1.8071    0.0000 C   0  0  0  0  0  0  0  0  0  0  0  0
    1.9188   -0.3664    0.0000 C   0  0  0  0  0  0  0  0  0  0  0  0
   -2.8752    0.0683    0.0000 C   0  0  0  0  0  0  0  0  0  0  0  0
    2.3411   -1.0743    0.0000 C   0  0  3  0  0  0  0  0  0  0  0  0
   -2.1672   -1.1736    0.0000 C   0  0  0  0  0  0  0  0  0  0  0  0
    0.6893    1.7946    0.0000 C   0  0  0  0  0  0  0  0  0  0  0  0
    1.9313    1.0619    0.0000 C   0  0  0  0  0  0  0  0  0  0  0  0
   -0.5403    2.5150    0.0000 C   0  0  0  0  0  0  0  0  0  0  0  0
   -2.8627   -1.5711    0.0000 C   0  0  0  0  0  0  0  0  0  0  0  0
   -3.5831   -0.3416    0.0000 C   0  0  0  0  0  0  0  0  0  0  0  0
    3.1608   -0.9501    0.0000 C   0  0  3  0  0  0  0  0  0  0  0  0
    1.0991   -1.7823    0.0000 C   0  0  0  0  0  0  0  0  0  0  0  0
   -3.5831   -1.1736    0.0000 C   0  0  0  0  0  0  0  0  0  0  0  0
    2.2417   -1.8691    0.0000 C   0  0  0  0  0  0  0  0  0  0  0  0
    1.1116    2.5150    0.0000 C   0  0  0  0  0  0  0  0  0  0  0  0
    2.3411    1.8071    0.0000 C   0  0  0  0  0  0  0  0  0  0  0  0
   -1.3724    2.5274    0.0000 C   0  0  0  0  0  0  0  0  0  0  0  0
   -0.1429    3.2478    0.0000 C   0  0  0  0  0  0  0  0  0  0  0  0
    3.5334   -1.6953    0.0000 C   0  0  0  0  0  0  0  0  0  0  0  0
    0.6893   -2.5398    0.0000 C   0  0  0  0  0  0  0  0  0  0  0  0
   -1.7823    3.2353    0.0000 C   0  0  0  0  0  0  0  0  0  0  0  0
   -0.5527    3.9557    0.0000 C   0  0  0  0  0  0  0  0  0  0  0  0
   -1.3724    3.9557    0.0000 C   0  0  0  0  0  0  0  0  0  0  0  0
    0.7017   -3.9557    0.0000 C   0  0  0  0  0  0  0  0  0  0  0  0
  1 37  1  0  0  0  0
  1 41  1  0  0  0  0
  2 20  1  0  0  0  0
  3 26  1  0  0  0  0
 28  4  1  1  0  0  0
  5 17  2  0  0  0  0
  6 32  1  0  0  0  0
  6 33  1  0  0  0  0
  7 11  1  0  0  0  0
  7 14  1  0  0  0  0
  7 18  1  0  0  0  0
 12  8  1  1  0  0  0
  8 17  1  0  0  0  0
  8 19  1  0  0  0  0
  9 11  2  0  0  0  0
  9 13  1  0  0  0  0
 10 31  1  0  0  0  0
 10 36  1  0  0  0  0
 11 12  1  0  0  0  0
 12 15  1  0  0  0  0
 13 14  2  0  0  0  0
 13 16  1  0  0  0  0
 15 23  1  0  0  0  0
 15 24  1  0  0  0  0
 16 20  1  0  0  0  0
 16 22  2  0  0  0  0
 17 29  1  0  0  0  0
 18 25  1  0  0  0  0
 21 19  1  1  0  0  0
 20 27  2  0  0  0  0
 21 28  1  0  0  0  0
 21 31  1  0  0  0  0
 22 26  1  0  0  0  0
 23 32  1  0  0  0  0
 24 33  1  0  0  0  0
 25 34  2  0  0  0  0
 25 35  1  0  0  0  0
 26 30  2  0  0  0  0
 27 30  1  0  0  0  0
 28 36  1  0  0  0  0
 29 37  1  0  0  0  0
 34 38  1  0  0  0  0
 35 39  2  0  0  0  0
 38 40  2  0  0  0  0
 39 40  1  0  0  0  0
M  END
> <PUBCHEM_COMPOUND_ID_TYPE>
0

> <PUBCHEM_TOTAL_CHARGE>
0

> <PUBCHEM_SUBSTANCE_ID>
310942484

> <PUBCHEM_SUBSTANCE_VERSION>
1

> <PUBCHEM_EXT_DATASOURCE_NAME>
4488

> <PUBCHEM_EXT_DATASOURCE_REGID>
SCHEMBL16120520

> <PUBCHEM_SUBSTANCE_COMMENT>
InChI=1S/C31H37F3N4O2S/c1-41-14-11-29(39)38(19-23-16-35-17-27(23)34)30(22-9-12-40-13-10-22)31-36-28(25-15-24(32)7-8-26(25)33)20-37(31)18-21-5-3-2-4-6-21/h2-8,15,20,22-23,27,30,35H,9-14,16-19H2,1H3/t23-,27-,30+/m0/s1
InChIKey=YJZCPMKOCQXWJO-DCABOPQKSA-N

> <PUBCHEM_SUBSTANCE_SYNONYM>
SCHEMBL16120520

> <PUBCHEM_XREF_EXT_ID>
SCHEMBL16120520

> <PUBCHEM_EXT_DATASOURCE_URL>
https://www.surechembl.org/

> <PUBCHEM_EXT_SUBSTANCE_URL>
https://www.surechembl.org/chemical/SCHEMBL16120520

> <PUBCHEM_CID_ASSOCIATIONS>
117609055  1

> <PUBCHEM_COORDINATE_TYPE>
1
3

> <PUBCHEM_BONDANNOTATIONS>
21  19  5
28  4  5
12  8  5

$$$$
