310936590
  -OEChem-07211613022D

 31 35  0     0  0  0  0  0  0999 V2000
    6.4141   -7.8221    0.0000 S   0  0  0  0  0  0  0  0  0  0  0  0
    6.4141   -6.1795    0.0000 N   0  0  0  0  0  0  0  0  0  0  0  0
    7.8613   -3.7155    0.0000 N   0  0  0  0  0  0  0  0  0  0  0  0
    7.1182   -2.4639    0.0000 N   0  0  0  0  0  0  0  0  0  0  0  0
    5.7101   -2.4639    0.0000 N   0  0  0  0  0  0  0  0  0  0  0  0
    3.5591   -1.2515    0.0000 N   0  0  0  0  0  0  0  0  0  0  0  0
    0.7431   -0.4302    0.0000 N   0  0  0  0  0  0  0  0  0  0  0  0
    6.4141   -3.7155    0.0000 C   0  0  0  0  0  0  0  0  0  0  0  0
    7.1182   -4.1066    0.0000 C   0  0  0  0  0  0  0  0  0  0  0  0
    6.4141   -2.8942    0.0000 C   0  0  0  0  0  0  0  0  0  0  0  0
    6.4141   -5.3582    0.0000 C   0  0  0  0  0  0  0  0  0  0  0  0
    7.1572   -4.9279    0.0000 C   0  0  0  0  0  0  0  0  0  0  0  0
    5.7101   -4.1066    0.0000 C   0  0  0  0  0  0  0  0  0  0  0  0
    5.7101   -4.9279    0.0000 C   0  0  0  0  0  0  0  0  0  0  0  0
    7.8613   -2.8551    0.0000 C   0  0  0  0  0  0  0  0  0  0  0  0
    2.8551   -1.6818    0.0000 C   0  0  0  0  0  0  0  0  0  0  0  0
    4.2630   -2.4639    0.0000 C   0  0  0  0  0  0  0  0  0  0  0  0
    5.0062   -2.8942    0.0000 C   0  0  0  0  0  0  0  0  0  0  0  0
    2.1511   -1.2515    0.0000 C   0  0  0  0  0  0  0  0  0  0  0  0
    7.1572   -6.5706    0.0000 C   0  0  0  0  0  0  0  0  0  0  0  0
    5.7101   -6.5706    0.0000 C   0  0  0  0  0  0  0  0  0  0  0  0
    2.8551   -2.5031    0.0000 C   0  0  0  0  0  0  0  0  0  0  0  0
    4.3022   -1.6427    0.0000 C   0  0  0  0  0  0  0  0  0  0  0  0
    3.5982   -2.8942    0.0000 C   0  0  0  0  0  0  0  0  0  0  0  0
    1.4471   -1.6818    0.0000 C   0  0  0  0  0  0  0  0  0  0  0  0
    2.1511   -0.4302    0.0000 C   0  0  0  0  0  0  0  0  0  0  0  0
    5.7101   -7.3919    0.0000 C   0  0  0  0  0  0  0  0  0  0  0  0
    7.1572   -7.3919    0.0000 C   0  0  0  0  0  0  0  0  0  0  0  0
    0.7431   -1.2515    0.0000 C   0  0  0  0  0  0  0  0  0  0  0  0
    1.4471    0.0000    0.0000 C   0  0  0  0  0  0  0  0  0  0  0  0
    0.0000   -1.6427    0.0000 C   0  0  0  0  0  0  0  0  0  0  0  0
  1 27  1  0  0  0  0
  1 28  1  0  0  0  0
  2 11  1  0  0  0  0
  2 20  1  0  0  0  0
  2 21  1  0  0  0  0
  3  9  2  0  0  0  0
  3 15  1  0  0  0  0
  4 10  1  0  0  0  0
  4 15  2  0  0  0  0
  5 10  1  0  0  0  0
  5 18  1  0  0  0  0
  6 16  1  0  0  0  0
  6 23  2  0  0  0  0
  7 29  1  0  0  0  0
  7 30  2  0  0  0  0
  8  9  1  0  0  0  0
  8 10  2  0  0  0  0
  8 13  1  0  0  0  0
  9 12  1  0  0  0  0
 11 12  2  0  0  0  0
 11 14  1  0  0  0  0
 13 14  2  0  0  0  0
 16 19  1  0  0  0  0
 16 22  2  0  0  0  0
 17 18  1  0  0  0  0
 17 23  1  0  0  0  0
 17 24  2  0  0  0  0
 19 25  1  0  0  0  0
 19 26  2  0  0  0  0
 20 28  1  0  0  0  0
 21 27  1  0  0  0  0
 22 24  1  0  0  0  0
 25 29  2  0  0  0  0
 26 30  1  0  0  0  0
 29 31  1  0  0  0  0
M  END
> <PUBCHEM_COMPOUND_ID_TYPE>
0

> <PUBCHEM_TOTAL_CHARGE>
0

> <PUBCHEM_SUBSTANCE_ID>
310936590

> <PUBCHEM_SUBSTANCE_VERSION>
1

> <PUBCHEM_EXT_DATASOURCE_NAME>
4488

> <PUBCHEM_EXT_DATASOURCE_REGID>
SCHEMBL16114249

> <PUBCHEM_SUBSTANCE_COMMENT>
InChI=1S/C24H24N6S/c1-17-12-19(6-7-25-17)22-5-2-18(14-26-22)15-27-24-21-4-3-20(13-23(21)28-16-29-24)30-8-10-31-11-9-30/h2-7,12-14,16H,8-11,15H2,1H3,(H,27,28,29)
InChIKey=VROMLHGJIDFTCA-UHFFFAOYSA-N

> <PUBCHEM_SUBSTANCE_SYNONYM>
SCHEMBL16114249

> <PUBCHEM_XREF_EXT_ID>
SCHEMBL16114249

> <PUBCHEM_EXT_DATASOURCE_URL>
https://www.surechembl.org/

> <PUBCHEM_EXT_SUBSTANCE_URL>
https://www.surechembl.org/chemical/SCHEMBL16114249

> <PUBCHEM_CID_ASSOCIATIONS>
117603683  1

> <PUBCHEM_COORDINATE_TYPE>
1
3

$$$$
