310940720
  -OEChem-07211613022D

 14 14  0     0  0  0  0  0  0999 V2000
    1.8273    0.9218    0.0000 S   0  0  0  0  0  0  0  0  0  0  0  0
   -0.7505   -0.1550    0.0000 S   0  0  0  0  0  0  0  0  0  0  0  0
    1.5825    1.6722    0.0000 O   0  0  0  0  0  0  0  0  0  0  0  0
    2.0883    0.1387    0.0000 O   0  0  0  0  0  0  0  0  0  0  0  0
    2.6104    1.1665    0.0000 O   0  0  0  0  0  0  0  0  0  0  0  0
    0.8158   -0.2365    0.0000 N   0  0  0  0  0  0  0  0  0  0  0  0
    1.4031   -0.9055    0.0000 N   0  0  0  0  0  0  0  0  0  0  0  0
    0.0979   -1.4765    0.0000 N   0  0  0  0  0  0  0  0  0  0  0  0
    0.9626   -1.6722    0.0000 N   0  0  0  0  0  0  0  0  0  0  0  0
    0.0163   -0.5955    0.0000 C   0  0  0  0  0  0  0  0  0  0  0  0
    0.9952    0.6444    0.0000 C   0  0  0  0  0  0  0  0  0  0  0  0
   -1.5009   -0.5792    0.0000 C   0  0  0  0  0  0  0  0  0  0  0  0
   -2.2352   -0.2039    0.0000 C   0  0  0  0  0  0  0  0  0  0  0  0
   -2.6104   -0.5139    0.0000 C   0  0  0  0  0  0  0  0  0  0  0  0
  1  3  2  0  0  0  0
  1  4  2  0  0  0  0
  1  5  1  0  0  0  0
  1 11  1  0  0  0  0
  2 10  1  0  0  0  0
  2 12  1  0  0  0  0
  6  7  1  0  0  0  0
  6 10  1  0  0  0  0
  6 11  1  0  0  0  0
  7  9  1  0  0  0  0
  8  9  1  0  0  0  0
  8 10  2  0  0  0  0
 12 13  1  0  0  0  0
 13 14  1  0  0  0  0
M  END
> <PUBCHEM_COMPOUND_ID_TYPE>
0

> <PUBCHEM_TOTAL_CHARGE>
0

> <PUBCHEM_SUBSTANCE_ID>
310940720

> <PUBCHEM_SUBSTANCE_VERSION>
1

> <PUBCHEM_EXT_DATASOURCE_NAME>
4488

> <PUBCHEM_EXT_DATASOURCE_REGID>
SCHEMBL16118677

> <PUBCHEM_SUBSTANCE_COMMENT>
InChI=1S/C5H12N4O3S2/c1-2-3-13-5-6-7-8-9(5)4-14(10,11)12/h7-8H,2-4H2,1H3,(H,10,11,12)
InChIKey=UBMBHKWYDDHNGW-UHFFFAOYSA-N

> <PUBCHEM_SUBSTANCE_SYNONYM>
SCHEMBL16118677

> <PUBCHEM_XREF_EXT_ID>
SCHEMBL16118677

> <PUBCHEM_EXT_DATASOURCE_URL>
https://www.surechembl.org/

> <PUBCHEM_EXT_SUBSTANCE_URL>
https://www.surechembl.org/chemical/SCHEMBL16118677

> <PUBCHEM_CID_ASSOCIATIONS>
117607677  1

> <PUBCHEM_COORDINATE_TYPE>
1
3

> <PUBCHEM_BONDANNOTATIONS>
13  14  3

$$$$
