310929374
  -OEChem-07211613022D

 25 27  0     0  0  0  0  0  0999 V2000
    0.0000   -5.8124    0.0000 Cl  0  0  0  0  0  0  0  0  0  0  0  0
    2.8875   -7.5000    0.0000 O   0  0  0  0  0  0  0  0  0  0  0  0
    2.8875    0.0000    0.0000 O   0  0  0  0  0  0  0  0  0  0  0  0
    2.8875   -5.8500    0.0000 N   0  0  0  0  0  0  0  0  0  0  0  0
    3.6000   -3.7500    0.0000 N   0  0  0  0  0  0  0  0  0  0  0  0
    3.6000   -2.1000    0.0000 N   0  0  0  0  0  0  0  0  0  0  0  0
    2.1750   -6.2625    0.0000 C   0  0  0  0  0  0  0  0  0  0  0  0
    1.4250   -5.8500    0.0000 C   0  0  0  0  0  0  0  0  0  0  0  0
    2.1750   -7.0875    0.0000 C   0  0  0  0  0  0  0  0  0  0  0  0
    0.7500   -6.2625    0.0000 C   0  0  0  0  0  0  0  0  0  0  0  0
    2.8875   -4.9875    0.0000 C   0  0  0  0  0  0  0  0  0  0  0  0
    1.4250   -5.0250    0.0000 C   0  0  0  0  0  0  0  0  0  0  0  0
    1.4625   -7.5000    0.0000 C   0  0  0  0  0  0  0  0  0  0  0  0
    2.1750   -4.5750    0.0000 C   0  0  0  0  0  0  0  0  0  0  0  0
    0.7500   -7.0875    0.0000 C   0  0  0  0  0  0  0  0  0  0  0  0
    3.6000   -4.5750    0.0000 C   0  0  0  0  0  0  0  0  0  0  0  0
    3.6375   -7.0500    0.0000 C   0  0  0  0  0  0  0  0  0  0  0  0
    4.3500   -3.3375    0.0000 C   0  0  0  0  0  0  0  0  0  0  0  0
    2.8875   -3.3375    0.0000 C   0  0  0  0  0  0  0  0  0  0  0  0
    2.8875   -2.4750    0.0000 C   0  0  0  0  0  0  0  0  0  0  0  0
    4.3500   -2.4750    0.0000 C   0  0  0  0  0  0  0  0  0  0  0  0
    3.6000   -1.2375    0.0000 C   0  0  0  0  0  0  0  0  0  0  0  0
    4.3500   -7.5000    0.0000 C   0  0  0  0  0  0  0  0  0  0  0  0
    3.6375   -6.2250    0.0000 C   0  0  0  0  0  0  0  0  0  0  0  0
    2.8875   -0.8250    0.0000 C   0  0  0  0  0  0  0  0  0  0  0  0
  1 10  1  0  0  0  0
  2  9  1  0  0  0  0
  2 17  1  0  0  0  0
  3 25  1  0  0  0  0
  4  7  2  0  0  0  0
  4 11  1  0  0  0  0
  5 16  1  0  0  0  0
  5 18  1  0  0  0  0
  5 19  1  0  0  0  0
  6 20  1  0  0  0  0
  6 21  1  0  0  0  0
  6 22  1  0  0  0  0
  7  8  1  0  0  0  0
  7  9  1  0  0  0  0
  8 10  1  0  0  0  0
  8 12  2  0  0  0  0
  9 13  2  0  0  0  0
 10 15  2  0  0  0  0
 11 14  2  0  0  0  0
 11 16  1  0  0  0  0
 12 14  1  0  0  0  0
 13 15  1  0  0  0  0
 17 23  1  0  0  0  0
 17 24  1  0  0  0  0
 18 21  1  0  0  0  0
 19 20  1  0  0  0  0
 22 25  1  0  0  0  0
M  END
> <PUBCHEM_COMPOUND_ID_TYPE>
0

> <PUBCHEM_TOTAL_CHARGE>
0

> <PUBCHEM_SUBSTANCE_ID>
310929374

> <PUBCHEM_SUBSTANCE_VERSION>
1

> <PUBCHEM_EXT_DATASOURCE_NAME>
4488

> <PUBCHEM_EXT_DATASOURCE_REGID>
SCHEMBL16106546

> <PUBCHEM_SUBSTANCE_COMMENT>
InChI=1S/C19H26ClN3O2/c1-14(2)25-18-6-5-17(20)16-4-3-15(21-19(16)18)13-23-9-7-22(8-10-23)11-12-24/h3-6,14,24H,7-13H2,1-2H3
InChIKey=RRGWAQAFKRNJBS-UHFFFAOYSA-N

> <PUBCHEM_SUBSTANCE_SYNONYM>
SCHEMBL16106546

> <PUBCHEM_XREF_EXT_ID>
SCHEMBL16106546

> <PUBCHEM_EXT_DATASOURCE_URL>
https://www.surechembl.org/

> <PUBCHEM_EXT_SUBSTANCE_URL>
https://www.surechembl.org/chemical/SCHEMBL16106546

> <PUBCHEM_CID_ASSOCIATIONS>
117598749  1

> <PUBCHEM_COORDINATE_TYPE>
1
3

$$$$
