310931819
  -OEChem-07211613022D

 28 30  0     1  0  0  0  0  0999 V2000
    4.3017   -1.4860    0.0000 O   0  0  0  0  0  0  0  0  0  0  0  0
    0.7430   -5.3185    0.0000 O   0  0  0  0  0  0  0  0  0  0  0  0
    5.0838   -1.9944    0.0000 O   0  0  0  0  0  0  0  0  0  0  0  0
    5.8268   -3.2458    0.0000 O   0  0  0  0  0  0  0  0  0  0  0  0
    2.9721   -1.4860    0.0000 N   0  0  0  0  0  0  0  0  0  0  0  0
    3.2067   -0.7039    0.0000 N   0  0  0  0  0  0  0  0  0  0  0  0
    3.6369   -2.8156    0.0000 C   0  0  3  0  0  0  0  0  0  0  0  0
    2.8939   -3.2458    0.0000 C   0  0  0  0  0  0  0  0  0  0  0  0
    2.1899   -4.4972    0.0000 C   0  0  0  0  0  0  0  0  0  0  0  0
    2.1899   -5.3185    0.0000 C   0  0  0  0  0  0  0  0  0  0  0  0
    3.6369   -1.9944    0.0000 C   0  0  0  0  0  0  0  0  0  0  0  0
    2.8939   -4.0670    0.0000 C   0  0  0  0  0  0  0  0  0  0  0  0
    1.4470   -5.7486    0.0000 C   0  0  0  0  0  0  0  0  0  0  0  0
    2.8939   -5.7486    0.0000 C   0  0  0  0  0  0  0  0  0  0  0  0
    2.1899   -2.8156    0.0000 C   0  0  0  0  0  0  0  0  0  0  0  0
    1.4470   -4.0670    0.0000 C   0  0  0  0  0  0  0  0  0  0  0  0
    2.9329   -6.5698    0.0000 C   0  0  0  0  0  0  0  0  0  0  0  0
    4.3799   -3.2458    0.0000 C   0  0  0  0  0  0  0  0  0  0  0  0
    4.0670   -0.6648    0.0000 C   0  0  0  0  0  0  0  0  0  0  0  0
    1.4470   -3.2458    0.0000 C   0  0  0  0  0  0  0  0  0  0  0  0
    1.4470   -6.5698    0.0000 C   0  0  0  0  0  0  0  0  0  0  0  0
    2.1899   -7.0000    0.0000 C   0  0  0  0  0  0  0  0  0  0  0  0
    3.6369   -7.0000    0.0000 C   0  0  0  0  0  0  0  0  0  0  0  0
    5.0838   -2.8156    0.0000 C   0  0  0  0  0  0  0  0  0  0  0  0
    4.5754    0.0000    0.0000 C   0  0  0  0  0  0  0  0  0  0  0  0
    4.3799   -6.5698    0.0000 C   0  0  0  0  0  0  0  0  0  0  0  0
    3.6369   -7.8212    0.0000 C   0  0  0  0  0  0  0  0  0  0  0  0
    0.0000   -5.7486    0.0000 C   0  0  0  0  0  0  0  0  0  0  0  0
  1 11  1  0  0  0  0
  1 19  1  0  0  0  0
  2 13  1  0  0  0  0
  2 28  1  0  0  0  0
  3 24  2  0  0  0  0
  4 24  1  0  0  0  0
  5  6  1  0  0  0  0
  5 11  2  0  0  0  0
  6 19  2  0  0  0  0
  7  8  1  0  0  0  0
  7 11  1  0  0  0  0
  7 18  1  6  0  0  0
  8 12  1  0  0  0  0
  8 15  2  0  0  0  0
  9 10  1  0  0  0  0
  9 12  2  0  0  0  0
  9 16  1  0  0  0  0
 10 13  2  0  0  0  0
 10 14  1  0  0  0  0
 13 21  1  0  0  0  0
 14 17  2  0  0  0  0
 15 20  1  0  0  0  0
 16 20  2  0  0  0  0
 17 22  1  0  0  0  0
 17 23  1  0  0  0  0
 18 24  1  0  0  0  0
 19 25  1  0  0  0  0
 21 22  2  0  0  0  0
 23 26  1  0  0  0  0
 23 27  1  0  0  0  0
M  END
> <PUBCHEM_COMPOUND_ID_TYPE>
0

> <PUBCHEM_TOTAL_CHARGE>
0

> <PUBCHEM_SUBSTANCE_ID>
310931819

> <PUBCHEM_SUBSTANCE_VERSION>
1

> <PUBCHEM_EXT_DATASOURCE_NAME>
4488

> <PUBCHEM_EXT_DATASOURCE_REGID>
SCHEMBL16109152

> <PUBCHEM_SUBSTANCE_COMMENT>
InChI=1S/C22H24N2O4/c1-13(2)15-8-9-20(27-4)18(11-15)16-6-5-7-17(10-16)19(12-21(25)26)22-24-23-14(3)28-22/h5-11,13,19H,12H2,1-4H3,(H,25,26)/t19-/m1/s1
InChIKey=RANOEZSXOGUFFY-LJQANCHMSA-N

> <PUBCHEM_SUBSTANCE_SYNONYM>
SCHEMBL16109152

> <PUBCHEM_XREF_EXT_ID>
SCHEMBL16109152

> <PUBCHEM_EXT_DATASOURCE_URL>
https://www.surechembl.org/

> <PUBCHEM_EXT_SUBSTANCE_URL>
https://www.surechembl.org/chemical/SCHEMBL16109152

> <PUBCHEM_CID_ASSOCIATIONS>
86281946  1

> <PUBCHEM_COORDINATE_TYPE>
1
3

> <PUBCHEM_BONDANNOTATIONS>
7  18  6

$$$$
