310940313
  -OEChem-07211613022D

 15 16  0     0  0  0  0  0  0999 V2000
    0.3464    1.9468    0.0000 F   0  0  0  0  0  0  0  0  0  0  0  0
   -1.1224   -0.6304    0.0000 O   0  0  0  0  0  0  0  0  0  0  0  0
    0.3603    0.2841    0.0000 N   0  0  0  0  0  0  0  0  0  0  0  0
    1.0946    0.6859    0.0000 C   0  0  0  0  0  0  0  0  0  0  0  0
   -0.3603   -0.9491    0.0000 C   0  0  0  0  0  0  0  0  0  0  0  0
    1.0808    1.5311    0.0000 C   0  0  0  0  0  0  0  0  0  0  0  0
    0.3464   -0.5473    0.0000 C   0  0  0  0  0  0  0  0  0  0  0  0
   -1.6766   -1.2402    0.0000 C   0  0  0  0  0  0  0  0  0  0  0  0
   -0.4572   -1.7805    0.0000 C   0  0  0  0  0  0  0  0  0  0  0  0
    1.7874    0.2979    0.0000 C   0  0  0  0  0  0  0  0  0  0  0  0
   -1.2609   -1.9468    0.0000 C   0  0  0  0  0  0  0  0  0  0  0  0
    1.7874    1.9329    0.0000 C   0  0  0  0  0  0  0  0  0  0  0  0
    2.5079    0.6998    0.0000 C   0  0  0  0  0  0  0  0  0  0  0  0
    2.5079    1.5311    0.0000 C   0  0  0  0  0  0  0  0  0  0  0  0
   -2.5079   -1.1708    0.0000 C   0  0  0  0  0  0  0  0  0  0  0  0
  1  6  1  0  0  0  0
  2  5  1  0  0  0  0
  2  8  1  0  0  0  0
  3  4  1  0  0  0  0
  3  7  2  0  0  0  0
  4  6  1  0  0  0  0
  4 10  2  0  0  0  0
  5  7  1  0  0  0  0
  5  9  2  0  0  0  0
  6 12  2  0  0  0  0
  8 11  2  0  0  0  0
  8 15  1  0  0  0  0
  9 11  1  0  0  0  0
 10 13  1  0  0  0  0
 12 14  1  0  0  0  0
 13 14  2  0  0  0  0
M  END
> <PUBCHEM_COMPOUND_ID_TYPE>
0

> <PUBCHEM_TOTAL_CHARGE>
0

> <PUBCHEM_SUBSTANCE_ID>
310940313

> <PUBCHEM_SUBSTANCE_VERSION>
1

> <PUBCHEM_EXT_DATASOURCE_NAME>
4488

> <PUBCHEM_EXT_DATASOURCE_REGID>
SCHEMBL16118257

> <PUBCHEM_SUBSTANCE_COMMENT>
InChI=1S/C12H10FNO/c1-9-6-7-10(15-9)8-14-12-5-3-2-4-11(12)13/h2-8H,1H3/b14-8+
InChIKey=VGIJWFXUUIUYSY-RIYZIHGNSA-N

> <PUBCHEM_SUBSTANCE_SYNONYM>
SCHEMBL16118257

> <PUBCHEM_XREF_EXT_ID>
SCHEMBL16118257

> <PUBCHEM_EXT_DATASOURCE_URL>
https://www.surechembl.org/

> <PUBCHEM_EXT_SUBSTANCE_URL>
https://www.surechembl.org/chemical/SCHEMBL16118257

> <PUBCHEM_CID_ASSOCIATIONS>
117607382  1

> <PUBCHEM_COORDINATE_TYPE>
1
3

> <PUBCHEM_BONDANNOTATIONS>
3  4  3

$$$$
