310936294
  -OEChem-07211613022D

 39 42  0     0  0  0  0  0  0999 V2000
    0.0000    0.0000    0.0000 F   0  0  0  0  0  0  0  0  0  0  0  0
    1.3117   -3.6290    0.0000 O   0  0  0  0  0  0  0  0  0  0  0  0
    3.8476   -2.5359    0.0000 O   0  0  0  0  0  0  0  0  0  0  0  0
    6.9520   -5.4217    0.0000 O   0  0  0  0  0  0  0  0  0  0  0  0
    6.2525   -4.1537    0.0000 O   0  0  0  0  0  0  0  0  0  0  0  0
    1.1805   -7.9139    0.0000 O   0  0  0  0  0  0  0  0  0  0  0  0
    2.6234   -7.9139    0.0000 O   0  0  0  0  0  0  0  0  0  0  0  0
    2.7546   -1.5740    0.0000 N   0  0  0  0  0  0  0  0  0  0  0  0
    2.6672   -3.7602    0.0000 C   0  0  0  0  0  0  0  0  0  0  0  0
    2.4485   -2.9732    0.0000 C   0  0  0  0  0  0  0  0  0  0  0  0
    1.9238   -4.1975    0.0000 C   0  0  0  0  0  0  0  0  0  0  0  0
    1.6615   -2.8858    0.0000 C   0  0  0  0  0  0  0  0  0  0  0  0
    3.3667   -4.9845    0.0000 C   0  0  0  0  0  0  0  0  0  0  0  0
    3.3667   -4.1975    0.0000 C   0  0  0  0  0  0  0  0  0  0  0  0
    2.6234   -5.4217    0.0000 C   0  0  0  0  0  0  0  0  0  0  0  0
    1.9238   -5.0282    0.0000 C   0  0  0  0  0  0  0  0  0  0  0  0
    1.2242   -2.1425    0.0000 C   0  0  0  0  0  0  0  0  0  0  0  0
    3.0169   -2.3611    0.0000 C   0  0  0  0  0  0  0  0  0  0  0  0
    4.1100   -5.4217    0.0000 C   0  0  0  0  0  0  0  0  0  0  0  0
    2.6234   -6.2525    0.0000 C   0  0  0  0  0  0  0  0  0  0  0  0
    0.3935   -2.1425    0.0000 C   0  0  0  0  0  0  0  0  0  0  0  0
    1.6178   -1.4429    0.0000 C   0  0  0  0  0  0  0  0  0  0  0  0
    4.8096   -4.9845    0.0000 C   0  0  0  0  0  0  0  0  0  0  0  0
    4.1100   -6.2525    0.0000 C   0  0  0  0  0  0  0  0  0  0  0  0
    5.5092   -5.4217    0.0000 C   0  0  0  0  0  0  0  0  0  0  0  0
    0.0000   -1.4429    0.0000 C   0  0  0  0  0  0  0  0  0  0  0  0
    1.2242   -0.7433    0.0000 C   0  0  0  0  0  0  0  0  0  0  0  0
    0.3935   -0.7433    0.0000 C   0  0  0  0  0  0  0  0  0  0  0  0
    4.8096   -6.6459    0.0000 C   0  0  0  0  0  0  0  0  0  0  0  0
    5.5092   -6.2525    0.0000 C   0  0  0  0  0  0  0  0  0  0  0  0
    6.2525   -4.9845    0.0000 C   0  0  0  0  0  0  0  0  0  0  0  0
    1.9238   -6.6459    0.0000 C   0  0  0  0  0  0  0  0  0  0  0  0
    3.3230   -0.9619    0.0000 C   0  0  0  0  0  0  0  0  0  0  0  0
    1.8801   -7.4767    0.0000 C   0  0  0  0  0  0  0  0  0  0  0  0
    7.6953   -4.9845    0.0000 C   0  0  0  0  0  0  0  0  0  0  0  0
    8.0889   -5.7278    0.0000 C   0  0  0  0  0  0  0  0  0  0  0  0
    8.3949   -4.5909    0.0000 C   0  0  0  0  0  0  0  0  0  0  0  0
    7.2581   -4.2849    0.0000 C   0  0  0  0  0  0  0  0  0  0  0  0
    1.1805   -8.7447    0.0000 C   0  0  0  0  0  0  0  0  0  0  0  0
  1 28  1  0  0  0  0
  2 11  1  0  0  0  0
  2 12  1  0  0  0  0
  3 18  2  0  0  0  0
  4 31  1  0  0  0  0
  4 35  1  0  0  0  0
  5 31  2  0  0  0  0
  6 34  1  0  0  0  0
  6 39  1  0  0  0  0
  7 34  2  0  0  0  0
  8 18  1  0  0  0  0
  8 33  1  0  0  0  0
  9 10  1  0  0  0  0
  9 11  2  0  0  0  0
  9 14  1  0  0  0  0
 10 12  2  0  0  0  0
 10 18  1  0  0  0  0
 11 16  1  0  0  0  0
 12 17  1  0  0  0  0
 13 14  2  0  0  0  0
 13 15  1  0  0  0  0
 13 19  1  0  0  0  0
 15 16  2  0  0  0  0
 15 20  1  0  0  0  0
 17 21  2  0  0  0  0
 17 22  1  0  0  0  0
 19 23  1  0  0  0  0
 19 24  2  0  0  0  0
 20 32  1  0  0  0  0
 21 26  1  0  0  0  0
 22 27  2  0  0  0  0
 23 25  2  0  0  0  0
 24 29  1  0  0  0  0
 25 30  1  0  0  0  0
 25 31  1  0  0  0  0
 26 28  2  0  0  0  0
 27 28  1  0  0  0  0
 29 30  2  0  0  0  0
 32 34  1  0  0  0  0
 35 36  1  0  0  0  0
 35 37  1  0  0  0  0
 35 38  1  0  0  0  0
M  END
> <PUBCHEM_COMPOUND_ID_TYPE>
0

> <PUBCHEM_TOTAL_CHARGE>
0

> <PUBCHEM_SUBSTANCE_ID>
310936294

> <PUBCHEM_SUBSTANCE_VERSION>
1

> <PUBCHEM_EXT_DATASOURCE_NAME>
4488

> <PUBCHEM_EXT_DATASOURCE_REGID>
SCHEMBL16113917

> <PUBCHEM_SUBSTANCE_COMMENT>
InChI=1S/C31H30FNO6/c1-31(2,3)39-30(36)21-8-6-7-19(15-21)23-17-24-25(16-20(23)11-14-26(34)37-5)38-28(27(24)29(35)33-4)18-9-12-22(32)13-10-18/h6-10,12-13,15-17H,11,14H2,1-5H3,(H,33,35)
InChIKey=XSRKBDKQEIVKQM-UHFFFAOYSA-N

> <PUBCHEM_SUBSTANCE_SYNONYM>
SCHEMBL16113917

> <PUBCHEM_XREF_EXT_ID>
SCHEMBL16113917

> <PUBCHEM_EXT_DATASOURCE_URL>
https://www.surechembl.org/

> <PUBCHEM_EXT_SUBSTANCE_URL>
https://www.surechembl.org/chemical/SCHEMBL16113917

> <PUBCHEM_CID_ASSOCIATIONS>
117604237  1

> <PUBCHEM_COORDINATE_TYPE>
1
3

$$$$
