310944001
  -OEChem-07211613022D

 17 17  0     0  0  0  0  0  0999 V2000
   -0.0249    1.8439    0.0000 F   0  0  0  0  0  0  0  0  0  0  0  0
    1.4303    1.8340    0.0000 O   0  0  0  0  0  0  0  0  0  0  0  0
   -2.1479    0.5383    0.0000 O   0  0  0  0  0  0  0  0  0  0  0  0
    2.1479    0.5682    0.0000 N   0  0  0  0  0  0  0  0  0  0  0  0
   -1.5400    1.8539    0.0000 N   0  0  0  0  0  0  0  0  0  0  0  0
    0.7027    0.6379    0.0000 C   0  0  0  0  0  0  0  0  0  0  0  0
   -0.7625    0.6379    0.0000 C   0  0  0  0  0  0  0  0  0  0  0  0
   -0.0449    1.0366    0.0000 C   0  0  0  0  0  0  0  0  0  0  0  0
   -0.0349   -0.5981    0.0000 C   0  0  0  0  0  0  0  0  0  0  0  0
    0.7027   -0.1794    0.0000 C   0  0  0  0  0  0  0  0  0  0  0  0
   -0.7625   -0.1894    0.0000 C   0  0  0  0  0  0  0  0  0  0  0  0
   -0.0648   -1.4154    0.0000 C   0  0  0  0  0  0  0  0  0  0  0  0
    1.4303    1.0266    0.0000 C   0  0  0  0  0  0  0  0  0  0  0  0
   -1.5001    1.0166    0.0000 C   0  0  0  0  0  0  0  0  0  0  0  0
   -0.8621   -1.2159    0.0000 C   0  0  0  0  0  0  0  0  0  0  0  0
   -0.7625   -1.8539    0.0000 C   0  0  0  0  0  0  0  0  0  0  0  0
    0.7027   -1.8439    0.0000 C   0  0  0  0  0  0  0  0  0  0  0  0
  1  8  1  0  0  0  0
  2 13  2  0  0  0  0
  3 14  2  0  0  0  0
  4 13  1  0  0  0  0
  5 14  1  0  0  0  0
  6  8  2  0  0  0  0
  6 10  1  0  0  0  0
  6 13  1  0  0  0  0
  7  8  1  0  0  0  0
  7 11  2  0  0  0  0
  7 14  1  0  0  0  0
  9 10  2  0  0  0  0
  9 11  1  0  0  0  0
  9 12  1  0  0  0  0
 12 15  1  0  0  0  0
 12 16  1  0  0  0  0
 12 17  1  0  0  0  0
M  END
> <PUBCHEM_COMPOUND_ID_TYPE>
0

> <PUBCHEM_TOTAL_CHARGE>
0

> <PUBCHEM_SUBSTANCE_ID>
310944001

> <PUBCHEM_SUBSTANCE_VERSION>
1

> <PUBCHEM_EXT_DATASOURCE_NAME>
4488

> <PUBCHEM_EXT_DATASOURCE_REGID>
SCHEMBL16122072

> <PUBCHEM_SUBSTANCE_COMMENT>
InChI=1S/C12H15FN2O2/c1-12(2,3)6-4-7(10(14)16)9(13)8(5-6)11(15)17/h4-5H,1-3H3,(H2,14,16)(H2,15,17)
InChIKey=WYIFPGSFEQKNEA-UHFFFAOYSA-N

> <PUBCHEM_SUBSTANCE_SYNONYM>
SCHEMBL16122072

> <PUBCHEM_XREF_EXT_ID>
SCHEMBL16122072

> <PUBCHEM_EXT_DATASOURCE_URL>
https://www.surechembl.org/

> <PUBCHEM_EXT_SUBSTANCE_URL>
https://www.surechembl.org/chemical/SCHEMBL16122072

> <PUBCHEM_CID_ASSOCIATIONS>
117610305  1

> <PUBCHEM_COORDINATE_TYPE>
1
3

$$$$
