310929558
  -OEChem-07211613022D

 22 23  0     1  0  0  0  0  0999 V2000
    3.2104   -2.0295    0.0000 O   0  0  0  0  0  0  0  0  0  0  0  0
    2.7629   -0.1017    0.0000 O   0  0  0  0  0  0  0  0  0  0  0  0
    2.2919   -0.9349    0.0000 O   0  0  0  0  0  0  0  0  0  0  0  0
    1.3764    0.2440    0.0000 O   0  0  0  0  0  0  0  0  0  0  0  0
    3.6992   -0.6867    0.0000 N   0  0  0  0  0  0  0  0  0  0  0  0
    2.5784   -2.5598    0.0000 C   0  0  3  0  0  0  0  0  0  0  0  0
    2.1659   -3.2743    0.0000 C   0  0  3  0  0  0  0  0  0  0  0  0
    3.5559    0.1257    0.0000 C   0  0  0  0  0  0  0  0  0  0  0  0
    2.9909   -3.2743    0.0000 C   0  0  0  0  0  0  0  0  0  0  0  0
    3.0672   -1.2170    0.0000 C   0  0  0  0  0  0  0  0  0  0  0  0
    3.2468    0.8907    0.0000 C   0  0  0  0  0  0  0  0  0  0  0  0
    4.3789    0.1833    0.0000 C   0  0  0  0  0  0  0  0  0  0  0  0
    1.4515   -3.6868    0.0000 C   0  0  0  0  0  0  0  0  0  0  0  0
    1.9465   -2.0295    0.0000 C   0  0  0  0  0  0  0  0  0  0  0  0
    3.8788    1.4210    0.0000 C   0  0  0  0  0  0  0  0  0  0  0  0
    4.5785    0.9838    0.0000 C   0  0  0  0  0  0  0  0  0  0  0  0
    4.4744   -0.9689    0.0000 C   0  0  0  0  0  0  0  0  0  0  0  0
    2.1694    0.4714    0.0000 C   0  0  0  0  0  0  0  0  0  0  0  0
    1.4515   -4.5118    0.0000 C   0  0  0  0  0  0  0  0  0  0  0  0
    2.3690    1.2719    0.0000 C   0  0  0  0  0  0  0  0  0  0  0  0
    0.7370   -4.9243    0.0000 C   0  0  0  0  0  0  0  0  0  0  0  0
    0.7370   -5.7493    0.0000 C   0  0  0  0  0  0  0  0  0  0  0  0
  6  1  1  1  0  0  0
  1 10  1  0  0  0  0
  2  8  1  0  0  0  0
  2 18  1  0  0  0  0
  3 10  2  0  0  0  0
  4 18  2  0  0  0  0
  5  8  1  0  0  0  0
  5 10  1  0  0  0  0
  5 17  1  0  0  0  0
  6  7  1  0  0  0  0
  6  9  1  0  0  0  0
  6 14  1  6  0  0  0
  7  9  1  0  0  0  0
  7 13  1  6  0  0  0
  8 11  1  0  0  0  0
  8 12  1  0  0  0  0
 11 15  1  0  0  0  0
 12 16  1  0  0  0  0
 13 19  1  0  0  0  0
 15 16  1  0  0  0  0
 18 20  1  0  0  0  0
 19 21  1  0  0  0  0
 21 22  2  0  0  0  0
M  END
> <PUBCHEM_COMPOUND_ID_TYPE>
0

> <PUBCHEM_TOTAL_CHARGE>
0

> <PUBCHEM_SUBSTANCE_ID>
310929558

> <PUBCHEM_SUBSTANCE_VERSION>
1

> <PUBCHEM_EXT_DATASOURCE_NAME>
4488

> <PUBCHEM_EXT_DATASOURCE_REGID>
SCHEMBL16106740

> <PUBCHEM_SUBSTANCE_COMMENT>
InChI=1S/C17H27NO4/c1-5-6-9-14-12-16(14,3)22-15(20)18(4)17(21-13(2)19)10-7-8-11-17/h5,14H,1,6-12H2,2-4H3/t14-,16-/m0/s1
InChIKey=ZAXHGKPPWYJJGQ-HOCLYGCPSA-N

> <PUBCHEM_SUBSTANCE_SYNONYM>
SCHEMBL16106740

> <PUBCHEM_XREF_EXT_ID>
SCHEMBL16106740

> <PUBCHEM_EXT_DATASOURCE_URL>
https://www.surechembl.org/

> <PUBCHEM_EXT_SUBSTANCE_URL>
https://www.surechembl.org/chemical/SCHEMBL16106740

> <PUBCHEM_CID_ASSOCIATIONS>
117598873  1

> <PUBCHEM_COORDINATE_TYPE>
1
3

> <PUBCHEM_BONDANNOTATIONS>
6  1  5
6  14  6
7  13  6

$$$$
