310943761
  -OEChem-07211613022D

 19 19  0     0  0  0  0  0  0999 V2000
   -3.0289   -1.2363    0.0000 Cl  0  0  0  0  0  0  0  0  0  0  0  0
   -0.0248   -1.2363    0.0000 O   0  0  0  0  0  0  0  0  0  0  0  0
    2.1264    0.0000    0.0000 O   0  0  0  0  0  0  0  0  0  0  0  0
    1.4094    1.2363    0.0000 O   0  0  0  0  0  0  0  0  0  0  0  0
   -0.0123    0.4204    0.0000 N   0  0  0  0  0  0  0  0  0  0  0  0
   -0.7170    0.0123    0.0000 C   0  0  0  0  0  0  0  0  0  0  0  0
   -2.1511    0.0123    0.0000 C   0  0  0  0  0  0  0  0  0  0  0  0
   -0.7294   -0.8036    0.0000 C   0  0  0  0  0  0  0  0  0  0  0  0
   -2.1511   -0.8159    0.0000 C   0  0  0  0  0  0  0  0  0  0  0  0
   -1.4464    0.4080    0.0000 C   0  0  0  0  0  0  0  0  0  0  0  0
   -1.4217   -1.2240    0.0000 C   0  0  0  0  0  0  0  0  0  0  0  0
   -2.8682    0.4204    0.0000 C   0  0  0  0  0  0  0  0  0  0  0  0
    0.7170    0.0123    0.0000 C   0  0  0  0  0  0  0  0  0  0  0  0
    1.4094    0.4080    0.0000 C   0  0  0  0  0  0  0  0  0  0  0  0
   -3.5605    0.0000    0.0000 C   0  0  0  0  0  0  0  0  0  0  0  0
   -2.8682    1.2363    0.0000 C   0  0  0  0  0  0  0  0  0  0  0  0
    0.7047   -0.8159    0.0000 C   0  0  0  0  0  0  0  0  0  0  0  0
    2.8435    0.4204    0.0000 C   0  0  0  0  0  0  0  0  0  0  0  0
    3.5605    0.0000    0.0000 C   0  0  0  0  0  0  0  0  0  0  0  0
  1  9  1  0  0  0  0
  2  8  1  0  0  0  0
  2 17  1  0  0  0  0
  3 14  1  0  0  0  0
  3 18  1  0  0  0  0
  4 14  2  0  0  0  0
  5  6  1  0  0  0  0
  5 13  1  0  0  0  0
  6  8  1  0  0  0  0
  6 10  2  0  0  0  0
  7  9  2  0  0  0  0
  7 10  1  0  0  0  0
  7 12  1  0  0  0  0
  8 11  2  0  0  0  0
  9 11  1  0  0  0  0
 12 15  1  0  0  0  0
 12 16  1  0  0  0  0
 13 14  1  0  0  0  0
 18 19  1  0  0  0  0
M  END
> <PUBCHEM_COMPOUND_ID_TYPE>
0

> <PUBCHEM_TOTAL_CHARGE>
0

> <PUBCHEM_SUBSTANCE_ID>
310943761

> <PUBCHEM_SUBSTANCE_VERSION>
1

> <PUBCHEM_EXT_DATASOURCE_NAME>
4488

> <PUBCHEM_EXT_DATASOURCE_REGID>
SCHEMBL16121830

> <PUBCHEM_SUBSTANCE_COMMENT>
InChI=1S/C14H20ClNO3/c1-5-19-14(17)8-16-12-6-10(9(2)3)11(15)7-13(12)18-4/h6-7,9,16H,5,8H2,1-4H3
InChIKey=ORVGZDBMUWLCQO-UHFFFAOYSA-N

> <PUBCHEM_SUBSTANCE_SYNONYM>
SCHEMBL16121830

> <PUBCHEM_XREF_EXT_ID>
SCHEMBL16121830

> <PUBCHEM_EXT_DATASOURCE_URL>
https://www.surechembl.org/

> <PUBCHEM_EXT_SUBSTANCE_URL>
https://www.surechembl.org/chemical/SCHEMBL16121830

> <PUBCHEM_CID_ASSOCIATIONS>
117610123  1

> <PUBCHEM_COORDINATE_TYPE>
1
3

$$$$
