310947074
  -OEChem-07211613022D

 38 42  0     1  0  0  0  0  0999 V2000
   -0.2487    1.9029    0.0000 F   0  0  0  0  0  0  0  0  0  0  0  0
    3.5572    0.5642    0.0000 F   0  0  0  0  0  0  0  0  0  0  0  0
    4.1310   -0.0287    0.0000 F   0  0  0  0  0  0  0  0  0  0  0  0
   -3.4042   -1.5013    0.0000 O   0  0  0  0  0  0  0  0  0  0  0  0
    1.8360   -2.7827    0.0000 O   0  0  0  0  0  0  0  0  0  0  0  0
   -1.8934    0.8319    0.0000 N   0  0  0  0  0  0  0  0  0  0  0  0
   -1.4152    0.1625    0.0000 N   0  0  0  0  0  0  0  0  0  0  0  0
   -1.6447   -1.2909    0.0000 N   0  0  0  0  0  0  0  0  0  0  0  0
   -4.1310   -0.2581    0.0000 N   0  0  0  0  0  0  0  0  0  0  0  0
    2.1803   -1.4057    0.0000 N   0  0  0  0  0  0  0  0  0  0  0  0
    0.5164    1.1571    0.0000 N   0  0  0  0  0  0  0  0  0  0  0  0
   -1.6256    1.6352    0.0000 C   0  0  3  0  0  0  0  0  0  0  0  0
   -2.6775    0.5833    0.0000 C   0  0  0  0  0  0  0  0  0  0  0  0
   -2.6966   -0.2581    0.0000 C   0  0  0  0  0  0  0  0  0  0  0  0
   -1.9125   -0.5068    0.0000 C   0  0  0  0  0  0  0  0  0  0  0  0
   -1.0519    2.1707    0.0000 C   0  0  3  0  0  0  0  0  0  0  0  0
   -3.3851   -0.6407    0.0000 C   0  0  0  0  0  0  0  0  0  0  0  0
   -2.4288    1.8647    0.0000 C   0  0  0  0  0  0  0  0  0  0  0  0
   -3.4425    0.9658    0.0000 C   0  0  0  0  0  0  0  0  0  0  0  0
   -1.1092    1.0040    0.0000 C   0  0  0  0  0  0  0  0  0  0  0  0
   -1.2048    2.9548    0.0000 C   0  0  0  0  0  0  0  0  0  0  0  0
   -0.8415   -1.4631    0.0000 C   0  0  0  0  0  0  0  0  0  0  0  0
   -4.0927    0.5833    0.0000 C   0  0  0  0  0  0  0  0  0  0  0  0
   -2.6010    2.6679    0.0000 C   0  0  0  0  0  0  0  0  0  0  0  0
   -1.9890    3.2226    0.0000 C   0  0  0  0  0  0  0  0  0  0  0  0
   -0.2869    1.1571    0.0000 C   0  0  0  0  0  0  0  0  0  0  0  0
    0.7650   -1.8073    0.0000 C   0  0  0  0  0  0  0  0  0  0  0  0
   -0.5737   -2.2472    0.0000 C   0  0  0  0  0  0  0  0  0  0  0  0
    0.2104   -2.4384    0.0000 C   0  0  0  0  0  0  0  0  0  0  0  0
   -0.2869   -0.8702    0.0000 C   0  0  0  0  0  0  0  0  0  0  0  0
    1.5683   -1.9794    0.0000 C   0  0  0  0  0  0  0  0  0  0  0  0
    0.5164   -1.0423    0.0000 C   0  0  0  0  0  0  0  0  0  0  0  0
    3.3468   -0.2199    0.0000 C   0  0  0  0  0  0  0  0  0  0  0  0
    2.9835   -1.6160    0.0000 C   0  0  0  0  0  0  0  0  0  0  0  0
    1.9699   -0.6216    0.0000 C   0  0  0  0  0  0  0  0  0  0  0  0
    3.5572   -1.0232    0.0000 C   0  0  0  0  0  0  0  0  0  0  0  0
    2.5436   -0.0287    0.0000 C   0  0  0  0  0  0  0  0  0  0  0  0
    0.4781   -3.2226    0.0000 C   0  0  0  0  0  0  0  0  0  0  0  0
 16  1  1  1  0  0  0
  2 33  1  0  0  0  0
  3 33  1  0  0  0  0
  4 17  2  0  0  0  0
  5 31  2  0  0  0  0
  6  7  1  0  0  0  0
  6 12  1  0  0  0  0
  6 13  1  0  0  0  0
  7 15  2  0  0  0  0
  8 15  1  0  0  0  0
  8 22  1  0  0  0  0
  9 17  1  0  0  0  0
  9 23  1  0  0  0  0
 10 31  1  0  0  0  0
 10 34  1  0  0  0  0
 10 35  1  0  0  0  0
 11 26  3  0  0  0  0
 12 16  1  0  0  0  0
 12 18  1  0  0  0  0
 12 20  1  6  0  0  0
 13 14  2  0  0  0  0
 13 19  1  0  0  0  0
 14 15  1  0  0  0  0
 14 17  1  0  0  0  0
 16 21  1  0  0  0  0
 18 24  1  0  0  0  0
 19 23  2  0  0  0  0
 20 26  1  0  0  0  0
 21 25  1  0  0  0  0
 22 28  1  0  0  0  0
 22 30  2  0  0  0  0
 24 25  1  0  0  0  0
 27 29  1  0  0  0  0
 27 31  1  0  0  0  0
 27 32  2  0  0  0  0
 28 29  2  0  0  0  0
 29 38  1  0  0  0  0
 30 32  1  0  0  0  0
 33 36  1  0  0  0  0
 33 37  1  0  0  0  0
 34 36  1  0  0  0  0
 35 37  1  0  0  0  0
M  END
> <PUBCHEM_COMPOUND_ID_TYPE>
0

> <PUBCHEM_TOTAL_CHARGE>
0

> <PUBCHEM_SUBSTANCE_ID>
310947074

> <PUBCHEM_SUBSTANCE_VERSION>
1

> <PUBCHEM_EXT_DATASOURCE_NAME>
4488

> <PUBCHEM_EXT_DATASOURCE_REGID>
SCHEMBL16125228

> <PUBCHEM_SUBSTANCE_COMMENT>
InChI=1S/C27H29F3N6O2/c1-17-16-18(5-6-19(17)25(38)35-14-10-27(29,30)11-15-35)33-23-22-20(7-13-32-24(22)37)36(34-23)26(9-12-31)8-3-2-4-21(26)28/h5-7,13,16,21H,2-4,8-11,14-15H2,1H3,(H,32,37)(H,33,34)/t21-,26-/m1/s1
InChIKey=RKCWWRVQGOCAKM-QFQXNSOFSA-N

> <PUBCHEM_SUBSTANCE_SYNONYM>
SCHEMBL16125228

> <PUBCHEM_XREF_EXT_ID>
SCHEMBL16125228

> <PUBCHEM_EXT_DATASOURCE_URL>
https://www.surechembl.org/

> <PUBCHEM_EXT_SUBSTANCE_URL>
https://www.surechembl.org/chemical/SCHEMBL16125228

> <PUBCHEM_CID_ASSOCIATIONS>
117612926  1

> <PUBCHEM_COORDINATE_TYPE>
1
3

> <PUBCHEM_BONDANNOTATIONS>
16  1  5
12  20  6

$$$$
