310938094
  -OEChem-07211613022D

 35 38  0     1  0  0  0  0  0999 V2000
    0.0768   -2.3215    0.0000 O   0  0  0  0  0  0  0  0  0  0  0  0
   -0.5837   -1.4124    0.0000 O   0  0  0  0  0  0  0  0  0  0  0  0
    3.3047   -1.6354    0.0000 O   0  0  0  0  0  0  0  0  0  0  0  0
    6.2776   -1.7339    0.0000 O   0  0  0  0  0  0  0  0  0  0  0  0
    5.9806   -0.3362    0.0000 O   0  0  0  0  0  0  0  0  0  0  0  0
    1.1387   -1.3654    0.0000 N   0  0  0  0  0  0  0  0  0  0  0  0
   -0.5837    0.0165    0.0000 N   0  0  0  0  0  0  0  0  0  0  0  0
    2.2428   -2.5916    0.0000 N   0  0  0  0  0  0  0  0  0  0  0  0
   -1.4856    1.4847    0.0000 N   0  0  0  0  0  0  0  0  0  0  0  0
   -2.6417    0.8172    0.0000 N   0  0  0  0  0  0  0  0  0  0  0  0
   -2.0987    2.0367    0.0000 N   0  0  0  0  0  0  0  0  0  0  0  0
   -2.8132    1.6242    0.0000 N   0  0  0  0  0  0  0  0  0  0  0  0
    4.9186   -1.2924    0.0000 N   0  0  0  0  0  0  0  0  0  0  0  0
    1.9233   -1.1104    0.0000 C   0  0  0  0  0  0  0  0  0  0  0  0
    0.6538   -0.6979    0.0000 C   0  0  3  0  0  0  0  0  0  0  0  0
    1.9233   -0.2854    0.0000 C   0  0  0  0  0  0  0  0  0  0  0  0
    1.1387   -0.0305    0.0000 C   0  0  0  0  0  0  0  0  0  0  0  0
    0.8838   -2.1500    0.0000 C   0  0  0  0  0  0  0  0  0  0  0  0
   -0.1712   -0.6979    0.0000 C   0  0  0  0  0  0  0  0  0  0  0  0
    2.6378   -1.5229    0.0000 C   0  0  0  0  0  0  0  0  0  0  0  0
    2.6378    0.1271    0.0000 C   0  0  0  0  0  0  0  0  0  0  0  0
    1.4358   -2.7631    0.0000 C   0  0  0  0  0  0  0  0  0  0  0  0
    3.3523   -1.1104    0.0000 C   0  0  0  0  0  0  0  0  0  0  0  0
    3.3523   -0.2854    0.0000 C   0  0  0  0  0  0  0  0  0  0  0  0
    2.7948   -3.2047    0.0000 C   0  0  3  0  0  0  0  0  0  0  0  0
    3.6018   -3.0331    0.0000 C   0  0  3  0  0  0  0  0  0  0  0  0
   -1.4087    0.0165    0.0000 C   0  0  0  0  0  0  0  0  0  0  0  0
    3.8567   -2.2485    0.0000 C   0  0  0  0  0  0  0  0  0  0  0  0
    2.5399   -3.9893    0.0000 C   0  0  0  0  0  0  0  0  0  0  0  0
   -1.8212    0.7310    0.0000 C   0  0  0  0  0  0  0  0  0  0  0  0
    4.1538   -3.6462    0.0000 C   0  0  0  0  0  0  0  0  0  0  0  0
    3.0919   -4.6024    0.0000 C   0  0  0  0  0  0  0  0  0  0  0  0
    3.8989   -4.4309    0.0000 C   0  0  0  0  0  0  0  0  0  0  0  0
    4.6637   -2.0770    0.0000 C   0  0  0  0  0  0  0  0  0  0  0  0
    5.7256   -1.1208    0.0000 C   0  0  0  0  0  0  0  0  0  0  0  0
  1 18  2  0  0  0  0
  2 19  2  0  0  0  0
  3 28  2  0  0  0  0
  4 35  2  0  0  0  0
  5 35  1  0  0  0  0
  6 14  1  0  0  0  0
  6 15  1  0  0  0  0
  6 18  1  0  0  0  0
  7 19  1  0  0  0  0
  7 27  1  0  0  0  0
  8 22  1  0  0  0  0
  8 25  1  0  0  0  0
  9 11  2  0  0  0  0
  9 30  1  0  0  0  0
 10 12  1  0  0  0  0
 10 30  2  0  0  0  0
 11 12  1  0  0  0  0
 13 34  1  0  0  0  0
 13 35  1  0  0  0  0
 14 16  1  0  0  0  0
 14 20  2  0  0  0  0
 15 17  1  0  0  0  0
 15 19  1  6  0  0  0
 16 17  1  0  0  0  0
 16 21  2  0  0  0  0
 18 22  1  0  0  0  0
 20 23  1  0  0  0  0
 21 24  1  0  0  0  0
 23 24  2  0  0  0  0
 25 26  1  0  0  0  0
 25 29  1  0  0  0  0
 26 28  1  0  0  0  0
 26 31  1  0  0  0  0
 27 30  1  0  0  0  0
 28 34  1  0  0  0  0
 29 32  1  0  0  0  0
 31 33  1  0  0  0  0
 32 33  1  0  0  0  0
M  END
> <PUBCHEM_COMPOUND_ID_TYPE>
0

> <PUBCHEM_TOTAL_CHARGE>
0

> <PUBCHEM_SUBSTANCE_ID>
310938094

> <PUBCHEM_SUBSTANCE_VERSION>
1

> <PUBCHEM_EXT_DATASOURCE_NAME>
4488

> <PUBCHEM_EXT_DATASOURCE_REGID>
SCHEMBL16115939

> <PUBCHEM_SUBSTANCE_COMMENT>
InChI=1S/C22H28N8O5/c31-18(10-25-22(34)35)14-6-2-3-7-15(14)23-12-20(32)30-16-8-4-1-5-13(16)9-17(30)21(33)24-11-19-26-28-29-27-19/h1,4-5,8,14-15,17,23,25H,2-3,6-7,9-12H2,(H,24,33)(H,34,35)(H,26,27,28,29)/t14?,15?,17-/m0/s1
InChIKey=RZUBLODHBOKPAZ-DQPZFDDXSA-N

> <PUBCHEM_SUBSTANCE_SYNONYM>
SCHEMBL16115939

> <PUBCHEM_XREF_EXT_ID>
SCHEMBL16115939

> <PUBCHEM_EXT_DATASOURCE_URL>
https://www.surechembl.org/

> <PUBCHEM_EXT_SUBSTANCE_URL>
https://www.surechembl.org/chemical/SCHEMBL16115939

> <PUBCHEM_CID_ASSOCIATIONS>
117605657  1

> <PUBCHEM_COORDINATE_TYPE>
1
3

> <PUBCHEM_BONDANNOTATIONS>
15  19  6

$$$$
