310946126
  -OEChem-07211613022D

 41 48  0     0  0  0  0  0  0999 V2000
    2.9051   -4.9092    0.0000 O   0  0  0  0  0  0  0  0  0  0  0  0
   -0.3768   -4.7377    0.0000 N   0  0  0  0  0  0  0  0  0  0  0  0
   -2.8338   -6.3381    0.0000 C   0  0  0  0  0  0  0  0  0  0  0  0
   -2.0268   -6.1666    0.0000 C   0  0  0  0  0  0  0  0  0  0  0  0
   -1.6143   -6.8811    0.0000 C   0  0  0  0  0  0  0  0  0  0  0  0
   -2.9200   -7.1586    0.0000 C   0  0  0  0  0  0  0  0  0  0  0  0
   -2.1664   -7.4942    0.0000 C   0  0  0  0  0  0  0  0  0  0  0  0
   -0.7893   -5.4521    0.0000 C   0  0  0  0  0  0  0  0  0  0  0  0
   -1.6143   -5.4521    0.0000 C   0  0  0  0  0  0  0  0  0  0  0  0
   -0.7893   -6.8811    0.0000 C   0  0  0  0  0  0  0  0  0  0  0  0
    0.4482   -4.7377    0.0000 C   0  0  0  0  0  0  0  0  0  0  0  0
    1.6857   -5.4521    0.0000 C   0  0  0  0  0  0  0  0  0  0  0  0
   -0.3768   -6.1666    0.0000 C   0  0  0  0  0  0  0  0  0  0  0  0
   -3.5875   -7.6435    0.0000 C   0  0  0  0  0  0  0  0  0  0  0  0
   -2.0801   -8.3147    0.0000 C   0  0  0  0  0  0  0  0  0  0  0  0
    2.0982   -4.7377    0.0000 C   0  0  0  0  0  0  0  0  0  0  0  0
   -0.7893   -4.0232    0.0000 C   0  0  0  0  0  0  0  0  0  0  0  0
    2.2377   -6.0652    0.0000 C   0  0  0  0  0  0  0  0  0  0  0  0
    0.8607   -5.4521    0.0000 C   0  0  0  0  0  0  0  0  0  0  0  0
   -2.8338   -5.5131    0.0000 C   0  0  0  0  0  0  0  0  0  0  0  0
   -3.6588   -6.3381    0.0000 C   0  0  0  0  0  0  0  0  0  0  0  0
    2.9914   -5.7297    0.0000 C   0  0  0  0  0  0  0  0  0  0  0  0
    0.8607   -4.0232    0.0000 C   0  0  0  0  0  0  0  0  0  0  0  0
    1.6857   -4.0232    0.0000 C   0  0  0  0  0  0  0  0  0  0  0  0
   -3.5012   -8.4640    0.0000 C   0  0  0  0  0  0  0  0  0  0  0  0
   -2.7476   -8.7996    0.0000 C   0  0  0  0  0  0  0  0  0  0  0  0
   -0.3768   -3.3087    0.0000 C   0  0  0  0  0  0  0  0  0  0  0  0
    2.1515   -6.8857    0.0000 C   0  0  0  0  0  0  0  0  0  0  0  0
   -1.6143   -4.0232    0.0000 C   0  0  0  0  0  0  0  0  0  0  0  0
   -0.7893   -2.5942    0.0000 C   0  0  0  0  0  0  0  0  0  0  0  0
    3.6588   -6.2146    0.0000 C   0  0  0  0  0  0  0  0  0  0  0  0
    2.8189   -7.3706    0.0000 C   0  0  0  0  0  0  0  0  0  0  0  0
   -2.0268   -3.3087    0.0000 C   0  0  0  0  0  0  0  0  0  0  0  0
   -1.6143   -2.5942    0.0000 C   0  0  0  0  0  0  0  0  0  0  0  0
    3.5726   -7.0351    0.0000 C   0  0  0  0  0  0  0  0  0  0  0  0
   -0.3768   -1.8798    0.0000 C   0  0  0  0  0  0  0  0  0  0  0  0
    0.4482   -1.8798    0.0000 C   0  0  0  0  0  0  0  0  0  0  0  0
   -0.7893   -1.1653    0.0000 C   0  0  0  0  0  0  0  0  0  0  0  0
    0.8607   -1.1653    0.0000 C   0  0  0  0  0  0  0  0  0  0  0  0
   -0.3768   -0.4508    0.0000 C   0  0  0  0  0  0  0  0  0  0  0  0
    0.4482   -0.4508    0.0000 C   0  0  0  0  0  0  0  0  0  0  0  0
  1 16  1  0  0  0  0
  1 22  1  0  0  0  0
  2  8  1  0  0  0  0
  2 11  1  0  0  0  0
  2 17  1  0  0  0  0
  3  4  1  0  0  0  0
  3  6  1  0  0  0  0
  3 20  1  0  0  0  0
  3 21  1  0  0  0  0
  4  5  2  0  0  0  0
  4  9  1  0  0  0  0
  5  7  1  0  0  0  0
  5 10  1  0  0  0  0
  6  7  2  0  0  0  0
  6 14  1  0  0  0  0
  7 15  1  0  0  0  0
  8  9  2  0  0  0  0
  8 13  1  0  0  0  0
 10 13  2  0  0  0  0
 11 19  2  0  0  0  0
 11 23  1  0  0  0  0
 12 16  2  0  0  0  0
 12 18  1  0  0  0  0
 12 19  1  0  0  0  0
 14 25  2  0  0  0  0
 15 26  2  0  0  0  0
 16 24  1  0  0  0  0
 17 27  2  0  0  0  0
 17 29  1  0  0  0  0
 18 22  2  0  0  0  0
 18 28  1  0  0  0  0
 22 31  1  0  0  0  0
 23 24  2  0  0  0  0
 25 26  1  0  0  0  0
 27 30  1  0  0  0  0
 28 32  2  0  0  0  0
 29 33  2  0  0  0  0
 30 34  2  0  0  0  0
 30 36  1  0  0  0  0
 31 35  2  0  0  0  0
 32 35  1  0  0  0  0
 33 34  1  0  0  0  0
 36 37  2  0  0  0  0
 36 38  1  0  0  0  0
 37 39  1  0  0  0  0
 38 40  2  0  0  0  0
 39 41  2  0  0  0  0
 40 41  1  0  0  0  0
M  END
> <PUBCHEM_COMPOUND_ID_TYPE>
0

> <PUBCHEM_TOTAL_CHARGE>
0

> <PUBCHEM_SUBSTANCE_ID>
310946126

> <PUBCHEM_SUBSTANCE_VERSION>
1

> <PUBCHEM_EXT_DATASOURCE_NAME>
4488

> <PUBCHEM_EXT_DATASOURCE_REGID>
SCHEMBL16124235

> <PUBCHEM_SUBSTANCE_COMMENT>
InChI=1S/C39H29NO/c1-39(2)35-17-8-6-15-31(35)32-21-19-30(25-36(32)39)40(28-14-10-13-27(23-28)26-11-4-3-5-12-26)29-20-22-38-34(24-29)33-16-7-9-18-37(33)41-38/h3-25H,1-2H3
InChIKey=IQUUDYAPRKSPDP-UHFFFAOYSA-N

> <PUBCHEM_SUBSTANCE_SYNONYM>
SCHEMBL16124235

> <PUBCHEM_XREF_EXT_ID>
SCHEMBL16124235

> <PUBCHEM_EXT_DATASOURCE_URL>
https://www.surechembl.org/

> <PUBCHEM_EXT_SUBSTANCE_URL>
https://www.surechembl.org/chemical/SCHEMBL16124235

> <PUBCHEM_CID_ASSOCIATIONS>
117612085  1

> <PUBCHEM_COORDINATE_TYPE>
1
3

$$$$
