310941960
  -OEChem-07211613022D

 19 21  0     0  0  0  0  0  0999 V2000
    2.5839    1.6522    0.0000 O   0  0  0  0  0  0  0  0  0  0  0  0
   -0.5466   -0.5466    0.0000 N   0  0  0  0  0  0  0  0  0  0  0  0
   -1.5280    1.3416    0.0000 N   0  0  0  0  0  0  0  0  0  0  0  0
   -0.1367    0.7454    0.0000 C   0  0  0  0  0  0  0  0  0  0  0  0
    0.1118   -0.0249    0.0000 C   0  0  0  0  0  0  0  0  0  0  0  0
   -0.9814    0.7578    0.0000 C   0  0  0  0  0  0  0  0  0  0  0  0
   -1.2423   -0.0372    0.0000 C   0  0  0  0  0  0  0  0  0  0  0  0
    0.4100    1.3541    0.0000 C   0  0  0  0  0  0  0  0  0  0  0  0
    0.9317   -0.1988    0.0000 C   0  0  0  0  0  0  0  0  0  0  0  0
    1.2050    1.2050    0.0000 C   0  0  0  0  0  0  0  0  0  0  0  0
   -2.0498   -0.2112    0.0000 C   0  0  0  0  0  0  0  0  0  0  0  0
   -0.5590   -1.3541    0.0000 C   0  0  0  0  0  0  0  0  0  0  0  0
    1.4658    0.3975    0.0000 C   0  0  0  0  0  0  0  0  0  0  0  0
   -2.3231    1.1802    0.0000 C   0  0  0  0  0  0  0  0  0  0  0  0
   -2.5839    0.3975    0.0000 C   0  0  0  0  0  0  0  0  0  0  0  0
    1.7391    1.8386    0.0000 C   0  0  0  0  0  0  0  0  0  0  0  0
   -1.2671   -1.7640    0.0000 C   0  0  0  0  0  0  0  0  0  0  0  0
    1.4783    2.6087    0.0000 C   0  0  0  0  0  0  0  0  0  0  0  0
   -1.2547   -2.6087    0.0000 C   0  0  0  0  0  0  0  0  0  0  0  0
  1 16  2  0  0  0  0
  2  5  1  0  0  0  0
  2  7  1  0  0  0  0
  2 12  1  0  0  0  0
  3  6  2  0  0  0  0
  3 14  1  0  0  0  0
  4  5  2  0  0  0  0
  4  6  1  0  0  0  0
  4  8  1  0  0  0  0
  5  9  1  0  0  0  0
  6  7  1  0  0  0  0
  7 11  2  0  0  0  0
  8 10  2  0  0  0  0
  9 13  2  0  0  0  0
 10 13  1  0  0  0  0
 10 16  1  0  0  0  0
 11 15  1  0  0  0  0
 12 17  1  0  0  0  0
 14 15  2  0  0  0  0
 16 18  1  0  0  0  0
 17 19  1  0  0  0  0
M  END
> <PUBCHEM_COMPOUND_ID_TYPE>
0

> <PUBCHEM_TOTAL_CHARGE>
0

> <PUBCHEM_SUBSTANCE_ID>
310941960

> <PUBCHEM_SUBSTANCE_VERSION>
1

> <PUBCHEM_EXT_DATASOURCE_NAME>
4488

> <PUBCHEM_EXT_DATASOURCE_REGID>
SCHEMBL16119994

> <PUBCHEM_SUBSTANCE_COMMENT>
InChI=1S/C16H16N2O/c1-3-9-18-14-7-6-12(11(2)19)10-13(14)16-15(18)5-4-8-17-16/h4-8,10H,3,9H2,1-2H3
InChIKey=XJMHTAJTQRUKHZ-UHFFFAOYSA-N

> <PUBCHEM_SUBSTANCE_SYNONYM>
SCHEMBL16119994

> <PUBCHEM_XREF_EXT_ID>
SCHEMBL16119994

> <PUBCHEM_EXT_DATASOURCE_URL>
https://www.surechembl.org/

> <PUBCHEM_EXT_SUBSTANCE_URL>
https://www.surechembl.org/chemical/SCHEMBL16119994

> <PUBCHEM_CID_ASSOCIATIONS>
86271153  1

> <PUBCHEM_COORDINATE_TYPE>
1
3

$$$$
