310940130
  -OEChem-07211613022D

 35 41  0     0  0  0  0  0  0999 V2000
    1.2657   -1.8606    0.0000 Br  0  0  0  0  0  0  0  0  0  0  0  0
    4.5241   -1.5608    0.0000 O   0  0  0  0  0  0  0  0  0  0  0  0
    4.0282   -7.8027    0.0000 N   0  0  0  0  0  0  0  0  0  0  0  0
    5.3630   -7.8027    0.0000 N   0  0  0  0  0  0  0  0  0  0  0  0
    4.6956   -7.3178    0.0000 C   0  0  0  0  0  0  0  0  0  0  0  0
    4.2831   -8.5874    0.0000 C   0  0  0  0  0  0  0  0  0  0  0  0
    3.9811   -2.7803    0.0000 C   0  0  0  0  0  0  0  0  0  0  0  0
    3.3680   -2.2283    0.0000 C   0  0  0  0  0  0  0  0  0  0  0  0
    5.1081   -8.5874    0.0000 C   0  0  0  0  0  0  0  0  0  0  0  0
    4.6956   -2.3678    0.0000 C   0  0  0  0  0  0  0  0  0  0  0  0
    3.7036   -1.4746    0.0000 C   0  0  0  0  0  0  0  0  0  0  0  0
    4.6956   -6.4928    0.0000 C   0  0  0  0  0  0  0  0  0  0  0  0
    3.2313   -7.5892    0.0000 C   0  0  0  0  0  0  0  0  0  0  0  0
    4.6956   -4.0178    0.0000 C   0  0  0  0  0  0  0  0  0  0  0  0
    3.9811   -3.6053    0.0000 C   0  0  0  0  0  0  0  0  0  0  0  0
    4.6956   -4.8428    0.0000 C   0  0  0  0  0  0  0  0  0  0  0  0
    5.4101   -2.7803    0.0000 C   0  0  0  0  0  0  0  0  0  0  0  0
    2.5476   -2.3145    0.0000 C   0  0  0  0  0  0  0  0  0  0  0  0
    3.8706   -9.3018    0.0000 C   0  0  0  0  0  0  0  0  0  0  0  0
    5.4101   -3.6053    0.0000 C   0  0  0  0  0  0  0  0  0  0  0  0
    3.9811   -6.0803    0.0000 C   0  0  0  0  0  0  0  0  0  0  0  0
    5.4101   -6.0803    0.0000 C   0  0  0  0  0  0  0  0  0  0  0  0
    5.5206   -9.3018    0.0000 C   0  0  0  0  0  0  0  0  0  0  0  0
    3.2187   -0.8072    0.0000 C   0  0  0  0  0  0  0  0  0  0  0  0
    3.9811   -5.2553    0.0000 C   0  0  0  0  0  0  0  0  0  0  0  0
    5.4101   -5.2553    0.0000 C   0  0  0  0  0  0  0  0  0  0  0  0
    2.0626   -1.6471    0.0000 C   0  0  0  0  0  0  0  0  0  0  0  0
    3.0177   -6.7923    0.0000 C   0  0  0  0  0  0  0  0  0  0  0  0
    2.6479   -8.1726    0.0000 C   0  0  0  0  0  0  0  0  0  0  0  0
    2.3982   -0.8934    0.0000 C   0  0  0  0  0  0  0  0  0  0  0  0
    4.2831  -10.0163    0.0000 C   0  0  0  0  0  0  0  0  0  0  0  0
    5.1081  -10.0163    0.0000 C   0  0  0  0  0  0  0  0  0  0  0  0
    2.2209   -6.5788    0.0000 C   0  0  0  0  0  0  0  0  0  0  0  0
    1.8510   -7.9590    0.0000 C   0  0  0  0  0  0  0  0  0  0  0  0
    1.6375   -7.1622    0.0000 C   0  0  0  0  0  0  0  0  0  0  0  0
  1 27  1  0  0  0  0
  2 10  1  0  0  0  0
  2 11  1  0  0  0  0
  3  5  1  0  0  0  0
  3  6  1  0  0  0  0
  3 13  1  0  0  0  0
  4  5  2  0  0  0  0
  4  9  1  0  0  0  0
  5 12  1  0  0  0  0
  6  9  1  0  0  0  0
  6 19  2  0  0  0  0
  7  8  1  0  0  0  0
  7 10  2  0  0  0  0
  7 15  1  0  0  0  0
  8 11  1  0  0  0  0
  8 18  2  0  0  0  0
  9 23  2  0  0  0  0
 10 17  1  0  0  0  0
 11 24  2  0  0  0  0
 12 21  2  0  0  0  0
 12 22  1  0  0  0  0
 13 28  2  0  0  0  0
 13 29  1  0  0  0  0
 14 15  2  0  0  0  0
 14 16  1  0  0  0  0
 14 20  1  0  0  0  0
 16 25  2  0  0  0  0
 16 26  1  0  0  0  0
 17 20  2  0  0  0  0
 18 27  1  0  0  0  0
 19 31  1  0  0  0  0
 21 25  1  0  0  0  0
 22 26  2  0  0  0  0
 23 32  1  0  0  0  0
 24 30  1  0  0  0  0
 27 30  2  0  0  0  0
 28 33  1  0  0  0  0
 29 34  2  0  0  0  0
 31 32  2  0  0  0  0
 33 35  2  0  0  0  0
 34 35  1  0  0  0  0
M  END
> <PUBCHEM_COMPOUND_ID_TYPE>
0

> <PUBCHEM_TOTAL_CHARGE>
0

> <PUBCHEM_SUBSTANCE_ID>
310940130

> <PUBCHEM_SUBSTANCE_VERSION>
1

> <PUBCHEM_EXT_DATASOURCE_NAME>
4488

> <PUBCHEM_EXT_DATASOURCE_REGID>
SCHEMBL16118063

> <PUBCHEM_SUBSTANCE_COMMENT>
InChI=1S/C31H19BrN2O/c32-23-15-17-30-26(19-23)25-18-22(14-16-29(25)35-30)20-10-12-21(13-11-20)31-33-27-8-4-5-9-28(27)34(31)24-6-2-1-3-7-24/h1-19H
InChIKey=JWQHKHCIPXIZJX-UHFFFAOYSA-N

> <PUBCHEM_SUBSTANCE_SYNONYM>
SCHEMBL16118063

> <PUBCHEM_XREF_EXT_ID>
SCHEMBL16118063

> <PUBCHEM_EXT_DATASOURCE_URL>
https://www.surechembl.org/

> <PUBCHEM_EXT_SUBSTANCE_URL>
https://www.surechembl.org/chemical/SCHEMBL16118063

> <PUBCHEM_CID_ASSOCIATIONS>
117607257  1

> <PUBCHEM_COORDINATE_TYPE>
1
3

$$$$
