310943096
  -OEChem-07211613022D

 28 30  0     0  0  0  0  0  0999 V2000
   -1.2960    1.4917    0.0000 Cl  0  0  0  0  0  0  0  0  0  0  0  0
    0.8069    2.1111    0.0000 F   0  0  0  0  0  0  0  0  0  0  0  0
    2.2415    2.1111    0.0000 F   0  0  0  0  0  0  0  0  0  0  0  0
    2.3231    1.4754    0.0000 F   0  0  0  0  0  0  0  0  0  0  0  0
    2.3719   -1.3938    0.0000 F   0  0  0  0  0  0  0  0  0  0  0  0
    3.6598   -0.3994    0.0000 F   0  0  0  0  0  0  0  0  0  0  0  0
    2.9425   -1.6383    0.0000 F   0  0  0  0  0  0  0  0  0  0  0  0
   -3.6598   -0.9863    0.0000 F   0  0  0  0  0  0  0  0  0  0  0  0
   -2.2252   -1.8177    0.0000 F   0  0  0  0  0  0  0  0  0  0  0  0
   -3.3501   -2.1111    0.0000 F   0  0  0  0  0  0  0  0  0  0  0  0
    0.0082    0.7091    0.0000 N   0  0  0  0  0  0  0  0  0  0  0  0
   -0.0082   -0.6440    0.0000 N   0  0  0  0  0  0  0  0  0  0  0  0
    0.7906    0.4157    0.0000 C   0  0  0  0  0  0  0  0  0  0  0  0
    0.7744   -0.4157    0.0000 C   0  0  0  0  0  0  0  0  0  0  0  0
    1.5079    0.8232    0.0000 C   0  0  0  0  0  0  0  0  0  0  0  0
   -0.4972    0.0082    0.0000 C   0  0  0  0  0  0  0  0  0  0  0  0
    2.2090   -0.4157    0.0000 C   0  0  0  0  0  0  0  0  0  0  0  0
    1.5405    1.6710    0.0000 C   0  0  0  0  0  0  0  0  0  0  0  0
   -1.3123    0.0082    0.0000 C   0  0  0  0  0  0  0  0  0  0  0  0
    2.2252    0.4157    0.0000 C   0  0  0  0  0  0  0  0  0  0  0  0
    1.5405   -0.8232    0.0000 C   0  0  0  0  0  0  0  0  0  0  0  0
    2.9425   -0.8396    0.0000 C   0  0  0  0  0  0  0  0  0  0  0  0
   -1.7199    0.7254    0.0000 C   0  0  0  0  0  0  0  0  0  0  0  0
   -1.7199   -0.6928    0.0000 C   0  0  0  0  0  0  0  0  0  0  0  0
   -2.5350   -0.6928    0.0000 C   0  0  0  0  0  0  0  0  0  0  0  0
   -2.9588   -1.4264    0.0000 C   0  0  0  0  0  0  0  0  0  0  0  0
   -2.5350    0.7091    0.0000 C   0  0  0  0  0  0  0  0  0  0  0  0
   -2.9425    0.0245    0.0000 C   0  0  0  0  0  0  0  0  0  0  0  0
  1 23  1  0  0  0  0
  2 18  1  0  0  0  0
  3 18  1  0  0  0  0
  4 18  1  0  0  0  0
  5 22  1  0  0  0  0
  6 22  1  0  0  0  0
  7 22  1  0  0  0  0
  8 26  1  0  0  0  0
  9 26  1  0  0  0  0
 10 26  1  0  0  0  0
 11 13  1  0  0  0  0
 11 16  2  0  0  0  0
 12 14  1  0  0  0  0
 12 16  1  0  0  0  0
 13 14  2  0  0  0  0
 13 15  1  0  0  0  0
 14 21  1  0  0  0  0
 15 18  1  0  0  0  0
 15 20  2  0  0  0  0
 16 19  1  0  0  0  0
 17 20  1  0  0  0  0
 17 21  2  0  0  0  0
 17 22  1  0  0  0  0
 19 23  2  0  0  0  0
 19 24  1  0  0  0  0
 23 27  1  0  0  0  0
 24 25  2  0  0  0  0
 25 26  1  0  0  0  0
 25 28  1  0  0  0  0
 27 28  2  0  0  0  0
M  END
> <PUBCHEM_COMPOUND_ID_TYPE>
0

> <PUBCHEM_TOTAL_CHARGE>
0

> <PUBCHEM_SUBSTANCE_ID>
310943096

> <PUBCHEM_SUBSTANCE_VERSION>
1

> <PUBCHEM_EXT_DATASOURCE_NAME>
4488

> <PUBCHEM_EXT_DATASOURCE_REGID>
SCHEMBL16121155

> <PUBCHEM_SUBSTANCE_COMMENT>
InChI=1S/C16H6ClF9N2/c17-10-2-1-6(14(18,19)20)3-8(10)13-27-11-5-7(15(21,22)23)4-9(12(11)28-13)16(24,25)26/h1-5H,(H,27,28)
InChIKey=LLWZFEQUAPTYFG-UHFFFAOYSA-N

> <PUBCHEM_SUBSTANCE_SYNONYM>
SCHEMBL16121155

> <PUBCHEM_XREF_EXT_ID>
SCHEMBL16121155

> <PUBCHEM_EXT_DATASOURCE_URL>
https://www.surechembl.org/

> <PUBCHEM_EXT_SUBSTANCE_URL>
https://www.surechembl.org/chemical/SCHEMBL16121155

> <PUBCHEM_CID_ASSOCIATIONS>
117609527  1

> <PUBCHEM_COORDINATE_TYPE>
1
3

$$$$
