310949876
  -OEChem-07211613022D

 29 33  0     1  0  0  0  0  0999 V2000
   -0.7344    1.4895    0.0000 N   0  0  0  0  0  0  0  0  0  0  0  0
   -0.7344    2.8334    0.0000 N   0  0  0  0  0  0  0  0  0  0  0  0
    0.0416   -0.8797    0.0000 N   0  0  0  0  0  0  0  0  0  0  0  0
    1.8289    1.4340    0.0000 N   0  0  0  0  0  0  0  0  0  0  0  0
   -0.2494    2.1684    0.0000 C   0  0  0  0  0  0  0  0  0  0  0  0
   -1.5380    1.7527    0.0000 C   0  0  0  0  0  0  0  0  0  0  0  0
   -1.5241    2.5702    0.0000 C   0  0  0  0  0  0  0  0  0  0  0  0
   -0.4850    0.7136    0.0000 C   0  0  0  0  0  0  0  0  0  0  0  0
    0.5958    2.1407    0.0000 C   0  0  3  0  0  0  0  0  0  0  0  0
   -2.2585    1.3370    0.0000 C   0  0  0  0  0  0  0  0  0  0  0  0
   -2.2446    2.9720    0.0000 C   0  0  0  0  0  0  0  0  0  0  0  0
   -1.0391    0.0762    0.0000 C   0  0  0  0  0  0  0  0  0  0  0  0
    0.3326    0.5196    0.0000 C   0  0  0  0  0  0  0  0  0  0  0  0
    0.9976    1.4479    0.0000 C   0  0  0  0  0  0  0  0  0  0  0  0
    0.9837    2.8611    0.0000 C   0  0  0  0  0  0  0  0  0  0  0  0
   -2.9650    1.7527    0.0000 C   0  0  0  0  0  0  0  0  0  0  0  0
   -2.9650    2.5702    0.0000 C   0  0  0  0  0  0  0  0  0  0  0  0
   -0.7760   -0.6997    0.0000 C   0  0  0  0  0  0  0  0  0  0  0  0
    0.5820   -0.2563    0.0000 C   0  0  0  0  0  0  0  0  0  0  0  0
    1.8289    2.8750    0.0000 C   0  0  0  0  0  0  0  0  0  0  0  0
    0.2909   -1.6557    0.0000 C   0  0  0  0  0  0  0  0  0  0  0  0
    2.2307    2.1545    0.0000 C   0  0  0  0  0  0  0  0  0  0  0  0
    1.0946   -1.8358    0.0000 C   0  0  0  0  0  0  0  0  0  0  0  0
    1.3163   -2.6394    0.0000 C   0  0  0  0  0  0  0  0  0  0  0  0
    1.5933   -1.1430    0.0000 C   0  0  0  0  0  0  0  0  0  0  0  0
    2.0784   -2.9720    0.0000 C   0  0  0  0  0  0  0  0  0  0  0  0
    2.4247   -1.1430    0.0000 C   0  0  0  0  0  0  0  0  0  0  0  0
    2.9650   -1.7666    0.0000 C   0  0  0  0  0  0  0  0  0  0  0  0
    2.7987   -2.5840    0.0000 C   0  0  0  0  0  0  0  0  0  0  0  0
  1  5  1  0  0  0  0
  1  6  1  0  0  0  0
  1  8  1  0  0  0  0
  2  5  2  0  0  0  0
  2  7  1  0  0  0  0
  3 18  1  0  0  0  0
  3 19  1  0  0  0  0
  3 21  1  0  0  0  0
  4 14  1  0  0  0  0
  4 22  1  0  0  0  0
  9  5  1  6  0  0  0
  6  7  1  0  0  0  0
  6 10  2  0  0  0  0
  7 11  2  0  0  0  0
  8 12  1  0  0  0  0
  8 13  1  0  0  0  0
  9 14  1  0  0  0  0
  9 15  1  0  0  0  0
 10 16  1  0  0  0  0
 11 17  1  0  0  0  0
 12 18  1  0  0  0  0
 13 19  1  0  0  0  0
 15 20  1  0  0  0  0
 16 17  2  0  0  0  0
 20 22  1  0  0  0  0
 21 23  1  0  0  0  0
 23 24  1  0  0  0  0
 23 25  1  0  0  0  0
 24 26  1  0  0  0  0
 25 27  1  0  0  0  0
 26 29  1  0  0  0  0
 27 28  1  0  0  0  0
 28 29  1  0  0  0  0
M  END
> <PUBCHEM_COMPOUND_ID_TYPE>
0

> <PUBCHEM_TOTAL_CHARGE>
0

> <PUBCHEM_SUBSTANCE_ID>
310949876

> <PUBCHEM_SUBSTANCE_VERSION>
1

> <PUBCHEM_EXT_DATASOURCE_NAME>
4488

> <PUBCHEM_EXT_DATASOURCE_REGID>
SCHEMBL16128087

> <PUBCHEM_SUBSTANCE_COMMENT>
InChI=1S/C25H38N4/c1-2-4-9-20(8-3-1)19-28-16-13-22(14-17-28)29-24-12-6-5-11-23(24)27-25(29)21-10-7-15-26-18-21/h5-6,11-12,20-22,26H,1-4,7-10,13-19H2/t21-/m1/s1
InChIKey=QZOXMRLPESHCOS-OAQYLSRUSA-N

> <PUBCHEM_SUBSTANCE_SYNONYM>
SCHEMBL16128087

> <PUBCHEM_XREF_EXT_ID>
SCHEMBL16128087

> <PUBCHEM_EXT_DATASOURCE_URL>
https://www.surechembl.org/

> <PUBCHEM_EXT_SUBSTANCE_URL>
https://www.surechembl.org/chemical/SCHEMBL16128087

> <PUBCHEM_CID_ASSOCIATIONS>
86272141  1

> <PUBCHEM_COORDINATE_TYPE>
1
3

> <PUBCHEM_BONDANNOTATIONS>
9  5  6

$$$$
