310948621
  -OEChem-07211613022D

 26 29  0     1  0  0  0  0  0999 V2000
    2.8635   -2.3754    0.0000 F   0  0  0  0  0  0  0  0  0  0  0  0
   -2.1349   -1.8799    0.0000 O   0  0  0  0  0  0  0  0  0  0  0  0
   -0.6339    0.4517    0.0000 N   0  0  0  0  0  0  0  0  0  0  0  0
   -0.1384   -0.2186    0.0000 N   0  0  0  0  0  0  0  0  0  0  0  0
   -0.3716   -1.6758    0.0000 N   0  0  0  0  0  0  0  0  0  0  0  0
   -2.8635   -0.6412    0.0000 N   0  0  0  0  0  0  0  0  0  0  0  0
    1.5374    0.1894    0.0000 N   0  0  0  0  0  0  0  0  0  0  0  0
   -1.4354   -0.6267    0.0000 C   0  0  0  0  0  0  0  0  0  0  0  0
   -1.4208    0.2040    0.0000 C   0  0  0  0  0  0  0  0  0  0  0  0
   -0.6339   -0.8889    0.0000 C   0  0  0  0  0  0  0  0  0  0  0  0
   -0.3716    1.2532    0.0000 C   0  0  3  0  0  0  0  0  0  0  0  0
   -2.1495   -1.0201    0.0000 C   0  0  0  0  0  0  0  0  0  0  0  0
   -2.1495    0.6121    0.0000 C   0  0  0  0  0  0  0  0  0  0  0  0
    0.4299    1.4281    0.0000 C   0  0  3  0  0  0  0  0  0  0  0  0
   -2.8489    0.2040    0.0000 C   0  0  0  0  0  0  0  0  0  0  0  0
   -0.9108    1.8507    0.0000 C   0  0  0  0  0  0  0  0  0  0  0  0
    0.4299   -1.8507    0.0000 C   0  0  0  0  0  0  0  0  0  0  0  0
    0.6776    2.2150    0.0000 C   0  0  0  0  0  0  0  0  0  0  0  0
    0.9691    0.8015    0.0000 C   0  0  0  0  0  0  0  0  0  0  0  0
   -0.6776    2.6522    0.0000 C   0  0  0  0  0  0  0  0  0  0  0  0
    0.6922   -2.6377    0.0000 C   0  0  0  0  0  0  0  0  0  0  0  0
    0.9983   -1.2532    0.0000 C   0  0  0  0  0  0  0  0  0  0  0  0
    0.1384    2.8125    0.0000 C   0  0  0  0  0  0  0  0  0  0  0  0
    1.4937   -2.8125    0.0000 C   0  0  0  0  0  0  0  0  0  0  0  0
    1.7997   -1.4135    0.0000 C   0  0  0  0  0  0  0  0  0  0  0  0
    2.0474   -2.2004    0.0000 C   0  0  0  0  0  0  0  0  0  0  0  0
  1 26  1  0  0  0  0
  2 12  2  0  0  0  0
  3  4  1  0  0  0  0
  3  9  1  0  0  0  0
 11  3  1  1  0  0  0
  4 10  2  0  0  0  0
  5 10  1  0  0  0  0
  5 17  1  0  0  0  0
  6 12  1  0  0  0  0
  6 15  1  0  0  0  0
  7 19  3  0  0  0  0
  8  9  2  0  0  0  0
  8 10  1  0  0  0  0
  8 12  1  0  0  0  0
  9 13  1  0  0  0  0
 11 14  1  0  0  0  0
 11 16  1  0  0  0  0
 13 15  2  0  0  0  0
 14 18  1  0  0  0  0
 14 19  1  6  0  0  0
 16 20  1  0  0  0  0
 17 21  2  0  0  0  0
 17 22  1  0  0  0  0
 18 23  1  0  0  0  0
 20 23  1  0  0  0  0
 21 24  1  0  0  0  0
 22 25  2  0  0  0  0
 24 26  2  0  0  0  0
 25 26  1  0  0  0  0
M  END
> <PUBCHEM_COMPOUND_ID_TYPE>
0

> <PUBCHEM_TOTAL_CHARGE>
0

> <PUBCHEM_SUBSTANCE_ID>
310948621

> <PUBCHEM_SUBSTANCE_VERSION>
1

> <PUBCHEM_EXT_DATASOURCE_NAME>
4488

> <PUBCHEM_EXT_DATASOURCE_REGID>
SCHEMBL16126804

> <PUBCHEM_SUBSTANCE_COMMENT>
InChI=1S/C19H18FN5O/c20-13-5-7-14(8-6-13)23-18-17-16(9-10-22-19(17)26)25(24-18)15-4-2-1-3-12(15)11-21/h5-10,12,15H,1-4H2,(H,22,26)(H,23,24)/t12-,15+/m1/s1
InChIKey=CPSWKXQLHRUVAH-DOMZBBRYSA-N

> <PUBCHEM_SUBSTANCE_SYNONYM>
SCHEMBL16126804

> <PUBCHEM_XREF_EXT_ID>
SCHEMBL16126804

> <PUBCHEM_EXT_DATASOURCE_URL>
https://www.surechembl.org/

> <PUBCHEM_EXT_SUBSTANCE_URL>
https://www.surechembl.org/chemical/SCHEMBL16126804

> <PUBCHEM_CID_ASSOCIATIONS>
117614165  1

> <PUBCHEM_COORDINATE_TYPE>
1
3

> <PUBCHEM_BONDANNOTATIONS>
14  19  6
11  3  5

$$$$
