310939253
  -OEChem-07211613022D

 25 27  0     1  0  0  0  0  0999 V2000
    0.4369   -0.3337    0.0000 Cl  0  0  0  0  0  0  0  0  0  0  0  0
   -2.4209   -0.3337    0.0000 F   0  0  0  0  0  0  0  0  0  0  0  0
   -0.9920    0.4913    0.0000 O   0  0  0  0  0  0  0  0  0  0  0  0
    2.6505    1.8863    0.0000 O   0  0  0  0  0  0  0  0  0  0  0  0
    2.6505    3.2212    0.0000 N   0  0  0  0  0  0  0  0  0  0  0  0
   -3.1354   -1.5712    0.0000 N   0  0  0  0  0  0  0  0  0  0  0  0
   -0.9920   -0.3337    0.0000 C   0  0  0  0  0  0  0  0  0  0  0  0
   -1.7065   -0.7462    0.0000 C   0  0  0  0  0  0  0  0  0  0  0  0
   -1.7065   -1.5712    0.0000 C   0  0  0  0  0  0  0  0  0  0  0  0
   -0.2775   -0.7462    0.0000 C   0  0  0  0  0  0  0  0  0  0  0  0
   -0.2775    0.9038    0.0000 C   0  0  0  0  0  0  0  0  0  0  0  0
    1.1514    1.7288    0.0000 C   0  0  0  0  0  0  0  0  0  0  0  0
    1.1514    0.9038    0.0000 C   0  0  0  0  0  0  0  0  0  0  0  0
    1.8659    2.1413    0.0000 C   0  0  0  0  0  0  0  0  0  0  0  0
    0.4369    0.4913    0.0000 C   0  0  0  0  0  0  0  0  0  0  0  0
   -0.9920   -1.9837    0.0000 C   0  0  0  0  0  0  0  0  0  0  0  0
   -2.4209   -1.9837    0.0000 C   0  0  3  0  0  0  0  0  0  0  0  0
   -0.2775   -1.5712    0.0000 C   0  0  0  0  0  0  0  0  0  0  0  0
   -0.2775    1.7288    0.0000 C   0  0  0  0  0  0  0  0  0  0  0  0
    0.4369    2.1413    0.0000 C   0  0  0  0  0  0  0  0  0  0  0  0
    1.8659    2.9663    0.0000 C   0  0  0  0  0  0  0  0  0  0  0  0
   -2.4209   -2.8087    0.0000 C   0  0  0  0  0  0  0  0  0  0  0  0
    1.8659    0.4913    0.0000 C   0  0  0  0  0  0  0  0  0  0  0  0
    3.1354    2.5538    0.0000 C   0  0  0  0  0  0  0  0  0  0  0  0
   -3.1354   -3.2212    0.0000 C   0  0  0  0  0  0  0  0  0  0  0  0
  1 10  1  0  0  0  0
  2  8  1  0  0  0  0
  3  7  1  0  0  0  0
  3 11  1  0  0  0  0
  4 14  1  0  0  0  0
  4 24  1  0  0  0  0
  5 21  1  0  0  0  0
  5 24  2  0  0  0  0
 17  6  1  1  0  0  0
  7  8  2  0  0  0  0
  7 10  1  0  0  0  0
  8  9  1  0  0  0  0
  9 16  2  0  0  0  0
  9 17  1  0  0  0  0
 10 18  2  0  0  0  0
 11 15  2  0  0  0  0
 11 19  1  0  0  0  0
 12 13  2  0  0  0  0
 12 14  1  0  0  0  0
 12 20  1  0  0  0  0
 13 15  1  0  0  0  0
 13 23  1  0  0  0  0
 14 21  2  0  0  0  0
 16 18  1  0  0  0  0
 17 22  1  0  0  0  0
 19 20  2  0  0  0  0
 22 25  1  0  0  0  0
M  END
> <PUBCHEM_COMPOUND_ID_TYPE>
0

> <PUBCHEM_TOTAL_CHARGE>
0

> <PUBCHEM_SUBSTANCE_ID>
310939253

> <PUBCHEM_SUBSTANCE_VERSION>
1

> <PUBCHEM_EXT_DATASOURCE_NAME>
4488

> <PUBCHEM_EXT_DATASOURCE_REGID>
SCHEMBL16117174

> <PUBCHEM_SUBSTANCE_COMMENT>
InChI=1S/C19H18ClFN2O2/c1-3-16(22)14-6-7-15(20)19(18(14)21)25-12-4-5-13(11(2)8-12)17-9-23-10-24-17/h4-10,16H,3,22H2,1-2H3/t16-/m1/s1
InChIKey=YYDLHDQNNOIPED-MRXNPFEDSA-N

> <PUBCHEM_SUBSTANCE_SYNONYM>
SCHEMBL16117174

> <PUBCHEM_XREF_EXT_ID>
SCHEMBL16117174

> <PUBCHEM_EXT_DATASOURCE_URL>
https://www.surechembl.org/

> <PUBCHEM_EXT_SUBSTANCE_URL>
https://www.surechembl.org/chemical/SCHEMBL16117174

> <PUBCHEM_CID_ASSOCIATIONS>
117606600  1

> <PUBCHEM_COORDINATE_TYPE>
1
3

> <PUBCHEM_BONDANNOTATIONS>
17  6  5

$$$$
