310942693
  -OEChem-07211613022D

 43 46  0     1  0  0  0  0  0999 V2000
   -2.9457    0.0883    0.0000 F   0  0  0  0  0  0  0  0  0  0  0  0
    3.5938   -1.0899    0.0000 F   0  0  0  0  0  0  0  0  0  0  0  0
   -2.9457   -3.2305    0.0000 F   0  0  0  0  0  0  0  0  0  0  0  0
   -0.2160   -1.7576    0.0000 O   0  0  0  0  0  0  0  0  0  0  0  0
    0.6088   -3.1912    0.0000 O   0  0  0  0  0  0  0  0  0  0  0  0
    1.8657    1.8361    0.0000 O   0  0  0  0  0  0  0  0  0  0  0  0
   -2.7885    2.5038    0.0000 O   0  0  0  0  0  0  0  0  0  0  0  0
   -0.7070    0.3437    0.0000 N   0  0  0  0  0  0  0  0  0  0  0  0
    1.0409   -1.0310    0.0000 N   0  0  0  0  0  0  0  0  0  0  0  0
   -0.7070   -0.9918    0.0000 N   0  0  0  0  0  0  0  0  0  0  0  0
    2.6904   -3.0340    0.0000 N   0  0  0  0  0  0  0  0  0  0  0  0
    3.1225    1.1096    0.0000 N   0  0  0  0  0  0  0  0  0  0  0  0
    0.6088   -0.3240    0.0000 C   0  0  3  0  0  0  0  0  0  0  0  0
   -0.2160   -0.3043    0.0000 C   0  0  0  0  0  0  0  0  0  0  0  0
    1.0605    0.4615    0.0000 C   0  0  0  0  0  0  0  0  0  0  0  0
   -1.5121   -0.7168    0.0000 C   0  0  0  0  0  0  0  0  0  0  0  0
   -1.4728    0.1080    0.0000 C   0  0  0  0  0  0  0  0  0  0  0  0
   -2.1995   -1.1488    0.0000 C   0  0  0  0  0  0  0  0  0  0  0  0
    0.6285   -1.7576    0.0000 C   0  0  0  0  0  0  0  0  0  0  0  0
    1.8657   -1.0310    0.0000 C   0  0  0  0  0  0  0  0  0  0  0  0
    1.8657    0.4025    0.0000 C   0  0  0  0  0  0  0  0  0  0  0  0
   -0.2946    1.0899    0.0000 C   0  0  0  0  0  0  0  0  0  0  0  0
   -2.9260   -0.7364    0.0000 C   0  0  0  0  0  0  0  0  0  0  0  0
    2.2780   -1.7379    0.0000 C   0  0  3  0  0  0  0  0  0  0  0  0
    0.6285    1.1488    0.0000 C   0  0  0  0  0  0  0  0  0  0  0  0
    1.4532    1.1488    0.0000 C   0  0  0  0  0  0  0  0  0  0  0  0
   -2.2191   -1.9737    0.0000 C   0  0  0  0  0  0  0  0  0  0  0  0
   -0.7070    1.7968    0.0000 C   0  0  0  0  0  0  0  0  0  0  0  0
    1.0212   -2.4449    0.0000 C   0  0  3  0  0  0  0  0  0  0  0  0
    2.2780    1.1096    0.0000 C   0  0  0  0  0  0  0  0  0  0  0  0
    3.1028   -1.7772    0.0000 C   0  0  3  0  0  0  0  0  0  0  0  0
   -2.9260   -2.3664    0.0000 C   0  0  0  0  0  0  0  0  0  0  0  0
   -3.6330   -1.1488    0.0000 C   0  0  0  0  0  0  0  0  0  0  0  0
    2.0227   -2.5431    0.0000 C   0  0  0  0  0  0  0  0  0  0  0  0
   -3.6526   -1.9737    0.0000 C   0  0  0  0  0  0  0  0  0  0  0  0
   -1.5317    1.8165    0.0000 C   0  0  0  0  0  0  0  0  0  0  0  0
   -0.2946    2.5235    0.0000 C   0  0  0  0  0  0  0  0  0  0  0  0
    3.3582   -2.5235    0.0000 C   0  0  0  0  0  0  0  0  0  0  0  0
   -1.9442    2.5235    0.0000 C   0  0  0  0  0  0  0  0  0  0  0  0
    1.6103   -3.0340    0.0000 C   0  0  0  0  0  0  0  0  0  0  0  0
   -0.7070    3.2305    0.0000 C   0  0  0  0  0  0  0  0  0  0  0  0
   -1.5317    3.2109    0.0000 C   0  0  0  0  0  0  0  0  0  0  0  0
    3.6526    2.0915    0.0000 C   0  0  0  0  0  0  0  0  0  0  0  0
  1 23  1  0  0  0  0
 31  2  1  1  0  0  0
  3 32  1  0  0  0  0
  4 19  2  0  0  0  0
 29  5  1  6  0  0  0
  6 30  2  0  0  0  0
  7 39  1  0  0  0  0
  8 14  1  0  0  0  0
  8 17  1  0  0  0  0
  8 22  1  0  0  0  0
 13  9  1  1  0  0  0
  9 19  1  0  0  0  0
  9 20  1  0  0  0  0
 10 14  2  0  0  0  0
 10 16  1  0  0  0  0
 11 34  1  0  0  0  0
 11 38  1  0  0  0  0
 12 30  1  0  0  0  0
 12 43  1  0  0  0  0
 13 14  1  0  0  0  0
 13 15  1  0  0  0  0
 15 21  1  0  0  0  0
 15 25  1  0  0  0  0
 15 26  1  0  0  0  0
 16 17  2  0  0  0  0
 16 18  1  0  0  0  0
 18 23  2  0  0  0  0
 18 27  1  0  0  0  0
 19 29  1  0  0  0  0
 24 20  1  1  0  0  0
 21 30  1  0  0  0  0
 22 28  1  0  0  0  0
 23 33  1  0  0  0  0
 24 31  1  0  0  0  0
 24 34  1  0  0  0  0
 27 32  2  0  0  0  0
 28 36  1  0  0  0  0
 28 37  2  0  0  0  0
 29 40  1  0  0  0  0
 31 38  1  0  0  0  0
 32 35  1  0  0  0  0
 33 35  2  0  0  0  0
 36 39  2  0  0  0  0
 37 41  1  0  0  0  0
 39 42  1  0  0  0  0
 41 42  2  0  0  0  0
M  END
> <PUBCHEM_COMPOUND_ID_TYPE>
0

> <PUBCHEM_TOTAL_CHARGE>
0

> <PUBCHEM_SUBSTANCE_ID>
310942693

> <PUBCHEM_SUBSTANCE_VERSION>
1

> <PUBCHEM_EXT_DATASOURCE_NAME>
4488

> <PUBCHEM_EXT_DATASOURCE_REGID>
SCHEMBL16120739

> <PUBCHEM_SUBSTANCE_COMMENT>
InChI=1S/C31H38F3N5O4/c1-18(40)30(43)39(16-20-13-36-14-25(20)34)28(31(2,3)12-27(42)35-4)29-37-26(23-11-21(32)8-9-24(23)33)17-38(29)15-19-6-5-7-22(41)10-19/h5-11,17-18,20,25,28,36,40-41H,12-16H2,1-4H3,(H,35,42)/t18-,20-,25-,28-/m0/s1
InChIKey=ROYXPJHHAKIAQG-OUZVDPOVSA-N

> <PUBCHEM_SUBSTANCE_SYNONYM>
SCHEMBL16120739

> <PUBCHEM_XREF_EXT_ID>
SCHEMBL16120739

> <PUBCHEM_EXT_DATASOURCE_URL>
https://www.surechembl.org/

> <PUBCHEM_EXT_SUBSTANCE_URL>
https://www.surechembl.org/chemical/SCHEMBL16120739

> <PUBCHEM_CID_ASSOCIATIONS>
117609221  1

> <PUBCHEM_COORDINATE_TYPE>
1
3

> <PUBCHEM_BONDANNOTATIONS>
31  2  5
24  20  5
29  5  6
13  9  5

$$$$
