310944607
  -OEChem-07211613022D

 21 23  0     0  0  0  0  0  0999 V2000
    0.0065    3.1035    0.0000 F   0  0  0  0  0  0  0  0  0  0  0  0
    2.1757    2.6853    0.0000 N   0  0  0  0  0  0  0  0  0  0  0  0
   -2.1757    2.6330    0.0000 N   0  0  0  0  0  0  0  0  0  0  0  0
    0.0065    0.6338    0.0000 C   0  0  0  0  0  0  0  0  0  0  0  0
    0.0065   -0.2026    0.0000 C   0  0  0  0  0  0  0  0  0  0  0  0
    0.0065    2.2933    0.0000 C   0  0  0  0  0  0  0  0  0  0  0  0
    0.7384    1.8882    0.0000 C   0  0  0  0  0  0  0  0  0  0  0  0
   -0.7253    1.8882    0.0000 C   0  0  0  0  0  0  0  0  0  0  0  0
    0.7384    1.0649    0.0000 C   0  0  0  0  0  0  0  0  0  0  0  0
   -0.6991    1.0388    0.0000 C   0  0  0  0  0  0  0  0  0  0  0  0
   -0.7253   -1.4439    0.0000 C   0  0  0  0  0  0  0  0  0  0  0  0
   -0.7122   -0.6208    0.0000 C   0  0  0  0  0  0  0  0  0  0  0  0
   -0.0065   -1.8490    0.0000 C   0  0  0  0  0  0  0  0  0  0  0  0
    0.7122   -0.6077    0.0000 C   0  0  0  0  0  0  0  0  0  0  0  0
    0.7253   -1.4178    0.0000 C   0  0  0  0  0  0  0  0  0  0  0  0
    1.4570    2.2933    0.0000 C   0  0  0  0  0  0  0  0  0  0  0  0
   -1.4570    2.2671    0.0000 C   0  0  0  0  0  0  0  0  0  0  0  0
   -1.4439   -1.8752    0.0000 C   0  0  0  0  0  0  0  0  0  0  0  0
   -0.0196   -2.6853    0.0000 C   0  0  0  0  0  0  0  0  0  0  0  0
   -1.4439   -2.6984    0.0000 C   0  0  0  0  0  0  0  0  0  0  0  0
   -0.7253   -3.1035    0.0000 C   0  0  0  0  0  0  0  0  0  0  0  0
  1  6  1  0  0  0  0
  2 16  3  0  0  0  0
  3 17  3  0  0  0  0
  4  5  1  0  0  0  0
  4  9  2  0  0  0  0
  4 10  1  0  0  0  0
  5 12  2  0  0  0  0
  5 14  1  0  0  0  0
  6  7  2  0  0  0  0
  6  8  1  0  0  0  0
  7  9  1  0  0  0  0
  7 16  1  0  0  0  0
  8 10  2  0  0  0  0
  8 17  1  0  0  0  0
 11 12  1  0  0  0  0
 11 13  1  0  0  0  0
 11 18  2  0  0  0  0
 13 15  1  0  0  0  0
 13 19  2  0  0  0  0
 14 15  2  0  0  0  0
 18 20  1  0  0  0  0
 19 21  1  0  0  0  0
 20 21  2  0  0  0  0
M  END
> <PUBCHEM_COMPOUND_ID_TYPE>
0

> <PUBCHEM_TOTAL_CHARGE>
0

> <PUBCHEM_SUBSTANCE_ID>
310944607

> <PUBCHEM_SUBSTANCE_VERSION>
1

> <PUBCHEM_EXT_DATASOURCE_NAME>
4488

> <PUBCHEM_EXT_DATASOURCE_REGID>
SCHEMBL16122685

> <PUBCHEM_SUBSTANCE_COMMENT>
InChI=1S/C18H9FN2/c19-18-16(10-20)8-15(9-17(18)11-21)14-6-5-12-3-1-2-4-13(12)7-14/h1-9H
InChIKey=DWWRBQQRZHRZJU-UHFFFAOYSA-N

> <PUBCHEM_SUBSTANCE_SYNONYM>
SCHEMBL16122685

> <PUBCHEM_XREF_EXT_ID>
SCHEMBL16122685

> <PUBCHEM_EXT_DATASOURCE_URL>
https://www.surechembl.org/

> <PUBCHEM_EXT_SUBSTANCE_URL>
https://www.surechembl.org/chemical/SCHEMBL16122685

> <PUBCHEM_CID_ASSOCIATIONS>
117610837  1

> <PUBCHEM_COORDINATE_TYPE>
1
3

$$$$
