310938632
  -OEChem-07211613022D

 34 38  0     0  0  0  0  0  0999 V2000
   -4.1549   10.1376    0.0000 Cl  0  0  0  0  0  0  0  0  0  0  0  0
   -0.5825    9.7251    0.0000 O   0  0  0  0  0  0  0  0  0  0  0  0
    0.1319    8.4876    0.0000 O   0  0  0  0  0  0  0  0  0  0  0  0
   -4.1549    7.6626    0.0000 O   0  0  0  0  0  0  0  0  0  0  0  0
    0.8451   12.2001    0.0000 N   0  0  0  0  0  0  0  0  0  0  0  0
    0.1319   10.9626    0.0000 N   0  0  0  0  0  0  0  0  0  0  0  0
    1.5609   10.9626    0.0000 N   0  0  0  0  0  0  0  0  0  0  0  0
    1.5609    8.4876    0.0000 N   0  0  0  0  0  0  0  0  0  0  0  0
    2.9898    7.6626    0.0000 N   0  0  0  0  0  0  0  0  0  0  0  0
    3.7043    8.9001    0.0000 N   0  0  0  0  0  0  0  0  0  0  0  0
    1.2576   13.4696    0.0000 C   0  0  0  0  0  0  0  0  0  0  0  0
    1.5125   12.6850    0.0000 C   0  0  0  0  0  0  0  0  0  0  0  0
    2.0113   13.8052    0.0000 C   0  0  0  0  0  0  0  0  0  0  0  0
    1.3438   14.2901    0.0000 C   0  0  0  0  0  0  0  0  0  0  0  0
    0.4326   13.4696    0.0000 C   0  0  0  0  0  0  0  0  0  0  0  0
    0.8464   11.3751    0.0000 C   0  0  0  0  0  0  0  0  0  0  0  0
    0.1777   12.6850    0.0000 C   0  0  0  0  0  0  0  0  0  0  0  0
    0.1319   10.1376    0.0000 C   0  0  0  0  0  0  0  0  0  0  0  0
    0.8464    9.7251    0.0000 C   0  0  0  0  0  0  0  0  0  0  0  0
    1.5609   10.1376    0.0000 C   0  0  0  0  0  0  0  0  0  0  0  0
    0.8464    8.9001    0.0000 C   0  0  0  0  0  0  0  0  0  0  0  0
   -1.2970   10.1376    0.0000 C   0  0  0  0  0  0  0  0  0  0  0  0
   -2.0115    9.7251    0.0000 C   0  0  0  0  0  0  0  0  0  0  0  0
   -2.7260   10.1376    0.0000 C   0  0  0  0  0  0  0  0  0  0  0  0
   -3.4404    9.7251    0.0000 C   0  0  0  0  0  0  0  0  0  0  0  0
   -3.4404    8.9001    0.0000 C   0  0  0  0  0  0  0  0  0  0  0  0
   -2.0115    8.9001    0.0000 C   0  0  0  0  0  0  0  0  0  0  0  0
    2.2753    8.9001    0.0000 C   0  0  0  0  0  0  0  0  0  0  0  0
   -2.7260    8.4876    0.0000 C   0  0  0  0  0  0  0  0  0  0  0  0
    2.9898    8.4876    0.0000 C   0  0  0  0  0  0  0  0  0  0  0  0
   -4.1549    8.4876    0.0000 C   0  0  0  0  0  0  0  0  0  0  0  0
    3.7043    7.2501    0.0000 C   0  0  0  0  0  0  0  0  0  0  0  0
    4.4187    8.4876    0.0000 C   0  0  0  0  0  0  0  0  0  0  0  0
    4.4187    7.6626    0.0000 C   0  0  0  0  0  0  0  0  0  0  0  0
  1 25  1  0  0  0  0
  2 18  1  0  0  0  0
  2 22  1  0  0  0  0
  3 21  2  0  0  0  0
  4 31  1  0  0  0  0
  5 12  1  0  0  0  0
  5 16  1  0  0  0  0
  5 17  1  0  0  0  0
  6 16  1  0  0  0  0
  6 18  2  0  0  0  0
  7 16  2  0  0  0  0
  7 20  1  0  0  0  0
  8 21  1  0  0  0  0
  8 28  1  0  0  0  0
  9 30  2  0  0  0  0
  9 32  1  0  0  0  0
 10 30  1  0  0  0  0
 10 33  2  0  0  0  0
 11 12  1  0  0  0  0
 11 13  1  0  0  0  0
 11 14  1  0  0  0  0
 11 15  1  0  0  0  0
 13 14  1  0  0  0  0
 15 17  1  0  0  0  0
 18 19  1  0  0  0  0
 19 20  2  0  0  0  0
 19 21  1  0  0  0  0
 22 23  1  0  0  0  0
 23 24  2  0  0  0  0
 23 27  1  0  0  0  0
 24 25  1  0  0  0  0
 25 26  2  0  0  0  0
 26 29  1  0  0  0  0
 26 31  1  0  0  0  0
 27 29  2  0  0  0  0
 28 30  1  0  0  0  0
 32 34  2  0  0  0  0
 33 34  1  0  0  0  0
M  END
> <PUBCHEM_COMPOUND_ID_TYPE>
0

> <PUBCHEM_TOTAL_CHARGE>
0

> <PUBCHEM_SUBSTANCE_ID>
310938632

> <PUBCHEM_SUBSTANCE_VERSION>
1

> <PUBCHEM_EXT_DATASOURCE_NAME>
4488

> <PUBCHEM_EXT_DATASOURCE_REGID>
SCHEMBL16116546

> <PUBCHEM_SUBSTANCE_COMMENT>
InChI=1S/C24H25ClN6O3/c25-19-10-16(2-3-17(19)13-32)14-34-22-18(21(33)28-12-20-26-7-1-8-27-20)11-29-23(30-22)31-9-6-24(15-31)4-5-24/h1-3,7-8,10-11,32H,4-6,9,12-15H2,(H,28,33)
InChIKey=HAOOAKJADKKSPM-UHFFFAOYSA-N

> <PUBCHEM_SUBSTANCE_SYNONYM>
SCHEMBL16116546

> <PUBCHEM_XREF_EXT_ID>
SCHEMBL16116546

> <PUBCHEM_EXT_DATASOURCE_URL>
https://www.surechembl.org/

> <PUBCHEM_EXT_SUBSTANCE_URL>
https://www.surechembl.org/chemical/SCHEMBL16116546

> <PUBCHEM_CID_ASSOCIATIONS>
117606065  1

> <PUBCHEM_COORDINATE_TYPE>
1
3

$$$$
