310935467
  -OEChem-07211613022D

 35 37  0     1  0  0  0  0  0999 V2000
   -9.7062   -3.3856    0.0000 Cl  0  0  0  0  0  0  0  0  0  0  0  0
   -3.2758   -3.7981    0.0000 P   0  0  3  0  0  0  0  0  0  0  0  0
   -4.7048   -3.7981    0.0000 P   0  0  3  0  0  0  0  0  0  0  0  0
   -0.3787   -3.7212    0.0000 O   0  0  0  0  0  0  0  0  0  0  0  0
   -2.5614   -3.3856    0.0000 O   0  0  0  0  0  0  0  0  0  0  0  0
    0.0964   -1.6399    0.0000 O   0  0  0  0  0  0  0  0  0  0  0  0
   -1.6593   -2.0131    0.0000 O   0  0  0  0  0  0  0  0  0  0  0  0
   -3.9903   -3.3856    0.0000 O   0  0  0  0  0  0  0  0  0  0  0  0
    3.7207   -2.7674    0.0000 O   0  0  0  0  0  0  0  0  0  0  0  0
   -3.2758   -4.6231    0.0000 O   0  0  0  0  0  0  0  0  0  0  0  0
   -3.2758   -2.9731    0.0000 O   0  0  0  0  0  0  0  0  0  0  0  0
   -5.4193   -3.3856    0.0000 O   0  0  0  0  0  0  0  0  0  0  0  0
   -4.7048   -4.6231    0.0000 O   0  0  0  0  0  0  0  0  0  0  0  0
   -4.7048   -2.9731    0.0000 O   0  0  0  0  0  0  0  0  0  0  0  0
   -8.2773   -2.5606    0.0000 O   0  0  0  0  0  0  0  0  0  0  0  0
    0.9938   -3.1943    0.0000 N   0  0  0  0  0  0  0  0  0  0  0  0
    2.2133   -3.7373    0.0000 N   0  0  0  0  0  0  0  0  0  0  0  0
    1.4596   -1.7607    0.0000 N   0  0  0  0  0  0  0  0  0  0  0  0
    2.8808   -1.6114    0.0000 N   0  0  0  0  0  0  0  0  0  0  0  0
    2.0408   -0.4553    0.0000 N   0  0  0  0  0  0  0  0  0  0  0  0
   -7.5627   -3.7981    0.0000 N   0  0  0  0  0  0  0  0  0  0  0  0
    0.1734   -3.1081    0.0000 C   0  0  3  0  0  0  0  0  0  0  0  0
    1.5459   -2.5812    0.0000 C   0  0  0  0  0  0  0  0  0  0  0  0
    2.2996   -2.9168    0.0000 C   0  0  0  0  0  0  0  0  0  0  0  0
   -0.2391   -2.3936    0.0000 C   0  0  3  0  0  0  0  0  0  0  0  0
   -1.1324   -3.3856    0.0000 C   0  0  3  0  0  0  0  0  0  0  0  0
   -1.0462   -2.5651    0.0000 C   0  0  3  0  0  0  0  0  0  0  0  0
    1.4064   -3.9088    0.0000 C   0  0  0  0  0  0  0  0  0  0  0  0
    2.9670   -2.4318    0.0000 C   0  0  0  0  0  0  0  0  0  0  0  0
    2.1271   -1.2758    0.0000 C   0  0  0  0  0  0  0  0  0  0  0  0
   -1.8469   -3.7981    0.0000 C   0  0  0  0  0  0  0  0  0  0  0  0
   -6.1337   -3.7981    0.0000 C   0  0  0  0  0  0  0  0  0  0  0  0
   -6.8483   -3.3856    0.0000 C   0  0  0  0  0  0  0  0  0  0  0  0
   -8.2773   -3.3856    0.0000 C   0  0  0  0  0  0  0  0  0  0  0  0
   -8.9917   -3.7981    0.0000 C   0  0  0  0  0  0  0  0  0  0  0  0
  1 35  1  0  0  0  0
  2  5  1  0  0  0  0
  2  8  1  0  0  0  0
  2 10  2  0  0  0  0
  2 11  1  0  0  0  0
  3  8  1  0  0  0  0
  3 12  1  0  0  0  0
  3 13  2  0  0  0  0
  3 14  1  0  0  0  0
 22  4  1  6  0  0  0
  4 26  1  0  0  0  0
  5 31  1  0  0  0  0
 25  6  1  1  0  0  0
 27  7  1  1  0  0  0
  9 29  2  0  0  0  0
 12 32  1  0  0  0  0
 15 34  2  0  0  0  0
 16 22  1  0  0  0  0
 16 23  1  0  0  0  0
 16 28  1  0  0  0  0
 17 24  1  0  0  0  0
 17 28  2  0  0  0  0
 18 23  1  0  0  0  0
 18 30  2  0  0  0  0
 19 29  1  0  0  0  0
 19 30  1  0  0  0  0
 20 30  1  0  0  0  0
 21 33  1  0  0  0  0
 21 34  1  0  0  0  0
 22 25  1  0  0  0  0
 23 24  2  0  0  0  0
 24 29  1  0  0  0  0
 25 27  1  0  0  0  0
 26 27  1  0  0  0  0
 26 31  1  6  0  0  0
 32 33  1  0  0  0  0
 34 35  1  0  0  0  0
M  END
> <PUBCHEM_COMPOUND_ID_TYPE>
0

> <PUBCHEM_TOTAL_CHARGE>
0

> <PUBCHEM_SUBSTANCE_ID>
310935467

> <PUBCHEM_SUBSTANCE_VERSION>
1

> <PUBCHEM_EXT_DATASOURCE_NAME>
4488

> <PUBCHEM_EXT_DATASOURCE_REGID>
SCHEMBL16113018

> <PUBCHEM_SUBSTANCE_COMMENT>
InChI=1S/C14H21ClN6O12P2/c15-3-7(22)17-1-2-30-34(26,27)33-35(28,29)31-4-6-9(23)10(24)13(32-6)21-5-18-8-11(21)19-14(16)20-12(8)25/h5-6,9-10,13,23-24H,1-4H2,(H,17,22)(H,26,27)(H,28,29)(H3,16,19,20,25)/t6-,9-,10-,13-/m1/s1
InChIKey=LYRLHTRLCKSXIV-ZRFIDHNTSA-N

> <PUBCHEM_SUBSTANCE_SYNONYM>
SCHEMBL16113018

> <PUBCHEM_XREF_EXT_ID>
SCHEMBL16113018

> <PUBCHEM_EXT_DATASOURCE_URL>
https://www.surechembl.org/

> <PUBCHEM_EXT_SUBSTANCE_URL>
https://www.surechembl.org/chemical/SCHEMBL16113018

> <PUBCHEM_CID_ASSOCIATIONS>
86299895  1

> <PUBCHEM_COORDINATE_TYPE>
1
3

> <PUBCHEM_BONDANNOTATIONS>
26  31  6
22  4  6
25  6  5
27  7  5

$$$$
