310934231
  -OEChem-07211613022D

 28 31  0     0  0  0  0  0  0999 V2000
    8.6089   -0.7174    0.0000 S   0  0  0  0  0  0  0  0  0  0  0  0
    0.0000   -3.5009    0.0000 F   0  0  0  0  0  0  0  0  0  0  0  0
    0.3731   -4.2757    0.0000 F   0  0  0  0  0  0  0  0  0  0  0  0
    1.3774   -2.9844    0.0000 O   0  0  0  0  0  0  0  0  0  0  0  0
    1.2339   -4.3044    0.0000 O   0  0  0  0  0  0  0  0  0  0  0  0
    5.0219   -3.4722    0.0000 O   0  0  0  0  0  0  0  0  0  0  0  0
    5.6819    0.0000    0.0000 O   0  0  0  0  0  0  0  0  0  0  0  0
    6.0836   -2.1522    0.0000 O   0  0  0  0  0  0  0  0  0  0  0  0
    6.5141   -1.4348    0.0000 N   0  0  0  0  0  0  0  0  0  0  0  0
    5.6245   -2.9270    0.0000 N   0  0  0  0  0  0  0  0  0  0  0  0
    5.6819   -1.4348    0.0000 N   0  0  0  0  0  0  0  0  0  0  0  0
    2.1235   -3.2714    0.0000 C   0  0  0  0  0  0  0  0  0  0  0  0
    2.0661   -4.1323    0.0000 C   0  0  0  0  0  0  0  0  0  0  0  0
    0.8035   -3.5870    0.0000 C   0  0  0  0  0  0  0  0  0  0  0  0
    3.5584   -3.4149    0.0000 C   0  0  0  0  0  0  0  0  0  0  0  0
    2.8984   -2.9557    0.0000 C   0  0  0  0  0  0  0  0  0  0  0  0
    6.9158   -0.7174    0.0000 C   0  0  0  0  0  0  0  0  0  0  0  0
    4.3044   -3.0705    0.0000 C   0  0  0  0  0  0  0  0  0  0  0  0
    2.7549   -4.5914    0.0000 C   0  0  0  0  0  0  0  0  0  0  0  0
    3.4722   -4.2757    0.0000 C   0  0  0  0  0  0  0  0  0  0  0  0
    5.2801   -2.1522    0.0000 C   0  0  0  0  0  0  0  0  0  0  0  0
    4.4479   -2.2670    0.0000 C   0  0  0  0  0  0  0  0  0  0  0  0
    6.0836   -0.7174    0.0000 C   0  0  0  0  0  0  0  0  0  0  0  0
    5.8541   -1.6070    0.0000 C   0  0  0  0  0  0  0  0  0  0  0  0
    7.3462   -1.4348    0.0000 C   0  0  0  0  0  0  0  0  0  0  0  0
    7.3462    0.0000    0.0000 C   0  0  0  0  0  0  0  0  0  0  0  0
    8.1497   -1.4348    0.0000 C   0  0  0  0  0  0  0  0  0  0  0  0
    8.1497    0.0000    0.0000 C   0  0  0  0  0  0  0  0  0  0  0  0
  1 27  1  0  0  0  0
  1 28  1  0  0  0  0
  2 14  1  0  0  0  0
  3 14  1  0  0  0  0
  4 12  1  0  0  0  0
  4 14  1  0  0  0  0
  5 13  1  0  0  0  0
  5 14  1  0  0  0  0
  6 10  1  0  0  0  0
  6 18  1  0  0  0  0
  7 23  2  0  0  0  0
  8 11  1  0  0  0  0
  9 17  1  0  0  0  0
  9 24  1  0  0  0  0
 10 21  2  0  0  0  0
 11 23  1  0  0  0  0
 12 13  2  0  0  0  0
 12 16  1  0  0  0  0
 13 19  1  0  0  0  0
 15 16  2  0  0  0  0
 15 18  1  0  0  0  0
 15 20  1  0  0  0  0
 17 23  1  0  0  0  0
 17 25  1  0  0  0  0
 17 26  1  0  0  0  0
 18 22  2  0  0  0  0
 19 20  2  0  0  0  0
 21 22  1  0  0  0  0
 21 24  1  0  0  0  0
 25 27  1  0  0  0  0
 26 28  1  0  0  0  0
M  END
> <PUBCHEM_COMPOUND_ID_TYPE>
0

> <PUBCHEM_TOTAL_CHARGE>
0

> <PUBCHEM_SUBSTANCE_ID>
310934231

> <PUBCHEM_SUBSTANCE_VERSION>
1

> <PUBCHEM_EXT_DATASOURCE_NAME>
4488

> <PUBCHEM_EXT_DATASOURCE_REGID>
SCHEMBL16111687

> <PUBCHEM_SUBSTANCE_COMMENT>
InChI=1S/C17H17F2N3O5S/c18-17(19)25-12-2-1-10(7-14(12)26-17)13-8-11(22-27-13)9-20-16(15(23)21-24)3-5-28-6-4-16/h1-2,7-8,20,24H,3-6,9H2,(H,21,23)
InChIKey=ZJVDUHFRPUVSER-UHFFFAOYSA-N

> <PUBCHEM_SUBSTANCE_SYNONYM>
SCHEMBL16111687

> <PUBCHEM_XREF_EXT_ID>
SCHEMBL16111687

> <PUBCHEM_EXT_DATASOURCE_URL>
https://www.surechembl.org/

> <PUBCHEM_EXT_SUBSTANCE_URL>
https://www.surechembl.org/chemical/SCHEMBL16111687

> <PUBCHEM_CID_ASSOCIATIONS>
117602493  1

> <PUBCHEM_COORDINATE_TYPE>
1
3

$$$$
