310945534
  -OEChem-07211613022D

 35 38  0     0  0  0  0  0  0999 V2000
    0.0608    1.8444    0.0000 F   0  0  0  0  0  0  0  0  0  0  0  0
    0.8715    2.6754    0.0000 F   0  0  0  0  0  0  0  0  0  0  0  0
    1.6823    1.8444    0.0000 F   0  0  0  0  0  0  0  0  0  0  0  0
   -4.2968   -0.6891    0.0000 F   0  0  0  0  0  0  0  0  0  0  0  0
   -5.1075    0.1419    0.0000 F   0  0  0  0  0  0  0  0  0  0  0  0
   -4.2968    0.9931    0.0000 F   0  0  0  0  0  0  0  0  0  0  0  0
    4.8238   -1.2161    0.0000 F   0  0  0  0  0  0  0  0  0  0  0  0
    5.1075   -2.3511    0.0000 F   0  0  0  0  0  0  0  0  0  0  0  0
    3.9928   -2.6754    0.0000 F   0  0  0  0  0  0  0  0  0  0  0  0
   -1.8849    1.6012    0.0000 O   0  0  0  0  0  0  0  0  0  0  0  0
   -0.6081    0.8310    0.0000 N   0  0  0  0  0  0  0  0  0  0  0  0
   -0.6081   -0.5269    0.0000 N   0  0  0  0  0  0  0  0  0  0  0  0
    0.8715   -0.6891    0.0000 N   0  0  0  0  0  0  0  0  0  0  0  0
    1.5606    0.5675    0.0000 N   0  0  0  0  0  0  0  0  0  0  0  0
    2.9591   -1.9457    0.0000 N   0  0  0  0  0  0  0  0  0  0  0  0
    0.1621    0.5473    0.0000 C   0  0  0  0  0  0  0  0  0  0  0  0
    0.1419   -0.2837    0.0000 C   0  0  0  0  0  0  0  0  0  0  0  0
    0.8513    0.9526    0.0000 C   0  0  0  0  0  0  0  0  0  0  0  0
   -1.0742    0.1013    0.0000 C   0  0  0  0  0  0  0  0  0  0  0  0
    1.5606   -0.3040    0.0000 C   0  0  0  0  0  0  0  0  0  0  0  0
    0.8513    1.8241    0.0000 C   0  0  0  0  0  0  0  0  0  0  0  0
   -1.8849    0.1216    0.0000 C   0  0  0  0  0  0  0  0  0  0  0  0
    2.2700   -0.7296    0.0000 C   0  0  0  0  0  0  0  0  0  0  0  0
   -2.2902    0.8310    0.0000 C   0  0  0  0  0  0  0  0  0  0  0  0
   -2.2700   -0.6081    0.0000 C   0  0  0  0  0  0  0  0  0  0  0  0
   -3.4861    0.1216    0.0000 C   0  0  0  0  0  0  0  0  0  0  0  0
   -3.0807    0.8107    0.0000 C   0  0  0  0  0  0  0  0  0  0  0  0
    2.2700   -1.5606    0.0000 C   0  0  0  0  0  0  0  0  0  0  0  0
    2.9794   -0.2837    0.0000 C   0  0  0  0  0  0  0  0  0  0  0  0
   -3.0604   -0.6081    0.0000 C   0  0  0  0  0  0  0  0  0  0  0  0
   -4.2968    0.1216    0.0000 C   0  0  0  0  0  0  0  0  0  0  0  0
    3.6685   -1.5404    0.0000 C   0  0  0  0  0  0  0  0  0  0  0  0
    3.6888   -0.7296    0.0000 C   0  0  0  0  0  0  0  0  0  0  0  0
    4.3779   -1.9660    0.0000 C   0  0  0  0  0  0  0  0  0  0  0  0
   -2.2700    2.3308    0.0000 C   0  0  0  0  0  0  0  0  0  0  0  0
  1 21  1  0  0  0  0
  2 21  1  0  0  0  0
  3 21  1  0  0  0  0
  4 31  1  0  0  0  0
  5 31  1  0  0  0  0
  6 31  1  0  0  0  0
  7 34  1  0  0  0  0
  8 34  1  0  0  0  0
  9 34  1  0  0  0  0
 10 24  1  0  0  0  0
 10 35  1  0  0  0  0
 11 16  1  0  0  0  0
 11 19  2  0  0  0  0
 12 17  1  0  0  0  0
 12 19  1  0  0  0  0
 13 17  1  0  0  0  0
 13 20  2  0  0  0  0
 14 18  2  0  0  0  0
 14 20  1  0  0  0  0
 15 28  1  0  0  0  0
 15 32  2  0  0  0  0
 16 17  2  0  0  0  0
 16 18  1  0  0  0  0
 18 21  1  0  0  0  0
 19 22  1  0  0  0  0
 20 23  1  0  0  0  0
 22 24  2  0  0  0  0
 22 25  1  0  0  0  0
 23 28  2  0  0  0  0
 23 29  1  0  0  0  0
 24 27  1  0  0  0  0
 25 30  2  0  0  0  0
 26 27  2  0  0  0  0
 26 30  1  0  0  0  0
 26 31  1  0  0  0  0
 29 33  2  0  0  0  0
 32 33  1  0  0  0  0
 32 34  1  0  0  0  0
M  END
> <PUBCHEM_COMPOUND_ID_TYPE>
0

> <PUBCHEM_TOTAL_CHARGE>
0

> <PUBCHEM_SUBSTANCE_ID>
310945534

> <PUBCHEM_SUBSTANCE_VERSION>
1

> <PUBCHEM_EXT_DATASOURCE_NAME>
4488

> <PUBCHEM_EXT_DATASOURCE_REGID>
SCHEMBL16123632

> <PUBCHEM_SUBSTANCE_COMMENT>
InChI=1S/C20H10F9N5O/c1-35-11-6-9(18(21,22)23)3-4-10(11)16-31-13-14(20(27,28)29)32-15(33-17(13)34-16)8-2-5-12(30-7-8)19(24,25)26/h2-7H,1H3,(H,31,32,33,34)
InChIKey=HYSWKBXHKODDLP-UHFFFAOYSA-N

> <PUBCHEM_SUBSTANCE_SYNONYM>
SCHEMBL16123632

> <PUBCHEM_XREF_EXT_ID>
SCHEMBL16123632

> <PUBCHEM_EXT_DATASOURCE_URL>
https://www.surechembl.org/

> <PUBCHEM_EXT_SUBSTANCE_URL>
https://www.surechembl.org/chemical/SCHEMBL16123632

> <PUBCHEM_CID_ASSOCIATIONS>
117611575  1

> <PUBCHEM_COORDINATE_TYPE>
1
3

$$$$
