310937398
  -OEChem-07211613022D

 27 30  0     0  0  0  0  0  0999 V2000
    0.0000   -2.1500    0.0000 F   0  0  0  0  0  0  0  0  0  0  0  0
    7.7904   -2.2338    0.0000 O   0  0  0  0  0  0  0  0  0  0  0  0
    3.7137   -2.9598    0.0000 O   0  0  0  0  0  0  0  0  0  0  0  0
    6.5339   -1.8429    0.0000 N   0  0  0  0  0  0  0  0  0  0  0  0
    5.9754   -3.9092    0.0000 N   0  0  0  0  0  0  0  0  0  0  0  0
    7.3157   -2.9039    0.0000 N   0  0  0  0  0  0  0  0  0  0  0  0
    4.5514   -4.0767    0.0000 C   0  0  0  0  0  0  0  0  0  0  0  0
    5.8637   -3.1273    0.0000 C   0  0  0  0  0  0  0  0  0  0  0  0
    6.5339   -2.6526    0.0000 C   0  0  0  0  0  0  0  0  0  0  0  0
    4.4676   -3.2669    0.0000 C   0  0  0  0  0  0  0  0  0  0  0  0
    3.8812   -4.5514    0.0000 C   0  0  0  0  0  0  0  0  0  0  0  0
    7.3157   -1.5637    0.0000 C   0  0  0  0  0  0  0  0  0  0  0  0
    5.1098   -2.7643    0.0000 C   0  0  0  0  0  0  0  0  0  0  0  0
    7.5670   -0.7818    0.0000 C   0  0  0  0  0  0  0  0  0  0  0  0
    5.3053   -4.4397    0.0000 C   0  0  0  0  0  0  0  0  0  0  0  0
    3.5461   -5.3053    0.0000 C   0  0  0  0  0  0  0  0  0  0  0  0
    3.0436   -4.6351    0.0000 C   0  0  0  0  0  0  0  0  0  0  0  0
    3.0436   -3.4345    0.0000 C   0  0  0  0  0  0  0  0  0  0  0  0
    2.2897   -3.1273    0.0000 C   0  0  0  0  0  0  0  0  0  0  0  0
    8.3767   -1.0331    0.0000 C   0  0  0  0  0  0  0  0  0  0  0  0
    7.8462    0.0000    0.0000 C   0  0  0  0  0  0  0  0  0  0  0  0
    6.8131   -0.5305    0.0000 C   0  0  0  0  0  0  0  0  0  0  0  0
    1.6195   -3.6299    0.0000 C   0  0  0  0  0  0  0  0  0  0  0  0
    2.1779   -2.3176    0.0000 C   0  0  0  0  0  0  0  0  0  0  0  0
    0.7539   -2.4851    0.0000 C   0  0  0  0  0  0  0  0  0  0  0  0
    0.8656   -3.2949    0.0000 C   0  0  0  0  0  0  0  0  0  0  0  0
    1.4240   -1.9825    0.0000 C   0  0  0  0  0  0  0  0  0  0  0  0
  1 25  1  0  0  0  0
  2  6  1  0  0  0  0
  2 12  1  0  0  0  0
  3 10  1  0  0  0  0
  3 18  1  0  0  0  0
  4  9  1  0  0  0  0
  4 12  2  0  0  0  0
  5  8  1  0  0  0  0
  5 15  2  0  0  0  0
  6  9  2  0  0  0  0
  7 10  2  0  0  0  0
  7 11  1  0  0  0  0
  7 15  1  0  0  0  0
  8  9  1  0  0  0  0
  8 13  2  0  0  0  0
 10 13  1  0  0  0  0
 11 16  1  0  0  0  0
 11 17  1  0  0  0  0
 12 14  1  0  0  0  0
 14 20  1  0  0  0  0
 14 21  1  0  0  0  0
 14 22  1  0  0  0  0
 16 17  1  0  0  0  0
 18 19  1  0  0  0  0
 19 23  2  0  0  0  0
 19 24  1  0  0  0  0
 23 26  1  0  0  0  0
 24 27  2  0  0  0  0
 25 26  2  0  0  0  0
 25 27  1  0  0  0  0
M  END
> <PUBCHEM_COMPOUND_ID_TYPE>
0

> <PUBCHEM_TOTAL_CHARGE>
0

> <PUBCHEM_SUBSTANCE_ID>
310937398

> <PUBCHEM_SUBSTANCE_VERSION>
1

> <PUBCHEM_EXT_DATASOURCE_NAME>
4488

> <PUBCHEM_EXT_DATASOURCE_REGID>
SCHEMBL16115156

> <PUBCHEM_SUBSTANCE_COMMENT>
InChI=1S/C21H22FN3O2/c1-21(2,3)20-24-19(25-27-20)17-10-18(16(11-23-17)14-6-7-14)26-12-13-4-8-15(22)9-5-13/h4-5,8-11,14H,6-7,12H2,1-3H3
InChIKey=KSELSOJUYOSGQZ-UHFFFAOYSA-N

> <PUBCHEM_SUBSTANCE_SYNONYM>
SCHEMBL16115156

> <PUBCHEM_XREF_EXT_ID>
SCHEMBL16115156

> <PUBCHEM_EXT_DATASOURCE_URL>
https://www.surechembl.org/

> <PUBCHEM_EXT_SUBSTANCE_URL>
https://www.surechembl.org/chemical/SCHEMBL16115156

> <PUBCHEM_CID_ASSOCIATIONS>
86275977  1

> <PUBCHEM_COORDINATE_TYPE>
1
3

$$$$
