310938999
  -OEChem-07211613022D

 29 33  0     0  0  0  0  0  0999 V2000
    1.4036    1.6071    0.0000 F   0  0  0  0  0  0  0  0  0  0  0  0
   -1.0714    0.1782    0.0000 F   0  0  0  0  0  0  0  0  0  0  0  0
   -1.1438    2.9891    0.0000 O   0  0  0  0  0  0  0  0  0  0  0  0
   -1.0714    1.6071    0.0000 N   0  0  0  0  0  0  0  0  0  0  0  0
   -3.0554    0.7821    0.0000 N   0  0  0  0  0  0  0  0  0  0  0  0
    3.5344   -2.9572    0.0000 N   0  0  0  0  0  0  0  0  0  0  0  0
   -2.3409    2.0196    0.0000 C   0  0  0  0  0  0  0  0  0  0  0  0
   -1.5563    2.2746    0.0000 C   0  0  0  0  0  0  0  0  0  0  0  0
    0.1661    0.8927    0.0000 C   0  0  0  0  0  0  0  0  0  0  0  0
   -2.3409    1.1946    0.0000 C   0  0  0  0  0  0  0  0  0  0  0  0
    0.9911   -0.5363    0.0000 C   0  0  0  0  0  0  0  0  0  0  0  0
   -0.2464    1.6071    0.0000 C   0  0  0  0  0  0  0  0  0  0  0  0
    1.4036   -1.2507    0.0000 C   0  0  0  0  0  0  0  0  0  0  0  0
   -1.5563    0.9397    0.0000 C   0  0  0  0  0  0  0  0  0  0  0  0
    0.9911    0.8927    0.0000 C   0  0  0  0  0  0  0  0  0  0  0  0
   -0.2464    0.1782    0.0000 C   0  0  0  0  0  0  0  0  0  0  0  0
    2.6411   -1.9652    0.0000 C   0  0  0  0  0  0  0  0  0  0  0  0
    2.2286   -2.6797    0.0000 C   0  0  0  0  0  0  0  0  0  0  0  0
    1.4036    0.1782    0.0000 C   0  0  0  0  0  0  0  0  0  0  0  0
    0.1661   -0.5363    0.0000 C   0  0  0  0  0  0  0  0  0  0  0  0
    2.2286   -1.2507    0.0000 C   0  0  0  0  0  0  0  0  0  0  0  0
   -3.0554    2.4321    0.0000 C   0  0  0  0  0  0  0  0  0  0  0  0
    2.7807   -3.2928    0.0000 C   0  0  0  0  0  0  0  0  0  0  0  0
    0.9911   -1.9652    0.0000 C   0  0  0  0  0  0  0  0  0  0  0  0
    1.4036   -2.6797    0.0000 C   0  0  0  0  0  0  0  0  0  0  0  0
    3.4481   -2.1367    0.0000 C   0  0  0  0  0  0  0  0  0  0  0  0
   -3.7698    2.0196    0.0000 C   0  0  0  0  0  0  0  0  0  0  0  0
   -3.7698    1.1946    0.0000 C   0  0  0  0  0  0  0  0  0  0  0  0
    2.3682   -4.0072    0.0000 C   0  0  0  0  0  0  0  0  0  0  0  0
  1 15  1  0  0  0  0
  2 16  1  0  0  0  0
  3  8  2  0  0  0  0
  4  8  1  0  0  0  0
  4 12  1  0  0  0  0
  4 14  1  0  0  0  0
  5 10  2  0  0  0  0
  5 28  1  0  0  0  0
  6 23  2  0  0  0  0
  6 26  1  0  0  0  0
  7  8  1  0  0  0  0
  7 10  1  0  0  0  0
  7 22  2  0  0  0  0
  9 12  1  0  0  0  0
  9 15  2  0  0  0  0
  9 16  1  0  0  0  0
 10 14  1  0  0  0  0
 11 13  1  0  0  0  0
 11 19  2  0  0  0  0
 11 20  1  0  0  0  0
 13 21  2  0  0  0  0
 13 24  1  0  0  0  0
 15 19  1  0  0  0  0
 16 20  2  0  0  0  0
 17 18  2  0  0  0  0
 17 21  1  0  0  0  0
 17 26  1  0  0  0  0
 18 23  1  0  0  0  0
 18 25  1  0  0  0  0
 22 27  1  0  0  0  0
 23 29  1  0  0  0  0
 24 25  2  0  0  0  0
 27 28  2  0  0  0  0
M  END
> <PUBCHEM_COMPOUND_ID_TYPE>
0

> <PUBCHEM_TOTAL_CHARGE>
0

> <PUBCHEM_SUBSTANCE_ID>
310938999

> <PUBCHEM_SUBSTANCE_VERSION>
1

> <PUBCHEM_EXT_DATASOURCE_NAME>
4488

> <PUBCHEM_EXT_DATASOURCE_REGID>
SCHEMBL16116918

> <PUBCHEM_SUBSTANCE_COMMENT>
InChI=1S/C23H17F2N3O/c1-13-17-5-4-14(7-16(17)10-27-13)15-8-20(24)19(21(25)9-15)11-28-12-22-18(23(28)29)3-2-6-26-22/h2-9H,10-12H2,1H3
InChIKey=BWMLRQYHOQYLOC-UHFFFAOYSA-N

> <PUBCHEM_SUBSTANCE_SYNONYM>
SCHEMBL16116918

> <PUBCHEM_XREF_EXT_ID>
SCHEMBL16116918

> <PUBCHEM_EXT_DATASOURCE_URL>
https://www.surechembl.org/

> <PUBCHEM_EXT_SUBSTANCE_URL>
https://www.surechembl.org/chemical/SCHEMBL16116918

> <PUBCHEM_CID_ASSOCIATIONS>
117606383  1

> <PUBCHEM_COORDINATE_TYPE>
1
3

$$$$
