310940019
  -OEChem-07211613022D

 23 25  0     0  0  0  0  0  0999 V2000
   -2.3725   -2.8988    0.0000 O   0  0  0  0  0  0  0  0  0  0  0  0
   -0.9435   -5.3738    0.0000 O   0  0  0  0  0  0  0  0  0  0  0  0
   -3.0869   -4.1363    0.0000 N   0  0  0  0  0  0  0  0  0  0  0  0
   -3.8014   -4.5488    0.0000 N   0  0  0  0  0  0  0  0  0  0  0  0
   -0.2291   -4.1363    0.0000 N   0  0  0  0  0  0  0  0  0  0  0  0
    1.1999   -3.3113    0.0000 N   0  0  0  0  0  0  0  0  0  0  0  0
   -4.5159   -4.1363    0.0000 C   0  0  0  0  0  0  0  0  0  0  0  0
   -3.0869   -3.3113    0.0000 C   0  0  0  0  0  0  0  0  0  0  0  0
   -5.2303   -4.5488    0.0000 C   0  0  0  0  0  0  0  0  0  0  0  0
   -4.5159   -3.3113    0.0000 C   0  0  0  0  0  0  0  0  0  0  0  0
   -2.3725   -4.5488    0.0000 C   0  0  0  0  0  0  0  0  0  0  0  0
   -3.8014   -2.8988    0.0000 C   0  0  0  0  0  0  0  0  0  0  0  0
   -0.9435   -4.5488    0.0000 C   0  0  0  0  0  0  0  0  0  0  0  0
   -1.6580   -4.1363    0.0000 C   0  0  0  0  0  0  0  0  0  0  0  0
   -5.9448   -4.1363    0.0000 C   0  0  0  0  0  0  0  0  0  0  0  0
   -5.2303   -5.3738    0.0000 C   0  0  0  0  0  0  0  0  0  0  0  0
    0.4854   -4.5488    0.0000 C   0  0  0  0  0  0  0  0  0  0  0  0
   -0.2291   -3.3113    0.0000 C   0  0  0  0  0  0  0  0  0  0  0  0
   -6.6593   -4.5488    0.0000 C   0  0  0  0  0  0  0  0  0  0  0  0
   -5.9448   -5.7863    0.0000 C   0  0  0  0  0  0  0  0  0  0  0  0
    1.1999   -4.1363    0.0000 C   0  0  0  0  0  0  0  0  0  0  0  0
    0.4854   -2.8988    0.0000 C   0  0  0  0  0  0  0  0  0  0  0  0
   -6.6593   -5.3738    0.0000 C   0  0  0  0  0  0  0  0  0  0  0  0
  1  8  2  0  0  0  0
  2 13  2  0  0  0  0
  3  4  1  0  0  0  0
  3  8  1  0  0  0  0
  3 11  1  0  0  0  0
  4  7  2  0  0  0  0
  5 13  1  0  0  0  0
  5 17  1  0  0  0  0
  5 18  1  0  0  0  0
  6 21  1  0  0  0  0
  6 22  1  0  0  0  0
  7  9  1  0  0  0  0
  7 10  1  0  0  0  0
  8 12  1  0  0  0  0
  9 15  2  0  0  0  0
  9 16  1  0  0  0  0
 10 12  2  0  0  0  0
 11 14  1  0  0  0  0
 13 14  1  0  0  0  0
 15 19  1  0  0  0  0
 16 20  2  0  0  0  0
 17 21  1  0  0  0  0
 18 22  1  0  0  0  0
 19 23  2  0  0  0  0
 20 23  1  0  0  0  0
M  END
> <PUBCHEM_COMPOUND_ID_TYPE>
0

> <PUBCHEM_TOTAL_CHARGE>
0

> <PUBCHEM_SUBSTANCE_ID>
310940019

> <PUBCHEM_SUBSTANCE_VERSION>
1

> <PUBCHEM_EXT_DATASOURCE_NAME>
4488

> <PUBCHEM_EXT_DATASOURCE_REGID>
SCHEMBL16117949

> <PUBCHEM_SUBSTANCE_COMMENT>
InChI=1S/C17H20N4O2/c22-16(20-12-9-18-10-13-20)8-11-21-17(23)7-6-15(19-21)14-4-2-1-3-5-14/h1-7,18H,8-13H2
InChIKey=UWQFIXYMPMEMKR-UHFFFAOYSA-N

> <PUBCHEM_SUBSTANCE_SYNONYM>
SCHEMBL16117949

> <PUBCHEM_XREF_EXT_ID>
SCHEMBL16117949

> <PUBCHEM_EXT_DATASOURCE_URL>
https://www.surechembl.org/

> <PUBCHEM_EXT_SUBSTANCE_URL>
https://www.surechembl.org/chemical/SCHEMBL16117949

> <PUBCHEM_CID_ASSOCIATIONS>
117607177  1

> <PUBCHEM_COORDINATE_TYPE>
1
3

$$$$
