310930969
  -OEChem-07211613022D

 34 37  0     0  0  0  0  0  0999 V2000
   -6.4302    0.8250    0.0000 S   0  0  0  0  0  0  0  0  0  0  0  0
   -9.2881    0.8250    0.0000 F   0  0  0  0  0  0  0  0  0  0  0  0
  -10.7170    1.6500    0.0000 F   0  0  0  0  0  0  0  0  0  0  0  0
  -10.0026    1.2375    0.0000 F   0  0  0  0  0  0  0  0  0  0  0  0
  -10.7170    2.4750    0.0000 F   0  0  0  0  0  0  0  0  0  0  0  0
   -6.0177    1.5395    0.0000 O   0  0  0  0  0  0  0  0  0  0  0  0
   -6.8427    0.1106    0.0000 O   0  0  0  0  0  0  0  0  0  0  0  0
   -9.2881    2.4750    0.0000 O   0  0  0  0  0  0  0  0  0  0  0  0
   -2.1434   -1.6500    0.0000 O   0  0  0  0  0  0  0  0  0  0  0  0
   -0.7144    0.8250    0.0000 N   0  0  0  0  0  0  0  0  0  0  0  0
    0.7846    0.6674    0.0000 N   0  0  0  0  0  0  0  0  0  0  0  0
   -2.8579   -0.4125    0.0000 N   0  0  0  0  0  0  0  0  0  0  0  0
    1.2696    0.0000    0.0000 N   0  0  0  0  0  0  0  0  0  0  0  0
   -7.1447    1.2375    0.0000 C   0  0  0  0  0  0  0  0  0  0  0  0
   -5.7158    0.4125    0.0000 C   0  0  0  0  0  0  0  0  0  0  0  0
   -7.8592    0.8250    0.0000 C   0  0  0  0  0  0  0  0  0  0  0  0
   -8.5736    1.2375    0.0000 C   0  0  0  0  0  0  0  0  0  0  0  0
   -8.5736    2.0625    0.0000 C   0  0  0  0  0  0  0  0  0  0  0  0
   -7.1447    2.0625    0.0000 C   0  0  0  0  0  0  0  0  0  0  0  0
   -7.8592    2.4750    0.0000 C   0  0  0  0  0  0  0  0  0  0  0  0
   -5.0013    0.8250    0.0000 C   0  0  0  0  0  0  0  0  0  0  0  0
   -5.7158   -0.4125    0.0000 C   0  0  0  0  0  0  0  0  0  0  0  0
    0.0000   -0.4125    0.0000 C   0  0  0  0  0  0  0  0  0  0  0  0
   -4.2868   -0.4125    0.0000 C   0  0  0  0  0  0  0  0  0  0  0  0
    0.0000    0.4125    0.0000 C   0  0  0  0  0  0  0  0  0  0  0  0
   -1.4290   -0.4125    0.0000 C   0  0  0  0  0  0  0  0  0  0  0  0
   -4.2868    0.4125    0.0000 C   0  0  0  0  0  0  0  0  0  0  0  0
   -5.0013   -0.8250    0.0000 C   0  0  0  0  0  0  0  0  0  0  0  0
  -10.0026    2.0625    0.0000 C   0  0  0  0  0  0  0  0  0  0  0  0
   -0.7144   -0.8250    0.0000 C   0  0  0  0  0  0  0  0  0  0  0  0
   -2.1434   -0.8250    0.0000 C   0  0  0  0  0  0  0  0  0  0  0  0
   -1.4290    0.4125    0.0000 C   0  0  0  0  0  0  0  0  0  0  0  0
    0.7846   -0.6674    0.0000 C   0  0  0  0  0  0  0  0  0  0  0  0
   -3.5724   -0.8250    0.0000 C   0  0  0  0  0  0  0  0  0  0  0  0
  1  6  2  0  0  0  0
  1  7  2  0  0  0  0
  1 14  1  0  0  0  0
  1 15  1  0  0  0  0
  2 17  1  0  0  0  0
  3 29  1  0  0  0  0
  4 29  1  0  0  0  0
  5 29  1  0  0  0  0
  8 18  1  0  0  0  0
  8 29  1  0  0  0  0
  9 31  2  0  0  0  0
 10 25  2  0  0  0  0
 10 32  1  0  0  0  0
 11 13  1  0  0  0  0
 11 25  1  0  0  0  0
 12 31  1  0  0  0  0
 12 34  1  0  0  0  0
 13 33  2  0  0  0  0
 14 16  1  0  0  0  0
 14 19  2  0  0  0  0
 15 21  2  0  0  0  0
 15 22  1  0  0  0  0
 16 17  2  0  0  0  0
 17 18  1  0  0  0  0
 18 20  2  0  0  0  0
 19 20  1  0  0  0  0
 21 27  1  0  0  0  0
 22 28  2  0  0  0  0
 23 25  1  0  0  0  0
 23 30  2  0  0  0  0
 23 33  1  0  0  0  0
 24 27  2  0  0  0  0
 24 28  1  0  0  0  0
 24 34  1  0  0  0  0
 26 30  1  0  0  0  0
 26 31  1  0  0  0  0
 26 32  2  0  0  0  0
M  END
> <PUBCHEM_COMPOUND_ID_TYPE>
0

> <PUBCHEM_TOTAL_CHARGE>
0

> <PUBCHEM_SUBSTANCE_ID>
310930969

> <PUBCHEM_SUBSTANCE_VERSION>
1

> <PUBCHEM_EXT_DATASOURCE_NAME>
4488

> <PUBCHEM_EXT_DATASOURCE_REGID>
SCHEMBL16108269

> <PUBCHEM_SUBSTANCE_COMMENT>
InChI=1S/C21H14F4N4O4S/c22-17-8-16(5-6-18(17)33-21(23,24)25)34(31,32)15-3-1-12(2-4-15)9-27-20(30)14-7-13-11-28-29-19(13)26-10-14/h1-8,10-11H,9H2,(H,27,30)(H,26,28,29)
InChIKey=HOLWHRZTDXYKQD-UHFFFAOYSA-N

> <PUBCHEM_SUBSTANCE_SYNONYM>
SCHEMBL16108269

> <PUBCHEM_XREF_EXT_ID>
SCHEMBL16108269

> <PUBCHEM_EXT_DATASOURCE_URL>
https://www.surechembl.org/

> <PUBCHEM_EXT_SUBSTANCE_URL>
https://www.surechembl.org/chemical/SCHEMBL16108269

> <PUBCHEM_CID_ASSOCIATIONS>
117599909  1

> <PUBCHEM_COORDINATE_TYPE>
1
3

$$$$
