310945638
  -OEChem-07211613022D

 19 20  0     0  0  0  0  0  0999 V2000
   -0.3769    2.4109    0.0000 F   0  0  0  0  0  0  0  0  0  0  0  0
    0.7183    2.0980    0.0000 F   0  0  0  0  0  0  0  0  0  0  0  0
    0.3912    1.0170    0.0000 F   0  0  0  0  0  0  0  0  0  0  0  0
    0.0355    0.0498    0.0000 N   0  0  0  0  0  0  0  0  0  0  0  0
   -0.7183    1.3157    0.0000 C   0  0  0  0  0  0  0  0  0  0  0  0
   -0.7326    0.4907    0.0000 C   0  0  0  0  0  0  0  0  0  0  0  0
    0.0071    1.7139    0.0000 C   0  0  0  0  0  0  0  0  0  0  0  0
   -1.4437    1.7139    0.0000 C   0  0  0  0  0  0  0  0  0  0  0  0
   -0.0213   -0.7610    0.0000 C   0  0  0  0  0  0  0  0  0  0  0  0
   -1.4295    0.0782    0.0000 C   0  0  0  0  0  0  0  0  0  0  0  0
    0.7041   -1.1877    0.0000 C   0  0  0  0  0  0  0  0  0  0  0  0
   -2.1264    1.3014    0.0000 C   0  0  0  0  0  0  0  0  0  0  0  0
   -2.1264    0.4765    0.0000 C   0  0  0  0  0  0  0  0  0  0  0  0
    0.7183   -2.0127    0.0000 C   0  0  0  0  0  0  0  0  0  0  0  0
    1.4011   -0.7752    0.0000 C   0  0  0  0  0  0  0  0  0  0  0  0
   -0.7326   -1.1877    0.0000 C   0  0  0  0  0  0  0  0  0  0  0  0
    1.4153   -2.4109    0.0000 C   0  0  0  0  0  0  0  0  0  0  0  0
    2.1264   -1.1877    0.0000 C   0  0  0  0  0  0  0  0  0  0  0  0
    2.1264   -2.0127    0.0000 C   0  0  0  0  0  0  0  0  0  0  0  0
  1  7  1  0  0  0  0
  2  7  1  0  0  0  0
  3  7  1  0  0  0  0
  4  6  1  0  0  0  0
  4  9  2  0  0  0  0
  5  6  1  0  0  0  0
  5  7  1  0  0  0  0
  5  8  2  0  0  0  0
  6 10  2  0  0  0  0
  8 12  1  0  0  0  0
  9 11  1  0  0  0  0
  9 16  1  0  0  0  0
 10 13  1  0  0  0  0
 11 14  2  0  0  0  0
 11 15  1  0  0  0  0
 12 13  2  0  0  0  0
 14 17  1  0  0  0  0
 15 18  2  0  0  0  0
 17 19  2  0  0  0  0
 18 19  1  0  0  0  0
M  END
> <PUBCHEM_COMPOUND_ID_TYPE>
0

> <PUBCHEM_TOTAL_CHARGE>
0

> <PUBCHEM_SUBSTANCE_ID>
310945638

> <PUBCHEM_SUBSTANCE_VERSION>
1

> <PUBCHEM_EXT_DATASOURCE_NAME>
4488

> <PUBCHEM_EXT_DATASOURCE_REGID>
SCHEMBL16123737

> <PUBCHEM_SUBSTANCE_COMMENT>
InChI=1S/C15H12F3N/c1-11(12-7-3-2-4-8-12)19-14-10-6-5-9-13(14)15(16,17)18/h2-10H,1H3/b19-11+
InChIKey=UMBKACIBRAWKON-YBFXNURJSA-N

> <PUBCHEM_SUBSTANCE_SYNONYM>
SCHEMBL16123737

> <PUBCHEM_XREF_EXT_ID>
SCHEMBL16123737

> <PUBCHEM_EXT_DATASOURCE_URL>
https://www.surechembl.org/

> <PUBCHEM_EXT_SUBSTANCE_URL>
https://www.surechembl.org/chemical/SCHEMBL16123737

> <PUBCHEM_CID_ASSOCIATIONS>
12585592  1

> <PUBCHEM_COORDINATE_TYPE>
1
3

$$$$
