310942575
  -OEChem-07211613022D

 54 58  0     1  0  0  0  0  0999 V2000
    1.8433    4.5481    0.0000 F   0  0  0  0  0  0  0  0  0  0  0  0
    2.8415   -2.4712    0.0000 F   0  0  0  0  0  0  0  0  0  0  0  0
    5.1276    4.2099    0.0000 F   0  0  0  0  0  0  0  0  0  0  0  0
   -2.1170    2.7449    0.0000 F   0  0  0  0  0  0  0  0  0  0  0  0
    3.7431    1.6341    0.0000 O   0  0  0  0  0  0  0  0  0  0  0  0
    4.4676   -0.4266    0.0000 O   0  0  0  0  0  0  0  0  0  0  0  0
   -0.1530   -0.5232    0.0000 O   0  0  0  0  0  0  0  0  0  0  0  0
   -2.4391   -2.4552    0.0000 O   0  0  0  0  0  0  0  0  0  0  0  0
   -5.1921   -4.9666    0.0000 O   0  0  0  0  0  0  0  0  0  0  0  0
    1.4248    2.2620    0.0000 N   0  0  0  0  0  0  0  0  0  0  0  0
    3.0347    0.3944    0.0000 N   0  0  0  0  0  0  0  0  0  0  0  0
    2.7771    2.2620    0.0000 N   0  0  0  0  0  0  0  0  0  0  0  0
    1.0062   -1.3604    0.0000 N   0  0  0  0  0  0  0  0  0  0  0  0
   -5.0632   -3.6143    0.0000 N   0  0  0  0  0  0  0  0  0  0  0  0
    2.1009    0.9418    0.0000 C   0  0  3  0  0  0  0  0  0  0  0  0
    2.1170    1.7790    0.0000 C   0  0  0  0  0  0  0  0  0  0  0  0
    1.3604    0.5232    0.0000 C   0  0  0  0  0  0  0  0  0  0  0  0
    2.5034    3.0347    0.0000 C   0  0  0  0  0  0  0  0  0  0  0  0
    1.6985    3.0347    0.0000 C   0  0  0  0  0  0  0  0  0  0  0  0
    3.0026    3.7109    0.0000 C   0  0  0  0  0  0  0  0  0  0  0  0
    3.7431    0.7969    0.0000 C   0  0  0  0  0  0  0  0  0  0  0  0
    3.0186   -0.6681    0.0000 C   0  0  0  0  0  0  0  0  0  0  0  0
    0.6681    2.0044    0.0000 C   0  0  0  0  0  0  0  0  0  0  0  0
    2.3263   -1.0867    0.0000 C   0  0  3  0  0  0  0  0  0  0  0  0
    2.6644    4.4676    0.0000 C   0  0  0  0  0  0  0  0  0  0  0  0
    2.1975   -1.9078    0.0000 C   0  0  3  0  0  0  0  0  0  0  0  0
    3.8236    3.6304    0.0000 C   0  0  0  0  0  0  0  0  0  0  0  0
    0.0402    2.5839    0.0000 C   0  0  0  0  0  0  0  0  0  0  0  0
    0.6520    0.1207    0.0000 C   0  0  0  0  0  0  0  0  0  0  0  0
    1.3926   -0.3139    0.0000 C   0  0  0  0  0  0  0  0  0  0  0  0
    0.6520    0.9257    0.0000 C   0  0  0  0  0  0  0  0  0  0  0  0
    4.4836    0.4105    0.0000 C   0  0  3  0  0  0  0  0  0  0  0  0
    1.5697   -0.7486    0.0000 C   0  0  0  0  0  0  0  0  0  0  0  0
    1.4248   -2.0849    0.0000 C   0  0  0  0  0  0  0  0  0  0  0  0
    4.2904    4.3065    0.0000 C   0  0  0  0  0  0  0  0  0  0  0  0
    3.1474    5.1276    0.0000 C   0  0  0  0  0  0  0  0  0  0  0  0
    0.1851   -1.2799    0.0000 C   0  0  0  0  0  0  0  0  0  0  0  0
    3.9685    5.0471    0.0000 C   0  0  0  0  0  0  0  0  0  0  0  0
   -0.7325    2.3746    0.0000 C   0  0  0  0  0  0  0  0  0  0  0  0
    0.2657    3.3889    0.0000 C   0  0  0  0  0  0  0  0  0  0  0  0
   -1.3443    2.9542    0.0000 C   0  0  0  0  0  0  0  0  0  0  0  0
    5.1921    0.8130    0.0000 C   0  0  0  0  0  0  0  0  0  0  0  0
   -0.3139    3.9524    0.0000 C   0  0  0  0  0  0  0  0  0  0  0  0
   -0.3139   -1.9399    0.0000 C   0  0  0  0  0  0  0  0  0  0  0  0
   -1.1028    3.7431    0.0000 C   0  0  0  0  0  0  0  0  0  0  0  0
   -1.1189   -1.8756    0.0000 C   0  0  0  0  0  0  0  0  0  0  0  0
   -1.6180   -2.5357    0.0000 C   0  0  0  0  0  0  0  0  0  0  0  0
   -2.9381   -3.1152    0.0000 C   0  0  0  0  0  0  0  0  0  0  0  0
   -4.2261   -3.7109    0.0000 C   0  0  0  0  0  0  0  0  0  0  0  0
   -3.8880   -4.4354    0.0000 C   0  0  0  0  0  0  0  0  0  0  0  0
   -3.7431   -3.0347    0.0000 C   0  0  0  0  0  0  0  0  0  0  0  0
   -2.6000   -3.8880    0.0000 C   0  0  0  0  0  0  0  0  0  0  0  0
   -3.0669   -4.5320    0.0000 C   0  0  0  0  0  0  0  0  0  0  0  0
   -4.3870   -5.1276    0.0000 C   0  0  0  0  0  0  0  0  0  0  0  0
  1 25  1  0  0  0  0
 26  2  1  1  0  0  0
  3 35  1  0  0  0  0
  4 41  1  0  0  0  0
  5 21  2  0  0  0  0
 32  6  1  6  0  0  0
  7 37  2  0  0  0  0
  8 47  1  0  0  0  0
  8 48  1  0  0  0  0
  9 54  2  0  0  0  0
 10 16  1  0  0  0  0
 10 19  1  0  0  0  0
 10 23  1  0  0  0  0
 15 11  1  6  0  0  0
 11 21  1  0  0  0  0
 11 22  1  0  0  0  0
 12 16  2  0  0  0  0
 12 18  1  0  0  0  0
 13 33  1  0  0  0  0
 13 34  1  0  0  0  0
 13 37  1  0  0  0  0
 14 49  1  0  0  0  0
 15 16  1  0  0  0  0
 15 17  1  0  0  0  0
 17 29  1  0  0  0  0
 17 30  1  0  0  0  0
 17 31  1  0  0  0  0
 18 19  2  0  0  0  0
 18 20  1  0  0  0  0
 20 25  1  0  0  0  0
 20 27  2  0  0  0  0
 21 32  1  0  0  0  0
 24 22  1  1  0  0  0
 23 28  1  0  0  0  0
 24 26  1  0  0  0  0
 24 33  1  0  0  0  0
 25 36  2  0  0  0  0
 26 34  1  0  0  0  0
 27 35  1  0  0  0  0
 28 39  1  0  0  0  0
 28 40  2  0  0  0  0
 32 42  1  0  0  0  0
 35 38  2  0  0  0  0
 36 38  1  0  0  0  0
 37 44  1  0  0  0  0
 39 41  2  0  0  0  0
 40 43  1  0  0  0  0
 41 45  1  0  0  0  0
 43 45  2  0  0  0  0
 44 46  1  0  0  0  0
 46 47  1  0  0  0  0
 48 51  1  0  0  0  0
 48 52  2  0  0  0  0
 49 50  1  0  0  0  0
 49 51  2  0  0  0  0
 50 53  2  0  0  0  0
 50 54  1  0  0  0  0
 52 53  1  0  0  0  0
M  END
> <PUBCHEM_COMPOUND_ID_TYPE>
0

> <PUBCHEM_TOTAL_CHARGE>
0

> <PUBCHEM_SUBSTANCE_ID>
310942575

> <PUBCHEM_SUBSTANCE_VERSION>
1

> <PUBCHEM_EXT_DATASOURCE_NAME>
4488

> <PUBCHEM_EXT_DATASOURCE_REGID>
SCHEMBL16120620

> <PUBCHEM_SUBSTANCE_COMMENT>
InChI=1S/C40H45F4N5O5/c1-24(51)39(53)49(20-27-19-47(21-33(27)44)36(52)9-6-14-54-30-12-10-26(23-50)34(45)17-30)37(40(2,3)4)38-46-35(31-16-29(42)11-13-32(31)43)22-48(38)18-25-7-5-8-28(41)15-25/h5,7-8,10-13,15-17,22-24,27,33,37,51H,6,9,14,18-21,45H2,1-4H3/t24-,27-,33-,37-/m0/s1
InChIKey=AGGXBBKNXJGDHT-YNYKMUADSA-N

> <PUBCHEM_SUBSTANCE_SYNONYM>
SCHEMBL16120620

> <PUBCHEM_XREF_EXT_ID>
SCHEMBL16120620

> <PUBCHEM_EXT_DATASOURCE_URL>
https://www.surechembl.org/

> <PUBCHEM_EXT_SUBSTANCE_URL>
https://www.surechembl.org/chemical/SCHEMBL16120620

> <PUBCHEM_CID_ASSOCIATIONS>
117609129  1

> <PUBCHEM_COORDINATE_TYPE>
1
3

> <PUBCHEM_BONDANNOTATIONS>
15  11  6
26  2  5
24  22  5
32  6  6

$$$$
