310929963
  -OEChem-07211613022D

 49 54  0     1  0  0  0  0  0999 V2000
    5.4585   -2.5834    0.0000 O   0  0  0  0  0  0  0  0  0  0  0  0
    6.4586   -5.4168    0.0000 O   0  0  0  0  0  0  0  0  0  0  0  0
    1.4167   -1.0417    0.0000 O   0  0  0  0  0  0  0  0  0  0  0  0
    4.3752   -0.1667    0.0000 O   0  0  0  0  0  0  0  0  0  0  0  0
    2.9585    0.0000    0.0000 O   0  0  0  0  0  0  0  0  0  0  0  0
    0.9167   -4.6251    0.0000 O   0  0  0  0  0  0  0  0  0  0  0  0
    0.0000   -3.7084    0.0000 O   0  0  0  0  0  0  0  0  0  0  0  0
    3.5835   -7.9170    0.0000 O   0  0  0  0  0  0  0  0  0  0  0  0
    2.6668   -1.2917    0.0000 N   0  0  0  0  0  0  0  0  0  0  0  0
    6.4586   -2.9585    0.0000 N   0  0  0  0  0  0  0  0  0  0  0  0
    0.9167   -2.9585    0.0000 N   0  0  0  0  0  0  0  0  0  0  0  0
    5.0002   -7.0836    0.0000 N   0  0  0  0  0  0  0  0  0  0  0  0
    5.7502   -3.3334    0.0000 C   0  0  0  0  0  0  0  0  0  0  0  0
    5.7502   -4.2085    0.0000 C   0  0  0  0  0  0  0  0  0  0  0  0
    3.5418   -1.2917    0.0000 C   0  0  3  0  0  0  0  0  0  0  0  0
    6.4586   -4.6251    0.0000 C   0  0  0  0  0  0  0  0  0  0  0  0
    5.0002   -1.9167    0.0000 C   0  0  3  0  0  0  0  0  0  0  0  0
    7.1253   -4.2085    0.0000 C   0  0  0  0  0  0  0  0  0  0  0  0
    1.8751   -1.7084    0.0000 C   0  0  0  0  0  0  0  0  0  0  0  0
    7.1253   -3.3334    0.0000 C   0  0  0  0  0  0  0  0  0  0  0  0
    4.0001   -0.9167    0.0000 C   0  0  0  0  0  0  0  0  0  0  0  0
    1.2917   -2.2917    0.0000 C   0  0  3  0  0  0  0  0  0  0  0  0
    4.2918   -1.5000    0.0000 C   0  0  0  0  0  0  0  0  0  0  0  0
    0.6250   -1.7917    0.0000 C   0  0  0  0  0  0  0  0  0  0  0  0
    3.6251   -0.5000    0.0000 C   0  0  0  0  0  0  0  0  0  0  0  0
    7.9170   -4.6251    0.0000 C   0  0  0  0  0  0  0  0  0  0  0  0
    5.4585   -5.0002    0.0000 C   0  0  0  0  0  0  0  0  0  0  0  0
    7.9170   -2.9585    0.0000 C   0  0  0  0  0  0  0  0  0  0  0  0
    8.5836   -4.2085    0.0000 C   0  0  0  0  0  0  0  0  0  0  0  0
    8.5836   -3.3334    0.0000 C   0  0  0  0  0  0  0  0  0  0  0  0
    0.8333   -3.7502    0.0000 C   0  0  0  0  0  0  0  0  0  0  0  0
    5.0002   -5.5835    0.0000 C   0  0  0  0  0  0  0  0  0  0  0  0
    5.7085   -5.8336    0.0000 C   0  0  0  0  0  0  0  0  0  0  0  0
    1.1667   -1.1250    0.0000 C   0  0  0  0  0  0  0  0  0  0  0  0
    0.0000   -1.2917    0.0000 C   0  0  0  0  0  0  0  0  0  0  0  0
    0.1250   -2.4167    0.0000 C   0  0  0  0  0  0  0  0  0  0  0  0
    1.2917   -5.2918    0.0000 C   0  0  3  0  0  0  0  0  0  0  0  0
    1.8751   -5.8752    0.0000 C   0  0  3  0  0  0  0  0  0  0  0  0
    4.2918   -6.0835    0.0000 C   0  0  0  0  0  0  0  0  0  0  0  0
    5.7085   -6.6669    0.0000 C   0  0  0  0  0  0  0  0  0  0  0  0
    0.6250   -5.7085    0.0000 C   0  0  0  0  0  0  0  0  0  0  0  0
    2.6668   -6.1669    0.0000 C   0  0  0  0  0  0  0  0  0  0  0  0
    1.5834   -6.6669    0.0000 C   0  0  0  0  0  0  0  0  0  0  0  0
    3.5418   -6.2502    0.0000 C   0  0  0  0  0  0  0  0  0  0  0  0
    0.7084   -6.5419    0.0000 C   0  0  0  0  0  0  0  0  0  0  0  0
    5.0002   -7.9170    0.0000 C   0  0  0  0  0  0  0  0  0  0  0  0
    4.2918   -6.7085    0.0000 C   0  0  0  0  0  0  0  0  0  0  0  0
    3.5835   -7.0836    0.0000 C   0  0  0  0  0  0  0  0  0  0  0  0
    4.2918   -8.3336    0.0000 C   0  0  0  0  0  0  0  0  0  0  0  0
  1 13  1  0  0  0  0
  1 17  1  0  0  0  0
  2 16  1  0  0  0  0
  2 33  1  0  0  0  0
  3 19  2  0  0  0  0
  4 25  2  0  0  0  0
  5 25  1  0  0  0  0
  6 31  1  0  0  0  0
  6 37  1  0  0  0  0
  7 31  2  0  0  0  0
  8 48  1  0  0  0  0
  8 49  1  0  0  0  0
  9 15  1  0  0  0  0
  9 19  1  0  0  0  0
  9 21  1  0  0  0  0
 10 13  1  0  0  0  0
 10 20  2  0  0  0  0
 11 22  1  0  0  0  0
 11 31  1  0  0  0  0
 12 40  1  0  0  0  0
 12 46  1  0  0  0  0
 12 47  1  0  0  0  0
 13 14  2  0  0  0  0
 14 16  1  0  0  0  0
 14 27  1  0  0  0  0
 15 23  1  0  0  0  0
 15 25  1  6  0  0  0
 16 18  2  0  0  0  0
 17 21  1  0  0  0  0
 17 23  1  1  0  0  0
 18 20  1  0  0  0  0
 18 26  1  0  0  0  0
 19 22  1  0  0  0  0
 20 28  1  0  0  0  0
 22 24  1  1  0  0  0
 24 34  1  0  0  0  0
 24 35  1  0  0  0  0
 24 36  1  0  0  0  0
 26 29  2  0  0  0  0
 27 32  1  0  0  0  0
 28 30  2  0  0  0  0
 29 30  1  0  0  0  0
 32 39  1  0  0  0  0
 33 40  1  0  0  0  0
 37 38  1  0  0  0  0
 37 41  1  1  0  0  0
 38 42  1  0  0  0  0
 38 43  1  6  0  0  0
 39 44  1  0  0  0  0
 41 45  1  0  0  0  0
 42 44  1  0  0  0  0
 43 45  1  0  0  0  0
 46 49  1  0  0  0  0
 47 48  1  0  0  0  0
M  END
> <PUBCHEM_COMPOUND_ID_TYPE>
0

> <PUBCHEM_TOTAL_CHARGE>
0

> <PUBCHEM_SUBSTANCE_ID>
310929963

> <PUBCHEM_SUBSTANCE_VERSION>
1

> <PUBCHEM_EXT_DATASOURCE_NAME>
4488

> <PUBCHEM_EXT_DATASOURCE_REGID>
SCHEMBL16107191

> <PUBCHEM_SUBSTANCE_COMMENT>
InChI=1S/C37H52N4O8/c1-37(2,3)32-34(42)41-23-25(22-29(41)35(43)44)48-33-27(13-6-4-5-10-24-11-9-15-30(24)49-36(45)39-32)31(26-12-7-8-14-28(26)38-33)47-21-18-40-16-19-46-20-17-40/h7-8,12,14,24-25,29-30,32H,4-6,9-11,13,15-23H2,1-3H3,(H,39,45)(H,43,44)/t24-,25-,29+,30-,32-/m1/s1
InChIKey=XHEDORPRZBMZLY-DHESOHDNSA-N

> <PUBCHEM_SUBSTANCE_SYNONYM>
SCHEMBL16107191

> <PUBCHEM_XREF_EXT_ID>
SCHEMBL16107191

> <PUBCHEM_EXT_DATASOURCE_URL>
https://www.surechembl.org/

> <PUBCHEM_EXT_SUBSTANCE_URL>
https://www.surechembl.org/chemical/SCHEMBL16107191

> <PUBCHEM_CID_ASSOCIATIONS>
117599222  1

> <PUBCHEM_COORDINATE_TYPE>
1
3

> <PUBCHEM_BONDANNOTATIONS>
15  25  6
17  23  5
22  24  5
37  41  5
38  43  6

$$$$
