310948982
  -OEChem-07211613022D

 13 12  0     0  0  0  0  0  0999 V2000
    2.8081   -0.1979    0.0000 O   0  0  0  0  0  0  0  0  0  0  0  0
    0.6774    0.2131    0.0000 O   0  0  0  0  0  0  0  0  0  0  0  0
    4.2235   -1.0197    0.0000 O   0  0  0  0  0  0  0  0  0  0  0  0
   -2.1689    1.0197    0.0000 O   0  0  0  0  0  0  0  0  0  0  0  0
    4.9389    0.1979    0.0000 N   0  0  0  0  0  0  0  0  0  0  0  0
   -1.4535   -0.2131    0.0000 N   0  0  0  0  0  0  0  0  0  0  0  0
    4.2235   -0.1826    0.0000 C   0  0  0  0  0  0  0  0  0  0  0  0
    3.5234    0.2131    0.0000 C   0  0  0  0  0  0  0  0  0  0  0  0
    2.1080    0.2131    0.0000 C   0  0  0  0  0  0  0  0  0  0  0  0
    1.3926   -0.1979    0.0000 C   0  0  0  0  0  0  0  0  0  0  0  0
   -0.0228   -0.1979    0.0000 C   0  0  0  0  0  0  0  0  0  0  0  0
   -0.7381    0.2131    0.0000 C   0  0  0  0  0  0  0  0  0  0  0  0
   -2.1689    0.1979    0.0000 C   0  0  0  0  0  0  0  0  0  0  0  0
  1  8  1  0  0  0  0
  1  9  1  0  0  0  0
  2 10  1  0  0  0  0
  2 11  1  0  0  0  0
  3  7  2  0  0  0  0
  4 13  2  0  0  0  0
  5  7  1  0  0  0  0
  6 12  1  0  0  0  0
  6 13  1  0  0  0  0
  7  8  1  0  0  0  0
  9 10  1  0  0  0  0
 11 12  1  0  0  0  0
M  END
> <PUBCHEM_COMPOUND_ID_TYPE>
0

> <PUBCHEM_TOTAL_CHARGE>
0

> <PUBCHEM_SUBSTANCE_ID>
310948982

> <PUBCHEM_SUBSTANCE_VERSION>
1

> <PUBCHEM_EXT_DATASOURCE_NAME>
4488

> <PUBCHEM_EXT_DATASOURCE_REGID>
SCHEMBL16127170

> <PUBCHEM_SUBSTANCE_COMMENT>
InChI=1S/C7H14N2O4/c8-7(11)5-13-4-3-12-2-1-9-6-10/h6H,1-5H2,(H2,8,11)(H,9,10)
InChIKey=GEIDTHWENGNNIV-UHFFFAOYSA-N

> <PUBCHEM_SUBSTANCE_SYNONYM>
SCHEMBL16127170

> <PUBCHEM_XREF_EXT_ID>
SCHEMBL16127170

> <PUBCHEM_EXT_DATASOURCE_URL>
https://www.surechembl.org/

> <PUBCHEM_EXT_SUBSTANCE_URL>
https://www.surechembl.org/chemical/SCHEMBL16127170

> <PUBCHEM_CID_ASSOCIATIONS>
117614491  1

> <PUBCHEM_COORDINATE_TYPE>
1
3

$$$$
