310937631
  -OEChem-07211613022D

  7  6  0     0  0  0  0  0  0999 V2000
    2.0664   -1.4206    0.0000 Cl  0  0  0  0  0  0  0  0  0  0  0  0
    1.2269    0.0000    0.0000 O   0  0  0  0  0  0  0  0  0  0  0  0
    0.8395   -2.1524    0.0000 N   0  0  0  0  0  0  0  0  0  0  0  0
    0.8180   -0.7211    0.0000 C   0  0  0  0  0  0  0  0  0  0  0  0
    1.2377   -1.4313    0.0000 C   0  0  0  0  0  0  0  0  0  0  0  0
    0.0000   -0.7318    0.0000 C   0  0  0  0  0  0  0  0  0  0  0  0
    0.3982    0.0000    0.0000 C   0  0  0  0  0  0  0  0  0  0  0  0
  1  5  1  0  0  0  0
  2  4  1  0  0  0  0
  3  5  2  3  0  0  0
  4  5  1  0  0  0  0
  4  6  1  0  0  0  0
  4  7  1  0  0  0  0
M  END
> <PUBCHEM_COMPOUND_ID_TYPE>
0

> <PUBCHEM_TOTAL_CHARGE>
0

> <PUBCHEM_SUBSTANCE_ID>
310937631

> <PUBCHEM_SUBSTANCE_VERSION>
1

> <PUBCHEM_EXT_DATASOURCE_NAME>
4488

> <PUBCHEM_EXT_DATASOURCE_REGID>
SCHEMBL16115416

> <PUBCHEM_SUBSTANCE_COMMENT>
InChI=1S/C4H8ClNO/c1-4(2,7)3(5)6/h6-7H,1-2H3
InChIKey=VJCSKDNBKLLBDA-UHFFFAOYSA-N

> <PUBCHEM_SUBSTANCE_SYNONYM>
SCHEMBL16115416

> <PUBCHEM_XREF_EXT_ID>
SCHEMBL16115416

> <PUBCHEM_EXT_DATASOURCE_URL>
https://www.surechembl.org/

> <PUBCHEM_EXT_SUBSTANCE_URL>
https://www.surechembl.org/chemical/SCHEMBL16115416

> <PUBCHEM_CID_ASSOCIATIONS>
117605328  1

> <PUBCHEM_COORDINATE_TYPE>
1
3

$$$$
