310949275
  -OEChem-07211613022D

 97112  0     0  0  0  0  0  0999 V2000
   -0.6995   -4.5420    0.0000 N   0  0  0  0  0  0  0  0  0  0  0  0
   -0.6798    4.5420    0.0000 N   0  0  0  0  0  0  0  0  0  0  0  0
    2.9656   -0.1083    0.0000 N   0  0  0  0  0  0  0  0  0  0  0  0
    1.3695   -5.2711    0.0000 N   0  0  0  0  0  0  0  0  0  0  0  0
    1.3695    5.2908    0.0000 N   0  0  0  0  0  0  0  0  0  0  0  0
   -2.3154   -3.0838    0.0000 N   0  0  0  0  0  0  0  0  0  0  0  0
   -2.2956    3.1232    0.0000 N   0  0  0  0  0  0  0  0  0  0  0  0
   -1.5666   -4.5617    0.0000 C   0  0  0  0  0  0  0  0  0  0  0  0
   -0.4237   -5.2711    0.0000 C   0  0  0  0  0  0  0  0  0  0  0  0
   -0.3449    5.3696    0.0000 C   0  0  0  0  0  0  0  0  0  0  0  0
   -1.5468    4.6799    0.0000 C   0  0  0  0  0  0  0  0  0  0  0  0
   -1.7636   -5.3893    0.0000 C   0  0  0  0  0  0  0  0  0  0  0  0
   -1.0345   -5.8228    0.0000 C   0  0  0  0  0  0  0  0  0  0  0  0
   -0.9951    5.8819    0.0000 C   0  0  0  0  0  0  0  0  0  0  0  0
   -1.7044    5.4681    0.0000 C   0  0  0  0  0  0  0  0  0  0  0  0
   -0.2661    3.8917    0.0000 C   0  0  0  0  0  0  0  0  0  0  0  0
   -0.2857   -3.8129    0.0000 C   0  0  0  0  0  0  0  0  0  0  0  0
    1.6651    0.3449    0.0000 C   0  0  0  0  0  0  0  0  0  0  0  0
    1.6454   -0.4827    0.0000 C   0  0  0  0  0  0  0  0  0  0  0  0
    2.4335    0.5813    0.0000 C   0  0  0  0  0  0  0  0  0  0  0  0
    2.4532   -0.7586    0.0000 C   0  0  0  0  0  0  0  0  0  0  0  0
    0.5813    3.8523    0.0000 C   0  0  0  0  0  0  0  0  0  0  0  0
    0.5419   -3.8326    0.0000 C   0  0  0  0  0  0  0  0  0  0  0  0
   -0.6601    3.1232    0.0000 C   0  0  0  0  0  0  0  0  0  0  0  0
   -0.6798   -3.0838    0.0000 C   0  0  0  0  0  0  0  0  0  0  0  0
    0.6010    2.4335    0.0000 C   0  0  0  0  0  0  0  0  0  0  0  0
    0.5813   -2.4139    0.0000 C   0  0  0  0  0  0  0  0  0  0  0  0
    1.2512    1.7242    0.0000 C   0  0  0  0  0  0  0  0  0  0  0  0
    1.1922   -1.8227    0.0000 C   0  0  0  0  0  0  0  0  0  0  0  0
   -2.6109   -5.6060    0.0000 C   0  0  0  0  0  0  0  0  0  0  0  0
   -0.8966   -6.6307    0.0000 C   0  0  0  0  0  0  0  0  0  0  0  0
   -0.8178    6.6701    0.0000 C   0  0  0  0  0  0  0  0  0  0  0  0
   -2.5518    5.6652    0.0000 C   0  0  0  0  0  0  0  0  0  0  0  0
   -2.1971   -4.0296    0.0000 C   0  0  0  0  0  0  0  0  0  0  0  0
    0.3449   -5.5666    0.0000 C   0  0  0  0  0  0  0  0  0  0  0  0
    0.4039    5.6060    0.0000 C   0  0  0  0  0  0  0  0  0  0  0  0
   -2.1380    4.0888    0.0000 C   0  0  0  0  0  0  0  0  0  0  0  0
    1.0542    0.8769    0.0000 C   0  0  0  0  0  0  0  0  0  0  0  0
    1.0739   -1.0148    0.0000 C   0  0  0  0  0  0  0  0  0  0  0  0
   -3.1823   -5.0543    0.0000 C   0  0  0  0  0  0  0  0  0  0  0  0
   -0.1083   -6.9065    0.0000 C   0  0  0  0  0  0  0  0  0  0  0  0
   -0.0887    6.9657    0.0000 C   0  0  0  0  0  0  0  0  0  0  0  0
   -3.0838    5.1134    0.0000 C   0  0  0  0  0  0  0  0  0  0  0  0
    3.7932   -0.0887    0.0000 C   0  0  0  0  0  0  0  0  0  0  0  0
    0.9951    3.1429    0.0000 C   0  0  0  0  0  0  0  0  0  0  0  0
    0.9754   -3.1627    0.0000 C   0  0  0  0  0  0  0  0  0  0  0  0
   -0.2266    2.4730    0.0000 C   0  0  0  0  0  0  0  0  0  0  0  0
   -0.2463   -2.3942    0.0000 C   0  0  0  0  0  0  0  0  0  0  0  0
    2.6306    1.3695    0.0000 C   0  0  0  0  0  0  0  0  0  0  0  0
    2.6306   -1.5468    0.0000 C   0  0  0  0  0  0  0  0  0  0  0  0
   -2.9459   -4.2661    0.0000 C   0  0  0  0  0  0  0  0  0  0  0  0
    0.5222   -6.3942    0.0000 C   0  0  0  0  0  0  0  0  0  0  0  0
    0.5616    6.3942    0.0000 C   0  0  0  0  0  0  0  0  0  0  0  0
   -2.9064    4.3252    0.0000 C   0  0  0  0  0  0  0  0  0  0  0  0
    2.0198    1.9212    0.0000 C   0  0  0  0  0  0  0  0  0  0  0  0
    1.9803   -2.0986    0.0000 C   0  0  0  0  0  0  0  0  0  0  0  0
   -3.9508   -5.2908    0.0000 C   0  0  0  0  0  0  0  0  0  0  0  0
    0.0295   -7.7538    0.0000 C   0  0  0  0  0  0  0  0  0  0  0  0
    0.0887    7.8130    0.0000 C   0  0  0  0  0  0  0  0  0  0  0  0
   -3.8917    5.3696    0.0000 C   0  0  0  0  0  0  0  0  0  0  0  0
    0.9754    4.6011    0.0000 C   0  0  0  0  0  0  0  0  0  0  0  0
    0.9557   -4.5617    0.0000 C   0  0  0  0  0  0  0  0  0  0  0  0
   -1.5074    3.1232    0.0000 C   0  0  0  0  0  0  0  0  0  0  0  0
   -1.5271   -3.0838    0.0000 C   0  0  0  0  0  0  0  0  0  0  0  0
    4.2070   -0.7981    0.0000 C   0  0  0  0  0  0  0  0  0  0  0  0
    4.2267    0.6010    0.0000 C   0  0  0  0  0  0  0  0  0  0  0  0
   -4.1281   -6.0986    0.0000 C   0  0  0  0  0  0  0  0  0  0  0  0
    0.8178   -8.0494    0.0000 C   0  0  0  0  0  0  0  0  0  0  0  0
    0.8571    8.0691    0.0000 C   0  0  0  0  0  0  0  0  0  0  0  0
   -4.0888    6.1578    0.0000 C   0  0  0  0  0  0  0  0  0  0  0  0
   -4.5223   -4.7390    0.0000 C   0  0  0  0  0  0  0  0  0  0  0  0
   -0.5813   -8.2662    0.0000 C   0  0  0  0  0  0  0  0  0  0  0  0
   -0.5222    8.3253    0.0000 C   0  0  0  0  0  0  0  0  0  0  0  0
   -4.5025    4.7981    0.0000 C   0  0  0  0  0  0  0  0  0  0  0  0
    5.0543   -0.7981    0.0000 C   0  0  0  0  0  0  0  0  0  0  0  0
    5.0740    0.5813    0.0000 C   0  0  0  0  0  0  0  0  0  0  0  0
   -4.9361   -6.3154    0.0000 C   0  0  0  0  0  0  0  0  0  0  0  0
    0.9557   -8.8377    0.0000 C   0  0  0  0  0  0  0  0  0  0  0  0
    1.0542    8.8574    0.0000 C   0  0  0  0  0  0  0  0  0  0  0  0
   -4.8376    6.4140    0.0000 C   0  0  0  0  0  0  0  0  0  0  0  0
   -5.3105   -4.9755    0.0000 C   0  0  0  0  0  0  0  0  0  0  0  0
   -0.4631   -9.0938    0.0000 C   0  0  0  0  0  0  0  0  0  0  0  0
   -0.3449    9.1529    0.0000 C   0  0  0  0  0  0  0  0  0  0  0  0
   -5.2513    5.0543    0.0000 C   0  0  0  0  0  0  0  0  0  0  0  0
    5.4878   -0.1281    0.0000 C   0  0  0  0  0  0  0  0  0  0  0  0
   -5.4878   -5.7834    0.0000 C   0  0  0  0  0  0  0  0  0  0  0  0
    0.3449   -9.3894    0.0000 C   0  0  0  0  0  0  0  0  0  0  0  0
    0.3646    9.3894    0.0000 C   0  0  0  0  0  0  0  0  0  0  0  0
   -5.4484    5.8622    0.0000 C   0  0  0  0  0  0  0  0  0  0  0  0
   -3.5173   -6.6701    0.0000 C   0  0  0  0  0  0  0  0  0  0  0  0
    1.4483   -7.4780    0.0000 C   0  0  0  0  0  0  0  0  0  0  0  0
    1.5468    7.5174    0.0000 C   0  0  0  0  0  0  0  0  0  0  0  0
   -3.4385    6.7686    0.0000 C   0  0  0  0  0  0  0  0  0  0  0  0
   -4.3252   -3.9311    0.0000 C   0  0  0  0  0  0  0  0  0  0  0  0
   -1.3892   -8.0297    0.0000 C   0  0  0  0  0  0  0  0  0  0  0  0
   -1.3104    8.0889    0.0000 C   0  0  0  0  0  0  0  0  0  0  0  0
   -4.2858    3.9903    0.0000 C   0  0  0  0  0  0  0  0  0  0  0  0
  1  8  1  0  0  0  0
  1  9  1  0  0  0  0
  1 17  1  0  0  0  0
  2 10  1  0  0  0  0
  2 11  1  0  0  0  0
  2 16  1  0  0  0  0
  3 20  1  0  0  0  0
  3 21  1  0  0  0  0
  3 44  1  0  0  0  0
  4 62  3  0  0  0  0
  5 61  3  0  0  0  0
  6 64  3  0  0  0  0
  7 63  3  0  0  0  0
  8 12  2  0  0  0  0
  8 34  1  0  0  0  0
  9 13  2  0  0  0  0
  9 35  1  0  0  0  0
 10 14  2  0  0  0  0
 10 36  1  0  0  0  0
 11 15  2  0  0  0  0
 11 37  1  0  0  0  0
 12 13  1  0  0  0  0
 12 30  1  0  0  0  0
 13 31  1  0  0  0  0
 14 15  1  0  0  0  0
 14 32  1  0  0  0  0
 15 33  1  0  0  0  0
 16 22  2  0  0  0  0
 16 24  1  0  0  0  0
 17 23  2  0  0  0  0
 17 25  1  0  0  0  0
 18 19  1  0  0  0  0
 18 20  2  0  0  0  0
 18 38  1  0  0  0  0
 19 21  2  0  0  0  0
 19 39  1  0  0  0  0
 20 49  1  0  0  0  0
 21 50  1  0  0  0  0
 22 45  1  0  0  0  0
 22 61  1  0  0  0  0
 23 46  1  0  0  0  0
 23 62  1  0  0  0  0
 24 47  2  0  0  0  0
 24 63  1  0  0  0  0
 25 48  2  0  0  0  0
 25 64  1  0  0  0  0
 26 28  1  0  0  0  0
 26 45  2  0  0  0  0
 26 47  1  0  0  0  0
 27 29  1  0  0  0  0
 27 46  2  0  0  0  0
 27 48  1  0  0  0  0
 28 38  2  0  0  0  0
 28 55  1  0  0  0  0
 29 39  2  0  0  0  0
 29 56  1  0  0  0  0
 30 40  2  0  0  0  0
 31 41  2  0  0  0  0
 32 42  2  0  0  0  0
 33 43  2  0  0  0  0
 34 51  2  0  0  0  0
 35 52  2  0  0  0  0
 36 53  2  0  0  0  0
 37 54  2  0  0  0  0
 40 51  1  0  0  0  0
 40 57  1  0  0  0  0
 41 52  1  0  0  0  0
 41 58  1  0  0  0  0
 42 53  1  0  0  0  0
 42 59  1  0  0  0  0
 43 54  1  0  0  0  0
 43 60  1  0  0  0  0
 44 65  2  0  0  0  0
 44 66  1  0  0  0  0
 49 55  2  0  0  0  0
 50 56  2  0  0  0  0
 57 67  2  0  0  0  0
 57 71  1  0  0  0  0
 58 68  2  0  0  0  0
 58 72  1  0  0  0  0
 59 69  2  0  0  0  0
 59 73  1  0  0  0  0
 60 70  2  0  0  0  0
 60 74  1  0  0  0  0
 65 75  1  0  0  0  0
 66 76  2  0  0  0  0
 67 77  1  0  0  0  0
 67 90  1  0  0  0  0
 68 78  1  0  0  0  0
 68 91  1  0  0  0  0
 69 79  1  0  0  0  0
 69 92  1  0  0  0  0
 70 80  1  0  0  0  0
 70 93  1  0  0  0  0
 71 81  2  0  0  0  0
 71 94  1  0  0  0  0
 72 82  2  0  0  0  0
 72 95  1  0  0  0  0
 73 83  2  0  0  0  0
 73 96  1  0  0  0  0
 74 84  2  0  0  0  0
 74 97  1  0  0  0  0
 75 85  2  0  0  0  0
 76 85  1  0  0  0  0
 77 86  2  0  0  0  0
 78 87  2  0  0  0  0
 79 88  2  0  0  0  0
 80 89  2  0  0  0  0
 81 86  1  0  0  0  0
 82 87  1  0  0  0  0
 83 88  1  0  0  0  0
 84 89  1  0  0  0  0
M  END
> <PUBCHEM_COMPOUND_ID_TYPE>
0

> <PUBCHEM_TOTAL_CHARGE>
0

> <PUBCHEM_SUBSTANCE_ID>
310949275

> <PUBCHEM_SUBSTANCE_VERSION>
1

> <PUBCHEM_EXT_DATASOURCE_NAME>
4488

> <PUBCHEM_EXT_DATASOURCE_REGID>
SCHEMBL16127465

> <PUBCHEM_SUBSTANCE_COMMENT>
InChI=1S/C90H63N7/c1-52-16-12-17-53(2)85(52)62-28-34-81-75(44-62)76-45-63(86-54(3)18-13-19-55(86)4)29-35-82(76)96(81)89-68(48-91)38-66(39-69(89)49-92)60-26-32-79-73(42-60)74-43-61(27-33-80(74)95(79)72-24-10-9-11-25-72)67-40-70(50-93)90(71(41-67)51-94)97-83-36-30-64(87-56(5)20-14-21-57(87)6)46-77(83)78-47-65(31-37-84(78)97)88-58(7)22-15-23-59(88)8/h9-47H,1-8H3
InChIKey=HETIFJIEPYCUMM-UHFFFAOYSA-N

> <PUBCHEM_SUBSTANCE_SYNONYM>
SCHEMBL16127465

> <PUBCHEM_XREF_EXT_ID>
SCHEMBL16127465

> <PUBCHEM_EXT_DATASOURCE_URL>
https://www.surechembl.org/

> <PUBCHEM_EXT_SUBSTANCE_URL>
https://www.surechembl.org/chemical/SCHEMBL16127465

> <PUBCHEM_CID_ASSOCIATIONS>
117614761  1

> <PUBCHEM_COORDINATE_TYPE>
1
3

$$$$
