310933136
  -OEChem-07211613022D

 17 19  0     0  0  0  0  0  0999 V2000
    0.0000   -3.8423    0.0000 Cl  0  0  0  0  0  0  0  0  0  0  0  0
    4.2265   -2.9970    0.0000 O   0  0  0  0  0  0  0  0  0  0  0  0
    2.9010   -2.3438    0.0000 N   0  0  0  0  0  0  0  0  0  0  0  0
    2.1325   -2.5743    0.0000 C   0  0  0  0  0  0  0  0  0  0  0  0
    2.1325   -3.4388    0.0000 C   0  0  0  0  0  0  0  0  0  0  0  0
    3.4004   -2.9970    0.0000 C   0  0  0  0  0  0  0  0  0  0  0  0
    3.1699   -1.5753    0.0000 C   0  0  0  0  0  0  0  0  0  0  0  0
    2.9010   -3.6694    0.0000 C   0  0  0  0  0  0  0  0  0  0  0  0
    1.4024   -2.1901    0.0000 C   0  0  0  0  0  0  0  0  0  0  0  0
    1.4024   -3.8231    0.0000 C   0  0  0  0  0  0  0  0  0  0  0  0
    0.7108   -3.4388    0.0000 C   0  0  0  0  0  0  0  0  0  0  0  0
    0.7108   -2.5743    0.0000 C   0  0  0  0  0  0  0  0  0  0  0  0
    2.6128   -0.9606    0.0000 C   0  0  0  0  0  0  0  0  0  0  0  0
    3.9576   -1.4024    0.0000 C   0  0  0  0  0  0  0  0  0  0  0  0
    2.8625   -0.1729    0.0000 C   0  0  0  0  0  0  0  0  0  0  0  0
    4.2073   -0.6147    0.0000 C   0  0  0  0  0  0  0  0  0  0  0  0
    3.6694    0.0000    0.0000 C   0  0  0  0  0  0  0  0  0  0  0  0
  1 11  1  0  0  0  0
  2  6  2  0  0  0  0
  3  4  1  0  0  0  0
  3  6  1  0  0  0  0
  3  7  1  0  0  0  0
  4  5  2  0  0  0  0
  4  9  1  0  0  0  0
  5  8  1  0  0  0  0
  5 10  1  0  0  0  0
  6  8  1  0  0  0  0
  7 13  2  0  0  0  0
  7 14  1  0  0  0  0
  9 12  2  0  0  0  0
 10 11  2  0  0  0  0
 11 12  1  0  0  0  0
 13 15  1  0  0  0  0
 14 16  2  0  0  0  0
 15 17  2  0  0  0  0
 16 17  1  0  0  0  0
M  END
> <PUBCHEM_COMPOUND_ID_TYPE>
0

> <PUBCHEM_TOTAL_CHARGE>
0

> <PUBCHEM_SUBSTANCE_ID>
310933136

> <PUBCHEM_SUBSTANCE_VERSION>
1

> <PUBCHEM_EXT_DATASOURCE_NAME>
4488

> <PUBCHEM_EXT_DATASOURCE_REGID>
SCHEMBL16110543

> <PUBCHEM_SUBSTANCE_COMMENT>
InChI=1S/C14H10ClNO/c15-11-6-7-13-10(8-11)9-14(17)16(13)12-4-2-1-3-5-12/h1-8H,9H2
InChIKey=GSDCKTIMNUUYRI-UHFFFAOYSA-N

> <PUBCHEM_SUBSTANCE_SYNONYM>
SCHEMBL16110543

> <PUBCHEM_XREF_EXT_ID>
SCHEMBL16110543

> <PUBCHEM_EXT_DATASOURCE_URL>
https://www.surechembl.org/

> <PUBCHEM_EXT_SUBSTANCE_URL>
https://www.surechembl.org/chemical/SCHEMBL16110543

> <PUBCHEM_CID_ASSOCIATIONS>
117601590  1

> <PUBCHEM_COORDINATE_TYPE>
1
3

$$$$
