310939443
  -OEChem-07211613022D

 89 96  0     1  0  0  0  0  0999 V2000
   -7.8294    7.9515    0.0000 S   0  0  0  0  0  0  0  0  0  0  0  0
    3.1692    7.5830    0.0000 S   0  0  0  0  0  0  0  0  0  0  0  0
   -5.7171    6.2766    0.0000 O   0  0  0  0  0  0  0  0  0  0  0  0
    1.7551    9.1345    0.0000 O   0  0  0  0  0  0  0  0  0  0  0  0
    0.4379    6.1589    0.0000 O   0  0  0  0  0  0  0  0  0  0  0  0
   -6.5725   10.3819    0.0000 O   0  0  0  0  0  0  0  0  0  0  0  0
   -2.6594    4.4933    0.0000 O   0  0  0  0  0  0  0  0  0  0  0  0
    0.0436   12.1162    0.0000 O   0  0  0  0  0  0  0  0  0  0  0  0
   -3.2271   12.2854    0.0000 O   0  0  0  0  0  0  0  0  0  0  0  0
   -6.8090    8.6683    0.0000 O   0  0  0  0  0  0  0  0  0  0  0  0
    1.9493    6.7849    0.0000 O   0  0  0  0  0  0  0  0  0  0  0  0
   -4.8904    5.2386    0.0000 O   0  0  0  0  0  0  0  0  0  0  0  0
   -1.3615    4.6640    0.0000 O   0  0  0  0  0  0  0  0  0  0  0  0
    2.3499   10.7419    0.0000 O   0  0  0  0  0  0  0  0  0  0  0  0
   -5.0823   12.7656    0.0000 O   0  0  0  0  0  0  0  0  0  0  0  0
   -0.8609   13.4120    0.0000 O   0  0  0  0  0  0  0  0  0  0  0  0
   -5.0201    7.9235    0.0000 O   0  0  0  0  0  0  0  0  0  0  0  0
    0.4379    7.7503    0.0000 O   0  0  0  0  0  0  0  0  0  0  0  0
   -3.3006    6.1146    0.0000 O   0  0  0  0  0  0  0  0  0  0  0  0
   -0.6890    6.6820    0.0000 O   0  0  0  0  0  0  0  0  0  0  0  0
   -5.6423    9.0101    0.0000 O   0  0  0  0  0  0  0  0  0  0  0  0
    0.6470    6.9522    0.0000 O   0  0  0  0  0  0  0  0  0  0  0  0
   -5.2958   10.5995    0.0000 O   0  0  0  0  0  0  0  0  0  0  0  0
    0.1861   10.7069    0.0000 O   0  0  0  0  0  0  0  0  0  0  0  0
   -4.1037    6.3037    0.0000 O   0  0  0  0  0  0  0  0  0  0  0  0
   -2.2317   11.7055    0.0000 O   0  0  0  0  0  0  0  0  0  0  0  0
   -1.8590    5.8602    0.0000 O   0  0  0  0  0  0  0  0  0  0  0  0
    1.0224   10.1726    0.0000 O   0  0  0  0  0  0  0  0  0  0  0  0
   -4.1498   11.7796    0.0000 O   0  0  0  0  0  0  0  0  0  0  0  0
   -1.3160   12.0316    0.0000 O   0  0  0  0  0  0  0  0  0  0  0  0
   -4.4571    3.6693    0.0000 O   0  0  0  0  0  0  0  0  0  0  0  0
    0.2637    4.4799    0.0000 O   0  0  0  0  0  0  0  0  0  0  0  0
   -6.1388   12.7668    0.0000 O   0  0  0  0  0  0  0  0  0  0  0  0
    2.6896   11.8741    0.0000 O   0  0  0  0  0  0  0  0  0  0  0  0
   -1.5777   14.4323    0.0000 O   0  0  0  0  0  0  0  0  0  0  0  0
   -8.5439    9.1890    0.0000 O   0  0  0  0  0  0  0  0  0  0  0  0
   -9.9728    9.1890    0.0000 O   0  0  0  0  0  0  0  0  0  0  0  0
    3.8837    6.3455    0.0000 O   0  0  0  0  0  0  0  0  0  0  0  0
    5.3126    6.3455    0.0000 O   0  0  0  0  0  0  0  0  0  0  0  0
   -9.9728    7.5390    0.0000 N   0  0  0  0  0  0  0  0  0  0  0  0
    5.3126    7.9955    0.0000 N   0  0  0  0  0  0  0  0  0  0  0  0
   -6.4005    7.1266    0.0000 C   0  0  3  0  0  0  0  0  0  0  0  0
    1.9493    8.3763    0.0000 C   0  0  3  0  0  0  0  0  0  0  0  0
    0.0254    5.4445    0.0000 C   0  0  3  0  0  0  0  0  0  0  0  0
   -3.4844    4.4933    0.0000 C   0  0  3  0  0  0  0  0  0  0  0  0
   -5.8933   11.3964    0.0000 C   0  0  3  0  0  0  0  0  0  0  0  0
    1.1072   11.7360    0.0000 C   0  0  3  0  0  0  0  0  0  0  0  0
   -2.4026   13.0033    0.0000 C   0  0  3  0  0  0  0  0  0  0  0  0
   -6.2256    9.2517    0.0000 C   0  0  3  0  0  0  0  0  0  0  0  0
    1.2348    6.3725    0.0000 C   0  0  3  0  0  0  0  0  0  0  0  0
   -4.9202    6.0630    0.0000 C   0  0  3  0  0  0  0  0  0  0  0  0
    2.2256    9.9263    0.0000 C   0  0  3  0  0  0  0  0  0  0  0  0
   -2.0760    5.0766    0.0000 C   0  0  3  0  0  0  0  0  0  0  0  0
   -4.2573   12.7656    0.0000 C   0  0  3  0  0  0  0  0  0  0  0  0
   -0.2775   12.8285    0.0000 C   0  0  3  0  0  0  0  0  0  0  0  0
   -5.8170    7.7099    0.0000 C   0  0  3  0  0  0  0  0  0  0  0  0
    1.2348    7.9638    0.0000 C   0  0  3  0  0  0  0  0  0  0  0  0
   -3.5141    5.3177    0.0000 C   0  0  3  0  0  0  0  0  0  0  0  0
   -0.6890    5.8570    0.0000 C   0  0  3  0  0  0  0  0  0  0  0  0
   -6.2256    8.4268    0.0000 C   0  0  3  0  0  0  0  0  0  0  0  0
    1.4439    7.1657    0.0000 C   0  0  3  0  0  0  0  0  0  0  0  0
   -5.0823   11.3964    0.0000 C   0  0  3  0  0  0  0  0  0  0  0  0
    0.9830   10.9204    0.0000 C   0  0  3  0  0  0  0  0  0  0  0  0
   -6.4005    7.9515    0.0000 C   0  0  3  0  0  0  0  0  0  0  0  0
    1.7403    7.5830    0.0000 C   0  0  3  0  0  0  0  0  0  0  0  0
   -4.3172    5.5069    0.0000 C   0  0  3  0  0  0  0  0  0  0  0  0
   -1.8192   12.4200    0.0000 C   0  0  3  0  0  0  0  0  0  0  0  0
   -1.2756    5.2768    0.0000 C   0  0  3  0  0  0  0  0  0  0  0  0
    1.7368   10.5851    0.0000 C   0  0  3  0  0  0  0  0  0  0  0  0
   -4.8642   12.1921    0.0000 C   0  0  3  0  0  0  0  0  0  0  0  0
   -1.1024   12.8285    0.0000 C   0  0  3  0  0  0  0  0  0  0  0  0
   -4.0873    5.0495    0.0000 C   0  0  3  0  0  0  0  0  0  0  0  0
   -0.7748    5.2768    0.0000 C   0  0  3  0  0  0  0  0  0  0  0  0
   -5.3003   11.9699    0.0000 C   0  0  3  0  0  0  0  0  0  0  0  0
    1.5961   11.0772    0.0000 C   0  0  3  0  0  0  0  0  0  0  0  0
   -1.5777   13.0033    0.0000 C   0  0  3  0  0  0  0  0  0  0  0  0
   -7.1149    7.5390    0.0000 C   0  0  0  0  0  0  0  0  0  0  0  0
    2.4548    7.9955    0.0000 C   0  0  0  0  0  0  0  0  0  0  0  0
   -3.8738    4.2526    0.0000 C   0  0  0  0  0  0  0  0  0  0  0  0
    0.0502    5.2768    0.0000 C   0  0  0  0  0  0  0  0  0  0  0  0
   -6.1253   11.9699    0.0000 C   0  0  0  0  0  0  0  0  0  0  0  0
    1.8096   11.8741    0.0000 C   0  0  0  0  0  0  0  0  0  0  0  0
   -1.9902   13.7178    0.0000 C   0  0  0  0  0  0  0  0  0  0  0  0
   -8.5439    7.5390    0.0000 C   0  0  0  0  0  0  0  0  0  0  0  0
    3.8837    7.9955    0.0000 C   0  0  0  0  0  0  0  0  0  0  0  0
   -9.2583    7.9515    0.0000 C   0  0  3  0  0  0  0  0  0  0  0  0
    4.5982    7.5830    0.0000 C   0  0  3  0  0  0  0  0  0  0  0  0
   -9.2583    8.7765    0.0000 C   0  0  0  0  0  0  0  0  0  0  0  0
    4.5982    6.7580    0.0000 C   0  0  0  0  0  0  0  0  0  0  0  0
  1 77  1  0  0  0  0
  1 84  1  0  0  0  0
  2 78  1  0  0  0  0
  2 85  1  0  0  0  0
 42  3  1  6  0  0  0
  3 51  1  0  0  0  0
 43  4  1  6  0  0  0
 52  4  1  6  0  0  0
 44  5  1  6  0  0  0
 50  5  1  6  0  0  0
 46  6  1  6  0  0  0
  6 49  1  0  0  0  0
 45  7  1  6  0  0  0
  7 53  1  0  0  0  0
 47  8  1  6  0  0  0
  8 55  1  0  0  0  0
 48  9  1  6  0  0  0
  9 54  1  0  0  0  0
 49 10  1  6  0  0  0
 10 64  1  0  0  0  0
 11 50  1  0  0  0  0
 11 65  1  0  0  0  0
 51 12  1  6  0  0  0
 12 72  1  0  0  0  0
 53 13  1  6  0  0  0
 13 73  1  0  0  0  0
 14 52  1  0  0  0  0
 14 75  1  0  0  0  0
 54 15  1  6  0  0  0
 15 74  1  0  0  0  0
 55 16  1  6  0  0  0
 16 76  1  0  0  0  0
 56 17  1  1  0  0  0
 57 18  1  1  0  0  0
 58 19  1  1  0  0  0
 59 20  1  1  0  0  0
 21 60  1  0  0  0  0
 22 61  1  0  0  0  0
 23 62  1  0  0  0  0
 63 24  1  1  0  0  0
 25 66  1  0  0  0  0
 67 26  1  1  0  0  0
 27 68  1  0  0  0  0
 28 69  1  0  0  0  0
 29 70  1  0  0  0  0
 30 71  1  0  0  0  0
 31 79  1  0  0  0  0
 32 80  1  0  0  0  0
 33 81  1  0  0  0  0
 34 82  1  0  0  0  0
 35 83  1  0  0  0  0
 36 88  2  0  0  0  0
 37 88  1  0  0  0  0
 38 89  2  0  0  0  0
 39 89  1  0  0  0  0
 86 40  1  1  0  0  0
 87 41  1  1  0  0  0
 42 56  1  0  0  0  0
 42 64  1  0  0  0  0
 43 57  1  0  0  0  0
 43 65  1  0  0  0  0
 44 59  1  0  0  0  0
 44 73  1  0  0  0  0
 45 58  1  0  0  0  0
 45 72  1  0  0  0  0
 46 62  1  0  0  0  0
 46 74  1  0  0  0  0
 47 63  1  0  0  0  0
 47 75  1  0  0  0  0
 48 67  1  0  0  0  0
 48 76  1  0  0  0  0
 49 60  1  0  0  0  0
 50 61  1  0  0  0  0
 51 66  1  0  0  0  0
 52 69  1  0  0  0  0
 53 68  1  0  0  0  0
 54 70  1  0  0  0  0
 55 71  1  0  0  0  0
 56 60  1  0  0  0  0
 57 61  1  0  0  0  0
 58 66  1  0  0  0  0
 59 68  1  0  0  0  0
 62 70  1  0  0  0  0
 63 69  1  0  0  0  0
 64 77  1  0  0  0  0
 65 78  1  0  0  0  0
 67 71  1  0  0  0  0
 72 79  1  0  0  0  0
 73 80  1  0  0  0  0
 74 81  1  0  0  0  0
 75 82  1  0  0  0  0
 76 83  1  0  0  0  0
 84 86  1  0  0  0  0
 85 87  1  0  0  0  0
 86 88  1  0  0  0  0
 87 89  1  0  0  0  0
M  END
> <PUBCHEM_COMPOUND_ID_TYPE>
0

> <PUBCHEM_TOTAL_CHARGE>
0

> <PUBCHEM_SUBSTANCE_ID>
310939443

> <PUBCHEM_SUBSTANCE_VERSION>
1

> <PUBCHEM_EXT_DATASOURCE_NAME>
4488

> <PUBCHEM_EXT_DATASOURCE_REGID>
SCHEMBL16117365

> <PUBCHEM_SUBSTANCE_COMMENT>
InChI=1S/C48H80N2O37S2/c49-10(40(70)71)6-88-8-17-38-25(62)32(69)48(80-17)85-37-16(5-55)76-44(28(65)21(37)58)83-35-14(3-53)78-46(30(67)23(35)60)87-39-18(9-89-7-11(50)41(72)73)79-47(31(68)24(39)61)84-36-15(4-54)75-43(27(64)20(36)57)81-33-12(1-51)74-42(26(63)19(33)56)82-34-13(2-52)77-45(86-38)29(66)22(34)59/h10-39,42-48,51-69H,1-9,49-50H2,(H,70,71)(H,72,73)/t10-,11-,12?,13?,14?,15?,16?,17?,18?,19-,20?,21-,22-,23-,24-,25-,26?,27?,28?,29?,30?,31?,32?,33-,34-,35-,36-,37-,38-,39-,42-,43-,44+,45-,46+,47+,48-/m1/s1
InChIKey=CPTURYOQDUAMRE-CFYUTDNGSA-N

> <PUBCHEM_SUBSTANCE_SYNONYM>
SCHEMBL16117365

> <PUBCHEM_XREF_EXT_ID>
SCHEMBL16117365

> <PUBCHEM_EXT_DATASOURCE_URL>
https://www.surechembl.org/

> <PUBCHEM_EXT_SUBSTANCE_URL>
https://www.surechembl.org/chemical/SCHEMBL16117365

> <PUBCHEM_CID_ASSOCIATIONS>
117606765  1

> <PUBCHEM_COORDINATE_TYPE>
1
3

> <PUBCHEM_BONDANNOTATIONS>
49  10  6
51  12  6
53  13  6
54  15  6
55  16  6
56  17  5
57  18  5
58  19  5
59  20  5
63  24  5
67  26  5
42  3  6
43  4  6
52  4  6
86  40  5
87  41  5
44  5  6
50  5  6
46  6  6
45  7  6
47  8  6
48  9  6

$$$$
