310931867
  -OEChem-07211613022D

 28 31  0     0  0  0  0  0  0999 V2000
    4.0088   -2.7333    0.0000 O   0  0  0  0  0  0  0  0  0  0  0  0
    8.4427   -2.8244    0.0000 O   0  0  0  0  0  0  0  0  0  0  0  0
    4.8895   -1.5792    0.0000 N   0  0  0  0  0  0  0  0  0  0  0  0
    4.7983   -0.7592    0.0000 N   0  0  0  0  0  0  0  0  0  0  0  0
    7.7442   -4.0391    0.0000 N   0  0  0  0  0  0  0  0  0  0  0  0
    6.3169   -1.5792    0.0000 N   0  0  0  0  0  0  0  0  0  0  0  0
    0.0000   -2.4295    0.0000 N   0  0  0  0  0  0  0  0  0  0  0  0
    3.5836   -1.3362    0.0000 C   0  0  0  0  0  0  0  0  0  0  0  0
    4.1606   -1.9132    0.0000 C   0  0  0  0  0  0  0  0  0  0  0  0
    2.7636   -1.4274    0.0000 C   0  0  0  0  0  0  0  0  0  0  0  0
    5.5880   -2.0044    0.0000 C   0  0  0  0  0  0  0  0  0  0  0  0
    8.4427   -4.4643    0.0000 C   0  0  0  0  0  0  0  0  0  0  0  0
    4.0088   -0.6074    0.0000 C   0  0  0  0  0  0  0  0  0  0  0  0
    7.0153   -2.8244    0.0000 C   0  0  0  0  0  0  0  0  0  0  0  0
    2.2777   -0.7592    0.0000 C   0  0  0  0  0  0  0  0  0  0  0  0
    7.7442   -3.2192    0.0000 C   0  0  0  0  0  0  0  0  0  0  0  0
    9.0805   -4.9502    0.0000 C   0  0  0  0  0  0  0  0  0  0  0  0
    8.3516   -5.2843    0.0000 C   0  0  0  0  0  0  0  0  0  0  0  0
    5.5880   -2.8244    0.0000 C   0  0  0  0  0  0  0  0  0  0  0  0
    2.4599   -2.1563    0.0000 C   0  0  0  0  0  0  0  0  0  0  0  0
    7.0153   -2.0044    0.0000 C   0  0  0  0  0  0  0  0  0  0  0  0
    6.3169   -3.2192    0.0000 C   0  0  0  0  0  0  0  0  0  0  0  0
    1.4881   -0.8503    0.0000 C   0  0  0  0  0  0  0  0  0  0  0  0
    1.1540   -1.6096    0.0000 C   0  0  0  0  0  0  0  0  0  0  0  0
    1.6400   -2.2474    0.0000 C   0  0  0  0  0  0  0  0  0  0  0  0
    9.1108   -3.9480    0.0000 C   0  0  0  0  0  0  0  0  0  0  0  0
    2.6118    0.0000    0.0000 C   0  0  0  0  0  0  0  0  0  0  0  0
    0.3341   -1.7007    0.0000 C   0  0  0  0  0  0  0  0  0  0  0  0
  1  9  1  0  0  0  0
  2 16  2  0  0  0  0
  3  4  1  0  0  0  0
  3  9  1  0  0  0  0
  3 11  1  0  0  0  0
  4 13  2  0  0  0  0
  5 12  1  0  0  0  0
  5 16  1  0  0  0  0
  6 11  2  0  0  0  0
  6 21  1  0  0  0  0
  7 28  3  0  0  0  0
  8  9  2  0  0  0  0
  8 10  1  0  0  0  0
  8 13  1  0  0  0  0
 10 15  1  0  0  0  0
 10 20  2  0  0  0  0
 11 19  1  0  0  0  0
 12 17  1  0  0  0  0
 12 18  1  0  0  0  0
 12 26  1  0  0  0  0
 14 16  1  0  0  0  0
 14 21  2  0  0  0  0
 14 22  1  0  0  0  0
 15 23  2  0  0  0  0
 15 27  1  0  0  0  0
 17 18  1  0  0  0  0
 19 22  2  0  0  0  0
 20 25  1  0  0  0  0
 23 24  1  0  0  0  0
 24 25  2  0  0  0  0
 24 28  1  0  0  0  0
M  END
> <PUBCHEM_COMPOUND_ID_TYPE>
0

> <PUBCHEM_TOTAL_CHARGE>
0

> <PUBCHEM_SUBSTANCE_ID>
310931867

> <PUBCHEM_SUBSTANCE_VERSION>
1

> <PUBCHEM_EXT_DATASOURCE_NAME>
4488

> <PUBCHEM_EXT_DATASOURCE_REGID>
SCHEMBL16109202

> <PUBCHEM_SUBSTANCE_COMMENT>
InChI=1S/C21H19N5O2/c1-13-9-14(10-22)3-5-16(13)17-12-24-26(20(17)28)18-6-4-15(11-23-18)19(27)25-21(2)7-8-21/h3-6,9,11-12,28H,7-8H2,1-2H3,(H,25,27)
InChIKey=QWZRVQMOXQXFAN-UHFFFAOYSA-N

> <PUBCHEM_SUBSTANCE_SYNONYM>
SCHEMBL16109202

> <PUBCHEM_XREF_EXT_ID>
SCHEMBL16109202

> <PUBCHEM_EXT_DATASOURCE_URL>
https://www.surechembl.org/

> <PUBCHEM_EXT_SUBSTANCE_URL>
https://www.surechembl.org/chemical/SCHEMBL16109202

> <PUBCHEM_CID_ASSOCIATIONS>
117600533  1

> <PUBCHEM_COORDINATE_TYPE>
1
3

$$$$
