310948351
  -OEChem-07211613022D

 15 16  0     1  0  0  0  0  0999 V2000
   -0.7699    2.7634    0.0000 Br  0  0  0  0  0  0  0  0  0  0  0  0
    0.2200   -0.6187    0.0000 N   0  0  3  0  0  0  0  0  0  0  0  0
   -0.0688    0.7011    0.0000 C   0  0  0  0  0  0  0  0  0  0  0  0
   -0.7699    0.2887    0.0000 C   0  0  0  0  0  0  0  0  0  0  0  0
    0.5499    0.1375    0.0000 C   0  0  0  0  0  0  0  0  0  0  0  0
   -0.5911   -0.5224    0.0000 C   0  0  0  0  0  0  0  0  0  0  0  0
    0.6462   -1.3198    0.0000 C   0  0  3  0  0  0  0  0  0  0  0  0
   -0.0550    1.5123    0.0000 C   0  0  0  0  0  0  0  0  0  0  0  0
   -1.4711    0.7011    0.0000 C   0  0  0  0  0  0  0  0  0  0  0  0
   -0.7562    1.9385    0.0000 C   0  0  0  0  0  0  0  0  0  0  0  0
   -1.4711    1.5260    0.0000 C   0  0  0  0  0  0  0  0  0  0  0  0
    0.2200   -2.0485    0.0000 C   0  0  0  0  0  0  0  0  0  0  0  0
    1.4711   -1.3473    0.0000 C   0  0  0  0  0  0  0  0  0  0  0  0
   -0.6049   -2.0622    0.0000 C   0  0  0  0  0  0  0  0  0  0  0  0
    0.6462   -2.7634    0.0000 C   0  0  0  0  0  0  0  0  0  0  0  0
  1 10  1  0  0  0  0
  2  5  1  0  0  0  0
  2  6  1  0  0  0  0
  2  7  1  0  0  0  0
  3  4  2  0  0  0  0
  3  5  1  0  0  0  0
  3  8  1  0  0  0  0
  4  6  1  0  0  0  0
  4  9  1  0  0  0  0
  7 12  1  0  0  0  0
  7 13  1  6  0  0  0
  8 10  2  0  0  0  0
  9 11  2  0  0  0  0
 10 11  1  0  0  0  0
 12 14  1  0  0  0  0
 12 15  1  0  0  0  0
M  END
> <PUBCHEM_COMPOUND_ID_TYPE>
0

> <PUBCHEM_TOTAL_CHARGE>
0

> <PUBCHEM_SUBSTANCE_ID>
310948351

> <PUBCHEM_SUBSTANCE_VERSION>
1

> <PUBCHEM_EXT_DATASOURCE_NAME>
4488

> <PUBCHEM_EXT_DATASOURCE_REGID>
SCHEMBL16126529

> <PUBCHEM_SUBSTANCE_COMMENT>
InChI=1S/C13H18BrN/c1-9(2)10(3)15-7-11-4-5-13(14)6-12(11)8-15/h4-6,9-10H,7-8H2,1-3H3/t10-/m1/s1
InChIKey=LDNVGIKWHXWYBI-SNVBAGLBSA-N

> <PUBCHEM_SUBSTANCE_SYNONYM>
SCHEMBL16126529

> <PUBCHEM_XREF_EXT_ID>
SCHEMBL16126529

> <PUBCHEM_EXT_DATASOURCE_URL>
https://www.surechembl.org/

> <PUBCHEM_EXT_SUBSTANCE_URL>
https://www.surechembl.org/chemical/SCHEMBL16126529

> <PUBCHEM_CID_ASSOCIATIONS>
117613915  1

> <PUBCHEM_COORDINATE_TYPE>
1
3

> <PUBCHEM_BONDANNOTATIONS>
7  13  6

$$$$
