310941546
  -OEChem-07211613022D

 25 28  0     0  0  0  0  0  0999 V2000
    0.3070    1.7395    0.0000 S   0  0  0  0  0  0  0  0  0  0  0  0
   -3.5375   -0.7601    0.0000 O   0  0  0  0  0  0  0  0  0  0  0  0
   -0.5847   -0.9355    0.0000 O   0  0  0  0  0  0  0  0  0  0  0  0
    3.2013    0.7455    0.0000 O   0  0  0  0  0  0  0  0  0  0  0  0
   -2.0319   -0.9209    0.0000 N   0  0  0  0  0  0  0  0  0  0  0  0
    0.1754    0.3947    0.0000 N   0  0  0  0  0  0  0  0  0  0  0  0
    1.5495    0.9209    0.0000 N   0  0  0  0  0  0  0  0  0  0  0  0
   -1.3010    0.3362    0.0000 C   0  0  0  0  0  0  0  0  0  0  0  0
   -2.7482   -0.4970    0.0000 C   0  0  0  0  0  0  0  0  0  0  0  0
   -1.3303   -0.4970    0.0000 C   0  0  0  0  0  0  0  0  0  0  0  0
   -2.7336    0.3216    0.0000 C   0  0  0  0  0  0  0  0  0  0  0  0
   -0.5993    0.7309    0.0000 C   0  0  0  0  0  0  0  0  0  0  0  0
   -2.0465    0.7309    0.0000 C   0  0  0  0  0  0  0  0  0  0  0  0
    0.7163    1.0233    0.0000 C   0  0  0  0  0  0  0  0  0  0  0  0
   -0.4824    1.5641    0.0000 C   0  0  0  0  0  0  0  0  0  0  0  0
   -3.5375    0.5847    0.0000 C   0  0  0  0  0  0  0  0  0  0  0  0
   -4.0200   -0.1024    0.0000 C   0  0  0  0  0  0  0  0  0  0  0  0
    1.8857    0.1754    0.0000 C   0  0  0  0  0  0  0  0  0  0  0  0
   -2.0173   -1.7395    0.0000 C   0  0  0  0  0  0  0  0  0  0  0  0
    2.7044    0.0877    0.0000 C   0  0  0  0  0  0  0  0  0  0  0  0
    1.4180   -0.4970    0.0000 C   0  0  0  0  0  0  0  0  0  0  0  0
    3.0406   -0.7017    0.0000 C   0  0  0  0  0  0  0  0  0  0  0  0
    1.7395   -1.2572    0.0000 C   0  0  0  0  0  0  0  0  0  0  0  0
    2.5581   -1.3303    0.0000 C   0  0  0  0  0  0  0  0  0  0  0  0
    4.0200    0.6432    0.0000 C   0  0  0  0  0  0  0  0  0  0  0  0
  1 14  1  0  0  0  0
  1 15  1  0  0  0  0
  2  9  1  0  0  0  0
  2 17  1  0  0  0  0
  3 10  2  0  0  0  0
  4 20  1  0  0  0  0
  4 25  1  0  0  0  0
  5  9  1  0  0  0  0
  5 10  1  0  0  0  0
  5 19  1  0  0  0  0
  6 12  1  0  0  0  0
  6 14  2  0  0  0  0
  7 14  1  0  0  0  0
  7 18  1  0  0  0  0
  8 10  1  0  0  0  0
  8 12  1  0  0  0  0
  8 13  2  0  0  0  0
  9 11  2  0  0  0  0
 11 13  1  0  0  0  0
 11 16  1  0  0  0  0
 12 15  2  0  0  0  0
 16 17  2  0  0  0  0
 18 20  1  0  0  0  0
 18 21  2  0  0  0  0
 20 22  2  0  0  0  0
 21 23  1  0  0  0  0
 22 24  1  0  0  0  0
 23 24  2  0  0  0  0
M  END
> <PUBCHEM_COMPOUND_ID_TYPE>
0

> <PUBCHEM_TOTAL_CHARGE>
0

> <PUBCHEM_SUBSTANCE_ID>
310941546

> <PUBCHEM_SUBSTANCE_VERSION>
1

> <PUBCHEM_EXT_DATASOURCE_NAME>
4488

> <PUBCHEM_EXT_DATASOURCE_REGID>
SCHEMBL16119577

> <PUBCHEM_SUBSTANCE_COMMENT>
InChI=1S/C18H15N3O3S/c1-21-16(22)12(9-11-7-8-24-17(11)21)14-10-25-18(20-14)19-13-5-3-4-6-15(13)23-2/h3-10H,1-2H3,(H,19,20)
InChIKey=DKPOQOQOBHWUIE-UHFFFAOYSA-N

> <PUBCHEM_SUBSTANCE_SYNONYM>
SCHEMBL16119577

> <PUBCHEM_XREF_EXT_ID>
SCHEMBL16119577

> <PUBCHEM_EXT_DATASOURCE_URL>
https://www.surechembl.org/

> <PUBCHEM_EXT_SUBSTANCE_URL>
https://www.surechembl.org/chemical/SCHEMBL16119577

> <PUBCHEM_CID_ASSOCIATIONS>
117608352  1

> <PUBCHEM_COORDINATE_TYPE>
1
3

$$$$
