310948470
  -OEChem-07211613022D

 43 47  0     0  0  0  0  0  0999 V2000
   -2.9162    1.7651    0.0000 Cl  0  0  0  0  0  0  0  0  0  0  0  0
   -2.6093   -3.4535    0.0000 S   0  0  0  0  0  0  0  0  0  0  0  0
   -0.9380    3.9480    0.0000 F   0  0  0  0  0  0  0  0  0  0  0  0
    0.1705    4.1527    0.0000 F   0  0  0  0  0  0  0  0  0  0  0  0
    0.3581    3.0271    0.0000 F   0  0  0  0  0  0  0  0  0  0  0  0
    3.2744   -3.4364    0.0000 F   0  0  0  0  0  0  0  0  0  0  0  0
    2.7287   -2.3791    0.0000 F   0  0  0  0  0  0  0  0  0  0  0  0
    2.2000   -3.9139    0.0000 F   0  0  0  0  0  0  0  0  0  0  0  0
    0.3411    1.5263    0.0000 O   0  0  0  0  0  0  0  0  0  0  0  0
    1.6883   -2.8907    0.0000 O   0  0  0  0  0  0  0  0  0  0  0  0
   -3.0015   -2.7883    0.0000 O   0  0  0  0  0  0  0  0  0  0  0  0
   -2.1829   -4.1527    0.0000 O   0  0  0  0  0  0  0  0  0  0  0  0
   -1.1768    1.5434    0.0000 N   0  0  0  0  0  0  0  0  0  0  0  0
   -0.5116    2.0379    0.0000 N   0  0  0  0  0  0  0  0  0  0  0  0
    1.5690    0.9806    0.0000 N   0  0  0  0  0  0  0  0  0  0  0  0
   -0.4605    0.2984    0.0000 C   0  0  0  0  0  0  0  0  0  0  0  0
   -1.1768    0.7078    0.0000 C   0  0  0  0  0  0  0  0  0  0  0  0
    0.2388    0.7078    0.0000 C   0  0  0  0  0  0  0  0  0  0  0  0
    1.0062    0.3496    0.0000 C   0  0  0  0  0  0  0  0  0  0  0  0
   -1.8589    2.0379    0.0000 C   0  0  0  0  0  0  0  0  0  0  0  0
   -0.4775   -0.5372    0.0000 C   0  0  0  0  0  0  0  0  0  0  0  0
   -1.1768   -0.9465    0.0000 C   0  0  0  0  0  0  0  0  0  0  0  0
   -0.7674    2.8225    0.0000 C   0  0  0  0  0  0  0  0  0  0  0  0
   -1.8930    0.2984    0.0000 C   0  0  0  0  0  0  0  0  0  0  0  0
    1.1768   -0.4349    0.0000 C   0  0  0  0  0  0  0  0  0  0  0  0
   -1.5860    2.8225    0.0000 C   0  0  0  0  0  0  0  0  0  0  0  0
    1.1597    1.6969    0.0000 C   0  0  0  0  0  0  0  0  0  0  0  0
   -1.8930   -0.5372    0.0000 C   0  0  0  0  0  0  0  0  0  0  0  0
   -0.2899    3.4876    0.0000 C   0  0  0  0  0  0  0  0  0  0  0  0
   -1.1938   -1.7822    0.0000 C   0  0  0  0  0  0  0  0  0  0  0  0
    0.5969   -0.9806    0.0000 C   0  0  0  0  0  0  0  0  0  0  0  0
    1.9612   -0.7078    0.0000 C   0  0  0  0  0  0  0  0  0  0  0  0
   -1.8759   -2.2085    0.0000 C   0  0  0  0  0  0  0  0  0  0  0  0
   -1.8930   -3.0271    0.0000 C   0  0  0  0  0  0  0  0  0  0  0  0
   -0.4605   -2.2085    0.0000 C   0  0  0  0  0  0  0  0  0  0  0  0
    1.5349   -2.0891    0.0000 C   0  0  0  0  0  0  0  0  0  0  0  0
    0.7504   -1.8163    0.0000 C   0  0  0  0  0  0  0  0  0  0  0  0
    2.1318   -1.5093    0.0000 C   0  0  0  0  0  0  0  0  0  0  0  0
    1.5178    2.4643    0.0000 C   0  0  0  0  0  0  0  0  0  0  0  0
   -1.1427   -3.4364    0.0000 C   0  0  0  0  0  0  0  0  0  0  0  0
   -0.4605   -3.0271    0.0000 C   0  0  0  0  0  0  0  0  0  0  0  0
    2.4728   -3.1636    0.0000 C   0  0  0  0  0  0  0  0  0  0  0  0
   -3.2744   -3.8627    0.0000 C   0  0  0  0  0  0  0  0  0  0  0  0
  1 20  1  0  0  0  0
  2 11  2  0  0  0  0
  2 12  2  0  0  0  0
  2 34  1  0  0  0  0
  2 43  1  0  0  0  0
  3 29  1  0  0  0  0
  4 29  1  0  0  0  0
  5 29  1  0  0  0  0
  6 42  1  0  0  0  0
  7 42  1  0  0  0  0
  8 42  1  0  0  0  0
  9 18  1  0  0  0  0
  9 27  1  0  0  0  0
 10 36  1  0  0  0  0
 10 42  1  0  0  0  0
 13 14  1  0  0  0  0
 13 17  1  0  0  0  0
 13 20  1  0  0  0  0
 14 23  2  0  0  0  0
 15 19  1  0  0  0  0
 15 27  2  0  0  0  0
 16 17  1  0  0  0  0
 16 18  1  0  0  0  0
 16 21  2  0  0  0  0
 17 24  2  0  0  0  0
 18 19  2  0  0  0  0
 19 25  1  0  0  0  0
 20 26  2  0  0  0  0
 21 22  1  0  0  0  0
 22 28  2  0  0  0  0
 22 30  1  0  0  0  0
 23 26  1  0  0  0  0
 23 29  1  0  0  0  0
 24 28  1  0  0  0  0
 25 31  2  0  0  0  0
 25 32  1  0  0  0  0
 27 39  1  0  0  0  0
 30 33  2  0  0  0  0
 30 35  1  0  0  0  0
 31 37  1  0  0  0  0
 32 38  2  0  0  0  0
 33 34  1  0  0  0  0
 34 40  2  0  0  0  0
 35 41  2  0  0  0  0
 36 37  2  0  0  0  0
 36 38  1  0  0  0  0
 40 41  1  0  0  0  0
M  END
> <PUBCHEM_COMPOUND_ID_TYPE>
0

> <PUBCHEM_TOTAL_CHARGE>
0

> <PUBCHEM_SUBSTANCE_ID>
310948470

> <PUBCHEM_SUBSTANCE_VERSION>
1

> <PUBCHEM_EXT_DATASOURCE_NAME>
4488

> <PUBCHEM_EXT_DATASOURCE_REGID>
SCHEMBL16126652

> <PUBCHEM_SUBSTANCE_COMMENT>
InChI=1S/C28H18ClF6N3O4S/c1-15-36-25(16-6-9-19(10-7-16)42-28(33,34)35)26(41-15)21-13-18(17-4-3-5-20(12-17)43(2,39)40)8-11-22(21)38-24(29)14-23(37-38)27(30,31)32/h3-14H,1-2H3
InChIKey=TVFPYAQPJDXRME-UHFFFAOYSA-N

> <PUBCHEM_SUBSTANCE_SYNONYM>
SCHEMBL16126652

> <PUBCHEM_XREF_EXT_ID>
SCHEMBL16126652

> <PUBCHEM_EXT_DATASOURCE_URL>
https://www.surechembl.org/

> <PUBCHEM_EXT_SUBSTANCE_URL>
https://www.surechembl.org/chemical/SCHEMBL16126652

> <PUBCHEM_CID_ASSOCIATIONS>
117614028  1

> <PUBCHEM_COORDINATE_TYPE>
1
3

$$$$
