310933997
  -OEChem-07211613022D

 22 24  0     0  0  0  0  0  0999 V2000
    4.5915   -1.4609    0.0000 O   0  0  0  0  0  0  0  0  0  0  0  0
    4.5915   -2.8957    0.0000 O   0  0  0  0  0  0  0  0  0  0  0  0
    2.8957   -2.8435    0.0000 N   0  0  0  0  0  0  0  0  0  0  0  0
    3.3653   -2.1914    0.0000 C   0  0  0  0  0  0  0  0  0  0  0  0
    2.1131   -1.7740    0.0000 C   0  0  0  0  0  0  0  0  0  0  0  0
    2.1131   -2.5827    0.0000 C   0  0  0  0  0  0  0  0  0  0  0  0
    2.8957   -1.5131    0.0000 C   0  0  0  0  0  0  0  0  0  0  0  0
    1.4348   -1.3044    0.0000 C   0  0  0  0  0  0  0  0  0  0  0  0
    3.1566   -3.6523    0.0000 C   0  0  0  0  0  0  0  0  0  0  0  0
    4.2001   -2.1914    0.0000 C   0  0  0  0  0  0  0  0  0  0  0  0
    1.5131   -0.4696    0.0000 C   0  0  0  0  0  0  0  0  0  0  0  0
    0.6783   -1.6435    0.0000 C   0  0  0  0  0  0  0  0  0  0  0  0
    3.9653   -3.8088    0.0000 C   0  0  0  0  0  0  0  0  0  0  0  0
    2.6088   -4.2523    0.0000 C   0  0  0  0  0  0  0  0  0  0  0  0
    0.8348    0.0000    0.0000 C   0  0  0  0  0  0  0  0  0  0  0  0
    0.0000   -1.1739    0.0000 C   0  0  0  0  0  0  0  0  0  0  0  0
    4.2262   -4.5915    0.0000 C   0  0  0  0  0  0  0  0  0  0  0  0
    2.8435   -5.0349    0.0000 C   0  0  0  0  0  0  0  0  0  0  0  0
    0.0782   -0.3391    0.0000 C   0  0  0  0  0  0  0  0  0  0  0  0
    2.2696   -0.1304    0.0000 C   0  0  0  0  0  0  0  0  0  0  0  0
    3.6523   -5.2176    0.0000 C   0  0  0  0  0  0  0  0  0  0  0  0
    5.4263   -1.4609    0.0000 C   0  0  0  0  0  0  0  0  0  0  0  0
  1 10  1  0  0  0  0
  1 22  1  0  0  0  0
  2 10  2  0  0  0  0
  3  4  1  0  0  0  0
  3  6  1  0  0  0  0
  3  9  1  0  0  0  0
  4  7  2  0  0  0  0
  4 10  1  0  0  0  0
  5  6  2  0  0  0  0
  5  7  1  0  0  0  0
  5  8  1  0  0  0  0
  8 11  1  0  0  0  0
  8 12  2  0  0  0  0
  9 13  2  0  0  0  0
  9 14  1  0  0  0  0
 11 15  2  0  0  0  0
 11 20  1  0  0  0  0
 12 16  1  0  0  0  0
 13 17  1  0  0  0  0
 14 18  2  0  0  0  0
 15 19  1  0  0  0  0
 16 19  2  0  0  0  0
 17 21  2  0  0  0  0
 18 21  1  0  0  0  0
M  END
> <PUBCHEM_COMPOUND_ID_TYPE>
0

> <PUBCHEM_TOTAL_CHARGE>
0

> <PUBCHEM_SUBSTANCE_ID>
310933997

> <PUBCHEM_SUBSTANCE_VERSION>
1

> <PUBCHEM_EXT_DATASOURCE_NAME>
4488

> <PUBCHEM_EXT_DATASOURCE_REGID>
SCHEMBL16111441

> <PUBCHEM_SUBSTANCE_COMMENT>
InChI=1S/C19H17NO2/c1-14-8-6-7-11-17(14)15-12-18(19(21)22-2)20(13-15)16-9-4-3-5-10-16/h3-13H,1-2H3
InChIKey=KFIGFYDBWVORJB-UHFFFAOYSA-N

> <PUBCHEM_SUBSTANCE_SYNONYM>
SCHEMBL16111441

> <PUBCHEM_XREF_EXT_ID>
SCHEMBL16111441

> <PUBCHEM_EXT_DATASOURCE_URL>
https://www.surechembl.org/

> <PUBCHEM_EXT_SUBSTANCE_URL>
https://www.surechembl.org/chemical/SCHEMBL16111441

> <PUBCHEM_CID_ASSOCIATIONS>
117602303  1

> <PUBCHEM_COORDINATE_TYPE>
1
3

$$$$
