310945601
  -OEChem-07211613022D

 27 29  0     1  0  0  0  0  0999 V2000
   -1.7820   -2.4503    0.0000 O   0  0  0  0  0  0  0  0  0  0  0  0
   -1.7655    0.8497    0.0000 N   0  0  0  0  0  0  0  0  0  0  0  0
   -1.0560   -0.3877    0.0000 N   0  0  0  0  0  0  0  0  0  0  0  0
   -0.3465    2.4833    0.0000 N   0  0  0  0  0  0  0  0  0  0  0  0
    1.0725    0.8497    0.0000 N   0  0  0  0  0  0  0  0  0  0  0  0
    2.5080    0.0247    0.0000 N   0  0  0  0  0  0  0  0  0  0  0  0
   -2.4750    2.8628    0.0000 N   0  0  0  0  0  0  0  0  0  0  0  0
   -1.0725    1.2623    0.0000 C   0  0  0  0  0  0  0  0  0  0  0  0
   -1.7820    0.0247    0.0000 C   0  0  0  0  0  0  0  0  0  0  0  0
   -1.0560    2.0873    0.0000 C   0  0  0  0  0  0  0  0  0  0  0  0
   -1.7655   -1.6088    0.0000 C   0  0  0  0  0  0  0  0  0  0  0  0
    0.3630    1.2623    0.0000 C   0  0  0  0  0  0  0  0  0  0  0  0
   -1.0725   -1.1963    0.0000 C   0  0  0  0  0  0  0  0  0  0  0  0
   -2.4915   -1.2127    0.0000 C   0  0  0  0  0  0  0  0  0  0  0  0
   -0.3135    0.8662    0.0000 C   0  0  0  0  0  0  0  0  0  0  0  0
   -2.4750   -0.3713    0.0000 C   0  0  0  0  0  0  0  0  0  0  0  0
    0.3795    2.0708    0.0000 C   0  0  0  0  0  0  0  0  0  0  0  0
    1.7985    1.2623    0.0000 C   0  0  3  0  0  0  0  0  0  0  0  0
    2.5245    0.8662    0.0000 C   0  0  3  0  0  0  0  0  0  0  0  0
   -1.7820    2.4998    0.0000 C   0  0  0  0  0  0  0  0  0  0  0  0
    1.7985    2.0873    0.0000 C   0  0  0  0  0  0  0  0  0  0  0  0
   -0.3135   -1.6253    0.0000 C   0  0  0  0  0  0  0  0  0  0  0  0
   -3.2011   -1.6088    0.0000 C   0  0  0  0  0  0  0  0  0  0  0  0
    3.2011    1.2623    0.0000 C   0  0  0  0  0  0  0  0  0  0  0  0
    2.4915    2.4833    0.0000 C   0  0  0  0  0  0  0  0  0  0  0  0
    3.2011    2.0873    0.0000 C   0  0  0  0  0  0  0  0  0  0  0  0
   -1.0395   -2.8628    0.0000 C   0  0  0  0  0  0  0  0  0  0  0  0
  1 11  1  0  0  0  0
  1 27  1  0  0  0  0
  2  8  1  0  0  0  0
  2  9  1  0  0  0  0
  3  9  1  0  0  0  0
  3 13  2  0  0  0  0
  4 10  1  0  0  0  0
  4 17  2  0  0  0  0
  5 12  1  0  0  0  0
 18  5  1  6  0  0  0
 19  6  1  6  0  0  0
  7 20  3  0  0  0  0
  8 10  2  0  0  0  0
  8 15  1  0  0  0  0
  9 16  2  0  0  0  0
 10 20  1  0  0  0  0
 11 13  1  0  0  0  0
 11 14  2  0  0  0  0
 12 15  2  0  0  0  0
 12 17  1  0  0  0  0
 13 22  1  0  0  0  0
 14 16  1  0  0  0  0
 14 23  1  0  0  0  0
 18 19  1  0  0  0  0
 18 21  1  0  0  0  0
 19 24  1  0  0  0  0
 21 25  1  0  0  0  0
 24 26  1  0  0  0  0
 25 26  1  0  0  0  0
M  END
> <PUBCHEM_COMPOUND_ID_TYPE>
0

> <PUBCHEM_TOTAL_CHARGE>
0

> <PUBCHEM_SUBSTANCE_ID>
310945601

> <PUBCHEM_SUBSTANCE_VERSION>
1

> <PUBCHEM_EXT_DATASOURCE_NAME>
4488

> <PUBCHEM_EXT_DATASOURCE_REGID>
SCHEMBL16123700

> <PUBCHEM_SUBSTANCE_COMMENT>
InChI=1S/C20H26N6O/c1-12-8-19(24-13(2)20(12)27-3)26-17-9-14(11-23-18(17)10-21)25-16-7-5-4-6-15(16)22/h8-9,11,15-16,25H,4-7,22H2,1-3H3,(H,24,26)/t15-,16+/m0/s1
InChIKey=QGIDFRHPMBGJQE-JKSUJKDBSA-N

> <PUBCHEM_SUBSTANCE_SYNONYM>
SCHEMBL16123700

> <PUBCHEM_XREF_EXT_ID>
SCHEMBL16123700

> <PUBCHEM_EXT_DATASOURCE_URL>
https://www.surechembl.org/

> <PUBCHEM_EXT_SUBSTANCE_URL>
https://www.surechembl.org/chemical/SCHEMBL16123700

> <PUBCHEM_CID_ASSOCIATIONS>
117611623  1

> <PUBCHEM_COORDINATE_TYPE>
1
3

> <PUBCHEM_BONDANNOTATIONS>
18  5  6
19  6  6

$$$$
