310943340
  -OEChem-07211613022D

 27 29  0     0  0  0  0  0  0999 V2000
    0.9756    2.0770    0.0000 F   0  0  0  0  0  0  0  0  0  0  0  0
    2.2973    2.0770    0.0000 F   0  0  0  0  0  0  0  0  0  0  0  0
    2.3602    1.3847    0.0000 F   0  0  0  0  0  0  0  0  0  0  0  0
    2.4074   -1.8096    0.0000 F   0  0  0  0  0  0  0  0  0  0  0  0
    3.6033   -0.7080    0.0000 F   0  0  0  0  0  0  0  0  0  0  0  0
    2.9424   -2.0770    0.0000 F   0  0  0  0  0  0  0  0  0  0  0  0
   -3.6033   -1.0071    0.0000 F   0  0  0  0  0  0  0  0  0  0  0  0
   -3.6033    0.5822    0.0000 F   0  0  0  0  0  0  0  0  0  0  0  0
   -3.0368    0.6766    0.0000 F   0  0  0  0  0  0  0  0  0  0  0  0
    0.2360    0.5192    0.0000 N   0  0  0  0  0  0  0  0  0  0  0  0
    0.2203   -0.9599    0.0000 N   0  0  0  0  0  0  0  0  0  0  0  0
   -2.0928   -1.0071    0.0000 N   0  0  0  0  0  0  0  0  0  0  0  0
    0.9599    0.2046    0.0000 C   0  0  0  0  0  0  0  0  0  0  0  0
    1.6207    0.6609    0.0000 C   0  0  0  0  0  0  0  0  0  0  0  0
    0.9441   -0.6923    0.0000 C   0  0  0  0  0  0  0  0  0  0  0  0
   -0.2046   -0.2517    0.0000 C   0  0  0  0  0  0  0  0  0  0  0  0
    2.2659   -0.7080    0.0000 C   0  0  0  0  0  0  0  0  0  0  0  0
    1.6522    1.5893    0.0000 C   0  0  0  0  0  0  0  0  0  0  0  0
    2.2816    0.2046    0.0000 C   0  0  0  0  0  0  0  0  0  0  0  0
    1.6207   -1.1644    0.0000 C   0  0  0  0  0  0  0  0  0  0  0  0
   -0.9441   -0.2203    0.0000 C   0  0  0  0  0  0  0  0  0  0  0  0
    2.9267   -1.1802    0.0000 C   0  0  0  0  0  0  0  0  0  0  0  0
   -1.3374   -1.0385    0.0000 C   0  0  0  0  0  0  0  0  0  0  0  0
   -1.3217    0.5508    0.0000 C   0  0  0  0  0  0  0  0  0  0  0  0
   -2.4861   -0.2360    0.0000 C   0  0  0  0  0  0  0  0  0  0  0  0
   -3.2256   -0.2203    0.0000 C   0  0  0  0  0  0  0  0  0  0  0  0
   -2.0770    0.5665    0.0000 C   0  0  0  0  0  0  0  0  0  0  0  0
  1 18  1  0  0  0  0
  2 18  1  0  0  0  0
  3 18  1  0  0  0  0
  4 22  1  0  0  0  0
  5 22  1  0  0  0  0
  6 22  1  0  0  0  0
  7 26  1  0  0  0  0
  8 26  1  0  0  0  0
  9 26  1  0  0  0  0
 10 13  1  0  0  0  0
 10 16  2  0  0  0  0
 11 15  1  0  0  0  0
 11 16  1  0  0  0  0
 12 23  2  0  0  0  0
 12 25  1  0  0  0  0
 13 14  1  0  0  0  0
 13 15  2  0  0  0  0
 14 18  1  0  0  0  0
 14 19  2  0  0  0  0
 15 20  1  0  0  0  0
 16 21  1  0  0  0  0
 17 19  1  0  0  0  0
 17 20  2  0  0  0  0
 17 22  1  0  0  0  0
 21 23  1  0  0  0  0
 21 24  2  0  0  0  0
 24 27  1  0  0  0  0
 25 26  1  0  0  0  0
 25 27  2  0  0  0  0
M  END
> <PUBCHEM_COMPOUND_ID_TYPE>
0

> <PUBCHEM_TOTAL_CHARGE>
0

> <PUBCHEM_SUBSTANCE_ID>
310943340

> <PUBCHEM_SUBSTANCE_VERSION>
1

> <PUBCHEM_EXT_DATASOURCE_NAME>
4488

> <PUBCHEM_EXT_DATASOURCE_REGID>
SCHEMBL16121403

> <PUBCHEM_SUBSTANCE_COMMENT>
InChI=1S/C15H6F9N3/c16-13(17,18)7-3-8(14(19,20)21)11-9(4-7)26-12(27-11)6-1-2-10(25-5-6)15(22,23)24/h1-5H,(H,26,27)
InChIKey=QIIQLKVLQZZBLK-UHFFFAOYSA-N

> <PUBCHEM_SUBSTANCE_SYNONYM>
SCHEMBL16121403

> <PUBCHEM_XREF_EXT_ID>
SCHEMBL16121403

> <PUBCHEM_EXT_DATASOURCE_URL>
https://www.surechembl.org/

> <PUBCHEM_EXT_SUBSTANCE_URL>
https://www.surechembl.org/chemical/SCHEMBL16121403

> <PUBCHEM_CID_ASSOCIATIONS>
117609764  1

> <PUBCHEM_COORDINATE_TYPE>
1
3

$$$$
