310946976
  -OEChem-07211613022D

 53 60  0     0  0  0  0  0  0999 V2000
   -2.4210   -0.4837    0.0000 F   0  0  0  0  0  0  0  0  0  0  0  0
   -3.8499   -1.3087    0.0000 O   0  0  0  0  0  0  0  0  0  0  0  0
   -2.4210   -3.7837    0.0000 O   0  0  0  0  0  0  0  0  0  0  0  0
    0.5071    1.0087    0.0000 N   0  0  0  0  0  0  0  0  0  0  0  0
    0.9920    0.3413    0.0000 N   0  0  0  0  0  0  0  0  0  0  0  0
   -0.9920   -1.3087    0.0000 N   0  0  0  0  0  0  0  0  0  0  0  0
    0.5071   -0.3262    0.0000 N   0  0  0  0  0  0  0  0  0  0  0  0
    0.4369   -1.3087    0.0000 N   0  0  0  0  0  0  0  0  0  0  0  0
    1.8659   -1.3087    0.0000 N   0  0  0  0  0  0  0  0  0  0  0  0
    1.8659   -2.9587    0.0000 N   0  0  0  0  0  0  0  0  0  0  0  0
    4.0794   -0.2288    0.0000 N   0  0  0  0  0  0  0  0  0  0  0  0
    4.5644   -0.8962    0.0000 N   0  0  0  0  0  0  0  0  0  0  0  0
    0.7206    1.8056    0.0000 C   0  0  0  0  0  0  0  0  0  0  0  0
    0.9341    2.6025    0.0000 C   0  0  0  0  0  0  0  0  0  0  0  0
    1.5175    1.5921    0.0000 C   0  0  0  0  0  0  0  0  0  0  0  0
   -0.0763    2.0191    0.0000 C   0  0  0  0  0  0  0  0  0  0  0  0
   -0.2775    0.7538    0.0000 C   0  0  0  0  0  0  0  0  0  0  0  0
   -0.2775   -0.0712    0.0000 C   0  0  0  0  0  0  0  0  0  0  0  0
    0.3508    3.1858    0.0000 C   0  0  0  0  0  0  0  0  0  0  0  0
    2.1009    2.1754    0.0000 C   0  0  0  0  0  0  0  0  0  0  0  0
   -0.2898    2.8160    0.0000 C   0  0  0  0  0  0  0  0  0  0  0  0
    1.7310    2.8160    0.0000 C   0  0  0  0  0  0  0  0  0  0  0  0
    1.7310    0.7952    0.0000 C   0  0  0  0  0  0  0  0  0  0  0  0
   -0.6596    1.4357    0.0000 C   0  0  0  0  0  0  0  0  0  0  0  0
   -0.9920   -0.4837    0.0000 C   0  0  0  0  0  0  0  0  0  0  0  0
   -1.7065   -1.7212    0.0000 C   0  0  0  0  0  0  0  0  0  0  0  0
   -0.2775   -1.7212    0.0000 C   0  0  0  0  0  0  0  0  0  0  0  0
   -2.4210   -1.3087    0.0000 C   0  0  0  0  0  0  0  0  0  0  0  0
    1.1514   -1.7212    0.0000 C   0  0  0  0  0  0  0  0  0  0  0  0
    0.5643    3.9827    0.0000 C   0  0  0  0  0  0  0  0  0  0  0  0
    2.8978    1.9619    0.0000 C   0  0  0  0  0  0  0  0  0  0  0  0
   -1.0867    3.0295    0.0000 C   0  0  0  0  0  0  0  0  0  0  0  0
    1.9446    3.6129    0.0000 C   0  0  0  0  0  0  0  0  0  0  0  0
    2.5279    0.5816    0.0000 C   0  0  0  0  0  0  0  0  0  0  0  0
   -1.4565    1.6493    0.0000 C   0  0  0  0  0  0  0  0  0  0  0  0
    1.1514   -2.5462    0.0000 C   0  0  0  0  0  0  0  0  0  0  0  0
   -1.7065   -2.5462    0.0000 C   0  0  0  0  0  0  0  0  0  0  0  0
   -0.2775   -2.5462    0.0000 C   0  0  0  0  0  0  0  0  0  0  0  0
   -3.1354   -1.7212    0.0000 C   0  0  0  0  0  0  0  0  0  0  0  0
    1.3612    4.1962    0.0000 C   0  0  0  0  0  0  0  0  0  0  0  0
    3.1113    1.1650    0.0000 C   0  0  0  0  0  0  0  0  0  0  0  0
   -1.6701    2.4462    0.0000 C   0  0  0  0  0  0  0  0  0  0  0  0
   -2.4210   -2.9587    0.0000 C   0  0  0  0  0  0  0  0  0  0  0  0
    0.4369   -2.9587    0.0000 C   0  0  0  0  0  0  0  0  0  0  0  0
    2.5803   -1.7212    0.0000 C   0  0  0  0  0  0  0  0  0  0  0  0
   -3.1354   -2.5462    0.0000 C   0  0  0  0  0  0  0  0  0  0  0  0
    3.2948   -1.3087    0.0000 C   0  0  0  0  0  0  0  0  0  0  0  0
    2.5803   -2.5462    0.0000 C   0  0  0  0  0  0  0  0  0  0  0  0
    3.2948   -0.4837    0.0000 C   0  0  0  0  0  0  0  0  0  0  0  0
    4.0794   -1.5637    0.0000 C   0  0  0  0  0  0  0  0  0  0  0  0
   -4.5644   -1.7212    0.0000 C   0  0  0  0  0  0  0  0  0  0  0  0
   -1.7065   -4.1962    0.0000 C   0  0  0  0  0  0  0  0  0  0  0  0
    4.4919    0.4857    0.0000 C   0  0  0  0  0  0  0  0  0  0  0  0
  1 28  1  0  0  0  0
  2 39  1  0  0  0  0
  2 51  1  0  0  0  0
  3 43  1  0  0  0  0
  3 52  1  0  0  0  0
  4  5  1  0  0  0  0
  4 13  1  0  0  0  0
  4 17  1  0  0  0  0
  5  7  2  0  0  0  0
  6 25  1  0  0  0  0
  6 26  1  0  0  0  0
  6 27  1  0  0  0  0
  7 18  1  0  0  0  0
  8 27  1  0  0  0  0
  8 29  2  0  0  0  0
  9 29  1  0  0  0  0
  9 45  2  0  0  0  0
 10 36  1  0  0  0  0
 10 48  2  0  0  0  0
 11 12  1  0  0  0  0
 11 49  1  0  0  0  0
 11 53  1  0  0  0  0
 12 50  2  0  0  0  0
 13 14  1  0  0  0  0
 13 15  1  0  0  0  0
 13 16  1  0  0  0  0
 14 19  2  0  0  0  0
 14 22  1  0  0  0  0
 15 20  2  0  0  0  0
 15 23  1  0  0  0  0
 16 21  2  0  0  0  0
 16 24  1  0  0  0  0
 17 18  2  0  0  0  0
 18 25  1  0  0  0  0
 19 30  1  0  0  0  0
 20 31  1  0  0  0  0
 21 32  1  0  0  0  0
 22 33  2  0  0  0  0
 23 34  2  0  0  0  0
 24 35  2  0  0  0  0
 26 28  1  0  0  0  0
 26 37  2  0  0  0  0
 27 38  2  0  0  0  0
 28 39  2  0  0  0  0
 29 36  1  0  0  0  0
 30 40  2  0  0  0  0
 31 41  2  0  0  0  0
 32 42  2  0  0  0  0
 33 40  1  0  0  0  0
 34 41  1  0  0  0  0
 35 42  1  0  0  0  0
 36 44  2  0  0  0  0
 37 43  1  0  0  0  0
 38 44  1  0  0  0  0
 39 46  1  0  0  0  0
 43 46  2  0  0  0  0
 45 47  1  0  0  0  0
 45 48  1  0  0  0  0
 47 49  2  0  0  0  0
 47 50  1  0  0  0  0
M  END
> <PUBCHEM_COMPOUND_ID_TYPE>
0

> <PUBCHEM_TOTAL_CHARGE>
0

> <PUBCHEM_SUBSTANCE_ID>
310946976

> <PUBCHEM_SUBSTANCE_VERSION>
1

> <PUBCHEM_EXT_DATASOURCE_NAME>
4488

> <PUBCHEM_EXT_DATASOURCE_REGID>
SCHEMBL16125114

> <PUBCHEM_SUBSTANCE_COMMENT>
InChI=1S/C41H34FN9O2/c1-49-25-28(23-44-49)35-24-43-34-19-20-38(46-40(34)45-35)50(36-21-33(52-2)22-37(53-3)39(36)42)26-32-27-51(48-47-32)41(29-13-7-4-8-14-29,30-15-9-5-10-16-30)31-17-11-6-12-18-31/h4-25,27H,26H2,1-3H3
InChIKey=SWCFLORWQRIRCF-UHFFFAOYSA-N

> <PUBCHEM_SUBSTANCE_SYNONYM>
SCHEMBL16125114

> <PUBCHEM_XREF_EXT_ID>
SCHEMBL16125114

> <PUBCHEM_EXT_DATASOURCE_URL>
https://www.surechembl.org/

> <PUBCHEM_EXT_SUBSTANCE_URL>
https://www.surechembl.org/chemical/SCHEMBL16125114

> <PUBCHEM_CID_ASSOCIATIONS>
117612829  1

> <PUBCHEM_COORDINATE_TYPE>
1
3

$$$$
