310934032
  -OEChem-07211613022D

 42 47  0     0  0  0  0  0  0999 V2000
    6.8375   -6.6385    0.0000 O   0  0  0  0  0  0  0  0  0  0  0  0
   11.6793   -5.6093    0.0000 O   0  0  0  0  0  0  0  0  0  0  0  0
   11.3823   -4.2116    0.0000 O   0  0  0  0  0  0  0  0  0  0  0  0
    3.2704   -3.7445    0.0000 N   0  0  0  0  0  0  0  0  0  0  0  0
    2.4454   -3.7445    0.0000 N   0  0  0  0  0  0  0  0  0  0  0  0
    4.3323   -2.7884    0.0000 N   0  0  0  0  0  0  0  0  0  0  0  0
    1.4289    0.0000    0.0000 N   0  0  0  0  0  0  0  0  0  0  0  0
    4.9265   -5.5838    0.0000 N   0  0  0  0  0  0  0  0  0  0  0  0
   10.3203   -5.1678    0.0000 N   0  0  0  0  0  0  0  0  0  0  0  0
    8.7064   -5.5108    0.0000 N   0  0  0  0  0  0  0  0  0  0  0  0
    2.8579   -2.4750    0.0000 C   0  0  0  0  0  0  0  0  0  0  0  0
    3.5253   -2.9599    0.0000 C   0  0  0  0  0  0  0  0  0  0  0  0
    2.8579   -1.6500    0.0000 C   0  0  0  0  0  0  0  0  0  0  0  0
    2.1434   -1.2375    0.0000 C   0  0  0  0  0  0  0  0  0  0  0  0
    2.1904   -2.9599    0.0000 C   0  0  0  0  0  0  0  0  0  0  0  0
    2.1434   -0.4125    0.0000 C   0  0  0  0  0  0  0  0  0  0  0  0
    4.6294   -4.1861    0.0000 C   0  0  0  0  0  0  0  0  0  0  0  0
    3.8224   -4.3576    0.0000 C   0  0  0  0  0  0  0  0  0  0  0  0
    3.5724   -1.2375    0.0000 C   0  0  0  0  0  0  0  0  0  0  0  0
    4.8843   -3.4015    0.0000 C   0  0  0  0  0  0  0  0  0  0  0  0
    5.1814   -4.7992    0.0000 C   0  0  0  0  0  0  0  0  0  0  0  0
    1.4289   -1.6500    0.0000 C   0  0  0  0  0  0  0  0  0  0  0  0
    2.8579    0.0000    0.0000 C   0  0  0  0  0  0  0  0  0  0  0  0
    3.5724   -0.4125    0.0000 C   0  0  0  0  0  0  0  0  0  0  0  0
    0.7145   -0.4125    0.0000 C   0  0  0  0  0  0  0  0  0  0  0  0
    0.7145   -1.2375    0.0000 C   0  0  0  0  0  0  0  0  0  0  0  0
    5.9884   -4.6277    0.0000 C   0  0  0  0  0  0  0  0  0  0  0  0
    6.2855   -6.0254    0.0000 C   0  0  0  0  0  0  0  0  0  0  0  0
    5.4785   -6.1969    0.0000 C   0  0  0  0  0  0  0  0  0  0  0  0
    6.5404   -5.2408    0.0000 C   0  0  0  0  0  0  0  0  0  0  0  0
    0.0000    0.0000    0.0000 C   0  0  0  0  0  0  0  0  0  0  0  0
   11.1273   -4.9962    0.0000 C   0  0  0  0  0  0  0  0  0  0  0  0
    9.7683   -4.5547    0.0000 C   0  0  0  0  0  0  0  0  0  0  0  0
   10.0654   -5.9524    0.0000 C   0  0  0  0  0  0  0  0  0  0  0  0
    7.6445   -6.4670    0.0000 C   0  0  0  0  0  0  0  0  0  0  0  0
    8.9613   -4.7262    0.0000 C   0  0  0  0  0  0  0  0  0  0  0  0
    9.2584   -6.1239    0.0000 C   0  0  0  0  0  0  0  0  0  0  0  0
   12.4863   -5.4378    0.0000 C   0  0  0  0  0  0  0  0  0  0  0  0
    7.8994   -5.6823    0.0000 C   0  0  0  0  0  0  0  0  0  0  0  0
   13.2933   -5.2663    0.0000 C   0  0  0  0  0  0  0  0  0  0  0  0
   12.6578   -6.2448    0.0000 C   0  0  0  0  0  0  0  0  0  0  0  0
   12.3148   -4.6308    0.0000 C   0  0  0  0  0  0  0  0  0  0  0  0
  1 28  1  0  0  0  0
  1 35  1  0  0  0  0
  2 32  1  0  0  0  0
  2 38  1  0  0  0  0
  3 32  2  0  0  0  0
  4  5  1  0  0  0  0
  4 12  1  0  0  0  0
  4 18  1  0  0  0  0
  5 15  2  0  0  0  0
  6 12  1  0  0  0  0
  6 20  2  0  0  0  0
  7 16  1  0  0  0  0
  7 25  2  0  0  0  0
  8 21  1  0  0  0  0
  8 29  2  0  0  0  0
  9 32  1  0  0  0  0
  9 33  1  0  0  0  0
  9 34  1  0  0  0  0
 10 36  1  0  0  0  0
 10 37  1  0  0  0  0
 10 39  1  0  0  0  0
 11 12  2  0  0  0  0
 11 13  1  0  0  0  0
 11 15  1  0  0  0  0
 13 14  2  0  0  0  0
 13 19  1  0  0  0  0
 14 16  1  0  0  0  0
 14 22  1  0  0  0  0
 16 23  2  0  0  0  0
 17 18  2  0  0  0  0
 17 20  1  0  0  0  0
 17 21  1  0  0  0  0
 19 24  2  0  0  0  0
 21 27  2  0  0  0  0
 22 26  2  0  0  0  0
 23 24  1  0  0  0  0
 25 26  1  0  0  0  0
 25 31  1  0  0  0  0
 27 30  1  0  0  0  0
 28 29  1  0  0  0  0
 28 30  2  0  0  0  0
 33 36  1  0  0  0  0
 34 37  1  0  0  0  0
 35 39  1  0  0  0  0
 38 40  1  0  0  0  0
 38 41  1  0  0  0  0
 38 42  1  0  0  0  0
M  END
> <PUBCHEM_COMPOUND_ID_TYPE>
0

> <PUBCHEM_TOTAL_CHARGE>
0

> <PUBCHEM_SUBSTANCE_ID>
310934032

> <PUBCHEM_SUBSTANCE_VERSION>
1

> <PUBCHEM_EXT_DATASOURCE_NAME>
4488

> <PUBCHEM_EXT_DATASOURCE_REGID>
SCHEMBL16111476

> <PUBCHEM_SUBSTANCE_COMMENT>
InChI=1S/C32H35N7O3/c1-22-8-10-26-25(6-5-7-29(26)36-22)27-20-35-39-21-23(18-34-30(27)39)28-11-9-24(19-33-28)41-17-16-37-12-14-38(15-13-37)31(40)42-32(2,3)4/h5-11,18-21H,12-17H2,1-4H3
InChIKey=YELGZSDAPMTPCC-UHFFFAOYSA-N

> <PUBCHEM_SUBSTANCE_SYNONYM>
SCHEMBL16111476

> <PUBCHEM_XREF_EXT_ID>
SCHEMBL16111476

> <PUBCHEM_EXT_DATASOURCE_URL>
https://www.surechembl.org/

> <PUBCHEM_EXT_SUBSTANCE_URL>
https://www.surechembl.org/chemical/SCHEMBL16111476

> <PUBCHEM_CID_ASSOCIATIONS>
117602332  1

> <PUBCHEM_COORDINATE_TYPE>
1
3

$$$$
