310943052
  -OEChem-07211613022D

 31 35  0     1  0  0  0  0  0999 V2000
   -1.7044   -2.7651    0.0000 S   0  0  0  0  0  0  0  0  0  0  0  0
   -2.4116   -2.3481    0.0000 O   0  0  0  0  0  0  0  0  0  0  0  0
   -2.1034   -3.4723    0.0000 O   0  0  0  0  0  0  0  0  0  0  0  0
   -1.2512   -0.4986    0.0000 O   0  0  0  0  0  0  0  0  0  0  0  0
    0.1995    4.0525    0.0000 O   0  0  0  0  0  0  0  0  0  0  0  0
    0.2539    1.8405    0.0000 N   0  0  0  0  0  0  0  0  0  0  0  0
    0.7253    1.1695    0.0000 N   0  0  0  0  0  0  0  0  0  0  0  0
   -1.1786   -3.3998    0.0000 N   0  0  3  0  0  0  0  0  0  0  0  0
    0.5077   -0.2992    0.0000 N   0  0  0  0  0  0  0  0  0  0  0  0
   -1.9583    0.7525    0.0000 N   0  0  0  0  0  0  0  0  0  0  0  0
    2.4116    1.5684    0.0000 N   0  0  0  0  0  0  0  0  0  0  0  0
   -0.5440    0.7706    0.0000 C   0  0  0  0  0  0  0  0  0  0  0  0
   -0.5077    1.6047    0.0000 C   0  0  0  0  0  0  0  0  0  0  0  0
    0.2357    0.4805    0.0000 C   0  0  0  0  0  0  0  0  0  0  0  0
   -1.2330   -2.0399    0.0000 C   0  0  0  0  0  0  0  0  0  0  0  0
   -0.4533   -2.2756    0.0000 C   0  0  0  0  0  0  0  0  0  0  0  0
    0.5077    2.6745    0.0000 C   0  0  3  0  0  0  0  0  0  0  0  0
   -0.0907   -0.8794    0.0000 C   0  0  0  0  0  0  0  0  0  0  0  0
   -1.2512    0.3717    0.0000 C   0  0  0  0  0  0  0  0  0  0  0  0
   -0.4170   -3.1097    0.0000 C   0  0  0  0  0  0  0  0  0  0  0  0
    0.1269   -1.6772    0.0000 C   0  0  0  0  0  0  0  0  0  0  0  0
   -1.4506   -1.2420    0.0000 C   0  0  0  0  0  0  0  0  0  0  0  0
   -1.2512    2.0036    0.0000 C   0  0  0  0  0  0  0  0  0  0  0  0
   -0.8704   -0.6619    0.0000 C   0  0  0  0  0  0  0  0  0  0  0  0
    1.3055    2.8196    0.0000 C   0  0  3  0  0  0  0  0  0  0  0  0
   -1.9401    1.6047    0.0000 C   0  0  0  0  0  0  0  0  0  0  0  0
   -0.0362    3.2547    0.0000 C   0  0  0  0  0  0  0  0  0  0  0  0
   -1.7770   -4.2158    0.0000 C   0  0  0  0  0  0  0  0  0  0  0  0
    1.5594    3.5993    0.0000 C   0  0  0  0  0  0  0  0  0  0  0  0
    1.8495    2.1849    0.0000 C   0  0  0  0  0  0  0  0  0  0  0  0
    1.0154    4.2158    0.0000 C   0  0  0  0  0  0  0  0  0  0  0  0
  1  2  2  0  0  0  0
  1  3  2  0  0  0  0
  1  8  1  0  0  0  0
  1 15  1  0  0  0  0
  4 19  2  0  0  0  0
  5 27  1  0  0  0  0
  5 31  1  0  0  0  0
  6  7  1  0  0  0  0
  6 13  1  0  0  0  0
 17  6  1  1  0  0  0
  7 14  2  0  0  0  0
  8 20  1  0  0  0  0
  8 28  1  0  0  0  0
  9 14  1  0  0  0  0
  9 18  1  0  0  0  0
 10 19  1  0  0  0  0
 10 26  1  0  0  0  0
 11 30  3  0  0  0  0
 12 13  2  0  0  0  0
 12 14  1  0  0  0  0
 12 19  1  0  0  0  0
 13 23  1  0  0  0  0
 15 16  1  0  0  0  0
 15 22  2  0  0  0  0
 16 20  1  0  0  0  0
 16 21  2  0  0  0  0
 17 25  1  0  0  0  0
 17 27  1  0  0  0  0
 18 21  1  0  0  0  0
 18 24  2  0  0  0  0
 22 24  1  0  0  0  0
 23 26  2  0  0  0  0
 25 29  1  0  0  0  0
 25 30  1  6  0  0  0
 29 31  1  0  0  0  0
M  END
> <PUBCHEM_COMPOUND_ID_TYPE>
0

> <PUBCHEM_TOTAL_CHARGE>
0

> <PUBCHEM_SUBSTANCE_ID>
310943052

> <PUBCHEM_SUBSTANCE_VERSION>
1

> <PUBCHEM_EXT_DATASOURCE_NAME>
4488

> <PUBCHEM_EXT_DATASOURCE_REGID>
SCHEMBL16121111

> <PUBCHEM_SUBSTANCE_COMMENT>
InChI=1S/C20H20N6O4S/c1-25-10-13-8-14(2-3-17(13)31(25,28)29)23-19-18-15(4-6-22-20(18)27)26(24-19)16-11-30-7-5-12(16)9-21/h2-4,6,8,12,16H,5,7,10-11H2,1H3,(H,22,27)(H,23,24)/t12-,16+/m1/s1
InChIKey=WARJRGMGBDXTSQ-WBMJQRKESA-N

> <PUBCHEM_SUBSTANCE_SYNONYM>
SCHEMBL16121111

> <PUBCHEM_XREF_EXT_ID>
SCHEMBL16121111

> <PUBCHEM_EXT_DATASOURCE_URL>
https://www.surechembl.org/

> <PUBCHEM_EXT_SUBSTANCE_URL>
https://www.surechembl.org/chemical/SCHEMBL16121111

> <PUBCHEM_CID_ASSOCIATIONS>
117609491  1

> <PUBCHEM_COORDINATE_TYPE>
1
3

> <PUBCHEM_BONDANNOTATIONS>
25  30  6
17  6  5

$$$$
