310939322
  -OEChem-07211613022D

 22 23  0     1  0  0  0  0  0999 V2000
    0.7145    1.8562    0.0000 Cl  0  0  0  0  0  0  0  0  0  0  0  0
   -0.7145   -0.6188    0.0000 F   0  0  0  0  0  0  0  0  0  0  0  0
    0.7145    0.2062    0.0000 O   0  0  0  0  0  0  0  0  0  0  0  0
   -2.8579    0.6187    0.0000 N   0  0  0  0  0  0  0  0  0  0  0  0
    0.0000    0.6187    0.0000 C   0  0  0  0  0  0  0  0  0  0  0  0
   -1.4289    0.6187    0.0000 C   0  0  0  0  0  0  0  0  0  0  0  0
   -0.7145    0.2062    0.0000 C   0  0  0  0  0  0  0  0  0  0  0  0
    0.0000    1.4437    0.0000 C   0  0  0  0  0  0  0  0  0  0  0  0
   -2.1434    0.2062    0.0000 C   0  0  3  0  0  0  0  0  0  0  0  0
   -1.4289    1.4437    0.0000 C   0  0  0  0  0  0  0  0  0  0  0  0
   -0.7145    1.8563    0.0000 C   0  0  0  0  0  0  0  0  0  0  0  0
   -2.1434   -0.6188    0.0000 C   0  0  0  0  0  0  0  0  0  0  0  0
    1.4289    0.6187    0.0000 C   0  0  0  0  0  0  0  0  0  0  0  0
    2.1434    0.2062    0.0000 C   0  0  0  0  0  0  0  0  0  0  0  0
    1.4289    1.4437    0.0000 C   0  0  0  0  0  0  0  0  0  0  0  0
   -1.4289   -1.0313    0.0000 C   0  0  0  0  0  0  0  0  0  0  0  0
   -2.8579   -1.0313    0.0000 C   0  0  0  0  0  0  0  0  0  0  0  0
    2.8579    0.6187    0.0000 C   0  0  0  0  0  0  0  0  0  0  0  0
    2.1434    1.8563    0.0000 C   0  0  0  0  0  0  0  0  0  0  0  0
    2.8579    1.4437    0.0000 C   0  0  0  0  0  0  0  0  0  0  0  0
   -2.8579   -1.8563    0.0000 C   0  0  0  0  0  0  0  0  0  0  0  0
   -1.4289   -1.8563    0.0000 C   0  0  0  0  0  0  0  0  0  0  0  0
  1  8  1  0  0  0  0
  2  7  1  0  0  0  0
  3  5  1  0  0  0  0
  3 13  1  0  0  0  0
  9  4  1  6  0  0  0
  5  7  2  0  0  0  0
  5  8  1  0  0  0  0
  6  7  1  0  0  0  0
  6  9  1  0  0  0  0
  6 10  2  0  0  0  0
  8 11  2  0  0  0  0
  9 12  1  0  0  0  0
 10 11  1  0  0  0  0
 12 16  1  0  0  0  0
 12 17  1  0  0  0  0
 13 14  2  0  0  0  0
 13 15  1  0  0  0  0
 14 18  1  0  0  0  0
 15 19  2  0  0  0  0
 16 22  1  0  0  0  0
 17 21  1  0  0  0  0
 18 20  2  0  0  0  0
 19 20  1  0  0  0  0
M  END
> <PUBCHEM_COMPOUND_ID_TYPE>
0

> <PUBCHEM_TOTAL_CHARGE>
0

> <PUBCHEM_SUBSTANCE_ID>
310939322

> <PUBCHEM_SUBSTANCE_VERSION>
1

> <PUBCHEM_EXT_DATASOURCE_NAME>
4488

> <PUBCHEM_EXT_DATASOURCE_REGID>
SCHEMBL16117243

> <PUBCHEM_SUBSTANCE_COMMENT>
InChI=1S/C18H21ClFNO/c1-3-12(4-2)17(21)14-10-11-15(19)18(16(14)20)22-13-8-6-5-7-9-13/h5-12,17H,3-4,21H2,1-2H3/t17-/m0/s1
InChIKey=BZXXBONCKHQWNH-KRWDZBQOSA-N

> <PUBCHEM_SUBSTANCE_SYNONYM>
SCHEMBL16117243

> <PUBCHEM_XREF_EXT_ID>
SCHEMBL16117243

> <PUBCHEM_EXT_DATASOURCE_URL>
https://www.surechembl.org/

> <PUBCHEM_EXT_SUBSTANCE_URL>
https://www.surechembl.org/chemical/SCHEMBL16117243

> <PUBCHEM_CID_ASSOCIATIONS>
117606660  1

> <PUBCHEM_COORDINATE_TYPE>
1
3

> <PUBCHEM_BONDANNOTATIONS>
9  4  6

$$$$
