310930245
  -OEChem-07211613022D

 33 36  0     0  0  0  0  0  0999 V2000
    7.2810   -0.7360    0.0000 F   0  0  0  0  0  0  0  0  0  0  0  0
    6.0456    0.0000    0.0000 F   0  0  0  0  0  0  0  0  0  0  0  0
    6.8867   -1.4457    0.0000 F   0  0  0  0  0  0  0  0  0  0  0  0
    6.7815   -4.5210    0.0000 O   0  0  0  0  0  0  0  0  0  0  0  0
    7.1495   -1.1303    0.0000 O   0  5  0  0  0  0  0  0  0  0  0  0
    7.8855   -2.3394    0.0000 O   0  0  0  0  0  0  0  0  0  0  0  0
    0.7360   -2.3920    0.0000 O   0  0  0  0  0  0  0  0  0  0  0  0
    1.4457   -1.1566    0.0000 O   0  0  0  0  0  0  0  0  0  0  0  0
    4.3108   -3.6273    0.0000 N   0  0  0  0  0  0  0  0  0  0  0  0
    5.9404   -4.4421    0.0000 N   0  0  0  0  0  0  0  0  0  0  0  0
    7.0970   -3.7587    0.0000 N   0  0  0  0  0  0  0  0  0  0  0  0
    7.1758   -1.9451    0.0000 N   0  3  0  0  0  0  0  0  0  0  0  0
    5.7301   -3.6536    0.0000 C   0  0  0  0  0  0  0  0  0  0  0  0
    6.4924   -3.2068    0.0000 C   0  0  0  0  0  0  0  0  0  0  0  0
    5.0204   -3.2331    0.0000 C   0  0  0  0  0  0  0  0  0  0  0  0
    6.4661   -2.3657    0.0000 C   0  0  0  0  0  0  0  0  0  0  0  0
    3.6010   -3.2331    0.0000 C   0  0  0  0  0  0  0  0  0  0  0  0
    3.6010   -2.3920    0.0000 C   0  0  0  0  0  0  0  0  0  0  0  0
    5.1782   -2.5759    0.0000 C   0  0  0  0  0  0  0  0  0  0  0  0
    4.3108   -1.9714    0.0000 C   0  0  0  0  0  0  0  0  0  0  0  0
    5.9141   -2.1554    0.0000 C   0  0  0  0  0  0  0  0  0  0  0  0
    2.8651   -1.9714    0.0000 C   0  0  0  0  0  0  0  0  0  0  0  0
    2.1554   -2.3920    0.0000 C   0  0  0  0  0  0  0  0  0  0  0  0
    2.8651   -3.6273    0.0000 C   0  0  0  0  0  0  0  0  0  0  0  0
    5.7301   -1.1303    0.0000 C   0  0  0  0  0  0  0  0  0  0  0  0
    2.1554   -3.2331    0.0000 C   0  0  0  0  0  0  0  0  0  0  0  0
    4.3108   -1.1303    0.0000 C   0  0  0  0  0  0  0  0  0  0  0  0
    5.0204   -2.3657    0.0000 C   0  0  0  0  0  0  0  0  0  0  0  0
    6.4661   -0.7097    0.0000 C   0  0  0  0  0  0  0  0  0  0  0  0
    5.0204   -0.7097    0.0000 C   0  0  0  0  0  0  0  0  0  0  0  0
    5.7301   -1.9714    0.0000 C   0  0  0  0  0  0  0  0  0  0  0  0
    1.4194   -1.9714    0.0000 C   0  0  0  0  0  0  0  0  0  0  0  0
    0.0000   -1.9714    0.0000 C   0  0  0  0  0  0  0  0  0  0  0  0
  1 29  1  0  0  0  0
  2 29  1  0  0  0  0
  3 29  1  0  0  0  0
  4 10  1  0  0  0  0
  4 11  1  0  0  0  0
  5 12  1  0  0  0  0
  6 12  2  0  0  0  0
  7 32  1  0  0  0  0
  7 33  1  0  0  0  0
  8 32  2  0  0  0  0
  9 15  1  0  0  0  0
  9 17  1  0  0  0  0
 10 13  2  0  0  0  0
 11 14  2  0  0  0  0
 12 16  1  0  0  0  0
 13 14  1  0  0  0  0
 13 15  1  0  0  0  0
 14 16  1  0  0  0  0
 15 19  2  0  0  0  0
 16 21  2  0  0  0  0
 17 18  2  0  0  0  0
 17 24  1  0  0  0  0
 18 20  1  0  0  0  0
 18 22  1  0  0  0  0
 19 21  1  0  0  0  0
 20 27  2  0  0  0  0
 20 28  1  0  0  0  0
 22 23  2  0  0  0  0
 23 26  1  0  0  0  0
 23 32  1  0  0  0  0
 24 26  2  0  0  0  0
 25 29  1  0  0  0  0
 25 30  2  0  0  0  0
 25 31  1  0  0  0  0
 27 30  1  0  0  0  0
 28 31  2  0  0  0  0
M  CHG  2   5  -1  12   1
M  END
> <PUBCHEM_COMPOUND_ID_TYPE>
0

> <PUBCHEM_TOTAL_CHARGE>
0

> <PUBCHEM_SUBSTANCE_ID>
310930245

> <PUBCHEM_SUBSTANCE_VERSION>
1

> <PUBCHEM_EXT_DATASOURCE_NAME>
4488

> <PUBCHEM_EXT_DATASOURCE_REGID>
SCHEMBL16107519

> <PUBCHEM_SUBSTANCE_COMMENT>
InChI=1S/C21H13F3N4O5/c1-32-20(29)12-4-7-15(14(10-12)11-2-5-13(6-3-11)21(22,23)24)25-16-8-9-17(28(30)31)19-18(16)26-33-27-19/h2-10,25H,1H3
InChIKey=UKZIJWCRDNAZJP-UHFFFAOYSA-N

> <PUBCHEM_SUBSTANCE_SYNONYM>
SCHEMBL16107519

> <PUBCHEM_XREF_EXT_ID>
SCHEMBL16107519

> <PUBCHEM_EXT_DATASOURCE_URL>
https://www.surechembl.org/

> <PUBCHEM_EXT_SUBSTANCE_URL>
https://www.surechembl.org/chemical/SCHEMBL16107519

> <PUBCHEM_CID_ASSOCIATIONS>
81689716  1

> <PUBCHEM_COORDINATE_TYPE>
1
3

$$$$
