310944630
  -OEChem-07211613022D

 27 30  0     0  0  0  0  0  0999 V2000
   -2.1940    2.4051    0.0000 F   0  0  0  0  0  0  0  0  0  0  0  0
   -0.0075    1.9678    0.0000 N   0  0  0  0  0  0  0  0  0  0  0  0
   -2.1940   -1.6814    0.0000 N   0  0  0  0  0  0  0  0  0  0  0  0
   -0.7162   -0.0226    0.0000 C   0  0  0  0  0  0  0  0  0  0  0  0
   -1.4853    0.3846    0.0000 C   0  0  0  0  0  0  0  0  0  0  0  0
    0.0075    0.3996    0.0000 C   0  0  0  0  0  0  0  0  0  0  0  0
    0.7313    0.0075    0.0000 C   0  0  0  0  0  0  0  0  0  0  0  0
    0.7313   -0.7916    0.0000 C   0  0  0  0  0  0  0  0  0  0  0  0
   -1.4703    1.2139    0.0000 C   0  0  0  0  0  0  0  0  0  0  0  0
   -2.1940   -0.0226    0.0000 C   0  0  0  0  0  0  0  0  0  0  0  0
   -0.7162   -0.8218    0.0000 C   0  0  0  0  0  0  0  0  0  0  0  0
    0.0528   -1.1988    0.0000 C   0  0  0  0  0  0  0  0  0  0  0  0
   -2.2091    1.6060    0.0000 C   0  0  0  0  0  0  0  0  0  0  0  0
    1.4703   -1.1988    0.0000 C   0  0  0  0  0  0  0  0  0  0  0  0
    0.0226    1.1988    0.0000 C   0  0  0  0  0  0  0  0  0  0  0  0
    1.4552    0.4147    0.0000 C   0  0  0  0  0  0  0  0  0  0  0  0
   -2.9178    0.3695    0.0000 C   0  0  0  0  0  0  0  0  0  0  0  0
   -2.9330    1.1535    0.0000 C   0  0  0  0  0  0  0  0  0  0  0  0
   -0.7313    1.6060    0.0000 C   0  0  0  0  0  0  0  0  0  0  0  0
   -2.1940   -0.8671    0.0000 C   0  0  0  0  0  0  0  0  0  0  0  0
    0.7313    1.6211    0.0000 C   0  0  0  0  0  0  0  0  0  0  0  0
    1.4401    1.2290    0.0000 C   0  0  0  0  0  0  0  0  0  0  0  0
    1.4703   -2.0130    0.0000 C   0  0  0  0  0  0  0  0  0  0  0  0
    2.2091   -0.8067    0.0000 C   0  0  0  0  0  0  0  0  0  0  0  0
    2.2241   -2.4051    0.0000 C   0  0  0  0  0  0  0  0  0  0  0  0
    2.9330   -1.2139    0.0000 C   0  0  0  0  0  0  0  0  0  0  0  0
    2.9178   -2.0130    0.0000 C   0  0  0  0  0  0  0  0  0  0  0  0
  1 13  1  0  0  0  0
  2 19  3  0  0  0  0
  3 20  3  0  0  0  0
  4  5  1  0  0  0  0
  4  6  1  0  0  0  0
  4 11  2  0  0  0  0
  5  9  1  0  0  0  0
  5 10  2  0  0  0  0
  6  7  1  0  0  0  0
  6 15  2  0  0  0  0
  7  8  1  0  0  0  0
  7 16  2  0  0  0  0
  8 12  2  0  0  0  0
  8 14  1  0  0  0  0
  9 13  2  0  0  0  0
  9 19  1  0  0  0  0
 10 17  1  0  0  0  0
 10 20  1  0  0  0  0
 11 12  1  0  0  0  0
 13 18  1  0  0  0  0
 14 23  2  0  0  0  0
 14 24  1  0  0  0  0
 15 21  1  0  0  0  0
 16 22  1  0  0  0  0
 17 18  2  0  0  0  0
 21 22  2  0  0  0  0
 23 25  1  0  0  0  0
 24 26  2  0  0  0  0
 25 27  2  0  0  0  0
 26 27  1  0  0  0  0
M  END
> <PUBCHEM_COMPOUND_ID_TYPE>
0

> <PUBCHEM_TOTAL_CHARGE>
0

> <PUBCHEM_SUBSTANCE_ID>
310944630

> <PUBCHEM_SUBSTANCE_VERSION>
1

> <PUBCHEM_EXT_DATASOURCE_NAME>
4488

> <PUBCHEM_EXT_DATASOURCE_REGID>
SCHEMBL16122708

> <PUBCHEM_SUBSTANCE_COMMENT>
InChI=1S/C24H13FN2/c25-23-13-10-17(14-26)24(22(23)15-27)21-12-11-18(16-6-2-1-3-7-16)19-8-4-5-9-20(19)21/h1-13H
InChIKey=GVAANZPRLDOPOF-UHFFFAOYSA-N

> <PUBCHEM_SUBSTANCE_SYNONYM>
SCHEMBL16122708

> <PUBCHEM_XREF_EXT_ID>
SCHEMBL16122708

> <PUBCHEM_EXT_DATASOURCE_URL>
https://www.surechembl.org/

> <PUBCHEM_EXT_SUBSTANCE_URL>
https://www.surechembl.org/chemical/SCHEMBL16122708

> <PUBCHEM_CID_ASSOCIATIONS>
117610860  1

> <PUBCHEM_COORDINATE_TYPE>
1
3

$$$$
