310949098
  -OEChem-07211613022D

 26 29  0     1  0  0  0  0  0999 V2000
    1.4085    2.7664    0.0000 F   0  0  0  0  0  0  0  0  0  0  0  0
    1.7530    1.7125    0.0000 F   0  0  0  0  0  0  0  0  0  0  0  0
    0.6587    1.3882    0.0000 F   0  0  0  0  0  0  0  0  0  0  0  0
   -1.2464   -2.4421    0.0000 O   0  0  0  0  0  0  0  0  0  0  0  0
   -0.4763   -1.2261    0.0000 N   0  0  0  0  0  0  0  0  0  0  0  0
    0.2330   -3.2730    0.0000 N   0  0  0  0  0  0  0  0  0  0  0  0
    0.9626   -3.6986    0.0000 N   0  0  0  0  0  0  0  0  0  0  0  0
   -0.8816    0.0304    0.0000 C   0  0  3  0  0  0  0  0  0  0  0  0
   -0.0506    0.0304    0.0000 C   0  0  3  0  0  0  0  0  0  0  0  0
   -0.4763    1.2464    0.0000 C   0  0  0  0  0  0  0  0  0  0  0  0
   -0.4357    2.1178    0.0000 C   0  0  0  0  0  0  0  0  0  0  0  0
   -1.1450    0.8005    0.0000 C   0  0  0  0  0  0  0  0  0  0  0  0
    0.2128    0.7802    0.0000 C   0  0  0  0  0  0  0  0  0  0  0  0
    0.2939    2.5029    0.0000 C   0  0  0  0  0  0  0  0  0  0  0  0
   -1.1653   -0.7398    0.0000 C   0  0  0  0  0  0  0  0  0  0  0  0
    0.2128   -0.7195    0.0000 C   0  0  0  0  0  0  0  0  0  0  0  0
    1.0234    2.0773    0.0000 C   0  0  0  0  0  0  0  0  0  0  0  0
   -0.4965   -2.0165    0.0000 C   0  0  0  0  0  0  0  0  0  0  0  0
   -1.1653    2.5029    0.0000 C   0  0  0  0  0  0  0  0  0  0  0  0
    0.2330   -2.4826    0.0000 C   0  0  0  0  0  0  0  0  0  0  0  0
    0.2939    3.2730    0.0000 C   0  0  0  0  0  0  0  0  0  0  0  0
   -1.1653    3.2933    0.0000 C   0  0  0  0  0  0  0  0  0  0  0  0
   -0.4154    3.6986    0.0000 C   0  0  0  0  0  0  0  0  0  0  0  0
    0.9424   -2.0773    0.0000 C   0  0  0  0  0  0  0  0  0  0  0  0
    1.7125   -2.4826    0.0000 C   0  0  0  0  0  0  0  0  0  0  0  0
    1.6923   -3.2933    0.0000 C   0  0  0  0  0  0  0  0  0  0  0  0
  1 17  1  0  0  0  0
  2 17  1  0  0  0  0
  3 17  1  0  0  0  0
  4 18  2  0  0  0  0
  5 15  1  0  0  0  0
  5 16  1  0  0  0  0
  5 18  1  0  0  0  0
  6  7  1  0  0  0  0
  6 20  2  0  0  0  0
  7 26  2  0  0  0  0
  8  9  1  0  0  0  0
  8 12  1  1  0  0  0
  8 15  1  0  0  0  0
  9 13  1  1  0  0  0
  9 16  1  0  0  0  0
 10 11  1  0  0  0  0
 10 12  1  1  0  0  0
 10 13  1  0  0  0  0
 11 14  1  0  0  0  0
 11 19  2  0  0  0  0
 14 17  1  0  0  0  0
 14 21  2  0  0  0  0
 18 20  1  0  0  0  0
 19 22  1  0  0  0  0
 20 24  1  0  0  0  0
 21 23  1  0  0  0  0
 22 23  2  0  0  0  0
 24 25  2  0  0  0  0
 25 26  1  0  0  0  0
M  END
> <PUBCHEM_COMPOUND_ID_TYPE>
0

> <PUBCHEM_TOTAL_CHARGE>
0

> <PUBCHEM_SUBSTANCE_ID>
310949098

> <PUBCHEM_SUBSTANCE_VERSION>
1

> <PUBCHEM_EXT_DATASOURCE_NAME>
4488

> <PUBCHEM_EXT_DATASOURCE_REGID>
SCHEMBL16127288

> <PUBCHEM_SUBSTANCE_COMMENT>
InChI=1S/C19H18F3N3O/c20-19(21,22)16-5-2-1-4-15(16)12-8-13-10-25(11-14(13)9-12)18(26)17-6-3-7-23-24-17/h1-7,12-14H,8-11H2/t12-,13-,14+
InChIKey=LPVYQJSZUDWBNF-ZSOGYDGISA-N

> <PUBCHEM_SUBSTANCE_SYNONYM>
SCHEMBL16127288

> <PUBCHEM_XREF_EXT_ID>
SCHEMBL16127288

> <PUBCHEM_EXT_DATASOURCE_URL>
https://www.surechembl.org/

> <PUBCHEM_EXT_SUBSTANCE_URL>
https://www.surechembl.org/chemical/SCHEMBL16127288

> <PUBCHEM_CID_ASSOCIATIONS>
86304599  1

> <PUBCHEM_COORDINATE_TYPE>
1
3

> <PUBCHEM_BONDANNOTATIONS>
10  12  5
8  12  5
9  13  5

$$$$
