310949274
  -OEChem-07211613022D

 91105  0     0  0  0  0  0  0999 V2000
    0.2235    0.4563    0.0000 S   0  0  0  0  0  0  0  0  0  0  0  0
   -0.6333   -4.7401    0.0000 N   0  0  0  0  0  0  0  0  0  0  0  0
    1.6017    5.6155    0.0000 N   0  0  0  0  0  0  0  0  0  0  0  0
   -2.4213   -3.4922    0.0000 N   0  0  0  0  0  0  0  0  0  0  0  0
    3.7623    5.0754    0.0000 N   0  0  0  0  0  0  0  0  0  0  0  0
    1.4900   -5.2057    0.0000 N   0  0  0  0  0  0  0  0  0  0  0  0
   -0.5588    5.1312    0.0000 N   0  0  0  0  0  0  0  0  0  0  0  0
   -0.2608   -5.4478    0.0000 C   0  0  0  0  0  0  0  0  0  0  0  0
   -1.4527   -4.9078    0.0000 C   0  0  0  0  0  0  0  0  0  0  0  0
    0.8940    6.1370    0.0000 C   0  0  0  0  0  0  0  0  0  0  0  0
    2.2537    6.1742    0.0000 C   0  0  0  0  0  0  0  0  0  0  0  0
   -1.5831   -5.7272    0.0000 C   0  0  0  0  0  0  0  0  0  0  0  0
   -0.7823   -6.0625    0.0000 C   0  0  0  0  0  0  0  0  0  0  0  0
    1.1734    6.9379    0.0000 C   0  0  0  0  0  0  0  0  0  0  0  0
    2.0301    6.9193    0.0000 C   0  0  0  0  0  0  0  0  0  0  0  0
    1.5831    4.7960    0.0000 C   0  0  0  0  0  0  0  0  0  0  0  0
   -0.3166   -3.9578    0.0000 C   0  0  0  0  0  0  0  0  0  0  0  0
    2.3282    4.3862    0.0000 C   0  0  0  0  0  0  0  0  0  0  0  0
   -0.7823   -3.2873    0.0000 C   0  0  0  0  0  0  0  0  0  0  0  0
    0.8754    4.3862    0.0000 C   0  0  0  0  0  0  0  0  0  0  0  0
    0.5215   -3.8833    0.0000 C   0  0  0  0  0  0  0  0  0  0  0  0
   -2.3468   -6.0252    0.0000 C   0  0  0  0  0  0  0  0  0  0  0  0
   -0.5029   -6.8448    0.0000 C   0  0  0  0  0  0  0  0  0  0  0  0
    0.6333    7.5152    0.0000 C   0  0  0  0  0  0  0  0  0  0  0  0
    2.5517    7.5338    0.0000 C   0  0  0  0  0  0  0  0  0  0  0  0
    0.5774   -5.6341    0.0000 C   0  0  0  0  0  0  0  0  0  0  0  0
   -2.1419   -4.4235    0.0000 C   0  0  0  0  0  0  0  0  0  0  0  0
    0.0745    5.9880    0.0000 C   0  0  0  0  0  0  0  0  0  0  0  0
    3.0918    5.9694    0.0000 C   0  0  0  0  0  0  0  0  0  0  0  0
    0.2608   -7.0497    0.0000 C   0  0  0  0  0  0  0  0  0  0  0  0
   -2.9987   -5.5596    0.0000 C   0  0  0  0  0  0  0  0  0  0  0  0
   -0.1676    7.3662    0.0000 C   0  0  0  0  0  0  0  0  0  0  0  0
    3.3711    7.3476    0.0000 C   0  0  0  0  0  0  0  0  0  0  0  0
    1.5831    3.1197    0.0000 C   0  0  0  0  0  0  0  0  0  0  0  0
    0.3539   -2.4492    0.0000 C   0  0  0  0  0  0  0  0  0  0  0  0
    0.8195   -6.4164    0.0000 C   0  0  0  0  0  0  0  0  0  0  0  0
   -2.8683   -4.7401    0.0000 C   0  0  0  0  0  0  0  0  0  0  0  0
   -0.4470    6.5654    0.0000 C   0  0  0  0  0  0  0  0  0  0  0  0
    3.6133    6.5654    0.0000 C   0  0  0  0  0  0  0  0  0  0  0  0
    2.2909    3.5667    0.0000 C   0  0  0  0  0  0  0  0  0  0  0  0
   -0.4470   -2.5424    0.0000 C   0  0  0  0  0  0  0  0  0  0  0  0
    0.8754    3.5481    0.0000 C   0  0  0  0  0  0  0  0  0  0  0  0
    0.8568   -3.1197    0.0000 C   0  0  0  0  0  0  0  0  0  0  0  0
   -3.7623   -5.8949    0.0000 C   0  0  0  0  0  0  0  0  0  0  0  0
    0.5215   -7.7946    0.0000 C   0  0  0  0  0  0  0  0  0  0  0  0
   -0.7823    8.0554    0.0000 C   0  0  0  0  0  0  0  0  0  0  0  0
    3.9113    8.0368    0.0000 C   0  0  0  0  0  0  0  0  0  0  0  0
    1.5831    2.2816    0.0000 C   0  0  0  0  0  0  0  0  0  0  0  0
    0.7078   -1.6669    0.0000 C   0  0  0  0  0  0  0  0  0  0  0  0
    1.5645    0.6426    0.0000 C   0  0  0  0  0  0  0  0  0  0  0  0
    1.3969   -0.1956    0.0000 C   0  0  0  0  0  0  0  0  0  0  0  0
    0.8568    1.0523    0.0000 C   0  0  0  0  0  0  0  0  0  0  0  0
    0.5774   -0.2515    0.0000 C   0  0  0  0  0  0  0  0  0  0  0  0
    3.0359    4.7588    0.0000 C   0  0  0  0  0  0  0  0  0  0  0  0
   -1.6204   -3.3991    0.0000 C   0  0  0  0  0  0  0  0  0  0  0  0
    0.1490    4.7774    0.0000 C   0  0  0  0  0  0  0  0  0  0  0  0
    1.0058   -4.5539    0.0000 C   0  0  0  0  0  0  0  0  0  0  0  0
    0.8568    1.8904    0.0000 C   0  0  0  0  0  0  0  0  0  0  0  0
    0.2235   -1.0337    0.0000 C   0  0  0  0  0  0  0  0  0  0  0  0
    2.2909    1.8718    0.0000 C   0  0  0  0  0  0  0  0  0  0  0  0
    1.5272   -1.5924    0.0000 C   0  0  0  0  0  0  0  0  0  0  0  0
    2.2909    1.0523    0.0000 C   0  0  0  0  0  0  0  0  0  0  0  0
    1.8811   -0.8475    0.0000 C   0  0  0  0  0  0  0  0  0  0  0  0
   -4.4701   -5.4292    0.0000 C   0  0  0  0  0  0  0  0  0  0  0  0
   -0.0373   -8.4465    0.0000 C   0  0  0  0  0  0  0  0  0  0  0  0
   -0.5029    8.8190    0.0000 C   0  0  0  0  0  0  0  0  0  0  0  0
    4.7495    7.8132    0.0000 C   0  0  0  0  0  0  0  0  0  0  0  0
   -3.8554   -6.7517    0.0000 C   0  0  0  0  0  0  0  0  0  0  0  0
    1.3224   -8.0181    0.0000 C   0  0  0  0  0  0  0  0  0  0  0  0
   -1.5831    7.8505    0.0000 C   0  0  0  0  0  0  0  0  0  0  0  0
    3.6878    8.8004    0.0000 C   0  0  0  0  0  0  0  0  0  0  0  0
   -5.1964   -5.7645    0.0000 C   0  0  0  0  0  0  0  0  0  0  0  0
    0.2608   -9.2474    0.0000 C   0  0  0  0  0  0  0  0  0  0  0  0
   -1.0616    9.3964    0.0000 C   0  0  0  0  0  0  0  0  0  0  0  0
    5.2895    8.4279    0.0000 C   0  0  0  0  0  0  0  0  0  0  0  0
   -4.6004   -7.0683    0.0000 C   0  0  0  0  0  0  0  0  0  0  0  0
    1.5831   -8.8004    0.0000 C   0  0  0  0  0  0  0  0  0  0  0  0
   -2.1233    8.4465    0.0000 C   0  0  0  0  0  0  0  0  0  0  0  0
    4.1907    9.3964    0.0000 C   0  0  0  0  0  0  0  0  0  0  0  0
   -5.2895   -6.5840    0.0000 C   0  0  0  0  0  0  0  0  0  0  0  0
    1.0616   -9.3964    0.0000 C   0  0  0  0  0  0  0  0  0  0  0  0
   -1.8625    9.2102    0.0000 C   0  0  0  0  0  0  0  0  0  0  0  0
    5.0102    9.2474    0.0000 C   0  0  0  0  0  0  0  0  0  0  0  0
   -4.3769   -4.6098    0.0000 C   0  0  0  0  0  0  0  0  0  0  0  0
   -0.8195   -8.2603    0.0000 C   0  0  0  0  0  0  0  0  0  0  0  0
    0.3353    8.9308    0.0000 C   0  0  0  0  0  0  0  0  0  0  0  0
    4.9916    7.0310    0.0000 C   0  0  0  0  0  0  0  0  0  0  0  0
   -3.1849   -7.1986    0.0000 C   0  0  0  0  0  0  0  0  0  0  0  0
    1.9184   -7.4035    0.0000 C   0  0  0  0  0  0  0  0  0  0  0  0
   -1.8066    6.9938    0.0000 C   0  0  0  0  0  0  0  0  0  0  0  0
    2.8311    8.9494    0.0000 C   0  0  0  0  0  0  0  0  0  0  0  0
  1 52  1  0  0  0  0
  1 53  1  0  0  0  0
  2  8  1  0  0  0  0
  2  9  1  0  0  0  0
  2 17  1  0  0  0  0
  3 10  1  0  0  0  0
  3 11  1  0  0  0  0
  3 16  1  0  0  0  0
  4 55  3  0  0  0  0
  5 54  3  0  0  0  0
  6 57  3  0  0  0  0
  7 56  3  0  0  0  0
  8 13  2  0  0  0  0
  8 26  1  0  0  0  0
  9 12  2  0  0  0  0
  9 27  1  0  0  0  0
 10 14  2  0  0  0  0
 10 28  1  0  0  0  0
 11 15  2  0  0  0  0
 11 29  1  0  0  0  0
 12 13  1  0  0  0  0
 12 22  1  0  0  0  0
 13 23  1  0  0  0  0
 14 15  1  0  0  0  0
 14 24  1  0  0  0  0
 15 25  1  0  0  0  0
 16 18  2  0  0  0  0
 16 20  1  0  0  0  0
 17 19  2  0  0  0  0
 17 21  1  0  0  0  0
 18 40  1  0  0  0  0
 18 54  1  0  0  0  0
 19 41  1  0  0  0  0
 19 55  1  0  0  0  0
 20 42  2  0  0  0  0
 20 56  1  0  0  0  0
 21 43  2  0  0  0  0
 21 57  1  0  0  0  0
 22 31  2  0  0  0  0
 23 30  2  0  0  0  0
 24 32  2  0  0  0  0
 25 33  2  0  0  0  0
 26 36  2  0  0  0  0
 27 37  2  0  0  0  0
 28 38  2  0  0  0  0
 29 39  2  0  0  0  0
 30 36  1  0  0  0  0
 30 45  1  0  0  0  0
 31 37  1  0  0  0  0
 31 44  1  0  0  0  0
 32 38  1  0  0  0  0
 32 46  1  0  0  0  0
 33 39  1  0  0  0  0
 33 47  1  0  0  0  0
 34 40  2  0  0  0  0
 34 42  1  0  0  0  0
 34 48  1  0  0  0  0
 35 41  2  0  0  0  0
 35 43  1  0  0  0  0
 35 49  1  0  0  0  0
 44 64  2  0  0  0  0
 44 68  1  0  0  0  0
 45 65  2  0  0  0  0
 45 69  1  0  0  0  0
 46 66  2  0  0  0  0
 46 70  1  0  0  0  0
 47 67  2  0  0  0  0
 47 71  1  0  0  0  0
 48 58  2  0  0  0  0
 48 60  1  0  0  0  0
 49 59  2  0  0  0  0
 49 61  1  0  0  0  0
 50 51  1  0  0  0  0
 50 52  2  0  0  0  0
 50 62  1  0  0  0  0
 51 53  2  0  0  0  0
 51 63  1  0  0  0  0
 52 58  1  0  0  0  0
 53 59  1  0  0  0  0
 60 62  2  0  0  0  0
 61 63  2  0  0  0  0
 64 72  1  0  0  0  0
 64 84  1  0  0  0  0
 65 73  1  0  0  0  0
 65 85  1  0  0  0  0
 66 74  1  0  0  0  0
 66 86  1  0  0  0  0
 67 75  1  0  0  0  0
 67 87  1  0  0  0  0
 68 76  2  0  0  0  0
 68 88  1  0  0  0  0
 69 77  2  0  0  0  0
 69 89  1  0  0  0  0
 70 78  2  0  0  0  0
 70 90  1  0  0  0  0
 71 79  2  0  0  0  0
 71 91  1  0  0  0  0
 72 80  2  0  0  0  0
 73 81  2  0  0  0  0
 74 82  2  0  0  0  0
 75 83  2  0  0  0  0
 76 80  1  0  0  0  0
 77 81  1  0  0  0  0
 78 82  1  0  0  0  0
 79 83  1  0  0  0  0
M  END
> <PUBCHEM_COMPOUND_ID_TYPE>
0

> <PUBCHEM_TOTAL_CHARGE>
0

> <PUBCHEM_SUBSTANCE_ID>
310949274

> <PUBCHEM_SUBSTANCE_VERSION>
1

> <PUBCHEM_EXT_DATASOURCE_NAME>
4488

> <PUBCHEM_EXT_DATASOURCE_REGID>
SCHEMBL16127464

> <PUBCHEM_SUBSTANCE_COMMENT>
InChI=1S/C84H58N6S/c1-47-13-9-14-48(2)79(47)57-23-29-73-69(37-57)70-38-58(80-49(3)15-10-16-50(80)4)24-30-74(70)89(73)83-63(43-85)33-61(34-64(83)44-86)55-21-27-67-68-28-22-56(42-78(68)91-77(67)41-55)62-35-65(45-87)84(66(36-62)46-88)90-75-31-25-59(81-51(5)17-11-18-52(81)6)39-71(75)72-40-60(26-32-76(72)90)82-53(7)19-12-20-54(82)8/h9-42H,1-8H3
InChIKey=NRKCCFANYSCJAD-UHFFFAOYSA-N

> <PUBCHEM_SUBSTANCE_SYNONYM>
SCHEMBL16127464

> <PUBCHEM_XREF_EXT_ID>
SCHEMBL16127464

> <PUBCHEM_EXT_DATASOURCE_URL>
https://www.surechembl.org/

> <PUBCHEM_EXT_SUBSTANCE_URL>
https://www.surechembl.org/chemical/SCHEMBL16127464

> <PUBCHEM_CID_ASSOCIATIONS>
117614760  1

> <PUBCHEM_COORDINATE_TYPE>
1
3

$$$$
