310929970
  -OEChem-07211613022D

 62 69  0     1  0  0  0  0  0999 V2000
    8.3404    1.5250    0.0000 S   0  0  0  0  0  0  0  0  0  0  0  0
    7.8856    3.1110    0.0000 O   0  0  0  0  0  0  0  0  0  0  0  0
    8.1408    0.7245    0.0000 O   0  0  0  0  0  0  0  0  0  0  0  0
    8.5400    2.3255    0.0000 O   0  0  0  0  0  0  0  0  0  0  0  0
    4.8711    2.5447    0.0000 O   0  0  0  0  0  0  0  0  0  0  0  0
    4.9279   -1.1104    0.0000 O   0  0  0  0  0  0  0  0  0  0  0  0
    3.4990    2.1896    0.0000 O   0  0  0  0  0  0  0  0  0  0  0  0
    6.3569   -3.5854    0.0000 O   0  0  0  0  0  0  0  0  0  0  0  0
    2.1003   -0.9977    0.0000 O   0  0  0  0  0  0  0  0  0  0  0  0
    1.3556    0.1271    0.0000 O   0  0  0  0  0  0  0  0  0  0  0  0
    9.4255   -5.9655    0.0000 O   0  0  0  0  0  0  0  0  0  0  0  0
    6.1765    1.9635    0.0000 N   0  0  0  0  0  0  0  0  0  0  0  0
    7.5399    1.7245    0.0000 N   0  0  0  0  0  0  0  0  0  0  0  0
    4.2135    0.9521    0.0000 N   0  0  0  0  0  0  0  0  0  0  0  0
    6.3569   -1.1104    0.0000 N   0  0  0  0  0  0  0  0  0  0  0  0
    2.7845    0.1271    0.0000 N   0  0  0  0  0  0  0  0  0  0  0  0
    8.5003   -4.8229    0.0000 N   0  0  0  0  0  0  0  0  0  0  0  0
    9.8060   -4.5454    0.0000 N   0  0  0  0  0  0  0  0  0  0  0  0
    6.5120    2.7172    0.0000 C   0  0  3  0  0  0  0  0  0  0  0  0
    5.8281    3.1785    0.0000 C   0  0  3  0  0  0  0  0  0  0  0  0
    6.5696    3.5402    0.0000 C   0  0  0  0  0  0  0  0  0  0  0  0
    7.3125    2.5176    0.0000 C   0  0  0  0  0  0  0  0  0  0  0  0
    5.0051    3.2361    0.0000 C   0  0  0  0  0  0  0  0  0  0  0  0
    9.1409    1.3254    0.0000 C   0  0  0  0  0  0  0  0  0  0  0  0
    5.3560    1.8773    0.0000 C   0  0  0  0  0  0  0  0  0  0  0  0
    5.0204    1.1236    0.0000 C   0  0  3  0  0  0  0  0  0  0  0  0
    9.0834    0.5024    0.0000 C   0  0  0  0  0  0  0  0  0  0  0  0
    9.8249    0.8640    0.0000 C   0  0  0  0  0  0  0  0  0  0  0  0
    4.6434    3.9776    0.0000 C   0  0  0  0  0  0  0  0  0  0  0  0
    5.4329    0.4091    0.0000 C   0  0  0  0  0  0  0  0  0  0  0  0
    9.4765    2.0790    0.0000 C   0  0  0  0  0  0  0  0  0  0  0  0
    4.9279   -0.2854    0.0000 C   0  0  3  0  0  0  0  0  0  0  0  0
    4.2135    0.1271    0.0000 C   0  0  0  0  0  0  0  0  0  0  0  0
    3.4990    1.3646    0.0000 C   0  0  0  0  0  0  0  0  0  0  0  0
    5.6424   -1.5229    0.0000 C   0  0  0  0  0  0  0  0  0  0  0  0
    5.6424   -2.3479    0.0000 C   0  0  0  0  0  0  0  0  0  0  0  0
    2.7845    0.9521    0.0000 C   0  0  0  0  0  0  0  0  0  0  0  0
    6.3569   -2.7604    0.0000 C   0  0  0  0  0  0  0  0  0  0  0  0
    7.0714   -2.3479    0.0000 C   0  0  0  0  0  0  0  0  0  0  0  0
    7.0714   -1.5229    0.0000 C   0  0  0  0  0  0  0  0  0  0  0  0
    4.9279   -2.7604    0.0000 C   0  0  0  0  0  0  0  0  0  0  0  0
    7.7858   -2.7604    0.0000 C   0  0  0  0  0  0  0  0  0  0  0  0
    7.7858   -1.1104    0.0000 C   0  0  0  0  0  0  0  0  0  0  0  0
    8.5003   -2.3479    0.0000 C   0  0  0  0  0  0  0  0  0  0  0  0
    8.5003   -1.5229    0.0000 C   0  0  0  0  0  0  0  0  0  0  0  0
    2.0701   -0.2854    0.0000 C   0  0  0  0  0  0  0  0  0  0  0  0
    4.9279   -3.5854    0.0000 C   0  0  0  0  0  0  0  0  0  0  0  0
    7.0714   -3.9979    0.0000 C   0  0  0  0  0  0  0  0  0  0  0  0
    4.2135   -3.9979    0.0000 C   0  0  0  0  0  0  0  0  0  0  0  0
    2.7845   -1.5229    0.0000 C   0  0  3  0  0  0  0  0  0  0  0  0
    7.0714   -4.8229    0.0000 C   0  0  0  0  0  0  0  0  0  0  0  0
    2.7845   -2.3479    0.0000 C   0  0  3  0  0  0  0  0  0  0  0  0
    3.4990   -3.5854    0.0000 C   0  0  0  0  0  0  0  0  0  0  0  0
    3.4990   -2.7604    0.0000 C   0  0  0  0  0  0  0  0  0  0  0  0
    1.9999   -1.2680    0.0000 C   0  0  0  0  0  0  0  0  0  0  0  0
    7.7858   -5.2354    0.0000 C   0  0  0  0  0  0  0  0  0  0  0  0
    1.9999   -2.6029    0.0000 C   0  0  0  0  0  0  0  0  0  0  0  0
    1.5150   -1.9354    0.0000 C   0  0  0  0  0  0  0  0  0  0  0  0
    9.2540   -5.1585    0.0000 C   0  0  0  0  0  0  0  0  0  0  0  0
    8.5865   -4.0025    0.0000 C   0  0  0  0  0  0  0  0  0  0  0  0
    9.3935   -3.8309    0.0000 C   0  0  0  0  0  0  0  0  0  0  0  0
    5.5595    2.3985    0.0000 H   0  0  0  0  0  0  0  0  0  0  0  0
  1  3  2  0  0  0  0
  1  4  2  0  0  0  0
  1 13  1  0  0  0  0
  1 24  1  0  0  0  0
  2 22  2  0  0  0  0
  5 25  2  0  0  0  0
  6 32  1  0  0  0  0
  6 35  1  0  0  0  0
  7 34  2  0  0  0  0
  8 38  1  0  0  0  0
  8 48  1  0  0  0  0
  9 46  1  0  0  0  0
  9 50  1  0  0  0  0
 10 46  2  0  0  0  0
 11 59  2  0  0  0  0
 19 12  1  1  0  0  0
 12 25  1  0  0  0  0
 13 22  1  0  0  0  0
 14 26  1  0  0  0  0
 14 33  1  0  0  0  0
 14 34  1  0  0  0  0
 15 35  2  0  0  0  0
 15 40  1  0  0  0  0
 16 37  1  0  0  0  0
 16 46  1  0  0  0  0
 17 56  1  0  0  0  0
 17 59  1  0  0  0  0
 17 60  1  0  0  0  0
 18 59  1  0  0  0  0
 18 61  1  0  0  0  0
 19 20  1  0  0  0  0
 19 21  1  0  0  0  0
 19 22  1  6  0  0  0
 20 21  1  0  0  0  0
 20 23  1  6  0  0  0
 20 62  1  1  0  0  0
 23 29  2  0  0  0  0
 24 27  1  0  0  0  0
 24 28  1  0  0  0  0
 24 31  1  0  0  0  0
 25 26  1  0  0  0  0
 26 30  1  0  0  0  0
 27 28  1  0  0  0  0
 30 32  1  0  0  0  0
 32 33  1  0  0  0  0
 34 37  1  0  0  0  0
 35 36  1  0  0  0  0
 36 38  2  0  0  0  0
 36 41  1  0  0  0  0
 38 39  1  0  0  0  0
 39 40  2  0  0  0  0
 39 42  1  0  0  0  0
 40 43  1  0  0  0  0
 41 47  1  0  0  0  0
 42 44  2  0  0  0  0
 43 45  2  0  0  0  0
 44 45  1  0  0  0  0
 47 49  2  0  0  0  0
 48 51  1  0  0  0  0
 49 53  1  0  0  0  0
 50 52  1  0  0  0  0
 50 55  1  0  0  0  0
 51 56  1  0  0  0  0
 52 54  1  0  0  0  0
 52 57  1  0  0  0  0
 53 54  1  0  0  0  0
 55 58  1  0  0  0  0
 57 58  1  0  0  0  0
 60 61  1  0  0  0  0
M  END
> <PUBCHEM_COMPOUND_ID_TYPE>
0

> <PUBCHEM_TOTAL_CHARGE>
0

> <PUBCHEM_SUBSTANCE_ID>
310929970

> <PUBCHEM_SUBSTANCE_VERSION>
1

> <PUBCHEM_EXT_DATASOURCE_NAME>
4488

> <PUBCHEM_EXT_DATASOURCE_REGID>
SCHEMBL16107203

> <PUBCHEM_SUBSTANCE_COMMENT>
InChI=1S/C43H55N7O10S/c1-3-28-24-43(28,39(53)48-61(56,57)42(2)17-18-42)47-37(52)33-23-29-26-50(33)35(51)25-45-41(55)60-34-16-9-12-27(34)11-5-4-6-14-31-36(58-22-10-20-49-21-19-44-40(49)54)30-13-7-8-15-32(30)46-38(31)59-29/h3-4,6-8,13,15,27-29,33-34H,1,5,9-12,14,16-26H2,2H3,(H,44,54)(H,45,55)(H,47,52)(H,48,53)/t27?,28-,29?,33?,34?,43-/m1/s1
InChIKey=BZUPTTQRYVRPKA-UESQDVNVSA-N

> <PUBCHEM_SUBSTANCE_SYNONYM>
SCHEMBL16107203

> <PUBCHEM_XREF_EXT_ID>
SCHEMBL16107203

> <PUBCHEM_EXT_DATASOURCE_URL>
https://www.surechembl.org/

> <PUBCHEM_EXT_SUBSTANCE_URL>
https://www.surechembl.org/chemical/SCHEMBL16107203

> <PUBCHEM_CID_ASSOCIATIONS>
117599227  1

> <PUBCHEM_COORDINATE_TYPE>
1
3

> <PUBCHEM_BONDANNOTATIONS>
19  12  5
19  22  6
20  23  6
20  62  5
49  53  3

$$$$
