310937928
  -OEChem-07211613022D

 14 14  0     0  0  0  0  0  0999 V2000
    0.7186   -3.6851    0.0000 O   0  0  0  0  0  0  0  0  0  0  0  0
    2.8560   -2.4506    0.0000 N   0  0  0  0  0  0  0  0  0  0  0  0
    2.1189   -0.3869    0.0000 N   0  0  0  0  0  0  0  0  0  0  0  0
    1.4187    0.0000    0.0000 N   0  0  0  0  0  0  0  0  0  0  0  0
    1.4372   -2.4506    0.0000 C   0  0  0  0  0  0  0  0  0  0  0  0
    1.4372   -1.6215    0.0000 C   0  0  0  0  0  0  0  0  0  0  0  0
    0.7186   -2.8560    0.0000 C   0  0  0  0  0  0  0  0  0  0  0  0
    2.1373   -2.8560    0.0000 C   0  0  0  0  0  0  0  0  0  0  0  0
    2.1558   -1.2345    0.0000 C   0  0  0  0  0  0  0  0  0  0  0  0
    0.7370   -1.2345    0.0000 C   0  0  0  0  0  0  0  0  0  0  0  0
    0.7002   -0.4054    0.0000 C   0  0  0  0  0  0  0  0  0  0  0  0
    0.0000   -2.4506    0.0000 C   0  0  0  0  0  0  0  0  0  0  0  0
    3.5746   -2.8560    0.0000 C   0  0  0  0  0  0  0  0  0  0  0  0
    2.8560   -1.6215    0.0000 C   0  0  0  0  0  0  0  0  0  0  0  0
  1  7  2  0  0  0  0
  2  8  1  0  0  0  0
  2 13  1  0  0  0  0
  2 14  1  0  0  0  0
  3  4  2  0  0  0  0
  3  9  1  0  0  0  0
  4 11  1  0  0  0  0
  5  6  1  0  0  0  0
  5  7  1  0  0  0  0
  5  8  2  0  0  0  0
  6  9  2  0  0  0  0
  6 10  1  0  0  0  0
  7 12  1  0  0  0  0
 10 11  2  0  0  0  0
M  END
> <PUBCHEM_COMPOUND_ID_TYPE>
0

> <PUBCHEM_TOTAL_CHARGE>
0

> <PUBCHEM_SUBSTANCE_ID>
310937928

> <PUBCHEM_SUBSTANCE_VERSION>
1

> <PUBCHEM_EXT_DATASOURCE_NAME>
4488

> <PUBCHEM_EXT_DATASOURCE_REGID>
SCHEMBL16115757

> <PUBCHEM_SUBSTANCE_COMMENT>
InChI=1S/C10H13N3O/c1-8(14)10(7-13(2)3)9-4-5-11-12-6-9/h4-7H,1-3H3/b10-7-
InChIKey=DEIPGAVSOPHXPY-YFHOEESVSA-N

> <PUBCHEM_SUBSTANCE_SYNONYM>
SCHEMBL16115757

> <PUBCHEM_XREF_EXT_ID>
SCHEMBL16115757

> <PUBCHEM_EXT_DATASOURCE_URL>
https://www.surechembl.org/

> <PUBCHEM_EXT_SUBSTANCE_URL>
https://www.surechembl.org/chemical/SCHEMBL16115757

> <PUBCHEM_CID_ASSOCIATIONS>
117605538  1

> <PUBCHEM_COORDINATE_TYPE>
1
3

$$$$
