310948235
  -OEChem-07211613022D

 42 46  0     0  0  0  0  0  0999 V2000
   -2.5918   -3.4354    0.0000 S   0  0  0  0  0  0  0  0  0  0  0  0
   -0.8872    3.9225    0.0000 F   0  0  0  0  0  0  0  0  0  0  0  0
    0.1914    4.1139    0.0000 F   0  0  0  0  0  0  0  0  0  0  0  0
    0.3826    3.0180    0.0000 F   0  0  0  0  0  0  0  0  0  0  0  0
    3.2354   -3.4181    0.0000 F   0  0  0  0  0  0  0  0  0  0  0  0
    2.7136   -2.3918    0.0000 F   0  0  0  0  0  0  0  0  0  0  0  0
    2.1918   -3.8877    0.0000 F   0  0  0  0  0  0  0  0  0  0  0  0
    1.5655    0.9828    0.0000 O   0  0  0  0  0  0  0  0  0  0  0  0
    1.6873   -2.8788    0.0000 O   0  0  0  0  0  0  0  0  0  0  0  0
   -2.9745   -2.7919    0.0000 O   0  0  0  0  0  0  0  0  0  0  0  0
   -2.1743   -4.1139    0.0000 O   0  0  0  0  0  0  0  0  0  0  0  0
   -1.1655    1.5394    0.0000 N   0  0  0  0  0  0  0  0  0  0  0  0
    0.3479    1.5394    0.0000 N   0  0  0  0  0  0  0  0  0  0  0  0
   -0.5044    2.0265    0.0000 N   0  0  0  0  0  0  0  0  0  0  0  0
   -0.4523    0.3044    0.0000 C   0  0  0  0  0  0  0  0  0  0  0  0
    0.2609    0.7218    0.0000 C   0  0  0  0  0  0  0  0  0  0  0  0
   -1.1655    0.7218    0.0000 C   0  0  0  0  0  0  0  0  0  0  0  0
    1.0089    0.3566    0.0000 C   0  0  0  0  0  0  0  0  0  0  0  0
   -0.4697   -0.5305    0.0000 C   0  0  0  0  0  0  0  0  0  0  0  0
   -1.1481   -0.9306    0.0000 C   0  0  0  0  0  0  0  0  0  0  0  0
    1.1829   -0.4087    0.0000 C   0  0  0  0  0  0  0  0  0  0  0  0
   -1.8612    0.3044    0.0000 C   0  0  0  0  0  0  0  0  0  0  0  0
    1.1481    1.7134    0.0000 C   0  0  0  0  0  0  0  0  0  0  0  0
   -0.7481    2.7919    0.0000 C   0  0  0  0  0  0  0  0  0  0  0  0
   -1.1829   -1.7655    0.0000 C   0  0  0  0  0  0  0  0  0  0  0  0
   -1.8612   -0.5305    0.0000 C   0  0  0  0  0  0  0  0  0  0  0  0
   -1.8264    2.0265    0.0000 C   0  0  0  0  0  0  0  0  0  0  0  0
   -0.2609    3.4702    0.0000 C   0  0  0  0  0  0  0  0  0  0  0  0
   -1.5655    2.8093    0.0000 C   0  0  0  0  0  0  0  0  0  0  0  0
    0.5914   -0.9828    0.0000 C   0  0  0  0  0  0  0  0  0  0  0  0
    1.9656   -0.7044    0.0000 C   0  0  0  0  0  0  0  0  0  0  0  0
   -1.8612   -2.1830    0.0000 C   0  0  0  0  0  0  0  0  0  0  0  0
   -1.8960   -3.0180    0.0000 C   0  0  0  0  0  0  0  0  0  0  0  0
   -0.4523   -2.1830    0.0000 C   0  0  0  0  0  0  0  0  0  0  0  0
    1.5307   -2.0438    0.0000 C   0  0  0  0  0  0  0  0  0  0  0  0
    0.7481   -1.7829    0.0000 C   0  0  0  0  0  0  0  0  0  0  0  0
    2.1221   -1.5046    0.0000 C   0  0  0  0  0  0  0  0  0  0  0  0
    1.4785    2.4787    0.0000 C   0  0  0  0  0  0  0  0  0  0  0  0
   -1.1481   -3.4181    0.0000 C   0  0  0  0  0  0  0  0  0  0  0  0
   -0.4523   -3.0180    0.0000 C   0  0  0  0  0  0  0  0  0  0  0  0
    2.4527   -3.1398    0.0000 C   0  0  0  0  0  0  0  0  0  0  0  0
   -3.2354   -3.8356    0.0000 C   0  0  0  0  0  0  0  0  0  0  0  0
  1 10  2  0  0  0  0
  1 11  2  0  0  0  0
  1 33  1  0  0  0  0
  1 42  1  0  0  0  0
  2 28  1  0  0  0  0
  3 28  1  0  0  0  0
  4 28  1  0  0  0  0
  5 41  1  0  0  0  0
  6 41  1  0  0  0  0
  7 41  1  0  0  0  0
  8 18  1  0  0  0  0
  8 23  1  0  0  0  0
  9 35  1  0  0  0  0
  9 41  1  0  0  0  0
 12 14  1  0  0  0  0
 12 17  1  0  0  0  0
 12 27  1  0  0  0  0
 13 16  1  0  0  0  0
 13 23  2  0  0  0  0
 14 24  2  0  0  0  0
 15 16  1  0  0  0  0
 15 17  1  0  0  0  0
 15 19  2  0  0  0  0
 16 18  2  0  0  0  0
 17 22  2  0  0  0  0
 18 21  1  0  0  0  0
 19 20  1  0  0  0  0
 20 25  1  0  0  0  0
 20 26  2  0  0  0  0
 21 30  2  0  0  0  0
 21 31  1  0  0  0  0
 22 26  1  0  0  0  0
 23 38  1  0  0  0  0
 24 28  1  0  0  0  0
 24 29  1  0  0  0  0
 25 32  2  0  0  0  0
 25 34  1  0  0  0  0
 27 29  2  0  0  0  0
 30 36  1  0  0  0  0
 31 37  2  0  0  0  0
 32 33  1  0  0  0  0
 33 39  2  0  0  0  0
 34 40  2  0  0  0  0
 35 36  2  0  0  0  0
 35 37  1  0  0  0  0
 39 40  1  0  0  0  0
M  END
> <PUBCHEM_COMPOUND_ID_TYPE>
0

> <PUBCHEM_TOTAL_CHARGE>
0

> <PUBCHEM_SUBSTANCE_ID>
310948235

> <PUBCHEM_SUBSTANCE_VERSION>
1

> <PUBCHEM_EXT_DATASOURCE_NAME>
4488

> <PUBCHEM_EXT_DATASOURCE_REGID>
SCHEMBL16126412

> <PUBCHEM_SUBSTANCE_COMMENT>
InChI=1S/C28H19F6N3O4S/c1-16-35-25(26(40-16)17-6-9-20(10-7-17)41-28(32,33)34)22-15-19(18-4-3-5-21(14-18)42(2,38)39)8-11-23(22)37-13-12-24(36-37)27(29,30)31/h3-15H,1-2H3
InChIKey=OCELPYFRBNNUBS-UHFFFAOYSA-N

> <PUBCHEM_SUBSTANCE_SYNONYM>
SCHEMBL16126412

> <PUBCHEM_XREF_EXT_ID>
SCHEMBL16126412

> <PUBCHEM_EXT_DATASOURCE_URL>
https://www.surechembl.org/

> <PUBCHEM_EXT_SUBSTANCE_URL>
https://www.surechembl.org/chemical/SCHEMBL16126412

> <PUBCHEM_CID_ASSOCIATIONS>
117613815  1

> <PUBCHEM_COORDINATE_TYPE>
1
3

$$$$
