310945237
  -OEChem-07211613022D

 19 19  0     0  0  0  0  0  0999 V2000
    0.0069   -1.0794    0.0000 O   0  0  0  0  0  0  0  0  0  0  0  0
    2.4957    1.7806    0.0000 O   0  0  0  0  0  0  0  0  0  0  0  0
   -2.0694    1.0656    0.0000 O   0  0  0  0  0  0  0  0  0  0  0  0
   -2.0694   -1.7944    0.0000 O   0  0  0  0  0  0  0  0  0  0  0  0
   -0.8319    0.3644    0.0000 N   0  0  0  0  0  0  0  0  0  0  0  0
    1.2444    2.5094    0.0000 N   0  0  0  0  0  0  0  0  0  0  0  0
    0.0069    0.3644    0.0000 C   0  0  0  0  0  0  0  0  0  0  0  0
    0.4194   -0.3506    0.0000 C   0  0  0  0  0  0  0  0  0  0  0  0
    1.2306    1.0656    0.0000 C   0  0  0  0  0  0  0  0  0  0  0  0
    0.4194    1.0656    0.0000 C   0  0  0  0  0  0  0  0  0  0  0  0
    1.2444   -0.3506    0.0000 C   0  0  0  0  0  0  0  0  0  0  0  0
    1.6569    0.3644    0.0000 C   0  0  0  0  0  0  0  0  0  0  0  0
    1.6293    1.7944    0.0000 C   0  0  0  0  0  0  0  0  0  0  0  0
   -1.2306    1.0794    0.0000 C   0  0  0  0  0  0  0  0  0  0  0  0
   -0.8319   -1.0794    0.0000 C   0  0  0  0  0  0  0  0  0  0  0  0
   -0.8319    1.7944    0.0000 C   0  0  0  0  0  0  0  0  0  0  0  0
   -1.2444   -1.7807    0.0000 C   0  0  0  0  0  0  0  0  0  0  0  0
   -1.3131    2.4819    0.0000 C   0  0  0  0  0  0  0  0  0  0  0  0
   -2.4957   -2.5094    0.0000 C   0  0  0  0  0  0  0  0  0  0  0  0
  1  8  1  0  0  0  0
  1 15  1  0  0  0  0
  2 13  2  0  0  0  0
  3 14  2  0  0  0  0
  4 17  1  0  0  0  0
  4 19  1  0  0  0  0
  5  7  1  0  0  0  0
  5 14  1  0  0  0  0
  6 13  1  0  0  0  0
  7  8  2  0  0  0  0
  7 10  1  0  0  0  0
  8 11  1  0  0  0  0
  9 10  2  0  0  0  0
  9 12  1  0  0  0  0
  9 13  1  0  0  0  0
 11 12  2  0  0  0  0
 14 16  1  0  0  0  0
 15 17  1  0  0  0  0
 16 18  2  0  0  0  0
M  END
> <PUBCHEM_COMPOUND_ID_TYPE>
0

> <PUBCHEM_TOTAL_CHARGE>
0

> <PUBCHEM_SUBSTANCE_ID>
310945237

> <PUBCHEM_SUBSTANCE_VERSION>
1

> <PUBCHEM_EXT_DATASOURCE_NAME>
4488

> <PUBCHEM_EXT_DATASOURCE_REGID>
SCHEMBL16123328

> <PUBCHEM_SUBSTANCE_COMMENT>
InChI=1S/C13H16N2O4/c1-3-12(16)15-10-8-9(13(14)17)4-5-11(10)19-7-6-18-2/h3-5,8H,1,6-7H2,2H3,(H2,14,17)(H,15,16)
InChIKey=SHXCOUDIJXNBHB-UHFFFAOYSA-N

> <PUBCHEM_SUBSTANCE_SYNONYM>
SCHEMBL16123328

> <PUBCHEM_XREF_EXT_ID>
SCHEMBL16123328

> <PUBCHEM_EXT_DATASOURCE_URL>
https://www.surechembl.org/

> <PUBCHEM_EXT_SUBSTANCE_URL>
https://www.surechembl.org/chemical/SCHEMBL16123328

> <PUBCHEM_CID_ASSOCIATIONS>
117611308  1

> <PUBCHEM_COORDINATE_TYPE>
1
3

$$$$
