310936874
  -OEChem-07211613022D

 19 22  0     0  0  0  0  0  0999 V2000
    0.8701   -1.3052    0.0000 O   0  0  0  0  0  0  0  0  0  0  0  0
    0.0000   -2.7313    0.0000 O   0  0  0  0  0  0  0  0  0  0  0  0
    2.0545   -2.0304    0.0000 C   0  0  0  0  0  0  0  0  0  0  0  0
    2.4896   -2.7313    0.0000 C   0  0  0  0  0  0  0  0  0  0  0  0
    2.0545   -3.4323    0.0000 C   0  0  0  0  0  0  0  0  0  0  0  0
    2.4896   -1.3294    0.0000 C   0  0  0  0  0  0  0  0  0  0  0  0
    1.2569   -2.0304    0.0000 C   0  0  0  0  0  0  0  0  0  0  0  0
    1.2569   -3.4323    0.0000 C   0  0  0  0  0  0  0  0  0  0  0  0
    0.8218   -2.7313    0.0000 C   0  0  0  0  0  0  0  0  0  0  0  0
    3.2631   -1.3294    0.0000 C   0  0  0  0  0  0  0  0  0  0  0  0
    3.2631   -2.7313    0.0000 C   0  0  0  0  0  0  0  0  0  0  0  0
    3.6982   -2.0304    0.0000 C   0  0  0  0  0  0  0  0  0  0  0  0
    2.2237   -0.5318    0.0000 C   0  0  0  0  0  0  0  0  0  0  0  0
    2.4896   -4.1332    0.0000 C   0  0  0  0  0  0  0  0  0  0  0  0
    0.8218   -4.1332    0.0000 C   0  0  0  0  0  0  0  0  0  0  0  0
    3.5290   -0.5318    0.0000 C   0  0  0  0  0  0  0  0  0  0  0  0
    2.8280    0.0000    0.0000 C   0  0  0  0  0  0  0  0  0  0  0  0
    2.0545   -4.8342    0.0000 C   0  0  0  0  0  0  0  0  0  0  0  0
    1.2569   -4.8342    0.0000 C   0  0  0  0  0  0  0  0  0  0  0  0
  1  7  1  0  0  0  0
  2  9  1  0  0  0  0
  3  4  1  0  0  0  0
  3  6  2  0  0  0  0
  3  7  1  0  0  0  0
  4  5  2  0  0  0  0
  4 11  1  0  0  0  0
  5  8  1  0  0  0  0
  5 14  1  0  0  0  0
  6 10  1  0  0  0  0
  6 13  1  0  0  0  0
  7  9  2  0  0  0  0
  8  9  1  0  0  0  0
  8 15  2  0  0  0  0
 10 12  1  0  0  0  0
 10 16  2  0  0  0  0
 11 12  2  0  0  0  0
 13 17  2  0  0  0  0
 14 18  1  0  0  0  0
 15 19  1  0  0  0  0
 16 17  1  0  0  0  0
 18 19  2  0  0  0  0
M  END
> <PUBCHEM_COMPOUND_ID_TYPE>
0

> <PUBCHEM_TOTAL_CHARGE>
0

> <PUBCHEM_SUBSTANCE_ID>
310936874

> <PUBCHEM_SUBSTANCE_VERSION>
1

> <PUBCHEM_EXT_DATASOURCE_NAME>
4488

> <PUBCHEM_EXT_DATASOURCE_REGID>
SCHEMBL16114569

> <PUBCHEM_SUBSTANCE_COMMENT>
InChI=1S/C17H12O2/c18-16-14-6-2-1-5-12(14)13-9-8-10-4-3-7-11(10)15(13)17(16)19/h1-4,6-9,18-19H,5H2
InChIKey=FNTSRQAUTMTKOC-UHFFFAOYSA-N

> <PUBCHEM_SUBSTANCE_SYNONYM>
SCHEMBL16114569

> <PUBCHEM_XREF_EXT_ID>
SCHEMBL16114569

> <PUBCHEM_EXT_DATASOURCE_URL>
https://www.surechembl.org/

> <PUBCHEM_EXT_SUBSTANCE_URL>
https://www.surechembl.org/chemical/SCHEMBL16114569

> <PUBCHEM_CID_ASSOCIATIONS>
117604766  1

> <PUBCHEM_COORDINATE_TYPE>
1
3

$$$$
