310949899
  -OEChem-07211613022D

 42 44  0     1  0  0  0  0  0999 V2000
   -3.0071   -0.4921    0.0000 P   0  0  3  0  0  0  0  0  0  0  0  0
    0.2634   -2.0031    0.0000 F   0  0  0  0  0  0  0  0  0  0  0  0
   -0.1640    0.0646    0.0000 O   0  0  0  0  0  0  0  0  0  0  0  0
   -1.0488   -1.8838    0.0000 O   0  0  0  0  0  0  0  0  0  0  0  0
   -2.2218   -0.7406    0.0000 O   0  0  0  0  0  0  0  0  0  0  0  0
    0.8400    1.1979    0.0000 O   0  0  0  0  0  0  0  0  0  0  0  0
   -3.2259   -1.2973    0.0000 O   0  0  0  0  0  0  0  0  0  0  0  0
   -2.7686    0.2933    0.0000 O   0  0  0  0  0  0  0  0  0  0  0  0
   -5.0550    1.4862    0.0000 O   0  0  0  0  0  0  0  0  0  0  0  0
    4.1007   -0.7207    0.0000 O   0  0  0  0  0  0  0  0  0  0  0  0
   -5.4228    0.1242    0.0000 O   0  0  0  0  0  0  0  0  0  0  0  0
    1.2874   -0.1441    0.0000 N   0  0  0  0  0  0  0  0  0  0  0  0
    2.2417    0.9096    0.0000 N   0  0  0  0  0  0  0  0  0  0  0  0
   -3.8124   -0.2933    0.0000 N   0  0  0  0  0  0  0  0  0  0  0  0
    3.6434    0.6213    0.0000 N   0  0  0  0  0  0  0  0  0  0  0  0
    5.6514   -0.1938    0.0000 N   0  0  0  0  0  0  0  0  0  0  0  0
    0.2535   -1.1780    0.0000 C   0  0  3  0  0  0  0  0  0  0  0  0
    0.5119   -0.3927    0.0000 C   0  0  3  0  0  0  0  0  0  0  0  0
   -0.5716   -1.1880    0.0000 C   0  0  3  0  0  0  0  0  0  0  0  0
   -0.8301   -0.4026    0.0000 C   0  0  3  0  0  0  0  0  0  0  0  0
    1.4663    0.6511    0.0000 C   0  0  0  0  0  0  0  0  0  0  0  0
   -1.6154   -0.1740    0.0000 C   0  0  0  0  0  0  0  0  0  0  0  0
    1.0289   -1.3967    0.0000 C   0  0  0  0  0  0  0  0  0  0  0  0
    1.9136   -0.6810    0.0000 C   0  0  0  0  0  0  0  0  0  0  0  0
    2.8580    0.3828    0.0000 C   0  0  0  0  0  0  0  0  0  0  0  0
    2.6691   -0.4225    0.0000 C   0  0  0  0  0  0  0  0  0  0  0  0
   -4.0510   -1.4862    0.0000 C   0  0  0  0  0  0  0  0  0  0  0  0
   -4.0510    0.5119    0.0000 C   0  0  3  0  0  0  0  0  0  0  0  0
    4.2796    0.1242    0.0000 C   0  0  0  0  0  0  0  0  0  0  0  0
   -4.8363    0.7307    0.0000 C   0  0  0  0  0  0  0  0  0  0  0  0
   -4.6077   -0.8996    0.0000 C   0  0  0  0  0  0  0  0  0  0  0  0
   -4.2796   -2.2814    0.0000 C   0  0  0  0  0  0  0  0  0  0  0  0
   -3.4545    1.0885    0.0000 C   0  0  0  0  0  0  0  0  0  0  0  0
    5.0451    0.3430    0.0000 C   0  0  0  0  0  0  0  0  0  0  0  0
   -5.4129   -1.1084    0.0000 C   0  0  0  0  0  0  0  0  0  0  0  0
   -5.0351   -2.4803    0.0000 C   0  0  0  0  0  0  0  0  0  0  0  0
   -5.6216   -1.9136    0.0000 C   0  0  0  0  0  0  0  0  0  0  0  0
   -5.8702    1.7247    0.0000 C   0  0  0  0  0  0  0  0  0  0  0  0
   -6.0789    2.4803    0.0000 C   0  0  0  0  0  0  0  0  0  0  0  0
   -6.4467    1.1184    0.0000 C   0  0  0  0  0  0  0  0  0  0  0  0
    5.4825   -1.0090    0.0000 C   0  0  0  0  0  0  0  0  0  0  0  0
    6.4467    0.0546    0.0000 C   0  0  0  0  0  0  0  0  0  0  0  0
  1  5  1  0  0  0  0
  1  7  1  1  0  0  0
  1  8  2  0  0  0  0
  1 14  1  6  0  0  0
 17  2  1  6  0  0  0
 18  3  1  1  0  0  0
  3 20  1  0  0  0  0
 19  4  1  6  0  0  0
  5 22  1  0  0  0  0
  6 21  2  0  0  0  0
  7 27  1  0  0  0  0
  9 30  1  0  0  0  0
  9 38  1  0  0  0  0
 10 29  2  0  0  0  0
 11 30  2  0  0  0  0
 12 18  1  0  0  0  0
 12 21  1  0  0  0  0
 12 24  1  0  0  0  0
 13 21  1  0  0  0  0
 13 25  2  0  0  0  0
 14 28  1  0  0  0  0
 15 25  1  0  0  0  0
 15 29  1  0  0  0  0
 16 34  1  0  0  0  0
 16 41  1  0  0  0  0
 16 42  1  0  0  0  0
 17 18  1  0  0  0  0
 17 19  1  0  0  0  0
 17 23  1  1  0  0  0
 19 20  1  0  0  0  0
 20 22  1  1  0  0  0
 24 26  2  0  0  0  0
 25 26  1  0  0  0  0
 27 31  2  0  0  0  0
 27 32  1  0  0  0  0
 28 30  1  0  0  0  0
 28 33  1  6  0  0  0
 29 34  1  0  0  0  0
 31 35  1  0  0  0  0
 32 36  2  0  0  0  0
 35 37  2  0  0  0  0
 36 37  1  0  0  0  0
 38 39  1  0  0  0  0
 38 40  1  0  0  0  0
M  END
> <PUBCHEM_COMPOUND_ID_TYPE>
0

> <PUBCHEM_TOTAL_CHARGE>
0

> <PUBCHEM_SUBSTANCE_ID>
310949899

> <PUBCHEM_SUBSTANCE_VERSION>
1

> <PUBCHEM_EXT_DATASOURCE_NAME>
4488

> <PUBCHEM_EXT_DATASOURCE_REGID>
SCHEMBL16128120

> <PUBCHEM_SUBSTANCE_COMMENT>
InChI=1S/C26H37FN5O9P/c1-16(2)39-23(35)17(3)30-42(37,41-18-10-8-7-9-11-18)38-15-19-22(34)26(4,27)24(40-19)32-13-12-20(29-25(32)36)28-21(33)14-31(5)6/h7-13,16-17,19,22,24,34H,14-15H2,1-6H3,(H,30,37)(H,28,29,33,36)/t17-,19+,22+,24+,26+,42-/m0/s1
InChIKey=ILYRIFYHHKPYLL-SOTYEDEHSA-N

> <PUBCHEM_SUBSTANCE_SYNONYM>
SCHEMBL16128120

> <PUBCHEM_XREF_EXT_ID>
SCHEMBL16128120

> <PUBCHEM_EXT_DATASOURCE_URL>
https://www.surechembl.org/

> <PUBCHEM_EXT_SUBSTANCE_URL>
https://www.surechembl.org/chemical/SCHEMBL16128120

> <PUBCHEM_CID_ASSOCIATIONS>
86270313  1

> <PUBCHEM_COORDINATE_TYPE>
1
3

> <PUBCHEM_BONDANNOTATIONS>
1  14  6
1  7  5
17  23  5
17  2  6
20  22  5
28  33  6
18  3  5
19  4  6

$$$$
