310948740
  -OEChem-07211613022D

 33 37  0     1  0  0  0  0  0999 V2000
   -2.5964    1.9311    0.0000 O   0  0  0  0  0  0  0  0  0  0  0  0
   -1.1180   -3.2617    0.0000 O   0  0  0  0  0  0  0  0  0  0  0  0
    0.1755    1.7833    0.0000 N   0  0  0  0  0  0  0  0  0  0  0  0
   -0.1756    1.0256    0.0000 N   0  0  0  0  0  0  0  0  0  0  0  0
   -1.5615    0.5266    0.0000 N   0  0  0  0  0  0  0  0  0  0  0  0
   -1.8572    3.1878    0.0000 N   0  0  0  0  0  0  0  0  0  0  0  0
    0.2495   -2.8181    0.0000 N   0  0  0  0  0  0  0  0  0  0  0  0
    0.9887   -0.2495    0.0000 N   0  0  0  0  0  0  0  0  0  0  0  0
   -1.1550    1.9496    0.0000 C   0  0  0  0  0  0  0  0  0  0  0  0
   -0.4527    2.3377    0.0000 C   0  0  0  0  0  0  0  0  0  0  0  0
   -1.0072    1.1365    0.0000 C   0  0  0  0  0  0  0  0  0  0  0  0
    0.9702    1.9496    0.0000 C   0  0  3  0  0  0  0  0  0  0  0  0
   -1.8757    2.3746    0.0000 C   0  0  0  0  0  0  0  0  0  0  0  0
   -0.4343    3.1693    0.0000 C   0  0  0  0  0  0  0  0  0  0  0  0
    1.5246    1.3398    0.0000 C   0  0  3  0  0  0  0  0  0  0  0  0
   -1.3028   -0.2495    0.0000 C   0  0  0  0  0  0  0  0  0  0  0  0
   -1.1735    3.5943    0.0000 C   0  0  0  0  0  0  0  0  0  0  0  0
    1.2474    2.7257    0.0000 C   0  0  0  0  0  0  0  0  0  0  0  0
   -0.8224   -1.8572    0.0000 C   0  0  0  0  0  0  0  0  0  0  0  0
   -1.6170   -1.6539    0.0000 C   0  0  0  0  0  0  0  0  0  0  0  0
   -1.8388   -0.8593    0.0000 C   0  0  0  0  0  0  0  0  0  0  0  0
   -0.5082   -0.4527    0.0000 C   0  0  0  0  0  0  0  0  0  0  0  0
    2.3377    1.4876    0.0000 C   0  0  0  0  0  0  0  0  0  0  0  0
   -0.5637   -2.6149    0.0000 C   0  0  0  0  0  0  0  0  0  0  0  0
   -0.2495   -1.2289    0.0000 C   0  0  0  0  0  0  0  0  0  0  0  0
    1.2474    0.5451    0.0000 C   0  0  0  0  0  0  0  0  0  0  0  0
    2.0420    2.8921    0.0000 C   0  0  0  0  0  0  0  0  0  0  0  0
    2.5964    2.3007    0.0000 C   0  0  0  0  0  0  0  0  0  0  0  0
   -2.1714   -2.2822    0.0000 C   0  0  0  0  0  0  0  0  0  0  0  0
    0.6006   -3.5943    0.0000 C   0  0  0  0  0  0  0  0  0  0  0  0
    0.8593   -2.2822    0.0000 C   0  0  0  0  0  0  0  0  0  0  0  0
    1.3952   -3.5204    0.0000 C   0  0  0  0  0  0  0  0  0  0  0  0
    1.5800   -2.7073    0.0000 C   0  0  0  0  0  0  0  0  0  0  0  0
  1 13  2  0  0  0  0
  2 24  2  0  0  0  0
  3  4  1  0  0  0  0
  3 10  1  0  0  0  0
 12  3  1  1  0  0  0
  4 11  2  0  0  0  0
  5 11  1  0  0  0  0
  5 16  1  0  0  0  0
  6 13  1  0  0  0  0
  6 17  1  0  0  0  0
  7 24  1  0  0  0  0
  7 30  1  0  0  0  0
  7 31  1  0  0  0  0
  8 26  3  0  0  0  0
  9 10  2  0  0  0  0
  9 11  1  0  0  0  0
  9 13  1  0  0  0  0
 10 14  1  0  0  0  0
 12 15  1  0  0  0  0
 12 18  1  0  0  0  0
 14 17  2  0  0  0  0
 15 23  1  0  0  0  0
 15 26  1  6  0  0  0
 16 21  2  0  0  0  0
 16 22  1  0  0  0  0
 18 27  1  0  0  0  0
 19 20  2  0  0  0  0
 19 24  1  0  0  0  0
 19 25  1  0  0  0  0
 20 21  1  0  0  0  0
 20 29  1  0  0  0  0
 22 25  2  0  0  0  0
 23 28  1  0  0  0  0
 27 28  1  0  0  0  0
 30 32  1  0  0  0  0
 31 33  1  0  0  0  0
 32 33  1  0  0  0  0
M  END
> <PUBCHEM_COMPOUND_ID_TYPE>
0

> <PUBCHEM_TOTAL_CHARGE>
0

> <PUBCHEM_SUBSTANCE_ID>
310948740

> <PUBCHEM_SUBSTANCE_VERSION>
1

> <PUBCHEM_EXT_DATASOURCE_NAME>
4488

> <PUBCHEM_EXT_DATASOURCE_REGID>
SCHEMBL16126924

> <PUBCHEM_SUBSTANCE_COMMENT>
InChI=1S/C25H28N6O2/c1-16-14-18(8-9-19(16)25(33)30-12-4-5-13-30)28-23-22-21(10-11-27-24(22)32)31(29-23)20-7-3-2-6-17(20)15-26/h8-11,14,17,20H,2-7,12-13H2,1H3,(H,27,32)(H,28,29)/t17-,20+/m1/s1
InChIKey=WZWDGTNVIDQZIW-XLIONFOSSA-N

> <PUBCHEM_SUBSTANCE_SYNONYM>
SCHEMBL16126924

> <PUBCHEM_XREF_EXT_ID>
SCHEMBL16126924

> <PUBCHEM_EXT_DATASOURCE_URL>
https://www.surechembl.org/

> <PUBCHEM_EXT_SUBSTANCE_URL>
https://www.surechembl.org/chemical/SCHEMBL16126924

> <PUBCHEM_CID_ASSOCIATIONS>
117614282  1

> <PUBCHEM_COORDINATE_TYPE>
1
3

> <PUBCHEM_BONDANNOTATIONS>
15  26  6
12  3  5

$$$$
