310931479
  -OEChem-07211613022D

 37 42  0     0  0  0  0  0  0999 V2000
    3.2454   -2.7245    0.0000 O   0  0  0  0  0  0  0  0  0  0  0  0
    4.6878   -2.4841    0.0000 N   0  0  0  0  0  0  0  0  0  0  0  0
    5.0884   -3.7662    0.0000 N   0  0  0  0  0  0  0  0  0  0  0  0
    6.0901   -2.7245    0.0000 N   0  0  0  0  0  0  0  0  0  0  0  0
    0.3606   -5.4891    0.0000 N   0  0  0  0  0  0  0  0  0  0  0  0
    4.0067   -8.0133    0.0000 N   0  0  0  0  0  0  0  0  0  0  0  0
    4.2470   -3.7662    0.0000 C   0  0  0  0  0  0  0  0  0  0  0  0
    4.0067   -2.9649    0.0000 C   0  0  0  0  0  0  0  0  0  0  0  0
    3.7662   -4.4073    0.0000 C   0  0  0  0  0  0  0  0  0  0  0  0
    4.6477   -4.4874    0.0000 C   0  0  0  0  0  0  0  0  0  0  0  0
    5.3288   -2.9649    0.0000 C   0  0  0  0  0  0  0  0  0  0  0  0
    4.6878   -1.6828    0.0000 C   0  0  0  0  0  0  0  0  0  0  0  0
    2.9649   -4.3272    0.0000 C   0  0  0  0  0  0  0  0  0  0  0  0
    4.3673   -5.3288    0.0000 C   0  0  0  0  0  0  0  0  0  0  0  0
    4.1268   -5.1686    0.0000 C   0  0  0  0  0  0  0  0  0  0  0  0
    5.4490   -4.5275    0.0000 C   0  0  0  0  0  0  0  0  0  0  0  0
    2.4841   -5.0083    0.0000 C   0  0  0  0  0  0  0  0  0  0  0  0
    4.5676   -5.8898    0.0000 C   0  0  0  0  0  0  0  0  0  0  0  0
    3.9666   -1.2421    0.0000 C   0  0  0  0  0  0  0  0  0  0  0  0
    5.3689   -1.2421    0.0000 C   0  0  0  0  0  0  0  0  0  0  0  0
    3.6460   -5.8497    0.0000 C   0  0  0  0  0  0  0  0  0  0  0  0
    5.8096   -5.2887    0.0000 C   0  0  0  0  0  0  0  0  0  0  0  0
    2.8046   -5.7695    0.0000 C   0  0  0  0  0  0  0  0  0  0  0  0
    5.3689   -5.9699    0.0000 C   0  0  0  0  0  0  0  0  0  0  0  0
    1.6427   -4.9281    0.0000 C   0  0  0  0  0  0  0  0  0  0  0  0
    4.1268   -6.6109    0.0000 C   0  0  0  0  0  0  0  0  0  0  0  0
    3.9666   -0.4407    0.0000 C   0  0  0  0  0  0  0  0  0  0  0  0
    5.3689   -0.4407    0.0000 C   0  0  0  0  0  0  0  0  0  0  0  0
    1.1619   -5.5692    0.0000 C   0  0  0  0  0  0  0  0  0  0  0  0
    4.4473   -7.3322    0.0000 C   0  0  0  0  0  0  0  0  0  0  0  0
    1.3222   -4.1669    0.0000 C   0  0  0  0  0  0  0  0  0  0  0  0
    3.2854   -6.5709    0.0000 C   0  0  0  0  0  0  0  0  0  0  0  0
    4.6878    0.0000    0.0000 C   0  0  0  0  0  0  0  0  0  0  0  0
    0.5209   -4.0868    0.0000 C   0  0  0  0  0  0  0  0  0  0  0  0
    2.8447   -7.2520    0.0000 C   0  0  0  0  0  0  0  0  0  0  0  0
    0.0000   -4.7278    0.0000 C   0  0  0  0  0  0  0  0  0  0  0  0
    3.2053   -7.9732    0.0000 C   0  0  0  0  0  0  0  0  0  0  0  0
  1  8  2  0  0  0  0
  2  8  1  0  0  0  0
  2 11  1  0  0  0  0
  2 12  1  0  0  0  0
  3  7  1  0  0  0  0
  3 11  1  0  0  0  0
  4 11  2  3  0  0  0
  5 29  1  0  0  0  0
  5 36  2  0  0  0  0
  6 30  1  0  0  0  0
  6 37  2  0  0  0  0
  7  8  1  0  0  0  0
  7  9  1  0  0  0  0
  7 10  1  0  0  0  0
  9 13  1  0  0  0  0
  9 15  2  0  0  0  0
 10 14  1  0  0  0  0
 10 16  2  0  0  0  0
 12 19  1  0  0  0  0
 12 20  1  0  0  0  0
 13 17  2  0  0  0  0
 14 18  2  0  0  0  0
 15 21  1  0  0  0  0
 16 22  1  0  0  0  0
 17 23  1  0  0  0  0
 17 25  1  0  0  0  0
 18 24  1  0  0  0  0
 18 26  1  0  0  0  0
 19 27  1  0  0  0  0
 20 28  1  0  0  0  0
 21 23  2  0  0  0  0
 22 24  2  0  0  0  0
 25 29  2  0  0  0  0
 25 31  1  0  0  0  0
 26 30  2  0  0  0  0
 26 32  1  0  0  0  0
 27 33  1  0  0  0  0
 28 33  1  0  0  0  0
 31 34  2  0  0  0  0
 32 35  2  0  0  0  0
 34 36  1  0  0  0  0
 35 37  1  0  0  0  0
M  END
> <PUBCHEM_COMPOUND_ID_TYPE>
0

> <PUBCHEM_TOTAL_CHARGE>
0

> <PUBCHEM_SUBSTANCE_ID>
310931479

> <PUBCHEM_SUBSTANCE_VERSION>
1

> <PUBCHEM_EXT_DATASOURCE_NAME>
4488

> <PUBCHEM_EXT_DATASOURCE_REGID>
SCHEMBL16108804

> <PUBCHEM_SUBSTANCE_COMMENT>
InChI=1S/C31H29N5O/c32-30-35-31(29(37)36(30)28-14-2-1-3-15-28,26-12-4-8-22(18-26)24-10-6-16-33-20-24)27-13-5-9-23(19-27)25-11-7-17-34-21-25/h4-13,16-21,28H,1-3,14-15H2,(H2,32,35)
InChIKey=LFQKXLAQWGBCCO-UHFFFAOYSA-N

> <PUBCHEM_SUBSTANCE_SYNONYM>
SCHEMBL16108804

> <PUBCHEM_XREF_EXT_ID>
SCHEMBL16108804

> <PUBCHEM_EXT_DATASOURCE_URL>
https://www.surechembl.org/

> <PUBCHEM_EXT_SUBSTANCE_URL>
https://www.surechembl.org/chemical/SCHEMBL16108804

> <PUBCHEM_CID_ASSOCIATIONS>
76317504  1

> <PUBCHEM_COORDINATE_TYPE>
1
3

$$$$
