310939847
  -OEChem-07211613022D

 21 21  0     0  0  0  0  0  0999 V2000
   -2.2681    1.2995    0.0000 S   0  0  0  0  0  0  0  0  0  0  0  0
   -0.7345   -0.4439    0.0000 O   0  0  0  0  0  0  0  0  0  0  0  0
    0.0403    0.8636    0.0000 O   0  0  0  0  0  0  0  0  0  0  0  0
    3.0914   -0.0081    0.0000 O   0  0  0  0  0  0  0  0  0  0  0  0
    2.3488   -1.2995    0.0000 O   0  0  0  0  0  0  0  0  0  0  0  0
   -3.8017    1.2995    0.0000 N   0  0  0  0  0  0  0  0  0  0  0  0
   -3.0430   -0.0081    0.0000 N   0  0  0  0  0  0  0  0  0  0  0  0
   -0.6272    0.2457    0.0000 C   0  0  0  0  0  0  0  0  0  0  0  0
   -3.0430    0.8798    0.0000 C   0  0  0  0  0  0  0  0  0  0  0  0
   -1.0280    0.0129    0.0000 C   0  0  0  0  0  0  0  0  0  0  0  0
   -0.2263    0.0129    0.0000 C   0  0  0  0  0  0  0  0  0  0  0  0
    0.0403    0.0081    0.0000 C   0  0  0  0  0  0  0  0  0  0  0  0
   -2.2358   -0.4116    0.0000 C   0  0  0  0  0  0  0  0  0  0  0  0
    0.8475   -0.4116    0.0000 C   0  0  0  0  0  0  0  0  0  0  0  0
   -1.0280   -0.4526    0.0000 C   0  0  0  0  0  0  0  0  0  0  0  0
   -0.2263   -0.4526    0.0000 C   0  0  0  0  0  0  0  0  0  0  0  0
   -1.5094    0.0081    0.0000 C   0  0  0  0  0  0  0  0  0  0  0  0
    1.5578    0.0081    0.0000 C   0  0  0  0  0  0  0  0  0  0  0  0
    2.3488   -0.3955    0.0000 C   0  0  0  0  0  0  0  0  0  0  0  0
   -0.6272   -0.6854    0.0000 C   0  0  0  0  0  0  0  0  0  0  0  0
    3.8017   -0.4923    0.0000 C   0  0  0  0  0  0  0  0  0  0  0  0
  1  9  2  0  0  0  0
  2 12  1  0  0  0  0
  2 17  1  0  0  0  0
  3 12  2  0  0  0  0
  4 19  1  0  0  0  0
  4 21  1  0  0  0  0
  5 19  2  0  0  0  0
  6  8  1  0  0  0  0
  6  9  1  0  0  0  0
  7  9  1  0  0  0  0
  7 13  1  0  0  0  0
  8 10  2  0  0  0  0
  8 11  1  0  0  0  0
 10 15  1  0  0  0  0
 11 16  2  0  0  0  0
 12 14  1  0  0  0  0
 13 17  1  0  0  0  0
 14 18  2  0  0  0  0
 15 20  2  0  0  0  0
 16 20  1  0  0  0  0
 18 19  1  0  0  0  0
M  END
> <PUBCHEM_COMPOUND_ID_TYPE>
0

> <PUBCHEM_TOTAL_CHARGE>
0

> <PUBCHEM_SUBSTANCE_ID>
310939847

> <PUBCHEM_SUBSTANCE_VERSION>
1

> <PUBCHEM_EXT_DATASOURCE_NAME>
4488

> <PUBCHEM_EXT_DATASOURCE_REGID>
SCHEMBL16117777

> <PUBCHEM_SUBSTANCE_COMMENT>
InChI=1S/C14H16N2O4S/c1-19-12(17)7-8-13(18)20-10-9-15-14(21)16-11-5-3-2-4-6-11/h2-8H,9-10H2,1H3,(H2,15,16,21)/b8-7+
InChIKey=YZURELOHBKENGV-BQYQJAHWSA-N

> <PUBCHEM_SUBSTANCE_SYNONYM>
SCHEMBL16117777

> <PUBCHEM_XREF_EXT_ID>
SCHEMBL16117777

> <PUBCHEM_EXT_DATASOURCE_URL>
https://www.surechembl.org/

> <PUBCHEM_EXT_SUBSTANCE_URL>
https://www.surechembl.org/chemical/SCHEMBL16117777

> <PUBCHEM_CID_ASSOCIATIONS>
117607064  1

> <PUBCHEM_COORDINATE_TYPE>
1
3

$$$$
