310931692
  -OEChem-07211613022D

 31 34  0     0  0  0  0  0  0999 V2000
    2.6181    0.0000    0.0000 F   0  0  0  0  0  0  0  0  0  0  0  0
    4.0080   -2.7474    0.0000 O   0  0  0  0  0  0  0  0  0  0  0  0
    8.4685   -2.8121    0.0000 O   0  0  0  0  0  0  0  0  0  0  0  0
    9.6968   -2.6504    0.0000 O   0  0  0  0  0  0  0  0  0  0  0  0
    4.9130   -1.5838    0.0000 N   0  0  0  0  0  0  0  0  0  0  0  0
    7.7574   -4.0726    0.0000 N   0  0  0  0  0  0  0  0  0  0  0  0
    4.8161   -0.7757    0.0000 N   0  0  0  0  0  0  0  0  0  0  0  0
    6.3352   -1.5838    0.0000 N   0  0  0  0  0  0  0  0  0  0  0  0
    0.0000   -2.4565    0.0000 N   0  0  0  0  0  0  0  0  0  0  0  0
    8.4685   -4.4605    0.0000 C   0  0  0  0  0  0  0  0  0  0  0  0
    3.5878   -1.3252    0.0000 C   0  0  0  0  0  0  0  0  0  0  0  0
    4.1696   -1.9394    0.0000 C   0  0  0  0  0  0  0  0  0  0  0  0
    2.7798   -1.4222    0.0000 C   0  0  0  0  0  0  0  0  0  0  0  0
    5.6241   -2.0040    0.0000 C   0  0  0  0  0  0  0  0  0  0  0  0
    9.1150   -4.9777    0.0000 C   0  0  0  0  0  0  0  0  0  0  0  0
    8.3715   -5.3009    0.0000 C   0  0  0  0  0  0  0  0  0  0  0  0
    4.0080   -0.6141    0.0000 C   0  0  0  0  0  0  0  0  0  0  0  0
    7.7574   -3.2323    0.0000 C   0  0  0  0  0  0  0  0  0  0  0  0
    7.0463   -2.8121    0.0000 C   0  0  0  0  0  0  0  0  0  0  0  0
    2.2949   -0.7434    0.0000 C   0  0  0  0  0  0  0  0  0  0  0  0
    9.1473   -3.9757    0.0000 C   0  0  0  0  0  0  0  0  0  0  0  0
    5.6241   -2.8121    0.0000 C   0  0  0  0  0  0  0  0  0  0  0  0
    2.4565   -2.1656    0.0000 C   0  0  0  0  0  0  0  0  0  0  0  0
    7.0463   -2.0040    0.0000 C   0  0  0  0  0  0  0  0  0  0  0  0
    6.3352   -3.2323    0.0000 C   0  0  0  0  0  0  0  0  0  0  0  0
    1.4868   -0.8727    0.0000 C   0  0  0  0  0  0  0  0  0  0  0  0
    1.1636   -1.6161    0.0000 C   0  0  0  0  0  0  0  0  0  0  0  0
    1.6485   -2.2626    0.0000 C   0  0  0  0  0  0  0  0  0  0  0  0
    9.0503   -3.1676    0.0000 C   0  0  0  0  0  0  0  0  0  0  0  0
    0.3232   -1.6808    0.0000 C   0  0  0  0  0  0  0  0  0  0  0  0
    9.5998   -1.8424    0.0000 C   0  0  0  0  0  0  0  0  0  0  0  0
  1 20  1  0  0  0  0
  2 12  1  0  0  0  0
  3 18  2  0  0  0  0
  4 29  1  0  0  0  0
  4 31  1  0  0  0  0
  5  7  1  0  0  0  0
  5 12  1  0  0  0  0
  5 14  1  0  0  0  0
  6 10  1  0  0  0  0
  6 18  1  0  0  0  0
  7 17  2  0  0  0  0
  8 14  2  0  0  0  0
  8 24  1  0  0  0  0
  9 30  3  0  0  0  0
 10 15  1  0  0  0  0
 10 16  1  0  0  0  0
 10 21  1  0  0  0  0
 11 12  2  0  0  0  0
 11 13  1  0  0  0  0
 11 17  1  0  0  0  0
 13 20  1  0  0  0  0
 13 23  2  0  0  0  0
 14 22  1  0  0  0  0
 15 16  1  0  0  0  0
 18 19  1  0  0  0  0
 19 24  2  0  0  0  0
 19 25  1  0  0  0  0
 20 26  2  0  0  0  0
 21 29  1  0  0  0  0
 22 25  2  0  0  0  0
 23 28  1  0  0  0  0
 26 27  1  0  0  0  0
 27 28  2  0  0  0  0
 27 30  1  0  0  0  0
M  END
> <PUBCHEM_COMPOUND_ID_TYPE>
0

> <PUBCHEM_TOTAL_CHARGE>
0

> <PUBCHEM_SUBSTANCE_ID>
310931692

> <PUBCHEM_SUBSTANCE_VERSION>
1

> <PUBCHEM_EXT_DATASOURCE_NAME>
4488

> <PUBCHEM_EXT_DATASOURCE_REGID>
SCHEMBL16109019

> <PUBCHEM_SUBSTANCE_COMMENT>
InChI=1S/C22H20FN5O3/c1-31-9-8-22(6-7-22)27-20(29)15-3-5-19(25-12-15)28-21(30)17(13-26-28)16-4-2-14(11-24)10-18(16)23/h2-5,10,12-13,30H,6-9H2,1H3,(H,27,29)
InChIKey=JQYQUHWNJNAULL-UHFFFAOYSA-N

> <PUBCHEM_SUBSTANCE_SYNONYM>
SCHEMBL16109019

> <PUBCHEM_XREF_EXT_ID>
SCHEMBL16109019

> <PUBCHEM_EXT_DATASOURCE_URL>
https://www.surechembl.org/

> <PUBCHEM_EXT_SUBSTANCE_URL>
https://www.surechembl.org/chemical/SCHEMBL16109019

> <PUBCHEM_CID_ASSOCIATIONS>
117600393  1

> <PUBCHEM_COORDINATE_TYPE>
1
3

$$$$
