310931674
  -OEChem-07211613022D

 22 24  0     0  0  0  0  0  0999 V2000
    0.9056   -1.3583    0.0000 S   0  0  0  0  0  0  0  0  0  0  0  0
    0.0000   -2.8298    0.0000 O   0  0  0  0  0  0  0  0  0  0  0  0
    3.3392   -4.2447    0.0000 O   0  0  0  0  0  0  0  0  0  0  0  0
    2.0657   -3.5372    0.0000 N   0  0  0  0  0  0  0  0  0  0  0  0
    2.0657   -2.0374    0.0000 N   0  0  0  0  0  0  0  0  0  0  0  0
    0.8207   -2.8298    0.0000 C   0  0  0  0  0  0  0  0  0  0  0  0
    1.2451   -2.1223    0.0000 C   0  0  0  0  0  0  0  0  0  0  0  0
    1.2451   -3.5656    0.0000 C   0  0  0  0  0  0  0  0  0  0  0  0
    2.4902   -4.2447    0.0000 C   0  0  0  0  0  0  0  0  0  0  0  0
    1.5281   -0.8207    0.0000 C   0  0  0  0  0  0  0  0  0  0  0  0
    0.8207   -4.2730    0.0000 C   0  0  0  0  0  0  0  0  0  0  0  0
    2.2356   -1.2168    0.0000 C   0  0  0  0  0  0  0  0  0  0  0  0
    2.0657   -4.9804    0.0000 C   0  0  0  0  0  0  0  0  0  0  0  0
    1.2451   -4.9804    0.0000 C   0  0  0  0  0  0  0  0  0  0  0  0
    3.7353   -4.9521    0.0000 C   0  0  0  0  0  0  0  0  0  0  0  0
    4.5843   -4.9521    0.0000 C   0  0  0  0  0  0  0  0  0  0  0  0
    1.4432    0.0000    0.0000 C   0  0  0  0  0  0  0  0  0  0  0  0
    4.9804   -5.6595    0.0000 C   0  0  0  0  0  0  0  0  0  0  0  0
    4.9804   -4.2447    0.0000 C   0  0  0  0  0  0  0  0  0  0  0  0
    5.8294   -5.6595    0.0000 C   0  0  0  0  0  0  0  0  0  0  0  0
    5.8010   -4.2164    0.0000 C   0  0  0  0  0  0  0  0  0  0  0  0
    6.2255   -4.9238    0.0000 C   0  0  0  0  0  0  0  0  0  0  0  0
  1  7  1  0  0  0  0
  1 10  1  0  0  0  0
  2  6  2  0  0  0  0
  3  9  1  0  0  0  0
  3 15  1  0  0  0  0
  4  8  1  0  0  0  0
  4  9  2  0  0  0  0
  5  7  2  0  0  0  0
  5 12  1  0  0  0  0
  6  7  1  0  0  0  0
  6  8  1  0  0  0  0
  8 11  2  0  0  0  0
  9 13  1  0  0  0  0
 10 12  2  0  0  0  0
 10 17  1  0  0  0  0
 11 14  1  0  0  0  0
 13 14  2  0  0  0  0
 15 16  1  0  0  0  0
 16 18  2  0  0  0  0
 16 19  1  0  0  0  0
 18 20  1  0  0  0  0
 19 21  2  0  0  0  0
 20 22  2  0  0  0  0
 21 22  1  0  0  0  0
M  END
> <PUBCHEM_COMPOUND_ID_TYPE>
0

> <PUBCHEM_TOTAL_CHARGE>
0

> <PUBCHEM_SUBSTANCE_ID>
310931674

> <PUBCHEM_SUBSTANCE_VERSION>
1

> <PUBCHEM_EXT_DATASOURCE_NAME>
4488

> <PUBCHEM_EXT_DATASOURCE_REGID>
SCHEMBL16109000

> <PUBCHEM_SUBSTANCE_COMMENT>
InChI=1S/C17H14N2O2S/c1-12-10-18-17(22-12)16(20)14-8-5-9-15(19-14)21-11-13-6-3-2-4-7-13/h2-10H,11H2,1H3
InChIKey=COOLSZAPQFNYPK-UHFFFAOYSA-N

> <PUBCHEM_SUBSTANCE_SYNONYM>
SCHEMBL16109000

> <PUBCHEM_XREF_EXT_ID>
SCHEMBL16109000

> <PUBCHEM_EXT_DATASOURCE_URL>
https://www.surechembl.org/

> <PUBCHEM_EXT_SUBSTANCE_URL>
https://www.surechembl.org/chemical/SCHEMBL16109000

> <PUBCHEM_CID_ASSOCIATIONS>
117600382  1

> <PUBCHEM_COORDINATE_TYPE>
1
3

$$$$
