310946900
  -OEChem-07211613022D

 34 37  0     1  0  0  0  0  0999 V2000
   -1.1243   -3.1948    0.0000 S   0  0  0  0  0  0  0  0  0  0  0  0
    0.0081    3.2434    0.0000 O   0  0  0  0  0  0  0  0  0  0  0  0
   -0.7198   -0.9302    0.0000 O   0  0  0  0  0  0  0  0  0  0  0  0
   -0.5095   -3.7287    0.0000 O   0  0  0  0  0  0  0  0  0  0  0  0
   -1.6743   -3.8096    0.0000 O   0  0  0  0  0  0  0  0  0  0  0  0
    0.7522    1.4154    0.0000 N   0  0  0  0  0  0  0  0  0  0  0  0
    1.2537    0.7522    0.0000 N   0  0  0  0  0  0  0  0  0  0  0  0
    1.0434   -0.7037    0.0000 N   0  0  0  0  0  0  0  0  0  0  0  0
   -1.4478    0.2993    0.0000 N   0  0  0  0  0  0  0  0  0  0  0  0
    3.1626    1.9655    0.0000 N   0  0  0  0  0  0  0  0  0  0  0  0
   -0.0243    1.1566    0.0000 C   0  0  0  0  0  0  0  0  0  0  0  0
    0.9949    2.2081    0.0000 C   0  0  3  0  0  0  0  0  0  0  0  0
   -0.0243    0.3316    0.0000 C   0  0  0  0  0  0  0  0  0  0  0  0
    0.7684    0.0728    0.0000 C   0  0  0  0  0  0  0  0  0  0  0  0
   -0.7360   -0.0890    0.0000 C   0  0  0  0  0  0  0  0  0  0  0  0
   -0.7684    1.5448    0.0000 C   0  0  0  0  0  0  0  0  0  0  0  0
    0.2022    2.4507    0.0000 C   0  0  0  0  0  0  0  0  0  0  0  0
    1.5934    2.7905    0.0000 C   0  0  0  0  0  0  0  0  0  0  0  0
    1.5448    1.5772    0.0000 C   0  0  0  0  0  0  0  0  0  0  0  0
    0.4934   -1.3184    0.0000 C   0  0  0  0  0  0  0  0  0  0  0  0
   -0.5904   -2.5478    0.0000 C   0  0  0  0  0  0  0  0  0  0  0  0
   -1.7552   -2.6287    0.0000 C   0  0  0  0  0  0  0  0  0  0  0  0
   -1.4640    1.1243    0.0000 C   0  0  0  0  0  0  0  0  0  0  0  0
    1.4154    3.5508    0.0000 C   0  0  0  0  0  0  0  0  0  0  0  0
   -0.3155   -1.1728    0.0000 C   0  0  0  0  0  0  0  0  0  0  0  0
    0.7522   -2.1111    0.0000 C   0  0  0  0  0  0  0  0  0  0  0  0
   -0.8331   -1.7713    0.0000 C   0  0  0  0  0  0  0  0  0  0  0  0
    0.2184   -2.7258    0.0000 C   0  0  0  0  0  0  0  0  0  0  0  0
    2.3375    1.7875    0.0000 C   0  0  0  0  0  0  0  0  0  0  0  0
    0.6228    3.8096    0.0000 C   0  0  0  0  0  0  0  0  0  0  0  0
   -2.5316   -2.9199    0.0000 C   0  0  0  0  0  0  0  0  0  0  0  0
   -1.9978   -1.8522    0.0000 C   0  0  0  0  0  0  0  0  0  0  0  0
   -1.2214   -2.0140    0.0000 C   0  0  0  0  0  0  0  0  0  0  0  0
   -3.1626   -2.4022    0.0000 C   0  0  0  0  0  0  0  0  0  0  0  0
  1  4  2  0  0  0  0
  1  5  2  0  0  0  0
  1 21  1  0  0  0  0
  1 22  1  0  0  0  0
  2 17  1  0  0  0  0
  2 30  1  0  0  0  0
  3 15  2  0  0  0  0
  6  7  1  0  0  0  0
  6 11  1  0  0  0  0
  6 12  1  0  0  0  0
  7 14  2  0  0  0  0
  8 14  1  0  0  0  0
  8 20  1  0  0  0  0
  9 15  1  0  0  0  0
  9 23  1  0  0  0  0
 10 29  3  0  0  0  0
 11 13  2  0  0  0  0
 11 16  1  0  0  0  0
 12 17  1  0  0  0  0
 12 18  1  0  0  0  0
 12 19  1  6  0  0  0
 13 14  1  0  0  0  0
 13 15  1  0  0  0  0
 16 23  2  0  0  0  0
 18 24  1  0  0  0  0
 19 29  1  0  0  0  0
 20 25  2  0  0  0  0
 20 26  1  0  0  0  0
 21 27  2  0  0  0  0
 21 28  1  0  0  0  0
 22 31  1  0  0  0  0
 22 32  1  0  0  0  0
 22 33  1  0  0  0  0
 24 30  1  0  0  0  0
 25 27  1  0  0  0  0
 26 28  2  0  0  0  0
 31 34  1  0  0  0  0
M  END
> <PUBCHEM_COMPOUND_ID_TYPE>
0

> <PUBCHEM_TOTAL_CHARGE>
0

> <PUBCHEM_SUBSTANCE_ID>
310946900

> <PUBCHEM_SUBSTANCE_VERSION>
1

> <PUBCHEM_EXT_DATASOURCE_NAME>
4488

> <PUBCHEM_EXT_DATASOURCE_REGID>
SCHEMBL16125024

> <PUBCHEM_SUBSTANCE_COMMENT>
InChI=1S/C24H29N5O4S/c1-4-23(2,3)34(31,32)18-8-6-17(7-9-18)27-21-20-19(10-14-26-22(20)30)29(28-21)24(12-13-25)11-5-15-33-16-24/h6-10,14H,4-5,11-12,15-16H2,1-3H3,(H,26,30)(H,27,28)/t24-/m0/s1
InChIKey=YXFOOTHDMFAEGX-DEOSSOPVSA-N

> <PUBCHEM_SUBSTANCE_SYNONYM>
SCHEMBL16125024

> <PUBCHEM_XREF_EXT_ID>
SCHEMBL16125024

> <PUBCHEM_EXT_DATASOURCE_URL>
https://www.surechembl.org/

> <PUBCHEM_EXT_SUBSTANCE_URL>
https://www.surechembl.org/chemical/SCHEMBL16125024

> <PUBCHEM_CID_ASSOCIATIONS>
117612758  1

> <PUBCHEM_COORDINATE_TYPE>
1
3

> <PUBCHEM_BONDANNOTATIONS>
12  19  6

$$$$
