310944926
  -OEChem-07211613022D

 38 42  0     0  0  0  0  0  0999 V2000
   -0.6456    2.5108    0.0000 Cl  0  0  0  0  0  0  0  0  0  0  0  0
   -4.6808   -2.4749    0.0000 O   0  0  0  0  0  0  0  0  0  0  0  0
    3.9634   -2.4749    0.0000 O   0  0  0  0  0  0  0  0  0  0  0  0
    4.6808   -1.2195    0.0000 O   0  0  0  0  0  0  0  0  0  0  0  0
   -3.2281   -1.6320    0.0000 N   0  0  0  0  0  0  0  0  0  0  0  0
    3.2281    2.8873    0.0000 N   0  0  0  0  0  0  0  0  0  0  0  0
   -0.3587    0.8429    0.0000 C   0  0  0  0  0  0  0  0  0  0  0  0
   -0.3766    0.0000    0.0000 C   0  0  0  0  0  0  0  0  0  0  0  0
    0.3587    1.2554    0.0000 C   0  0  0  0  0  0  0  0  0  0  0  0
   -1.1119    1.2733    0.0000 C   0  0  0  0  0  0  0  0  0  0  0  0
   -1.0760   -0.3945    0.0000 C   0  0  0  0  0  0  0  0  0  0  0  0
    0.3587   -0.4125    0.0000 C   0  0  0  0  0  0  0  0  0  0  0  0
    0.3587    2.0804    0.0000 C   0  0  0  0  0  0  0  0  0  0  0  0
   -1.8651    1.0402    0.0000 C   0  0  0  0  0  0  0  0  0  0  0  0
   -1.2912    2.0445    0.0000 C   0  0  0  0  0  0  0  0  0  0  0  0
    1.0760    0.8429    0.0000 C   0  0  0  0  0  0  0  0  0  0  0  0
   -1.8113    0.0000    0.0000 C   0  0  0  0  0  0  0  0  0  0  0  0
   -1.0940   -1.2374    0.0000 C   0  0  0  0  0  0  0  0  0  0  0  0
    0.3766   -1.2374    0.0000 C   0  0  0  0  0  0  0  0  0  0  0  0
    1.0760   -0.0180    0.0000 C   0  0  0  0  0  0  0  0  0  0  0  0
   -2.0804    1.8293    0.0000 C   0  0  0  0  0  0  0  0  0  0  0  0
   -2.5287   -1.2374    0.0000 C   0  0  0  0  0  0  0  0  0  0  0  0
    1.0940    2.4749    0.0000 C   0  0  0  0  0  0  0  0  0  0  0  0
    1.7934    2.0804    0.0000 C   0  0  0  0  0  0  0  0  0  0  0  0
   -2.4928   -0.4125    0.0000 C   0  0  0  0  0  0  0  0  0  0  0  0
   -1.7934   -1.6499    0.0000 C   0  0  0  0  0  0  0  0  0  0  0  0
    1.7934    1.2554    0.0000 C   0  0  0  0  0  0  0  0  0  0  0  0
    1.7755   -1.2195    0.0000 C   0  0  0  0  0  0  0  0  0  0  0  0
    1.0760   -1.6499    0.0000 C   0  0  0  0  0  0  0  0  0  0  0  0
    1.7934   -0.4125    0.0000 C   0  0  0  0  0  0  0  0  0  0  0  0
    2.5287    2.5108    0.0000 C   0  0  0  0  0  0  0  0  0  0  0  0
   -3.2460   -2.4928    0.0000 C   0  0  0  0  0  0  0  0  0  0  0  0
   -3.9634   -1.2374    0.0000 C   0  0  0  0  0  0  0  0  0  0  0  0
    2.5108   -1.6499    0.0000 C   0  0  0  0  0  0  0  0  0  0  0  0
   -3.9275   -2.8873    0.0000 C   0  0  0  0  0  0  0  0  0  0  0  0
   -4.6628   -1.6499    0.0000 C   0  0  0  0  0  0  0  0  0  0  0  0
    3.2102   -1.2554    0.0000 C   0  0  0  0  0  0  0  0  0  0  0  0
    3.9634   -1.6320    0.0000 C   0  0  0  0  0  0  0  0  0  0  0  0
  1 13  1  0  0  0  0
  2 35  1  0  0  0  0
  2 36  1  0  0  0  0
  3 38  2  0  0  0  0
  4 38  1  0  0  0  0
  5 22  1  0  0  0  0
  5 32  1  0  0  0  0
  5 33  1  0  0  0  0
  6 31  3  0  0  0  0
  7  8  2  0  0  0  0
  7  9  1  0  0  0  0
  7 10  1  0  0  0  0
  8 11  1  0  0  0  0
  8 12  1  0  0  0  0
  9 13  1  0  0  0  0
  9 16  2  0  0  0  0
 10 14  1  0  0  0  0
 10 15  1  0  0  0  0
 11 17  2  0  0  0  0
 11 18  1  0  0  0  0
 12 19  2  0  0  0  0
 12 20  1  0  0  0  0
 13 23  2  0  0  0  0
 14 21  1  0  0  0  0
 15 21  1  0  0  0  0
 16 27  1  0  0  0  0
 17 25  1  0  0  0  0
 18 26  2  0  0  0  0
 19 29  1  0  0  0  0
 20 30  2  0  0  0  0
 22 25  2  0  0  0  0
 22 26  1  0  0  0  0
 23 24  1  0  0  0  0
 24 27  2  0  0  0  0
 24 31  1  0  0  0  0
 28 29  2  0  0  0  0
 28 30  1  0  0  0  0
 28 34  1  0  0  0  0
 32 35  1  0  0  0  0
 33 36  1  0  0  0  0
 34 37  2  0  0  0  0
 37 38  1  0  0  0  0
M  END
> <PUBCHEM_COMPOUND_ID_TYPE>
0

> <PUBCHEM_TOTAL_CHARGE>
0

> <PUBCHEM_SUBSTANCE_ID>
310944926

> <PUBCHEM_SUBSTANCE_VERSION>
1

> <PUBCHEM_EXT_DATASOURCE_NAME>
4488

> <PUBCHEM_EXT_DATASOURCE_REGID>
SCHEMBL16123011

> <PUBCHEM_SUBSTANCE_COMMENT>
InChI=1S/C32H29ClN2O3/c33-29-20-23(21-34)6-14-28(29)32(24-2-1-3-24)31(25-8-4-22(5-9-25)7-15-30(36)37)26-10-12-27(13-11-26)35-16-18-38-19-17-35/h4-15,20,24H,1-3,16-19H2,(H,36,37)/b15-7+,32-31+
InChIKey=PLSGPOIMAFASLM-WINBVBSWSA-N

> <PUBCHEM_SUBSTANCE_SYNONYM>
SCHEMBL16123011

> <PUBCHEM_XREF_EXT_ID>
SCHEMBL16123011

> <PUBCHEM_EXT_DATASOURCE_URL>
https://www.surechembl.org/

> <PUBCHEM_EXT_SUBSTANCE_URL>
https://www.surechembl.org/chemical/SCHEMBL16123011

> <PUBCHEM_CID_ASSOCIATIONS>
86271645  1

> <PUBCHEM_COORDINATE_TYPE>
1
3

$$$$
