310932727
  -OEChem-07211613022D

 28 31  0     1  0  0  0  0  0999 V2000
    3.9914   -2.1185    0.0000 O   0  0  0  0  0  0  0  0  0  0  0  0
    8.4741   -2.2106    0.0000 O   0  0  0  0  0  0  0  0  0  0  0  0
    4.9125   -0.9518    0.0000 N   0  0  0  0  0  0  0  0  0  0  0  0
    4.8204   -0.1535    0.0000 N   0  0  0  0  0  0  0  0  0  0  0  0
    6.3249   -0.9518    0.0000 N   0  0  0  0  0  0  0  0  0  0  0  0
    7.7679   -3.4388    0.0000 N   0  0  0  0  0  0  0  0  0  0  0  0
    0.0000   -1.8115    0.0000 N   0  0  0  0  0  0  0  0  0  0  0  0
    4.1757   -1.2895    0.0000 C   0  0  0  0  0  0  0  0  0  0  0  0
    3.5923   -0.7062    0.0000 C   0  0  0  0  0  0  0  0  0  0  0  0
    5.6187   -1.3816    0.0000 C   0  0  0  0  0  0  0  0  0  0  0  0
    2.7940   -0.7983    0.0000 C   0  0  0  0  0  0  0  0  0  0  0  0
    3.9914    0.0000    0.0000 C   0  0  0  0  0  0  0  0  0  0  0  0
    7.0311   -2.2106    0.0000 C   0  0  0  0  0  0  0  0  0  0  0  0
    5.6187   -2.2106    0.0000 C   0  0  0  0  0  0  0  0  0  0  0  0
    7.0311   -1.3816    0.0000 C   0  0  0  0  0  0  0  0  0  0  0  0
    6.3249   -2.6098    0.0000 C   0  0  0  0  0  0  0  0  0  0  0  0
    2.4563   -1.5352    0.0000 C   0  0  0  0  0  0  0  0  0  0  0  0
    2.2720   -0.1228    0.0000 C   0  0  0  0  0  0  0  0  0  0  0  0
    7.7679   -2.6098    0.0000 C   0  0  0  0  0  0  0  0  0  0  0  0
    8.4741   -4.6669    0.0000 C   0  0  0  0  0  0  0  0  0  0  0  0
    8.4741   -3.8379    0.0000 C   0  0  3  0  0  0  0  0  0  0  0  0
    1.1360   -0.9825    0.0000 C   0  0  0  0  0  0  0  0  0  0  0  0
    1.6273   -1.6273    0.0000 C   0  0  0  0  0  0  0  0  0  0  0  0
    1.4738   -0.2456    0.0000 C   0  0  0  0  0  0  0  0  0  0  0  0
    8.8733   -5.3731    0.0000 C   0  0  0  0  0  0  0  0  0  0  0  0
    8.0750   -5.4038    0.0000 C   0  0  0  0  0  0  0  0  0  0  0  0
    0.3070   -1.0746    0.0000 C   0  0  0  0  0  0  0  0  0  0  0  0
    9.2110   -3.4388    0.0000 C   0  0  0  0  0  0  0  0  0  0  0  0
  1  8  1  0  0  0  0
  2 19  2  0  0  0  0
  3  4  1  0  0  0  0
  3  8  1  0  0  0  0
  3 10  1  0  0  0  0
  4 12  2  0  0  0  0
  5 10  2  0  0  0  0
  5 15  1  0  0  0  0
  6 19  1  0  0  0  0
  6 21  1  0  0  0  0
  7 27  3  0  0  0  0
  8  9  2  0  0  0  0
  9 11  1  0  0  0  0
  9 12  1  0  0  0  0
 10 14  1  0  0  0  0
 11 17  2  0  0  0  0
 11 18  1  0  0  0  0
 13 15  2  0  0  0  0
 13 16  1  0  0  0  0
 13 19  1  0  0  0  0
 14 16  2  0  0  0  0
 17 23  1  0  0  0  0
 18 24  2  0  0  0  0
 20 21  1  0  0  0  0
 20 25  1  0  0  0  0
 20 26  1  0  0  0  0
 21 28  1  1  0  0  0
 22 23  2  0  0  0  0
 22 24  1  0  0  0  0
 22 27  1  0  0  0  0
 25 26  1  0  0  0  0
M  END
> <PUBCHEM_COMPOUND_ID_TYPE>
0

> <PUBCHEM_TOTAL_CHARGE>
0

> <PUBCHEM_SUBSTANCE_ID>
310932727

> <PUBCHEM_SUBSTANCE_VERSION>
1

> <PUBCHEM_EXT_DATASOURCE_NAME>
4488

> <PUBCHEM_EXT_DATASOURCE_REGID>
SCHEMBL16110111

> <PUBCHEM_SUBSTANCE_COMMENT>
InChI=1S/C21H19N5O2/c1-13(15-6-7-15)25-20(27)17-8-9-19(23-11-17)26-21(28)18(12-24-26)16-4-2-14(10-22)3-5-16/h2-5,8-9,11-13,15,28H,6-7H2,1H3,(H,25,27)/t13-/m0/s1
InChIKey=JAHKZXLQPUXJJY-ZDUSSCGKSA-N

> <PUBCHEM_SUBSTANCE_SYNONYM>
SCHEMBL16110111

> <PUBCHEM_XREF_EXT_ID>
SCHEMBL16110111

> <PUBCHEM_EXT_DATASOURCE_URL>
https://www.surechembl.org/

> <PUBCHEM_EXT_SUBSTANCE_URL>
https://www.surechembl.org/chemical/SCHEMBL16110111

> <PUBCHEM_CID_ASSOCIATIONS>
117601233  1

> <PUBCHEM_COORDINATE_TYPE>
1
3

> <PUBCHEM_BONDANNOTATIONS>
21  28  5

$$$$
