310945385
  -OEChem-07211613022D

 33 38  0     0  0  0  0  0  0999 V2000
    5.3127    1.2117    0.0000 O   0  0  0  0  0  0  0  0  0  0  0  0
   -5.3127   -1.2324    0.0000 O   0  0  0  0  0  0  0  0  0  0  0  0
    2.7651    0.0104    0.0000 N   0  0  0  0  0  0  0  0  0  0  0  0
    0.4247    2.0816    0.0000 N   0  0  0  0  0  0  0  0  0  0  0  0
   -2.4544   -0.4040    0.0000 N   0  0  0  0  0  0  0  0  0  0  0  0
   -3.8836   -1.2324    0.0000 N   0  0  0  0  0  0  0  0  0  0  0  0
   -2.4544    1.2532    0.0000 N   0  0  0  0  0  0  0  0  0  0  0  0
    2.5787    0.8595    0.0000 C   0  0  0  0  0  0  0  0  0  0  0  0
    3.2830    1.2532    0.0000 C   0  0  0  0  0  0  0  0  0  0  0  0
    3.9250    0.6938    0.0000 C   0  0  0  0  0  0  0  0  0  0  0  0
    1.8537    1.2532    0.0000 C   0  0  0  0  0  0  0  0  0  0  0  0
    3.5936   -0.0518    0.0000 C   0  0  0  0  0  0  0  0  0  0  0  0
    1.8745    2.0816    0.0000 C   0  0  0  0  0  0  0  0  0  0  0  0
    4.7329    0.5903    0.0000 C   0  0  0  0  0  0  0  0  0  0  0  0
    3.3036    2.0816    0.0000 C   0  0  0  0  0  0  0  0  0  0  0  0
    1.1703    0.8388    0.0000 C   0  0  0  0  0  0  0  0  0  0  0  0
    0.4040    1.2532    0.0000 C   0  0  0  0  0  0  0  0  0  0  0  0
    4.1943   -0.5903    0.0000 C   0  0  0  0  0  0  0  0  0  0  0  0
    2.5994    2.4959    0.0000 C   0  0  0  0  0  0  0  0  0  0  0  0
    4.8985   -0.2175    0.0000 C   0  0  0  0  0  0  0  0  0  0  0  0
   -0.2797    0.8595    0.0000 C   0  0  0  0  0  0  0  0  0  0  0  0
    1.1496    2.4959    0.0000 C   0  0  0  0  0  0  0  0  0  0  0  0
   -1.7294    0.0104    0.0000 C   0  0  0  0  0  0  0  0  0  0  0  0
   -1.7294    0.8388    0.0000 C   0  0  0  0  0  0  0  0  0  0  0  0
   -1.0046    1.2324    0.0000 C   0  0  0  0  0  0  0  0  0  0  0  0
   -0.3004    0.0104    0.0000 C   0  0  0  0  0  0  0  0  0  0  0  0
   -0.9838   -0.3833    0.0000 C   0  0  0  0  0  0  0  0  0  0  0  0
   -2.4544   -1.2324    0.0000 C   0  0  0  0  0  0  0  0  0  0  0  0
   -3.2001   -0.0104    0.0000 C   0  0  0  0  0  0  0  0  0  0  0  0
   -3.1794   -1.6466    0.0000 C   0  0  0  0  0  0  0  0  0  0  0  0
   -3.8629   -0.4040    0.0000 C   0  0  0  0  0  0  0  0  0  0  0  0
   -4.5878   -1.6466    0.0000 C   0  0  0  0  0  0  0  0  0  0  0  0
   -4.5878   -2.4959    0.0000 C   0  0  0  0  0  0  0  0  0  0  0  0
  1 14  2  0  0  0  0
  2 32  2  0  0  0  0
  3  8  1  0  0  0  0
  3 12  1  0  0  0  0
  4 17  2  0  0  0  0
  4 22  1  0  0  0  0
  5 23  1  0  0  0  0
  5 28  1  0  0  0  0
  5 29  1  0  0  0  0
  6 30  1  0  0  0  0
  6 31  1  0  0  0  0
  6 32  1  0  0  0  0
  7 24  1  0  0  0  0
  8  9  2  0  0  0  0
  8 11  1  0  0  0  0
  9 10  1  0  0  0  0
  9 15  1  0  0  0  0
 10 12  2  0  0  0  0
 10 14  1  0  0  0  0
 11 13  1  0  0  0  0
 11 16  2  0  0  0  0
 12 18  1  0  0  0  0
 13 19  1  0  0  0  0
 13 22  2  0  0  0  0
 14 20  1  0  0  0  0
 15 19  2  0  0  0  0
 16 17  1  0  0  0  0
 17 21  1  0  0  0  0
 18 20  1  0  0  0  0
 21 25  2  0  0  0  0
 21 26  1  0  0  0  0
 23 24  2  0  0  0  0
 23 27  1  0  0  0  0
 24 25  1  0  0  0  0
 26 27  2  0  0  0  0
 28 30  1  0  0  0  0
 29 31  1  0  0  0  0
 32 33  1  0  0  0  0
M  END
> <PUBCHEM_COMPOUND_ID_TYPE>
0

> <PUBCHEM_TOTAL_CHARGE>
0

> <PUBCHEM_SUBSTANCE_ID>
310945385

> <PUBCHEM_SUBSTANCE_VERSION>
1

> <PUBCHEM_EXT_DATASOURCE_NAME>
4488

> <PUBCHEM_EXT_DATASOURCE_REGID>
SCHEMBL16123483

> <PUBCHEM_SUBSTANCE_COMMENT>
InChI=1S/C26H25N5O2/c1-15(32)30-8-10-31(11-9-30)23-6-3-16(12-20(23)27)22-13-19-17(14-28-22)2-4-18-25-21(29-26(18)19)5-7-24(25)33/h2-4,6,12-14,29H,5,7-11,27H2,1H3
InChIKey=ZYJYCHVAHVCYMY-UHFFFAOYSA-N

> <PUBCHEM_SUBSTANCE_SYNONYM>
SCHEMBL16123483

> <PUBCHEM_XREF_EXT_ID>
SCHEMBL16123483

> <PUBCHEM_EXT_DATASOURCE_URL>
https://www.surechembl.org/

> <PUBCHEM_EXT_SUBSTANCE_URL>
https://www.surechembl.org/chemical/SCHEMBL16123483

> <PUBCHEM_CID_ASSOCIATIONS>
117611435  1

> <PUBCHEM_COORDINATE_TYPE>
1
3

$$$$
