310945039
  -OEChem-07211613022D

 36 41  0     0  0  0  0  0  0999 V2000
   -2.9975    0.1975    0.0000 S   0  0  0  0  0  0  0  0  0  0  0  0
    4.4266    1.8937    0.0000 O   0  0  0  0  0  0  0  0  0  0  0  0
   -0.2673   -0.3486    0.0000 O   0  0  0  0  0  0  0  0  0  0  0  0
   -3.9851    1.2548    0.0000 O   0  0  0  0  0  0  0  0  0  0  0  0
    2.6489    0.6390    0.0000 N   0  0  0  0  0  0  0  0  0  0  0  0
    4.2872    0.4764    0.0000 N   0  0  0  0  0  0  0  0  0  0  0  0
   -0.9760    0.9062    0.0000 N   0  0  0  0  0  0  0  0  0  0  0  0
   -1.7659   -0.3370    0.0000 N   0  0  0  0  0  0  0  0  0  0  0  0
   -2.9045   -1.2664    0.0000 N   0  0  0  0  0  0  0  0  0  0  0  0
   -2.6024    1.6381    0.0000 N   0  0  0  0  0  0  0  0  0  0  0  0
    2.9743   -0.1162    0.0000 C   0  0  0  0  0  0  0  0  0  0  0  0
    1.8705    0.9179    0.0000 C   0  0  0  0  0  0  0  0  0  0  0  0
    3.1369    1.3245    0.0000 C   0  0  0  0  0  0  0  0  0  0  0  0
    1.8821    1.7311    0.0000 C   0  0  0  0  0  0  0  0  0  0  0  0
    2.6721    1.9751    0.0000 C   0  0  0  0  0  0  0  0  0  0  0  0
    3.9386    1.2083    0.0000 C   0  0  0  0  0  0  0  0  0  0  0  0
    3.8108   -0.1975    0.0000 C   0  0  0  0  0  0  0  0  0  0  0  0
    2.1842   -0.2440    0.0000 C   0  0  0  0  0  0  0  0  0  0  0  0
    3.1137   -0.9295    0.0000 C   0  0  0  0  0  0  0  0  0  0  0  0
    1.1619    0.4995    0.0000 C   0  0  0  0  0  0  0  0  0  0  0  0
    2.3120   -1.0573    0.0000 C   0  0  0  0  0  0  0  0  0  0  0  0
    0.4415    0.9062    0.0000 C   0  0  0  0  0  0  0  0  0  0  0  0
    1.1502    2.1377    0.0000 C   0  0  0  0  0  0  0  0  0  0  0  0
    0.4532    1.7311    0.0000 C   0  0  0  0  0  0  0  0  0  0  0  0
   -0.2556    0.5112    0.0000 C   0  0  0  0  0  0  0  0  0  0  0  0
   -1.6846    0.4880    0.0000 C   0  0  0  0  0  0  0  0  0  0  0  0
   -2.4399    0.8365    0.0000 C   0  0  0  0  0  0  0  0  0  0  0  0
   -2.5792   -0.4995    0.0000 C   0  0  0  0  0  0  0  0  0  0  0  0
   -3.7178   -1.3594    0.0000 C   0  0  0  0  0  0  0  0  0  0  0  0
   -2.4282   -1.9286    0.0000 C   0  0  0  0  0  0  0  0  0  0  0  0
   -3.3926    1.8705    0.0000 C   0  0  0  0  0  0  0  0  0  0  0  0
   -4.0548   -2.1145    0.0000 C   0  0  0  0  0  0  0  0  0  0  0  0
   -2.7651   -2.6954    0.0000 C   0  0  0  0  0  0  0  0  0  0  0  0
   -3.5668   -2.7883    0.0000 C   0  0  0  0  0  0  0  0  0  0  0  0
   -3.6132    2.6489    0.0000 C   0  0  0  0  0  0  0  0  0  0  0  0
   -4.4266    2.7883    0.0000 C   0  0  0  0  0  0  0  0  0  0  0  0
  1 27  1  0  0  0  0
  1 28  1  0  0  0  0
  2 16  2  0  0  0  0
  3 25  2  0  0  0  0
  4 31  2  0  0  0  0
  5 11  1  0  0  0  0
  5 12  1  0  0  0  0
  5 13  1  0  0  0  0
  6 16  1  0  0  0  0
  6 17  1  0  0  0  0
  7 25  1  0  0  0  0
  7 26  1  0  0  0  0
  8 26  1  0  0  0  0
  8 28  2  0  0  0  0
  9 28  1  0  0  0  0
  9 29  1  0  0  0  0
  9 30  1  0  0  0  0
 10 27  1  0  0  0  0
 10 31  1  0  0  0  0
 11 17  1  0  0  0  0
 11 18  1  0  0  0  0
 11 19  1  0  0  0  0
 12 14  1  0  0  0  0
 12 20  2  0  0  0  0
 13 15  2  0  0  0  0
 13 16  1  0  0  0  0
 14 15  1  0  0  0  0
 14 23  2  0  0  0  0
 18 21  1  0  0  0  0
 19 21  1  0  0  0  0
 20 22  1  0  0  0  0
 22 24  2  0  0  0  0
 22 25  1  0  0  0  0
 23 24  1  0  0  0  0
 26 27  2  0  0  0  0
 29 32  1  0  0  0  0
 30 33  1  0  0  0  0
 31 35  1  0  0  0  0
 32 34  1  0  0  0  0
 33 34  1  0  0  0  0
 35 36  2  0  0  0  0
M  END
> <PUBCHEM_COMPOUND_ID_TYPE>
0

> <PUBCHEM_TOTAL_CHARGE>
0

> <PUBCHEM_SUBSTANCE_ID>
310945039

> <PUBCHEM_SUBSTANCE_VERSION>
1

> <PUBCHEM_EXT_DATASOURCE_NAME>
4488

> <PUBCHEM_EXT_DATASOURCE_REGID>
SCHEMBL16123127

> <PUBCHEM_SUBSTANCE_COMMENT>
InChI=1S/C26H28N6O3S/c1-2-20(33)28-24-21(30-25(36-24)31-11-4-3-5-12-31)29-22(34)17-8-7-16-13-19-23(35)27-15-26(9-6-10-26)32(19)18(16)14-17/h2,7-8,13-14H,1,3-6,9-12,15H2,(H,27,35)(H,28,33)(H,29,34)
InChIKey=QJQIXHRRIPPAJN-UHFFFAOYSA-N

> <PUBCHEM_SUBSTANCE_SYNONYM>
SCHEMBL16123127

> <PUBCHEM_XREF_EXT_ID>
SCHEMBL16123127

> <PUBCHEM_EXT_DATASOURCE_URL>
https://www.surechembl.org/

> <PUBCHEM_EXT_SUBSTANCE_URL>
https://www.surechembl.org/chemical/SCHEMBL16123127

> <PUBCHEM_CID_ASSOCIATIONS>
117611167  1

> <PUBCHEM_COORDINATE_TYPE>
1
3

$$$$
