310949503
  -OEChem-07211613022D

 32 36  0     1  0  0  0  0  0999 V2000
    2.2682    0.5117    0.0000 O   0  0  0  0  0  0  0  0  0  0  0  0
   -0.9128    1.5628    0.0000 N   0  0  0  0  0  0  0  0  0  0  0  0
   -0.9128    2.9044    0.0000 N   0  0  0  0  0  0  0  0  0  0  0  0
    1.6873    1.8118    0.0000 N   0  0  0  0  0  0  0  0  0  0  0  0
   -0.1383   -0.8021    0.0000 N   0  0  0  0  0  0  0  0  0  0  0  0
   -0.4149    2.2405    0.0000 C   0  0  0  0  0  0  0  0  0  0  0  0
   -1.7011    1.8394    0.0000 C   0  0  0  0  0  0  0  0  0  0  0  0
   -1.6873    2.6416    0.0000 C   0  0  0  0  0  0  0  0  0  0  0  0
    0.4288    2.2129    0.0000 C   0  0  3  0  0  0  0  0  0  0  0  0
   -0.6639    0.8021    0.0000 C   0  0  0  0  0  0  0  0  0  0  0  0
   -2.4065    1.4107    0.0000 C   0  0  0  0  0  0  0  0  0  0  0  0
    0.9128    1.5628    0.0000 C   0  0  0  0  0  0  0  0  0  0  0  0
   -2.4203    3.0427    0.0000 C   0  0  0  0  0  0  0  0  0  0  0  0
    0.8851    2.8906    0.0000 C   0  0  0  0  0  0  0  0  0  0  0  0
   -1.2032    0.1522    0.0000 C   0  0  0  0  0  0  0  0  0  0  0  0
    0.1659    0.5947    0.0000 C   0  0  0  0  0  0  0  0  0  0  0  0
    1.6735    2.6416    0.0000 C   0  0  0  0  0  0  0  0  0  0  0  0
   -3.1257    1.8256    0.0000 C   0  0  0  0  0  0  0  0  0  0  0  0
   -3.1257    2.6416    0.0000 C   0  0  0  0  0  0  0  0  0  0  0  0
   -0.9405   -0.6224    0.0000 C   0  0  0  0  0  0  0  0  0  0  0  0
    0.4149   -0.1798    0.0000 C   0  0  0  0  0  0  0  0  0  0  0  0
    2.3650    1.3554    0.0000 C   0  0  0  0  0  0  0  0  0  0  0  0
    0.1245   -1.5767    0.0000 C   0  0  0  0  0  0  0  0  0  0  0  0
    0.9266   -1.7703    0.0000 C   0  0  0  0  0  0  0  0  0  0  0  0
    3.1257    1.6735    0.0000 C   0  0  0  0  0  0  0  0  0  0  0  0
    1.0926   -2.5725    0.0000 C   0  0  0  0  0  0  0  0  0  0  0  0
    1.3968   -1.0787    0.0000 C   0  0  0  0  0  0  0  0  0  0  0  0
    1.7703   -3.0427    0.0000 C   0  0  0  0  0  0  0  0  0  0  0  0
    2.2267   -0.9405    0.0000 C   0  0  0  0  0  0  0  0  0  0  0  0
    2.8906   -1.3968    0.0000 C   0  0  0  0  0  0  0  0  0  0  0  0
    2.5863   -2.8906    0.0000 C   0  0  0  0  0  0  0  0  0  0  0  0
    3.0427   -2.2129    0.0000 C   0  0  0  0  0  0  0  0  0  0  0  0
  1 22  2  0  0  0  0
  2  6  1  0  0  0  0
  2  7  1  0  0  0  0
  2 10  1  0  0  0  0
  3  6  2  0  0  0  0
  3  8  1  0  0  0  0
  4 12  1  0  0  0  0
  4 17  1  0  0  0  0
  4 22  1  0  0  0  0
  5 20  1  0  0  0  0
  5 21  1  0  0  0  0
  5 23  1  0  0  0  0
  9  6  1  6  0  0  0
  7  8  1  0  0  0  0
  7 11  2  0  0  0  0
  8 13  2  0  0  0  0
  9 12  1  0  0  0  0
  9 14  1  0  0  0  0
 10 15  1  0  0  0  0
 10 16  1  0  0  0  0
 11 18  1  0  0  0  0
 13 19  1  0  0  0  0
 14 17  1  0  0  0  0
 15 20  1  0  0  0  0
 16 21  1  0  0  0  0
 18 19  2  0  0  0  0
 22 25  1  0  0  0  0
 23 24  1  0  0  0  0
 24 26  1  0  0  0  0
 24 27  1  0  0  0  0
 26 28  1  0  0  0  0
 27 29  1  0  0  0  0
 28 31  1  0  0  0  0
 29 30  1  0  0  0  0
 30 32  1  0  0  0  0
 31 32  1  0  0  0  0
M  END
> <PUBCHEM_COMPOUND_ID_TYPE>
0

> <PUBCHEM_TOTAL_CHARGE>
0

> <PUBCHEM_SUBSTANCE_ID>
310949503

> <PUBCHEM_SUBSTANCE_VERSION>
1

> <PUBCHEM_EXT_DATASOURCE_NAME>
4488

> <PUBCHEM_EXT_DATASOURCE_REGID>
SCHEMBL16127698

> <PUBCHEM_SUBSTANCE_COMMENT>
InChI=1S/C27H40N4O/c1-21(32)30-18-13-23(20-30)27-28-25-11-7-8-12-26(25)31(27)24-14-16-29(17-15-24)19-22-9-5-3-2-4-6-10-22/h7-8,11-12,22-24H,2-6,9-10,13-20H2,1H3/t23-/m1/s1
InChIKey=XSFRSOPOJJCWDR-HSZRJFAPSA-N

> <PUBCHEM_SUBSTANCE_SYNONYM>
SCHEMBL16127698

> <PUBCHEM_XREF_EXT_ID>
SCHEMBL16127698

> <PUBCHEM_EXT_DATASOURCE_URL>
https://www.surechembl.org/

> <PUBCHEM_EXT_SUBSTANCE_URL>
https://www.surechembl.org/chemical/SCHEMBL16127698

> <PUBCHEM_CID_ASSOCIATIONS>
86274294  1

> <PUBCHEM_COORDINATE_TYPE>
1
3

> <PUBCHEM_BONDANNOTATIONS>
9  6  6

$$$$
