310944040
  -OEChem-07211613022D

 14 15  0     0  0  0  0  0  0999 V2000
    2.4432    0.7115    0.0000 O   0  0  0  0  0  0  0  0  0  0  0  0
   -1.1416   -0.5129    0.0000 N   0  0  0  0  0  0  0  0  0  0  0  0
   -1.8916   -0.1820    0.0000 N   0  0  0  0  0  0  0  0  0  0  0  0
    1.0092   -0.1048    0.0000 N   0  0  0  0  0  0  0  0  0  0  0  0
   -2.4432   -0.7887    0.0000 N   0  0  0  0  0  0  0  0  0  0  0  0
   -2.0350   -1.5056    0.0000 N   0  0  0  0  0  0  0  0  0  0  0  0
   -0.4357   -0.1048    0.0000 C   0  0  0  0  0  0  0  0  0  0  0  0
   -0.4136    0.7115    0.0000 C   0  0  0  0  0  0  0  0  0  0  0  0
    0.3033   -0.5129    0.0000 C   0  0  0  0  0  0  0  0  0  0  0  0
   -1.2298   -1.3291    0.0000 C   0  0  0  0  0  0  0  0  0  0  0  0
    1.0202    0.7115    0.0000 C   0  0  0  0  0  0  0  0  0  0  0  0
    0.2813    1.1195    0.0000 C   0  0  0  0  0  0  0  0  0  0  0  0
   -1.1526    1.1085    0.0000 C   0  0  0  0  0  0  0  0  0  0  0  0
    2.4432    1.5056    0.0000 C   0  0  0  0  0  0  0  0  0  0  0  0
  1 14  1  0  0  0  0
  2  3  1  0  0  0  0
  2  7  1  0  0  0  0
  2 10  1  0  0  0  0
  3  5  2  0  0  0  0
  4  9  2  0  0  0  0
  4 11  1  0  0  0  0
  5  6  1  0  0  0  0
  6 10  2  0  0  0  0
  7  8  2  0  0  0  0
  7  9  1  0  0  0  0
  8 12  1  0  0  0  0
  8 13  1  0  0  0  0
 11 12  2  0  0  0  0
 11 14  1  0  0  0  0
M  END
> <PUBCHEM_COMPOUND_ID_TYPE>
0

> <PUBCHEM_TOTAL_CHARGE>
0

> <PUBCHEM_SUBSTANCE_ID>
310944040

> <PUBCHEM_SUBSTANCE_VERSION>
1

> <PUBCHEM_EXT_DATASOURCE_NAME>
4488

> <PUBCHEM_EXT_DATASOURCE_REGID>
SCHEMBL16122113

> <PUBCHEM_SUBSTANCE_COMMENT>
InChI=1S/C8H9N5O/c1-6-2-7(4-14)9-3-8(6)13-5-10-11-12-13/h2-3,5,14H,4H2,1H3
InChIKey=LTQNNIWUQMEMPH-UHFFFAOYSA-N

> <PUBCHEM_SUBSTANCE_SYNONYM>
SCHEMBL16122113

> <PUBCHEM_XREF_EXT_ID>
SCHEMBL16122113

> <PUBCHEM_EXT_DATASOURCE_URL>
https://www.surechembl.org/

> <PUBCHEM_EXT_SUBSTANCE_URL>
https://www.surechembl.org/chemical/SCHEMBL16122113

> <PUBCHEM_CID_ASSOCIATIONS>
117610336  1

> <PUBCHEM_COORDINATE_TYPE>
1
3

$$$$
