310943306
  -OEChem-07211613022D

 33 36  0     0  0  0  0  0  0999 V2000
    4.4223    1.0307    0.0000 F   0  0  0  0  0  0  0  0  0  0  0  0
    5.5480    0.7236    0.0000 F   0  0  0  0  0  0  0  0  0  0  0  0
    5.2557   -0.4020    0.0000 F   0  0  0  0  0  0  0  0  0  0  0  0
    1.0161    1.4693    0.0000 O   0  0  0  0  0  0  0  0  0  0  0  0
    1.0161   -1.0014    0.0000 O   0  0  0  0  0  0  0  0  0  0  0  0
   -5.5480    1.0014    0.0000 O   0  0  0  0  0  0  0  0  0  0  0  0
   -1.1330    0.2412    0.0000 N   0  0  0  0  0  0  0  0  0  0  0  0
    1.9809    0.3143    0.0000 N   0  0  0  0  0  0  0  0  0  0  0  0
   -4.1153    0.1827    0.0000 N   0  0  0  0  0  0  0  0  0  0  0  0
   -3.4136   -1.0599    0.0000 N   0  0  0  0  0  0  0  0  0  0  0  0
    0.2997    0.2412    0.0000 C   0  0  0  0  0  0  0  0  0  0  0  0
   -1.9663   -0.2266    0.0000 C   0  0  0  0  0  0  0  0  0  0  0  0
   -1.1184    1.0745    0.0000 C   0  0  0  0  0  0  0  0  0  0  0  0
   -0.4166   -0.1681    0.0000 C   0  0  0  0  0  0  0  0  0  0  0  0
    0.2997    1.0599    0.0000 C   0  0  0  0  0  0  0  0  0  0  0  0
    1.0161   -0.1535    0.0000 C   0  0  0  0  0  0  0  0  0  0  0  0
   -0.4166    1.4693    0.0000 C   0  0  0  0  0  0  0  0  0  0  0  0
   -3.3989   -0.2266    0.0000 C   0  0  0  0  0  0  0  0  0  0  0  0
   -2.6973    0.1827    0.0000 C   0  0  0  0  0  0  0  0  0  0  0  0
   -1.9809   -1.0599    0.0000 C   0  0  0  0  0  0  0  0  0  0  0  0
    2.6973   -0.0950    0.0000 C   0  0  0  0  0  0  0  0  0  0  0  0
    4.1300   -0.0950    0.0000 C   0  0  0  0  0  0  0  0  0  0  0  0
    4.8316    0.3143    0.0000 C   0  0  0  0  0  0  0  0  0  0  0  0
    3.3989    0.2997    0.0000 C   0  0  0  0  0  0  0  0  0  0  0  0
   -2.6680   -1.4693    0.0000 C   0  0  0  0  0  0  0  0  0  0  0  0
   -1.8493    1.4546    0.0000 C   0  0  0  0  0  0  0  0  0  0  0  0
    2.6973   -0.9137    0.0000 C   0  0  0  0  0  0  0  0  0  0  0  0
    4.1153   -0.9284    0.0000 C   0  0  0  0  0  0  0  0  0  0  0  0
   -4.1300    1.0161    0.0000 C   0  0  0  0  0  0  0  0  0  0  0  0
   -4.8170   -0.2266    0.0000 C   0  0  0  0  0  0  0  0  0  0  0  0
    3.4136   -1.3377    0.0000 C   0  0  0  0  0  0  0  0  0  0  0  0
   -4.8316    1.4254    0.0000 C   0  0  0  0  0  0  0  0  0  0  0  0
   -5.5334    0.1827    0.0000 C   0  0  0  0  0  0  0  0  0  0  0  0
  1 23  1  0  0  0  0
  2 23  1  0  0  0  0
  3 23  1  0  0  0  0
  4 15  2  0  0  0  0
  5 16  2  0  0  0  0
  6 32  1  0  0  0  0
  6 33  1  0  0  0  0
  7 12  1  0  0  0  0
  7 13  1  0  0  0  0
  7 14  1  0  0  0  0
  8 16  1  0  0  0  0
  8 21  1  0  0  0  0
  9 18  1  0  0  0  0
  9 29  1  0  0  0  0
  9 30  1  0  0  0  0
 10 18  2  0  0  0  0
 10 25  1  0  0  0  0
 11 14  2  0  0  0  0
 11 15  1  0  0  0  0
 11 16  1  0  0  0  0
 12 19  2  0  0  0  0
 12 20  1  0  0  0  0
 13 17  2  0  0  0  0
 13 26  1  0  0  0  0
 15 17  1  0  0  0  0
 18 19  1  0  0  0  0
 20 25  2  0  0  0  0
 21 24  1  0  0  0  0
 21 27  2  0  0  0  0
 22 23  1  0  0  0  0
 22 24  2  0  0  0  0
 22 28  1  0  0  0  0
 27 31  1  0  0  0  0
 28 31  2  0  0  0  0
 29 32  1  0  0  0  0
 30 33  1  0  0  0  0
M  END
> <PUBCHEM_COMPOUND_ID_TYPE>
0

> <PUBCHEM_TOTAL_CHARGE>
0

> <PUBCHEM_SUBSTANCE_ID>
310943306

> <PUBCHEM_SUBSTANCE_VERSION>
1

> <PUBCHEM_EXT_DATASOURCE_NAME>
4488

> <PUBCHEM_EXT_DATASOURCE_REGID>
SCHEMBL16121368

> <PUBCHEM_SUBSTANCE_COMMENT>
InChI=1S/C23H21F3N4O3/c1-15-11-20(31)19(22(32)28-17-4-2-3-16(12-17)23(24,25)26)14-30(15)18-5-6-27-21(13-18)29-7-9-33-10-8-29/h2-6,11-14H,7-10H2,1H3,(H,28,32)
InChIKey=RASLNBWNIHACCU-UHFFFAOYSA-N

> <PUBCHEM_SUBSTANCE_SYNONYM>
SCHEMBL16121368

> <PUBCHEM_XREF_EXT_ID>
SCHEMBL16121368

> <PUBCHEM_EXT_DATASOURCE_URL>
https://www.surechembl.org/

> <PUBCHEM_EXT_SUBSTANCE_URL>
https://www.surechembl.org/chemical/SCHEMBL16121368

> <PUBCHEM_CID_ASSOCIATIONS>
117609731  1

> <PUBCHEM_COORDINATE_TYPE>
1
3

$$$$
