310945120
  -OEChem-07211613022D

 32 37  0     0  0  0  0  0  0999 V2000
    4.9072    1.3518    0.0000 O   0  0  0  0  0  0  0  0  0  0  0  0
   -3.4443   -1.3148    0.0000 O   0  0  0  0  0  0  0  0  0  0  0  0
    0.1482   -0.8888    0.0000 O   0  0  0  0  0  0  0  0  0  0  0  0
    3.0924    0.1111    0.0000 N   0  0  0  0  0  0  0  0  0  0  0  0
    4.7405   -0.0556    0.0000 N   0  0  0  0  0  0  0  0  0  0  0  0
   -0.5740    0.3704    0.0000 N   0  0  0  0  0  0  0  0  0  0  0  0
   -3.4628    0.3704    0.0000 N   0  0  0  0  0  0  0  0  0  0  0  0
    3.4258   -0.6481    0.0000 C   0  0  0  0  0  0  0  0  0  0  0  0
    2.2962    0.3889    0.0000 C   0  0  0  0  0  0  0  0  0  0  0  0
    3.5739    0.7962    0.0000 C   0  0  0  0  0  0  0  0  0  0  0  0
    2.3147    1.2036    0.0000 C   0  0  0  0  0  0  0  0  0  0  0  0
    3.0924    1.4444    0.0000 C   0  0  0  0  0  0  0  0  0  0  0  0
    4.3887    0.6666    0.0000 C   0  0  0  0  0  0  0  0  0  0  0  0
    4.2590   -0.7407    0.0000 C   0  0  0  0  0  0  0  0  0  0  0  0
    2.6295   -0.7962    0.0000 C   0  0  0  0  0  0  0  0  0  0  0  0
    3.5553   -1.4629    0.0000 C   0  0  0  0  0  0  0  0  0  0  0  0
    1.5925   -0.0370    0.0000 C   0  0  0  0  0  0  0  0  0  0  0  0
    2.7406   -1.5925    0.0000 C   0  0  0  0  0  0  0  0  0  0  0  0
    0.8703    0.3704    0.0000 C   0  0  0  0  0  0  0  0  0  0  0  0
    1.5925    1.5925    0.0000 C   0  0  0  0  0  0  0  0  0  0  0  0
    0.8888    1.2036    0.0000 C   0  0  0  0  0  0  0  0  0  0  0  0
    0.1482   -0.0185    0.0000 C   0  0  0  0  0  0  0  0  0  0  0  0
   -2.7221   -0.0556    0.0000 C   0  0  0  0  0  0  0  0  0  0  0  0
   -1.2963   -0.0370    0.0000 C   0  0  0  0  0  0  0  0  0  0  0  0
   -2.7221   -0.8703    0.0000 C   0  0  0  0  0  0  0  0  0  0  0  0
   -4.1850   -0.0556    0.0000 C   0  0  0  0  0  0  0  0  0  0  0  0
   -2.0369    0.3518    0.0000 C   0  0  0  0  0  0  0  0  0  0  0  0
   -1.3148   -0.8888    0.0000 C   0  0  0  0  0  0  0  0  0  0  0  0
   -1.9814   -1.2777    0.0000 C   0  0  0  0  0  0  0  0  0  0  0  0
   -4.1664   -0.8888    0.0000 C   0  0  0  0  0  0  0  0  0  0  0  0
   -4.9072   -0.4814    0.0000 C   0  0  0  0  0  0  0  0  0  0  0  0
   -4.9072    0.3518    0.0000 C   0  0  0  0  0  0  0  0  0  0  0  0
  1 13  2  0  0  0  0
  2 25  1  0  0  0  0
  2 30  1  0  0  0  0
  3 22  2  0  0  0  0
  4  8  1  0  0  0  0
  4  9  1  0  0  0  0
  4 10  1  0  0  0  0
  5 13  1  0  0  0  0
  5 14  1  0  0  0  0
  6 22  1  0  0  0  0
  6 24  1  0  0  0  0
  7 23  1  0  0  0  0
  7 26  1  0  0  0  0
  8 14  1  0  0  0  0
  8 15  1  0  0  0  0
  8 16  1  0  0  0  0
  9 11  1  0  0  0  0
  9 17  2  0  0  0  0
 10 12  2  0  0  0  0
 10 13  1  0  0  0  0
 11 12  1  0  0  0  0
 11 20  2  0  0  0  0
 15 18  1  0  0  0  0
 16 18  1  0  0  0  0
 17 19  1  0  0  0  0
 19 21  2  0  0  0  0
 19 22  1  0  0  0  0
 20 21  1  0  0  0  0
 23 25  2  0  0  0  0
 23 27  1  0  0  0  0
 24 27  2  0  0  0  0
 24 28  1  0  0  0  0
 25 29  1  0  0  0  0
 26 30  1  0  0  0  0
 26 31  1  0  0  0  0
 26 32  1  0  0  0  0
 28 29  2  0  0  0  0
M  END
> <PUBCHEM_COMPOUND_ID_TYPE>
0

> <PUBCHEM_TOTAL_CHARGE>
0

> <PUBCHEM_SUBSTANCE_ID>
310945120

> <PUBCHEM_SUBSTANCE_VERSION>
1

> <PUBCHEM_EXT_DATASOURCE_NAME>
4488

> <PUBCHEM_EXT_DATASOURCE_REGID>
SCHEMBL16123210

> <PUBCHEM_SUBSTANCE_COMMENT>
InChI=1S/C25H26N4O3/c1-24(2)14-32-21-7-6-17(12-18(21)28-24)27-22(30)16-5-4-15-10-20-23(31)26-13-25(8-3-9-25)29(20)19(15)11-16/h4-7,10-12,28H,3,8-9,13-14H2,1-2H3,(H,26,31)(H,27,30)
InChIKey=IADADEGEBBVXJL-UHFFFAOYSA-N

> <PUBCHEM_SUBSTANCE_SYNONYM>
SCHEMBL16123210

> <PUBCHEM_XREF_EXT_ID>
SCHEMBL16123210

> <PUBCHEM_EXT_DATASOURCE_URL>
https://www.surechembl.org/

> <PUBCHEM_EXT_SUBSTANCE_URL>
https://www.surechembl.org/chemical/SCHEMBL16123210

> <PUBCHEM_CID_ASSOCIATIONS>
117611215  1

> <PUBCHEM_COORDINATE_TYPE>
1
3

$$$$
