310944475
  -OEChem-07211613022D

 33 37  0     1  0  0  0  0  0999 V2000
    2.3546    0.3040    0.0000 O   0  0  0  0  0  0  0  0  0  0  0  0
    5.2953    0.5914    0.0000 O   0  0  0  0  0  0  0  0  0  0  0  0
    4.9415    1.8628    0.0000 O   0  0  0  0  0  0  0  0  0  0  0  0
   -0.6191   -1.5090    0.0000 O   0  0  0  0  0  0  0  0  0  0  0  0
    3.4491   -0.4588    0.0000 N   0  0  0  0  0  0  0  0  0  0  0  0
    0.6301   -0.5251    0.0000 N   0  0  0  0  0  0  0  0  0  0  0  0
   -3.9686    0.0497    0.0000 N   0  0  0  0  0  0  0  0  0  0  0  0
   -2.9738   -0.9894    0.0000 N   0  0  0  0  0  0  0  0  0  0  0  0
   -2.5647    0.3925    0.0000 N   0  0  0  0  0  0  0  0  0  0  0  0
   -4.2340    0.8236    0.0000 N   0  0  0  0  0  0  0  0  0  0  0  0
   -5.0631    0.8015    0.0000 N   0  0  0  0  0  0  0  0  0  0  0  0
   -5.2953    0.0055    0.0000 N   0  0  0  0  0  0  0  0  0  0  0  0
    2.2331   -0.9894    0.0000 C   0  0  0  0  0  0  0  0  0  0  0  0
    2.6421   -0.2930    0.0000 C   0  0  0  0  0  0  0  0  0  0  0  0
    4.0460    0.1161    0.0000 C   0  0  0  0  0  0  0  0  0  0  0  0
    2.8190   -1.6085    0.0000 C   0  0  0  0  0  0  0  0  0  0  0  0
    3.5486   -1.2658    0.0000 C   0  0  0  0  0  0  0  0  0  0  0  0
    1.6361   -1.5532    0.0000 C   0  0  0  0  0  0  0  0  0  0  0  0
    2.0451   -0.1935    0.0000 C   0  0  0  0  0  0  0  0  0  0  0  0
    4.0019    0.9452    0.0000 C   0  0  0  0  0  0  0  0  0  0  0  0
    4.8530   -0.0940    0.0000 C   0  0  0  0  0  0  0  0  0  0  0  0
    0.8180   -1.3100    0.0000 C   0  0  0  0  0  0  0  0  0  0  0  0
    1.2603    0.0608    0.0000 C   0  0  0  0  0  0  0  0  0  0  0  0
    4.7646    1.2326    0.0000 C   0  0  0  0  0  0  0  0  0  0  0  0
   -1.5698   -0.6135    0.0000 C   0  0  0  0  0  0  0  0  0  0  0  0
   -0.1769   -0.2930    0.0000 C   0  0  0  0  0  0  0  0  0  0  0  0
   -0.7739   -0.8678    0.0000 C   0  0  3  0  0  0  0  0  0  0  0  0
   -2.1668   -1.1995    0.0000 C   0  0  0  0  0  0  0  0  0  0  0  0
   -3.1728   -0.1824    0.0000 C   0  0  0  0  0  0  0  0  0  0  0  0
    3.4270    1.3100    0.0000 C   0  0  0  0  0  0  0  0  0  0  0  0
   -1.7688    0.1714    0.0000 C   0  0  0  0  0  0  0  0  0  0  0  0
   -4.6099   -0.4477    0.0000 C   0  0  0  0  0  0  0  0  0  0  0  0
   -2.0009   -1.8627    0.0000 C   0  0  0  0  0  0  0  0  0  0  0  0
  1 14  2  0  0  0  0
  2 21  1  0  0  0  0
  2 24  1  0  0  0  0
  3 24  2  0  0  0  0
 27  4  1  1  0  0  0
  5 14  1  0  0  0  0
  5 15  1  0  0  0  0
  5 17  1  0  0  0  0
  6 22  1  0  0  0  0
  6 23  1  0  0  0  0
  6 26  1  0  0  0  0
  7 10  1  0  0  0  0
  7 29  1  0  0  0  0
  7 32  1  0  0  0  0
  8 28  2  0  0  0  0
  8 29  1  0  0  0  0
  9 29  2  0  0  0  0
  9 31  1  0  0  0  0
 10 11  2  0  0  0  0
 11 12  1  0  0  0  0
 12 32  2  0  0  0  0
 13 14  1  0  0  0  0
 13 16  1  0  0  0  0
 13 18  1  0  0  0  0
 13 19  1  0  0  0  0
 15 20  2  0  0  0  0
 15 21  1  0  0  0  0
 16 17  1  0  0  0  0
 18 22  1  0  0  0  0
 19 23  1  0  0  0  0
 20 24  1  0  0  0  0
 20 30  1  0  0  0  0
 25 27  1  0  0  0  0
 25 28  1  0  0  0  0
 25 31  2  0  0  0  0
 26 27  1  0  0  0  0
 28 33  1  0  0  0  0
M  END
> <PUBCHEM_COMPOUND_ID_TYPE>
0

> <PUBCHEM_TOTAL_CHARGE>
0

> <PUBCHEM_SUBSTANCE_ID>
310944475

> <PUBCHEM_SUBSTANCE_VERSION>
1

> <PUBCHEM_EXT_DATASOURCE_NAME>
4488

> <PUBCHEM_EXT_DATASOURCE_REGID>
SCHEMBL16122550

> <PUBCHEM_SUBSTANCE_COMMENT>
InChI=1S/C21H26N8O4/c1-13-16(11-33-18(13)31)28-8-5-21(19(28)32)3-6-27(7-4-21)10-17(30)15-9-22-20(24-14(15)2)29-12-23-25-26-29/h9,12,17,30H,3-8,10-11H2,1-2H3/t17-/m1/s1
InChIKey=SWAIENBIQYVUIW-QGZVFWFLSA-N

> <PUBCHEM_SUBSTANCE_SYNONYM>
SCHEMBL16122550

> <PUBCHEM_XREF_EXT_ID>
SCHEMBL16122550

> <PUBCHEM_EXT_DATASOURCE_URL>
https://www.surechembl.org/

> <PUBCHEM_EXT_SUBSTANCE_URL>
https://www.surechembl.org/chemical/SCHEMBL16122550

> <PUBCHEM_CID_ASSOCIATIONS>
86271916  1

> <PUBCHEM_COORDINATE_TYPE>
1
3

> <PUBCHEM_BONDANNOTATIONS>
27  4  5

$$$$
