310945489
  -OEChem-07211613022D

 27 29  0     0  0  0  0  0  0999 V2000
   -1.2474    1.8742    0.0000 O   0  0  0  0  0  0  0  0  0  0  0  0
    2.3396   -1.0177    0.0000 O   0  0  0  0  0  0  0  0  0  0  0  0
    1.6197   -2.2589    0.0000 O   0  0  0  0  0  0  0  0  0  0  0  0
   -2.7244    0.8937    0.0000 N   0  0  0  0  0  0  0  0  0  0  0  0
   -3.2084    0.2234    0.0000 N   0  0  0  0  0  0  0  0  0  0  0  0
    0.9247   -1.0177    0.0000 N   0  0  0  0  0  0  0  0  0  0  0  0
   -3.3946   -1.9486    0.0000 N   0  0  0  0  0  0  0  0  0  0  0  0
   -1.9548    0.6330    0.0000 C   0  0  0  0  0  0  0  0  0  0  0  0
   -0.5151   -0.1861    0.0000 C   0  0  0  0  0  0  0  0  0  0  0  0
   -1.9548   -0.1737    0.0000 C   0  0  0  0  0  0  0  0  0  0  0  0
   -1.2350    1.0426    0.0000 C   0  0  0  0  0  0  0  0  0  0  0  0
   -1.2225   -0.5957    0.0000 C   0  0  0  0  0  0  0  0  0  0  0  0
   -2.7244   -0.4344    0.0000 C   0  0  0  0  0  0  0  0  0  0  0  0
   -0.5151    0.6330    0.0000 C   0  0  0  0  0  0  0  0  0  0  0  0
    0.1923    0.2234    0.0000 C   0  0  0  0  0  0  0  0  0  0  0  0
   -0.5151   -1.0177    0.0000 C   0  0  0  0  0  0  0  0  0  0  0  0
   -2.9850    1.6755    0.0000 C   0  0  0  0  0  0  0  0  0  0  0  0
    0.9123   -0.1861    0.0000 C   0  0  0  0  0  0  0  0  0  0  0  0
    0.2048   -1.4273    0.0000 C   0  0  0  0  0  0  0  0  0  0  0  0
   -2.9974   -1.2287    0.0000 C   0  0  0  0  0  0  0  0  0  0  0  0
    1.6321   -1.4025    0.0000 C   0  0  0  0  0  0  0  0  0  0  0  0
   -2.4017    2.2589    0.0000 C   0  0  0  0  0  0  0  0  0  0  0  0
   -3.7794    1.8866    0.0000 C   0  0  0  0  0  0  0  0  0  0  0  0
    3.0718   -1.4149    0.0000 C   0  0  0  0  0  0  0  0  0  0  0  0
    3.0718   -0.6081    0.0000 C   0  0  0  0  0  0  0  0  0  0  0  0
    3.7794   -1.0177    0.0000 C   0  0  0  0  0  0  0  0  0  0  0  0
    3.0843   -2.2589    0.0000 C   0  0  0  0  0  0  0  0  0  0  0  0
  1 11  2  0  0  0  0
  2 21  1  0  0  0  0
  2 24  1  0  0  0  0
  3 21  2  0  0  0  0
  4  5  1  0  0  0  0
  4  8  1  0  0  0  0
  4 17  1  0  0  0  0
  5 13  2  0  0  0  0
  6 18  1  0  0  0  0
  6 19  1  0  0  0  0
  6 21  1  0  0  0  0
  7 20  2  3  0  0  0
  8 10  2  0  0  0  0
  8 11  1  0  0  0  0
  9 12  1  0  0  0  0
  9 14  1  0  0  0  0
  9 15  1  0  0  0  0
  9 16  1  0  0  0  0
 10 12  1  0  0  0  0
 10 13  1  0  0  0  0
 11 14  1  0  0  0  0
 13 20  1  0  0  0  0
 15 18  1  0  0  0  0
 16 19  1  0  0  0  0
 17 22  1  0  0  0  0
 17 23  1  0  0  0  0
 24 25  1  0  0  0  0
 24 26  1  0  0  0  0
 24 27  1  0  0  0  0
M  END
> <PUBCHEM_COMPOUND_ID_TYPE>
0

> <PUBCHEM_TOTAL_CHARGE>
0

> <PUBCHEM_SUBSTANCE_ID>
310945489

> <PUBCHEM_SUBSTANCE_VERSION>
1

> <PUBCHEM_EXT_DATASOURCE_NAME>
4488

> <PUBCHEM_EXT_DATASOURCE_REGID>
SCHEMBL16123587

> <PUBCHEM_SUBSTANCE_COMMENT>
InChI=1S/C20H30N4O3/c1-13(2)24-17-14(15(12-21)22-24)10-20(11-16(17)25)6-8-23(9-7-20)18(26)27-19(3,4)5/h12-13,21H,6-11H2,1-5H3
InChIKey=QEWIQHHHUXEYMX-UHFFFAOYSA-N

> <PUBCHEM_SUBSTANCE_SYNONYM>
SCHEMBL16123587

> <PUBCHEM_XREF_EXT_ID>
SCHEMBL16123587

> <PUBCHEM_EXT_DATASOURCE_URL>
https://www.surechembl.org/

> <PUBCHEM_EXT_SUBSTANCE_URL>
https://www.surechembl.org/chemical/SCHEMBL16123587

> <PUBCHEM_CID_ASSOCIATIONS>
117611532  1

> <PUBCHEM_COORDINATE_TYPE>
1
3

$$$$
