310948638
  -OEChem-07211613022D

 33 36  0     1  0  0  0  0  0999 V2000
   -1.4827   -2.5586    0.0000 S   0  0  0  0  0  0  0  0  0  0  0  0
   -2.7104    2.1449    0.0000 O   0  0  0  0  0  0  0  0  0  0  0  0
   -1.6897   -3.3587    0.0000 O   0  0  0  0  0  0  0  0  0  0  0  0
   -2.2966   -2.5586    0.0000 O   0  0  0  0  0  0  0  0  0  0  0  0
    0.0483    2.0483    0.0000 N   0  0  0  0  0  0  0  0  0  0  0  0
   -0.2690    1.2759    0.0000 N   0  0  0  0  0  0  0  0  0  0  0  0
   -1.6483    0.7379    0.0000 N   0  0  0  0  0  0  0  0  0  0  0  0
   -2.0069    3.4000    0.0000 N   0  0  0  0  0  0  0  0  0  0  0  0
    0.5725    0.0621    0.0000 N   0  0  0  0  0  0  0  0  0  0  0  0
   -1.2759    2.1725    0.0000 C   0  0  0  0  0  0  0  0  0  0  0  0
   -0.5725    2.5862    0.0000 C   0  0  0  0  0  0  0  0  0  0  0  0
   -1.0966    1.3724    0.0000 C   0  0  0  0  0  0  0  0  0  0  0  0
    0.8621    2.2139    0.0000 C   0  0  3  0  0  0  0  0  0  0  0  0
   -2.0069    2.5862    0.0000 C   0  0  0  0  0  0  0  0  0  0  0  0
   -0.5725    3.4138    0.0000 C   0  0  0  0  0  0  0  0  0  0  0  0
   -1.6483   -1.7449    0.0000 C   0  0  0  0  0  0  0  0  0  0  0  0
   -1.6345   -0.1035    0.0000 C   0  0  0  0  0  0  0  0  0  0  0  0
   -0.7380   -2.9724    0.0000 C   0  0  0  0  0  0  0  0  0  0  0  0
    1.3724    1.5793    0.0000 C   0  0  3  0  0  0  0  0  0  0  0  0
   -1.3035    3.8139    0.0000 C   0  0  0  0  0  0  0  0  0  0  0  0
    1.0552    3.0276    0.0000 C   0  0  0  0  0  0  0  0  0  0  0  0
   -2.3518   -1.3311    0.0000 C   0  0  0  0  0  0  0  0  0  0  0  0
   -0.9310   -1.3311    0.0000 C   0  0  0  0  0  0  0  0  0  0  0  0
   -2.3518   -0.5034    0.0000 C   0  0  0  0  0  0  0  0  0  0  0  0
   -0.9310   -0.5172    0.0000 C   0  0  0  0  0  0  0  0  0  0  0  0
    2.2001    1.5793    0.0000 C   0  0  0  0  0  0  0  0  0  0  0  0
    1.0000    0.8207    0.0000 C   0  0  0  0  0  0  0  0  0  0  0  0
    1.8000    3.3863    0.0000 C   0  0  0  0  0  0  0  0  0  0  0  0
   -0.0207   -2.5724    0.0000 C   0  0  0  0  0  0  0  0  0  0  0  0
   -0.0207   -3.3725    0.0000 C   0  0  0  0  0  0  0  0  0  0  0  0
   -0.7380   -3.8139    0.0000 C   0  0  0  0  0  0  0  0  0  0  0  0
    2.7104    2.2276    0.0000 C   0  0  0  0  0  0  0  0  0  0  0  0
    2.5310    3.0276    0.0000 C   0  0  0  0  0  0  0  0  0  0  0  0
  1  3  2  0  0  0  0
  1  4  2  0  0  0  0
  1 16  1  0  0  0  0
  1 18  1  0  0  0  0
  2 14  2  0  0  0  0
  5  6  1  0  0  0  0
  5 11  1  0  0  0  0
 13  5  1  6  0  0  0
  6 12  2  0  0  0  0
  7 12  1  0  0  0  0
  7 17  1  0  0  0  0
  8 14  1  0  0  0  0
  8 20  1  0  0  0  0
  9 27  3  0  0  0  0
 10 11  2  0  0  0  0
 10 12  1  0  0  0  0
 10 14  1  0  0  0  0
 11 15  1  0  0  0  0
 13 19  1  0  0  0  0
 13 21  1  0  0  0  0
 15 20  2  0  0  0  0
 16 22  2  0  0  0  0
 16 23  1  0  0  0  0
 17 24  2  0  0  0  0
 17 25  1  0  0  0  0
 18 29  1  0  0  0  0
 18 30  1  0  0  0  0
 18 31  1  0  0  0  0
 19 26  1  0  0  0  0
 19 27  1  1  0  0  0
 21 28  1  0  0  0  0
 22 24  1  0  0  0  0
 23 25  2  0  0  0  0
 26 32  1  0  0  0  0
 28 33  1  0  0  0  0
 32 33  1  0  0  0  0
M  END
> <PUBCHEM_COMPOUND_ID_TYPE>
0

> <PUBCHEM_TOTAL_CHARGE>
0

> <PUBCHEM_SUBSTANCE_ID>
310948638

> <PUBCHEM_SUBSTANCE_VERSION>
1

> <PUBCHEM_EXT_DATASOURCE_NAME>
4488

> <PUBCHEM_EXT_DATASOURCE_REGID>
SCHEMBL16126822

> <PUBCHEM_SUBSTANCE_COMMENT>
InChI=1S/C24H29N5O3S/c1-24(2,3)33(31,32)18-11-9-17(10-12-18)27-22-21-20(13-14-26-23(21)30)29(28-22)19-8-6-4-5-7-16(19)15-25/h9-14,16,19H,4-8H2,1-3H3,(H,26,30)(H,27,28)/t16-,19+/m0/s1
InChIKey=GZAHUQDDMULFOK-QFBILLFUSA-N

> <PUBCHEM_SUBSTANCE_SYNONYM>
SCHEMBL16126822

> <PUBCHEM_XREF_EXT_ID>
SCHEMBL16126822

> <PUBCHEM_EXT_DATASOURCE_URL>
https://www.surechembl.org/

> <PUBCHEM_EXT_SUBSTANCE_URL>
https://www.surechembl.org/chemical/SCHEMBL16126822

> <PUBCHEM_CID_ASSOCIATIONS>
117614182  1

> <PUBCHEM_COORDINATE_TYPE>
1
3

> <PUBCHEM_BONDANNOTATIONS>
19  27  5
13  5  6

$$$$
