310944595
  -OEChem-07211613022D

 24 25  0     1  0  0  0  0  0999 V2000
   -3.1325    1.8583    0.0000 Cl  0  0  0  0  0  0  0  0  0  0  0  0
   -4.7360    1.0380    0.0000 Cl  0  0  0  0  0  0  0  0  0  0  0  0
   -3.1449   -1.4481    0.0000 O   0  0  0  0  0  0  0  0  0  0  0  0
   -0.2735   -1.4481    0.0000 O   0  0  0  0  0  0  0  0  0  0  0  0
    3.3189    0.6153    0.0000 O   0  0  0  0  0  0  0  0  0  0  0  0
    2.6228   -0.6153    0.0000 N   0  0  0  0  0  0  0  0  0  0  0  0
   -1.6906   -0.6153    0.0000 N   0  0  0  0  0  0  0  0  0  0  0  0
    0.4599   -0.2051    0.0000 N   0  0  0  0  0  0  0  0  0  0  0  0
   -2.4240   -0.1927    0.0000 C   0  0  0  0  0  0  0  0  0  0  0  0
   -3.1325   -0.6153    0.0000 C   0  0  0  0  0  0  0  0  0  0  0  0
   -3.1325    1.0380    0.0000 C   0  0  0  0  0  0  0  0  0  0  0  0
   -3.8535    0.6278    0.0000 C   0  0  0  0  0  0  0  0  0  0  0  0
   -2.4115    0.6153    0.0000 C   0  0  0  0  0  0  0  0  0  0  0  0
   -3.8410   -0.1927    0.0000 C   0  0  0  0  0  0  0  0  0  0  0  0
    1.1809   -0.6153    0.0000 C   0  0  3  0  0  0  0  0  0  0  0  0
    1.8894   -0.2051    0.0000 C   0  0  0  0  0  0  0  0  0  0  0  0
   -0.2611   -0.6029    0.0000 C   0  0  0  0  0  0  0  0  0  0  0  0
   -0.9696   -0.2051    0.0000 C   0  0  0  0  0  0  0  0  0  0  0  0
    3.3189   -0.2175    0.0000 C   0  0  0  0  0  0  0  0  0  0  0  0
    1.1809   -1.4481    0.0000 C   0  0  0  0  0  0  0  0  0  0  0  0
    2.6104   -1.4606    0.0000 C   0  0  0  0  0  0  0  0  0  0  0  0
    1.9019   -1.8583    0.0000 C   0  0  0  0  0  0  0  0  0  0  0  0
    4.0523   -0.6153    0.0000 C   0  0  0  0  0  0  0  0  0  0  0  0
    4.7360   -0.1678    0.0000 C   0  0  0  0  0  0  0  0  0  0  0  0
  1 11  1  0  0  0  0
  2 12  1  0  0  0  0
  3 10  1  0  0  0  0
  4 17  2  0  0  0  0
  5 19  2  0  0  0  0
  6 16  1  0  0  0  0
  6 19  1  0  0  0  0
  6 21  1  0  0  0  0
  7  9  1  0  0  0  0
  7 18  1  0  0  0  0
 15  8  1  1  0  0  0
  8 17  1  0  0  0  0
  9 10  2  0  0  0  0
  9 13  1  0  0  0  0
 10 14  1  0  0  0  0
 11 12  1  0  0  0  0
 11 13  2  0  0  0  0
 12 14  2  0  0  0  0
 15 16  1  0  0  0  0
 15 20  1  0  0  0  0
 17 18  1  0  0  0  0
 19 23  1  0  0  0  0
 20 22  1  0  0  0  0
 21 22  1  0  0  0  0
 23 24  2  0  0  0  0
M  END
> <PUBCHEM_COMPOUND_ID_TYPE>
0

> <PUBCHEM_TOTAL_CHARGE>
0

> <PUBCHEM_SUBSTANCE_ID>
310944595

> <PUBCHEM_SUBSTANCE_VERSION>
1

> <PUBCHEM_EXT_DATASOURCE_NAME>
4488

> <PUBCHEM_EXT_DATASOURCE_REGID>
SCHEMBL16122673

> <PUBCHEM_SUBSTANCE_COMMENT>
InChI=1S/C16H19Cl2N3O3/c1-2-16(24)21-5-3-4-10(9-21)20-15(23)8-19-13-6-11(17)12(18)7-14(13)22/h2,6-7,10,19,22H,1,3-5,8-9H2,(H,20,23)/t10-/m1/s1
InChIKey=RIZJFBJHPILPRO-SNVBAGLBSA-N

> <PUBCHEM_SUBSTANCE_SYNONYM>
SCHEMBL16122673

> <PUBCHEM_XREF_EXT_ID>
SCHEMBL16122673

> <PUBCHEM_EXT_DATASOURCE_URL>
https://www.surechembl.org/

> <PUBCHEM_EXT_SUBSTANCE_URL>
https://www.surechembl.org/chemical/SCHEMBL16122673

> <PUBCHEM_CID_ASSOCIATIONS>
117610825  1

> <PUBCHEM_COORDINATE_TYPE>
1
3

> <PUBCHEM_BONDANNOTATIONS>
15  8  5

$$$$
