310932932
  -OEChem-07211613022D

 29 31  0     0  0  0  0  0  0999 V2000
    3.9931   -2.0791    0.0000 O   0  0  0  0  0  0  0  0  0  0  0  0
    8.4483   -2.1781    0.0000 O   0  0  0  0  0  0  0  0  0  0  0  0
    9.1743   -5.8742    0.0000 O   0  0  0  0  0  0  0  0  0  0  0  0
    4.8842   -0.9570    0.0000 N   0  0  0  0  0  0  0  0  0  0  0  0
    4.7852   -0.1320    0.0000 N   0  0  0  0  0  0  0  0  0  0  0  0
    6.3032   -0.9570    0.0000 N   0  0  0  0  0  0  0  0  0  0  0  0
    7.7223   -3.3991    0.0000 N   0  0  0  0  0  0  0  0  0  0  0  0
    0.0000   -1.8151    0.0000 N   0  0  0  0  0  0  0  0  0  0  0  0
    4.1581   -1.2870    0.0000 C   0  0  0  0  0  0  0  0  0  0  0  0
    3.5641   -0.6930    0.0000 C   0  0  0  0  0  0  0  0  0  0  0  0
    5.6102   -1.3531    0.0000 C   0  0  0  0  0  0  0  0  0  0  0  0
    2.7721   -0.7920    0.0000 C   0  0  0  0  0  0  0  0  0  0  0  0
    3.9931    0.0000    0.0000 C   0  0  0  0  0  0  0  0  0  0  0  0
    5.6102   -2.1781    0.0000 C   0  0  0  0  0  0  0  0  0  0  0  0
    7.0292   -2.1781    0.0000 C   0  0  0  0  0  0  0  0  0  0  0  0
    7.0292   -1.3531    0.0000 C   0  0  0  0  0  0  0  0  0  0  0  0
    6.3032   -2.5741    0.0000 C   0  0  0  0  0  0  0  0  0  0  0  0
    2.4421   -1.5510    0.0000 C   0  0  0  0  0  0  0  0  0  0  0  0
    2.2771   -0.1320    0.0000 C   0  0  0  0  0  0  0  0  0  0  0  0
    7.7223   -2.5741    0.0000 C   0  0  0  0  0  0  0  0  0  0  0  0
    1.1220   -0.9570    0.0000 C   0  0  0  0  0  0  0  0  0  0  0  0
    1.6170   -1.6170    0.0000 C   0  0  0  0  0  0  0  0  0  0  0  0
    1.4520   -0.2310    0.0000 C   0  0  0  0  0  0  0  0  0  0  0  0
    8.4483   -3.8281    0.0000 C   0  0  0  0  0  0  0  0  0  0  0  0
    0.3300   -1.0560    0.0000 C   0  0  0  0  0  0  0  0  0  0  0  0
    7.0292   -3.8281    0.0000 C   0  0  0  0  0  0  0  0  0  0  0  0
    8.4483   -4.6531    0.0000 C   0  0  0  0  0  0  0  0  0  0  0  0
    9.1743   -5.0492    0.0000 C   0  0  0  0  0  0  0  0  0  0  0  0
    9.9004   -6.2702    0.0000 C   0  0  0  0  0  0  0  0  0  0  0  0
  1  9  1  0  0  0  0
  2 20  2  0  0  0  0
  3 28  1  0  0  0  0
  3 29  1  0  0  0  0
  4  5  1  0  0  0  0
  4  9  1  0  0  0  0
  4 11  1  0  0  0  0
  5 13  2  0  0  0  0
  6 11  2  0  0  0  0
  6 16  1  0  0  0  0
  7 20  1  0  0  0  0
  7 24  1  0  0  0  0
  7 26  1  0  0  0  0
  8 25  3  0  0  0  0
  9 10  2  0  0  0  0
 10 12  1  0  0  0  0
 10 13  1  0  0  0  0
 11 14  1  0  0  0  0
 12 18  2  0  0  0  0
 12 19  1  0  0  0  0
 14 17  2  0  0  0  0
 15 16  2  0  0  0  0
 15 17  1  0  0  0  0
 15 20  1  0  0  0  0
 18 22  1  0  0  0  0
 19 23  2  0  0  0  0
 21 22  2  0  0  0  0
 21 23  1  0  0  0  0
 21 25  1  0  0  0  0
 24 27  1  0  0  0  0
 27 28  1  0  0  0  0
M  END
> <PUBCHEM_COMPOUND_ID_TYPE>
0

> <PUBCHEM_TOTAL_CHARGE>
0

> <PUBCHEM_SUBSTANCE_ID>
310932932

> <PUBCHEM_SUBSTANCE_VERSION>
1

> <PUBCHEM_EXT_DATASOURCE_NAME>
4488

> <PUBCHEM_EXT_DATASOURCE_REGID>
SCHEMBL16110327

> <PUBCHEM_SUBSTANCE_COMMENT>
InChI=1S/C21H21N5O3/c1-25(10-3-11-29-2)20(27)17-8-9-19(23-13-17)26-21(28)18(14-24-26)16-6-4-15(12-22)5-7-16/h4-9,13-14,28H,3,10-11H2,1-2H3
InChIKey=BOHVKPIBPQAURU-UHFFFAOYSA-N

> <PUBCHEM_SUBSTANCE_SYNONYM>
SCHEMBL16110327

> <PUBCHEM_XREF_EXT_ID>
SCHEMBL16110327

> <PUBCHEM_EXT_DATASOURCE_URL>
https://www.surechembl.org/

> <PUBCHEM_EXT_SUBSTANCE_URL>
https://www.surechembl.org/chemical/SCHEMBL16110327

> <PUBCHEM_CID_ASSOCIATIONS>
117601413  1

> <PUBCHEM_COORDINATE_TYPE>
1
3

$$$$
