310937850
  -OEChem-07211613022D

 29 33  0     0  0  0  0  0  0999 V2000
    1.4234   -0.8590    0.0000 F   0  0  0  0  0  0  0  0  0  0  0  0
    2.1597   -2.0861    0.0000 F   0  0  0  0  0  0  0  0  0  0  0  0
    2.1352   -0.4417    0.0000 F   0  0  0  0  0  0  0  0  0  0  0  0
    4.2213    0.0000    0.0000 O   0  0  0  0  0  0  0  0  0  0  0  0
    3.5586   -1.2516    0.0000 N   0  0  0  0  0  0  0  0  0  0  0  0
    5.7674   -2.3315    0.0000 N   0  0  0  0  0  0  0  0  0  0  0  0
    3.5586   -3.7059    0.0000 N   0  0  0  0  0  0  0  0  0  0  0  0
    6.2337   -1.6689    0.0000 N   0  0  0  0  0  0  0  0  0  0  0  0
    1.4234   -2.4542    0.0000 N   0  0  0  0  0  0  0  0  0  0  0  0
    3.5586   -2.0861    0.0000 C   0  0  0  0  0  0  0  0  0  0  0  0
    4.2458   -2.5033    0.0000 C   0  0  0  0  0  0  0  0  0  0  0  0
    4.9821   -2.0861    0.0000 C   0  0  0  0  0  0  0  0  0  0  0  0
    4.9821   -1.2516    0.0000 C   0  0  0  0  0  0  0  0  0  0  0  0
    4.2458   -0.8099    0.0000 C   0  0  0  0  0  0  0  0  0  0  0  0
    2.8224   -3.2641    0.0000 C   0  0  0  0  0  0  0  0  0  0  0  0
    2.8224   -2.5033    0.0000 C   0  0  0  0  0  0  0  0  0  0  0  0
    4.2458   -3.2641    0.0000 C   0  0  0  0  0  0  0  0  0  0  0  0
    2.1106   -3.6814    0.0000 C   0  0  0  0  0  0  0  0  0  0  0  0
    2.8469   -0.8344    0.0000 C   0  0  0  0  0  0  0  0  0  0  0  0
    5.7674   -0.9817    0.0000 C   0  0  0  0  0  0  0  0  0  0  0  0
    1.4234   -3.2887    0.0000 C   0  0  0  0  0  0  0  0  0  0  0  0
    2.1352   -1.2516    0.0000 C   0  0  0  0  0  0  0  0  0  0  0  0
    0.7118   -3.6814    0.0000 C   0  0  0  0  0  0  0  0  0  0  0  0
    2.1106   -4.5158    0.0000 C   0  0  0  0  0  0  0  0  0  0  0  0
    0.6872   -4.4913    0.0000 C   0  0  0  0  0  0  0  0  0  0  0  0
    1.3989   -4.9084    0.0000 C   0  0  0  0  0  0  0  0  0  0  0  0
    0.0000   -3.2641    0.0000 C   0  0  0  0  0  0  0  0  0  0  0  0
    0.7118   -2.0370    0.0000 C   0  0  0  0  0  0  0  0  0  0  0  0
    0.0000   -2.4297    0.0000 C   0  0  0  0  0  0  0  0  0  0  0  0
  1 22  1  0  0  0  0
  2 22  1  0  0  0  0
  3 22  1  0  0  0  0
  4 14  2  0  0  0  0
  5 10  1  0  0  0  0
  5 14  1  0  0  0  0
  5 19  1  0  0  0  0
  6  8  1  0  0  0  0
  6 12  1  0  0  0  0
  7 15  2  0  0  0  0
  7 17  1  0  0  0  0
  8 20  2  0  0  0  0
  9 21  2  0  0  0  0
  9 28  1  0  0  0  0
 10 11  1  0  0  0  0
 10 16  2  0  0  0  0
 11 12  1  0  0  0  0
 11 17  2  0  0  0  0
 12 13  2  0  0  0  0
 13 14  1  0  0  0  0
 13 20  1  0  0  0  0
 15 16  1  0  0  0  0
 15 18  1  0  0  0  0
 18 21  1  0  0  0  0
 18 24  2  0  0  0  0
 19 22  1  0  0  0  0
 21 23  1  0  0  0  0
 23 25  1  0  0  0  0
 23 27  2  0  0  0  0
 24 26  1  0  0  0  0
 25 26  2  0  0  0  0
 27 29  1  0  0  0  0
 28 29  2  0  0  0  0
M  END
> <PUBCHEM_COMPOUND_ID_TYPE>
0

> <PUBCHEM_TOTAL_CHARGE>
0

> <PUBCHEM_SUBSTANCE_ID>
310937850

> <PUBCHEM_SUBSTANCE_VERSION>
1

> <PUBCHEM_EXT_DATASOURCE_NAME>
4488

> <PUBCHEM_EXT_DATASOURCE_REGID>
SCHEMBL16115674

> <PUBCHEM_SUBSTANCE_COMMENT>
InChI=1S/C20H12F3N5O/c21-20(22,23)10-28-16-7-15(12-5-1-3-11-4-2-6-24-17(11)12)25-8-13(16)18-14(19(28)29)9-26-27-18/h1-9H,10H2,(H,26,27)
InChIKey=HOTCHGVFVCNNLV-UHFFFAOYSA-N

> <PUBCHEM_SUBSTANCE_SYNONYM>
SCHEMBL16115674

> <PUBCHEM_XREF_EXT_ID>
SCHEMBL16115674

> <PUBCHEM_EXT_DATASOURCE_URL>
https://www.surechembl.org/

> <PUBCHEM_EXT_SUBSTANCE_URL>
https://www.surechembl.org/chemical/SCHEMBL16115674

> <PUBCHEM_CID_ASSOCIATIONS>
86298822  1

> <PUBCHEM_COORDINATE_TYPE>
1
3

$$$$
