310946086
  -OEChem-07211613022D

 20 21  0     1  0  0  0  0  0999 V2000
    1.6094    1.5677    0.0000 O   0  0  0  0  0  0  0  0  0  0  0  0
   -0.7872    0.4250    0.0000 O   0  0  0  0  0  0  0  0  0  0  0  0
   -1.3168   -2.5988    0.0000 O   0  0  0  0  0  0  0  0  0  0  0  0
    0.0767    2.4316    0.0000 N   0  0  0  0  0  0  0  0  0  0  0  0
    0.8709    0.3275    0.0000 N   0  0  0  0  0  0  0  0  0  0  0  0
    0.1463    1.5955    0.0000 C   0  0  3  0  0  0  0  0  0  0  0  0
    0.8987    1.1496    0.0000 C   0  0  0  0  0  0  0  0  0  0  0  0
   -0.5922    1.2750    0.0000 C   0  0  3  0  0  0  0  0  0  0  0  0
   -1.1496    1.8741    0.0000 C   0  0  0  0  0  0  0  0  0  0  0  0
    1.6233   -0.0767    0.0000 C   0  0  3  0  0  0  0  0  0  0  0  0
    0.8848   -1.3447    0.0000 C   0  0  0  0  0  0  0  0  0  0  0  0
   -0.7316    2.5988    0.0000 C   0  0  0  0  0  0  0  0  0  0  0  0
    1.6233   -0.9127    0.0000 C   0  0  0  0  0  0  0  0  0  0  0  0
   -0.5922   -2.1528    0.0000 C   0  0  0  0  0  0  0  0  0  0  0  0
    0.1463   -0.9266    0.0000 C   0  0  0  0  0  0  0  0  0  0  0  0
    0.8570   -2.1668    0.0000 C   0  0  0  0  0  0  0  0  0  0  0  0
   -0.5643   -1.3308    0.0000 C   0  0  0  0  0  0  0  0  0  0  0  0
    0.1602   -2.5709    0.0000 C   0  0  0  0  0  0  0  0  0  0  0  0
    2.0414    0.1602    0.0000 C   0  0  0  0  0  0  0  0  0  0  0  0
   -2.0413   -2.1668    0.0000 C   0  0  0  0  0  0  0  0  0  0  0  0
  1  7  2  0  0  0  0
  8  2  1  1  0  0  0
  3 14  1  0  0  0  0
  3 20  1  0  0  0  0
  4  6  1  0  0  0  0
  4 12  1  0  0  0  0
  5  7  1  0  0  0  0
  5 10  1  0  0  0  0
  6  7  1  1  0  0  0
  6  8  1  0  0  0  0
  8  9  1  0  0  0  0
  9 12  1  0  0  0  0
 10 13  1  0  0  0  0
 10 19  1  6  0  0  0
 11 13  1  0  0  0  0
 11 15  2  0  0  0  0
 11 16  1  0  0  0  0
 14 17  2  0  0  0  0
 14 18  1  0  0  0  0
 15 17  1  0  0  0  0
 16 18  2  0  0  0  0
M  END
> <PUBCHEM_COMPOUND_ID_TYPE>
0

> <PUBCHEM_TOTAL_CHARGE>
0

> <PUBCHEM_SUBSTANCE_ID>
310946086

> <PUBCHEM_SUBSTANCE_VERSION>
1

> <PUBCHEM_EXT_DATASOURCE_NAME>
4488

> <PUBCHEM_EXT_DATASOURCE_REGID>
SCHEMBL16124193

> <PUBCHEM_SUBSTANCE_COMMENT>
InChI=1S/C15H22N2O3/c1-10(9-11-3-5-12(20-2)6-4-11)17-15(19)14-13(18)7-8-16-14/h3-6,10,13-14,16,18H,7-9H2,1-2H3,(H,17,19)/t10-,13+,14-/m1/s1
InChIKey=HUIKKYWQIVWLGH-DDTOSNHZSA-N

> <PUBCHEM_SUBSTANCE_SYNONYM>
SCHEMBL16124193

> <PUBCHEM_XREF_EXT_ID>
SCHEMBL16124193

> <PUBCHEM_EXT_DATASOURCE_URL>
https://www.surechembl.org/

> <PUBCHEM_EXT_SUBSTANCE_URL>
https://www.surechembl.org/chemical/SCHEMBL16124193

> <PUBCHEM_CID_ASSOCIATIONS>
117612051  1

> <PUBCHEM_COORDINATE_TYPE>
1
3

> <PUBCHEM_BONDANNOTATIONS>
10  19  6
8  2  5
6  7  5

$$$$
