310946428
  -OEChem-07211613022D

 23 26  0     1  0  0  0  0  0999 V2000
   -2.2163   -0.3260    0.0000 O   0  0  0  0  0  0  0  0  0  0  0  0
   -1.5459   -1.5179    0.0000 O   0  0  0  0  0  0  0  0  0  0  0  0
   -0.0559    0.1769    0.0000 C   0  0  3  0  0  0  0  0  0  0  0  0
   -0.7450   -1.1082    0.0000 C   0  0  0  0  0  0  0  0  0  0  0  0
   -0.0745   -0.6984    0.0000 C   0  0  3  0  0  0  0  0  0  0  0  0
   -1.4713   -0.6798    0.0000 C   0  0  0  0  0  0  0  0  0  0  0  0
    0.6705    0.5680    0.0000 C   0  0  0  0  0  0  0  0  0  0  0  0
    1.3969    0.1397    0.0000 C   0  0  3  0  0  0  0  0  0  0  0  0
   -0.7450    0.5680    0.0000 C   0  0  0  0  0  0  0  0  0  0  0  0
   -1.4528    0.1583    0.0000 C   0  0  0  0  0  0  0  0  0  0  0  0
    0.6891   -1.0895    0.0000 C   0  0  0  0  0  0  0  0  0  0  0  0
    1.3782   -0.6984    0.0000 C   0  0  0  0  0  0  0  0  0  0  0  0
   -0.0373    0.9778    0.0000 C   0  0  0  0  0  0  0  0  0  0  0  0
    0.6891    1.4061    0.0000 C   0  0  0  0  0  0  0  0  0  0  0  0
   -0.3539   -1.8159    0.0000 C   0  0  0  0  0  0  0  0  0  0  0  0
   -1.1733   -1.8346    0.0000 C   0  0  0  0  0  0  0  0  0  0  0  0
    2.0674    0.5494    0.0000 C   0  0  0  0  0  0  0  0  0  0  0  0
    2.1046   -0.2701    0.0000 C   0  0  0  0  0  0  0  0  0  0  0  0
   -2.7751   -0.9964    0.0000 C   0  0  0  0  0  0  0  0  0  0  0  0
   -2.3653   -1.6856    0.0000 C   0  0  0  0  0  0  0  0  0  0  0  0
    1.4155    1.8346    0.0000 C   0  0  0  0  0  0  0  0  0  0  0  0
    2.0860    1.4061    0.0000 C   0  0  0  0  0  0  0  0  0  0  0  0
    2.7751    0.1397    0.0000 C   0  0  0  0  0  0  0  0  0  0  0  0
  1  6  1  0  0  0  0
  1 19  1  0  0  0  0
  2  6  1  0  0  0  0
  2 20  1  0  0  0  0
  3  5  1  0  0  0  0
  3  7  1  0  0  0  0
  3  9  1  0  0  0  0
  3 13  1  1  0  0  0
  4  5  1  0  0  0  0
  4  6  1  0  0  0  0
  4 15  1  0  0  0  0
  4 16  1  0  0  0  0
  5 11  1  0  0  0  0
  6 10  1  0  0  0  0
  7  8  1  0  0  0  0
  7 14  2  0  0  0  0
  8 12  1  0  0  0  0
  8 17  1  0  0  0  0
  8 18  1  1  0  0  0
  9 10  1  0  0  0  0
 11 12  1  0  0  0  0
 14 21  1  0  0  0  0
 17 22  1  0  0  0  0
 18 23  2  0  0  0  0
 19 20  1  0  0  0  0
 21 22  1  0  0  0  0
M  END
> <PUBCHEM_COMPOUND_ID_TYPE>
0

> <PUBCHEM_TOTAL_CHARGE>
0

> <PUBCHEM_SUBSTANCE_ID>
310946428

> <PUBCHEM_SUBSTANCE_VERSION>
1

> <PUBCHEM_EXT_DATASOURCE_NAME>
4488

> <PUBCHEM_EXT_DATASOURCE_REGID>
SCHEMBL16124549

> <PUBCHEM_SUBSTANCE_COMMENT>
InChI=1S/C21H32O2/c1-5-20-10-7-6-8-17(20)19(4)12-13-21(22-14-15-23-21)18(2,3)16(19)9-11-20/h5,8,16H,1,6-7,9-15H2,2-4H3/t16?,19-,20+/m0/s1
InChIKey=FSOGAVSRAANICR-KHMGXFTDSA-N

> <PUBCHEM_SUBSTANCE_SYNONYM>
SCHEMBL16124549

> <PUBCHEM_XREF_EXT_ID>
SCHEMBL16124549

> <PUBCHEM_EXT_DATASOURCE_URL>
https://www.surechembl.org/

> <PUBCHEM_EXT_SUBSTANCE_URL>
https://www.surechembl.org/chemical/SCHEMBL16124549

> <PUBCHEM_CID_ASSOCIATIONS>
117612341  1

> <PUBCHEM_COORDINATE_TYPE>
1
3

> <PUBCHEM_BONDANNOTATIONS>
3  13  5
8  18  5

$$$$
