310944911
  -OEChem-07211613022D

 15 16  0     0  0  0  0  0  0999 V2000
   -3.3860    0.4081    0.0000 S   0  0  0  0  0  0  0  0  0  0  0  0
   -3.4034   -0.3907    0.0000 N   0  0  0  0  0  0  0  0  0  0  0  0
   -1.2502   -0.0087    0.0000 C   0  0  0  0  0  0  0  0  0  0  0  0
   -2.1011    0.0087    0.0000 C   0  0  0  0  0  0  0  0  0  0  0  0
   -0.8161    0.6686    0.0000 C   0  0  0  0  0  0  0  0  0  0  0  0
   -0.8161   -0.7033    0.0000 C   0  0  0  0  0  0  0  0  0  0  0  0
   -2.6046    0.6511    0.0000 C   0  0  0  0  0  0  0  0  0  0  0  0
   -2.5699   -0.6686    0.0000 C   0  0  0  0  0  0  0  0  0  0  0  0
    0.4515    0.0087    0.0000 C   0  0  0  0  0  0  0  0  0  0  0  0
    0.0347    0.6859    0.0000 C   0  0  0  0  0  0  0  0  0  0  0  0
    0.0347   -0.7033    0.0000 C   0  0  0  0  0  0  0  0  0  0  0  0
    1.2850   -0.0260    0.0000 C   0  0  0  0  0  0  0  0  0  0  0  0
    2.1532   -0.0087    0.0000 C   0  0  0  0  0  0  0  0  0  0  0  0
    2.9867   -0.0087    0.0000 C   0  0  0  0  0  0  0  0  0  0  0  0
    3.4034    0.7033    0.0000 C   0  0  0  0  0  0  0  0  0  0  0  0
  1  2  1  0  0  0  0
  1  7  1  0  0  0  0
  2  8  2  0  0  0  0
  3  4  1  0  0  0  0
  3  5  2  0  0  0  0
  3  6  1  0  0  0  0
  4  7  2  0  0  0  0
  4  8  1  0  0  0  0
  5 10  1  0  0  0  0
  6 11  2  0  0  0  0
  9 10  2  0  0  0  0
  9 11  1  0  0  0  0
  9 12  1  0  0  0  0
 12 13  3  0  0  0  0
 13 14  1  0  0  0  0
 14 15  1  0  0  0  0
M  END
> <PUBCHEM_COMPOUND_ID_TYPE>
0

> <PUBCHEM_TOTAL_CHARGE>
0

> <PUBCHEM_SUBSTANCE_ID>
310944911

> <PUBCHEM_SUBSTANCE_VERSION>
1

> <PUBCHEM_EXT_DATASOURCE_NAME>
4488

> <PUBCHEM_EXT_DATASOURCE_REGID>
SCHEMBL16122996

> <PUBCHEM_SUBSTANCE_COMMENT>
InChI=1S/C13H11NS/c1-2-3-4-11-5-7-12(8-6-11)13-9-14-15-10-13/h5-10H,2H2,1H3
InChIKey=ASNZJTQLBRXGFV-UHFFFAOYSA-N

> <PUBCHEM_SUBSTANCE_SYNONYM>
SCHEMBL16122996

> <PUBCHEM_XREF_EXT_ID>
SCHEMBL16122996

> <PUBCHEM_EXT_DATASOURCE_URL>
https://www.surechembl.org/

> <PUBCHEM_EXT_SUBSTANCE_URL>
https://www.surechembl.org/chemical/SCHEMBL16122996

> <PUBCHEM_CID_ASSOCIATIONS>
117611086  1

> <PUBCHEM_COORDINATE_TYPE>
1
3

$$$$
