310949327
  -OEChem-07211613022D

 14 13  0     0  0  0  0  0  0999 V2000
   -1.6955    1.6710    0.0000 O   0  0  0  0  0  0  0  0  0  0  0  0
   -2.1030   -0.4809    0.0000 N   0  0  0  0  0  0  0  0  0  0  0  0
    1.6792   -1.2145    0.0000 N   0  0  0  0  0  0  0  0  0  0  0  0
   -0.8478   -1.2309    0.0000 C   0  0  0  0  0  0  0  0  0  0  0  0
   -1.6629   -1.1820    0.0000 C   0  0  0  0  0  0  0  0  0  0  0  0
   -0.4076   -0.4972    0.0000 C   0  0  0  0  0  0  0  0  0  0  0  0
    0.4239   -0.4972    0.0000 C   0  0  0  0  0  0  0  0  0  0  0  0
    0.8478   -1.2145    0.0000 C   0  0  0  0  0  0  0  0  0  0  0  0
   -0.4891   -1.6710    0.0000 C   0  0  0  0  0  0  0  0  0  0  0  0
   -1.9237   -1.6547    0.0000 C   0  0  0  0  0  0  0  0  0  0  0  0
   -1.6792    0.2201    0.0000 C   0  0  0  0  0  0  0  0  0  0  0  0
    0.4891   -1.6710    0.0000 C   0  0  0  0  0  0  0  0  0  0  0  0
   -2.0868    0.9374    0.0000 C   0  0  0  0  0  0  0  0  0  0  0  0
    2.1030   -0.4972    0.0000 C   0  0  0  0  0  0  0  0  0  0  0  0
  1 13  1  0  0  0  0
  2  5  1  0  0  0  0
  2 11  1  0  0  0  0
  3  8  1  0  0  0  0
  3 14  1  0  0  0  0
  4  5  1  0  0  0  0
  4  6  1  0  0  0  0
  4  9  2  0  0  0  0
  5 10  2  0  0  0  0
  6  7  2  0  0  0  0
  7  8  1  0  0  0  0
  8 12  2  0  0  0  0
 11 13  1  0  0  0  0
M  END
> <PUBCHEM_COMPOUND_ID_TYPE>
0

> <PUBCHEM_TOTAL_CHARGE>
0

> <PUBCHEM_SUBSTANCE_ID>
310949327

> <PUBCHEM_SUBSTANCE_VERSION>
1

> <PUBCHEM_EXT_DATASOURCE_NAME>
4488

> <PUBCHEM_EXT_DATASOURCE_REGID>
SCHEMBL16127517

> <PUBCHEM_SUBSTANCE_COMMENT>
InChI=1S/C11H18N2O/c1-9(5-6-10(2)12-4)11(3)13-7-8-14/h5-6,12-14H,1-3,7-8H2,4H3/b6-5-
InChIKey=OECHPKRJMWNBGY-WAYWQWQTSA-N

> <PUBCHEM_SUBSTANCE_SYNONYM>
SCHEMBL16127517

> <PUBCHEM_XREF_EXT_ID>
SCHEMBL16127517

> <PUBCHEM_EXT_DATASOURCE_URL>
https://www.surechembl.org/

> <PUBCHEM_EXT_SUBSTANCE_URL>
https://www.surechembl.org/chemical/SCHEMBL16127517

> <PUBCHEM_CID_ASSOCIATIONS>
117614804  1

> <PUBCHEM_COORDINATE_TYPE>
1
3

$$$$
