310947424
  -OEChem-07211613022D

 23 24  0     0  0  0  0  0  0999 V2000
   -0.6489    1.9771    0.0000 O   0  0  0  0  0  0  0  0  0  0  0  0
    0.0656   -2.5604    0.0000 O   0  0  0  0  0  0  0  0  0  0  0  0
    0.7800   -0.4979    0.0000 O   0  0  0  0  0  0  0  0  0  0  0  0
    0.0656    0.7396    0.0000 N   0  0  0  0  0  0  0  0  0  0  0  0
    0.7800   -1.3229    0.0000 N   0  0  0  0  0  0  0  0  0  0  0  0
   -0.6489    1.1521    0.0000 C   0  0  0  0  0  0  0  0  0  0  0  0
   -1.3634   -0.0854    0.0000 C   0  0  0  0  0  0  0  0  0  0  0  0
    0.6489    1.3229    0.0000 C   0  0  0  0  0  0  0  0  0  0  0  0
   -0.6489   -1.3229    0.0000 C   0  0  0  0  0  0  0  0  0  0  0  0
   -1.3634    0.7396    0.0000 C   0  0  0  0  0  0  0  0  0  0  0  0
   -0.6489   -0.4979    0.0000 C   0  0  0  0  0  0  0  0  0  0  0  0
    0.0656   -1.7354    0.0000 C   0  0  0  0  0  0  0  0  0  0  0  0
   -2.0779   -0.4979    0.0000 C   0  0  0  0  0  0  0  0  0  0  0  0
   -1.3634   -1.7354    0.0000 C   0  0  0  0  0  0  0  0  0  0  0  0
    0.6489    0.1562    0.0000 C   0  0  0  0  0  0  0  0  0  0  0  0
    1.3634    0.9104    0.0000 C   0  0  0  0  0  0  0  0  0  0  0  0
    0.6489    2.1479    0.0000 C   0  0  0  0  0  0  0  0  0  0  0  0
   -2.0779   -1.3229    0.0000 C   0  0  0  0  0  0  0  0  0  0  0  0
    2.0779    1.3229    0.0000 C   0  0  0  0  0  0  0  0  0  0  0  0
    1.3634    2.5604    0.0000 C   0  0  0  0  0  0  0  0  0  0  0  0
    2.0779    2.1479    0.0000 C   0  0  0  0  0  0  0  0  0  0  0  0
    1.4458    0.3697    0.0000 C   0  0  0  0  0  0  0  0  0  0  0  0
    2.0292   -0.2136    0.0000 C   0  0  0  0  0  0  0  0  0  0  0  0
  1  6  2  0  0  0  0
  2 12  2  0  0  0  0
  3  5  1  0  0  0  0
  4  6  1  0  0  0  0
  4  8  1  0  0  0  0
  4 15  1  0  0  0  0
  5 12  1  0  0  0  0
  6 10  1  0  0  0  0
  7 10  1  0  0  0  0
  7 11  2  0  0  0  0
  7 13  1  0  0  0  0
  8 16  2  0  0  0  0
  8 17  1  0  0  0  0
  9 11  1  0  0  0  0
  9 12  1  0  0  0  0
  9 14  2  0  0  0  0
 13 18  2  0  0  0  0
 14 18  1  0  0  0  0
 15 22  1  0  0  0  0
 16 19  1  0  0  0  0
 17 20  2  0  0  0  0
 19 21  2  0  0  0  0
 20 21  1  0  0  0  0
 22 23  1  0  0  0  0
M  END
> <PUBCHEM_COMPOUND_ID_TYPE>
0

> <PUBCHEM_TOTAL_CHARGE>
0

> <PUBCHEM_SUBSTANCE_ID>
310947424

> <PUBCHEM_SUBSTANCE_VERSION>
1

> <PUBCHEM_EXT_DATASOURCE_NAME>
4488

> <PUBCHEM_EXT_DATASOURCE_REGID>
SCHEMBL16125585

> <PUBCHEM_SUBSTANCE_COMMENT>
InChI=1S/C18H20N2O3/c1-2-11-20(16-9-4-3-5-10-16)17(21)13-14-7-6-8-15(12-14)18(22)19-23/h3-10,12,23H,2,11,13H2,1H3,(H,19,22)
InChIKey=ITCRMBMZCQWUIE-UHFFFAOYSA-N

> <PUBCHEM_SUBSTANCE_SYNONYM>
SCHEMBL16125585

> <PUBCHEM_XREF_EXT_ID>
SCHEMBL16125585

> <PUBCHEM_EXT_DATASOURCE_URL>
https://www.surechembl.org/

> <PUBCHEM_EXT_SUBSTANCE_URL>
https://www.surechembl.org/chemical/SCHEMBL16125585

> <PUBCHEM_CID_ASSOCIATIONS>
117613157  1

> <PUBCHEM_COORDINATE_TYPE>
1
3

$$$$
