310933864
  -OEChem-07211613022D

 29 32  0     0  0  0  0  0  0999 V2000
    3.3339   -2.0964    0.0000 F   0  0  0  0  0  0  0  0  0  0  0  0
    1.1062   -0.1252    0.0000 O   0  0  0  0  0  0  0  0  0  0  0  0
    3.1961    1.2007    0.0000 O   0  0  0  0  0  0  0  0  0  0  0  0
   -0.2605   -4.3276    0.0000 O   0  0  0  0  0  0  0  0  0  0  0  0
    0.8001   -5.2853    0.0000 O   0  0  0  0  0  0  0  0  0  0  0  0
    1.1407   -0.9495    0.0000 C   0  0  0  0  0  0  0  0  0  0  0  0
    1.1445   -1.7057    0.0000 C   0  0  0  0  0  0  0  0  0  0  0  0
    0.7366   -0.2235    0.0000 C   0  0  0  0  0  0  0  0  0  0  0  0
    0.6709   -1.5755    0.0000 C   0  0  0  0  0  0  0  0  0  0  0  0
    2.0411   -1.1462    0.0000 C   0  0  0  0  0  0  0  0  0  0  0  0
    0.5275   -2.3166    0.0000 C   0  0  0  0  0  0  0  0  0  0  0  0
    1.9537   -1.8322    0.0000 C   0  0  0  0  0  0  0  0  0  0  0  0
    1.3983   -2.4907    0.0000 C   0  0  0  0  0  0  0  0  0  0  0  0
    1.8029    0.3168    0.0000 C   0  0  0  0  0  0  0  0  0  0  0  0
    2.5339   -0.0655    0.0000 C   0  0  0  0  0  0  0  0  0  0  0  0
    3.2306    0.3764    0.0000 C   0  0  0  0  0  0  0  0  0  0  0  0
    0.8454   -3.1030    0.0000 C   0  0  0  0  0  0  0  0  0  0  0  0
    2.5684   -0.8898    0.0000 C   0  0  0  0  0  0  0  0  0  0  0  0
    3.2995   -1.2721    0.0000 C   0  0  0  0  0  0  0  0  0  0  0  0
    3.9616   -0.0059    0.0000 C   0  0  0  0  0  0  0  0  0  0  0  0
    3.9961   -0.8301    0.0000 C   0  0  0  0  0  0  0  0  0  0  0  0
    3.8927    1.6427    0.0000 C   0  0  0  0  0  0  0  0  0  0  0  0
    1.0992   -3.8880    0.0000 C   0  0  0  0  0  0  0  0  0  0  0  0
    3.8583    2.4670    0.0000 C   0  0  0  0  0  0  0  0  0  0  0  0
    4.6238    1.2604    0.0000 C   0  0  0  0  0  0  0  0  0  0  0  0
    0.5463   -4.5003    0.0000 C   0  0  0  0  0  0  0  0  0  0  0  0
    4.5549    2.9090    0.0000 C   0  0  0  0  0  0  0  0  0  0  0  0
    5.3204    1.7024    0.0000 C   0  0  0  0  0  0  0  0  0  0  0  0
    5.2860    2.5267    0.0000 C   0  0  0  0  0  0  0  0  0  0  0  0
  1 19  1  0  0  0  0
  2  6  1  0  0  0  0
  2 14  1  0  0  0  0
  3 16  1  0  0  0  0
  3 22  1  0  0  0  0
  4 26  2  0  0  0  0
  5 26  1  0  0  0  0
  6  8  1  0  0  0  0
  6  9  1  0  0  0  0
  6 10  1  0  0  0  0
  7  8  1  0  0  0  0
  7 11  1  0  0  0  0
  7 12  1  0  0  0  0
  7 13  1  0  0  0  0
  9 11  1  0  0  0  0
 10 12  1  0  0  0  0
 13 17  1  0  0  0  0
 14 15  1  0  0  0  0
 15 16  2  0  0  0  0
 15 18  1  0  0  0  0
 16 20  1  0  0  0  0
 17 23  1  0  0  0  0
 18 19  2  0  0  0  0
 19 21  1  0  0  0  0
 20 21  2  0  0  0  0
 22 24  2  0  0  0  0
 22 25  1  0  0  0  0
 23 26  1  0  0  0  0
 24 27  1  0  0  0  0
 25 28  2  0  0  0  0
 27 29  2  0  0  0  0
 28 29  1  0  0  0  0
M  END
> <PUBCHEM_COMPOUND_ID_TYPE>
0

> <PUBCHEM_TOTAL_CHARGE>
0

> <PUBCHEM_SUBSTANCE_ID>
310933864

> <PUBCHEM_SUBSTANCE_VERSION>
1

> <PUBCHEM_EXT_DATASOURCE_NAME>
4488

> <PUBCHEM_EXT_DATASOURCE_REGID>
SCHEMBL16111303

> <PUBCHEM_SUBSTANCE_COMMENT>
InChI=1S/C24H27FO4/c25-19-8-9-21(29-20-5-2-1-3-6-20)18(15-19)16-28-24-13-11-23(17-24,12-14-24)10-4-7-22(26)27/h1-3,5-6,8-9,15H,4,7,10-14,16-17H2,(H,26,27)
InChIKey=COWXYWQTJHXHFJ-UHFFFAOYSA-N

> <PUBCHEM_SUBSTANCE_SYNONYM>
SCHEMBL16111303

> <PUBCHEM_XREF_EXT_ID>
SCHEMBL16111303

> <PUBCHEM_EXT_DATASOURCE_URL>
https://www.surechembl.org/

> <PUBCHEM_EXT_SUBSTANCE_URL>
https://www.surechembl.org/chemical/SCHEMBL16111303

> <PUBCHEM_CID_ASSOCIATIONS>
117602202  1

> <PUBCHEM_COORDINATE_TYPE>
1
3

$$$$
