310932761
  -OEChem-07211613022D

 20 22  0     0  0  0  0  0  0999 V2000
    0.0000   -1.4578    0.0000 F   0  0  0  0  0  0  0  0  0  0  0  0
    0.0000   -2.8963    0.0000 F   0  0  0  0  0  0  0  0  0  0  0  0
    0.8248   -1.4578    0.0000 F   0  0  0  0  0  0  0  0  0  0  0  0
    4.6226   -3.0114    0.0000 O   0  0  0  0  0  0  0  0  0  0  0  0
    3.3183   -2.3593    0.0000 N   0  0  0  0  0  0  0  0  0  0  0  0
    2.5319   -2.5894    0.0000 C   0  0  0  0  0  0  0  0  0  0  0  0
    2.5319   -3.4334    0.0000 C   0  0  0  0  0  0  0  0  0  0  0  0
    3.8170   -3.0114    0.0000 C   0  0  0  0  0  0  0  0  0  0  0  0
    1.1125   -2.5894    0.0000 C   0  0  0  0  0  0  0  0  0  0  0  0
    1.8030   -2.1866    0.0000 C   0  0  0  0  0  0  0  0  0  0  0  0
    3.3183   -3.6635    0.0000 C   0  0  0  0  0  0  0  0  0  0  0  0
    3.5677   -1.5728    0.0000 C   0  0  0  0  0  0  0  0  0  0  0  0
    0.4028   -2.1674    0.0000 C   0  0  0  0  0  0  0  0  0  0  0  0
    1.8030   -3.8362    0.0000 C   0  0  0  0  0  0  0  0  0  0  0  0
    1.1125   -3.4334    0.0000 C   0  0  0  0  0  0  0  0  0  0  0  0
    3.0114   -0.9591    0.0000 C   0  0  0  0  0  0  0  0  0  0  0  0
    4.3733   -1.4002    0.0000 C   0  0  0  0  0  0  0  0  0  0  0  0
    3.2799   -0.1726    0.0000 C   0  0  0  0  0  0  0  0  0  0  0  0
    4.6226   -0.6138    0.0000 C   0  0  0  0  0  0  0  0  0  0  0  0
    4.0856    0.0000    0.0000 C   0  0  0  0  0  0  0  0  0  0  0  0
  1 13  1  0  0  0  0
  2 13  1  0  0  0  0
  3 13  1  0  0  0  0
  4  8  2  0  0  0  0
  5  6  1  0  0  0  0
  5  8  1  0  0  0  0
  5 12  1  0  0  0  0
  6  7  2  0  0  0  0
  6 10  1  0  0  0  0
  7 11  1  0  0  0  0
  7 14  1  0  0  0  0
  8 11  1  0  0  0  0
  9 10  2  0  0  0  0
  9 13  1  0  0  0  0
  9 15  1  0  0  0  0
 12 16  2  0  0  0  0
 12 17  1  0  0  0  0
 14 15  2  0  0  0  0
 16 18  1  0  0  0  0
 17 19  2  0  0  0  0
 18 20  2  0  0  0  0
 19 20  1  0  0  0  0
M  END
> <PUBCHEM_COMPOUND_ID_TYPE>
0

> <PUBCHEM_TOTAL_CHARGE>
0

> <PUBCHEM_SUBSTANCE_ID>
310932761

> <PUBCHEM_SUBSTANCE_VERSION>
1

> <PUBCHEM_EXT_DATASOURCE_NAME>
4488

> <PUBCHEM_EXT_DATASOURCE_REGID>
SCHEMBL16110147

> <PUBCHEM_SUBSTANCE_COMMENT>
InChI=1S/C15H10F3NO/c16-15(17,18)11-7-6-10-8-14(20)19(13(10)9-11)12-4-2-1-3-5-12/h1-7,9H,8H2
InChIKey=MLJIDADAGXLQMK-UHFFFAOYSA-N

> <PUBCHEM_SUBSTANCE_SYNONYM>
SCHEMBL16110147

> <PUBCHEM_XREF_EXT_ID>
SCHEMBL16110147

> <PUBCHEM_EXT_DATASOURCE_URL>
https://www.surechembl.org/

> <PUBCHEM_EXT_SUBSTANCE_URL>
https://www.surechembl.org/chemical/SCHEMBL16110147

> <PUBCHEM_CID_ASSOCIATIONS>
117601258  1

> <PUBCHEM_COORDINATE_TYPE>
1
3

$$$$
