310947037
  -OEChem-07211613022D

 18 20  0     1  0  0  0  0  0999 V2000
   -0.7251    3.1302    0.0000 Br  0  0  0  0  0  0  0  0  0  0  0  0
    0.0139   -3.1302    0.0000 O   0  0  0  0  0  0  0  0  0  0  0  0
    0.0000   -1.4570    0.0000 N   0  0  0  0  0  0  0  0  0  0  0  0
   -0.7251   -0.2022    0.0000 N   0  0  0  0  0  0  0  0  0  0  0  0
    0.0000   -0.6205    0.0000 C   0  0  0  0  0  0  0  0  0  0  0  0
   -0.7251    0.6484    0.0000 C   0  0  0  0  0  0  0  0  0  0  0  0
   -0.0139    1.0527    0.0000 C   0  0  0  0  0  0  0  0  0  0  0  0
    0.7111   -0.2161    0.0000 C   0  0  0  0  0  0  0  0  0  0  0  0
    0.7251    0.6205    0.0000 C   0  0  0  0  0  0  0  0  0  0  0  0
   -0.0139    1.8893    0.0000 C   0  0  0  0  0  0  0  0  0  0  0  0
   -1.4361    1.0527    0.0000 C   0  0  0  0  0  0  0  0  0  0  0  0
    0.7251   -1.8753    0.0000 C   0  0  0  0  0  0  0  0  0  0  0  0
   -0.7251    2.2936    0.0000 C   0  0  0  0  0  0  0  0  0  0  0  0
   -0.7111   -1.8753    0.0000 C   0  0  0  0  0  0  0  0  0  0  0  0
    0.7251   -2.7119    0.0000 C   0  0  3  0  0  0  0  0  0  0  0  0
   -1.4361    1.8753    0.0000 C   0  0  0  0  0  0  0  0  0  0  0  0
   -0.7251   -2.7119    0.0000 C   0  0  0  0  0  0  0  0  0  0  0  0
    1.4361   -3.1162    0.0000 C   0  0  0  0  0  0  0  0  0  0  0  0
  1 13  1  0  0  0  0
  2 15  1  0  0  0  0
  2 17  1  0  0  0  0
  3  5  1  0  0  0  0
  3 12  1  0  0  0  0
  3 14  1  0  0  0  0
  4  5  2  0  0  0  0
  4  6  1  0  0  0  0
  5  8  1  0  0  0  0
  6  7  2  0  0  0  0
  6 11  1  0  0  0  0
  7  9  1  0  0  0  0
  7 10  1  0  0  0  0
  8  9  2  0  0  0  0
 10 13  2  0  0  0  0
 11 16  2  0  0  0  0
 12 15  1  0  0  0  0
 13 16  1  0  0  0  0
 14 17  1  0  0  0  0
 15 18  1  6  0  0  0
M  END
> <PUBCHEM_COMPOUND_ID_TYPE>
0

> <PUBCHEM_TOTAL_CHARGE>
0

> <PUBCHEM_SUBSTANCE_ID>
310947037

> <PUBCHEM_SUBSTANCE_VERSION>
1

> <PUBCHEM_EXT_DATASOURCE_NAME>
4488

> <PUBCHEM_EXT_DATASOURCE_REGID>
SCHEMBL16125190

> <PUBCHEM_SUBSTANCE_COMMENT>
InChI=1S/C14H15BrN2O/c1-10-9-17(6-7-18-10)14-5-2-11-8-12(15)3-4-13(11)16-14/h2-5,8,10H,6-7,9H2,1H3/t10-/m0/s1
InChIKey=CULIDUFJAOPKQS-JTQLQIEISA-N

> <PUBCHEM_SUBSTANCE_SYNONYM>
SCHEMBL16125190

> <PUBCHEM_XREF_EXT_ID>
SCHEMBL16125190

> <PUBCHEM_EXT_DATASOURCE_URL>
https://www.surechembl.org/

> <PUBCHEM_EXT_SUBSTANCE_URL>
https://www.surechembl.org/chemical/SCHEMBL16125190

> <PUBCHEM_CID_ASSOCIATIONS>
117612888  1

> <PUBCHEM_COORDINATE_TYPE>
1
3

> <PUBCHEM_BONDANNOTATIONS>
15  18  6

$$$$
