310928764
  -OEChem-07211613022D

 14 14  0     1  0  0  0  0  0999 V2000
    2.5006   -0.4125    0.0000 F   0  0  0  0  0  0  0  0  0  0  0  0
    1.7862    0.0000    0.0000 F   0  0  0  0  0  0  0  0  0  0  0  0
    2.5006   -1.2375    0.0000 F   0  0  0  0  0  0  0  0  0  0  0  0
    1.0717   -1.2375    0.0000 O   0  0  0  0  0  0  0  0  0  0  0  0
   -1.7862    1.2375    0.0000 N   0  0  0  0  0  0  0  0  0  0  0  0
    1.7862   -0.8250    0.0000 C   0  0  0  0  0  0  0  0  0  0  0  0
    0.3572   -0.8250    0.0000 C   0  0  0  0  0  0  0  0  0  0  0  0
   -1.0717    0.0000    0.0000 C   0  0  0  0  0  0  0  0  0  0  0  0
    0.3572    0.0000    0.0000 C   0  0  0  0  0  0  0  0  0  0  0  0
   -0.3572   -1.2375    0.0000 C   0  0  0  0  0  0  0  0  0  0  0  0
   -0.3572    0.4125    0.0000 C   0  0  0  0  0  0  0  0  0  0  0  0
   -1.0717   -0.8250    0.0000 C   0  0  0  0  0  0  0  0  0  0  0  0
   -1.7862    0.4125    0.0000 C   0  0  3  0  0  0  0  0  0  0  0  0
   -2.5006    0.0000    0.0000 C   0  0  0  0  0  0  0  0  0  0  0  0
  1  6  1  0  0  0  0
  2  6  1  0  0  0  0
  3  6  1  0  0  0  0
  4  6  1  0  0  0  0
  4  7  1  0  0  0  0
 13  5  1  6  0  0  0
  7  9  2  0  0  0  0
  7 10  1  0  0  0  0
  8 11  2  0  0  0  0
  8 12  1  0  0  0  0
  8 13  1  0  0  0  0
  9 11  1  0  0  0  0
 10 12  2  0  0  0  0
 13 14  1  0  0  0  0
M  END
> <PUBCHEM_COMPOUND_ID_TYPE>
0

> <PUBCHEM_TOTAL_CHARGE>
0

> <PUBCHEM_SUBSTANCE_ID>
310928764

> <PUBCHEM_SUBSTANCE_VERSION>
1

> <PUBCHEM_EXT_DATASOURCE_NAME>
11752

> <PUBCHEM_EXT_DATASOURCE_REGID>
BD115509

> <PUBCHEM_SUBSTANCE_SYNONYM>
(S)-1-(4-(Trifluoromethoxy)phenyl)ethanamine
951247-75-9

> <PUBCHEM_GENERIC_REGISTRY_NAME>
951247-75-9

> <PUBCHEM_XREF_EXT_ID>
BD115509

> <PUBCHEM_EXT_DATASOURCE_URL>
http://www.bidepharmatech.com/en/index.html

> <PUBCHEM_EXT_SUBSTANCE_URL>
http://www.bidepharmatech.com/en/goodsview_goodscode_BD115509.html

> <PUBCHEM_CID_ASSOCIATIONS>
40786949  1

> <PUBCHEM_COORDINATE_TYPE>
1
3

> <PUBCHEM_BONDANNOTATIONS>
13  5  6

$$$$
