310934648
  -OEChem-07211613022D

 33 37  0     0  0  0  0  0  0999 V2000
    2.1374   -4.9873    0.0000 O   0  0  0  0  0  0  0  0  0  0  0  0
    3.6374   -3.3374    0.0000 N   0  0  0  0  0  0  0  0  0  0  0  0
    3.6374   -0.8249    0.0000 N   0  0  0  0  0  0  0  0  0  0  0  0
    2.8874   -2.0624    0.0000 N   0  0  0  0  0  0  0  0  0  0  0  0
    7.9497   -2.5124    0.0000 N   0  0  0  0  0  0  0  0  0  0  0  0
    2.8874   -6.2622    0.0000 N   0  0  0  0  0  0  0  0  0  0  0  0
    4.3498   -2.0624    0.0000 C   0  0  0  0  0  0  0  0  0  0  0  0
    4.3498   -1.2374    0.0000 C   0  0  0  0  0  0  0  0  0  0  0  0
    3.6374   -2.5124    0.0000 C   0  0  0  0  0  0  0  0  0  0  0  0
    5.0623   -0.8249    0.0000 C   0  0  0  0  0  0  0  0  0  0  0  0
    5.7747   -2.0999    0.0000 C   0  0  0  0  0  0  0  0  0  0  0  0
    5.0623   -2.5124    0.0000 C   0  0  0  0  0  0  0  0  0  0  0  0
    5.7747   -1.2374    0.0000 C   0  0  0  0  0  0  0  0  0  0  0  0
    6.4873   -2.5124    0.0000 C   0  0  0  0  0  0  0  0  0  0  0  0
    2.8874   -1.2374    0.0000 C   0  0  0  0  0  0  0  0  0  0  0  0
    4.3498   -3.7499    0.0000 C   0  0  0  0  0  0  0  0  0  0  0  0
    2.8874   -3.7499    0.0000 C   0  0  0  0  0  0  0  0  0  0  0  0
    3.5998   -4.9873    0.0000 C   0  0  0  0  0  0  0  0  0  0  0  0
    5.0623    0.0000    0.0000 C   0  0  0  0  0  0  0  0  0  0  0  0
    4.3498   -4.5748    0.0000 C   0  0  0  0  0  0  0  0  0  0  0  0
    2.8874   -4.5748    0.0000 C   0  0  0  0  0  0  0  0  0  0  0  0
    7.2372   -2.0999    0.0000 C   0  0  0  0  0  0  0  0  0  0  0  0
    6.5247   -3.3748    0.0000 C   0  0  0  0  0  0  0  0  0  0  0  0
    3.5998   -5.8122    0.0000 C   0  0  0  0  0  0  0  0  0  0  0  0
    7.2372   -3.7499    0.0000 C   0  0  0  0  0  0  0  0  0  0  0  0
    7.9872   -3.3748    0.0000 C   0  0  0  0  0  0  0  0  0  0  0  0
    2.1374   -5.8122    0.0000 C   0  0  0  0  0  0  0  0  0  0  0  0
    1.4249   -6.2622    0.0000 C   0  0  0  0  0  0  0  0  0  0  0  0
    0.7124   -5.8122    0.0000 C   0  0  0  0  0  0  0  0  0  0  0  0
    1.4249   -7.0872    0.0000 C   0  0  0  0  0  0  0  0  0  0  0  0
    0.0000   -6.2622    0.0000 C   0  0  0  0  0  0  0  0  0  0  0  0
    0.7124   -7.4997    0.0000 C   0  0  0  0  0  0  0  0  0  0  0  0
    0.0000   -7.0872    0.0000 C   0  0  0  0  0  0  0  0  0  0  0  0
  1 27  2  0  0  0  0
  2  9  1  0  0  0  0
  2 16  1  0  0  0  0
  2 17  1  0  0  0  0
  3  8  2  0  0  0  0
  3 15  1  0  0  0  0
  4  9  1  0  0  0  0
  4 15  2  0  0  0  0
  5 22  1  0  0  0  0
  5 26  2  0  0  0  0
  6 24  1  0  0  0  0
  6 27  1  0  0  0  0
  7  8  1  0  0  0  0
  7  9  2  0  0  0  0
  7 12  1  0  0  0  0
  8 10  1  0  0  0  0
 10 13  2  0  0  0  0
 10 19  1  0  0  0  0
 11 12  2  0  0  0  0
 11 13  1  0  0  0  0
 11 14  1  0  0  0  0
 14 22  2  0  0  0  0
 14 23  1  0  0  0  0
 16 20  1  0  0  0  0
 17 21  1  0  0  0  0
 18 20  1  0  0  0  0
 18 21  1  0  0  0  0
 18 24  1  0  0  0  0
 23 25  2  0  0  0  0
 25 26  1  0  0  0  0
 27 28  1  0  0  0  0
 28 29  2  0  0  0  0
 28 30  1  0  0  0  0
 29 31  1  0  0  0  0
 30 32  2  0  0  0  0
 31 33  2  0  0  0  0
 32 33  1  0  0  0  0
M  END
> <PUBCHEM_COMPOUND_ID_TYPE>
0

> <PUBCHEM_TOTAL_CHARGE>
0

> <PUBCHEM_SUBSTANCE_ID>
310934648

> <PUBCHEM_SUBSTANCE_VERSION>
1

> <PUBCHEM_EXT_DATASOURCE_NAME>
4488

> <PUBCHEM_EXT_DATASOURCE_REGID>
SCHEMBL16112146

> <PUBCHEM_SUBSTANCE_COMMENT>
InChI=1S/C27H27N5O/c1-19-14-23(22-8-5-11-28-17-22)15-24-25(19)30-18-31-26(24)32-12-9-20(10-13-32)16-29-27(33)21-6-3-2-4-7-21/h2-8,11,14-15,17-18,20H,9-10,12-13,16H2,1H3,(H,29,33)
InChIKey=SKYQRQPAUAHYMV-UHFFFAOYSA-N

> <PUBCHEM_SUBSTANCE_SYNONYM>
SCHEMBL16112146

> <PUBCHEM_XREF_EXT_ID>
SCHEMBL16112146

> <PUBCHEM_EXT_DATASOURCE_URL>
https://www.surechembl.org/

> <PUBCHEM_EXT_SUBSTANCE_URL>
https://www.surechembl.org/chemical/SCHEMBL16112146

> <PUBCHEM_CID_ASSOCIATIONS>
117602815  1

> <PUBCHEM_COORDINATE_TYPE>
1
3

$$$$
