310941296
  -OEChem-07211613022D

 39 42  0     1  0  0  0  0  0999 V2000
    4.7738    0.9769    0.0000 O   0  0  0  0  0  0  0  0  0  0  0  0
    3.6375   -0.9908    0.0000 O   0  0  0  0  0  0  0  0  0  0  0  0
    1.2679    0.9631    0.0000 O   0  0  0  0  0  0  0  0  0  0  0  0
   -0.8938   -1.1155    0.0000 O   0  0  0  0  0  0  0  0  0  0  0  0
   -3.0555    0.9631    0.0000 O   0  0  0  0  0  0  0  0  0  0  0  0
    3.4296   -2.7783    0.0000 O   0  0  0  0  0  0  0  0  0  0  0  0
    1.9885   -0.2702    0.0000 N   0  0  0  0  0  0  0  0  0  0  0  0
   -0.1732    0.1455    0.0000 N   0  0  0  0  0  0  0  0  0  0  0  0
   -2.3349   -0.2702    0.0000 N   0  0  0  0  0  0  0  0  0  0  0  0
    4.3442    0.3118    0.0000 C   0  0  3  0  0  0  0  0  0  0  0  0
    3.6375   -0.1178    0.0000 C   0  0  0  0  0  0  0  0  0  0  0  0
    3.9700    1.0046    0.0000 C   0  0  0  0  0  0  0  0  0  0  0  0
    2.9169    0.2979    0.0000 C   0  0  3  0  0  0  0  0  0  0  0  0
    5.0786   -0.1178    0.0000 C   0  0  0  0  0  0  0  0  0  0  0  0
    2.9307    1.3649    0.0000 C   0  0  0  0  0  0  0  0  0  0  0  0
    1.2679    0.1455    0.0000 C   0  0  0  0  0  0  0  0  0  0  0  0
    0.5612   -0.2425    0.0000 C   0  0  3  0  0  0  0  0  0  0  0  0
    2.1963    1.8084    0.0000 C   0  0  0  0  0  0  0  0  0  0  0  0
    0.5335   -1.1016    0.0000 C   0  0  0  0  0  0  0  0  0  0  0  0
   -0.8799   -0.2286    0.0000 C   0  0  0  0  0  0  0  0  0  0  0  0
    1.2818   -1.4897    0.0000 C   0  0  0  0  0  0  0  0  0  0  0  0
    1.4342    1.4758    0.0000 C   0  0  0  0  0  0  0  0  0  0  0  0
    2.1132    2.6120    0.0000 C   0  0  0  0  0  0  0  0  0  0  0  0
   -1.6143    0.1594    0.0000 C   0  0  3  0  0  0  0  0  0  0  0  0
   -3.0555    0.1455    0.0000 C   0  0  0  0  0  0  0  0  0  0  0  0
    0.9077    2.0578    0.0000 C   0  0  0  0  0  0  0  0  0  0  0  0
    1.3095    2.7783    0.0000 C   0  0  0  0  0  0  0  0  0  0  0  0
    1.2818   -2.3349    0.0000 C   0  0  0  0  0  0  0  0  0  0  0  0
    1.9746   -1.1016    0.0000 C   0  0  0  0  0  0  0  0  0  0  0  0
   -3.7760   -0.2425    0.0000 C   0  0  0  0  0  0  0  0  0  0  0  0
    2.7091   -2.3210    0.0000 C   0  0  0  0  0  0  0  0  0  0  0  0
    2.0023   -2.7368    0.0000 C   0  0  0  0  0  0  0  0  0  0  0  0
    2.7091   -1.5035    0.0000 C   0  0  0  0  0  0  0  0  0  0  0  0
   -4.5382    0.0624    0.0000 C   0  0  0  0  0  0  0  0  0  0  0  0
   -3.8731   -1.0739    0.0000 C   0  0  0  0  0  0  0  0  0  0  0  0
   -1.6143    0.9769    0.0000 C   0  0  0  0  0  0  0  0  0  0  0  0
   -5.0786   -0.5335    0.0000 C   0  0  0  0  0  0  0  0  0  0  0  0
   -4.6767   -1.2402    0.0000 C   0  0  0  0  0  0  0  0  0  0  0  0
    4.1641   -2.3349    0.0000 C   0  0  0  0  0  0  0  0  0  0  0  0
  1 10  1  0  0  0  0
  1 12  1  0  0  0  0
  2 11  2  0  0  0  0
  3 16  2  0  0  0  0
  4 20  2  0  0  0  0
  5 25  2  0  0  0  0
  6 31  1  0  0  0  0
  6 39  1  0  0  0  0
 13  7  1  1  0  0  0
  7 16  1  0  0  0  0
 17  8  1  6  0  0  0
  8 20  1  0  0  0  0
  9 24  1  0  0  0  0
  9 25  1  0  0  0  0
 10 11  1  1  0  0  0
 10 12  1  0  0  0  0
 10 14  1  6  0  0  0
 11 13  1  0  0  0  0
 13 15  1  0  0  0  0
 15 18  1  0  0  0  0
 16 17  1  0  0  0  0
 17 19  1  0  0  0  0
 18 22  1  0  0  0  0
 18 23  1  0  0  0  0
 19 21  1  0  0  0  0
 20 24  1  0  0  0  0
 21 28  2  0  0  0  0
 21 29  1  0  0  0  0
 22 26  1  0  0  0  0
 23 27  1  0  0  0  0
 24 36  1  6  0  0  0
 25 30  1  0  0  0  0
 26 27  1  0  0  0  0
 28 32  1  0  0  0  0
 29 33  2  0  0  0  0
 30 34  1  0  0  0  0
 30 35  1  0  0  0  0
 31 32  2  0  0  0  0
 31 33  1  0  0  0  0
 34 37  1  0  0  0  0
 35 38  1  0  0  0  0
 37 38  1  0  0  0  0
M  END
> <PUBCHEM_COMPOUND_ID_TYPE>
0

> <PUBCHEM_TOTAL_CHARGE>
0

> <PUBCHEM_SUBSTANCE_ID>
310941296

> <PUBCHEM_SUBSTANCE_VERSION>
1

> <PUBCHEM_EXT_DATASOURCE_NAME>
4488

> <PUBCHEM_EXT_DATASOURCE_REGID>
SCHEMBL16119256

> <PUBCHEM_SUBSTANCE_COMMENT>
InChI=1S/C30H43N3O6/c1-19(31-28(36)22-10-6-7-11-22)27(35)33-25(17-21-12-14-23(38-3)15-13-21)29(37)32-24(16-20-8-4-5-9-20)26(34)30(2)18-39-30/h12-15,19-20,22,24-25H,4-11,16-18H2,1-3H3,(H,31,36)(H,32,37)(H,33,35)/t19-,24+,25+,30-/m1/s1
InChIKey=SCMIHBYCXDAYND-LTNBHBMDSA-N

> <PUBCHEM_SUBSTANCE_SYNONYM>
SCHEMBL16119256

> <PUBCHEM_XREF_EXT_ID>
SCHEMBL16119256

> <PUBCHEM_EXT_DATASOURCE_URL>
https://www.surechembl.org/

> <PUBCHEM_EXT_SUBSTANCE_URL>
https://www.surechembl.org/chemical/SCHEMBL16119256

> <PUBCHEM_CID_ASSOCIATIONS>
117608145  1

> <PUBCHEM_COORDINATE_TYPE>
1
3

> <PUBCHEM_BONDANNOTATIONS>
10  11  5
10  14  6
24  36  6
13  7  5
17  8  6

$$$$
