310941520
  -OEChem-07211613022D

 29 32  0     0  0  0  0  0  0999 V2000
   -3.2410    2.1485    0.0000 Br  0  0  0  0  0  0  0  0  0  0  0  0
   -2.7603   -2.2650    0.0000 O   0  0  0  0  0  0  0  0  0  0  0  0
   -0.6045    1.3911    0.0000 O   0  0  0  0  0  0  0  0  0  0  0  0
   -1.2017   -1.4784    0.0000 N   0  0  0  0  0  0  0  0  0  0  0  0
   -3.7945   -1.2309    0.0000 N   0  0  0  0  0  0  0  0  0  0  0  0
   -1.4493    0.6336    0.0000 N   0  0  0  0  0  0  0  0  0  0  0  0
    1.5804    1.6533    0.0000 N   0  0  0  0  0  0  0  0  0  0  0  0
   -2.5272   -0.8085    0.0000 C   0  0  0  0  0  0  0  0  0  0  0  0
   -1.6970   -0.8230    0.0000 C   0  0  0  0  0  0  0  0  0  0  0  0
   -3.0225   -0.1529    0.0000 C   0  0  0  0  0  0  0  0  0  0  0  0
   -1.2017   -0.1384    0.0000 C   0  0  0  0  0  0  0  0  0  0  0  0
   -0.4152   -0.4006    0.0000 C   0  0  0  0  0  0  0  0  0  0  0  0
   -3.0225   -1.4493    0.0000 C   0  0  0  0  0  0  0  0  0  0  0  0
   -3.7945   -0.3860    0.0000 C   0  0  0  0  0  0  0  0  0  0  0  0
   -0.4443   -1.2309    0.0000 C   0  0  0  0  0  0  0  0  0  0  0  0
   -2.8477    0.6627    0.0000 C   0  0  0  0  0  0  0  0  0  0  0  0
   -4.4063    0.1529    0.0000 C   0  0  0  0  0  0  0  0  0  0  0  0
    0.2840   -0.0073    0.0000 C   0  0  0  0  0  0  0  0  0  0  0  0
    0.2986   -1.6387    0.0000 C   0  0  0  0  0  0  0  0  0  0  0  0
   -3.4594    1.2163    0.0000 C   0  0  0  0  0  0  0  0  0  0  0  0
   -4.2315    0.9541    0.0000 C   0  0  0  0  0  0  0  0  0  0  0  0
    1.0124   -0.4006    0.0000 C   0  0  0  0  0  0  0  0  0  0  0  0
    1.0124   -1.2163    0.0000 C   0  0  0  0  0  0  0  0  0  0  0  0
    0.2112    1.2163    0.0000 C   0  0  0  0  0  0  0  0  0  0  0  0
    0.7647    1.8281    0.0000 C   0  0  0  0  0  0  0  0  0  0  0  0
    2.1340    2.2650    0.0000 C   0  0  0  0  0  0  0  0  0  0  0  0
    1.8426    0.8667    0.0000 C   0  0  0  0  0  0  0  0  0  0  0  0
    2.9351    2.0902    0.0000 C   0  0  0  0  0  0  0  0  0  0  0  0
    2.6438    0.7065    0.0000 C   0  0  0  0  0  0  0  0  0  0  0  0
  1 20  1  0  0  0  0
  2 13  2  0  0  0  0
  3  6  1  0  0  0  0
  3 24  1  0  0  0  0
  4  9  1  0  0  0  0
  4 15  1  0  0  0  0
  5 13  1  0  0  0  0
  5 14  1  0  0  0  0
  6 11  2  0  0  0  0
  7 25  1  0  0  0  0
  7 26  1  0  0  0  0
  7 27  1  0  0  0  0
  8  9  2  0  0  0  0
  8 10  1  0  0  0  0
  8 13  1  0  0  0  0
  9 11  1  0  0  0  0
 10 14  2  0  0  0  0
 10 16  1  0  0  0  0
 11 12  1  0  0  0  0
 12 15  2  0  0  0  0
 12 18  1  0  0  0  0
 14 17  1  0  0  0  0
 15 19  1  0  0  0  0
 16 20  2  0  0  0  0
 17 21  2  0  0  0  0
 18 22  2  0  0  0  0
 19 23  2  0  0  0  0
 20 21  1  0  0  0  0
 22 23  1  0  0  0  0
 24 25  1  0  0  0  0
 26 28  1  0  0  0  0
 27 29  1  0  0  0  0
M  END
> <PUBCHEM_COMPOUND_ID_TYPE>
0

> <PUBCHEM_TOTAL_CHARGE>
0

> <PUBCHEM_SUBSTANCE_ID>
310941520

> <PUBCHEM_SUBSTANCE_VERSION>
1

> <PUBCHEM_EXT_DATASOURCE_NAME>
4488

> <PUBCHEM_EXT_DATASOURCE_REGID>
SCHEMBL16119551

> <PUBCHEM_SUBSTANCE_COMMENT>
InChI=1S/C22H23BrN4O2/c1-3-27(4-2)11-12-29-26-20-15-7-5-6-8-17(15)24-21(20)19-16-13-14(23)9-10-18(16)25-22(19)28/h5-10,13,24H,3-4,11-12H2,1-2H3,(H,25,28)/b21-19-,26-20+
InChIKey=XBGOILGDBPVHGS-OQBIKMBDSA-N

> <PUBCHEM_SUBSTANCE_SYNONYM>
SCHEMBL16119551

> <PUBCHEM_XREF_EXT_ID>
SCHEMBL16119551

> <PUBCHEM_EXT_DATASOURCE_URL>
https://www.surechembl.org/

> <PUBCHEM_EXT_SUBSTANCE_URL>
https://www.surechembl.org/chemical/SCHEMBL16119551

> <PUBCHEM_CID_ASSOCIATIONS>
86269494  1

> <PUBCHEM_COORDINATE_TYPE>
1
3

$$$$
