310944442
  -OEChem-07211613022D

 33 35  0     0  0  0  0  0  0999 V2000
   -3.3837   -1.0465    0.0000 Cl  0  0  0  0  0  0  0  0  0  0  0  0
   -2.4519    1.8561    0.0000 Cl  0  0  0  0  0  0  0  0  0  0  0  0
   -5.5378    0.1909    0.0000 Cl  0  0  0  0  0  0  0  0  0  0  0  0
   -0.3131   -1.0465    0.0000 O   0  0  0  0  0  0  0  0  0  0  0  0
    4.7433   -0.6186    0.0000 O   0  0  0  0  0  0  0  0  0  0  0  0
    3.9796   -1.8561    0.0000 O   0  0  0  0  0  0  0  0  0  0  0  0
   -0.2979    0.6186    0.0000 N   0  0  0  0  0  0  0  0  0  0  0  0
    3.2921   -0.6186    0.0000 N   0  0  0  0  0  0  0  0  0  0  0  0
    1.8561    0.2062    0.0000 N   0  0  0  0  0  0  0  0  0  0  0  0
   -2.4519    0.2062    0.0000 C   0  0  0  0  0  0  0  0  0  0  0  0
   -3.1851    0.6186    0.0000 C   0  0  0  0  0  0  0  0  0  0  0  0
   -2.4672   -0.6186    0.0000 C   0  0  0  0  0  0  0  0  0  0  0  0
   -1.0159    0.2062    0.0000 C   0  0  0  0  0  0  0  0  0  0  0  0
   -1.7339    0.6034    0.0000 C   0  0  0  0  0  0  0  0  0  0  0  0
   -1.0312   -0.6186    0.0000 C   0  0  0  0  0  0  0  0  0  0  0  0
   -3.1699    1.4589    0.0000 C   0  0  0  0  0  0  0  0  0  0  0  0
   -1.7186   -1.0312    0.0000 C   0  0  0  0  0  0  0  0  0  0  0  0
   -3.9032    0.2215    0.0000 C   0  0  0  0  0  0  0  0  0  0  0  0
   -4.6059    0.6186    0.0000 C   0  0  0  0  0  0  0  0  0  0  0  0
   -3.9032    1.8408    0.0000 C   0  0  0  0  0  0  0  0  0  0  0  0
   -4.5906    1.4436    0.0000 C   0  0  0  0  0  0  0  0  0  0  0  0
    3.9796   -1.0312    0.0000 C   0  0  0  0  0  0  0  0  0  0  0  0
    0.4201    0.2062    0.0000 C   0  0  0  0  0  0  0  0  0  0  0  0
    1.1228    0.6186    0.0000 C   0  0  0  0  0  0  0  0  0  0  0  0
    3.2768    0.2062    0.0000 C   0  0  0  0  0  0  0  0  0  0  0  0
    2.5741   -1.0312    0.0000 C   0  0  0  0  0  0  0  0  0  0  0  0
    2.5741    0.6186    0.0000 C   0  0  0  0  0  0  0  0  0  0  0  0
    1.8408   -0.6186    0.0000 C   0  0  0  0  0  0  0  0  0  0  0  0
    4.7739    0.2368    0.0000 C   0  0  0  0  0  0  0  0  0  0  0  0
    0.4201   -0.6339    0.0000 C   0  0  0  0  0  0  0  0  0  0  0  0
    5.5378    0.2673    0.0000 C   0  0  0  0  0  0  0  0  0  0  0  0
    3.9796    0.2368    0.0000 C   0  0  0  0  0  0  0  0  0  0  0  0
    4.7433    1.0770    0.0000 C   0  0  0  0  0  0  0  0  0  0  0  0
  1 12  1  0  0  0  0
  2 16  1  0  0  0  0
  3 19  1  0  0  0  0
  4 15  1  0  0  0  0
  4 30  1  0  0  0  0
  5 22  1  0  0  0  0
  5 29  1  0  0  0  0
  6 22  2  0  0  0  0
  7 13  1  0  0  0  0
  7 23  1  0  0  0  0
  8 22  1  0  0  0  0
  8 25  1  0  0  0  0
  8 26  1  0  0  0  0
  9 24  1  0  0  0  0
  9 27  1  0  0  0  0
  9 28  1  0  0  0  0
 10 11  1  0  0  0  0
 10 12  2  0  0  0  0
 10 14  1  0  0  0  0
 11 16  1  0  0  0  0
 11 18  2  0  0  0  0
 12 17  1  0  0  0  0
 13 14  2  0  0  0  0
 13 15  1  0  0  0  0
 15 17  2  0  0  0  0
 16 20  2  0  0  0  0
 18 19  1  0  0  0  0
 19 21  2  0  0  0  0
 20 21  1  0  0  0  0
 23 24  1  0  0  0  0
 25 27  1  0  0  0  0
 26 28  1  0  0  0  0
 29 31  1  0  0  0  0
 29 32  1  0  0  0  0
 29 33  1  0  0  0  0
M  END
> <PUBCHEM_COMPOUND_ID_TYPE>
0

> <PUBCHEM_TOTAL_CHARGE>
0

> <PUBCHEM_SUBSTANCE_ID>
310944442

> <PUBCHEM_SUBSTANCE_VERSION>
1

> <PUBCHEM_EXT_DATASOURCE_NAME>
4488

> <PUBCHEM_EXT_DATASOURCE_REGID>
SCHEMBL16122517

> <PUBCHEM_SUBSTANCE_COMMENT>
InChI=1S/C24H30Cl3N3O3/c1-24(2,3)33-23(31)30-11-9-29(10-12-30)8-7-28-21-14-18(20(27)15-22(21)32-4)17-13-16(25)5-6-19(17)26/h5-6,13-15,28H,7-12H2,1-4H3
InChIKey=FMUKIHQUZLBUIC-UHFFFAOYSA-N

> <PUBCHEM_SUBSTANCE_SYNONYM>
SCHEMBL16122517

> <PUBCHEM_XREF_EXT_ID>
SCHEMBL16122517

> <PUBCHEM_EXT_DATASOURCE_URL>
https://www.surechembl.org/

> <PUBCHEM_EXT_SUBSTANCE_URL>
https://www.surechembl.org/chemical/SCHEMBL16122517

> <PUBCHEM_CID_ASSOCIATIONS>
117610696  1

> <PUBCHEM_COORDINATE_TYPE>
1
3

$$$$
