310939386
  -OEChem-07211613022D

 26 28  0     1  0  0  0  0  0999 V2000
    1.0717    0.9760    0.0000 Cl  0  0  0  0  0  0  0  0  0  0  0  0
   -0.3572   -1.4990    0.0000 F   0  0  0  0  0  0  0  0  0  0  0  0
    1.0717   -0.6740    0.0000 O   0  0  0  0  0  0  0  0  0  0  0  0
   -1.0717    2.2135    0.0000 O   0  0  0  0  0  0  0  0  0  0  0  0
   -2.5006   -0.2615    0.0000 N   0  0  0  0  0  0  0  0  0  0  0  0
   -2.5006    2.2135    0.0000 N   0  0  0  0  0  0  0  0  0  0  0  0
   -1.0717   -0.2615    0.0000 C   0  0  0  0  0  0  0  0  0  0  0  0
   -1.7862   -0.6740    0.0000 C   0  0  3  0  0  0  0  0  0  0  0  0
   -0.3572   -0.6740    0.0000 C   0  0  0  0  0  0  0  0  0  0  0  0
   -1.7862   -1.4990    0.0000 C   0  0  0  0  0  0  0  0  0  0  0  0
    0.3572   -0.2615    0.0000 C   0  0  0  0  0  0  0  0  0  0  0  0
    0.3572    0.5635    0.0000 C   0  0  0  0  0  0  0  0  0  0  0  0
   -1.0717    0.5635    0.0000 C   0  0  0  0  0  0  0  0  0  0  0  0
   -2.1987   -2.2135    0.0000 C   0  0  0  0  0  0  0  0  0  0  0  0
   -1.3737   -2.2135    0.0000 C   0  0  0  0  0  0  0  0  0  0  0  0
   -0.3572    0.9760    0.0000 C   0  0  0  0  0  0  0  0  0  0  0  0
    1.7862   -0.2615    0.0000 C   0  0  0  0  0  0  0  0  0  0  0  0
   -2.5006    0.5635    0.0000 C   0  0  3  0  0  0  0  0  0  0  0  0
    2.5006   -0.6740    0.0000 C   0  0  0  0  0  0  0  0  0  0  0  0
    1.7862    0.5635    0.0000 C   0  0  0  0  0  0  0  0  0  0  0  0
   -1.7862    0.9760    0.0000 C   0  0  0  0  0  0  0  0  0  0  0  0
   -3.2151    0.9760    0.0000 C   0  0  0  0  0  0  0  0  0  0  0  0
    3.2151   -0.2615    0.0000 C   0  0  0  0  0  0  0  0  0  0  0  0
    2.5006    0.9760    0.0000 C   0  0  0  0  0  0  0  0  0  0  0  0
   -1.7862    1.8010    0.0000 C   0  0  0  0  0  0  0  0  0  0  0  0
    3.2151    0.5635    0.0000 C   0  0  0  0  0  0  0  0  0  0  0  0
  1 12  1  0  0  0  0
  2  9  1  0  0  0  0
  3 11  1  0  0  0  0
  3 17  1  0  0  0  0
  4 25  2  0  0  0  0
  8  5  1  1  0  0  0
  5 18  1  0  0  0  0
  6 25  1  0  0  0  0
  7  8  1  0  0  0  0
  7  9  1  0  0  0  0
  7 13  2  0  0  0  0
  8 10  1  0  0  0  0
  9 11  2  0  0  0  0
 10 14  1  0  0  0  0
 10 15  1  0  0  0  0
 11 12  1  0  0  0  0
 12 16  2  0  0  0  0
 13 16  1  0  0  0  0
 14 15  1  0  0  0  0
 17 19  2  0  0  0  0
 17 20  1  0  0  0  0
 18 21  1  0  0  0  0
 18 22  1  1  0  0  0
 19 23  1  0  0  0  0
 20 24  2  0  0  0  0
 21 25  1  0  0  0  0
 23 26  2  0  0  0  0
 24 26  1  0  0  0  0
M  END
> <PUBCHEM_COMPOUND_ID_TYPE>
0

> <PUBCHEM_TOTAL_CHARGE>
0

> <PUBCHEM_SUBSTANCE_ID>
310939386

> <PUBCHEM_SUBSTANCE_VERSION>
1

> <PUBCHEM_EXT_DATASOURCE_NAME>
4488

> <PUBCHEM_EXT_DATASOURCE_REGID>
SCHEMBL16117307

> <PUBCHEM_SUBSTANCE_COMMENT>
InChI=1S/C20H22ClFN2O2/c1-12(11-17(23)25)24-19(13-7-8-13)15-9-10-16(21)20(18(15)22)26-14-5-3-2-4-6-14/h2-6,9-10,12-13,19,24H,7-8,11H2,1H3,(H2,23,25)/t12-,19+/m0/s1
InChIKey=DKXFNVIMFKDBED-HXPMCKFVSA-N

> <PUBCHEM_SUBSTANCE_SYNONYM>
SCHEMBL16117307

> <PUBCHEM_XREF_EXT_ID>
SCHEMBL16117307

> <PUBCHEM_EXT_DATASOURCE_URL>
https://www.surechembl.org/

> <PUBCHEM_EXT_SUBSTANCE_URL>
https://www.surechembl.org/chemical/SCHEMBL16117307

> <PUBCHEM_CID_ASSOCIATIONS>
117606713  1

> <PUBCHEM_COORDINATE_TYPE>
1
3

> <PUBCHEM_BONDANNOTATIONS>
18  22  5
8  5  5

$$$$
