310934899
  -OEChem-07211613022D

 19 21  0     0  0  0  0  0  0999 V2000
    1.4990    0.0000    0.0000 O   0  0  0  0  0  0  0  0  0  0  0  0
    0.6619   -1.1485    0.0000 O   0  0  0  0  0  0  0  0  0  0  0  0
    2.0829   -2.1024    0.0000 N   0  0  0  0  0  0  0  0  0  0  0  0
    2.8616   -2.3749    0.0000 N   0  0  0  0  0  0  0  0  0  0  0  0
    4.1659   -1.6936    0.0000 N   0  0  0  0  0  0  0  0  0  0  0  0
    2.0829   -1.3043    0.0000 C   0  0  0  0  0  0  0  0  0  0  0  0
    3.3483   -1.6936    0.0000 C   0  0  0  0  0  0  0  0  0  0  0  0
    2.8616   -1.0317    0.0000 C   0  0  0  0  0  0  0  0  0  0  0  0
    1.4211   -2.5891    0.0000 C   0  0  0  0  0  0  0  0  0  0  0  0
    1.4211   -0.8176    0.0000 C   0  0  0  0  0  0  0  0  0  0  0  0
    1.4990   -3.4261    0.0000 C   0  0  0  0  0  0  0  0  0  0  0  0
    0.6619   -2.2582    0.0000 C   0  0  0  0  0  0  0  0  0  0  0  0
    4.6525   -1.0317    0.0000 C   0  0  0  0  0  0  0  0  0  0  0  0
    4.6525   -2.3749    0.0000 C   0  0  0  0  0  0  0  0  0  0  0  0
    5.4507   -1.2848    0.0000 C   0  0  0  0  0  0  0  0  0  0  0  0
    5.4507   -2.1024    0.0000 C   0  0  0  0  0  0  0  0  0  0  0  0
    0.8371   -3.8933    0.0000 C   0  0  0  0  0  0  0  0  0  0  0  0
    0.0000   -2.7253    0.0000 C   0  0  0  0  0  0  0  0  0  0  0  0
    0.0779   -3.5624    0.0000 C   0  0  0  0  0  0  0  0  0  0  0  0
  1 10  2  0  0  0  0
  2 10  1  0  0  0  0
  3  4  1  0  0  0  0
  3  6  1  0  0  0  0
  3  9  1  0  0  0  0
  4  7  2  0  0  0  0
  5  7  1  0  0  0  0
  5 13  1  0  0  0  0
  5 14  1  0  0  0  0
  6  8  2  0  0  0  0
  6 10  1  0  0  0  0
  7  8  1  0  0  0  0
  9 11  2  0  0  0  0
  9 12  1  0  0  0  0
 11 17  1  0  0  0  0
 12 18  2  0  0  0  0
 13 15  1  0  0  0  0
 14 16  1  0  0  0  0
 15 16  1  0  0  0  0
 17 19  2  0  0  0  0
 18 19  1  0  0  0  0
M  END
> <PUBCHEM_COMPOUND_ID_TYPE>
0

> <PUBCHEM_TOTAL_CHARGE>
0

> <PUBCHEM_SUBSTANCE_ID>
310934899

> <PUBCHEM_SUBSTANCE_VERSION>
1

> <PUBCHEM_EXT_DATASOURCE_NAME>
4488

> <PUBCHEM_EXT_DATASOURCE_REGID>
SCHEMBL16112412

> <PUBCHEM_SUBSTANCE_COMMENT>
InChI=1S/C14H15N3O2/c18-14(19)12-10-13(16-8-4-5-9-16)15-17(12)11-6-2-1-3-7-11/h1-3,6-7,10H,4-5,8-9H2,(H,18,19)
InChIKey=XQJHHRWQJLJNGF-UHFFFAOYSA-N

> <PUBCHEM_SUBSTANCE_SYNONYM>
SCHEMBL16112412

> <PUBCHEM_XREF_EXT_ID>
SCHEMBL16112412

> <PUBCHEM_EXT_DATASOURCE_URL>
https://www.surechembl.org/

> <PUBCHEM_EXT_SUBSTANCE_URL>
https://www.surechembl.org/chemical/SCHEMBL16112412

> <PUBCHEM_CID_ASSOCIATIONS>
117603026  1

> <PUBCHEM_COORDINATE_TYPE>
1
3

$$$$
