310932068
  -OEChem-07211613022D

 26 27  0     0  0  0  0  0  0999 V2000
    2.8417   -3.7785    0.0000 O   0  0  0  0  0  0  0  0  0  0  0  0
    2.1234   -4.1532    0.0000 O   0  0  0  0  0  0  0  0  0  0  0  0
    2.1234   -4.9963    0.0000 O   0  0  0  0  0  0  0  0  0  0  0  0
    1.4365   -6.2455    0.0000 O   0  0  0  0  0  0  0  0  0  0  0  0
    2.1547   -2.5294    0.0000 N   0  0  0  0  0  0  0  0  0  0  0  0
    0.6870   -4.1532    0.0000 N   0  0  0  0  0  0  0  0  0  0  0  0
    2.8729   -2.9354    0.0000 C   0  0  0  0  0  0  0  0  0  0  0  0
    3.5912   -2.5606    0.0000 C   0  0  0  0  0  0  0  0  0  0  0  0
    2.1859   -1.6863    0.0000 C   0  0  0  0  0  0  0  0  0  0  0  0
    1.4365   -2.9354    0.0000 C   0  0  0  0  0  0  0  0  0  0  0  0
    1.4677   -1.2491    0.0000 C   0  0  0  0  0  0  0  0  0  0  0  0
    1.4052   -3.7473    0.0000 C   0  0  0  0  0  0  0  0  0  0  0  0
    4.3094   -2.9666    0.0000 C   0  0  0  0  0  0  0  0  0  0  0  0
    3.5912   -1.7175    0.0000 C   0  0  0  0  0  0  0  0  0  0  0  0
    1.4677   -0.4372    0.0000 C   0  0  0  0  0  0  0  0  0  0  0  0
    0.7182   -1.6551    0.0000 C   0  0  0  0  0  0  0  0  0  0  0  0
    5.0276   -2.5606    0.0000 C   0  0  0  0  0  0  0  0  0  0  0  0
    4.3094   -1.3115    0.0000 C   0  0  0  0  0  0  0  0  0  0  0  0
    5.0276   -1.7487    0.0000 C   0  0  0  0  0  0  0  0  0  0  0  0
    0.7494    0.0000    0.0000 C   0  0  0  0  0  0  0  0  0  0  0  0
    0.0000   -1.2491    0.0000 C   0  0  0  0  0  0  0  0  0  0  0  0
    0.6870   -4.9963    0.0000 C   0  0  0  0  0  0  0  0  0  0  0  0
    1.4365   -5.4023    0.0000 C   0  0  0  0  0  0  0  0  0  0  0  0
    0.0312   -0.4060    0.0000 C   0  0  0  0  0  0  0  0  0  0  0  0
    2.8729   -5.4023    0.0000 C   0  0  0  0  0  0  0  0  0  0  0  0
    3.5912   -4.9963    0.0000 C   0  0  0  0  0  0  0  0  0  0  0  0
  1  7  2  0  0  0  0
  2 12  2  0  0  0  0
  3 23  1  0  0  0  0
  3 25  1  0  0  0  0
  4 23  2  0  0  0  0
  5  7  1  0  0  0  0
  5  9  1  0  0  0  0
  5 10  1  0  0  0  0
  6 12  1  0  0  0  0
  6 22  1  0  0  0  0
  7  8  1  0  0  0  0
  8 13  2  0  0  0  0
  8 14  1  0  0  0  0
  9 11  1  0  0  0  0
 10 12  1  0  0  0  0
 11 15  2  0  0  0  0
 11 16  1  0  0  0  0
 13 17  1  0  0  0  0
 14 18  2  0  0  0  0
 15 20  1  0  0  0  0
 16 21  2  0  0  0  0
 17 19  2  0  0  0  0
 18 19  1  0  0  0  0
 20 24  2  0  0  0  0
 21 24  1  0  0  0  0
 22 23  1  0  0  0  0
 25 26  1  0  0  0  0
M  END
> <PUBCHEM_COMPOUND_ID_TYPE>
0

> <PUBCHEM_TOTAL_CHARGE>
0

> <PUBCHEM_SUBSTANCE_ID>
310932068

> <PUBCHEM_SUBSTANCE_VERSION>
1

> <PUBCHEM_EXT_DATASOURCE_NAME>
4488

> <PUBCHEM_EXT_DATASOURCE_REGID>
SCHEMBL16109415

> <PUBCHEM_SUBSTANCE_COMMENT>
InChI=1S/C20H22N2O4/c1-2-26-19(24)13-21-18(23)15-22(14-16-9-5-3-6-10-16)20(25)17-11-7-4-8-12-17/h3-12H,2,13-15H2,1H3,(H,21,23)
InChIKey=YUMTWXOJKAXUHZ-UHFFFAOYSA-N

> <PUBCHEM_SUBSTANCE_SYNONYM>
SCHEMBL16109415

> <PUBCHEM_XREF_EXT_ID>
SCHEMBL16109415

> <PUBCHEM_EXT_DATASOURCE_URL>
https://www.surechembl.org/

> <PUBCHEM_EXT_SUBSTANCE_URL>
https://www.surechembl.org/chemical/SCHEMBL16109415

> <PUBCHEM_CID_ASSOCIATIONS>
117600695  1

> <PUBCHEM_COORDINATE_TYPE>
1
3

$$$$
