310935840
  -OEChem-07211613022D

 31 34  0     0  0  0  0  0  0999 V2000
    6.6318    0.0000    0.0000 Cl  0  0  0  0  0  0  0  0  0  0  0  0
    7.3616   -3.7443    0.0000 F   0  0  0  0  0  0  0  0  0  0  0  0
    0.0000   -0.8885    0.0000 F   0  0  0  0  0  0  0  0  0  0  0  0
    3.7443   -0.1904    0.0000 O   0  0  0  0  0  0  0  0  0  0  0  0
    2.6972   -2.4750    0.0000 O   0  0  0  0  0  0  0  0  0  0  0  0
    8.7896   -0.4442    0.0000 O   0  0  0  0  0  0  0  0  0  0  0  0
    9.5194   -1.6818    0.0000 O   0  0  0  0  0  0  0  0  0  0  0  0
    5.2357   -0.0318    0.0000 N   0  0  0  0  0  0  0  0  0  0  0  0
    4.0616   -2.8875    0.0000 N   0  0  0  0  0  0  0  0  0  0  0  0
    4.5375   -1.2692    0.0000 C   0  0  0  0  0  0  0  0  0  0  0  0
    3.7760   -1.5231    0.0000 C   0  0  0  0  0  0  0  0  0  0  0  0
    4.5375   -0.4442    0.0000 C   0  0  0  0  0  0  0  0  0  0  0  0
    3.2683   -0.8567    0.0000 C   0  0  0  0  0  0  0  0  0  0  0  0
    5.9338   -1.2692    0.0000 C   0  0  0  0  0  0  0  0  0  0  0  0
    5.2674   -1.6818    0.0000 C   0  0  0  0  0  0  0  0  0  0  0  0
    5.9338   -0.4125    0.0000 C   0  0  0  0  0  0  0  0  0  0  0  0
    2.4433   -0.8567    0.0000 C   0  0  0  0  0  0  0  0  0  0  0  0
    3.5222   -2.2847    0.0000 C   0  0  0  0  0  0  0  0  0  0  0  0
    6.6636   -1.6818    0.0000 C   0  0  0  0  0  0  0  0  0  0  0  0
    7.3616   -1.2692    0.0000 C   0  0  0  0  0  0  0  0  0  0  0  0
    6.6636   -2.5068    0.0000 C   0  0  0  0  0  0  0  0  0  0  0  0
    2.0308   -1.5865    0.0000 C   0  0  0  0  0  0  0  0  0  0  0  0
    2.0308   -0.1587    0.0000 C   0  0  0  0  0  0  0  0  0  0  0  0
    8.0915   -1.6818    0.0000 C   0  0  0  0  0  0  0  0  0  0  0  0
    7.3616   -2.9193    0.0000 C   0  0  0  0  0  0  0  0  0  0  0  0
    8.0915   -2.5068    0.0000 C   0  0  0  0  0  0  0  0  0  0  0  0
    1.2375   -1.5865    0.0000 C   0  0  0  0  0  0  0  0  0  0  0  0
    1.2058   -0.1587    0.0000 C   0  0  0  0  0  0  0  0  0  0  0  0
    0.8250   -0.8885    0.0000 C   0  0  0  0  0  0  0  0  0  0  0  0
    8.7896   -1.2692    0.0000 C   0  0  0  0  0  0  0  0  0  0  0  0
    3.8077   -3.6808    0.0000 C   0  0  0  0  0  0  0  0  0  0  0  0
  1 16  1  0  0  0  0
  2 25  1  0  0  0  0
  3 29  1  0  0  0  0
  4 12  1  0  0  0  0
  4 13  1  0  0  0  0
  5 18  2  0  0  0  0
  6 30  2  0  0  0  0
  7 30  1  0  0  0  0
  8 12  1  0  0  0  0
  8 16  2  0  0  0  0
  9 18  1  0  0  0  0
  9 31  1  0  0  0  0
 10 11  1  0  0  0  0
 10 12  2  0  0  0  0
 10 15  1  0  0  0  0
 11 13  2  0  0  0  0
 11 18  1  0  0  0  0
 13 17  1  0  0  0  0
 14 15  2  0  0  0  0
 14 16  1  0  0  0  0
 14 19  1  0  0  0  0
 17 22  2  0  0  0  0
 17 23  1  0  0  0  0
 19 20  1  0  0  0  0
 19 21  2  0  0  0  0
 20 24  2  0  0  0  0
 21 25  1  0  0  0  0
 22 27  1  0  0  0  0
 23 28  2  0  0  0  0
 24 26  1  0  0  0  0
 24 30  1  0  0  0  0
 25 26  2  0  0  0  0
 27 29  2  0  0  0  0
 28 29  1  0  0  0  0
M  END
> <PUBCHEM_COMPOUND_ID_TYPE>
0

> <PUBCHEM_TOTAL_CHARGE>
0

> <PUBCHEM_SUBSTANCE_ID>
310935840

> <PUBCHEM_SUBSTANCE_VERSION>
1

> <PUBCHEM_EXT_DATASOURCE_NAME>
4488

> <PUBCHEM_EXT_DATASOURCE_REGID>
SCHEMBL16113432

> <PUBCHEM_SUBSTANCE_COMMENT>
InChI=1S/C22H13ClF2N2O4/c1-26-20(28)17-16-9-15(11-6-12(22(29)30)8-14(25)7-11)19(23)27-21(16)31-18(17)10-2-4-13(24)5-3-10/h2-9H,1H3,(H,26,28)(H,29,30)
InChIKey=BAZAZXQTLGHPBB-UHFFFAOYSA-N

> <PUBCHEM_SUBSTANCE_SYNONYM>
SCHEMBL16113432

> <PUBCHEM_XREF_EXT_ID>
SCHEMBL16113432

> <PUBCHEM_EXT_DATASOURCE_URL>
https://www.surechembl.org/

> <PUBCHEM_EXT_SUBSTANCE_URL>
https://www.surechembl.org/chemical/SCHEMBL16113432

> <PUBCHEM_CID_ASSOCIATIONS>
117603829  1

> <PUBCHEM_COORDINATE_TYPE>
1
3

$$$$
