310947575
  -OEChem-07211613022D

 22 24  0     1  0  0  0  0  0999 V2000
   -3.7067  -15.2580    0.0000 F   0  0  0  0  0  0  0  0  0  0  0  0
   -2.5797  -14.4010    0.0000 O   0  0  0  0  0  0  0  0  0  0  0  0
   -1.7547  -16.3850    0.0000 O   0  0  0  0  0  0  0  0  0  0  0  0
   -0.4132  -11.7435    0.0000 O   0  0  0  0  0  0  0  0  0  0  0  0
   -4.6274  -14.5161    0.0000 O   0  0  0  0  0  0  0  0  0  0  0  0
   -1.9122  -14.0609    0.0000 N   0  0  0  0  0  0  0  0  0  0  0  0
   -1.9122  -12.7260    0.0000 N   0  0  0  0  0  0  0  0  0  0  0  0
   -0.4132  -14.2185    0.0000 N   0  0  0  0  0  0  0  0  0  0  0  0
    0.3013  -12.9810    0.0000 N   0  0  0  0  0  0  0  0  0  0  0  0
   -1.9122  -14.8859    0.0000 C   0  0  3  0  0  0  0  0  0  0  0  0
   -2.1672  -15.6705    0.0000 C   0  0  3  0  0  0  0  0  0  0  0  0
   -1.1276  -13.8060    0.0000 C   0  0  0  0  0  0  0  0  0  0  0  0
   -2.9922  -15.6705    0.0000 C   0  0  3  0  0  0  0  0  0  0  0  0
   -1.1276  -12.9810    0.0000 C   0  0  0  0  0  0  0  0  0  0  0  0
   -3.2471  -14.8859    0.0000 C   0  0  3  0  0  0  0  0  0  0  0  0
   -2.3972  -13.3935    0.0000 C   0  0  0  0  0  0  0  0  0  0  0  0
   -0.4132  -12.5685    0.0000 C   0  0  0  0  0  0  0  0  0  0  0  0
   -1.3703  -15.4570    0.0000 C   0  0  0  0  0  0  0  0  0  0  0  0
    0.3013  -13.8060    0.0000 C   0  0  0  0  0  0  0  0  0  0  0  0
   -3.8305  -14.3025    0.0000 C   0  0  0  0  0  0  0  0  0  0  0  0
    1.0158  -14.2185    0.0000 C   0  0  0  0  0  0  0  0  0  0  0  0
    0.3013  -11.3310    0.0000 C   0  0  0  0  0  0  0  0  0  0  0  0
 13  1  1  1  0  0  0
 10  2  1  6  0  0  0
  2 15  1  0  0  0  0
 11  3  1  6  0  0  0
  4 17  1  0  0  0  0
  4 22  1  0  0  0  0
  5 20  1  0  0  0  0
  6 10  1  0  0  0  0
  6 12  1  0  0  0  0
  6 16  1  0  0  0  0
  7 14  1  0  0  0  0
  7 16  2  0  0  0  0
  8 12  1  0  0  0  0
  8 19  2  0  0  0  0
  9 17  2  0  0  0  0
  9 19  1  0  0  0  0
 10 11  1  0  0  0  0
 11 13  1  0  0  0  0
 11 18  1  1  0  0  0
 12 14  2  0  0  0  0
 13 15  1  0  0  0  0
 14 17  1  0  0  0  0
 15 20  1  1  0  0  0
 19 21  1  0  0  0  0
M  END
> <PUBCHEM_COMPOUND_ID_TYPE>
0

> <PUBCHEM_TOTAL_CHARGE>
0

> <PUBCHEM_SUBSTANCE_ID>
310947575

> <PUBCHEM_SUBSTANCE_VERSION>
1

> <PUBCHEM_EXT_DATASOURCE_NAME>
4488

> <PUBCHEM_EXT_DATASOURCE_REGID>
SCHEMBL16125738

> <PUBCHEM_SUBSTANCE_COMMENT>
InChI=1S/C13H17FN4O4/c1-6-16-10-8(11(17-6)21-3)15-5-18(10)12-13(2,20)9(14)7(4-19)22-12/h5,7,9,12,19-20H,4H2,1-3H3/t7-,9+,12-,13-/m1/s1
InChIKey=CGTLPSURVGNMCP-SEBFSPHVSA-N

> <PUBCHEM_SUBSTANCE_SYNONYM>
SCHEMBL16125738

> <PUBCHEM_XREF_EXT_ID>
SCHEMBL16125738

> <PUBCHEM_EXT_DATASOURCE_URL>
https://www.surechembl.org/

> <PUBCHEM_EXT_SUBSTANCE_URL>
https://www.surechembl.org/chemical/SCHEMBL16125738

> <PUBCHEM_CID_ASSOCIATIONS>
117613297  1

> <PUBCHEM_COORDINATE_TYPE>
1
3

> <PUBCHEM_BONDANNOTATIONS>
13  1  5
11  18  5
15  20  5
10  2  6
11  3  6

$$$$
