310949222
  -OEChem-07211613022D

 26 27  0     0  0  0  0  0  0999 V2000
   -0.0114    2.7670    0.0000 Br  0  0  0  0  0  0  0  0  0  0  0  0
   -1.4322   -0.5557    0.0000 F   0  0  0  0  0  0  0  0  0  0  0  0
    1.4093   -0.5328    0.0000 F   0  0  0  0  0  0  0  0  0  0  0  0
    1.6384    2.7670    0.0000 F   0  0  0  0  0  0  0  0  0  0  0  0
    2.2571    1.9535    0.0000 F   0  0  0  0  0  0  0  0  0  0  0  0
    1.8332    1.2317    0.0000 F   0  0  0  0  0  0  0  0  0  0  0  0
   -2.0394    1.3348    0.0000 F   0  0  0  0  0  0  0  0  0  0  0  0
   -2.2571    2.1368    0.0000 F   0  0  0  0  0  0  0  0  0  0  0  0
   -1.6728    2.7212    0.0000 F   0  0  0  0  0  0  0  0  0  0  0  0
    1.4208   -2.1827    0.0000 F   0  0  0  0  0  0  0  0  0  0  0  0
   -1.4322   -2.2056    0.0000 F   0  0  0  0  0  0  0  0  0  0  0  0
   -0.0230    0.3036    0.0000 C   0  0  0  0  0  0  0  0  0  0  0  0
   -0.0230   -0.5443    0.0000 C   0  0  0  0  0  0  0  0  0  0  0  0
    0.6874    1.5525    0.0000 C   0  0  0  0  0  0  0  0  0  0  0  0
   -0.7448    1.5411    0.0000 C   0  0  0  0  0  0  0  0  0  0  0  0
   -0.0344    1.9535    0.0000 C   0  0  0  0  0  0  0  0  0  0  0  0
    0.6989    0.7276    0.0000 C   0  0  0  0  0  0  0  0  0  0  0  0
   -0.7333    0.6932    0.0000 C   0  0  0  0  0  0  0  0  0  0  0  0
   -0.7218   -0.9567    0.0000 C   0  0  0  0  0  0  0  0  0  0  0  0
    0.6989   -0.9338    0.0000 C   0  0  0  0  0  0  0  0  0  0  0  0
    1.4093    1.9764    0.0000 C   0  0  0  0  0  0  0  0  0  0  0  0
   -1.4895    1.9535    0.0000 C   0  0  0  0  0  0  0  0  0  0  0  0
    0.6874   -1.7358    0.0000 C   0  0  0  0  0  0  0  0  0  0  0  0
   -0.7448   -1.7702    0.0000 C   0  0  0  0  0  0  0  0  0  0  0  0
   -0.0230   -2.1712    0.0000 C   0  0  0  0  0  0  0  0  0  0  0  0
   -0.0114   -2.7670    0.0000 C   0  0  0  0  0  0  0  0  0  0  0  0
  1 16  1  0  0  0  0
  2 19  1  0  0  0  0
  3 20  1  0  0  0  0
  4 21  1  0  0  0  0
  5 21  1  0  0  0  0
  6 21  1  0  0  0  0
  7 22  1  0  0  0  0
  8 22  1  0  0  0  0
  9 22  1  0  0  0  0
 10 23  1  0  0  0  0
 11 24  1  0  0  0  0
 12 13  1  0  0  0  0
 12 17  2  0  0  0  0
 12 18  1  0  0  0  0
 13 19  2  0  0  0  0
 13 20  1  0  0  0  0
 14 16  2  0  0  0  0
 14 17  1  0  0  0  0
 14 21  1  0  0  0  0
 15 16  1  0  0  0  0
 15 18  2  0  0  0  0
 15 22  1  0  0  0  0
 19 24  1  0  0  0  0
 20 23  2  0  0  0  0
 23 25  1  0  0  0  0
 24 25  2  0  0  0  0
 25 26  1  0  0  0  0
M  END
> <PUBCHEM_COMPOUND_ID_TYPE>
0

> <PUBCHEM_TOTAL_CHARGE>
0

> <PUBCHEM_SUBSTANCE_ID>
310949222

> <PUBCHEM_SUBSTANCE_VERSION>
1

> <PUBCHEM_EXT_DATASOURCE_NAME>
4488

> <PUBCHEM_EXT_DATASOURCE_REGID>
SCHEMBL16127412

> <PUBCHEM_SUBSTANCE_COMMENT>
InChI=1S/C15H5BrF10/c1-4-10(17)12(19)8(13(20)11(4)18)5-2-6(14(21,22)23)9(16)7(3-5)15(24,25)26/h2-3H,1H3
InChIKey=NKQOLHIYUXEWJE-UHFFFAOYSA-N

> <PUBCHEM_SUBSTANCE_SYNONYM>
SCHEMBL16127412

> <PUBCHEM_XREF_EXT_ID>
SCHEMBL16127412

> <PUBCHEM_EXT_DATASOURCE_URL>
https://www.surechembl.org/

> <PUBCHEM_EXT_SUBSTANCE_URL>
https://www.surechembl.org/chemical/SCHEMBL16127412

> <PUBCHEM_CID_ASSOCIATIONS>
117614710  1

> <PUBCHEM_COORDINATE_TYPE>
1
3

$$$$
