310932541
  -OEChem-07211613022D

 32 35  0     0  0  0  0  0  0999 V2000
    4.0033   -3.3576    0.0000 O   0  0  0  0  0  0  0  0  0  0  0  0
    2.6151   -0.6457    0.0000 O   0  0  0  0  0  0  0  0  0  0  0  0
    8.4585   -3.4545    0.0000 O   0  0  0  0  0  0  0  0  0  0  0  0
    9.6853   -3.2930    0.0000 O   0  0  0  0  0  0  0  0  0  0  0  0
    4.9072   -2.2276    0.0000 N   0  0  0  0  0  0  0  0  0  0  0  0
    7.7482   -4.6812    0.0000 N   0  0  0  0  0  0  0  0  0  0  0  0
    4.8104   -1.4205    0.0000 N   0  0  0  0  0  0  0  0  0  0  0  0
    6.3277   -2.2276    0.0000 N   0  0  0  0  0  0  0  0  0  0  0  0
    0.0000   -3.0993    0.0000 N   0  0  0  0  0  0  0  0  0  0  0  0
    8.4585   -5.1009    0.0000 C   0  0  0  0  0  0  0  0  0  0  0  0
    3.5836   -1.9694    0.0000 C   0  0  0  0  0  0  0  0  0  0  0  0
    4.1647   -2.5827    0.0000 C   0  0  0  0  0  0  0  0  0  0  0  0
    2.7764   -2.0662    0.0000 C   0  0  0  0  0  0  0  0  0  0  0  0
    5.6175   -2.6473    0.0000 C   0  0  0  0  0  0  0  0  0  0  0  0
    9.1042   -5.6175    0.0000 C   0  0  0  0  0  0  0  0  0  0  0  0
    8.3616   -5.9403    0.0000 C   0  0  0  0  0  0  0  0  0  0  0  0
    4.0033   -1.2591    0.0000 C   0  0  0  0  0  0  0  0  0  0  0  0
    2.2922   -1.3882    0.0000 C   0  0  0  0  0  0  0  0  0  0  0  0
    7.7482   -3.8742    0.0000 C   0  0  0  0  0  0  0  0  0  0  0  0
    7.0380   -3.4545    0.0000 C   0  0  0  0  0  0  0  0  0  0  0  0
    9.1365   -4.6167    0.0000 C   0  0  0  0  0  0  0  0  0  0  0  0
    5.6175   -3.4545    0.0000 C   0  0  0  0  0  0  0  0  0  0  0  0
    2.4536   -2.8088    0.0000 C   0  0  0  0  0  0  0  0  0  0  0  0
    7.0380   -2.6473    0.0000 C   0  0  0  0  0  0  0  0  0  0  0  0
    6.3277   -3.8742    0.0000 C   0  0  0  0  0  0  0  0  0  0  0  0
    1.4851   -1.4851    0.0000 C   0  0  0  0  0  0  0  0  0  0  0  0
    1.1300   -2.2599    0.0000 C   0  0  0  0  0  0  0  0  0  0  0  0
    1.6142   -2.9056    0.0000 C   0  0  0  0  0  0  0  0  0  0  0  0
    9.0397   -3.7773    0.0000 C   0  0  0  0  0  0  0  0  0  0  0  0
    0.3228   -2.3245    0.0000 C   0  0  0  0  0  0  0  0  0  0  0  0
    2.1308    0.0000    0.0000 C   0  0  0  0  0  0  0  0  0  0  0  0
    9.5885   -2.4859    0.0000 C   0  0  0  0  0  0  0  0  0  0  0  0
  1 12  1  0  0  0  0
  2 18  1  0  0  0  0
  2 31  1  0  0  0  0
  3 19  2  0  0  0  0
  4 29  1  0  0  0  0
  4 32  1  0  0  0  0
  5  7  1  0  0  0  0
  5 12  1  0  0  0  0
  5 14  1  0  0  0  0
  6 10  1  0  0  0  0
  6 19  1  0  0  0  0
  7 17  2  0  0  0  0
  8 14  2  0  0  0  0
  8 24  1  0  0  0  0
  9 30  3  0  0  0  0
 10 15  1  0  0  0  0
 10 16  1  0  0  0  0
 10 21  1  0  0  0  0
 11 12  2  0  0  0  0
 11 13  1  0  0  0  0
 11 17  1  0  0  0  0
 13 18  1  0  0  0  0
 13 23  2  0  0  0  0
 14 22  1  0  0  0  0
 15 16  1  0  0  0  0
 18 26  2  0  0  0  0
 19 20  1  0  0  0  0
 20 24  2  0  0  0  0
 20 25  1  0  0  0  0
 21 29  1  0  0  0  0
 22 25  2  0  0  0  0
 23 28  1  0  0  0  0
 26 27  1  0  0  0  0
 27 28  2  0  0  0  0
 27 30  1  0  0  0  0
M  END
> <PUBCHEM_COMPOUND_ID_TYPE>
0

> <PUBCHEM_TOTAL_CHARGE>
0

> <PUBCHEM_SUBSTANCE_ID>
310932541

> <PUBCHEM_SUBSTANCE_VERSION>
1

> <PUBCHEM_EXT_DATASOURCE_NAME>
4488

> <PUBCHEM_EXT_DATASOURCE_REGID>
SCHEMBL16109916

> <PUBCHEM_SUBSTANCE_COMMENT>
InChI=1S/C23H23N5O4/c1-31-10-9-23(7-8-23)27-21(29)16-4-6-20(25-13-16)28-22(30)18(14-26-28)17-5-3-15(12-24)11-19(17)32-2/h3-6,11,13-14,30H,7-10H2,1-2H3,(H,27,29)
InChIKey=CJVKDLPZOXSRBU-UHFFFAOYSA-N

> <PUBCHEM_SUBSTANCE_SYNONYM>
SCHEMBL16109916

> <PUBCHEM_XREF_EXT_ID>
SCHEMBL16109916

> <PUBCHEM_EXT_DATASOURCE_URL>
https://www.surechembl.org/

> <PUBCHEM_EXT_SUBSTANCE_URL>
https://www.surechembl.org/chemical/SCHEMBL16109916

> <PUBCHEM_CID_ASSOCIATIONS>
117601071  1

> <PUBCHEM_COORDINATE_TYPE>
1
3

$$$$
