310944745
  -OEChem-07211613022D

 29 31  0     0  0  0  0  0  0999 V2000
   -3.4062   -0.8531    0.0000 Cl  0  0  0  0  0  0  0  0  0  0  0  0
   -0.3674   -0.8531    0.0000 O   0  0  0  0  0  0  0  0  0  0  0  0
    1.0648    1.6377    0.0000 O   0  0  0  0  0  0  0  0  0  0  0  0
    4.6640   -0.4421    0.0000 O   0  0  0  0  0  0  0  0  0  0  0  0
   -0.3549    0.8157    0.0000 N   0  0  0  0  0  0  0  0  0  0  0  0
    1.8121    0.3923    0.0000 N   0  0  0  0  0  0  0  0  0  0  0  0
    3.2443   -0.4297    0.0000 N   0  0  0  0  0  0  0  0  0  0  0  0
   -2.5095    0.4048    0.0000 C   0  0  0  0  0  0  0  0  0  0  0  0
   -1.0773    0.4048    0.0000 C   0  0  0  0  0  0  0  0  0  0  0  0
   -1.0898   -0.4297    0.0000 C   0  0  0  0  0  0  0  0  0  0  0  0
   -2.5095   -0.4297    0.0000 C   0  0  0  0  0  0  0  0  0  0  0  0
   -1.7871    0.8033    0.0000 C   0  0  0  0  0  0  0  0  0  0  0  0
   -3.2443    0.8157    0.0000 C   0  0  0  0  0  0  0  0  0  0  0  0
   -1.7996   -0.8406    0.0000 C   0  0  0  0  0  0  0  0  0  0  0  0
    1.0648    0.8033    0.0000 C   0  0  0  0  0  0  0  0  0  0  0  0
    0.3674    0.3923    0.0000 C   0  0  0  0  0  0  0  0  0  0  0  0
   -3.9417    0.4048    0.0000 C   0  0  0  0  0  0  0  0  0  0  0  0
   -3.2318    1.6377    0.0000 C   0  0  0  0  0  0  0  0  0  0  0  0
    2.5220    0.8157    0.0000 C   0  0  0  0  0  0  0  0  0  0  0  0
    1.7996   -0.4297    0.0000 C   0  0  0  0  0  0  0  0  0  0  0  0
    3.2318    0.4048    0.0000 C   0  0  0  0  0  0  0  0  0  0  0  0
    2.5220   -0.8531    0.0000 C   0  0  0  0  0  0  0  0  0  0  0  0
    3.9417   -0.8531    0.0000 C   0  0  0  0  0  0  0  0  0  0  0  0
   -4.6640    0.8157    0.0000 C   0  0  0  0  0  0  0  0  0  0  0  0
   -3.9417    2.0487    0.0000 C   0  0  0  0  0  0  0  0  0  0  0  0
   -4.6640    1.6377    0.0000 C   0  0  0  0  0  0  0  0  0  0  0  0
   -0.3549   -1.6875    0.0000 C   0  0  0  0  0  0  0  0  0  0  0  0
    3.9542   -1.6875    0.0000 C   0  0  0  0  0  0  0  0  0  0  0  0
    3.2194   -2.0487    0.0000 C   0  0  0  0  0  0  0  0  0  0  0  0
  1 11  1  0  0  0  0
  2 10  1  0  0  0  0
  2 27  1  0  0  0  0
  3 15  2  0  0  0  0
  4 23  2  0  0  0  0
  5  9  1  0  0  0  0
  5 16  1  0  0  0  0
  6 15  1  0  0  0  0
  6 19  1  0  0  0  0
  6 20  1  0  0  0  0
  7 21  1  0  0  0  0
  7 22  1  0  0  0  0
  7 23  1  0  0  0  0
  8 11  2  0  0  0  0
  8 12  1  0  0  0  0
  8 13  1  0  0  0  0
  9 10  1  0  0  0  0
  9 12  2  0  0  0  0
 10 14  2  0  0  0  0
 11 14  1  0  0  0  0
 13 17  1  0  0  0  0
 13 18  1  0  0  0  0
 15 16  1  0  0  0  0
 17 24  1  0  0  0  0
 18 25  1  0  0  0  0
 19 21  1  0  0  0  0
 20 22  1  0  0  0  0
 23 28  1  0  0  0  0
 24 26  1  0  0  0  0
 25 26  1  0  0  0  0
 28 29  2  0  0  0  0
M  END
> <PUBCHEM_COMPOUND_ID_TYPE>
0

> <PUBCHEM_TOTAL_CHARGE>
0

> <PUBCHEM_SUBSTANCE_ID>
310944745

> <PUBCHEM_SUBSTANCE_VERSION>
1

> <PUBCHEM_EXT_DATASOURCE_NAME>
4488

> <PUBCHEM_EXT_DATASOURCE_REGID>
SCHEMBL16122824

> <PUBCHEM_SUBSTANCE_COMMENT>
InChI=1S/C22H30ClN3O3/c1-3-21(27)25-9-11-26(12-10-25)22(28)15-24-19-13-17(16-7-5-4-6-8-16)18(23)14-20(19)29-2/h3,13-14,16,24H,1,4-12,15H2,2H3
InChIKey=RIAJFMJNEYBMAC-UHFFFAOYSA-N

> <PUBCHEM_SUBSTANCE_SYNONYM>
SCHEMBL16122824

> <PUBCHEM_XREF_EXT_ID>
SCHEMBL16122824

> <PUBCHEM_EXT_DATASOURCE_URL>
https://www.surechembl.org/

> <PUBCHEM_EXT_SUBSTANCE_URL>
https://www.surechembl.org/chemical/SCHEMBL16122824

> <PUBCHEM_CID_ASSOCIATIONS>
117610962  1

> <PUBCHEM_COORDINATE_TYPE>
1
3

$$$$
