310936378
  -OEChem-07211613022D

 28 31  0     1  0  0  0  0  0999 V2000
    1.9233   -2.7604    0.0000 O   0  0  0  0  0  0  0  0  0  0  0  0
    6.5042   -1.0932    0.0000 O   0  0  0  0  0  0  0  0  0  0  0  0
    3.5024   -3.0734    0.0000 O   0  0  0  0  0  0  0  0  0  0  0  0
    1.9233   -0.2854    0.0000 C   0  0  3  0  0  0  0  0  0  0  0  0
    1.9233   -1.1104    0.0000 C   0  0  3  0  0  0  0  0  0  0  0  0
    3.3523   -1.1104    0.0000 C   0  0  3  0  0  0  0  0  0  0  0  0
    2.6378   -1.5229    0.0000 C   0  0  3  0  0  0  0  0  0  0  0  0
    4.0668   -1.5229    0.0000 C   0  0  3  0  0  0  0  0  0  0  0  0
    1.1387   -0.0305    0.0000 C   0  0  0  0  0  0  0  0  0  0  0  0
    2.6378    0.1271    0.0000 C   0  0  0  0  0  0  0  0  0  0  0  0
    3.3523   -0.2854    0.0000 C   0  0  0  0  0  0  0  0  0  0  0  0
    1.1387   -1.3654    0.0000 C   0  0  0  0  0  0  0  0  0  0  0  0
    4.5971   -2.1549    0.0000 C   0  0  3  0  0  0  0  0  0  0  0  0
    0.6538   -0.6979    0.0000 C   0  0  0  0  0  0  0  0  0  0  0  0
    0.8838    0.7541    0.0000 C   0  0  0  0  0  0  0  0  0  0  0  0
    4.3489   -0.7477    0.0000 C   0  0  0  0  0  0  0  0  0  0  0  0
    1.8371    0.5350    0.0000 C   0  0  0  0  0  0  0  0  0  0  0  0
    2.6378   -2.3479    0.0000 C   0  0  0  0  0  0  0  0  0  0  0  0
    3.5365   -2.1549    0.0000 C   0  0  0  0  0  0  0  0  0  0  0  0
    5.4095   -2.0117    0.0000 C   0  0  0  0  0  0  0  0  0  0  0  0
    5.1614   -0.6044    0.0000 C   0  0  0  0  0  0  0  0  0  0  0  0
    5.6917   -1.2364    0.0000 C   0  0  3  0  0  0  0  0  0  0  0  0
    4.3149   -2.9302    0.0000 C   0  0  0  0  0  0  0  0  0  0  0  0
    0.0768    0.9256    0.0000 C   0  0  0  0  0  0  0  0  0  0  0  0
    1.4358    1.3672    0.0000 C   0  0  0  0  0  0  0  0  0  0  0  0
   -0.1781    1.7103    0.0000 C   0  0  0  0  0  0  0  0  0  0  0  0
    1.1809    2.1518    0.0000 C   0  0  0  0  0  0  0  0  0  0  0  0
    0.3739    2.3234    0.0000 C   0  0  0  0  0  0  0  0  0  0  0  0
  1 18  1  0  0  0  0
 22  2  1  6  0  0  0
  3 23  1  0  0  0  0
  4  5  1  0  0  0  0
  4  9  1  0  0  0  0
  4 10  1  0  0  0  0
  4 17  1  6  0  0  0
  5  7  1  0  0  0  0
  5 12  1  6  0  0  0
  6  7  1  0  0  0  0
  6  8  1  0  0  0  0
  6 11  1  6  0  0  0
  7 18  1  1  0  0  0
  8 13  1  0  0  0  0
  8 16  1  0  0  0  0
  8 19  1  6  0  0  0
  9 14  2  0  0  0  0
  9 15  1  0  0  0  0
 10 11  1  0  0  0  0
 12 14  1  0  0  0  0
 13 20  1  0  0  0  0
 13 23  1  6  0  0  0
 15 24  2  0  0  0  0
 15 25  1  0  0  0  0
 16 21  1  0  0  0  0
 20 22  1  0  0  0  0
 21 22  1  0  0  0  0
 24 26  1  0  0  0  0
 25 27  2  0  0  0  0
 26 28  2  0  0  0  0
 27 28  1  0  0  0  0
M  END
> <PUBCHEM_COMPOUND_ID_TYPE>
0

> <PUBCHEM_TOTAL_CHARGE>
0

> <PUBCHEM_SUBSTANCE_ID>
310936378

> <PUBCHEM_SUBSTANCE_VERSION>
1

> <PUBCHEM_EXT_DATASOURCE_NAME>
4488

> <PUBCHEM_EXT_DATASOURCE_REGID>
SCHEMBL16114015

> <PUBCHEM_SUBSTANCE_COMMENT>
InChI=1S/C25H36O3/c1-24(12-10-19(28)14-18(24)15-26)23-11-13-25(2)21(17-6-4-3-5-7-17)8-9-22(25)20(23)16-27/h3-8,18-20,22-23,26-28H,9-16H2,1-2H3/t18-,19+,20+,22+,23+,24+,25-/m1/s1
InChIKey=GFWGVSOTUMXNMD-CPVNMKTDSA-N

> <PUBCHEM_SUBSTANCE_SYNONYM>
SCHEMBL16114015

> <PUBCHEM_XREF_EXT_ID>
SCHEMBL16114015

> <PUBCHEM_EXT_DATASOURCE_URL>
https://www.surechembl.org/

> <PUBCHEM_EXT_SUBSTANCE_URL>
https://www.surechembl.org/chemical/SCHEMBL16114015

> <PUBCHEM_CID_ASSOCIATIONS>
117604319  1

> <PUBCHEM_COORDINATE_TYPE>
1
3

> <PUBCHEM_BONDANNOTATIONS>
13  23  6
22  2  6
4  17  6
5  12  6
6  11  6
7  18  5
8  19  6

$$$$
