310940521
  -OEChem-07211613022D

 36 41  0     0  0  0  0  0  0999 V2000
    1.9870   -0.1650    0.0000 O   0  0  0  0  0  0  0  0  0  0  0  0
   -2.2071   -0.3300    0.0000 O   0  0  0  0  0  0  0  0  0  0  0  0
    2.0421    1.3201    0.0000 O   0  0  0  0  0  0  0  0  0  0  0  0
   -3.5272   -2.2689    0.0000 O   0  0  0  0  0  0  0  0  0  0  0  0
    0.8182    0.4950    0.0000 N   0  0  0  0  0  0  0  0  0  0  0  0
    0.6669   -1.9802    0.0000 N   0  0  0  0  0  0  0  0  0  0  0  0
   -3.1146   -2.9840    0.0000 N   0  0  0  0  0  0  0  0  0  0  0  0
    0.6531   -0.3438    0.0000 C   0  0  0  0  0  0  0  0  0  0  0  0
   -0.0481   -0.7700    0.0000 C   0  0  0  0  0  0  0  0  0  0  0  0
    1.3958   -0.7563    0.0000 C   0  0  0  0  0  0  0  0  0  0  0  0
   -0.0619   -1.5814    0.0000 C   0  0  0  0  0  0  0  0  0  0  0  0
    1.3820   -1.5951    0.0000 C   0  0  0  0  0  0  0  0  0  0  0  0
    1.6295    0.5501    0.0000 C   0  0  0  0  0  0  0  0  0  0  0  0
   -1.4920   -1.6089    0.0000 C   0  0  0  0  0  0  0  0  0  0  0  0
   -0.7770   -0.3713    0.0000 C   0  0  0  0  0  0  0  0  0  0  0  0
   -1.4782   -0.7700    0.0000 C   0  0  0  0  0  0  0  0  0  0  0  0
   -0.7770   -2.0077    0.0000 C   0  0  0  0  0  0  0  0  0  0  0  0
   -2.2071   -2.0214    0.0000 C   0  0  0  0  0  0  0  0  0  0  0  0
    2.1108   -2.0077    0.0000 C   0  0  0  0  0  0  0  0  0  0  0  0
    0.1444    0.9351    0.0000 C   0  0  0  0  0  0  0  0  0  0  0  0
   -2.9634   -1.6639    0.0000 C   0  0  0  0  0  0  0  0  0  0  0  0
   -2.3033   -2.8327    0.0000 C   0  0  0  0  0  0  0  0  0  0  0  0
    0.1994    1.7739    0.0000 C   0  0  0  0  0  0  0  0  0  0  0  0
    2.8121   -1.6089    0.0000 C   0  0  0  0  0  0  0  0  0  0  0  0
    2.1108   -2.8327    0.0000 C   0  0  0  0  0  0  0  0  0  0  0  0
    3.5272   -2.0077    0.0000 C   0  0  0  0  0  0  0  0  0  0  0  0
    2.8121   -3.2315    0.0000 C   0  0  0  0  0  0  0  0  0  0  0  0
    0.9420    2.1314    0.0000 C   0  0  0  0  0  0  0  0  0  0  0  0
   -0.4744    2.2277    0.0000 C   0  0  0  0  0  0  0  0  0  0  0  0
   -3.1284   -0.8526    0.0000 C   0  0  0  0  0  0  0  0  0  0  0  0
   -1.6708   -3.3965    0.0000 C   0  0  0  0  0  0  0  0  0  0  0  0
    3.5272   -2.8327    0.0000 C   0  0  0  0  0  0  0  0  0  0  0  0
   -2.2071    0.4813    0.0000 C   0  0  0  0  0  0  0  0  0  0  0  0
    0.9969    2.9428    0.0000 C   0  0  0  0  0  0  0  0  0  0  0  0
   -0.4057    3.0528    0.0000 C   0  0  0  0  0  0  0  0  0  0  0  0
    0.3369    3.3965    0.0000 C   0  0  0  0  0  0  0  0  0  0  0  0
  1 10  1  0  0  0  0
  1 13  1  0  0  0  0
  2 16  1  0  0  0  0
  2 33  1  0  0  0  0
  3 13  2  0  0  0  0
  4  7  1  0  0  0  0
  4 21  1  0  0  0  0
  5  8  1  0  0  0  0
  5 13  1  0  0  0  0
  5 20  1  0  0  0  0
  6 11  1  0  0  0  0
  6 12  2  0  0  0  0
  7 22  2  0  0  0  0
  8  9  1  0  0  0  0
  8 10  2  0  0  0  0
  9 11  1  0  0  0  0
  9 15  2  0  0  0  0
 10 12  1  0  0  0  0
 11 17  2  0  0  0  0
 12 19  1  0  0  0  0
 14 16  2  0  0  0  0
 14 17  1  0  0  0  0
 14 18  1  0  0  0  0
 15 16  1  0  0  0  0
 18 21  2  0  0  0  0
 18 22  1  0  0  0  0
 19 24  2  0  0  0  0
 19 25  1  0  0  0  0
 20 23  1  0  0  0  0
 21 30  1  0  0  0  0
 22 31  1  0  0  0  0
 23 28  2  0  0  0  0
 23 29  1  0  0  0  0
 24 26  1  0  0  0  0
 25 27  2  0  0  0  0
 26 32  2  0  0  0  0
 27 32  1  0  0  0  0
 28 34  1  0  0  0  0
 29 35  2  0  0  0  0
 34 36  2  0  0  0  0
 35 36  1  0  0  0  0
M  END
> <PUBCHEM_COMPOUND_ID_TYPE>
0

> <PUBCHEM_TOTAL_CHARGE>
0

> <PUBCHEM_SUBSTANCE_ID>
310940521

> <PUBCHEM_SUBSTANCE_VERSION>
1

> <PUBCHEM_EXT_DATASOURCE_NAME>
4488

> <PUBCHEM_EXT_DATASOURCE_REGID>
SCHEMBL16118475

> <PUBCHEM_SUBSTANCE_COMMENT>
InChI=1S/C29H23N3O4/c1-17-25(18(2)36-31-17)22-14-23-21(15-24(22)34-3)27-28(26(30-23)20-12-8-5-9-13-20)35-29(33)32(27)16-19-10-6-4-7-11-19/h4-15H,16H2,1-3H3
InChIKey=BJHCQRCWDSCYQN-UHFFFAOYSA-N

> <PUBCHEM_SUBSTANCE_SYNONYM>
SCHEMBL16118475

> <PUBCHEM_XREF_EXT_ID>
SCHEMBL16118475

> <PUBCHEM_EXT_DATASOURCE_URL>
https://www.surechembl.org/

> <PUBCHEM_EXT_SUBSTANCE_URL>
https://www.surechembl.org/chemical/SCHEMBL16118475

> <PUBCHEM_CID_ASSOCIATIONS>
86303268  1

> <PUBCHEM_COORDINATE_TYPE>
1
3

$$$$
