310929891
  -OEChem-07211613022D

 64 72  0     1  0  0  0  0  0999 V2000
    1.5411   -1.3816    0.0000 S   0  0  0  0  0  0  0  0  0  0  0  0
    2.9759   -0.5314    0.0000 O   0  0  0  0  0  0  0  0  0  0  0  0
    4.9952   -2.7633    0.0000 O   0  0  0  0  0  0  0  0  0  0  0  0
    6.1111   -5.1547    0.0000 O   0  0  0  0  0  0  0  0  0  0  0  0
    1.9662   -0.6377    0.0000 O   0  0  0  0  0  0  0  0  0  0  0  0
    1.1691   -2.0725    0.0000 O   0  0  0  0  0  0  0  0  0  0  0  0
    2.0193   -3.6136    0.0000 O   0  0  0  0  0  0  0  0  0  0  0  0
    7.0677   -8.0242    0.0000 O   0  0  0  0  0  0  0  0  0  0  0  0
    1.5411   -7.1740    0.0000 O   0  0  0  0  0  0  0  0  0  0  0  0
    0.6377   -6.3237    0.0000 O   0  0  0  0  0  0  0  0  0  0  0  0
    5.6329   -9.6716    0.0000 O   0  0  0  0  0  0  0  0  0  0  0  0
    3.6136   -2.6039    0.0000 N   0  0  0  0  0  0  0  0  0  0  0  0
    2.2850   -1.7536    0.0000 N   0  0  0  0  0  0  0  0  0  0  0  0
    3.2947   -3.8793    0.0000 N   0  0  0  0  0  0  0  0  0  0  0  0
    7.0677   -5.5266    0.0000 N   0  0  0  0  0  0  0  0  0  0  0  0
    1.5411   -5.5266    0.0000 N   0  0  0  0  0  0  0  0  0  0  0  0
    7.0677   -9.6185    0.0000 N   0  0  0  0  0  0  0  0  0  0  0  0
    3.7198   -1.7536    0.0000 C   0  0  3  0  0  0  0  0  0  0  0  0
    3.9324   -1.0097    0.0000 C   0  0  3  0  0  0  0  0  0  0  0  0
    4.5170   -1.5411    0.0000 C   0  0  0  0  0  0  0  0  0  0  0  0
    2.9759   -1.3816    0.0000 C   0  0  0  0  0  0  0  0  0  0  0  0
    4.2513   -3.0822    0.0000 C   0  0  0  0  0  0  0  0  0  0  0  0
    3.6667   -0.2125    0.0000 C   0  0  0  0  0  0  0  0  0  0  0  0
    4.1450   -3.8793    0.0000 C   0  0  3  0  0  0  0  0  0  0  0  0
    0.8502   -0.9565    0.0000 C   0  0  0  0  0  0  0  0  0  0  0  0
    4.9420   -4.0918    0.0000 C   0  0  0  0  0  0  0  0  0  0  0  0
    5.6329   -4.4638    0.0000 C   0  0  3  0  0  0  0  0  0  0  0  0
    4.6232   -3.5073    0.0000 C   0  0  0  0  0  0  0  0  0  0  0  0
    2.4976   -4.2513    0.0000 C   0  0  0  0  0  0  0  0  0  0  0  0
    0.0532   -0.9565    0.0000 C   0  0  0  0  0  0  0  0  0  0  0  0
    0.4252   -0.2657    0.0000 C   0  0  0  0  0  0  0  0  0  0  0  0
    6.3769   -5.8986    0.0000 C   0  0  0  0  0  0  0  0  0  0  0  0
    2.8696    0.0000    0.0000 C   0  0  0  0  0  0  0  0  0  0  0  0
    1.9131   -4.8358    0.0000 C   0  0  3  0  0  0  0  0  0  0  0  0
    6.3769   -6.8020    0.0000 C   0  0  0  0  0  0  0  0  0  0  0  0
    7.0677   -7.1740    0.0000 C   0  0  0  0  0  0  0  0  0  0  0  0
    7.7585   -6.8020    0.0000 C   0  0  0  0  0  0  0  0  0  0  0  0
    7.7585   -5.8986    0.0000 C   0  0  0  0  0  0  0  0  0  0  0  0
    1.2754   -4.3575    0.0000 C   0  0  0  0  0  0  0  0  0  0  0  0
    6.1111   -7.5460    0.0000 C   0  0  0  0  0  0  0  0  0  0  0  0
    8.5025   -7.1740    0.0000 C   0  0  0  0  0  0  0  0  0  0  0  0
    8.5025   -5.5266    0.0000 C   0  0  0  0  0  0  0  0  0  0  0  0
    0.4782   -4.6232    0.0000 C   0  0  0  0  0  0  0  0  0  0  0  0
    1.3285   -3.5604    0.0000 C   0  0  0  0  0  0  0  0  0  0  0  0
    1.4348   -6.3237    0.0000 C   0  0  0  0  0  0  0  0  0  0  0  0
    9.1933   -6.8020    0.0000 C   0  0  0  0  0  0  0  0  0  0  0  0
    9.1933   -5.8986    0.0000 C   0  0  0  0  0  0  0  0  0  0  0  0
    6.3237   -8.3962    0.0000 C   0  0  0  0  0  0  0  0  0  0  0  0
    5.6329   -8.1305    0.0000 C   0  0  0  0  0  0  0  0  0  0  0  0
    0.0000   -3.9324    0.0000 C   0  0  0  0  0  0  0  0  0  0  0  0
    0.5314   -3.2947    0.0000 C   0  0  0  0  0  0  0  0  0  0  0  0
    1.9131   -7.8648    0.0000 C   0  0  3  0  0  0  0  0  0  0  0  0
    6.3237   -9.2465    0.0000 C   0  0  0  0  0  0  0  0  0  0  0  0
    2.4976   -8.4494    0.0000 C   0  0  3  0  0  0  0  0  0  0  0  0
    4.7827   -8.3431    0.0000 C   0  0  0  0  0  0  0  0  0  0  0  0
    1.2754   -8.2368    0.0000 C   0  0  0  0  0  0  0  0  0  0  0  0
    3.2947   -8.7151    0.0000 C   0  0  0  0  0  0  0  0  0  0  0  0
    4.1450   -8.8213    0.0000 C   0  0  0  0  0  0  0  0  0  0  0  0
    2.2319   -9.1933    0.0000 C   0  0  0  0  0  0  0  0  0  0  0  0
    1.3285   -9.1402    0.0000 C   0  0  0  0  0  0  0  0  0  0  0  0
    7.8117   -9.2996    0.0000 C   0  0  0  0  0  0  0  0  0  0  0  0
    7.1740  -10.4687    0.0000 C   0  0  0  0  0  0  0  0  0  0  0  0
    8.3431   -9.9373    0.0000 C   0  0  0  0  0  0  0  0  0  0  0  0
    7.9711  -10.6281    0.0000 C   0  0  0  0  0  0  0  0  0  0  0  0
  1  5  2  0  0  0  0
  1  6  2  0  0  0  0
  1 13  1  0  0  0  0
  1 25  1  0  0  0  0
  2 21  2  0  0  0  0
  3 22  2  0  0  0  0
  4 27  1  0  0  0  0
  4 32  1  0  0  0  0
  7 29  2  0  0  0  0
  8 36  1  0  0  0  0
  8 48  1  0  0  0  0
  9 45  1  0  0  0  0
  9 52  1  0  0  0  0
 10 45  2  0  0  0  0
 11 53  2  0  0  0  0
 18 12  1  1  0  0  0
 12 22  1  0  0  0  0
 13 21  1  0  0  0  0
 14 24  1  0  0  0  0
 14 28  1  0  0  0  0
 14 29  1  0  0  0  0
 15 32  1  0  0  0  0
 15 38  2  0  0  0  0
 16 34  1  0  0  0  0
 16 45  1  0  0  0  0
 17 53  1  0  0  0  0
 17 61  1  0  0  0  0
 17 62  1  0  0  0  0
 18 19  1  0  0  0  0
 18 20  1  0  0  0  0
 18 21  1  6  0  0  0
 19 20  1  0  0  0  0
 19 23  1  6  0  0  0
 24 22  1  6  0  0  0
 23 33  2  0  0  0  0
 24 26  1  0  0  0  0
 25 30  1  0  0  0  0
 25 31  1  0  0  0  0
 27 26  1  1  0  0  0
 27 28  1  0  0  0  0
 34 29  1  1  0  0  0
 30 31  1  0  0  0  0
 32 35  2  0  0  0  0
 34 39  1  0  0  0  0
 35 36  1  0  0  0  0
 35 40  1  0  0  0  0
 36 37  2  0  0  0  0
 37 38  1  0  0  0  0
 37 41  1  0  0  0  0
 38 42  1  0  0  0  0
 39 43  1  0  0  0  0
 39 44  1  0  0  0  0
 40 49  1  0  0  0  0
 41 46  2  0  0  0  0
 42 47  2  0  0  0  0
 43 50  1  0  0  0  0
 44 51  1  0  0  0  0
 46 47  1  0  0  0  0
 48 53  1  0  0  0  0
 49 55  2  0  0  0  0
 50 51  1  0  0  0  0
 52 54  1  0  0  0  0
 52 56  1  1  0  0  0
 54 57  1  0  0  0  0
 54 59  1  6  0  0  0
 55 58  1  0  0  0  0
 56 60  1  0  0  0  0
 57 58  1  0  0  0  0
 59 60  1  0  0  0  0
 61 63  1  0  0  0  0
 62 64  1  0  0  0  0
 63 64  1  0  0  0  0
M  END
> <PUBCHEM_COMPOUND_ID_TYPE>
0

> <PUBCHEM_TOTAL_CHARGE>
0

> <PUBCHEM_SUBSTANCE_ID>
310929891

> <PUBCHEM_SUBSTANCE_VERSION>
1

> <PUBCHEM_EXT_DATASOURCE_NAME>
4488

> <PUBCHEM_EXT_DATASOURCE_REGID>
SCHEMBL16107108

> <PUBCHEM_SUBSTANCE_COMMENT>
InChI=1S/C47H60N6O10S/c1-2-31-26-47(31,45(57)51-64(59,60)33-21-22-33)50-42(55)37-25-32-27-53(37)44(56)40(30-14-6-7-15-30)49-46(58)63-38-20-12-16-29(38)13-4-3-5-18-35-41(61-28-39(54)52-23-10-11-24-52)34-17-8-9-19-36(34)48-43(35)62-32/h2-3,5,8-9,17,19,29-33,37-38,40H,1,4,6-7,10-16,18,20-28H2,(H,49,58)(H,50,55)(H,51,57)/b5-3+/t29-,31-,32-,37+,38-,40+,47-/m1/s1
InChIKey=UDBFNBIAFXSKIS-VIKRHYQESA-N

> <PUBCHEM_SUBSTANCE_SYNONYM>
SCHEMBL16107108

> <PUBCHEM_XREF_EXT_ID>
SCHEMBL16107108

> <PUBCHEM_EXT_DATASOURCE_URL>
https://www.surechembl.org/

> <PUBCHEM_EXT_SUBSTANCE_URL>
https://www.surechembl.org/chemical/SCHEMBL16107108

> <PUBCHEM_CID_ASSOCIATIONS>
117599154  1

> <PUBCHEM_COORDINATE_TYPE>
1
3

> <PUBCHEM_BONDANNOTATIONS>
18  12  5
18  21  6
19  23  6
24  22  6
27  26  5
34  29  5
52  56  5
54  59  6

$$$$
