310945606
  -OEChem-07211613022D

 32 36  0     0  0  0  0  0  0999 V2000
    4.0065    1.2899    0.0000 O   0  0  0  0  0  0  0  0  0  0  0  0
    3.2282   -0.2954    0.0000 O   0  0  0  0  0  0  0  0  0  0  0  0
   -4.9288    0.6846    0.0000 O   0  0  0  0  0  0  0  0  0  0  0  0
   -0.7782   -0.3387    0.0000 N   0  0  0  0  0  0  0  0  0  0  0  0
   -0.7782   -1.7367    0.0000 N   0  0  0  0  0  0  0  0  0  0  0  0
   -2.2050   -1.9095    0.0000 N   0  0  0  0  0  0  0  0  0  0  0  0
    2.0465    0.4539    0.0000 N   0  0  0  0  0  0  0  0  0  0  0  0
    3.4877    2.5725    0.0000 N   0  0  0  0  0  0  0  0  0  0  0  0
   -0.3171   -1.0304    0.0000 C   0  0  0  0  0  0  0  0  0  0  0  0
   -1.5132   -0.6125    0.0000 C   0  0  0  0  0  0  0  0  0  0  0  0
   -1.5421   -1.4772    0.0000 C   0  0  0  0  0  0  0  0  0  0  0  0
    0.4900   -1.0304    0.0000 C   0  0  0  0  0  0  0  0  0  0  0  0
   -2.8968   -0.5981    0.0000 C   0  0  0  0  0  0  0  0  0  0  0  0
   -2.2050   -0.1802    0.0000 C   0  0  0  0  0  0  0  0  0  0  0  0
    0.8647   -1.7799    0.0000 C   0  0  0  0  0  0  0  0  0  0  0  0
    0.8791   -0.2954    0.0000 C   0  0  0  0  0  0  0  0  0  0  0  0
    1.6430   -0.2954    0.0000 C   0  0  0  0  0  0  0  0  0  0  0  0
    3.2427    1.2178    0.0000 C   0  0  0  0  0  0  0  0  0  0  0  0
    2.8247    0.4828    0.0000 C   0  0  0  0  0  0  0  0  0  0  0  0
   -2.8823   -1.4772    0.0000 C   0  0  0  0  0  0  0  0  0  0  0  0
   -3.5886   -0.1802    0.0000 C   0  0  0  0  0  0  0  0  0  0  0  0
    2.9112    1.9960    0.0000 C   0  0  0  0  0  0  0  0  0  0  0  0
    1.6574   -1.7799    0.0000 C   0  0  0  0  0  0  0  0  0  0  0  0
    2.0321   -1.0449    0.0000 C   0  0  0  0  0  0  0  0  0  0  0  0
    4.1794    2.1545    0.0000 C   0  0  0  0  0  0  0  0  0  0  0  0
    0.5044   -2.5725    0.0000 C   0  0  0  0  0  0  0  0  0  0  0  0
   -4.2515   -0.6125    0.0000 C   0  0  0  0  0  0  0  0  0  0  0  0
   -3.5742    0.6846    0.0000 C   0  0  0  0  0  0  0  0  0  0  0  0
    2.1330    2.1690    0.0000 C   0  0  0  0  0  0  0  0  0  0  0  0
   -4.9288   -0.1802    0.0000 C   0  0  0  0  0  0  0  0  0  0  0  0
   -4.2515    1.1169    0.0000 C   0  0  0  0  0  0  0  0  0  0  0  0
    4.9288    2.5004    0.0000 C   0  0  0  0  0  0  0  0  0  0  0  0
  1 18  1  0  0  0  0
  1 25  1  0  0  0  0
  2 19  2  0  0  0  0
  3 30  1  0  0  0  0
  3 31  1  0  0  0  0
  4  9  1  0  0  0  0
  4 10  1  0  0  0  0
  5  9  2  0  0  0  0
  5 11  1  0  0  0  0
  6 11  2  0  0  0  0
  6 20  1  0  0  0  0
  7 17  1  0  0  0  0
  7 19  1  0  0  0  0
  8 22  1  0  0  0  0
  8 25  2  0  0  0  0
  9 12  1  0  0  0  0
 10 11  1  0  0  0  0
 10 14  2  0  0  0  0
 12 15  1  0  0  0  0
 12 16  2  0  0  0  0
 13 14  1  0  0  0  0
 13 20  2  0  0  0  0
 13 21  1  0  0  0  0
 15 23  2  0  0  0  0
 15 26  1  0  0  0  0
 16 17  1  0  0  0  0
 17 24  2  0  0  0  0
 18 19  1  0  0  0  0
 18 22  2  0  0  0  0
 21 27  2  0  0  0  0
 21 28  1  0  0  0  0
 22 29  1  0  0  0  0
 23 24  1  0  0  0  0
 25 32  1  0  0  0  0
 27 30  1  0  0  0  0
 28 31  1  0  0  0  0
M  END
> <PUBCHEM_COMPOUND_ID_TYPE>
0

> <PUBCHEM_TOTAL_CHARGE>
0

> <PUBCHEM_SUBSTANCE_ID>
310945606

> <PUBCHEM_SUBSTANCE_VERSION>
1

> <PUBCHEM_EXT_DATASOURCE_NAME>
4488

> <PUBCHEM_EXT_DATASOURCE_REGID>
SCHEMBL16123705

> <PUBCHEM_SUBSTANCE_COMMENT>
InChI=1S/C24H23N5O3/c1-13-4-5-18(27-24(30)21-14(2)26-15(3)32-21)11-19(13)22-28-20-10-17(12-25-23(20)29-22)16-6-8-31-9-7-16/h4-6,10-12H,7-9H2,1-3H3,(H,27,30)(H,25,28,29)
InChIKey=WEHDYZCPKAROLS-UHFFFAOYSA-N

> <PUBCHEM_SUBSTANCE_SYNONYM>
SCHEMBL16123705

> <PUBCHEM_XREF_EXT_ID>
SCHEMBL16123705

> <PUBCHEM_EXT_DATASOURCE_URL>
https://www.surechembl.org/

> <PUBCHEM_EXT_SUBSTANCE_URL>
https://www.surechembl.org/chemical/SCHEMBL16123705

> <PUBCHEM_CID_ASSOCIATIONS>
117611628  1

> <PUBCHEM_COORDINATE_TYPE>
1
3

$$$$
