310947049
  -OEChem-07211613022D

 33 37  0     0  0  0  0  0  0999 V2000
   -2.7782   -2.1900    0.0000 O   0  0  0  0  0  0  0  0  0  0  0  0
   -4.2071    0.2850    0.0000 O   0  0  0  0  0  0  0  0  0  0  0  0
   -1.3492    0.2850    0.0000 N   0  0  0  0  0  0  0  0  0  0  0  0
    0.0797    0.2850    0.0000 N   0  0  0  0  0  0  0  0  0  0  0  0
    1.5086    0.2850    0.0000 N   0  0  0  0  0  0  0  0  0  0  0  0
    1.5086   -1.3650    0.0000 N   0  0  0  0  0  0  0  0  0  0  0  0
    3.7222    1.3650    0.0000 N   0  0  0  0  0  0  0  0  0  0  0  0
    0.1498    1.2676    0.0000 N   0  0  0  0  0  0  0  0  0  0  0  0
   -0.6348    2.3475    0.0000 N   0  0  0  0  0  0  0  0  0  0  0  0
   -0.6348   -0.1275    0.0000 C   0  0  0  0  0  0  0  0  0  0  0  0
    0.7942   -0.1275    0.0000 C   0  0  0  0  0  0  0  0  0  0  0  0
    0.7942   -0.9525    0.0000 C   0  0  0  0  0  0  0  0  0  0  0  0
   -2.0637   -0.1275    0.0000 C   0  0  0  0  0  0  0  0  0  0  0  0
    2.2231   -0.1275    0.0000 C   0  0  0  0  0  0  0  0  0  0  0  0
   -0.6348   -0.9525    0.0000 C   0  0  0  0  0  0  0  0  0  0  0  0
    0.0797   -1.3650    0.0000 C   0  0  0  0  0  0  0  0  0  0  0  0
    2.9376    0.2850    0.0000 C   0  0  0  0  0  0  0  0  0  0  0  0
   -1.3492    1.1100    0.0000 C   0  0  0  0  0  0  0  0  0  0  0  0
   -2.7782    0.2850    0.0000 C   0  0  0  0  0  0  0  0  0  0  0  0
   -2.0637   -0.9525    0.0000 C   0  0  0  0  0  0  0  0  0  0  0  0
    2.2231   -0.9525    0.0000 C   0  0  0  0  0  0  0  0  0  0  0  0
   -2.7782   -1.3650    0.0000 C   0  0  0  0  0  0  0  0  0  0  0  0
   -3.4927   -0.1275    0.0000 C   0  0  0  0  0  0  0  0  0  0  0  0
   -0.6348    1.5225    0.0000 C   0  0  0  0  0  0  0  0  0  0  0  0
   -3.4927   -0.9525    0.0000 C   0  0  0  0  0  0  0  0  0  0  0  0
    2.9376    1.1100    0.0000 C   0  0  0  0  0  0  0  0  0  0  0  0
    3.7222    0.0301    0.0000 C   0  0  0  0  0  0  0  0  0  0  0  0
    4.2071    0.6975    0.0000 C   0  0  0  0  0  0  0  0  0  0  0  0
    0.6348    1.9350    0.0000 C   0  0  0  0  0  0  0  0  0  0  0  0
    0.1498    2.6025    0.0000 C   0  0  0  0  0  0  0  0  0  0  0  0
    4.1347    2.0794    0.0000 C   0  0  0  0  0  0  0  0  0  0  0  0
   -2.0637   -2.6025    0.0000 C   0  0  0  0  0  0  0  0  0  0  0  0
   -4.2071    1.1100    0.0000 C   0  0  0  0  0  0  0  0  0  0  0  0
  1 22  1  0  0  0  0
  1 32  1  0  0  0  0
  2 23  1  0  0  0  0
  2 33  1  0  0  0  0
  3 10  1  0  0  0  0
  3 13  1  0  0  0  0
  3 18  1  0  0  0  0
  4 10  2  0  0  0  0
  4 11  1  0  0  0  0
  5 11  1  0  0  0  0
  5 14  2  0  0  0  0
  6 12  1  0  0  0  0
  6 21  2  0  0  0  0
  7 26  1  0  0  0  0
  7 28  1  0  0  0  0
  7 31  1  0  0  0  0
  8 24  2  0  0  0  0
  8 29  1  0  0  0  0
  9 24  1  0  0  0  0
  9 30  2  0  0  0  0
 10 15  1  0  0  0  0
 11 12  2  0  0  0  0
 12 16  1  0  0  0  0
 13 19  2  0  0  0  0
 13 20  1  0  0  0  0
 14 17  1  0  0  0  0
 14 21  1  0  0  0  0
 15 16  2  0  0  0  0
 17 26  2  0  0  0  0
 17 27  1  0  0  0  0
 18 24  1  0  0  0  0
 19 23  1  0  0  0  0
 20 22  2  0  0  0  0
 22 25  1  0  0  0  0
 23 25  2  0  0  0  0
 27 28  2  0  0  0  0
 29 30  1  0  0  0  0
M  END
> <PUBCHEM_COMPOUND_ID_TYPE>
0

> <PUBCHEM_TOTAL_CHARGE>
0

> <PUBCHEM_SUBSTANCE_ID>
310947049

> <PUBCHEM_SUBSTANCE_VERSION>
1

> <PUBCHEM_EXT_DATASOURCE_NAME>
4488

> <PUBCHEM_EXT_DATASOURCE_REGID>
SCHEMBL16125202

> <PUBCHEM_SUBSTANCE_COMMENT>
InChI=1S/C24H23N7O2/c1-30-9-6-16(14-30)21-13-27-20-4-5-23(29-24(20)28-21)31(15-22-25-7-8-26-22)17-10-18(32-2)12-19(11-17)33-3/h4-7,9-14H,8,15H2,1-3H3
InChIKey=GJWGKHIBEYNJQU-UHFFFAOYSA-N

> <PUBCHEM_SUBSTANCE_SYNONYM>
SCHEMBL16125202

> <PUBCHEM_XREF_EXT_ID>
SCHEMBL16125202

> <PUBCHEM_EXT_DATASOURCE_URL>
https://www.surechembl.org/

> <PUBCHEM_EXT_SUBSTANCE_URL>
https://www.surechembl.org/chemical/SCHEMBL16125202

> <PUBCHEM_CID_ASSOCIATIONS>
117612900  1

> <PUBCHEM_COORDINATE_TYPE>
1
3

$$$$
