310945560
  -OEChem-07211613022D

 24 27  0     0  0  0  0  0  0999 V2000
    2.5812    3.0371    0.0000 F   0  0  0  0  0  0  0  0  0  0  0  0
   -2.5812    1.4635    0.0000 O   0  0  0  0  0  0  0  0  0  0  0  0
    0.2427    0.7133    0.0000 N   0  0  0  0  0  0  0  0  0  0  0  0
    2.2724    1.6399    0.0000 N   0  0  0  0  0  0  0  0  0  0  0  0
   -0.5221   -1.3899    0.0000 N   0  0  0  0  0  0  0  0  0  0  0  0
    0.9045    1.2281    0.0000 C   0  0  0  0  0  0  0  0  0  0  0  0
    0.6545    1.9782    0.0000 C   0  0  0  0  0  0  0  0  0  0  0  0
   -0.1691    1.9929    0.0000 C   0  0  0  0  0  0  0  0  0  0  0  0
   -0.4486    1.2134    0.0000 C   0  0  0  0  0  0  0  0  0  0  0  0
    1.7282    1.0222    0.0000 C   0  0  0  0  0  0  0  0  0  0  0  0
    1.2134    2.5959    0.0000 C   0  0  0  0  0  0  0  0  0  0  0  0
   -1.2281    1.0369    0.0000 C   0  0  0  0  0  0  0  0  0  0  0  0
   -0.7133    2.5812    0.0000 C   0  0  0  0  0  0  0  0  0  0  0  0
    0.2280   -0.1544    0.0000 C   0  0  0  0  0  0  0  0  0  0  0  0
    2.0223    2.4341    0.0000 C   0  0  0  0  0  0  0  0  0  0  0  0
   -1.7870    1.6547    0.0000 C   0  0  0  0  0  0  0  0  0  0  0  0
   -1.5223    2.4194    0.0000 C   0  0  0  0  0  0  0  0  0  0  0  0
    2.0370    0.1544    0.0000 C   0  0  0  0  0  0  0  0  0  0  0  0
   -0.5074   -0.5515    0.0000 C   0  0  0  0  0  0  0  0  0  0  0  0
   -1.2281   -1.7870    0.0000 C   0  0  0  0  0  0  0  0  0  0  0  0
    0.1985   -1.8017    0.0000 C   0  0  0  0  0  0  0  0  0  0  0  0
   -1.2281   -2.6253    0.0000 C   0  0  0  0  0  0  0  0  0  0  0  0
    0.1985   -2.6253    0.0000 C   0  0  0  0  0  0  0  0  0  0  0  0
   -0.5074   -3.0371    0.0000 C   0  0  0  0  0  0  0  0  0  0  0  0
  1 15  1  0  0  0  0
  2 16  1  0  0  0  0
  3  6  1  0  0  0  0
  3  9  1  0  0  0  0
  3 14  1  0  0  0  0
  4 10  2  0  0  0  0
  4 15  1  0  0  0  0
  5 19  1  0  0  0  0
  5 20  1  0  0  0  0
  5 21  1  0  0  0  0
  6  7  2  0  0  0  0
  6 10  1  0  0  0  0
  7  8  1  0  0  0  0
  7 11  1  0  0  0  0
  8  9  2  0  0  0  0
  8 13  1  0  0  0  0
  9 12  1  0  0  0  0
 10 18  1  0  0  0  0
 11 15  2  0  0  0  0
 12 16  2  0  0  0  0
 13 17  2  0  0  0  0
 14 19  1  0  0  0  0
 16 17  1  0  0  0  0
 20 22  1  0  0  0  0
 21 23  1  0  0  0  0
 22 24  1  0  0  0  0
 23 24  1  0  0  0  0
M  END
> <PUBCHEM_COMPOUND_ID_TYPE>
0

> <PUBCHEM_TOTAL_CHARGE>
0

> <PUBCHEM_SUBSTANCE_ID>
310945560

> <PUBCHEM_SUBSTANCE_VERSION>
1

> <PUBCHEM_EXT_DATASOURCE_NAME>
4488

> <PUBCHEM_EXT_DATASOURCE_REGID>
SCHEMBL16123658

> <PUBCHEM_SUBSTANCE_COMMENT>
InChI=1S/C19H22FN3O/c1-13-19-16(12-18(20)21-13)15-6-5-14(24)11-17(15)23(19)10-9-22-7-3-2-4-8-22/h5-6,11-12,24H,2-4,7-10H2,1H3
InChIKey=MBEAYIWBPNELKR-UHFFFAOYSA-N

> <PUBCHEM_SUBSTANCE_SYNONYM>
SCHEMBL16123658

> <PUBCHEM_XREF_EXT_ID>
SCHEMBL16123658

> <PUBCHEM_EXT_DATASOURCE_URL>
https://www.surechembl.org/

> <PUBCHEM_EXT_SUBSTANCE_URL>
https://www.surechembl.org/chemical/SCHEMBL16123658

> <PUBCHEM_CID_ASSOCIATIONS>
117611594  1

> <PUBCHEM_COORDINATE_TYPE>
1
3

$$$$
