310932774
  -OEChem-07211613022D

 22 23  0     0  0  0  0  0  0999 V2000
    0.0000   -0.7895    0.0000 Br  0  0  0  0  0  0  0  0  0  0  0  0
    1.2316   -2.1158    0.0000 O   0  0  0  0  0  0  0  0  0  0  0  0
    5.7158   -2.2105    0.0000 O   0  0  0  0  0  0  0  0  0  0  0  0
    6.4421   -5.9053    0.0000 O   0  0  0  0  0  0  0  0  0  0  0  0
    2.1158   -0.9790    0.0000 N   0  0  0  0  0  0  0  0  0  0  0  0
    2.0526   -0.1579    0.0000 N   0  0  0  0  0  0  0  0  0  0  0  0
    3.5684   -0.9790    0.0000 N   0  0  0  0  0  0  0  0  0  0  0  0
    4.9895   -3.4421    0.0000 N   0  0  0  0  0  0  0  0  0  0  0  0
    1.3895   -1.2947    0.0000 C   0  0  0  0  0  0  0  0  0  0  0  0
    2.8421   -1.3895    0.0000 C   0  0  0  0  0  0  0  0  0  0  0  0
    0.8211   -0.6948    0.0000 C   0  0  0  0  0  0  0  0  0  0  0  0
    1.2316    0.0000    0.0000 C   0  0  0  0  0  0  0  0  0  0  0  0
    2.8421   -2.2105    0.0000 C   0  0  0  0  0  0  0  0  0  0  0  0
    4.2632   -2.2105    0.0000 C   0  0  0  0  0  0  0  0  0  0  0  0
    4.2632   -1.3895    0.0000 C   0  0  0  0  0  0  0  0  0  0  0  0
    3.5684   -2.6210    0.0000 C   0  0  0  0  0  0  0  0  0  0  0  0
    4.9895   -2.6210    0.0000 C   0  0  0  0  0  0  0  0  0  0  0  0
    1.8632   -2.6526    0.0000 C   0  0  0  0  0  0  0  0  0  0  0  0
    5.7158   -3.8527    0.0000 C   0  0  0  0  0  0  0  0  0  0  0  0
    5.7158   -4.6737    0.0000 C   0  0  0  0  0  0  0  0  0  0  0  0
    6.4421   -5.0842    0.0000 C   0  0  0  0  0  0  0  0  0  0  0  0
    7.1685   -6.3158    0.0000 C   0  0  0  0  0  0  0  0  0  0  0  0
  1 11  1  0  0  0  0
  2  9  1  0  0  0  0
  2 18  1  0  0  0  0
  3 17  2  0  0  0  0
  4 21  1  0  0  0  0
  4 22  1  0  0  0  0
  5  6  1  0  0  0  0
  5  9  1  0  0  0  0
  5 10  1  0  0  0  0
  6 12  2  0  0  0  0
  7 10  2  0  0  0  0
  7 15  1  0  0  0  0
  8 17  1  0  0  0  0
  8 19  1  0  0  0  0
  9 11  2  0  0  0  0
 10 13  1  0  0  0  0
 11 12  1  0  0  0  0
 13 16  2  0  0  0  0
 14 15  2  0  0  0  0
 14 16  1  0  0  0  0
 14 17  1  0  0  0  0
 19 20  1  0  0  0  0
 20 21  1  0  0  0  0
M  END
> <PUBCHEM_COMPOUND_ID_TYPE>
0

> <PUBCHEM_TOTAL_CHARGE>
0

> <PUBCHEM_SUBSTANCE_ID>
310932774

> <PUBCHEM_SUBSTANCE_VERSION>
1

> <PUBCHEM_EXT_DATASOURCE_NAME>
4488

> <PUBCHEM_EXT_DATASOURCE_REGID>
SCHEMBL16110160

> <PUBCHEM_SUBSTANCE_COMMENT>
InChI=1S/C14H17BrN4O3/c1-21-7-3-6-16-13(20)10-4-5-12(17-8-10)19-14(22-2)11(15)9-18-19/h4-5,8-9H,3,6-7H2,1-2H3,(H,16,20)
InChIKey=GQJDEHUTXDNEEG-UHFFFAOYSA-N

> <PUBCHEM_SUBSTANCE_SYNONYM>
SCHEMBL16110160

> <PUBCHEM_XREF_EXT_ID>
SCHEMBL16110160

> <PUBCHEM_EXT_DATASOURCE_URL>
https://www.surechembl.org/

> <PUBCHEM_EXT_SUBSTANCE_URL>
https://www.surechembl.org/chemical/SCHEMBL16110160

> <PUBCHEM_CID_ASSOCIATIONS>
117601269  1

> <PUBCHEM_COORDINATE_TYPE>
1
3

$$$$
