310932982
  -OEChem-07211613022D

 34 38  0     1  0  0  0  0  0999 V2000
    5.7434   -1.3327    0.0000 O   0  0  0  0  0  0  0  0  0  0  0  0
    1.6500   -3.0462    0.0000 O   0  0  0  0  0  0  0  0  0  0  0  0
    5.3626   -2.7289    0.0000 N   0  0  0  0  0  0  0  0  0  0  0  0
    5.7751   -3.4587    0.0000 N   0  0  0  0  0  0  0  0  0  0  0  0
    1.8087   -1.6183    0.0000 N   0  0  0  0  0  0  0  0  0  0  0  0
    4.0933   -3.3001    0.0000 N   0  0  0  0  0  0  0  0  0  0  0  0
    0.5395   -2.7923    0.0000 N   0  0  0  0  0  0  0  0  0  0  0  0
    9.5194    0.0000    0.0000 N   0  0  0  0  0  0  0  0  0  0  0  0
    6.6636   -2.4751    0.0000 C   0  0  0  0  0  0  0  0  0  0  0  0
    5.9021   -2.1260    0.0000 C   0  0  0  0  0  0  0  0  0  0  0  0
    4.5693   -2.6655    0.0000 C   0  0  0  0  0  0  0  0  0  0  0  0
    7.3617   -2.0625    0.0000 C   0  0  0  0  0  0  0  0  0  0  0  0
    6.5684   -3.2683    0.0000 C   0  0  0  0  0  0  0  0  0  0  0  0
    2.9510   -2.4751    0.0000 C   0  0  0  0  0  0  0  0  0  0  0  0
    2.1260   -2.3799    0.0000 C   0  0  0  0  0  0  0  0  0  0  0  0
    7.3617   -1.2375    0.0000 C   0  0  0  0  0  0  0  0  0  0  0  0
    4.2520   -1.9039    0.0000 C   0  0  0  0  0  0  0  0  0  0  0  0
    0.9837   -1.4597    0.0000 C   0  0  3  0  0  0  0  0  0  0  0  0
    3.2683   -3.2366    0.0000 C   0  0  0  0  0  0  0  0  0  0  0  0
    3.3953   -1.8404    0.0000 C   0  0  0  0  0  0  0  0  0  0  0  0
    8.0915   -2.4751    0.0000 C   0  0  0  0  0  0  0  0  0  0  0  0
    8.0915   -0.8250    0.0000 C   0  0  0  0  0  0  0  0  0  0  0  0
    2.2212   -0.9202    0.0000 C   0  0  0  0  0  0  0  0  0  0  0  0
    8.7896   -1.2375    0.0000 C   0  0  0  0  0  0  0  0  0  0  0  0
    0.9202   -0.6346    0.0000 C   0  0  0  0  0  0  0  0  0  0  0  0
    8.7896   -2.0625    0.0000 C   0  0  0  0  0  0  0  0  0  0  0  0
    0.3808   -1.9991    0.0000 C   0  0  0  0  0  0  0  0  0  0  0  0
    1.6817   -0.3173    0.0000 C   0  0  0  0  0  0  0  0  0  0  0  0
    6.6636   -0.8250    0.0000 C   0  0  0  0  0  0  0  0  0  0  0  0
    9.5194   -0.8250    0.0000 C   0  0  0  0  0  0  0  0  0  0  0  0
    1.3010   -3.1414    0.0000 C   0  0  0  0  0  0  0  0  0  0  0  0
    0.0000   -3.4270    0.0000 C   0  0  0  0  0  0  0  0  0  0  0  0
    1.1741   -3.9664    0.0000 C   0  0  0  0  0  0  0  0  0  0  0  0
    0.4125   -4.1251    0.0000 C   0  0  0  0  0  0  0  0  0  0  0  0
  1 10  1  0  0  0  0
  2 15  2  0  0  0  0
  3  4  1  0  0  0  0
  3 10  1  0  0  0  0
  3 11  1  0  0  0  0
  4 13  2  0  0  0  0
  5 15  1  0  0  0  0
  5 18  1  0  0  0  0
  5 23  1  0  0  0  0
  6 11  1  0  0  0  0
  6 19  2  0  0  0  0
  7 27  1  0  0  0  0
  7 31  1  0  0  0  0
  7 32  1  0  0  0  0
  8 30  3  0  0  0  0
  9 10  2  0  0  0  0
  9 12  1  0  0  0  0
  9 13  1  0  0  0  0
 11 17  2  0  0  0  0
 12 16  2  0  0  0  0
 12 21  1  0  0  0  0
 14 15  1  0  0  0  0
 14 19  1  0  0  0  0
 14 20  2  0  0  0  0
 16 22  1  0  0  0  0
 16 29  1  0  0  0  0
 17 20  1  0  0  0  0
 18 25  1  0  0  0  0
 18 27  1  6  0  0  0
 21 26  2  0  0  0  0
 22 24  2  0  0  0  0
 23 28  1  0  0  0  0
 24 26  1  0  0  0  0
 24 30  1  0  0  0  0
 25 28  1  0  0  0  0
 31 33  1  0  0  0  0
 32 34  1  0  0  0  0
 33 34  1  0  0  0  0
M  END
> <PUBCHEM_COMPOUND_ID_TYPE>
0

> <PUBCHEM_TOTAL_CHARGE>
0

> <PUBCHEM_SUBSTANCE_ID>
310932982

> <PUBCHEM_SUBSTANCE_VERSION>
1

> <PUBCHEM_EXT_DATASOURCE_NAME>
4488

> <PUBCHEM_EXT_DATASOURCE_REGID>
SCHEMBL16110379

> <PUBCHEM_SUBSTANCE_COMMENT>
InChI=1S/C26H28N6O2/c1-18-13-19(14-27)6-8-22(18)23-16-29-32(26(23)34)24-9-7-20(15-28-24)25(33)31-12-4-5-21(31)17-30-10-2-3-11-30/h6-9,13,15-16,21,34H,2-5,10-12,17H2,1H3/t21-/m0/s1
InChIKey=XKZLUUDDJJIRNG-NRFANRHFSA-N

> <PUBCHEM_SUBSTANCE_SYNONYM>
SCHEMBL16110379

> <PUBCHEM_XREF_EXT_ID>
SCHEMBL16110379

> <PUBCHEM_EXT_DATASOURCE_URL>
https://www.surechembl.org/

> <PUBCHEM_EXT_SUBSTANCE_URL>
https://www.surechembl.org/chemical/SCHEMBL16110379

> <PUBCHEM_CID_ASSOCIATIONS>
117601459  1

> <PUBCHEM_COORDINATE_TYPE>
1
3

> <PUBCHEM_BONDANNOTATIONS>
18  27  6

$$$$
