310938259
  -OEChem-07211613022D

 15 16  0     0  0  0  0  0  0999 V2000
    4.9162   -2.8546    0.0000 Br  0  0  0  0  0  0  0  0  0  0  0  0
    0.0000   -2.8348    0.0000 O   0  0  0  0  0  0  0  0  0  0  0  0
    1.3480    0.0000    0.0000 O   0  0  0  0  0  0  0  0  0  0  0  0
    2.7555   -2.5771    0.0000 N   0  0  0  0  0  0  0  0  0  0  0  0
    1.6454   -3.3502    0.0000 N   0  0  0  0  0  0  0  0  0  0  0  0
    2.0616   -2.0814    0.0000 C   0  0  0  0  0  0  0  0  0  0  0  0
    2.4978   -3.3502    0.0000 C   0  0  0  0  0  0  0  0  0  0  0  0
    1.3876   -2.5573    0.0000 C   0  0  0  0  0  0  0  0  0  0  0  0
    3.5484   -2.4185    0.0000 C   0  0  0  0  0  0  0  0  0  0  0  0
    3.0330   -3.9647    0.0000 C   0  0  0  0  0  0  0  0  0  0  0  0
    4.0836   -3.0330    0.0000 C   0  0  0  0  0  0  0  0  0  0  0  0
    2.0616   -1.2489    0.0000 C   0  0  0  0  0  0  0  0  0  0  0  0
    3.8458   -3.8061    0.0000 C   0  0  0  0  0  0  0  0  0  0  0  0
    0.6145   -2.2996    0.0000 C   0  0  0  0  0  0  0  0  0  0  0  0
    1.3480   -0.8326    0.0000 C   0  0  0  0  0  0  0  0  0  0  0  0
  1 11  1  0  0  0  0
  2 14  1  0  0  0  0
  3 15  1  0  0  0  0
  4  6  1  0  0  0  0
  4  7  1  0  0  0  0
  4  9  1  0  0  0  0
  5  7  2  0  0  0  0
  5  8  1  0  0  0  0
  6  8  2  0  0  0  0
  6 12  1  0  0  0  0
  7 10  1  0  0  0  0
  8 14  1  0  0  0  0
  9 11  2  0  0  0  0
 10 13  2  0  0  0  0
 11 13  1  0  0  0  0
 12 15  1  0  0  0  0
M  END
> <PUBCHEM_COMPOUND_ID_TYPE>
0

> <PUBCHEM_TOTAL_CHARGE>
0

> <PUBCHEM_SUBSTANCE_ID>
310938259

> <PUBCHEM_SUBSTANCE_VERSION>
1

> <PUBCHEM_EXT_DATASOURCE_NAME>
4488

> <PUBCHEM_EXT_DATASOURCE_REGID>
SCHEMBL16116126

> <PUBCHEM_SUBSTANCE_COMMENT>
InChI=1S/C10H11BrN2O2/c11-7-1-2-10-12-8(6-15)9(3-4-14)13(10)5-7/h1-2,5,14-15H,3-4,6H2
InChIKey=JVZBCIUNVHRNRI-UHFFFAOYSA-N

> <PUBCHEM_SUBSTANCE_SYNONYM>
SCHEMBL16116126

> <PUBCHEM_XREF_EXT_ID>
SCHEMBL16116126

> <PUBCHEM_EXT_DATASOURCE_URL>
https://www.surechembl.org/

> <PUBCHEM_EXT_SUBSTANCE_URL>
https://www.surechembl.org/chemical/SCHEMBL16116126

> <PUBCHEM_CID_ASSOCIATIONS>
117605774  1

> <PUBCHEM_COORDINATE_TYPE>
1
3

$$$$
