310941771
  -OEChem-07211613022D

 34 38  0     0  0  0  0  0  0999 V2000
   -2.4554    0.6389    0.0000 S   0  0  0  0  0  0  0  0  0  0  0  0
    1.3685    0.1761    0.0000 O   0  0  0  0  0  0  0  0  0  0  0  0
   -0.0704    1.8364    0.0000 O   0  0  0  0  0  0  0  0  0  0  0  0
    2.8176   -0.6490    0.0000 N   0  0  0  0  0  0  0  0  0  0  0  0
    0.6541   -1.0617    0.0000 N   0  0  0  0  0  0  0  0  0  0  0  0
    4.2667    0.1761    0.0000 N   0  0  0  0  0  0  0  0  0  0  0  0
   -1.5094    1.8364    0.0000 N   0  0  0  0  0  0  0  0  0  0  0  0
   -2.9485    1.8868    0.0000 N   0  0  0  0  0  0  0  0  0  0  0  0
   -3.5825    1.3535    0.0000 N   0  0  0  0  0  0  0  0  0  0  0  0
    2.0931   -1.0617    0.0000 C   0  0  0  0  0  0  0  0  0  0  0  0
    1.6906   -1.7560    0.0000 C   0  0  0  0  0  0  0  0  0  0  0  0
    2.4856   -1.7560    0.0000 C   0  0  0  0  0  0  0  0  0  0  0  0
    1.3685   -0.6490    0.0000 C   0  0  0  0  0  0  0  0  0  0  0  0
    3.5321   -1.0415    0.0000 C   0  0  0  0  0  0  0  0  0  0  0  0
    2.8277    0.1962    0.0000 C   0  0  0  0  0  0  0  0  0  0  0  0
   -0.0704   -0.6189    0.0000 C   0  0  0  0  0  0  0  0  0  0  0  0
   -0.7749   -1.0415    0.0000 C   0  0  0  0  0  0  0  0  0  0  0  0
    4.2566   -0.6289    0.0000 C   0  0  0  0  0  0  0  0  0  0  0  0
    3.5321    0.5987    0.0000 C   0  0  0  0  0  0  0  0  0  0  0  0
   -0.0704    0.1862    0.0000 C   0  0  0  0  0  0  0  0  0  0  0  0
   -0.7850    0.6087    0.0000 C   0  0  0  0  0  0  0  0  0  0  0  0
   -0.7950    1.4340    0.0000 C   0  0  0  0  0  0  0  0  0  0  0  0
   -1.4994   -0.6289    0.0000 C   0  0  0  0  0  0  0  0  0  0  0  0
   -2.2441    1.4641    0.0000 C   0  0  0  0  0  0  0  0  0  0  0  0
   -1.4994    0.1962    0.0000 C   0  0  0  0  0  0  0  0  0  0  0  0
   -3.2704    0.6087    0.0000 C   0  0  0  0  0  0  0  0  0  0  0  0
   -3.7334   -0.1056    0.0000 C   0  0  0  0  0  0  0  0  0  0  0  0
   -0.7850   -1.8868    0.0000 C   0  0  0  0  0  0  0  0  0  0  0  0
    4.9812    0.5887    0.0000 C   0  0  0  0  0  0  0  0  0  0  0  0
   -3.3409   -0.8403    0.0000 C   0  0  0  0  0  0  0  0  0  0  0  0
   -4.5484   -0.1056    0.0000 C   0  0  0  0  0  0  0  0  0  0  0  0
   -3.7635   -1.5044    0.0000 C   0  0  0  0  0  0  0  0  0  0  0  0
   -4.9812   -0.7900    0.0000 C   0  0  0  0  0  0  0  0  0  0  0  0
   -4.5887   -1.5044    0.0000 C   0  0  0  0  0  0  0  0  0  0  0  0
  1 24  1  0  0  0  0
  1 26  1  0  0  0  0
  2 13  2  0  0  0  0
  3 22  2  0  0  0  0
  4 10  1  0  0  0  0
  4 14  1  0  0  0  0
  4 15  1  0  0  0  0
  5 13  1  0  0  0  0
  5 16  1  0  0  0  0
  6 18  1  0  0  0  0
  6 19  1  0  0  0  0
  6 29  1  0  0  0  0
  7 22  1  0  0  0  0
  7 24  1  0  0  0  0
  8  9  1  0  0  0  0
  8 24  2  0  0  0  0
  9 26  2  0  0  0  0
 10 11  1  0  0  0  0
 10 12  1  0  0  0  0
 10 13  1  0  0  0  0
 11 12  1  0  0  0  0
 14 18  1  0  0  0  0
 15 19  1  0  0  0  0
 16 17  1  0  0  0  0
 16 20  2  0  0  0  0
 17 23  2  0  0  0  0
 17 28  1  0  0  0  0
 20 21  1  0  0  0  0
 21 22  1  0  0  0  0
 21 25  2  0  0  0  0
 23 25  1  0  0  0  0
 26 27  1  0  0  0  0
 27 30  2  0  0  0  0
 27 31  1  0  0  0  0
 30 32  1  0  0  0  0
 31 33  2  0  0  0  0
 32 34  2  0  0  0  0
 33 34  1  0  0  0  0
M  END
> <PUBCHEM_COMPOUND_ID_TYPE>
0

> <PUBCHEM_TOTAL_CHARGE>
0

> <PUBCHEM_SUBSTANCE_ID>
310941771

> <PUBCHEM_SUBSTANCE_VERSION>
1

> <PUBCHEM_EXT_DATASOURCE_NAME>
4488

> <PUBCHEM_EXT_DATASOURCE_REGID>
SCHEMBL16119802

> <PUBCHEM_SUBSTANCE_COMMENT>
InChI=1S/C25H28N6O2S/c1-17-8-9-19(21(32)27-24-29-28-22(34-24)18-6-4-3-5-7-18)16-20(17)26-23(33)25(10-11-25)31-14-12-30(2)13-15-31/h3-9,16H,10-15H2,1-2H3,(H,26,33)(H,27,29,32)
InChIKey=IIVRXASASXHWOI-UHFFFAOYSA-N

> <PUBCHEM_SUBSTANCE_SYNONYM>
SCHEMBL16119802

> <PUBCHEM_XREF_EXT_ID>
SCHEMBL16119802

> <PUBCHEM_EXT_DATASOURCE_URL>
https://www.surechembl.org/

> <PUBCHEM_EXT_SUBSTANCE_URL>
https://www.surechembl.org/chemical/SCHEMBL16119802

> <PUBCHEM_CID_ASSOCIATIONS>
90462828  1

> <PUBCHEM_COORDINATE_TYPE>
1
3

$$$$
