310940729
  -OEChem-07211613022D

 15 15  0     1  0  0  0  0  0999 V2000
   -2.8354    0.8293    0.0000 O   0  0  0  0  0  0  0  0  0  0  0  0
    0.0284    0.8293    0.0000 O   0  0  0  0  0  0  0  0  0  0  0  0
    2.8354   -0.0213    0.0000 O   0  0  0  0  0  0  0  0  0  0  0  0
    2.2116   -1.2405    0.0000 O   0  0  0  0  0  0  0  0  0  0  0  0
   -1.4035    0.0071    0.0000 N   0  0  0  0  0  0  0  0  0  0  0  0
    0.7372   -0.4040    0.0000 N   0  0  0  0  0  0  0  0  0  0  0  0
    0.0284   -0.0213    0.0000 C   0  0  0  0  0  0  0  0  0  0  0  0
    1.4602    0.0071    0.0000 C   0  0  3  0  0  0  0  0  0  0  0  0
   -0.6663   -0.4040    0.0000 C   0  0  0  0  0  0  0  0  0  0  0  0
    2.1691   -0.4182    0.0000 C   0  0  0  0  0  0  0  0  0  0  0  0
   -1.4035    0.8293    0.0000 C   0  0  0  0  0  0  0  0  0  0  0  0
   -2.0982   -0.4040    0.0000 C   0  0  0  0  0  0  0  0  0  0  0  0
   -2.1265    1.2405    0.0000 C   0  0  0  0  0  0  0  0  0  0  0  0
   -2.8212    0.0071    0.0000 C   0  0  0  0  0  0  0  0  0  0  0  0
    1.4602    0.8293    0.0000 C   0  0  0  0  0  0  0  0  0  0  0  0
  1 13  1  0  0  0  0
  1 14  1  0  0  0  0
  2  7  2  0  0  0  0
  3 10  2  0  0  0  0
  4 10  1  0  0  0  0
  5  9  1  0  0  0  0
  5 11  1  0  0  0  0
  5 12  1  0  0  0  0
  6  7  1  0  0  0  0
  6  8  1  0  0  0  0
  7  9  1  0  0  0  0
  8 10  1  0  0  0  0
  8 15  1  1  0  0  0
 11 13  1  0  0  0  0
 12 14  1  0  0  0  0
M  END
> <PUBCHEM_COMPOUND_ID_TYPE>
0

> <PUBCHEM_TOTAL_CHARGE>
0

> <PUBCHEM_SUBSTANCE_ID>
310940729

> <PUBCHEM_SUBSTANCE_VERSION>
1

> <PUBCHEM_EXT_DATASOURCE_NAME>
4488

> <PUBCHEM_EXT_DATASOURCE_REGID>
SCHEMBL16118687

> <PUBCHEM_SUBSTANCE_COMMENT>
InChI=1S/C9H16N2O4/c1-7(9(13)14)10-8(12)6-11-2-4-15-5-3-11/h7H,2-6H2,1H3,(H,10,12)(H,13,14)/t7-/m0/s1
InChIKey=QODDXXKYBMUIEE-ZETCQYMHSA-N

> <PUBCHEM_SUBSTANCE_SYNONYM>
SCHEMBL16118687

> <PUBCHEM_XREF_EXT_ID>
SCHEMBL16118687

> <PUBCHEM_EXT_DATASOURCE_URL>
https://www.surechembl.org/

> <PUBCHEM_EXT_SUBSTANCE_URL>
https://www.surechembl.org/chemical/SCHEMBL16118687

> <PUBCHEM_CID_ASSOCIATIONS>
117607686  1

> <PUBCHEM_COORDINATE_TYPE>
1
3

> <PUBCHEM_BONDANNOTATIONS>
8  15  5

$$$$
