310936308
  -OEChem-07211613022D

 18 19  0     0  0  0  0  0  0999 V2000
   -2.1434   -1.2375    0.0000 F   0  0  0  0  0  0  0  0  0  0  0  0
   -1.4290   -2.4750    0.0000 F   0  0  0  0  0  0  0  0  0  0  0  0
   -0.7144   -1.2375    0.0000 O   0  0  0  0  0  0  0  0  0  0  0  0
    0.7144    2.0625    0.0000 O   0  0  0  0  0  0  0  0  0  0  0  0
    1.4290    0.8250    0.0000 O   0  0  0  0  0  0  0  0  0  0  0  0
    0.7144   -0.4125    0.0000 N   0  0  0  0  0  0  0  0  0  0  0  0
    0.8007   -1.2330    0.0000 N   0  0  0  0  0  0  0  0  0  0  0  0
    1.4681   -0.0770    0.0000 N   0  0  0  0  0  0  0  0  0  0  0  0
    0.0000    0.0000    0.0000 C   0  0  0  0  0  0  0  0  0  0  0  0
    0.0000    0.8250    0.0000 C   0  0  0  0  0  0  0  0  0  0  0  0
   -0.7144   -0.4125    0.0000 C   0  0  0  0  0  0  0  0  0  0  0  0
    0.7144    1.2375    0.0000 C   0  0  0  0  0  0  0  0  0  0  0  0
   -0.7144    1.2375    0.0000 C   0  0  0  0  0  0  0  0  0  0  0  0
   -1.4290    0.0000    0.0000 C   0  0  0  0  0  0  0  0  0  0  0  0
   -1.4290    0.8250    0.0000 C   0  0  0  0  0  0  0  0  0  0  0  0
    2.0202   -0.6901    0.0000 C   0  0  0  0  0  0  0  0  0  0  0  0
    1.6077   -1.4045    0.0000 C   0  0  0  0  0  0  0  0  0  0  0  0
   -1.4290   -1.6500    0.0000 C   0  0  0  0  0  0  0  0  0  0  0  0
  1 18  1  0  0  0  0
  2 18  1  0  0  0  0
  3 11  1  0  0  0  0
  3 18  1  0  0  0  0
  4 12  2  0  0  0  0
  5 12  1  0  0  0  0
  6  7  1  0  0  0  0
  6  8  1  0  0  0  0
  6  9  1  0  0  0  0
  7 17  2  0  0  0  0
  8 16  2  0  0  0  0
  9 10  1  0  0  0  0
  9 11  2  0  0  0  0
 10 12  1  0  0  0  0
 10 13  2  0  0  0  0
 11 14  1  0  0  0  0
 13 15  1  0  0  0  0
 14 15  2  0  0  0  0
 16 17  1  0  0  0  0
M  END
> <PUBCHEM_COMPOUND_ID_TYPE>
0

> <PUBCHEM_TOTAL_CHARGE>
0

> <PUBCHEM_SUBSTANCE_ID>
310936308

> <PUBCHEM_SUBSTANCE_VERSION>
1

> <PUBCHEM_EXT_DATASOURCE_NAME>
4488

> <PUBCHEM_EXT_DATASOURCE_REGID>
SCHEMBL16113934

> <PUBCHEM_SUBSTANCE_COMMENT>
InChI=1S/C10H7F2N3O3/c11-10(12)18-7-3-1-2-6(9(16)17)8(7)15-13-4-5-14-15/h1-5,10H,(H,16,17)
InChIKey=MIJDKEMHSHTIJQ-UHFFFAOYSA-N

> <PUBCHEM_SUBSTANCE_SYNONYM>
SCHEMBL16113934

> <PUBCHEM_XREF_EXT_ID>
SCHEMBL16113934

> <PUBCHEM_EXT_DATASOURCE_URL>
https://www.surechembl.org/

> <PUBCHEM_EXT_SUBSTANCE_URL>
https://www.surechembl.org/chemical/SCHEMBL16113934

> <PUBCHEM_CID_ASSOCIATIONS>
117604251  1

> <PUBCHEM_COORDINATE_TYPE>
1
3

$$$$
