310943269
  -OEChem-07211613022D

 32 36  0     0  0  0  0  0  0999 V2000
   -4.2714    1.9358    0.0000 O   0  0  0  0  0  0  0  0  0  0  0  0
    1.4078   -0.5439    0.0000 O   0  0  0  0  0  0  0  0  0  0  0  0
   -1.4078    1.1359    0.0000 N   0  0  0  0  0  0  0  0  0  0  0  0
   -2.8316    1.1198    0.0000 N   0  0  0  0  0  0  0  0  0  0  0  0
   -2.7356   -0.6399    0.0000 N   0  0  0  0  0  0  0  0  0  0  0  0
   -1.5838   -1.2959    0.0000 N   0  0  0  0  0  0  0  0  0  0  0  0
    0.7359    2.3517    0.0000 N   0  0  0  0  0  0  0  0  0  0  0  0
    2.1597    0.7199    0.0000 N   0  0  0  0  0  0  0  0  0  0  0  0
    3.8395   -1.5838    0.0000 N   0  0  0  0  0  0  0  0  0  0  0  0
    4.2714   -0.8319    0.0000 N   0  0  0  0  0  0  0  0  0  0  0  0
   -2.1277   -0.0800    0.0000 C   0  0  0  0  0  0  0  0  0  0  0  0
   -2.1117    0.7199    0.0000 C   0  0  0  0  0  0  0  0  0  0  0  0
   -0.6879    0.7199    0.0000 C   0  0  0  0  0  0  0  0  0  0  0  0
   -1.4078   -0.4959    0.0000 C   0  0  0  0  0  0  0  0  0  0  0  0
    0.0000    1.1359    0.0000 C   0  0  0  0  0  0  0  0  0  0  0  0
   -0.7039   -0.0800    0.0000 C   0  0  0  0  0  0  0  0  0  0  0  0
    0.0160    1.9517    0.0000 C   0  0  0  0  0  0  0  0  0  0  0  0
    0.7519    0.7359    0.0000 C   0  0  0  0  0  0  0  0  0  0  0  0
    1.4398    1.1359    0.0000 C   0  0  0  0  0  0  0  0  0  0  0  0
   -2.3997   -1.3598    0.0000 C   0  0  0  0  0  0  0  0  0  0  0  0
    2.9116   -0.5439    0.0000 C   0  0  0  0  0  0  0  0  0  0  0  0
    2.1597   -0.1120    0.0000 C   0  0  0  0  0  0  0  0  0  0  0  0
   -3.5195    0.7359    0.0000 C   0  0  0  0  0  0  0  0  0  0  0  0
   -2.8316    1.9358    0.0000 C   0  0  0  0  0  0  0  0  0  0  0  0
    1.4398    1.9358    0.0000 C   0  0  0  0  0  0  0  0  0  0  0  0
    3.6635   -0.1920    0.0000 C   0  0  0  0  0  0  0  0  0  0  0  0
    2.9916   -1.3918    0.0000 C   0  0  0  0  0  0  0  0  0  0  0  0
   -0.6879    2.3677    0.0000 C   0  0  0  0  0  0  0  0  0  0  0  0
   -4.2554    1.1198    0.0000 C   0  0  0  0  0  0  0  0  0  0  0  0
   -3.5516    2.3517    0.0000 C   0  0  0  0  0  0  0  0  0  0  0  0
    3.8555    0.6399    0.0000 C   0  0  0  0  0  0  0  0  0  0  0  0
    4.2074   -2.3677    0.0000 C   0  0  0  0  0  0  0  0  0  0  0  0
  1 29  1  0  0  0  0
  1 30  1  0  0  0  0
  2 22  2  0  0  0  0
  3 12  2  0  0  0  0
  3 13  1  0  0  0  0
  4 12  1  0  0  0  0
  4 23  1  0  0  0  0
  4 24  1  0  0  0  0
  5 11  1  0  0  0  0
  5 20  2  0  0  0  0
  6 14  1  0  0  0  0
  6 20  1  0  0  0  0
  7 17  1  0  0  0  0
  7 25  2  0  0  0  0
  8 19  1  0  0  0  0
  8 22  1  0  0  0  0
  9 10  1  0  0  0  0
  9 27  1  0  0  0  0
  9 32  1  0  0  0  0
 10 26  2  0  0  0  0
 11 12  1  0  0  0  0
 11 14  2  0  0  0  0
 13 15  1  0  0  0  0
 13 16  2  0  0  0  0
 14 16  1  0  0  0  0
 15 17  2  0  0  0  0
 15 18  1  0  0  0  0
 17 28  1  0  0  0  0
 18 19  2  0  0  0  0
 19 25  1  0  0  0  0
 21 22  1  0  0  0  0
 21 26  1  0  0  0  0
 21 27  2  0  0  0  0
 23 29  1  0  0  0  0
 24 30  1  0  0  0  0
 26 31  1  0  0  0  0
M  END
> <PUBCHEM_COMPOUND_ID_TYPE>
0

> <PUBCHEM_TOTAL_CHARGE>
0

> <PUBCHEM_SUBSTANCE_ID>
310943269

> <PUBCHEM_SUBSTANCE_VERSION>
1

> <PUBCHEM_EXT_DATASOURCE_NAME>
4488

> <PUBCHEM_EXT_DATASOURCE_REGID>
SCHEMBL16121331

> <PUBCHEM_SUBSTANCE_COMMENT>
InChI=1S/C22H24N8O2/c1-13-16(8-15(10-23-13)26-22(31)17-11-29(3)28-14(17)2)18-9-19-20(25-12-24-19)21(27-18)30-4-6-32-7-5-30/h8-12H,4-7H2,1-3H3,(H,24,25)(H,26,31)
InChIKey=JFGDFTMSHIUROJ-UHFFFAOYSA-N

> <PUBCHEM_SUBSTANCE_SYNONYM>
SCHEMBL16121331

> <PUBCHEM_XREF_EXT_ID>
SCHEMBL16121331

> <PUBCHEM_EXT_DATASOURCE_URL>
https://www.surechembl.org/

> <PUBCHEM_EXT_SUBSTANCE_URL>
https://www.surechembl.org/chemical/SCHEMBL16121331

> <PUBCHEM_CID_ASSOCIATIONS>
117609694  1

> <PUBCHEM_COORDINATE_TYPE>
1
3

$$$$
