310938334
  -OEChem-07211613022D

 30 34  0     0  0  0  0  0  0999 V2000
    2.1632   -0.8394    0.0000 F   0  0  0  0  0  0  0  0  0  0  0  0
    2.8734   -2.0986    0.0000 F   0  0  0  0  0  0  0  0  0  0  0  0
    2.8734   -0.4197    0.0000 F   0  0  0  0  0  0  0  0  0  0  0  0
    4.9720    0.0000    0.0000 O   0  0  0  0  0  0  0  0  0  0  0  0
    0.0000   -4.4877    0.0000 O   0  0  0  0  0  0  0  0  0  0  0  0
    4.2940   -1.2269    0.0000 N   0  0  0  0  0  0  0  0  0  0  0  0
    4.9720   -3.2932    0.0000 N   0  0  0  0  0  0  0  0  0  0  0  0
    6.4895   -2.3569    0.0000 N   0  0  0  0  0  0  0  0  0  0  0  0
    6.9738   -1.6466    0.0000 N   0  0  0  0  0  0  0  0  0  0  0  0
    4.2940   -2.0663    0.0000 C   0  0  0  0  0  0  0  0  0  0  0  0
    4.9720   -2.4860    0.0000 C   0  0  0  0  0  0  0  0  0  0  0  0
    5.7146   -2.0663    0.0000 C   0  0  0  0  0  0  0  0  0  0  0  0
    5.7146   -1.2269    0.0000 C   0  0  0  0  0  0  0  0  0  0  0  0
    4.9720   -0.8072    0.0000 C   0  0  0  0  0  0  0  0  0  0  0  0
    3.5514   -2.4860    0.0000 C   0  0  0  0  0  0  0  0  0  0  0  0
    3.5514   -3.2932    0.0000 C   0  0  0  0  0  0  0  0  0  0  0  0
    6.4895   -0.9686    0.0000 C   0  0  0  0  0  0  0  0  0  0  0  0
    3.5838   -0.8394    0.0000 C   0  0  0  0  0  0  0  0  0  0  0  0
    4.2940   -3.7129    0.0000 C   0  0  0  0  0  0  0  0  0  0  0  0
    2.8412   -3.6806    0.0000 C   0  0  0  0  0  0  0  0  0  0  0  0
    2.8734   -1.2592    0.0000 C   0  0  0  0  0  0  0  0  0  0  0  0
    2.8412   -4.5201    0.0000 C   0  0  0  0  0  0  0  0  0  0  0  0
    2.1308   -3.2932    0.0000 C   0  0  0  0  0  0  0  0  0  0  0  0
    1.4206   -4.5201    0.0000 C   0  0  0  0  0  0  0  0  0  0  0  0
    0.7103   -4.9074    0.0000 C   0  0  0  0  0  0  0  0  0  0  0  0
    2.1308   -4.9398    0.0000 C   0  0  0  0  0  0  0  0  0  0  0  0
    1.4206   -3.6806    0.0000 C   0  0  0  0  0  0  0  0  0  0  0  0
    0.7103   -5.7469    0.0000 C   0  0  0  0  0  0  0  0  0  0  0  0
    1.0977   -6.4572    0.0000 C   0  0  0  0  0  0  0  0  0  0  0  0
    0.2906   -6.4572    0.0000 C   0  0  0  0  0  0  0  0  0  0  0  0
  1 21  1  0  0  0  0
  2 21  1  0  0  0  0
  3 21  1  0  0  0  0
  4 14  2  0  0  0  0
  5 25  2  0  0  0  0
  6 10  1  0  0  0  0
  6 14  1  0  0  0  0
  6 18  1  0  0  0  0
  7 11  2  0  0  0  0
  7 19  1  0  0  0  0
  8  9  1  0  0  0  0
  8 12  1  0  0  0  0
  9 17  2  0  0  0  0
 10 11  1  0  0  0  0
 10 15  2  0  0  0  0
 11 12  1  0  0  0  0
 12 13  2  0  0  0  0
 13 14  1  0  0  0  0
 13 17  1  0  0  0  0
 15 16  1  0  0  0  0
 16 19  2  0  0  0  0
 16 20  1  0  0  0  0
 18 21  1  0  0  0  0
 20 22  2  0  0  0  0
 20 23  1  0  0  0  0
 22 26  1  0  0  0  0
 23 27  2  0  0  0  0
 24 25  1  0  0  0  0
 24 26  2  0  0  0  0
 24 27  1  0  0  0  0
 25 28  1  0  0  0  0
 28 29  1  0  0  0  0
 28 30  1  0  0  0  0
 29 30  1  0  0  0  0
M  END
> <PUBCHEM_COMPOUND_ID_TYPE>
0

> <PUBCHEM_TOTAL_CHARGE>
0

> <PUBCHEM_SUBSTANCE_ID>
310938334

> <PUBCHEM_SUBSTANCE_VERSION>
1

> <PUBCHEM_EXT_DATASOURCE_NAME>
4488

> <PUBCHEM_EXT_DATASOURCE_REGID>
SCHEMBL16116215

> <PUBCHEM_SUBSTANCE_COMMENT>
InChI=1S/C21H15F3N4O2/c22-21(23,24)10-28-16-7-14(8-25-18(16)17-15(20(28)30)9-26-27-17)11-1-3-12(4-2-11)19(29)13-5-6-13/h1-4,7-9,13H,5-6,10H2,(H,26,27)
InChIKey=SMCGNRJWJWYNIF-UHFFFAOYSA-N

> <PUBCHEM_SUBSTANCE_SYNONYM>
SCHEMBL16116215

> <PUBCHEM_XREF_EXT_ID>
SCHEMBL16116215

> <PUBCHEM_EXT_DATASOURCE_URL>
https://www.surechembl.org/

> <PUBCHEM_EXT_SUBSTANCE_URL>
https://www.surechembl.org/chemical/SCHEMBL16116215

> <PUBCHEM_CID_ASSOCIATIONS>
86298899  1

> <PUBCHEM_COORDINATE_TYPE>
1
3

$$$$
