310942534
  -OEChem-07211613022D

 15 15  0     1  0  0  0  0  0999 V2000
    0.5152    1.4677    0.0000 F   0  0  0  0  0  0  0  0  0  0  0  0
    0.4180   -1.9537    0.0000 O   0  0  0  0  0  0  0  0  0  0  0  0
   -1.0206   -1.8177    0.0000 O   0  0  0  0  0  0  0  0  0  0  0  0
   -0.8457    2.2453    0.0000 O   0  0  0  0  0  0  0  0  0  0  0  0
   -0.3207   -0.5735    0.0000 N   0  0  0  0  0  0  0  0  0  0  0  0
   -0.7096    0.7679    0.0000 C   0  0  3  0  0  0  0  0  0  0  0  0
   -0.3207   -1.4483    0.0000 C   0  0  0  0  0  0  0  0  0  0  0  0
    0.0680    0.7290    0.0000 C   0  0  3  0  0  0  0  0  0  0  0  0
   -0.9234   -0.0680    0.0000 C   0  0  0  0  0  0  0  0  0  0  0  0
    0.3014   -0.0680    0.0000 C   0  0  0  0  0  0  0  0  0  0  0  0
    1.1761   -1.5843    0.0000 C   0  0  0  0  0  0  0  0  0  0  0  0
   -1.1761    1.4483    0.0000 C   0  0  0  0  0  0  0  0  0  0  0  0
    1.5455   -2.2453    0.0000 C   0  0  0  0  0  0  0  0  0  0  0  0
    0.8262   -0.8845    0.0000 C   0  0  0  0  0  0  0  0  0  0  0  0
    1.9148   -1.1956    0.0000 C   0  0  0  0  0  0  0  0  0  0  0  0
  8  1  1  1  0  0  0
  2  7  1  0  0  0  0
  2 11  1  0  0  0  0
  3  7  2  0  0  0  0
  4 12  2  0  0  0  0
  5  7  1  0  0  0  0
  5  9  1  0  0  0  0
  5 10  1  0  0  0  0
  6  8  1  0  0  0  0
  6  9  1  0  0  0  0
  6 12  1  1  0  0  0
  8 10  1  0  0  0  0
 11 13  1  0  0  0  0
 11 14  1  0  0  0  0
 11 15  1  0  0  0  0
M  END
> <PUBCHEM_COMPOUND_ID_TYPE>
0

> <PUBCHEM_TOTAL_CHARGE>
0

> <PUBCHEM_SUBSTANCE_ID>
310942534

> <PUBCHEM_SUBSTANCE_VERSION>
1

> <PUBCHEM_EXT_DATASOURCE_NAME>
4488

> <PUBCHEM_EXT_DATASOURCE_REGID>
SCHEMBL16120571

> <PUBCHEM_SUBSTANCE_COMMENT>
InChI=1S/C10H16FNO3/c1-10(2,3)15-9(14)12-4-7(6-13)8(11)5-12/h6-8H,4-5H2,1-3H3/t7-,8-/m0/s1
InChIKey=PKWYEMDGVBWOEF-YUMQZZPRSA-N

> <PUBCHEM_SUBSTANCE_SYNONYM>
SCHEMBL16120571

> <PUBCHEM_XREF_EXT_ID>
SCHEMBL16120571

> <PUBCHEM_EXT_DATASOURCE_URL>
https://www.surechembl.org/

> <PUBCHEM_EXT_SUBSTANCE_URL>
https://www.surechembl.org/chemical/SCHEMBL16120571

> <PUBCHEM_CID_ASSOCIATIONS>
97289454  1

> <PUBCHEM_COORDINATE_TYPE>
1
3

> <PUBCHEM_BONDANNOTATIONS>
8  1  5
6  12  5

$$$$
