310936148
  -OEChem-07211613022D

 27 29  0     0  0  0  0  0  0999 V2000
    2.4358   -1.7286    0.0000 S   0  0  0  0  0  0  0  0  0  0  0  0
    5.3430   -6.6395    0.0000 O   0  0  0  0  0  0  0  0  0  0  0  0
    4.6358   -5.4216    0.0000 O   0  0  0  0  0  0  0  0  0  0  0  0
    0.1572    0.0000    0.0000 O   0  0  0  0  0  0  0  0  0  0  0  0
    3.2215   -3.7715    0.0000 N   0  0  0  0  0  0  0  0  0  0  0  0
    1.2179   -2.2786    0.0000 N   0  0  0  0  0  0  0  0  0  0  0  0
    1.2964   -0.8250    0.0000 N   0  0  0  0  0  0  0  0  0  0  0  0
    3.2215   -6.2073    0.0000 C   0  0  0  0  0  0  0  0  0  0  0  0
    3.2215   -5.4216    0.0000 C   0  0  0  0  0  0  0  0  0  0  0  0
    3.9287   -6.6395    0.0000 C   0  0  0  0  0  0  0  0  0  0  0  0
    2.5143   -2.5536    0.0000 C   0  0  0  0  0  0  0  0  0  0  0  0
    3.9287   -4.9894    0.0000 C   0  0  0  0  0  0  0  0  0  0  0  0
    2.5143   -4.9894    0.0000 C   0  0  0  0  0  0  0  0  0  0  0  0
    4.6358   -6.2073    0.0000 C   0  0  0  0  0  0  0  0  0  0  0  0
    3.2215   -2.9465    0.0000 C   0  0  0  0  0  0  0  0  0  0  0  0
    1.6107   -1.5714    0.0000 C   0  0  0  0  0  0  0  0  0  0  0  0
    2.5143   -6.6395    0.0000 C   0  0  0  0  0  0  0  0  0  0  0  0
    3.9287   -4.1644    0.0000 C   0  0  0  0  0  0  0  0  0  0  0  0
    2.5143   -4.1644    0.0000 C   0  0  0  0  0  0  0  0  0  0  0  0
    3.9287   -7.4645    0.0000 C   0  0  0  0  0  0  0  0  0  0  0  0
    1.7679   -2.8680    0.0000 C   0  0  0  0  0  0  0  0  0  0  0  0
    2.5143   -7.4645    0.0000 C   0  0  0  0  0  0  0  0  0  0  0  0
    3.2215   -7.8574    0.0000 C   0  0  0  0  0  0  0  0  0  0  0  0
    0.4714   -0.7464    0.0000 C   0  0  0  0  0  0  0  0  0  0  0  0
    5.3430   -7.4645    0.0000 C   0  0  0  0  0  0  0  0  0  0  0  0
    0.0000   -1.4143    0.0000 C   0  0  0  0  0  0  0  0  0  0  0  0
    6.0501   -7.8574    0.0000 C   0  0  0  0  0  0  0  0  0  0  0  0
  1 11  1  0  0  0  0
  1 16  1  0  0  0  0
  2 14  1  0  0  0  0
  2 25  1  0  0  0  0
  3 14  2  0  0  0  0
  4 24  2  0  0  0  0
  5 15  1  0  0  0  0
  5 18  1  0  0  0  0
  5 19  1  0  0  0  0
  6 16  2  0  0  0  0
  6 21  1  0  0  0  0
  7 16  1  0  0  0  0
  7 24  1  0  0  0  0
  8  9  1  0  0  0  0
  8 10  2  0  0  0  0
  8 17  1  0  0  0  0
  9 12  1  0  0  0  0
  9 13  1  0  0  0  0
 10 14  1  0  0  0  0
 10 20  1  0  0  0  0
 11 15  1  0  0  0  0
 11 21  2  0  0  0  0
 12 18  1  0  0  0  0
 13 19  1  0  0  0  0
 17 22  2  0  0  0  0
 20 23  2  0  0  0  0
 22 23  1  0  0  0  0
 24 26  1  0  0  0  0
 25 27  1  0  0  0  0
M  END
> <PUBCHEM_COMPOUND_ID_TYPE>
0

> <PUBCHEM_TOTAL_CHARGE>
0

> <PUBCHEM_SUBSTANCE_ID>
310936148

> <PUBCHEM_SUBSTANCE_VERSION>
1

> <PUBCHEM_EXT_DATASOURCE_NAME>
4488

> <PUBCHEM_EXT_DATASOURCE_REGID>
SCHEMBL16113758

> <PUBCHEM_SUBSTANCE_COMMENT>
InChI=1S/C20H25N3O3S/c1-3-26-19(25)18-7-5-4-6-17(18)15-8-10-23(11-9-15)13-16-12-21-20(27-16)22-14(2)24/h4-7,12,15H,3,8-11,13H2,1-2H3,(H,21,22,24)
InChIKey=WTEIDKXVMOZONC-UHFFFAOYSA-N

> <PUBCHEM_SUBSTANCE_SYNONYM>
SCHEMBL16113758

> <PUBCHEM_XREF_EXT_ID>
SCHEMBL16113758

> <PUBCHEM_EXT_DATASOURCE_URL>
https://www.surechembl.org/

> <PUBCHEM_EXT_SUBSTANCE_URL>
https://www.surechembl.org/chemical/SCHEMBL16113758

> <PUBCHEM_CID_ASSOCIATIONS>
117604112  1

> <PUBCHEM_COORDINATE_TYPE>
1
3

$$$$
