310932955
  -OEChem-07211613022D

 28 32  0     0  0  0  0  0  0999 V2000
    1.2486   -1.6926    0.0000 Cl  0  0  0  0  0  0  0  0  0  0  0  0
    0.0000   -4.4675    0.0000 O   0  0  0  0  0  0  0  0  0  0  0  0
    5.5496   -3.3298    0.0000 O   0  0  0  0  0  0  0  0  0  0  0  0
    4.2455   -2.6638    0.0000 N   0  0  0  0  0  0  0  0  0  0  0  0
    4.2455   -3.9957    0.0000 N   0  0  0  0  0  0  0  0  0  0  0  0
    2.6916   -0.0278    0.0000 N   0  0  0  0  0  0  0  0  0  0  0  0
    0.3885   -5.1889    0.0000 N   0  0  0  0  0  0  0  0  0  0  0  0
    2.7193   -2.4974    0.0000 C   0  0  0  0  0  0  0  0  0  0  0  0
    3.4408   -2.8858    0.0000 C   0  0  0  0  0  0  0  0  0  0  0  0
    2.6916   -1.6649    0.0000 C   0  0  0  0  0  0  0  0  0  0  0  0
    3.4408   -3.7738    0.0000 C   0  0  0  0  0  0  0  0  0  0  0  0
    2.0256   -3.7738    0.0000 C   0  0  0  0  0  0  0  0  0  0  0  0
    2.0256   -2.8858    0.0000 C   0  0  0  0  0  0  0  0  0  0  0  0
    3.4130   -1.2486    0.0000 C   0  0  0  0  0  0  0  0  0  0  0  0
    1.3042   -4.1622    0.0000 C   0  0  0  0  0  0  0  0  0  0  0  0
    2.7193   -4.1622    0.0000 C   0  0  0  0  0  0  0  0  0  0  0  0
    1.9701   -1.2764    0.0000 C   0  0  0  0  0  0  0  0  0  0  0  0
    3.4130   -0.4162    0.0000 C   0  0  0  0  0  0  0  0  0  0  0  0
    4.7172   -3.3298    0.0000 C   0  0  0  0  0  0  0  0  0  0  0  0
    0.5272   -3.8570    0.0000 C   0  0  0  0  0  0  0  0  0  0  0  0
    1.2209   -4.9946    0.0000 C   0  0  0  0  0  0  0  0  0  0  0  0
    1.9701   -0.4439    0.0000 C   0  0  0  0  0  0  0  0  0  0  0  0
    4.1345   -1.6649    0.0000 C   0  0  0  0  0  0  0  0  0  0  0  0
    4.1067    0.0000    0.0000 C   0  0  0  0  0  0  0  0  0  0  0  0
    4.8282   -1.2209    0.0000 C   0  0  0  0  0  0  0  0  0  0  0  0
    4.8282   -0.4162    0.0000 C   0  0  0  0  0  0  0  0  0  0  0  0
    0.3607   -3.0523    0.0000 C   0  0  0  0  0  0  0  0  0  0  0  0
    1.8313   -5.5496    0.0000 C   0  0  0  0  0  0  0  0  0  0  0  0
  1 17  1  0  0  0  0
  2  7  1  0  0  0  0
  2 20  1  0  0  0  0
  3 19  2  0  0  0  0
  4  9  1  0  0  0  0
  4 19  1  0  0  0  0
  5 11  1  0  0  0  0
  5 19  1  0  0  0  0
  6 18  2  0  0  0  0
  6 22  1  0  0  0  0
  7 21  2  0  0  0  0
  8  9  1  0  0  0  0
  8 10  1  0  0  0  0
  8 13  2  0  0  0  0
  9 11  2  0  0  0  0
 10 14  2  0  0  0  0
 10 17  1  0  0  0  0
 11 16  1  0  0  0  0
 12 13  1  0  0  0  0
 12 15  1  0  0  0  0
 12 16  2  0  0  0  0
 14 18  1  0  0  0  0
 14 23  1  0  0  0  0
 15 20  2  0  0  0  0
 15 21  1  0  0  0  0
 17 22  2  0  0  0  0
 18 24  1  0  0  0  0
 20 27  1  0  0  0  0
 21 28  1  0  0  0  0
 23 25  2  0  0  0  0
 24 26  2  0  0  0  0
 25 26  1  0  0  0  0
M  END
> <PUBCHEM_COMPOUND_ID_TYPE>
0

> <PUBCHEM_TOTAL_CHARGE>
0

> <PUBCHEM_SUBSTANCE_ID>
310932955

> <PUBCHEM_SUBSTANCE_VERSION>
1

> <PUBCHEM_EXT_DATASOURCE_NAME>
4488

> <PUBCHEM_EXT_DATASOURCE_REGID>
SCHEMBL16110351

> <PUBCHEM_SUBSTANCE_COMMENT>
InChI=1S/C21H15ClN4O2/c1-10-18(11(2)28-26-10)12-7-14(20-17(8-12)24-21(27)25-20)19-13-5-3-4-6-16(13)23-9-15(19)22/h3-9H,1-2H3,(H2,24,25,27)
InChIKey=CYDYYKXXKRLBQZ-UHFFFAOYSA-N

> <PUBCHEM_SUBSTANCE_SYNONYM>
SCHEMBL16110351

> <PUBCHEM_XREF_EXT_ID>
SCHEMBL16110351

> <PUBCHEM_EXT_DATASOURCE_URL>
https://www.surechembl.org/

> <PUBCHEM_EXT_SUBSTANCE_URL>
https://www.surechembl.org/chemical/SCHEMBL16110351

> <PUBCHEM_CID_ASSOCIATIONS>
117601432  1

> <PUBCHEM_COORDINATE_TYPE>
1
3

$$$$
