310942525
  -OEChem-07211613022D

 54 60  0     1  0  0  0  0  0999 V2000
   -0.1458    3.8345    0.0000 F   0  0  0  0  0  0  0  0  0  0  0  0
   -1.1372   -3.1639    0.0000 F   0  0  0  0  0  0  0  0  0  0  0  0
   -3.4263    3.4846    0.0000 F   0  0  0  0  0  0  0  0  0  0  0  0
   -2.0412    0.9331    0.0000 O   0  0  0  0  0  0  0  0  0  0  0  0
    1.7350   -1.0060    0.0000 O   0  0  0  0  0  0  0  0  0  0  0  0
   -3.9803   -2.0558    0.0000 O   0  0  0  0  0  0  0  0  0  0  0  0
   -4.8697   -0.4957    0.0000 O   0  0  0  0  0  0  0  0  0  0  0  0
    2.0412   -2.5806    0.0000 O   0  0  0  0  0  0  0  0  0  0  0  0
    1.6913   -1.3122    0.0000 O   0  0  0  0  0  0  0  0  0  0  0  0
   -1.3268   -0.3062    0.0000 N   0  0  0  0  0  0  0  0  0  0  0  0
    0.2625    1.5455    0.0000 N   0  0  0  0  0  0  0  0  0  0  0  0
   -1.0789    1.5455    0.0000 N   0  0  0  0  0  0  0  0  0  0  0  0
   -2.7556   -0.3062    0.0000 N   0  0  0  0  0  0  0  0  0  0  0  0
    0.6853   -2.0703    0.0000 N   0  0  0  0  0  0  0  0  0  0  0  0
   -0.4228    0.2333    0.0000 C   0  0  3  0  0  0  0  0  0  0  0  0
   -0.4083    1.0643    0.0000 C   0  0  0  0  0  0  0  0  0  0  0  0
   -0.8165    2.3328    0.0000 C   0  0  0  0  0  0  0  0  0  0  0  0
    0.3062   -0.1749    0.0000 C   0  0  0  0  0  0  0  0  0  0  0  0
   -2.0558    0.1020    0.0000 C   0  0  0  0  0  0  0  0  0  0  0  0
    0.0146    2.3182    0.0000 C   0  0  0  0  0  0  0  0  0  0  0  0
   -1.2976    2.9889    0.0000 C   0  0  0  0  0  0  0  0  0  0  0  0
   -1.3268   -1.3851    0.0000 C   0  0  0  0  0  0  0  0  0  0  0  0
   -0.6124   -1.7788    0.0000 C   0  0  3  0  0  0  0  0  0  0  0  0
    1.0498    1.2830    0.0000 C   0  0  0  0  0  0  0  0  0  0  0  0
   -0.9769    3.7471    0.0000 C   0  0  0  0  0  0  0  0  0  0  0  0
   -0.5395   -2.5953    0.0000 C   0  0  3  0  0  0  0  0  0  0  0  0
    0.3062   -1.0060    0.0000 C   0  0  0  0  0  0  0  0  0  0  0  0
    1.0060    0.2333    0.0000 C   0  0  0  0  0  0  0  0  0  0  0  0
    0.1312   -1.4726    0.0000 C   0  0  0  0  0  0  0  0  0  0  0  0
   -3.5138    0.0291    0.0000 C   0  0  0  0  0  0  0  0  0  0  0  0
   -2.8431   -1.1227    0.0000 C   0  0  0  0  0  0  0  0  0  0  0  0
   -2.1141    2.9160    0.0000 C   0  0  0  0  0  0  0  0  0  0  0  0
    1.6330    1.8809    0.0000 C   0  0  0  0  0  0  0  0  0  0  0  0
   -4.0532   -0.5832    0.0000 C   0  0  3  0  0  0  0  0  0  0  0  0
   -3.6450   -1.2830    0.0000 C   0  0  3  0  0  0  0  0  0  0  0  0
    0.2770   -2.7702    0.0000 C   0  0  0  0  0  0  0  0  0  0  0  0
   -2.5953    3.5721    0.0000 C   0  0  0  0  0  0  0  0  0  0  0  0
   -1.4434    4.4031    0.0000 C   0  0  0  0  0  0  0  0  0  0  0  0
    1.7204   -0.1749    0.0000 C   0  0  0  0  0  0  0  0  0  0  0  0
    1.0206   -1.4143    0.0000 C   0  0  0  0  0  0  0  0  0  0  0  0
    1.5017   -1.9829    0.0000 C   0  0  0  0  0  0  0  0  0  0  0  0
   -2.2599    4.3302    0.0000 C   0  0  0  0  0  0  0  0  0  0  0  0
    2.4203    1.6621    0.0000 C   0  0  0  0  0  0  0  0  0  0  0  0
    1.4288    2.6827    0.0000 C   0  0  0  0  0  0  0  0  0  0  0  0
    2.9889    2.2307    0.0000 C   0  0  0  0  0  0  0  0  0  0  0  0
    1.9829    3.2368    0.0000 C   0  0  0  0  0  0  0  0  0  0  0  0
    2.7848    3.0327    0.0000 C   0  0  0  0  0  0  0  0  0  0  0  0
    2.9014   -2.3766    0.0000 C   0  0  0  0  0  0  0  0  0  0  0  0
    3.4555   -2.9889    0.0000 C   0  0  0  0  0  0  0  0  0  0  0  0
    3.2368   -3.8054    0.0000 C   0  0  0  0  0  0  0  0  0  0  0  0
    4.2719   -2.7702    0.0000 C   0  0  0  0  0  0  0  0  0  0  0  0
    3.8200   -4.4031    0.0000 C   0  0  0  0  0  0  0  0  0  0  0  0
    4.8697   -3.3826    0.0000 C   0  0  0  0  0  0  0  0  0  0  0  0
    4.6364   -4.1845    0.0000 C   0  0  0  0  0  0  0  0  0  0  0  0
  1 25  1  0  0  0  0
 26  2  1  6  0  0  0
  3 37  1  0  0  0  0
  4 19  2  0  0  0  0
  5 39  1  0  0  0  0
  5 40  1  0  0  0  0
 35  6  1  1  0  0  0
 34  7  1  1  0  0  0
  8 41  1  0  0  0  0
  8 48  1  0  0  0  0
  9 41  2  0  0  0  0
 15 10  1  1  0  0  0
 10 19  1  0  0  0  0
 10 22  1  0  0  0  0
 11 16  1  0  0  0  0
 11 20  1  0  0  0  0
 11 24  1  0  0  0  0
 12 16  2  0  0  0  0
 12 17  1  0  0  0  0
 13 19  1  0  0  0  0
 13 30  1  0  0  0  0
 13 31  1  0  0  0  0
 14 29  1  0  0  0  0
 14 36  1  0  0  0  0
 14 41  1  0  0  0  0
 15 16  1  0  0  0  0
 15 18  1  0  0  0  0
 17 20  2  0  0  0  0
 17 21  1  0  0  0  0
 18 27  1  0  0  0  0
 18 28  1  0  0  0  0
 21 25  2  0  0  0  0
 21 32  1  0  0  0  0
 23 22  1  6  0  0  0
 23 26  1  0  0  0  0
 23 29  1  0  0  0  0
 24 33  1  0  0  0  0
 25 38  1  0  0  0  0
 26 36  1  0  0  0  0
 27 40  1  0  0  0  0
 28 39  1  0  0  0  0
 30 34  1  0  0  0  0
 31 35  1  0  0  0  0
 32 37  2  0  0  0  0
 33 43  2  0  0  0  0
 33 44  1  0  0  0  0
 34 35  1  0  0  0  0
 37 42  1  0  0  0  0
 38 42  2  0  0  0  0
 43 45  1  0  0  0  0
 44 46  2  0  0  0  0
 45 47  2  0  0  0  0
 46 47  1  0  0  0  0
 48 49  1  0  0  0  0
 49 50  2  0  0  0  0
 49 51  1  0  0  0  0
 50 52  1  0  0  0  0
 51 53  2  0  0  0  0
 52 54  2  0  0  0  0
 53 54  1  0  0  0  0
M  END
> <PUBCHEM_COMPOUND_ID_TYPE>
0

> <PUBCHEM_TOTAL_CHARGE>
0

> <PUBCHEM_SUBSTANCE_ID>
310942525

> <PUBCHEM_SUBSTANCE_VERSION>
1

> <PUBCHEM_EXT_DATASOURCE_NAME>
4488

> <PUBCHEM_EXT_DATASOURCE_REGID>
SCHEMBL16120561

> <PUBCHEM_SUBSTANCE_COMMENT>
InChI=1S/C40H44F3N5O6/c41-30-11-12-32(42)31(17-30)34-22-45(18-26-7-3-1-4-8-26)38(44-34)37(28-13-15-53-16-14-28)48(39(51)46-23-35(49)36(50)24-46)20-29-19-47(21-33(29)43)40(52)54-25-27-9-5-2-6-10-27/h1-12,17,22,28-29,33,35-37,49-50H,13-16,18-21,23-25H2/t29-,33-,35-,36+,37+/m0/s1
InChIKey=NVBGHTFSRHTBFS-AQEIGQSOSA-N

> <PUBCHEM_SUBSTANCE_SYNONYM>
SCHEMBL16120561

> <PUBCHEM_XREF_EXT_ID>
SCHEMBL16120561

> <PUBCHEM_EXT_DATASOURCE_URL>
https://www.surechembl.org/

> <PUBCHEM_EXT_SUBSTANCE_URL>
https://www.surechembl.org/chemical/SCHEMBL16120561

> <PUBCHEM_CID_ASSOCIATIONS>
117609085  1

> <PUBCHEM_COORDINATE_TYPE>
1
3

> <PUBCHEM_BONDANNOTATIONS>
15  10  5
26  2  6
23  22  6
35  6  5
34  7  5

$$$$
