310933495
  -OEChem-07211613022D

 26 30  0     0  0  0  0  0  0999 V2000
    0.0000   -4.4751    0.0000 O   0  0  0  0  0  0  0  0  0  0  0  0
    5.5313   -3.3355    0.0000 O   0  0  0  0  0  0  0  0  0  0  0  0
    4.2249   -2.6684    0.0000 N   0  0  0  0  0  0  0  0  0  0  0  0
    4.2249   -4.0026    0.0000 N   0  0  0  0  0  0  0  0  0  0  0  0
    1.9735   -0.4447    0.0000 N   0  0  0  0  0  0  0  0  0  0  0  0
    0.3891   -5.1978    0.0000 N   0  0  0  0  0  0  0  0  0  0  0  0
    2.6962   -2.5016    0.0000 C   0  0  0  0  0  0  0  0  0  0  0  0
    3.4189   -2.9186    0.0000 C   0  0  0  0  0  0  0  0  0  0  0  0
    3.4189   -3.7802    0.0000 C   0  0  0  0  0  0  0  0  0  0  0  0
    2.0013   -3.7802    0.0000 C   0  0  0  0  0  0  0  0  0  0  0  0
    2.6962   -1.6955    0.0000 C   0  0  0  0  0  0  0  0  0  0  0  0
    1.3064   -4.1972    0.0000 C   0  0  0  0  0  0  0  0  0  0  0  0
    2.0013   -2.9186    0.0000 C   0  0  0  0  0  0  0  0  0  0  0  0
    2.6962   -4.1694    0.0000 C   0  0  0  0  0  0  0  0  0  0  0  0
    1.9735   -1.2508    0.0000 C   0  0  0  0  0  0  0  0  0  0  0  0
    1.2508   -1.6677    0.0000 C   0  0  0  0  0  0  0  0  0  0  0  0
    4.6975   -3.3355    0.0000 C   0  0  0  0  0  0  0  0  0  0  0  0
    0.5281   -3.8636    0.0000 C   0  0  0  0  0  0  0  0  0  0  0  0
    1.1952   -5.0032    0.0000 C   0  0  0  0  0  0  0  0  0  0  0  0
    3.3911   -1.2508    0.0000 C   0  0  0  0  0  0  0  0  0  0  0  0
    0.8339   -2.3627    0.0000 C   0  0  0  0  0  0  0  0  0  0  0  0
    0.4170   -1.6677    0.0000 C   0  0  0  0  0  0  0  0  0  0  0  0
    3.3911   -0.4170    0.0000 C   0  0  0  0  0  0  0  0  0  0  0  0
    2.6684    0.0000    0.0000 C   0  0  0  0  0  0  0  0  0  0  0  0
    0.3613   -3.0575    0.0000 C   0  0  0  0  0  0  0  0  0  0  0  0
    1.8345   -5.5591    0.0000 C   0  0  0  0  0  0  0  0  0  0  0  0
  1  6  1  0  0  0  0
  1 18  1  0  0  0  0
  2 17  2  0  0  0  0
  3  8  1  0  0  0  0
  3 17  1  0  0  0  0
  4  9  1  0  0  0  0
  4 17  1  0  0  0  0
  5 15  1  0  0  0  0
  5 24  2  0  0  0  0
  6 19  2  0  0  0  0
  7  8  1  0  0  0  0
  7 11  1  0  0  0  0
  7 13  2  0  0  0  0
  8  9  2  0  0  0  0
  9 14  1  0  0  0  0
 10 12  1  0  0  0  0
 10 13  1  0  0  0  0
 10 14  2  0  0  0  0
 11 15  2  0  0  0  0
 11 20  1  0  0  0  0
 12 18  2  0  0  0  0
 12 19  1  0  0  0  0
 15 16  1  0  0  0  0
 16 21  1  0  0  0  0
 16 22  1  0  0  0  0
 18 25  1  0  0  0  0
 19 26  1  0  0  0  0
 20 23  2  0  0  0  0
 21 22  1  0  0  0  0
 23 24  1  0  0  0  0
M  END
> <PUBCHEM_COMPOUND_ID_TYPE>
0

> <PUBCHEM_TOTAL_CHARGE>
0

> <PUBCHEM_SUBSTANCE_ID>
310933495

> <PUBCHEM_SUBSTANCE_VERSION>
1

> <PUBCHEM_EXT_DATASOURCE_NAME>
4488

> <PUBCHEM_EXT_DATASOURCE_REGID>
SCHEMBL16110915

> <PUBCHEM_SUBSTANCE_COMMENT>
InChI=1S/C20H18N4O2/c1-10-17(11(2)26-24-10)13-8-15(19-16(9-13)22-20(25)23-19)14-4-3-7-21-18(14)12-5-6-12/h3-4,7-9,12H,5-6H2,1-2H3,(H2,22,23,25)
InChIKey=OFMIXIIZZWDAGY-UHFFFAOYSA-N

> <PUBCHEM_SUBSTANCE_SYNONYM>
SCHEMBL16110915

> <PUBCHEM_XREF_EXT_ID>
SCHEMBL16110915

> <PUBCHEM_EXT_DATASOURCE_URL>
https://www.surechembl.org/

> <PUBCHEM_EXT_SUBSTANCE_URL>
https://www.surechembl.org/chemical/SCHEMBL16110915

> <PUBCHEM_CID_ASSOCIATIONS>
86296965  1

> <PUBCHEM_COORDINATE_TYPE>
1
3

$$$$
