310933629
  -OEChem-07211613022D

 22 24  0     0  0  0  0  0  0999 V2000
    0.0000   -4.0165    0.0000 O   0  0  0  0  0  0  0  0  0  0  0  0
    3.4025   -0.8442    0.0000 O   0  0  0  0  0  0  0  0  0  0  0  0
    5.5258   -2.9164    0.0000 O   0  0  0  0  0  0  0  0  0  0  0  0
    4.1955   -2.2513    0.0000 N   0  0  0  0  0  0  0  0  0  0  0  0
    4.1955   -3.5560    0.0000 N   0  0  0  0  0  0  0  0  0  0  0  0
    0.3837   -4.7583    0.0000 N   0  0  0  0  0  0  0  0  0  0  0  0
    3.4280   -2.4815    0.0000 C   0  0  0  0  0  0  0  0  0  0  0  0
    1.9954   -3.3257    0.0000 C   0  0  0  0  0  0  0  0  0  0  0  0
    2.6862   -2.0722    0.0000 C   0  0  0  0  0  0  0  0  0  0  0  0
    3.4280   -3.3257    0.0000 C   0  0  0  0  0  0  0  0  0  0  0  0
    1.2791   -3.7351    0.0000 C   0  0  0  0  0  0  0  0  0  0  0  0
    1.9954   -2.4815    0.0000 C   0  0  0  0  0  0  0  0  0  0  0  0
    2.6862   -3.7351    0.0000 C   0  0  0  0  0  0  0  0  0  0  0  0
    2.6862   -1.2535    0.0000 C   0  0  0  0  0  0  0  0  0  0  0  0
    0.5372   -3.4280    0.0000 C   0  0  0  0  0  0  0  0  0  0  0  0
    1.2024   -4.5537    0.0000 C   0  0  0  0  0  0  0  0  0  0  0  0
    4.7072   -2.9164    0.0000 C   0  0  0  0  0  0  0  0  0  0  0  0
    1.9699   -0.8442    0.0000 C   0  0  0  0  0  0  0  0  0  0  0  0
    0.3581   -2.6094    0.0000 C   0  0  0  0  0  0  0  0  0  0  0  0
    1.8164   -5.1165    0.0000 C   0  0  0  0  0  0  0  0  0  0  0  0
    1.9442    0.0000    0.0000 C   0  0  0  0  0  0  0  0  0  0  0  0
    1.2791   -1.2791    0.0000 C   0  0  0  0  0  0  0  0  0  0  0  0
  1  6  1  0  0  0  0
  1 15  1  0  0  0  0
  2 14  2  0  0  0  0
  3 17  2  0  0  0  0
  4  7  1  0  0  0  0
  4 17  1  0  0  0  0
  5 10  1  0  0  0  0
  5 17  1  0  0  0  0
  6 16  2  0  0  0  0
  7  9  1  0  0  0  0
  7 10  2  0  0  0  0
  8 11  1  0  0  0  0
  8 12  1  0  0  0  0
  8 13  2  0  0  0  0
  9 12  2  0  0  0  0
  9 14  1  0  0  0  0
 10 13  1  0  0  0  0
 11 15  2  0  0  0  0
 11 16  1  0  0  0  0
 14 18  1  0  0  0  0
 15 19  1  0  0  0  0
 16 20  1  0  0  0  0
 18 21  1  0  0  0  0
 18 22  1  0  0  0  0
M  END
> <PUBCHEM_COMPOUND_ID_TYPE>
0

> <PUBCHEM_TOTAL_CHARGE>
0

> <PUBCHEM_SUBSTANCE_ID>
310933629

> <PUBCHEM_SUBSTANCE_VERSION>
1

> <PUBCHEM_EXT_DATASOURCE_NAME>
4488

> <PUBCHEM_EXT_DATASOURCE_REGID>
SCHEMBL16111060

> <PUBCHEM_SUBSTANCE_COMMENT>
InChI=1S/C16H17N3O3/c1-7(2)15(20)11-5-10(13-8(3)19-22-9(13)4)6-12-14(11)18-16(21)17-12/h5-7H,1-4H3,(H2,17,18,21)
InChIKey=NBIVJWFZNGOIQK-UHFFFAOYSA-N

> <PUBCHEM_SUBSTANCE_SYNONYM>
SCHEMBL16111060

> <PUBCHEM_XREF_EXT_ID>
SCHEMBL16111060

> <PUBCHEM_EXT_DATASOURCE_URL>
https://www.surechembl.org/

> <PUBCHEM_EXT_SUBSTANCE_URL>
https://www.surechembl.org/chemical/SCHEMBL16111060

> <PUBCHEM_CID_ASSOCIATIONS>
117602002  1

> <PUBCHEM_COORDINATE_TYPE>
1
3

$$$$
