310944352
  -OEChem-07211613022D

 35 39  0     0  0  0  0  0  0999 V2000
    0.0138    3.6788    0.0000 F   0  0  0  0  0  0  0  0  0  0  0  0
   -2.1616    3.2354    0.0000 N   0  0  0  0  0  0  0  0  0  0  0  0
    2.1893    3.1938    0.0000 N   0  0  0  0  0  0  0  0  0  0  0  0
   -0.0138    1.2262    0.0000 C   0  0  0  0  0  0  0  0  0  0  0  0
    0.6929    1.6419    0.0000 C   0  0  0  0  0  0  0  0  0  0  0  0
   -0.7483    1.6419    0.0000 C   0  0  0  0  0  0  0  0  0  0  0  0
    0.7206    2.4595    0.0000 C   0  0  0  0  0  0  0  0  0  0  0  0
   -0.7344    2.4733    0.0000 C   0  0  0  0  0  0  0  0  0  0  0  0
   -0.0138    2.8751    0.0000 C   0  0  0  0  0  0  0  0  0  0  0  0
   -0.0277    0.3949    0.0000 C   0  0  0  0  0  0  0  0  0  0  0  0
    1.4549    1.2262    0.0000 C   0  0  0  0  0  0  0  0  0  0  0  0
   -1.4687    1.2262    0.0000 C   0  0  0  0  0  0  0  0  0  0  0  0
   -1.4549    2.8612    0.0000 C   0  0  0  0  0  0  0  0  0  0  0  0
    1.4549    2.8474    0.0000 C   0  0  0  0  0  0  0  0  0  0  0  0
   -0.7483   -0.0208    0.0000 C   0  0  0  0  0  0  0  0  0  0  0  0
    0.7067   -0.0346    0.0000 C   0  0  0  0  0  0  0  0  0  0  0  0
    1.4549    0.3810    0.0000 C   0  0  0  0  0  0  0  0  0  0  0  0
   -2.1893    1.6281    0.0000 C   0  0  0  0  0  0  0  0  0  0  0  0
    2.1754    1.6142    0.0000 C   0  0  0  0  0  0  0  0  0  0  0  0
   -1.4826    0.4087    0.0000 C   0  0  0  0  0  0  0  0  0  0  0  0
   -0.0277   -1.2262    0.0000 C   0  0  0  0  0  0  0  0  0  0  0  0
   -0.7483   -0.8244    0.0000 C   0  0  0  0  0  0  0  0  0  0  0  0
    0.6929   -0.8383    0.0000 C   0  0  0  0  0  0  0  0  0  0  0  0
   -0.0415   -2.0715    0.0000 C   0  0  0  0  0  0  0  0  0  0  0  0
    2.1754   -0.0069    0.0000 C   0  0  0  0  0  0  0  0  0  0  0  0
   -2.8959    1.2262    0.0000 C   0  0  0  0  0  0  0  0  0  0  0  0
    2.9098    1.1985    0.0000 C   0  0  0  0  0  0  0  0  0  0  0  0
   -2.1893    0.0069    0.0000 C   0  0  0  0  0  0  0  0  0  0  0  0
    2.8959    0.3810    0.0000 C   0  0  0  0  0  0  0  0  0  0  0  0
   -2.9098    0.4087    0.0000 C   0  0  0  0  0  0  0  0  0  0  0  0
   -0.7621   -2.4871    0.0000 C   0  0  0  0  0  0  0  0  0  0  0  0
    0.6929   -2.4733    0.0000 C   0  0  0  0  0  0  0  0  0  0  0  0
   -0.7621   -3.2770    0.0000 C   0  0  0  0  0  0  0  0  0  0  0  0
    0.6790   -3.2909    0.0000 C   0  0  0  0  0  0  0  0  0  0  0  0
    0.0000   -3.6788    0.0000 C   0  0  0  0  0  0  0  0  0  0  0  0
  1  9  1  0  0  0  0
  2 13  3  0  0  0  0
  3 14  3  0  0  0  0
  4  5  2  0  0  0  0
  4  6  1  0  0  0  0
  4 10  1  0  0  0  0
  5  7  1  0  0  0  0
  5 11  1  0  0  0  0
  6  8  2  0  0  0  0
  6 12  1  0  0  0  0
  7  9  2  0  0  0  0
  7 14  1  0  0  0  0
  8  9  1  0  0  0  0
  8 13  1  0  0  0  0
 10 15  2  0  0  0  0
 10 16  1  0  0  0  0
 11 17  2  0  0  0  0
 11 19  1  0  0  0  0
 12 18  2  0  0  0  0
 12 20  1  0  0  0  0
 15 22  1  0  0  0  0
 16 23  2  0  0  0  0
 17 25  1  0  0  0  0
 18 26  1  0  0  0  0
 19 27  2  0  0  0  0
 20 28  2  0  0  0  0
 21 22  2  0  0  0  0
 21 23  1  0  0  0  0
 21 24  1  0  0  0  0
 24 31  2  0  0  0  0
 24 32  1  0  0  0  0
 25 29  2  0  0  0  0
 26 30  2  0  0  0  0
 27 29  1  0  0  0  0
 28 30  1  0  0  0  0
 31 33  1  0  0  0  0
 32 34  2  0  0  0  0
 33 35  2  0  0  0  0
 34 35  1  0  0  0  0
M  END
> <PUBCHEM_COMPOUND_ID_TYPE>
0

> <PUBCHEM_TOTAL_CHARGE>
0

> <PUBCHEM_SUBSTANCE_ID>
310944352

> <PUBCHEM_SUBSTANCE_VERSION>
1

> <PUBCHEM_EXT_DATASOURCE_NAME>
4488

> <PUBCHEM_EXT_DATASOURCE_REGID>
SCHEMBL16122427

> <PUBCHEM_SUBSTANCE_COMMENT>
InChI=1S/C32H19FN2/c33-32-27(20-34)29(24-12-6-2-7-13-24)31(30(28(32)21-35)25-14-8-3-9-15-25)26-18-16-23(17-19-26)22-10-4-1-5-11-22/h1-19H
InChIKey=GOZHQCYTSVQPSY-UHFFFAOYSA-N

> <PUBCHEM_SUBSTANCE_SYNONYM>
SCHEMBL16122427

> <PUBCHEM_XREF_EXT_ID>
SCHEMBL16122427

> <PUBCHEM_EXT_DATASOURCE_URL>
https://www.surechembl.org/

> <PUBCHEM_EXT_SUBSTANCE_URL>
https://www.surechembl.org/chemical/SCHEMBL16122427

> <PUBCHEM_CID_ASSOCIATIONS>
117610609  1

> <PUBCHEM_COORDINATE_TYPE>
1
3

$$$$
