310941733
  -OEChem-07211613022D

 18 19  0     0  0  0  0  0  0999 V2000
   -0.9870   -1.2604    0.0000 O   0  0  0  0  0  0  0  0  0  0  0  0
   -0.9499    1.2604    0.0000 O   0  0  0  0  0  0  0  0  0  0  0  0
    2.4605    0.5653    0.0000 O   0  0  0  0  0  0  0  0  0  0  0  0
   -1.7191    0.0000    0.0000 O   0  0  0  0  0  0  0  0  0  0  0  0
    1.0055   -0.2780    0.0000 N   0  0  0  0  0  0  0  0  0  0  0  0
   -0.4032   -0.6302    0.0000 C   0  0  0  0  0  0  0  0  0  0  0  0
    0.4124   -0.8526    0.0000 C   0  0  0  0  0  0  0  0  0  0  0  0
   -1.0797   -0.1575    0.0000 C   0  0  0  0  0  0  0  0  0  0  0  0
   -0.0973    0.1390    0.0000 C   0  0  0  0  0  0  0  0  0  0  0  0
   -1.7191   -0.8155    0.0000 C   0  0  0  0  0  0  0  0  0  0  0  0
   -1.2279    0.6395    0.0000 C   0  0  0  0  0  0  0  0  0  0  0  0
   -0.3104    0.9360    0.0000 C   0  0  0  0  0  0  0  0  0  0  0  0
    1.7469   -0.6765    0.0000 C   0  0  0  0  0  0  0  0  0  0  0  0
    1.0055    0.5838    0.0000 C   0  0  0  0  0  0  0  0  0  0  0  0
    2.4512   -0.2595    0.0000 C   0  0  0  0  0  0  0  0  0  0  0  0
    1.7191    1.0009    0.0000 C   0  0  0  0  0  0  0  0  0  0  0  0
   -2.1176   -1.0380    0.0000 C   0  0  0  0  0  0  0  0  0  0  0  0
   -2.4605   -1.2419    0.0000 C   0  0  0  0  0  0  0  0  0  0  0  0
  1  6  1  0  0  0  0
  1 10  1  0  0  0  0
  2 11  1  0  0  0  0
  2 12  1  0  0  0  0
  3 15  1  0  0  0  0
  3 16  1  0  0  0  0
  4 10  2  0  0  0  0
  5  7  1  0  0  0  0
  5 13  1  0  0  0  0
  5 14  1  0  0  0  0
  6  7  1  0  0  0  0
  6  8  1  0  0  0  0
  6  9  1  0  0  0  0
  8 11  1  0  0  0  0
  9 12  1  0  0  0  0
 10 17  1  0  0  0  0
 13 15  1  0  0  0  0
 14 16  1  0  0  0  0
 17 18  1  0  0  0  0
M  END
> <PUBCHEM_COMPOUND_ID_TYPE>
0

> <PUBCHEM_TOTAL_CHARGE>
0

> <PUBCHEM_SUBSTANCE_ID>
310941733

> <PUBCHEM_SUBSTANCE_VERSION>
1

> <PUBCHEM_EXT_DATASOURCE_NAME>
4488

> <PUBCHEM_EXT_DATASOURCE_REGID>
SCHEMBL16119764

> <PUBCHEM_SUBSTANCE_COMMENT>
InChI=1S/C13H23NO4/c1-2-12(15)18-13(3-7-16-8-4-13)11-14-5-9-17-10-6-14/h2-11H2,1H3
InChIKey=MQDWIDGJSMBLIV-UHFFFAOYSA-N

> <PUBCHEM_SUBSTANCE_SYNONYM>
SCHEMBL16119764

> <PUBCHEM_XREF_EXT_ID>
SCHEMBL16119764

> <PUBCHEM_EXT_DATASOURCE_URL>
https://www.surechembl.org/

> <PUBCHEM_EXT_SUBSTANCE_URL>
https://www.surechembl.org/chemical/SCHEMBL16119764

> <PUBCHEM_CID_ASSOCIATIONS>
117608502  1

> <PUBCHEM_COORDINATE_TYPE>
1
3

$$$$
