310946137
  -OEChem-07211613022D

 31 33  0     1  0  0  0  0  0999 V2000
   -0.6053   -0.4898    0.0000 O   0  0  0  0  0  0  0  0  0  0  0  0
    1.5381   -2.5523    0.0000 O   0  0  0  0  0  0  0  0  0  0  0  0
    0.1091   -1.7273    0.0000 N   0  0  0  0  0  0  0  0  0  0  0  0
   -4.8921   -2.9648    0.0000 N   0  0  0  0  0  0  0  0  0  0  0  0
    2.2526   -1.3148    0.0000 N   0  0  0  0  0  0  0  0  0  0  0  0
   -2.7487   -1.7273    0.0000 C   0  0  0  0  0  0  0  0  0  0  0  0
   -2.7487   -2.5523    0.0000 C   0  0  0  0  0  0  0  0  0  0  0  0
   -1.3198   -1.7273    0.0000 C   0  0  0  0  0  0  0  0  0  0  0  0
   -2.0343   -1.3148    0.0000 C   0  0  0  0  0  0  0  0  0  0  0  0
   -0.6053   -1.3148    0.0000 C   0  0  0  0  0  0  0  0  0  0  0  0
   -4.1777   -2.5523    0.0000 C   0  0  0  0  0  0  0  0  0  0  0  0
   -3.4632   -2.9648    0.0000 C   0  0  0  0  0  0  0  0  0  0  0  0
   -2.0343   -2.9648    0.0000 C   0  0  0  0  0  0  0  0  0  0  0  0
   -1.3198   -2.5523    0.0000 C   0  0  0  0  0  0  0  0  0  0  0  0
   -3.4632   -1.3148    0.0000 C   0  0  0  0  0  0  0  0  0  0  0  0
   -4.1777   -1.7273    0.0000 C   0  0  0  0  0  0  0  0  0  0  0  0
    0.8236   -1.3148    0.0000 C   0  0  3  0  0  0  0  0  0  0  0  0
    1.5381   -1.7273    0.0000 C   0  0  0  0  0  0  0  0  0  0  0  0
    0.8236   -0.4898    0.0000 C   0  0  0  0  0  0  0  0  0  0  0  0
    2.2526   -0.4898    0.0000 C   0  0  0  0  0  0  0  0  0  0  0  0
   -5.6066   -2.5523    0.0000 C   0  0  0  0  0  0  0  0  0  0  0  0
   -4.8921   -3.7898    0.0000 C   0  0  0  0  0  0  0  0  0  0  0  0
    2.9670   -0.0773    0.0000 C   0  0  0  0  0  0  0  0  0  0  0  0
    1.5381   -0.0773    0.0000 C   0  0  0  0  0  0  0  0  0  0  0  0
    3.6815   -0.4898    0.0000 C   0  0  0  0  0  0  0  0  0  0  0  0
    2.9670    0.7477    0.0000 C   0  0  0  0  0  0  0  0  0  0  0  0
    4.3960   -0.0773    0.0000 C   0  0  0  0  0  0  0  0  0  0  0  0
    3.6815    1.1602    0.0000 C   0  0  0  0  0  0  0  0  0  0  0  0
    1.5381    0.7477    0.0000 C   0  0  0  0  0  0  0  0  0  0  0  0
    4.3960    0.7477    0.0000 C   0  0  0  0  0  0  0  0  0  0  0  0
    2.2526    1.1602    0.0000 C   0  0  0  0  0  0  0  0  0  0  0  0
  1 10  2  0  0  0  0
  2 18  2  0  0  0  0
  3 10  1  0  0  0  0
 17  3  1  1  0  0  0
  4 11  1  0  0  0  0
  4 21  1  0  0  0  0
  4 22  1  0  0  0  0
  5 18  1  0  0  0  0
  5 20  1  0  0  0  0
  6  7  2  0  0  0  0
  6  9  1  0  0  0  0
  6 15  1  0  0  0  0
  7 12  1  0  0  0  0
  7 13  1  0  0  0  0
  8  9  2  0  0  0  0
  8 10  1  0  0  0  0
  8 14  1  0  0  0  0
 11 12  2  0  0  0  0
 11 16  1  0  0  0  0
 13 14  2  0  0  0  0
 15 16  2  0  0  0  0
 17 18  1  0  0  0  0
 17 19  1  0  0  0  0
 19 24  1  0  0  0  0
 20 23  1  0  0  0  0
 23 25  2  0  0  0  0
 23 26  1  0  0  0  0
 24 29  1  0  0  0  0
 25 27  1  0  0  0  0
 26 28  2  0  0  0  0
 27 30  2  0  0  0  0
 28 30  1  0  0  0  0
 29 31  1  0  0  0  0
M  END
> <PUBCHEM_COMPOUND_ID_TYPE>
0

> <PUBCHEM_TOTAL_CHARGE>
0

> <PUBCHEM_SUBSTANCE_ID>
310946137

> <PUBCHEM_SUBSTANCE_VERSION>
1

> <PUBCHEM_EXT_DATASOURCE_NAME>
4488

> <PUBCHEM_EXT_DATASOURCE_REGID>
SCHEMBL16124246

> <PUBCHEM_SUBSTANCE_COMMENT>
InChI=1S/C26H31N3O2/c1-4-5-11-24(26(31)27-18-19-9-7-6-8-10-19)28-25(30)22-13-12-21-17-23(29(2)3)15-14-20(21)16-22/h6-10,12-17,24H,4-5,11,18H2,1-3H3,(H,27,31)(H,28,30)/t24-/m0/s1
InChIKey=MCKNJQSPXICSAN-DEOSSOPVSA-N

> <PUBCHEM_SUBSTANCE_SYNONYM>
SCHEMBL16124246

> <PUBCHEM_XREF_EXT_ID>
SCHEMBL16124246

> <PUBCHEM_EXT_DATASOURCE_URL>
https://www.surechembl.org/

> <PUBCHEM_EXT_SUBSTANCE_URL>
https://www.surechembl.org/chemical/SCHEMBL16124246

> <PUBCHEM_CID_ASSOCIATIONS>
117612094  1

> <PUBCHEM_COORDINATE_TYPE>
1
3

> <PUBCHEM_BONDANNOTATIONS>
17  3  5

$$$$
