310942680
  -OEChem-07211613022D

 86 92  0     1  0  0  0  0  0999 V2000
    0.7254    2.7181    0.0000 F   0  0  0  0  0  0  0  0  0  0  0  0
    7.2122    0.8004    0.0000 F   0  0  0  0  0  0  0  0  0  0  0  0
    0.7254   -0.6170    0.0000 F   0  0  0  0  0  0  0  0  0  0  0  0
    3.2600    0.9338    0.0000 O   0  0  0  0  0  0  0  0  0  0  0  0
    5.7614    4.0855    0.0000 O   0  0  0  0  0  0  0  0  0  0  0  0
    6.2951   -2.2678    0.0000 O   0  0  0  0  0  0  0  0  0  0  0  0
    4.9109   -1.9344    0.0000 O   0  0  0  0  0  0  0  0  0  0  0  0
    0.7921    4.7859    0.0000 O   0  0  0  0  0  0  0  0  0  0  0  0
    2.3596   -1.1340    0.0000 O   0  0  0  0  0  0  0  0  0  0  0  0
    2.5264   -2.6347    0.0000 O   0  0  0  0  0  0  0  0  0  0  0  0
   -0.0417   -4.1522    0.0000 O   0  0  0  0  0  0  0  0  0  0  0  0
   -7.1955   -2.3345    0.0000 O   0  0  0  0  0  0  0  0  0  0  0  0
   -5.1778   -0.2335    0.0000 O   0  0  0  0  0  0  0  0  0  0  0  0
   -1.6426   -1.6342    0.0000 O   0  0  0  0  0  0  0  0  0  0  0  0
   -0.8255   -4.3524    0.0000 O   0  0  0  0  0  0  0  0  0  0  0  0
    3.0766    2.8682    0.0000 N   0  0  0  0  0  0  0  0  0  0  0  0
    4.6441    1.3173    0.0000 N   0  0  0  0  0  0  0  0  0  0  0  0
    2.9265    1.5342    0.0000 N   0  0  0  0  0  0  0  0  0  0  0  0
    5.8948   -0.8838    0.0000 N   0  0  0  0  0  0  0  0  0  0  0  0
    4.2773   -0.0667    0.0000 N   0  0  0  0  0  0  0  0  0  0  0  0
    2.9265   -4.0021    0.0000 N   0  0  0  0  0  0  0  0  0  0  0  0
    0.9422   -3.1017    0.0000 N   0  0  0  0  0  0  0  0  0  0  0  0
   -6.0115   -1.4341    0.0000 N   0  0  0  0  0  0  0  0  0  0  0  0
   -1.2423   -3.0016    0.0000 N   0  0  0  0  0  0  0  0  0  0  0  0
   -0.4585   -5.7197    0.0000 N   0  0  0  0  0  0  0  0  0  0  0  0
   -1.8427   -5.3529    0.0000 N   0  0  0  0  0  0  0  0  0  0  0  0
    3.4769    2.1678    0.0000 C   0  0  0  0  0  0  0  0  0  0  0  0
    4.3106    2.0677    0.0000 C   0  0  3  0  0  0  0  0  0  0  0  0
    2.1595    1.8843    0.0000 C   0  0  0  0  0  0  0  0  0  0  0  0
    4.7942    2.7515    0.0000 C   0  0  0  0  0  0  0  0  0  0  0  0
    2.2595    2.7014    0.0000 C   0  0  0  0  0  0  0  0  0  0  0  0
    1.4424    1.4675    0.0000 C   0  0  0  0  0  0  0  0  0  0  0  0
    4.0772    0.7171    0.0000 C   0  0  0  0  0  0  0  0  0  0  0  0
    5.4613    1.2173    0.0000 C   0  0  0  0  0  0  0  0  0  0  0  0
    3.4102    3.6353    0.0000 C   0  0  0  0  0  0  0  0  0  0  0  0
    5.7781    0.4668    0.0000 C   0  0  3  0  0  0  0  0  0  0  0  0
    0.7254    1.8843    0.0000 C   0  0  0  0  0  0  0  0  0  0  0  0
    1.4424    0.6337    0.0000 C   0  0  0  0  0  0  0  0  0  0  0  0
    4.4607    3.4852    0.0000 C   0  0  0  0  0  0  0  0  0  0  0  0
    5.6114    2.6514    0.0000 C   0  0  0  0  0  0  0  0  0  0  0  0
    2.9265    4.2856    0.0000 C   0  0  0  0  0  0  0  0  0  0  0  0
    6.5785    0.2668    0.0000 C   0  0  3  0  0  0  0  0  0  0  0  0
    5.3612   -0.2668    0.0000 C   0  0  0  0  0  0  0  0  0  0  0  0
    0.7421    0.2168    0.0000 C   0  0  0  0  0  0  0  0  0  0  0  0
    6.6452   -0.5670    0.0000 C   0  0  0  0  0  0  0  0  0  0  0  0
    0.0083    1.4509    0.0000 C   0  0  0  0  0  0  0  0  0  0  0  0
    4.9442    4.1688    0.0000 C   0  0  0  0  0  0  0  0  0  0  0  0
    6.1116    3.3351    0.0000 C   0  0  0  0  0  0  0  0  0  0  0  0
    0.0083    0.6170    0.0000 C   0  0  0  0  0  0  0  0  0  0  0  0
    2.1095    4.2189    0.0000 C   0  0  0  0  0  0  0  0  0  0  0  0
    5.7114   -1.6676    0.0000 C   0  0  0  0  0  0  0  0  0  0  0  0
    3.2433    5.0693    0.0000 C   0  0  0  0  0  0  0  0  0  0  0  0
    3.7104   -0.6837    0.0000 C   0  0  3  0  0  0  0  0  0  0  0  0
    1.6259    4.8859    0.0000 C   0  0  0  0  0  0  0  0  0  0  0  0
    2.7765    5.7197    0.0000 C   0  0  0  0  0  0  0  0  0  0  0  0
    1.9594    5.6364    0.0000 C   0  0  0  0  0  0  0  0  0  0  0  0
    2.9099   -0.5170    0.0000 C   0  0  0  0  0  0  0  0  0  0  0  0
    3.9771   -1.4675    0.0000 C   0  0  0  0  0  0  0  0  0  0  0  0
    6.0949   -3.0683    0.0000 C   0  0  0  0  0  0  0  0  0  0  0  0
    5.3112   -3.2850    0.0000 C   0  0  0  0  0  0  0  0  0  0  0  0
    4.7275   -2.7515    0.0000 C   0  0  0  0  0  0  0  0  0  0  0  0
    5.1110   -4.0855    0.0000 C   0  0  0  0  0  0  0  0  0  0  0  0
    3.6937   -3.7520    0.0000 C   0  0  0  0  0  0  0  0  0  0  0  0
    3.9271   -2.9682    0.0000 C   0  0  0  0  0  0  0  0  0  0  0  0
    4.3106   -4.3190    0.0000 C   0  0  0  0  0  0  0  0  0  0  0  0
    2.3262   -3.4519    0.0000 C   0  0  0  0  0  0  0  0  0  0  0  0
    1.5425   -3.6686    0.0000 C   0  0  3  0  0  0  0  0  0  0  0  0
    0.1584   -3.3185    0.0000 C   0  0  0  0  0  0  0  0  0  0  0  0
   -0.4753   -2.7682    0.0000 C   0  0  3  0  0  0  0  0  0  0  0  0
   -6.8286   -1.5509    0.0000 C   0  0  0  0  0  0  0  0  0  0  0  0
   -5.9448   -0.6170    0.0000 C   0  0  0  0  0  0  0  0  0  0  0  0
    1.3423   -4.4857    0.0000 C   0  0  0  0  0  0  0  0  0  0  0  0
   -0.2418   -1.9344    0.0000 C   0  0  0  0  0  0  0  0  0  0  0  0
   -7.2123   -0.8672    0.0000 C   0  0  0  0  0  0  0  0  0  0  0  0
   -6.6619   -0.2668    0.0000 C   0  0  0  0  0  0  0  0  0  0  0  0
   -5.4113   -2.0010    0.0000 C   0  0  0  0  0  0  0  0  0  0  0  0
   -1.8760   -2.4514    0.0000 C   0  0  0  0  0  0  0  0  0  0  0  0
    0.5587   -4.7025    0.0000 C   0  0  0  0  0  0  0  0  0  0  0  0
   -4.6274   -1.7843    0.0000 C   0  0  0  0  0  0  0  0  0  0  0  0
   -2.6597   -2.6514    0.0000 C   0  0  0  0  0  0  0  0  0  0  0  0
   -0.8422   -1.3840    0.0000 C   0  0  0  0  0  0  0  0  0  0  0  0
    0.5420   -1.7176    0.0000 C   0  0  0  0  0  0  0  0  0  0  0  0
   -4.0105   -2.3345    0.0000 C   0  0  0  0  0  0  0  0  0  0  0  0
   -3.2433   -2.1178    0.0000 C   0  0  0  0  0  0  0  0  0  0  0  0
    0.3418   -5.5029    0.0000 C   0  0  0  0  0  0  0  0  0  0  0  0
   -1.0755   -5.1527    0.0000 C   0  0  0  0  0  0  0  0  0  0  0  0
  1 37  1  0  0  0  0
 42  2  1  1  0  0  0
  3 44  1  0  0  0  0
  4 33  2  0  0  0  0
  5 47  1  0  0  0  0
  5 48  1  0  0  0  0
  6 51  1  0  0  0  0
  6 59  1  0  0  0  0
  7 51  2  0  0  0  0
  8 54  1  0  0  0  0
  9 57  1  0  0  0  0
 10 66  2  0  0  0  0
 11 68  2  0  0  0  0
 12 70  2  0  0  0  0
 13 71  2  0  0  0  0
 14 77  2  0  0  0  0
 15 86  2  0  0  0  0
 16 27  1  0  0  0  0
 16 31  1  0  0  0  0
 16 35  1  0  0  0  0
 28 17  1  1  0  0  0
 17 33  1  0  0  0  0
 17 34  1  0  0  0  0
 18 27  2  0  0  0  0
 18 29  1  0  0  0  0
 19 43  1  0  0  0  0
 19 45  1  0  0  0  0
 19 51  1  0  0  0  0
 20 33  1  0  0  0  0
 20 53  1  0  0  0  0
 21 63  1  0  0  0  0
 21 66  1  0  0  0  0
 67 22  1  6  0  0  0
 22 68  1  0  0  0  0
 23 70  1  0  0  0  0
 23 71  1  0  0  0  0
 23 76  1  0  0  0  0
 69 24  1  1  0  0  0
 24 77  1  0  0  0  0
 25 85  1  0  0  0  0
 25 86  1  0  0  0  0
 26 86  1  0  0  0  0
 27 28  1  0  0  0  0
 28 30  1  0  0  0  0
 29 31  2  0  0  0  0
 29 32  1  0  0  0  0
 30 39  1  0  0  0  0
 30 40  1  0  0  0  0
 32 37  2  0  0  0  0
 32 38  1  0  0  0  0
 36 34  1  1  0  0  0
 35 41  1  0  0  0  0
 36 42  1  0  0  0  0
 36 43  1  0  0  0  0
 37 46  1  0  0  0  0
 38 44  2  0  0  0  0
 39 47  1  0  0  0  0
 40 48  1  0  0  0  0
 41 50  2  0  0  0  0
 41 52  1  0  0  0  0
 42 45  1  0  0  0  0
 44 49  1  0  0  0  0
 46 49  2  0  0  0  0
 50 54  1  0  0  0  0
 52 55  2  0  0  0  0
 53 57  1  0  0  0  0
 53 58  1  1  0  0  0
 54 56  2  0  0  0  0
 55 56  1  0  0  0  0
 59 60  1  0  0  0  0
 60 61  2  0  0  0  0
 60 62  1  0  0  0  0
 61 64  1  0  0  0  0
 62 65  2  0  0  0  0
 63 64  2  0  0  0  0
 63 65  1  0  0  0  0
 66 67  1  0  0  0  0
 67 72  1  0  0  0  0
 68 69  1  0  0  0  0
 69 73  1  0  0  0  0
 70 74  1  0  0  0  0
 71 75  1  0  0  0  0
 72 78  1  0  0  0  0
 73 81  1  0  0  0  0
 73 82  1  0  0  0  0
 74 75  2  0  0  0  0
 76 79  1  0  0  0  0
 77 80  1  0  0  0  0
 78 85  1  0  0  0  0
 79 83  1  0  0  0  0
 80 84  1  0  0  0  0
 83 84  1  0  0  0  0
M  END
> <PUBCHEM_COMPOUND_ID_TYPE>
0

> <PUBCHEM_TOTAL_CHARGE>
0

> <PUBCHEM_SUBSTANCE_ID>
310942680

> <PUBCHEM_SUBSTANCE_VERSION>
1

> <PUBCHEM_EXT_DATASOURCE_NAME>
4488

> <PUBCHEM_EXT_DATASOURCE_REGID>
SCHEMBL16120726

> <PUBCHEM_SUBSTANCE_COMMENT>
InChI=1S/C60H76F3N11O12/c1-36(2)53(70-50(77)12-5-4-6-24-73-51(78)19-20-52(73)79)57(81)69-48(11-8-23-65-58(64)82)56(80)67-43-16-13-38(14-17-43)35-86-60(84)72-30-41(47(63)32-72)31-74(59(83)66-37(3)34-75)54(40-21-25-85-26-22-40)55-68-49(45-28-42(61)15-18-46(45)62)33-71(55)29-39-9-7-10-44(76)27-39/h7,9-10,13-20,27-28,33,36-37,40-41,47-48,53-54,75-76H,4-6,8,11-12,21-26,29-32,34-35H2,1-3H3,(H,66,83)(H,67,80)(H,69,81)(H,70,77)(H3,64,65,82)/t37-,41-,47-,48-,53-,54+/m0/s1
InChIKey=GSJMBQBBDVPMKG-ZTMGDLRGSA-N

> <PUBCHEM_SUBSTANCE_SYNONYM>
SCHEMBL16120726

> <PUBCHEM_XREF_EXT_ID>
SCHEMBL16120726

> <PUBCHEM_EXT_DATASOURCE_URL>
https://www.surechembl.org/

> <PUBCHEM_EXT_SUBSTANCE_URL>
https://www.surechembl.org/chemical/SCHEMBL16120726

> <PUBCHEM_CID_ASSOCIATIONS>
117609208  1

> <PUBCHEM_COORDINATE_TYPE>
1
3

> <PUBCHEM_BONDANNOTATIONS>
28  17  5
42  2  5
67  22  6
69  24  5
36  34  5
53  58  5

$$$$
