310931339
  -OEChem-07211613022D

 30 33  0     0  0  0  0  0  0999 V2000
    0.7145   -2.8875    0.0000 O   0  0  0  0  0  0  0  0  0  0  0  0
   -1.4681   -2.5519    0.0000 N   0  0  0  0  0  0  0  0  0  0  0  0
    0.0000   -1.6500    0.0000 N   0  0  0  0  0  0  0  0  0  0  0  0
    2.8579   -1.6500    0.0000 N   0  0  0  0  0  0  0  0  0  0  0  0
   -2.8452   -6.0229    0.0000 N   0  0  0  0  0  0  0  0  0  0  0  0
   -2.0202   -6.0229    0.0000 N   0  0  0  0  0  0  0  0  0  0  0  0
   -2.0202   -7.4519    0.0000 N   0  0  0  0  0  0  0  0  0  0  0  0
   -0.7827   -6.7374    0.0000 N   0  0  0  0  0  0  0  0  0  0  0  0
   -1.6077   -3.8795    0.0000 C   0  0  0  0  0  0  0  0  0  0  0  0
   -2.0202   -3.1650    0.0000 C   0  0  0  0  0  0  0  0  0  0  0  0
   -0.7145   -2.8875    0.0000 C   0  0  0  0  0  0  0  0  0  0  0  0
   -0.8007   -3.7080    0.0000 C   0  0  0  0  0  0  0  0  0  0  0  0
    0.0000   -2.4750    0.0000 C   0  0  0  0  0  0  0  0  0  0  0  0
   -2.0202   -4.5940    0.0000 C   0  0  0  0  0  0  0  0  0  0  0  0
   -2.8452   -4.5940    0.0000 C   0  0  0  0  0  0  0  0  0  0  0  0
   -2.8452   -3.1650    0.0000 C   0  0  0  0  0  0  0  0  0  0  0  0
    0.7145   -1.2375    0.0000 C   0  0  0  0  0  0  0  0  0  0  0  0
    2.1434   -1.2375    0.0000 C   0  0  0  0  0  0  0  0  0  0  0  0
    2.1434   -0.4125    0.0000 C   0  0  0  0  0  0  0  0  0  0  0  0
   -3.2577   -3.8795    0.0000 C   0  0  0  0  0  0  0  0  0  0  0  0
    1.4289   -1.6500    0.0000 C   0  0  0  0  0  0  0  0  0  0  0  0
   -3.2577   -5.3084    0.0000 C   0  0  0  0  0  0  0  0  0  0  0  0
    0.7145   -0.4125    0.0000 C   0  0  0  0  0  0  0  0  0  0  0  0
    1.4289    0.0000    0.0000 C   0  0  0  0  0  0  0  0  0  0  0  0
    2.8579    0.0000    0.0000 C   0  0  0  0  0  0  0  0  0  0  0  0
    3.5724   -1.2375    0.0000 C   0  0  0  0  0  0  0  0  0  0  0  0
    3.5724   -0.4125    0.0000 C   0  0  0  0  0  0  0  0  0  0  0  0
   -4.0827   -5.3084    0.0000 C   0  0  0  0  0  0  0  0  0  0  0  0
    4.2868   -1.6500    0.0000 C   0  0  0  0  0  0  0  0  0  0  0  0
   -1.6077   -6.7374    0.0000 C   0  0  0  0  0  0  0  0  0  0  0  0
  1 13  2  0  0  0  0
  2 10  1  0  0  0  0
  2 11  1  0  0  0  0
  3 13  1  0  0  0  0
  3 17  1  0  0  0  0
  4 18  1  0  0  0  0
  4 26  2  0  0  0  0
  5  6  1  0  0  0  0
  5 22  2  0  0  0  0
  6 30  1  0  0  0  0
  7 30  2  3  0  0  0
  8 30  1  0  0  0  0
  9 10  1  0  0  0  0
  9 12  1  0  0  0  0
  9 14  2  0  0  0  0
 10 16  2  0  0  0  0
 11 12  2  0  0  0  0
 11 13  1  0  0  0  0
 14 15  1  0  0  0  0
 15 20  2  0  0  0  0
 15 22  1  0  0  0  0
 16 20  1  0  0  0  0
 17 21  1  0  0  0  0
 17 23  2  0  0  0  0
 18 19  1  0  0  0  0
 18 21  2  0  0  0  0
 19 24  2  0  0  0  0
 19 25  1  0  0  0  0
 22 28  1  0  0  0  0
 23 24  1  0  0  0  0
 25 27  2  0  0  0  0
 26 27  1  0  0  0  0
 26 29  1  0  0  0  0
M  END
> <PUBCHEM_COMPOUND_ID_TYPE>
0

> <PUBCHEM_TOTAL_CHARGE>
0

> <PUBCHEM_SUBSTANCE_ID>
310931339

> <PUBCHEM_SUBSTANCE_VERSION>
1

> <PUBCHEM_EXT_DATASOURCE_NAME>
4488

> <PUBCHEM_EXT_DATASOURCE_REGID>
SCHEMBL16108659

> <PUBCHEM_SUBSTANCE_COMMENT>
InChI=1S/C22H21N7O/c1-12-3-4-14-5-7-17(11-19(14)25-12)26-21(30)20-10-16-9-15(6-8-18(16)27-20)13(2)28-29-22(23)24/h3-11,27H,1-2H3,(H,26,30)(H4,23,24,29)/b28-13-
InChIKey=COAHGSDUQNHEKV-QDTIIGTASA-N

> <PUBCHEM_SUBSTANCE_SYNONYM>
SCHEMBL16108659

> <PUBCHEM_XREF_EXT_ID>
SCHEMBL16108659

> <PUBCHEM_EXT_DATASOURCE_URL>
https://www.surechembl.org/

> <PUBCHEM_EXT_SUBSTANCE_URL>
https://www.surechembl.org/chemical/SCHEMBL16108659

> <PUBCHEM_CID_ASSOCIATIONS>
117600147  1

> <PUBCHEM_COORDINATE_TYPE>
1
3

$$$$
