310938890
  -OEChem-07211613022D

 23 24  0     1  0  0  0  0  0999 V2000
   -0.8545   -0.4052    0.0000 O   0  0  0  0  0  0  0  0  0  0  0  0
    2.0184   -0.4052    0.0000 O   0  0  0  0  0  0  0  0  0  0  0  0
   -2.2983   -0.4052    0.0000 O   0  0  0  0  0  0  0  0  0  0  0  0
   -2.3130   -2.0699    0.0000 N   0  0  0  0  0  0  0  0  0  0  0  0
   -1.5911   -1.6574    0.0000 C   0  0  3  0  0  0  0  0  0  0  0  0
   -0.1326   -1.6427    0.0000 C   0  0  0  0  0  0  0  0  0  0  0  0
   -1.5469   -0.7734    0.0000 C   0  0  0  0  0  0  0  0  0  0  0  0
   -0.8397   -2.0552    0.0000 C   0  0  0  0  0  0  0  0  0  0  0  0
    1.3112   -0.8177    0.0000 C   0  0  0  0  0  0  0  0  0  0  0  0
   -0.1326   -0.8177    0.0000 C   0  0  0  0  0  0  0  0  0  0  0  0
    0.5893   -2.0552    0.0000 C   0  0  0  0  0  0  0  0  0  0  0  0
    0.5745   -0.4199    0.0000 C   0  0  0  0  0  0  0  0  0  0  0  0
    1.2965   -1.6427    0.0000 C   0  0  0  0  0  0  0  0  0  0  0  0
   -0.1326    0.8471    0.0000 C   0  0  0  0  0  0  0  0  0  0  0  0
   -0.8397    0.4346    0.0000 C   0  0  0  0  0  0  0  0  0  0  0  0
    0.5893    0.4346    0.0000 C   0  0  0  0  0  0  0  0  0  0  0  0
   -0.1326    1.6721    0.0000 C   0  0  0  0  0  0  0  0  0  0  0  0
    1.2965    0.8471    0.0000 C   0  0  0  0  0  0  0  0  0  0  0  0
    0.5598    2.0699    0.0000 C   0  0  0  0  0  0  0  0  0  0  0  0
    1.2965    1.6574    0.0000 C   0  0  0  0  0  0  0  0  0  0  0  0
   -3.0202   -1.6721    0.0000 C   0  0  0  0  0  0  0  0  0  0  0  0
    2.7108   -0.8177    0.0000 C   0  0  0  0  0  0  0  0  0  0  0  0
    3.0202   -0.4935    0.0000 C   0  0  0  0  0  0  0  0  0  0  0  0
  1  7  1  0  0  0  0
  1 15  1  0  0  0  0
  2  9  1  0  0  0  0
  2 22  1  0  0  0  0
  3  7  2  0  0  0  0
  5  4  1  6  0  0  0
  4 21  1  0  0  0  0
  5  7  1  0  0  0  0
  5  8  1  0  0  0  0
  6  8  1  0  0  0  0
  6 10  2  0  0  0  0
  6 11  1  0  0  0  0
  9 12  2  0  0  0  0
  9 13  1  0  0  0  0
 10 12  1  0  0  0  0
 11 13  2  0  0  0  0
 14 15  1  0  0  0  0
 14 16  2  0  0  0  0
 14 17  1  0  0  0  0
 16 18  1  0  0  0  0
 17 19  2  0  0  0  0
 18 20  2  0  0  0  0
 19 20  1  0  0  0  0
 22 23  1  0  0  0  0
M  END
> <PUBCHEM_COMPOUND_ID_TYPE>
0

> <PUBCHEM_TOTAL_CHARGE>
0

> <PUBCHEM_SUBSTANCE_ID>
310938890

> <PUBCHEM_SUBSTANCE_VERSION>
1

> <PUBCHEM_EXT_DATASOURCE_NAME>
4488

> <PUBCHEM_EXT_DATASOURCE_REGID>
SCHEMBL16116809

> <PUBCHEM_SUBSTANCE_COMMENT>
InChI=1S/C19H23NO3/c1-3-22-17-11-9-15(10-12-17)13-18(20-2)19(21)23-14-16-7-5-4-6-8-16/h4-12,18,20H,3,13-14H2,1-2H3/t18-/m0/s1
InChIKey=NYJFFEMARDYCSH-SFHVURJKSA-N

> <PUBCHEM_SUBSTANCE_SYNONYM>
SCHEMBL16116809

> <PUBCHEM_XREF_EXT_ID>
SCHEMBL16116809

> <PUBCHEM_EXT_DATASOURCE_URL>
https://www.surechembl.org/

> <PUBCHEM_EXT_SUBSTANCE_URL>
https://www.surechembl.org/chemical/SCHEMBL16116809

> <PUBCHEM_CID_ASSOCIATIONS>
117606288  1

> <PUBCHEM_COORDINATE_TYPE>
1
3

> <PUBCHEM_BONDANNOTATIONS>
23  22  3
5  4  6

$$$$
