310940375
  -OEChem-07211613022D

 16 16  0     0  0  0  0  0  0999 V2000
   -1.4852   -0.5553    0.0000 O   0  0  0  0  0  0  0  0  0  0  0  0
    0.2408   -0.5954    0.0000 O   0  0  0  0  0  0  0  0  0  0  0  0
   -1.4852    1.8933    0.0000 O   0  0  0  0  0  0  0  0  0  0  0  0
   -0.4148   -1.8933    0.0000 O   0  0  0  0  0  0  0  0  0  0  0  0
   -2.2078   -0.1271    0.0000 C   0  0  0  0  0  0  0  0  0  0  0  0
   -0.7895   -0.1271    0.0000 C   0  0  0  0  0  0  0  0  0  0  0  0
   -2.1810    0.6891    0.0000 C   0  0  0  0  0  0  0  0  0  0  0  0
   -1.4986    1.0771    0.0000 C   0  0  0  0  0  0  0  0  0  0  0  0
   -0.7761    0.6891    0.0000 C   0  0  0  0  0  0  0  0  0  0  0  0
    0.2944   -1.4786    0.0000 C   0  0  0  0  0  0  0  0  0  0  0  0
   -3.0105   -0.0067    0.0000 C   0  0  0  0  0  0  0  0  0  0  0  0
   -2.4620   -0.9165    0.0000 C   0  0  0  0  0  0  0  0  0  0  0  0
    1.2979   -0.6088    0.0000 C   0  0  0  0  0  0  0  0  0  0  0  0
    1.7261    0.1004    0.0000 C   0  0  0  0  0  0  0  0  0  0  0  0
    2.5958    0.1271    0.0000 C   0  0  0  0  0  0  0  0  0  0  0  0
    3.0105    0.8630    0.0000 C   0  0  0  0  0  0  0  0  0  0  0  0
  1  5  1  0  0  0  0
  1  6  1  0  0  0  0
  2  6  1  0  0  0  0
  2 10  1  0  0  0  0
  3  8  2  0  0  0  0
  4 10  2  0  0  0  0
  5  7  1  0  0  0  0
  5 11  1  0  0  0  0
  5 12  1  0  0  0  0
  6  9  2  0  0  0  0
  7  8  1  0  0  0  0
  8  9  1  0  0  0  0
 10 13  1  0  0  0  0
 13 14  1  0  0  0  0
 14 15  1  0  0  0  0
 15 16  1  0  0  0  0
M  END
> <PUBCHEM_COMPOUND_ID_TYPE>
0

> <PUBCHEM_TOTAL_CHARGE>
0

> <PUBCHEM_SUBSTANCE_ID>
310940375

> <PUBCHEM_SUBSTANCE_VERSION>
1

> <PUBCHEM_EXT_DATASOURCE_NAME>
4488

> <PUBCHEM_EXT_DATASOURCE_REGID>
SCHEMBL16118321

> <PUBCHEM_SUBSTANCE_COMMENT>
InChI=1S/C12H18O4/c1-4-5-6-10(14)15-11-7-9(13)8-12(2,3)16-11/h7H,4-6,8H2,1-3H3
InChIKey=ILNXIIGGNFQBHO-UHFFFAOYSA-N

> <PUBCHEM_SUBSTANCE_SYNONYM>
SCHEMBL16118321

> <PUBCHEM_XREF_EXT_ID>
SCHEMBL16118321

> <PUBCHEM_EXT_DATASOURCE_URL>
https://www.surechembl.org/

> <PUBCHEM_EXT_SUBSTANCE_URL>
https://www.surechembl.org/chemical/SCHEMBL16118321

> <PUBCHEM_CID_ASSOCIATIONS>
117607409  1

> <PUBCHEM_COORDINATE_TYPE>
1
3

$$$$
