310931481
  -OEChem-07211613022D

 32 35  0     0  0  0  0  0  0999 V2000
    4.0183   -2.1223    0.0000 O   0  0  0  0  0  0  0  0  0  0  0  0
    8.4894   -2.2072    0.0000 O   0  0  0  0  0  0  0  0  0  0  0  0
    4.9238   -0.9621    0.0000 N   0  0  0  0  0  0  0  0  0  0  0  0
    4.8390   -0.1415    0.0000 N   0  0  0  0  0  0  0  0  0  0  0  0
    6.3388   -0.9621    0.0000 N   0  0  0  0  0  0  0  0  0  0  0  0
    7.7819   -3.4524    0.0000 N   0  0  0  0  0  0  0  0  0  0  0  0
    5.6313   -4.6692    0.0000 N   0  0  0  0  0  0  0  0  0  0  0  0
    0.0000   -1.8394    0.0000 N   0  0  0  0  0  0  0  0  0  0  0  0
    4.1881   -1.3017    0.0000 C   0  0  0  0  0  0  0  0  0  0  0  0
    5.6313   -1.3866    0.0000 C   0  0  0  0  0  0  0  0  0  0  0  0
    3.5939   -0.7075    0.0000 C   0  0  0  0  0  0  0  0  0  0  0  0
    7.0462   -2.2072    0.0000 C   0  0  0  0  0  0  0  0  0  0  0  0
    6.3388   -2.6034    0.0000 C   0  0  0  0  0  0  0  0  0  0  0  0
    2.8015   -0.7923    0.0000 C   0  0  0  0  0  0  0  0  0  0  0  0
    5.6313   -2.2072    0.0000 C   0  0  0  0  0  0  0  0  0  0  0  0
    4.0183    0.0000    0.0000 C   0  0  0  0  0  0  0  0  0  0  0  0
    7.7819   -2.6034    0.0000 C   0  0  0  0  0  0  0  0  0  0  0  0
    7.0462   -1.3866    0.0000 C   0  0  0  0  0  0  0  0  0  0  0  0
    7.0745   -3.8485    0.0000 C   0  0  0  0  0  0  0  0  0  0  0  0
    2.4619   -1.5564    0.0000 C   0  0  0  0  0  0  0  0  0  0  0  0
    2.2922   -0.1415    0.0000 C   0  0  0  0  0  0  0  0  0  0  0  0
    6.3388   -3.4241    0.0000 C   0  0  0  0  0  0  0  0  0  0  0  0
    1.1602   -0.9904    0.0000 C   0  0  0  0  0  0  0  0  0  0  0  0
    1.6413   -1.6413    0.0000 C   0  0  0  0  0  0  0  0  0  0  0  0
    1.4715   -0.2547    0.0000 C   0  0  0  0  0  0  0  0  0  0  0  0
    6.5085   -3.5939    0.0000 C   0  0  0  0  0  0  0  0  0  0  0  0
    7.0745   -4.6692    0.0000 C   0  0  0  0  0  0  0  0  0  0  0  0
    8.4894   -3.8485    0.0000 C   0  0  0  0  0  0  0  0  0  0  0  0
    5.6313   -3.8485    0.0000 C   0  0  0  0  0  0  0  0  0  0  0  0
    6.3388   -5.0937    0.0000 C   0  0  0  0  0  0  0  0  0  0  0  0
    0.3396   -1.0754    0.0000 C   0  0  0  0  0  0  0  0  0  0  0  0
    4.9238   -5.0937    0.0000 C   0  0  0  0  0  0  0  0  0  0  0  0
  1  9  1  0  0  0  0
  2 17  2  0  0  0  0
  3  4  1  0  0  0  0
  3  9  1  0  0  0  0
  3 10  1  0  0  0  0
  4 16  2  0  0  0  0
  5 10  2  0  0  0  0
  5 18  1  0  0  0  0
  6 17  1  0  0  0  0
  6 19  1  0  0  0  0
  6 28  1  0  0  0  0
  7 29  1  0  0  0  0
  7 30  1  0  0  0  0
  7 32  1  0  0  0  0
  8 31  3  0  0  0  0
  9 11  2  0  0  0  0
 10 15  1  0  0  0  0
 11 14  1  0  0  0  0
 11 16  1  0  0  0  0
 12 13  1  0  0  0  0
 12 17  1  0  0  0  0
 12 18  2  0  0  0  0
 13 15  2  0  0  0  0
 13 22  1  0  0  0  0
 14 20  2  0  0  0  0
 14 21  1  0  0  0  0
 19 26  1  0  0  0  0
 19 27  1  0  0  0  0
 20 24  1  0  0  0  0
 21 25  2  0  0  0  0
 23 24  2  0  0  0  0
 23 25  1  0  0  0  0
 23 31  1  0  0  0  0
 26 29  1  0  0  0  0
 27 30  1  0  0  0  0
M  END
> <PUBCHEM_COMPOUND_ID_TYPE>
0

> <PUBCHEM_TOTAL_CHARGE>
0

> <PUBCHEM_SUBSTANCE_ID>
310931481

> <PUBCHEM_SUBSTANCE_VERSION>
1

> <PUBCHEM_EXT_DATASOURCE_NAME>
4488

> <PUBCHEM_EXT_DATASOURCE_REGID>
SCHEMBL16108806

> <PUBCHEM_SUBSTANCE_COMMENT>
InChI=1S/C24H26N6O2/c1-16-12-22(26-14-20(16)23(31)29(3)19-8-10-28(2)11-9-19)30-24(32)21(15-27-30)18-6-4-17(13-25)5-7-18/h4-7,12,14-15,19,32H,8-11H2,1-3H3
InChIKey=VLQQXZJQBXQLOL-UHFFFAOYSA-N

> <PUBCHEM_SUBSTANCE_SYNONYM>
SCHEMBL16108806

> <PUBCHEM_XREF_EXT_ID>
SCHEMBL16108806

> <PUBCHEM_EXT_DATASOURCE_URL>
https://www.surechembl.org/

> <PUBCHEM_EXT_SUBSTANCE_URL>
https://www.surechembl.org/chemical/SCHEMBL16108806

> <PUBCHEM_CID_ASSOCIATIONS>
117600246  1

> <PUBCHEM_COORDINATE_TYPE>
1
3

$$$$
