310931854
  -OEChem-07211613022D

 13 14  0     0  0  0  0  0  0999 V2000
    3.6256   -0.1813    0.0000 O   0  0  0  0  0  0  0  0  0  0  0  0
    0.7251    0.0000    0.0000 O   0  0  0  0  0  0  0  0  0  0  0  0
    2.8510   -0.4120    0.0000 C   0  0  0  0  0  0  0  0  0  0  0  0
    2.8510   -1.2854    0.0000 C   0  0  0  0  0  0  0  0  0  0  0  0
    4.1199   -0.8570    0.0000 C   0  0  0  0  0  0  0  0  0  0  0  0
    3.6256   -1.5161    0.0000 C   0  0  0  0  0  0  0  0  0  0  0  0
    2.1258   -0.0165    0.0000 C   0  0  0  0  0  0  0  0  0  0  0  0
    1.4337   -0.4120    0.0000 C   0  0  0  0  0  0  0  0  0  0  0  0
    2.1258   -1.6809    0.0000 C   0  0  0  0  0  0  0  0  0  0  0  0
    1.4337   -1.2854    0.0000 C   0  0  0  0  0  0  0  0  0  0  0  0
    4.9439   -0.8570    0.0000 C   0  0  0  0  0  0  0  0  0  0  0  0
    4.4989   -0.1154    0.0000 C   0  0  0  0  0  0  0  0  0  0  0  0
    0.0000   -0.4120    0.0000 C   0  0  0  0  0  0  0  0  0  0  0  0
  1  3  1  0  0  0  0
  1  5  1  0  0  0  0
  2  8  1  0  0  0  0
  2 13  1  0  0  0  0
  3  4  2  0  0  0  0
  3  7  1  0  0  0  0
  4  6  1  0  0  0  0
  4  9  1  0  0  0  0
  5  6  1  0  0  0  0
  5 11  1  0  0  0  0
  5 12  1  0  0  0  0
  7  8  2  0  0  0  0
  8 10  1  0  0  0  0
  9 10  2  0  0  0  0
M  END
> <PUBCHEM_COMPOUND_ID_TYPE>
0

> <PUBCHEM_TOTAL_CHARGE>
0

> <PUBCHEM_SUBSTANCE_ID>
310931854

> <PUBCHEM_SUBSTANCE_VERSION>
1

> <PUBCHEM_EXT_DATASOURCE_NAME>
4488

> <PUBCHEM_EXT_DATASOURCE_REGID>
SCHEMBL16109188

> <PUBCHEM_SUBSTANCE_COMMENT>
InChI=1S/C11H14O2/c1-11(2)7-8-4-5-9(12-3)6-10(8)13-11/h4-6H,7H2,1-3H3
InChIKey=ABAMCAXTFZBYFE-UHFFFAOYSA-N

> <PUBCHEM_SUBSTANCE_SYNONYM>
SCHEMBL16109188

> <PUBCHEM_XREF_EXT_ID>
SCHEMBL16109188

> <PUBCHEM_EXT_DATASOURCE_URL>
https://www.surechembl.org/

> <PUBCHEM_EXT_SUBSTANCE_URL>
https://www.surechembl.org/chemical/SCHEMBL16109188

> <PUBCHEM_CID_ASSOCIATIONS>
102042545  1

> <PUBCHEM_COORDINATE_TYPE>
1
3

$$$$
