310939928
  -OEChem-07211613022D

 27 29  0     0  0  0  0  0  0999 V2000
    1.4289    4.7084    0.0000 Cl  0  0  0  0  0  0  0  0  0  0  0  0
    0.0000   -3.8834    0.0000 O   0  0  0  0  0  0  0  0  0  0  0  0
    0.0000    2.2334    0.0000 O   0  0  0  0  0  0  0  0  0  0  0  0
   -1.4289    4.7084    0.0000 O   0  0  0  0  0  0  0  0  0  0  0  0
   -0.7145   -0.6541    0.0000 N   0  0  0  0  0  0  0  0  0  0  0  0
   -0.7145   -2.6459    0.0000 N   0  0  0  0  0  0  0  0  0  0  0  0
   -0.7145    0.9959    0.0000 N   0  0  0  0  0  0  0  0  0  0  0  0
   -1.4289    3.0584    0.0000 N   0  0  0  0  0  0  0  0  0  0  0  0
   -0.7145   -1.4791    0.0000 C   0  0  0  0  0  0  0  0  0  0  0  0
   -1.2978   -2.0625    0.0000 C   0  0  0  0  0  0  0  0  0  0  0  0
   -0.1311   -2.0625    0.0000 C   0  0  0  0  0  0  0  0  0  0  0  0
   -0.7145   -3.4709    0.0000 C   0  0  0  0  0  0  0  0  0  0  0  0
   -1.4289   -0.2416    0.0000 C   0  0  0  0  0  0  0  0  0  0  0  0
    0.0000   -0.2416    0.0000 C   0  0  0  0  0  0  0  0  0  0  0  0
   -0.7145    3.4709    0.0000 C   0  0  0  0  0  0  0  0  0  0  0  0
   -0.7145    1.8209    0.0000 C   0  0  0  0  0  0  0  0  0  0  0  0
   -1.4289    0.5834    0.0000 C   0  0  0  0  0  0  0  0  0  0  0  0
    0.0000    0.5834    0.0000 C   0  0  0  0  0  0  0  0  0  0  0  0
   -0.7145    4.2959    0.0000 C   0  0  0  0  0  0  0  0  0  0  0  0
    0.7145    3.4709    0.0000 C   0  0  0  0  0  0  0  0  0  0  0  0
    0.7145    4.2959    0.0000 C   0  0  0  0  0  0  0  0  0  0  0  0
    0.0000    3.0584    0.0000 C   0  0  0  0  0  0  0  0  0  0  0  0
   -1.4289    2.2334    0.0000 C   0  0  0  0  0  0  0  0  0  0  0  0
    0.0000    4.7084    0.0000 C   0  0  0  0  0  0  0  0  0  0  0  0
   -1.4289   -3.8834    0.0000 C   0  0  0  0  0  0  0  0  0  0  0  0
    1.4289    3.0584    0.0000 C   0  0  0  0  0  0  0  0  0  0  0  0
   -1.4289   -4.7084    0.0000 C   0  0  0  0  0  0  0  0  0  0  0  0
  1 21  1  0  0  0  0
  2 12  2  0  0  0  0
  3 16  2  0  0  0  0
  4 19  1  0  0  0  0
  5  9  1  0  0  0  0
  5 13  1  0  0  0  0
  5 14  1  0  0  0  0
  6 10  1  0  0  0  0
  6 11  1  0  0  0  0
  6 12  1  0  0  0  0
  7 16  1  0  0  0  0
  7 17  1  0  0  0  0
  7 18  1  0  0  0  0
  8 15  1  0  0  0  0
  8 23  1  0  0  0  0
  9 10  1  0  0  0  0
  9 11  1  0  0  0  0
 12 25  1  0  0  0  0
 13 17  1  0  0  0  0
 14 18  1  0  0  0  0
 15 19  1  0  0  0  0
 15 22  2  0  0  0  0
 16 23  1  0  0  0  0
 19 24  2  0  0  0  0
 20 21  2  0  0  0  0
 20 22  1  0  0  0  0
 20 26  1  0  0  0  0
 21 24  1  0  0  0  0
 25 27  2  0  0  0  0
M  END
> <PUBCHEM_COMPOUND_ID_TYPE>
0

> <PUBCHEM_TOTAL_CHARGE>
0

> <PUBCHEM_SUBSTANCE_ID>
310939928

> <PUBCHEM_SUBSTANCE_VERSION>
1

> <PUBCHEM_EXT_DATASOURCE_NAME>
4488

> <PUBCHEM_EXT_DATASOURCE_REGID>
SCHEMBL16117858

> <PUBCHEM_SUBSTANCE_COMMENT>
InChI=1S/C19H25ClN4O3/c1-3-18(26)24-11-14(12-24)22-4-6-23(7-5-22)19(27)10-21-16-8-13(2)15(20)9-17(16)25/h3,8-9,14,21,25H,1,4-7,10-12H2,2H3
InChIKey=NCNFUYOVFARQBL-UHFFFAOYSA-N

> <PUBCHEM_SUBSTANCE_SYNONYM>
SCHEMBL16117858

> <PUBCHEM_XREF_EXT_ID>
SCHEMBL16117858

> <PUBCHEM_EXT_DATASOURCE_URL>
https://www.surechembl.org/

> <PUBCHEM_EXT_SUBSTANCE_URL>
https://www.surechembl.org/chemical/SCHEMBL16117858

> <PUBCHEM_CID_ASSOCIATIONS>
86279885  1

> <PUBCHEM_COORDINATE_TYPE>
1
3

$$$$
