310928853
  -OEChem-07211613022D

 17 18  0     0  0  0  0  0  0999 V2000
   -1.5102    0.4168    0.0000 O   0  0  0  0  0  0  0  0  0  0  0  0
   -0.8427   -0.7392    0.0000 O   0  0  0  0  0  0  0  0  0  0  0  0
    2.1014    1.7312    0.0000 N   0  0  0  0  0  0  0  0  0  0  0  0
   -2.0622   -0.1963    0.0000 C   0  0  0  0  0  0  0  0  0  0  0  0
   -1.6497   -0.9108    0.0000 C   0  0  0  0  0  0  0  0  0  0  0  0
   -0.0420    0.4937    0.0000 C   0  0  0  0  0  0  0  0  0  0  0  0
   -2.8159   -0.5319    0.0000 C   0  0  0  0  0  0  0  0  0  0  0  0
   -2.7296    0.2886    0.0000 C   0  0  0  0  0  0  0  0  0  0  0  0
   -1.5635   -1.7312    0.0000 C   0  0  0  0  0  0  0  0  0  0  0  0
   -2.3171   -1.3957    0.0000 C   0  0  0  0  0  0  0  0  0  0  0  0
    0.6725    0.0812    0.0000 C   0  0  0  0  0  0  0  0  0  0  0  0
   -0.0420    1.3187    0.0000 C   0  0  0  0  0  0  0  0  0  0  0  0
    1.3869    1.3187    0.0000 C   0  0  0  0  0  0  0  0  0  0  0  0
    1.3869    0.4937    0.0000 C   0  0  0  0  0  0  0  0  0  0  0  0
    0.6725    1.7312    0.0000 C   0  0  0  0  0  0  0  0  0  0  0  0
    2.8159    1.3187    0.0000 C   0  0  0  0  0  0  0  0  0  0  0  0
   -0.7565    0.0812    0.0000 B   0  0  0  0  0  0  0  0  0  0  0  0
  1  4  1  0  0  0  0
  1 17  1  0  0  0  0
  2  5  1  0  0  0  0
  2 17  1  0  0  0  0
  3 13  1  0  0  0  0
  3 16  1  0  0  0  0
  4  5  1  0  0  0  0
  4  7  1  0  0  0  0
  4  8  1  0  0  0  0
  5  9  1  0  0  0  0
  5 10  1  0  0  0  0
  6 11  2  0  0  0  0
  6 12  1  0  0  0  0
  6 17  1  0  0  0  0
 11 14  1  0  0  0  0
 12 15  2  0  0  0  0
 13 14  2  0  0  0  0
 13 15  1  0  0  0  0
M  END
> <PUBCHEM_COMPOUND_ID_TYPE>
0

> <PUBCHEM_TOTAL_CHARGE>
0

> <PUBCHEM_SUBSTANCE_ID>
310928853

> <PUBCHEM_SUBSTANCE_VERSION>
1

> <PUBCHEM_EXT_DATASOURCE_NAME>
11752

> <PUBCHEM_EXT_DATASOURCE_REGID>
BD231812

> <PUBCHEM_SUBSTANCE_SYNONYM>
845870-55-5
N-Methyl-4-(4,4,5,5-tetramethyl-1,3,2-dioxaborolan-2-yl)aniline

> <PUBCHEM_GENERIC_REGISTRY_NAME>
845870-55-5

> <PUBCHEM_XREF_EXT_ID>
BD231812

> <PUBCHEM_EXT_DATASOURCE_URL>
http://www.bidepharmatech.com/en/index.html

> <PUBCHEM_EXT_SUBSTANCE_URL>
http://www.bidepharmatech.com/en/goodsview_goodscode_BD231812.html

> <PUBCHEM_CID_ASSOCIATIONS>
11957892  1

> <PUBCHEM_COORDINATE_TYPE>
1
3

$$$$
