310933097
  -OEChem-07211613022D

 32 35  0     0  0  0  0  0  0999 V2000
    3.5815   -2.1490    0.0000 O   0  0  0  0  0  0  0  0  0  0  0  0
    8.0500   -2.2172    0.0000 O   0  0  0  0  0  0  0  0  0  0  0  0
   10.2330   -2.6265    0.0000 O   0  0  0  0  0  0  0  0  0  0  0  0
    4.4684   -0.9892    0.0000 N   0  0  0  0  0  0  0  0  0  0  0  0
    4.4002   -0.1706    0.0000 N   0  0  0  0  0  0  0  0  0  0  0  0
    5.9010   -0.9892    0.0000 N   0  0  0  0  0  0  0  0  0  0  0  0
    0.7163   -0.9892    0.0000 N   0  0  0  0  0  0  0  0  0  0  0  0
    0.8528   -2.3877    0.0000 N   0  0  0  0  0  0  0  0  0  0  0  0
    7.3337   -3.4792    0.0000 N   0  0  0  0  0  0  0  0  0  0  0  0
    3.7180   -1.3303    0.0000 C   0  0  0  0  0  0  0  0  0  0  0  0
    3.1722   -0.7163    0.0000 C   0  0  0  0  0  0  0  0  0  0  0  0
    5.1847   -1.3985    0.0000 C   0  0  0  0  0  0  0  0  0  0  0  0
    2.3536   -0.8186    0.0000 C   0  0  0  0  0  0  0  0  0  0  0  0
    3.5815    0.0000    0.0000 C   0  0  0  0  0  0  0  0  0  0  0  0
    2.0125   -1.6032    0.0000 C   0  0  0  0  0  0  0  0  0  0  0  0
    5.1847   -2.2172    0.0000 C   0  0  0  0  0  0  0  0  0  0  0  0
    1.8760   -0.1706    0.0000 C   0  0  0  0  0  0  0  0  0  0  0  0
    1.1938   -1.6373    0.0000 C   0  0  0  0  0  0  0  0  0  0  0  0
    6.6174   -2.2172    0.0000 C   0  0  0  0  0  0  0  0  0  0  0  0
    6.6174   -1.3985    0.0000 C   0  0  0  0  0  0  0  0  0  0  0  0
    5.9010   -2.6265    0.0000 C   0  0  0  0  0  0  0  0  0  0  0  0
    1.0233   -0.2046    0.0000 C   0  0  0  0  0  0  0  0  0  0  0  0
    7.3337   -2.6265    0.0000 C   0  0  0  0  0  0  0  0  0  0  0  0
    4.1956   -2.6606    0.0000 C   0  0  0  0  0  0  0  0  0  0  0  0
    8.0500   -3.8885    0.0000 C   0  0  0  0  0  0  0  0  0  0  0  0
    0.0000   -2.4900    0.0000 C   0  0  0  0  0  0  0  0  0  0  0  0
    1.3303   -3.0699    0.0000 C   0  0  0  0  0  0  0  0  0  0  0  0
    8.8004   -3.4792    0.0000 C   0  0  0  0  0  0  0  0  0  0  0  0
    9.5167   -3.8544    0.0000 C   0  0  0  0  0  0  0  0  0  0  0  0
    8.8004   -2.6265    0.0000 C   0  0  0  0  0  0  0  0  0  0  0  0
   10.2330   -3.4451    0.0000 C   0  0  0  0  0  0  0  0  0  0  0  0
    9.5167   -2.2172    0.0000 C   0  0  0  0  0  0  0  0  0  0  0  0
  1 10  1  0  0  0  0
  1 24  1  0  0  0  0
  2 23  2  0  0  0  0
  3 31  1  0  0  0  0
  3 32  1  0  0  0  0
  4  5  1  0  0  0  0
  4 10  1  0  0  0  0
  4 12  1  0  0  0  0
  5 14  2  0  0  0  0
  6 12  2  0  0  0  0
  6 20  1  0  0  0  0
  7 18  1  0  0  0  0
  7 22  2  0  0  0  0
  8 18  1  0  0  0  0
  8 26  1  0  0  0  0
  8 27  1  0  0  0  0
  9 23  1  0  0  0  0
  9 25  1  0  0  0  0
 10 11  2  0  0  0  0
 11 13  1  0  0  0  0
 11 14  1  0  0  0  0
 12 16  1  0  0  0  0
 13 15  1  0  0  0  0
 13 17  2  0  0  0  0
 15 18  2  0  0  0  0
 16 21  2  0  0  0  0
 17 22  1  0  0  0  0
 19 20  2  0  0  0  0
 19 21  1  0  0  0  0
 19 23  1  0  0  0  0
 25 28  1  0  0  0  0
 28 29  1  0  0  0  0
 28 30  1  0  0  0  0
 29 31  1  0  0  0  0
 30 32  1  0  0  0  0
M  END
> <PUBCHEM_COMPOUND_ID_TYPE>
0

> <PUBCHEM_TOTAL_CHARGE>
0

> <PUBCHEM_SUBSTANCE_ID>
310933097

> <PUBCHEM_SUBSTANCE_VERSION>
1

> <PUBCHEM_EXT_DATASOURCE_NAME>
4488

> <PUBCHEM_EXT_DATASOURCE_REGID>
SCHEMBL16110499

> <PUBCHEM_SUBSTANCE_COMMENT>
InChI=1S/C23H28N6O3/c1-28(2)21-12-17(6-9-24-21)19-15-27-29(23(19)31-3)20-5-4-18(14-25-20)22(30)26-13-16-7-10-32-11-8-16/h4-6,9,12,14-16H,7-8,10-11,13H2,1-3H3,(H,26,30)
InChIKey=VZVMORYSPCXVBW-UHFFFAOYSA-N

> <PUBCHEM_SUBSTANCE_SYNONYM>
SCHEMBL16110499

> <PUBCHEM_XREF_EXT_ID>
SCHEMBL16110499

> <PUBCHEM_EXT_DATASOURCE_URL>
https://www.surechembl.org/

> <PUBCHEM_EXT_SUBSTANCE_URL>
https://www.surechembl.org/chemical/SCHEMBL16110499

> <PUBCHEM_CID_ASSOCIATIONS>
117601554  1

> <PUBCHEM_COORDINATE_TYPE>
1
3

$$$$
