310947341
  -OEChem-07211613022D

 29 32  0     1  0  0  0  0  0999 V2000
   -4.9095   -0.3059    0.0000 Br  0  0  0  0  0  0  0  0  0  0  0  0
   -0.6227    2.1691    0.0000 O   0  0  0  0  0  0  0  0  0  0  0  0
    2.3053   -0.1483    0.0000 N   0  0  0  0  0  0  0  0  0  0  0  0
    2.7903    0.5191    0.0000 N   0  0  0  0  0  0  0  0  0  0  0  0
   -1.3372    0.9316    0.0000 N   0  0  0  0  0  0  0  0  0  0  0  0
    4.6960   -0.7889    0.0000 N   0  0  0  0  0  0  0  0  0  0  0  0
    1.5207    0.1066    0.0000 C   0  0  0  0  0  0  0  0  0  0  0  0
    1.5207    0.9316    0.0000 C   0  0  0  0  0  0  0  0  0  0  0  0
    2.3053    1.1866    0.0000 C   0  0  0  0  0  0  0  0  0  0  0  0
    0.0918    0.9316    0.0000 C   0  0  0  0  0  0  0  0  0  0  0  0
    0.8062    1.3441    0.0000 C   0  0  0  0  0  0  0  0  0  0  0  0
    0.8062   -0.3059    0.0000 C   0  0  0  0  0  0  0  0  0  0  0  0
    0.0918    0.1066    0.0000 C   0  0  0  0  0  0  0  0  0  0  0  0
    2.5189   -0.9452    0.0000 C   0  0  0  0  0  0  0  0  0  0  0  0
   -0.6227    1.3441    0.0000 C   0  0  0  0  0  0  0  0  0  0  0  0
    3.3157   -1.1587    0.0000 C   0  0  0  0  0  0  0  0  0  0  0  0
    2.7178    1.9010    0.0000 C   0  0  0  0  0  0  0  0  0  0  0  0
   -2.0516    1.3441    0.0000 C   0  0  3  0  0  0  0  0  0  0  0  0
   -2.7661    0.9316    0.0000 C   0  0  0  0  0  0  0  0  0  0  0  0
    3.8991   -0.5754    0.0000 C   0  0  0  0  0  0  0  0  0  0  0  0
    3.5293   -1.9556    0.0000 C   0  0  0  0  0  0  0  0  0  0  0  0
   -3.4806    1.3441    0.0000 C   0  0  0  0  0  0  0  0  0  0  0  0
   -2.7661    0.1066    0.0000 C   0  0  0  0  0  0  0  0  0  0  0  0
    4.3262   -2.1691    0.0000 C   0  0  0  0  0  0  0  0  0  0  0  0
   -4.1951    0.1066    0.0000 C   0  0  0  0  0  0  0  0  0  0  0  0
   -2.0516    2.1691    0.0000 C   0  0  0  0  0  0  0  0  0  0  0  0
   -4.1951    0.9316    0.0000 C   0  0  0  0  0  0  0  0  0  0  0  0
   -3.4806   -0.3059    0.0000 C   0  0  0  0  0  0  0  0  0  0  0  0
    4.9095   -1.5858    0.0000 C   0  0  0  0  0  0  0  0  0  0  0  0
  1 25  1  0  0  0  0
  2 15  2  0  0  0  0
  3  4  1  0  0  0  0
  3  7  1  0  0  0  0
  3 14  1  0  0  0  0
  4  9  2  0  0  0  0
  5 15  1  0  0  0  0
  5 18  1  0  0  0  0
  6 20  2  0  0  0  0
  6 29  1  0  0  0  0
  7  8  1  0  0  0  0
  7 12  2  0  0  0  0
  8  9  1  0  0  0  0
  8 11  2  0  0  0  0
  9 17  1  0  0  0  0
 10 11  1  0  0  0  0
 10 13  2  0  0  0  0
 10 15  1  0  0  0  0
 12 13  1  0  0  0  0
 14 16  1  0  0  0  0
 16 20  1  0  0  0  0
 16 21  2  0  0  0  0
 18 19  1  0  0  0  0
 18 26  1  6  0  0  0
 19 22  2  0  0  0  0
 19 23  1  0  0  0  0
 21 24  1  0  0  0  0
 22 27  1  0  0  0  0
 23 28  2  0  0  0  0
 24 29  2  0  0  0  0
 25 27  2  0  0  0  0
 25 28  1  0  0  0  0
M  END
> <PUBCHEM_COMPOUND_ID_TYPE>
0

> <PUBCHEM_TOTAL_CHARGE>
0

> <PUBCHEM_SUBSTANCE_ID>
310947341

> <PUBCHEM_SUBSTANCE_VERSION>
1

> <PUBCHEM_EXT_DATASOURCE_NAME>
4488

> <PUBCHEM_EXT_DATASOURCE_REGID>
SCHEMBL16125496

> <PUBCHEM_SUBSTANCE_COMMENT>
InChI=1S/C23H21BrN4O/c1-15(18-5-8-20(24)9-6-18)26-23(29)19-7-10-22-21(12-19)16(2)27-28(22)14-17-4-3-11-25-13-17/h3-13,15H,14H2,1-2H3,(H,26,29)/t15-/m0/s1
InChIKey=KTFAJGAYLXHICU-HNNXBMFYSA-N

> <PUBCHEM_SUBSTANCE_SYNONYM>
SCHEMBL16125496

> <PUBCHEM_XREF_EXT_ID>
SCHEMBL16125496

> <PUBCHEM_EXT_DATASOURCE_URL>
https://www.surechembl.org/

> <PUBCHEM_EXT_SUBSTANCE_URL>
https://www.surechembl.org/chemical/SCHEMBL16125496

> <PUBCHEM_CID_ASSOCIATIONS>
71577315  1

> <PUBCHEM_COORDINATE_TYPE>
1
3

> <PUBCHEM_BONDANNOTATIONS>
18  26  6

$$$$
