310945030
  -OEChem-07211613022D

 31 36  0     0  0  0  0  0  0999 V2000
   -0.1357   -0.7978    0.0000 O   0  0  0  0  0  0  0  0  0  0  0  0
    4.7270    1.4381    0.0000 O   0  0  0  0  0  0  0  0  0  0  0  0
   -3.8803   -0.2551    0.0000 O   0  0  0  0  0  0  0  0  0  0  0  0
    2.9035    0.1899    0.0000 N   0  0  0  0  0  0  0  0  0  0  0  0
    4.5751    0.0163    0.0000 N   0  0  0  0  0  0  0  0  0  0  0  0
   -0.8195    0.3744    0.0000 N   0  0  0  0  0  0  0  0  0  0  0  0
   -2.6321    0.4722    0.0000 N   0  0  0  0  0  0  0  0  0  0  0  0
    3.2400   -0.5698    0.0000 C   0  0  0  0  0  0  0  0  0  0  0  0
    2.1111    0.4613    0.0000 C   0  0  0  0  0  0  0  0  0  0  0  0
    3.4028    0.8629    0.0000 C   0  0  0  0  0  0  0  0  0  0  0  0
    2.1111    1.2862    0.0000 C   0  0  0  0  0  0  0  0  0  0  0  0
    2.9144    1.5250    0.0000 C   0  0  0  0  0  0  0  0  0  0  0  0
    4.2168    0.7653    0.0000 C   0  0  0  0  0  0  0  0  0  0  0  0
    4.0866   -0.6567    0.0000 C   0  0  0  0  0  0  0  0  0  0  0  0
    2.4367   -0.7110    0.0000 C   0  0  0  0  0  0  0  0  0  0  0  0
    3.3702   -1.3839    0.0000 C   0  0  0  0  0  0  0  0  0  0  0  0
    1.4056    0.0380    0.0000 C   0  0  0  0  0  0  0  0  0  0  0  0
    0.6675    0.4504    0.0000 C   0  0  0  0  0  0  0  0  0  0  0  0
   -0.0488    0.0380    0.0000 C   0  0  0  0  0  0  0  0  0  0  0  0
    2.5778   -1.5141    0.0000 C   0  0  0  0  0  0  0  0  0  0  0  0
    1.3839    1.6878    0.0000 C   0  0  0  0  0  0  0  0  0  0  0  0
    0.6784    1.2753    0.0000 C   0  0  0  0  0  0  0  0  0  0  0  0
   -1.3839   -0.2551    0.0000 C   0  0  0  0  0  0  0  0  0  0  0  0
   -0.9606   -0.9606    0.0000 C   0  0  0  0  0  0  0  0  0  0  0  0
   -2.2088   -0.2442    0.0000 C   0  0  0  0  0  0  0  0  0  0  0  0
   -1.3839   -1.6878    0.0000 C   0  0  0  0  0  0  0  0  0  0  0  0
   -2.6213   -0.9714    0.0000 C   0  0  0  0  0  0  0  0  0  0  0  0
   -2.2088   -1.6878    0.0000 C   0  0  0  0  0  0  0  0  0  0  0  0
   -3.4571    0.4939    0.0000 C   0  0  0  0  0  0  0  0  0  0  0  0
   -3.8695    1.1777    0.0000 C   0  0  0  0  0  0  0  0  0  0  0  0
   -4.7270    1.1017    0.0000 C   0  0  0  0  0  0  0  0  0  0  0  0
  1 19  1  0  0  0  0
  1 24  1  0  0  0  0
  2 13  2  0  0  0  0
  3 29  2  0  0  0  0
  4  8  1  0  0  0  0
  4  9  1  0  0  0  0
  4 10  1  0  0  0  0
  5 13  1  0  0  0  0
  5 14  1  0  0  0  0
  6 19  2  0  0  0  0
  6 23  1  0  0  0  0
  7 25  1  0  0  0  0
  7 29  1  0  0  0  0
  8 14  1  0  0  0  0
  8 15  1  0  0  0  0
  8 16  1  0  0  0  0
  9 11  1  0  0  0  0
  9 17  2  0  0  0  0
 10 12  2  0  0  0  0
 10 13  1  0  0  0  0
 11 12  1  0  0  0  0
 11 21  2  0  0  0  0
 15 20  1  0  0  0  0
 16 20  1  0  0  0  0
 17 18  1  0  0  0  0
 18 19  1  0  0  0  0
 18 22  2  0  0  0  0
 21 22  1  0  0  0  0
 23 24  2  0  0  0  0
 23 25  1  0  0  0  0
 24 26  1  0  0  0  0
 25 27  2  0  0  0  0
 26 28  2  0  0  0  0
 27 28  1  0  0  0  0
 29 30  1  0  0  0  0
 30 31  2  0  0  0  0
M  END
> <PUBCHEM_COMPOUND_ID_TYPE>
0

> <PUBCHEM_TOTAL_CHARGE>
0

> <PUBCHEM_SUBSTANCE_ID>
310945030

> <PUBCHEM_SUBSTANCE_VERSION>
1

> <PUBCHEM_EXT_DATASOURCE_NAME>
4488

> <PUBCHEM_EXT_DATASOURCE_REGID>
SCHEMBL16123118

> <PUBCHEM_SUBSTANCE_COMMENT>
InChI=1S/C24H20N4O3/c1-2-20(29)26-16-5-3-6-19-21(16)27-23(31-19)15-8-7-14-11-18-22(30)25-13-24(9-4-10-24)28(18)17(14)12-15/h2-3,5-8,11-12H,1,4,9-10,13H2,(H,25,30)(H,26,29)
InChIKey=NFUFCCCGLJXMRT-UHFFFAOYSA-N

> <PUBCHEM_SUBSTANCE_SYNONYM>
SCHEMBL16123118

> <PUBCHEM_XREF_EXT_ID>
SCHEMBL16123118

> <PUBCHEM_EXT_DATASOURCE_URL>
https://www.surechembl.org/

> <PUBCHEM_EXT_SUBSTANCE_URL>
https://www.surechembl.org/chemical/SCHEMBL16123118

> <PUBCHEM_CID_ASSOCIATIONS>
117611158  1

> <PUBCHEM_COORDINATE_TYPE>
1
3

$$$$
