310936750
  -OEChem-07211613022D

 25 27  0     0  0  0  0  0  0999 V2000
    0.0000   -2.4809    0.0000 Cl  0  0  0  0  0  0  0  0  0  0  0  0
    2.9664   -4.8001    0.0000 O   0  0  0  0  0  0  0  0  0  0  0  0
    3.8833    0.0000    0.0000 O   0  0  0  0  0  0  0  0  0  0  0  0
    4.7732   -1.4562    0.0000 N   0  0  0  0  0  0  0  0  0  0  0  0
    4.0181   -3.8023    0.0000 N   0  0  0  0  0  0  0  0  0  0  0  0
    6.1215   -1.5910    0.0000 N   0  0  0  0  0  0  0  0  0  0  0  0
    2.6697   -3.3978    0.0000 C   0  0  0  0  0  0  0  0  0  0  0  0
    3.7215   -2.4271    0.0000 C   0  0  0  0  0  0  0  0  0  0  0  0
    3.2360   -4.0181    0.0000 C   0  0  0  0  0  0  0  0  0  0  0  0
    1.8877   -3.5596    0.0000 C   0  0  0  0  0  0  0  0  0  0  0  0
    2.9394   -2.6158    0.0000 C   0  0  0  0  0  0  0  0  0  0  0  0
    5.1237   -0.7011    0.0000 C   0  0  0  0  0  0  0  0  0  0  0  0
    3.9911   -1.6450    0.0000 C   0  0  0  0  0  0  0  0  0  0  0  0
    5.3934   -1.9955    0.0000 C   0  0  0  0  0  0  0  0  0  0  0  0
    4.2608   -3.0472    0.0000 C   0  0  0  0  0  0  0  0  0  0  0  0
    5.9327   -0.7821    0.0000 C   0  0  0  0  0  0  0  0  0  0  0  0
    1.3484   -2.9394    0.0000 C   0  0  0  0  0  0  0  0  0  0  0  0
    1.6180   -4.3416    0.0000 C   0  0  0  0  0  0  0  0  0  0  0  0
    0.5393   -3.1012    0.0000 C   0  0  0  0  0  0  0  0  0  0  0  0
    4.7192    0.0000    0.0000 C   0  0  0  0  0  0  0  0  0  0  0  0
    0.8090   -4.5035    0.0000 C   0  0  0  0  0  0  0  0  0  0  0  0
    5.3125   -2.8315    0.0000 C   0  0  0  0  0  0  0  0  0  0  0  0
    0.2697   -3.8833    0.0000 C   0  0  0  0  0  0  0  0  0  0  0  0
    3.5057   -5.3934    0.0000 C   0  0  0  0  0  0  0  0  0  0  0  0
    4.3147   -5.2316    0.0000 C   0  0  0  0  0  0  0  0  0  0  0  0
  1 19  1  0  0  0  0
  2  9  1  0  0  0  0
  2 24  1  0  0  0  0
  3 20  1  0  0  0  0
  4 12  1  0  0  0  0
  4 13  1  0  0  0  0
  4 14  1  0  0  0  0
  5  9  2  0  0  0  0
  5 15  1  0  0  0  0
  6 14  2  0  0  0  0
  6 16  1  0  0  0  0
  7  9  1  0  0  0  0
  7 10  1  0  0  0  0
  7 11  2  0  0  0  0
  8 11  1  0  0  0  0
  8 13  1  0  0  0  0
  8 15  2  0  0  0  0
 10 17  1  0  0  0  0
 10 18  2  0  0  0  0
 12 16  2  0  0  0  0
 12 20  1  0  0  0  0
 14 22  1  0  0  0  0
 17 19  2  0  0  0  0
 18 21  1  0  0  0  0
 19 23  1  0  0  0  0
 21 23  2  0  0  0  0
 24 25  1  0  0  0  0
M  END
> <PUBCHEM_COMPOUND_ID_TYPE>
0

> <PUBCHEM_TOTAL_CHARGE>
0

> <PUBCHEM_SUBSTANCE_ID>
310936750

> <PUBCHEM_SUBSTANCE_VERSION>
1

> <PUBCHEM_EXT_DATASOURCE_NAME>
4488

> <PUBCHEM_EXT_DATASOURCE_REGID>
SCHEMBL16114433

> <PUBCHEM_SUBSTANCE_COMMENT>
InChI=1S/C19H20ClN3O2/c1-3-25-19-18(15-5-4-6-16(20)8-15)7-14(9-22-19)11-23-13(2)21-10-17(23)12-24/h4-10,24H,3,11-12H2,1-2H3
InChIKey=PATYCFWJJPPBGV-UHFFFAOYSA-N

> <PUBCHEM_SUBSTANCE_SYNONYM>
SCHEMBL16114433

> <PUBCHEM_XREF_EXT_ID>
SCHEMBL16114433

> <PUBCHEM_EXT_DATASOURCE_URL>
https://www.surechembl.org/

> <PUBCHEM_EXT_SUBSTANCE_URL>
https://www.surechembl.org/chemical/SCHEMBL16114433

> <PUBCHEM_CID_ASSOCIATIONS>
117604648  1

> <PUBCHEM_COORDINATE_TYPE>
1
3

$$$$
