310937039
  -OEChem-07211613022D

 26 29  0     0  0  0  0  0  0999 V2000
    1.4519   -0.8613    0.0000 F   0  0  0  0  0  0  0  0  0  0  0  0
    2.1655   -2.0917    0.0000 F   0  0  0  0  0  0  0  0  0  0  0  0
    2.1409   -0.4430    0.0000 F   0  0  0  0  0  0  0  0  0  0  0  0
    0.0000   -4.9216    0.0000 F   0  0  0  0  0  0  0  0  0  0  0  0
    4.2326    0.0000    0.0000 O   0  0  0  0  0  0  0  0  0  0  0  0
    3.5682   -1.2304    0.0000 N   0  0  0  0  0  0  0  0  0  0  0  0
    5.7583   -2.3378    0.0000 N   0  0  0  0  0  0  0  0  0  0  0  0
    3.5682   -3.6912    0.0000 N   0  0  0  0  0  0  0  0  0  0  0  0
    6.2258   -1.6487    0.0000 N   0  0  0  0  0  0  0  0  0  0  0  0
    3.5682   -2.0671    0.0000 C   0  0  0  0  0  0  0  0  0  0  0  0
    4.2572   -2.4854    0.0000 C   0  0  0  0  0  0  0  0  0  0  0  0
    4.9709   -2.0671    0.0000 C   0  0  0  0  0  0  0  0  0  0  0  0
    4.9709   -1.2304    0.0000 C   0  0  0  0  0  0  0  0  0  0  0  0
    4.2572   -0.8121    0.0000 C   0  0  0  0  0  0  0  0  0  0  0  0
    2.8545   -2.4854    0.0000 C   0  0  0  0  0  0  0  0  0  0  0  0
    2.8545   -3.2729    0.0000 C   0  0  0  0  0  0  0  0  0  0  0  0
    4.2572   -3.2729    0.0000 C   0  0  0  0  0  0  0  0  0  0  0  0
    2.8545   -0.8367    0.0000 C   0  0  0  0  0  0  0  0  0  0  0  0
    5.7583   -0.9843    0.0000 C   0  0  0  0  0  0  0  0  0  0  0  0
    2.1655   -1.2550    0.0000 C   0  0  0  0  0  0  0  0  0  0  0  0
    2.1409   -3.6912    0.0000 C   0  0  0  0  0  0  0  0  0  0  0  0
    2.1163   -4.5033    0.0000 C   0  0  0  0  0  0  0  0  0  0  0  0
    1.4273   -3.2729    0.0000 C   0  0  0  0  0  0  0  0  0  0  0  0
    1.4273   -4.9216    0.0000 C   0  0  0  0  0  0  0  0  0  0  0  0
    0.7136   -3.6912    0.0000 C   0  0  0  0  0  0  0  0  0  0  0  0
    0.7136   -4.5033    0.0000 C   0  0  0  0  0  0  0  0  0  0  0  0
  1 20  1  0  0  0  0
  2 20  1  0  0  0  0
  3 20  1  0  0  0  0
  4 26  1  0  0  0  0
  5 14  2  0  0  0  0
  6 10  1  0  0  0  0
  6 14  1  0  0  0  0
  6 18  1  0  0  0  0
  7  9  1  0  0  0  0
  7 12  1  0  0  0  0
  8 16  2  0  0  0  0
  8 17  1  0  0  0  0
  9 19  2  0  0  0  0
 10 11  1  0  0  0  0
 10 15  2  0  0  0  0
 11 12  1  0  0  0  0
 11 17  2  0  0  0  0
 12 13  2  0  0  0  0
 13 14  1  0  0  0  0
 13 19  1  0  0  0  0
 15 16  1  0  0  0  0
 16 21  1  0  0  0  0
 18 20  1  0  0  0  0
 21 22  2  0  0  0  0
 21 23  1  0  0  0  0
 22 24  1  0  0  0  0
 23 25  2  0  0  0  0
 24 26  2  0  0  0  0
 25 26  1  0  0  0  0
M  END
> <PUBCHEM_COMPOUND_ID_TYPE>
0

> <PUBCHEM_TOTAL_CHARGE>
0

> <PUBCHEM_SUBSTANCE_ID>
310937039

> <PUBCHEM_SUBSTANCE_VERSION>
1

> <PUBCHEM_EXT_DATASOURCE_NAME>
4488

> <PUBCHEM_EXT_DATASOURCE_REGID>
SCHEMBL16114749

> <PUBCHEM_SUBSTANCE_COMMENT>
InChI=1S/C17H10F4N4O/c18-10-3-1-9(2-4-10)13-5-14-11(6-22-13)15-12(7-23-24-15)16(26)25(14)8-17(19,20)21/h1-7H,8H2,(H,23,24)
InChIKey=FEUWXRUTNFZSBY-UHFFFAOYSA-N

> <PUBCHEM_SUBSTANCE_SYNONYM>
SCHEMBL16114749

> <PUBCHEM_XREF_EXT_ID>
SCHEMBL16114749

> <PUBCHEM_EXT_DATASOURCE_URL>
https://www.surechembl.org/

> <PUBCHEM_EXT_SUBSTANCE_URL>
https://www.surechembl.org/chemical/SCHEMBL16114749

> <PUBCHEM_CID_ASSOCIATIONS>
86298817  1

> <PUBCHEM_COORDINATE_TYPE>
1
3

$$$$
