310947378
  -OEChem-07211613022D

 39 43  0     1  0  0  0  0  0999 V2000
   -6.1044    0.5389    0.0000 Br  0  0  0  0  0  0  0  0  0  0  0  0
   -1.8185    3.0137    0.0000 O   0  0  0  0  0  0  0  0  0  0  0  0
    1.1095    0.6963    0.0000 N   0  0  0  0  0  0  0  0  0  0  0  0
    1.5944    1.3638    0.0000 N   0  0  0  0  0  0  0  0  0  0  0  0
   -2.5330    1.7763    0.0000 N   0  0  0  0  0  0  0  0  0  0  0  0
    0.3249    0.9513    0.0000 C   0  0  0  0  0  0  0  0  0  0  0  0
    0.3249    1.7763    0.0000 C   0  0  0  0  0  0  0  0  0  0  0  0
    1.1095    2.0312    0.0000 C   0  0  0  0  0  0  0  0  0  0  0  0
   -0.3896    2.1888    0.0000 C   0  0  0  0  0  0  0  0  0  0  0  0
   -1.1041    1.7763    0.0000 C   0  0  0  0  0  0  0  0  0  0  0  0
   -0.3896    0.5388    0.0000 C   0  0  0  0  0  0  0  0  0  0  0  0
    1.3230   -0.1005    0.0000 C   0  0  0  0  0  0  0  0  0  0  0  0
   -1.1041    0.9513    0.0000 C   0  0  0  0  0  0  0  0  0  0  0  0
    2.1199   -0.3141    0.0000 C   0  0  0  0  0  0  0  0  0  0  0  0
    4.5106   -0.9546    0.0000 C   0  0  0  0  0  0  0  0  0  0  0  0
   -1.8185    2.1888    0.0000 C   0  0  0  0  0  0  0  0  0  0  0  0
    3.7137   -0.7411    0.0000 C   0  0  0  0  0  0  0  0  0  0  0  0
    4.7241   -1.7516    0.0000 C   0  0  0  0  0  0  0  0  0  0  0  0
    4.1408   -2.3349    0.0000 C   0  0  0  0  0  0  0  0  0  0  0  0
    1.5220    2.7457    0.0000 C   0  0  0  0  0  0  0  0  0  0  0  0
    2.3334   -1.1110    0.0000 C   0  0  0  0  0  0  0  0  0  0  0  0
    2.7033    0.2693    0.0000 C   0  0  0  0  0  0  0  0  0  0  0  0
    3.1304   -1.3246    0.0000 C   0  0  0  0  0  0  0  0  0  0  0  0
    3.5002    0.0557    0.0000 C   0  0  0  0  0  0  0  0  0  0  0  0
    5.0939   -0.3713    0.0000 C   0  0  0  0  0  0  0  0  0  0  0  0
    5.5209   -1.9651    0.0000 C   0  0  0  0  0  0  0  0  0  0  0  0
   -3.2475    2.1888    0.0000 C   0  0  3  0  0  0  0  0  0  0  0  0
   -3.9619    1.7763    0.0000 C   0  0  0  0  0  0  0  0  0  0  0  0
    5.8909   -0.5848    0.0000 C   0  0  0  0  0  0  0  0  0  0  0  0
    6.1044   -1.3817    0.0000 C   0  0  0  0  0  0  0  0  0  0  0  0
    4.8195   -3.0137    0.0000 C   0  0  0  0  0  0  0  0  0  0  0  0
    3.4619   -3.0137    0.0000 C   0  0  0  0  0  0  0  0  0  0  0  0
    3.4619   -1.6561    0.0000 C   0  0  0  0  0  0  0  0  0  0  0  0
   -4.6764    2.1888    0.0000 C   0  0  0  0  0  0  0  0  0  0  0  0
   -3.9619    0.9517    0.0000 C   0  0  0  0  0  0  0  0  0  0  0  0
   -3.2475    3.0133    0.0000 C   0  0  0  0  0  0  0  0  0  0  0  0
   -5.3900    0.9517    0.0000 C   0  0  0  0  0  0  0  0  0  0  0  0
   -5.3909    1.7763    0.0000 C   0  0  0  0  0  0  0  0  0  0  0  0
   -4.6758    0.5392    0.0000 C   0  0  0  0  0  0  0  0  0  0  0  0
  1 37  1  0  0  0  0
  2 16  2  0  0  0  0
  3  4  1  0  0  0  0
  3  6  1  0  0  0  0
  3 12  1  0  0  0  0
  4  8  2  0  0  0  0
  5 16  1  0  0  0  0
  5 27  1  0  0  0  0
  6  7  1  0  0  0  0
  6 11  2  0  0  0  0
  7  8  1  0  0  0  0
  7  9  2  0  0  0  0
  8 20  1  0  0  0  0
  9 10  1  0  0  0  0
 10 13  2  0  0  0  0
 10 16  1  0  0  0  0
 11 13  1  0  0  0  0
 12 14  1  0  0  0  0
 14 21  2  0  0  0  0
 14 22  1  0  0  0  0
 15 17  1  0  0  0  0
 15 18  1  0  0  0  0
 15 25  2  0  0  0  0
 17 23  2  0  0  0  0
 17 24  1  0  0  0  0
 18 19  1  0  0  0  0
 18 26  2  0  0  0  0
 19 31  1  0  0  0  0
 19 32  1  0  0  0  0
 19 33  1  0  0  0  0
 21 23  1  0  0  0  0
 22 24  2  0  0  0  0
 25 29  1  0  0  0  0
 26 30  1  0  0  0  0
 27 28  1  0  0  0  0
 27 36  1  6  0  0  0
 28 34  2  0  0  0  0
 28 35  1  0  0  0  0
 29 30  2  0  0  0  0
 34 38  1  0  0  0  0
 35 39  2  0  0  0  0
 37 38  2  0  0  0  0
 37 39  1  0  0  0  0
M  END
> <PUBCHEM_COMPOUND_ID_TYPE>
0

> <PUBCHEM_TOTAL_CHARGE>
0

> <PUBCHEM_SUBSTANCE_ID>
310947378

> <PUBCHEM_SUBSTANCE_VERSION>
1

> <PUBCHEM_EXT_DATASOURCE_NAME>
4488

> <PUBCHEM_EXT_DATASOURCE_REGID>
SCHEMBL16125534

> <PUBCHEM_SUBSTANCE_COMMENT>
InChI=1S/C34H34BrN3O/c1-22(25-14-17-28(35)18-15-25)36-33(39)27-16-19-32-30(20-27)23(2)37-38(32)21-24-10-12-26(13-11-24)29-8-6-7-9-31(29)34(3,4)5/h6-20,22H,21H2,1-5H3,(H,36,39)/t22-/m0/s1
InChIKey=FKSZCRKBDRQFJI-QFIPXVFZSA-N

> <PUBCHEM_SUBSTANCE_SYNONYM>
SCHEMBL16125534

> <PUBCHEM_XREF_EXT_ID>
SCHEMBL16125534

> <PUBCHEM_EXT_DATASOURCE_URL>
https://www.surechembl.org/

> <PUBCHEM_EXT_SUBSTANCE_URL>
https://www.surechembl.org/chemical/SCHEMBL16125534

> <PUBCHEM_CID_ASSOCIATIONS>
117613122  1

> <PUBCHEM_COORDINATE_TYPE>
1
3

> <PUBCHEM_BONDANNOTATIONS>
27  36  6

$$$$
