310933557
  -OEChem-07211613022D

 44 49  0     1  0  0  0  0  0999 V2000
    6.7744   -1.0274    0.0000 Cl  0  0  0  0  0  0  0  0  0  0  0  0
    5.1334   -1.1999    0.0000 F   0  0  0  0  0  0  0  0  0  0  0  0
    2.1434    1.6500    0.0000 O   0  0  0  0  0  0  0  0  0  0  0  0
    0.0000    2.0625    0.0000 O   0  0  0  0  0  0  0  0  0  0  0  0
   -0.7144   -4.1250    0.0000 O   0  0  0  0  0  0  0  0  0  0  0  0
    0.7144    5.7750    0.0000 O   0  0  0  0  0  0  0  0  0  0  0  0
    1.4290    0.4125    0.0000 N   0  0  0  0  0  0  0  0  0  0  0  0
   -0.7144   -1.6500    0.0000 N   0  0  0  0  0  0  0  0  0  0  0  0
    4.1636    0.1349    0.0000 N   0  0  0  0  0  0  0  0  0  0  0  0
    2.9441   -0.4080    0.0000 N   0  0  0  0  0  0  0  0  0  0  0  0
    1.4290    2.0625    0.0000 N   0  0  0  0  0  0  0  0  0  0  0  0
    3.7511   -0.5795    0.0000 N   0  0  0  0  0  0  0  0  0  0  0  0
    0.7144    0.8250    0.0000 C   0  0  3  0  0  0  0  0  0  0  0  0
    0.0000    0.4125    0.0000 C   0  0  0  0  0  0  0  0  0  0  0  0
    0.0000   -0.4125    0.0000 C   0  0  0  0  0  0  0  0  0  0  0  0
   -0.7144   -0.8250    0.0000 C   0  0  0  0  0  0  0  0  0  0  0  0
    2.1434    0.8250    0.0000 C   0  0  0  0  0  0  0  0  0  0  0  0
    0.7144    1.6500    0.0000 C   0  0  0  0  0  0  0  0  0  0  0  0
    2.8579    0.4125    0.0000 C   0  0  0  0  0  0  0  0  0  0  0  0
    1.4290   -0.4125    0.0000 C   0  0  0  0  0  0  0  0  0  0  0  0
    0.7144   -0.8250    0.0000 C   0  0  0  0  0  0  0  0  0  0  0  0
   -0.7144    0.8250    0.0000 C   0  0  0  0  0  0  0  0  0  0  0  0
   -1.4290   -0.4125    0.0000 C   0  0  0  0  0  0  0  0  0  0  0  0
    3.6116    0.7480    0.0000 C   0  0  0  0  0  0  0  0  0  0  0  0
    4.9841    0.2212    0.0000 C   0  0  0  0  0  0  0  0  0  0  0  0
   -1.4290    0.4125    0.0000 C   0  0  0  0  0  0  0  0  0  0  0  0
    5.4690   -0.4463    0.0000 C   0  0  0  0  0  0  0  0  0  0  0  0
    0.0000   -2.0625    0.0000 C   0  0  0  0  0  0  0  0  0  0  0  0
   -1.4290   -2.0625    0.0000 C   0  0  0  0  0  0  0  0  0  0  0  0
    1.4290    2.8875    0.0000 C   0  0  0  0  0  0  0  0  0  0  0  0
    5.3197    0.9749    0.0000 C   0  0  0  0  0  0  0  0  0  0  0  0
    6.2894   -0.3600    0.0000 C   0  0  0  0  0  0  0  0  0  0  0  0
    0.0000   -2.8875    0.0000 C   0  0  0  0  0  0  0  0  0  0  0  0
   -1.4290   -2.8875    0.0000 C   0  0  0  0  0  0  0  0  0  0  0  0
   -0.7144   -3.3000    0.0000 C   0  0  0  0  0  0  0  0  0  0  0  0
    6.1401    1.0611    0.0000 C   0  0  0  0  0  0  0  0  0  0  0  0
    6.6250    0.3936    0.0000 C   0  0  0  0  0  0  0  0  0  0  0  0
    2.1434    3.3000    0.0000 C   0  0  0  0  0  0  0  0  0  0  0  0
    0.7144    3.3000    0.0000 C   0  0  0  0  0  0  0  0  0  0  0  0
    2.1434    4.1250    0.0000 C   0  0  0  0  0  0  0  0  0  0  0  0
    0.7144    4.1250    0.0000 C   0  0  0  0  0  0  0  0  0  0  0  0
    1.4290    4.5375    0.0000 C   0  0  0  0  0  0  0  0  0  0  0  0
    1.4290    5.3625    0.0000 C   0  0  0  0  0  0  0  0  0  0  0  0
   -1.4290   -4.5375    0.0000 C   0  0  0  0  0  0  0  0  0  0  0  0
  1 32  1  0  0  0  0
  2 27  1  0  0  0  0
  3 17  2  0  0  0  0
  4 18  2  0  0  0  0
  5 35  1  0  0  0  0
  5 44  1  0  0  0  0
  6 43  1  0  0  0  0
  7 13  1  0  0  0  0
  7 17  1  0  0  0  0
  7 20  1  0  0  0  0
  8 16  1  0  0  0  0
  8 28  1  0  0  0  0
  8 29  1  0  0  0  0
  9 12  1  0  0  0  0
  9 24  1  0  0  0  0
  9 25  1  0  0  0  0
 10 12  2  0  0  0  0
 10 19  1  0  0  0  0
 11 18  1  0  0  0  0
 11 30  1  0  0  0  0
 13 14  1  0  0  0  0
 13 18  1  6  0  0  0
 14 15  2  0  0  0  0
 14 22  1  0  0  0  0
 15 16  1  0  0  0  0
 15 21  1  0  0  0  0
 16 23  2  0  0  0  0
 17 19  1  0  0  0  0
 19 24  2  0  0  0  0
 20 21  1  0  0  0  0
 22 26  2  0  0  0  0
 23 26  1  0  0  0  0
 25 27  1  0  0  0  0
 25 31  2  0  0  0  0
 27 32  2  0  0  0  0
 28 33  1  0  0  0  0
 29 34  1  0  0  0  0
 30 38  2  0  0  0  0
 30 39  1  0  0  0  0
 31 36  1  0  0  0  0
 32 37  1  0  0  0  0
 33 35  1  0  0  0  0
 34 35  1  0  0  0  0
 36 37  2  0  0  0  0
 38 40  1  0  0  0  0
 39 41  2  0  0  0  0
 40 42  2  0  0  0  0
 41 42  1  0  0  0  0
 42 43  1  0  0  0  0
M  END
> <PUBCHEM_COMPOUND_ID_TYPE>
0

> <PUBCHEM_TOTAL_CHARGE>
0

> <PUBCHEM_SUBSTANCE_ID>
310933557

> <PUBCHEM_SUBSTANCE_VERSION>
1

> <PUBCHEM_EXT_DATASOURCE_NAME>
4488

> <PUBCHEM_EXT_DATASOURCE_REGID>
SCHEMBL16110980

> <PUBCHEM_SUBSTANCE_COMMENT>
InChI=1S/C32H32ClFN6O4/c1-44-22-12-15-38(16-13-22)27-6-2-4-24-23(27)14-17-39(30(24)31(42)35-21-10-8-20(19-41)9-11-21)32(43)26-18-40(37-36-26)28-7-3-5-25(33)29(28)34/h2-11,18,22,30,41H,12-17,19H2,1H3,(H,35,42)/t30-/m1/s1
InChIKey=IKSYNZROZSKPEA-SSEXGKCCSA-N

> <PUBCHEM_SUBSTANCE_SYNONYM>
SCHEMBL16110980

> <PUBCHEM_XREF_EXT_ID>
SCHEMBL16110980

> <PUBCHEM_EXT_DATASOURCE_URL>
https://www.surechembl.org/

> <PUBCHEM_EXT_SUBSTANCE_URL>
https://www.surechembl.org/chemical/SCHEMBL16110980

> <PUBCHEM_CID_ASSOCIATIONS>
117601941  1

> <PUBCHEM_COORDINATE_TYPE>
1
3

> <PUBCHEM_BONDANNOTATIONS>
13  18  6

$$$$
