310937581
  -OEChem-07211613022D

 37 39  0     1  0  0  0  0  0999 V2000
    2.1773   -8.1689    0.0000 O   0  0  0  0  0  0  0  0  0  0  0  0
    6.8778   -8.8071    0.0000 O   0  0  0  0  0  0  0  0  0  0  0  0
    7.3455   -7.4569    0.0000 O   0  0  0  0  0  0  0  0  0  0  0  0
    0.8271   -5.5184    0.0000 O   0  0  0  0  0  0  0  0  0  0  0  0
    1.9073   -4.5829    0.0000 O   0  0  0  0  0  0  0  0  0  0  0  0
   -1.8734   -6.7657    0.0000 O   0  0  0  0  0  0  0  0  0  0  0  0
    5.2657   -8.1989    0.0000 N   0  0  0  0  0  0  0  0  0  0  0  0
    1.0971   -6.9216    0.0000 N   0  0  0  0  0  0  0  0  0  0  0  0
    2.1773   -5.9861    0.0000 N   0  0  0  0  0  0  0  0  0  0  0  0
   -0.7932   -5.8302    0.0000 N   0  0  0  0  0  0  0  0  0  0  0  0
    4.6077   -7.7012    0.0000 C   0  0  0  0  0  0  0  0  0  0  0  0
    4.8777   -6.9216    0.0000 C   0  0  0  0  0  0  0  0  0  0  0  0
    3.2575   -7.2334    0.0000 C   0  0  0  0  0  0  0  0  0  0  0  0
    5.9423   -7.7269    0.0000 C   0  0  3  0  0  0  0  0  0  0  0  0
    3.7976   -7.8571    0.0000 C   0  0  0  0  0  0  0  0  0  0  0  0
    2.4473   -7.3893    0.0000 C   0  0  0  0  0  0  0  0  0  0  0  0
    5.7026   -6.9375    0.0000 C   0  0  0  0  0  0  0  0  0  0  0  0
    4.3377   -6.2980    0.0000 C   0  0  0  0  0  0  0  0  0  0  0  0
    1.9073   -6.7657    0.0000 C   0  0  3  0  0  0  0  0  0  0  0  0
    3.5275   -6.4539    0.0000 C   0  0  0  0  0  0  0  0  0  0  0  0
    6.7219   -7.9970    0.0000 C   0  0  0  0  0  0  0  0  0  0  0  0
    0.5570   -6.2980    0.0000 C   0  0  0  0  0  0  0  0  0  0  0  0
   -0.2531   -6.4539    0.0000 C   0  0  3  0  0  0  0  0  0  0  0  0
   -0.5231   -7.2334    0.0000 C   0  0  3  0  0  0  0  0  0  0  0  0
    1.6372   -5.3625    0.0000 C   0  0  0  0  0  0  0  0  0  0  0  0
   -1.6033   -5.9861    0.0000 C   0  0  0  0  0  0  0  0  0  0  0  0
    0.0169   -7.8571    0.0000 C   0  0  0  0  0  0  0  0  0  0  0  0
   -2.1434   -5.3625    0.0000 C   0  0  0  0  0  0  0  0  0  0  0  0
   -2.9535   -5.5184    0.0000 C   0  0  0  0  0  0  0  0  0  0  0  0
   -1.3333   -7.3893    0.0000 C   0  0  0  0  0  0  0  0  0  0  0  0
    0.8902   -5.0124    0.0000 C   0  0  0  0  0  0  0  0  0  0  0  0
   -3.2236   -6.2980    0.0000 C   0  0  0  0  0  0  0  0  0  0  0  0
   -3.4936   -4.8948    0.0000 C   0  0  0  0  0  0  0  0  0  0  0  0
   -0.2531   -8.6366    0.0000 C   0  0  0  0  0  0  0  0  0  0  0  0
   -4.0337   -6.4539    0.0000 C   0  0  0  0  0  0  0  0  0  0  0  0
   -4.3038   -5.0507    0.0000 C   0  0  0  0  0  0  0  0  0  0  0  0
   -4.5738   -5.8302    0.0000 C   0  0  0  0  0  0  0  0  0  0  0  0
  1 16  2  0  0  0  0
  2 21  2  0  0  0  0
  3 21  1  0  0  0  0
  4 22  2  0  0  0  0
  5 25  2  0  0  0  0
  6 26  2  0  0  0  0
  7 11  1  0  0  0  0
  7 14  1  0  0  0  0
  8 19  1  0  0  0  0
  8 22  1  0  0  0  0
  9 19  1  0  0  0  0
  9 25  1  0  0  0  0
 23 10  1  6  0  0  0
 10 26  1  0  0  0  0
 11 12  1  0  0  0  0
 11 15  2  0  0  0  0
 12 17  1  0  0  0  0
 12 18  2  0  0  0  0
 13 15  1  0  0  0  0
 13 16  1  0  0  0  0
 13 20  2  0  0  0  0
 14 17  1  0  0  0  0
 14 21  1  0  0  0  0
 16 19  1  0  0  0  0
 18 20  1  0  0  0  0
 22 23  1  0  0  0  0
 23 24  1  0  0  0  0
 24 27  1  0  0  0  0
 24 30  1  6  0  0  0
 25 31  1  0  0  0  0
 26 28  1  0  0  0  0
 27 34  1  0  0  0  0
 28 29  1  0  0  0  0
 29 32  2  0  0  0  0
 29 33  1  0  0  0  0
 32 35  1  0  0  0  0
 33 36  2  0  0  0  0
 35 37  2  0  0  0  0
 36 37  1  0  0  0  0
M  END
> <PUBCHEM_COMPOUND_ID_TYPE>
0

> <PUBCHEM_TOTAL_CHARGE>
0

> <PUBCHEM_SUBSTANCE_ID>
310937581

> <PUBCHEM_SUBSTANCE_VERSION>
1

> <PUBCHEM_EXT_DATASOURCE_NAME>
4488

> <PUBCHEM_EXT_DATASOURCE_REGID>
SCHEMBL16115361

> <PUBCHEM_SUBSTANCE_COMMENT>
InChI=1S/C27H32N4O6/c1-4-15(2)23(30-22(33)12-17-8-6-5-7-9-17)26(35)31-25(28-16(3)32)24(34)19-11-10-18-13-21(27(36)37)29-20(18)14-19/h5-11,14-15,21,23,25,29H,4,12-13H2,1-3H3,(H,28,32)(H,30,33)(H,31,35)(H,36,37)/t15-,21?,23-,25?/m0/s1
InChIKey=ROZMCKMHXIUSNO-ZECVVZPVSA-N

> <PUBCHEM_SUBSTANCE_SYNONYM>
SCHEMBL16115361

> <PUBCHEM_XREF_EXT_ID>
SCHEMBL16115361

> <PUBCHEM_EXT_DATASOURCE_URL>
https://www.surechembl.org/

> <PUBCHEM_EXT_SUBSTANCE_URL>
https://www.surechembl.org/chemical/SCHEMBL16115361

> <PUBCHEM_CID_ASSOCIATIONS>
117605290  1

> <PUBCHEM_COORDINATE_TYPE>
1
3

> <PUBCHEM_BONDANNOTATIONS>
23  10  6
24  30  6

$$$$
