310949256
  -OEChem-07211613022D

 87102  0     0  0  0  0  0  0999 V2000
   -2.5155   -0.8750    0.0000 N   0  0  0  0  0  0  0  0  0  0  0  0
    0.0497    3.2214    0.0000 N   0  0  0  0  0  0  0  0  0  0  0  0
    2.5553   -0.7159    0.0000 N   0  0  0  0  0  0  0  0  0  0  0  0
    0.0100   -1.9885    0.0000 N   0  0  0  0  0  0  0  0  0  0  0  0
    2.1973    1.7499    0.0000 N   0  0  0  0  0  0  0  0  0  0  0  0
   -2.1376    1.7698    0.0000 N   0  0  0  0  0  0  0  0  0  0  0  0
    0.0298    1.3920    0.0000 C   0  0  0  0  0  0  0  0  0  0  0  0
   -0.7258    0.1193    0.0000 C   0  0  0  0  0  0  0  0  0  0  0  0
    0.7457    0.1591    0.0000 C   0  0  0  0  0  0  0  0  0  0  0  0
   -0.6860    0.9744    0.0000 C   0  0  0  0  0  0  0  0  0  0  0  0
    0.7656    0.9744    0.0000 C   0  0  0  0  0  0  0  0  0  0  0  0
    0.0298   -0.2585    0.0000 C   0  0  0  0  0  0  0  0  0  0  0  0
   -3.3109   -0.4773    0.0000 C   0  0  0  0  0  0  0  0  0  0  0  0
   -2.6348   -1.6902    0.0000 C   0  0  0  0  0  0  0  0  0  0  0  0
   -0.6662    3.7384    0.0000 C   0  0  0  0  0  0  0  0  0  0  0  0
    0.7059    3.7384    0.0000 C   0  0  0  0  0  0  0  0  0  0  0  0
    3.3109   -0.3579    0.0000 C   0  0  0  0  0  0  0  0  0  0  0  0
    2.6348   -1.5113    0.0000 C   0  0  0  0  0  0  0  0  0  0  0  0
   -3.8478   -1.1136    0.0000 C   0  0  0  0  0  0  0  0  0  0  0  0
   -3.4501   -1.8494    0.0000 C   0  0  0  0  0  0  0  0  0  0  0  0
   -0.3678    4.5338    0.0000 C   0  0  0  0  0  0  0  0  0  0  0  0
    0.4673    4.4940    0.0000 C   0  0  0  0  0  0  0  0  0  0  0  0
    3.8478   -0.9744    0.0000 C   0  0  0  0  0  0  0  0  0  0  0  0
    3.4302   -1.7101    0.0000 C   0  0  0  0  0  0  0  0  0  0  0  0
   -1.4218    1.3920    0.0000 C   0  0  0  0  0  0  0  0  0  0  0  0
    1.4616    1.3721    0.0000 C   0  0  0  0  0  0  0  0  0  0  0  0
    0.0100   -1.1533    0.0000 C   0  0  0  0  0  0  0  0  0  0  0  0
   -3.5694    0.2982    0.0000 C   0  0  0  0  0  0  0  0  0  0  0  0
   -2.0581   -2.2868    0.0000 C   0  0  0  0  0  0  0  0  0  0  0  0
   -1.4417    3.5793    0.0000 C   0  0  0  0  0  0  0  0  0  0  0  0
    1.5212    3.5594    0.0000 C   0  0  0  0  0  0  0  0  0  0  0  0
    3.5495    0.3977    0.0000 C   0  0  0  0  0  0  0  0  0  0  0  0
    2.1178   -2.1476    0.0000 C   0  0  0  0  0  0  0  0  0  0  0  0
   -4.6233   -0.9147    0.0000 C   0  0  0  0  0  0  0  0  0  0  0  0
   -3.6887   -2.6049    0.0000 C   0  0  0  0  0  0  0  0  0  0  0  0
   -0.9644    5.1105    0.0000 C   0  0  0  0  0  0  0  0  0  0  0  0
    1.0042    5.0906    0.0000 C   0  0  0  0  0  0  0  0  0  0  0  0
    4.6233   -0.8153    0.0000 C   0  0  0  0  0  0  0  0  0  0  0  0
    3.6489   -2.5056    0.0000 C   0  0  0  0  0  0  0  0  0  0  0  0
   -4.3648    0.4971    0.0000 C   0  0  0  0  0  0  0  0  0  0  0  0
   -2.3166   -3.1021    0.0000 C   0  0  0  0  0  0  0  0  0  0  0  0
   -1.9984    4.1560    0.0000 C   0  0  0  0  0  0  0  0  0  0  0  0
    2.0581    4.1560    0.0000 C   0  0  0  0  0  0  0  0  0  0  0  0
    4.3449    0.6165    0.0000 C   0  0  0  0  0  0  0  0  0  0  0  0
    2.3365   -2.9430    0.0000 C   0  0  0  0  0  0  0  0  0  0  0  0
   -4.9216   -0.1392    0.0000 C   0  0  0  0  0  0  0  0  0  0  0  0
   -3.1518   -3.2412    0.0000 C   0  0  0  0  0  0  0  0  0  0  0  0
   -1.7399    4.9514    0.0000 C   0  0  0  0  0  0  0  0  0  0  0  0
    1.7996    4.9514    0.0000 C   0  0  0  0  0  0  0  0  0  0  0  0
    4.8818    0.0000    0.0000 C   0  0  0  0  0  0  0  0  0  0  0  0
    3.1518   -3.1021    0.0000 C   0  0  0  0  0  0  0  0  0  0  0  0
   -4.6233    1.3124    0.0000 C   0  0  0  0  0  0  0  0  0  0  0  0
   -1.7399   -3.7185    0.0000 C   0  0  0  0  0  0  0  0  0  0  0  0
    2.8734    3.9571    0.0000 C   0  0  0  0  0  0  0  0  0  0  0  0
   -2.8337    4.0168    0.0000 C   0  0  0  0  0  0  0  0  0  0  0  0
    4.6034    1.4118    0.0000 C   0  0  0  0  0  0  0  0  0  0  0  0
    1.7797   -3.5594    0.0000 C   0  0  0  0  0  0  0  0  0  0  0  0
   -4.0665    1.8891    0.0000 C   0  0  0  0  0  0  0  0  0  0  0  0
   -2.0183   -4.5139    0.0000 C   0  0  0  0  0  0  0  0  0  0  0  0
    3.1518    3.1816    0.0000 C   0  0  0  0  0  0  0  0  0  0  0  0
   -3.3904    4.6133    0.0000 C   0  0  0  0  0  0  0  0  0  0  0  0
    5.4187    1.5709    0.0000 C   0  0  0  0  0  0  0  0  0  0  0  0
    1.0042   -3.4203    0.0000 C   0  0  0  0  0  0  0  0  0  0  0  0
   -5.4187    1.4516    0.0000 C   0  0  0  0  0  0  0  0  0  0  0  0
   -0.9247   -3.5992    0.0000 C   0  0  0  0  0  0  0  0  0  0  0  0
    3.4302    4.5537    0.0000 C   0  0  0  0  0  0  0  0  0  0  0  0
   -3.1319    3.2214    0.0000 C   0  0  0  0  0  0  0  0  0  0  0  0
    4.0466    2.0084    0.0000 C   0  0  0  0  0  0  0  0  0  0  0  0
    2.0581   -4.3747    0.0000 C   0  0  0  0  0  0  0  0  0  0  0  0
   -4.3250    2.6646    0.0000 C   0  0  0  0  0  0  0  0  0  0  0  0
   -1.4814   -5.1105    0.0000 C   0  0  0  0  0  0  0  0  0  0  0  0
    3.8875    3.0027    0.0000 C   0  0  0  0  0  0  0  0  0  0  0  0
   -4.2057    4.4344    0.0000 C   0  0  0  0  0  0  0  0  0  0  0  0
    5.6971    2.3664    0.0000 C   0  0  0  0  0  0  0  0  0  0  0  0
    0.4474   -4.0367    0.0000 C   0  0  0  0  0  0  0  0  0  0  0  0
   -5.6971    2.2272    0.0000 C   0  0  0  0  0  0  0  0  0  0  0  0
   -0.3878   -4.1958    0.0000 C   0  0  0  0  0  0  0  0  0  0  0  0
    4.1858    4.3947    0.0000 C   0  0  0  0  0  0  0  0  0  0  0  0
   -3.9273    3.0623    0.0000 C   0  0  0  0  0  0  0  0  0  0  0  0
    4.3051    2.8038    0.0000 C   0  0  0  0  0  0  0  0  0  0  0  0
    1.4616   -4.9713    0.0000 C   0  0  0  0  0  0  0  0  0  0  0  0
   -5.1205    2.8635    0.0000 C   0  0  0  0  0  0  0  0  0  0  0  0
   -0.6860   -4.9912    0.0000 C   0  0  0  0  0  0  0  0  0  0  0  0
    4.4443    3.5992    0.0000 C   0  0  0  0  0  0  0  0  0  0  0  0
   -4.4643    3.6589    0.0000 C   0  0  0  0  0  0  0  0  0  0  0  0
    5.1602    2.9629    0.0000 C   0  0  0  0  0  0  0  0  0  0  0  0
    0.7059   -4.8122    0.0000 C   0  0  0  0  0  0  0  0  0  0  0  0
  1  8  1  0  0  0  0
  1 13  1  0  0  0  0
  1 14  1  0  0  0  0
  2  7  1  0  0  0  0
  2 15  1  0  0  0  0
  2 16  1  0  0  0  0
  3  9  1  0  0  0  0
  3 17  1  0  0  0  0
  3 18  1  0  0  0  0
  4 27  3  0  0  0  0
  5 26  3  0  0  0  0
  6 25  3  0  0  0  0
  7 10  1  0  0  0  0
  7 11  2  0  0  0  0
  8 10  2  0  0  0  0
  8 12  1  0  0  0  0
  9 11  1  0  0  0  0
  9 12  2  0  0  0  0
 10 25  1  0  0  0  0
 11 26  1  0  0  0  0
 12 27  1  0  0  0  0
 13 19  2  0  0  0  0
 13 28  1  0  0  0  0
 14 20  2  0  0  0  0
 14 29  1  0  0  0  0
 15 21  2  0  0  0  0
 15 30  1  0  0  0  0
 16 22  2  0  0  0  0
 16 31  1  0  0  0  0
 17 23  2  0  0  0  0
 17 32  1  0  0  0  0
 18 24  2  0  0  0  0
 18 33  1  0  0  0  0
 19 20  1  0  0  0  0
 19 34  1  0  0  0  0
 20 35  1  0  0  0  0
 21 22  1  0  0  0  0
 21 36  1  0  0  0  0
 22 37  1  0  0  0  0
 23 24  1  0  0  0  0
 23 38  1  0  0  0  0
 24 39  1  0  0  0  0
 28 40  2  0  0  0  0
 29 41  2  0  0  0  0
 30 42  2  0  0  0  0
 31 43  2  0  0  0  0
 32 44  2  0  0  0  0
 33 45  2  0  0  0  0
 34 46  2  0  0  0  0
 35 47  2  0  0  0  0
 36 48  2  0  0  0  0
 37 49  2  0  0  0  0
 38 50  2  0  0  0  0
 39 51  2  0  0  0  0
 40 46  1  0  0  0  0
 40 52  1  0  0  0  0
 41 47  1  0  0  0  0
 41 53  1  0  0  0  0
 42 48  1  0  0  0  0
 42 55  1  0  0  0  0
 43 49  1  0  0  0  0
 43 54  1  0  0  0  0
 44 50  1  0  0  0  0
 44 56  1  0  0  0  0
 45 51  1  0  0  0  0
 45 57  1  0  0  0  0
 52 58  2  0  0  0  0
 52 64  1  0  0  0  0
 53 59  2  0  0  0  0
 53 65  1  0  0  0  0
 54 60  2  0  0  0  0
 54 66  1  0  0  0  0
 55 61  2  0  0  0  0
 55 67  1  0  0  0  0
 56 62  2  0  0  0  0
 56 68  1  0  0  0  0
 57 63  2  0  0  0  0
 57 69  1  0  0  0  0
 58 70  1  0  0  0  0
 59 71  1  0  0  0  0
 60 72  1  0  0  0  0
 61 73  1  0  0  0  0
 62 74  1  0  0  0  0
 63 75  1  0  0  0  0
 64 76  2  0  0  0  0
 65 77  2  0  0  0  0
 66 78  2  0  0  0  0
 67 79  2  0  0  0  0
 68 80  2  0  0  0  0
 69 81  2  0  0  0  0
 70 82  2  0  0  0  0
 71 83  2  0  0  0  0
 72 84  2  0  0  0  0
 73 85  2  0  0  0  0
 74 86  2  0  0  0  0
 75 87  2  0  0  0  0
 76 82  1  0  0  0  0
 77 83  1  0  0  0  0
 78 84  1  0  0  0  0
 79 85  1  0  0  0  0
 80 86  1  0  0  0  0
 81 87  1  0  0  0  0
M  END
> <PUBCHEM_COMPOUND_ID_TYPE>
0

> <PUBCHEM_TOTAL_CHARGE>
0

> <PUBCHEM_SUBSTANCE_ID>
310949256

> <PUBCHEM_SUBSTANCE_VERSION>
1

> <PUBCHEM_EXT_DATASOURCE_NAME>
4488

> <PUBCHEM_EXT_DATASOURCE_REGID>
SCHEMBL16127446

> <PUBCHEM_SUBSTANCE_COMMENT>
InChI=1S/C81H48N6/c82-49-70-79(85-73-43-58(52-19-7-1-8-20-52)31-37-64(73)65-38-32-59(44-74(65)85)53-21-9-2-10-22-53)71(50-83)81(87-77-47-62(56-27-15-5-16-28-56)35-41-68(77)69-42-36-63(48-78(69)87)57-29-17-6-18-30-57)72(51-84)80(70)86-75-45-60(54-23-11-3-12-24-54)33-39-66(75)67-40-34-61(46-76(67)86)55-25-13-4-14-26-55/h1-48H
InChIKey=ZQRWWNOFQTZHTJ-UHFFFAOYSA-N

> <PUBCHEM_SUBSTANCE_SYNONYM>
SCHEMBL16127446

> <PUBCHEM_XREF_EXT_ID>
SCHEMBL16127446

> <PUBCHEM_EXT_DATASOURCE_URL>
https://www.surechembl.org/

> <PUBCHEM_EXT_SUBSTANCE_URL>
https://www.surechembl.org/chemical/SCHEMBL16127446

> <PUBCHEM_CID_ASSOCIATIONS>
117614743  1

> <PUBCHEM_COORDINATE_TYPE>
1
3

$$$$
