310942777
  -OEChem-07211613022D

 81 85  0     1  0  0  0  0  0999 V2000
   -9.6940    1.7927    0.0000 F   0  0  0  0  0  0  0  0  0  0  0  0
  -11.2233   -1.1640    0.0000 F   0  0  0  0  0  0  0  0  0  0  0  0
   -8.3006   -1.1810    0.0000 O   0  0  0  0  0  0  0  0  0  0  0  0
   -8.3006   -2.8292    0.0000 O   0  0  0  0  0  0  0  0  0  0  0  0
   -4.0866   -3.1011    0.0000 O   0  0  0  0  0  0  0  0  0  0  0  0
   -2.5573   -1.5208    0.0000 O   0  0  0  0  0  0  0  0  0  0  0  0
   -3.3559   -2.7272    0.0000 O   0  0  0  0  0  0  0  0  0  0  0  0
    1.7587   -1.7927    0.0000 O   0  0  0  0  0  0  0  0  0  0  0  0
    4.0526    0.1615    0.0000 O   0  0  0  0  0  0  0  0  0  0  0  0
    8.3516    0.1104    0.0000 O   0  0  0  0  0  0  0  0  0  0  0  0
   11.2743   -0.0764    0.0000 O   0  0  0  0  0  0  0  0  0  0  0  0
    6.0747   -2.0476    0.0000 O   0  0  0  0  0  0  0  0  0  0  0  0
    4.8002    0.5182    0.0000 O   0  0  0  0  0  0  0  0  0  0  0  0
   -7.5530    0.8581    0.0000 N   0  0  0  0  0  0  0  0  0  0  0  0
   -6.8563   -1.2659    0.0000 N   0  0  0  0  0  0  0  0  0  0  0  0
   -8.2837   -0.2634    0.0000 N   0  0  0  0  0  0  0  0  0  0  0  0
   -3.9847   -1.4358    0.0000 N   0  0  0  0  0  0  0  0  0  0  0  0
    9.8130   -0.2124    0.0000 N   0  0  0  0  0  0  0  0  0  0  0  0
    1.1300   -0.5013    0.0000 N   0  0  0  0  0  0  0  0  0  0  0  0
    3.2540   -1.0450    0.0000 N   0  0  0  0  0  0  0  0  0  0  0  0
    5.4460   -0.7561    0.0000 N   0  0  0  0  0  0  0  0  0  0  0  0
    4.1546    1.8267    0.0000 N   0  0  0  0  0  0  0  0  0  0  0  0
    5.5989    1.7247    0.0000 N   0  0  0  0  0  0  0  0  0  0  0  0
   -7.5190    0.0425    0.0000 C   0  0  0  0  0  0  0  0  0  0  0  0
   -6.8054   -0.4163    0.0000 C   0  0  3  0  0  0  0  0  0  0  0  0
   -8.7934    0.3824    0.0000 C   0  0  0  0  0  0  0  0  0  0  0  0
   -6.0577   -0.0594    0.0000 C   0  0  0  0  0  0  0  0  0  0  0  0
   -8.3346    1.0790    0.0000 C   0  0  0  0  0  0  0  0  0  0  0  0
   -9.6431    0.3653    0.0000 C   0  0  0  0  0  0  0  0  0  0  0  0
   -7.5870   -1.6397    0.0000 C   0  0  0  0  0  0  0  0  0  0  0  0
   -6.8903    1.4019    0.0000 C   0  0  0  0  0  0  0  0  0  0  0  0
  -10.0849    1.0450    0.0000 C   0  0  0  0  0  0  0  0  0  0  0  0
   -6.1766   -1.7247    0.0000 C   0  0  0  0  0  0  0  0  0  0  0  0
  -10.0168   -0.3653    0.0000 C   0  0  0  0  0  0  0  0  0  0  0  0
   -7.0093    2.2004    0.0000 C   0  0  0  0  0  0  0  0  0  0  0  0
   -6.0237    0.7731    0.0000 C   0  0  0  0  0  0  0  0  0  0  0  0
   -5.3100    0.3313    0.0000 C   0  0  0  0  0  0  0  0  0  0  0  0
   -5.3610   -0.5013    0.0000 C   0  0  0  0  0  0  0  0  0  0  0  0
   -7.6719   -2.4723    0.0000 C   0  0  3  0  0  0  0  0  0  0  0  0
  -10.8495   -0.3993    0.0000 C   0  0  0  0  0  0  0  0  0  0  0  0
  -10.9004    1.0110    0.0000 C   0  0  0  0  0  0  0  0  0  0  0  0
   -5.4290   -1.3509    0.0000 C   0  0  0  0  0  0  0  0  0  0  0  0
  -11.2743    0.2634    0.0000 C   0  0  0  0  0  0  0  0  0  0  0  0
   -6.3805    2.7102    0.0000 C   0  0  0  0  0  0  0  0  0  0  0  0
   -7.7739    2.5064    0.0000 C   0  0  0  0  0  0  0  0  0  0  0  0
   -4.7323   -1.8097    0.0000 C   0  0  3  0  0  0  0  0  0  0  0  0
   -7.2981   -3.0841    0.0000 C   0  0  0  0  0  0  0  0  0  0  0  0
   -6.4995    3.5259    0.0000 C   0  0  0  0  0  0  0  0  0  0  0  0
   -7.8928    3.3220    0.0000 C   0  0  0  0  0  0  0  0  0  0  0  0
   -7.2642    3.8317    0.0000 C   0  0  0  0  0  0  0  0  0  0  0  0
   -4.7663   -2.6423    0.0000 C   0  0  0  0  0  0  0  0  0  0  0  0
   -3.2880   -1.8606    0.0000 C   0  0  0  0  0  0  0  0  0  0  0  0
   -1.8437   -1.9795    0.0000 C   0  0  0  0  0  0  0  0  0  0  0  0
   -1.1300   -1.6058    0.0000 C   0  0  0  0  0  0  0  0  0  0  0  0
   -4.2565   -3.8317    0.0000 C   0  0  0  0  0  0  0  0  0  0  0  0
    2.5573   -0.5862    0.0000 C   0  0  3  0  0  0  0  0  0  0  0  0
    0.3824   -0.8581    0.0000 C   0  0  0  0  0  0  0  0  0  0  0  0
    1.8267   -0.9261    0.0000 C   0  0  0  0  0  0  0  0  0  0  0  0
    4.6983   -1.1300    0.0000 C   0  0  3  0  0  0  0  0  0  0  0  0
    3.9847   -0.6882    0.0000 C   0  0  0  0  0  0  0  0  0  0  0  0
   10.4756    0.2634    0.0000 C   0  0  0  0  0  0  0  0  0  0  0  0
    9.1843    0.3483    0.0000 C   0  0  0  0  0  0  0  0  0  0  0  0
   -1.0620   -0.7901    0.0000 C   0  0  0  0  0  0  0  0  0  0  0  0
   -0.3993   -2.0476    0.0000 C   0  0  0  0  0  0  0  0  0  0  0  0
   -0.3313   -0.4163    0.0000 C   0  0  0  0  0  0  0  0  0  0  0  0
    0.3313   -1.6907    0.0000 C   0  0  0  0  0  0  0  0  0  0  0  0
   10.3058    1.0450    0.0000 C   0  0  0  0  0  0  0  0  0  0  0  0
    9.4731    1.0960    0.0000 C   0  0  0  0  0  0  0  0  0  0  0  0
    4.6304   -1.9966    0.0000 C   0  0  0  0  0  0  0  0  0  0  0  0
    9.7450   -1.0450    0.0000 C   0  0  0  0  0  0  0  0  0  0  0  0
    2.6423    0.2294    0.0000 C   0  0  0  0  0  0  0  0  0  0  0  0
    6.1257   -1.1979    0.0000 C   0  0  0  0  0  0  0  0  0  0  0  0
    8.9973   -1.4019    0.0000 C   0  0  0  0  0  0  0  0  0  0  0  0
    3.3559    0.6202    0.0000 C   0  0  0  0  0  0  0  0  0  0  0  0
    6.8563   -0.8581    0.0000 C   0  0  0  0  0  0  0  0  0  0  0  0
    3.8997   -2.3534    0.0000 C   0  0  0  0  0  0  0  0  0  0  0  0
    5.3610   -2.4214    0.0000 C   0  0  0  0  0  0  0  0  0  0  0  0
    8.3006   -0.9431    0.0000 C   0  0  0  0  0  0  0  0  0  0  0  0
    7.5870   -1.2999    0.0000 C   0  0  0  0  0  0  0  0  0  0  0  0
    3.4069    1.4528    0.0000 C   0  0  0  0  0  0  0  0  0  0  0  0
    4.8513    1.3849    0.0000 C   0  0  0  0  0  0  0  0  0  0  0  0
  1 32  1  0  0  0  0
  2 40  1  0  0  0  0
  3 30  2  0  0  0  0
 39  4  1  6  0  0  0
  5 51  1  0  0  0  0
  5 55  1  0  0  0  0
  6 52  1  0  0  0  0
  6 53  1  0  0  0  0
  7 52  2  0  0  0  0
  8 58  2  0  0  0  0
  9 60  2  0  0  0  0
 10 62  2  0  0  0  0
 11 61  2  0  0  0  0
 12 72  2  0  0  0  0
 13 81  2  0  0  0  0
 14 24  1  0  0  0  0
 14 28  1  0  0  0  0
 14 31  1  0  0  0  0
 25 15  1  1  0  0  0
 15 30  1  0  0  0  0
 15 33  1  0  0  0  0
 16 24  2  0  0  0  0
 16 26  1  0  0  0  0
 46 17  1  1  0  0  0
 17 52  1  0  0  0  0
 18 61  1  0  0  0  0
 18 62  1  0  0  0  0
 18 70  1  0  0  0  0
 19 57  1  0  0  0  0
 19 58  1  0  0  0  0
 56 20  1  6  0  0  0
 20 60  1  0  0  0  0
 59 21  1  1  0  0  0
 21 72  1  0  0  0  0
 22 80  1  0  0  0  0
 22 81  1  0  0  0  0
 23 81  1  0  0  0  0
 24 25  1  0  0  0  0
 25 27  1  0  0  0  0
 26 28  2  0  0  0  0
 26 29  1  0  0  0  0
 27 36  1  0  0  0  0
 27 37  1  0  0  0  0
 27 38  1  0  0  0  0
 29 32  2  0  0  0  0
 29 34  1  0  0  0  0
 30 39  1  0  0  0  0
 31 35  1  0  0  0  0
 32 41  1  0  0  0  0
 33 42  1  0  0  0  0
 34 40  2  0  0  0  0
 35 44  2  0  0  0  0
 35 45  1  0  0  0  0
 39 47  1  0  0  0  0
 40 43  1  0  0  0  0
 41 43  2  0  0  0  0
 42 46  1  0  0  0  0
 44 48  1  0  0  0  0
 45 49  2  0  0  0  0
 46 51  1  0  0  0  0
 48 50  2  0  0  0  0
 49 50  1  0  0  0  0
 53 54  1  0  0  0  0
 54 63  2  0  0  0  0
 54 64  1  0  0  0  0
 56 58  1  0  0  0  0
 56 71  1  0  0  0  0
 57 65  2  0  0  0  0
 57 66  1  0  0  0  0
 59 60  1  0  0  0  0
 59 69  1  0  0  0  0
 61 67  1  0  0  0  0
 62 68  1  0  0  0  0
 63 65  1  0  0  0  0
 64 66  2  0  0  0  0
 67 68  2  0  0  0  0
 69 76  1  0  0  0  0
 69 77  1  0  0  0  0
 70 73  1  0  0  0  0
 71 74  1  0  0  0  0
 72 75  1  0  0  0  0
 73 78  1  0  0  0  0
 74 80  1  0  0  0  0
 75 79  1  0  0  0  0
 78 79  1  0  0  0  0
M  END
> <PUBCHEM_COMPOUND_ID_TYPE>
0

> <PUBCHEM_TOTAL_CHARGE>
0

> <PUBCHEM_SUBSTANCE_ID>
310942777

> <PUBCHEM_SUBSTANCE_VERSION>
1

> <PUBCHEM_EXT_DATASOURCE_NAME>
4488

> <PUBCHEM_EXT_DATASOURCE_REGID>
SCHEMBL16120830

> <PUBCHEM_SUBSTANCE_COMMENT>
InChI=1S/C58H76F2N10O11/c1-36(2)50(67-47(72)18-12-9-13-29-69-48(73)25-26-49(69)74)54(76)66-45(17-14-28-62-56(61)78)53(75)63-41-22-19-39(20-23-41)34-81-57(79)64-42(35-80-7)27-30-70(55(77)37(3)71)51(58(4,5)6)52-65-46(43-31-40(59)21-24-44(43)60)33-68(52)32-38-15-10-8-11-16-38/h8,10-11,15-16,19-26,31,33,36-37,42,45,50-51,71H,9,12-14,17-18,27-30,32,34-35H2,1-7H3,(H,63,75)(H,64,79)(H,66,76)(H,67,72)(H3,61,62,78)/t37-,42+,45-,50-,51-/m0/s1
InChIKey=ZNHIMKZDPXJULI-YOUKQMSOSA-N

> <PUBCHEM_SUBSTANCE_SYNONYM>
SCHEMBL16120830

> <PUBCHEM_XREF_EXT_ID>
SCHEMBL16120830

> <PUBCHEM_EXT_DATASOURCE_URL>
https://www.surechembl.org/

> <PUBCHEM_EXT_SUBSTANCE_URL>
https://www.surechembl.org/chemical/SCHEMBL16120830

> <PUBCHEM_CID_ASSOCIATIONS>
117609283  1

> <PUBCHEM_COORDINATE_TYPE>
1
3

> <PUBCHEM_BONDANNOTATIONS>
25  15  5
46  17  5
56  20  6
59  21  5
39  4  6

$$$$
