310929137
  -OEChem-07211613022D

 20 21  0     0  0  0  0  0  0999 V2000
    1.6463   -4.2760    0.0000 Cl  0  0  0  0  0  0  0  0  0  0  0  0
    2.5015    0.0000    0.0000 F   0  0  0  0  0  0  0  0  0  0  0  0
    4.1478    0.0000    0.0000 F   0  0  0  0  0  0  0  0  0  0  0  0
    1.6676   -1.4325    0.0000 O   0  0  0  0  0  0  0  0  0  0  0  0
    4.9602    0.0000    0.0000 O   0  0  0  0  0  0  0  0  0  0  0  0
    6.2003   -0.7269    0.0000 O   0  0  0  0  0  0  0  0  0  0  0  0
    4.9602   -1.4325    0.0000 N   0  0  0  0  0  0  0  0  0  0  0  0
    0.4276   -3.5491    0.0000 N   0  0  0  0  0  0  0  0  0  0  0  0
    2.5015   -1.4325    0.0000 C   0  0  0  0  0  0  0  0  0  0  0  0
    2.9077   -0.7269    0.0000 C   0  0  0  0  0  0  0  0  0  0  0  0
    3.7202   -0.7269    0.0000 C   0  0  0  0  0  0  0  0  0  0  0  0
    4.1478   -1.4325    0.0000 C   0  0  0  0  0  0  0  0  0  0  0  0
    2.9077   -2.1380    0.0000 C   0  0  0  0  0  0  0  0  0  0  0  0
    3.7202   -2.1380    0.0000 C   0  0  0  0  0  0  0  0  0  0  0  0
    1.2614   -2.1380    0.0000 C   0  0  0  0  0  0  0  0  0  0  0  0
    1.6890   -2.8650    0.0000 C   0  0  0  0  0  0  0  0  0  0  0  0
    0.4490   -2.1380    0.0000 C   0  0  0  0  0  0  0  0  0  0  0  0
    1.2401   -3.5705    0.0000 C   0  0  0  0  0  0  0  0  0  0  0  0
    5.3879   -0.7269    0.0000 C   0  0  0  0  0  0  0  0  0  0  0  0
    0.0000   -2.8436    0.0000 C   0  0  0  0  0  0  0  0  0  0  0  0
  1 18  1  0  0  0  0
  2 10  1  0  0  0  0
  3 11  1  0  0  0  0
  4  9  1  0  0  0  0
  4 15  1  0  0  0  0
  5 19  2  0  0  0  0
  6 19  1  0  0  0  0
  7 12  1  0  0  0  0
  7 19  1  0  0  0  0
  8 18  1  0  0  0  0
  8 20  2  0  0  0  0
  9 10  1  0  0  0  0
  9 13  2  0  0  0  0
 10 11  2  0  0  0  0
 11 12  1  0  0  0  0
 12 14  2  0  0  0  0
 13 14  1  0  0  0  0
 15 16  1  0  0  0  0
 15 17  2  0  0  0  0
 16 18  2  0  0  0  0
 17 20  1  0  0  0  0
M  END
> <PUBCHEM_COMPOUND_ID_TYPE>
0

> <PUBCHEM_TOTAL_CHARGE>
0

> <PUBCHEM_SUBSTANCE_ID>
310929137

> <PUBCHEM_SUBSTANCE_VERSION>
1

> <PUBCHEM_EXT_DATASOURCE_NAME>
4488

> <PUBCHEM_EXT_DATASOURCE_REGID>
SCHEMBL16106300

> <PUBCHEM_SUBSTANCE_COMMENT>
InChI=1S/C12H7ClF2N2O3/c13-9-5-6(3-4-16-9)20-8-2-1-7(17-12(18)19)10(14)11(8)15/h1-5,17H,(H,18,19)
InChIKey=UGYQEMDLXBIMTA-UHFFFAOYSA-N

> <PUBCHEM_SUBSTANCE_SYNONYM>
SCHEMBL16106300

> <PUBCHEM_XREF_EXT_ID>
SCHEMBL16106300

> <PUBCHEM_EXT_DATASOURCE_URL>
https://www.surechembl.org/

> <PUBCHEM_EXT_SUBSTANCE_URL>
https://www.surechembl.org/chemical/SCHEMBL16106300

> <PUBCHEM_CID_ASSOCIATIONS>
117598614  1

> <PUBCHEM_COORDINATE_TYPE>
1
3

$$$$
