310947926
  -OEChem-07211613022D

 21 21  0     0  0  0  0  0  0999 V2000
    0.8155    2.6665    0.0000 O   0  0  0  0  0  0  0  0  0  0  0  0
   -0.6134    0.1915    0.0000 O   0  0  0  0  0  0  0  0  0  0  0  0
    0.8154    0.1915    0.0000 O   0  0  0  0  0  0  0  0  0  0  0  0
    1.5300    1.4290    0.0000 O   0  0  0  0  0  0  0  0  0  0  0  0
    0.1010    1.4290    0.0000 N   0  0  0  0  0  0  0  0  0  0  0  0
    0.1011    2.2540    0.0000 C   0  0  0  0  0  0  0  0  0  0  0  0
   -0.6133    1.8414    0.0000 C   0  0  0  0  0  0  0  0  0  0  0  0
    0.8155    1.8414    0.0000 C   0  0  0  0  0  0  0  0  0  0  0  0
    0.1010    0.6039    0.0000 C   0  0  0  0  0  0  0  0  0  0  0  0
   -0.6133    1.0165    0.0000 C   0  0  0  0  0  0  0  0  0  0  0  0
    0.8155    1.0165    0.0000 C   0  0  0  0  0  0  0  0  0  0  0  0
   -0.6133    2.6665    0.0000 C   0  0  0  0  0  0  0  0  0  0  0  0
   -0.6134   -0.6334    0.0000 C   0  0  0  0  0  0  0  0  0  0  0  0
    1.5300    2.2540    0.0000 C   0  0  0  0  0  0  0  0  0  0  0  0
   -1.3279    2.2540    0.0000 C   0  0  0  0  0  0  0  0  0  0  0  0
    0.1010   -1.0460    0.0000 C   0  0  0  0  0  0  0  0  0  0  0  0
   -0.6134   -1.4585    0.0000 C   0  0  0  0  0  0  0  0  0  0  0  0
   -1.3280   -1.0460    0.0000 C   0  0  0  0  0  0  0  0  0  0  0  0
    2.2445    2.6665    0.0000 C   0  0  0  0  0  0  0  0  0  0  0  0
   -2.0423    2.6665    0.0000 C   0  0  0  0  0  0  0  0  0  0  0  0
   -2.7567    2.2540    0.0000 C   0  0  0  0  0  0  0  0  0  0  0  0
  1  6  1  0  0  0  0
  1 14  1  0  0  0  0
  2  9  1  0  0  0  0
  2 13  1  0  0  0  0
  3  9  2  0  0  0  0
  4 14  2  0  0  0  0
  5  9  1  0  0  0  0
  5 10  1  0  0  0  0
  5 11  1  0  0  0  0
  6  7  1  0  0  0  0
  6  8  1  0  0  0  0
  6 12  1  0  0  0  0
  7 10  1  0  0  0  0
  8 11  1  0  0  0  0
 12 15  2  0  0  0  0
 13 16  1  0  0  0  0
 13 17  1  0  0  0  0
 13 18  1  0  0  0  0
 14 19  1  0  0  0  0
 15 20  1  0  0  0  0
 20 21  1  0  0  0  0
M  END
> <PUBCHEM_COMPOUND_ID_TYPE>
0

> <PUBCHEM_TOTAL_CHARGE>
0

> <PUBCHEM_SUBSTANCE_ID>
310947926

> <PUBCHEM_SUBSTANCE_VERSION>
1

> <PUBCHEM_EXT_DATASOURCE_NAME>
4488

> <PUBCHEM_EXT_DATASOURCE_REGID>
SCHEMBL16126100

> <PUBCHEM_SUBSTANCE_COMMENT>
InChI=1S/C16H27NO4/c1-6-7-8-16(20-13(2)18)9-11-17(12-10-16)14(19)21-15(3,4)5/h7-8H,6,9-12H2,1-5H3/b8-7+
InChIKey=UWTJKWINLIMBKL-BQYQJAHWSA-N

> <PUBCHEM_SUBSTANCE_SYNONYM>
SCHEMBL16126100

> <PUBCHEM_XREF_EXT_ID>
SCHEMBL16126100

> <PUBCHEM_EXT_DATASOURCE_URL>
https://www.surechembl.org/

> <PUBCHEM_EXT_SUBSTANCE_URL>
https://www.surechembl.org/chemical/SCHEMBL16126100

> <PUBCHEM_CID_ASSOCIATIONS>
117613584  1

> <PUBCHEM_COORDINATE_TYPE>
1
3

$$$$
