310947507
  -OEChem-07211613022D

 13 12  0     0  0  0  0  0  0999 V2000
    4.0998   -0.9700    0.0000 O   0  0  0  0  0  0  0  0  0  0  0  0
    4.8143   -3.0325    0.0000 O   0  0  0  0  0  0  0  0  0  0  0  0
    4.0998   -1.7950    0.0000 N   0  0  0  0  0  0  0  0  0  0  0  0
    4.8143   -2.2075    0.0000 C   0  0  0  0  0  0  0  0  0  0  0  0
    3.3854   -2.2075    0.0000 C   0  0  0  0  0  0  0  0  0  0  0  0
    1.9564   -2.2075    0.0000 C   0  0  0  0  0  0  0  0  0  0  0  0
    2.6709   -1.7950    0.0000 C   0  0  0  0  0  0  0  0  0  0  0  0
    1.2420   -1.7950    0.0000 C   0  0  0  0  0  0  0  0  0  0  0  0
    5.5288   -1.7950    0.0000 C   0  0  0  0  0  0  0  0  0  0  0  0
    1.9564   -3.0325    0.0000 C   0  0  0  0  0  0  0  0  0  0  0  0
    4.8143   -0.5575    0.0000 C   0  0  0  0  0  0  0  0  0  0  0  0
    0.5275   -2.2075    0.0000 C   0  0  0  0  0  0  0  0  0  0  0  0
    1.2420   -0.9700    0.0000 C   0  0  0  0  0  0  0  0  0  0  0  0
  1  3  1  0  0  0  0
  1 11  1  0  0  0  0
  2  4  2  0  0  0  0
  3  4  1  0  0  0  0
  3  5  1  0  0  0  0
  4  9  1  0  0  0  0
  5  7  1  0  0  0  0
  6  7  1  0  0  0  0
  6  8  2  0  0  0  0
  6 10  1  0  0  0  0
  8 12  1  0  0  0  0
  8 13  1  0  0  0  0
M  END
> <PUBCHEM_COMPOUND_ID_TYPE>
0

> <PUBCHEM_TOTAL_CHARGE>
0

> <PUBCHEM_SUBSTANCE_ID>
310947507

> <PUBCHEM_SUBSTANCE_VERSION>
1

> <PUBCHEM_EXT_DATASOURCE_NAME>
4488

> <PUBCHEM_EXT_DATASOURCE_REGID>
SCHEMBL16125669

> <PUBCHEM_SUBSTANCE_COMMENT>
InChI=1S/C10H19NO2/c1-8(2)9(3)6-7-11(13-5)10(4)12/h6-7H2,1-5H3
InChIKey=MTQLHYXQYAROEP-UHFFFAOYSA-N

> <PUBCHEM_SUBSTANCE_SYNONYM>
SCHEMBL16125669

> <PUBCHEM_XREF_EXT_ID>
SCHEMBL16125669

> <PUBCHEM_EXT_DATASOURCE_URL>
https://www.surechembl.org/

> <PUBCHEM_EXT_SUBSTANCE_URL>
https://www.surechembl.org/chemical/SCHEMBL16125669

> <PUBCHEM_CID_ASSOCIATIONS>
117613230  1

> <PUBCHEM_COORDINATE_TYPE>
1
3

$$$$
