310929820
  -OEChem-07211613022D

 25 26  0     1  0  0  0  0  0999 V2000
    4.7694    1.1503    0.0000 O   0  0  0  0  0  0  0  0  0  0  0  0
    0.7441    0.6040    0.0000 O   0  0  0  0  0  0  0  0  0  0  0  0
    4.0549    2.3878    0.0000 O   0  0  0  0  0  0  0  0  0  0  0  0
    3.3405    1.1503    0.0000 N   0  0  0  0  0  0  0  0  0  0  0  0
    1.3093    1.9767    0.0000 N   0  0  0  0  0  0  0  0  0  0  0  0
    0.5050    1.7931    0.0000 N   0  3  0  0  0  0  0  0  0  0  0  0
   -0.2993    1.6095    0.0000 N   0  5  0  0  0  0  0  0  0  0  0  0
    1.8705    1.3719    0.0000 C   0  0  3  0  0  0  0  0  0  0  0  0
    1.5691    0.6040    0.0000 C   0  0  3  0  0  0  0  0  0  0  0  0
    2.6589    1.6151    0.0000 C   0  0  0  0  0  0  0  0  0  0  0  0
    4.0549    1.5628    0.0000 C   0  0  0  0  0  0  0  0  0  0  0  0
    3.4021    0.3276    0.0000 C   0  0  0  0  0  0  0  0  0  0  0  0
    1.9816   -0.1106    0.0000 C   0  0  0  0  0  0  0  0  0  0  0  0
    5.4839    1.5628    0.0000 C   0  0  0  0  0  0  0  0  0  0  0  0
    2.7974   -0.2335    0.0000 C   0  0  0  0  0  0  0  0  0  0  0  0
    0.3316   -0.1106    0.0000 C   0  0  0  0  0  0  0  0  0  0  0  0
   -0.4934   -0.1106    0.0000 C   0  0  0  0  0  0  0  0  0  0  0  0
   -0.9059    0.6040    0.0000 C   0  0  0  0  0  0  0  0  0  0  0  0
   -0.9059   -0.8250    0.0000 C   0  0  0  0  0  0  0  0  0  0  0  0
    5.4839    2.3878    0.0000 C   0  0  0  0  0  0  0  0  0  0  0  0
    6.1983    1.9753    0.0000 C   0  0  0  0  0  0  0  0  0  0  0  0
    6.1983    1.1503    0.0000 C   0  0  0  0  0  0  0  0  0  0  0  0
   -1.7309    0.6040    0.0000 C   0  0  0  0  0  0  0  0  0  0  0  0
   -1.7309   -0.8250    0.0000 C   0  0  0  0  0  0  0  0  0  0  0  0
   -2.1434   -0.1106    0.0000 C   0  0  0  0  0  0  0  0  0  0  0  0
  1 11  1  0  0  0  0
  1 14  1  0  0  0  0
  9  2  1  1  0  0  0
  2 16  1  0  0  0  0
  3 11  2  0  0  0  0
  4 10  1  0  0  0  0
  4 11  1  0  0  0  0
  4 12  1  0  0  0  0
  5  6  2  0  0  0  0
  8  5  1  6  0  0  0
  6  7  2  0  0  0  0
  8  9  1  0  0  0  0
  8 10  1  0  0  0  0
  9 13  1  0  0  0  0
 12 15  1  0  0  0  0
 13 15  2  0  0  0  0
 14 20  1  0  0  0  0
 14 21  1  0  0  0  0
 14 22  1  0  0  0  0
 16 17  1  0  0  0  0
 17 18  2  0  0  0  0
 17 19  1  0  0  0  0
 18 23  1  0  0  0  0
 19 24  2  0  0  0  0
 23 25  2  0  0  0  0
 24 25  1  0  0  0  0
M  CHG  2   6   1   7  -1
M  END
> <PUBCHEM_COMPOUND_ID_TYPE>
0

> <PUBCHEM_TOTAL_CHARGE>
0

> <PUBCHEM_SUBSTANCE_ID>
310929820

> <PUBCHEM_SUBSTANCE_VERSION>
1

> <PUBCHEM_EXT_DATASOURCE_NAME>
4488

> <PUBCHEM_EXT_DATASOURCE_REGID>
SCHEMBL16107029

> <PUBCHEM_SUBSTANCE_COMMENT>
InChI=1S/C18H24N4O3/c1-18(2,3)25-17(23)22-11-7-10-16(15(12-22)20-21-19)24-13-14-8-5-4-6-9-14/h4-10,15-16H,11-13H2,1-3H3/t15-,16-/m1/s1
InChIKey=GFCSXTBAPCJONG-HZPDHXFCSA-N

> <PUBCHEM_SUBSTANCE_SYNONYM>
SCHEMBL16107029

> <PUBCHEM_XREF_EXT_ID>
SCHEMBL16107029

> <PUBCHEM_EXT_DATASOURCE_URL>
https://www.surechembl.org/

> <PUBCHEM_EXT_SUBSTANCE_URL>
https://www.surechembl.org/chemical/SCHEMBL16107029

> <PUBCHEM_CID_ASSOCIATIONS>
10545394  1

> <PUBCHEM_COORDINATE_TYPE>
1
3

> <PUBCHEM_BONDANNOTATIONS>
9  2  5
8  5  6

$$$$
