310948785
  -OEChem-07211613022D

 31 33  0     1  0  0  0  0  0999 V2000
    1.6247   -2.6862    0.0000 F   0  0  0  0  0  0  0  0  0  0  0  0
    0.2585   -3.1109    0.0000 F   0  0  0  0  0  0  0  0  0  0  0  0
    1.0339   -3.2954    0.0000 F   0  0  0  0  0  0  0  0  0  0  0  0
   -2.6031    1.6523    0.0000 O   0  0  0  0  0  0  0  0  0  0  0  0
    0.1661    1.4862    0.0000 N   0  0  0  0  0  0  0  0  0  0  0  0
   -1.5693    0.2308    0.0000 N   0  0  0  0  0  0  0  0  0  0  0  0
   -1.8646    2.8893    0.0000 N   0  0  0  0  0  0  0  0  0  0  0  0
   -0.1847    0.7477    0.0000 N   0  0  0  0  0  0  0  0  0  0  0  0
    1.1077   -1.0985    0.0000 N   0  0  0  0  0  0  0  0  0  0  0  0
    1.0339   -0.5262    0.0000 N   0  0  0  0  0  0  0  0  0  0  0  0
   -1.1446    1.6708    0.0000 C   0  0  0  0  0  0  0  0  0  0  0  0
   -0.4615    2.0585    0.0000 C   0  0  0  0  0  0  0  0  0  0  0  0
   -0.9969    0.8585    0.0000 C   0  0  0  0  0  0  0  0  0  0  0  0
   -1.8646    2.0954    0.0000 C   0  0  0  0  0  0  0  0  0  0  0  0
   -0.2585   -1.5416    0.0000 C   0  0  0  0  0  0  0  0  0  0  0  0
   -1.3108   -0.5446    0.0000 C   0  0  0  0  0  0  0  0  0  0  0  0
    0.5354   -1.7077    0.0000 C   0  0  3  0  0  0  0  0  0  0  0  0
    0.9785    1.6523    0.0000 C   0  0  3  0  0  0  0  0  0  0  0  0
   -0.4246    2.8708    0.0000 C   0  0  0  0  0  0  0  0  0  0  0  0
    0.8123   -2.5016    0.0000 C   0  0  0  0  0  0  0  0  0  0  0  0
   -0.5169   -0.7477    0.0000 C   0  0  0  0  0  0  0  0  0  0  0  0
    1.5138    1.0616    0.0000 C   0  0  3  0  0  0  0  0  0  0  0  0
   -1.1631    3.2954    0.0000 C   0  0  0  0  0  0  0  0  0  0  0  0
   -0.7938   -2.1324    0.0000 C   0  0  0  0  0  0  0  0  0  0  0  0
   -1.8462   -1.1723    0.0000 C   0  0  0  0  0  0  0  0  0  0  0  0
   -1.6062   -1.9477    0.0000 C   0  0  0  0  0  0  0  0  0  0  0  0
    1.2554    2.4462    0.0000 C   0  0  0  0  0  0  0  0  0  0  0  0
    2.3262    1.2092    0.0000 C   0  0  0  0  0  0  0  0  0  0  0  0
    1.2554    0.2492    0.0000 C   0  0  0  0  0  0  0  0  0  0  0  0
    2.0677    2.5939    0.0000 C   0  0  0  0  0  0  0  0  0  0  0  0
    2.6031    1.9846    0.0000 C   0  0  0  0  0  0  0  0  0  0  0  0
  1 20  1  0  0  0  0
  2 20  1  0  0  0  0
  3 20  1  0  0  0  0
  4 14  2  0  0  0  0
  5 12  1  0  0  0  0
 18  5  1  1  0  0  0
  6 13  1  0  0  0  0
  6 16  1  0  0  0  0
  7 14  1  0  0  0  0
  7 23  1  0  0  0  0
  8 13  2  3  0  0  0
 17  9  1  1  0  0  0
 10 29  3  0  0  0  0
 11 12  2  0  0  0  0
 11 13  1  0  0  0  0
 11 14  1  0  0  0  0
 12 19  1  0  0  0  0
 15 17  1  0  0  0  0
 15 21  2  0  0  0  0
 15 24  1  0  0  0  0
 16 21  1  0  0  0  0
 16 25  2  0  0  0  0
 17 20  1  0  0  0  0
 18 22  1  0  0  0  0
 18 27  1  0  0  0  0
 19 23  2  0  0  0  0
 22 28  1  0  0  0  0
 22 29  1  6  0  0  0
 24 26  2  0  0  0  0
 25 26  1  0  0  0  0
 27 30  1  0  0  0  0
 28 31  1  0  0  0  0
 30 31  1  0  0  0  0
M  END
> <PUBCHEM_COMPOUND_ID_TYPE>
0

> <PUBCHEM_TOTAL_CHARGE>
0

> <PUBCHEM_SUBSTANCE_ID>
310948785

> <PUBCHEM_SUBSTANCE_VERSION>
1

> <PUBCHEM_EXT_DATASOURCE_NAME>
4488

> <PUBCHEM_EXT_DATASOURCE_REGID>
SCHEMBL16126969

> <PUBCHEM_SUBSTANCE_COMMENT>
InChI=1S/C21H23F3N6O/c22-21(23,24)18(26)12-5-3-6-14(10-12)29-19(27)17-16(8-9-28-20(17)31)30-15-7-2-1-4-13(15)11-25/h3,5-6,8-10,13,15,18H,1-2,4,7,26H2,(H2,27,29)(H2,28,30,31)/t13-,15+,18-/m1/s1
InChIKey=WBPLZZXJFRGKLS-QIIPPGSGSA-N

> <PUBCHEM_SUBSTANCE_SYNONYM>
SCHEMBL16126969

> <PUBCHEM_XREF_EXT_ID>
SCHEMBL16126969

> <PUBCHEM_EXT_DATASOURCE_URL>
https://www.surechembl.org/

> <PUBCHEM_EXT_SUBSTANCE_URL>
https://www.surechembl.org/chemical/SCHEMBL16126969

> <PUBCHEM_CID_ASSOCIATIONS>
117614326  1

> <PUBCHEM_COORDINATE_TYPE>
1
3

> <PUBCHEM_BONDANNOTATIONS>
22  29  6
18  5  5
17  9  5

$$$$
