310940710
  -OEChem-07211613022D

 35 39  0     1  0  0  0  0  0999 V2000
   -1.1636    0.1630    0.0000 O   0  0  0  0  0  0  0  0  0  0  0  0
    3.5204   -2.8312    0.0000 O   0  0  0  0  0  0  0  0  0  0  0  0
    2.2753   -2.1048    0.0000 O   0  0  0  0  0  0  0  0  0  0  0  0
    1.7861    0.0148    0.0000 N   0  0  0  0  0  0  0  0  0  0  0  0
    1.7861   -1.3340    0.0000 N   0  0  0  0  0  0  0  0  0  0  0  0
   -3.3277   -0.2371    0.0000 N   0  0  0  0  0  0  0  0  0  0  0  0
    2.2456   -0.6522    0.0000 C   0  0  0  0  0  0  0  0  0  0  0  0
    1.0005   -0.2371    0.0000 C   0  0  0  0  0  0  0  0  0  0  0  0
    0.9857   -1.0524    0.0000 C   0  0  0  0  0  0  0  0  0  0  0  0
    3.1202   -0.6522    0.0000 C   0  0  3  0  0  0  0  0  0  0  0  0
    0.2594    0.1630    0.0000 C   0  0  0  0  0  0  0  0  0  0  0  0
    3.5352   -1.3489    0.0000 C   0  0  3  0  0  0  0  0  0  0  0  0
    2.0382    0.8153    0.0000 C   0  0  0  0  0  0  0  0  0  0  0  0
    0.2742   -1.4823    0.0000 C   0  0  0  0  0  0  0  0  0  0  0  0
   -0.4373   -0.2371    0.0000 C   0  0  0  0  0  0  0  0  0  0  0  0
    3.5352    0.0593    0.0000 C   0  0  0  0  0  0  0  0  0  0  0  0
   -0.4373   -1.0672    0.0000 C   0  0  0  0  0  0  0  0  0  0  0  0
    1.4749    1.4378    0.0000 C   0  0  0  0  0  0  0  0  0  0  0  0
    3.0906   -2.1048    0.0000 C   0  0  0  0  0  0  0  0  0  0  0  0
    4.3505   -1.3637    0.0000 C   0  0  0  0  0  0  0  0  0  0  0  0
    4.3505    0.0593    0.0000 C   0  0  0  0  0  0  0  0  0  0  0  0
    4.7507   -0.6522    0.0000 C   0  0  0  0  0  0  0  0  0  0  0  0
    0.6745    1.2599    0.0000 C   0  0  0  0  0  0  0  0  0  0  0  0
    1.7269    2.2234    0.0000 C   0  0  0  0  0  0  0  0  0  0  0  0
    0.1260    1.8825    0.0000 C   0  0  0  0  0  0  0  0  0  0  0  0
   -1.8751   -0.2371    0.0000 C   0  0  0  0  0  0  0  0  0  0  0  0
    1.1932    2.8312    0.0000 C   0  0  0  0  0  0  0  0  0  0  0  0
   -2.6162    0.1779    0.0000 C   0  0  0  0  0  0  0  0  0  0  0  0
    0.3780    2.6681    0.0000 C   0  0  0  0  0  0  0  0  0  0  0  0
   -2.6014    1.0080    0.0000 C   0  0  0  0  0  0  0  0  0  0  0  0
   -0.7041    1.7046    0.0000 C   0  0  0  0  0  0  0  0  0  0  0  0
   -4.0392    1.0080    0.0000 C   0  0  0  0  0  0  0  0  0  0  0  0
   -4.0392    0.1779    0.0000 C   0  0  0  0  0  0  0  0  0  0  0  0
   -3.3425    1.4230    0.0000 C   0  0  0  0  0  0  0  0  0  0  0  0
   -4.7507    1.4230    0.0000 C   0  0  0  0  0  0  0  0  0  0  0  0
  1 15  1  0  0  0  0
  1 26  1  0  0  0  0
  2 19  2  0  0  0  0
  3 19  1  0  0  0  0
  4  7  1  0  0  0  0
  4  8  1  0  0  0  0
  4 13  1  0  0  0  0
  5  7  2  0  0  0  0
  5  9  1  0  0  0  0
  6 28  1  0  0  0  0
  6 33  2  0  0  0  0
 10  7  1  1  0  0  0
  8  9  1  0  0  0  0
  8 11  2  0  0  0  0
  9 14  2  0  0  0  0
 10 12  1  0  0  0  0
 10 16  1  0  0  0  0
 11 15  1  0  0  0  0
 12 19  1  1  0  0  0
 12 20  1  0  0  0  0
 13 18  1  0  0  0  0
 14 17  1  0  0  0  0
 15 17  2  0  0  0  0
 16 21  1  0  0  0  0
 18 23  1  0  0  0  0
 18 24  2  0  0  0  0
 20 22  1  0  0  0  0
 21 22  1  0  0  0  0
 23 25  2  0  0  0  0
 24 27  1  0  0  0  0
 25 29  1  0  0  0  0
 25 31  1  0  0  0  0
 26 28  1  0  0  0  0
 27 29  2  0  0  0  0
 28 30  2  0  0  0  0
 30 34  1  0  0  0  0
 32 33  1  0  0  0  0
 32 34  2  0  0  0  0
 32 35  1  0  0  0  0
M  END
> <PUBCHEM_COMPOUND_ID_TYPE>
0

> <PUBCHEM_TOTAL_CHARGE>
0

> <PUBCHEM_SUBSTANCE_ID>
310940710

> <PUBCHEM_SUBSTANCE_VERSION>
1

> <PUBCHEM_EXT_DATASOURCE_NAME>
4488

> <PUBCHEM_EXT_DATASOURCE_REGID>
SCHEMBL16118666

> <PUBCHEM_SUBSTANCE_COMMENT>
InChI=1S/C29H31N3O3/c1-19-6-5-7-21(14-19)17-32-27-15-23(35-18-22-11-10-20(2)16-30-22)12-13-26(27)31-28(32)24-8-3-4-9-25(24)29(33)34/h5-7,10-16,24-25H,3-4,8-9,17-18H2,1-2H3,(H,33,34)/t24-,25+/m0/s1
InChIKey=DBQINWSMQRBPHR-LOSJGSFVSA-N

> <PUBCHEM_SUBSTANCE_SYNONYM>
SCHEMBL16118666

> <PUBCHEM_XREF_EXT_ID>
SCHEMBL16118666

> <PUBCHEM_EXT_DATASOURCE_URL>
https://www.surechembl.org/

> <PUBCHEM_EXT_SUBSTANCE_URL>
https://www.surechembl.org/chemical/SCHEMBL16118666

> <PUBCHEM_CID_ASSOCIATIONS>
117607667  1

> <PUBCHEM_COORDINATE_TYPE>
1
3

> <PUBCHEM_BONDANNOTATIONS>
12  19  5
10  7  5

$$$$
