310941211
  -OEChem-07211613022D

 21 22  0     1  0  0  0  0  0999 V2000
    1.4397    0.8083    0.0000 O   0  0  0  0  0  0  0  0  0  0  0  0
    0.0000   -0.8578    0.0000 O   0  0  0  0  0  0  0  0  0  0  0  0
    0.5870   -1.8329    0.0000 O   0  0  0  0  0  0  0  0  0  0  0  0
    0.0809    2.4745    0.0000 O   0  0  0  0  0  0  0  0  0  0  0  0
    0.0886   -2.6524    0.0000 O   0  0  0  0  0  0  0  0  0  0  0  0
   -1.4397   -0.0166    0.0000 N   0  0  0  0  0  0  0  0  0  0  0  0
    0.7441    0.4040    0.0000 C   0  0  3  0  0  0  0  0  0  0  0  0
    0.0161    0.0157    0.0000 C   0  0  0  0  0  0  0  0  0  0  0  0
    1.4397   -0.0005    0.0000 C   0  0  0  0  0  0  0  0  0  0  0  0
   -0.7118    0.4040    0.0000 C   0  0  3  0  0  0  0  0  0  0  0  0
    0.1294    1.0025    0.0000 C   0  0  0  0  0  0  0  0  0  0  0  0
   -0.7118    1.2451    0.0000 C   0  0  0  0  0  0  0  0  0  0  0  0
    0.0000    1.6657    0.0000 C   0  0  3  0  0  0  0  0  0  0  0  0
    0.0886   -2.1208    0.0000 C   0  0  0  0  0  0  0  0  0  0  0  0
    0.5981   -1.2792    0.0000 C   0  0  0  0  0  0  0  0  0  0  0  0
    0.7765    1.3260    0.0000 C   0  0  0  0  0  0  0  0  0  0  0  0
    0.9059    2.6524    0.0000 C   0  0  0  0  0  0  0  0  0  0  0  0
    1.3264    1.9245    0.0000 C   0  0  0  0  0  0  0  0  0  0  0  0
    1.0964   -1.2571    0.0000 C   0  0  0  0  0  0  0  0  0  0  0  0
    0.0886   -1.2792    0.0000 C   0  0  0  0  0  0  0  0  0  0  0  0
    0.5870   -0.7365    0.0000 C   0  0  0  0  0  0  0  0  0  0  0  0
  1  7  1  0  0  0  0
  1  9  1  0  0  0  0
  2  8  2  0  0  0  0
  3 14  1  0  0  0  0
  3 15  1  0  0  0  0
  4 13  1  0  0  0  0
  4 17  1  0  0  0  0
  5 14  2  0  0  0  0
 10  6  1  1  0  0  0
  6 14  1  0  0  0  0
  7  8  1  6  0  0  0
  7  9  1  0  0  0  0
  7 11  1  1  0  0  0
  8 10  1  0  0  0  0
 10 12  1  0  0  0  0
 13 12  1  1  0  0  0
 13 16  1  0  0  0  0
 15 19  1  0  0  0  0
 15 20  1  0  0  0  0
 15 21  1  0  0  0  0
 16 18  1  0  0  0  0
 17 18  1  0  0  0  0
M  END
> <PUBCHEM_COMPOUND_ID_TYPE>
0

> <PUBCHEM_TOTAL_CHARGE>
0

> <PUBCHEM_SUBSTANCE_ID>
310941211

> <PUBCHEM_SUBSTANCE_VERSION>
1

> <PUBCHEM_EXT_DATASOURCE_NAME>
4488

> <PUBCHEM_EXT_DATASOURCE_REGID>
SCHEMBL16119171

> <PUBCHEM_SUBSTANCE_COMMENT>
InChI=1S/C15H25NO5/c1-14(2,3)21-13(18)16-11(8-10-6-5-7-19-10)12(17)15(4)9-20-15/h10-11H,5-9H2,1-4H3,(H,16,18)/t10-,11-,15+/m0/s1
InChIKey=VJNFSPWPKCGJHJ-ZIBATOQPSA-N

> <PUBCHEM_SUBSTANCE_SYNONYM>
SCHEMBL16119171

> <PUBCHEM_XREF_EXT_ID>
SCHEMBL16119171

> <PUBCHEM_EXT_DATASOURCE_URL>
https://www.surechembl.org/

> <PUBCHEM_EXT_SUBSTANCE_URL>
https://www.surechembl.org/chemical/SCHEMBL16119171

> <PUBCHEM_CID_ASSOCIATIONS>
117608082  1

> <PUBCHEM_COORDINATE_TYPE>
1
3

> <PUBCHEM_BONDANNOTATIONS>
13  12  5
10  6  5
7  11  5
7  8  6

$$$$
