310946340
  -OEChem-07211613022D

 21 22  0     0  0  0  0  0  0999 V2000
   -1.0665  -16.0199    0.0000 I   0  0  0  0  0  0  0  0  0  0  0  0
    0.3624  -13.5449    0.0000 I   0  0  0  0  0  0  0  0  0  0  0  0
   -1.0665  -14.3699    0.0000 O   0  0  0  0  0  0  0  0  0  0  0  0
    2.5058  -14.7824    0.0000 O   0  0  0  0  0  0  0  0  0  0  0  0
   -3.9244  -16.0199    0.0000 O   0  0  0  0  0  0  0  0  0  0  0  0
    3.2203  -16.0199    0.0000 N   0  0  0  0  0  0  0  0  0  0  0  0
   -0.3520  -14.7824    0.0000 C   0  0  0  0  0  0  0  0  0  0  0  0
   -0.3520  -15.6074    0.0000 C   0  0  0  0  0  0  0  0  0  0  0  0
    0.3624  -14.3699    0.0000 C   0  0  0  0  0  0  0  0  0  0  0  0
    1.0769  -15.6074    0.0000 C   0  0  0  0  0  0  0  0  0  0  0  0
    0.3624  -16.0199    0.0000 C   0  0  0  0  0  0  0  0  0  0  0  0
    1.0769  -14.7824    0.0000 C   0  0  0  0  0  0  0  0  0  0  0  0
   -1.7810  -14.7824    0.0000 C   0  0  0  0  0  0  0  0  0  0  0  0
    1.7914  -16.0199    0.0000 C   0  0  0  0  0  0  0  0  0  0  0  0
   -2.4955  -14.3699    0.0000 C   0  0  0  0  0  0  0  0  0  0  0  0
   -1.7810  -15.6074    0.0000 C   0  0  0  0  0  0  0  0  0  0  0  0
    2.5058  -15.6074    0.0000 C   0  0  0  0  0  0  0  0  0  0  0  0
   -3.2099  -15.6074    0.0000 C   0  0  0  0  0  0  0  0  0  0  0  0
   -3.2099  -14.7824    0.0000 C   0  0  0  0  0  0  0  0  0  0  0  0
   -2.4955  -16.0199    0.0000 C   0  0  0  0  0  0  0  0  0  0  0  0
    3.9348  -15.6074    0.0000 C   0  0  0  0  0  0  0  0  0  0  0  0
  1  8  1  0  0  0  0
  2  9  1  0  0  0  0
  3  7  1  0  0  0  0
  3 13  1  0  0  0  0
  4 17  2  0  0  0  0
  5 18  1  0  0  0  0
  6 17  1  0  0  0  0
  6 21  1  0  0  0  0
  7  8  2  0  0  0  0
  7  9  1  0  0  0  0
  8 11  1  0  0  0  0
  9 12  2  0  0  0  0
 10 11  2  0  0  0  0
 10 12  1  0  0  0  0
 10 14  1  0  0  0  0
 13 15  2  0  0  0  0
 13 16  1  0  0  0  0
 14 17  1  0  0  0  0
 15 19  1  0  0  0  0
 16 20  2  0  0  0  0
 18 19  2  0  0  0  0
 18 20  1  0  0  0  0
M  END
> <PUBCHEM_COMPOUND_ID_TYPE>
0

> <PUBCHEM_TOTAL_CHARGE>
0

> <PUBCHEM_SUBSTANCE_ID>
310946340

> <PUBCHEM_SUBSTANCE_VERSION>
1

> <PUBCHEM_EXT_DATASOURCE_NAME>
4488

> <PUBCHEM_EXT_DATASOURCE_REGID>
SCHEMBL16124459

> <PUBCHEM_SUBSTANCE_COMMENT>
InChI=1S/C15H13I2NO3/c1-18-14(20)8-9-6-12(16)15(13(17)7-9)21-11-4-2-10(19)3-5-11/h2-7,19H,8H2,1H3,(H,18,20)
InChIKey=PRMULAWYZXPOTC-UHFFFAOYSA-N

> <PUBCHEM_SUBSTANCE_SYNONYM>
SCHEMBL16124459

> <PUBCHEM_XREF_EXT_ID>
SCHEMBL16124459

> <PUBCHEM_EXT_DATASOURCE_URL>
https://www.surechembl.org/

> <PUBCHEM_EXT_SUBSTANCE_URL>
https://www.surechembl.org/chemical/SCHEMBL16124459

> <PUBCHEM_CID_ASSOCIATIONS>
117612263  1

> <PUBCHEM_COORDINATE_TYPE>
1
3

$$$$
