310944425
  -OEChem-07211613022D

 15 16  0     1  0  0  0  0  0999 V2000
    2.6464   -1.5033    0.0000 Br  0  0  0  0  0  0  0  0  0  0  0  0
    0.3187    0.0069    0.0000 N   0  0  0  0  0  0  0  0  0  0  0  0
    0.8037    0.6720    0.0000 N   0  0  0  0  0  0  0  0  0  0  0  0
   -0.4850    0.2841    0.0000 C   0  0  0  0  0  0  0  0  0  0  0  0
   -0.4711    1.1015    0.0000 C   0  0  0  0  0  0  0  0  0  0  0  0
    0.3048    1.3371    0.0000 C   0  0  0  0  0  0  0  0  0  0  0  0
   -1.1915   -0.1455    0.0000 C   0  0  0  0  0  0  0  0  0  0  0  0
   -1.1915    1.5033    0.0000 C   0  0  0  0  0  0  0  0  0  0  0  0
    0.5681   -0.7690    0.0000 C   0  0  0  0  0  0  0  0  0  0  0  0
   -1.9121    0.2702    0.0000 C   0  0  0  0  0  0  0  0  0  0  0  0
   -1.9121    1.1015    0.0000 C   0  0  0  0  0  0  0  0  0  0  0  0
    1.4133   -0.7829    0.0000 C   0  0  3  0  0  0  0  0  0  0  0  0
   -2.6464   -0.1732    0.0000 C   0  0  0  0  0  0  0  0  0  0  0  0
    1.8151   -1.4894    0.0000 C   0  0  0  0  0  0  0  0  0  0  0  0
    1.8012   -0.0762    0.0000 C   0  0  0  0  0  0  0  0  0  0  0  0
  1 14  1  0  0  0  0
  2  3  1  0  0  0  0
  2  4  1  0  0  0  0
  2  9  1  0  0  0  0
  3  6  2  0  0  0  0
  4  5  1  0  0  0  0
  4  7  2  0  0  0  0
  5  6  1  0  0  0  0
  5  8  2  0  0  0  0
  7 10  1  0  0  0  0
  8 11  1  0  0  0  0
  9 12  1  0  0  0  0
 10 11  2  0  0  0  0
 10 13  1  0  0  0  0
 12 14  1  0  0  0  0
 12 15  1  6  0  0  0
M  END
> <PUBCHEM_COMPOUND_ID_TYPE>
0

> <PUBCHEM_TOTAL_CHARGE>
0

> <PUBCHEM_SUBSTANCE_ID>
310944425

> <PUBCHEM_SUBSTANCE_VERSION>
1

> <PUBCHEM_EXT_DATASOURCE_NAME>
4488

> <PUBCHEM_EXT_DATASOURCE_REGID>
SCHEMBL16122500

> <PUBCHEM_SUBSTANCE_COMMENT>
InChI=1S/C12H15BrN2/c1-9-3-4-11-7-14-15(12(11)5-9)8-10(2)6-13/h3-5,7,10H,6,8H2,1-2H3/t10-/m1/s1
InChIKey=VFICKHWQJAXGJA-SNVBAGLBSA-N

> <PUBCHEM_SUBSTANCE_SYNONYM>
SCHEMBL16122500

> <PUBCHEM_XREF_EXT_ID>
SCHEMBL16122500

> <PUBCHEM_EXT_DATASOURCE_URL>
https://www.surechembl.org/

> <PUBCHEM_EXT_SUBSTANCE_URL>
https://www.surechembl.org/chemical/SCHEMBL16122500

> <PUBCHEM_CID_ASSOCIATIONS>
117610679  1

> <PUBCHEM_COORDINATE_TYPE>
1
3

> <PUBCHEM_BONDANNOTATIONS>
12  15  6

$$$$
