310947101
  -OEChem-07211613022D

 25 28  0     1  0  0  0  0  0999 V2000
   -3.0975    6.4782    0.0000 P   0  0  3  0  0  0  0  0  0  0  0  0
   -0.3072    5.9750    0.0000 F   0  0  0  0  0  0  0  0  0  0  0  0
   -1.1322    7.9590    0.0000 O   0  0  0  0  0  0  0  0  0  0  0  0
   -1.9572    5.9750    0.0000 O   0  0  0  0  0  0  0  0  0  0  0  0
   -3.0975    7.3032    0.0000 O   0  0  0  0  0  0  0  0  0  0  0  0
   -3.9225    6.4782    0.0000 O   0  0  0  0  0  0  0  0  0  0  0  0
    0.1186    8.0575    0.0000 N   0  0  0  0  0  0  0  0  0  0  0  0
    0.5311    9.3270    0.0000 N   0  0  0  0  0  0  0  0  0  0  0  0
    1.4956    7.4444    0.0000 N   0  0  0  0  0  0  0  0  0  0  0  0
    2.5576    8.4005    0.0000 N   0  0  0  0  0  0  0  0  0  0  0  0
   -1.5447    6.6895    0.0000 C   0  0  3  0  0  0  0  0  0  0  0  0
   -1.7996    7.4741    0.0000 C   0  0  3  0  0  0  0  0  0  0  0  0
   -0.4648    7.4741    0.0000 C   0  0  3  0  0  0  0  0  0  0  0  0
   -0.7197    6.6895    0.0000 C   0  0  3  0  0  0  0  0  0  0  0  0
   -2.5141    7.8866    0.0000 C   0  0  3  0  0  0  0  0  0  0  0  0
    0.9436    8.0575    0.0000 C   0  0  3  0  0  0  0  0  0  0  0  0
    1.1985    8.8421    0.0000 C   0  0  3  0  0  0  0  0  0  0  0  0
   -0.1363    8.8421    0.0000 C   0  0  0  0  0  0  0  0  0  0  0  0
   -3.3110    5.6814    0.0000 C   0  0  0  0  0  0  0  0  0  0  0  0
    2.0055    9.0136    0.0000 C   0  0  0  0  0  0  0  0  0  0  0  0
   -2.3006    8.6835    0.0000 C   0  0  0  0  0  0  0  0  0  0  0  0
    2.3026    7.6159    0.0000 C   0  0  0  0  0  0  0  0  0  0  0  0
   -2.5141    5.4678    0.0000 C   0  0  0  0  0  0  0  0  0  0  0  0
   -4.1079    5.8949    0.0000 C   0  0  0  0  0  0  0  0  0  0  0  0
    2.2605    9.7982    0.0000 C   0  0  0  0  0  0  0  0  0  0  0  0
  1  4  1  0  0  0  0
  1  5  1  0  0  0  0
  1  6  2  0  0  0  0
  1 19  1  0  0  0  0
 14  2  1  6  0  0  0
 12  3  1  1  0  0  0
 13  3  1  1  0  0  0
 11  4  1  6  0  0  0
  5 15  1  0  0  0  0
  7 13  1  0  0  0  0
  7 16  1  0  0  0  0
  7 18  1  0  0  0  0
  8 17  1  0  0  0  0
  8 18  2  0  0  0  0
  9 16  1  0  0  0  0
  9 22  2  0  0  0  0
 10 20  2  0  0  0  0
 10 22  1  0  0  0  0
 11 12  1  0  0  0  0
 11 14  1  0  0  0  0
 12 15  1  0  0  0  0
 13 14  1  0  0  0  0
 15 21  1  0  0  0  0
 16 17  1  0  0  0  0
 17 20  1  0  0  0  0
 19 23  1  0  0  0  0
 19 24  1  0  0  0  0
 20 25  1  0  0  0  0
M  END
> <PUBCHEM_COMPOUND_ID_TYPE>
0

> <PUBCHEM_TOTAL_CHARGE>
0

> <PUBCHEM_SUBSTANCE_ID>
310947101

> <PUBCHEM_SUBSTANCE_VERSION>
1

> <PUBCHEM_EXT_DATASOURCE_NAME>
4488

> <PUBCHEM_EXT_DATASOURCE_REGID>
SCHEMBL16125255

> <PUBCHEM_SUBSTANCE_COMMENT>
InChI=1S/C15H22FN4O4P/c1-7(2)25(21)23-9(4)12-13(24-25)10(16)15(22-12)20-6-19-11-8(3)17-5-18-14(11)20/h5-7,9-15H,1-4H3/t9?,10-,11?,12-,13+,14?,15-,25?/m1/s1
InChIKey=OMWMEPSWDCCPFP-MLFRANHBSA-N

> <PUBCHEM_SUBSTANCE_SYNONYM>
SCHEMBL16125255

> <PUBCHEM_XREF_EXT_ID>
SCHEMBL16125255

> <PUBCHEM_EXT_DATASOURCE_URL>
https://www.surechembl.org/

> <PUBCHEM_EXT_SUBSTANCE_URL>
https://www.surechembl.org/chemical/SCHEMBL16125255

> <PUBCHEM_CID_ASSOCIATIONS>
117612953  1

> <PUBCHEM_COORDINATE_TYPE>
1
3

> <PUBCHEM_BONDANNOTATIONS>
19  23  3
19  24  3
14  2  6
12  3  5
13  3  5
11  4  6

$$$$
