310942227
  -OEChem-07211613022D

 27 29  0     1  0  0  0  0  0999 V2000
    2.5157    1.4509    0.0000 Cl  0  0  0  0  0  0  0  0  0  0  0  0
    1.0835   -1.0275    0.0000 F   0  0  0  0  0  0  0  0  0  0  0  0
    2.5033   -0.2055    0.0000 O   0  0  0  0  0  0  0  0  0  0  0  0
   -1.0711    0.2180    0.0000 N   0  0  0  0  0  0  0  0  0  0  0  0
   -2.5033    0.2180    0.0000 N   0  0  0  0  0  0  0  0  0  0  0  0
   -1.7933   -1.0275    0.0000 N   0  0  0  0  0  0  0  0  0  0  0  0
   -4.6703   -1.0399    0.0000 N   0  0  0  0  0  0  0  0  0  0  0  0
    0.3487    0.2180    0.0000 C   0  0  0  0  0  0  0  0  0  0  0  0
    1.0835   -0.1931    0.0000 C   0  0  0  0  0  0  0  0  0  0  0  0
    1.7809    0.2180    0.0000 C   0  0  0  0  0  0  0  0  0  0  0  0
   -0.3487   -0.2055    0.0000 C   0  0  3  0  0  0  0  0  0  0  0  0
    1.7933    1.0524    0.0000 C   0  0  0  0  0  0  0  0  0  0  0  0
    0.3861    1.0524    0.0000 C   0  0  0  0  0  0  0  0  0  0  0  0
    1.0835    1.4509    0.0000 C   0  0  0  0  0  0  0  0  0  0  0  0
   -1.7933   -0.1931    0.0000 C   0  0  0  0  0  0  0  0  0  0  0  0
    3.2256    0.2180    0.0000 C   0  0  0  0  0  0  0  0  0  0  0  0
   -0.3611   -1.0399    0.0000 C   0  0  0  0  0  0  0  0  0  0  0  0
   -3.2505   -1.0275    0.0000 C   0  0  0  0  0  0  0  0  0  0  0  0
    3.9479   -0.1931    0.0000 C   0  0  0  0  0  0  0  0  0  0  0  0
    3.2505    1.0399    0.0000 C   0  0  0  0  0  0  0  0  0  0  0  0
   -3.2256   -0.1931    0.0000 C   0  0  0  0  0  0  0  0  0  0  0  0
   -2.5033   -1.4509    0.0000 C   0  0  0  0  0  0  0  0  0  0  0  0
   -1.0711   -1.4384    0.0000 C   0  0  0  0  0  0  0  0  0  0  0  0
    4.6703    0.2180    0.0000 C   0  0  0  0  0  0  0  0  0  0  0  0
    3.9604    1.4509    0.0000 C   0  0  0  0  0  0  0  0  0  0  0  0
   -3.9479   -1.4509    0.0000 C   0  0  0  0  0  0  0  0  0  0  0  0
    4.6703    1.0399    0.0000 C   0  0  0  0  0  0  0  0  0  0  0  0
  1 12  1  0  0  0  0
  2  9  1  0  0  0  0
  3 10  1  0  0  0  0
  3 16  1  0  0  0  0
 11  4  1  6  0  0  0
  4 15  1  0  0  0  0
  5 15  2  0  0  0  0
  5 21  1  0  0  0  0
  6 15  1  0  0  0  0
  6 22  2  0  0  0  0
  7 26  1  0  0  0  0
  8  9  2  0  0  0  0
  8 11  1  0  0  0  0
  8 13  1  0  0  0  0
  9 10  1  0  0  0  0
 10 12  2  0  0  0  0
 11 17  1  0  0  0  0
 12 14  1  0  0  0  0
 13 14  2  0  0  0  0
 16 19  2  0  0  0  0
 16 20  1  0  0  0  0
 17 23  1  0  0  0  0
 18 21  2  0  0  0  0
 18 22  1  0  0  0  0
 18 26  1  0  0  0  0
 19 24  1  0  0  0  0
 20 25  2  0  0  0  0
 24 27  2  0  0  0  0
 25 27  1  0  0  0  0
M  END
> <PUBCHEM_COMPOUND_ID_TYPE>
0

> <PUBCHEM_TOTAL_CHARGE>
0

> <PUBCHEM_SUBSTANCE_ID>
310942227

> <PUBCHEM_SUBSTANCE_VERSION>
1

> <PUBCHEM_EXT_DATASOURCE_NAME>
4488

> <PUBCHEM_EXT_DATASOURCE_REGID>
SCHEMBL16120262

> <PUBCHEM_SUBSTANCE_COMMENT>
InChI=1S/C20H20ClFN4O/c1-2-17(26-20-24-11-13(10-23)12-25-20)15-8-9-16(21)19(18(15)22)27-14-6-4-3-5-7-14/h3-9,11-12,17H,2,10,23H2,1H3,(H,24,25,26)/t17-/m0/s1
InChIKey=QOYBBWVYGKBBJF-KRWDZBQOSA-N

> <PUBCHEM_SUBSTANCE_SYNONYM>
SCHEMBL16120262

> <PUBCHEM_XREF_EXT_ID>
SCHEMBL16120262

> <PUBCHEM_EXT_DATASOURCE_URL>
https://www.surechembl.org/

> <PUBCHEM_EXT_SUBSTANCE_URL>
https://www.surechembl.org/chemical/SCHEMBL16120262

> <PUBCHEM_CID_ASSOCIATIONS>
117608878  1

> <PUBCHEM_COORDINATE_TYPE>
1
3

> <PUBCHEM_BONDANNOTATIONS>
11  4  6

$$$$
