310938251
  -OEChem-07211613022D

 26 29  0     0  0  0  0  0  0999 V2000
    1.4945   -0.8718    0.0000 F   0  0  0  0  0  0  0  0  0  0  0  0
    2.2169   -2.1173    0.0000 F   0  0  0  0  0  0  0  0  0  0  0  0
    2.1920   -0.4484    0.0000 F   0  0  0  0  0  0  0  0  0  0  0  0
    4.3092    0.0000    0.0000 O   0  0  0  0  0  0  0  0  0  0  0  0
    3.6367   -1.2454    0.0000 N   0  0  0  0  0  0  0  0  0  0  0  0
    5.8536   -2.3664    0.0000 N   0  0  0  0  0  0  0  0  0  0  0  0
    3.6367   -3.7363    0.0000 N   0  0  0  0  0  0  0  0  0  0  0  0
    6.3269   -1.6689    0.0000 N   0  0  0  0  0  0  0  0  0  0  0  0
    1.4447   -4.9818    0.0000 N   0  0  0  0  0  0  0  0  0  0  0  0
    0.0000   -4.9818    0.0000 N   0  0  0  0  0  0  0  0  0  0  0  0
    3.6367   -2.0923    0.0000 C   0  0  0  0  0  0  0  0  0  0  0  0
    4.3341   -2.5158    0.0000 C   0  0  0  0  0  0  0  0  0  0  0  0
    5.0814   -2.0923    0.0000 C   0  0  0  0  0  0  0  0  0  0  0  0
    5.0814   -1.2454    0.0000 C   0  0  0  0  0  0  0  0  0  0  0  0
    4.3341   -0.8220    0.0000 C   0  0  0  0  0  0  0  0  0  0  0  0
    2.9144   -2.5158    0.0000 C   0  0  0  0  0  0  0  0  0  0  0  0
    2.9144   -3.3129    0.0000 C   0  0  0  0  0  0  0  0  0  0  0  0
    4.3341   -3.3129    0.0000 C   0  0  0  0  0  0  0  0  0  0  0  0
    2.9144   -0.8469    0.0000 C   0  0  0  0  0  0  0  0  0  0  0  0
    5.8536   -0.9964    0.0000 C   0  0  0  0  0  0  0  0  0  0  0  0
    2.2169   -1.2703    0.0000 C   0  0  0  0  0  0  0  0  0  0  0  0
    2.1920   -3.7363    0.0000 C   0  0  0  0  0  0  0  0  0  0  0  0
    2.1671   -4.5583    0.0000 C   0  0  0  0  0  0  0  0  0  0  0  0
    1.4447   -3.3378    0.0000 C   0  0  0  0  0  0  0  0  0  0  0  0
    0.7473   -3.7363    0.0000 C   0  0  0  0  0  0  0  0  0  0  0  0
    0.7223   -4.5832    0.0000 C   0  0  0  0  0  0  0  0  0  0  0  0
  1 21  1  0  0  0  0
  2 21  1  0  0  0  0
  3 21  1  0  0  0  0
  4 15  2  0  0  0  0
  5 11  1  0  0  0  0
  5 15  1  0  0  0  0
  5 19  1  0  0  0  0
  6  8  1  0  0  0  0
  6 13  1  0  0  0  0
  7 17  2  0  0  0  0
  7 18  1  0  0  0  0
  8 20  2  0  0  0  0
  9 23  1  0  0  0  0
  9 26  2  0  0  0  0
 10 26  1  0  0  0  0
 11 12  1  0  0  0  0
 11 16  2  0  0  0  0
 12 13  1  0  0  0  0
 12 18  2  0  0  0  0
 13 14  2  0  0  0  0
 14 15  1  0  0  0  0
 14 20  1  0  0  0  0
 16 17  1  0  0  0  0
 17 22  1  0  0  0  0
 19 21  1  0  0  0  0
 22 23  2  0  0  0  0
 22 24  1  0  0  0  0
 24 25  2  0  0  0  0
 25 26  1  0  0  0  0
M  END
> <PUBCHEM_COMPOUND_ID_TYPE>
0

> <PUBCHEM_TOTAL_CHARGE>
0

> <PUBCHEM_SUBSTANCE_ID>
310938251

> <PUBCHEM_SUBSTANCE_VERSION>
1

> <PUBCHEM_EXT_DATASOURCE_NAME>
4488

> <PUBCHEM_EXT_DATASOURCE_REGID>
SCHEMBL16116116

> <PUBCHEM_SUBSTANCE_COMMENT>
InChI=1S/C16H11F3N6O/c17-16(18,19)7-25-12-3-11(8-1-2-13(20)22-4-8)21-5-9(12)14-10(15(25)26)6-23-24-14/h1-6H,7H2,(H2,20,22)(H,23,24)
InChIKey=ZOJONMUGUWLSAK-UHFFFAOYSA-N

> <PUBCHEM_SUBSTANCE_SYNONYM>
SCHEMBL16116116

> <PUBCHEM_XREF_EXT_ID>
SCHEMBL16116116

> <PUBCHEM_EXT_DATASOURCE_URL>
https://www.surechembl.org/

> <PUBCHEM_EXT_SUBSTANCE_URL>
https://www.surechembl.org/chemical/SCHEMBL16116116

> <PUBCHEM_CID_ASSOCIATIONS>
86298884  1

> <PUBCHEM_COORDINATE_TYPE>
1
3

$$$$
