310948902
  -OEChem-07211613022D

 54 57  0     1  0  0  0  0  0999 V2000
    3.5304    0.6949    0.0000 P   0  0  3  0  0  0  0  0  0  0  0  0
    6.3349    0.7570    0.0000 O   0  0  0  0  0  0  0  0  0  0  0  0
    3.5180   -0.1365    0.0000 O   0  0  0  0  0  0  0  0  0  0  0  0
    4.2377    0.2730    0.0000 O   0  0  0  0  0  0  0  0  0  0  0  0
    3.5180    1.5139    0.0000 O   0  0  0  0  0  0  0  0  0  0  0  0
    5.5034   -1.2285    0.0000 O   0  0  0  0  0  0  0  0  0  0  0  0
    8.6057   -0.1489    0.0000 O   0  0  0  0  0  0  0  0  0  0  0  0
    9.3504    2.6184    0.0000 O   0  0  0  0  0  0  0  0  0  0  0  0
   -0.0683   -0.5584    0.0000 O   0  0  0  0  0  0  0  0  0  0  0  0
    7.6131    0.8562    0.0000 N   0  0  0  0  0  0  0  0  0  0  0  0
    2.8231    0.2730    0.0000 N   0  0  0  0  0  0  0  0  0  0  0  0
    8.9905    1.2285    0.0000 N   0  0  0  0  0  0  0  0  0  0  0  0
    0.6639    0.6949    0.0000 N   0  0  0  0  0  0  0  0  0  0  0  0
    7.0174    0.2854    0.0000 C   0  0  3  0  0  0  0  0  0  0  0  0
    5.6896    0.2730    0.0000 C   0  0  3  0  0  0  0  0  0  0  0  0
    5.9378   -0.5088    0.0000 C   0  0  3  0  0  0  0  0  0  0  0  0
    3.5304   -0.9679    0.0000 C   0  0  0  0  0  0  0  0  0  0  0  0
    2.8107   -1.3774    0.0000 C   0  0  0  0  0  0  0  0  0  0  0  0
    6.7568   -0.5088    0.0000 C   0  0  0  0  0  0  0  0  0  0  0  0
    8.3948    0.6577    0.0000 C   0  0  0  0  0  0  0  0  0  0  0  0
    2.8107   -2.1964    0.0000 C   0  0  0  0  0  0  0  0  0  0  0  0
    4.9575    0.6825    0.0000 C   0  0  0  0  0  0  0  0  0  0  0  0
    7.3897    1.6504    0.0000 C   0  0  0  0  0  0  0  0  0  0  0  0
    4.2501   -1.3774    0.0000 C   0  0  0  0  0  0  0  0  0  0  0  0
    2.0910   -0.9679    0.0000 C   0  0  0  0  0  0  0  0  0  0  0  0
    3.5428   -2.6060    0.0000 C   0  0  0  0  0  0  0  0  0  0  0  0
    8.7547    2.0103    0.0000 C   0  0  0  0  0  0  0  0  0  0  0  0
    2.1033   -2.6184    0.0000 C   0  0  0  0  0  0  0  0  0  0  0  0
    7.9729    2.2461    0.0000 C   0  0  0  0  0  0  0  0  0  0  0  0
    4.2501   -2.1964    0.0000 C   0  0  0  0  0  0  0  0  0  0  0  0
    1.3961   -1.3774    0.0000 C   0  0  0  0  0  0  0  0  0  0  0  0
    1.3961   -2.2089    0.0000 C   0  0  0  0  0  0  0  0  0  0  0  0
    2.1033    0.6949    0.0000 C   0  0  0  0  0  0  0  0  0  0  0  0
    1.3836    0.2730    0.0000 C   0  0  0  0  0  0  0  0  0  0  0  0
   -0.0434    0.2978    0.0000 C   0  0  0  0  0  0  0  0  0  0  0  0
   -0.7756    0.6825    0.0000 C   0  0  0  0  0  0  0  0  0  0  0  0
   -1.4705    0.2854    0.0000 C   0  0  0  0  0  0  0  0  0  0  0  0
   -1.4829   -0.5584    0.0000 C   0  0  0  0  0  0  0  0  0  0  0  0
   -2.1902   -0.9679    0.0000 C   0  0  0  0  0  0  0  0  0  0  0  0
   -2.9223   -0.5460    0.0000 C   0  0  0  0  0  0  0  0  0  0  0  0
   -2.9223    0.2730    0.0000 C   0  0  0  0  0  0  0  0  0  0  0  0
   -3.6421    0.6825    0.0000 C   0  0  0  0  0  0  0  0  0  0  0  0
   -4.3370    0.2854    0.0000 C   0  0  0  0  0  0  0  0  0  0  0  0
   -4.3494   -0.5584    0.0000 C   0  0  0  0  0  0  0  0  0  0  0  0
   -5.0567   -0.9679    0.0000 C   0  0  0  0  0  0  0  0  0  0  0  0
   -5.7765   -0.5460    0.0000 C   0  0  0  0  0  0  0  0  0  0  0  0
   -5.7765    0.2730    0.0000 C   0  0  0  0  0  0  0  0  0  0  0  0
   -6.4962    0.6825    0.0000 C   0  0  0  0  0  0  0  0  0  0  0  0
   -7.2035    0.2854    0.0000 C   0  0  0  0  0  0  0  0  0  0  0  0
   -7.2160   -0.5584    0.0000 C   0  0  0  0  0  0  0  0  0  0  0  0
   -7.9232   -0.9679    0.0000 C   0  0  0  0  0  0  0  0  0  0  0  0
   -8.6430   -0.5460    0.0000 C   0  0  0  0  0  0  0  0  0  0  0  0
   -8.6430    0.2730    0.0000 C   0  0  0  0  0  0  0  0  0  0  0  0
   -9.3504    0.6701    0.0000 C   0  0  0  0  0  0  0  0  0  0  0  0
  1  3  1  0  0  0  0
  1  4  1  0  0  0  0
  1  5  2  0  0  0  0
  1 11  1  0  0  0  0
 14  2  1  1  0  0  0
  2 15  1  0  0  0  0
  3 17  1  0  0  0  0
  4 22  1  0  0  0  0
 16  6  1  6  0  0  0
  7 20  2  0  0  0  0
  8 27  2  0  0  0  0
  9 35  2  0  0  0  0
 10 14  1  0  0  0  0
 10 20  1  0  0  0  0
 10 23  1  0  0  0  0
 11 33  1  0  0  0  0
 12 20  1  0  0  0  0
 12 27  1  0  0  0  0
 13 34  1  0  0  0  0
 13 35  1  0  0  0  0
 14 19  1  0  0  0  0
 15 16  1  0  0  0  0
 15 22  1  1  0  0  0
 16 19  1  0  0  0  0
 17 18  2  0  0  0  0
 17 24  1  0  0  0  0
 18 21  1  0  0  0  0
 18 25  1  0  0  0  0
 21 26  2  0  0  0  0
 21 28  1  0  0  0  0
 23 29  2  0  0  0  0
 24 30  2  0  0  0  0
 25 31  2  0  0  0  0
 26 30  1  0  0  0  0
 27 29  1  0  0  0  0
 28 32  2  0  0  0  0
 31 32  1  0  0  0  0
 33 34  1  0  0  0  0
 35 36  1  0  0  0  0
 36 37  1  0  0  0  0
 37 38  1  0  0  0  0
 38 39  1  0  0  0  0
 39 40  2  0  0  0  0
 40 41  1  0  0  0  0
 41 42  1  0  0  0  0
 42 43  2  0  0  0  0
 43 44  1  0  0  0  0
 44 45  1  0  0  0  0
 45 46  2  0  0  0  0
 46 47  1  0  0  0  0
 47 48  1  0  0  0  0
 48 49  2  0  0  0  0
 49 50  1  0  0  0  0
 50 51  1  0  0  0  0
 51 52  2  0  0  0  0
 52 53  1  0  0  0  0
 53 54  1  0  0  0  0
M  END
> <PUBCHEM_COMPOUND_ID_TYPE>
0

> <PUBCHEM_TOTAL_CHARGE>
0

> <PUBCHEM_SUBSTANCE_ID>
310948902

> <PUBCHEM_SUBSTANCE_VERSION>
1

> <PUBCHEM_EXT_DATASOURCE_NAME>
4488

> <PUBCHEM_EXT_DATASOURCE_REGID>
SCHEMBL16127087

> <PUBCHEM_SUBSTANCE_COMMENT>
InChI=1S/C41H53N4O8P/c1-2-3-4-5-6-7-8-9-10-11-12-13-14-15-16-17-18-26-38(47)42-28-29-43-54(50,53-36-25-21-23-33-22-19-20-24-34(33)36)51-32-37-35(46)31-40(52-37)45-30-27-39(48)44-41(45)49/h3-4,6-7,9-10,12-13,15-16,19-25,27,30,35,37,40,46H,2,5,8,11,14,17-18,26,28-29,31-32H2,1H3,(H,42,47)(H,43,50)(H,44,48,49)/b4-3-,7-6-,10-9-,13-12-,16-15-/t35-,37+,40+,54?/m0/s1
InChIKey=STWPMDXVTLHZTQ-CPARJGJKSA-N

> <PUBCHEM_SUBSTANCE_SYNONYM>
SCHEMBL16127087

> <PUBCHEM_XREF_EXT_ID>
SCHEMBL16127087

> <PUBCHEM_EXT_DATASOURCE_URL>
https://www.surechembl.org/

> <PUBCHEM_EXT_SUBSTANCE_URL>
https://www.surechembl.org/chemical/SCHEMBL16127087

> <PUBCHEM_CID_ASSOCIATIONS>
86271077  1

> <PUBCHEM_COORDINATE_TYPE>
1
3

> <PUBCHEM_BONDANNOTATIONS>
15  22  5
14  2  5
16  6  6

$$$$
