310933902
  -OEChem-07211613022D

 13 13  0     0  0  0  0  0  0999 V2000
    3.6941   -2.1507    0.0000 O   0  0  0  0  0  0  0  0  0  0  0  0
    0.8209    0.0000    0.0000 O   0  0  0  0  0  0  0  0  0  0  0  0
    1.2314   -2.1343    0.0000 N   0  0  0  0  0  0  0  0  0  0  0  0
    2.4627   -1.4284    0.0000 C   0  0  0  0  0  0  0  0  0  0  0  0
    3.2836   -1.4284    0.0000 C   0  0  0  0  0  0  0  0  0  0  0  0
    1.2314   -0.7224    0.0000 C   0  0  0  0  0  0  0  0  0  0  0  0
    2.0358   -0.7224    0.0000 C   0  0  0  0  0  0  0  0  0  0  0  0
    2.0358   -2.1343    0.0000 C   0  0  0  0  0  0  0  0  0  0  0  0
    0.7881   -1.4284    0.0000 C   0  0  0  0  0  0  0  0  0  0  0  0
    3.6941   -0.7224    0.0000 C   0  0  0  0  0  0  0  0  0  0  0  0
    4.5149   -2.1507    0.0000 C   0  0  0  0  0  0  0  0  0  0  0  0
    0.0000    0.0000    0.0000 C   0  0  0  0  0  0  0  0  0  0  0  0
    4.9253   -1.4284    0.0000 C   0  0  0  0  0  0  0  0  0  0  0  0
  1  5  1  0  0  0  0
  1 11  1  0  0  0  0
  2  6  1  0  0  0  0
  2 12  1  0  0  0  0
  3  8  1  0  0  0  0
  3  9  2  0  0  0  0
  4  5  1  0  0  0  0
  4  7  1  0  0  0  0
  4  8  2  0  0  0  0
  5 10  2  0  0  0  0
  6  7  2  0  0  0  0
  6  9  1  0  0  0  0
 11 13  1  0  0  0  0
M  END
> <PUBCHEM_COMPOUND_ID_TYPE>
0

> <PUBCHEM_TOTAL_CHARGE>
0

> <PUBCHEM_SUBSTANCE_ID>
310933902

> <PUBCHEM_SUBSTANCE_VERSION>
1

> <PUBCHEM_EXT_DATASOURCE_NAME>
4488

> <PUBCHEM_EXT_DATASOURCE_REGID>
SCHEMBL16111341

> <PUBCHEM_SUBSTANCE_COMMENT>
InChI=1S/C10H13NO2/c1-4-13-8(2)9-5-10(12-3)7-11-6-9/h5-7H,2,4H2,1,3H3
InChIKey=UEVZTSGGVNFTIJ-UHFFFAOYSA-N

> <PUBCHEM_SUBSTANCE_SYNONYM>
SCHEMBL16111341

> <PUBCHEM_XREF_EXT_ID>
SCHEMBL16111341

> <PUBCHEM_EXT_DATASOURCE_URL>
https://www.surechembl.org/

> <PUBCHEM_EXT_SUBSTANCE_URL>
https://www.surechembl.org/chemical/SCHEMBL16111341

> <PUBCHEM_CID_ASSOCIATIONS>
117602232  1

> <PUBCHEM_COORDINATE_TYPE>
1
3

$$$$
