310932471
  -OEChem-07211613022D

 32 35  0     0  0  0  0  0  0999 V2000
    4.0352   -2.7424    0.0000 O   0  0  0  0  0  0  0  0  0  0  0  0
    8.5406   -2.8208    0.0000 O   0  0  0  0  0  0  0  0  0  0  0  0
    4.9363   -1.6063    0.0000 N   0  0  0  0  0  0  0  0  0  0  0  0
    4.8579   -0.7836    0.0000 N   0  0  0  0  0  0  0  0  0  0  0  0
    6.3858   -1.6063    0.0000 N   0  0  0  0  0  0  0  0  0  0  0  0
    7.8353   -4.0744    0.0000 N   0  0  0  0  0  0  0  0  0  0  0  0
    0.0000   -2.4682    0.0000 N   0  0  0  0  0  0  0  0  0  0  0  0
    9.2849   -6.5425    0.0000 N   0  0  0  0  0  0  0  0  0  0  0  0
    3.6435   -1.3320    0.0000 C   0  0  0  0  0  0  0  0  0  0  0  0
    4.1919   -1.9196    0.0000 C   0  0  0  0  0  0  0  0  0  0  0  0
    2.8208   -1.4103    0.0000 C   0  0  0  0  0  0  0  0  0  0  0  0
    5.6807   -1.9980    0.0000 C   0  0  0  0  0  0  0  0  0  0  0  0
    4.0352   -0.6269    0.0000 C   0  0  0  0  0  0  0  0  0  0  0  0
    2.3115   -0.7443    0.0000 C   0  0  0  0  0  0  0  0  0  0  0  0
    2.4682   -2.1939    0.0000 C   0  0  0  0  0  0  0  0  0  0  0  0
    5.6807   -2.8208    0.0000 C   0  0  0  0  0  0  0  0  0  0  0  0
    7.0910   -2.8208    0.0000 C   0  0  0  0  0  0  0  0  0  0  0  0
    1.4887   -0.8619    0.0000 C   0  0  0  0  0  0  0  0  0  0  0  0
    1.1753   -1.6063    0.0000 C   0  0  0  0  0  0  0  0  0  0  0  0
    7.0910   -1.9980    0.0000 C   0  0  0  0  0  0  0  0  0  0  0  0
    6.3858   -3.2516    0.0000 C   0  0  0  0  0  0  0  0  0  0  0  0
    1.6455   -2.2722    0.0000 C   0  0  0  0  0  0  0  0  0  0  0  0
    7.8353   -3.2516    0.0000 C   0  0  0  0  0  0  0  0  0  0  0  0
    2.6640    0.0000    0.0000 C   0  0  0  0  0  0  0  0  0  0  0  0
    0.3526   -1.6846    0.0000 C   0  0  0  0  0  0  0  0  0  0  0  0
    8.5406   -4.5054    0.0000 C   0  0  0  0  0  0  0  0  0  0  0  0
    8.5797   -5.3281    0.0000 C   0  0  0  0  0  0  0  0  0  0  0  0
    9.2849   -5.7198    0.0000 C   0  0  0  0  0  0  0  0  0  0  0  0
    9.9509   -7.0518    0.0000 C   0  0  0  0  0  0  0  0  0  0  0  0
    8.6189   -7.0518    0.0000 C   0  0  0  0  0  0  0  0  0  0  0  0
    9.7159   -7.8353    0.0000 C   0  0  0  0  0  0  0  0  0  0  0  0
    8.8932   -7.8353    0.0000 C   0  0  0  0  0  0  0  0  0  0  0  0
  1 10  1  0  0  0  0
  2 23  2  0  0  0  0
  3  4  1  0  0  0  0
  3 10  1  0  0  0  0
  3 12  1  0  0  0  0
  4 13  2  0  0  0  0
  5 12  2  0  0  0  0
  5 20  1  0  0  0  0
  6 23  1  0  0  0  0
  6 26  1  0  0  0  0
  7 25  3  0  0  0  0
  8 28  1  0  0  0  0
  8 29  1  0  0  0  0
  8 30  1  0  0  0  0
  9 10  2  0  0  0  0
  9 11  1  0  0  0  0
  9 13  1  0  0  0  0
 11 14  1  0  0  0  0
 11 15  2  0  0  0  0
 12 16  1  0  0  0  0
 14 18  2  0  0  0  0
 14 24  1  0  0  0  0
 15 22  1  0  0  0  0
 16 21  2  0  0  0  0
 17 20  2  0  0  0  0
 17 21  1  0  0  0  0
 17 23  1  0  0  0  0
 18 19  1  0  0  0  0
 19 22  2  0  0  0  0
 19 25  1  0  0  0  0
 26 27  1  0  0  0  0
 27 28  1  0  0  0  0
 29 31  1  0  0  0  0
 30 32  1  0  0  0  0
 31 32  1  0  0  0  0
M  END
> <PUBCHEM_COMPOUND_ID_TYPE>
0

> <PUBCHEM_TOTAL_CHARGE>
0

> <PUBCHEM_SUBSTANCE_ID>
310932471

> <PUBCHEM_SUBSTANCE_VERSION>
1

> <PUBCHEM_EXT_DATASOURCE_NAME>
4488

> <PUBCHEM_EXT_DATASOURCE_REGID>
SCHEMBL16109843

> <PUBCHEM_SUBSTANCE_COMMENT>
InChI=1S/C24H26N6O2/c1-17-13-18(14-25)5-7-20(17)21-16-28-30(24(21)32)22-8-6-19(15-27-22)23(31)26-9-4-12-29-10-2-3-11-29/h5-8,13,15-16,32H,2-4,9-12H2,1H3,(H,26,31)
InChIKey=KTNPEOKTBGWRFE-UHFFFAOYSA-N

> <PUBCHEM_SUBSTANCE_SYNONYM>
SCHEMBL16109843

> <PUBCHEM_XREF_EXT_ID>
SCHEMBL16109843

> <PUBCHEM_EXT_DATASOURCE_URL>
https://www.surechembl.org/

> <PUBCHEM_EXT_SUBSTANCE_URL>
https://www.surechembl.org/chemical/SCHEMBL16109843

> <PUBCHEM_CID_ASSOCIATIONS>
117601012  1

> <PUBCHEM_COORDINATE_TYPE>
1
3

$$$$
