310943209
  -OEChem-07211613022D

 23 25  0     0  0  0  0  0  0999 V2000
   -0.3654   -1.8638    0.0000 O   0  0  0  0  0  0  0  0  0  0  0  0
   -3.2159    1.4691    0.0000 O   0  0  0  0  0  0  0  0  0  0  0  0
   -1.0817   -0.6213    0.0000 N   0  0  0  0  0  0  0  0  0  0  0  0
   -1.7980    0.6359    0.0000 N   0  0  0  0  0  0  0  0  0  0  0  0
    3.2159    0.2120    0.0000 N   0  0  0  0  0  0  0  0  0  0  0  0
   -1.0671    0.2265    0.0000 C   0  0  0  0  0  0  0  0  0  0  0  0
    0.3654    0.2265    0.0000 C   0  0  0  0  0  0  0  0  0  0  0  0
    1.0671    0.6359    0.0000 C   0  0  0  0  0  0  0  0  0  0  0  0
   -0.3508    0.6359    0.0000 C   0  0  0  0  0  0  0  0  0  0  0  0
   -0.3508   -1.0013    0.0000 C   0  0  0  0  0  0  0  0  0  0  0  0
    0.3508   -0.6213    0.0000 C   0  0  0  0  0  0  0  0  0  0  0  0
    1.0671    1.4691    0.0000 C   0  0  0  0  0  0  0  0  0  0  0  0
    1.7980    0.2265    0.0000 C   0  0  0  0  0  0  0  0  0  0  0  0
   -1.7833   -1.0305    0.0000 C   0  0  0  0  0  0  0  0  0  0  0  0
   -1.7980    1.4691    0.0000 C   0  0  0  0  0  0  0  0  0  0  0  0
   -2.4850    0.2265    0.0000 C   0  0  0  0  0  0  0  0  0  0  0  0
    2.4850    0.6505    0.0000 C   0  0  0  0  0  0  0  0  0  0  0  0
    1.7833    1.8638    0.0000 C   0  0  0  0  0  0  0  0  0  0  0  0
    2.4850    1.4691    0.0000 C   0  0  0  0  0  0  0  0  0  0  0  0
   -2.5289    1.8783    0.0000 C   0  0  0  0  0  0  0  0  0  0  0  0
   -3.2159    0.6213    0.0000 C   0  0  0  0  0  0  0  0  0  0  0  0
    0.3362    1.8783    0.0000 C   0  0  0  0  0  0  0  0  0  0  0  0
   -1.7687   -1.8783    0.0000 C   0  0  0  0  0  0  0  0  0  0  0  0
  1 10  2  0  0  0  0
  2 20  1  0  0  0  0
  2 21  1  0  0  0  0
  3  6  1  0  0  0  0
  3 10  1  0  0  0  0
  3 14  1  0  0  0  0
  4  6  1  0  0  0  0
  4 15  1  0  0  0  0
  4 16  1  0  0  0  0
  5 17  1  0  0  0  0
  6  9  2  0  0  0  0
  7  8  1  0  0  0  0
  7  9  1  0  0  0  0
  7 11  2  0  0  0  0
  8 12  1  0  0  0  0
  8 13  2  0  0  0  0
 10 11  1  0  0  0  0
 12 18  2  0  0  0  0
 12 22  1  0  0  0  0
 13 17  1  0  0  0  0
 14 23  1  0  0  0  0
 15 20  1  0  0  0  0
 16 21  1  0  0  0  0
 17 19  2  0  0  0  0
 18 19  1  0  0  0  0
M  END
> <PUBCHEM_COMPOUND_ID_TYPE>
0

> <PUBCHEM_TOTAL_CHARGE>
0

> <PUBCHEM_SUBSTANCE_ID>
310943209

> <PUBCHEM_SUBSTANCE_VERSION>
1

> <PUBCHEM_EXT_DATASOURCE_NAME>
4488

> <PUBCHEM_EXT_DATASOURCE_REGID>
SCHEMBL16121270

> <PUBCHEM_SUBSTANCE_COMMENT>
InChI=1S/C18H23N3O2/c1-3-21-17(20-6-8-23-9-7-20)10-14(11-18(21)22)16-12-15(19)5-4-13(16)2/h4-5,10-12H,3,6-9,19H2,1-2H3
InChIKey=ROIPZHXJVSDTND-UHFFFAOYSA-N

> <PUBCHEM_SUBSTANCE_SYNONYM>
SCHEMBL16121270

> <PUBCHEM_XREF_EXT_ID>
SCHEMBL16121270

> <PUBCHEM_EXT_DATASOURCE_URL>
https://www.surechembl.org/

> <PUBCHEM_EXT_SUBSTANCE_URL>
https://www.surechembl.org/chemical/SCHEMBL16121270

> <PUBCHEM_CID_ASSOCIATIONS>
117609635  1

> <PUBCHEM_COORDINATE_TYPE>
1
3

$$$$
