310949913
  -OEChem-07211613022D

 31 35  0     1  0  0  0  0  0999 V2000
   -3.4527    3.0143    0.0000 F   0  0  0  0  0  0  0  0  0  0  0  0
   -0.5070    1.5346    0.0000 N   0  0  0  0  0  0  0  0  0  0  0  0
   -0.5070    2.8636    0.0000 N   0  0  0  0  0  0  0  0  0  0  0  0
    0.2603   -0.8084    0.0000 N   0  0  0  0  0  0  0  0  0  0  0  0
    2.0689    1.4797    0.0000 N   0  0  0  0  0  0  0  0  0  0  0  0
   -1.3016    1.8085    0.0000 C   0  0  0  0  0  0  0  0  0  0  0  0
   -0.0274    2.2059    0.0000 C   0  0  0  0  0  0  0  0  0  0  0  0
   -1.2880    2.6169    0.0000 C   0  0  0  0  0  0  0  0  0  0  0  0
   -0.2603    0.7810    0.0000 C   0  0  0  0  0  0  0  0  0  0  0  0
    0.8221    2.1785    0.0000 C   0  0  3  0  0  0  0  0  0  0  0  0
   -2.0141    1.3838    0.0000 C   0  0  0  0  0  0  0  0  0  0  0  0
   -2.0278    3.0005    0.0000 C   0  0  0  0  0  0  0  0  0  0  0  0
   -2.7266    2.6169    0.0000 C   0  0  0  0  0  0  0  0  0  0  0  0
   -0.8084    0.1370    0.0000 C   0  0  0  0  0  0  0  0  0  0  0  0
    0.5617    0.5755    0.0000 C   0  0  0  0  0  0  0  0  0  0  0  0
   -2.7266    1.7812    0.0000 C   0  0  0  0  0  0  0  0  0  0  0  0
    1.2194    1.4934    0.0000 C   0  0  0  0  0  0  0  0  0  0  0  0
    1.2194    2.8910    0.0000 C   0  0  0  0  0  0  0  0  0  0  0  0
   -0.5480   -0.6303    0.0000 C   0  0  0  0  0  0  0  0  0  0  0  0
    0.8221   -0.1918    0.0000 C   0  0  0  0  0  0  0  0  0  0  0  0
    2.0689    2.9047    0.0000 C   0  0  0  0  0  0  0  0  0  0  0  0
    0.5207   -1.5756    0.0000 C   0  0  0  0  0  0  0  0  0  0  0  0
    2.4662    2.2196    0.0000 C   0  0  0  0  0  0  0  0  0  0  0  0
    1.3290   -1.7538    0.0000 C   0  0  0  0  0  0  0  0  0  0  0  0
    1.4934   -2.5485    0.0000 C   0  0  0  0  0  0  0  0  0  0  0  0
    1.8085   -1.0824    0.0000 C   0  0  0  0  0  0  0  0  0  0  0  0
    2.1511   -3.0143    0.0000 C   0  0  0  0  0  0  0  0  0  0  0  0
    2.6443   -0.9454    0.0000 C   0  0  0  0  0  0  0  0  0  0  0  0
    3.3020   -1.3975    0.0000 C   0  0  0  0  0  0  0  0  0  0  0  0
    2.9869   -2.8636    0.0000 C   0  0  0  0  0  0  0  0  0  0  0  0
    3.4527   -2.2196    0.0000 C   0  0  0  0  0  0  0  0  0  0  0  0
  1 13  1  0  0  0  0
  2  6  1  0  0  0  0
  2  7  1  0  0  0  0
  2  9  1  0  0  0  0
  3  7  2  0  0  0  0
  3  8  1  0  0  0  0
  4 19  1  0  0  0  0
  4 20  1  0  0  0  0
  4 22  1  0  0  0  0
  5 17  1  0  0  0  0
  5 23  1  0  0  0  0
  6  8  1  0  0  0  0
  6 11  2  0  0  0  0
 10  7  1  6  0  0  0
  8 12  2  0  0  0  0
  9 14  1  0  0  0  0
  9 15  1  0  0  0  0
 10 17  1  0  0  0  0
 10 18  1  0  0  0  0
 11 16  1  0  0  0  0
 12 13  1  0  0  0  0
 13 16  2  0  0  0  0
 14 19  1  0  0  0  0
 15 20  1  0  0  0  0
 18 21  1  0  0  0  0
 21 23  1  0  0  0  0
 22 24  1  0  0  0  0
 24 25  1  0  0  0  0
 24 26  1  0  0  0  0
 25 27  1  0  0  0  0
 26 28  1  0  0  0  0
 27 30  1  0  0  0  0
 28 29  1  0  0  0  0
 29 31  1  0  0  0  0
 30 31  1  0  0  0  0
M  END
> <PUBCHEM_COMPOUND_ID_TYPE>
0

> <PUBCHEM_TOTAL_CHARGE>
0

> <PUBCHEM_SUBSTANCE_ID>
310949913

> <PUBCHEM_SUBSTANCE_VERSION>
1

> <PUBCHEM_EXT_DATASOURCE_NAME>
4488

> <PUBCHEM_EXT_DATASOURCE_REGID>
SCHEMBL16128134

> <PUBCHEM_SUBSTANCE_COMMENT>
InChI=1S/C26H39FN4/c27-22-10-11-25-24(17-22)29-26(21-9-6-14-28-18-21)31(25)23-12-15-30(16-13-23)19-20-7-4-2-1-3-5-8-20/h10-11,17,20-21,23,28H,1-9,12-16,18-19H2/t21-/m1/s1
InChIKey=WUTDECZWAXSKEA-OAQYLSRUSA-N

> <PUBCHEM_SUBSTANCE_SYNONYM>
SCHEMBL16128134

> <PUBCHEM_XREF_EXT_ID>
SCHEMBL16128134

> <PUBCHEM_EXT_DATASOURCE_URL>
https://www.surechembl.org/

> <PUBCHEM_EXT_SUBSTANCE_URL>
https://www.surechembl.org/chemical/SCHEMBL16128134

> <PUBCHEM_CID_ASSOCIATIONS>
86273084  1

> <PUBCHEM_COORDINATE_TYPE>
1
3

> <PUBCHEM_BONDANNOTATIONS>
10  7  6

$$$$
