310945101
  -OEChem-07211613022D

 35 39  0     1  0  0  0  0  0999 V2000
    1.7606   -2.9623    0.0000 S   0  0  0  0  0  0  0  0  0  0  0  0
   -4.1826    0.5403    0.0000 F   0  0  0  0  0  0  0  0  0  0  0  0
   -4.5366    1.6022    0.0000 F   0  0  0  0  0  0  0  0  0  0  0  0
   -3.4560    1.9562    0.0000 F   0  0  0  0  0  0  0  0  0  0  0  0
    3.4001   -3.3535    0.0000 O   0  0  0  0  0  0  0  0  0  0  0  0
   -1.6675    3.3535    0.0000 O   0  0  0  0  0  0  0  0  0  0  0  0
   -1.0340   -1.2110    0.0000 N   0  0  0  0  0  0  0  0  0  0  0  0
    2.3381   -0.8757    0.0000 N   0  0  0  0  0  0  0  0  0  0  0  0
    3.8472   -1.9935    0.0000 N   0  0  0  0  0  0  0  0  0  0  0  0
   -2.3941    2.1239    0.0000 N   0  0  0  0  0  0  0  0  0  0  0  0
    1.1458   -1.7699    0.0000 C   0  0  0  0  0  0  0  0  0  0  0  0
    1.9655   -1.6395    0.0000 C   0  0  0  0  0  0  0  0  0  0  0  0
    0.4005   -1.3228    0.0000 C   0  0  0  0  0  0  0  0  0  0  0  0
    1.0153   -2.5710    0.0000 C   0  0  0  0  0  0  0  0  0  0  0  0
    2.3381   -2.3474    0.0000 C   0  0  0  0  0  0  0  0  0  0  0  0
   -0.3447   -1.6768    0.0000 C   0  0  0  0  0  0  0  0  0  0  0  0
    0.3074   -2.9436    0.0000 C   0  0  0  0  0  0  0  0  0  0  0  0
    3.2138   -2.5151    0.0000 C   0  0  0  0  0  0  0  0  0  0  0  0
   -0.9595   -0.3726    0.0000 C   0  0  0  0  0  0  0  0  0  0  0  0
    0.4751   -0.5031    0.0000 C   0  0  0  0  0  0  0  0  0  0  0  0
   -0.4005   -2.5337    0.0000 C   0  0  0  0  0  0  0  0  0  0  0  0
   -1.6861    0.0372    0.0000 C   0  0  0  0  0  0  0  0  0  0  0  0
   -0.2142   -0.0372    0.0000 C   0  0  0  0  0  0  0  0  0  0  0  0
   -3.1020    0.8570    0.0000 C   0  0  0  0  0  0  0  0  0  0  0  0
   -2.3941    1.2669    0.0000 C   0  0  0  0  0  0  0  0  0  0  0  0
   -1.6861    0.8570    0.0000 C   0  0  0  0  0  0  0  0  0  0  0  0
    3.1020   -0.6894    0.0000 C   0  0  0  0  0  0  0  0  0  0  0  0
    3.8286   -1.1551    0.0000 C   0  0  3  0  0  0  0  0  0  0  0  0
   -2.4127   -0.3726    0.0000 C   0  0  0  0  0  0  0  0  0  0  0  0
   -3.8286    1.2669    0.0000 C   0  0  0  0  0  0  0  0  0  0  0  0
   -3.0834    0.0372    0.0000 C   0  0  0  0  0  0  0  0  0  0  0  0
    4.5366   -0.7639    0.0000 C   0  0  0  0  0  0  0  0  0  0  0  0
   -1.6861    2.5151    0.0000 C   0  0  0  0  0  0  0  0  0  0  0  0
   -0.9409    2.1053    0.0000 C   0  0  0  0  0  0  0  0  0  0  0  0
   -0.2515    2.5897    0.0000 C   0  0  0  0  0  0  0  0  0  0  0  0
  1 14  1  0  0  0  0
  1 15  1  0  0  0  0
  2 30  1  0  0  0  0
  3 30  1  0  0  0  0
  4 30  1  0  0  0  0
  5 18  2  0  0  0  0
  6 33  2  0  0  0  0
  7 16  1  0  0  0  0
  7 19  2  0  0  0  0
  8 12  1  0  0  0  0
  8 27  1  0  0  0  0
  9 18  1  0  0  0  0
  9 28  1  0  0  0  0
 10 25  1  0  0  0  0
 10 33  1  0  0  0  0
 11 12  1  0  0  0  0
 11 13  1  0  0  0  0
 11 14  2  0  0  0  0
 12 15  2  0  0  0  0
 13 16  2  0  0  0  0
 13 20  1  0  0  0  0
 14 17  1  0  0  0  0
 15 18  1  0  0  0  0
 16 21  1  0  0  0  0
 17 21  2  0  0  0  0
 19 22  1  0  0  0  0
 19 23  1  0  0  0  0
 20 23  2  0  0  0  0
 22 26  2  0  0  0  0
 22 29  1  0  0  0  0
 24 25  2  0  0  0  0
 24 30  1  0  0  0  0
 24 31  1  0  0  0  0
 25 26  1  0  0  0  0
 27 28  1  0  0  0  0
 28 32  1  1  0  0  0
 29 31  2  0  0  0  0
 33 34  1  0  0  0  0
 34 35  2  0  0  0  0
M  END
> <PUBCHEM_COMPOUND_ID_TYPE>
0

> <PUBCHEM_TOTAL_CHARGE>
0

> <PUBCHEM_SUBSTANCE_ID>
310945101

> <PUBCHEM_SUBSTANCE_VERSION>
1

> <PUBCHEM_EXT_DATASOURCE_NAME>
4488

> <PUBCHEM_EXT_DATASOURCE_REGID>
SCHEMBL16123191

> <PUBCHEM_SUBSTANCE_COMMENT>
InChI=1S/C25H19F3N4O2S/c1-3-20(33)32-18-10-13(4-6-15(18)25(26,27)28)16-7-5-14-17(31-16)8-9-19-21(14)22-23(35-19)24(34)30-12(2)11-29-22/h3-10,12,29H,1,11H2,2H3,(H,30,34)(H,32,33)/t12-/m1/s1
InChIKey=LEBXLGBPNIFTOL-GFCCVEGCSA-N

> <PUBCHEM_SUBSTANCE_SYNONYM>
SCHEMBL16123191

> <PUBCHEM_XREF_EXT_ID>
SCHEMBL16123191

> <PUBCHEM_EXT_DATASOURCE_URL>
https://www.surechembl.org/

> <PUBCHEM_EXT_SUBSTANCE_URL>
https://www.surechembl.org/chemical/SCHEMBL16123191

> <PUBCHEM_CID_ASSOCIATIONS>
117611197  1

> <PUBCHEM_COORDINATE_TYPE>
1
3

> <PUBCHEM_BONDANNOTATIONS>
28  32  5

$$$$
