310940343
  -OEChem-07211613022D

 26 27  0     0  0  0  0  0  0999 V2000
   -1.0926    1.6583    0.0000 O   0  0  0  0  0  0  0  0  0  0  0  0
    1.8985   -1.1933    0.0000 O   0  0  0  0  0  0  0  0  0  0  0  0
    4.6881   -0.2015    0.0000 O   0  5  0  0  0  0  0  0  0  0  0  0
    4.5951    1.2088    0.0000 O   0  0  0  0  0  0  0  0  0  0  0  0
    0.9376    0.1395    0.0000 N   0  0  0  0  0  0  0  0  0  0  0  0
    4.2232    0.4959    0.0000 N   0  3  0  0  0  0  0  0  0  0  0  0
   -0.2867   -0.4029    0.0000 N   0  0  0  0  0  0  0  0  0  0  0  0
    0.5192   -0.5734    0.0000 N   0  0  0  0  0  0  0  0  0  0  0  0
    1.7590    0.2325    0.0000 C   0  0  0  0  0  0  0  0  0  0  0  0
   -1.1081    0.8369    0.0000 C   0  0  0  0  0  0  0  0  0  0  0  0
    2.2394   -0.4184    0.0000 C   0  0  0  0  0  0  0  0  0  0  0  0
   -1.8055    0.4339    0.0000 C   0  0  0  0  0  0  0  0  0  0  0  0
   -0.3797    0.4339    0.0000 C   0  0  0  0  0  0  0  0  0  0  0  0
    3.3863    0.4184    0.0000 C   0  0  0  0  0  0  0  0  0  0  0  0
    3.0608   -0.3409    0.0000 C   0  0  0  0  0  0  0  0  0  0  0  0
    2.0844    0.9919    0.0000 C   0  0  0  0  0  0  0  0  0  0  0  0
    0.3642    0.7749    0.0000 C   0  0  0  0  0  0  0  0  0  0  0  0
    2.9058    1.0694    0.0000 C   0  0  0  0  0  0  0  0  0  0  0  0
   -2.5339    0.8369    0.0000 C   0  0  0  0  0  0  0  0  0  0  0  0
   -1.8210   -0.3875    0.0000 C   0  0  0  0  0  0  0  0  0  0  0  0
   -3.2468   -0.3875    0.0000 C   0  0  0  0  0  0  0  0  0  0  0  0
   -3.2468    0.4339    0.0000 C   0  0  0  0  0  0  0  0  0  0  0  0
   -2.5184   -0.8059    0.0000 C   0  0  0  0  0  0  0  0  0  0  0  0
   -3.9597   -0.8059    0.0000 C   0  0  0  0  0  0  0  0  0  0  0  0
   -4.6881   -0.4184    0.0000 C   0  0  0  0  0  0  0  0  0  0  0  0
   -3.9442   -1.6583    0.0000 C   0  0  0  0  0  0  0  0  0  0  0  0
  1 10  2  0  0  0  0
  2 11  1  0  0  0  0
  3  6  1  0  0  0  0
  4  6  2  0  0  0  0
  5  9  1  0  0  0  0
  5 17  1  0  0  0  0
  6 14  1  0  0  0  0
  7  8  2  3  0  0  0
  7 13  1  0  0  0  0
  9 11  2  0  0  0  0
  9 16  1  0  0  0  0
 10 12  1  0  0  0  0
 10 13  1  0  0  0  0
 11 15  1  0  0  0  0
 12 19  2  0  0  0  0
 12 20  1  0  0  0  0
 13 17  2  0  0  0  0
 14 15  2  0  0  0  0
 14 18  1  0  0  0  0
 16 18  2  0  0  0  0
 19 22  1  0  0  0  0
 20 23  2  0  0  0  0
 21 22  2  0  0  0  0
 21 23  1  0  0  0  0
 21 24  1  0  0  0  0
 24 25  1  0  0  0  0
 24 26  1  0  0  0  0
M  CHG  2   3  -1   6   1
M  END
> <PUBCHEM_COMPOUND_ID_TYPE>
0

> <PUBCHEM_TOTAL_CHARGE>
0

> <PUBCHEM_SUBSTANCE_ID>
310940343

> <PUBCHEM_SUBSTANCE_VERSION>
1

> <PUBCHEM_EXT_DATASOURCE_NAME>
4488

> <PUBCHEM_EXT_DATASOURCE_REGID>
SCHEMBL16118287

> <PUBCHEM_SUBSTANCE_COMMENT>
InChI=1S/C18H18N4O4/c1-11(2)12-3-5-13(6-4-12)18(24)16(21-19)10-20-15-8-7-14(22(25)26)9-17(15)23/h3-11,19-20,23H,1-2H3/b16-10-,21-19?
InChIKey=CDFVYJKBTKKMOF-NOPVENIWSA-N

> <PUBCHEM_SUBSTANCE_SYNONYM>
SCHEMBL16118287

> <PUBCHEM_XREF_EXT_ID>
SCHEMBL16118287

> <PUBCHEM_EXT_DATASOURCE_URL>
https://www.surechembl.org/

> <PUBCHEM_EXT_SUBSTANCE_URL>
https://www.surechembl.org/chemical/SCHEMBL16118287

> <PUBCHEM_CID_ASSOCIATIONS>
117607392  1

> <PUBCHEM_COORDINATE_TYPE>
1
3

$$$$
