310942633
  -OEChem-07211613022D

 28 30  0     0  0  0  0  0  0999 V2000
    1.0886    1.8247    0.0000 S   0  0  0  0  0  0  0  0  0  0  0  0
   -3.2306    0.1851    0.0000 S   0  0  0  0  0  0  0  0  0  0  0  0
    2.5166    2.6444    0.0000 F   0  0  0  0  0  0  0  0  0  0  0  0
    3.9534    0.1851    0.0000 F   0  0  0  0  0  0  0  0  0  0  0  0
    0.6655    2.5298    0.0000 O   0  0  0  0  0  0  0  0  0  0  0  0
    1.4941    2.5298    0.0000 O   0  0  0  0  0  0  0  0  0  0  0  0
   -0.3570    0.1851    0.0000 N   0  0  0  0  0  0  0  0  0  0  0  0
   -1.7938    0.1851    0.0000 N   0  0  0  0  0  0  0  0  0  0  0  0
   -2.5078    1.4104    0.0000 N   0  0  0  0  0  0  0  0  0  0  0  0
    0.3218   -1.2253    0.0000 N   0  0  0  0  0  0  0  0  0  0  0  0
    0.0837   -1.9921    0.0000 N   0  0  0  0  0  0  0  0  0  0  0  0
    1.8115    1.4104    0.0000 C   0  0  0  0  0  0  0  0  0  0  0  0
   -1.0622    1.4104    0.0000 C   0  0  0  0  0  0  0  0  0  0  0  0
    2.5166    1.8247    0.0000 C   0  0  0  0  0  0  0  0  0  0  0  0
   -1.0710    0.5994    0.0000 C   0  0  0  0  0  0  0  0  0  0  0  0
    0.3746    1.4192    0.0000 C   0  0  0  0  0  0  0  0  0  0  0  0
   -0.3658    1.8159    0.0000 C   0  0  0  0  0  0  0  0  0  0  0  0
    1.8115    0.5994    0.0000 C   0  0  0  0  0  0  0  0  0  0  0  0
    3.2394    1.4104    0.0000 C   0  0  0  0  0  0  0  0  0  0  0  0
   -1.8026    1.8159    0.0000 C   0  0  0  0  0  0  0  0  0  0  0  0
   -0.3658   -0.7140    0.0000 C   0  0  0  0  0  0  0  0  0  0  0  0
   -2.5078    0.5994    0.0000 C   0  0  0  0  0  0  0  0  0  0  0  0
    3.2394    0.5994    0.0000 C   0  0  0  0  0  0  0  0  0  0  0  0
    2.5254    0.1851    0.0000 C   0  0  0  0  0  0  0  0  0  0  0  0
   -1.0181   -1.2341    0.0000 C   0  0  0  0  0  0  0  0  0  0  0  0
   -0.7360   -1.9921    0.0000 C   0  0  0  0  0  0  0  0  0  0  0  0
    0.6038   -2.6444    0.0000 C   0  0  0  0  0  0  0  0  0  0  0  0
   -3.9534    0.5818    0.0000 C   0  0  0  0  0  0  0  0  0  0  0  0
  1  5  2  0  0  0  0
  1  6  2  0  0  0  0
  1 12  1  0  0  0  0
  1 16  1  0  0  0  0
  2 22  1  0  0  0  0
  2 28  1  0  0  0  0
  3 14  1  0  0  0  0
  4 23  1  0  0  0  0
  7 15  1  0  0  0  0
  7 21  1  0  0  0  0
  8 15  2  0  0  0  0
  8 22  1  0  0  0  0
  9 20  1  0  0  0  0
  9 22  2  0  0  0  0
 10 11  1  0  0  0  0
 10 21  2  0  0  0  0
 11 26  1  0  0  0  0
 11 27  1  0  0  0  0
 12 14  1  0  0  0  0
 12 18  2  0  0  0  0
 13 15  1  0  0  0  0
 13 17  1  0  0  0  0
 13 20  2  0  0  0  0
 14 19  2  0  0  0  0
 16 17  2  0  0  0  0
 18 24  1  0  0  0  0
 19 23  1  0  0  0  0
 21 25  1  0  0  0  0
 23 24  2  0  0  0  0
 25 26  2  0  0  0  0
M  END
> <PUBCHEM_COMPOUND_ID_TYPE>
0

> <PUBCHEM_TOTAL_CHARGE>
0

> <PUBCHEM_SUBSTANCE_ID>
310942633

> <PUBCHEM_SUBSTANCE_VERSION>
1

> <PUBCHEM_EXT_DATASOURCE_NAME>
4488

> <PUBCHEM_EXT_DATASOURCE_REGID>
SCHEMBL16120679

> <PUBCHEM_SUBSTANCE_COMMENT>
InChI=1S/C17H15F2N5O2S2/c1-24-7-5-15(23-24)21-16-11(10-20-17(22-16)27-2)6-8-28(25,26)14-4-3-12(18)9-13(14)19/h3-10H,1-2H3,(H,20,21,22,23)/b8-6+
InChIKey=QDCGOFIFRNUXHH-SOFGYWHQSA-N

> <PUBCHEM_SUBSTANCE_SYNONYM>
SCHEMBL16120679

> <PUBCHEM_XREF_EXT_ID>
SCHEMBL16120679

> <PUBCHEM_EXT_DATASOURCE_URL>
https://www.surechembl.org/

> <PUBCHEM_EXT_SUBSTANCE_URL>
https://www.surechembl.org/chemical/SCHEMBL16120679

> <PUBCHEM_CID_ASSOCIATIONS>
117609165  1

> <PUBCHEM_COORDINATE_TYPE>
1
3

$$$$
