310929195
  -OEChem-07211613022D

 60 64  0     0  0  0  0  0  0999 V2000
    2.6400   -9.8999    0.0000 O   0  0  0  0  0  0  0  0  0  0  0  0
    5.5275  -12.3749    0.0000 O   0  0  0  0  0  0  0  0  0  0  0  0
    6.9300  -12.3749    0.0000 O   0  0  0  0  0  0  0  0  0  0  0  0
    3.3825  -14.4374    0.0000 O   0  0  0  0  0  0  0  0  0  0  0  0
    2.8050   -4.9500    0.0000 O   0  0  0  0  0  0  0  0  0  0  0  0
    4.1250   -7.5075    0.0000 O   0  0  0  0  0  0  0  0  0  0  0  0
    8.3325  -15.6749    0.0000 O   0  0  0  0  0  0  0  0  0  0  0  0
    9.0749  -14.4374    0.0000 O   0  0  0  0  0  0  0  0  0  0  0  0
    0.6600   -4.5375    0.0000 O   0  0  0  0  0  0  0  0  0  0  0  0
    0.0000   -2.4750    0.0000 O   0  0  0  0  0  0  0  0  0  0  0  0
    1.4850   -0.8250    0.0000 O   0  0  0  0  0  0  0  0  0  0  0  0
    4.0425  -13.1999    0.0000 N   0  0  0  0  0  0  0  0  0  0  0  0
    2.6400  -13.1999    0.0000 N   0  0  0  0  0  0  0  0  0  0  0  0
    7.5900  -13.6124    0.0000 N   0  0  0  0  0  0  0  0  0  0  0  0
    1.9800   -8.6624    0.0000 N   0  0  0  0  0  0  0  0  0  0  0  0
    1.3200   -7.4249    0.0000 N   0  0  0  0  0  0  0  0  0  0  0  0
    0.5775   -8.6624    0.0000 N   0  0  0  0  0  0  0  0  0  0  0  0
    5.5275  -13.1999    0.0000 C   0  0  0  0  0  0  0  0  0  0  0  0
    4.7850  -13.6124    0.0000 C   0  0  0  0  0  0  0  0  0  0  0  0
    6.1875  -13.6124    0.0000 C   0  0  0  0  0  0  0  0  0  0  0  0
    3.3000  -11.9624    0.0000 C   0  0  0  0  0  0  0  0  0  0  0  0
    5.5275  -14.8499    0.0000 C   0  0  0  0  0  0  0  0  0  0  0  0
    3.3825  -11.1374    0.0000 C   0  0  0  0  0  0  0  0  0  0  0  0
    2.6400  -12.3749    0.0000 C   0  0  0  0  0  0  0  0  0  0  0  0
    2.6400  -10.7249    0.0000 C   0  0  0  0  0  0  0  0  0  0  0  0
    4.7850  -14.4374    0.0000 C   0  0  0  0  0  0  0  0  0  0  0  0
    6.1875  -14.4374    0.0000 C   0  0  0  0  0  0  0  0  0  0  0  0
    5.5275  -15.6749    0.0000 C   0  0  0  0  0  0  0  0  0  0  0  0
    6.9300  -13.1999    0.0000 C   0  0  0  0  0  0  0  0  0  0  0  0
    3.3825  -13.6124    0.0000 C   0  0  0  0  0  0  0  0  0  0  0  0
    1.8975  -11.9624    0.0000 C   0  0  0  0  0  0  0  0  0  0  0  0
    1.9800  -11.1374    0.0000 C   0  0  0  0  0  0  0  0  0  0  0  0
    4.0425  -12.3749    0.0000 C   0  0  0  0  0  0  0  0  0  0  0  0
    4.0425  -10.8075    0.0000 C   0  0  0  0  0  0  0  0  0  0  0  0
    1.9800   -9.4874    0.0000 C   0  0  0  0  0  0  0  0  0  0  0  0
    4.9500  -12.2100    0.0000 C   0  0  0  0  0  0  0  0  0  0  0  0
    4.7850  -11.2200    0.0000 C   0  0  0  0  0  0  0  0  0  0  0  0
    4.6200  -15.6749    0.0000 C   0  0  0  0  0  0  0  0  0  0  0  0
    5.5275  -16.4999    0.0000 C   0  0  0  0  0  0  0  0  0  0  0  0
    6.3525  -15.6749    0.0000 C   0  0  0  0  0  0  0  0  0  0  0  0
    1.3200   -8.2499    0.0000 C   0  0  0  0  0  0  0  0  0  0  0  0
    1.2375   -9.8999    0.0000 C   0  0  0  0  0  0  0  0  0  0  0  0
    2.0625   -7.0124    0.0000 C   0  0  0  0  0  0  0  0  0  0  0  0
    4.7850  -11.9624    0.0000 C   0  0  0  0  0  0  0  0  0  0  0  0
    0.5775   -9.4874    0.0000 C   0  0  0  0  0  0  0  0  0  0  0  0
    7.5900  -14.4374    0.0000 C   0  0  0  0  0  0  0  0  0  0  0  0
    2.0625   -6.1875    0.0000 C   0  0  0  0  0  0  0  0  0  0  0  0
    2.8050   -5.7750    0.0000 C   0  0  0  0  0  0  0  0  0  0  0  0
    2.7225   -7.4249    0.0000 C   0  0  0  0  0  0  0  0  0  0  0  0
    3.4650   -7.0950    0.0000 C   0  0  0  0  0  0  0  0  0  0  0  0
    3.4650   -6.2700    0.0000 C   0  0  0  0  0  0  0  0  0  0  0  0
    8.3325  -14.8499    0.0000 C   0  0  0  0  0  0  0  0  0  0  0  0
    2.1450   -4.5375    0.0000 C   0  0  0  0  0  0  0  0  0  0  0  0
    4.8675   -7.0950    0.0000 C   0  0  0  0  0  0  0  0  0  0  0  0
    1.4025   -4.9500    0.0000 C   0  0  0  0  0  0  0  0  0  0  0  0
    0.7425   -3.7125    0.0000 C   0  0  0  0  0  0  0  0  0  0  0  0
    0.0000   -3.3000    0.0000 C   0  0  0  0  0  0  0  0  0  0  0  0
    0.7425   -2.0625    0.0000 C   0  0  0  0  0  0  0  0  0  0  0  0
    0.7425   -1.2375    0.0000 C   0  0  0  0  0  0  0  0  0  0  0  0
    1.4850    0.0000    0.0000 C   0  0  0  0  0  0  0  0  0  0  0  0
  1 25  1  0  0  0  0
  1 35  1  0  0  0  0
  2 18  1  0  0  0  0
  2 44  1  0  0  0  0
  3 29  2  0  0  0  0
  4 30  2  0  0  0  0
  5 48  1  0  0  0  0
  5 53  1  0  0  0  0
  6 50  1  0  0  0  0
  6 54  1  0  0  0  0
  7 52  2  0  0  0  0
  8 52  1  0  0  0  0
  9 55  1  0  0  0  0
  9 56  1  0  0  0  0
 10 57  1  0  0  0  0
 10 58  1  0  0  0  0
 11 59  1  0  0  0  0
 11 60  1  0  0  0  0
 12 19  1  0  0  0  0
 12 30  1  0  0  0  0
 13 24  1  0  0  0  0
 13 30  1  0  0  0  0
 14 29  1  0  0  0  0
 14 46  1  0  0  0  0
 15 35  2  0  0  0  0
 15 41  1  0  0  0  0
 16 41  1  0  0  0  0
 16 43  1  0  0  0  0
 17 41  2  0  0  0  0
 17 45  1  0  0  0  0
 18 19  1  0  0  0  0
 18 20  2  0  0  0  0
 19 26  2  0  0  0  0
 20 27  1  0  0  0  0
 20 29  1  0  0  0  0
 21 23  2  0  0  0  0
 21 24  1  0  0  0  0
 21 33  1  0  0  0  0
 22 26  1  0  0  0  0
 22 27  2  0  0  0  0
 22 28  1  0  0  0  0
 23 25  1  0  0  0  0
 23 34  1  0  0  0  0
 24 31  2  0  0  0  0
 25 32  2  0  0  0  0
 28 38  1  0  0  0  0
 28 39  1  0  0  0  0
 28 40  1  0  0  0  0
 31 32  1  0  0  0  0
 33 36  2  0  0  0  0
 34 37  2  0  0  0  0
 35 42  1  0  0  0  0
 36 37  1  0  0  0  0
 42 45  2  0  0  0  0
 43 47  2  0  0  0  0
 43 49  1  0  0  0  0
 46 52  1  0  0  0  0
 47 48  1  0  0  0  0
 48 51  2  0  0  0  0
 49 50  2  0  0  0  0
 50 51  1  0  0  0  0
 53 55  1  0  0  0  0
 56 57  1  0  0  0  0
 58 59  1  0  0  0  0
M  END
> <PUBCHEM_COMPOUND_ID_TYPE>
0

> <PUBCHEM_TOTAL_CHARGE>
0

> <PUBCHEM_SUBSTANCE_ID>
310929195

> <PUBCHEM_SUBSTANCE_VERSION>
1

> <PUBCHEM_EXT_DATASOURCE_NAME>
4488

> <PUBCHEM_EXT_DATASOURCE_REGID>
SCHEMBL16106358

> <PUBCHEM_SUBSTANCE_COMMENT>
InChI=1S/C43H50N6O11/c1-43(2,3)27-21-33(40(52)45-26-38(50)51)39(56-6)35(22-27)48-42(53)47-34-11-12-36(32-10-8-7-9-31(32)34)60-37-13-14-44-41(49-37)46-28-23-29(55-5)25-30(24-28)59-20-19-58-18-17-57-16-15-54-4/h7-14,21-25H,15-20,26H2,1-6H3,(H,45,52)(H,50,51)(H,44,46,49)(H2,47,48,53)
InChIKey=QNHHGBAOFUVYRP-UHFFFAOYSA-N

> <PUBCHEM_SUBSTANCE_SYNONYM>
SCHEMBL16106358

> <PUBCHEM_XREF_EXT_ID>
SCHEMBL16106358

> <PUBCHEM_EXT_DATASOURCE_URL>
https://www.surechembl.org/

> <PUBCHEM_EXT_SUBSTANCE_URL>
https://www.surechembl.org/chemical/SCHEMBL16106358

> <PUBCHEM_CID_ASSOCIATIONS>
117598648  1

> <PUBCHEM_COORDINATE_TYPE>
1
3

$$$$
