310940723
  -OEChem-07211613022D

 13 13  0     0  0  0  0  0  0999 V2000
   -0.5745    0.8396    0.0000 S   0  0  0  0  0  0  0  0  0  0  0  0
    2.3861    0.8396    0.0000 O   0  0  0  0  0  0  0  0  0  0  0  0
    2.3861   -0.8396    0.0000 O   0  0  0  0  0  0  0  0  0  0  0  0
    0.1768   -0.4124    0.0000 N   0  0  0  0  0  0  0  0  0  0  0  0
    0.9132    0.8396    0.0000 N   0  0  0  0  0  0  0  0  0  0  0  0
    0.9132   -0.8396    0.0000 N   0  0  0  0  0  0  0  0  0  0  0  0
    0.1768    0.4272    0.0000 C   0  0  0  0  0  0  0  0  0  0  0  0
    1.6350    0.4272    0.0000 C   0  0  0  0  0  0  0  0  0  0  0  0
    1.6202   -0.3977    0.0000 C   0  0  0  0  0  0  0  0  0  0  0  0
   -0.5892   -0.8249    0.0000 C   0  0  0  0  0  0  0  0  0  0  0  0
   -1.3109    0.4272    0.0000 C   0  0  0  0  0  0  0  0  0  0  0  0
   -2.0179    0.7954    0.0000 C   0  0  0  0  0  0  0  0  0  0  0  0
   -2.3861    0.4860    0.0000 C   0  0  0  0  0  0  0  0  0  0  0  0
  1  7  1  0  0  0  0
  1 11  1  0  0  0  0
  2  8  2  0  0  0  0
  3  9  2  0  0  0  0
  4  6  1  0  0  0  0
  4  7  1  0  0  0  0
  4 10  1  0  0  0  0
  5  7  2  0  0  0  0
  5  8  1  0  0  0  0
  6  9  1  0  0  0  0
  8  9  1  0  0  0  0
 11 12  1  0  0  0  0
 12 13  1  0  0  0  0
M  END
> <PUBCHEM_COMPOUND_ID_TYPE>
0

> <PUBCHEM_TOTAL_CHARGE>
0

> <PUBCHEM_SUBSTANCE_ID>
310940723

> <PUBCHEM_SUBSTANCE_VERSION>
1

> <PUBCHEM_EXT_DATASOURCE_NAME>
4488

> <PUBCHEM_EXT_DATASOURCE_REGID>
SCHEMBL16118681

> <PUBCHEM_SUBSTANCE_COMMENT>
InChI=1S/C7H11N3O2S/c1-3-4-13-7-8-5(11)6(12)9-10(7)2/h3-4H2,1-2H3,(H,9,12)
InChIKey=NNNOGMFWUJITEB-UHFFFAOYSA-N

> <PUBCHEM_SUBSTANCE_SYNONYM>
SCHEMBL16118681

> <PUBCHEM_XREF_EXT_ID>
SCHEMBL16118681

> <PUBCHEM_EXT_DATASOURCE_URL>
https://www.surechembl.org/

> <PUBCHEM_EXT_SUBSTANCE_URL>
https://www.surechembl.org/chemical/SCHEMBL16118681

> <PUBCHEM_CID_ASSOCIATIONS>
117607680  1

> <PUBCHEM_COORDINATE_TYPE>
1
3

> <PUBCHEM_BONDANNOTATIONS>
12  13  3

$$$$
