310944103
  -OEChem-07211613022D

 32 36  0     1  0  0  0  0  0999 V2000
    2.5866    0.9576    0.0000 O   0  0  0  0  0  0  0  0  0  0  0  0
    5.4484    0.2422    0.0000 O   0  0  0  0  0  0  0  0  0  0  0  0
    5.4484    1.7171    0.0000 O   0  0  0  0  0  0  0  0  0  0  0  0
   -0.6714   -1.2768    0.0000 O   0  0  0  0  0  0  0  0  0  0  0  0
    3.3791   -0.2972    0.0000 N   0  0  0  0  0  0  0  0  0  0  0  0
    0.4512   -0.0661    0.0000 N   0  0  0  0  0  0  0  0  0  0  0  0
   -4.1165    0.2422    0.0000 N   0  0  0  0  0  0  0  0  0  0  0  0
   -1.9592    0.4843    0.0000 N   0  0  0  0  0  0  0  0  0  0  0  0
   -3.0709   -0.7375    0.0000 N   0  0  0  0  0  0  0  0  0  0  0  0
   -4.4468    1.0017    0.0000 N   0  0  0  0  0  0  0  0  0  0  0  0
   -5.2613    0.9246    0.0000 N   0  0  0  0  0  0  0  0  0  0  0  0
   -5.4484    0.1101    0.0000 N   0  0  0  0  0  0  0  0  0  0  0  0
    2.0583   -0.4072    0.0000 C   0  0  0  0  0  0  0  0  0  0  0  0
    2.6636    0.1101    0.0000 C   0  0  0  0  0  0  0  0  0  0  0  0
    3.1920   -1.1007    0.0000 C   0  0  3  0  0  0  0  0  0  0  0  0
    2.3775   -1.1777    0.0000 C   0  0  0  0  0  0  0  0  0  0  0  0
    4.1276    0.0440    0.0000 C   0  0  0  0  0  0  0  0  0  0  0  0
    1.4859   -1.0347    0.0000 C   0  0  0  0  0  0  0  0  0  0  0  0
    1.8051    0.3742    0.0000 C   0  0  0  0  0  0  0  0  0  0  0  0
    0.6934   -0.8475    0.0000 C   0  0  0  0  0  0  0  0  0  0  0  0
    1.0017    0.5613    0.0000 C   0  0  0  0  0  0  0  0  0  0  0  0
    4.2707    0.8586    0.0000 C   0  0  0  0  0  0  0  0  0  0  0  0
    4.8650   -0.3412    0.0000 C   0  0  0  0  0  0  0  0  0  0  0  0
    3.7313   -1.7171    0.0000 C   0  0  0  0  0  0  0  0  0  0  0  0
    5.0632    0.9686    0.0000 C   0  0  0  0  0  0  0  0  0  0  0  0
   -0.3522    0.1211    0.0000 C   0  0  0  0  0  0  0  0  0  0  0  0
   -0.9136   -0.4843    0.0000 C   0  0  3  0  0  0  0  0  0  0  0  0
   -1.7171   -0.2972    0.0000 C   0  0  0  0  0  0  0  0  0  0  0  0
   -3.3240    0.0550    0.0000 C   0  0  0  0  0  0  0  0  0  0  0  0
   -2.2674   -0.9136    0.0000 C   0  0  0  0  0  0  0  0  0  0  0  0
   -2.7627    0.6714    0.0000 C   0  0  0  0  0  0  0  0  0  0  0  0
   -4.7329   -0.2972    0.0000 C   0  0  0  0  0  0  0  0  0  0  0  0
  1 14  2  0  0  0  0
  2 23  1  0  0  0  0
  2 25  1  0  0  0  0
  3 25  2  0  0  0  0
 27  4  1  6  0  0  0
  5 14  1  0  0  0  0
  5 15  1  0  0  0  0
  5 17  1  0  0  0  0
  6 20  1  0  0  0  0
  6 21  1  0  0  0  0
  6 26  1  0  0  0  0
  7 10  1  0  0  0  0
  7 29  1  0  0  0  0
  7 32  1  0  0  0  0
  8 28  2  0  0  0  0
  8 31  1  0  0  0  0
  9 29  1  0  0  0  0
  9 30  2  0  0  0  0
 10 11  2  0  0  0  0
 11 12  1  0  0  0  0
 12 32  2  0  0  0  0
 13 14  1  0  0  0  0
 13 16  1  0  0  0  0
 13 18  1  0  0  0  0
 13 19  1  0  0  0  0
 15 16  1  0  0  0  0
 15 24  1  6  0  0  0
 17 22  2  0  0  0  0
 17 23  1  0  0  0  0
 18 20  1  0  0  0  0
 19 21  1  0  0  0  0
 22 25  1  0  0  0  0
 26 27  1  0  0  0  0
 27 28  1  0  0  0  0
 28 30  1  0  0  0  0
 29 31  2  0  0  0  0
M  END
> <PUBCHEM_COMPOUND_ID_TYPE>
0

> <PUBCHEM_TOTAL_CHARGE>
0

> <PUBCHEM_SUBSTANCE_ID>
310944103

> <PUBCHEM_SUBSTANCE_VERSION>
1

> <PUBCHEM_EXT_DATASOURCE_NAME>
4488

> <PUBCHEM_EXT_DATASOURCE_REGID>
SCHEMBL16122178

> <PUBCHEM_SUBSTANCE_COMMENT>
InChI=1S/C20H24N8O4/c1-13-7-20(19(31)28(13)14-6-18(30)32-11-14)2-4-26(5-3-20)10-16(29)15-8-22-17(9-21-15)27-12-23-24-25-27/h6,8-9,12-13,16,29H,2-5,7,10-11H2,1H3/t13-,16+/m1/s1
InChIKey=NMVKTRIQUJQFTP-CJNGLKHVSA-N

> <PUBCHEM_SUBSTANCE_SYNONYM>
SCHEMBL16122178

> <PUBCHEM_XREF_EXT_ID>
SCHEMBL16122178

> <PUBCHEM_EXT_DATASOURCE_URL>
https://www.surechembl.org/

> <PUBCHEM_EXT_SUBSTANCE_URL>
https://www.surechembl.org/chemical/SCHEMBL16122178

> <PUBCHEM_CID_ASSOCIATIONS>
86271823  1

> <PUBCHEM_COORDINATE_TYPE>
1
3

> <PUBCHEM_BONDANNOTATIONS>
15  24  6
27  4  6

$$$$
