310944638
  -OEChem-07211613022D

 35 39  0     0  0  0  0  0  0999 V2000
    3.4734    1.2832    0.0000 F   0  0  0  0  0  0  0  0  0  0  0  0
   -3.4734    1.2446    0.0000 F   0  0  0  0  0  0  0  0  0  0  0  0
   -0.0579    2.6147    0.0000 O   0  0  0  0  0  0  0  0  0  0  0  0
   -5.3837    0.1061    0.0000 N   0  0  0  0  0  0  0  0  0  0  0  0
    5.3837    0.0675    0.0000 N   0  0  0  0  0  0  0  0  0  0  0  0
   -2.1419   -2.6147    0.0000 N   0  0  0  0  0  0  0  0  0  0  0  0
    2.1033   -2.5568    0.0000 N   0  0  0  0  0  0  0  0  0  0  0  0
   -0.5017    1.3797    0.0000 C   0  0  0  0  0  0  0  0  0  0  0  0
    0.4052    1.3990    0.0000 C   0  0  0  0  0  0  0  0  0  0  0  0
   -0.7333    2.1515    0.0000 C   0  0  0  0  0  0  0  0  0  0  0  0
    0.6368    2.1709    0.0000 C   0  0  0  0  0  0  0  0  0  0  0  0
   -1.8524    0.9551    0.0000 C   0  0  0  0  0  0  0  0  0  0  0  0
    1.7559    0.9745    0.0000 C   0  0  0  0  0  0  0  0  0  0  0  0
   -1.0420    0.7815    0.0000 C   0  0  0  0  0  0  0  0  0  0  0  0
    0.9455    0.8008    0.0000 C   0  0  0  0  0  0  0  0  0  0  0  0
   -2.3927    0.2991    0.0000 C   0  0  0  0  0  0  0  0  0  0  0  0
    2.3927    0.3763    0.0000 C   0  0  0  0  0  0  0  0  0  0  0  0
   -1.5630    2.2866    0.0000 C   0  0  0  0  0  0  0  0  0  0  0  0
    1.4472    2.3252    0.0000 C   0  0  0  0  0  0  0  0  0  0  0  0
    2.0261    1.7270    0.0000 C   0  0  0  0  0  0  0  0  0  0  0  0
   -2.1033    1.6884    0.0000 C   0  0  0  0  0  0  0  0  0  0  0  0
    3.1839    0.5307    0.0000 C   0  0  0  0  0  0  0  0  0  0  0  0
   -3.2032    0.4921    0.0000 C   0  0  0  0  0  0  0  0  0  0  0  0
    2.1226   -0.4148    0.0000 C   0  0  0  0  0  0  0  0  0  0  0  0
   -2.1419   -0.4342    0.0000 C   0  0  0  0  0  0  0  0  0  0  0  0
    3.7628   -0.0675    0.0000 C   0  0  0  0  0  0  0  0  0  0  0  0
   -3.7628   -0.1254    0.0000 C   0  0  0  0  0  0  0  0  0  0  0  0
    2.6629   -1.0130    0.0000 C   0  0  0  0  0  0  0  0  0  0  0  0
   -2.6822   -1.0710    0.0000 C   0  0  0  0  0  0  0  0  0  0  0  0
    3.4541   -0.8587    0.0000 C   0  0  0  0  0  0  0  0  0  0  0  0
   -3.4926   -0.8973    0.0000 C   0  0  0  0  0  0  0  0  0  0  0  0
    4.5732    0.0675    0.0000 C   0  0  0  0  0  0  0  0  0  0  0  0
   -4.5926    0.0096    0.0000 C   0  0  0  0  0  0  0  0  0  0  0  0
    2.3735   -1.8042    0.0000 C   0  0  0  0  0  0  0  0  0  0  0  0
   -2.4121   -1.8428    0.0000 C   0  0  0  0  0  0  0  0  0  0  0  0
  1 22  1  0  0  0  0
  2 23  1  0  0  0  0
  3 10  1  0  0  0  0
  3 11  1  0  0  0  0
  4 33  3  0  0  0  0
  5 32  3  0  0  0  0
  6 35  3  0  0  0  0
  7 34  3  0  0  0  0
  8  9  1  0  0  0  0
  8 10  2  0  0  0  0
  8 14  1  0  0  0  0
  9 11  2  0  0  0  0
  9 15  1  0  0  0  0
 10 18  1  0  0  0  0
 11 19  1  0  0  0  0
 12 14  2  0  0  0  0
 12 16  1  0  0  0  0
 12 21  1  0  0  0  0
 13 15  2  0  0  0  0
 13 17  1  0  0  0  0
 13 20  1  0  0  0  0
 16 23  2  0  0  0  0
 16 25  1  0  0  0  0
 17 22  2  0  0  0  0
 17 24  1  0  0  0  0
 18 21  2  0  0  0  0
 19 20  2  0  0  0  0
 22 26  1  0  0  0  0
 23 27  1  0  0  0  0
 24 28  2  0  0  0  0
 25 29  2  0  0  0  0
 26 30  2  0  0  0  0
 26 32  1  0  0  0  0
 27 31  2  0  0  0  0
 27 33  1  0  0  0  0
 28 30  1  0  0  0  0
 28 34  1  0  0  0  0
 29 31  1  0  0  0  0
 29 35  1  0  0  0  0
M  END
> <PUBCHEM_COMPOUND_ID_TYPE>
0

> <PUBCHEM_TOTAL_CHARGE>
0

> <PUBCHEM_SUBSTANCE_ID>
310944638

> <PUBCHEM_SUBSTANCE_VERSION>
1

> <PUBCHEM_EXT_DATASOURCE_NAME>
4488

> <PUBCHEM_EXT_DATASOURCE_REGID>
SCHEMBL16122716

> <PUBCHEM_SUBSTANCE_COMMENT>
InChI=1S/C28H10F2N4O/c29-27-19(13-33)5-15(11-31)7-21(27)17-1-3-25-23(9-17)24-10-18(2-4-26(24)35-25)22-8-16(12-32)6-20(14-34)28(22)30/h1-10H
InChIKey=GCYKAXBQJAONNQ-UHFFFAOYSA-N

> <PUBCHEM_SUBSTANCE_SYNONYM>
SCHEMBL16122716

> <PUBCHEM_XREF_EXT_ID>
SCHEMBL16122716

> <PUBCHEM_EXT_DATASOURCE_URL>
https://www.surechembl.org/

> <PUBCHEM_EXT_SUBSTANCE_URL>
https://www.surechembl.org/chemical/SCHEMBL16122716

> <PUBCHEM_CID_ASSOCIATIONS>
117610868  1

> <PUBCHEM_COORDINATE_TYPE>
1
3

$$$$
