310941432
  -OEChem-07211613022D

 36 40  0     1  0  0  0  0  0999 V2000
   -2.0738    2.3976    0.0000 S   0  0  0  0  0  0  0  0  0  0  0  0
    0.0311    1.9119    0.0000 O   0  0  0  0  0  0  0  0  0  0  0  0
   -2.2481    3.9046    0.0000 O   0  0  0  0  0  0  0  0  0  0  0  0
    0.7659    0.6663    0.0000 N   0  0  0  0  0  0  0  0  0  0  0  0
    0.0436   -0.5792    0.0000 N   0  0  0  0  0  0  0  0  0  0  0  0
    1.6129   -1.4137    0.0000 N   0  0  0  0  0  0  0  0  0  0  0  0
   -0.9777    3.1947    0.0000 N   0  0  0  0  0  0  0  0  0  0  0  0
    2.2108   -2.6591    0.0000 N   0  0  0  0  0  0  0  0  0  0  0  0
    1.4884   -3.9046    0.0000 N   0  0  0  0  0  0  0  0  0  0  0  0
    3.0453   -3.9046    0.0000 N   0  0  0  0  0  0  0  0  0  0  0  0
   -0.6663   -1.8745    0.0000 N   0  0  0  0  0  0  0  0  0  0  0  0
   -0.6788    0.6788    0.0000 C   0  0  0  0  0  0  0  0  0  0  0  0
    0.0311    1.0649    0.0000 C   0  0  0  0  0  0  0  0  0  0  0  0
   -0.6912   -0.1557    0.0000 C   0  0  0  0  0  0  0  0  0  0  0  0
    0.7535   -0.1682    0.0000 C   0  0  0  0  0  0  0  0  0  0  0  0
   -1.4137    1.0774    0.0000 C   0  0  0  0  0  0  0  0  0  0  0  0
    1.4759    1.0898    0.0000 C   0  0  0  0  0  0  0  0  0  0  0  0
   -1.3887    1.9243    0.0000 C   0  0  0  0  0  0  0  0  0  0  0  0
    1.4884   -0.5792    0.0000 C   0  0  3  0  0  0  0  0  0  0  0  0
   -1.3887   -0.5667    0.0000 C   0  0  0  0  0  0  0  0  0  0  0  0
   -2.1111    0.6663    0.0000 C   0  0  0  0  0  0  0  0  0  0  0  0
   -2.1111   -0.1557    0.0000 C   0  0  0  0  0  0  0  0  0  0  0  0
   -0.7286    2.3976    0.0000 C   0  0  0  0  0  0  0  0  0  0  0  0
    2.2108    0.6788    0.0000 C   0  0  0  0  0  0  0  0  0  0  0  0
    1.4884    1.9119    0.0000 C   0  0  0  0  0  0  0  0  0  0  0  0
   -1.8122    3.1947    0.0000 C   0  0  0  0  0  0  0  0  0  0  0  0
    1.4634   -2.2356    0.0000 C   0  0  0  0  0  0  0  0  0  0  0  0
    2.1858   -0.1806    0.0000 C   0  0  0  0  0  0  0  0  0  0  0  0
    0.7659   -2.6467    0.0000 C   0  0  0  0  0  0  0  0  0  0  0  0
    2.9207    1.0898    0.0000 C   0  0  0  0  0  0  0  0  0  0  0  0
    2.1858    2.3104    0.0000 C   0  0  0  0  0  0  0  0  0  0  0  0
    2.9207    1.9119    0.0000 C   0  0  0  0  0  0  0  0  0  0  0  0
    2.1858   -3.4812    0.0000 C   0  0  0  0  0  0  0  0  0  0  0  0
    0.7535   -3.4812    0.0000 C   0  0  0  0  0  0  0  0  0  0  0  0
    0.0436   -2.2481    0.0000 C   0  0  0  0  0  0  0  0  0  0  0  0
   -3.0453    3.8797    0.0000 C   0  0  0  0  0  0  0  0  0  0  0  0
  1 18  1  0  0  0  0
  1 26  1  0  0  0  0
  2 13  2  0  0  0  0
  3 26  1  0  0  0  0
  3 36  1  0  0  0  0
  4 13  1  0  0  0  0
  4 15  1  0  0  0  0
  4 17  1  0  0  0  0
  5 14  1  0  0  0  0
  5 15  2  0  0  0  0
  6 19  1  0  0  0  0
  6 27  1  0  0  0  0
  7 23  1  0  0  0  0
  7 26  2  0  0  0  0
  8 27  1  0  0  0  0
  8 33  2  0  0  0  0
  9 33  1  0  0  0  0
  9 34  2  0  0  0  0
 10 33  1  0  0  0  0
 11 35  3  0  0  0  0
 12 13  1  0  0  0  0
 12 14  1  0  0  0  0
 12 16  2  0  0  0  0
 14 20  2  0  0  0  0
 15 19  1  0  0  0  0
 16 18  1  0  0  0  0
 16 21  1  0  0  0  0
 17 24  2  0  0  0  0
 17 25  1  0  0  0  0
 18 23  2  0  0  0  0
 19 28  1  6  0  0  0
 20 22  1  0  0  0  0
 21 22  2  0  0  0  0
 24 30  1  0  0  0  0
 25 31  2  0  0  0  0
 27 29  2  0  0  0  0
 29 34  1  0  0  0  0
 29 35  1  0  0  0  0
 30 32  2  0  0  0  0
 31 32  1  0  0  0  0
M  END
> <PUBCHEM_COMPOUND_ID_TYPE>
0

> <PUBCHEM_TOTAL_CHARGE>
0

> <PUBCHEM_SUBSTANCE_ID>
310941432

> <PUBCHEM_SUBSTANCE_VERSION>
1

> <PUBCHEM_EXT_DATASOURCE_NAME>
4488

> <PUBCHEM_EXT_DATASOURCE_REGID>
SCHEMBL16119392

> <PUBCHEM_SUBSTANCE_COMMENT>
InChI=1S/C25H20N8O2S/c1-14(30-21-15(11-26)12-28-24(27)32-21)22-31-18-10-6-9-17(19-13-29-25(35-2)36-19)20(18)23(34)33(22)16-7-4-3-5-8-16/h3-10,12-14H,1-2H3,(H3,27,28,30,32)/t14-/m0/s1
InChIKey=PCIFCUUEHSTUDR-AWEZNQCLSA-N

> <PUBCHEM_SUBSTANCE_SYNONYM>
SCHEMBL16119392

> <PUBCHEM_XREF_EXT_ID>
SCHEMBL16119392

> <PUBCHEM_EXT_DATASOURCE_URL>
https://www.surechembl.org/

> <PUBCHEM_EXT_SUBSTANCE_URL>
https://www.surechembl.org/chemical/SCHEMBL16119392

> <PUBCHEM_CID_ASSOCIATIONS>
117608257  1

> <PUBCHEM_COORDINATE_TYPE>
1
3

> <PUBCHEM_BONDANNOTATIONS>
19  28  6

$$$$
