310943949
  -OEChem-07211613022D

 61 71  0     0  0  0  0  0  0999 V2000
    0.0122    3.6190    0.0000 F   0  0  0  0  0  0  0  0  0  0  0  0
   -1.4550    1.1248    0.0000 N   0  0  0  0  0  0  0  0  0  0  0  0
    1.5039    1.1493    0.0000 N   0  0  0  0  0  0  0  0  0  0  0  0
   -2.1397    3.1545    0.0000 N   0  0  0  0  0  0  0  0  0  0  0  0
    2.1885    3.1789    0.0000 N   0  0  0  0  0  0  0  0  0  0  0  0
   -0.7213    1.5650    0.0000 C   0  0  0  0  0  0  0  0  0  0  0  0
    0.7213    1.5895    0.0000 C   0  0  0  0  0  0  0  0  0  0  0  0
   -2.2619    1.4916    0.0000 C   0  0  0  0  0  0  0  0  0  0  0  0
   -1.5284    0.2935    0.0000 C   0  0  0  0  0  0  0  0  0  0  0  0
    2.2375    1.5161    0.0000 C   0  0  0  0  0  0  0  0  0  0  0  0
    1.5773    0.3423    0.0000 C   0  0  0  0  0  0  0  0  0  0  0  0
   -2.7999    0.8803    0.0000 C   0  0  0  0  0  0  0  0  0  0  0  0
   -2.3352    0.1467    0.0000 C   0  0  0  0  0  0  0  0  0  0  0  0
    2.8244    0.9047    0.0000 C   0  0  0  0  0  0  0  0  0  0  0  0
    2.3842    0.1223    0.0000 C   0  0  0  0  0  0  0  0  0  0  0  0
   -0.7213    2.3964    0.0000 C   0  0  0  0  0  0  0  0  0  0  0  0
    0.7458    2.4209    0.0000 C   0  0  0  0  0  0  0  0  0  0  0  0
    0.0856    1.1737    0.0000 C   0  0  0  0  0  0  0  0  0  0  0  0
    0.0122    2.8122    0.0000 C   0  0  0  0  0  0  0  0  0  0  0  0
   -3.5825    1.0270    0.0000 C   0  0  0  0  0  0  0  0  0  0  0  0
   -2.6043   -0.6603    0.0000 C   0  0  0  0  0  0  0  0  0  0  0  0
    3.6558    1.0514    0.0000 C   0  0  0  0  0  0  0  0  0  0  0  0
    2.6532   -0.6358    0.0000 C   0  0  0  0  0  0  0  0  0  0  0  0
   -2.4820    2.2497    0.0000 C   0  0  0  0  0  0  0  0  0  0  0  0
   -0.9903   -0.3179    0.0000 C   0  0  0  0  0  0  0  0  0  0  0  0
    2.5309    2.2741    0.0000 C   0  0  0  0  0  0  0  0  0  0  0  0
    1.0392   -0.2935    0.0000 C   0  0  0  0  0  0  0  0  0  0  0  0
   -3.8758    1.8096    0.0000 C   0  0  0  0  0  0  0  0  0  0  0  0
   -2.0663   -1.2471    0.0000 C   0  0  0  0  0  0  0  0  0  0  0  0
    3.9247    1.8585    0.0000 C   0  0  0  0  0  0  0  0  0  0  0  0
    2.1153   -1.2471    0.0000 C   0  0  0  0  0  0  0  0  0  0  0  0
   -1.4550    2.7876    0.0000 C   0  0  0  0  0  0  0  0  0  0  0  0
    1.4794    2.8122    0.0000 C   0  0  0  0  0  0  0  0  0  0  0  0
   -3.2890    2.4209    0.0000 C   0  0  0  0  0  0  0  0  0  0  0  0
   -1.2349   -1.0760    0.0000 C   0  0  0  0  0  0  0  0  0  0  0  0
    3.3624    2.4453    0.0000 C   0  0  0  0  0  0  0  0  0  0  0  0
    1.3082   -1.0514    0.0000 C   0  0  0  0  0  0  0  0  0  0  0  0
   -4.7073    2.0052    0.0000 C   0  0  0  0  0  0  0  0  0  0  0  0
   -2.3352   -2.0541    0.0000 C   0  0  0  0  0  0  0  0  0  0  0  0
    4.7318    2.0297    0.0000 C   0  0  0  0  0  0  0  0  0  0  0  0
    2.3597   -2.0052    0.0000 C   0  0  0  0  0  0  0  0  0  0  0  0
   -5.0008    2.7632    0.0000 C   0  0  0  0  0  0  0  0  0  0  0  0
   -3.1178   -2.2497    0.0000 C   0  0  0  0  0  0  0  0  0  0  0  0
   -5.2697    1.3939    0.0000 C   0  0  0  0  0  0  0  0  0  0  0  0
   -1.7729   -2.6899    0.0000 C   0  0  0  0  0  0  0  0  0  0  0  0
    5.2941    1.4183    0.0000 C   0  0  0  0  0  0  0  0  0  0  0  0
    1.8463   -2.6409    0.0000 C   0  0  0  0  0  0  0  0  0  0  0  0
    5.0251    2.8122    0.0000 C   0  0  0  0  0  0  0  0  0  0  0  0
    3.2156   -2.2253    0.0000 C   0  0  0  0  0  0  0  0  0  0  0  0
   -5.8322    2.9099    0.0000 C   0  0  0  0  0  0  0  0  0  0  0  0
   -3.3624   -3.0078    0.0000 C   0  0  0  0  0  0  0  0  0  0  0  0
   -6.1012    1.5650    0.0000 C   0  0  0  0  0  0  0  0  0  0  0  0
   -2.0174   -3.4480    0.0000 C   0  0  0  0  0  0  0  0  0  0  0  0
    6.1012    1.5895    0.0000 C   0  0  0  0  0  0  0  0  0  0  0  0
    2.0908   -3.4235    0.0000 C   0  0  0  0  0  0  0  0  0  0  0  0
    5.8322    2.9833    0.0000 C   0  0  0  0  0  0  0  0  0  0  0  0
    3.4602   -2.9833    0.0000 C   0  0  0  0  0  0  0  0  0  0  0  0
   -6.3702    2.3230    0.0000 C   0  0  0  0  0  0  0  0  0  0  0  0
   -2.8244   -3.6190    0.0000 C   0  0  0  0  0  0  0  0  0  0  0  0
    6.3702    2.3720    0.0000 C   0  0  0  0  0  0  0  0  0  0  0  0
    2.9222   -3.5946    0.0000 C   0  0  0  0  0  0  0  0  0  0  0  0
  1 19  1  0  0  0  0
  2  6  1  0  0  0  0
  2  8  1  0  0  0  0
  2  9  1  0  0  0  0
  3  7  1  0  0  0  0
  3 10  1  0  0  0  0
  3 11  1  0  0  0  0
  4 32  3  0  0  0  0
  5 33  3  0  0  0  0
  6 16  2  0  0  0  0
  6 18  1  0  0  0  0
  7 17  1  0  0  0  0
  7 18  2  0  0  0  0
  8 12  2  0  0  0  0
  8 24  1  0  0  0  0
  9 13  2  0  0  0  0
  9 25  1  0  0  0  0
 10 14  2  0  0  0  0
 10 26  1  0  0  0  0
 11 15  2  0  0  0  0
 11 27  1  0  0  0  0
 12 13  1  0  0  0  0
 12 20  1  0  0  0  0
 13 21  1  0  0  0  0
 14 15  1  0  0  0  0
 14 22  1  0  0  0  0
 15 23  1  0  0  0  0
 16 19  1  0  0  0  0
 16 32  1  0  0  0  0
 17 19  2  0  0  0  0
 17 33  1  0  0  0  0
 20 28  2  0  0  0  0
 21 29  2  0  0  0  0
 22 30  2  0  0  0  0
 23 31  2  0  0  0  0
 24 34  2  0  0  0  0
 25 35  2  0  0  0  0
 26 36  2  0  0  0  0
 27 37  2  0  0  0  0
 28 34  1  0  0  0  0
 28 38  1  0  0  0  0
 29 35  1  0  0  0  0
 29 39  1  0  0  0  0
 30 36  1  0  0  0  0
 30 40  1  0  0  0  0
 31 37  1  0  0  0  0
 31 41  1  0  0  0  0
 38 42  2  0  0  0  0
 38 44  1  0  0  0  0
 39 43  2  0  0  0  0
 39 45  1  0  0  0  0
 40 46  2  0  0  0  0
 40 48  1  0  0  0  0
 41 47  2  0  0  0  0
 41 49  1  0  0  0  0
 42 50  1  0  0  0  0
 43 51  1  0  0  0  0
 44 52  2  0  0  0  0
 45 53  2  0  0  0  0
 46 54  1  0  0  0  0
 47 55  1  0  0  0  0
 48 56  2  0  0  0  0
 49 57  2  0  0  0  0
 50 58  2  0  0  0  0
 51 59  2  0  0  0  0
 52 58  1  0  0  0  0
 53 59  1  0  0  0  0
 54 60  2  0  0  0  0
 55 61  2  0  0  0  0
 56 60  1  0  0  0  0
 57 61  1  0  0  0  0
M  END
> <PUBCHEM_COMPOUND_ID_TYPE>
0

> <PUBCHEM_TOTAL_CHARGE>
0

> <PUBCHEM_SUBSTANCE_ID>
310943949

> <PUBCHEM_SUBSTANCE_VERSION>
1

> <PUBCHEM_EXT_DATASOURCE_NAME>
4488

> <PUBCHEM_EXT_DATASOURCE_REGID>
SCHEMBL16122020

> <PUBCHEM_SUBSTANCE_COMMENT>
InChI=1S/C56H33FN4/c57-56-48(34-58)54(60-50-25-21-40(36-13-5-1-6-14-36)29-44(50)45-30-41(22-26-51(45)60)37-15-7-2-8-16-37)33-55(49(56)35-59)61-52-27-23-42(38-17-9-3-10-18-38)31-46(52)47-32-43(24-28-53(47)61)39-19-11-4-12-20-39/h1-33H
InChIKey=KJJVTANTGXBACE-UHFFFAOYSA-N

> <PUBCHEM_SUBSTANCE_SYNONYM>
SCHEMBL16122020

> <PUBCHEM_XREF_EXT_ID>
SCHEMBL16122020

> <PUBCHEM_EXT_DATASOURCE_URL>
https://www.surechembl.org/

> <PUBCHEM_EXT_SUBSTANCE_URL>
https://www.surechembl.org/chemical/SCHEMBL16122020

> <PUBCHEM_CID_ASSOCIATIONS>
117610257  1

> <PUBCHEM_COORDINATE_TYPE>
1
3

$$$$
