310934197
  -OEChem-07211613022D

 77 86  0     0  0  0  0  0  0999 V2000
    1.7420   -3.2631    0.0000 S   0  0  0  0  0  0  0  0  0  0  0  0
    5.9885   -3.7094    0.0000 S   0  0  0  0  0  0  0  0  0  0  0  0
    4.1424   -0.8493    0.0000 S   0  0  0  0  0  0  0  0  0  0  0  0
   -0.4799   -3.0045    0.0000 S   0  0  0  0  0  0  0  0  0  0  0  0
    8.2156   -3.9184    0.0000 S   0  0  0  0  0  0  0  0  0  0  0  0
   13.5510   -5.1503    0.0000 O   0  0  0  0  0  0  0  0  0  0  0  0
   13.7004   -3.7292    0.0000 O   0  0  0  0  0  0  0  0  0  0  0  0
    3.4279   -1.2618    0.0000 N   0  0  0  0  0  0  0  0  0  0  0  0
    4.7555   -1.4013    0.0000 N   0  0  0  0  0  0  0  0  0  0  0  0
   -4.3139   -3.2726    0.0000 N   0  0  0  0  0  0  0  0  0  0  0  0
   11.7239   -2.8030    0.0000 N   0  0  0  0  0  0  0  0  0  0  0  0
    3.5995   -2.0688    0.0000 C   0  0  0  0  0  0  0  0  0  0  0  0
    4.4200   -2.1550    0.0000 C   0  0  0  0  0  0  0  0  0  0  0  0
    3.1145   -2.7362    0.0000 C   0  0  0  0  0  0  0  0  0  0  0  0
    4.7555   -2.9087    0.0000 C   0  0  0  0  0  0  0  0  0  0  0  0
    2.2941   -2.6500    0.0000 C   0  0  0  0  0  0  0  0  0  0  0  0
    5.5760   -2.9949    0.0000 C   0  0  0  0  0  0  0  0  0  0  0  0
    0.9883   -2.9275    0.0000 C   0  0  0  0  0  0  0  0  0  0  0  0
    6.7955   -3.5379    0.0000 C   0  0  0  0  0  0  0  0  0  0  0  0
    3.4501   -3.4899    0.0000 C   0  0  0  0  0  0  0  0  0  0  0  0
    4.2706   -3.5761    0.0000 C   0  0  0  0  0  0  0  0  0  0  0  0
    1.0746   -2.1070    0.0000 C   0  0  0  0  0  0  0  0  0  0  0  0
    6.8818   -2.7174    0.0000 C   0  0  0  0  0  0  0  0  0  0  0  0
    1.8816   -1.9355    0.0000 C   0  0  0  0  0  0  0  0  0  0  0  0
    6.1281   -2.3818    0.0000 C   0  0  0  0  0  0  0  0  0  0  0  0
    0.2738   -3.3400    0.0000 C   0  0  0  0  0  0  0  0  0  0  0  0
    7.4086   -4.0899    0.0000 C   0  0  0  0  0  0  0  0  0  0  0  0
   -1.0319   -3.6176    0.0000 C   0  0  0  0  0  0  0  0  0  0  0  0
    0.1876   -4.1605    0.0000 C   0  0  0  0  0  0  0  0  0  0  0  0
    0.4615   -1.5550    0.0000 C   0  0  0  0  0  0  0  0  0  0  0  0
    7.5962   -2.3049    0.0000 C   0  0  0  0  0  0  0  0  0  0  0  0
    8.6281   -4.6328    0.0000 C   0  0  0  0  0  0  0  0  0  0  0  0
    7.3224   -4.9104    0.0000 C   0  0  0  0  0  0  0  0  0  0  0  0
   -0.6193   -4.3320    0.0000 C   0  0  0  0  0  0  0  0  0  0  0  0
   -1.8524   -3.5313    0.0000 C   0  0  0  0  0  0  0  0  0  0  0  0
    8.0760   -5.2460    0.0000 C   0  0  0  0  0  0  0  0  0  0  0  0
    9.4486   -4.7191    0.0000 C   0  0  0  0  0  0  0  0  0  0  0  0
    0.6330   -0.7480    0.0000 C   0  0  0  0  0  0  0  0  0  0  0  0
    8.3107   -2.7174    0.0000 C   0  0  0  0  0  0  0  0  0  0  0  0
   -3.4933   -3.3589    0.0000 C   0  0  0  0  0  0  0  0  0  0  0  0
   -2.1879   -2.7776    0.0000 C   0  0  0  0  0  0  0  0  0  0  0  0
   -2.3373   -4.1988    0.0000 C   0  0  0  0  0  0  0  0  0  0  0  0
   -3.0084   -2.6914    0.0000 C   0  0  0  0  0  0  0  0  0  0  0  0
   -3.1578   -4.1126    0.0000 C   0  0  0  0  0  0  0  0  0  0  0  0
    9.9335   -4.0516    0.0000 C   0  0  0  0  0  0  0  0  0  0  0  0
    9.7842   -5.4728    0.0000 C   0  0  0  0  0  0  0  0  0  0  0  0
   -4.6494   -2.5189    0.0000 C   0  0  0  0  0  0  0  0  0  0  0  0
   -4.7988   -3.9401    0.0000 C   0  0  0  0  0  0  0  0  0  0  0  0
   11.0896   -4.8915    0.0000 C   0  0  0  0  0  0  0  0  0  0  0  0
   -0.0081   -0.2288    0.0000 C   0  0  0  0  0  0  0  0  0  0  0  0
   10.7540   -4.1379    0.0000 C   0  0  0  0  0  0  0  0  0  0  0  0
   10.6046   -5.5590    0.0000 C   0  0  0  0  0  0  0  0  0  0  0  0
    9.0252   -2.3049    0.0000 C   0  0  0  0  0  0  0  0  0  0  0  0
   -4.1645   -1.8515    0.0000 C   0  0  0  0  0  0  0  0  0  0  0  0
   -5.6193   -3.8538    0.0000 C   0  0  0  0  0  0  0  0  0  0  0  0
   -5.4699   -2.4327    0.0000 C   0  0  0  0  0  0  0  0  0  0  0  0
   -4.4632   -4.6937    0.0000 C   0  0  0  0  0  0  0  0  0  0  0  0
   11.9101   -4.9778    0.0000 C   0  0  0  0  0  0  0  0  0  0  0  0
    0.1209    0.5861    0.0000 C   0  0  0  0  0  0  0  0  0  0  0  0
    9.7397   -2.7174    0.0000 C   0  0  0  0  0  0  0  0  0  0  0  0
   -4.5000   -1.0978    0.0000 C   0  0  0  0  0  0  0  0  0  0  0  0
   -6.1042   -4.5213    0.0000 C   0  0  0  0  0  0  0  0  0  0  0  0
   -5.8055   -1.6790    0.0000 C   0  0  0  0  0  0  0  0  0  0  0  0
   -4.9481   -5.3612    0.0000 C   0  0  0  0  0  0  0  0  0  0  0  0
   12.3950   -4.3104    0.0000 C   0  0  0  0  0  0  0  0  0  0  0  0
   -5.3206   -1.0116    0.0000 C   0  0  0  0  0  0  0  0  0  0  0  0
   -5.7687   -5.2749    0.0000 C   0  0  0  0  0  0  0  0  0  0  0  0
   -0.5202    1.1052    0.0000 C   0  0  0  0  0  0  0  0  0  0  0  0
   10.4541   -2.3049    0.0000 C   0  0  0  0  0  0  0  0  0  0  0  0
   13.2155   -4.3966    0.0000 C   0  0  0  0  0  0  0  0  0  0  0  0
   12.0594   -3.5567    0.0000 C   0  0  0  0  0  0  0  0  0  0  0  0
   -0.3912    1.9201    0.0000 C   0  0  0  0  0  0  0  0  0  0  0  0
   11.1686   -2.7174    0.0000 C   0  0  0  0  0  0  0  0  0  0  0  0
   -1.0323    2.4393    0.0000 C   0  0  0  0  0  0  0  0  0  0  0  0
   11.8831   -2.3049    0.0000 C   0  0  0  0  0  0  0  0  0  0  0  0
   -0.9033    3.2541    0.0000 C   0  0  0  0  0  0  0  0  0  0  0  0
   12.5976   -2.7174    0.0000 C   0  0  0  0  0  0  0  0  0  0  0  0
  1 16  1  0  0  0  0
  1 18  1  0  0  0  0
  2 17  1  0  0  0  0
  2 19  1  0  0  0  0
  3  8  1  0  0  0  0
  3  9  1  0  0  0  0
  4 26  1  0  0  0  0
  4 28  1  0  0  0  0
  5 27  1  0  0  0  0
  5 32  1  0  0  0  0
  6 70  2  0  0  0  0
  7 70  1  0  0  0  0
  8 12  2  0  0  0  0
  9 13  2  0  0  0  0
 10 40  1  0  0  0  0
 10 47  1  0  0  0  0
 10 48  1  0  0  0  0
 11 71  3  0  0  0  0
 12 13  1  0  0  0  0
 12 14  1  0  0  0  0
 13 15  1  0  0  0  0
 14 16  1  0  0  0  0
 14 20  2  0  0  0  0
 15 17  1  0  0  0  0
 15 21  2  0  0  0  0
 16 24  2  0  0  0  0
 17 25  2  0  0  0  0
 18 22  2  0  0  0  0
 18 26  1  0  0  0  0
 19 23  2  0  0  0  0
 19 27  1  0  0  0  0
 20 21  1  0  0  0  0
 22 24  1  0  0  0  0
 22 30  1  0  0  0  0
 23 25  1  0  0  0  0
 23 31  1  0  0  0  0
 26 29  2  0  0  0  0
 27 33  2  0  0  0  0
 28 34  2  0  0  0  0
 28 35  1  0  0  0  0
 29 34  1  0  0  0  0
 30 38  1  0  0  0  0
 31 39  1  0  0  0  0
 32 36  2  0  0  0  0
 32 37  1  0  0  0  0
 33 36  1  0  0  0  0
 35 41  2  0  0  0  0
 35 42  1  0  0  0  0
 37 45  2  0  0  0  0
 37 46  1  0  0  0  0
 38 50  1  0  0  0  0
 39 53  1  0  0  0  0
 40 43  2  0  0  0  0
 40 44  1  0  0  0  0
 41 43  1  0  0  0  0
 42 44  2  0  0  0  0
 45 51  1  0  0  0  0
 46 52  2  0  0  0  0
 47 54  2  0  0  0  0
 47 56  1  0  0  0  0
 48 55  2  0  0  0  0
 48 57  1  0  0  0  0
 49 51  2  0  0  0  0
 49 52  1  0  0  0  0
 49 58  1  0  0  0  0
 50 59  1  0  0  0  0
 53 60  1  0  0  0  0
 54 61  1  0  0  0  0
 55 62  1  0  0  0  0
 56 63  2  0  0  0  0
 57 64  2  0  0  0  0
 58 65  2  3  0  0  0
 59 68  1  0  0  0  0
 60 69  1  0  0  0  0
 61 66  2  0  0  0  0
 62 67  2  0  0  0  0
 63 66  1  0  0  0  0
 64 67  1  0  0  0  0
 65 70  1  0  0  0  0
 65 71  1  0  0  0  0
 68 72  1  0  0  0  0
 69 73  1  0  0  0  0
 72 74  1  0  0  0  0
 73 75  1  0  0  0  0
 74 76  1  0  0  0  0
 75 77  1  0  0  0  0
M  END
> <PUBCHEM_COMPOUND_ID_TYPE>
0

> <PUBCHEM_TOTAL_CHARGE>
0

> <PUBCHEM_SUBSTANCE_ID>
310934197

> <PUBCHEM_SUBSTANCE_VERSION>
1

> <PUBCHEM_EXT_DATASOURCE_NAME>
4488

> <PUBCHEM_EXT_DATASOURCE_REGID>
SCHEMBL16111652

> <PUBCHEM_SUBSTANCE_COMMENT>
InChI=1S/C66H62N4O2S5/c1-3-5-7-9-11-15-21-48-42-60(75-64(48)58-39-37-56(73-58)46-29-27-45(28-30-46)41-50(44-67)66(71)72)54-35-36-55(63-62(54)68-77-69-63)61-43-49(22-16-12-10-8-6-4-2)65(76-61)59-40-38-57(74-59)47-31-33-53(34-32-47)70(51-23-17-13-18-24-51)52-25-19-14-20-26-52/h13-14,17-20,23-43H,3-12,15-16,21-22H2,1-2H3,(H,71,72)/b50-41+
InChIKey=FSOCMDDYFQSKDZ-HEEGGEDNSA-N

> <PUBCHEM_SUBSTANCE_SYNONYM>
SCHEMBL16111652

> <PUBCHEM_XREF_EXT_ID>
SCHEMBL16111652

> <PUBCHEM_EXT_DATASOURCE_URL>
https://www.surechembl.org/

> <PUBCHEM_EXT_SUBSTANCE_URL>
https://www.surechembl.org/chemical/SCHEMBL16111652

> <PUBCHEM_CID_ASSOCIATIONS>
117602467  1

> <PUBCHEM_COORDINATE_TYPE>
1
3

> <PUBCHEM_BONDANNOTATIONS>
58  65  1

$$$$
