310944321
  -OEChem-07211613022D

 14 15  0     1  0  0  0  0  0999 V2000
    2.2791   -1.5033    0.0000 Br  0  0  0  0  0  0  0  0  0  0  0  0
   -0.0485    0.0069    0.0000 N   0  0  0  0  0  0  0  0  0  0  0  0
    0.4365    0.6858    0.0000 N   0  0  0  0  0  0  0  0  0  0  0  0
   -0.8521    0.2841    0.0000 C   0  0  0  0  0  0  0  0  0  0  0  0
   -0.8382    1.1154    0.0000 C   0  0  0  0  0  0  0  0  0  0  0  0
   -0.0485    1.3647    0.0000 C   0  0  0  0  0  0  0  0  0  0  0  0
   -1.5448   -0.1316    0.0000 C   0  0  0  0  0  0  0  0  0  0  0  0
    0.2147   -0.7690    0.0000 C   0  0  0  0  0  0  0  0  0  0  0  0
   -1.5587    1.5033    0.0000 C   0  0  0  0  0  0  0  0  0  0  0  0
    1.0460   -0.7828    0.0000 C   0  0  3  0  0  0  0  0  0  0  0  0
   -2.2791    0.2841    0.0000 C   0  0  0  0  0  0  0  0  0  0  0  0
   -2.2791    1.1015    0.0000 C   0  0  0  0  0  0  0  0  0  0  0  0
    1.4479   -1.4894    0.0000 C   0  0  0  0  0  0  0  0  0  0  0  0
    1.4479   -0.0623    0.0000 C   0  0  0  0  0  0  0  0  0  0  0  0
  1 13  1  0  0  0  0
  2  3  1  0  0  0  0
  2  4  1  0  0  0  0
  2  8  1  0  0  0  0
  3  6  2  0  0  0  0
  4  5  1  0  0  0  0
  4  7  2  0  0  0  0
  5  6  1  0  0  0  0
  5  9  2  0  0  0  0
  7 11  1  0  0  0  0
  8 10  1  0  0  0  0
  9 12  1  0  0  0  0
 10 13  1  0  0  0  0
 10 14  1  6  0  0  0
 11 12  2  0  0  0  0
M  END
> <PUBCHEM_COMPOUND_ID_TYPE>
0

> <PUBCHEM_TOTAL_CHARGE>
0

> <PUBCHEM_SUBSTANCE_ID>
310944321

> <PUBCHEM_SUBSTANCE_VERSION>
1

> <PUBCHEM_EXT_DATASOURCE_NAME>
4488

> <PUBCHEM_EXT_DATASOURCE_REGID>
SCHEMBL16122396

> <PUBCHEM_SUBSTANCE_COMMENT>
InChI=1S/C11H13BrN2/c1-9(6-12)8-14-11-5-3-2-4-10(11)7-13-14/h2-5,7,9H,6,8H2,1H3/t9-/m1/s1
InChIKey=PQSXZJPFDMYFBC-SECBINFHSA-N

> <PUBCHEM_SUBSTANCE_SYNONYM>
SCHEMBL16122396

> <PUBCHEM_XREF_EXT_ID>
SCHEMBL16122396

> <PUBCHEM_EXT_DATASOURCE_URL>
https://www.surechembl.org/

> <PUBCHEM_EXT_SUBSTANCE_URL>
https://www.surechembl.org/chemical/SCHEMBL16122396

> <PUBCHEM_CID_ASSOCIATIONS>
117610581  1

> <PUBCHEM_COORDINATE_TYPE>
1
3

> <PUBCHEM_BONDANNOTATIONS>
10  14  6

$$$$
