310928819
  -OEChem-07211613022D

 15 17  0     0  0  0  0  0  0999 V2000
    0.9440    0.7462    0.0000 O   0  0  0  0  0  0  0  0  0  0  0  0
    2.2136    0.3337    0.0000 O   0  0  0  0  0  0  0  0  0  0  0  0
   -2.2136   -0.1762    0.0000 O   0  0  0  0  0  0  0  0  0  0  0  0
    1.4289    0.0788    0.0000 C   0  0  0  0  0  0  0  0  0  0  0  0
    0.6443   -0.1762    0.0000 C   0  0  0  0  0  0  0  0  0  0  0  0
    0.6443   -1.0012    0.0000 C   0  0  0  0  0  0  0  0  0  0  0  0
    1.9139   -0.5887    0.0000 C   0  0  0  0  0  0  0  0  0  0  0  0
    1.4289   -1.2561    0.0000 C   0  0  0  0  0  0  0  0  0  0  0  0
   -0.0702    0.2363    0.0000 C   0  0  0  0  0  0  0  0  0  0  0  0
   -0.0702   -1.4137    0.0000 C   0  0  0  0  0  0  0  0  0  0  0  0
   -0.7846   -0.1762    0.0000 C   0  0  0  0  0  0  0  0  0  0  0  0
    1.4289    1.4137    0.0000 C   0  0  0  0  0  0  0  0  0  0  0  0
    2.2136    1.1587    0.0000 C   0  0  0  0  0  0  0  0  0  0  0  0
   -0.7846   -1.0012    0.0000 C   0  0  0  0  0  0  0  0  0  0  0  0
   -1.4991    0.2363    0.0000 C   0  0  0  0  0  0  0  0  0  0  0  0
  1  4  1  0  0  0  0
  1 12  1  0  0  0  0
  2  4  1  0  0  0  0
  2 13  1  0  0  0  0
  3 15  1  0  0  0  0
  4  5  1  0  0  0  0
  4  7  1  0  0  0  0
  5  6  2  0  0  0  0
  5  9  1  0  0  0  0
  6  8  1  0  0  0  0
  6 10  1  0  0  0  0
  7  8  1  0  0  0  0
  9 11  2  0  0  0  0
 10 14  2  0  0  0  0
 11 14  1  0  0  0  0
 11 15  1  0  0  0  0
 12 13  1  0  0  0  0
M  END
> <PUBCHEM_COMPOUND_ID_TYPE>
0

> <PUBCHEM_TOTAL_CHARGE>
0

> <PUBCHEM_SUBSTANCE_ID>
310928819

> <PUBCHEM_SUBSTANCE_VERSION>
1

> <PUBCHEM_EXT_DATASOURCE_NAME>
11752

> <PUBCHEM_EXT_DATASOURCE_REGID>
BD285777

> <PUBCHEM_SUBSTANCE_SYNONYM>
(2',3'-Dihydrospiro[[1,3]dioxolane-2,1'-inden]-6'-yl)methanol
866849-00-5

> <PUBCHEM_GENERIC_REGISTRY_NAME>
866849-00-5

> <PUBCHEM_XREF_EXT_ID>
BD285777

> <PUBCHEM_EXT_DATASOURCE_URL>
http://www.bidepharmatech.com/en/index.html

> <PUBCHEM_EXT_SUBSTANCE_URL>
http://www.bidepharmatech.com/en/goodsview_goodscode_BD285777.html

> <PUBCHEM_CID_ASSOCIATIONS>
69200271  1

> <PUBCHEM_COORDINATE_TYPE>
1
3

$$$$
