310942570
  -OEChem-07211613022D

 88 94  0     1  0  0  0  0  0999 V2000
    7.6060    3.8644    0.0000 Cl  0  0  0  0  0  0  0  0  0  0  0  0
   10.0595    1.3933    0.0000 F   0  0  0  0  0  0  0  0  0  0  0  0
    2.1381   -1.1304    0.0000 F   0  0  0  0  0  0  0  0  0  0  0  0
   11.5667   -0.2366    0.0000 F   0  0  0  0  0  0  0  0  0  0  0  0
    7.3431   -2.2170    0.0000 O   0  0  0  0  0  0  0  0  0  0  0  0
    6.8349    1.0603    0.0000 O   0  0  0  0  0  0  0  0  0  0  0  0
    2.1030   -0.1490    0.0000 O   0  0  0  0  0  0  0  0  0  0  0  0
    2.8216    1.0953    0.0000 O   0  0  0  0  0  0  0  0  0  0  0  0
   -2.2082   -0.1490    0.0000 O   0  0  0  0  0  0  0  0  0  0  0  0
   -4.3638   -2.2170    0.0000 O   0  0  0  0  0  0  0  0  0  0  0  0
  -11.5667   -2.4272    0.0000 O   0  0  0  0  0  0  0  0  0  0  0  0
   -8.6400   -2.4448    0.0000 O   0  0  0  0  0  0  0  0  0  0  0  0
   -6.5019   -0.1490    0.0000 O   0  0  0  0  0  0  0  0  0  0  0  0
   -5.0823   -2.6375    0.0000 O   0  0  0  0  0  0  0  0  0  0  0  0
    6.2916   -0.2717    0.0000 N   0  0  0  0  0  0  0  0  0  0  0  0
    8.4998   -0.3418    0.0000 N   0  0  0  0  0  0  0  0  0  0  0  0
    7.6586    0.7974    0.0000 N   0  0  0  0  0  0  0  0  0  0  0  0
    5.2225    1.6737    0.0000 N   0  0  0  0  0  0  0  0  0  0  0  0
    3.5401   -0.1490    0.0000 N   0  0  0  0  0  0  0  0  0  0  0  0
    4.3813    1.7262    0.0000 N   0  0  0  0  0  0  0  0  0  0  0  0
   -1.4721   -1.3757    0.0000 N   0  0  0  0  0  0  0  0  0  0  0  0
   -3.6277   -0.9726    0.0000 N   0  0  0  0  0  0  0  0  0  0  0  0
  -10.0946   -2.1994    0.0000 N   0  0  0  0  0  0  0  0  0  0  0  0
   -5.7834   -1.3757    0.0000 N   0  0  0  0  0  0  0  0  0  0  0  0
   -4.3463   -3.8644    0.0000 N   0  0  0  0  0  0  0  0  0  0  0  0
   -5.7834   -3.8644    0.0000 N   0  0  0  0  0  0  0  0  0  0  0  0
    7.0802   -0.5695    0.0000 C   0  0  3  0  0  0  0  0  0  0  0  0
    7.7112   -0.0613    0.0000 C   0  0  0  0  0  0  0  0  0  0  0  0
    7.1854   -1.3933    0.0000 C   0  0  0  0  0  0  0  0  0  0  0  0
    8.4297    1.0603    0.0000 C   0  0  0  0  0  0  0  0  0  0  0  0
    6.1689    0.5345    0.0000 C   0  0  0  0  0  0  0  0  0  0  0  0
    8.9554    0.3768    0.0000 C   0  0  0  0  0  0  0  0  0  0  0  0
    8.7101    1.8665    0.0000 C   0  0  0  0  0  0  0  0  0  0  0  0
    5.3978    0.8851    0.0000 C   0  0  0  0  0  0  0  0  0  0  0  0
    5.6957   -0.8150    0.0000 C   0  0  0  0  0  0  0  0  0  0  0  0
    8.7977   -1.1128    0.0000 C   0  0  0  0  0  0  0  0  0  0  0  0
    4.9071   -0.6747    0.0000 C   0  0  3  0  0  0  0  0  0  0  0  0
    9.5163    2.0242    0.0000 C   0  0  0  0  0  0  0  0  0  0  0  0
    6.5545   -1.9366    0.0000 C   0  0  0  0  0  0  0  0  0  0  0  0
    7.9740   -1.7087    0.0000 C   0  0  0  0  0  0  0  0  0  0  0  0
    4.7493    0.4469    0.0000 C   0  0  0  0  0  0  0  0  0  0  0  0
    9.5864   -1.2531    0.0000 C   0  0  0  0  0  0  0  0  0  0  0  0
    8.1493    2.4623    0.0000 C   0  0  0  0  0  0  0  0  0  0  0  0
    4.5741   -0.0263    0.0000 C   0  0  0  0  0  0  0  0  0  0  0  0
    4.3638   -1.2881    0.0000 C   0  0  0  0  0  0  0  0  0  0  0  0
    3.6102   -0.9376    0.0000 C   0  0  3  0  0  0  0  0  0  0  0  0
    4.0659    0.9726    0.0000 C   0  0  0  0  0  0  0  0  0  0  0  0
    8.4121    3.2509    0.0000 C   0  0  0  0  0  0  0  0  0  0  0  0
    9.7616    2.8128    0.0000 C   0  0  0  0  0  0  0  0  0  0  0  0
    2.8216    0.2717    0.0000 C   0  0  0  0  0  0  0  0  0  0  0  0
    9.2183    3.4262    0.0000 C   0  0  0  0  0  0  0  0  0  0  0  0
   10.1472   -0.6396    0.0000 C   0  0  0  0  0  0  0  0  0  0  0  0
    6.7298   -2.7953    0.0000 C   0  0  0  0  0  0  0  0  0  0  0  0
    9.8843   -2.0417    0.0000 C   0  0  0  0  0  0  0  0  0  0  0  0
    5.6957    2.3571    0.0000 C   0  0  0  0  0  0  0  0  0  0  0  0
    2.9267   -1.3407    0.0000 C   0  0  0  0  0  0  0  0  0  0  0  0
   10.9533   -0.7799    0.0000 C   0  0  0  0  0  0  0  0  0  0  0  0
    3.2597    0.7799    0.0000 C   0  0  0  0  0  0  0  0  0  0  0  0
   10.6905   -2.1819    0.0000 C   0  0  0  0  0  0  0  0  0  0  0  0
   11.2162   -1.5860    0.0000 C   0  0  0  0  0  0  0  0  0  0  0  0
    1.3845    0.2717    0.0000 C   0  0  0  0  0  0  0  0  0  0  0  0
    0.6835   -0.1314    0.0000 C   0  0  0  0  0  0  0  0  0  0  0  0
    0.6660   -0.9726    0.0000 C   0  0  0  0  0  0  0  0  0  0  0  0
   -0.0350    0.2717    0.0000 C   0  0  0  0  0  0  0  0  0  0  0  0
   -0.7536   -0.9552    0.0000 C   0  0  0  0  0  0  0  0  0  0  0  0
   -0.0350   -1.3583    0.0000 C   0  0  0  0  0  0  0  0  0  0  0  0
   -0.7361   -0.1314    0.0000 C   0  0  0  0  0  0  0  0  0  0  0  0
   -2.2082   -0.9726    0.0000 C   0  0  0  0  0  0  0  0  0  0  0  0
   -2.8916   -1.3757    0.0000 C   0  0  3  0  0  0  0  0  0  0  0  0
   -4.3463   -1.3583    0.0000 C   0  0  0  0  0  0  0  0  0  0  0  0
   -5.0823   -0.9552    0.0000 C   0  0  3  0  0  0  0  0  0  0  0  0
   -2.8916   -2.2170    0.0000 C   0  0  0  0  0  0  0  0  0  0  0  0
  -10.7430   -2.6901    0.0000 C   0  0  0  0  0  0  0  0  0  0  0  0
   -9.4462   -2.6901    0.0000 C   0  0  0  0  0  0  0  0  0  0  0  0
   -5.0648   -0.1139    0.0000 C   0  0  0  0  0  0  0  0  0  0  0  0
  -10.5152   -3.4613    0.0000 C   0  0  0  0  0  0  0  0  0  0  0  0
   -9.6915   -3.4788    0.0000 C   0  0  0  0  0  0  0  0  0  0  0  0
  -10.0771   -1.3583    0.0000 C   0  0  0  0  0  0  0  0  0  0  0  0
   -6.5019   -0.9726    0.0000 C   0  0  0  0  0  0  0  0  0  0  0  0
   -3.6102   -2.6025    0.0000 C   0  0  0  0  0  0  0  0  0  0  0  0
   -9.3761   -0.9552    0.0000 C   0  0  0  0  0  0  0  0  0  0  0  0
   -7.2029   -1.3757    0.0000 C   0  0  0  0  0  0  0  0  0  0  0  0
   -5.8009    0.2717    0.0000 C   0  0  0  0  0  0  0  0  0  0  0  0
   -4.3288    0.2717    0.0000 C   0  0  0  0  0  0  0  0  0  0  0  0
   -8.6400   -1.3583    0.0000 C   0  0  0  0  0  0  0  0  0  0  0  0
   -3.6453   -3.4613    0.0000 C   0  0  0  0  0  0  0  0  0  0  0  0
   -7.9565   -0.9726    0.0000 C   0  0  0  0  0  0  0  0  0  0  0  0
   -5.0823   -3.4613    0.0000 C   0  0  0  0  0  0  0  0  0  0  0  0
  1 48  1  0  0  0  0
  2 38  1  0  0  0  0
  3 56  1  0  0  0  0
  4 57  1  0  0  0  0
  5 29  1  0  0  0  0
  5 53  1  0  0  0  0
  6 31  2  0  0  0  0
  7 50  1  0  0  0  0
  7 61  1  0  0  0  0
  8 50  2  0  0  0  0
  9 68  2  0  0  0  0
 10 70  2  0  0  0  0
 11 73  2  0  0  0  0
 12 74  2  0  0  0  0
 13 79  2  0  0  0  0
 14 88  2  0  0  0  0
 27 15  1  1  0  0  0
 15 31  1  0  0  0  0
 15 35  1  0  0  0  0
 16 28  1  0  0  0  0
 16 32  1  0  0  0  0
 16 36  1  0  0  0  0
 17 28  2  0  0  0  0
 17 30  1  0  0  0  0
 18 20  1  0  0  0  0
 18 34  1  0  0  0  0
 18 55  1  0  0  0  0
 19 44  1  0  0  0  0
 19 46  1  0  0  0  0
 19 50  1  0  0  0  0
 20 47  2  0  0  0  0
 21 65  1  0  0  0  0
 21 68  1  0  0  0  0
 69 22  1  6  0  0  0
 22 70  1  0  0  0  0
 23 73  1  0  0  0  0
 23 74  1  0  0  0  0
 23 78  1  0  0  0  0
 71 24  1  1  0  0  0
 24 79  1  0  0  0  0
 25 86  1  0  0  0  0
 25 88  1  0  0  0  0
 26 88  1  0  0  0  0
 27 28  1  0  0  0  0
 27 29  1  0  0  0  0
 29 39  1  0  0  0  0
 29 40  1  0  0  0  0
 30 32  2  0  0  0  0
 30 33  1  0  0  0  0
 31 34  1  0  0  0  0
 33 38  2  0  0  0  0
 33 43  1  0  0  0  0
 34 41  2  0  0  0  0
 37 35  1  1  0  0  0
 36 42  1  0  0  0  0
 37 44  1  0  0  0  0
 37 45  1  0  0  0  0
 38 49  1  0  0  0  0
 41 47  1  0  0  0  0
 42 52  1  0  0  0  0
 42 54  2  0  0  0  0
 43 48  2  0  0  0  0
 45 46  1  0  0  0  0
 46 56  1  1  0  0  0
 47 58  1  0  0  0  0
 48 51  1  0  0  0  0
 49 51  2  0  0  0  0
 52 57  2  0  0  0  0
 54 59  1  0  0  0  0
 57 60  1  0  0  0  0
 59 60  2  0  0  0  0
 61 62  1  0  0  0  0
 62 63  2  0  0  0  0
 62 64  1  0  0  0  0
 63 66  1  0  0  0  0
 64 67  2  0  0  0  0
 65 66  2  0  0  0  0
 65 67  1  0  0  0  0
 68 69  1  0  0  0  0
 69 72  1  0  0  0  0
 70 71  1  0  0  0  0
 71 75  1  0  0  0  0
 72 80  1  0  0  0  0
 73 76  1  0  0  0  0
 74 77  1  0  0  0  0
 75 83  1  0  0  0  0
 75 84  1  0  0  0  0
 76 77  2  0  0  0  0
 78 81  1  0  0  0  0
 79 82  1  0  0  0  0
 80 86  1  0  0  0  0
 81 85  1  0  0  0  0
 82 87  1  0  0  0  0
 85 87  1  0  0  0  0
M  END
> <PUBCHEM_COMPOUND_ID_TYPE>
0

> <PUBCHEM_TOTAL_CHARGE>
0

> <PUBCHEM_SUBSTANCE_ID>
310942570

> <PUBCHEM_SUBSTANCE_VERSION>
1

> <PUBCHEM_EXT_DATASOURCE_NAME>
4488

> <PUBCHEM_EXT_DATASOURCE_REGID>
SCHEMBL16120615

> <PUBCHEM_SUBSTANCE_COMMENT>
InChI=1S/C62H76ClF3N12O10/c1-37(2)54(72-51(79)16-9-8-10-26-76-52(80)23-24-53(76)81)58(83)71-48(15-12-25-68-60(67)85)57(82)69-44-20-17-39(18-21-44)36-88-61(86)77-33-41(29-45(77)31-64)34-78(59(84)50-27-38(3)73-74(50)6)55(62(4,5)87-7)56-70-49(46-30-42(63)19-22-47(46)66)35-75(56)32-40-13-11-14-43(65)28-40/h11,13-14,17-24,27-28,30,35,37,41,45,48,54-55H,8-10,12,15-16,25-26,29,31-34,36H2,1-7H3,(H,69,82)(H,71,83)(H,72,79)(H3,67,68,85)/t41-,45-,48-,54-,55-/m0/s1
InChIKey=KCVLSGPLINUKNJ-QPXHZEPOSA-N

> <PUBCHEM_SUBSTANCE_SYNONYM>
SCHEMBL16120615

> <PUBCHEM_XREF_EXT_ID>
SCHEMBL16120615

> <PUBCHEM_EXT_DATASOURCE_URL>
https://www.surechembl.org/

> <PUBCHEM_EXT_SUBSTANCE_URL>
https://www.surechembl.org/chemical/SCHEMBL16120615

> <PUBCHEM_CID_ASSOCIATIONS>
117609124  1

> <PUBCHEM_COORDINATE_TYPE>
1
3

> <PUBCHEM_BONDANNOTATIONS>
27  15  5
69  22  6
71  24  5
37  35  5
46  56  5

$$$$
