310941103
  -OEChem-07211613022D

 40 43  0     1  0  0  0  0  0999 V2000
    5.2165   -1.4320    0.0000 O   0  0  0  0  0  0  0  0  0  0  0  0
    4.0768    0.5407    0.0000 O   0  0  0  0  0  0  0  0  0  0  0  0
    1.6950   -1.4174    0.0000 O   0  0  0  0  0  0  0  0  0  0  0  0
   -0.4676    0.6722    0.0000 O   0  0  0  0  0  0  0  0  0  0  0  0
    2.4256    3.1708    0.0000 O   0  0  0  0  0  0  0  0  0  0  0  0
   -2.6301   -1.4174    0.0000 O   0  0  0  0  0  0  0  0  0  0  0  0
   -5.5233   -1.4174    0.0000 O   0  0  0  0  0  0  0  0  0  0  0  0
    2.4110   -0.1607    0.0000 N   0  0  0  0  0  0  0  0  0  0  0  0
    0.2484   -0.5845    0.0000 N   0  0  0  0  0  0  0  0  0  0  0  0
   -1.9287   -0.1607    0.0000 N   0  0  0  0  0  0  0  0  0  0  0  0
   -4.0914   -0.5845    0.0000 N   0  0  0  0  0  0  0  0  0  0  0  0
    4.7927   -0.6868    0.0000 C   0  0  3  0  0  0  0  0  0  0  0  0
    4.0768   -0.3215    0.0000 C   0  0  0  0  0  0  0  0  0  0  0  0
    4.3982   -1.4028    0.0000 C   0  0  0  0  0  0  0  0  0  0  0  0
    3.3608   -0.6722    0.0000 C   0  0  3  0  0  0  0  0  0  0  0  0
    5.5233   -0.2630    0.0000 C   0  0  0  0  0  0  0  0  0  0  0  0
    3.3608   -1.7680    0.0000 C   0  0  0  0  0  0  0  0  0  0  0  0
    1.6950   -0.5260    0.0000 C   0  0  0  0  0  0  0  0  0  0  0  0
    0.9498   -0.1315    0.0000 C   0  0  3  0  0  0  0  0  0  0  0  0
    2.6301   -2.1772    0.0000 C   0  0  0  0  0  0  0  0  0  0  0  0
    0.9790    0.7014    0.0000 C   0  0  0  0  0  0  0  0  0  0  0  0
   -0.4822   -0.1607    0.0000 C   0  0  0  0  0  0  0  0  0  0  0  0
    1.6950    1.1105    0.0000 C   0  0  0  0  0  0  0  0  0  0  0  0
    1.8703   -1.8557    0.0000 C   0  0  0  0  0  0  0  0  0  0  0  0
    2.5425   -2.9955    0.0000 C   0  0  0  0  0  0  0  0  0  0  0  0
   -1.1690   -0.5407    0.0000 C   0  0  3  0  0  0  0  0  0  0  0  0
    1.3297   -2.4694    0.0000 C   0  0  0  0  0  0  0  0  0  0  0  0
    1.7242   -3.1708    0.0000 C   0  0  0  0  0  0  0  0  0  0  0  0
    1.7096    1.9580    0.0000 C   0  0  0  0  0  0  0  0  0  0  0  0
    2.4256    0.7014    0.0000 C   0  0  0  0  0  0  0  0  0  0  0  0
    2.4110    2.3525    0.0000 C   0  0  0  0  0  0  0  0  0  0  0  0
   -2.6301   -0.5260    0.0000 C   0  0  0  0  0  0  0  0  0  0  0  0
    3.1416    1.1105    0.0000 C   0  0  0  0  0  0  0  0  0  0  0  0
    3.1416    1.9287    0.0000 C   0  0  0  0  0  0  0  0  0  0  0  0
   -3.3754   -0.1461    0.0000 C   0  0  0  0  0  0  0  0  0  0  0  0
   -1.1982   -1.3735    0.0000 C   0  0  0  0  0  0  0  0  0  0  0  0
   -4.0768   -1.3882    0.0000 C   0  0  0  0  0  0  0  0  0  0  0  0
   -4.8365   -0.1461    0.0000 C   0  0  0  0  0  0  0  0  0  0  0  0
   -4.7781   -1.7972    0.0000 C   0  0  0  0  0  0  0  0  0  0  0  0
   -5.5087   -0.5407    0.0000 C   0  0  0  0  0  0  0  0  0  0  0  0
  1 12  1  0  0  0  0
  1 14  1  0  0  0  0
  2 13  2  0  0  0  0
  3 18  2  0  0  0  0
  4 22  2  0  0  0  0
  5 31  1  0  0  0  0
  6 32  2  0  0  0  0
  7 39  1  0  0  0  0
  7 40  1  0  0  0  0
 15  8  1  6  0  0  0
  8 18  1  0  0  0  0
 19  9  1  1  0  0  0
  9 22  1  0  0  0  0
 10 26  1  0  0  0  0
 10 32  1  0  0  0  0
 11 35  1  0  0  0  0
 11 37  1  0  0  0  0
 11 38  1  0  0  0  0
 12 13  1  6  0  0  0
 12 14  1  0  0  0  0
 12 16  1  1  0  0  0
 13 15  1  0  0  0  0
 15 17  1  0  0  0  0
 17 20  1  0  0  0  0
 18 19  1  0  0  0  0
 19 21  1  0  0  0  0
 20 24  1  0  0  0  0
 20 25  1  0  0  0  0
 21 23  1  0  0  0  0
 22 26  1  0  0  0  0
 23 29  1  0  0  0  0
 23 30  2  0  0  0  0
 24 27  1  0  0  0  0
 25 28  1  0  0  0  0
 26 36  1  6  0  0  0
 27 28  1  0  0  0  0
 29 31  2  0  0  0  0
 30 33  1  0  0  0  0
 31 34  1  0  0  0  0
 32 35  1  0  0  0  0
 33 34  2  0  0  0  0
 37 39  1  0  0  0  0
 38 40  1  0  0  0  0
M  END
> <PUBCHEM_COMPOUND_ID_TYPE>
0

> <PUBCHEM_TOTAL_CHARGE>
0

> <PUBCHEM_SUBSTANCE_ID>
310941103

> <PUBCHEM_SUBSTANCE_VERSION>
1

> <PUBCHEM_EXT_DATASOURCE_NAME>
4488

> <PUBCHEM_EXT_DATASOURCE_REGID>
SCHEMBL16119063

> <PUBCHEM_SUBSTANCE_COMMENT>
InChI=1S/C29H42N4O7/c1-19(30-25(35)17-33-10-12-39-13-11-33)27(37)32-24(16-21-8-5-9-22(34)14-21)28(38)31-23(15-20-6-3-4-7-20)26(36)29(2)18-40-29/h5,8-9,14,19-20,23-24,34H,3-4,6-7,10-13,15-18H2,1-2H3,(H,30,35)(H,31,38)(H,32,37)/t19-,23-,24-,29+/m0/s1
InChIKey=LNHLBSDWXXMDAS-BWHDGOAMSA-N

> <PUBCHEM_SUBSTANCE_SYNONYM>
SCHEMBL16119063

> <PUBCHEM_XREF_EXT_ID>
SCHEMBL16119063

> <PUBCHEM_EXT_DATASOURCE_URL>
https://www.surechembl.org/

> <PUBCHEM_EXT_SUBSTANCE_URL>
https://www.surechembl.org/chemical/SCHEMBL16119063

> <PUBCHEM_CID_ASSOCIATIONS>
117607986  1

> <PUBCHEM_COORDINATE_TYPE>
1
3

> <PUBCHEM_BONDANNOTATIONS>
12  13  6
12  16  5
26  36  6
15  8  6
19  9  5

$$$$
