310949803
  -OEChem-07211613022D

 20 21  0     0  0  0  0  0  0999 V2000
   -0.4225   -0.7353    0.0000 O   0  0  0  0  0  0  0  0  0  0  0  0
    3.3087   -0.0220    0.0000 O   0  0  0  0  0  0  0  0  0  0  0  0
    3.3196   -1.3937    0.0000 O   0  0  0  0  0  0  0  0  0  0  0  0
   -0.4335    0.6914    0.0000 N   0  0  0  0  0  0  0  0  0  0  0  0
   -2.9136   -0.7572    0.0000 N   0  0  0  0  0  0  0  0  0  0  0  0
   -0.8614    0.0000    0.0000 C   0  0  0  0  0  0  0  0  0  0  0  0
   -1.6845    0.0110    0.0000 C   0  0  0  0  0  0  0  0  0  0  0  0
    0.3895   -0.7133    0.0000 C   0  0  0  0  0  0  0  0  0  0  0  0
    2.0356   -0.6694    0.0000 C   0  0  0  0  0  0  0  0  0  0  0  0
    0.8066   -1.4156    0.0000 C   0  0  0  0  0  0  0  0  0  0  0  0
    0.7956    0.0110    0.0000 C   0  0  0  0  0  0  0  0  0  0  0  0
   -2.0905    0.6804    0.0000 C   0  0  0  0  0  0  0  0  0  0  0  0
    1.6516   -1.3827    0.0000 C   0  0  0  0  0  0  0  0  0  0  0  0
    1.6187    0.0439    0.0000 C   0  0  0  0  0  0  0  0  0  0  0  0
   -2.0905   -0.7243    0.0000 C   0  0  0  0  0  0  0  0  0  0  0  0
    2.9026   -0.6914    0.0000 C   0  0  0  0  0  0  0  0  0  0  0  0
   -0.8614    1.4156    0.0000 C   0  0  0  0  0  0  0  0  0  0  0  0
   -1.6955    1.4156    0.0000 C   0  0  0  0  0  0  0  0  0  0  0  0
   -3.3196   -0.0439    0.0000 C   0  0  0  0  0  0  0  0  0  0  0  0
   -2.9575    0.3621    0.0000 C   0  0  0  0  0  0  0  0  0  0  0  0
  1  6  1  0  0  0  0
  1  8  1  0  0  0  0
  2 16  2  0  0  0  0
  3 16  1  0  0  0  0
  4  6  1  0  0  0  0
  4 17  2  0  0  0  0
  5 15  1  0  0  0  0
  5 19  1  0  0  0  0
  6  7  2  0  0  0  0
  7 12  1  0  0  0  0
  7 15  1  0  0  0  0
  8 10  2  0  0  0  0
  8 11  1  0  0  0  0
  9 13  2  0  0  0  0
  9 14  1  0  0  0  0
  9 16  1  0  0  0  0
 10 13  1  0  0  0  0
 11 14  2  0  0  0  0
 12 18  2  0  0  0  0
 17 18  1  0  0  0  0
 19 20  1  0  0  0  0
M  END
> <PUBCHEM_COMPOUND_ID_TYPE>
0

> <PUBCHEM_TOTAL_CHARGE>
0

> <PUBCHEM_SUBSTANCE_ID>
310949803

> <PUBCHEM_SUBSTANCE_VERSION>
1

> <PUBCHEM_EXT_DATASOURCE_NAME>
4488

> <PUBCHEM_EXT_DATASOURCE_REGID>
SCHEMBL16128001

> <PUBCHEM_SUBSTANCE_COMMENT>
InChI=1S/C15H16N2O3/c1-2-16-10-12-4-3-9-17-14(12)20-13-7-5-11(6-8-13)15(18)19/h3-9,16H,2,10H2,1H3,(H,18,19)
InChIKey=RADPNVCSXHEVQE-UHFFFAOYSA-N

> <PUBCHEM_SUBSTANCE_SYNONYM>
SCHEMBL16128001

> <PUBCHEM_XREF_EXT_ID>
SCHEMBL16128001

> <PUBCHEM_EXT_DATASOURCE_URL>
https://www.surechembl.org/

> <PUBCHEM_EXT_SUBSTANCE_URL>
https://www.surechembl.org/chemical/SCHEMBL16128001

> <PUBCHEM_CID_ASSOCIATIONS>
117615124  1

> <PUBCHEM_COORDINATE_TYPE>
1
3

> <PUBCHEM_BONDANNOTATIONS>
20  19  3

$$$$
