310929935
  -OEChem-07211613022D

 18 20  0     0  0  0  0  0  0999 V2000
    0.7217   -2.4744    0.0000 O   0  0  0  0  0  0  0  0  0  0  0  0
    2.1651   -2.4744    0.0000 N   0  0  0  0  0  0  0  0  0  0  0  0
    3.5671    0.0000    0.0000 N   0  0  0  0  0  0  0  0  0  0  0  0
    2.8867   -2.8867    0.0000 C   0  0  0  0  0  0  0  0  0  0  0  0
    3.5878   -2.4744    0.0000 C   0  0  0  0  0  0  0  0  0  0  0  0
    2.8867   -3.7115    0.0000 C   0  0  0  0  0  0  0  0  0  0  0  0
    3.5671   -1.6495    0.0000 C   0  0  0  0  0  0  0  0  0  0  0  0
    1.4228   -2.8867    0.0000 C   0  0  0  0  0  0  0  0  0  0  0  0
    4.3094   -2.8867    0.0000 C   0  0  0  0  0  0  0  0  0  0  0  0
    2.1651   -4.1239    0.0000 C   0  0  0  0  0  0  0  0  0  0  0  0
    3.5878   -4.1239    0.0000 C   0  0  0  0  0  0  0  0  0  0  0  0
    1.4228   -3.7115    0.0000 C   0  0  0  0  0  0  0  0  0  0  0  0
    4.3094   -3.7115    0.0000 C   0  0  0  0  0  0  0  0  0  0  0  0
    4.2888   -1.2166    0.0000 C   0  0  0  0  0  0  0  0  0  0  0  0
    2.8661   -1.2371    0.0000 C   0  0  0  0  0  0  0  0  0  0  0  0
    4.2888   -0.3917    0.0000 C   0  0  0  0  0  0  0  0  0  0  0  0
    2.8455   -0.4124    0.0000 C   0  0  0  0  0  0  0  0  0  0  0  0
    0.0000   -2.8867    0.0000 C   0  0  0  0  0  0  0  0  0  0  0  0
  1  8  1  0  0  0  0
  1 18  1  0  0  0  0
  2  4  2  0  0  0  0
  2  8  1  0  0  0  0
  3 16  1  0  0  0  0
  3 17  1  0  0  0  0
  4  5  1  0  0  0  0
  4  6  1  0  0  0  0
  5  7  1  0  0  0  0
  5  9  2  0  0  0  0
  6 10  2  0  0  0  0
  6 11  1  0  0  0  0
  7 14  1  0  0  0  0
  7 15  1  0  0  0  0
  8 12  2  0  0  0  0
  9 13  1  0  0  0  0
 10 12  1  0  0  0  0
 11 13  2  0  0  0  0
 14 16  1  0  0  0  0
 15 17  1  0  0  0  0
M  END
> <PUBCHEM_COMPOUND_ID_TYPE>
0

> <PUBCHEM_TOTAL_CHARGE>
0

> <PUBCHEM_SUBSTANCE_ID>
310929935

> <PUBCHEM_SUBSTANCE_VERSION>
1

> <PUBCHEM_EXT_DATASOURCE_NAME>
4488

> <PUBCHEM_EXT_DATASOURCE_REGID>
SCHEMBL16107156

> <PUBCHEM_SUBSTANCE_COMMENT>
InChI=1S/C15H18N2O/c1-18-14-6-5-12-3-2-4-13(15(12)17-14)11-7-9-16-10-8-11/h2-6,11,16H,7-10H2,1H3
InChIKey=NADFGDULLXIOHI-UHFFFAOYSA-N

> <PUBCHEM_SUBSTANCE_SYNONYM>
SCHEMBL16107156

> <PUBCHEM_XREF_EXT_ID>
SCHEMBL16107156

> <PUBCHEM_EXT_DATASOURCE_URL>
https://www.surechembl.org/

> <PUBCHEM_EXT_SUBSTANCE_URL>
https://www.surechembl.org/chemical/SCHEMBL16107156

> <PUBCHEM_CID_ASSOCIATIONS>
117599195  1

> <PUBCHEM_COORDINATE_TYPE>
1
3

$$$$
