310949100
  -OEChem-07211613022D

 32 36  0     1  0  0  0  0  0999 V2000
   -0.0206    2.6915    0.0000 F   0  0  0  0  0  0  0  0  0  0  0  0
    0.2887    1.6191    0.0000 F   0  0  0  0  0  0  0  0  0  0  0  0
   -0.7837    1.3303    0.0000 F   0  0  0  0  0  0  0  0  0  0  0  0
   -2.5575   -2.6504    0.0000 O   0  0  0  0  0  0  0  0  0  0  0  0
    2.5575   -2.4647    0.0000 O   0  0  0  0  0  0  0  0  0  0  0  0
   -1.8356   -1.3922    0.0000 N   0  0  0  0  0  0  0  0  0  0  0  0
   -1.0725   -3.4960    0.0000 N   0  0  0  0  0  0  0  0  0  0  0  0
   -0.2681   -3.6816    0.0000 N   0  0  0  0  0  0  0  0  0  0  0  0
    1.2169   -1.9903    0.0000 N   0  0  0  0  0  0  0  0  0  0  0  0
   -1.4438   -0.1134    0.0000 C   0  0  3  0  0  0  0  0  0  0  0  0
   -2.2481   -0.1134    0.0000 C   0  0  3  0  0  0  0  0  0  0  0  0
   -1.1344   -2.6710    0.0000 C   0  0  0  0  0  0  0  0  0  0  0  0
   -1.8356   -2.2172    0.0000 C   0  0  0  0  0  0  0  0  0  0  0  0
   -0.4125   -2.3203    0.0000 C   0  0  0  0  0  0  0  0  0  0  0  0
   -1.8356    1.1859    0.0000 C   0  0  0  0  0  0  0  0  0  0  0  0
    0.1444   -2.9597    0.0000 C   0  0  0  0  0  0  0  0  0  0  0  0
   -1.8150    2.0316    0.0000 C   0  0  0  0  0  0  0  0  0  0  0  0
   -1.1962   -0.8972    0.0000 C   0  0  0  0  0  0  0  0  0  0  0  0
   -2.4957   -0.8972    0.0000 C   0  0  0  0  0  0  0  0  0  0  0  0
   -1.1757    0.6703    0.0000 C   0  0  0  0  0  0  0  0  0  0  0  0
   -2.4750    0.6910    0.0000 C   0  0  0  0  0  0  0  0  0  0  0  0
   -1.1137    2.4441    0.0000 C   0  0  0  0  0  0  0  0  0  0  0  0
   -0.1238   -1.5366    0.0000 C   0  0  0  0  0  0  0  0  0  0  0  0
    0.9281   -2.7947    0.0000 C   0  0  0  0  0  0  0  0  0  0  0  0
   -0.4125    2.0110    0.0000 C   0  0  0  0  0  0  0  0  0  0  0  0
   -2.4957    2.4235    0.0000 C   0  0  0  0  0  0  0  0  0  0  0  0
    0.6806   -1.3922    0.0000 C   0  0  0  0  0  0  0  0  0  0  0  0
   -1.1137    3.2897    0.0000 C   0  0  0  0  0  0  0  0  0  0  0  0
    2.0007   -1.8047    0.0000 C   0  0  0  0  0  0  0  0  0  0  0  0
   -2.5163    3.2897    0.0000 C   0  0  0  0  0  0  0  0  0  0  0  0
   -1.7738    3.6816    0.0000 C   0  0  0  0  0  0  0  0  0  0  0  0
    2.2688   -1.0210    0.0000 C   0  0  0  0  0  0  0  0  0  0  0  0
  1 25  1  0  0  0  0
  2 25  1  0  0  0  0
  3 25  1  0  0  0  0
  4 13  2  0  0  0  0
  5 29  2  0  0  0  0
  6 13  1  0  0  0  0
  6 18  1  0  0  0  0
  6 19  1  0  0  0  0
  7  8  1  0  0  0  0
  7 12  2  0  0  0  0
  8 16  1  0  0  0  0
  9 24  1  0  0  0  0
  9 27  1  0  0  0  0
  9 29  1  0  0  0  0
 10 11  1  0  0  0  0
 10 18  1  1  0  0  0
 10 20  1  0  0  0  0
 11 19  1  0  0  0  0
 11 21  1  0  0  0  0
 12 13  1  0  0  0  0
 12 14  1  0  0  0  0
 14 16  2  0  0  0  0
 14 23  1  0  0  0  0
 15 17  1  0  0  0  0
 15 20  1  0  0  0  0
 15 21  1  0  0  0  0
 16 24  1  0  0  0  0
 17 22  1  0  0  0  0
 17 26  2  0  0  0  0
 22 25  1  0  0  0  0
 22 28  2  0  0  0  0
 23 27  1  0  0  0  0
 26 30  1  0  0  0  0
 28 31  1  0  0  0  0
 29 32  1  0  0  0  0
 30 31  2  0  0  0  0
M  END
> <PUBCHEM_COMPOUND_ID_TYPE>
0

> <PUBCHEM_TOTAL_CHARGE>
0

> <PUBCHEM_SUBSTANCE_ID>
310949100

> <PUBCHEM_SUBSTANCE_VERSION>
1

> <PUBCHEM_EXT_DATASOURCE_NAME>
4488

> <PUBCHEM_EXT_DATASOURCE_REGID>
SCHEMBL16127290

> <PUBCHEM_SUBSTANCE_COMMENT>
InChI=1S/C23H25F3N4O2/c1-13(31)29-7-6-18-20(12-29)27-28-21(18)22(32)30-10-15-8-14(9-16(15)11-30)17-4-2-3-5-19(17)23(24,25)26/h2-5,14-16H,6-12H2,1H3,(H,27,28)/t14?,15-,16?/m0/s1
InChIKey=MATJKRPOHILPIO-PCKAHOCUSA-N

> <PUBCHEM_SUBSTANCE_SYNONYM>
SCHEMBL16127290

> <PUBCHEM_XREF_EXT_ID>
SCHEMBL16127290

> <PUBCHEM_EXT_DATASOURCE_URL>
https://www.surechembl.org/

> <PUBCHEM_EXT_SUBSTANCE_URL>
https://www.surechembl.org/chemical/SCHEMBL16127290

> <PUBCHEM_CID_ASSOCIATIONS>
117614602  1

> <PUBCHEM_COORDINATE_TYPE>
1
3

> <PUBCHEM_BONDANNOTATIONS>
10  18  5

$$$$
