310942670
  -OEChem-07211613022D

 53 58  0     1  0  0  0  0  0999 V2000
   -0.0989    1.0731    0.0000 F   0  0  0  0  0  0  0  0  0  0  0  0
    1.0426   -4.0565    0.0000 F   0  0  0  0  0  0  0  0  0  0  0  0
    1.2405    4.0565    0.0000 F   0  0  0  0  0  0  0  0  0  0  0  0
    0.2968    0.1142    0.0000 O   0  0  0  0  0  0  0  0  0  0  0  0
   -1.1035   -0.6926    0.0000 O   0  0  0  0  0  0  0  0  0  0  0  0
    4.0413   -2.0473    0.0000 O   0  0  0  0  0  0  0  0  0  0  0  0
   -2.6714   -2.1994    0.0000 O   0  0  0  0  0  0  0  0  0  0  0  0
   -2.5648   -3.5389    0.0000 O   0  0  0  0  0  0  0  0  0  0  0  0
   -2.5191   -0.7231    0.0000 O   0  0  0  0  0  0  0  0  0  0  0  0
    2.5953    0.4642    0.0000 N   0  0  0  0  0  0  0  0  0  0  0  0
    1.2253   -1.2253    0.0000 N   0  0  0  0  0  0  0  0  0  0  0  0
    1.2710    0.4642    0.0000 N   0  0  0  0  0  0  0  0  0  0  0  0
   -0.7687   -2.9758    0.0000 N   0  0  0  0  0  0  0  0  0  0  0  0
    1.9408   -0.0076    0.0000 C   0  0  0  0  0  0  0  0  0  0  0  0
    1.9255   -0.8144    0.0000 C   0  0  3  0  0  0  0  0  0  0  0  0
    1.5297    1.2558    0.0000 C   0  0  0  0  0  0  0  0  0  0  0  0
    2.6410   -1.2253    0.0000 C   0  0  0  0  0  0  0  0  0  0  0  0
    2.3517    1.2253    0.0000 C   0  0  0  0  0  0  0  0  0  0  0  0
    1.0579    1.9103    0.0000 C   0  0  0  0  0  0  0  0  0  0  0  0
    0.2968   -0.7078    0.0000 C   0  0  0  0  0  0  0  0  0  0  0  0
    1.2101   -2.2908    0.0000 C   0  0  0  0  0  0  0  0  0  0  0  0
    0.5252   -2.6866    0.0000 C   0  0  3  0  0  0  0  0  0  0  0  0
    3.3867    0.2207    0.0000 C   0  0  0  0  0  0  0  0  0  0  0  0
    0.2359    1.8342    0.0000 C   0  0  0  0  0  0  0  0  0  0  0  0
    0.4185   -3.4933    0.0000 C   0  0  3  0  0  0  0  0  0  0  0  0
    2.6410   -2.0321    0.0000 C   0  0  0  0  0  0  0  0  0  0  0  0
    3.3411   -0.8296    0.0000 C   0  0  0  0  0  0  0  0  0  0  0  0
   -0.3729   -1.1035    0.0000 C   0  0  3  0  0  0  0  0  0  0  0  0
    1.3775    2.6714    0.0000 C   0  0  0  0  0  0  0  0  0  0  0  0
   -0.2359   -2.3669    0.0000 C   0  0  0  0  0  0  0  0  0  0  0  0
    3.9500    0.7840    0.0000 C   0  0  0  0  0  0  0  0  0  0  0  0
   -0.3576   -3.6760    0.0000 C   0  0  0  0  0  0  0  0  0  0  0  0
    0.8905    3.3107    0.0000 C   0  0  0  0  0  0  0  0  0  0  0  0
   -0.2207    2.5039    0.0000 C   0  0  0  0  0  0  0  0  0  0  0  0
   -2.2603   -2.8845    0.0000 C   0  0  0  0  0  0  0  0  0  0  0  0
    4.0565   -1.2405    0.0000 C   0  0  0  0  0  0  0  0  0  0  0  0
    3.3563   -2.4430    0.0000 C   0  0  0  0  0  0  0  0  0  0  0  0
    0.0989    3.2193    0.0000 C   0  0  0  0  0  0  0  0  0  0  0  0
    4.7567    0.5861    0.0000 C   0  0  0  0  0  0  0  0  0  0  0  0
    3.7521    1.5906    0.0000 C   0  0  0  0  0  0  0  0  0  0  0  0
   -0.4033   -1.9103    0.0000 C   0  0  0  0  0  0  0  0  0  0  0  0
   -1.8342   -1.1187    0.0000 C   0  0  0  0  0  0  0  0  0  0  0  0
    5.3503    1.1644    0.0000 C   0  0  0  0  0  0  0  0  0  0  0  0
    4.3153    2.1842    0.0000 C   0  0  0  0  0  0  0  0  0  0  0  0
    5.1372    1.9712    0.0000 C   0  0  0  0  0  0  0  0  0  0  0  0
   -3.5541   -2.2451    0.0000 C   0  0  0  0  0  0  0  0  0  0  0  0
   -3.9956   -1.5145    0.0000 C   0  0  0  0  0  0  0  0  0  0  0  0
   -1.8038   -1.9255    0.0000 C   0  0  0  0  0  0  0  0  0  0  0  0
   -3.6304   -0.7383    0.0000 C   0  0  0  0  0  0  0  0  0  0  0  0
   -4.8481   -1.5754    0.0000 C   0  0  0  0  0  0  0  0  0  0  0  0
   -4.0869   -0.0381    0.0000 C   0  0  0  0  0  0  0  0  0  0  0  0
   -5.3503   -0.8601    0.0000 C   0  0  0  0  0  0  0  0  0  0  0  0
   -4.9546   -0.0837    0.0000 C   0  0  0  0  0  0  0  0  0  0  0  0
  1 24  1  0  0  0  0
 25  2  1  1  0  0  0
  3 33  1  0  0  0  0
  4 20  2  0  0  0  0
  5 28  1  0  0  0  0
  5 42  1  0  0  0  0
  6 36  1  0  0  0  0
  6 37  1  0  0  0  0
  7 35  1  0  0  0  0
  7 46  1  0  0  0  0
  8 35  2  0  0  0  0
  9 42  2  0  0  0  0
 10 14  1  0  0  0  0
 10 18  1  0  0  0  0
 10 23  1  0  0  0  0
 15 11  1  1  0  0  0
 11 20  1  0  0  0  0
 11 21  1  0  0  0  0
 12 14  2  0  0  0  0
 12 16  1  0  0  0  0
 13 30  1  0  0  0  0
 13 32  1  0  0  0  0
 13 35  1  0  0  0  0
 14 15  1  0  0  0  0
 15 17  1  0  0  0  0
 16 18  2  0  0  0  0
 16 19  1  0  0  0  0
 17 26  1  0  0  0  0
 17 27  1  0  0  0  0
 19 24  2  0  0  0  0
 19 29  1  0  0  0  0
 20 28  1  0  0  0  0
 22 21  1  1  0  0  0
 22 25  1  0  0  0  0
 22 30  1  0  0  0  0
 23 31  1  0  0  0  0
 24 34  1  0  0  0  0
 25 32  1  0  0  0  0
 26 37  1  0  0  0  0
 27 36  1  0  0  0  0
 28 41  1  6  0  0  0
 29 33  2  0  0  0  0
 31 39  2  0  0  0  0
 31 40  1  0  0  0  0
 33 38  1  0  0  0  0
 34 38  2  0  0  0  0
 39 43  1  0  0  0  0
 40 44  2  0  0  0  0
 42 48  1  0  0  0  0
 43 45  2  0  0  0  0
 44 45  1  0  0  0  0
 46 47  1  0  0  0  0
 47 49  2  0  0  0  0
 47 50  1  0  0  0  0
 49 51  1  0  0  0  0
 50 52  2  0  0  0  0
 51 53  2  0  0  0  0
 52 53  1  0  0  0  0
M  END
> <PUBCHEM_COMPOUND_ID_TYPE>
0

> <PUBCHEM_TOTAL_CHARGE>
0

> <PUBCHEM_SUBSTANCE_ID>
310942670

> <PUBCHEM_SUBSTANCE_VERSION>
1

> <PUBCHEM_EXT_DATASOURCE_NAME>
4488

> <PUBCHEM_EXT_DATASOURCE_REGID>
SCHEMBL16120716

> <PUBCHEM_SUBSTANCE_COMMENT>
InChI=1S/C40H43F3N4O6/c1-26(53-27(2)48)39(49)47(22-31-21-46(23-35(31)43)40(50)52-25-29-11-7-4-8-12-29)37(30-15-17-51-18-16-30)38-44-36(33-19-32(41)13-14-34(33)42)24-45(38)20-28-9-5-3-6-10-28/h3-14,19,24,26,30-31,35,37H,15-18,20-23,25H2,1-2H3/t26-,31-,35-,37+/m0/s1
InChIKey=OJAOEFOIWLGQBC-ZSOPPRLSSA-N

> <PUBCHEM_SUBSTANCE_SYNONYM>
SCHEMBL16120716

> <PUBCHEM_XREF_EXT_ID>
SCHEMBL16120716

> <PUBCHEM_EXT_DATASOURCE_URL>
https://www.surechembl.org/

> <PUBCHEM_EXT_SUBSTANCE_URL>
https://www.surechembl.org/chemical/SCHEMBL16120716

> <PUBCHEM_CID_ASSOCIATIONS>
117609199  1

> <PUBCHEM_COORDINATE_TYPE>
1
3

> <PUBCHEM_BONDANNOTATIONS>
15  11  5
25  2  5
22  21  5
28  41  6

$$$$
