310946106
  -OEChem-07211613022D

 65 76  0     0  0  0  0  0  0999 V2000
   -1.2161   -5.3080    0.0000 O   0  0  0  0  0  0  0  0  0  0  0  0
   -2.1987   -6.8072    0.0000 N   0  0  0  0  0  0  0  0  0  0  0  0
   -4.6558   -8.4077    0.0000 C   0  0  0  0  0  0  0  0  0  0  0  0
   -3.8488   -8.2361    0.0000 C   0  0  0  0  0  0  0  0  0  0  0  0
   -3.4363   -8.9506    0.0000 C   0  0  0  0  0  0  0  0  0  0  0  0
   -4.7421   -9.2281    0.0000 C   0  0  0  0  0  0  0  0  0  0  0  0
   -3.9883   -9.5637    0.0000 C   0  0  0  0  0  0  0  0  0  0  0  0
   -0.9612   -6.0927    0.0000 C   0  0  0  0  0  0  0  0  0  0  0  0
   -1.3737   -6.8072    0.0000 C   0  0  0  0  0  0  0  0  0  0  0  0
   -0.1362   -6.0927    0.0000 C   0  0  0  0  0  0  0  0  0  0  0  0
   -2.6113   -7.5217    0.0000 C   0  0  0  0  0  0  0  0  0  0  0  0
    0.1187   -5.3080    0.0000 C   0  0  0  0  0  0  0  0  0  0  0  0
   -3.4363   -7.5217    0.0000 C   0  0  0  0  0  0  0  0  0  0  0  0
   -0.5487   -4.8232    0.0000 C   0  0  0  0  0  0  0  0  0  0  0  0
   -2.6113   -8.9506    0.0000 C   0  0  0  0  0  0  0  0  0  0  0  0
   -0.1362   -7.5217    0.0000 C   0  0  0  0  0  0  0  0  0  0  0  0
   -0.9612   -7.5217    0.0000 C   0  0  0  0  0  0  0  0  0  0  0  0
   -2.6113   -6.0927    0.0000 C   0  0  0  0  0  0  0  0  0  0  0  0
    0.2762   -6.8072    0.0000 C   0  0  0  0  0  0  0  0  0  0  0  0
   -2.1987   -8.2361    0.0000 C   0  0  0  0  0  0  0  0  0  0  0  0
   -5.4095   -9.7132    0.0000 C   0  0  0  0  0  0  0  0  0  0  0  0
   -3.9021  -10.3843    0.0000 C   0  0  0  0  0  0  0  0  0  0  0  0
    0.8725   -4.9725    0.0000 C   0  0  0  0  0  0  0  0  0  0  0  0
   -4.6558   -7.5827    0.0000 C   0  0  0  0  0  0  0  0  0  0  0  0
   -5.4808   -8.4077    0.0000 C   0  0  0  0  0  0  0  0  0  0  0  0
   -0.4625   -4.0026    0.0000 C   0  0  0  0  0  0  0  0  0  0  0  0
    0.9586   -4.1520    0.0000 C   0  0  0  0  0  0  0  0  0  0  0  0
    0.2762   -8.2361    0.0000 C   0  0  0  0  0  0  0  0  0  0  0  0
   -5.3232  -10.5337    0.0000 C   0  0  0  0  0  0  0  0  0  0  0  0
   -4.5696  -10.8691    0.0000 C   0  0  0  0  0  0  0  0  0  0  0  0
    0.2912   -3.6671    0.0000 C   0  0  0  0  0  0  0  0  0  0  0  0
   -2.1987   -5.3782    0.0000 C   0  0  0  0  0  0  0  0  0  0  0  0
   -3.4363   -6.0927    0.0000 C   0  0  0  0  0  0  0  0  0  0  0  0
    1.7124   -3.8164    0.0000 C   0  0  0  0  0  0  0  0  0  0  0  0
   -0.1362   -8.9506    0.0000 C   0  0  0  0  0  0  0  0  0  0  0  0
    1.1013   -8.2361    0.0000 C   0  0  0  0  0  0  0  0  0  0  0  0
   -3.4363   -4.6638    0.0000 C   0  0  0  0  0  0  0  0  0  0  0  0
   -2.6113   -4.6638    0.0000 C   0  0  0  0  0  0  0  0  0  0  0  0
   -3.8488   -5.3782    0.0000 C   0  0  0  0  0  0  0  0  0  0  0  0
    2.3797   -4.3013    0.0000 C   0  0  0  0  0  0  0  0  0  0  0  0
    1.7986   -2.9959    0.0000 C   0  0  0  0  0  0  0  0  0  0  0  0
    1.1013   -9.6652    0.0000 C   0  0  0  0  0  0  0  0  0  0  0  0
    0.2762   -9.6652    0.0000 C   0  0  0  0  0  0  0  0  0  0  0  0
    1.5139   -8.9506    0.0000 C   0  0  0  0  0  0  0  0  0  0  0  0
   -3.8488   -3.9492    0.0000 C   0  0  0  0  0  0  0  0  0  0  0  0
    3.2197   -3.1453    0.0000 C   0  0  0  0  0  0  0  0  0  0  0  0
    3.1335   -3.9658    0.0000 C   0  0  0  0  0  0  0  0  0  0  0  0
    2.5523   -2.6604    0.0000 C   0  0  0  0  0  0  0  0  0  0  0  0
    1.5139  -10.3797    0.0000 C   0  0  0  0  0  0  0  0  0  0  0  0
   -3.4363   -3.2347    0.0000 C   0  0  0  0  0  0  0  0  0  0  0  0
   -4.6738   -3.9492    0.0000 C   0  0  0  0  0  0  0  0  0  0  0  0
    3.9734   -2.8098    0.0000 C   0  0  0  0  0  0  0  0  0  0  0  0
    1.1013  -11.0941    0.0000 C   0  0  0  0  0  0  0  0  0  0  0  0
    2.3388  -10.3797    0.0000 C   0  0  0  0  0  0  0  0  0  0  0  0
   -3.8488   -2.5203    0.0000 C   0  0  0  0  0  0  0  0  0  0  0  0
   -5.0863   -3.2347    0.0000 C   0  0  0  0  0  0  0  0  0  0  0  0
    4.6409   -3.2946    0.0000 C   0  0  0  0  0  0  0  0  0  0  0  0
    4.0596   -1.9893    0.0000 C   0  0  0  0  0  0  0  0  0  0  0  0
   -4.6738   -2.5203    0.0000 C   0  0  0  0  0  0  0  0  0  0  0  0
    1.5139  -11.8086    0.0000 C   0  0  0  0  0  0  0  0  0  0  0  0
    2.7513  -11.0941    0.0000 C   0  0  0  0  0  0  0  0  0  0  0  0
    2.3388  -11.8086    0.0000 C   0  0  0  0  0  0  0  0  0  0  0  0
    5.3945   -2.9591    0.0000 C   0  0  0  0  0  0  0  0  0  0  0  0
    4.8133   -1.6537    0.0000 C   0  0  0  0  0  0  0  0  0  0  0  0
    5.4808   -2.1386    0.0000 C   0  0  0  0  0  0  0  0  0  0  0  0
  1  8  1  0  0  0  0
  1 14  1  0  0  0  0
  2  9  1  0  0  0  0
  2 11  1  0  0  0  0
  2 18  1  0  0  0  0
  3  4  1  0  0  0  0
  3  6  1  0  0  0  0
  3 24  1  0  0  0  0
  3 25  1  0  0  0  0
  4  5  2  0  0  0  0
  4 13  1  0  0  0  0
  5  7  1  0  0  0  0
  5 15  1  0  0  0  0
  6  7  2  0  0  0  0
  6 21  1  0  0  0  0
  7 22  1  0  0  0  0
  8  9  1  0  0  0  0
  8 10  2  0  0  0  0
  9 17  2  0  0  0  0
 10 12  1  0  0  0  0
 10 19  1  0  0  0  0
 11 13  2  0  0  0  0
 11 20  1  0  0  0  0
 12 14  2  0  0  0  0
 12 23  1  0  0  0  0
 14 26  1  0  0  0  0
 15 20  2  0  0  0  0
 16 17  1  0  0  0  0
 16 19  2  0  0  0  0
 16 28  1  0  0  0  0
 18 32  2  0  0  0  0
 18 33  1  0  0  0  0
 21 29  2  0  0  0  0
 22 30  2  0  0  0  0
 23 27  2  0  0  0  0
 26 31  2  0  0  0  0
 27 31  1  0  0  0  0
 27 34  1  0  0  0  0
 28 35  2  0  0  0  0
 28 36  1  0  0  0  0
 29 30  1  0  0  0  0
 32 38  1  0  0  0  0
 33 39  2  0  0  0  0
 34 40  2  0  0  0  0
 34 41  1  0  0  0  0
 35 43  1  0  0  0  0
 36 44  2  0  0  0  0
 37 38  2  0  0  0  0
 37 39  1  0  0  0  0
 37 45  1  0  0  0  0
 40 47  1  0  0  0  0
 41 48  2  0  0  0  0
 42 43  2  0  0  0  0
 42 44  1  0  0  0  0
 42 49  1  0  0  0  0
 45 50  2  0  0  0  0
 45 51  1  0  0  0  0
 46 47  2  0  0  0  0
 46 48  1  0  0  0  0
 46 52  1  0  0  0  0
 49 53  2  0  0  0  0
 49 54  1  0  0  0  0
 50 55  1  0  0  0  0
 51 56  2  0  0  0  0
 52 57  2  0  0  0  0
 52 58  1  0  0  0  0
 53 60  1  0  0  0  0
 54 61  2  0  0  0  0
 55 59  2  0  0  0  0
 56 59  1  0  0  0  0
 57 63  1  0  0  0  0
 58 64  2  0  0  0  0
 60 62  2  0  0  0  0
 61 62  1  0  0  0  0
 63 65  2  0  0  0  0
 64 65  1  0  0  0  0
M  END
> <PUBCHEM_COMPOUND_ID_TYPE>
0

> <PUBCHEM_TOTAL_CHARGE>
0

> <PUBCHEM_SUBSTANCE_ID>
310946106

> <PUBCHEM_SUBSTANCE_VERSION>
1

> <PUBCHEM_EXT_DATASOURCE_NAME>
4488

> <PUBCHEM_EXT_DATASOURCE_REGID>
SCHEMBL16124214

> <PUBCHEM_SUBSTANCE_COMMENT>
InChI=1S/C63H45NO/c1-63(2)58-21-13-12-20-54(58)55-36-35-53(41-59(55)63)64(52-33-30-47(31-34-52)44-18-10-5-11-19-44)60-40-51(49-28-24-46(25-29-49)43-16-8-4-9-17-43)39-57-56-38-50(32-37-61(56)65-62(57)60)48-26-22-45(23-27-48)42-14-6-3-7-15-42/h3-41H,1-2H3
InChIKey=VTPCPWCYYQPAAX-UHFFFAOYSA-N

> <PUBCHEM_SUBSTANCE_SYNONYM>
SCHEMBL16124214

> <PUBCHEM_XREF_EXT_ID>
SCHEMBL16124214

> <PUBCHEM_EXT_DATASOURCE_URL>
https://www.surechembl.org/

> <PUBCHEM_EXT_SUBSTANCE_URL>
https://www.surechembl.org/chemical/SCHEMBL16124214

> <PUBCHEM_CID_ASSOCIATIONS>
117612069  1

> <PUBCHEM_COORDINATE_TYPE>
1
3

$$$$
