310939836
  -OEChem-07211613022D

 31 33  0     0  0  0  0  0  0999 V2000
    1.4289    2.6260    0.0000 Cl  0  0  0  0  0  0  0  0  0  0  0  0
    3.5724    3.8635    0.0000 Cl  0  0  0  0  0  0  0  0  0  0  0  0
   -2.8579   -3.1490    0.0000 S   0  0  0  0  0  0  0  0  0  0  0  0
    0.0000    0.1510    0.0000 O   0  0  0  0  0  0  0  0  0  0  0  0
    1.4289   -2.3240    0.0000 O   0  0  0  0  0  0  0  0  0  0  0  0
   -2.4454   -2.4345    0.0000 O   0  0  0  0  0  0  0  0  0  0  0  0
   -3.2704   -3.8635    0.0000 O   0  0  0  0  0  0  0  0  0  0  0  0
    1.4289   -0.6740    0.0000 N   0  0  0  0  0  0  0  0  0  0  0  0
    0.0000   -2.3240    0.0000 N   0  0  0  0  0  0  0  0  0  0  0  0
   -2.1434   -3.5615    0.0000 N   0  0  0  0  0  0  0  0  0  0  0  0
    2.1434    1.3885    0.0000 C   0  0  0  0  0  0  0  0  0  0  0  0
    1.4289    0.1510    0.0000 C   0  0  0  0  0  0  0  0  0  0  0  0
    1.4289    1.8010    0.0000 C   0  0  0  0  0  0  0  0  0  0  0  0
    2.8579    1.8010    0.0000 C   0  0  0  0  0  0  0  0  0  0  0  0
    2.1434    0.5635    0.0000 C   0  0  0  0  0  0  0  0  0  0  0  0
    0.7145    0.5635    0.0000 C   0  0  0  0  0  0  0  0  0  0  0  0
    0.7145    1.3885    0.0000 C   0  0  0  0  0  0  0  0  0  0  0  0
    2.8579    2.6260    0.0000 C   0  0  0  0  0  0  0  0  0  0  0  0
    0.7145   -1.9115    0.0000 C   0  0  0  0  0  0  0  0  0  0  0  0
    3.5724    1.3885    0.0000 C   0  0  0  0  0  0  0  0  0  0  0  0
   -1.4289   -3.1490    0.0000 C   0  0  0  0  0  0  0  0  0  0  0  0
    0.7145   -1.0865    0.0000 C   0  0  0  0  0  0  0  0  0  0  0  0
    3.5724    3.0385    0.0000 C   0  0  0  0  0  0  0  0  0  0  0  0
   -0.7145   -1.9115    0.0000 C   0  0  0  0  0  0  0  0  0  0  0  0
    0.0000   -3.1490    0.0000 C   0  0  0  0  0  0  0  0  0  0  0  0
   -1.4289   -2.3240    0.0000 C   0  0  0  0  0  0  0  0  0  0  0  0
   -0.7145   -3.5615    0.0000 C   0  0  0  0  0  0  0  0  0  0  0  0
    4.2868    1.8010    0.0000 C   0  0  0  0  0  0  0  0  0  0  0  0
    4.2868    2.6260    0.0000 C   0  0  0  0  0  0  0  0  0  0  0  0
   -3.5724   -2.7365    0.0000 C   0  0  0  0  0  0  0  0  0  0  0  0
   -4.2868   -3.1490    0.0000 C   0  0  0  0  0  0  0  0  0  0  0  0
  1 13  1  0  0  0  0
  2 23  1  0  0  0  0
  3  6  2  0  0  0  0
  3  7  2  0  0  0  0
  3 10  1  0  0  0  0
  3 30  1  0  0  0  0
  4 16  1  0  0  0  0
  5 19  2  0  0  0  0
  8 12  1  0  0  0  0
  8 22  1  0  0  0  0
  9 19  1  0  0  0  0
  9 24  1  0  0  0  0
  9 25  1  0  0  0  0
 10 21  1  0  0  0  0
 11 13  2  0  0  0  0
 11 14  1  0  0  0  0
 11 15  1  0  0  0  0
 12 15  2  0  0  0  0
 12 16  1  0  0  0  0
 13 17  1  0  0  0  0
 14 18  1  0  0  0  0
 14 20  2  0  0  0  0
 16 17  2  0  0  0  0
 18 23  2  0  0  0  0
 19 22  1  0  0  0  0
 20 28  1  0  0  0  0
 21 26  1  0  0  0  0
 21 27  1  0  0  0  0
 23 29  1  0  0  0  0
 24 26  1  0  0  0  0
 25 27  1  0  0  0  0
 28 29  2  0  0  0  0
 30 31  2  0  0  0  0
M  END
> <PUBCHEM_COMPOUND_ID_TYPE>
0

> <PUBCHEM_TOTAL_CHARGE>
0

> <PUBCHEM_SUBSTANCE_ID>
310939836

> <PUBCHEM_SUBSTANCE_VERSION>
1

> <PUBCHEM_EXT_DATASOURCE_NAME>
4488

> <PUBCHEM_EXT_DATASOURCE_REGID>
SCHEMBL16117766

> <PUBCHEM_SUBSTANCE_COMMENT>
InChI=1S/C21H23Cl2N3O4S/c1-2-31(29,30)25-16-6-8-26(9-7-16)21(28)13-24-19-11-17(18(23)12-20(19)27)14-4-3-5-15(22)10-14/h2-5,10-12,16,24-25,27H,1,6-9,13H2
InChIKey=QNQHZKWPRYFODG-UHFFFAOYSA-N

> <PUBCHEM_SUBSTANCE_SYNONYM>
SCHEMBL16117766

> <PUBCHEM_XREF_EXT_ID>
SCHEMBL16117766

> <PUBCHEM_EXT_DATASOURCE_URL>
https://www.surechembl.org/

> <PUBCHEM_EXT_SUBSTANCE_URL>
https://www.surechembl.org/chemical/SCHEMBL16117766

> <PUBCHEM_CID_ASSOCIATIONS>
117607053  1

> <PUBCHEM_COORDINATE_TYPE>
1
3

$$$$
