310944685
  -OEChem-07211613022D

 19 20  0     1  0  0  0  0  0999 V2000
   -2.5912   -0.2135    0.0000 O   0  0  0  0  0  0  0  0  0  0  0  0
    1.0747    0.9054    0.0000 O   0  0  0  0  0  0  0  0  0  0  0  0
   -1.9139   -1.4796    0.0000 O   0  0  0  0  0  0  0  0  0  0  0  0
   -1.1484   -0.2724    0.0000 N   0  0  0  0  0  0  0  0  0  0  0  0
   -0.3828   -0.6551    0.0000 C   0  0  3  0  0  0  0  0  0  0  0  0
   -1.0453    0.5963    0.0000 C   0  0  3  0  0  0  0  0  0  0  0  0
   -1.8697   -0.6110    0.0000 C   0  0  0  0  0  0  0  0  0  0  0  0
    0.3534    0.5226    0.0000 C   0  0  0  0  0  0  0  0  0  0  0  0
   -0.3534    0.9496    0.0000 C   0  0  0  0  0  0  0  0  0  0  0  0
    0.3092   -0.3018    0.0000 C   0  0  0  0  0  0  0  0  0  0  0  0
    0.0000   -0.0810    0.0000 C   0  0  0  0  0  0  0  0  0  0  0  0
   -0.3534    0.5521    0.0000 C   0  0  0  0  0  0  0  0  0  0  0  0
   -2.5470    0.6551    0.0000 C   0  0  0  0  0  0  0  0  0  0  0  0
    1.8256    0.4785    0.0000 C   0  0  0  0  0  0  0  0  0  0  0  0
   -2.5175    1.4796    0.0000 C   0  0  0  0  0  0  0  0  0  0  0  0
   -3.2683    1.0821    0.0000 C   0  0  0  0  0  0  0  0  0  0  0  0
   -1.7814    1.0232    0.0000 C   0  0  0  0  0  0  0  0  0  0  0  0
    2.5322    0.8465    0.0000 C   0  0  0  0  0  0  0  0  0  0  0  0
    3.2683    1.2735    0.0000 C   0  0  0  0  0  0  0  0  0  0  0  0
  1  7  1  0  0  0  0
  1 13  1  0  0  0  0
  8  2  1  1  0  0  0
  2 14  1  0  0  0  0
  3  7  2  0  0  0  0
  5  4  1  6  0  0  0
  6  4  1  6  0  0  0
  4  7  1  0  0  0  0
  5 10  1  0  0  0  0
  5 11  1  0  0  0  0
  6  9  1  0  0  0  0
  6 12  1  0  0  0  0
  8  9  1  0  0  0  0
  8 10  1  0  0  0  0
 11 12  1  0  0  0  0
 13 15  1  0  0  0  0
 13 16  1  0  0  0  0
 13 17  1  0  0  0  0
 14 18  1  0  0  0  0
 18 19  3  0  0  0  0
M  END
> <PUBCHEM_COMPOUND_ID_TYPE>
0

> <PUBCHEM_TOTAL_CHARGE>
0

> <PUBCHEM_SUBSTANCE_ID>
310944685

> <PUBCHEM_SUBSTANCE_VERSION>
1

> <PUBCHEM_EXT_DATASOURCE_NAME>
4488

> <PUBCHEM_EXT_DATASOURCE_REGID>
SCHEMBL16122764

> <PUBCHEM_SUBSTANCE_COMMENT>
InChI=1S/C15H23NO3/c1-5-8-18-13-9-11-6-7-12(10-13)16(11)14(17)19-15(2,3)4/h1,11-13H,6-10H2,2-4H3/t11-,12+,13+
InChIKey=LLSUWRREMZNHDE-ITGUQSILSA-N

> <PUBCHEM_SUBSTANCE_SYNONYM>
SCHEMBL16122764

> <PUBCHEM_XREF_EXT_ID>
SCHEMBL16122764

> <PUBCHEM_EXT_DATASOURCE_URL>
https://www.surechembl.org/

> <PUBCHEM_EXT_SUBSTANCE_URL>
https://www.surechembl.org/chemical/SCHEMBL16122764

> <PUBCHEM_CID_ASSOCIATIONS>
117610909  1

> <PUBCHEM_COORDINATE_TYPE>
1
3

> <PUBCHEM_BONDANNOTATIONS>
8  2  5
5  4  6
6  4  6

$$$$
