310930479
  -OEChem-07211613022D

 33 36  0     0  0  0  0  0  0999 V2000
    9.8672   -4.2571    0.0000 Cl  0  0  0  0  0  0  0  0  0  0  0  0
    6.3361   -2.9701    0.0000 S   0  0  0  0  0  0  0  0  0  0  0  0
    5.6431   -3.3661    0.0000 O   0  0  0  0  0  0  0  0  0  0  0  0
    6.7321   -3.6631    0.0000 O   0  0  0  0  0  0  0  0  0  0  0  0
    7.0291   -4.1911    0.0000 O   0  0  0  0  0  0  0  0  0  0  0  0
    3.8941   -1.5181    0.0000 O   0  0  0  0  0  0  0  0  0  0  0  0
    7.0622   -2.5410    0.0000 N   0  0  0  0  0  0  0  0  0  0  0  0
    2.1781   -0.1650    0.0000 N   0  0  0  0  0  0  0  0  0  0  0  0
    3.8941   -0.1320    0.0000 N   0  0  0  0  0  0  0  0  0  0  0  0
    0.0000   -1.2541    0.0000 N   0  0  0  0  0  0  0  0  0  0  0  0
    7.7552   -2.9701    0.0000 C   0  0  0  0  0  0  0  0  0  0  0  0
    5.9401   -2.2440    0.0000 C   0  0  0  0  0  0  0  0  0  0  0  0
    7.7552   -3.7951    0.0000 C   0  0  0  0  0  0  0  0  0  0  0  0
    2.6730   -0.8250    0.0000 C   0  0  0  0  0  0  0  0  0  0  0  0
    1.3861   -0.3960    0.0000 C   0  0  0  0  0  0  0  0  0  0  0  0
    1.3861   -1.2541    0.0000 C   0  0  0  0  0  0  0  0  0  0  0  0
    8.4811   -2.5741    0.0000 C   0  0  0  0  0  0  0  0  0  0  0  0
    9.1742   -3.0031    0.0000 C   0  0  0  0  0  0  0  0  0  0  0  0
    2.1781   -1.4850    0.0000 C   0  0  0  0  0  0  0  0  0  0  0  0
    9.1412   -3.8281    0.0000 C   0  0  0  0  0  0  0  0  0  0  0  0
    8.4482   -4.2241    0.0000 C   0  0  0  0  0  0  0  0  0  0  0  0
    6.3361   -1.5510    0.0000 C   0  0  0  0  0  0  0  0  0  0  0  0
    5.1151   -2.2440    0.0000 C   0  0  0  0  0  0  0  0  0  0  0  0
    3.4650   -0.8250    0.0000 C   0  0  0  0  0  0  0  0  0  0  0  0
    5.1151   -0.8250    0.0000 C   0  0  0  0  0  0  0  0  0  0  0  0
    5.9401   -0.8250    0.0000 C   0  0  0  0  0  0  0  0  0  0  0  0
    4.7191   -1.5510    0.0000 C   0  0  0  0  0  0  0  0  0  0  0  0
    0.6600    0.0000    0.0000 C   0  0  0  0  0  0  0  0  0  0  0  0
    0.6600   -1.6501    0.0000 C   0  0  0  0  0  0  0  0  0  0  0  0
    4.7191   -0.1320    0.0000 C   0  0  0  0  0  0  0  0  0  0  0  0
    0.0000   -0.3960    0.0000 C   0  0  0  0  0  0  0  0  0  0  0  0
    9.9002   -2.6071    0.0000 C   0  0  0  0  0  0  0  0  0  0  0  0
    7.0291   -5.0161    0.0000 C   0  0  0  0  0  0  0  0  0  0  0  0
  1 20  1  0  0  0  0
  2  3  2  0  0  0  0
  2  4  2  0  0  0  0
  2  7  1  0  0  0  0
  2 12  1  0  0  0  0
  5 13  1  0  0  0  0
  5 33  1  0  0  0  0
  6 24  2  0  0  0  0
  7 11  1  0  0  0  0
  8 14  1  0  0  0  0
  8 15  1  0  0  0  0
  9 24  1  0  0  0  0
  9 30  1  0  0  0  0
 10 29  1  0  0  0  0
 10 31  2  0  0  0  0
 11 13  1  0  0  0  0
 11 17  2  0  0  0  0
 12 22  2  0  0  0  0
 12 23  1  0  0  0  0
 13 21  2  0  0  0  0
 14 19  2  0  0  0  0
 14 24  1  0  0  0  0
 15 16  1  0  0  0  0
 15 28  2  0  0  0  0
 16 19  1  0  0  0  0
 16 29  2  0  0  0  0
 17 18  1  0  0  0  0
 18 20  2  0  0  0  0
 18 32  1  0  0  0  0
 20 21  1  0  0  0  0
 22 26  1  0  0  0  0
 23 27  2  0  0  0  0
 25 26  2  0  0  0  0
 25 27  1  0  0  0  0
 25 30  1  0  0  0  0
 28 31  1  0  0  0  0
M  END
> <PUBCHEM_COMPOUND_ID_TYPE>
0

> <PUBCHEM_TOTAL_CHARGE>
0

> <PUBCHEM_SUBSTANCE_ID>
310930479

> <PUBCHEM_SUBSTANCE_VERSION>
1

> <PUBCHEM_EXT_DATASOURCE_NAME>
4488

> <PUBCHEM_EXT_DATASOURCE_REGID>
SCHEMBL16107769

> <PUBCHEM_SUBSTANCE_COMMENT>
InChI=1S/C23H21ClN4O4S/c1-14-9-20(22(32-2)11-18(14)24)28-33(30,31)17-5-3-15(4-6-17)12-26-23(29)21-10-16-13-25-8-7-19(16)27-21/h3-11,13,27-28H,12H2,1-2H3,(H,26,29)
InChIKey=XPNVLLWCUUFYTC-UHFFFAOYSA-N

> <PUBCHEM_SUBSTANCE_SYNONYM>
SCHEMBL16107769

> <PUBCHEM_XREF_EXT_ID>
SCHEMBL16107769

> <PUBCHEM_EXT_DATASOURCE_URL>
https://www.surechembl.org/

> <PUBCHEM_EXT_SUBSTANCE_URL>
https://www.surechembl.org/chemical/SCHEMBL16107769

> <PUBCHEM_CID_ASSOCIATIONS>
87074517  1

> <PUBCHEM_COORDINATE_TYPE>
1
3

$$$$
