310928700
  -OEChem-07211613022D

  9  9  0     0  0  0  0  0  0999 V2000
    0.6674    0.1275    0.0000 S   0  0  0  0  0  0  0  0  0  0  0  0
    0.9224   -0.6572    0.0000 O   0  0  0  0  0  0  0  0  0  0  0  0
    0.4125    0.9121    0.0000 O   0  0  0  0  0  0  0  0  0  0  0  0
   -0.1172   -0.1275    0.0000 N   0  0  0  0  0  0  0  0  0  0  0  0
    1.4521    0.3824    0.0000 N   0  0  0  0  0  0  0  0  0  0  0  0
   -0.3721   -0.9121    0.0000 C   0  0  0  0  0  0  0  0  0  0  0  0
   -0.7846    0.3575    0.0000 C   0  0  0  0  0  0  0  0  0  0  0  0
   -1.1971   -0.9121    0.0000 C   0  0  0  0  0  0  0  0  0  0  0  0
   -1.4521   -0.1275    0.0000 C   0  0  0  0  0  0  0  0  0  0  0  0
  1  2  2  0  0  0  0
  1  3  2  0  0  0  0
  1  4  1  0  0  0  0
  1  5  1  0  0  0  0
  4  6  1  0  0  0  0
  4  7  1  0  0  0  0
  6  8  1  0  0  0  0
  7  9  1  0  0  0  0
  8  9  1  0  0  0  0
M  END
> <PUBCHEM_COMPOUND_ID_TYPE>
0

> <PUBCHEM_TOTAL_CHARGE>
0

> <PUBCHEM_SUBSTANCE_ID>
310928700

> <PUBCHEM_SUBSTANCE_VERSION>
1

> <PUBCHEM_EXT_DATASOURCE_NAME>
11752

> <PUBCHEM_EXT_DATASOURCE_REGID>
BD215194

> <PUBCHEM_SUBSTANCE_SYNONYM>
4108-88-7
Pyrrolidine-1-sulfonamide

> <PUBCHEM_GENERIC_REGISTRY_NAME>
4108-88-7

> <PUBCHEM_XREF_EXT_ID>
BD215194

> <PUBCHEM_EXT_DATASOURCE_URL>
http://www.bidepharmatech.com/en/index.html

> <PUBCHEM_EXT_SUBSTANCE_URL>
http://www.bidepharmatech.com/en/goodsview_goodscode_BD215194.html

> <PUBCHEM_CID_ASSOCIATIONS>
15707376  1

> <PUBCHEM_COORDINATE_TYPE>
1
3

$$$$
