310944453
  -OEChem-07211613022D

 35 39  0     0  0  0  0  0  0999 V2000
    1.4796   -0.0093    0.0000 F   0  0  0  0  0  0  0  0  0  0  0  0
    3.6335   -0.4589    0.0000 N   0  0  0  0  0  0  0  0  0  0  0  0
    1.4609   -4.0923    0.0000 N   0  0  0  0  0  0  0  0  0  0  0  0
    0.7305   -1.2267    0.0000 C   0  0  0  0  0  0  0  0  0  0  0  0
    0.0000   -0.7960    0.0000 C   0  0  0  0  0  0  0  0  0  0  0  0
   -0.7117    1.2267    0.0000 C   0  0  0  0  0  0  0  0  0  0  0  0
   -0.7117    0.3840    0.0000 C   0  0  0  0  0  0  0  0  0  0  0  0
    1.4421   -0.8146    0.0000 C   0  0  0  0  0  0  0  0  0  0  0  0
   -1.4609    2.4442    0.0000 C   0  0  0  0  0  0  0  0  0  0  0  0
    0.0187    2.4442    0.0000 C   0  0  0  0  0  0  0  0  0  0  0  0
    0.0000   -0.0093    0.0000 C   0  0  0  0  0  0  0  0  0  0  0  0
    0.0000    1.6201    0.0000 C   0  0  0  0  0  0  0  0  0  0  0  0
   -1.4421    1.6201    0.0000 C   0  0  0  0  0  0  0  0  0  0  0  0
    2.1914   -1.2080    0.0000 C   0  0  0  0  0  0  0  0  0  0  0  0
    0.7680   -2.0509    0.0000 C   0  0  0  0  0  0  0  0  0  0  0  0
   -0.7117    2.8562    0.0000 C   0  0  0  0  0  0  0  0  0  0  0  0
    1.4796   -2.4254    0.0000 C   0  0  0  0  0  0  0  0  0  0  0  0
   -0.6743   -1.2267    0.0000 C   0  0  0  0  0  0  0  0  0  0  0  0
   -1.4421   -0.0468    0.0000 C   0  0  0  0  0  0  0  0  0  0  0  0
   -2.1726    2.8562    0.0000 C   0  0  0  0  0  0  0  0  0  0  0  0
    0.7305    2.8749    0.0000 C   0  0  0  0  0  0  0  0  0  0  0  0
    2.1726   -2.0509    0.0000 C   0  0  0  0  0  0  0  0  0  0  0  0
   -1.4234   -0.8334    0.0000 C   0  0  0  0  0  0  0  0  0  0  0  0
    2.9218   -0.8146    0.0000 C   0  0  0  0  0  0  0  0  0  0  0  0
   -2.1726    3.6429    0.0000 C   0  0  0  0  0  0  0  0  0  0  0  0
    1.4609    2.4816    0.0000 C   0  0  0  0  0  0  0  0  0  0  0  0
   -2.9030    2.4442    0.0000 C   0  0  0  0  0  0  0  0  0  0  0  0
    0.7680    3.6991    0.0000 C   0  0  0  0  0  0  0  0  0  0  0  0
    1.4609   -3.2870    0.0000 C   0  0  0  0  0  0  0  0  0  0  0  0
   -2.9030    4.0549    0.0000 C   0  0  0  0  0  0  0  0  0  0  0  0
    2.1914    2.8749    0.0000 C   0  0  0  0  0  0  0  0  0  0  0  0
   -3.6148    2.8187    0.0000 C   0  0  0  0  0  0  0  0  0  0  0  0
    1.4609    4.0923    0.0000 C   0  0  0  0  0  0  0  0  0  0  0  0
   -3.6335    3.6429    0.0000 C   0  0  0  0  0  0  0  0  0  0  0  0
    2.2288    3.6616    0.0000 C   0  0  0  0  0  0  0  0  0  0  0  0
  1  8  1  0  0  0  0
  2 24  3  0  0  0  0
  3 29  3  0  0  0  0
  4  5  1  0  0  0  0
  4  8  1  0  0  0  0
  4 15  2  0  0  0  0
  5 11  2  0  0  0  0
  5 18  1  0  0  0  0
  6  7  1  0  0  0  0
  6 12  2  0  0  0  0
  6 13  1  0  0  0  0
  7 11  1  0  0  0  0
  7 19  2  0  0  0  0
  8 14  2  0  0  0  0
  9 13  2  0  0  0  0
  9 16  1  0  0  0  0
  9 20  1  0  0  0  0
 10 12  1  0  0  0  0
 10 16  2  0  0  0  0
 10 21  1  0  0  0  0
 14 22  1  0  0  0  0
 14 24  1  0  0  0  0
 15 17  1  0  0  0  0
 17 22  2  0  0  0  0
 17 29  1  0  0  0  0
 18 23  2  0  0  0  0
 19 23  1  0  0  0  0
 20 25  2  0  0  0  0
 20 27  1  0  0  0  0
 21 26  2  0  0  0  0
 21 28  1  0  0  0  0
 25 30  1  0  0  0  0
 26 31  1  0  0  0  0
 27 32  2  0  0  0  0
 28 33  2  0  0  0  0
 30 34  2  0  0  0  0
 31 35  2  0  0  0  0
 32 34  1  0  0  0  0
 33 35  1  0  0  0  0
M  END
> <PUBCHEM_COMPOUND_ID_TYPE>
0

> <PUBCHEM_TOTAL_CHARGE>
0

> <PUBCHEM_SUBSTANCE_ID>
310944453

> <PUBCHEM_SUBSTANCE_VERSION>
1

> <PUBCHEM_EXT_DATASOURCE_NAME>
4488

> <PUBCHEM_EXT_DATASOURCE_REGID>
SCHEMBL16122528

> <PUBCHEM_SUBSTANCE_COMMENT>
InChI=1S/C32H19FN2/c33-32-30(21-35)14-22(20-34)15-31(32)26-13-7-12-25(16-26)29-18-27(23-8-3-1-4-9-23)17-28(19-29)24-10-5-2-6-11-24/h1-19H
InChIKey=ZKBQJYDTNMUKAU-UHFFFAOYSA-N

> <PUBCHEM_SUBSTANCE_SYNONYM>
SCHEMBL16122528

> <PUBCHEM_XREF_EXT_ID>
SCHEMBL16122528

> <PUBCHEM_EXT_DATASOURCE_URL>
https://www.surechembl.org/

> <PUBCHEM_EXT_SUBSTANCE_URL>
https://www.surechembl.org/chemical/SCHEMBL16122528

> <PUBCHEM_CID_ASSOCIATIONS>
117610707  1

> <PUBCHEM_COORDINATE_TYPE>
1
3

$$$$
