310942845
  -OEChem-07211613022D

 61 66  0     1  0  0  0  0  0999 V2000
    4.8331   -1.7778    0.0000 S   0  0  0  0  0  0  0  0  0  0  0  0
   -6.8343    0.8129    0.0000 F   0  0  0  0  0  0  0  0  0  0  0  0
   -6.8343   -2.5104    0.0000 F   0  0  0  0  0  0  0  0  0  0  0  0
   -4.3150   -0.9559    0.0000 O   0  0  0  0  0  0  0  0  0  0  0  0
   -1.7956    2.1887    0.0000 O   0  0  0  0  0  0  0  0  0  0  0  0
   -4.5115   -2.1887    0.0000 O   0  0  0  0  0  0  0  0  0  0  0  0
   -0.2233   -3.7254    0.0000 O   0  0  0  0  0  0  0  0  0  0  0  0
    5.7443   -1.2597    0.0000 O   0  0  0  0  0  0  0  0  0  0  0  0
    7.1380   -3.8147    0.0000 O   0  0  0  0  0  0  0  0  0  0  0  0
    4.1185   -2.1887    0.0000 O   0  0  0  0  0  0  0  0  0  0  0  0
    5.5478   -2.1887    0.0000 O   0  0  0  0  0  0  0  0  0  0  0  0
    4.4221   -1.0631    0.0000 O   0  0  0  0  0  0  0  0  0  0  0  0
    3.4037   -1.7421    0.0000 O   0  0  0  0  0  0  0  0  0  0  0  0
   -4.4936    0.9737    0.0000 N   0  0  0  0  0  0  0  0  0  0  0  0
   -2.9213   -0.5807    0.0000 N   0  0  0  0  0  0  0  0  0  0  0  0
   -4.6366   -0.3663    0.0000 N   0  0  0  0  0  0  0  0  0  0  0  0
   -1.6706   -2.7783    0.0000 N   0  0  0  0  0  0  0  0  0  0  0  0
    6.2447   -2.6355    0.0000 N   0  0  0  0  0  0  0  0  0  0  0  0
    0.5271   -2.4925    0.0000 N   0  0  0  0  0  0  0  0  0  0  0  0
    2.6533   -2.9571    0.0000 N   0  0  0  0  0  0  0  0  0  0  0  0
   -4.0648    0.2770    0.0000 C   0  0  0  0  0  0  0  0  0  0  0  0
   -3.2429    0.1698    0.0000 C   0  0  3  0  0  0  0  0  0  0  0  0
   -5.4048   -0.0090    0.0000 C   0  0  0  0  0  0  0  0  0  0  0  0
   -2.7605    0.8666    0.0000 C   0  0  0  0  0  0  0  0  0  0  0  0
   -5.2798    0.8129    0.0000 C   0  0  0  0  0  0  0  0  0  0  0  0
   -6.1196   -0.4378    0.0000 C   0  0  0  0  0  0  0  0  0  0  0  0
   -3.4931   -1.1703    0.0000 C   0  0  0  0  0  0  0  0  0  0  0  0
   -4.1542    1.7421    0.0000 C   0  0  0  0  0  0  0  0  0  0  0  0
   -2.0994   -0.6879    0.0000 C   0  0  0  0  0  0  0  0  0  0  0  0
   -6.8343   -0.0090    0.0000 C   0  0  0  0  0  0  0  0  0  0  0  0
   -1.7778   -1.4205    0.0000 C   0  0  3  0  0  0  0  0  0  0  0  0
   -6.1196   -1.2597    0.0000 C   0  0  0  0  0  0  0  0  0  0  0  0
   -3.1000    1.5813    0.0000 C   0  0  0  0  0  0  0  0  0  0  0  0
   -1.9386    0.7594    0.0000 C   0  0  0  0  0  0  0  0  0  0  0  0
   -4.6544    2.4032    0.0000 C   0  0  0  0  0  0  0  0  0  0  0  0
   -3.7254   -1.9744    0.0000 C   0  0  3  0  0  0  0  0  0  0  0  0
   -6.8343   -1.6706    0.0000 C   0  0  0  0  0  0  0  0  0  0  0  0
   -7.5489   -0.4378    0.0000 C   0  0  0  0  0  0  0  0  0  0  0  0
   -0.9737   -1.6348    0.0000 C   0  0  0  0  0  0  0  0  0  0  0  0
   -0.9380   -2.4567    0.0000 C   0  0  3  0  0  0  0  0  0  0  0  0
   -2.2066   -2.1709    0.0000 C   0  0  0  0  0  0  0  0  0  0  0  0
   -2.6175    2.2781    0.0000 C   0  0  0  0  0  0  0  0  0  0  0  0
   -1.4562    1.4383    0.0000 C   0  0  0  0  0  0  0  0  0  0  0  0
   -7.5489   -1.2775    0.0000 C   0  0  0  0  0  0  0  0  0  0  0  0
   -5.4585    2.3317    0.0000 C   0  0  0  0  0  0  0  0  0  0  0  0
   -4.3150    3.1714    0.0000 C   0  0  0  0  0  0  0  0  0  0  0  0
   -0.2055   -2.8677    0.0000 C   0  0  0  0  0  0  0  0  0  0  0  0
   -3.1536   -2.5461    0.0000 C   0  0  0  0  0  0  0  0  0  0  0  0
    4.7974   -2.5997    0.0000 C   0  0  3  0  0  0  0  0  0  0  0  0
    6.9772   -2.9571    0.0000 C   0  0  0  0  0  0  0  0  0  0  0  0
    6.3697   -1.8314    0.0000 C   0  0  0  0  0  0  0  0  0  0  0  0
    5.5478   -3.0285    0.0000 C   0  0  0  0  0  0  0  0  0  0  0  0
   -5.9231    2.9928    0.0000 C   0  0  0  0  0  0  0  0  0  0  0  0
   -4.7795    3.8147    0.0000 C   0  0  0  0  0  0  0  0  0  0  0  0
   -5.6014    3.7432    0.0000 C   0  0  0  0  0  0  0  0  0  0  0  0
    7.5489   -2.3853    0.0000 C   0  0  0  0  0  0  0  0  0  0  0  0
    7.1559   -1.6706    0.0000 C   0  0  0  0  0  0  0  0  0  0  0  0
    4.1185   -2.9928    0.0000 C   0  0  0  0  0  0  0  0  0  0  0  0
    3.3680   -2.5818    0.0000 C   0  0  0  0  0  0  0  0  0  0  0  0
    1.2418   -2.9213    0.0000 C   0  0  0  0  0  0  0  0  0  0  0  0
    1.9207   -2.5461    0.0000 C   0  0  0  0  0  0  0  0  0  0  0  0
  1 10  2  0  0  0  0
  1 11  2  0  0  0  0
  1 12  1  0  0  0  0
  1 49  1  0  0  0  0
  2 30  1  0  0  0  0
  3 37  1  0  0  0  0
  4 27  2  0  0  0  0
  5 42  1  0  0  0  0
  5 43  1  0  0  0  0
 36  6  1  6  0  0  0
  7 47  2  0  0  0  0
  8 51  2  0  0  0  0
  9 50  2  0  0  0  0
 13 59  2  0  0  0  0
 14 21  1  0  0  0  0
 14 25  1  0  0  0  0
 14 28  1  0  0  0  0
 22 15  1  1  0  0  0
 15 27  1  0  0  0  0
 15 29  1  0  0  0  0
 16 21  2  0  0  0  0
 16 23  1  0  0  0  0
 17 40  1  0  0  0  0
 17 41  1  0  0  0  0
 18 50  1  0  0  0  0
 18 51  1  0  0  0  0
 18 52  1  0  0  0  0
 19 47  1  0  0  0  0
 19 60  1  0  0  0  0
 20 59  1  0  0  0  0
 20 61  1  0  0  0  0
 21 22  1  0  0  0  0
 22 24  1  0  0  0  0
 23 25  2  0  0  0  0
 23 26  1  0  0  0  0
 24 33  1  0  0  0  0
 24 34  1  0  0  0  0
 26 30  2  0  0  0  0
 26 32  1  0  0  0  0
 27 36  1  0  0  0  0
 28 35  1  0  0  0  0
 29 31  1  0  0  0  0
 30 38  1  0  0  0  0
 31 39  1  0  0  0  0
 31 41  1  0  0  0  0
 32 37  2  0  0  0  0
 33 42  1  0  0  0  0
 34 43  1  0  0  0  0
 35 45  2  0  0  0  0
 35 46  1  0  0  0  0
 36 48  1  0  0  0  0
 37 44  1  0  0  0  0
 38 44  2  0  0  0  0
 39 40  1  0  0  0  0
 40 47  1  0  0  0  0
 45 53  1  0  0  0  0
 46 54  2  0  0  0  0
 49 52  1  0  0  0  0
 49 58  1  0  0  0  0
 50 56  1  0  0  0  0
 51 57  1  0  0  0  0
 53 55  2  0  0  0  0
 54 55  1  0  0  0  0
 56 57  2  0  0  0  0
 58 59  1  0  0  0  0
 60 61  1  0  0  0  0
M  END
> <PUBCHEM_COMPOUND_ID_TYPE>
0

> <PUBCHEM_TOTAL_CHARGE>
0

> <PUBCHEM_SUBSTANCE_ID>
310942845

> <PUBCHEM_SUBSTANCE_VERSION>
1

> <PUBCHEM_EXT_DATASOURCE_NAME>
4488

> <PUBCHEM_EXT_DATASOURCE_REGID>
SCHEMBL16120900

> <PUBCHEM_SUBSTANCE_COMMENT>
InChI=1S/C41H49F2N7O10S/c1-25(51)41(56)50(22-27-17-33(46-20-27)40(55)45-14-13-44-35(52)19-30(61(57,58)59)23-49-36(53)9-10-37(49)54)38(28-11-15-60-16-12-28)39-47-34(31-18-29(42)7-8-32(31)43)24-48(39)21-26-5-3-2-4-6-26/h2-10,18,24-25,27-28,30,33,38,46,51H,11-17,19-23H2,1H3,(H,44,52)(H,45,55)(H,57,58,59)/t25-,27?,30?,33?,38+/m0/s1
InChIKey=BVDGLNGGVTVWGS-SFYIJZKNSA-N

> <PUBCHEM_SUBSTANCE_SYNONYM>
SCHEMBL16120900

> <PUBCHEM_XREF_EXT_ID>
SCHEMBL16120900

> <PUBCHEM_EXT_DATASOURCE_URL>
https://www.surechembl.org/

> <PUBCHEM_EXT_SUBSTANCE_URL>
https://www.surechembl.org/chemical/SCHEMBL16120900

> <PUBCHEM_CID_ASSOCIATIONS>
117609335  1

> <PUBCHEM_COORDINATE_TYPE>
1
3

> <PUBCHEM_BONDANNOTATIONS>
22  15  5
36  6  6

$$$$
