310931701
  -OEChem-07211613022D

 52 56  0     1  0  0  0  0  0999 V2000
   16.4328   -5.3625    0.0000 Cl  0  0  0  0  0  0  0  0  0  0  0  0
   17.8618   -1.2375    0.0000 S   0  0  0  0  0  0  0  0  0  0  0  0
   17.8618   -2.8875    0.0000 F   0  0  0  0  0  0  0  0  0  0  0  0
   15.0039   -1.2375    0.0000 F   0  0  0  0  0  0  0  0  0  0  0  0
   18.5762    2.4750    0.0000 F   0  0  0  0  0  0  0  0  0  0  0  0
   17.4493   -0.5231    0.0000 O   0  0  0  0  0  0  0  0  0  0  0  0
   18.2743   -1.9519    0.0000 O   0  0  0  0  0  0  0  0  0  0  0  0
   15.0039   -2.8875    0.0000 O   0  0  0  0  0  0  0  0  0  0  0  0
   20.7196   -2.0625    0.0000 O   0  0  0  0  0  0  0  0  0  0  0  0
   22.1486    0.4125    0.0000 O   0  0  0  0  0  0  0  0  0  0  0  0
   10.7170   -2.8875    0.0000 O   0  0  0  0  0  0  0  0  0  0  0  0
   11.4316   -1.6500    0.0000 O   0  0  0  0  0  0  0  0  0  0  0  0
   18.5762   -0.8250    0.0000 N   0  0  0  0  0  0  0  0  0  0  0  0
   17.8618    0.4125    0.0000 N   0  0  0  0  0  0  0  0  0  0  0  0
   19.2907    0.4125    0.0000 N   0  0  0  0  0  0  0  0  0  0  0  0
   12.1460   -2.8875    0.0000 N   0  0  0  0  0  0  0  0  0  0  0  0
   17.1473   -1.6500    0.0000 C   0  0  0  0  0  0  0  0  0  0  0  0
   17.1473   -2.4750    0.0000 C   0  0  0  0  0  0  0  0  0  0  0  0
   18.5762    0.0000    0.0000 C   0  0  0  0  0  0  0  0  0  0  0  0
   16.4328   -1.2375    0.0000 C   0  0  0  0  0  0  0  0  0  0  0  0
   19.2907   -1.2375    0.0000 C   0  0  0  0  0  0  0  0  0  0  0  0
   15.7184   -1.6500    0.0000 C   0  0  0  0  0  0  0  0  0  0  0  0
   15.7184   -2.4750    0.0000 C   0  0  0  0  0  0  0  0  0  0  0  0
   16.4328   -2.8875    0.0000 C   0  0  0  0  0  0  0  0  0  0  0  0
   20.0052   -0.8250    0.0000 C   0  0  0  0  0  0  0  0  0  0  0  0
   20.7196   -1.2375    0.0000 C   0  0  0  0  0  0  0  0  0  0  0  0
   13.5750   -2.8875    0.0000 C   0  0  3  0  0  0  0  0  0  0  0  0
   13.5750   -3.7125    0.0000 C   0  0  3  0  0  0  0  0  0  0  0  0
   20.0052    0.0000    0.0000 C   0  0  0  0  0  0  0  0  0  0  0  0
   14.2894   -2.4750    0.0000 C   0  0  0  0  0  0  0  0  0  0  0  0
   17.8618    1.2375    0.0000 C   0  0  0  0  0  0  0  0  0  0  0  0
   19.2907    1.2375    0.0000 C   0  0  0  0  0  0  0  0  0  0  0  0
   18.5762    1.6500    0.0000 C   0  0  0  0  0  0  0  0  0  0  0  0
   21.4341   -0.8250    0.0000 C   0  0  0  0  0  0  0  0  0  0  0  0
   14.2894   -4.1250    0.0000 C   0  0  0  0  0  0  0  0  0  0  0  0
   12.8605   -2.4750    0.0000 C   0  0  0  0  0  0  0  0  0  0  0  0
   21.4341    0.0000    0.0000 C   0  0  0  0  0  0  0  0  0  0  0  0
   20.7196    0.4125    0.0000 C   0  0  0  0  0  0  0  0  0  0  0  0
   12.8605   -4.1250    0.0000 C   0  0  0  0  0  0  0  0  0  0  0  0
   12.1460   -3.7125    0.0000 C   0  0  0  0  0  0  0  0  0  0  0  0
   11.4316   -2.4750    0.0000 C   0  0  0  0  0  0  0  0  0  0  0  0
   15.0039   -3.7125    0.0000 C   0  0  0  0  0  0  0  0  0  0  0  0
   14.2894   -4.9500    0.0000 C   0  0  0  0  0  0  0  0  0  0  0  0
   15.7184   -4.1250    0.0000 C   0  0  0  0  0  0  0  0  0  0  0  0
   15.0039   -5.3625    0.0000 C   0  0  0  0  0  0  0  0  0  0  0  0
   15.7184   -4.9500    0.0000 C   0  0  0  0  0  0  0  0  0  0  0  0
   10.0026   -2.4750    0.0000 C   0  0  0  0  0  0  0  0  0  0  0  0
   21.4341   -2.4750    0.0000 C   0  0  0  0  0  0  0  0  0  0  0  0
   22.8630    0.0000    0.0000 C   0  0  0  0  0  0  0  0  0  0  0  0
   10.0026   -1.6500    0.0000 C   0  0  0  0  0  0  0  0  0  0  0  0
    9.2881   -2.0625    0.0000 C   0  0  0  0  0  0  0  0  0  0  0  0
    9.2881   -2.8875    0.0000 C   0  0  0  0  0  0  0  0  0  0  0  0
  1 46  1  0  0  0  0
  2  6  2  0  0  0  0
  2  7  2  0  0  0  0
  2 13  1  0  0  0  0
  2 17  1  0  0  0  0
  3 18  1  0  0  0  0
  4 22  1  0  0  0  0
  5 33  1  0  0  0  0
  8 23  1  0  0  0  0
  8 30  1  0  0  0  0
  9 26  1  0  0  0  0
  9 48  1  0  0  0  0
 10 37  1  0  0  0  0
 10 49  1  0  0  0  0
 11 41  1  0  0  0  0
 11 47  1  0  0  0  0
 12 41  2  0  0  0  0
 13 19  1  0  0  0  0
 13 21  1  0  0  0  0
 14 19  2  0  0  0  0
 14 31  1  0  0  0  0
 15 19  1  0  0  0  0
 15 32  2  0  0  0  0
 16 36  1  0  0  0  0
 16 40  1  0  0  0  0
 16 41  1  0  0  0  0
 17 18  2  0  0  0  0
 17 20  1  0  0  0  0
 18 24  1  0  0  0  0
 20 22  2  0  0  0  0
 21 25  1  0  0  0  0
 22 23  1  0  0  0  0
 23 24  2  0  0  0  0
 25 26  1  0  0  0  0
 25 29  2  0  0  0  0
 26 34  2  0  0  0  0
 27 28  1  0  0  0  0
 27 30  1  6  0  0  0
 27 36  1  0  0  0  0
 28 35  1  0  0  0  0
 28 39  1  1  0  0  0
 29 38  1  0  0  0  0
 31 33  2  0  0  0  0
 32 33  1  0  0  0  0
 34 37  1  0  0  0  0
 35 42  2  0  0  0  0
 35 43  1  0  0  0  0
 37 38  2  0  0  0  0
 39 40  1  0  0  0  0
 42 44  1  0  0  0  0
 43 45  2  0  0  0  0
 44 46  2  0  0  0  0
 45 46  1  0  0  0  0
 47 50  1  0  0  0  0
 47 51  1  0  0  0  0
 47 52  1  0  0  0  0
M  END
> <PUBCHEM_COMPOUND_ID_TYPE>
0

> <PUBCHEM_TOTAL_CHARGE>
0

> <PUBCHEM_SUBSTANCE_ID>
310931701

> <PUBCHEM_SUBSTANCE_VERSION>
1

> <PUBCHEM_EXT_DATASOURCE_NAME>
4488

> <PUBCHEM_EXT_DATASOURCE_REGID>
SCHEMBL16109028

> <PUBCHEM_SUBSTANCE_COMMENT>
InChI=1S/C36H38ClF3N4O7S/c1-36(2,3)51-35(45)43-13-12-28(22-6-9-25(37)10-7-22)24(19-43)21-50-32-15-30(40)33(16-29(32)39)52(46,47)44(34-41-17-26(38)18-42-34)20-23-8-11-27(48-4)14-31(23)49-5/h6-11,14-18,24,28H,12-13,19-21H2,1-5H3/t24-,28-/m1/s1
InChIKey=MSHFOFTYTWITJF-UFHPHHKVSA-N

> <PUBCHEM_SUBSTANCE_SYNONYM>
SCHEMBL16109028

> <PUBCHEM_XREF_EXT_ID>
SCHEMBL16109028

> <PUBCHEM_EXT_DATASOURCE_URL>
https://www.surechembl.org/

> <PUBCHEM_EXT_SUBSTANCE_URL>
https://www.surechembl.org/chemical/SCHEMBL16109028

> <PUBCHEM_CID_ASSOCIATIONS>
117600401  1

> <PUBCHEM_COORDINATE_TYPE>
1
3

> <PUBCHEM_BONDANNOTATIONS>
27  30  6
28  39  5

$$$$
