310931382
  -OEChem-07211613022D

 36 40  0     0  0  0  0  0  0999 V2000
   -6.4302    0.8250    0.0000 S   0  0  0  0  0  0  0  0  0  0  0  0
   -6.0177    1.5395    0.0000 O   0  0  0  0  0  0  0  0  0  0  0  0
   -6.8427    0.1106    0.0000 O   0  0  0  0  0  0  0  0  0  0  0  0
   -9.2881    0.0000    0.0000 O   0  0  0  0  0  0  0  0  0  0  0  0
   -2.1434   -1.6500    0.0000 O   0  0  0  0  0  0  0  0  0  0  0  0
  -11.4316    2.0625    0.0000 O   0  0  0  0  0  0  0  0  0  0  0  0
  -10.0026    1.2375    0.0000 N   0  0  0  0  0  0  0  0  0  0  0  0
   -0.7144    0.8250    0.0000 N   0  0  0  0  0  0  0  0  0  0  0  0
    0.7846    0.6674    0.0000 N   0  0  0  0  0  0  0  0  0  0  0  0
   -2.8579   -0.4125    0.0000 N   0  0  0  0  0  0  0  0  0  0  0  0
    1.2696    0.0000    0.0000 N   0  0  0  0  0  0  0  0  0  0  0  0
   -7.1447    1.2375    0.0000 C   0  0  0  0  0  0  0  0  0  0  0  0
   -5.7158    0.4125    0.0000 C   0  0  0  0  0  0  0  0  0  0  0  0
   -8.5736    1.2375    0.0000 C   0  0  0  0  0  0  0  0  0  0  0  0
   -7.8592    0.8250    0.0000 C   0  0  0  0  0  0  0  0  0  0  0  0
   -7.1447    2.0625    0.0000 C   0  0  0  0  0  0  0  0  0  0  0  0
   -9.2881    0.8250    0.0000 C   0  0  0  0  0  0  0  0  0  0  0  0
   -5.0013    0.8250    0.0000 C   0  0  0  0  0  0  0  0  0  0  0  0
   -5.7158   -0.4125    0.0000 C   0  0  0  0  0  0  0  0  0  0  0  0
    0.0000   -0.4125    0.0000 C   0  0  0  0  0  0  0  0  0  0  0  0
    0.0000    0.4125    0.0000 C   0  0  0  0  0  0  0  0  0  0  0  0
   -8.5736    2.0625    0.0000 C   0  0  0  0  0  0  0  0  0  0  0  0
   -1.4290   -0.4125    0.0000 C   0  0  0  0  0  0  0  0  0  0  0  0
   -4.2868   -0.4125    0.0000 C   0  0  0  0  0  0  0  0  0  0  0  0
   -7.8592    2.4750    0.0000 C   0  0  0  0  0  0  0  0  0  0  0  0
   -4.2868    0.4125    0.0000 C   0  0  0  0  0  0  0  0  0  0  0  0
   -5.0013   -0.8250    0.0000 C   0  0  0  0  0  0  0  0  0  0  0  0
   -0.7144   -0.8250    0.0000 C   0  0  0  0  0  0  0  0  0  0  0  0
   -2.1434   -0.8250    0.0000 C   0  0  0  0  0  0  0  0  0  0  0  0
   -1.4290    0.4125    0.0000 C   0  0  0  0  0  0  0  0  0  0  0  0
    0.7846   -0.6674    0.0000 C   0  0  0  0  0  0  0  0  0  0  0  0
   -3.5724   -0.8250    0.0000 C   0  0  0  0  0  0  0  0  0  0  0  0
  -10.7170    0.8250    0.0000 C   0  0  0  0  0  0  0  0  0  0  0  0
  -10.0026    2.0625    0.0000 C   0  0  0  0  0  0  0  0  0  0  0  0
  -11.4316    1.2375    0.0000 C   0  0  0  0  0  0  0  0  0  0  0  0
  -10.7170    2.4750    0.0000 C   0  0  0  0  0  0  0  0  0  0  0  0
  1  2  2  0  0  0  0
  1  3  2  0  0  0  0
  1 12  1  0  0  0  0
  1 13  1  0  0  0  0
  4 17  2  0  0  0  0
  5 29  2  0  0  0  0
  6 35  1  0  0  0  0
  6 36  1  0  0  0  0
  7 17  1  0  0  0  0
  7 33  1  0  0  0  0
  7 34  1  0  0  0  0
  8 21  2  0  0  0  0
  8 30  1  0  0  0  0
  9 11  1  0  0  0  0
  9 21  1  0  0  0  0
 10 29  1  0  0  0  0
 10 32  1  0  0  0  0
 11 31  2  0  0  0  0
 12 15  1  0  0  0  0
 12 16  2  0  0  0  0
 13 18  2  0  0  0  0
 13 19  1  0  0  0  0
 14 15  2  0  0  0  0
 14 17  1  0  0  0  0
 14 22  1  0  0  0  0
 16 25  1  0  0  0  0
 18 26  1  0  0  0  0
 19 27  2  0  0  0  0
 20 21  1  0  0  0  0
 20 28  2  0  0  0  0
 20 31  1  0  0  0  0
 22 25  2  0  0  0  0
 23 28  1  0  0  0  0
 23 29  1  0  0  0  0
 23 30  2  0  0  0  0
 24 26  2  0  0  0  0
 24 27  1  0  0  0  0
 24 32  1  0  0  0  0
 33 35  1  0  0  0  0
 34 36  1  0  0  0  0
M  END
> <PUBCHEM_COMPOUND_ID_TYPE>
0

> <PUBCHEM_TOTAL_CHARGE>
0

> <PUBCHEM_SUBSTANCE_ID>
310931382

> <PUBCHEM_SUBSTANCE_VERSION>
1

> <PUBCHEM_EXT_DATASOURCE_NAME>
4488

> <PUBCHEM_EXT_DATASOURCE_REGID>
SCHEMBL16108705

> <PUBCHEM_SUBSTANCE_COMMENT>
InChI=1S/C25H23N5O5S/c31-24(20-12-19-16-28-29-23(19)26-15-20)27-14-17-4-6-21(7-5-17)36(33,34)22-3-1-2-18(13-22)25(32)30-8-10-35-11-9-30/h1-7,12-13,15-16H,8-11,14H2,(H,27,31)(H,26,28,29)
InChIKey=PHFIOYBPFXQRAL-UHFFFAOYSA-N

> <PUBCHEM_SUBSTANCE_SYNONYM>
SCHEMBL16108705

> <PUBCHEM_XREF_EXT_ID>
SCHEMBL16108705

> <PUBCHEM_EXT_DATASOURCE_URL>
https://www.surechembl.org/

> <PUBCHEM_EXT_SUBSTANCE_URL>
https://www.surechembl.org/chemical/SCHEMBL16108705

> <PUBCHEM_CID_ASSOCIATIONS>
90012580  1

> <PUBCHEM_COORDINATE_TYPE>
1
3

$$$$
