310937379
  -OEChem-07211613022D

 43 48  0     0  0  0  0  0  0999 V2000
   -8.0304   -2.3643    0.0000 O   0  0  0  0  0  0  0  0  0  0  0  0
   -8.6204    0.2967    0.0000 O   0  0  0  0  0  0  0  0  0  0  0  0
   -7.4499   -0.5229    0.0000 O   0  0  0  0  0  0  0  0  0  0  0  0
   -5.3640   -1.6498    0.0000 O   0  0  0  0  0  0  0  0  0  0  0  0
   -5.3640   -3.0788    0.0000 O   0  0  0  0  0  0  0  0  0  0  0  0
  -10.1522   -0.8787    0.0000 O   0  0  0  0  0  0  0  0  0  0  0  0
   -7.3160   -3.6018    0.0000 O   0  0  0  0  0  0  0  0  0  0  0  0
   -9.2336    0.2160    0.0000 N   0  0  0  0  0  0  0  0  0  0  0  0
   -8.7449   -3.6018    0.0000 N   0  0  0  0  0  0  0  0  0  0  0  0
   -8.7449   -1.1268    0.0000 C   0  0  0  0  0  0  0  0  0  0  0  0
   -6.6015   -2.3643    0.0000 C   0  0  0  0  0  0  0  0  0  0  0  0
   -8.7449   -1.9518    0.0000 C   0  0  0  0  0  0  0  0  0  0  0  0
   -7.3160   -1.9518    0.0000 C   0  0  0  0  0  0  0  0  0  0  0  0
   -7.9231   -1.1987    0.0000 C   0  0  0  0  0  0  0  0  0  0  0  0
   -9.0936   -0.3791    0.0000 C   0  0  0  0  0  0  0  0  0  0  0  0
   -6.1890   -3.0788    0.0000 C   0  0  0  0  0  0  0  0  0  0  0  0
   -6.1890   -1.6498    0.0000 C   0  0  0  0  0  0  0  0  0  0  0  0
   -7.7985    0.2248    0.0000 C   0  0  0  0  0  0  0  0  0  0  0  0
   -4.9515   -2.3643    0.0000 C   0  0  0  0  0  0  0  0  0  0  0  0
   -9.5201   -1.4090    0.0000 C   0  0  0  0  0  0  0  0  0  0  0  0
   -7.3160   -2.7768    0.0000 C   0  0  0  0  0  0  0  0  0  0  0  0
   -7.3253    0.9006    0.0000 C   0  0  0  0  0  0  0  0  0  0  0  0
   -4.1265   -2.3643    0.0000 C   0  0  0  0  0  0  0  0  0  0  0  0
   -6.5034    0.8287    0.0000 C   0  0  0  0  0  0  0  0  0  0  0  0
   -3.7140   -3.0788    0.0000 C   0  0  0  0  0  0  0  0  0  0  0  0
   -7.6740    1.6483    0.0000 C   0  0  0  0  0  0  0  0  0  0  0  0
   -3.7140   -1.6498    0.0000 C   0  0  0  0  0  0  0  0  0  0  0  0
  -10.0089   -0.0662    0.0000 C   0  0  0  0  0  0  0  0  0  0  0  0
   -8.0304   -4.0143    0.0000 C   0  0  0  0  0  0  0  0  0  0  0  0
   -6.0302    1.5045    0.0000 C   0  0  0  0  0  0  0  0  0  0  0  0
   -2.8890   -3.0788    0.0000 C   0  0  0  0  0  0  0  0  0  0  0  0
   -7.2008    2.3241    0.0000 C   0  0  0  0  0  0  0  0  0  0  0  0
   -2.8890   -1.6498    0.0000 C   0  0  0  0  0  0  0  0  0  0  0  0
  -10.6409    0.4641    0.0000 C   0  0  0  0  0  0  0  0  0  0  0  0
   -8.0304   -4.8393    0.0000 C   0  0  0  0  0  0  0  0  0  0  0  0
   -6.3789    2.2522    0.0000 C   0  0  0  0  0  0  0  0  0  0  0  0
   -2.4765   -2.3643    0.0000 C   0  0  0  0  0  0  0  0  0  0  0  0
   -9.0904    1.0284    0.0000 C   0  0  0  0  0  0  0  0  0  0  0  0
   -9.4594   -4.0143    0.0000 C   0  0  0  0  0  0  0  0  0  0  0  0
  -10.4976    1.2766    0.0000 C   0  0  0  0  0  0  0  0  0  0  0  0
   -8.7449   -5.2518    0.0000 C   0  0  0  0  0  0  0  0  0  0  0  0
   -9.7224    1.5587    0.0000 C   0  0  0  0  0  0  0  0  0  0  0  0
   -9.4594   -4.8393    0.0000 C   0  0  0  0  0  0  0  0  0  0  0  0
  1 12  1  0  0  0  0
  1 13  1  0  0  0  0
  2 15  1  0  0  0  0
  2 18  1  0  0  0  0
  3 14  1  0  0  0  0
  3 18  1  0  0  0  0
  4 17  1  0  0  0  0
  4 19  1  0  0  0  0
  5 16  1  0  0  0  0
  5 19  1  0  0  0  0
  6 20  1  0  0  0  0
  6 28  1  0  0  0  0
  7 21  1  0  0  0  0
  7 29  1  0  0  0  0
  8 28  2  0  0  0  0
  8 38  1  0  0  0  0
  9 29  2  0  0  0  0
  9 39  1  0  0  0  0
 10 12  1  0  0  0  0
 10 14  1  0  0  0  0
 10 15  1  0  0  0  0
 10 20  1  0  0  0  0
 11 13  1  0  0  0  0
 11 16  1  0  0  0  0
 11 17  1  0  0  0  0
 11 21  1  0  0  0  0
 18 22  1  0  0  0  0
 19 23  1  0  0  0  0
 22 24  2  0  0  0  0
 22 26  1  0  0  0  0
 23 25  2  0  0  0  0
 23 27  1  0  0  0  0
 24 30  1  0  0  0  0
 25 31  1  0  0  0  0
 26 32  2  0  0  0  0
 27 33  2  0  0  0  0
 28 34  1  0  0  0  0
 29 35  1  0  0  0  0
 30 36  2  0  0  0  0
 31 37  2  0  0  0  0
 32 36  1  0  0  0  0
 33 37  1  0  0  0  0
 34 40  2  0  0  0  0
 35 41  2  0  0  0  0
 38 42  2  0  0  0  0
 39 43  2  0  0  0  0
 40 42  1  0  0  0  0
 41 43  1  0  0  0  0
M  END
> <PUBCHEM_COMPOUND_ID_TYPE>
0

> <PUBCHEM_TOTAL_CHARGE>
0

> <PUBCHEM_SUBSTANCE_ID>
310937379

> <PUBCHEM_SUBSTANCE_VERSION>
1

> <PUBCHEM_EXT_DATASOURCE_NAME>
4488

> <PUBCHEM_EXT_DATASOURCE_REGID>
SCHEMBL16115135

> <PUBCHEM_SUBSTANCE_COMMENT>
InChI=1S/C34H36N2O7/c1-3-11-27(12-4-1)31-40-23-33(24-41-31,21-38-29-15-7-9-17-35-29)19-37-20-34(22-39-30-16-8-10-18-36-30)25-42-32(43-26-34)28-13-5-2-6-14-28/h1-18,31-32H,19-26H2
InChIKey=HZLWMLREGGBNIH-UHFFFAOYSA-N

> <PUBCHEM_SUBSTANCE_SYNONYM>
SCHEMBL16115135

> <PUBCHEM_XREF_EXT_ID>
SCHEMBL16115135

> <PUBCHEM_EXT_DATASOURCE_URL>
https://www.surechembl.org/

> <PUBCHEM_EXT_SUBSTANCE_URL>
https://www.surechembl.org/chemical/SCHEMBL16115135

> <PUBCHEM_CID_ASSOCIATIONS>
117605148  1

> <PUBCHEM_COORDINATE_TYPE>
1
3

$$$$
