310941374
  -OEChem-07211613022D

 15 16  0     1  0  0  0  0  0999 V2000
    1.7384    1.6519    0.0000 O   0  0  0  0  0  0  0  0  0  0  0  0
    2.4622    0.4562    0.0000 O   0  0  0  0  0  0  0  0  0  0  0  0
    1.7069   -1.6519    0.0000 O   0  0  0  0  0  0  0  0  0  0  0  0
    0.9990   -0.4090    0.0000 N   0  0  0  0  0  0  0  0  0  0  0  0
   -0.5113    0.4247    0.0000 C   0  0  0  0  0  0  0  0  0  0  0  0
   -1.1878    0.8338    0.0000 C   0  0  3  0  0  0  0  0  0  0  0  0
   -1.1878    0.0472    0.0000 C   0  0  3  0  0  0  0  0  0  0  0  0
    0.2596    0.8496    0.0000 C   0  0  0  0  0  0  0  0  0  0  0  0
    1.0148    0.4562    0.0000 C   0  0  3  0  0  0  0  0  0  0  0  0
   -1.9901    1.1013    0.0000 C   0  0  0  0  0  0  0  0  0  0  0  0
   -1.9587   -0.2360    0.0000 C   0  0  0  0  0  0  0  0  0  0  0  0
   -2.4622    0.4247    0.0000 C   0  0  0  0  0  0  0  0  0  0  0  0
    1.7384    0.8653    0.0000 C   0  0  0  0  0  0  0  0  0  0  0  0
    1.7069   -0.8338    0.0000 C   0  0  0  0  0  0  0  0  0  0  0  0
    2.3991   -0.4405    0.0000 C   0  0  0  0  0  0  0  0  0  0  0  0
  1 13  2  0  0  0  0
  2 13  1  0  0  0  0
  3 14  2  0  0  0  0
  4  9  1  0  0  0  0
  4 14  1  0  0  0  0
  5  6  1  0  0  0  0
  5  7  1  0  0  0  0
  5  8  1  1  0  0  0
  6  7  1  0  0  0  0
  6 10  1  1  0  0  0
  7 11  1  1  0  0  0
  8  9  1  0  0  0  0
  9 13  1  0  0  0  0
 10 12  1  0  0  0  0
 11 12  1  0  0  0  0
 14 15  1  0  0  0  0
M  END
> <PUBCHEM_COMPOUND_ID_TYPE>
0

> <PUBCHEM_TOTAL_CHARGE>
0

> <PUBCHEM_SUBSTANCE_ID>
310941374

> <PUBCHEM_SUBSTANCE_VERSION>
1

> <PUBCHEM_EXT_DATASOURCE_NAME>
4488

> <PUBCHEM_EXT_DATASOURCE_REGID>
SCHEMBL16119334

> <PUBCHEM_SUBSTANCE_COMMENT>
InChI=1S/C11H17NO3/c1-6(13)12-10(11(14)15)5-9-7-3-2-4-8(7)9/h7-10H,2-5H2,1H3,(H,12,13)(H,14,15)/t7-,8+,9-,10?
InChIKey=WETVRRMNQZTFIF-URIMCQPQSA-N

> <PUBCHEM_SUBSTANCE_SYNONYM>
SCHEMBL16119334

> <PUBCHEM_XREF_EXT_ID>
SCHEMBL16119334

> <PUBCHEM_EXT_DATASOURCE_URL>
https://www.surechembl.org/

> <PUBCHEM_EXT_SUBSTANCE_URL>
https://www.surechembl.org/chemical/SCHEMBL16119334

> <PUBCHEM_CID_ASSOCIATIONS>
117608072  1

> <PUBCHEM_COORDINATE_TYPE>
1
3

> <PUBCHEM_BONDANNOTATIONS>
5  8  5
6  10  5
7  11  5

$$$$
