310940581
  -OEChem-07211613022D

 29 32  0     0  0  0  0  0  0999 V2000
   -0.4124    0.8249    0.0000 F   0  0  0  0  0  0  0  0  0  0  0  0
   -0.6135    1.9110    0.0000 F   0  0  0  0  0  0  0  0  0  0  0  0
    0.4928    2.0921    0.0000 F   0  0  0  0  0  0  0  0  0  0  0  0
   -2.0418   -2.1927    0.0000 O   0  0  0  0  0  0  0  0  0  0  0  0
    2.0418   -0.5431    0.0000 O   0  0  0  0  0  0  0  0  0  0  0  0
   -1.3579   -0.9657    0.0000 N   0  0  0  0  0  0  0  0  0  0  0  0
   -0.5532   -3.0175    0.0000 N   0  0  0  0  0  0  0  0  0  0  0  0
    0.1911   -3.1784    0.0000 N   0  0  0  0  0  0  0  0  0  0  0  0
    1.1165   -0.9254    0.0000 N   0  0  0  0  0  0  0  0  0  0  0  0
   -0.6940   -2.0921    0.0000 C   0  0  0  0  0  0  0  0  0  0  0  0
    0.0704   -1.7702    0.0000 C   0  0  0  0  0  0  0  0  0  0  0  0
    0.6135   -2.3940    0.0000 C   0  0  0  0  0  0  0  0  0  0  0  0
   -1.3579   -1.7099    0.0000 C   0  0  0  0  0  0  0  0  0  0  0  0
   -1.3177    1.5691    0.0000 C   0  0  0  0  0  0  0  0  0  0  0  0
   -0.6538    1.9714    0.0000 C   0  0  0  0  0  0  0  0  0  0  0  0
   -1.3780    0.7443    0.0000 C   0  0  0  0  0  0  0  0  0  0  0  0
    0.3118   -1.0260    0.0000 C   0  0  0  0  0  0  0  0  0  0  0  0
    0.0302    1.4685    0.0000 C   0  0  0  0  0  0  0  0  0  0  0  0
    1.3981   -2.2330    0.0000 C   0  0  0  0  0  0  0  0  0  0  0  0
   -2.0418   -0.4626    0.0000 C   0  0  0  0  0  0  0  0  0  0  0  0
   -0.6739   -0.5029    0.0000 C   0  0  0  0  0  0  0  0  0  0  0  0
   -2.0418    0.3218    0.0000 C   0  0  0  0  0  0  0  0  0  0  0  0
   -0.6538    0.3218    0.0000 C   0  0  0  0  0  0  0  0  0  0  0  0
    1.6395   -1.4283    0.0000 C   0  0  0  0  0  0  0  0  0  0  0  0
   -2.0418    1.9714    0.0000 C   0  0  0  0  0  0  0  0  0  0  0  0
   -0.6538    2.7761    0.0000 C   0  0  0  0  0  0  0  0  0  0  0  0
   -2.0217    2.7963    0.0000 C   0  0  0  0  0  0  0  0  0  0  0  0
   -1.3981    3.1784    0.0000 C   0  0  0  0  0  0  0  0  0  0  0  0
    1.2774   -0.1207    0.0000 C   0  0  0  0  0  0  0  0  0  0  0  0
  1 18  1  0  0  0  0
  2 18  1  0  0  0  0
  3 18  1  0  0  0  0
  4 13  2  0  0  0  0
  5 29  2  0  0  0  0
  6 13  1  0  0  0  0
  6 20  1  0  0  0  0
  6 21  1  0  0  0  0
  7  8  1  0  0  0  0
  7 10  2  0  0  0  0
  8 12  1  0  0  0  0
  9 17  1  0  0  0  0
  9 24  1  0  0  0  0
  9 29  1  0  0  0  0
 10 11  1  0  0  0  0
 10 13  1  0  0  0  0
 11 12  2  0  0  0  0
 11 17  1  0  0  0  0
 12 19  1  0  0  0  0
 14 15  2  0  0  0  0
 14 16  1  0  0  0  0
 14 25  1  0  0  0  0
 15 18  1  0  0  0  0
 15 26  1  0  0  0  0
 16 22  1  0  0  0  0
 16 23  1  0  0  0  0
 19 24  1  0  0  0  0
 20 22  1  0  0  0  0
 21 23  1  0  0  0  0
 25 27  2  0  0  0  0
 26 28  2  0  0  0  0
 27 28  1  0  0  0  0
M  END
> <PUBCHEM_COMPOUND_ID_TYPE>
0

> <PUBCHEM_TOTAL_CHARGE>
0

> <PUBCHEM_SUBSTANCE_ID>
310940581

> <PUBCHEM_SUBSTANCE_VERSION>
1

> <PUBCHEM_EXT_DATASOURCE_NAME>
4488

> <PUBCHEM_EXT_DATASOURCE_REGID>
SCHEMBL16118535

> <PUBCHEM_SUBSTANCE_COMMENT>
InChI=1S/C20H21F3N4O2/c21-20(22,23)16-4-2-1-3-14(16)13-5-9-27(10-6-13)19(29)18-15-11-26(12-28)8-7-17(15)24-25-18/h1-4,12-13H,5-11H2,(H,24,25)
InChIKey=PSEJCHGTFYWQIE-UHFFFAOYSA-N

> <PUBCHEM_SUBSTANCE_SYNONYM>
SCHEMBL16118535

> <PUBCHEM_XREF_EXT_ID>
SCHEMBL16118535

> <PUBCHEM_EXT_DATASOURCE_URL>
https://www.surechembl.org/

> <PUBCHEM_EXT_SUBSTANCE_URL>
https://www.surechembl.org/chemical/SCHEMBL16118535

> <PUBCHEM_CID_ASSOCIATIONS>
117607573  1

> <PUBCHEM_COORDINATE_TYPE>
1
3

$$$$
