310946301
  -OEChem-07211613022D

 31 33  0     1  0  0  0  0  0999 V2000
   -1.5137  -15.4756    0.0000 I   0  0  0  0  0  0  0  0  0  0  0  0
   -0.0848  -13.0006    0.0000 I   0  0  0  0  0  0  0  0  0  0  0  0
    2.7731  -13.8256    0.0000 S   0  0  0  0  0  0  0  0  0  0  0  0
    4.7571  -13.0006    0.0000 O   0  0  0  0  0  0  0  0  0  0  0  0
    2.3606  -13.1111    0.0000 O   0  0  0  0  0  0  0  0  0  0  0  0
    3.1856  -14.5401    0.0000 O   0  0  0  0  0  0  0  0  0  0  0  0
   -1.5137  -13.8256    0.0000 O   0  0  0  0  0  0  0  0  0  0  0  0
    3.4876  -15.0631    0.0000 O   0  0  0  0  0  0  0  0  0  0  0  0
   -4.3716  -15.4756    0.0000 O   0  0  0  0  0  0  0  0  0  0  0  0
    2.0586  -14.2381    0.0000 N   0  0  0  0  0  0  0  0  0  0  0  0
    4.2722  -12.3331    0.0000 N   0  0  0  0  0  0  0  0  0  0  0  0
    3.4876  -13.4131    0.0000 C   0  0  0  0  0  0  0  0  0  0  0  0
    4.2722  -13.6680    0.0000 C   0  0  0  0  0  0  0  0  0  0  0  0
    3.4876  -12.5881    0.0000 C   0  0  0  0  0  0  0  0  0  0  0  0
    2.0586  -15.0631    0.0000 C   0  0  3  0  0  0  0  0  0  0  0  0
   -0.7992  -14.2381    0.0000 C   0  0  0  0  0  0  0  0  0  0  0  0
    0.6297  -15.0631    0.0000 C   0  0  0  0  0  0  0  0  0  0  0  0
   -0.7992  -15.0631    0.0000 C   0  0  0  0  0  0  0  0  0  0  0  0
   -0.0848  -13.8256    0.0000 C   0  0  0  0  0  0  0  0  0  0  0  0
    1.3442  -15.4756    0.0000 C   0  0  0  0  0  0  0  0  0  0  0  0
   -0.0848  -15.4756    0.0000 C   0  0  0  0  0  0  0  0  0  0  0  0
    0.6297  -14.2381    0.0000 C   0  0  0  0  0  0  0  0  0  0  0  0
    4.6847  -14.3825    0.0000 C   0  0  0  0  0  0  0  0  0  0  0  0
    2.7731  -12.1756    0.0000 C   0  0  0  0  0  0  0  0  0  0  0  0
   -2.2282  -14.2381    0.0000 C   0  0  0  0  0  0  0  0  0  0  0  0
    2.7731  -15.4756    0.0000 C   0  0  0  0  0  0  0  0  0  0  0  0
   -2.9427  -13.8256    0.0000 C   0  0  0  0  0  0  0  0  0  0  0  0
   -2.2282  -15.0631    0.0000 C   0  0  0  0  0  0  0  0  0  0  0  0
   -3.6571  -15.0631    0.0000 C   0  0  0  0  0  0  0  0  0  0  0  0
   -3.6571  -14.2381    0.0000 C   0  0  0  0  0  0  0  0  0  0  0  0
   -2.9427  -15.4756    0.0000 C   0  0  0  0  0  0  0  0  0  0  0  0
  1 18  1  0  0  0  0
  2 19  1  0  0  0  0
  3  5  2  0  0  0  0
  3  6  2  0  0  0  0
  3 10  1  0  0  0  0
  3 12  1  0  0  0  0
  4 11  1  0  0  0  0
  4 13  1  0  0  0  0
  7 16  1  0  0  0  0
  7 25  1  0  0  0  0
  8 26  1  0  0  0  0
  9 29  1  0  0  0  0
 15 10  1  6  0  0  0
 11 14  2  0  0  0  0
 12 13  2  0  0  0  0
 12 14  1  0  0  0  0
 13 23  1  0  0  0  0
 14 24  1  0  0  0  0
 15 20  1  0  0  0  0
 15 26  1  0  0  0  0
 16 18  2  0  0  0  0
 16 19  1  0  0  0  0
 17 20  1  0  0  0  0
 17 21  2  0  0  0  0
 17 22  1  0  0  0  0
 18 21  1  0  0  0  0
 19 22  2  0  0  0  0
 25 27  2  0  0  0  0
 25 28  1  0  0  0  0
 27 30  1  0  0  0  0
 28 31  2  0  0  0  0
 29 30  2  0  0  0  0
 29 31  1  0  0  0  0
M  END
> <PUBCHEM_COMPOUND_ID_TYPE>
0

> <PUBCHEM_TOTAL_CHARGE>
0

> <PUBCHEM_SUBSTANCE_ID>
310946301

> <PUBCHEM_SUBSTANCE_VERSION>
1

> <PUBCHEM_EXT_DATASOURCE_NAME>
4488

> <PUBCHEM_EXT_DATASOURCE_REGID>
SCHEMBL16124420

> <PUBCHEM_SUBSTANCE_COMMENT>
InChI=1S/C20H20I2N2O6S/c1-11-20(12(2)30-23-11)31(27,28)24-14(10-25)7-13-8-17(21)19(18(22)9-13)29-16-5-3-15(26)4-6-16/h3-6,8-9,14,24-26H,7,10H2,1-2H3/t14-/m0/s1
InChIKey=PSCWRRLIHMZPSL-AWEZNQCLSA-N

> <PUBCHEM_SUBSTANCE_SYNONYM>
SCHEMBL16124420

> <PUBCHEM_XREF_EXT_ID>
SCHEMBL16124420

> <PUBCHEM_EXT_DATASOURCE_URL>
https://www.surechembl.org/

> <PUBCHEM_EXT_SUBSTANCE_URL>
https://www.surechembl.org/chemical/SCHEMBL16124420

> <PUBCHEM_CID_ASSOCIATIONS>
117612245  1

> <PUBCHEM_COORDINATE_TYPE>
1
3

> <PUBCHEM_BONDANNOTATIONS>
15  10  6

$$$$
