310934855
  -OEChem-07211613022D

 22 24  0     0  0  0  0  0  0999 V2000
    4.1854   -3.1342    0.0000 Cl  0  0  0  0  0  0  0  0  0  0  0  0
    0.6619   -1.1485    0.0000 O   0  0  0  0  0  0  0  0  0  0  0  0
    1.4989    0.0000    0.0000 O   0  0  0  0  0  0  0  0  0  0  0  0
    2.0829   -2.1024    0.0000 N   0  0  0  0  0  0  0  0  0  0  0  0
    2.8616   -2.3750    0.0000 N   0  0  0  0  0  0  0  0  0  0  0  0
    2.0829   -1.3042    0.0000 C   0  0  0  0  0  0  0  0  0  0  0  0
    3.3483   -1.6936    0.0000 C   0  0  0  0  0  0  0  0  0  0  0  0
    2.8616   -1.0317    0.0000 C   0  0  0  0  0  0  0  0  0  0  0  0
    4.1659   -1.6936    0.0000 C   0  0  0  0  0  0  0  0  0  0  0  0
    1.4211   -2.5891    0.0000 C   0  0  0  0  0  0  0  0  0  0  0  0
    1.4211   -0.8176    0.0000 C   0  0  0  0  0  0  0  0  0  0  0  0
    4.5942   -2.4139    0.0000 C   0  0  0  0  0  0  0  0  0  0  0  0
    4.5942   -0.9733    0.0000 C   0  0  0  0  0  0  0  0  0  0  0  0
    1.4989   -3.4262    0.0000 C   0  0  0  0  0  0  0  0  0  0  0  0
    0.6619   -2.2582    0.0000 C   0  0  0  0  0  0  0  0  0  0  0  0
    5.4118   -2.4139    0.0000 C   0  0  0  0  0  0  0  0  0  0  0  0
    5.4118   -0.9733    0.0000 C   0  0  0  0  0  0  0  0  0  0  0  0
    5.8206   -1.6936    0.0000 C   0  0  0  0  0  0  0  0  0  0  0  0
    0.8371   -3.8933    0.0000 C   0  0  0  0  0  0  0  0  0  0  0  0
    0.0000   -2.7254    0.0000 C   0  0  0  0  0  0  0  0  0  0  0  0
    0.0779   -3.5624    0.0000 C   0  0  0  0  0  0  0  0  0  0  0  0
    0.0000   -0.6619    0.0000 C   0  0  0  0  0  0  0  0  0  0  0  0
  1 12  1  0  0  0  0
  2 11  1  0  0  0  0
  2 22  1  0  0  0  0
  3 11  2  0  0  0  0
  4  5  1  0  0  0  0
  4  6  1  0  0  0  0
  4 10  1  0  0  0  0
  5  7  2  0  0  0  0
  6  8  2  0  0  0  0
  6 11  1  0  0  0  0
  7  8  1  0  0  0  0
  7  9  1  0  0  0  0
  9 12  1  0  0  0  0
  9 13  2  0  0  0  0
 10 14  2  0  0  0  0
 10 15  1  0  0  0  0
 12 16  2  0  0  0  0
 13 17  1  0  0  0  0
 14 19  1  0  0  0  0
 15 20  2  0  0  0  0
 16 18  1  0  0  0  0
 17 18  2  0  0  0  0
 19 21  2  0  0  0  0
 20 21  1  0  0  0  0
M  END
> <PUBCHEM_COMPOUND_ID_TYPE>
0

> <PUBCHEM_TOTAL_CHARGE>
0

> <PUBCHEM_SUBSTANCE_ID>
310934855

> <PUBCHEM_SUBSTANCE_VERSION>
1

> <PUBCHEM_EXT_DATASOURCE_NAME>
4488

> <PUBCHEM_EXT_DATASOURCE_REGID>
SCHEMBL16112364

> <PUBCHEM_SUBSTANCE_COMMENT>
InChI=1S/C17H13ClN2O2/c1-22-17(21)16-11-15(13-9-5-6-10-14(13)18)19-20(16)12-7-3-2-4-8-12/h2-11H,1H3
InChIKey=CDZXILZRGSQBNT-UHFFFAOYSA-N

> <PUBCHEM_SUBSTANCE_SYNONYM>
SCHEMBL16112364

> <PUBCHEM_XREF_EXT_ID>
SCHEMBL16112364

> <PUBCHEM_EXT_DATASOURCE_URL>
https://www.surechembl.org/

> <PUBCHEM_EXT_SUBSTANCE_URL>
https://www.surechembl.org/chemical/SCHEMBL16112364

> <PUBCHEM_CID_ASSOCIATIONS>
117602991  1

> <PUBCHEM_COORDINATE_TYPE>
1
3

$$$$
