310936429
  -OEChem-07211613022D

 30 33  0     1  0  0  0  0  0999 V2000
    1.8242   -1.7070    0.0000 O   0  0  0  0  0  0  0  0  0  0  0  0
   -0.2704   -2.1195    0.0000 O   0  0  0  0  0  0  0  0  0  0  0  0
    0.7846   -3.5715    0.0000 O   0  0  0  0  0  0  0  0  0  0  0  0
   -0.7144    1.6500    0.0000 O   0  0  0  0  0  0  0  0  0  0  0  0
    3.5569   -4.6486    0.0000 O   0  0  0  0  0  0  0  0  0  0  0  0
    5.5241   -4.3370    0.0000 O   0  0  0  0  0  0  0  0  0  0  0  0
    0.7846   -0.6674    0.0000 N   0  0  0  0  0  0  0  0  0  0  0  0
    0.7846    0.6674    0.0000 N   0  0  0  0  0  0  0  0  0  0  0  0
   -0.7144   -0.8250    0.0000 N   0  0  0  0  0  0  0  0  0  0  0  0
    3.2453   -2.6814    0.0000 N   0  0  0  0  0  0  0  0  0  0  0  0
   -1.4290    0.4125    0.0000 N   0  0  0  0  0  0  0  0  0  0  0  0
    5.2125   -2.3698    0.0000 N   0  0  0  0  0  0  0  0  0  0  0  0
   -2.1434   -0.8250    0.0000 N   0  0  0  0  0  0  0  0  0  0  0  0
    7.3384   -1.8748    0.0000 N   0  0  0  0  0  0  0  0  0  0  0  0
    1.0396   -1.4521    0.0000 C   0  0  3  0  0  0  0  0  0  0  0  0
    0.0000   -0.4125    0.0000 C   0  0  0  0  0  0  0  0  0  0  0  0
    0.0000    0.4125    0.0000 C   0  0  0  0  0  0  0  0  0  0  0  0
    0.5546   -2.1195    0.0000 C   0  0  3  0  0  0  0  0  0  0  0  0
    1.8242   -2.5320    0.0000 C   0  0  3  0  0  0  0  0  0  0  0  0
    1.0396   -2.7870    0.0000 C   0  0  3  0  0  0  0  0  0  0  0  0
    1.2696    0.0000    0.0000 C   0  0  0  0  0  0  0  0  0  0  0  0
    3.9127   -3.1663    0.0000 C   0  0  0  0  0  0  0  0  0  0  0  0
   -0.7144    0.8250    0.0000 C   0  0  0  0  0  0  0  0  0  0  0  0
    4.7276   -3.0372    0.0000 C   0  0  0  0  0  0  0  0  0  0  0  0
    4.0418   -3.9812    0.0000 C   0  0  0  0  0  0  0  0  0  0  0  0
    4.8567   -3.8520    0.0000 C   0  0  0  0  0  0  0  0  0  0  0  0
    2.4916   -3.0169    0.0000 C   0  0  0  0  0  0  0  0  0  0  0  0
   -1.4290   -0.4125    0.0000 C   0  0  0  0  0  0  0  0  0  0  0  0
    6.0330   -2.4560    0.0000 C   0  0  0  0  0  0  0  0  0  0  0  0
    6.5179   -1.7886    0.0000 C   0  0  0  0  0  0  0  0  0  0  0  0
 15  1  1  6  0  0  0
  1 19  1  0  0  0  0
  2 18  1  0  0  0  0
  3 20  1  0  0  0  0
  4 23  2  0  0  0  0
  5 25  2  0  0  0  0
  6 26  2  0  0  0  0
  7 15  1  0  0  0  0
  7 16  1  0  0  0  0
  7 21  1  0  0  0  0
  8 17  1  0  0  0  0
  8 21  2  0  0  0  0
  9 16  1  0  0  0  0
  9 28  2  0  0  0  0
 10 22  1  0  0  0  0
 10 27  1  0  0  0  0
 11 23  1  0  0  0  0
 11 28  1  0  0  0  0
 12 24  1  0  0  0  0
 12 29  1  0  0  0  0
 13 28  1  0  0  0  0
 14 30  1  0  0  0  0
 15 18  1  0  0  0  0
 16 17  2  0  0  0  0
 17 23  1  0  0  0  0
 18 20  1  0  0  0  0
 19 20  1  0  0  0  0
 19 27  1  6  0  0  0
 22 24  2  0  0  0  0
 22 25  1  0  0  0  0
 24 26  1  0  0  0  0
 25 26  1  0  0  0  0
 29 30  1  0  0  0  0
M  END
> <PUBCHEM_COMPOUND_ID_TYPE>
0

> <PUBCHEM_TOTAL_CHARGE>
0

> <PUBCHEM_SUBSTANCE_ID>
310936429

> <PUBCHEM_SUBSTANCE_VERSION>
1

> <PUBCHEM_EXT_DATASOURCE_NAME>
4488

> <PUBCHEM_EXT_DATASOURCE_REGID>
SCHEMBL16114070

> <PUBCHEM_SUBSTANCE_COMMENT>
InChI=1S/C16H20N8O6/c17-1-2-19-6-7(11(27)10(6)26)20-3-5-9(25)12(28)15(30-5)24-4-21-8-13(24)22-16(18)23-14(8)29/h4-5,9,12,15,19-20,25,28H,1-3,17H2,(H3,18,22,23,29)/t5-,9?,12?,15-/m1/s1
InChIKey=LBEMVZZSMRZSBA-YBGYEAKASA-N

> <PUBCHEM_SUBSTANCE_SYNONYM>
SCHEMBL16114070

> <PUBCHEM_XREF_EXT_ID>
SCHEMBL16114070

> <PUBCHEM_EXT_DATASOURCE_URL>
https://www.surechembl.org/

> <PUBCHEM_EXT_SUBSTANCE_URL>
https://www.surechembl.org/chemical/SCHEMBL16114070

> <PUBCHEM_CID_ASSOCIATIONS>
117604362  1

> <PUBCHEM_COORDINATE_TYPE>
1
3

> <PUBCHEM_BONDANNOTATIONS>
15  1  6
19  27  6

$$$$
