310931164
  -OEChem-07211613022D

 18 19  0     0  0  0  0  0  0999 V2000
    2.8799   -3.3023    0.0000 O   0  0  0  0  0  0  0  0  0  0  0  0
    2.1696   -1.2480    0.0000 O   0  0  0  0  0  0  0  0  0  0  0  0
    5.7599   -0.8256    0.0000 O   0  0  0  0  0  0  0  0  0  0  0  0
    2.8799   -2.4767    0.0000 C   0  0  0  0  0  0  0  0  0  0  0  0
    3.6095   -2.0735    0.0000 C   0  0  0  0  0  0  0  0  0  0  0  0
    2.1696   -2.0735    0.0000 C   0  0  0  0  0  0  0  0  0  0  0  0
    1.4591   -2.4767    0.0000 C   0  0  0  0  0  0  0  0  0  0  0  0
    3.6095   -1.2287    0.0000 C   0  0  0  0  0  0  0  0  0  0  0  0
    4.3199   -2.4767    0.0000 C   0  0  0  0  0  0  0  0  0  0  0  0
    5.0495   -1.2480    0.0000 C   0  0  0  0  0  0  0  0  0  0  0  0
    4.3199   -0.8256    0.0000 C   0  0  0  0  0  0  0  0  0  0  0  0
    5.0303   -2.0735    0.0000 C   0  0  0  0  0  0  0  0  0  0  0  0
    1.4399   -3.3215    0.0000 C   0  0  0  0  0  0  0  0  0  0  0  0
    0.7296   -2.0927    0.0000 C   0  0  0  0  0  0  0  0  0  0  0  0
    0.7296   -3.7247    0.0000 C   0  0  0  0  0  0  0  0  0  0  0  0
    0.0192   -2.4959    0.0000 C   0  0  0  0  0  0  0  0  0  0  0  0
    0.0000   -3.3215    0.0000 C   0  0  0  0  0  0  0  0  0  0  0  0
    5.7599    0.0000    0.0000 C   0  0  0  0  0  0  0  0  0  0  0  0
  1  4  2  0  0  0  0
  2  6  2  0  0  0  0
  3 10  1  0  0  0  0
  3 18  1  0  0  0  0
  4  5  1  0  0  0  0
  4  6  1  0  0  0  0
  5  8  2  0  0  0  0
  5  9  1  0  0  0  0
  6  7  1  0  0  0  0
  7 13  1  0  0  0  0
  7 14  1  0  0  0  0
  8 11  1  0  0  0  0
  9 12  2  0  0  0  0
 10 11  2  0  0  0  0
 10 12  1  0  0  0  0
 13 15  1  0  0  0  0
 14 16  1  0  0  0  0
 15 17  1  0  0  0  0
 16 17  1  0  0  0  0
M  END
> <PUBCHEM_COMPOUND_ID_TYPE>
0

> <PUBCHEM_TOTAL_CHARGE>
0

> <PUBCHEM_SUBSTANCE_ID>
310931164

> <PUBCHEM_SUBSTANCE_VERSION>
1

> <PUBCHEM_EXT_DATASOURCE_NAME>
4488

> <PUBCHEM_EXT_DATASOURCE_REGID>
SCHEMBL16108472

> <PUBCHEM_SUBSTANCE_COMMENT>
InChI=1S/C15H18O3/c1-18-13-9-7-12(8-10-13)15(17)14(16)11-5-3-2-4-6-11/h7-11H,2-6H2,1H3
InChIKey=SFARZVDVEGHYJJ-UHFFFAOYSA-N

> <PUBCHEM_SUBSTANCE_SYNONYM>
SCHEMBL16108472

> <PUBCHEM_XREF_EXT_ID>
SCHEMBL16108472

> <PUBCHEM_EXT_DATASOURCE_URL>
https://www.surechembl.org/

> <PUBCHEM_EXT_SUBSTANCE_URL>
https://www.surechembl.org/chemical/SCHEMBL16108472

> <PUBCHEM_CID_ASSOCIATIONS>
117600028  1

> <PUBCHEM_COORDINATE_TYPE>
1
3

$$$$
