310942526
  -OEChem-07211613022D

 45 51  0     1  0  0  0  0  0999 V2000
    3.2267    2.5646    0.0000 Br  0  0  0  0  0  0  0  0  0  0  0  0
    3.1049    0.1294    0.0000 O   0  0  0  0  0  0  0  0  0  0  0  0
    3.7899   -1.9253    0.0000 O   0  0  0  0  0  0  0  0  0  0  0  0
    2.4505   -1.9253    0.0000 O   0  0  0  0  0  0  0  0  0  0  0  0
    3.8051    0.4794    0.0000 N   0  0  0  0  0  0  0  0  0  0  0  0
    5.3271    0.3425    0.0000 N   0  0  0  0  0  0  0  0  0  0  0  0
    1.7047    0.8752    0.0000 N   0  0  3  0  0  0  0  0  0  0  0  0
    6.0273    1.5753    0.0000 N   0  0  0  0  0  0  0  0  0  0  0  0
    5.3119    2.8082    0.0000 N   0  0  0  0  0  0  0  0  0  0  0  0
   -2.9680   -0.2663    0.0000 N   0  0  0  0  0  0  0  0  0  0  0  0
   -2.2678   -1.4079    0.0000 N   0  0  0  0  0  0  0  0  0  0  0  0
    3.5311   -1.1035    0.0000 C   0  0  3  0  0  0  0  0  0  0  0  0
    3.7899   -0.2968    0.0000 C   0  0  3  0  0  0  0  0  0  0  0  0
    2.7092   -1.1187    0.0000 C   0  0  3  0  0  0  0  0  0  0  0  0
    2.4505   -0.3273    0.0000 C   0  0  3  0  0  0  0  0  0  0  0  0
    4.5813    0.7686    0.0000 C   0  0  0  0  0  0  0  0  0  0  0  0
    3.1049   -2.3820    0.0000 C   0  0  0  0  0  0  0  0  0  0  0  0
    4.5661    1.5753    0.0000 C   0  0  0  0  0  0  0  0  0  0  0  0
    3.2876    1.1492    0.0000 C   0  0  0  0  0  0  0  0  0  0  0  0
    3.7747    1.8188    0.0000 C   0  0  0  0  0  0  0  0  0  0  0  0
    2.4353    0.4642    0.0000 C   0  0  0  0  0  0  0  0  0  0  0  0
    5.2967    2.0015    0.0000 C   0  0  0  0  0  0  0  0  0  0  0  0
    0.9741    0.4794    0.0000 C   0  0  0  0  0  0  0  0  0  0  0  0
    2.4048   -2.8082    0.0000 C   0  0  0  0  0  0  0  0  0  0  0  0
    3.8660   -2.7930    0.0000 C   0  0  0  0  0  0  0  0  0  0  0  0
    6.0425    0.7686    0.0000 C   0  0  0  0  0  0  0  0  0  0  0  0
    1.6894    1.7123    0.0000 C   0  0  0  0  0  0  0  0  0  0  0  0
   -0.0304   -0.1294    0.0000 C   0  0  0  0  0  0  0  0  0  0  0  0
    0.1827    0.6469    0.0000 C   0  0  0  0  0  0  0  0  0  0  0  0
    0.7763   -0.3120    0.0000 C   0  0  0  0  0  0  0  0  0  0  0  0
   -3.5311   -0.8752    0.0000 C   0  0  0  0  0  0  0  0  0  0  0  0
   -3.1049   -1.5753    0.0000 C   0  0  0  0  0  0  0  0  0  0  0  0
   -0.7306   -0.5556    0.0000 C   0  0  0  0  0  0  0  0  0  0  0  0
   -2.1917   -0.5708    0.0000 C   0  0  0  0  0  0  0  0  0  0  0  0
   -4.7639   -1.6057    0.0000 C   0  0  0  0  0  0  0  0  0  0  0  0
   -1.4916   -0.1598    0.0000 C   0  0  0  0  0  0  0  0  0  0  0  0
   -4.3682   -0.9056    0.0000 C   0  0  0  0  0  0  0  0  0  0  0  0
    2.4048    2.1232    0.0000 C   0  0  0  0  0  0  0  0  0  0  0  0
    0.9588    2.1080    0.0000 C   0  0  0  0  0  0  0  0  0  0  0  0
   -5.6163   -1.5905    0.0000 C   0  0  0  0  0  0  0  0  0  0  0  0
   -3.5159   -2.2755    0.0000 C   0  0  0  0  0  0  0  0  0  0  0  0
   -4.3530   -2.2907    0.0000 C   0  0  0  0  0  0  0  0  0  0  0  0
   -6.0120   -2.3515    0.0000 C   0  0  0  0  0  0  0  0  0  0  0  0
   -5.4032   -0.8295    0.0000 C   0  0  0  0  0  0  0  0  0  0  0  0
   -6.0425   -0.9208    0.0000 C   0  0  0  0  0  0  0  0  0  0  0  0
  1 20  1  0  0  0  0
 13  2  1  6  0  0  0
  2 15  1  0  0  0  0
 12  3  1  6  0  0  0
  3 17  1  0  0  0  0
 14  4  1  6  0  0  0
  4 17  1  0  0  0  0
  5 13  1  0  0  0  0
  5 16  1  0  0  0  0
  5 19  1  0  0  0  0
  6 16  1  0  0  0  0
  6 26  2  0  0  0  0
  7 21  1  0  0  0  0
  7 23  1  0  0  0  0
  7 27  1  0  0  0  0
  8 22  2  0  0  0  0
  8 26  1  0  0  0  0
  9 22  1  0  0  0  0
 10 31  1  0  0  0  0
 10 34  2  0  0  0  0
 11 32  1  0  0  0  0
 11 34  1  0  0  0  0
 12 13  1  0  0  0  0
 12 14  1  0  0  0  0
 14 15  1  0  0  0  0
 15 21  1  1  0  0  0
 16 18  2  0  0  0  0
 17 24  1  0  0  0  0
 17 25  1  0  0  0  0
 18 20  1  0  0  0  0
 18 22  1  0  0  0  0
 19 20  2  0  0  0  0
 23 29  1  0  0  0  0
 23 30  1  0  0  0  0
 27 38  1  0  0  0  0
 27 39  1  0  0  0  0
 28 29  1  0  0  0  0
 28 30  1  0  0  0  0
 28 33  1  0  0  0  0
 31 32  2  0  0  0  0
 31 37  1  0  0  0  0
 32 41  1  0  0  0  0
 33 36  1  0  0  0  0
 34 36  1  0  0  0  0
 35 37  2  0  0  0  0
 35 40  1  0  0  0  0
 35 42  1  0  0  0  0
 40 43  1  0  0  0  0
 40 44  1  0  0  0  0
 40 45  1  0  0  0  0
 41 42  2  0  0  0  0
M  END
> <PUBCHEM_COMPOUND_ID_TYPE>
0

> <PUBCHEM_TOTAL_CHARGE>
0

> <PUBCHEM_SUBSTANCE_ID>
310942526

> <PUBCHEM_SUBSTANCE_VERSION>
1

> <PUBCHEM_EXT_DATASOURCE_NAME>
4488

> <PUBCHEM_EXT_DATASOURCE_REGID>
SCHEMBL16120562

> <PUBCHEM_SUBSTANCE_COMMENT>
InChI=1S/C34H46BrN7O3/c1-18(2)41(21-12-19(13-21)8-11-26-39-23-10-9-20(33(3,4)5)14-24(23)40-26)16-25-28-29(45-34(6,7)44-28)32(43-25)42-15-22(35)27-30(36)37-17-38-31(27)42/h9-10,14-15,17-19,21,25,28-29,32H,8,11-13,16H2,1-7H3,(H,39,40)(H2,36,37,38)/t19?,21?,25-,28-,29-,32-/m1/s1
InChIKey=QCRVJGJOZHFHLJ-ZIVFXUSVSA-N

> <PUBCHEM_SUBSTANCE_SYNONYM>
SCHEMBL16120562

> <PUBCHEM_XREF_EXT_ID>
SCHEMBL16120562

> <PUBCHEM_EXT_DATASOURCE_URL>
https://www.surechembl.org/

> <PUBCHEM_EXT_SUBSTANCE_URL>
https://www.surechembl.org/chemical/SCHEMBL16120562

> <PUBCHEM_CID_ASSOCIATIONS>
117609086  1

> <PUBCHEM_COORDINATE_TYPE>
1
3

> <PUBCHEM_BONDANNOTATIONS>
15  21  5
13  2  6
12  3  6
14  4  6

$$$$
