310944641
  -OEChem-07211613022D

 28 30  0     0  0  0  0  0  0999 V2000
    2.1910   -2.9212    0.0000 F   0  0  0  0  0  0  0  0  0  0  0  0
   -2.1910    2.9213    0.0000 F   0  0  0  0  0  0  0  0  0  0  0  0
    0.0258   -2.5088    0.0000 N   0  0  0  0  0  0  0  0  0  0  0  0
   -0.0258    2.4745    0.0000 N   0  0  0  0  0  0  0  0  0  0  0  0
    2.1737    1.2200    0.0000 N   0  0  0  0  0  0  0  0  0  0  0  0
   -2.2081   -1.2200    0.0000 N   0  0  0  0  0  0  0  0  0  0  0  0
    1.4692   -0.8077    0.0000 C   0  0  0  0  0  0  0  0  0  0  0  0
   -1.4692    0.8592    0.0000 C   0  0  0  0  0  0  0  0  0  0  0  0
    0.6959   -0.3952    0.0000 C   0  0  0  0  0  0  0  0  0  0  0  0
   -0.7303    0.4296    0.0000 C   0  0  0  0  0  0  0  0  0  0  0  0
    1.4520   -1.6496    0.0000 C   0  0  0  0  0  0  0  0  0  0  0  0
   -1.4692    1.6840    0.0000 C   0  0  0  0  0  0  0  0  0  0  0  0
    2.1737   -0.4124    0.0000 C   0  0  0  0  0  0  0  0  0  0  0  0
   -2.1910    0.4640    0.0000 C   0  0  0  0  0  0  0  0  0  0  0  0
    2.1910   -2.0792    0.0000 C   0  0  0  0  0  0  0  0  0  0  0  0
   -0.0086   -0.7904    0.0000 C   0  0  0  0  0  0  0  0  0  0  0  0
    0.7131    0.4296    0.0000 C   0  0  0  0  0  0  0  0  0  0  0  0
   -2.1910    2.0964    0.0000 C   0  0  0  0  0  0  0  0  0  0  0  0
   -0.7131   -0.3952    0.0000 C   0  0  0  0  0  0  0  0  0  0  0  0
    0.0086    0.8420    0.0000 C   0  0  0  0  0  0  0  0  0  0  0  0
    2.9127   -0.8248    0.0000 C   0  0  0  0  0  0  0  0  0  0  0  0
   -2.9127    0.8763    0.0000 C   0  0  0  0  0  0  0  0  0  0  0  0
    2.8954   -1.6496    0.0000 C   0  0  0  0  0  0  0  0  0  0  0  0
   -2.8954    1.6840    0.0000 C   0  0  0  0  0  0  0  0  0  0  0  0
    0.7131   -2.0964    0.0000 C   0  0  0  0  0  0  0  0  0  0  0  0
   -0.7475    2.0964    0.0000 C   0  0  0  0  0  0  0  0  0  0  0  0
    2.1737    0.4124    0.0000 C   0  0  0  0  0  0  0  0  0  0  0  0
   -2.2081   -0.3952    0.0000 C   0  0  0  0  0  0  0  0  0  0  0  0
  1 15  1  0  0  0  0
  2 18  1  0  0  0  0
  3 25  3  0  0  0  0
  4 26  3  0  0  0  0
  5 27  3  0  0  0  0
  6 28  3  0  0  0  0
  7  9  1  0  0  0  0
  7 11  2  0  0  0  0
  7 13  1  0  0  0  0
  8 10  1  0  0  0  0
  8 12  1  0  0  0  0
  8 14  2  0  0  0  0
  9 16  2  0  0  0  0
  9 17  1  0  0  0  0
 10 19  2  0  0  0  0
 10 20  1  0  0  0  0
 11 15  1  0  0  0  0
 11 25  1  0  0  0  0
 12 18  2  0  0  0  0
 12 26  1  0  0  0  0
 13 21  2  0  0  0  0
 13 27  1  0  0  0  0
 14 22  1  0  0  0  0
 14 28  1  0  0  0  0
 15 23  2  0  0  0  0
 16 19  1  0  0  0  0
 17 20  2  0  0  0  0
 18 24  1  0  0  0  0
 21 23  1  0  0  0  0
 22 24  2  0  0  0  0
M  END
> <PUBCHEM_COMPOUND_ID_TYPE>
0

> <PUBCHEM_TOTAL_CHARGE>
0

> <PUBCHEM_SUBSTANCE_ID>
310944641

> <PUBCHEM_SUBSTANCE_VERSION>
1

> <PUBCHEM_EXT_DATASOURCE_NAME>
4488

> <PUBCHEM_EXT_DATASOURCE_REGID>
SCHEMBL16122719

> <PUBCHEM_SUBSTANCE_COMMENT>
InChI=1S/C22H8F2N4/c23-19-7-5-15(9-25)21(17(19)11-27)13-1-2-14(4-3-13)22-16(10-26)6-8-20(24)18(22)12-28/h1-8H
InChIKey=MTFLHJWKSBYZCT-UHFFFAOYSA-N

> <PUBCHEM_SUBSTANCE_SYNONYM>
SCHEMBL16122719

> <PUBCHEM_XREF_EXT_ID>
SCHEMBL16122719

> <PUBCHEM_EXT_DATASOURCE_URL>
https://www.surechembl.org/

> <PUBCHEM_EXT_SUBSTANCE_URL>
https://www.surechembl.org/chemical/SCHEMBL16122719

> <PUBCHEM_CID_ASSOCIATIONS>
117610871  1

> <PUBCHEM_COORDINATE_TYPE>
1
3

$$$$
