310942215
  -OEChem-07211613022D

 19 20  0     1  0  0  0  0  0999 V2000
    0.7209    1.4295    0.0000 Cl  0  0  0  0  0  0  0  0  0  0  0  0
   -0.7209   -1.0566    0.0000 F   0  0  0  0  0  0  0  0  0  0  0  0
    0.7085   -0.2237    0.0000 O   0  0  0  0  0  0  0  0  0  0  0  0
   -2.8714    0.2113    0.0000 N   0  0  0  0  0  0  0  0  0  0  0  0
   -0.0124    0.1989    0.0000 C   0  0  0  0  0  0  0  0  0  0  0  0
   -0.7209   -0.2237    0.0000 C   0  0  0  0  0  0  0  0  0  0  0  0
   -1.4295    0.1865    0.0000 C   0  0  0  0  0  0  0  0  0  0  0  0
    0.0000    1.0192    0.0000 C   0  0  0  0  0  0  0  0  0  0  0  0
   -1.4170    1.0192    0.0000 C   0  0  0  0  0  0  0  0  0  0  0  0
   -2.1504   -0.2237    0.0000 C   0  0  3  0  0  0  0  0  0  0  0  0
   -0.7209    1.4170    0.0000 C   0  0  0  0  0  0  0  0  0  0  0  0
    1.4419    0.1865    0.0000 C   0  0  0  0  0  0  0  0  0  0  0  0
   -2.1504   -1.0566    0.0000 C   0  0  0  0  0  0  0  0  0  0  0  0
    2.1628   -0.2237    0.0000 C   0  0  0  0  0  0  0  0  0  0  0  0
    1.4543    1.0192    0.0000 C   0  0  0  0  0  0  0  0  0  0  0  0
    2.8714    0.1865    0.0000 C   0  0  0  0  0  0  0  0  0  0  0  0
    2.1504    1.4170    0.0000 C   0  0  0  0  0  0  0  0  0  0  0  0
    2.8714    1.0192    0.0000 C   0  0  0  0  0  0  0  0  0  0  0  0
   -2.8714   -1.4295    0.0000 C   0  0  0  0  0  0  0  0  0  0  0  0
  1  8  1  0  0  0  0
  2  6  1  0  0  0  0
  3  5  1  0  0  0  0
  3 12  1  0  0  0  0
 10  4  1  1  0  0  0
  5  6  2  0  0  0  0
  5  8  1  0  0  0  0
  6  7  1  0  0  0  0
  7  9  2  0  0  0  0
  7 10  1  0  0  0  0
  8 11  2  0  0  0  0
  9 11  1  0  0  0  0
 10 13  1  0  0  0  0
 12 14  2  0  0  0  0
 12 15  1  0  0  0  0
 13 19  2  0  0  0  0
 14 16  1  0  0  0  0
 15 17  2  0  0  0  0
 16 18  2  0  0  0  0
 17 18  1  0  0  0  0
M  END
> <PUBCHEM_COMPOUND_ID_TYPE>
0

> <PUBCHEM_TOTAL_CHARGE>
0

> <PUBCHEM_SUBSTANCE_ID>
310942215

> <PUBCHEM_SUBSTANCE_VERSION>
1

> <PUBCHEM_EXT_DATASOURCE_NAME>
4488

> <PUBCHEM_EXT_DATASOURCE_REGID>
SCHEMBL16120250

> <PUBCHEM_SUBSTANCE_COMMENT>
InChI=1S/C15H13ClFNO/c1-2-13(18)11-8-9-12(16)15(14(11)17)19-10-6-4-3-5-7-10/h2-9,13H,1,18H2/t13-/m1/s1
InChIKey=SNQLPSQVHDJGLT-CYBMUJFWSA-N

> <PUBCHEM_SUBSTANCE_SYNONYM>
SCHEMBL16120250

> <PUBCHEM_XREF_EXT_ID>
SCHEMBL16120250

> <PUBCHEM_EXT_DATASOURCE_URL>
https://www.surechembl.org/

> <PUBCHEM_EXT_SUBSTANCE_URL>
https://www.surechembl.org/chemical/SCHEMBL16120250

> <PUBCHEM_CID_ASSOCIATIONS>
117608866  1

> <PUBCHEM_COORDINATE_TYPE>
1
3

> <PUBCHEM_BONDANNOTATIONS>
10  4  5

$$$$
