310945709
  -OEChem-07211613022D

 38 40  0     1  0  0  0  0  0999 V2000
   -4.0522    0.1732    0.0000 S   0  0  0  0  0  0  0  0  0  0  0  0
    2.4729   -1.0044    0.0000 O   0  0  0  0  0  0  0  0  0  0  0  0
    0.3117    1.0737    0.0000 O   0  0  0  0  0  0  0  0  0  0  0  0
   -1.8495   -1.0044    0.0000 O   0  0  0  0  0  0  0  0  0  0  0  0
    4.6341    2.7361    0.0000 O   0  0  0  0  0  0  0  0  0  0  0  0
    4.8419    0.9489    0.0000 O   0  0  0  0  0  0  0  0  0  0  0  0
    1.0321   -0.1593    0.0000 N   0  0  0  0  0  0  0  0  0  0  0  0
    3.1933    0.2563    0.0000 N   0  0  0  0  0  0  0  0  0  0  0  0
   -1.1291    0.2563    0.0000 N   0  0  0  0  0  0  0  0  0  0  0  0
   -4.1907   -1.1568    0.0000 N   0  0  0  0  0  0  0  0  0  0  0  0
   -5.4376   -0.3532    0.0000 N   0  0  0  0  0  0  0  0  0  0  0  0
    1.7525    0.2701    0.0000 C   0  0  3  0  0  0  0  0  0  0  0  0
    2.4868   -0.1178    0.0000 C   0  0  0  0  0  0  0  0  0  0  0  0
    0.2978    0.2563    0.0000 C   0  0  0  0  0  0  0  0  0  0  0  0
    1.7525    1.1014    0.0000 C   0  0  0  0  0  0  0  0  0  0  0  0
    2.4729    1.5170    0.0000 C   0  0  0  0  0  0  0  0  0  0  0  0
    4.1492   -0.2563    0.0000 C   0  0  3  0  0  0  0  0  0  0  0  0
   -0.3810   -0.1316    0.0000 C   0  0  3  0  0  0  0  0  0  0  0  0
   -3.2764   -0.1454    0.0000 C   0  0  0  0  0  0  0  0  0  0  0  0
   -1.8356   -0.1178    0.0000 C   0  0  0  0  0  0  0  0  0  0  0  0
    4.1492   -1.3646    0.0000 C   0  0  0  0  0  0  0  0  0  0  0  0
   -2.5837    0.2701    0.0000 C   0  0  0  0  0  0  0  0  0  0  0  0
    4.7864    0.1316    0.0000 C   0  0  0  0  0  0  0  0  0  0  0  0
    3.1933    1.1152    0.0000 C   0  0  0  0  0  0  0  0  0  0  0  0
    2.4868    2.3482    0.0000 C   0  0  0  0  0  0  0  0  0  0  0  0
    3.4011   -1.7525    0.0000 C   0  0  0  0  0  0  0  0  0  0  0  0
   -4.6064   -0.4225    0.0000 C   0  0  0  0  0  0  0  0  0  0  0  0
   -3.3872   -0.9767    0.0000 C   0  0  0  0  0  0  0  0  0  0  0  0
    3.9137    2.3620    0.0000 C   0  0  0  0  0  0  0  0  0  0  0  0
    3.9137    1.5170    0.0000 C   0  0  0  0  0  0  0  0  0  0  0  0
    3.1794    2.7500    0.0000 C   0  0  0  0  0  0  0  0  0  0  0  0
    2.6530   -1.4338    0.0000 C   0  0  0  0  0  0  0  0  0  0  0  0
    3.3180   -2.5837    0.0000 C   0  0  0  0  0  0  0  0  0  0  0  0
   -0.4087   -0.9489    0.0000 C   0  0  0  0  0  0  0  0  0  0  0  0
    2.1127   -2.0573    0.0000 C   0  0  0  0  0  0  0  0  0  0  0  0
    2.5144   -2.7500    0.0000 C   0  0  0  0  0  0  0  0  0  0  0  0
    5.4376   -0.1871    0.0000 C   0  0  0  0  0  0  0  0  0  0  0  0
    5.3822    2.3344    0.0000 C   0  0  0  0  0  0  0  0  0  0  0  0
  1 19  1  0  0  0  0
  1 27  1  0  0  0  0
  2 13  2  0  0  0  0
  3 14  2  0  0  0  0
  4 20  2  0  0  0  0
  5 29  1  0  0  0  0
  5 38  1  0  0  0  0
  6 23  2  0  0  0  0
 12  7  1  1  0  0  0
  7 14  1  0  0  0  0
  8 13  1  0  0  0  0
 17  8  1  6  0  0  0
  9 18  1  0  0  0  0
  9 20  1  0  0  0  0
 10 27  2  0  0  0  0
 10 28  1  0  0  0  0
 11 27  1  0  0  0  0
 12 13  1  0  0  0  0
 12 15  1  0  0  0  0
 14 18  1  0  0  0  0
 15 16  1  0  0  0  0
 16 24  2  0  0  0  0
 16 25  1  0  0  0  0
 17 21  1  0  0  0  0
 17 23  1  0  0  0  0
 18 34  1  6  0  0  0
 19 22  1  0  0  0  0
 19 28  2  0  0  0  0
 20 22  1  0  0  0  0
 21 26  1  0  0  0  0
 23 37  1  0  0  0  0
 24 30  1  0  0  0  0
 25 31  2  0  0  0  0
 26 32  2  0  0  0  0
 26 33  1  0  0  0  0
 29 30  2  0  0  0  0
 29 31  1  0  0  0  0
 32 35  1  0  0  0  0
 33 36  1  0  0  0  0
 35 36  1  0  0  0  0
M  END
> <PUBCHEM_COMPOUND_ID_TYPE>
0

> <PUBCHEM_TOTAL_CHARGE>
0

> <PUBCHEM_SUBSTANCE_ID>
310945709

> <PUBCHEM_SUBSTANCE_VERSION>
1

> <PUBCHEM_EXT_DATASOURCE_NAME>
4488

> <PUBCHEM_EXT_DATASOURCE_REGID>
SCHEMBL16123810

> <PUBCHEM_SUBSTANCE_COMMENT>
InChI=1S/C27H35N5O5S/c1-16(30-24(34)14-21-15-29-27(28)38-21)25(35)32-23(13-19-8-10-20(37-3)11-9-19)26(36)31-22(17(2)33)12-18-6-4-5-7-18/h6,8-11,15-16,22-23H,4-5,7,12-14H2,1-3H3,(H2,28,29)(H,30,34)(H,31,36)(H,32,35)/t16-,22-,23-/m0/s1
InChIKey=DOWNZKHHCJRPBX-GMWOSMDTSA-N

> <PUBCHEM_SUBSTANCE_SYNONYM>
SCHEMBL16123810

> <PUBCHEM_XREF_EXT_ID>
SCHEMBL16123810

> <PUBCHEM_EXT_DATASOURCE_URL>
https://www.surechembl.org/

> <PUBCHEM_EXT_SUBSTANCE_URL>
https://www.surechembl.org/chemical/SCHEMBL16123810

> <PUBCHEM_CID_ASSOCIATIONS>
117611706  1

> <PUBCHEM_COORDINATE_TYPE>
1
3

> <PUBCHEM_BONDANNOTATIONS>
18  34  6
12  7  5
17  8  6

$$$$
