310941547
  -OEChem-07211613022D

 15 16  0     0  0  0  0  0  0999 V2000
   -1.4224   -1.6569    0.0000 Cl  0  0  0  0  0  0  0  0  0  0  0  0
    0.0162   -0.8325    0.0000 O   0  0  0  0  0  0  0  0  0  0  0  0
    1.4548   -0.8325    0.0000 O   0  0  0  0  0  0  0  0  0  0  0  0
    2.1498    0.4284    0.0000 O   0  0  0  0  0  0  0  0  0  0  0  0
   -0.7274   -0.4284    0.0000 C   0  0  0  0  0  0  0  0  0  0  0  0
   -0.7112    0.4446    0.0000 C   0  0  0  0  0  0  0  0  0  0  0  0
    0.7597    0.4446    0.0000 C   0  0  0  0  0  0  0  0  0  0  0  0
    0.7274   -0.4284    0.0000 C   0  0  0  0  0  0  0  0  0  0  0  0
   -0.0162    0.8163    0.0000 C   0  0  0  0  0  0  0  0  0  0  0  0
   -1.4063   -0.8163    0.0000 C   0  0  0  0  0  0  0  0  0  0  0  0
   -1.4224    0.8002    0.0000 C   0  0  0  0  0  0  0  0  0  0  0  0
    1.4224    0.8325    0.0000 C   0  0  0  0  0  0  0  0  0  0  0  0
   -2.1498   -0.4284    0.0000 C   0  0  0  0  0  0  0  0  0  0  0  0
   -2.1498    0.4284    0.0000 C   0  0  0  0  0  0  0  0  0  0  0  0
    1.4548    1.6569    0.0000 C   0  0  0  0  0  0  0  0  0  0  0  0
  1 10  1  0  0  0  0
  2  5  1  0  0  0  0
  2  8  1  0  0  0  0
  3  8  2  0  0  0  0
  4 12  2  0  0  0  0
  5  6  1  0  0  0  0
  5 10  2  0  0  0  0
  6  9  1  0  0  0  0
  6 11  2  0  0  0  0
  7  8  1  0  0  0  0
  7  9  2  0  0  0  0
  7 12  1  0  0  0  0
 10 13  1  0  0  0  0
 11 14  1  0  0  0  0
 12 15  1  0  0  0  0
 13 14  2  0  0  0  0
M  END
> <PUBCHEM_COMPOUND_ID_TYPE>
0

> <PUBCHEM_TOTAL_CHARGE>
0

> <PUBCHEM_SUBSTANCE_ID>
310941547

> <PUBCHEM_SUBSTANCE_VERSION>
1

> <PUBCHEM_EXT_DATASOURCE_NAME>
4488

> <PUBCHEM_EXT_DATASOURCE_REGID>
SCHEMBL16119578

> <PUBCHEM_SUBSTANCE_COMMENT>
InChI=1S/C11H7ClO3/c1-6(13)8-5-7-3-2-4-9(12)10(7)15-11(8)14/h2-5H,1H3
InChIKey=ZHDHIXQUQDEZEX-UHFFFAOYSA-N

> <PUBCHEM_SUBSTANCE_SYNONYM>
SCHEMBL16119578

> <PUBCHEM_XREF_EXT_ID>
SCHEMBL16119578

> <PUBCHEM_EXT_DATASOURCE_URL>
https://www.surechembl.org/

> <PUBCHEM_EXT_SUBSTANCE_URL>
https://www.surechembl.org/chemical/SCHEMBL16119578

> <PUBCHEM_CID_ASSOCIATIONS>
117608353  1

> <PUBCHEM_COORDINATE_TYPE>
1
3

$$$$
