310948660
  -OEChem-07211613022D

 35 40  0     1  0  0  0  0  0999 V2000
   -2.6015    2.4492    0.0000 O   0  0  0  0  0  0  0  0  0  0  0  0
   -0.6919   -2.8367    0.0000 O   0  0  0  0  0  0  0  0  0  0  0  0
    1.3146   -4.1098    0.0000 O   0  0  0  0  0  0  0  0  0  0  0  0
    0.1661    2.3108    0.0000 N   0  0  0  0  0  0  0  0  0  0  0  0
   -0.1661    1.5498    0.0000 N   0  0  0  0  0  0  0  0  0  0  0  0
   -1.5498    1.0239    0.0000 N   0  0  0  0  0  0  0  0  0  0  0  0
    0.4566   -1.8957    0.0000 N   0  0  0  0  0  0  0  0  0  0  0  0
   -1.8957    3.7085    0.0000 N   0  0  0  0  0  0  0  0  0  0  0  0
    1.0239    0.2906    0.0000 N   0  0  0  0  0  0  0  0  0  0  0  0
   -1.1485    2.4631    0.0000 C   0  0  0  0  0  0  0  0  0  0  0  0
   -0.4566    2.8782    0.0000 C   0  0  0  0  0  0  0  0  0  0  0  0
   -0.9963    1.6605    0.0000 C   0  0  0  0  0  0  0  0  0  0  0  0
    0.9824    2.4907    0.0000 C   0  0  3  0  0  0  0  0  0  0  0  0
   -1.8818    2.8782    0.0000 C   0  0  0  0  0  0  0  0  0  0  0  0
   -0.7749   -1.3422    0.0000 C   0  0  0  0  0  0  0  0  0  0  0  0
   -0.2214   -0.7195    0.0000 C   0  0  0  0  0  0  0  0  0  0  0  0
   -0.3598   -2.0479    0.0000 C   0  0  0  0  0  0  0  0  0  0  0  0
   -1.2869    0.2352    0.0000 C   0  0  0  0  0  0  0  0  0  0  0  0
   -0.4428    3.6946    0.0000 C   0  0  0  0  0  0  0  0  0  0  0  0
    0.5397   -1.0655    0.0000 C   0  0  0  0  0  0  0  0  0  0  0  0
   -0.4844    0.0553    0.0000 C   0  0  0  0  0  0  0  0  0  0  0  0
    1.5636    1.8680    0.0000 C   0  0  3  0  0  0  0  0  0  0  0  0
   -1.5775   -1.1762    0.0000 C   0  0  0  0  0  0  0  0  0  0  0  0
    1.0793   -2.4631    0.0000 C   0  0  0  0  0  0  0  0  0  0  0  0
   -1.8265   -0.3736    0.0000 C   0  0  0  0  0  0  0  0  0  0  0  0
   -1.1623    4.1098    0.0000 C   0  0  0  0  0  0  0  0  0  0  0  0
    1.2454    3.2794    0.0000 C   0  0  0  0  0  0  0  0  0  0  0  0
    2.3524    2.0479    0.0000 C   0  0  0  0  0  0  0  0  0  0  0  0
    1.2869    1.0932    0.0000 C   0  0  0  0  0  0  0  0  0  0  0  0
    2.0618    3.4317    0.0000 C   0  0  0  0  0  0  0  0  0  0  0  0
    0.4290   -2.9612    0.0000 C   0  0  0  0  0  0  0  0  0  0  0  0
    1.8404   -2.7814    0.0000 C   0  0  0  0  0  0  0  0  0  0  0  0
    2.6015    2.8367    0.0000 C   0  0  0  0  0  0  0  0  0  0  0  0
    0.5259   -3.7915    0.0000 C   0  0  0  0  0  0  0  0  0  0  0  0
    1.9510   -3.5977    0.0000 C   0  0  0  0  0  0  0  0  0  0  0  0
  1 14  2  0  0  0  0
  2 17  2  0  0  0  0
  3 34  1  0  0  0  0
  3 35  1  0  0  0  0
  4  5  1  0  0  0  0
  4 11  1  0  0  0  0
 13  4  1  1  0  0  0
  5 12  2  0  0  0  0
  6 12  1  0  0  0  0
  6 18  1  0  0  0  0
  7 17  1  0  0  0  0
  7 20  1  0  0  0  0
  7 24  1  0  0  0  0
  8 14  1  0  0  0  0
  8 26  1  0  0  0  0
  9 29  3  0  0  0  0
 10 11  2  0  0  0  0
 10 12  1  0  0  0  0
 10 14  1  0  0  0  0
 11 19  1  0  0  0  0
 13 22  1  0  0  0  0
 13 27  1  0  0  0  0
 15 16  1  0  0  0  0
 15 17  1  0  0  0  0
 15 23  2  0  0  0  0
 16 20  1  0  0  0  0
 16 21  2  0  0  0  0
 18 21  1  0  0  0  0
 18 25  2  0  0  0  0
 19 26  2  0  0  0  0
 22 28  1  0  0  0  0
 22 29  1  6  0  0  0
 23 25  1  0  0  0  0
 24 31  1  0  0  0  0
 24 32  1  0  0  0  0
 27 30  1  0  0  0  0
 28 33  1  0  0  0  0
 30 33  1  0  0  0  0
 31 34  1  0  0  0  0
 32 35  1  0  0  0  0
M  END
> <PUBCHEM_COMPOUND_ID_TYPE>
0

> <PUBCHEM_TOTAL_CHARGE>
0

> <PUBCHEM_SUBSTANCE_ID>
310948660

> <PUBCHEM_SUBSTANCE_VERSION>
1

> <PUBCHEM_EXT_DATASOURCE_NAME>
4488

> <PUBCHEM_EXT_DATASOURCE_REGID>
SCHEMBL16126844

> <PUBCHEM_SUBSTANCE_COMMENT>
InChI=1S/C26H28N6O3/c27-14-16-3-1-2-4-21(16)32-22-7-10-28-25(33)23(22)24(30-32)29-18-5-6-20-17(13-18)15-31(26(20)34)19-8-11-35-12-9-19/h5-7,10,13,16,19,21H,1-4,8-9,11-12,15H2,(H,28,33)(H,29,30)/t16-,21+/m1/s1
InChIKey=UKJBUBBQJRMSNN-IERDGZPVSA-N

> <PUBCHEM_SUBSTANCE_SYNONYM>
SCHEMBL16126844

> <PUBCHEM_XREF_EXT_ID>
SCHEMBL16126844

> <PUBCHEM_EXT_DATASOURCE_URL>
https://www.surechembl.org/

> <PUBCHEM_EXT_SUBSTANCE_URL>
https://www.surechembl.org/chemical/SCHEMBL16126844

> <PUBCHEM_CID_ASSOCIATIONS>
117614202  1

> <PUBCHEM_COORDINATE_TYPE>
1
3

> <PUBCHEM_BONDANNOTATIONS>
22  29  6
13  4  5

$$$$
