310947176
  -OEChem-07211613022D

 23 24  0     0  0  0  0  0  0999 V2000
    0.8693    3.1761    0.0000 S   0  0  0  0  0  0  0  0  0  0  0  0
   -1.9885    4.8261    0.0000 O   0  0  0  0  0  0  0  0  0  0  0  0
    3.7272    5.6511    0.0000 O   0  0  0  0  0  0  0  0  0  0  0  0
   -2.7030    3.5886    0.0000 O   0  0  0  0  0  0  0  0  0  0  0  0
    0.1549    3.5886    0.0000 C   0  0  0  0  0  0  0  0  0  0  0  0
    1.5838    3.5886    0.0000 C   0  0  0  0  0  0  0  0  0  0  0  0
   -1.2741    4.4136    0.0000 C   0  0  0  0  0  0  0  0  0  0  0  0
    3.0128    4.4136    0.0000 C   0  0  0  0  0  0  0  0  0  0  0  0
    0.1549    4.4136    0.0000 C   0  0  0  0  0  0  0  0  0  0  0  0
   -0.5596    3.1761    0.0000 C   0  0  0  0  0  0  0  0  0  0  0  0
    1.5838    4.4136    0.0000 C   0  0  0  0  0  0  0  0  0  0  0  0
    2.2983    3.1761    0.0000 C   0  0  0  0  0  0  0  0  0  0  0  0
   -0.5596    4.8261    0.0000 C   0  0  0  0  0  0  0  0  0  0  0  0
   -1.2741    3.5886    0.0000 C   0  0  0  0  0  0  0  0  0  0  0  0
    2.2983    4.8261    0.0000 C   0  0  0  0  0  0  0  0  0  0  0  0
    3.0128    3.5886    0.0000 C   0  0  0  0  0  0  0  0  0  0  0  0
    3.7272    4.8261    0.0000 C   0  0  0  0  0  0  0  0  0  0  0  0
   -2.7030    4.4136    0.0000 C   0  0  0  0  0  0  0  0  0  0  0  0
   -3.4175    4.8261    0.0000 C   0  0  0  0  0  0  0  0  0  0  0  0
    4.4417    4.4136    0.0000 C   0  0  0  0  0  0  0  0  0  0  0  0
   -4.1320    4.4136    0.0000 C   0  0  0  0  0  0  0  0  0  0  0  0
   -3.4175    5.6511    0.0000 C   0  0  0  0  0  0  0  0  0  0  0  0
    5.1562    4.8261    0.0000 C   0  0  0  0  0  0  0  0  0  0  0  0
  1  5  1  0  0  0  0
  1  6  1  0  0  0  0
  2  7  1  0  0  0  0
  2 18  1  0  0  0  0
  3 17  2  0  0  0  0
  4 18  2  0  0  0  0
  5  9  2  0  0  0  0
  5 10  1  0  0  0  0
  6 11  2  0  0  0  0
  6 12  1  0  0  0  0
  7 13  2  0  0  0  0
  7 14  1  0  0  0  0
  8 15  2  0  0  0  0
  8 16  1  0  0  0  0
  8 17  1  0  0  0  0
  9 13  1  0  0  0  0
 10 14  2  0  0  0  0
 11 15  1  0  0  0  0
 12 16  2  0  0  0  0
 17 20  1  0  0  0  0
 18 19  1  0  0  0  0
 19 21  2  0  0  0  0
 19 22  1  0  0  0  0
 20 23  1  0  0  0  0
M  END
> <PUBCHEM_COMPOUND_ID_TYPE>
0

> <PUBCHEM_TOTAL_CHARGE>
0

> <PUBCHEM_SUBSTANCE_ID>
310947176

> <PUBCHEM_SUBSTANCE_VERSION>
1

> <PUBCHEM_EXT_DATASOURCE_NAME>
4488

> <PUBCHEM_EXT_DATASOURCE_REGID>
SCHEMBL16125330

> <PUBCHEM_SUBSTANCE_COMMENT>
InChI=1S/C19H18O3S/c1-4-18(20)14-5-9-16(10-6-14)23-17-11-7-15(8-12-17)22-19(21)13(2)3/h5-12H,2,4H2,1,3H3
InChIKey=RQQHHNWZXTVYHB-UHFFFAOYSA-N

> <PUBCHEM_SUBSTANCE_SYNONYM>
SCHEMBL16125330

> <PUBCHEM_XREF_EXT_ID>
SCHEMBL16125330

> <PUBCHEM_EXT_DATASOURCE_URL>
https://www.surechembl.org/

> <PUBCHEM_EXT_SUBSTANCE_URL>
https://www.surechembl.org/chemical/SCHEMBL16125330

> <PUBCHEM_CID_ASSOCIATIONS>
117613001  1

> <PUBCHEM_COORDINATE_TYPE>
1
3

$$$$
