310942589
  -OEChem-07211613022D

 43 48  0     1  0  0  0  0  0999 V2000
    1.8092    0.7099    0.0000 O   0  0  0  0  0  0  0  0  0  0  0  0
    2.3283   -1.3817    0.0000 O   0  0  0  0  0  0  0  0  0  0  0  0
    1.0763   -1.3054    0.0000 O   0  0  0  0  0  0  0  0  0  0  0  0
    3.2749    0.3741    0.0000 N   0  0  0  0  0  0  0  0  0  0  0  0
    3.9619   -0.9542    0.0000 N   0  0  0  0  0  0  0  0  0  0  0  0
   -0.3130    0.2672    0.0000 N   0  0  3  0  0  0  0  0  0  0  0  0
    5.3971   -0.8779    0.0000 N   0  0  0  0  0  0  0  0  0  0  0  0
    6.0536    0.4046    0.0000 N   0  0  0  0  0  0  0  0  0  0  0  0
   -2.6947   -1.2290    0.0000 N   0  0  0  0  0  0  0  0  0  0  0  0
   -3.3665   -2.3893    0.0000 N   0  0  0  0  0  0  0  0  0  0  0  0
    3.9161   -0.1145    0.0000 C   0  0  0  0  0  0  0  0  0  0  0  0
    2.4657    0.1908    0.0000 C   0  0  3  0  0  0  0  0  0  0  0  0
    4.5878    0.3282    0.0000 C   0  0  0  0  0  0  0  0  0  0  0  0
    4.3741    1.1222    0.0000 C   0  0  0  0  0  0  0  0  0  0  0  0
    2.1145   -0.5725    0.0000 C   0  0  3  0  0  0  0  0  0  0  0  0
    3.5497    1.1527    0.0000 C   0  0  0  0  0  0  0  0  0  0  0  0
    1.1069    0.3130    0.0000 C   0  0  3  0  0  0  0  0  0  0  0  0
    1.2901   -0.4962    0.0000 C   0  0  3  0  0  0  0  0  0  0  0  0
    5.3512   -0.0382    0.0000 C   0  0  0  0  0  0  0  0  0  0  0  0
    0.3741    0.7099    0.0000 C   0  0  0  0  0  0  0  0  0  0  0  0
   -0.5420   -0.5267    0.0000 C   0  0  0  0  0  0  0  0  0  0  0  0
    4.8932    1.7940    0.0000 C   0  0  0  0  0  0  0  0  0  0  0  0
    4.6947   -1.3054    0.0000 C   0  0  0  0  0  0  0  0  0  0  0  0
   -0.8321   -1.6259    0.0000 C   0  0  0  0  0  0  0  0  0  0  0  0
   -1.2290   -0.9084    0.0000 C   0  0  0  0  0  0  0  0  0  0  0  0
   -0.1450   -1.2138    0.0000 C   0  0  0  0  0  0  0  0  0  0  0  0
   -1.0763    0.6947    0.0000 C   0  0  0  0  0  0  0  0  0  0  0  0
   -3.5344   -1.0306    0.0000 C   0  0  0  0  0  0  0  0  0  0  0  0
   -3.9466   -1.7481    0.0000 C   0  0  0  0  0  0  0  0  0  0  0  0
   -2.6337   -2.0229    0.0000 C   0  0  0  0  0  0  0  0  0  0  0  0
   -4.8016   -0.3282    0.0000 C   0  0  0  0  0  0  0  0  0  0  0  0
   -3.9466   -0.3435    0.0000 C   0  0  0  0  0  0  0  0  0  0  0  0
   -1.0458   -2.4199    0.0000 C   0  0  0  0  0  0  0  0  0  0  0  0
   -5.2139    0.3893    0.0000 C   0  0  0  0  0  0  0  0  0  0  0  0
   -1.9160   -2.4199    0.0000 C   0  0  0  0  0  0  0  0  0  0  0  0
   -4.7863   -1.7481    0.0000 C   0  0  0  0  0  0  0  0  0  0  0  0
    5.4123    2.4199    0.0000 C   0  0  0  0  0  0  0  0  0  0  0  0
   -5.1986   -1.0458    0.0000 C   0  0  0  0  0  0  0  0  0  0  0  0
   -1.0611    1.5191    0.0000 C   0  0  0  0  0  0  0  0  0  0  0  0
   -1.7787    0.2825    0.0000 C   0  0  0  0  0  0  0  0  0  0  0  0
   -6.0536    0.3435    0.0000 C   0  0  0  0  0  0  0  0  0  0  0  0
   -5.6566    1.0916    0.0000 C   0  0  0  0  0  0  0  0  0  0  0  0
   -4.7863    1.0763    0.0000 C   0  0  0  0  0  0  0  0  0  0  0  0
 12  1  1  1  0  0  0
  1 17  1  0  0  0  0
 15  2  1  6  0  0  0
 18  3  1  6  0  0  0
  4 11  1  0  0  0  0
  4 12  1  0  0  0  0
  4 16  1  0  0  0  0
  5 11  1  0  0  0  0
  5 23  2  0  0  0  0
  6 20  1  0  0  0  0
 21  6  1  1  0  0  0
  6 27  1  0  0  0  0
  7 19  2  0  0  0  0
  7 23  1  0  0  0  0
  8 19  1  0  0  0  0
  9 28  1  0  0  0  0
  9 30  2  0  0  0  0
 10 29  1  0  0  0  0
 10 30  1  0  0  0  0
 11 13  2  0  0  0  0
 12 15  1  0  0  0  0
 13 14  1  0  0  0  0
 13 19  1  0  0  0  0
 14 16  2  0  0  0  0
 14 22  1  0  0  0  0
 15 18  1  0  0  0  0
 17 18  1  0  0  0  0
 17 20  1  1  0  0  0
 21 25  1  0  0  0  0
 21 26  1  0  0  0  0
 22 37  3  0  0  0  0
 24 25  1  0  0  0  0
 24 26  1  0  0  0  0
 24 33  1  6  0  0  0
 27 39  1  0  0  0  0
 27 40  1  0  0  0  0
 28 29  2  0  0  0  0
 28 32  1  0  0  0  0
 29 36  1  0  0  0  0
 30 35  1  0  0  0  0
 31 32  2  0  0  0  0
 31 34  1  0  0  0  0
 31 38  1  0  0  0  0
 33 35  1  0  0  0  0
 34 41  1  0  0  0  0
 34 42  1  0  0  0  0
 34 43  1  0  0  0  0
 36 38  2  0  0  0  0
M  END
> <PUBCHEM_COMPOUND_ID_TYPE>
0

> <PUBCHEM_TOTAL_CHARGE>
0

> <PUBCHEM_SUBSTANCE_ID>
310942589

> <PUBCHEM_SUBSTANCE_VERSION>
1

> <PUBCHEM_EXT_DATASOURCE_NAME>
4488

> <PUBCHEM_EXT_DATASOURCE_REGID>
SCHEMBL16120634

> <PUBCHEM_SUBSTANCE_COMMENT>
InChI=1S/C33H43N7O3/c1-7-20-15-40(31-27(20)30(34)35-17-36-31)32-29(42)28(41)25(43-32)16-39(18(2)3)22-12-19(13-22)8-11-26-37-23-10-9-21(33(4,5)6)14-24(23)38-26/h1,9-10,14-15,17-19,22,25,28-29,32,41-42H,8,11-13,16H2,2-6H3,(H,37,38)(H2,34,35,36)/t19-,22-,25-,28-,29-,32-/m1/s1
InChIKey=NCQNSKHFRSTFPD-GWULKWFHSA-N

> <PUBCHEM_SUBSTANCE_SYNONYM>
SCHEMBL16120634

> <PUBCHEM_XREF_EXT_ID>
SCHEMBL16120634

> <PUBCHEM_EXT_DATASOURCE_URL>
https://www.surechembl.org/

> <PUBCHEM_EXT_SUBSTANCE_URL>
https://www.surechembl.org/chemical/SCHEMBL16120634

> <PUBCHEM_CID_ASSOCIATIONS>
86275677  1

> <PUBCHEM_COORDINATE_TYPE>
1
3

> <PUBCHEM_BONDANNOTATIONS>
12  1  5
17  20  5
15  2  6
24  33  6
18  3  6
21  6  5

$$$$
