310943030
  -OEChem-07211613022D

 34 38  0     1  0  0  0  0  0999 V2000
    2.3040   -3.3530    0.0000 O   0  0  0  0  0  0  0  0  0  0  0  0
   -3.1468   -1.3268    0.0000 O   0  0  0  0  0  0  0  0  0  0  0  0
   -1.6944    3.1916    0.0000 O   0  0  0  0  0  0  0  0  0  0  0  0
   -1.6406    0.9861    0.0000 N   0  0  0  0  0  0  0  0  0  0  0  0
   -1.1565    0.3227    0.0000 N   0  0  0  0  0  0  0  0  0  0  0  0
    0.8876   -2.9764    0.0000 N   0  0  0  0  0  0  0  0  0  0  0  0
   -1.3896   -1.1296    0.0000 N   0  0  0  0  0  0  0  0  0  0  0  0
    2.6089   -1.9903    0.0000 N   0  0  0  0  0  0  0  0  0  0  0  0
   -3.8640   -0.0897    0.0000 N   0  0  0  0  0  0  0  0  0  0  0  0
    0.5469    0.7531    0.0000 N   0  0  0  0  0  0  0  0  0  0  0  0
    1.7841   -1.9723    0.0000 C   0  0  3  0  0  0  0  0  0  0  0  0
   -2.4295   -0.0717    0.0000 C   0  0  0  0  0  0  0  0  0  0  0  0
    1.0310   -1.6317    0.0000 C   0  0  0  0  0  0  0  0  0  0  0  0
   -2.4117    0.7531    0.0000 C   0  0  0  0  0  0  0  0  0  0  0  0
   -1.6406   -0.3586    0.0000 C   0  0  0  0  0  0  0  0  0  0  0  0
    0.4752   -2.2413    0.0000 C   0  0  0  0  0  0  0  0  0  0  0  0
    1.6944   -2.7971    0.0000 C   0  0  0  0  0  0  0  0  0  0  0  0
   -1.3717    1.8648    0.0000 C   0  0  3  0  0  0  0  0  0  0  0  0
   -0.5827   -1.2910    0.0000 C   0  0  0  0  0  0  0  0  0  0  0  0
   -3.1468   -0.4841    0.0000 C   0  0  0  0  0  0  0  0  0  0  0  0
   -0.3138   -2.0799    0.0000 C   0  0  0  0  0  0  0  0  0  0  0  0
    0.7621   -0.8606    0.0000 C   0  0  0  0  0  0  0  0  0  0  0  0
   -3.1647    1.1475    0.0000 C   0  0  0  0  0  0  0  0  0  0  0  0
   -0.0269   -0.6814    0.0000 C   0  0  0  0  0  0  0  0  0  0  0  0
   -0.5827    1.9544    0.0000 C   0  0  3  0  0  0  0  0  0  0  0  0
    1.8020   -1.1296    0.0000 C   0  0  0  0  0  0  0  0  0  0  0  0
   -3.8460    0.7531    0.0000 C   0  0  0  0  0  0  0  0  0  0  0  0
   -1.9275    2.3847    0.0000 C   0  0  0  0  0  0  0  0  0  0  0  0
    3.0213   -1.2552    0.0000 C   0  0  0  0  0  0  0  0  0  0  0  0
   -0.3317    2.7434    0.0000 C   0  0  0  0  0  0  0  0  0  0  0  0
   -0.0448    1.3627    0.0000 C   0  0  0  0  0  0  0  0  0  0  0  0
   -0.8876    3.3530    0.0000 C   0  0  0  0  0  0  0  0  0  0  0  0
    2.6089   -0.5379    0.0000 C   0  0  0  0  0  0  0  0  0  0  0  0
    3.8640   -1.2552    0.0000 C   0  0  0  0  0  0  0  0  0  0  0  0
  1 17  2  0  0  0  0
  2 20  2  0  0  0  0
  3 28  1  0  0  0  0
  3 32  1  0  0  0  0
  4  5  1  0  0  0  0
  4 14  1  0  0  0  0
  4 18  1  0  0  0  0
  5 15  2  0  0  0  0
  6 16  1  0  0  0  0
  6 17  1  0  0  0  0
  7 15  1  0  0  0  0
  7 19  1  0  0  0  0
  8 11  1  0  0  0  0
  8 29  1  0  0  0  0
  9 20  1  0  0  0  0
  9 27  1  0  0  0  0
 10 31  3  0  0  0  0
 11 13  1  0  0  0  0
 11 17  1  0  0  0  0
 11 26  1  0  0  0  0
 12 14  2  0  0  0  0
 12 15  1  0  0  0  0
 12 20  1  0  0  0  0
 13 16  2  0  0  0  0
 13 22  1  0  0  0  0
 14 23  1  0  0  0  0
 16 21  1  0  0  0  0
 18 25  1  0  0  0  0
 18 28  1  0  0  0  0
 19 21  2  0  0  0  0
 19 24  1  0  0  0  0
 22 24  2  0  0  0  0
 23 27  2  0  0  0  0
 25 30  1  0  0  0  0
 25 31  1  6  0  0  0
 29 33  1  0  0  0  0
 29 34  1  0  0  0  0
 30 32  1  0  0  0  0
M  END
> <PUBCHEM_COMPOUND_ID_TYPE>
0

> <PUBCHEM_TOTAL_CHARGE>
0

> <PUBCHEM_SUBSTANCE_ID>
310943030

> <PUBCHEM_SUBSTANCE_VERSION>
1

> <PUBCHEM_EXT_DATASOURCE_NAME>
4488

> <PUBCHEM_EXT_DATASOURCE_REGID>
SCHEMBL16121089

> <PUBCHEM_SUBSTANCE_COMMENT>
InChI=1S/C24H27N7O3/c1-13(2)29-24(3)16-5-4-15(10-17(16)28-23(24)33)27-21-20-18(6-8-26-22(20)32)31(30-21)19-12-34-9-7-14(19)11-25/h4-6,8,10,13-14,19,29H,7,9,12H2,1-3H3,(H,26,32)(H,27,30)(H,28,33)/t14-,19?,24?/m1/s1
InChIKey=RYCVMXONAHTSQD-UGRPMAQISA-N

> <PUBCHEM_SUBSTANCE_SYNONYM>
SCHEMBL16121089

> <PUBCHEM_XREF_EXT_ID>
SCHEMBL16121089

> <PUBCHEM_EXT_DATASOURCE_URL>
https://www.surechembl.org/

> <PUBCHEM_EXT_SUBSTANCE_URL>
https://www.surechembl.org/chemical/SCHEMBL16121089

> <PUBCHEM_CID_ASSOCIATIONS>
117609475  1

> <PUBCHEM_COORDINATE_TYPE>
1
3

> <PUBCHEM_BONDANNOTATIONS>
25  31  6

$$$$
