310948308
  -OEChem-07211613022D

 45 49  0     0  0  0  0  0  0999 V2000
    3.0475   -2.5005    0.0000 S   0  0  0  0  0  0  0  0  0  0  0  0
   -4.3846   -0.6772    0.0000 F   0  0  0  0  0  0  0  0  0  0  0  0
   -4.4714    0.4341    0.0000 F   0  0  0  0  0  0  0  0  0  0  0  0
   -3.3427    0.5036    0.0000 F   0  0  0  0  0  0  0  0  0  0  0  0
    3.0475    0.3820    0.0000 F   0  0  0  0  0  0  0  0  0  0  0  0
    3.3080    3.2298    0.0000 F   0  0  0  0  0  0  0  0  0  0  0  0
    2.1792    2.9173    0.0000 F   0  0  0  0  0  0  0  0  0  0  0  0
    3.5684    2.1012    0.0000 F   0  0  0  0  0  0  0  0  0  0  0  0
    3.7769   -2.0838    0.0000 O   0  0  0  0  0  0  0  0  0  0  0  0
    3.7769   -2.9173    0.0000 O   0  0  0  0  0  0  0  0  0  0  0  0
    2.4745    1.8059    0.0000 O   0  0  0  0  0  0  0  0  0  0  0  0
    4.4714   -0.4862    0.0000 O   0  0  0  0  0  0  0  0  0  0  0  0
   -1.9709   -1.0593    0.0000 N   0  0  0  0  0  0  0  0  0  0  0  0
   -1.1374    0.3820    0.0000 N   0  0  0  0  0  0  0  0  0  0  0  0
   -2.4745   -0.3820    0.0000 N   0  0  0  0  0  0  0  0  0  0  0  0
   -1.9709    0.4689    0.0000 N   0  0  0  0  0  0  0  0  0  0  0  0
   -2.1446    1.2850    0.0000 N   0  0  0  0  0  0  0  0  0  0  0  0
   -0.7206   -0.3299    0.0000 C   0  0  0  0  0  0  0  0  0  0  0  0
   -1.1374   -1.0419    0.0000 C   0  0  0  0  0  0  0  0  0  0  0  0
    0.5296   -1.0419    0.0000 C   0  0  0  0  0  0  0  0  0  0  0  0
   -0.7727    1.1461    0.0000 C   0  0  0  0  0  0  0  0  0  0  0  0
    0.1129   -0.3473    0.0000 C   0  0  0  0  0  0  0  0  0  0  0  0
    1.3805   -1.0593    0.0000 C   0  0  0  0  0  0  0  0  0  0  0  0
   -2.4745   -1.7191    0.0000 C   0  0  0  0  0  0  0  0  0  0  0  0
   -3.2385   -0.6252    0.0000 C   0  0  0  0  0  0  0  0  0  0  0  0
   -0.7206   -1.7539    0.0000 C   0  0  0  0  0  0  0  0  0  0  0  0
    2.6308   -1.7712    0.0000 C   0  0  0  0  0  0  0  0  0  0  0  0
    0.1129   -1.7539    0.0000 C   0  0  0  0  0  0  0  0  0  0  0  0
   -3.2559   -1.4412    0.0000 C   0  0  0  0  0  0  0  0  0  0  0  0
    0.0086    1.3197    0.0000 C   0  0  0  0  0  0  0  0  0  0  0  0
    3.0301   -1.0419    0.0000 C   0  0  0  0  0  0  0  0  0  0  0  0
    1.7799   -1.7539    0.0000 C   0  0  0  0  0  0  0  0  0  0  0  0
   -3.8637   -0.0694    0.0000 C   0  0  0  0  0  0  0  0  0  0  0  0
    1.7973   -0.3647    0.0000 C   0  0  0  0  0  0  0  0  0  0  0  0
    2.6134   -0.3473    0.0000 C   0  0  0  0  0  0  0  0  0  0  0  0
   -1.4326    1.6844    0.0000 C   0  0  0  0  0  0  0  0  0  0  0  0
    0.5817    0.7120    0.0000 C   0  0  0  0  0  0  0  0  0  0  0  0
    0.3039    2.1012    0.0000 C   0  0  0  0  0  0  0  0  0  0  0  0
   -2.2140   -2.5005    0.0000 C   0  0  0  0  0  0  0  0  0  0  0  0
    3.8983   -1.0593    0.0000 C   0  0  0  0  0  0  0  0  0  0  0  0
    1.6757    1.6670    0.0000 C   0  0  0  0  0  0  0  0  0  0  0  0
    1.4152    0.8856    0.0000 C   0  0  0  0  0  0  0  0  0  0  0  0
    1.1200    2.2574    0.0000 C   0  0  0  0  0  0  0  0  0  0  0  0
    2.6481   -3.2298    0.0000 C   0  0  0  0  0  0  0  0  0  0  0  0
    2.8912    2.5179    0.0000 C   0  0  0  0  0  0  0  0  0  0  0  0
  1  9  2  0  0  0  0
  1 10  2  0  0  0  0
  1 27  1  0  0  0  0
  1 44  1  0  0  0  0
  2 33  1  0  0  0  0
  3 33  1  0  0  0  0
  4 33  1  0  0  0  0
  5 35  1  0  0  0  0
  6 45  1  0  0  0  0
  7 45  1  0  0  0  0
  8 45  1  0  0  0  0
 11 41  1  0  0  0  0
 11 45  1  0  0  0  0
 12 40  1  0  0  0  0
 13 15  1  0  0  0  0
 13 19  1  0  0  0  0
 13 24  1  0  0  0  0
 14 16  1  0  0  0  0
 14 18  1  0  0  0  0
 14 21  1  0  0  0  0
 15 25  2  0  0  0  0
 16 17  2  0  0  0  0
 17 36  1  0  0  0  0
 18 19  1  0  0  0  0
 18 22  2  0  0  0  0
 19 26  2  0  0  0  0
 20 22  1  0  0  0  0
 20 23  1  0  0  0  0
 20 28  2  0  0  0  0
 21 30  1  0  0  0  0
 21 36  2  0  0  0  0
 23 32  2  0  0  0  0
 23 34  1  0  0  0  0
 24 29  2  0  0  0  0
 24 39  1  0  0  0  0
 25 29  1  0  0  0  0
 25 33  1  0  0  0  0
 26 28  1  0  0  0  0
 27 31  2  0  0  0  0
 27 32  1  0  0  0  0
 30 37  2  0  0  0  0
 30 38  1  0  0  0  0
 31 35  1  0  0  0  0
 31 40  1  0  0  0  0
 34 35  2  0  0  0  0
 37 42  1  0  0  0  0
 38 43  2  0  0  0  0
 41 42  2  0  0  0  0
 41 43  1  0  0  0  0
M  END
> <PUBCHEM_COMPOUND_ID_TYPE>
0

> <PUBCHEM_TOTAL_CHARGE>
0

> <PUBCHEM_SUBSTANCE_ID>
310948308

> <PUBCHEM_SUBSTANCE_VERSION>
1

> <PUBCHEM_EXT_DATASOURCE_NAME>
4488

> <PUBCHEM_EXT_DATASOURCE_REGID>
SCHEMBL16126486

> <PUBCHEM_SUBSTANCE_COMMENT>
InChI=1S/C28H20F7N5O4S/c1-15-9-26(27(30,31)32)37-39(15)22-8-5-17(18-10-21(29)20(14-41)25(12-18)45(2,42)43)11-23(22)40-24(13-36-38-40)16-3-6-19(7-4-16)44-28(33,34)35/h3-13,41H,14H2,1-2H3
InChIKey=QDGSOCSDAZAGKQ-UHFFFAOYSA-N

> <PUBCHEM_SUBSTANCE_SYNONYM>
SCHEMBL16126486

> <PUBCHEM_XREF_EXT_ID>
SCHEMBL16126486

> <PUBCHEM_EXT_DATASOURCE_URL>
https://www.surechembl.org/

> <PUBCHEM_EXT_SUBSTANCE_URL>
https://www.surechembl.org/chemical/SCHEMBL16126486

> <PUBCHEM_CID_ASSOCIATIONS>
117613873  1

> <PUBCHEM_COORDINATE_TYPE>
1
3

$$$$
