310935138
  -OEChem-07211613022D

 27 30  0     1  0  0  0  0  0999 V2000
   -5.0924   -3.7013    0.0000 F   0  0  0  0  0  0  0  0  0  0  0  0
   -4.8227   -0.7087    0.0000 O   0  0  0  0  0  0  0  0  0  0  0  0
   -3.7948    0.2840    0.0000 O   0  0  0  0  0  0  0  0  0  0  0  0
    0.7144    0.8250    0.0000 N   0  0  0  0  0  0  0  0  0  0  0  0
   -3.4491   -1.1026    0.0000 C   0  0  3  0  0  0  0  0  0  0  0  0
   -4.3779   -1.6388    0.0000 C   0  0  0  0  0  0  0  0  0  0  0  0
   -2.8971   -0.4895    0.0000 C   0  0  0  0  0  0  0  0  0  0  0  0
   -2.1434   -0.8250    0.0000 C   0  0  0  0  0  0  0  0  0  0  0  0
   -4.0222   -0.5091    0.0000 C   0  0  0  0  0  0  0  0  0  0  0  0
   -3.0366   -1.8170    0.0000 C   0  0  0  0  0  0  0  0  0  0  0  0
   -4.3779   -2.4638    0.0000 C   0  0  0  0  0  0  0  0  0  0  0  0
   -2.2296   -1.6455    0.0000 C   0  0  0  0  0  0  0  0  0  0  0  0
   -1.4290   -0.4125    0.0000 C   0  0  0  0  0  0  0  0  0  0  0  0
   -5.0924   -1.2263    0.0000 C   0  0  0  0  0  0  0  0  0  0  0  0
   -5.0924   -2.8763    0.0000 C   0  0  0  0  0  0  0  0  0  0  0  0
   -0.7144   -0.8250    0.0000 C   0  0  0  0  0  0  0  0  0  0  0  0
    0.0000   -0.4125    0.0000 C   0  0  0  0  0  0  0  0  0  0  0  0
   -1.4290    0.4125    0.0000 C   0  0  0  0  0  0  0  0  0  0  0  0
    0.0000    0.4125    0.0000 C   0  0  0  0  0  0  0  0  0  0  0  0
   -5.8069   -1.6388    0.0000 C   0  0  0  0  0  0  0  0  0  0  0  0
   -5.8069   -2.4638    0.0000 C   0  0  0  0  0  0  0  0  0  0  0  0
   -0.7144    0.8250    0.0000 C   0  0  0  0  0  0  0  0  0  0  0  0
   -3.6635   -2.8763    0.0000 C   0  0  0  0  0  0  0  0  0  0  0  0
    0.7144   -0.8250    0.0000 C   0  0  0  0  0  0  0  0  0  0  0  0
   -5.4060   -0.1253    0.0000 C   0  0  0  0  0  0  0  0  0  0  0  0
    1.4290   -0.4125    0.0000 C   0  0  0  0  0  0  0  0  0  0  0  0
    1.4290    0.4125    0.0000 C   0  0  0  0  0  0  0  0  0  0  0  0
  1 15  1  0  0  0  0
  2  9  1  0  0  0  0
  2 25  1  0  0  0  0
  3  9  2  0  0  0  0
  4 19  1  0  0  0  0
  4 27  2  0  0  0  0
  5  6  1  0  0  0  0
  5  7  1  0  0  0  0
  5  9  1  6  0  0  0
  5 10  1  0  0  0  0
  6 11  1  0  0  0  0
  6 14  2  0  0  0  0
  7  8  2  0  0  0  0
  8 12  1  0  0  0  0
  8 13  1  0  0  0  0
 10 12  1  0  0  0  0
 11 15  2  0  0  0  0
 11 23  1  0  0  0  0
 13 16  1  0  0  0  0
 13 18  2  0  0  0  0
 14 20  1  0  0  0  0
 15 21  1  0  0  0  0
 16 17  2  0  0  0  0
 17 19  1  0  0  0  0
 17 24  1  0  0  0  0
 18 22  1  0  0  0  0
 19 22  2  0  0  0  0
 20 21  2  0  0  0  0
 24 26  2  0  0  0  0
 26 27  1  0  0  0  0
M  END
> <PUBCHEM_COMPOUND_ID_TYPE>
0

> <PUBCHEM_TOTAL_CHARGE>
0

> <PUBCHEM_SUBSTANCE_ID>
310935138

> <PUBCHEM_SUBSTANCE_VERSION>
1

> <PUBCHEM_EXT_DATASOURCE_NAME>
4488

> <PUBCHEM_EXT_DATASOURCE_REGID>
SCHEMBL16112665

> <PUBCHEM_SUBSTANCE_COMMENT>
InChI=1S/C23H20FNO2/c1-15-19(6-3-7-20(15)24)23(22(26)27-2)11-10-18(14-23)16-8-9-21-17(13-16)5-4-12-25-21/h3-9,12-14H,10-11H2,1-2H3/t23-/m0/s1
InChIKey=PSCUJVWSFYPFKM-QHCPKHFHSA-N

> <PUBCHEM_SUBSTANCE_SYNONYM>
SCHEMBL16112665

> <PUBCHEM_XREF_EXT_ID>
SCHEMBL16112665

> <PUBCHEM_EXT_DATASOURCE_URL>
https://www.surechembl.org/

> <PUBCHEM_EXT_SUBSTANCE_URL>
https://www.surechembl.org/chemical/SCHEMBL16112665

> <PUBCHEM_CID_ASSOCIATIONS>
117603226  1

> <PUBCHEM_COORDINATE_TYPE>
1
3

> <PUBCHEM_BONDANNOTATIONS>
5  9  6

$$$$
