310944265
  -OEChem-07211613022D

 22 23  0     0  0  0  0  0  0999 V2000
    0.0099    2.8653    0.0000 F   0  0  0  0  0  0  0  0  0  0  0  0
    0.0099   -2.8653    0.0000 F   0  0  0  0  0  0  0  0  0  0  0  0
    2.1577    2.4298    0.0000 N   0  0  0  0  0  0  0  0  0  0  0  0
   -2.1379   -2.4596    0.0000 N   0  0  0  0  0  0  0  0  0  0  0  0
    2.1477   -2.4694    0.0000 N   0  0  0  0  0  0  0  0  0  0  0  0
   -2.1577    2.3903    0.0000 N   0  0  0  0  0  0  0  0  0  0  0  0
    0.0000   -0.4107    0.0000 C   0  0  0  0  0  0  0  0  0  0  0  0
    0.0099    0.4305    0.0000 C   0  0  0  0  0  0  0  0  0  0  0  0
   -0.7225   -1.6281    0.0000 C   0  0  0  0  0  0  0  0  0  0  0  0
    0.7324    1.6578    0.0000 C   0  0  0  0  0  0  0  0  0  0  0  0
   -0.7126    1.6578    0.0000 C   0  0  0  0  0  0  0  0  0  0  0  0
    0.7126   -1.6183    0.0000 C   0  0  0  0  0  0  0  0  0  0  0  0
    0.0000   -2.0339    0.0000 C   0  0  0  0  0  0  0  0  0  0  0  0
    0.0000    2.0735    0.0000 C   0  0  0  0  0  0  0  0  0  0  0  0
   -0.7027   -0.8166    0.0000 C   0  0  0  0  0  0  0  0  0  0  0  0
    0.7225    0.8264    0.0000 C   0  0  0  0  0  0  0  0  0  0  0  0
   -0.7126    0.8364    0.0000 C   0  0  0  0  0  0  0  0  0  0  0  0
    0.7225   -0.8166    0.0000 C   0  0  0  0  0  0  0  0  0  0  0  0
   -1.4450   -2.0537    0.0000 C   0  0  0  0  0  0  0  0  0  0  0  0
    1.4450    2.0537    0.0000 C   0  0  0  0  0  0  0  0  0  0  0  0
   -1.4450    2.0339    0.0000 C   0  0  0  0  0  0  0  0  0  0  0  0
    1.4450   -2.0537    0.0000 C   0  0  0  0  0  0  0  0  0  0  0  0
  1 14  1  0  0  0  0
  2 13  1  0  0  0  0
  3 20  3  0  0  0  0
  4 19  3  0  0  0  0
  5 22  3  0  0  0  0
  6 21  3  0  0  0  0
  7  8  1  0  0  0  0
  7 15  2  0  0  0  0
  7 18  1  0  0  0  0
  8 16  2  0  0  0  0
  8 17  1  0  0  0  0
  9 13  2  0  0  0  0
  9 15  1  0  0  0  0
  9 19  1  0  0  0  0
 10 14  2  0  0  0  0
 10 16  1  0  0  0  0
 10 20  1  0  0  0  0
 11 14  1  0  0  0  0
 11 17  2  0  0  0  0
 11 21  1  0  0  0  0
 12 13  1  0  0  0  0
 12 18  2  0  0  0  0
 12 22  1  0  0  0  0
M  END
> <PUBCHEM_COMPOUND_ID_TYPE>
0

> <PUBCHEM_TOTAL_CHARGE>
0

> <PUBCHEM_SUBSTANCE_ID>
310944265

> <PUBCHEM_SUBSTANCE_VERSION>
1

> <PUBCHEM_EXT_DATASOURCE_NAME>
4488

> <PUBCHEM_EXT_DATASOURCE_REGID>
SCHEMBL16122340

> <PUBCHEM_SUBSTANCE_COMMENT>
InChI=1S/C16H4F2N4/c17-15-11(5-19)1-9(2-12(15)6-20)10-3-13(7-21)16(18)14(4-10)8-22/h1-4H
InChIKey=HFTBTRCBKIMXMZ-UHFFFAOYSA-N

> <PUBCHEM_SUBSTANCE_SYNONYM>
SCHEMBL16122340

> <PUBCHEM_XREF_EXT_ID>
SCHEMBL16122340

> <PUBCHEM_EXT_DATASOURCE_URL>
https://www.surechembl.org/

> <PUBCHEM_EXT_SUBSTANCE_URL>
https://www.surechembl.org/chemical/SCHEMBL16122340

> <PUBCHEM_CID_ASSOCIATIONS>
117610534  1

> <PUBCHEM_COORDINATE_TYPE>
1
3

$$$$
