310944053
  -OEChem-07211613022D

 19 20  0     1  0  0  0  0  0999 V2000
   -2.7770   -0.9689    0.0000 O   0  0  0  0  0  0  0  0  0  0  0  0
    0.8256    1.8286    0.0000 O   0  0  0  0  0  0  0  0  0  0  0  0
   -3.1591    0.5049    0.0000 O   0  0  0  0  0  0  0  0  0  0  0  0
   -1.2077    0.4094    0.0000 N   0  0  0  0  0  0  0  0  0  0  0  0
   -0.4435    0.0410    0.0000 C   0  0  3  0  0  0  0  0  0  0  0  0
   -1.1394    1.2828    0.0000 C   0  0  3  0  0  0  0  0  0  0  0  0
   -2.5587   -0.0818    0.0000 C   0  0  0  0  0  0  0  0  0  0  0  0
    0.2252    1.2418    0.0000 C   0  0  0  0  0  0  0  0  0  0  0  0
   -0.4845    1.6512    0.0000 C   0  0  0  0  0  0  0  0  0  0  0  0
    0.2252    0.4094    0.0000 C   0  0  0  0  0  0  0  0  0  0  0  0
    0.0204    0.6004    0.0000 C   0  0  0  0  0  0  0  0  0  0  0  0
   -0.4435    1.4192    0.0000 C   0  0  0  0  0  0  0  0  0  0  0  0
   -2.1493   -1.6103    0.0000 C   0  0  0  0  0  0  0  0  0  0  0  0
    1.6307    1.6239    0.0000 C   0  0  0  0  0  0  0  0  0  0  0  0
   -2.6815   -2.2107    0.0000 C   0  0  0  0  0  0  0  0  0  0  0  0
   -1.5898   -1.0235    0.0000 C   0  0  0  0  0  0  0  0  0  0  0  0
   -1.5216   -2.2107    0.0000 C   0  0  0  0  0  0  0  0  0  0  0  0
    2.2311    2.2107    0.0000 C   0  0  0  0  0  0  0  0  0  0  0  0
    3.1591    1.9651    0.0000 C   0  0  0  0  0  0  0  0  0  0  0  0
  1  7  1  0  0  0  0
  1 13  1  0  0  0  0
  8  2  1  1  0  0  0
  2 14  1  0  0  0  0
  3  7  2  0  0  0  0
  5  4  1  6  0  0  0
  6  4  1  6  0  0  0
  4  7  1  0  0  0  0
  5 10  1  0  0  0  0
  5 11  1  0  0  0  0
  6  9  1  0  0  0  0
  6 12  1  0  0  0  0
  8  9  1  0  0  0  0
  8 10  1  0  0  0  0
 11 12  1  0  0  0  0
 13 15  1  0  0  0  0
 13 16  1  0  0  0  0
 13 17  1  0  0  0  0
 14 18  1  0  0  0  0
 18 19  1  0  0  0  0
M  END
> <PUBCHEM_COMPOUND_ID_TYPE>
0

> <PUBCHEM_TOTAL_CHARGE>
0

> <PUBCHEM_SUBSTANCE_ID>
310944053

> <PUBCHEM_SUBSTANCE_VERSION>
1

> <PUBCHEM_EXT_DATASOURCE_NAME>
4488

> <PUBCHEM_EXT_DATASOURCE_REGID>
SCHEMBL16122126

> <PUBCHEM_SUBSTANCE_COMMENT>
InChI=1S/C15H27NO3/c1-5-8-18-13-9-11-6-7-12(10-13)16(11)14(17)19-15(2,3)4/h11-13H,5-10H2,1-4H3/t11-,12+,13+
InChIKey=PXXHGTWAWNNQNZ-ITGUQSILSA-N

> <PUBCHEM_SUBSTANCE_SYNONYM>
SCHEMBL16122126

> <PUBCHEM_XREF_EXT_ID>
SCHEMBL16122126

> <PUBCHEM_EXT_DATASOURCE_URL>
https://www.surechembl.org/

> <PUBCHEM_EXT_SUBSTANCE_URL>
https://www.surechembl.org/chemical/SCHEMBL16122126

> <PUBCHEM_CID_ASSOCIATIONS>
117610349  1

> <PUBCHEM_COORDINATE_TYPE>
1
3

> <PUBCHEM_BONDANNOTATIONS>
8  2  5
5  4  6
6  4  6

$$$$
