310948479
  -OEChem-07211613022D

 32 35  0     1  0  0  0  0  0999 V2000
    3.4500   -1.2206    0.0000 F   0  0  0  0  0  0  0  0  0  0  0  0
    3.9470   -1.8785    0.0000 F   0  0  0  0  0  0  0  0  0  0  0  0
    3.6108   -2.6386    0.0000 F   0  0  0  0  0  0  0  0  0  0  0  0
    0.1754   -1.1476    0.0000 O   0  0  0  0  0  0  0  0  0  0  0  0
    2.3828   -2.8871    0.0000 O   0  0  0  0  0  0  0  0  0  0  0  0
   -1.7834    0.8114    0.0000 N   0  0  0  0  0  0  0  0  0  0  0  0
   -1.0379    1.1476    0.0000 N   0  0  0  0  0  0  0  0  0  0  0  0
    0.3509    0.6213    0.0000 N   0  0  0  0  0  0  0  0  0  0  0  0
   -1.1841   -1.5861    0.0000 N   0  0  0  0  0  0  0  0  0  0  0  0
   -1.0672    2.8871    0.0000 N   0  0  0  0  0  0  0  0  0  0  0  0
   -0.8917   -0.1828    0.0000 C   0  0  0  0  0  0  0  0  0  0  0  0
   -1.7103   -0.0073    0.0000 C   0  0  0  0  0  0  0  0  0  0  0  0
   -0.4824    0.5482    0.0000 C   0  0  0  0  0  0  0  0  0  0  0  0
   -2.5290    1.2353    0.0000 C   0  0  3  0  0  0  0  0  0  0  0  0
   -0.6578   -0.9575    0.0000 C   0  0  0  0  0  0  0  0  0  0  0  0
    2.2951   -2.0539    0.0000 C   0  0  3  0  0  0  0  0  0  0  0  0
   -2.2366   -0.6359    0.0000 C   0  0  0  0  0  0  0  0  0  0  0  0
    1.8127   -1.3814    0.0000 C   0  0  0  0  0  0  0  0  0  0  0  0
    3.1283   -1.9662    0.0000 C   0  0  0  0  0  0  0  0  0  0  0  0
    0.8332   -0.0365    0.0000 C   0  0  0  0  0  0  0  0  0  0  0  0
   -2.5144    2.0539    0.0000 C   0  0  3  0  0  0  0  0  0  0  0  0
   -2.0027   -1.4107    0.0000 C   0  0  0  0  0  0  0  0  0  0  0  0
   -3.2015    0.8259    0.0000 C   0  0  0  0  0  0  0  0  0  0  0  0
    0.9940   -1.4692    0.0000 C   0  0  0  0  0  0  0  0  0  0  0  0
    2.1343   -0.6359    0.0000 C   0  0  0  0  0  0  0  0  0  0  0  0
    0.5117   -0.8114    0.0000 C   0  0  0  0  0  0  0  0  0  0  0  0
    1.6519    0.0365    0.0000 C   0  0  0  0  0  0  0  0  0  0  0  0
   -3.2307    2.4632    0.0000 C   0  0  0  0  0  0  0  0  0  0  0  0
    1.6226   -2.5656    0.0000 C   0  0  0  0  0  0  0  0  0  0  0  0
   -1.7981    2.4632    0.0000 C   0  0  0  0  0  0  0  0  0  0  0  0
   -3.9470    1.2353    0.0000 C   0  0  0  0  0  0  0  0  0  0  0  0
   -3.9470    2.0539    0.0000 C   0  0  0  0  0  0  0  0  0  0  0  0
  1 19  1  0  0  0  0
  2 19  1  0  0  0  0
  3 19  1  0  0  0  0
  4 15  2  0  0  0  0
  5 16  1  0  0  0  0
  6  7  1  0  0  0  0
  6 12  1  0  0  0  0
 14  6  1  1  0  0  0
  7 13  2  0  0  0  0
  8 13  1  0  0  0  0
  8 20  1  0  0  0  0
  9 15  1  0  0  0  0
  9 22  1  0  0  0  0
 10 30  3  0  0  0  0
 11 12  2  0  0  0  0
 11 13  1  0  0  0  0
 11 15  1  0  0  0  0
 12 17  1  0  0  0  0
 14 21  1  0  0  0  0
 14 23  1  0  0  0  0
 16 18  1  0  0  0  0
 16 19  1  0  0  0  0
 16 29  1  0  0  0  0
 17 22  2  0  0  0  0
 18 24  2  0  0  0  0
 18 25  1  0  0  0  0
 20 26  2  0  0  0  0
 20 27  1  0  0  0  0
 21 28  1  0  0  0  0
 21 30  1  6  0  0  0
 23 31  1  0  0  0  0
 24 26  1  0  0  0  0
 25 27  2  0  0  0  0
 28 32  1  0  0  0  0
 31 32  1  0  0  0  0
M  END
> <PUBCHEM_COMPOUND_ID_TYPE>
0

> <PUBCHEM_TOTAL_CHARGE>
0

> <PUBCHEM_SUBSTANCE_ID>
310948479

> <PUBCHEM_SUBSTANCE_VERSION>
1

> <PUBCHEM_EXT_DATASOURCE_NAME>
4488

> <PUBCHEM_EXT_DATASOURCE_REGID>
SCHEMBL16126661

> <PUBCHEM_SUBSTANCE_COMMENT>
InChI=1S/C22H22F3N5O2/c1-21(32,22(23,24)25)14-6-8-15(9-7-14)28-19-18-17(10-11-27-20(18)31)30(29-19)16-5-3-2-4-13(16)12-26/h6-11,13,16,32H,2-5H2,1H3,(H,27,31)(H,28,29)/t13-,16+,21?/m1/s1
InChIKey=SJLHHMOSMXKJAH-VJFRBFEXSA-N

> <PUBCHEM_SUBSTANCE_SYNONYM>
SCHEMBL16126661

> <PUBCHEM_XREF_EXT_ID>
SCHEMBL16126661

> <PUBCHEM_EXT_DATASOURCE_URL>
https://www.surechembl.org/

> <PUBCHEM_EXT_SUBSTANCE_URL>
https://www.surechembl.org/chemical/SCHEMBL16126661

> <PUBCHEM_CID_ASSOCIATIONS>
117614037  1

> <PUBCHEM_COORDINATE_TYPE>
1
3

> <PUBCHEM_BONDANNOTATIONS>
21  30  6
14  6  5

$$$$
