310943420
  -OEChem-07211613022D

 39 43  0     0  0  0  0  0  0999 V2000
    4.6190    2.3278    0.0000 F   0  0  0  0  0  0  0  0  0  0  0  0
    5.3522    1.8879    0.0000 F   0  0  0  0  0  0  0  0  0  0  0  0
   -3.9958   -0.2200    0.0000 O   0  0  0  0  0  0  0  0  0  0  0  0
   -5.3889    2.2545    0.0000 O   0  0  0  0  0  0  0  0  0  0  0  0
    1.7230    2.2545    0.0000 O   0  0  0  0  0  0  0  0  0  0  0  0
   -3.9958   -2.6944    0.0000 O   0  0  0  0  0  0  0  0  0  0  0  0
   -3.9591    1.4481    0.0000 N   0  0  0  0  0  0  0  0  0  0  0  0
   -1.8329    0.2200    0.0000 N   0  0  0  0  0  0  0  0  0  0  0  0
   -2.5478   -0.2016    0.0000 N   0  0  0  0  0  0  0  0  0  0  0  0
   -0.4032    2.6761    0.0000 N   0  0  0  0  0  0  0  0  0  0  0  0
    1.0081    1.0265    0.0000 N   0  0  0  0  0  0  0  0  0  0  0  0
    3.8676    0.2016    0.0000 N   0  0  0  0  0  0  0  0  0  0  0  0
   -3.2443    1.0448    0.0000 C   0  0  0  0  0  0  0  0  0  0  0  0
   -1.8146    1.0448    0.0000 C   0  0  0  0  0  0  0  0  0  0  0  0
   -1.1364    1.4481    0.0000 C   0  0  0  0  0  0  0  0  0  0  0  0
   -3.2626    0.2200    0.0000 C   0  0  0  0  0  0  0  0  0  0  0  0
   -2.5478    1.4481    0.0000 C   0  0  0  0  0  0  0  0  0  0  0  0
   -1.1181    2.2729    0.0000 C   0  0  0  0  0  0  0  0  0  0  0  0
   -0.4032    1.0265    0.0000 C   0  0  0  0  0  0  0  0  0  0  0  0
    0.2933    1.4481    0.0000 C   0  0  0  0  0  0  0  0  0  0  0  0
    2.4561    1.0448    0.0000 C   0  0  0  0  0  0  0  0  0  0  0  0
    1.7230    1.4297    0.0000 C   0  0  0  0  0  0  0  0  0  0  0  0
    0.3116    2.2545    0.0000 C   0  0  0  0  0  0  0  0  0  0  0  0
    3.8676    1.0448    0.0000 C   0  0  0  0  0  0  0  0  0  0  0  0
   -3.9775    2.2729    0.0000 C   0  0  0  0  0  0  0  0  0  0  0  0
   -4.6740    1.0265    0.0000 C   0  0  0  0  0  0  0  0  0  0  0  0
   -4.0142   -1.0265    0.0000 C   0  0  0  0  0  0  0  0  0  0  0  0
    4.6190    1.4663    0.0000 C   0  0  0  0  0  0  0  0  0  0  0  0
    3.1527    1.4481    0.0000 C   0  0  0  0  0  0  0  0  0  0  0  0
    2.4378    0.2200    0.0000 C   0  0  0  0  0  0  0  0  0  0  0  0
   -1.8146    2.6944    0.0000 C   0  0  0  0  0  0  0  0  0  0  0  0
   -4.6924    2.6761    0.0000 C   0  0  0  0  0  0  0  0  0  0  0  0
   -5.3889    1.4481    0.0000 C   0  0  0  0  0  0  0  0  0  0  0  0
    3.2077   -0.2200    0.0000 C   0  0  0  0  0  0  0  0  0  0  0  0
   -3.2810   -1.4663    0.0000 C   0  0  0  0  0  0  0  0  0  0  0  0
   -4.6924   -1.4481    0.0000 C   0  0  0  0  0  0  0  0  0  0  0  0
    5.3889    1.0265    0.0000 C   0  0  0  0  0  0  0  0  0  0  0  0
   -3.2993   -2.2729    0.0000 C   0  0  0  0  0  0  0  0  0  0  0  0
   -4.7107   -2.2729    0.0000 C   0  0  0  0  0  0  0  0  0  0  0  0
  1 28  1  0  0  0  0
  2 28  1  0  0  0  0
  3 16  1  0  0  0  0
  3 27  1  0  0  0  0
  4 32  1  0  0  0  0
  4 33  1  0  0  0  0
  5 22  2  0  0  0  0
  6 38  1  0  0  0  0
  6 39  1  0  0  0  0
  7 13  1  0  0  0  0
  7 25  1  0  0  0  0
  7 26  1  0  0  0  0
  8  9  1  0  0  0  0
  8 14  2  0  0  0  0
  9 16  2  0  0  0  0
 10 18  1  0  0  0  0
 10 23  2  0  0  0  0
 11 20  1  0  0  0  0
 11 22  1  0  0  0  0
 12 24  2  0  0  0  0
 12 34  1  0  0  0  0
 13 16  1  0  0  0  0
 13 17  2  0  0  0  0
 14 15  1  0  0  0  0
 14 17  1  0  0  0  0
 15 18  2  0  0  0  0
 15 19  1  0  0  0  0
 18 31  1  0  0  0  0
 19 20  2  0  0  0  0
 20 23  1  0  0  0  0
 21 22  1  0  0  0  0
 21 29  2  0  0  0  0
 21 30  1  0  0  0  0
 24 28  1  0  0  0  0
 24 29  1  0  0  0  0
 25 32  1  0  0  0  0
 26 33  1  0  0  0  0
 27 35  1  0  0  0  0
 27 36  1  0  0  0  0
 28 37  1  0  0  0  0
 30 34  2  0  0  0  0
 35 38  1  0  0  0  0
 36 39  1  0  0  0  0
M  END
> <PUBCHEM_COMPOUND_ID_TYPE>
0

> <PUBCHEM_TOTAL_CHARGE>
0

> <PUBCHEM_SUBSTANCE_ID>
310943420

> <PUBCHEM_SUBSTANCE_VERSION>
1

> <PUBCHEM_EXT_DATASOURCE_NAME>
4488

> <PUBCHEM_EXT_DATASOURCE_REGID>
SCHEMBL16121484

> <PUBCHEM_SUBSTANCE_COMMENT>
InChI=1S/C27H30F2N6O4/c1-17-21(14-19(16-31-17)32-25(36)18-3-6-30-24(13-18)27(2,28)29)22-15-23(35-7-11-38-12-8-35)26(34-33-22)39-20-4-9-37-10-5-20/h3,6,13-16,20H,4-5,7-12H2,1-2H3,(H,32,36)
InChIKey=GRNQCTMTIYRPGV-UHFFFAOYSA-N

> <PUBCHEM_SUBSTANCE_SYNONYM>
SCHEMBL16121484

> <PUBCHEM_XREF_EXT_ID>
SCHEMBL16121484

> <PUBCHEM_EXT_DATASOURCE_URL>
https://www.surechembl.org/

> <PUBCHEM_EXT_SUBSTANCE_URL>
https://www.surechembl.org/chemical/SCHEMBL16121484

> <PUBCHEM_CID_ASSOCIATIONS>
117609844  1

> <PUBCHEM_COORDINATE_TYPE>
1
3

$$$$
