310944188
  -OEChem-07211613022D

 31 35  0     0  0  0  0  0  0999 V2000
    2.5935    0.8183    0.0000 O   0  0  0  0  0  0  0  0  0  0  0  0
    5.4366   -0.0971    0.0000 O   0  0  0  0  0  0  0  0  0  0  0  0
    5.5614    1.3730    0.0000 O   0  0  0  0  0  0  0  0  0  0  0  0
    3.3146   -0.4716    0.0000 N   0  0  0  0  0  0  0  0  0  0  0  0
    0.3744   -0.0555    0.0000 N   0  0  0  0  0  0  0  0  0  0  0  0
   -4.2162    0.4993    0.0000 N   0  0  0  0  0  0  0  0  0  0  0  0
   -2.8154    0.8460    0.0000 N   0  0  0  0  0  0  0  0  0  0  0  0
   -2.0249    0.6241    0.0000 N   0  0  0  0  0  0  0  0  0  0  0  0
   -4.5074    1.2759    0.0000 N   0  0  0  0  0  0  0  0  0  0  0  0
   -5.3395    1.2482    0.0000 N   0  0  0  0  0  0  0  0  0  0  0  0
   -5.5614    0.4577    0.0000 N   0  0  0  0  0  0  0  0  0  0  0  0
    1.9694   -0.5132    0.0000 C   0  0  0  0  0  0  0  0  0  0  0  0
    2.6074   -0.0277    0.0000 C   0  0  0  0  0  0  0  0  0  0  0  0
    4.0913   -0.1803    0.0000 C   0  0  0  0  0  0  0  0  0  0  0  0
    2.1774   -1.3037    0.0000 C   0  0  0  0  0  0  0  0  0  0  0  0
    2.9957   -1.3730    0.0000 C   0  0  0  0  0  0  0  0  0  0  0  0
    1.3869   -1.0818    0.0000 C   0  0  0  0  0  0  0  0  0  0  0  0
    1.7752    0.2774    0.0000 C   0  0  0  0  0  0  0  0  0  0  0  0
    4.2994    0.6241    0.0000 C   0  0  0  0  0  0  0  0  0  0  0  0
    4.7986   -0.6241    0.0000 C   0  0  0  0  0  0  0  0  0  0  0  0
    5.1037    0.6518    0.0000 C   0  0  0  0  0  0  0  0  0  0  0  0
    0.5825   -0.8598    0.0000 C   0  0  0  0  0  0  0  0  0  0  0  0
    0.9708    0.5132    0.0000 C   0  0  0  0  0  0  0  0  0  0  0  0
    3.7585    1.2621    0.0000 C   0  0  0  0  0  0  0  0  0  0  0  0
   -0.4299    0.1664    0.0000 C   0  0  0  0  0  0  0  0  0  0  0  0
   -3.4256    0.2635    0.0000 C   0  0  0  0  0  0  0  0  0  0  0  0
   -1.8307   -0.1803    0.0000 C   0  0  0  0  0  0  0  0  0  0  0  0
   -1.0124   -0.4022    0.0000 C   0  0  0  0  0  0  0  0  0  0  0  0
   -3.2176   -0.5270    0.0000 C   0  0  0  0  0  0  0  0  0  0  0  0
   -2.4132   -0.7490    0.0000 C   0  0  0  0  0  0  0  0  0  0  0  0
   -4.8541    0.0000    0.0000 C   0  0  0  0  0  0  0  0  0  0  0  0
  1 13  2  0  0  0  0
  2 20  1  0  0  0  0
  2 21  1  0  0  0  0
  3 21  2  0  0  0  0
  4 13  1  0  0  0  0
  4 14  1  0  0  0  0
  4 16  1  0  0  0  0
  5 22  1  0  0  0  0
  5 23  1  0  0  0  0
  5 25  1  0  0  0  0
  6  9  1  0  0  0  0
  6 26  1  0  0  0  0
  6 31  1  0  0  0  0
  7  8  2  0  0  0  0
  7 26  1  0  0  0  0
  8 27  1  0  0  0  0
  9 10  2  0  0  0  0
 10 11  1  0  0  0  0
 11 31  2  0  0  0  0
 12 13  1  0  0  0  0
 12 15  1  0  0  0  0
 12 17  1  0  0  0  0
 12 18  1  0  0  0  0
 14 19  2  0  0  0  0
 14 20  1  0  0  0  0
 15 16  1  0  0  0  0
 17 22  1  0  0  0  0
 18 23  1  0  0  0  0
 19 21  1  0  0  0  0
 19 24  1  0  0  0  0
 25 28  1  0  0  0  0
 26 29  2  0  0  0  0
 27 28  1  0  0  0  0
 27 30  2  0  0  0  0
 29 30  1  0  0  0  0
M  END
> <PUBCHEM_COMPOUND_ID_TYPE>
0

> <PUBCHEM_TOTAL_CHARGE>
0

> <PUBCHEM_SUBSTANCE_ID>
310944188

> <PUBCHEM_SUBSTANCE_VERSION>
1

> <PUBCHEM_EXT_DATASOURCE_NAME>
4488

> <PUBCHEM_EXT_DATASOURCE_REGID>
SCHEMBL16122263

> <PUBCHEM_SUBSTANCE_COMMENT>
InChI=1S/C20H24N8O3/c1-14-16(12-31-18(14)29)27-11-7-20(19(27)30)5-9-26(10-6-20)8-4-15-2-3-17(23-22-15)28-13-21-24-25-28/h2-3,13H,4-12H2,1H3
InChIKey=ANBOIRQLKOYFNZ-UHFFFAOYSA-N

> <PUBCHEM_SUBSTANCE_SYNONYM>
SCHEMBL16122263

> <PUBCHEM_XREF_EXT_ID>
SCHEMBL16122263

> <PUBCHEM_EXT_DATASOURCE_URL>
https://www.surechembl.org/

> <PUBCHEM_EXT_SUBSTANCE_URL>
https://www.surechembl.org/chemical/SCHEMBL16122263

> <PUBCHEM_CID_ASSOCIATIONS>
117610461  1

> <PUBCHEM_COORDINATE_TYPE>
1
3

$$$$
