310942997
  -OEChem-07211613022D

 27 28  0     0  0  0  0  0  0999 V2000
   -1.7674   -1.4560    0.0000 F   0  0  0  0  0  0  0  0  0  0  0  0
   -2.5733   -2.2802    0.0000 F   0  0  0  0  0  0  0  0  0  0  0  0
   -3.3791   -1.4560    0.0000 F   0  0  0  0  0  0  0  0  0  0  0  0
   -3.6905   -0.9249    0.0000 F   0  0  0  0  0  0  0  0  0  0  0  0
   -4.0019    0.1740    0.0000 F   0  0  0  0  0  0  0  0  0  0  0  0
   -2.9030    0.4671    0.0000 F   0  0  0  0  0  0  0  0  0  0  0  0
   -3.3059   -1.0531    0.0000 O   0  0  0  0  0  0  0  0  0  0  0  0
    1.0531   -0.2106    0.0000 O   0  0  0  0  0  0  0  0  0  0  0  0
    0.3571    1.0165    0.0000 N   0  0  0  0  0  0  0  0  0  0  0  0
   -2.5916   -0.6319    0.0000 C   0  0  0  0  0  0  0  0  0  0  0  0
   -3.3059   -0.2106    0.0000 C   0  0  0  0  0  0  0  0  0  0  0  0
   -2.5916   -1.4560    0.0000 C   0  0  0  0  0  0  0  0  0  0  0  0
   -1.8773   -0.2106    0.0000 C   0  0  0  0  0  0  0  0  0  0  0  0
   -1.8407    0.6136    0.0000 C   0  0  0  0  0  0  0  0  0  0  0  0
   -1.1080   -0.6136    0.0000 C   0  0  0  0  0  0  0  0  0  0  0  0
   -0.3938    0.6319    0.0000 C   0  0  0  0  0  0  0  0  0  0  0  0
   -1.1264    1.0165    0.0000 C   0  0  0  0  0  0  0  0  0  0  0  0
   -0.3938   -0.2106    0.0000 C   0  0  0  0  0  0  0  0  0  0  0  0
    1.0898    0.6502    0.0000 C   0  0  0  0  0  0  0  0  0  0  0  0
    1.8040    1.0715    0.0000 C   0  0  0  0  0  0  0  0  0  0  0  0
    0.3571    1.8407    0.0000 C   0  0  0  0  0  0  0  0  0  0  0  0
    2.5733    0.6502    0.0000 C   0  0  0  0  0  0  0  0  0  0  0  0
    1.8040    1.8590    0.0000 C   0  0  0  0  0  0  0  0  0  0  0  0
    3.2510    1.0531    0.0000 C   0  0  0  0  0  0  0  0  0  0  0  0
    2.5550    2.2802    0.0000 C   0  0  0  0  0  0  0  0  0  0  0  0
    3.2510    1.8773    0.0000 C   0  0  0  0  0  0  0  0  0  0  0  0
    4.0019    0.6136    0.0000 C   0  0  0  0  0  0  0  0  0  0  0  0
  1 12  1  0  0  0  0
  2 12  1  0  0  0  0
  3 12  1  0  0  0  0
  4 11  1  0  0  0  0
  5 11  1  0  0  0  0
  6 11  1  0  0  0  0
  7 10  1  0  0  0  0
  8 19  2  0  0  0  0
  9 16  1  0  0  0  0
  9 19  1  0  0  0  0
  9 21  1  0  0  0  0
 10 11  1  0  0  0  0
 10 12  1  0  0  0  0
 10 13  1  0  0  0  0
 13 14  2  0  0  0  0
 13 15  1  0  0  0  0
 14 17  1  0  0  0  0
 15 18  2  0  0  0  0
 16 17  2  0  0  0  0
 16 18  1  0  0  0  0
 19 20  1  0  0  0  0
 20 22  2  0  0  0  0
 20 23  1  0  0  0  0
 22 24  1  0  0  0  0
 23 25  2  0  0  0  0
 24 26  2  0  0  0  0
 24 27  1  0  0  0  0
 25 26  1  0  0  0  0
M  END
> <PUBCHEM_COMPOUND_ID_TYPE>
0

> <PUBCHEM_TOTAL_CHARGE>
0

> <PUBCHEM_SUBSTANCE_ID>
310942997

> <PUBCHEM_SUBSTANCE_VERSION>
1

> <PUBCHEM_EXT_DATASOURCE_NAME>
4488

> <PUBCHEM_EXT_DATASOURCE_REGID>
SCHEMBL16121056

> <PUBCHEM_SUBSTANCE_COMMENT>
InChI=1S/C18H15F6NO2/c1-11-4-3-5-12(10-11)15(26)25(2)14-8-6-13(7-9-14)16(27,17(19,20)21)18(22,23)24/h3-10,27H,1-2H3
InChIKey=MKSLZCSURLIKGJ-UHFFFAOYSA-N

> <PUBCHEM_SUBSTANCE_SYNONYM>
SCHEMBL16121056

> <PUBCHEM_XREF_EXT_ID>
SCHEMBL16121056

> <PUBCHEM_EXT_DATASOURCE_URL>
https://www.surechembl.org/

> <PUBCHEM_EXT_SUBSTANCE_URL>
https://www.surechembl.org/chemical/SCHEMBL16121056

> <PUBCHEM_CID_ASSOCIATIONS>
117609450  1

> <PUBCHEM_COORDINATE_TYPE>
1
3

$$$$
