310930928
  -OEChem-07211613022D

 15 15  0     0  0  0  0  0  0999 V2000
    3.6184   -3.7496    0.0000 Br  0  0  0  0  0  0  0  0  0  0  0  0
    2.1748   -2.9247    0.0000 O   0  0  0  0  0  0  0  0  0  0  0  0
    1.4436   -2.4935    0.0000 O   0  0  0  0  0  0  0  0  0  0  0  0
    0.0000    0.0000    0.0000 O   0  0  0  0  0  0  0  0  0  0  0  0
    2.1561   -1.2561    0.0000 N   0  0  0  0  0  0  0  0  0  0  0  0
    0.7312   -0.4124    0.0000 N   0  0  0  0  0  0  0  0  0  0  0  0
    2.9060   -2.4935    0.0000 C   0  0  0  0  0  0  0  0  0  0  0  0
    2.8873   -1.6686    0.0000 C   0  0  0  0  0  0  0  0  0  0  0  0
    3.6184   -2.9060    0.0000 C   0  0  0  0  0  0  0  0  0  0  0  0
    3.6184   -1.2561    0.0000 C   0  0  0  0  0  0  0  0  0  0  0  0
    4.3308   -2.4935    0.0000 C   0  0  0  0  0  0  0  0  0  0  0  0
    1.4436   -1.6686    0.0000 C   0  0  0  0  0  0  0  0  0  0  0  0
    4.3308   -1.6499    0.0000 C   0  0  0  0  0  0  0  0  0  0  0  0
    0.7312   -1.2561    0.0000 C   0  0  0  0  0  0  0  0  0  0  0  0
    2.1935   -3.7496    0.0000 C   0  0  0  0  0  0  0  0  0  0  0  0
  1  9  1  0  0  0  0
  2  7  1  0  0  0  0
  2 15  1  0  0  0  0
  3 12  2  0  0  0  0
  4  6  1  0  0  0  0
  5  8  1  0  0  0  0
  5 12  1  0  0  0  0
  6 14  2  0  0  0  0
  7  8  1  0  0  0  0
  7  9  2  0  0  0  0
  8 10  2  0  0  0  0
  9 11  1  0  0  0  0
 10 13  1  0  0  0  0
 11 13  2  0  0  0  0
 12 14  1  0  0  0  0
M  END
> <PUBCHEM_COMPOUND_ID_TYPE>
0

> <PUBCHEM_TOTAL_CHARGE>
0

> <PUBCHEM_SUBSTANCE_ID>
310930928

> <PUBCHEM_SUBSTANCE_VERSION>
1

> <PUBCHEM_EXT_DATASOURCE_NAME>
4488

> <PUBCHEM_EXT_DATASOURCE_REGID>
SCHEMBL16108226

> <PUBCHEM_SUBSTANCE_COMMENT>
InChI=1S/C9H9BrN2O3/c1-15-9-6(10)3-2-4-7(9)12-8(13)5-11-14/h2-5,14H,1H3,(H,12,13)/b11-5+
InChIKey=VTZIDOPGFQUXPS-VZUCSPMQSA-N

> <PUBCHEM_SUBSTANCE_SYNONYM>
SCHEMBL16108226

> <PUBCHEM_XREF_EXT_ID>
SCHEMBL16108226

> <PUBCHEM_EXT_DATASOURCE_URL>
https://www.surechembl.org/

> <PUBCHEM_EXT_SUBSTANCE_URL>
https://www.surechembl.org/chemical/SCHEMBL16108226

> <PUBCHEM_CID_ASSOCIATIONS>
117599886  1

> <PUBCHEM_COORDINATE_TYPE>
1
3

$$$$
