310929875
  -OEChem-07211613022D

 32 35  0     0  0  0  0  0  0999 V2000
    0.8051   -2.4361    0.0000 S   0  0  0  0  0  0  0  0  0  0  0  0
    2.2297   -2.4567    0.0000 F   0  0  0  0  0  0  0  0  0  0  0  0
    3.6542    0.0000    0.0000 F   0  0  0  0  0  0  0  0  0  0  0  0
    1.7135   -2.4361    0.0000 O   0  0  0  0  0  0  0  0  0  0  0  0
    0.0000   -2.4361    0.0000 O   0  0  0  0  0  0  0  0  0  0  0  0
    3.6542   -1.6516    0.0000 N   0  0  0  0  0  0  0  0  0  0  0  0
    3.5716   -2.6838    0.0000 N   0  0  0  0  0  0  0  0  0  0  0  0
    5.7393   -2.8697    0.0000 N   0  0  0  0  0  0  0  0  0  0  0  0
    3.5922   -3.9845    0.0000 N   0  0  0  0  0  0  0  0  0  0  0  0
    5.0787   -4.1290    0.0000 N   0  0  0  0  0  0  0  0  0  0  0  0
    4.3354   -0.4335    0.0000 N   0  0  0  0  0  0  0  0  0  0  0  0
    0.8051   -1.6516    0.0000 N   0  0  0  0  0  0  0  0  0  0  0  0
    5.0580   -2.4980    0.0000 C   0  0  0  0  0  0  0  0  0  0  0  0
    4.3354   -2.8903    0.0000 C   0  0  0  0  0  0  0  0  0  0  0  0
    5.0580   -1.6722    0.0000 C   0  0  0  0  0  0  0  0  0  0  0  0
    4.3561   -3.7574    0.0000 C   0  0  0  0  0  0  0  0  0  0  0  0
    4.3354   -1.2387    0.0000 C   0  0  0  0  0  0  0  0  0  0  0  0
    2.9316   -1.2387    0.0000 C   0  0  0  0  0  0  0  0  0  0  0  0
    2.2297   -1.6309    0.0000 C   0  0  0  0  0  0  0  0  0  0  0  0
    1.5071   -1.2387    0.0000 C   0  0  0  0  0  0  0  0  0  0  0  0
    3.0967   -3.3445    0.0000 C   0  0  0  0  0  0  0  0  0  0  0  0
    2.9316   -0.4129    0.0000 C   0  0  0  0  0  0  0  0  0  0  0  0
    5.7599   -1.2387    0.0000 C   0  0  0  0  0  0  0  0  0  0  0  0
    5.7599   -3.7161    0.0000 C   0  0  0  0  0  0  0  0  0  0  0  0
    1.5278   -0.4129    0.0000 C   0  0  0  0  0  0  0  0  0  0  0  0
    2.2297    0.0000    0.0000 C   0  0  0  0  0  0  0  0  0  0  0  0
    5.7393   -0.4335    0.0000 C   0  0  0  0  0  0  0  0  0  0  0  0
    5.0374    0.0000    0.0000 C   0  0  0  0  0  0  0  0  0  0  0  0
    2.2709   -3.3651    0.0000 C   0  0  0  0  0  0  0  0  0  0  0  0
    0.8051   -3.2619    0.0000 C   0  0  0  0  0  0  0  0  0  0  0  0
    1.5071   -3.6748    0.0000 C   0  0  0  0  0  0  0  0  0  0  0  0
    2.2297   -3.2619    0.0000 C   0  0  0  0  0  0  0  0  0  0  0  0
  1  4  2  0  0  0  0
  1  5  2  0  0  0  0
  1 12  1  0  0  0  0
  1 30  1  0  0  0  0
  2 19  1  0  0  0  0
  3 22  1  0  0  0  0
  6 17  1  0  0  0  0
  6 18  1  0  0  0  0
  7 14  1  0  0  0  0
  7 21  2  0  0  0  0
  8 13  2  0  0  0  0
  8 24  1  0  0  0  0
  9 16  1  0  0  0  0
  9 21  1  0  0  0  0
 10 16  1  0  0  0  0
 10 24  2  0  0  0  0
 11 17  1  0  0  0  0
 11 28  2  0  0  0  0
 12 20  1  0  0  0  0
 13 14  1  0  0  0  0
 13 15  1  0  0  0  0
 14 16  2  0  0  0  0
 15 17  2  0  0  0  0
 15 23  1  0  0  0  0
 18 19  2  0  0  0  0
 18 22  1  0  0  0  0
 19 20  1  0  0  0  0
 20 25  2  0  0  0  0
 21 29  1  0  0  0  0
 22 26  2  0  0  0  0
 23 27  2  0  0  0  0
 25 26  1  0  0  0  0
 27 28  1  0  0  0  0
 30 31  1  0  0  0  0
 31 32  1  0  0  0  0
M  END
> <PUBCHEM_COMPOUND_ID_TYPE>
0

> <PUBCHEM_TOTAL_CHARGE>
0

> <PUBCHEM_SUBSTANCE_ID>
310929875

> <PUBCHEM_SUBSTANCE_VERSION>
1

> <PUBCHEM_EXT_DATASOURCE_NAME>
4488

> <PUBCHEM_EXT_DATASOURCE_REGID>
SCHEMBL16107090

> <PUBCHEM_SUBSTANCE_COMMENT>
InChI=1S/C20H19F2N7O2S/c1-3-9-32(30,31)29-14-7-6-13(21)17(15(14)22)28-19-12(5-4-8-23-19)16-18-20(25-10-24-16)27-11(2)26-18/h4-8,10,29H,3,9H2,1-2H3,(H,23,28)(H,24,25,26,27)
InChIKey=JLKYLISKECNJKK-UHFFFAOYSA-N

> <PUBCHEM_SUBSTANCE_SYNONYM>
SCHEMBL16107090

> <PUBCHEM_XREF_EXT_ID>
SCHEMBL16107090

> <PUBCHEM_EXT_DATASOURCE_URL>
https://www.surechembl.org/

> <PUBCHEM_EXT_SUBSTANCE_URL>
https://www.surechembl.org/chemical/SCHEMBL16107090

> <PUBCHEM_CID_ASSOCIATIONS>
71570422  1

> <PUBCHEM_COORDINATE_TYPE>
1
3

$$$$
