310945456
  -OEChem-07211613022D

 25 27  0     0  0  0  0  0  0999 V2000
    1.5109    0.8291    0.0000 F   0  0  0  0  0  0  0  0  0  0  0  0
    2.3400    1.6583    0.0000 F   0  0  0  0  0  0  0  0  0  0  0  0
    3.1507    0.8291    0.0000 F   0  0  0  0  0  0  0  0  0  0  0  0
   -0.4606    0.6081    0.0000 F   0  0  0  0  0  0  0  0  0  0  0  0
   -2.9112   -1.6583    0.0000 F   0  0  0  0  0  0  0  0  0  0  0  0
   -3.7403   -0.8291    0.0000 F   0  0  0  0  0  0  0  0  0  0  0  0
   -2.9112    0.0000    0.0000 F   0  0  0  0  0  0  0  0  0  0  0  0
    0.8475   -0.1658    0.0000 N   0  0  0  0  0  0  0  0  0  0  0  0
    0.8475   -1.5109    0.0000 N   0  0  0  0  0  0  0  0  0  0  0  0
    3.0401   -0.4238    0.0000 N   0  0  0  0  0  0  0  0  0  0  0  0
    2.3216   -1.6583    0.0000 N   0  0  0  0  0  0  0  0  0  0  0  0
    1.6214   -0.4606    0.0000 C   0  0  0  0  0  0  0  0  0  0  0  0
    2.3031   -0.0184    0.0000 C   0  0  0  0  0  0  0  0  0  0  0  0
    1.5846   -1.2713    0.0000 C   0  0  0  0  0  0  0  0  0  0  0  0
    0.3501   -0.8660    0.0000 C   0  0  0  0  0  0  0  0  0  0  0  0
   -0.4790   -0.8660    0.0000 C   0  0  0  0  0  0  0  0  0  0  0  0
    2.3216    0.8107    0.0000 C   0  0  0  0  0  0  0  0  0  0  0  0
    3.0217   -1.2713    0.0000 C   0  0  0  0  0  0  0  0  0  0  0  0
   -0.8844   -0.1474    0.0000 C   0  0  0  0  0  0  0  0  0  0  0  0
   -2.1004   -0.8660    0.0000 C   0  0  0  0  0  0  0  0  0  0  0  0
   -0.8844   -1.5661    0.0000 C   0  0  0  0  0  0  0  0  0  0  0  0
   -1.6583   -0.1474    0.0000 C   0  0  0  0  0  0  0  0  0  0  0  0
   -2.9296   -0.8660    0.0000 C   0  0  0  0  0  0  0  0  0  0  0  0
   -1.6952   -1.5846    0.0000 C   0  0  0  0  0  0  0  0  0  0  0  0
    3.7403   -1.6583    0.0000 C   0  0  0  0  0  0  0  0  0  0  0  0
  1 17  1  0  0  0  0
  2 17  1  0  0  0  0
  3 17  1  0  0  0  0
  4 19  1  0  0  0  0
  5 23  1  0  0  0  0
  6 23  1  0  0  0  0
  7 23  1  0  0  0  0
  8 12  1  0  0  0  0
  8 15  2  0  0  0  0
  9 14  1  0  0  0  0
  9 15  1  0  0  0  0
 10 13  2  0  0  0  0
 10 18  1  0  0  0  0
 11 14  1  0  0  0  0
 11 18  2  0  0  0  0
 12 13  1  0  0  0  0
 12 14  2  0  0  0  0
 13 17  1  0  0  0  0
 15 16  1  0  0  0  0
 16 19  2  0  0  0  0
 16 21  1  0  0  0  0
 18 25  1  0  0  0  0
 19 22  1  0  0  0  0
 20 22  2  0  0  0  0
 20 23  1  0  0  0  0
 20 24  1  0  0  0  0
 21 24  2  0  0  0  0
M  END
> <PUBCHEM_COMPOUND_ID_TYPE>
0

> <PUBCHEM_TOTAL_CHARGE>
0

> <PUBCHEM_SUBSTANCE_ID>
310945456

> <PUBCHEM_SUBSTANCE_VERSION>
1

> <PUBCHEM_EXT_DATASOURCE_NAME>
4488

> <PUBCHEM_EXT_DATASOURCE_REGID>
SCHEMBL16123554

> <PUBCHEM_SUBSTANCE_COMMENT>
InChI=1S/C14H7F7N4/c1-5-22-10(14(19,20)21)9-12(23-5)25-11(24-9)7-3-2-6(4-8(7)15)13(16,17)18/h2-4H,1H3,(H,22,23,24,25)
InChIKey=AFWXRUUMWASPEP-UHFFFAOYSA-N

> <PUBCHEM_SUBSTANCE_SYNONYM>
SCHEMBL16123554

> <PUBCHEM_XREF_EXT_ID>
SCHEMBL16123554

> <PUBCHEM_EXT_DATASOURCE_URL>
https://www.surechembl.org/

> <PUBCHEM_EXT_SUBSTANCE_URL>
https://www.surechembl.org/chemical/SCHEMBL16123554

> <PUBCHEM_CID_ASSOCIATIONS>
117611501  1

> <PUBCHEM_COORDINATE_TYPE>
1
3

$$$$
