310949245
  -OEChem-07211613022D

 37 42  0     0  0  0  0  0  0999 V2000
    0.0192    0.1918    0.0000 N   0  0  0  0  0  0  0  0  0  0  0  0
    2.1483   -0.2686    0.0000 N   0  0  0  0  0  0  0  0  0  0  0  0
    0.0000   -3.9321    0.0000 N   0  0  0  0  0  0  0  0  0  0  0  0
   -0.7097    0.7289    0.0000 C   0  0  0  0  0  0  0  0  0  0  0  0
    0.6713    0.7097    0.0000 C   0  0  0  0  0  0  0  0  0  0  0  0
   -0.4028    1.5153    0.0000 C   0  0  0  0  0  0  0  0  0  0  0  0
    0.4412    1.4961    0.0000 C   0  0  0  0  0  0  0  0  0  0  0  0
    0.0000   -0.6138    0.0000 C   0  0  0  0  0  0  0  0  0  0  0  0
    0.7480   -1.0166    0.0000 C   0  0  0  0  0  0  0  0  0  0  0  0
   -0.9782    2.0908    0.0000 C   0  0  0  0  0  0  0  0  0  0  0  0
    0.9974    2.0908    0.0000 C   0  0  0  0  0  0  0  0  0  0  0  0
   -1.4770    0.5562    0.0000 C   0  0  0  0  0  0  0  0  0  0  0  0
    1.5153    0.5754    0.0000 C   0  0  0  0  0  0  0  0  0  0  0  0
   -1.8030    1.9373    0.0000 C   0  0  0  0  0  0  0  0  0  0  0  0
    1.7838    1.9181    0.0000 C   0  0  0  0  0  0  0  0  0  0  0  0
   -0.6905   -1.0166    0.0000 C   0  0  0  0  0  0  0  0  0  0  0  0
    0.7289   -1.8414    0.0000 C   0  0  0  0  0  0  0  0  0  0  0  0
    0.0000   -2.2442    0.0000 C   0  0  0  0  0  0  0  0  0  0  0  0
   -0.7097   -1.8414    0.0000 C   0  0  0  0  0  0  0  0  0  0  0  0
   -2.0524    1.1509    0.0000 C   0  0  0  0  0  0  0  0  0  0  0  0
    2.0140    1.1317    0.0000 C   0  0  0  0  0  0  0  0  0  0  0  0
   -2.3785    2.5702    0.0000 C   0  0  0  0  0  0  0  0  0  0  0  0
    2.3401    2.5702    0.0000 C   0  0  0  0  0  0  0  0  0  0  0  0
    1.4386   -0.6330    0.0000 C   0  0  0  0  0  0  0  0  0  0  0  0
    0.0000   -3.1265    0.0000 C   0  0  0  0  0  0  0  0  0  0  0  0
    1.4386   -2.2826    0.0000 C   0  0  0  0  0  0  0  0  0  0  0  0
   -1.4386   -2.2826    0.0000 C   0  0  0  0  0  0  0  0  0  0  0  0
   -2.1099    3.3567    0.0000 C   0  0  0  0  0  0  0  0  0  0  0  0
    3.1457    2.3977    0.0000 C   0  0  0  0  0  0  0  0  0  0  0  0
   -3.1649    2.3977    0.0000 C   0  0  0  0  0  0  0  0  0  0  0  0
    2.0908    3.3184    0.0000 C   0  0  0  0  0  0  0  0  0  0  0  0
   -2.6278    3.9130    0.0000 C   0  0  0  0  0  0  0  0  0  0  0  0
    3.6828    2.9731    0.0000 C   0  0  0  0  0  0  0  0  0  0  0  0
   -3.6828    2.9731    0.0000 C   0  0  0  0  0  0  0  0  0  0  0  0
    2.6278    3.9321    0.0000 C   0  0  0  0  0  0  0  0  0  0  0  0
   -3.4526    3.7787    0.0000 C   0  0  0  0  0  0  0  0  0  0  0  0
    3.4526    3.7595    0.0000 C   0  0  0  0  0  0  0  0  0  0  0  0
  1  4  1  0  0  0  0
  1  5  1  0  0  0  0
  1  8  1  0  0  0  0
  2 24  3  0  0  0  0
  3 25  3  0  0  0  0
  4  6  2  0  0  0  0
  4 12  1  0  0  0  0
  5  7  2  0  0  0  0
  5 13  1  0  0  0  0
  6  7  1  0  0  0  0
  6 10  1  0  0  0  0
  7 11  1  0  0  0  0
  8  9  2  0  0  0  0
  8 16  1  0  0  0  0
  9 17  1  0  0  0  0
  9 24  1  0  0  0  0
 10 14  2  0  0  0  0
 11 15  2  0  0  0  0
 12 20  2  0  0  0  0
 13 21  2  0  0  0  0
 14 20  1  0  0  0  0
 14 22  1  0  0  0  0
 15 21  1  0  0  0  0
 15 23  1  0  0  0  0
 16 19  2  0  0  0  0
 17 18  2  0  0  0  0
 17 26  1  0  0  0  0
 18 19  1  0  0  0  0
 18 25  1  0  0  0  0
 19 27  1  0  0  0  0
 22 28  2  0  0  0  0
 22 30  1  0  0  0  0
 23 29  2  0  0  0  0
 23 31  1  0  0  0  0
 28 32  1  0  0  0  0
 29 33  1  0  0  0  0
 30 34  2  0  0  0  0
 31 35  2  0  0  0  0
 32 36  2  0  0  0  0
 33 37  2  0  0  0  0
 34 36  1  0  0  0  0
 35 37  1  0  0  0  0
M  END
> <PUBCHEM_COMPOUND_ID_TYPE>
0

> <PUBCHEM_TOTAL_CHARGE>
0

> <PUBCHEM_SUBSTANCE_ID>
310949245

> <PUBCHEM_SUBSTANCE_VERSION>
1

> <PUBCHEM_EXT_DATASOURCE_NAME>
4488

> <PUBCHEM_EXT_DATASOURCE_REGID>
SCHEMBL16127435

> <PUBCHEM_SUBSTANCE_COMMENT>
InChI=1S/C34H23N3/c1-22-17-34(31(21-36)23(2)30(22)20-35)37-32-15-13-26(24-9-5-3-6-10-24)18-28(32)29-19-27(14-16-33(29)37)25-11-7-4-8-12-25/h3-19H,1-2H3
InChIKey=POUUPSVWFPYRDK-UHFFFAOYSA-N

> <PUBCHEM_SUBSTANCE_SYNONYM>
SCHEMBL16127435

> <PUBCHEM_XREF_EXT_ID>
SCHEMBL16127435

> <PUBCHEM_EXT_DATASOURCE_URL>
https://www.surechembl.org/

> <PUBCHEM_EXT_SUBSTANCE_URL>
https://www.surechembl.org/chemical/SCHEMBL16127435

> <PUBCHEM_CID_ASSOCIATIONS>
117614733  1

> <PUBCHEM_COORDINATE_TYPE>
1
3

$$$$
