310936679
  -OEChem-07211613022D

 31 33  0     1  0  0  0  0  0999 V2000
    2.8579    0.0000    0.0000 S   0  0  0  0  0  0  0  0  0  0  0  0
    2.7405   -4.5739    0.0000 O   0  0  0  0  0  0  0  0  0  0  0  0
    3.4653   -1.6890    0.0000 O   0  0  0  0  0  0  0  0  0  0  0  0
    2.1434   -1.2375    0.0000 N   0  0  0  0  0  0  0  0  0  0  0  0
    3.5724   -1.2375    0.0000 N   0  0  0  0  0  0  0  0  0  0  0  0
    0.7145   -2.0625    0.0000 C   0  0  3  0  0  0  0  0  0  0  0  0
    1.4289   -2.4750    0.0000 C   0  0  3  0  0  0  0  0  0  0  0  0
    0.7145   -1.2375    0.0000 C   0  0  3  0  0  0  0  0  0  0  0  0
    2.2534   -2.4462    0.0000 C   0  0  3  0  0  0  0  0  0  0  0  0
    0.0000   -0.8250    0.0000 C   0  0  0  0  0  0  0  0  0  0  0  0
   -0.7145   -1.2375    0.0000 C   0  0  0  0  0  0  0  0  0  0  0  0
    0.0000   -2.4750    0.0000 C   0  0  0  0  0  0  0  0  0  0  0  0
    1.0416   -3.2034    0.0000 C   0  0  0  0  0  0  0  0  0  0  0  0
   -1.3276   -0.6855    0.0000 C   0  0  0  0  0  0  0  0  0  0  0  0
   -0.7145   -2.0625    0.0000 C   0  0  0  0  0  0  0  0  0  0  0  0
    1.4289   -0.8250    0.0000 C   0  0  0  0  0  0  0  0  0  0  0  0
    2.6906   -3.1458    0.0000 C   0  0  0  0  0  0  0  0  0  0  0  0
    2.3033   -3.8743    0.0000 C   0  0  3  0  0  0  0  0  0  0  0  0
   -0.1715   -0.0180    0.0000 C   0  0  0  0  0  0  0  0  0  0  0  0
    1.3714   -1.6520    0.0000 C   0  0  0  0  0  0  0  0  0  0  0  0
    1.4788   -3.9031    0.0000 C   0  0  0  0  0  0  0  0  0  0  0  0
    2.6408   -1.7178    0.0000 C   0  0  0  0  0  0  0  0  0  0  0  0
   -0.9920    0.0682    0.0000 C   0  0  0  0  0  0  0  0  0  0  0  0
   -2.1148   -0.4388    0.0000 C   0  0  0  0  0  0  0  0  0  0  0  0
   -1.9464   -1.2310    0.0000 C   0  0  0  0  0  0  0  0  0  0  0  0
    2.8579   -0.8250    0.0000 C   0  0  0  0  0  0  0  0  0  0  0  0
    4.2868   -0.8250    0.0000 C   0  0  0  0  0  0  0  0  0  0  0  0
    0.7145   -2.8875    0.0000 H   0  0  0  0  0  0  0  0  0  0  0  0
    1.5269   -1.3808    0.0000 H   0  0  0  0  0  0  0  0  0  0  0  0
    3.0779   -2.4174    0.0000 H   0  0  0  0  0  0  0  0  0  0  0  0
    1.9160   -4.6027    0.0000 H   0  0  0  0  0  0  0  0  0  0  0  0
  1 26  2  0  0  0  0
 18  2  1  1  0  0  0
  3 22  1  0  0  0  0
  4 16  1  0  0  0  0
  4 26  1  0  0  0  0
  5 26  1  0  0  0  0
  5 27  1  0  0  0  0
  6  7  1  0  0  0  0
  6  8  1  0  0  0  0
  6 12  1  0  0  0  0
  6 28  1  6  0  0  0
  7  9  1  0  0  0  0
  7 13  1  0  0  0  0
  7 20  1  1  0  0  0
  8 10  1  0  0  0  0
  8 16  1  0  0  0  0
  8 29  1  1  0  0  0
  9 17  1  0  0  0  0
  9 22  1  0  0  0  0
  9 30  1  6  0  0  0
 10 11  2  0  0  0  0
 10 19  1  0  0  0  0
 11 14  1  0  0  0  0
 11 15  1  0  0  0  0
 12 15  1  0  0  0  0
 13 21  1  0  0  0  0
 14 23  1  0  0  0  0
 14 24  1  0  0  0  0
 14 25  1  0  0  0  0
 17 18  1  0  0  0  0
 18 21  1  0  0  0  0
 18 31  1  6  0  0  0
 19 23  1  0  0  0  0
M  END
> <PUBCHEM_COMPOUND_ID_TYPE>
0

> <PUBCHEM_TOTAL_CHARGE>
0

> <PUBCHEM_SUBSTANCE_ID>
310936679

> <PUBCHEM_SUBSTANCE_VERSION>
1

> <PUBCHEM_EXT_DATASOURCE_NAME>
4488

> <PUBCHEM_EXT_DATASOURCE_REGID>
SCHEMBL16114352

> <PUBCHEM_SUBSTANCE_COMMENT>
InChI=1S/C22H38N2O2S/c1-21(2)9-8-16-17(12-24-20(27)23-4)19(6-5-18(16)21)22(3)10-7-15(26)11-14(22)13-25/h14-15,17,19,25-26H,5-13H2,1-4H3,(H2,23,24,27)/t14-,15+,17+,19+,22+/m1/s1
InChIKey=HJZNHFMLTZTGJR-BRKOAEBASA-N

> <PUBCHEM_SUBSTANCE_SYNONYM>
SCHEMBL16114352

> <PUBCHEM_XREF_EXT_ID>
SCHEMBL16114352

> <PUBCHEM_EXT_DATASOURCE_URL>
https://www.surechembl.org/

> <PUBCHEM_EXT_SUBSTANCE_URL>
https://www.surechembl.org/chemical/SCHEMBL16114352

> <PUBCHEM_CID_ASSOCIATIONS>
86273705  1

> <PUBCHEM_COORDINATE_TYPE>
1
3

> <PUBCHEM_BONDANNOTATIONS>
18  31  6
18  2  5
6  28  6
7  20  5
8  29  5
9  30  6

$$$$
