310944102
  -OEChem-07211613022D

 32 36  0     1  0  0  0  0  0999 V2000
    2.6020    1.0496    0.0000 O   0  0  0  0  0  0  0  0  0  0  0  0
    5.4195    0.1989    0.0000 O   0  0  0  0  0  0  0  0  0  0  0  0
    5.5078    1.6574    0.0000 O   0  0  0  0  0  0  0  0  0  0  0  0
   -0.8010   -0.9834    0.0000 O   0  0  0  0  0  0  0  0  0  0  0  0
    3.3202   -0.2210    0.0000 N   0  0  0  0  0  0  0  0  0  0  0  0
    0.3922    0.1657    0.0000 N   0  0  0  0  0  0  0  0  0  0  0  0
   -4.1709    0.7182    0.0000 N   0  0  0  0  0  0  0  0  0  0  0  0
   -3.1766   -0.3094    0.0000 N   0  0  0  0  0  0  0  0  0  0  0  0
   -4.4582    1.4916    0.0000 N   0  0  0  0  0  0  0  0  0  0  0  0
   -5.2869    1.4584    0.0000 N   0  0  0  0  0  0  0  0  0  0  0  0
   -5.5078    0.6629    0.0000 N   0  0  0  0  0  0  0  0  0  0  0  0
    1.9832   -0.2652    0.0000 C   0  0  0  0  0  0  0  0  0  0  0  0
    2.6241    0.2320    0.0000 C   0  0  0  0  0  0  0  0  0  0  0  0
    3.0882   -1.0054    0.0000 C   0  0  3  0  0  0  0  0  0  0  0  0
    2.2705   -1.0386    0.0000 C   0  0  0  0  0  0  0  0  0  0  0  0
    4.0825    0.0773    0.0000 C   0  0  0  0  0  0  0  0  0  0  0  0
    1.3977   -0.8397    0.0000 C   0  0  0  0  0  0  0  0  0  0  0  0
    1.7844    0.5303    0.0000 C   0  0  0  0  0  0  0  0  0  0  0  0
    0.5911   -0.6187    0.0000 C   0  0  0  0  0  0  0  0  0  0  0  0
    0.9778    0.7513    0.0000 C   0  0  0  0  0  0  0  0  0  0  0  0
    4.2704    0.8728    0.0000 C   0  0  0  0  0  0  0  0  0  0  0  0
    4.8229   -0.3425    0.0000 C   0  0  0  0  0  0  0  0  0  0  0  0
    3.6185   -1.6574    0.0000 C   0  0  0  0  0  0  0  0  0  0  0  0
    5.0770    0.9281    0.0000 C   0  0  0  0  0  0  0  0  0  0  0  0
   -0.4033    0.3978    0.0000 C   0  0  0  0  0  0  0  0  0  0  0  0
   -0.9999   -0.1768    0.0000 C   0  0  3  0  0  0  0  0  0  0  0  0
   -1.7955    0.0663    0.0000 C   0  0  0  0  0  0  0  0  0  0  0  0
   -3.3754    0.5083    0.0000 C   0  0  0  0  0  0  0  0  0  0  0  0
   -2.3810   -0.5193    0.0000 C   0  0  0  0  0  0  0  0  0  0  0  0
   -1.9943    0.8508    0.0000 C   0  0  0  0  0  0  0  0  0  0  0  0
   -2.7898    1.0718    0.0000 C   0  0  0  0  0  0  0  0  0  0  0  0
   -4.8229    0.2099    0.0000 C   0  0  0  0  0  0  0  0  0  0  0  0
  1 13  2  0  0  0  0
  2 22  1  0  0  0  0
  2 24  1  0  0  0  0
  3 24  2  0  0  0  0
 26  4  1  1  0  0  0
  5 13  1  0  0  0  0
  5 14  1  0  0  0  0
  5 16  1  0  0  0  0
  6 19  1  0  0  0  0
  6 20  1  0  0  0  0
  6 25  1  0  0  0  0
  7  9  1  0  0  0  0
  7 28  1  0  0  0  0
  7 32  1  0  0  0  0
  8 28  1  0  0  0  0
  8 29  2  0  0  0  0
  9 10  2  0  0  0  0
 10 11  1  0  0  0  0
 11 32  2  0  0  0  0
 12 13  1  0  0  0  0
 12 15  1  0  0  0  0
 12 17  1  0  0  0  0
 12 18  1  0  0  0  0
 14 15  1  0  0  0  0
 14 23  1  1  0  0  0
 16 21  2  0  0  0  0
 16 22  1  0  0  0  0
 17 19  1  0  0  0  0
 18 20  1  0  0  0  0
 21 24  1  0  0  0  0
 25 26  1  0  0  0  0
 26 27  1  0  0  0  0
 27 29  1  0  0  0  0
 27 30  2  0  0  0  0
 28 31  2  0  0  0  0
 30 31  1  0  0  0  0
M  END
> <PUBCHEM_COMPOUND_ID_TYPE>
0

> <PUBCHEM_TOTAL_CHARGE>
0

> <PUBCHEM_SUBSTANCE_ID>
310944102

> <PUBCHEM_SUBSTANCE_VERSION>
1

> <PUBCHEM_EXT_DATASOURCE_NAME>
4488

> <PUBCHEM_EXT_DATASOURCE_REGID>
SCHEMBL16122177

> <PUBCHEM_SUBSTANCE_COMMENT>
InChI=1S/C21H25N7O4/c1-14-9-21(20(31)28(14)16-8-19(30)32-12-16)4-6-26(7-5-21)11-17(29)15-2-3-18(22-10-15)27-13-23-24-25-27/h2-3,8,10,13-14,17,29H,4-7,9,11-12H2,1H3/t14-,17+/m0/s1
InChIKey=QHFGCRSFXLOXTP-WMLDXEAASA-N

> <PUBCHEM_SUBSTANCE_SYNONYM>
SCHEMBL16122177

> <PUBCHEM_XREF_EXT_ID>
SCHEMBL16122177

> <PUBCHEM_EXT_DATASOURCE_URL>
https://www.surechembl.org/

> <PUBCHEM_EXT_SUBSTANCE_URL>
https://www.surechembl.org/chemical/SCHEMBL16122177

> <PUBCHEM_CID_ASSOCIATIONS>
86271826  1

> <PUBCHEM_COORDINATE_TYPE>
1
3

> <PUBCHEM_BONDANNOTATIONS>
14  23  5
26  4  5

$$$$
