310948858
  -OEChem-07211613022D

 53 54  0     1  0  0  0  0  0999 V2000
    5.3645    0.0000    0.0000 P   0  0  3  0  0  0  0  0  0  0  0  0
    9.0026   -1.9057    0.0000 F   0  0  0  0  0  0  0  0  0  0  0  0
    8.1736    0.0742    0.0000 O   0  0  0  0  0  0  0  0  0  0  0  0
    7.3444   -1.9181    0.0000 O   0  0  0  0  0  0  0  0  0  0  0  0
    6.0698   -0.4083    0.0000 O   0  0  0  0  0  0  0  0  0  0  0  0
   10.4382   -0.8415    0.0000 O   0  0  0  0  0  0  0  0  0  0  0  0
   11.1682    1.9181    0.0000 O   0  0  0  0  0  0  0  0  0  0  0  0
    4.9437   -0.7178    0.0000 O   0  0  0  0  0  0  0  0  0  0  0  0
    5.3645    0.8291    0.0000 O   0  0  0  0  0  0  0  0  0  0  0  0
   -0.4640   -1.2375    0.0000 O   0  0  0  0  0  0  0  0  0  0  0  0
    9.4481    0.1733    0.0000 N   0  0  0  0  0  0  0  0  0  0  0  0
   10.8218    0.5445    0.0000 N   0  0  0  0  0  0  0  0  0  0  0  0
    4.5477    0.0247    0.0000 N   0  0  0  0  0  0  0  0  0  0  0  0
    2.4069   -0.4083    0.0000 N   0  0  3  0  0  0  0  0  0  0  0  0
    0.2660    0.0247    0.0000 N   0  0  0  0  0  0  0  0  0  0  0  0
    8.6067   -1.1879    0.0000 C   0  0  3  0  0  0  0  0  0  0  0  0
    8.8418   -0.4083    0.0000 C   0  0  3  0  0  0  0  0  0  0  0  0
    7.7651   -1.1879    0.0000 C   0  0  3  0  0  0  0  0  0  0  0  0
    7.5177   -0.4083    0.0000 C   0  0  3  0  0  0  0  0  0  0  0  0
   10.2277   -0.0371    0.0000 C   0  0  0  0  0  0  0  0  0  0  0  0
    9.4234   -1.2003    0.0000 C   0  0  0  0  0  0  0  0  0  0  0  0
    6.7999    0.0000    0.0000 C   0  0  0  0  0  0  0  0  0  0  0  0
    9.2377    0.9652    0.0000 C   0  0  0  0  0  0  0  0  0  0  0  0
   10.5990    1.3365    0.0000 C   0  0  0  0  0  0  0  0  0  0  0  0
    9.8070    1.5468    0.0000 C   0  0  0  0  0  0  0  0  0  0  0  0
    3.8424   -0.4083    0.0000 C   0  0  0  0  0  0  0  0  0  0  0  0
    5.3645   -1.4231    0.0000 C   0  0  0  0  0  0  0  0  0  0  0  0
    3.1123    0.0000    0.0000 C   0  0  0  0  0  0  0  0  0  0  0  0
    1.6768    0.0000    0.0000 C   0  0  0  0  0  0  0  0  0  0  0  0
    2.4069   -1.2251    0.0000 C   0  0  0  0  0  0  0  0  0  0  0  0
    0.9838   -0.4083    0.0000 C   0  0  0  0  0  0  0  0  0  0  0  0
   -0.4516   -0.3960    0.0000 C   0  0  0  0  0  0  0  0  0  0  0  0
   -1.1818    0.0000    0.0000 C   0  0  0  0  0  0  0  0  0  0  0  0
   -1.8748   -0.4083    0.0000 C   0  0  0  0  0  0  0  0  0  0  0  0
   -2.6049    0.0000    0.0000 C   0  0  0  0  0  0  0  0  0  0  0  0
   -3.2979   -0.3960    0.0000 C   0  0  0  0  0  0  0  0  0  0  0  0
   -3.3103   -1.2375    0.0000 C   0  0  0  0  0  0  0  0  0  0  0  0
   -4.0156   -1.6459    0.0000 C   0  0  0  0  0  0  0  0  0  0  0  0
   -4.7457   -1.2251    0.0000 C   0  0  0  0  0  0  0  0  0  0  0  0
   -4.7457   -0.4083    0.0000 C   0  0  0  0  0  0  0  0  0  0  0  0
   -5.4634    0.0000    0.0000 C   0  0  0  0  0  0  0  0  0  0  0  0
   -6.1565   -0.3960    0.0000 C   0  0  0  0  0  0  0  0  0  0  0  0
   -6.1688   -1.2375    0.0000 C   0  0  0  0  0  0  0  0  0  0  0  0
   -6.8866   -1.6459    0.0000 C   0  0  0  0  0  0  0  0  0  0  0  0
   -7.5919   -1.2375    0.0000 C   0  0  0  0  0  0  0  0  0  0  0  0
   -7.5919   -0.4083    0.0000 C   0  0  0  0  0  0  0  0  0  0  0  0
   -8.3220    0.0000    0.0000 C   0  0  0  0  0  0  0  0  0  0  0  0
   -9.0150   -0.4083    0.0000 C   0  0  0  0  0  0  0  0  0  0  0  0
   -9.0274   -1.2375    0.0000 C   0  0  0  0  0  0  0  0  0  0  0  0
   -9.7451   -1.6459    0.0000 C   0  0  0  0  0  0  0  0  0  0  0  0
  -10.4505   -1.2375    0.0000 C   0  0  0  0  0  0  0  0  0  0  0  0
  -10.4505   -0.4083    0.0000 C   0  0  0  0  0  0  0  0  0  0  0  0
  -11.1682   -0.0124    0.0000 C   0  0  0  0  0  0  0  0  0  0  0  0
  1  5  1  0  0  0  0
  1  8  1  0  0  0  0
  1  9  2  0  0  0  0
  1 13  1  0  0  0  0
 16  2  1  6  0  0  0
  3 17  1  0  0  0  0
  3 19  1  0  0  0  0
 18  4  1  6  0  0  0
  5 22  1  0  0  0  0
  6 20  2  0  0  0  0
  7 24  2  0  0  0  0
  8 27  1  0  0  0  0
 10 32  2  0  0  0  0
 11 17  1  0  0  0  0
 11 20  1  0  0  0  0
 11 23  1  0  0  0  0
 12 20  1  0  0  0  0
 12 24  1  0  0  0  0
 13 26  1  0  0  0  0
 14 28  1  0  0  0  0
 14 29  1  0  0  0  0
 14 30  1  0  0  0  0
 15 31  1  0  0  0  0
 15 32  1  0  0  0  0
 16 17  1  0  0  0  0
 16 18  1  0  0  0  0
 16 21  1  1  0  0  0
 18 19  1  0  0  0  0
 19 22  1  1  0  0  0
 23 25  2  0  0  0  0
 24 25  1  0  0  0  0
 26 28  1  0  0  0  0
 29 31  1  0  0  0  0
 32 33  1  0  0  0  0
 33 34  1  0  0  0  0
 34 35  1  0  0  0  0
 35 36  2  0  0  0  0
 36 37  1  0  0  0  0
 37 38  1  0  0  0  0
 38 39  2  0  0  0  0
 39 40  1  0  0  0  0
 40 41  1  0  0  0  0
 41 42  2  0  0  0  0
 42 43  1  0  0  0  0
 43 44  1  0  0  0  0
 44 45  2  0  0  0  0
 45 46  1  0  0  0  0
 46 47  1  0  0  0  0
 47 48  2  0  0  0  0
 48 49  1  0  0  0  0
 49 50  1  0  0  0  0
 50 51  2  0  0  0  0
 51 52  1  0  0  0  0
 52 53  1  0  0  0  0
M  END
> <PUBCHEM_COMPOUND_ID_TYPE>
0

> <PUBCHEM_TOTAL_CHARGE>
0

> <PUBCHEM_SUBSTANCE_ID>
310948858

> <PUBCHEM_SUBSTANCE_VERSION>
1

> <PUBCHEM_EXT_DATASOURCE_NAME>
4488

> <PUBCHEM_EXT_DATASOURCE_REGID>
SCHEMBL16127043

> <PUBCHEM_SUBSTANCE_COMMENT>
InChI=1S/C38H59FN5O8P/c1-5-6-7-8-9-10-11-12-13-14-15-16-17-18-19-20-21-22-23-24-33(45)40-26-29-43(3)30-27-41-53(49,50-4)51-31-32-35(47)38(2,39)36(52-32)44-28-25-34(46)42-37(44)48/h6-7,9-10,12-13,15-16,18-19,21-22,25,28,32,35-36,47H,5,8,11,14,17,20,23-24,26-27,29-31H2,1-4H3,(H,40,45)(H,41,49)(H,42,46,48)/b7-6-,10-9-,13-12-,16-15-,19-18-,22-21-/t32-,35-,36?,38-,53?/m1/s1
InChIKey=MLKNEMRFLRHIHV-SBEDDUJNSA-N

> <PUBCHEM_SUBSTANCE_SYNONYM>
SCHEMBL16127043

> <PUBCHEM_XREF_EXT_ID>
SCHEMBL16127043

> <PUBCHEM_EXT_DATASOURCE_URL>
https://www.surechembl.org/

> <PUBCHEM_EXT_SUBSTANCE_URL>
https://www.surechembl.org/chemical/SCHEMBL16127043

> <PUBCHEM_CID_ASSOCIATIONS>
117614393  1

> <PUBCHEM_COORDINATE_TYPE>
1
3

> <PUBCHEM_BONDANNOTATIONS>
16  21  5
19  22  5
16  2  6
18  4  6

$$$$
