310944179
  -OEChem-07211613022D

 32 36  0     1  0  0  0  0  0999 V2000
    2.5501    0.7673    0.0000 O   0  0  0  0  0  0  0  0  0  0  0  0
    5.4425    0.0386    0.0000 O   0  0  0  0  0  0  0  0  0  0  0  0
   -0.6844   -1.5179    0.0000 O   0  0  0  0  0  0  0  0  0  0  0  0
    5.5087    1.5179    0.0000 O   0  0  0  0  0  0  0  0  0  0  0  0
    3.3670   -0.4692    0.0000 N   0  0  0  0  0  0  0  0  0  0  0  0
    0.4195   -0.2815    0.0000 N   0  0  0  0  0  0  0  0  0  0  0  0
   -4.1729   -0.0496    0.0000 N   0  0  0  0  0  0  0  0  0  0  0  0
   -2.2962   -1.1867    0.0000 N   0  0  0  0  0  0  0  0  0  0  0  0
   -4.5151    0.7120    0.0000 N   0  0  0  0  0  0  0  0  0  0  0  0
   -5.3321    0.6127    0.0000 N   0  0  0  0  0  0  0  0  0  0  0  0
   -5.5087   -0.1932    0.0000 N   0  0  0  0  0  0  0  0  0  0  0  0
    2.0312   -0.6017    0.0000 C   0  0  0  0  0  0  0  0  0  0  0  0
    2.6384   -0.0607    0.0000 C   0  0  0  0  0  0  0  0  0  0  0  0
    2.3735   -1.3523    0.0000 C   0  0  0  0  0  0  0  0  0  0  0  0
    4.1177   -0.1049    0.0000 C   0  0  0  0  0  0  0  0  0  0  0  0
    1.4903   -1.2198    0.0000 C   0  0  0  0  0  0  0  0  0  0  0  0
    1.7884    0.1821    0.0000 C   0  0  0  0  0  0  0  0  0  0  0  0
    3.1904   -1.2641    0.0000 C   0  0  0  0  0  0  0  0  0  0  0  0
    0.6844   -1.0543    0.0000 C   0  0  0  0  0  0  0  0  0  0  0  0
    0.9714    0.3478    0.0000 C   0  0  0  0  0  0  0  0  0  0  0  0
    4.2833    0.7010    0.0000 C   0  0  0  0  0  0  0  0  0  0  0  0
    4.8464   -0.5133    0.0000 C   0  0  0  0  0  0  0  0  0  0  0  0
   -3.3670   -0.2153    0.0000 C   0  0  0  0  0  0  0  0  0  0  0  0
   -1.7442   -0.5354    0.0000 C   0  0  0  0  0  0  0  0  0  0  0  0
   -0.3864   -0.1049    0.0000 C   0  0  0  0  0  0  0  0  0  0  0  0
    5.0892    0.7783    0.0000 C   0  0  0  0  0  0  0  0  0  0  0  0
   -0.9383   -0.7230    0.0000 C   0  0  3  0  0  0  0  0  0  0  0  0
   -2.8150    0.4250    0.0000 C   0  0  0  0  0  0  0  0  0  0  0  0
   -1.9981    0.2374    0.0000 C   0  0  0  0  0  0  0  0  0  0  0  0
   -3.1021   -0.9991    0.0000 C   0  0  0  0  0  0  0  0  0  0  0  0
   -4.7801   -0.6017    0.0000 C   0  0  0  0  0  0  0  0  0  0  0  0
   -3.0800    1.2088    0.0000 C   0  0  0  0  0  0  0  0  0  0  0  0
  1 13  2  0  0  0  0
  2 22  1  0  0  0  0
  2 26  1  0  0  0  0
 27  3  1  1  0  0  0
  4 26  2  0  0  0  0
  5 13  1  0  0  0  0
  5 15  1  0  0  0  0
  5 18  1  0  0  0  0
  6 19  1  0  0  0  0
  6 20  1  0  0  0  0
  6 25  1  0  0  0  0
  7  9  1  0  0  0  0
  7 23  1  0  0  0  0
  7 31  1  0  0  0  0
  8 24  2  0  0  0  0
  8 30  1  0  0  0  0
  9 10  2  0  0  0  0
 10 11  1  0  0  0  0
 11 31  2  0  0  0  0
 12 13  1  0  0  0  0
 12 14  1  0  0  0  0
 12 16  1  0  0  0  0
 12 17  1  0  0  0  0
 14 18  1  0  0  0  0
 15 21  2  0  0  0  0
 15 22  1  0  0  0  0
 16 19  1  0  0  0  0
 17 20  1  0  0  0  0
 21 26  1  0  0  0  0
 23 28  1  0  0  0  0
 23 30  2  0  0  0  0
 24 27  1  0  0  0  0
 24 29  1  0  0  0  0
 25 27  1  0  0  0  0
 28 29  2  0  0  0  0
 28 32  1  0  0  0  0
M  END
> <PUBCHEM_COMPOUND_ID_TYPE>
0

> <PUBCHEM_TOTAL_CHARGE>
0

> <PUBCHEM_SUBSTANCE_ID>
310944179

> <PUBCHEM_SUBSTANCE_VERSION>
1

> <PUBCHEM_EXT_DATASOURCE_NAME>
4488

> <PUBCHEM_EXT_DATASOURCE_REGID>
SCHEMBL16122254

> <PUBCHEM_SUBSTANCE_COMMENT>
InChI=1S/C21H25N7O4/c1-14-8-16(22-10-17(14)28-13-23-24-25-28)18(29)11-26-5-2-21(3-6-26)4-7-27(20(21)31)15-9-19(30)32-12-15/h8-10,13,18,29H,2-7,11-12H2,1H3/t18-/m1/s1
InChIKey=FRVFPAYGRQGNQX-GOSISDBHSA-N

> <PUBCHEM_SUBSTANCE_SYNONYM>
SCHEMBL16122254

> <PUBCHEM_XREF_EXT_ID>
SCHEMBL16122254

> <PUBCHEM_EXT_DATASOURCE_URL>
https://www.surechembl.org/

> <PUBCHEM_EXT_SUBSTANCE_URL>
https://www.surechembl.org/chemical/SCHEMBL16122254

> <PUBCHEM_CID_ASSOCIATIONS>
117610453  1

> <PUBCHEM_COORDINATE_TYPE>
1
3

> <PUBCHEM_BONDANNOTATIONS>
27  3  5

$$$$
