310939539
  -OEChem-07211613022D

 44 48  0     1  0  0  0  0  0999 V2000
   -5.0605   -1.6753    0.0000 O   0  0  0  0  0  0  0  0  0  0  0  0
   -9.2985   -3.4026    0.0000 O   0  0  0  0  0  0  0  0  0  0  0  0
   -3.8511   -2.1763    0.0000 O   0  0  0  0  0  0  0  0  0  0  0  0
   -3.2678   -2.7596    0.0000 O   0  0  0  0  0  0  0  0  0  0  0  0
   -2.8979   -4.1399    0.0000 O   0  0  0  0  0  0  0  0  0  0  0  0
   -4.5290    0.5316    0.0000 O   0  0  0  0  0  0  0  0  0  0  0  0
   -9.2985   -5.0526    0.0000 O   0  0  0  0  0  0  0  0  0  0  0  0
   -7.1550   -1.2628    0.0000 C   0  0  3  0  0  0  0  0  0  0  0  0
   -7.1550   -2.0878    0.0000 C   0  0  3  0  0  0  0  0  0  0  0  0
   -6.3704   -1.0079    0.0000 C   0  0  3  0  0  0  0  0  0  0  0  0
   -5.8855   -1.6753    0.0000 C   0  0  3  0  0  0  0  0  0  0  0  0
   -8.5840   -2.0878    0.0000 C   0  0  0  0  0  0  0  0  0  0  0  0
   -8.5840   -1.2628    0.0000 C   0  0  0  0  0  0  0  0  0  0  0  0
   -6.3704   -2.3427    0.0000 C   0  0  0  0  0  0  0  0  0  0  0  0
   -7.8695   -0.8503    0.0000 C   0  0  0  0  0  0  0  0  0  0  0  0
   -7.8695   -2.5003    0.0000 C   0  0  0  0  0  0  0  0  0  0  0  0
   -9.2985   -2.5003    0.0000 C   0  0  0  0  0  0  0  0  0  0  0  0
   -5.9579   -0.2934    0.0000 C   0  0  0  0  0  0  0  0  0  0  0  0
   -9.2985   -0.8503    0.0000 C   0  0  0  0  0  0  0  0  0  0  0  0
   -4.6480   -2.3898    0.0000 C   0  0  0  0  0  0  0  0  0  0  0  0
  -10.0129   -2.0878    0.0000 C   0  0  0  0  0  0  0  0  0  0  0  0
   -4.8615   -3.1867    0.0000 C   0  0  3  0  0  0  0  0  0  0  0  0
  -10.0129   -1.2628    0.0000 C   0  0  0  0  0  0  0  0  0  0  0  0
   -4.2782   -3.7700    0.0000 C   0  0  3  0  0  0  0  0  0  0  0  0
   -5.2435   -0.7059    0.0000 C   0  0  0  0  0  0  0  0  0  0  0  0
   -5.6584   -3.4002    0.0000 C   0  0  0  0  0  0  0  0  0  0  0  0
  -10.0129   -3.8151    0.0000 C   0  0  0  0  0  0  0  0  0  0  0  0
   -4.5290   -0.2934    0.0000 C   0  0  3  0  0  0  0  0  0  0  0  0
   -3.4813   -3.5565    0.0000 C   0  0  0  0  0  0  0  0  0  0  0  0
   -4.4917   -4.5669    0.0000 C   0  0  0  0  0  0  0  0  0  0  0  0
  -10.0129   -4.6401    0.0000 C   0  0  0  0  0  0  0  0  0  0  0  0
   -5.8719   -4.1971    0.0000 C   0  0  0  0  0  0  0  0  0  0  0  0
   -5.2886   -4.7804    0.0000 C   0  0  0  0  0  0  0  0  0  0  0  0
  -10.7274   -5.0526    0.0000 C   0  0  0  0  0  0  0  0  0  0  0  0
   -3.8145   -0.7059    0.0000 C   0  0  0  0  0  0  0  0  0  0  0  0
  -11.4419   -4.6401    0.0000 C   0  0  0  0  0  0  0  0  0  0  0  0
  -10.7274   -5.8776    0.0000 C   0  0  0  0  0  0  0  0  0  0  0  0
   -3.1000   -0.2934    0.0000 C   0  0  0  0  0  0  0  0  0  0  0  0
  -12.1563   -5.0526    0.0000 C   0  0  0  0  0  0  0  0  0  0  0  0
  -11.4419   -6.2901    0.0000 C   0  0  0  0  0  0  0  0  0  0  0  0
  -12.1563   -5.8776    0.0000 C   0  0  0  0  0  0  0  0  0  0  0  0
   -2.3856   -0.7059    0.0000 C   0  0  0  0  0  0  0  0  0  0  0  0
   -1.6711   -0.2934    0.0000 C   0  0  0  0  0  0  0  0  0  0  0  0
   -0.9566   -0.7059    0.0000 C   0  0  0  0  0  0  0  0  0  0  0  0
 11  1  1  6  0  0  0
  1 20  1  0  0  0  0
  2 17  1  0  0  0  0
  2 27  1  0  0  0  0
  3 20  2  0  0  0  0
  4 29  2  0  0  0  0
  5 29  1  0  0  0  0
 28  6  1  1  0  0  0
  7 31  2  0  0  0  0
  8  9  1  0  0  0  0
  8 10  1  0  0  0  0
  8 15  1  6  0  0  0
  9 14  1  6  0  0  0
  9 16  1  0  0  0  0
 10 11  1  0  0  0  0
 10 18  1  1  0  0  0
 11 14  1  0  0  0  0
 12 13  2  0  0  0  0
 12 16  1  0  0  0  0
 12 17  1  0  0  0  0
 13 15  1  0  0  0  0
 13 19  1  0  0  0  0
 17 21  2  0  0  0  0
 18 25  1  0  0  0  0
 19 23  2  0  0  0  0
 22 20  1  1  0  0  0
 21 23  1  0  0  0  0
 22 24  1  0  0  0  0
 22 26  1  0  0  0  0
 24 29  1  1  0  0  0
 24 30  1  0  0  0  0
 25 28  1  0  0  0  0
 26 32  1  0  0  0  0
 27 31  1  0  0  0  0
 28 35  1  0  0  0  0
 30 33  1  0  0  0  0
 31 34  1  0  0  0  0
 32 33  1  0  0  0  0
 34 36  2  0  0  0  0
 34 37  1  0  0  0  0
 35 38  1  0  0  0  0
 36 39  1  0  0  0  0
 37 40  2  0  0  0  0
 38 42  1  0  0  0  0
 39 41  2  0  0  0  0
 40 41  1  0  0  0  0
 42 43  1  0  0  0  0
 43 44  1  0  0  0  0
M  END
> <PUBCHEM_COMPOUND_ID_TYPE>
0

> <PUBCHEM_TOTAL_CHARGE>
0

> <PUBCHEM_SUBSTANCE_ID>
310939539

> <PUBCHEM_SUBSTANCE_VERSION>
1

> <PUBCHEM_EXT_DATASOURCE_NAME>
4488

> <PUBCHEM_EXT_DATASOURCE_REGID>
SCHEMBL16117468

> <PUBCHEM_SUBSTANCE_COMMENT>
InChI=1S/C37H48O7/c1-2-3-5-14-27(38)18-19-28-31-20-25-13-10-17-34(43-23-33(39)24-11-6-4-7-12-24)32(25)21-26(31)22-35(28)44-37(42)30-16-9-8-15-29(30)36(40)41/h4,6-7,10-13,17,26-31,35,38H,2-3,5,8-9,14-16,18-23H2,1H3,(H,40,41)/t26-,27-,28+,29-,30+,31-,35+/m0/s1
InChIKey=KPWHKEWESQKBAR-KHWYPYHDSA-N

> <PUBCHEM_SUBSTANCE_SYNONYM>
SCHEMBL16117468

> <PUBCHEM_XREF_EXT_ID>
SCHEMBL16117468

> <PUBCHEM_EXT_DATASOURCE_URL>
https://www.surechembl.org/

> <PUBCHEM_EXT_SUBSTANCE_URL>
https://www.surechembl.org/chemical/SCHEMBL16117468

> <PUBCHEM_CID_ASSOCIATIONS>
117606836  1

> <PUBCHEM_COORDINATE_TYPE>
1
3

> <PUBCHEM_BONDANNOTATIONS>
11  1  6
10  18  5
22  20  5
24  29  5
28  6  5
8  15  6
9  14  6

$$$$
