310931567
  -OEChem-07211613022D

 28 30  0     0  0  0  0  0  0999 V2000
    3.2127   -2.5894    0.0000 O   0  0  0  0  0  0  0  0  0  0  0  0
    4.3636   -1.3906    0.0000 O   0  0  0  0  0  0  0  0  0  0  0  0
    5.7062   -1.8222    0.0000 O   0  0  0  0  0  0  0  0  0  0  0  0
    0.4316   -5.4185    0.0000 O   0  0  0  0  0  0  0  0  0  0  0  0
    0.8631   -9.5902    0.0000 O   0  0  0  0  0  0  0  0  0  0  0  0
    3.8841   -3.8841    0.0000 N   0  0  0  0  0  0  0  0  0  0  0  0
    4.6513   -4.1238    0.0000 N   0  0  0  0  0  0  0  0  0  0  0  0
    3.3086   -5.1308    0.0000 N   0  0  0  0  0  0  0  0  0  0  0  0
    1.2947   -6.6173    0.0000 N   0  0  0  0  0  0  0  0  0  0  0  0
    3.8841   -3.0689    0.0000 C   0  0  0  0  0  0  0  0  0  0  0  0
    4.6513   -2.7812    0.0000 C   0  0  0  0  0  0  0  0  0  0  0  0
    3.2127   -4.3636    0.0000 C   0  0  0  0  0  0  0  0  0  0  0  0
    5.1308   -3.4525    0.0000 C   0  0  0  0  0  0  0  0  0  0  0  0
    4.8910   -2.0140    0.0000 C   0  0  0  0  0  0  0  0  0  0  0  0
    2.4455   -3.9800    0.0000 C   0  0  0  0  0  0  0  0  0  0  0  0
    1.8701   -5.2746    0.0000 C   0  0  0  0  0  0  0  0  0  0  0  0
    2.6373   -5.6583    0.0000 C   0  0  0  0  0  0  0  0  0  0  0  0
    1.7742   -4.5074    0.0000 C   0  0  0  0  0  0  0  0  0  0  0  0
    1.1988   -5.7542    0.0000 C   0  0  0  0  0  0  0  0  0  0  0  0
    2.4455   -2.9251    0.0000 C   0  0  0  0  0  0  0  0  0  0  0  0
    4.6033   -0.6233    0.0000 C   0  0  0  0  0  0  0  0  0  0  0  0
    0.6233   -7.0968    0.0000 C   0  0  0  0  0  0  0  0  0  0  0  0
    0.6713   -7.9120    0.0000 C   0  0  0  0  0  0  0  0  0  0  0  0
    0.0000   -8.4394    0.0000 C   0  0  0  0  0  0  0  0  0  0  0  0
    1.4385   -8.2956    0.0000 C   0  0  0  0  0  0  0  0  0  0  0  0
    4.0279    0.0000    0.0000 C   0  0  0  0  0  0  0  0  0  0  0  0
    0.0959   -9.2067    0.0000 C   0  0  0  0  0  0  0  0  0  0  0  0
    1.5344   -9.0628    0.0000 C   0  0  0  0  0  0  0  0  0  0  0  0
  1 10  1  0  0  0  0
  1 20  1  0  0  0  0
  2 14  1  0  0  0  0
  2 21  1  0  0  0  0
  3 14  2  0  0  0  0
  4 19  2  0  0  0  0
  5 27  1  0  0  0  0
  5 28  1  0  0  0  0
  6  7  1  0  0  0  0
  6 10  1  0  0  0  0
  6 12  1  0  0  0  0
  7 13  2  0  0  0  0
  8 12  1  0  0  0  0
  8 17  2  0  0  0  0
  9 19  1  0  0  0  0
  9 22  1  0  0  0  0
 10 11  2  0  0  0  0
 11 13  1  0  0  0  0
 11 14  1  0  0  0  0
 12 15  2  0  0  0  0
 15 18  1  0  0  0  0
 16 17  1  0  0  0  0
 16 18  2  0  0  0  0
 16 19  1  0  0  0  0
 21 26  1  0  0  0  0
 22 23  1  0  0  0  0
 23 24  1  0  0  0  0
 23 25  1  0  0  0  0
 24 27  1  0  0  0  0
 25 28  1  0  0  0  0
M  END
> <PUBCHEM_COMPOUND_ID_TYPE>
0

> <PUBCHEM_TOTAL_CHARGE>
0

> <PUBCHEM_SUBSTANCE_ID>
310931567

> <PUBCHEM_SUBSTANCE_VERSION>
1

> <PUBCHEM_EXT_DATASOURCE_NAME>
4488

> <PUBCHEM_EXT_DATASOURCE_REGID>
SCHEMBL16108893

> <PUBCHEM_SUBSTANCE_COMMENT>
InChI=1S/C19H24N4O5/c1-3-28-19(25)15-12-22-23(18(15)26-2)16-5-4-14(11-20-16)17(24)21-10-13-6-8-27-9-7-13/h4-5,11-13H,3,6-10H2,1-2H3,(H,21,24)
InChIKey=HLSNLQHJWLCQCA-UHFFFAOYSA-N

> <PUBCHEM_SUBSTANCE_SYNONYM>
SCHEMBL16108893

> <PUBCHEM_XREF_EXT_ID>
SCHEMBL16108893

> <PUBCHEM_EXT_DATASOURCE_URL>
https://www.surechembl.org/

> <PUBCHEM_EXT_SUBSTANCE_URL>
https://www.surechembl.org/chemical/SCHEMBL16108893

> <PUBCHEM_CID_ASSOCIATIONS>
117600311  1

> <PUBCHEM_COORDINATE_TYPE>
1
3

$$$$
