310933654
  -OEChem-07211613022D

 21 23  0     0  0  0  0  0  0999 V2000
    6.9045   -3.5904    0.0000 Cl  0  0  0  0  0  0  0  0  0  0  0  0
    0.6674   -2.5546    0.0000 O   0  0  0  0  0  0  0  0  0  0  0  0
    4.0046    0.0000    0.0000 O   0  0  0  0  0  0  0  0  0  0  0  0
    3.1761   -2.8539    0.0000 O   0  0  0  0  0  0  0  0  0  0  0  0
    5.2704   -0.7365    0.0000 N   0  0  0  0  0  0  0  0  0  0  0  0
    3.1761   -1.4270    0.0000 N   0  0  0  0  0  0  0  0  0  0  0  0
    1.4499   -2.8308    0.0000 N   0  0  0  0  0  0  0  0  0  0  0  0
    4.0046   -1.4270    0.0000 C   0  0  0  0  0  0  0  0  0  0  0  0
    5.2704   -2.1634    0.0000 C   0  0  0  0  0  0  0  0  0  0  0  0
    5.6847   -1.4499    0.0000 C   0  0  0  0  0  0  0  0  0  0  0  0
    4.4189   -0.7134    0.0000 C   0  0  0  0  0  0  0  0  0  0  0  0
    4.4189   -2.1404    0.0000 C   0  0  0  0  0  0  0  0  0  0  0  0
    1.9332   -2.1404    0.0000 C   0  0  0  0  0  0  0  0  0  0  0  0
    2.7618   -2.1404    0.0000 C   0  0  0  0  0  0  0  0  0  0  0  0
    5.6617   -2.8539    0.0000 C   0  0  0  0  0  0  0  0  0  0  0  0
    6.4902   -1.4499    0.0000 C   0  0  0  0  0  0  0  0  0  0  0  0
    1.4499   -1.4730    0.0000 C   0  0  0  0  0  0  0  0  0  0  0  0
    6.4902   -2.8769    0.0000 C   0  0  0  0  0  0  0  0  0  0  0  0
    0.6674   -1.7261    0.0000 C   0  0  0  0  0  0  0  0  0  0  0  0
    6.9045   -2.1404    0.0000 C   0  0  0  0  0  0  0  0  0  0  0  0
    0.0000   -1.2658    0.0000 C   0  0  0  0  0  0  0  0  0  0  0  0
  1 18  1  0  0  0  0
  2  7  1  0  0  0  0
  2 19  1  0  0  0  0
  3 11  2  0  0  0  0
  4 14  2  0  0  0  0
  5 10  1  0  0  0  0
  5 11  1  0  0  0  0
  6  8  1  0  0  0  0
  6 14  1  0  0  0  0
  7 13  2  0  0  0  0
  8 11  1  0  0  0  0
  8 12  2  0  0  0  0
  9 10  2  0  0  0  0
  9 12  1  0  0  0  0
  9 15  1  0  0  0  0
 10 16  1  0  0  0  0
 13 14  1  0  0  0  0
 13 17  1  0  0  0  0
 15 18  2  0  0  0  0
 16 20  2  0  0  0  0
 17 19  2  0  0  0  0
 18 20  1  0  0  0  0
 19 21  1  0  0  0  0
M  END
> <PUBCHEM_COMPOUND_ID_TYPE>
0

> <PUBCHEM_TOTAL_CHARGE>
0

> <PUBCHEM_SUBSTANCE_ID>
310933654

> <PUBCHEM_SUBSTANCE_VERSION>
1

> <PUBCHEM_EXT_DATASOURCE_NAME>
4488

> <PUBCHEM_EXT_DATASOURCE_REGID>
SCHEMBL16111085

> <PUBCHEM_SUBSTANCE_COMMENT>
InChI=1S/C14H10ClN3O3/c1-7-4-12(18-21-7)14(20)17-11-6-8-5-9(15)2-3-10(8)16-13(11)19/h2-6H,1H3,(H,16,19)(H,17,20)
InChIKey=UNAZRRUNKCXQHR-UHFFFAOYSA-N

> <PUBCHEM_SUBSTANCE_SYNONYM>
SCHEMBL16111085

> <PUBCHEM_XREF_EXT_ID>
SCHEMBL16111085

> <PUBCHEM_EXT_DATASOURCE_URL>
https://www.surechembl.org/

> <PUBCHEM_EXT_SUBSTANCE_URL>
https://www.surechembl.org/chemical/SCHEMBL16111085

> <PUBCHEM_CID_ASSOCIATIONS>
117602026  1

> <PUBCHEM_COORDINATE_TYPE>
1
3

$$$$
