310936609
  -OEChem-07211613022D

 44 49  0     1  0  0  0  0  0999 V2000
   -5.5770    2.1776    0.0000 F   0  0  0  0  0  0  0  0  0  0  0  0
   -6.3975    2.2638    0.0000 F   0  0  0  0  0  0  0  0  0  0  0  0
   -6.8824    1.5963    0.0000 F   0  0  0  0  0  0  0  0  0  0  0  0
   -6.8456   -1.9996    0.0000 F   0  0  0  0  0  0  0  0  0  0  0  0
   -6.0251   -2.0858    0.0000 F   0  0  0  0  0  0  0  0  0  0  0  0
   -7.1812   -1.2459    0.0000 F   0  0  0  0  0  0  0  0  0  0  0  0
   -3.3373   -0.8842    0.0000 O   0  0  0  0  0  0  0  0  0  0  0  0
   -1.9173   -1.2647    0.0000 O   0  0  0  0  0  0  0  0  0  0  0  0
   -2.4441    0.1078    0.0000 N   0  0  0  0  0  0  0  0  0  0  0  0
   -0.3007   -1.1297    0.0000 N   0  0  0  0  0  0  0  0  0  0  0  0
   -1.6100   -0.5470    0.0000 N   0  0  0  0  0  0  0  0  0  0  0  0
    2.4340    0.7978    0.0000 N   0  0  0  0  0  0  0  0  0  0  0  0
    2.0215    1.5124    0.0000 N   0  0  0  0  0  0  0  0  0  0  0  0
   -0.3007    0.5203    0.0000 C   0  0  0  0  0  0  0  0  0  0  0  0
   -1.0152    0.1078    0.0000 C   0  0  0  0  0  0  0  0  0  0  0  0
    0.4138    0.1078    0.0000 C   0  0  0  0  0  0  0  0  0  0  0  0
   -1.0152   -0.7172    0.0000 C   0  0  0  0  0  0  0  0  0  0  0  0
   -0.7453    0.9506    0.0000 C   0  0  3  0  0  0  0  0  0  0  0  0
   -3.7499   -0.1697    0.0000 C   0  0  3  0  0  0  0  0  0  0  0  0
   -3.1978    0.4434    0.0000 C   0  0  3  0  0  0  0  0  0  0  0  0
    1.1283    0.5203    0.0000 C   0  0  0  0  0  0  0  0  0  0  0  0
   -1.7296    0.5203    0.0000 C   0  0  0  0  0  0  0  0  0  0  0  0
   -4.5703   -0.0835    0.0000 C   0  0  0  0  0  0  0  0  0  0  0  0
   -2.5304   -0.7127    0.0000 C   0  0  0  0  0  0  0  0  0  0  0  0
    0.4138   -0.7172    0.0000 C   0  0  0  0  0  0  0  0  0  0  0  0
   -1.9419   -0.0248    0.0000 C   0  0  3  0  0  0  0  0  0  0  0  0
   -1.3635    0.9769    0.0000 C   0  0  0  0  0  0  0  0  0  0  0  0
   -1.8431    0.5860    0.0000 C   0  0  3  0  0  0  0  0  0  0  0  0
    1.8820    0.1847    0.0000 C   0  0  0  0  0  0  0  0  0  0  0  0
    1.2145    1.3408    0.0000 C   0  0  0  0  0  0  0  0  0  0  0  0
   -0.9648    0.4392    0.0000 C   0  0  0  0  0  0  0  0  0  0  0  0
   -5.7264    0.7564    0.0000 C   0  0  0  0  0  0  0  0  0  0  0  0
   -5.8758   -0.6647    0.0000 C   0  0  0  0  0  0  0  0  0  0  0  0
   -5.0553   -0.7509    0.0000 C   0  0  0  0  0  0  0  0  0  0  0  0
   -4.9059    0.6702    0.0000 C   0  0  0  0  0  0  0  0  0  0  0  0
   -1.3964    0.0873    0.0000 C   0  0  0  0  0  0  0  0  0  0  0  0
   -6.2113    0.0890    0.0000 C   0  0  0  0  0  0  0  0  0  0  0  0
   -6.0619    1.5101    0.0000 C   0  0  0  0  0  0  0  0  0  0  0  0
   -6.3607   -1.3322    0.0000 C   0  0  0  0  0  0  0  0  0  0  0  0
   -3.3693    1.2504    0.0000 C   0  0  0  0  0  0  0  0  0  0  0  0
   -2.5576    0.9985    0.0000 C   0  0  0  0  0  0  0  0  0  0  0  0
    2.0535   -0.6222    0.0000 C   0  0  0  0  0  0  0  0  0  0  0  0
    0.6014    1.8929    0.0000 C   0  0  0  0  0  0  0  0  0  0  0  0
   -2.5576    1.8235    0.0000 C   0  0  0  0  0  0  0  0  0  0  0  0
  1 38  1  0  0  0  0
  2 38  1  0  0  0  0
  3 38  1  0  0  0  0
  4 39  1  0  0  0  0
  5 39  1  0  0  0  0
  6 39  1  0  0  0  0
 19  7  1  6  0  0  0
  7 24  1  0  0  0  0
  8 24  2  0  0  0  0
  9 20  1  0  0  0  0
  9 22  1  0  0  0  0
  9 24  1  0  0  0  0
 10 17  2  0  0  0  0
 10 25  1  0  0  0  0
 11 17  1  0  0  0  0
 11 26  1  0  0  0  0
 12 13  1  0  0  0  0
 12 29  2  0  0  0  0
 13 30  1  0  0  0  0
 14 15  2  0  0  0  0
 14 16  1  0  0  0  0
 14 18  1  0  0  0  0
 15 17  1  0  0  0  0
 15 22  1  0  0  0  0
 16 21  1  0  0  0  0
 16 25  2  0  0  0  0
 18 27  1  0  0  0  0
 18 31  1  0  0  0  0
 19 20  1  0  0  0  0
 19 23  1  0  0  0  0
 20 40  1  6  0  0  0
 21 29  1  0  0  0  0
 21 30  2  0  0  0  0
 23 34  2  0  0  0  0
 23 35  1  0  0  0  0
 26 28  1  0  0  0  0
 26 36  1  0  0  0  0
 27 28  1  0  0  0  0
 28 41  1  0  0  0  0
 29 42  1  0  0  0  0
 30 43  1  0  0  0  0
 31 36  1  0  0  0  0
 32 35  2  0  0  0  0
 32 37  1  0  0  0  0
 32 38  1  0  0  0  0
 33 34  1  0  0  0  0
 33 37  2  0  0  0  0
 33 39  1  0  0  0  0
 41 44  1  0  0  0  0
M  END
> <PUBCHEM_COMPOUND_ID_TYPE>
0

> <PUBCHEM_TOTAL_CHARGE>
0

> <PUBCHEM_SUBSTANCE_ID>
310936609

> <PUBCHEM_SUBSTANCE_VERSION>
1

> <PUBCHEM_EXT_DATASOURCE_NAME>
4488

> <PUBCHEM_EXT_DATASOURCE_REGID>
SCHEMBL16114269

> <PUBCHEM_SUBSTANCE_COMMENT>
InChI=1S/C31H33F6N5O2/c1-5-17-8-18-6-7-24(17)39-28-23(26(18)22(12-38-28)25-14(2)40-41-15(25)3)13-42-16(4)27(44-29(42)43)19-9-20(30(32,33)34)11-21(10-19)31(35,36)37/h9-12,16-18,24,27H,5-8,13H2,1-4H3,(H,38,39)(H,40,41)/t16-,17?,18?,24?,27-/m0/s1
InChIKey=RCIDUWHYUXXNII-BCWLGEJGSA-N

> <PUBCHEM_SUBSTANCE_SYNONYM>
SCHEMBL16114269

> <PUBCHEM_XREF_EXT_ID>
SCHEMBL16114269

> <PUBCHEM_EXT_DATASOURCE_URL>
https://www.surechembl.org/

> <PUBCHEM_EXT_SUBSTANCE_URL>
https://www.surechembl.org/chemical/SCHEMBL16114269

> <PUBCHEM_CID_ASSOCIATIONS>
117604528  1

> <PUBCHEM_COORDINATE_TYPE>
1
3

> <PUBCHEM_BONDANNOTATIONS>
20  40  6
19  7  6

$$$$
