310944538
  -OEChem-07211613022D

 25 26  0     0  0  0  0  0  0999 V2000
   -3.7648   -0.6429    0.0000 Cl  0  0  0  0  0  0  0  0  0  0  0  0
   -0.7480   -0.6429    0.0000 O   0  0  0  0  0  0  0  0  0  0  0  0
    0.6862    1.8298    0.0000 O   0  0  0  0  0  0  0  0  0  0  0  0
    4.2593   -0.2349    0.0000 O   0  0  0  0  0  0  0  0  0  0  0  0
    1.4156    0.5935    0.0000 N   0  0  0  0  0  0  0  0  0  0  0  0
   -0.7357    1.0139    0.0000 N   0  0  0  0  0  0  0  0  0  0  0  0
    2.8498   -0.2225    0.0000 N   0  0  0  0  0  0  0  0  0  0  0  0
   -1.4403    0.6059    0.0000 C   0  0  0  0  0  0  0  0  0  0  0  0
   -1.4527   -0.2225    0.0000 C   0  0  0  0  0  0  0  0  0  0  0  0
   -2.8746    0.5935    0.0000 C   0  0  0  0  0  0  0  0  0  0  0  0
   -2.8869   -0.2225    0.0000 C   0  0  0  0  0  0  0  0  0  0  0  0
   -2.1451    1.0015    0.0000 C   0  0  0  0  0  0  0  0  0  0  0  0
   -2.1575   -0.6306    0.0000 C   0  0  0  0  0  0  0  0  0  0  0  0
    0.6862    1.0015    0.0000 C   0  0  0  0  0  0  0  0  0  0  0  0
   -0.0062    0.6059    0.0000 C   0  0  0  0  0  0  0  0  0  0  0  0
    1.4156   -0.2225    0.0000 C   0  0  0  0  0  0  0  0  0  0  0  0
    2.1328    1.0015    0.0000 C   0  0  0  0  0  0  0  0  0  0  0  0
    2.1451   -0.6306    0.0000 C   0  0  0  0  0  0  0  0  0  0  0  0
    2.8498    0.5935    0.0000 C   0  0  0  0  0  0  0  0  0  0  0  0
    3.5422   -0.6429    0.0000 C   0  0  0  0  0  0  0  0  0  0  0  0
   -3.5793    1.0139    0.0000 C   0  0  0  0  0  0  0  0  0  0  0  0
    3.5545   -1.4589    0.0000 C   0  0  0  0  0  0  0  0  0  0  0  0
   -0.0185   -0.2349    0.0000 C   0  0  0  0  0  0  0  0  0  0  0  0
   -4.2964    0.5935    0.0000 C   0  0  0  0  0  0  0  0  0  0  0  0
    4.2964   -1.8298    0.0000 C   0  0  0  0  0  0  0  0  0  0  0  0
  1 11  1  0  0  0  0
  2  9  1  0  0  0  0
  2 23  1  0  0  0  0
  3 14  2  0  0  0  0
  4 20  2  0  0  0  0
  5 14  1  0  0  0  0
  5 16  1  0  0  0  0
  5 17  1  0  0  0  0
  6  8  1  0  0  0  0
  6 15  1  0  0  0  0
  7 18  1  0  0  0  0
  7 19  1  0  0  0  0
  7 20  1  0  0  0  0
  8  9  1  0  0  0  0
  8 12  2  0  0  0  0
  9 13  2  0  0  0  0
 10 11  2  0  0  0  0
 10 12  1  0  0  0  0
 10 21  1  0  0  0  0
 11 13  1  0  0  0  0
 14 15  1  0  0  0  0
 16 18  1  0  0  0  0
 17 19  1  0  0  0  0
 20 22  1  0  0  0  0
 21 24  1  0  0  0  0
 22 25  2  0  0  0  0
M  END
> <PUBCHEM_COMPOUND_ID_TYPE>
0

> <PUBCHEM_TOTAL_CHARGE>
0

> <PUBCHEM_SUBSTANCE_ID>
310944538

> <PUBCHEM_SUBSTANCE_VERSION>
1

> <PUBCHEM_EXT_DATASOURCE_NAME>
4488

> <PUBCHEM_EXT_DATASOURCE_REGID>
SCHEMBL16122614

> <PUBCHEM_SUBSTANCE_COMMENT>
InChI=1S/C18H24ClN3O3/c1-4-13-10-15(16(25-3)11-14(13)19)20-12-18(24)22-8-6-21(7-9-22)17(23)5-2/h5,10-11,20H,2,4,6-9,12H2,1,3H3
InChIKey=PJILSTXTWKBPOO-UHFFFAOYSA-N

> <PUBCHEM_SUBSTANCE_SYNONYM>
SCHEMBL16122614

> <PUBCHEM_XREF_EXT_ID>
SCHEMBL16122614

> <PUBCHEM_EXT_DATASOURCE_URL>
https://www.surechembl.org/

> <PUBCHEM_EXT_SUBSTANCE_URL>
https://www.surechembl.org/chemical/SCHEMBL16122614

> <PUBCHEM_CID_ASSOCIATIONS>
117610773  1

> <PUBCHEM_COORDINATE_TYPE>
1
3

$$$$
