310943356
  -OEChem-07211613022D

 39 43  0     0  0  0  0  0  0999 V2000
    2.7386   -2.1110    0.0000 F   0  0  0  0  0  0  0  0  0  0  0  0
    4.2710   -2.5185    0.0000 F   0  0  0  0  0  0  0  0  0  0  0  0
    3.1462   -2.8283    0.0000 F   0  0  0  0  0  0  0  0  0  0  0  0
   -2.8527   -0.0570    0.0000 O   0  0  0  0  0  0  0  0  0  0  0  0
   -4.2710    2.4208    0.0000 O   0  0  0  0  0  0  0  0  0  0  0  0
    1.4182   -0.0570    0.0000 O   0  0  0  0  0  0  0  0  0  0  0  0
   -2.8527   -2.5185    0.0000 O   0  0  0  0  0  0  0  0  0  0  0  0
   -2.8365    1.5894    0.0000 N   0  0  0  0  0  0  0  0  0  0  0  0
   -1.4182   -0.0570    0.0000 N   0  0  0  0  0  0  0  0  0  0  0  0
    0.7172    2.8283    0.0000 N   0  0  0  0  0  0  0  0  0  0  0  0
    2.1355    1.1818    0.0000 N   0  0  0  0  0  0  0  0  0  0  0  0
    3.5537    0.3504    0.0000 N   0  0  0  0  0  0  0  0  0  0  0  0
   -0.7010    1.1982    0.0000 C   0  0  0  0  0  0  0  0  0  0  0  0
   -2.1192    1.1982    0.0000 C   0  0  0  0  0  0  0  0  0  0  0  0
    0.0000    1.6057    0.0000 C   0  0  0  0  0  0  0  0  0  0  0  0
   -2.1355    0.3668    0.0000 C   0  0  0  0  0  0  0  0  0  0  0  0
   -1.4345    1.5894    0.0000 C   0  0  0  0  0  0  0  0  0  0  0  0
    0.0163    2.4208    0.0000 C   0  0  0  0  0  0  0  0  0  0  0  0
   -0.7172    0.3668    0.0000 C   0  0  0  0  0  0  0  0  0  0  0  0
    0.7336    1.1982    0.0000 C   0  0  0  0  0  0  0  0  0  0  0  0
    1.4345    1.6057    0.0000 C   0  0  0  0  0  0  0  0  0  0  0  0
    2.8527   -0.0408    0.0000 C   0  0  0  0  0  0  0  0  0  0  0  0
    2.1355    0.3831    0.0000 C   0  0  0  0  0  0  0  0  0  0  0  0
    3.5700   -1.2797    0.0000 C   0  0  0  0  0  0  0  0  0  0  0  0
    1.4345    2.4208    0.0000 C   0  0  0  0  0  0  0  0  0  0  0  0
    3.5374   -2.1110    0.0000 C   0  0  0  0  0  0  0  0  0  0  0  0
    2.8527   -0.8721    0.0000 C   0  0  0  0  0  0  0  0  0  0  0  0
   -2.8365    2.4208    0.0000 C   0  0  0  0  0  0  0  0  0  0  0  0
   -3.5211    1.1982    0.0000 C   0  0  0  0  0  0  0  0  0  0  0  0
   -2.8527   -0.8721    0.0000 C   0  0  0  0  0  0  0  0  0  0  0  0
    4.2546   -0.8721    0.0000 C   0  0  0  0  0  0  0  0  0  0  0  0
   -0.7172    2.8120    0.0000 C   0  0  0  0  0  0  0  0  0  0  0  0
    4.2710   -0.0570    0.0000 C   0  0  0  0  0  0  0  0  0  0  0  0
   -3.5537    2.8283    0.0000 C   0  0  0  0  0  0  0  0  0  0  0  0
   -4.2546    1.6057    0.0000 C   0  0  0  0  0  0  0  0  0  0  0  0
   -2.1192   -1.2797    0.0000 C   0  0  0  0  0  0  0  0  0  0  0  0
   -3.5374   -1.2797    0.0000 C   0  0  0  0  0  0  0  0  0  0  0  0
   -2.1355   -2.1110    0.0000 C   0  0  0  0  0  0  0  0  0  0  0  0
   -3.5374   -2.1110    0.0000 C   0  0  0  0  0  0  0  0  0  0  0  0
  1 26  1  0  0  0  0
  2 26  1  0  0  0  0
  3 26  1  0  0  0  0
  4 16  1  0  0  0  0
  4 30  1  0  0  0  0
  5 34  1  0  0  0  0
  5 35  1  0  0  0  0
  6 23  2  0  0  0  0
  7 38  1  0  0  0  0
  7 39  1  0  0  0  0
  8 14  1  0  0  0  0
  8 28  1  0  0  0  0
  8 29  1  0  0  0  0
  9 16  2  0  0  0  0
  9 19  1  0  0  0  0
 10 18  1  0  0  0  0
 10 25  2  0  0  0  0
 11 21  1  0  0  0  0
 11 23  1  0  0  0  0
 12 22  2  0  0  0  0
 12 33  1  0  0  0  0
 13 15  1  0  0  0  0
 13 17  1  0  0  0  0
 13 19  2  0  0  0  0
 14 16  1  0  0  0  0
 14 17  2  0  0  0  0
 15 18  2  0  0  0  0
 15 20  1  0  0  0  0
 18 32  1  0  0  0  0
 20 21  2  0  0  0  0
 21 25  1  0  0  0  0
 22 23  1  0  0  0  0
 22 27  1  0  0  0  0
 24 26  1  0  0  0  0
 24 27  2  0  0  0  0
 24 31  1  0  0  0  0
 28 34  1  0  0  0  0
 29 35  1  0  0  0  0
 30 36  1  0  0  0  0
 30 37  1  0  0  0  0
 31 33  2  0  0  0  0
 36 38  1  0  0  0  0
 37 39  1  0  0  0  0
M  END
> <PUBCHEM_COMPOUND_ID_TYPE>
0

> <PUBCHEM_TOTAL_CHARGE>
0

> <PUBCHEM_SUBSTANCE_ID>
310943356

> <PUBCHEM_SUBSTANCE_VERSION>
1

> <PUBCHEM_EXT_DATASOURCE_NAME>
4488

> <PUBCHEM_EXT_DATASOURCE_REGID>
SCHEMBL16121419

> <PUBCHEM_SUBSTANCE_COMMENT>
InChI=1S/C27H28F3N5O4/c1-17-22(14-20(16-32-17)34-25(36)23-13-19(2-5-31-23)27(28,29)30)18-12-24(35-6-10-38-11-7-35)26(33-15-18)39-21-3-8-37-9-4-21/h2,5,12-16,21H,3-4,6-11H2,1H3,(H,34,36)
InChIKey=CMTVLOPAPBQCRJ-UHFFFAOYSA-N

> <PUBCHEM_SUBSTANCE_SYNONYM>
SCHEMBL16121419

> <PUBCHEM_XREF_EXT_ID>
SCHEMBL16121419

> <PUBCHEM_EXT_DATASOURCE_URL>
https://www.surechembl.org/

> <PUBCHEM_EXT_SUBSTANCE_URL>
https://www.surechembl.org/chemical/SCHEMBL16121419

> <PUBCHEM_CID_ASSOCIATIONS>
117609780  1

> <PUBCHEM_COORDINATE_TYPE>
1
3

$$$$
