310941741
  -OEChem-07211613022D

 38 41  0     0  0  0  0  0  0999 V2000
   -2.0726    1.2677    0.0000 S   0  0  0  0  0  0  0  0  0  0  0  0
   -1.8412   -1.2778    0.0000 F   0  0  0  0  0  0  0  0  0  0  0  0
   -1.8412   -2.1028    0.0000 F   0  0  0  0  0  0  0  0  0  0  0  0
   -1.1067   -2.5254    0.0000 F   0  0  0  0  0  0  0  0  0  0  0  0
   -0.4024   -1.2778    0.0000 O   0  0  0  0  0  0  0  0  0  0  0  0
   -4.5879    1.2073    0.0000 O   0  0  0  0  0  0  0  0  0  0  0  0
    0.3220    2.4751    0.0000 O   0  0  0  0  0  0  0  0  0  0  0  0
    1.7607    0.8049    0.0000 O   0  0  0  0  0  0  0  0  0  0  0  0
   -1.1269    2.4751    0.0000 N   0  0  0  0  0  0  0  0  0  0  0  0
   -3.2196    1.9820    0.0000 N   0  0  0  0  0  0  0  0  0  0  0  0
   -2.5756    2.5254    0.0000 N   0  0  0  0  0  0  0  0  0  0  0  0
    1.0463   -0.4427    0.0000 N   0  0  0  0  0  0  0  0  0  0  0  0
    3.2196   -0.0201    0.0000 N   0  0  0  0  0  0  0  0  0  0  0  0
    4.6683    0.8049    0.0000 N   0  0  0  0  0  0  0  0  0  0  0  0
   -2.8976    1.2375    0.0000 C   0  0  0  0  0  0  0  0  0  0  0  0
    0.3220    0.0000    0.0000 C   0  0  0  0  0  0  0  0  0  0  0  0
   -0.4024    1.2375    0.0000 C   0  0  0  0  0  0  0  0  0  0  0  0
   -0.3924   -0.4226    0.0000 C   0  0  0  0  0  0  0  0  0  0  0  0
   -3.3604    0.5131    0.0000 C   0  0  0  0  0  0  0  0  0  0  0  0
   -1.8713    2.1028    0.0000 C   0  0  0  0  0  0  0  0  0  0  0  0
   -0.4125    2.0625    0.0000 C   0  0  0  0  0  0  0  0  0  0  0  0
    0.3220    0.8150    0.0000 C   0  0  0  0  0  0  0  0  0  0  0  0
   -4.1754    0.5232    0.0000 C   0  0  0  0  0  0  0  0  0  0  0  0
   -1.1168    0.8250    0.0000 C   0  0  0  0  0  0  0  0  0  0  0  0
   -1.1168   -0.0100    0.0000 C   0  0  0  0  0  0  0  0  0  0  0  0
   -1.1369   -1.6802    0.0000 C   0  0  0  0  0  0  0  0  0  0  0  0
   -2.9681   -0.2113    0.0000 C   0  0  0  0  0  0  0  0  0  0  0  0
    1.7607   -0.0302    0.0000 C   0  0  0  0  0  0  0  0  0  0  0  0
   -4.6181   -0.1711    0.0000 C   0  0  0  0  0  0  0  0  0  0  0  0
   -3.3906   -0.8854    0.0000 C   0  0  0  0  0  0  0  0  0  0  0  0
   -4.2156   -0.8854    0.0000 C   0  0  0  0  0  0  0  0  0  0  0  0
    2.5153   -0.4226    0.0000 C   0  0  0  0  0  0  0  0  0  0  0  0
    3.9339   -0.4226    0.0000 C   0  0  0  0  0  0  0  0  0  0  0  0
    3.2296    0.8250    0.0000 C   0  0  0  0  0  0  0  0  0  0  0  0
   -5.3928    1.2073    0.0000 C   0  0  0  0  0  0  0  0  0  0  0  0
    4.6683   -0.0100    0.0000 C   0  0  0  0  0  0  0  0  0  0  0  0
    3.9339    1.2274    0.0000 C   0  0  0  0  0  0  0  0  0  0  0  0
    5.3928    1.2174    0.0000 C   0  0  0  0  0  0  0  0  0  0  0  0
  1 15  1  0  0  0  0
  1 20  1  0  0  0  0
  2 26  1  0  0  0  0
  3 26  1  0  0  0  0
  4 26  1  0  0  0  0
  5 18  1  0  0  0  0
  5 26  1  0  0  0  0
  6 23  1  0  0  0  0
  6 35  1  0  0  0  0
  7 21  2  0  0  0  0
  8 28  2  0  0  0  0
  9 20  1  0  0  0  0
  9 21  1  0  0  0  0
 10 11  1  0  0  0  0
 10 15  2  0  0  0  0
 11 20  2  0  0  0  0
 12 16  1  0  0  0  0
 12 28  1  0  0  0  0
 13 32  1  0  0  0  0
 13 33  1  0  0  0  0
 13 34  1  0  0  0  0
 14 36  1  0  0  0  0
 14 37  1  0  0  0  0
 14 38  1  0  0  0  0
 15 19  1  0  0  0  0
 16 18  1  0  0  0  0
 16 22  2  0  0  0  0
 17 21  1  0  0  0  0
 17 22  1  0  0  0  0
 17 24  2  0  0  0  0
 18 25  2  0  0  0  0
 19 23  1  0  0  0  0
 19 27  2  0  0  0  0
 23 29  2  0  0  0  0
 24 25  1  0  0  0  0
 27 30  1  0  0  0  0
 28 32  1  0  0  0  0
 29 31  1  0  0  0  0
 30 31  2  0  0  0  0
 33 36  1  0  0  0  0
 34 37  1  0  0  0  0
M  END
> <PUBCHEM_COMPOUND_ID_TYPE>
0

> <PUBCHEM_TOTAL_CHARGE>
0

> <PUBCHEM_SUBSTANCE_ID>
310941741

> <PUBCHEM_SUBSTANCE_VERSION>
1

> <PUBCHEM_EXT_DATASOURCE_NAME>
4488

> <PUBCHEM_EXT_DATASOURCE_REGID>
SCHEMBL16119772

> <PUBCHEM_SUBSTANCE_COMMENT>
InChI=1S/C24H25F3N6O4S/c1-32-9-11-33(12-10-32)14-20(34)28-17-13-15(7-8-19(17)37-24(25,26)27)21(35)29-23-31-30-22(38-23)16-5-3-4-6-18(16)36-2/h3-8,13H,9-12,14H2,1-2H3,(H,28,34)(H,29,31,35)
InChIKey=RWRQUCFBSJAFDC-UHFFFAOYSA-N

> <PUBCHEM_SUBSTANCE_SYNONYM>
SCHEMBL16119772

> <PUBCHEM_XREF_EXT_ID>
SCHEMBL16119772

> <PUBCHEM_EXT_DATASOURCE_URL>
https://www.surechembl.org/

> <PUBCHEM_EXT_SUBSTANCE_URL>
https://www.surechembl.org/chemical/SCHEMBL16119772

> <PUBCHEM_CID_ASSOCIATIONS>
86293214  1

> <PUBCHEM_COORDINATE_TYPE>
1
3

$$$$
