310949661
  -OEChem-07211613022D

 21 22  0     0  0  0  0  0  0999 V2000
   -2.9799    1.6989    0.0000 Cl  0  0  0  0  0  0  0  0  0  0  0  0
    0.8426    1.2742    0.0000 O   0  0  0  0  0  0  0  0  0  0  0  0
    1.5551    1.6852    0.0000 O   0  0  0  0  0  0  0  0  0  0  0  0
    2.9799    1.6852    0.0000 O   0  0  0  0  0  0  0  0  0  0  0  0
    0.1302    0.0000    0.0000 N   0  0  0  0  0  0  0  0  0  0  0  0
   -1.2948   -1.6989    0.0000 N   0  0  0  0  0  0  0  0  0  0  0  0
    1.5687   -0.0274    0.0000 C   0  0  0  0  0  0  0  0  0  0  0  0
    0.8426    0.3973    0.0000 C   0  0  0  0  0  0  0  0  0  0  0  0
    2.2675    0.4111    0.0000 C   0  0  0  0  0  0  0  0  0  0  0  0
   -0.5959    0.4248    0.0000 C   0  0  0  0  0  0  0  0  0  0  0  0
   -1.2948    0.0000    0.0000 C   0  0  0  0  0  0  0  0  0  0  0  0
    1.5687   -0.8494    0.0000 C   0  0  0  0  0  0  0  0  0  0  0  0
    2.2949    1.2468    0.0000 C   0  0  0  0  0  0  0  0  0  0  0  0
   -0.5959    1.2605    0.0000 C   0  0  0  0  0  0  0  0  0  0  0  0
   -2.0072    0.4248    0.0000 C   0  0  0  0  0  0  0  0  0  0  0  0
    2.9799   -0.0274    0.0000 C   0  0  0  0  0  0  0  0  0  0  0  0
   -2.0072    1.2605    0.0000 C   0  0  0  0  0  0  0  0  0  0  0  0
   -1.3221    1.6716    0.0000 C   0  0  0  0  0  0  0  0  0  0  0  0
    2.2812   -1.2605    0.0000 C   0  0  0  0  0  0  0  0  0  0  0  0
    2.9799   -0.8494    0.0000 C   0  0  0  0  0  0  0  0  0  0  0  0
   -1.3084   -0.8220    0.0000 C   0  0  0  0  0  0  0  0  0  0  0  0
  1 17  1  0  0  0  0
  2  8  2  0  0  0  0
  3 13  2  0  0  0  0
  4 13  1  0  0  0  0
  5  8  1  0  0  0  0
  5 10  1  0  0  0  0
  6 21  3  0  0  0  0
  7  8  1  0  0  0  0
  7  9  1  0  0  0  0
  7 12  2  0  0  0  0
  9 13  1  0  0  0  0
  9 16  2  0  0  0  0
 10 11  2  0  0  0  0
 10 14  1  0  0  0  0
 11 15  1  0  0  0  0
 11 21  1  0  0  0  0
 12 19  1  0  0  0  0
 14 18  2  0  0  0  0
 15 17  2  0  0  0  0
 16 20  1  0  0  0  0
 17 18  1  0  0  0  0
 19 20  2  0  0  0  0
M  END
> <PUBCHEM_COMPOUND_ID_TYPE>
0

> <PUBCHEM_TOTAL_CHARGE>
0

> <PUBCHEM_SUBSTANCE_ID>
310949661

> <PUBCHEM_SUBSTANCE_VERSION>
1

> <PUBCHEM_EXT_DATASOURCE_NAME>
4488

> <PUBCHEM_EXT_DATASOURCE_REGID>
SCHEMBL16127859

> <PUBCHEM_SUBSTANCE_COMMENT>
InChI=1S/C15H9ClN2O3/c16-10-5-6-13(9(7-10)8-17)18-14(19)11-3-1-2-4-12(11)15(20)21/h1-7H,(H,18,19)(H,20,21)
InChIKey=KOACKTTWFLJHPN-UHFFFAOYSA-N

> <PUBCHEM_SUBSTANCE_SYNONYM>
SCHEMBL16127859

> <PUBCHEM_XREF_EXT_ID>
SCHEMBL16127859

> <PUBCHEM_EXT_DATASOURCE_URL>
https://www.surechembl.org/

> <PUBCHEM_EXT_SUBSTANCE_URL>
https://www.surechembl.org/chemical/SCHEMBL16127859

> <PUBCHEM_CID_ASSOCIATIONS>
85472836  1

> <PUBCHEM_COORDINATE_TYPE>
1
3

$$$$
