310946364
  -OEChem-07211613022D

 23 24  0     1  0  0  0  0  0999 V2000
   -1.2260   -4.6057    0.0000 I   0  0  0  0  0  0  0  0  0  0  0  0
    0.2028   -2.1307    0.0000 I   0  0  0  0  0  0  0  0  0  0  0  0
   -4.0840   -2.9556    0.0000 I   0  0  0  0  0  0  0  0  0  0  0  0
   -1.2260   -2.9556    0.0000 O   0  0  0  0  0  0  0  0  0  0  0  0
   -4.0840   -4.6057    0.0000 O   0  0  0  0  0  0  0  0  0  0  0  0
    3.0606   -5.4306    0.0000 O   0  0  0  0  0  0  0  0  0  0  0  0
    2.3463   -3.3681    0.0000 N   0  0  0  0  0  0  0  0  0  0  0  0
   -0.5116   -3.3681    0.0000 C   0  0  0  0  0  0  0  0  0  0  0  0
   -0.5116   -4.1932    0.0000 C   0  0  0  0  0  0  0  0  0  0  0  0
    0.2028   -2.9556    0.0000 C   0  0  0  0  0  0  0  0  0  0  0  0
    0.9173   -4.1932    0.0000 C   0  0  0  0  0  0  0  0  0  0  0  0
   -1.9406   -3.3681    0.0000 C   0  0  0  0  0  0  0  0  0  0  0  0
    0.2028   -4.6057    0.0000 C   0  0  0  0  0  0  0  0  0  0  0  0
    0.9173   -3.3681    0.0000 C   0  0  0  0  0  0  0  0  0  0  0  0
   -2.6550   -2.9556    0.0000 C   0  0  0  0  0  0  0  0  0  0  0  0
   -3.3695   -3.3681    0.0000 C   0  0  0  0  0  0  0  0  0  0  0  0
   -1.9406   -4.1932    0.0000 C   0  0  0  0  0  0  0  0  0  0  0  0
    1.6318   -4.6057    0.0000 C   0  0  0  0  0  0  0  0  0  0  0  0
   -3.3695   -4.1932    0.0000 C   0  0  0  0  0  0  0  0  0  0  0  0
   -2.6550   -4.6057    0.0000 C   0  0  0  0  0  0  0  0  0  0  0  0
    2.3463   -4.1932    0.0000 C   0  0  3  0  0  0  0  0  0  0  0  0
    3.0606   -4.6057    0.0000 C   0  0  0  0  0  0  0  0  0  0  0  0
    3.7751   -4.1932    0.0000 C   0  0  0  0  0  0  0  0  0  0  0  0
  1  9  1  0  0  0  0
  2 10  1  0  0  0  0
  3 16  1  0  0  0  0
  4  8  1  0  0  0  0
  4 12  1  0  0  0  0
  5 19  1  0  0  0  0
  6 22  2  0  0  0  0
 21  7  1  6  0  0  0
  8  9  2  0  0  0  0
  8 10  1  0  0  0  0
  9 13  1  0  0  0  0
 10 14  2  0  0  0  0
 11 13  2  0  0  0  0
 11 14  1  0  0  0  0
 11 18  1  0  0  0  0
 12 15  2  0  0  0  0
 12 17  1  0  0  0  0
 15 16  1  0  0  0  0
 16 19  2  0  0  0  0
 17 20  2  0  0  0  0
 18 21  1  0  0  0  0
 19 20  1  0  0  0  0
 21 22  1  0  0  0  0
 22 23  1  0  0  0  0
M  END
> <PUBCHEM_COMPOUND_ID_TYPE>
0

> <PUBCHEM_TOTAL_CHARGE>
0

> <PUBCHEM_SUBSTANCE_ID>
310946364

> <PUBCHEM_SUBSTANCE_VERSION>
1

> <PUBCHEM_EXT_DATASOURCE_NAME>
4488

> <PUBCHEM_EXT_DATASOURCE_REGID>
SCHEMBL16124483

> <PUBCHEM_SUBSTANCE_COMMENT>
InChI=1S/C16H14I3NO3/c1-8(21)14(20)6-9-4-12(18)16(13(19)5-9)23-10-2-3-15(22)11(17)7-10/h2-5,7,14,22H,6,20H2,1H3/t14-/m0/s1
InChIKey=BUACBUZMVJACFL-AWEZNQCLSA-N

> <PUBCHEM_SUBSTANCE_SYNONYM>
SCHEMBL16124483

> <PUBCHEM_XREF_EXT_ID>
SCHEMBL16124483

> <PUBCHEM_EXT_DATASOURCE_URL>
https://www.surechembl.org/

> <PUBCHEM_EXT_SUBSTANCE_URL>
https://www.surechembl.org/chemical/SCHEMBL16124483

> <PUBCHEM_CID_ASSOCIATIONS>
117612286  1

> <PUBCHEM_COORDINATE_TYPE>
1
3

> <PUBCHEM_BONDANNOTATIONS>
21  7  6

$$$$
