310949115
  -OEChem-07211613022D

 15 17  0     0  0  0  0  0  0999 V2000
    1.3851    1.0401    0.0000 N   0  0  0  0  0  0  0  0  0  0  0  0
    0.6751    1.4602    0.0000 N   0  0  0  0  0  0  0  0  0  0  0  0
   -0.7551   -0.2100    0.0000 N   0  0  0  0  0  0  0  0  0  0  0  0
    0.6751   -1.0401    0.0000 N   0  0  0  0  0  0  0  0  0  0  0  0
   -0.7451    1.4602    0.0000 N   0  0  0  0  0  0  0  0  0  0  0  0
    2.0853   -0.2100    0.0000 N   0  0  0  0  0  0  0  0  0  0  0  0
   -1.4752    0.2100    0.0000 N   0  0  0  0  0  0  0  0  0  0  0  0
    1.3752   -1.4602    0.0000 N   0  0  0  0  0  0  0  0  0  0  0  0
    2.0853   -1.0401    0.0000 N   0  0  0  0  0  0  0  0  0  0  0  0
    0.6851   -0.1801    0.0000 C   0  0  0  0  0  0  0  0  0  0  0  0
   -0.0550    0.2200    0.0000 C   0  0  0  0  0  0  0  0  0  0  0  0
   -0.0450    1.0602    0.0000 C   0  0  0  0  0  0  0  0  0  0  0  0
    1.3851    0.2301    0.0000 C   0  0  0  0  0  0  0  0  0  0  0  0
   -1.4652    1.0701    0.0000 C   0  0  0  0  0  0  0  0  0  0  0  0
   -2.0853    1.4301    0.0000 C   0  0  0  0  0  0  0  0  0  0  0  0
  1  2  2  0  0  0  0
  1 13  1  0  0  0  0
  2 12  1  0  0  0  0
  3  7  1  0  0  0  0
  3 11  2  0  0  0  0
  4  8  1  0  0  0  0
  4 10  2  0  0  0  0
  5 12  2  0  0  0  0
  5 14  1  0  0  0  0
  6  9  1  0  0  0  0
  6 13  2  0  0  0  0
  7 14  2  0  0  0  0
  8  9  2  0  0  0  0
 10 11  1  0  0  0  0
 10 13  1  0  0  0  0
 11 12  1  0  0  0  0
 14 15  1  0  0  0  0
M  END
> <PUBCHEM_COMPOUND_ID_TYPE>
0

> <PUBCHEM_TOTAL_CHARGE>
0

> <PUBCHEM_SUBSTANCE_ID>
310949115

> <PUBCHEM_SUBSTANCE_VERSION>
1

> <PUBCHEM_EXT_DATASOURCE_NAME>
4488

> <PUBCHEM_EXT_DATASOURCE_REGID>
SCHEMBL16127305

> <PUBCHEM_SUBSTANCE_COMMENT>
InChI=1S/C6H3N9/c1-2-7-5-3(9-8-2)4-6(12-11-5)13-15-14-10-4/h1H3
InChIKey=SCUDYAAXHBHJNR-UHFFFAOYSA-N

> <PUBCHEM_SUBSTANCE_SYNONYM>
SCHEMBL16127305

> <PUBCHEM_XREF_EXT_ID>
SCHEMBL16127305

> <PUBCHEM_EXT_DATASOURCE_URL>
https://www.surechembl.org/

> <PUBCHEM_EXT_SUBSTANCE_URL>
https://www.surechembl.org/chemical/SCHEMBL16127305

> <PUBCHEM_CID_ASSOCIATIONS>
117614612  1

> <PUBCHEM_COORDINATE_TYPE>
1
3

$$$$
