310941525
  -OEChem-07211613022D

 30 34  0     0  0  0  0  0  0999 V2000
   -2.6427    2.1596    0.0000 Br  0  0  0  0  0  0  0  0  0  0  0  0
   -2.1596   -2.2767    0.0000 O   0  0  0  0  0  0  0  0  0  0  0  0
   -0.0073    1.3836    0.0000 O   0  0  0  0  0  0  0  0  0  0  0  0
   -0.5929   -1.5007    0.0000 N   0  0  0  0  0  0  0  0  0  0  0  0
   -3.1991   -1.2372    0.0000 N   0  0  0  0  0  0  0  0  0  0  0  0
   -0.8565    0.6369    0.0000 N   0  0  0  0  0  0  0  0  0  0  0  0
    2.1889    1.6617    0.0000 N   0  0  0  0  0  0  0  0  0  0  0  0
    3.8140    1.3104    0.0000 N   0  0  0  0  0  0  0  0  0  0  0  0
   -1.9400   -0.8126    0.0000 C   0  0  0  0  0  0  0  0  0  0  0  0
   -1.0908   -0.8273    0.0000 C   0  0  0  0  0  0  0  0  0  0  0  0
   -2.4377   -0.1537    0.0000 C   0  0  0  0  0  0  0  0  0  0  0  0
   -0.6076   -0.1391    0.0000 C   0  0  0  0  0  0  0  0  0  0  0  0
    0.1830   -0.4027    0.0000 C   0  0  0  0  0  0  0  0  0  0  0  0
   -2.4231   -1.4715    0.0000 C   0  0  0  0  0  0  0  0  0  0  0  0
   -3.1991   -0.3880    0.0000 C   0  0  0  0  0  0  0  0  0  0  0  0
    0.1684   -1.2372    0.0000 C   0  0  0  0  0  0  0  0  0  0  0  0
   -2.2475    0.6662    0.0000 C   0  0  0  0  0  0  0  0  0  0  0  0
   -3.8140    0.1537    0.0000 C   0  0  0  0  0  0  0  0  0  0  0  0
    0.9004   -0.0073    0.0000 C   0  0  0  0  0  0  0  0  0  0  0  0
    0.9151   -1.6472    0.0000 C   0  0  0  0  0  0  0  0  0  0  0  0
   -2.8770    1.2225    0.0000 C   0  0  0  0  0  0  0  0  0  0  0  0
   -3.6530    0.9590    0.0000 C   0  0  0  0  0  0  0  0  0  0  0  0
    1.6178   -0.4172    0.0000 C   0  0  0  0  0  0  0  0  0  0  0  0
    1.6178   -1.2372    0.0000 C   0  0  0  0  0  0  0  0  0  0  0  0
    0.8126    1.2225    0.0000 C   0  0  0  0  0  0  0  0  0  0  0  0
    1.3689    1.8228    0.0000 C   0  0  0  0  0  0  0  0  0  0  0  0
    2.7452    2.2767    0.0000 C   0  0  0  0  0  0  0  0  0  0  0  0
    2.4377    0.8712    0.0000 C   0  0  0  0  0  0  0  0  0  0  0  0
    3.5505    2.1010    0.0000 C   0  0  0  0  0  0  0  0  0  0  0  0
    3.2430    0.6955    0.0000 C   0  0  0  0  0  0  0  0  0  0  0  0
  1 21  1  0  0  0  0
  2 14  2  0  0  0  0
  3  6  1  0  0  0  0
  3 25  1  0  0  0  0
  4 10  1  0  0  0  0
  4 16  1  0  0  0  0
  5 14  1  0  0  0  0
  5 15  1  0  0  0  0
  6 12  2  0  0  0  0
  7 26  1  0  0  0  0
  7 27  1  0  0  0  0
  7 28  1  0  0  0  0
  8 29  1  0  0  0  0
  8 30  1  0  0  0  0
  9 10  2  0  0  0  0
  9 11  1  0  0  0  0
  9 14  1  0  0  0  0
 10 12  1  0  0  0  0
 11 15  2  0  0  0  0
 11 17  1  0  0  0  0
 12 13  1  0  0  0  0
 13 16  2  0  0  0  0
 13 19  1  0  0  0  0
 15 18  1  0  0  0  0
 16 20  1  0  0  0  0
 17 21  2  0  0  0  0
 18 22  2  0  0  0  0
 19 23  2  0  0  0  0
 20 24  2  0  0  0  0
 21 22  1  0  0  0  0
 23 24  1  0  0  0  0
 25 26  1  0  0  0  0
 27 29  1  0  0  0  0
 28 30  1  0  0  0  0
M  END
> <PUBCHEM_COMPOUND_ID_TYPE>
0

> <PUBCHEM_TOTAL_CHARGE>
0

> <PUBCHEM_SUBSTANCE_ID>
310941525

> <PUBCHEM_SUBSTANCE_VERSION>
1

> <PUBCHEM_EXT_DATASOURCE_NAME>
4488

> <PUBCHEM_EXT_DATASOURCE_REGID>
SCHEMBL16119556

> <PUBCHEM_SUBSTANCE_COMMENT>
InChI=1S/C22H22BrN5O2/c23-14-5-6-18-16(13-14)19(22(29)26-18)21-20(15-3-1-2-4-17(15)25-21)27-30-12-11-28-9-7-24-8-10-28/h1-6,13,24-25H,7-12H2,(H,26,29)/b21-19-,27-20+
InChIKey=HIFOXQJVTGTKFN-IVGNLCKYSA-N

> <PUBCHEM_SUBSTANCE_SYNONYM>
SCHEMBL16119556

> <PUBCHEM_XREF_EXT_ID>
SCHEMBL16119556

> <PUBCHEM_EXT_DATASOURCE_URL>
https://www.surechembl.org/

> <PUBCHEM_EXT_SUBSTANCE_URL>
https://www.surechembl.org/chemical/SCHEMBL16119556

> <PUBCHEM_CID_ASSOCIATIONS>
86269700  1

> <PUBCHEM_COORDINATE_TYPE>
1
3

$$$$
