310929049
  -OEChem-07211613022D

 60 65  0     1  0  0  0  0  0999 V2000
    1.4837   -0.6651    0.0000 S   0  0  0  0  0  0  0  0  0  0  0  0
    3.7860   -2.1488    0.0000 O   0  0  0  0  0  0  0  0  0  0  0  0
    6.5488   -1.9441    0.0000 O   0  0  0  0  0  0  0  0  0  0  0  0
    2.9162   -4.9115    0.0000 O   0  0  0  0  0  0  0  0  0  0  0  0
    0.9721   -1.4837    0.0000 O   0  0  0  0  0  0  0  0  0  0  0  0
    1.8930    0.0000    0.0000 O   0  0  0  0  0  0  0  0  0  0  0  0
    9.5162   -6.9581    0.0000 O   0  0  0  0  0  0  0  0  0  0  0  0
   10.9487   -3.5814    0.0000 O   0  0  0  0  0  0  0  0  0  0  0  0
   14.6323   -2.3023    0.0000 O   0  0  0  0  0  0  0  0  0  0  0  0
    3.6325   -3.6325    0.0000 N   0  0  0  0  0  0  0  0  0  0  0  0
    2.2000   -1.1255    0.0000 N   0  0  0  0  0  0  0  0  0  0  0  0
    4.3488   -4.9115    0.0000 N   0  0  0  0  0  0  0  0  0  0  0  0
    8.0325   -4.4511    0.0000 N   0  0  0  0  0  0  0  0  0  0  0  0
    8.7487   -3.1721    0.0000 N   0  0  0  0  0  0  0  0  0  0  0  0
   11.6649   -4.8604    0.0000 N   0  0  0  0  0  0  0  0  0  0  0  0
   13.1487   -3.1721    0.0000 N   0  0  0  0  0  0  0  0  0  0  0  0
    2.9162   -3.2232    0.0000 C   0  0  0  0  0  0  0  0  0  0  0  0
    4.3488   -3.2232    0.0000 C   0  0  0  0  0  0  0  0  0  0  0  0
    4.4000   -2.4046    0.0000 C   0  0  0  0  0  0  0  0  0  0  0  0
    2.9162   -2.4046    0.0000 C   0  0  0  0  0  0  0  0  0  0  0  0
    5.1162   -1.9953    0.0000 C   0  0  0  0  0  0  0  0  0  0  0  0
    2.1488   -1.9441    0.0000 C   0  0  0  0  0  0  0  0  0  0  0  0
    1.4326   -3.2232    0.0000 C   0  0  0  0  0  0  0  0  0  0  0  0
    2.1488   -3.6325    0.0000 C   0  0  0  0  0  0  0  0  0  0  0  0
    5.8325   -2.3534    0.0000 C   0  0  0  0  0  0  0  0  0  0  0  0
    3.6325   -4.5022    0.0000 C   0  0  0  0  0  0  0  0  0  0  0  0
    5.1162   -3.6325    0.0000 C   0  0  0  0  0  0  0  0  0  0  0  0
    1.4326   -2.3534    0.0000 C   0  0  0  0  0  0  0  0  0  0  0  0
    0.7162   -3.6325    0.0000 C   0  0  0  0  0  0  0  0  0  0  0  0
    5.8325   -3.2232    0.0000 C   0  0  0  0  0  0  0  0  0  0  0  0
    3.6325   -1.9953    0.0000 C   0  0  0  0  0  0  0  0  0  0  0  0
    5.1162   -1.1255    0.0000 C   0  0  0  0  0  0  0  0  0  0  0  0
    3.6325   -1.1255    0.0000 C   0  0  0  0  0  0  0  0  0  0  0  0
    4.3488   -0.6651    0.0000 C   0  0  0  0  0  0  0  0  0  0  0  0
    7.2651   -2.3534    0.0000 C   0  0  0  0  0  0  0  0  0  0  0  0
    0.3069   -2.9162    0.0000 C   0  0  0  0  0  0  0  0  0  0  0  0
    0.0000   -4.0418    0.0000 C   0  0  0  0  0  0  0  0  0  0  0  0
    1.1255   -4.3488    0.0000 C   0  0  0  0  0  0  0  0  0  0  0  0
    7.3162   -3.1721    0.0000 C   0  0  0  0  0  0  0  0  0  0  0  0
    3.7860   -1.2791    0.0000 C   0  0  0  0  0  0  0  0  0  0  0  0
    8.0325   -3.5814    0.0000 C   0  0  0  0  0  0  0  0  0  0  0  0
    7.9813   -1.8930    0.0000 C   0  0  0  0  0  0  0  0  0  0  0  0
    0.7162   -0.2558    0.0000 C   0  0  0  0  0  0  0  0  0  0  0  0
    8.7487   -4.8604    0.0000 C   0  0  0  0  0  0  0  0  0  0  0  0
    8.7487   -2.3534    0.0000 C   0  0  0  0  0  0  0  0  0  0  0  0
   10.2325   -4.8604    0.0000 C   0  0  0  0  0  0  0  0  0  0  0  0
    9.5162   -4.4511    0.0000 C   0  0  0  0  0  0  0  0  0  0  0  0
    8.7487   -5.6790    0.0000 C   0  0  0  0  0  0  0  0  0  0  0  0
    9.5162   -6.1395    0.0000 C   0  0  0  0  0  0  0  0  0  0  0  0
   10.2325   -5.6790    0.0000 C   0  0  0  0  0  0  0  0  0  0  0  0
   10.9487   -4.4511    0.0000 C   0  0  0  0  0  0  0  0  0  0  0  0
   12.4324   -4.4511    0.0000 C   0  0  0  0  0  0  0  0  0  0  0  0
   12.4324   -3.5814    0.0000 C   0  0  0  0  0  0  0  0  0  0  0  0
   13.1487   -2.3023    0.0000 C   0  0  0  0  0  0  0  0  0  0  0  0
   13.8649   -3.5814    0.0000 C   0  0  0  0  0  0  0  0  0  0  0  0
   14.6323   -3.1721    0.0000 C   0  0  3  0  0  0  0  0  0  0  0  0
   13.8649   -1.8930    0.0000 C   0  0  3  0  0  0  0  0  0  0  0  0
   10.2325   -7.3674    0.0000 C   0  0  0  0  0  0  0  0  0  0  0  0
   13.8649   -1.0744    0.0000 C   0  0  0  0  0  0  0  0  0  0  0  0
   15.3487   -3.5814    0.0000 C   0  0  0  0  0  0  0  0  0  0  0  0
  1  5  2  0  0  0  0
  1  6  2  0  0  0  0
  1 11  1  0  0  0  0
  1 43  1  0  0  0  0
  2 20  1  0  0  0  0
  2 40  1  0  0  0  0
  3 25  1  0  0  0  0
  3 35  1  0  0  0  0
  4 26  2  0  0  0  0
  7 49  1  0  0  0  0
  7 58  1  0  0  0  0
  8 51  2  0  0  0  0
  9 56  1  0  0  0  0
  9 57  1  0  0  0  0
 10 17  1  0  0  0  0
 10 18  1  0  0  0  0
 10 26  1  0  0  0  0
 11 22  1  0  0  0  0
 12 26  1  0  0  0  0
 13 41  1  0  0  0  0
 13 44  1  0  0  0  0
 14 41  2  0  0  0  0
 14 45  1  0  0  0  0
 15 51  1  0  0  0  0
 15 52  1  0  0  0  0
 16 53  1  0  0  0  0
 16 54  1  0  0  0  0
 16 55  1  0  0  0  0
 17 20  1  0  0  0  0
 17 24  2  0  0  0  0
 18 19  1  0  0  0  0
 18 27  2  0  0  0  0
 19 21  2  0  0  0  0
 19 31  1  0  0  0  0
 20 22  2  0  0  0  0
 21 25  1  0  0  0  0
 21 32  1  0  0  0  0
 22 28  1  0  0  0  0
 23 24  1  0  0  0  0
 23 28  2  0  0  0  0
 23 29  1  0  0  0  0
 25 30  2  0  0  0  0
 27 30  1  0  0  0  0
 29 36  1  0  0  0  0
 29 37  1  0  0  0  0
 29 38  1  0  0  0  0
 31 33  2  0  0  0  0
 32 34  2  0  0  0  0
 33 34  1  0  0  0  0
 35 39  2  0  0  0  0
 35 42  1  0  0  0  0
 39 41  1  0  0  0  0
 42 45  2  0  0  0  0
 44 47  1  0  0  0  0
 44 48  2  0  0  0  0
 46 47  2  0  0  0  0
 46 50  1  0  0  0  0
 46 51  1  0  0  0  0
 48 49  1  0  0  0  0
 49 50  2  0  0  0  0
 52 53  1  0  0  0  0
 54 57  1  0  0  0  0
 55 56  1  0  0  0  0
 56 60  1  1  0  0  0
 57 59  1  1  0  0  0
M  END
> <PUBCHEM_COMPOUND_ID_TYPE>
0

> <PUBCHEM_TOTAL_CHARGE>
0

> <PUBCHEM_SUBSTANCE_ID>
310929049

> <PUBCHEM_SUBSTANCE_VERSION>
1

> <PUBCHEM_EXT_DATASOURCE_NAME>
4488

> <PUBCHEM_EXT_DATASOURCE_REGID>
SCHEMBL16106211

> <PUBCHEM_SUBSTANCE_COMMENT>
InChI=1S/C44H53N7O8S/c1-27-25-50(26-28(2)58-27)18-17-47-42(52)29-19-31(23-33(20-29)56-6)48-40-24-32(15-16-46-40)59-39-14-13-37(34-11-9-10-12-35(34)39)51(43(45)53)38-22-30(44(3,4)5)21-36(41(38)57-7)49-60(8,54)55/h9-16,19-24,27-28,49H,17-18,25-26H2,1-8H3,(H2,45,53)(H,46,48)(H,47,52)/t27-,28+
InChIKey=XYYNHAPRISFNQO-HNRBIFIRSA-N

> <PUBCHEM_SUBSTANCE_SYNONYM>
SCHEMBL16106211

> <PUBCHEM_XREF_EXT_ID>
SCHEMBL16106211

> <PUBCHEM_EXT_DATASOURCE_URL>
https://www.surechembl.org/

> <PUBCHEM_EXT_SUBSTANCE_URL>
https://www.surechembl.org/chemical/SCHEMBL16106211

> <PUBCHEM_CID_ASSOCIATIONS>
117598562  1

> <PUBCHEM_COORDINATE_TYPE>
1
3

> <PUBCHEM_BONDANNOTATIONS>
56  60  5
57  59  5

$$$$
