310935052
  -OEChem-07211613022D

 24 27  0     0  0  0  0  0  0999 V2000
    1.7798    1.0799    0.0000 O   0  0  0  0  0  0  0  0  0  0  0  0
    4.9968    3.9132    0.0000 O   0  0  0  0  0  0  0  0  0  0  0  0
    4.3257    5.4206    0.0000 O   0  0  0  0  0  0  0  0  0  0  0  0
    2.8664    3.3320    0.0000 N   0  0  0  0  0  0  0  0  0  0  0  0
    2.6115    2.5474    0.0000 N   0  0  0  0  0  0  0  0  0  0  0  0
    3.8408    4.7532    0.0000 N   0  0  0  0  0  0  0  0  0  0  0  0
    3.2789    2.0625    0.0000 C   0  0  0  0  0  0  0  0  0  0  0  0
    3.2789    1.2375    0.0000 C   0  0  0  0  0  0  0  0  0  0  0  0
    3.6914    3.3320    0.0000 C   0  0  0  0  0  0  0  0  0  0  0  0
    2.5645    0.8250    0.0000 C   0  0  0  0  0  0  0  0  0  0  0  0
    3.9464    2.5474    0.0000 C   0  0  0  0  0  0  0  0  0  0  0  0
    2.3815    3.9995    0.0000 C   0  0  0  0  0  0  0  0  0  0  0  0
    2.5645    0.0000    0.0000 C   0  0  0  0  0  0  0  0  0  0  0  0
    4.1764    3.9995    0.0000 C   0  0  0  0  0  0  0  0  0  0  0  0
    3.9934    0.8250    0.0000 C   0  0  0  0  0  0  0  0  0  0  0  0
    3.2789   -0.4125    0.0000 C   0  0  0  0  0  0  0  0  0  0  0  0
    1.7798   -0.2549    0.0000 C   0  0  0  0  0  0  0  0  0  0  0  0
    3.9934    0.0000    0.0000 C   0  0  0  0  0  0  0  0  0  0  0  0
    1.5610    3.9132    0.0000 C   0  0  0  0  0  0  0  0  0  0  0  0
    2.7171    4.7532    0.0000 C   0  0  0  0  0  0  0  0  0  0  0  0
    1.2949    0.4125    0.0000 C   0  0  0  0  0  0  0  0  0  0  0  0
    1.0761    4.5807    0.0000 C   0  0  0  0  0  0  0  0  0  0  0  0
    2.2321    5.4206    0.0000 C   0  0  0  0  0  0  0  0  0  0  0  0
    1.4117    5.3344    0.0000 C   0  0  0  0  0  0  0  0  0  0  0  0
  1 10  1  0  0  0  0
  1 21  1  0  0  0  0
  2 14  2  0  0  0  0
  3  6  1  0  0  0  0
  4  5  1  0  0  0  0
  4  9  1  0  0  0  0
  4 12  1  0  0  0  0
  5  7  2  0  0  0  0
  6 14  1  0  0  0  0
  7  8  1  0  0  0  0
  7 11  1  0  0  0  0
  8 10  1  0  0  0  0
  8 15  2  0  0  0  0
  9 11  2  0  0  0  0
  9 14  1  0  0  0  0
 10 13  2  0  0  0  0
 12 19  2  0  0  0  0
 12 20  1  0  0  0  0
 13 16  1  0  0  0  0
 13 17  1  0  0  0  0
 15 18  1  0  0  0  0
 16 18  2  0  0  0  0
 17 21  1  0  0  0  0
 19 22  1  0  0  0  0
 20 23  2  0  0  0  0
 22 24  2  0  0  0  0
 23 24  1  0  0  0  0
M  END
> <PUBCHEM_COMPOUND_ID_TYPE>
0

> <PUBCHEM_TOTAL_CHARGE>
0

> <PUBCHEM_SUBSTANCE_ID>
310935052

> <PUBCHEM_SUBSTANCE_VERSION>
1

> <PUBCHEM_EXT_DATASOURCE_NAME>
4488

> <PUBCHEM_EXT_DATASOURCE_REGID>
SCHEMBL16112572

> <PUBCHEM_SUBSTANCE_COMMENT>
InChI=1S/C18H15N3O3/c22-18(20-23)16-11-15(19-21(16)13-6-2-1-3-7-13)14-8-4-5-12-9-10-24-17(12)14/h1-8,11,23H,9-10H2,(H,20,22)
InChIKey=NTOMYBAUFBHFRU-UHFFFAOYSA-N

> <PUBCHEM_SUBSTANCE_SYNONYM>
SCHEMBL16112572

> <PUBCHEM_XREF_EXT_ID>
SCHEMBL16112572

> <PUBCHEM_EXT_DATASOURCE_URL>
https://www.surechembl.org/

> <PUBCHEM_EXT_SUBSTANCE_URL>
https://www.surechembl.org/chemical/SCHEMBL16112572

> <PUBCHEM_CID_ASSOCIATIONS>
86292245  1

> <PUBCHEM_COORDINATE_TYPE>
1
3

$$$$
