310948869
  -OEChem-07211613022D

 55 58  0     1  0  0  0  0  0999 V2000
   -3.1024    1.2085    0.0000 P   0  0  3  0  0  0  0  0  0  0  0  0
   -3.5384   -2.7162    0.0000 F   0  0  0  0  0  0  0  0  0  0  0  0
   -3.8250    0.7849    0.0000 O   0  0  0  0  0  0  0  0  0  0  0  0
   -5.3451   -0.5980    0.0000 O   0  0  0  0  0  0  0  0  0  0  0  0
   -9.9550    2.5417    0.0000 O   0  0  0  0  0  0  0  0  0  0  0  0
   -2.6912    0.4859    0.0000 O   0  0  0  0  0  0  0  0  0  0  0  0
   -3.1148    2.0309    0.0000 O   0  0  0  0  0  0  0  0  0  0  0  0
    0.5980    2.0309    0.0000 O   0  0  0  0  0  0  0  0  0  0  0  0
   -7.2513    1.6197    0.0000 N   0  0  0  0  0  0  0  0  0  0  0  0
   -8.0362    2.7162    0.0000 N   0  0  0  0  0  0  0  0  0  0  0  0
   -8.2480    0.6105    0.0000 N   0  0  0  0  0  0  0  0  0  0  0  0
   -9.6933    1.1961    0.0000 N   0  0  0  0  0  0  0  0  0  0  0  0
   -9.4192   -0.2866    0.0000 N   0  0  0  0  0  0  0  0  0  0  0  0
   -2.2676    1.2085    0.0000 N   0  0  0  0  0  0  0  0  0  0  0  0
   -0.0997    0.7974    0.0000 N   0  0  0  0  0  0  0  0  0  0  0  0
   -6.5286    1.2085    0.0000 C   0  0  3  0  0  0  0  0  0  0  0  0
   -8.0362    1.3705    0.0000 C   0  0  0  0  0  0  0  0  0  0  0  0
   -8.5346    2.0433    0.0000 C   0  0  0  0  0  0  0  0  0  0  0  0
   -5.7562    1.4452    0.0000 C   0  0  0  0  0  0  0  0  0  0  0  0
   -5.2578    0.7849    0.0000 C   0  0  3  0  0  0  0  0  0  0  0  0
   -5.7437    0.1246    0.0000 C   0  0  3  0  0  0  0  0  0  0  0  0
   -6.5286    0.3862    0.0000 C   0  0  0  0  0  0  0  0  0  0  0  0
   -7.2513    2.4545    0.0000 C   0  0  0  0  0  0  0  0  0  0  0  0
   -9.3444    1.9436    0.0000 C   0  0  0  0  0  0  0  0  0  0  0  0
   -9.1949    0.5233    0.0000 C   0  0  0  0  0  0  0  0  0  0  0  0
   -4.5351    1.1961    0.0000 C   0  0  0  0  0  0  0  0  0  0  0  0
   -5.3326    2.1804    0.0000 C   0  0  0  0  0  0  0  0  0  0  0  0
   -2.9030   -0.3115    0.0000 C   0  0  0  0  0  0  0  0  0  0  0  0
   -1.5325    0.7974    0.0000 C   0  0  0  0  0  0  0  0  0  0  0  0
   -3.6879   -0.5358    0.0000 C   0  0  0  0  0  0  0  0  0  0  0  0
   -2.3174   -0.9095    0.0000 C   0  0  0  0  0  0  0  0  0  0  0  0
   -3.8997   -1.3331    0.0000 C   0  0  0  0  0  0  0  0  0  0  0  0
   -2.5292   -1.6944    0.0000 C   0  0  0  0  0  0  0  0  0  0  0  0
   -3.3266   -1.9062    0.0000 C   0  0  0  0  0  0  0  0  0  0  0  0
   -0.8348    1.2085    0.0000 C   0  0  0  0  0  0  0  0  0  0  0  0
    0.5980    1.1961    0.0000 C   0  0  0  0  0  0  0  0  0  0  0  0
    1.3456    0.7974    0.0000 C   0  0  0  0  0  0  0  0  0  0  0  0
    2.0433    1.1961    0.0000 C   0  0  0  0  0  0  0  0  0  0  0  0
    2.0558    2.0433    0.0000 C   0  0  0  0  0  0  0  0  0  0  0  0
    2.7659    2.4545    0.0000 C   0  0  0  0  0  0  0  0  0  0  0  0
    3.4886    2.0309    0.0000 C   0  0  0  0  0  0  0  0  0  0  0  0
    3.4886    1.2085    0.0000 C   0  0  0  0  0  0  0  0  0  0  0  0
    4.2112    0.7974    0.0000 C   0  0  0  0  0  0  0  0  0  0  0  0
    4.9214    1.1961    0.0000 C   0  0  0  0  0  0  0  0  0  0  0  0
    4.9339    2.0433    0.0000 C   0  0  0  0  0  0  0  0  0  0  0  0
    5.6440    2.4545    0.0000 C   0  0  0  0  0  0  0  0  0  0  0  0
    6.3667    2.0309    0.0000 C   0  0  0  0  0  0  0  0  0  0  0  0
    6.3667    1.2085    0.0000 C   0  0  0  0  0  0  0  0  0  0  0  0
    7.0893    0.7974    0.0000 C   0  0  0  0  0  0  0  0  0  0  0  0
    7.7995    1.1961    0.0000 C   0  0  0  0  0  0  0  0  0  0  0  0
    7.8119    2.0433    0.0000 C   0  0  0  0  0  0  0  0  0  0  0  0
    8.5096    2.4545    0.0000 C   0  0  0  0  0  0  0  0  0  0  0  0
    9.2448    2.0309    0.0000 C   0  0  0  0  0  0  0  0  0  0  0  0
    9.2448    1.2085    0.0000 C   0  0  0  0  0  0  0  0  0  0  0  0
    9.9550    0.7974    0.0000 C   0  0  0  0  0  0  0  0  0  0  0  0
  1  3  1  0  0  0  0
  1  6  1  0  0  0  0
  1  7  2  0  0  0  0
  1 14  1  0  0  0  0
  2 34  1  0  0  0  0
  3 26  1  0  0  0  0
 21  4  1  1  0  0  0
  5 24  2  0  0  0  0
  6 28  1  0  0  0  0
  8 36  2  0  0  0  0
  9 16  1  0  0  0  0
  9 17  1  0  0  0  0
  9 23  1  0  0  0  0
 10 18  1  0  0  0  0
 10 23  2  0  0  0  0
 11 17  1  0  0  0  0
 11 25  1  0  0  0  0
 12 24  1  0  0  0  0
 12 25  2  0  0  0  0
 13 25  1  0  0  0  0
 14 29  1  0  0  0  0
 15 35  1  0  0  0  0
 15 36  1  0  0  0  0
 16 19  1  0  0  0  0
 16 22  1  0  0  0  0
 17 18  2  0  0  0  0
 18 24  1  0  0  0  0
 19 20  1  0  0  0  0
 19 27  2  0  0  0  0
 20 21  1  0  0  0  0
 20 26  1  6  0  0  0
 21 22  1  0  0  0  0
 28 30  2  0  0  0  0
 28 31  1  0  0  0  0
 29 35  1  0  0  0  0
 30 32  1  0  0  0  0
 31 33  2  0  0  0  0
 32 34  2  0  0  0  0
 33 34  1  0  0  0  0
 36 37  1  0  0  0  0
 37 38  1  0  0  0  0
 38 39  1  0  0  0  0
 39 40  1  0  0  0  0
 40 41  2  0  0  0  0
 41 42  1  0  0  0  0
 42 43  1  0  0  0  0
 43 44  2  0  0  0  0
 44 45  1  0  0  0  0
 45 46  1  0  0  0  0
 46 47  2  0  0  0  0
 47 48  1  0  0  0  0
 48 49  1  0  0  0  0
 49 50  2  0  0  0  0
 50 51  1  0  0  0  0
 51 52  1  0  0  0  0
 52 53  2  0  0  0  0
 53 54  1  0  0  0  0
 54 55  1  0  0  0  0
M  END
> <PUBCHEM_COMPOUND_ID_TYPE>
0

> <PUBCHEM_TOTAL_CHARGE>
0

> <PUBCHEM_SUBSTANCE_ID>
310948869

> <PUBCHEM_SUBSTANCE_VERSION>
1

> <PUBCHEM_EXT_DATASOURCE_NAME>
4488

> <PUBCHEM_EXT_DATASOURCE_REGID>
SCHEMBL16127054

> <PUBCHEM_SUBSTANCE_COMMENT>
InChI=1S/C40H53FN7O6P/c1-3-4-5-6-7-8-9-10-11-12-13-14-15-16-17-18-19-20-36(50)43-25-26-45-55(52,54-32-23-21-31(41)22-24-32)53-28-33-30(2)34(27-35(33)49)48-29-44-37-38(48)46-40(42)47-39(37)51/h4-5,7-8,10-11,13-14,16-17,21-24,29,33-35,49H,2-3,6,9,12,15,18-20,25-28H2,1H3,(H,43,50)(H,45,52)(H3,42,46,47,51)/b5-4-,8-7-,11-10-,14-13-,17-16-/t33-,34?,35-,55?/m0/s1
InChIKey=ZAAFNFMDITYJPL-HNUJFOFTSA-N

> <PUBCHEM_SUBSTANCE_SYNONYM>
SCHEMBL16127054

> <PUBCHEM_XREF_EXT_ID>
SCHEMBL16127054

> <PUBCHEM_EXT_DATASOURCE_URL>
https://www.surechembl.org/

> <PUBCHEM_EXT_SUBSTANCE_URL>
https://www.surechembl.org/chemical/SCHEMBL16127054

> <PUBCHEM_CID_ASSOCIATIONS>
117614401  1

> <PUBCHEM_COORDINATE_TYPE>
1
3

> <PUBCHEM_BONDANNOTATIONS>
20  26  6
21  4  5

$$$$
