310930216
  -OEChem-07211613022D

 15 16  0     0  0  0  0  0  0999 V2000
    0.0000   -2.0370    0.0000 O   0  0  0  0  0  0  0  0  0  0  0  0
    1.2271   -1.3007    0.0000 N   0  0  0  0  0  0  0  0  0  0  0  0
    2.2333   -0.4172    0.0000 N   0  0  0  0  0  0  0  0  0  0  0  0
    0.8099   -4.9083    0.0000 N   0  0  0  0  0  0  0  0  0  0  0  0
    3.3131   -3.4849    0.0000 N   0  0  0  0  0  0  0  0  0  0  0  0
    1.2271   -2.7487    0.0000 C   0  0  0  0  0  0  0  0  0  0  0  0
    0.8099   -2.0370    0.0000 C   0  0  0  0  0  0  0  0  0  0  0  0
    2.0615   -2.7732    0.0000 C   0  0  0  0  0  0  0  0  0  0  0  0
    0.8344   -3.4849    0.0000 C   0  0  0  0  0  0  0  0  0  0  0  0
    1.2271   -4.1966    0.0000 C   0  0  0  0  0  0  0  0  0  0  0  0
    2.4787   -3.4849    0.0000 C   0  0  0  0  0  0  0  0  0  0  0  0
    2.0615   -1.2026    0.0000 C   0  0  0  0  0  0  0  0  0  0  0  0
    0.9081   -0.5399    0.0000 C   0  0  0  0  0  0  0  0  0  0  0  0
    2.0615   -4.1966    0.0000 C   0  0  0  0  0  0  0  0  0  0  0  0
    1.5216    0.0000    0.0000 C   0  0  0  0  0  0  0  0  0  0  0  0
  1  7  2  0  0  0  0
  2  7  1  0  0  0  0
  2 12  1  0  0  0  0
  2 13  1  0  0  0  0
  3 12  2  0  0  0  0
  3 15  1  0  0  0  0
  4 10  1  0  0  0  0
  5 11  1  0  0  0  0
  6  7  1  0  0  0  0
  6  8  2  0  0  0  0
  6  9  1  0  0  0  0
  8 11  1  0  0  0  0
  9 10  2  0  0  0  0
 10 14  1  0  0  0  0
 11 14  2  0  0  0  0
 13 15  2  0  0  0  0
M  END
> <PUBCHEM_COMPOUND_ID_TYPE>
0

> <PUBCHEM_TOTAL_CHARGE>
0

> <PUBCHEM_SUBSTANCE_ID>
310930216

> <PUBCHEM_SUBSTANCE_VERSION>
1

> <PUBCHEM_EXT_DATASOURCE_NAME>
4488

> <PUBCHEM_EXT_DATASOURCE_REGID>
SCHEMBL16107483

> <PUBCHEM_SUBSTANCE_COMMENT>
InChI=1S/C10H10N4O/c11-8-3-7(4-9(12)5-8)10(15)14-2-1-13-6-14/h1-6H,11-12H2
InChIKey=RYEANZPWKOPJAL-UHFFFAOYSA-N

> <PUBCHEM_SUBSTANCE_SYNONYM>
SCHEMBL16107483

> <PUBCHEM_XREF_EXT_ID>
SCHEMBL16107483

> <PUBCHEM_EXT_DATASOURCE_URL>
https://www.surechembl.org/

> <PUBCHEM_EXT_SUBSTANCE_URL>
https://www.surechembl.org/chemical/SCHEMBL16107483

> <PUBCHEM_CID_ASSOCIATIONS>
117599419  1

> <PUBCHEM_COORDINATE_TYPE>
1
3

$$$$
