310941182
  -OEChem-07211613022D

 43 46  0     1  0  0  0  0  0999 V2000
    5.0980    0.6821    0.0000 O   0  0  0  0  0  0  0  0  0  0  0  0
    3.9588   -1.2868    0.0000 O   0  0  0  0  0  0  0  0  0  0  0  0
    1.8071    0.7946    0.0000 O   0  0  0  0  0  0  0  0  0  0  0  0
    0.3727   -1.6946    0.0000 O   0  0  0  0  0  0  0  0  0  0  0  0
   -0.3446   -1.2868    0.0000 O   0  0  0  0  0  0  0  0  0  0  0  0
    3.9588   -2.9463    0.0000 O   0  0  0  0  0  0  0  0  0  0  0  0
   -2.4963    0.7946    0.0000 O   0  0  0  0  0  0  0  0  0  0  0  0
   -5.3652    0.7946    0.0000 O   0  0  0  0  0  0  0  0  0  0  0  0
    2.5244   -0.4430    0.0000 N   0  0  0  0  0  0  0  0  0  0  0  0
    0.3727   -0.0211    0.0000 N   0  0  0  0  0  0  0  0  0  0  0  0
   -1.7790   -0.4430    0.0000 N   0  0  0  0  0  0  0  0  0  0  0  0
   -3.9307   -0.0211    0.0000 N   0  0  0  0  0  0  0  0  0  0  0  0
    4.6760   -0.0070    0.0000 C   0  0  3  0  0  0  0  0  0  0  0  0
    3.9447   -0.4290    0.0000 C   0  0  0  0  0  0  0  0  0  0  0  0
    4.2963    0.6961    0.0000 C   0  0  0  0  0  0  0  0  0  0  0  0
    3.2276   -0.0351    0.0000 C   0  0  3  0  0  0  0  0  0  0  0  0
    5.3652   -0.4290    0.0000 C   0  0  0  0  0  0  0  0  0  0  0  0
    1.7931   -0.0493    0.0000 C   0  0  0  0  0  0  0  0  0  0  0  0
    1.1180   -0.4290    0.0000 C   0  0  3  0  0  0  0  0  0  0  0  0
    3.2416    1.3009    0.0000 C   0  0  0  0  0  0  0  0  0  0  0  0
    1.1321   -1.3149    0.0000 C   0  0  0  0  0  0  0  0  0  0  0  0
    2.5103    1.7227    0.0000 C   0  0  0  0  0  0  0  0  0  0  0  0
    1.8212   -1.6806    0.0000 C   0  0  0  0  0  0  0  0  0  0  0  0
   -0.3305   -0.4149    0.0000 C   0  0  0  0  0  0  0  0  0  0  0  0
    2.5244   -1.2868    0.0000 C   0  0  0  0  0  0  0  0  0  0  0  0
    1.8212   -2.5103    0.0000 C   0  0  0  0  0  0  0  0  0  0  0  0
   -1.0759   -0.0351    0.0000 C   0  0  3  0  0  0  0  0  0  0  0  0
    1.8071    1.3149    0.0000 C   0  0  0  0  0  0  0  0  0  0  0  0
    2.5244    2.5384    0.0000 C   0  0  0  0  0  0  0  0  0  0  0  0
    3.2276   -2.5103    0.0000 C   0  0  0  0  0  0  0  0  0  0  0  0
    3.2416   -1.6946    0.0000 C   0  0  0  0  0  0  0  0  0  0  0  0
    2.5384   -2.9181    0.0000 C   0  0  0  0  0  0  0  0  0  0  0  0
    1.0899    1.7227    0.0000 C   0  0  0  0  0  0  0  0  0  0  0  0
    1.8071    2.9463    0.0000 C   0  0  0  0  0  0  0  0  0  0  0  0
   -2.4963   -0.0493    0.0000 C   0  0  0  0  0  0  0  0  0  0  0  0
    1.0899    2.5384    0.0000 C   0  0  0  0  0  0  0  0  0  0  0  0
   -1.0617    0.7946    0.0000 C   0  0  0  0  0  0  0  0  0  0  0  0
   -3.2276   -0.4290    0.0000 C   0  0  0  0  0  0  0  0  0  0  0  0
   -3.9307    0.8087    0.0000 C   0  0  0  0  0  0  0  0  0  0  0  0
   -4.6620   -0.4290    0.0000 C   0  0  0  0  0  0  0  0  0  0  0  0
    4.7042   -2.5103    0.0000 C   0  0  0  0  0  0  0  0  0  0  0  0
   -4.6480    1.2165    0.0000 C   0  0  0  0  0  0  0  0  0  0  0  0
   -5.3652   -0.0351    0.0000 C   0  0  0  0  0  0  0  0  0  0  0  0
  1 13  1  0  0  0  0
  1 15  1  0  0  0  0
  2 14  2  0  0  0  0
  3 18  2  0  0  0  0
  4 21  2  0  0  0  0
  5 24  2  0  0  0  0
  6 30  1  0  0  0  0
  6 41  1  0  0  0  0
  7 35  2  0  0  0  0
  8 42  1  0  0  0  0
  8 43  1  0  0  0  0
 16  9  1  1  0  0  0
  9 18  1  0  0  0  0
 19 10  1  6  0  0  0
 10 24  1  0  0  0  0
 11 27  1  0  0  0  0
 11 35  1  0  0  0  0
 12 38  1  0  0  0  0
 12 39  1  0  0  0  0
 12 40  1  0  0  0  0
 13 14  1  1  0  0  0
 13 15  1  0  0  0  0
 13 17  1  6  0  0  0
 14 16  1  0  0  0  0
 16 20  1  0  0  0  0
 18 19  1  0  0  0  0
 19 21  1  0  0  0  0
 20 22  1  0  0  0  0
 21 23  1  0  0  0  0
 22 28  2  0  0  0  0
 22 29  1  0  0  0  0
 23 25  2  0  0  0  0
 23 26  1  0  0  0  0
 24 27  1  0  0  0  0
 25 31  1  0  0  0  0
 26 32  2  0  0  0  0
 27 37  1  1  0  0  0
 28 33  1  0  0  0  0
 29 34  2  0  0  0  0
 30 31  2  0  0  0  0
 30 32  1  0  0  0  0
 33 36  2  0  0  0  0
 34 36  1  0  0  0  0
 35 38  1  0  0  0  0
 39 42  1  0  0  0  0
 40 43  1  0  0  0  0
M  END
> <PUBCHEM_COMPOUND_ID_TYPE>
0

> <PUBCHEM_TOTAL_CHARGE>
0

> <PUBCHEM_SUBSTANCE_ID>
310941182

> <PUBCHEM_SUBSTANCE_VERSION>
1

> <PUBCHEM_EXT_DATASOURCE_NAME>
4488

> <PUBCHEM_EXT_DATASOURCE_REGID>
SCHEMBL16119142

> <PUBCHEM_SUBSTANCE_COMMENT>
InChI=1S/C31H38N4O8/c1-20(32-25(36)18-35-13-15-42-16-14-35)29(39)34-26(27(37)22-9-11-23(41-3)12-10-22)30(40)33-24(28(38)31(2)19-43-31)17-21-7-5-4-6-8-21/h4-12,20,24,26H,13-19H2,1-3H3,(H,32,36)(H,33,40)(H,34,39)/t20-,24-,26-,31+/m0/s1
InChIKey=DZHRNHMFBCGOFJ-TYVIZXDASA-N

> <PUBCHEM_SUBSTANCE_SYNONYM>
SCHEMBL16119142

> <PUBCHEM_XREF_EXT_ID>
SCHEMBL16119142

> <PUBCHEM_EXT_DATASOURCE_URL>
https://www.surechembl.org/

> <PUBCHEM_EXT_SUBSTANCE_URL>
https://www.surechembl.org/chemical/SCHEMBL16119142

> <PUBCHEM_CID_ASSOCIATIONS>
117608056  1

> <PUBCHEM_COORDINATE_TYPE>
1
3

> <PUBCHEM_BONDANNOTATIONS>
19  10  6
13  14  5
13  17  6
27  37  5
16  9  5

$$$$
