310930172
  -OEChem-07211613022D

 30 34  0     0  0  0  0  0  0999 V2000
    0.7382   -7.0339    0.0000 O   0  0  0  0  0  0  0  0  0  0  0  0
    2.1709   -7.0339    0.0000 N   0  0  0  0  0  0  0  0  0  0  0  0
    3.5604   -4.5590    0.0000 N   0  0  0  0  0  0  0  0  0  0  0  0
    1.3894   -3.3433    0.0000 N   0  0  0  0  0  0  0  0  0  0  0  0
    2.8656   -7.4247    0.0000 C   0  0  0  0  0  0  0  0  0  0  0  0
    3.5604   -7.0339    0.0000 C   0  0  0  0  0  0  0  0  0  0  0  0
    2.8656   -8.2497    0.0000 C   0  0  0  0  0  0  0  0  0  0  0  0
    3.5604   -6.2090    0.0000 C   0  0  0  0  0  0  0  0  0  0  0  0
    4.2985   -7.4247    0.0000 C   0  0  0  0  0  0  0  0  0  0  0  0
    1.4329   -7.4247    0.0000 C   0  0  0  0  0  0  0  0  0  0  0  0
    3.5604   -8.6839    0.0000 C   0  0  0  0  0  0  0  0  0  0  0  0
    2.1709   -8.6839    0.0000 C   0  0  0  0  0  0  0  0  0  0  0  0
    4.2985   -5.7748    0.0000 C   0  0  0  0  0  0  0  0  0  0  0  0
    2.8656   -5.8182    0.0000 C   0  0  0  0  0  0  0  0  0  0  0  0
    4.2985   -8.2497    0.0000 C   0  0  0  0  0  0  0  0  0  0  0  0
    1.4329   -8.2497    0.0000 C   0  0  0  0  0  0  0  0  0  0  0  0
    4.2551   -4.9498    0.0000 C   0  0  0  0  0  0  0  0  0  0  0  0
    2.8223   -4.9932    0.0000 C   0  0  0  0  0  0  0  0  0  0  0  0
    2.8223   -3.3433    0.0000 C   0  0  0  0  0  0  0  0  0  0  0  0
    2.0841   -2.0841    0.0000 C   0  0  0  0  0  0  0  0  0  0  0  0
    3.5170   -3.7340    0.0000 C   0  0  0  0  0  0  0  0  0  0  0  0
    2.0841   -1.2592    0.0000 C   0  0  0  0  0  0  0  0  0  0  0  0
    2.7789   -2.4749    0.0000 C   0  0  0  0  0  0  0  0  0  0  0  0
    2.0841   -3.7340    0.0000 C   0  0  0  0  0  0  0  0  0  0  0  0
    1.3460   -2.5183    0.0000 C   0  0  0  0  0  0  0  0  0  0  0  0
    1.3894   -0.7815    0.0000 C   0  0  0  0  0  0  0  0  0  0  0  0
    2.7354   -0.7815    0.0000 C   0  0  0  0  0  0  0  0  0  0  0  0
    1.6933    0.0000    0.0000 C   0  0  0  0  0  0  0  0  0  0  0  0
    2.4749    0.0000    0.0000 C   0  0  0  0  0  0  0  0  0  0  0  0
    0.0000   -7.4247    0.0000 C   0  0  0  0  0  0  0  0  0  0  0  0
  1 10  1  0  0  0  0
  1 30  1  0  0  0  0
  2  5  2  0  0  0  0
  2 10  1  0  0  0  0
  3 17  1  0  0  0  0
  3 18  1  0  0  0  0
  3 21  1  0  0  0  0
  4 24  1  0  0  0  0
  4 25  2  0  0  0  0
  5  6  1  0  0  0  0
  5  7  1  0  0  0  0
  6  8  1  0  0  0  0
  6  9  2  0  0  0  0
  7 11  1  0  0  0  0
  7 12  2  0  0  0  0
  8 13  1  0  0  0  0
  8 14  1  0  0  0  0
  9 15  1  0  0  0  0
 10 16  2  0  0  0  0
 11 15  2  0  0  0  0
 12 16  1  0  0  0  0
 13 17  1  0  0  0  0
 14 18  1  0  0  0  0
 19 21  1  0  0  0  0
 19 23  1  0  0  0  0
 19 24  2  0  0  0  0
 20 22  1  0  0  0  0
 20 23  2  0  0  0  0
 20 25  1  0  0  0  0
 22 26  2  0  0  0  0
 22 27  1  0  0  0  0
 26 28  1  0  0  0  0
 27 29  1  0  0  0  0
 28 29  1  0  0  0  0
M  END
> <PUBCHEM_COMPOUND_ID_TYPE>
0

> <PUBCHEM_TOTAL_CHARGE>
0

> <PUBCHEM_SUBSTANCE_ID>
310930172

> <PUBCHEM_SUBSTANCE_VERSION>
1

> <PUBCHEM_EXT_DATASOURCE_NAME>
4488

> <PUBCHEM_EXT_DATASOURCE_REGID>
SCHEMBL16107432

> <PUBCHEM_SUBSTANCE_COMMENT>
InChI=1S/C26H29N3O/c1-30-25-10-9-22-7-4-8-24(26(22)28-25)21-11-13-29(14-12-21)18-19-15-23(17-27-16-19)20-5-2-3-6-20/h4-5,7-10,15-17,21H,2-3,6,11-14,18H2,1H3
InChIKey=YEAZRLIYHQXPJP-UHFFFAOYSA-N

> <PUBCHEM_SUBSTANCE_SYNONYM>
SCHEMBL16107432

> <PUBCHEM_XREF_EXT_ID>
SCHEMBL16107432

> <PUBCHEM_EXT_DATASOURCE_URL>
https://www.surechembl.org/

> <PUBCHEM_EXT_SUBSTANCE_URL>
https://www.surechembl.org/chemical/SCHEMBL16107432

> <PUBCHEM_CID_ASSOCIATIONS>
86273938  1

> <PUBCHEM_COORDINATE_TYPE>
1
3

$$$$
