310934794
  -OEChem-07211613022D

 30 33  0     0  0  0  0  0  0999 V2000
   -3.3424   -0.8250    0.0000 Br  0  0  0  0  0  0  0  0  0  0  0  0
    1.9840    1.0396    0.0000 F   0  0  0  0  0  0  0  0  0  0  0  0
    4.8419    3.5146    0.0000 O   0  0  0  0  0  0  0  0  0  0  0  0
    4.1274    4.7521    0.0000 O   0  0  0  0  0  0  0  0  0  0  0  0
   -2.3028    1.0396    0.0000 N   0  0  0  0  0  0  0  0  0  0  0  0
    1.9840    2.6896    0.0000 N   0  0  0  0  0  0  0  0  0  0  0  0
   -1.5884   -0.1979    0.0000 N   0  0  0  0  0  0  0  0  0  0  0  0
   -3.0874    1.2945    0.0000 N   0  0  0  0  0  0  0  0  0  0  0  0
    3.4130    3.5146    0.0000 N   0  0  0  0  0  0  0  0  0  0  0  0
   -2.3028    0.2146    0.0000 C   0  0  0  0  0  0  0  0  0  0  0  0
   -0.8739    1.0396    0.0000 C   0  0  0  0  0  0  0  0  0  0  0  0
   -0.1594    1.4521    0.0000 C   0  0  0  0  0  0  0  0  0  0  0  0
    1.2696    2.2771    0.0000 C   0  0  0  0  0  0  0  0  0  0  0  0
   -1.5884    1.4521    0.0000 C   0  0  0  0  0  0  0  0  0  0  0  0
   -3.0874   -0.0404    0.0000 C   0  0  0  0  0  0  0  0  0  0  0  0
    1.2696    1.4521    0.0000 C   0  0  0  0  0  0  0  0  0  0  0  0
    0.5550    1.0396    0.0000 C   0  0  0  0  0  0  0  0  0  0  0  0
   -0.8739    0.2146    0.0000 C   0  0  0  0  0  0  0  0  0  0  0  0
   -0.1594    2.2771    0.0000 C   0  0  0  0  0  0  0  0  0  0  0  0
    0.5550    2.6896    0.0000 C   0  0  0  0  0  0  0  0  0  0  0  0
   -3.5724    0.6271    0.0000 C   0  0  0  0  0  0  0  0  0  0  0  0
    2.6985    2.2771    0.0000 C   0  0  0  0  0  0  0  0  0  0  0  0
    1.9840    3.5146    0.0000 C   0  0  0  0  0  0  0  0  0  0  0  0
    3.4130    2.6896    0.0000 C   0  0  0  0  0  0  0  0  0  0  0  0
    2.6985    3.9271    0.0000 C   0  0  0  0  0  0  0  0  0  0  0  0
    4.1274    3.9271    0.0000 C   0  0  0  0  0  0  0  0  0  0  0  0
    5.5564    3.9271    0.0000 C   0  0  0  0  0  0  0  0  0  0  0  0
    6.2708    3.5146    0.0000 C   0  0  0  0  0  0  0  0  0  0  0  0
    6.9853    3.9271    0.0000 C   0  0  0  0  0  0  0  0  0  0  0  0
    7.6998    3.5146    0.0000 C   0  0  0  0  0  0  0  0  0  0  0  0
  1 15  1  0  0  0  0
  2 16  1  0  0  0  0
  3 26  1  0  0  0  0
  3 27  1  0  0  0  0
  4 26  2  0  0  0  0
  5  8  1  0  0  0  0
  5 10  1  0  0  0  0
  5 14  1  0  0  0  0
  6 13  1  0  0  0  0
  6 22  1  0  0  0  0
  6 23  1  0  0  0  0
  7 10  1  0  0  0  0
  7 18  2  0  0  0  0
  8 21  2  0  0  0  0
  9 24  1  0  0  0  0
  9 25  1  0  0  0  0
  9 26  1  0  0  0  0
 10 15  2  0  0  0  0
 11 12  1  0  0  0  0
 11 14  2  0  0  0  0
 11 18  1  0  0  0  0
 12 17  1  0  0  0  0
 12 19  2  0  0  0  0
 13 16  1  0  0  0  0
 13 20  2  0  0  0  0
 15 21  1  0  0  0  0
 16 17  2  0  0  0  0
 19 20  1  0  0  0  0
 22 24  1  0  0  0  0
 23 25  1  0  0  0  0
 27 28  1  0  0  0  0
 28 29  1  0  0  0  0
 29 30  1  0  0  0  0
M  END
> <PUBCHEM_COMPOUND_ID_TYPE>
0

> <PUBCHEM_TOTAL_CHARGE>
0

> <PUBCHEM_SUBSTANCE_ID>
310934794

> <PUBCHEM_SUBSTANCE_VERSION>
1

> <PUBCHEM_EXT_DATASOURCE_NAME>
4488

> <PUBCHEM_EXT_DATASOURCE_REGID>
SCHEMBL16112298

> <PUBCHEM_SUBSTANCE_COMMENT>
InChI=1S/C21H23BrFN5O2/c1-2-3-10-30-21(29)27-8-6-26(7-9-27)19-5-4-15(11-18(19)23)16-12-24-20-17(22)13-25-28(20)14-16/h4-5,11-14H,2-3,6-10H2,1H3
InChIKey=PFIMBWJFSIUSPK-UHFFFAOYSA-N

> <PUBCHEM_SUBSTANCE_SYNONYM>
SCHEMBL16112298

> <PUBCHEM_XREF_EXT_ID>
SCHEMBL16112298

> <PUBCHEM_EXT_DATASOURCE_URL>
https://www.surechembl.org/

> <PUBCHEM_EXT_SUBSTANCE_URL>
https://www.surechembl.org/chemical/SCHEMBL16112298

> <PUBCHEM_CID_ASSOCIATIONS>
117602941  1

> <PUBCHEM_COORDINATE_TYPE>
1
3

$$$$
