310932927
  -OEChem-07211613022D

 31 33  0     0  0  0  0  0  0999 V2000
    3.9874   -3.3479    0.0000 O   0  0  0  0  0  0  0  0  0  0  0  0
    2.6332   -0.6395    0.0000 O   0  0  0  0  0  0  0  0  0  0  0  0
    8.4262   -3.4608    0.0000 O   0  0  0  0  0  0  0  0  0  0  0  0
    9.1786   -7.1096    0.0000 O   0  0  0  0  0  0  0  0  0  0  0  0
    4.8902   -2.2194    0.0000 N   0  0  0  0  0  0  0  0  0  0  0  0
    4.8150   -1.3918    0.0000 N   0  0  0  0  0  0  0  0  0  0  0  0
    6.3197   -2.2194    0.0000 N   0  0  0  0  0  0  0  0  0  0  0  0
    7.7491   -4.6645    0.0000 N   0  0  0  0  0  0  0  0  0  0  0  0
    0.0000   -3.0846    0.0000 N   0  0  0  0  0  0  0  0  0  0  0  0
    3.6113   -1.9561    0.0000 C   0  0  0  0  0  0  0  0  0  0  0  0
    4.1755   -2.5580    0.0000 C   0  0  0  0  0  0  0  0  0  0  0  0
    2.7837   -2.0313    0.0000 C   0  0  0  0  0  0  0  0  0  0  0  0
    5.6050   -2.6332    0.0000 C   0  0  0  0  0  0  0  0  0  0  0  0
    3.9874   -1.2414    0.0000 C   0  0  0  0  0  0  0  0  0  0  0  0
    2.2947   -1.3918    0.0000 C   0  0  0  0  0  0  0  0  0  0  0  0
    2.4451   -2.7837    0.0000 C   0  0  0  0  0  0  0  0  0  0  0  0
    5.6050   -3.4608    0.0000 C   0  0  0  0  0  0  0  0  0  0  0  0
    7.0344   -3.4608    0.0000 C   0  0  0  0  0  0  0  0  0  0  0  0
    1.5047   -1.5047    0.0000 C   0  0  0  0  0  0  0  0  0  0  0  0
    1.1661   -2.2194    0.0000 C   0  0  0  0  0  0  0  0  0  0  0  0
    7.0344   -2.6332    0.0000 C   0  0  0  0  0  0  0  0  0  0  0  0
    6.3197   -3.8370    0.0000 C   0  0  0  0  0  0  0  0  0  0  0  0
    1.6551   -2.8965    0.0000 C   0  0  0  0  0  0  0  0  0  0  0  0
    7.7491   -3.8370    0.0000 C   0  0  0  0  0  0  0  0  0  0  0  0
    0.3385   -2.3322    0.0000 C   0  0  0  0  0  0  0  0  0  0  0  0
    2.1442    0.0000    0.0000 C   0  0  0  0  0  0  0  0  0  0  0  0
    8.4639   -5.0783    0.0000 C   0  0  0  0  0  0  0  0  0  0  0  0
    7.0344   -5.0783    0.0000 C   0  0  0  0  0  0  0  0  0  0  0  0
    8.4639   -5.9059    0.0000 C   0  0  0  0  0  0  0  0  0  0  0  0
    9.1410   -6.2820    0.0000 C   0  0  0  0  0  0  0  0  0  0  0  0
    9.8933   -7.5234    0.0000 C   0  0  0  0  0  0  0  0  0  0  0  0
  1 11  1  0  0  0  0
  2 15  1  0  0  0  0
  2 26  1  0  0  0  0
  3 24  2  0  0  0  0
  4 30  1  0  0  0  0
  4 31  1  0  0  0  0
  5  6  1  0  0  0  0
  5 11  1  0  0  0  0
  5 13  1  0  0  0  0
  6 14  2  0  0  0  0
  7 13  2  0  0  0  0
  7 21  1  0  0  0  0
  8 24  1  0  0  0  0
  8 27  1  0  0  0  0
  8 28  1  0  0  0  0
  9 25  3  0  0  0  0
 10 11  2  0  0  0  0
 10 12  1  0  0  0  0
 10 14  1  0  0  0  0
 12 15  1  0  0  0  0
 12 16  2  0  0  0  0
 13 17  1  0  0  0  0
 15 19  2  0  0  0  0
 16 23  1  0  0  0  0
 17 22  2  0  0  0  0
 18 21  2  0  0  0  0
 18 22  1  0  0  0  0
 18 24  1  0  0  0  0
 19 20  1  0  0  0  0
 20 23  2  0  0  0  0
 20 25  1  0  0  0  0
 27 29  1  0  0  0  0
 29 30  1  0  0  0  0
M  END
> <PUBCHEM_COMPOUND_ID_TYPE>
0

> <PUBCHEM_TOTAL_CHARGE>
0

> <PUBCHEM_SUBSTANCE_ID>
310932927

> <PUBCHEM_SUBSTANCE_VERSION>
1

> <PUBCHEM_EXT_DATASOURCE_NAME>
4488

> <PUBCHEM_EXT_DATASOURCE_REGID>
SCHEMBL16110322

> <PUBCHEM_SUBSTANCE_COMMENT>
InChI=1S/C22H23N5O4/c1-26(9-4-10-30-2)21(28)16-6-8-20(24-13-16)27-22(29)18(14-25-27)17-7-5-15(12-23)11-19(17)31-3/h5-8,11,13-14,29H,4,9-10H2,1-3H3
InChIKey=UOGZERSMFNEMQO-UHFFFAOYSA-N

> <PUBCHEM_SUBSTANCE_SYNONYM>
SCHEMBL16110322

> <PUBCHEM_XREF_EXT_ID>
SCHEMBL16110322

> <PUBCHEM_EXT_DATASOURCE_URL>
https://www.surechembl.org/

> <PUBCHEM_EXT_SUBSTANCE_URL>
https://www.surechembl.org/chemical/SCHEMBL16110322

> <PUBCHEM_CID_ASSOCIATIONS>
117601409  1

> <PUBCHEM_COORDINATE_TYPE>
1
3

$$$$
