310943128
  -OEChem-07211613022D

 36 39  0     1  0  0  0  0  0999 V2000
    4.3344   -2.1590    0.0000 F   0  0  0  0  0  0  0  0  0  0  0  0
    3.5298   -2.9470    0.0000 F   0  0  0  0  0  0  0  0  0  0  0  0
    2.7582   -2.1426    0.0000 F   0  0  0  0  0  0  0  0  0  0  0  0
   -2.9224   -0.0739    0.0000 O   0  0  0  0  0  0  0  0  0  0  0  0
   -4.2030    2.6515    0.0000 O   0  0  0  0  0  0  0  0  0  0  0  0
    1.3791   -0.0739    0.0000 O   0  0  0  0  0  0  0  0  0  0  0  0
   -2.9060    1.6007    0.0000 N   0  0  3  0  0  0  0  0  0  0  0  0
   -1.4776   -0.0903    0.0000 N   0  0  0  0  0  0  0  0  0  0  0  0
    2.1015    1.1575    0.0000 N   0  0  0  0  0  0  0  0  0  0  0  0
    0.6731    2.8157    0.0000 N   0  0  0  0  0  0  0  0  0  0  0  0
    4.2523   -0.9112    0.0000 N   0  0  0  0  0  0  0  0  0  0  0  0
    4.2523   -0.0739    0.0000 N   0  0  0  0  0  0  0  0  0  0  0  0
   -2.1836    1.1739    0.0000 C   0  0  0  0  0  0  0  0  0  0  0  0
   -0.7552    1.1739    0.0000 C   0  0  0  0  0  0  0  0  0  0  0  0
   -0.0492    1.5843    0.0000 C   0  0  0  0  0  0  0  0  0  0  0  0
   -2.2000    0.3366    0.0000 C   0  0  0  0  0  0  0  0  0  0  0  0
   -1.4940    1.5679    0.0000 C   0  0  0  0  0  0  0  0  0  0  0  0
   -0.0328    2.4053    0.0000 C   0  0  0  0  0  0  0  0  0  0  0  0
    0.7060    1.1739    0.0000 C   0  0  0  0  0  0  0  0  0  0  0  0
   -0.7716    0.3366    0.0000 C   0  0  0  0  0  0  0  0  0  0  0  0
    1.3955    1.5843    0.0000 C   0  0  0  0  0  0  0  0  0  0  0  0
   -2.7746    2.4381    0.0000 C   0  0  3  0  0  0  0  0  0  0  0  0
    2.8239   -0.0739    0.0000 C   0  0  0  0  0  0  0  0  0  0  0  0
    3.5463   -1.3052    0.0000 C   0  0  0  0  0  0  0  0  0  0  0  0
    2.1179    0.3530    0.0000 C   0  0  0  0  0  0  0  0  0  0  0  0
    3.5298   -2.1426    0.0000 C   0  0  0  0  0  0  0  0  0  0  0  0
   -3.6777    1.3216    0.0000 C   0  0  0  0  0  0  0  0  0  0  0  0
    2.8239   -0.8948    0.0000 C   0  0  0  0  0  0  0  0  0  0  0  0
    1.3955    2.4053    0.0000 C   0  0  0  0  0  0  0  0  0  0  0  0
   -3.4150    2.9470    0.0000 C   0  0  0  0  0  0  0  0  0  0  0  0
    3.5298    0.3366    0.0000 C   0  0  0  0  0  0  0  0  0  0  0  0
   -4.3180    1.8470    0.0000 C   0  0  0  0  0  0  0  0  0  0  0  0
   -0.7716    2.7993    0.0000 C   0  0  0  0  0  0  0  0  0  0  0  0
   -2.0030    2.7172    0.0000 C   0  0  0  0  0  0  0  0  0  0  0  0
   -3.6284    0.3366    0.0000 C   0  0  0  0  0  0  0  0  0  0  0  0
   -4.3344   -0.0903    0.0000 C   0  0  0  0  0  0  0  0  0  0  0  0
  1 26  1  0  0  0  0
  2 26  1  0  0  0  0
  3 26  1  0  0  0  0
  4 16  1  0  0  0  0
  4 35  1  0  0  0  0
  5 30  1  0  0  0  0
  5 32  1  0  0  0  0
  6 25  2  0  0  0  0
  7 13  1  0  0  0  0
  7 22  1  0  0  0  0
  7 27  1  0  0  0  0
  8 16  1  0  0  0  0
  8 20  2  0  0  0  0
  9 21  1  0  0  0  0
  9 25  1  0  0  0  0
 10 18  2  0  0  0  0
 10 29  1  0  0  0  0
 11 12  1  0  0  0  0
 11 24  2  0  0  0  0
 12 31  2  0  0  0  0
 13 16  2  0  0  0  0
 13 17  1  0  0  0  0
 14 15  1  0  0  0  0
 14 17  2  0  0  0  0
 14 20  1  0  0  0  0
 15 18  1  0  0  0  0
 15 19  2  0  0  0  0
 18 33  1  0  0  0  0
 19 21  1  0  0  0  0
 21 29  2  0  0  0  0
 22 30  1  0  0  0  0
 22 34  1  1  0  0  0
 23 25  1  0  0  0  0
 23 28  2  0  0  0  0
 23 31  1  0  0  0  0
 24 26  1  0  0  0  0
 24 28  1  0  0  0  0
 27 32  1  0  0  0  0
 35 36  1  0  0  0  0
M  END
> <PUBCHEM_COMPOUND_ID_TYPE>
0

> <PUBCHEM_TOTAL_CHARGE>
0

> <PUBCHEM_SUBSTANCE_ID>
310943128

> <PUBCHEM_SUBSTANCE_VERSION>
1

> <PUBCHEM_EXT_DATASOURCE_NAME>
4488

> <PUBCHEM_EXT_DATASOURCE_REGID>
SCHEMBL16121188

> <PUBCHEM_SUBSTANCE_COMMENT>
InChI=1S/C24H25F3N6O3/c1-4-36-23-20(33-5-6-35-13-14(33)2)7-16(10-29-23)19-9-18(12-28-15(19)3)31-22(34)17-8-21(24(25,26)27)32-30-11-17/h7-12,14H,4-6,13H2,1-3H3,(H,31,34)/t14-/m1/s1
InChIKey=IXMQJHUTKRYITA-CQSZACIVSA-N

> <PUBCHEM_SUBSTANCE_SYNONYM>
SCHEMBL16121188

> <PUBCHEM_XREF_EXT_ID>
SCHEMBL16121188

> <PUBCHEM_EXT_DATASOURCE_URL>
https://www.surechembl.org/

> <PUBCHEM_EXT_SUBSTANCE_URL>
https://www.surechembl.org/chemical/SCHEMBL16121188

> <PUBCHEM_CID_ASSOCIATIONS>
117609558  1

> <PUBCHEM_COORDINATE_TYPE>
1
3

> <PUBCHEM_BONDANNOTATIONS>
22  34  5

$$$$
