310929147
  -OEChem-07211613022D

 59 63  0     0  0  0  0  0  0999 V2000
   10.6148   -4.2349    0.0000 Cl  0  0  0  0  0  0  0  0  0  0  0  0
    4.0699   -6.8748    0.0000 S   0  0  0  0  0  0  0  0  0  0  0  0
    6.5999   -2.6399    0.0000 O   0  0  0  0  0  0  0  0  0  0  0  0
    4.0699   -5.4449    0.0000 O   0  0  0  0  0  0  0  0  0  0  0  0
    2.0349   -3.2999    0.0000 O   0  0  0  0  0  0  0  0  0  0  0  0
   11.4948   -2.8049    0.0000 O   0  0  0  0  0  0  0  0  0  0  0  0
    4.0699   -5.9949    0.0000 O   0  0  0  0  0  0  0  0  0  0  0  0
    4.0699   -7.6998    0.0000 O   0  0  0  0  0  0  0  0  0  0  0  0
    8.9648   -4.1799    0.0000 O   0  0  0  0  0  0  0  0  0  0  0  0
   11.9898   -0.7150    0.0000 O   0  0  0  0  0  0  0  0  0  0  0  0
   14.0797   -0.0550    0.0000 O   0  0  0  0  0  0  0  0  0  0  0  0
   15.6746   -1.4849    0.0000 O   0  0  0  0  0  0  0  0  0  0  0  0
    3.2999   -4.0149    0.0000 N   0  0  0  0  0  0  0  0  0  0  0  0
    3.2999   -2.5849    0.0000 N   0  0  0  0  0  0  0  0  0  0  0  0
    3.2999   -6.8748    0.0000 N   0  0  0  0  0  0  0  0  0  0  0  0
    7.8098   -1.9799    0.0000 N   0  0  0  0  0  0  0  0  0  0  0  0
    9.0748   -1.3200    0.0000 N   0  0  0  0  0  0  0  0  0  0  0  0
    7.8648   -0.5500    0.0000 N   0  0  0  0  0  0  0  0  0  0  0  0
    4.5099   -3.2999    0.0000 C   0  0  0  0  0  0  0  0  0  0  0  0
    5.3349   -3.2999    0.0000 C   0  0  0  0  0  0  0  0  0  0  0  0
    2.8599   -4.7299    0.0000 C   0  0  0  0  0  0  0  0  0  0  0  0
    3.2449   -5.4449    0.0000 C   0  0  0  0  0  0  0  0  0  0  0  0
    2.8599   -6.1599    0.0000 C   0  0  0  0  0  0  0  0  0  0  0  0
    1.6499   -5.4449    0.0000 C   0  0  0  0  0  0  0  0  0  0  0  0
    4.1249   -2.6399    0.0000 C   0  0  0  0  0  0  0  0  0  0  0  0
    5.7749   -2.6399    0.0000 C   0  0  0  0  0  0  0  0  0  0  0  0
    2.0349   -4.7299    0.0000 C   0  0  0  0  0  0  0  0  0  0  0  0
    2.0349   -6.1599    0.0000 C   0  0  0  0  0  0  0  0  0  0  0  0
    0.8250   -5.4449    0.0000 C   0  0  0  0  0  0  0  0  0  0  0  0
    2.8599   -3.2999    0.0000 C   0  0  0  0  0  0  0  0  0  0  0  0
    4.5649   -1.9249    0.0000 C   0  0  0  0  0  0  0  0  0  0  0  0
    5.3349   -1.9249    0.0000 C   0  0  0  0  0  0  0  0  0  0  0  0
    4.0699   -4.0149    0.0000 C   0  0  0  0  0  0  0  0  0  0  0  0
    5.7199   -4.0699    0.0000 C   0  0  0  0  0  0  0  0  0  0  0  0
    6.9848   -1.9799    0.0000 C   0  0  0  0  0  0  0  0  0  0  0  0
    9.4598   -2.0349    0.0000 C   0  0  0  0  0  0  0  0  0  0  0  0
    4.5099   -4.7299    0.0000 C   0  0  0  0  0  0  0  0  0  0  0  0
    8.2498   -1.2650    0.0000 C   0  0  0  0  0  0  0  0  0  0  0  0
    5.3349   -4.7299    0.0000 C   0  0  0  0  0  0  0  0  0  0  0  0
   10.6698   -2.8049    0.0000 C   0  0  0  0  0  0  0  0  0  0  0  0
   10.2298   -3.4649    0.0000 C   0  0  0  0  0  0  0  0  0  0  0  0
    9.4048   -3.4649    0.0000 C   0  0  0  0  0  0  0  0  0  0  0  0
   10.2848   -2.0899    0.0000 C   0  0  0  0  0  0  0  0  0  0  0  0
    0.8250   -4.6199    0.0000 C   0  0  0  0  0  0  0  0  0  0  0  0
    0.0000   -5.4449    0.0000 C   0  0  0  0  0  0  0  0  0  0  0  0
    0.8250   -6.2699    0.0000 C   0  0  0  0  0  0  0  0  0  0  0  0
    9.0198   -2.7499    0.0000 C   0  0  0  0  0  0  0  0  0  0  0  0
    6.5999   -1.2100    0.0000 C   0  0  0  0  0  0  0  0  0  0  0  0
    7.0398   -0.5500    0.0000 C   0  0  0  0  0  0  0  0  0  0  0  0
    4.6749   -4.8949    0.0000 C   0  0  0  0  0  0  0  0  0  0  0  0
    4.8949   -6.8748    0.0000 C   0  0  0  0  0  0  0  0  0  0  0  0
   11.9348   -2.1449    0.0000 C   0  0  0  0  0  0  0  0  0  0  0  0
    9.4048   -4.8949    0.0000 C   0  0  0  0  0  0  0  0  0  0  0  0
   11.5498   -1.3749    0.0000 C   0  0  0  0  0  0  0  0  0  0  0  0
   12.8147   -0.7150    0.0000 C   0  0  0  0  0  0  0  0  0  0  0  0
   13.2547    0.0000    0.0000 C   0  0  0  0  0  0  0  0  0  0  0  0
   14.4647   -0.7700    0.0000 C   0  0  0  0  0  0  0  0  0  0  0  0
   15.2896   -0.7700    0.0000 C   0  0  0  0  0  0  0  0  0  0  0  0
   16.4996   -1.4849    0.0000 C   0  0  0  0  0  0  0  0  0  0  0  0
  1 41  1  0  0  0  0
  2  7  2  0  0  0  0
  2  8  2  0  0  0  0
  2 15  1  0  0  0  0
  2 51  1  0  0  0  0
  3 26  1  0  0  0  0
  3 35  1  0  0  0  0
  4 22  1  0  0  0  0
  4 50  1  0  0  0  0
  5 30  2  0  0  0  0
  6 40  1  0  0  0  0
  6 52  1  0  0  0  0
  9 42  1  0  0  0  0
  9 53  1  0  0  0  0
 10 54  1  0  0  0  0
 10 55  1  0  0  0  0
 11 56  1  0  0  0  0
 11 57  1  0  0  0  0
 12 58  1  0  0  0  0
 12 59  1  0  0  0  0
 13 21  1  0  0  0  0
 13 30  1  0  0  0  0
 14 25  1  0  0  0  0
 14 30  1  0  0  0  0
 15 23  1  0  0  0  0
 16 35  2  0  0  0  0
 16 38  1  0  0  0  0
 17 36  1  0  0  0  0
 17 38  1  0  0  0  0
 18 38  2  0  0  0  0
 18 49  1  0  0  0  0
 19 20  2  0  0  0  0
 19 25  1  0  0  0  0
 19 33  1  0  0  0  0
 20 26  1  0  0  0  0
 20 34  1  0  0  0  0
 21 22  2  0  0  0  0
 21 27  1  0  0  0  0
 22 23  1  0  0  0  0
 23 28  2  0  0  0  0
 24 27  2  0  0  0  0
 24 28  1  0  0  0  0
 24 29  1  0  0  0  0
 25 31  2  0  0  0  0
 26 32  2  0  0  0  0
 29 44  1  0  0  0  0
 29 45  1  0  0  0  0
 29 46  1  0  0  0  0
 31 32  1  0  0  0  0
 33 37  2  0  0  0  0
 34 39  2  0  0  0  0
 35 48  1  0  0  0  0
 36 43  2  0  0  0  0
 36 47  1  0  0  0  0
 37 39  1  0  0  0  0
 40 41  2  0  0  0  0
 40 43  1  0  0  0  0
 41 42  1  0  0  0  0
 42 47  2  0  0  0  0
 48 49  2  0  0  0  0
 52 54  1  0  0  0  0
 55 56  1  0  0  0  0
 57 58  1  0  0  0  0
M  END
> <PUBCHEM_COMPOUND_ID_TYPE>
0

> <PUBCHEM_TOTAL_CHARGE>
0

> <PUBCHEM_SUBSTANCE_ID>
310929147

> <PUBCHEM_SUBSTANCE_VERSION>
1

> <PUBCHEM_EXT_DATASOURCE_NAME>
4488

> <PUBCHEM_EXT_DATASOURCE_REGID>
SCHEMBL16106310

> <PUBCHEM_SUBSTANCE_COMMENT>
InChI=1S/C41H49ClN6O10S/c1-41(2,3)26-22-31(38(54-6)32(23-26)48-59(7,50)51)46-40(49)45-30-12-13-33(29-11-9-8-10-28(29)30)58-36-14-15-43-39(47-36)44-27-24-34(53-5)37(42)35(25-27)57-21-20-56-19-18-55-17-16-52-4/h8-15,22-25,48H,16-21H2,1-7H3,(H,43,44,47)(H2,45,46,49)
InChIKey=XZXIQQIWKYRBER-UHFFFAOYSA-N

> <PUBCHEM_SUBSTANCE_SYNONYM>
SCHEMBL16106310

> <PUBCHEM_XREF_EXT_ID>
SCHEMBL16106310

> <PUBCHEM_EXT_DATASOURCE_URL>
https://www.surechembl.org/

> <PUBCHEM_EXT_SUBSTANCE_URL>
https://www.surechembl.org/chemical/SCHEMBL16106310

> <PUBCHEM_CID_ASSOCIATIONS>
86272117  1

> <PUBCHEM_COORDINATE_TYPE>
1
3

$$$$
