310944586
  -OEChem-07211613022D

 25 26  0     0  0  0  0  0  0999 V2000
   -3.1324    2.2188    0.0000 Cl  0  0  0  0  0  0  0  0  0  0  0  0
   -4.7359    1.3984    0.0000 Cl  0  0  0  0  0  0  0  0  0  0  0  0
    3.3189   -1.5103    0.0000 S   0  0  0  0  0  0  0  0  0  0  0  0
    2.8962   -2.2188    0.0000 O   0  0  0  0  0  0  0  0  0  0  0  0
    3.7290   -0.7893    0.0000 O   0  0  0  0  0  0  0  0  0  0  0  0
   -3.1449   -1.0877    0.0000 O   0  0  0  0  0  0  0  0  0  0  0  0
   -0.2734   -1.0877    0.0000 O   0  0  0  0  0  0  0  0  0  0  0  0
    2.6228   -1.0877    0.0000 N   0  0  0  0  0  0  0  0  0  0  0  0
   -1.6905   -0.2548    0.0000 N   0  0  0  0  0  0  0  0  0  0  0  0
    0.4599    0.1554    0.0000 N   0  0  0  0  0  0  0  0  0  0  0  0
   -2.4239    0.1678    0.0000 C   0  0  0  0  0  0  0  0  0  0  0  0
   -3.1324   -0.2548    0.0000 C   0  0  0  0  0  0  0  0  0  0  0  0
    1.1809   -0.2548    0.0000 C   0  0  0  0  0  0  0  0  0  0  0  0
   -3.1324    1.3984    0.0000 C   0  0  0  0  0  0  0  0  0  0  0  0
   -3.8534    0.9882    0.0000 C   0  0  0  0  0  0  0  0  0  0  0  0
    2.6103   -0.2548    0.0000 C   0  0  0  0  0  0  0  0  0  0  0  0
    1.9018   -1.4978    0.0000 C   0  0  0  0  0  0  0  0  0  0  0  0
   -2.4115    0.9758    0.0000 C   0  0  0  0  0  0  0  0  0  0  0  0
   -3.8409    0.1678    0.0000 C   0  0  0  0  0  0  0  0  0  0  0  0
    1.1809   -1.0877    0.0000 C   0  0  0  0  0  0  0  0  0  0  0  0
    1.8894    0.1554    0.0000 C   0  0  0  0  0  0  0  0  0  0  0  0
    4.0522   -1.9205    0.0000 C   0  0  0  0  0  0  0  0  0  0  0  0
   -0.2611   -0.2424    0.0000 C   0  0  0  0  0  0  0  0  0  0  0  0
   -0.9696    0.1554    0.0000 C   0  0  0  0  0  0  0  0  0  0  0  0
    4.7359   -1.4605    0.0000 C   0  0  0  0  0  0  0  0  0  0  0  0
  1 14  1  0  0  0  0
  2 15  1  0  0  0  0
  3  4  2  0  0  0  0
  3  5  2  0  0  0  0
  3  8  1  0  0  0  0
  3 22  1  0  0  0  0
  6 12  1  0  0  0  0
  7 23  2  0  0  0  0
  8 16  1  0  0  0  0
  8 17  1  0  0  0  0
  9 11  1  0  0  0  0
  9 24  1  0  0  0  0
 10 13  1  0  0  0  0
 10 23  1  0  0  0  0
 11 12  2  0  0  0  0
 11 18  1  0  0  0  0
 12 19  1  0  0  0  0
 13 20  1  0  0  0  0
 13 21  1  0  0  0  0
 14 15  1  0  0  0  0
 14 18  2  0  0  0  0
 15 19  2  0  0  0  0
 16 21  1  0  0  0  0
 17 20  1  0  0  0  0
 22 25  2  0  0  0  0
 23 24  1  0  0  0  0
M  END
> <PUBCHEM_COMPOUND_ID_TYPE>
0

> <PUBCHEM_TOTAL_CHARGE>
0

> <PUBCHEM_SUBSTANCE_ID>
310944586

> <PUBCHEM_SUBSTANCE_VERSION>
1

> <PUBCHEM_EXT_DATASOURCE_NAME>
4488

> <PUBCHEM_EXT_DATASOURCE_REGID>
SCHEMBL16122664

> <PUBCHEM_SUBSTANCE_COMMENT>
InChI=1S/C15H19Cl2N3O4S/c1-2-25(23,24)20-5-3-10(4-6-20)19-15(22)9-18-13-7-11(16)12(17)8-14(13)21/h2,7-8,10,18,21H,1,3-6,9H2,(H,19,22)
InChIKey=PODIZKPFSQOYSP-UHFFFAOYSA-N

> <PUBCHEM_SUBSTANCE_SYNONYM>
SCHEMBL16122664

> <PUBCHEM_XREF_EXT_ID>
SCHEMBL16122664

> <PUBCHEM_EXT_DATASOURCE_URL>
https://www.surechembl.org/

> <PUBCHEM_EXT_SUBSTANCE_URL>
https://www.surechembl.org/chemical/SCHEMBL16122664

> <PUBCHEM_CID_ASSOCIATIONS>
117610817  1

> <PUBCHEM_COORDINATE_TYPE>
1
3

$$$$
