310944028
  -OEChem-07211613022D

 16 17  0     0  0  0  0  0  0999 V2000
   -1.8188    0.2186    0.0000 F   0  0  0  0  0  0  0  0  0  0  0  0
   -0.4138    1.8578    0.0000 N   0  0  0  0  0  0  0  0  0  0  0  0
   -2.5057   -1.8578    0.0000 N   0  0  0  0  0  0  0  0  0  0  0  0
    0.3045   -0.1405    0.0000 C   0  0  0  0  0  0  0  0  0  0  0  0
   -0.4138    0.2654    0.0000 C   0  0  0  0  0  0  0  0  0  0  0  0
    0.2888   -0.9523    0.0000 C   0  0  0  0  0  0  0  0  0  0  0  0
   -1.1318   -0.1561    0.0000 C   0  0  0  0  0  0  0  0  0  0  0  0
   -1.1318   -0.9835    0.0000 C   0  0  0  0  0  0  0  0  0  0  0  0
   -0.3825   -1.3738    0.0000 C   0  0  0  0  0  0  0  0  0  0  0  0
    1.0225    0.2810    0.0000 C   0  0  0  0  0  0  0  0  0  0  0  0
    1.0694   -1.3269    0.0000 C   0  0  0  0  0  0  0  0  0  0  0  0
    1.7251   -0.9054    0.0000 C   0  0  0  0  0  0  0  0  0  0  0  0
   -0.4138    1.0616    0.0000 C   0  0  0  0  0  0  0  0  0  0  0  0
    1.7251   -0.1093    0.0000 C   0  0  0  0  0  0  0  0  0  0  0  0
   -1.8344   -1.4362    0.0000 C   0  0  0  0  0  0  0  0  0  0  0  0
    2.5057   -1.3269    0.0000 C   0  0  0  0  0  0  0  0  0  0  0  0
  1  7  1  0  0  0  0
  2 13  3  0  0  0  0
  3 15  3  0  0  0  0
  4  5  2  0  0  0  0
  4  6  1  0  0  0  0
  4 10  1  0  0  0  0
  5  7  1  0  0  0  0
  5 13  1  0  0  0  0
  6  9  2  0  0  0  0
  6 11  1  0  0  0  0
  7  8  2  0  0  0  0
  8  9  1  0  0  0  0
  8 15  1  0  0  0  0
 10 14  2  0  0  0  0
 11 12  2  0  0  0  0
 12 14  1  0  0  0  0
 12 16  1  0  0  0  0
M  END
> <PUBCHEM_COMPOUND_ID_TYPE>
0

> <PUBCHEM_TOTAL_CHARGE>
0

> <PUBCHEM_SUBSTANCE_ID>
310944028

> <PUBCHEM_SUBSTANCE_VERSION>
1

> <PUBCHEM_EXT_DATASOURCE_NAME>
4488

> <PUBCHEM_EXT_DATASOURCE_REGID>
SCHEMBL16122101

> <PUBCHEM_SUBSTANCE_COMMENT>
InChI=1S/C13H7FN2/c1-8-2-3-11-9(4-8)5-10(6-15)13(14)12(11)7-16/h2-5H,1H3
InChIKey=BDXIJGMKQKSTDH-UHFFFAOYSA-N

> <PUBCHEM_SUBSTANCE_SYNONYM>
SCHEMBL16122101

> <PUBCHEM_XREF_EXT_ID>
SCHEMBL16122101

> <PUBCHEM_EXT_DATASOURCE_URL>
https://www.surechembl.org/

> <PUBCHEM_EXT_SUBSTANCE_URL>
https://www.surechembl.org/chemical/SCHEMBL16122101

> <PUBCHEM_CID_ASSOCIATIONS>
117610329  1

> <PUBCHEM_COORDINATE_TYPE>
1
3

$$$$
