310948326
  -OEChem-07211613022D

 40 44  0     0  0  0  0  0  0999 V2000
   -4.1165    1.0381    0.0000 Cl  0  0  0  0  0  0  0  0  0  0  0  0
    2.8278   -1.8614    0.0000 S   0  0  0  0  0  0  0  0  0  0  0  0
   -3.4185    2.2193    0.0000 F   0  0  0  0  0  0  0  0  0  0  0  0
   -2.7920    3.1679    0.0000 F   0  0  0  0  0  0  0  0  0  0  0  0
   -1.8434    2.5235    0.0000 F   0  0  0  0  0  0  0  0  0  0  0  0
   -0.7696    1.5392    0.0000 O   0  0  0  0  0  0  0  0  0  0  0  0
    3.3826   -0.4116    0.0000 O   0  0  0  0  0  0  0  0  0  0  0  0
    3.6690   -2.0403    0.0000 O   0  0  0  0  0  0  0  0  0  0  0  0
    2.0940   -1.6644    0.0000 O   0  0  0  0  0  0  0  0  0  0  0  0
   -1.7897    0.4116    0.0000 N   0  0  0  0  0  0  0  0  0  0  0  0
   -1.7182    1.2349    0.0000 N   0  0  0  0  0  0  0  0  0  0  0  0
    0.4474    2.0761    0.0000 N   0  0  0  0  0  0  0  0  0  0  0  0
    1.9508   -0.4116    0.0000 N   0  0  0  0  0  0  0  0  0  0  0  0
    2.6667    0.8411    0.0000 N   0  0  0  0  0  0  0  0  0  0  0  0
   -0.4116    0.1253    0.0000 C   0  0  0  0  0  0  0  0  0  0  0  0
   -1.1812   -0.1431    0.0000 C   0  0  0  0  0  0  0  0  0  0  0  0
   -0.2148    0.9307    0.0000 C   0  0  0  0  0  0  0  0  0  0  0  0
    0.5190    1.2707    0.0000 C   0  0  0  0  0  0  0  0  0  0  0  0
   -2.4699    1.5929    0.0000 C   0  0  0  0  0  0  0  0  0  0  0  0
    0.1969   -0.4296    0.0000 C   0  0  0  0  0  0  0  0  0  0  0  0
    0.0358   -1.2528    0.0000 C   0  0  0  0  0  0  0  0  0  0  0  0
   -3.0247    0.9486    0.0000 C   0  0  0  0  0  0  0  0  0  0  0  0
   -2.5772    0.2326    0.0000 C   0  0  0  0  0  0  0  0  0  0  0  0
   -1.3423   -0.9664    0.0000 C   0  0  0  0  0  0  0  0  0  0  0  0
    1.2349    0.8411    0.0000 C   0  0  0  0  0  0  0  0  0  0  0  0
   -2.6310    2.3804    0.0000 C   0  0  0  0  0  0  0  0  0  0  0  0
   -0.3759    2.2730    0.0000 C   0  0  0  0  0  0  0  0  0  0  0  0
   -0.7338   -1.5034    0.0000 C   0  0  0  0  0  0  0  0  0  0  0  0
    0.6801   -1.8077    0.0000 C   0  0  0  0  0  0  0  0  0  0  0  0
    1.4497   -1.5750    0.0000 C   0  0  0  0  0  0  0  0  0  0  0  0
    1.2349    0.0179    0.0000 C   0  0  0  0  0  0  0  0  0  0  0  0
    1.9508    1.2528    0.0000 C   0  0  0  0  0  0  0  0  0  0  0  0
    2.0582   -2.1119    0.0000 C   0  0  0  0  0  0  0  0  0  0  0  0
    0.5012   -2.6310    0.0000 C   0  0  0  0  0  0  0  0  0  0  0  0
   -0.7159    3.0247    0.0000 C   0  0  0  0  0  0  0  0  0  0  0  0
    2.6667    0.0179    0.0000 C   0  0  0  0  0  0  0  0  0  0  0  0
    1.8792   -2.9173    0.0000 C   0  0  0  0  0  0  0  0  0  0  0  0
    1.1275   -3.1679    0.0000 C   0  0  0  0  0  0  0  0  0  0  0  0
    3.0068   -1.0381    0.0000 C   0  0  0  0  0  0  0  0  0  0  0  0
    4.1165   -0.0179    0.0000 C   0  0  0  0  0  0  0  0  0  0  0  0
  1 22  1  0  0  0  0
  2  8  2  0  0  0  0
  2  9  2  0  0  0  0
  2 33  1  0  0  0  0
  2 39  1  0  0  0  0
  3 26  1  0  0  0  0
  4 26  1  0  0  0  0
  5 26  1  0  0  0  0
  6 17  1  0  0  0  0
  6 27  1  0  0  0  0
  7 36  1  0  0  0  0
  7 40  1  0  0  0  0
 10 11  1  0  0  0  0
 10 16  1  0  0  0  0
 10 23  1  0  0  0  0
 11 19  2  0  0  0  0
 12 18  1  0  0  0  0
 12 27  2  0  0  0  0
 13 31  2  0  0  0  0
 13 36  1  0  0  0  0
 14 32  1  0  0  0  0
 14 36  2  0  0  0  0
 15 16  1  0  0  0  0
 15 17  1  0  0  0  0
 15 20  2  0  0  0  0
 16 24  2  0  0  0  0
 17 18  2  0  0  0  0
 18 25  1  0  0  0  0
 19 22  1  0  0  0  0
 19 26  1  0  0  0  0
 20 21  1  0  0  0  0
 21 28  2  0  0  0  0
 21 29  1  0  0  0  0
 22 23  2  0  0  0  0
 24 28  1  0  0  0  0
 25 31  1  0  0  0  0
 25 32  2  0  0  0  0
 27 35  1  0  0  0  0
 29 30  1  0  0  0  0
 29 34  2  0  0  0  0
 30 33  2  0  0  0  0
 33 37  1  0  0  0  0
 34 38  1  0  0  0  0
 37 38  2  0  0  0  0
M  END
> <PUBCHEM_COMPOUND_ID_TYPE>
0

> <PUBCHEM_TOTAL_CHARGE>
0

> <PUBCHEM_SUBSTANCE_ID>
310948326

> <PUBCHEM_SUBSTANCE_VERSION>
1

> <PUBCHEM_EXT_DATASOURCE_NAME>
4488

> <PUBCHEM_EXT_DATASOURCE_REGID>
SCHEMBL16126504

> <PUBCHEM_SUBSTANCE_COMMENT>
InChI=1S/C26H19ClF3N5O4S/c1-14-33-22(17-11-31-25(38-2)32-12-17)23(39-14)19-10-16(15-5-4-6-18(9-15)40(3,36)37)7-8-21(19)35-13-20(27)24(34-35)26(28,29)30/h4-13H,1-3H3
InChIKey=MAFPLHPJBWIDAB-UHFFFAOYSA-N

> <PUBCHEM_SUBSTANCE_SYNONYM>
SCHEMBL16126504

> <PUBCHEM_XREF_EXT_ID>
SCHEMBL16126504

> <PUBCHEM_EXT_DATASOURCE_URL>
https://www.surechembl.org/

> <PUBCHEM_EXT_SUBSTANCE_URL>
https://www.surechembl.org/chemical/SCHEMBL16126504

> <PUBCHEM_CID_ASSOCIATIONS>
117613891  1

> <PUBCHEM_COORDINATE_TYPE>
1
3

$$$$
