310946509
  -OEChem-07211613022D

 20 22  0     1  0  0  0  0  0999 V2000
   -2.5118   -1.0966    0.0000 O   0  0  0  0  0  0  0  0  0  0  0  0
   -0.3561    0.1781    0.0000 C   0  0  3  0  0  0  0  0  0  0  0  0
   -0.3749   -0.6842    0.0000 C   0  0  3  0  0  0  0  0  0  0  0  0
    0.3749    0.5718    0.0000 C   0  0  0  0  0  0  0  0  0  0  0  0
    1.1060    0.1594    0.0000 C   0  0  3  0  0  0  0  0  0  0  0  0
   -1.0872   -1.0778    0.0000 C   0  0  0  0  0  0  0  0  0  0  0  0
   -1.0497    0.5718    0.0000 C   0  0  0  0  0  0  0  0  0  0  0  0
    0.3749   -1.0966    0.0000 C   0  0  0  0  0  0  0  0  0  0  0  0
    1.0872   -0.7029    0.0000 C   0  0  0  0  0  0  0  0  0  0  0  0
   -1.7995   -0.6654    0.0000 C   0  0  0  0  0  0  0  0  0  0  0  0
    0.4124    1.4340    0.0000 C   0  0  0  0  0  0  0  0  0  0  0  0
    1.8183    0.5718    0.0000 C   0  0  0  0  0  0  0  0  0  0  0  0
   -1.7808    0.1594    0.0000 C   0  0  0  0  0  0  0  0  0  0  0  0
   -0.3374    1.0029    0.0000 C   0  0  0  0  0  0  0  0  0  0  0  0
    1.7995   -0.2718    0.0000 C   0  0  0  0  0  0  0  0  0  0  0  0
   -0.6749   -1.8089    0.0000 C   0  0  0  0  0  0  0  0  0  0  0  0
   -1.4996   -1.8276    0.0000 C   0  0  0  0  0  0  0  0  0  0  0  0
    1.1247    1.8276    0.0000 C   0  0  0  0  0  0  0  0  0  0  0  0
    1.8183    1.4152    0.0000 C   0  0  0  0  0  0  0  0  0  0  0  0
    2.5118   -0.6842    0.0000 C   0  0  0  0  0  0  0  0  0  0  0  0
  1 10  2  0  0  0  0
  2  3  1  0  0  0  0
  2  4  1  0  0  0  0
  2  7  1  0  0  0  0
  2 14  1  1  0  0  0
  3  6  1  0  0  0  0
  3  8  1  0  0  0  0
  4  5  1  0  0  0  0
  4 11  2  0  0  0  0
  5  9  1  0  0  0  0
  5 12  1  0  0  0  0
  5 15  1  1  0  0  0
  6 10  1  0  0  0  0
  6 16  1  0  0  0  0
  6 17  1  0  0  0  0
  7 13  1  0  0  0  0
  8  9  1  0  0  0  0
 10 13  1  0  0  0  0
 11 18  1  0  0  0  0
 12 19  1  0  0  0  0
 15 20  3  0  0  0  0
 18 19  1  0  0  0  0
M  END
> <PUBCHEM_COMPOUND_ID_TYPE>
0

> <PUBCHEM_TOTAL_CHARGE>
0

> <PUBCHEM_SUBSTANCE_ID>
310946509

> <PUBCHEM_SUBSTANCE_VERSION>
1

> <PUBCHEM_EXT_DATASOURCE_NAME>
4488

> <PUBCHEM_EXT_DATASOURCE_REGID>
SCHEMBL16124630

> <PUBCHEM_SUBSTANCE_COMMENT>
InChI=1S/C19H26O/c1-5-19-11-7-6-8-15(19)18(4)12-10-16(20)17(2,3)14(18)9-13-19/h1,8,14H,6-7,9-13H2,2-4H3/t14?,18-,19+/m0/s1
InChIKey=IXNCATWFRZHTNP-GGUZCGDUSA-N

> <PUBCHEM_SUBSTANCE_SYNONYM>
SCHEMBL16124630

> <PUBCHEM_XREF_EXT_ID>
SCHEMBL16124630

> <PUBCHEM_EXT_DATASOURCE_URL>
https://www.surechembl.org/

> <PUBCHEM_EXT_SUBSTANCE_URL>
https://www.surechembl.org/chemical/SCHEMBL16124630

> <PUBCHEM_CID_ASSOCIATIONS>
117612414  1

> <PUBCHEM_COORDINATE_TYPE>
1
3

> <PUBCHEM_BONDANNOTATIONS>
2  14  5
5  15  5

$$$$
