310929471
  -OEChem-07211613022D

 26 27  0     0  0  0  0  0  0999 V2000
   10.5778   -3.6862    0.0000 Cl  0  0  0  0  0  0  0  0  0  0  0  0
   12.0203   -1.2421    0.0000 Cl  0  0  0  0  0  0  0  0  0  0  0  0
   10.5778   -0.4007    0.0000 O   0  0  0  0  0  0  0  0  0  0  0  0
    0.0000   -1.6428    0.0000 O   0  0  0  0  0  0  0  0  0  0  0  0
    9.1755   -1.2421    0.0000 N   0  0  0  0  0  0  0  0  0  0  0  0
    9.8966   -1.6428    0.0000 C   0  0  0  0  0  0  0  0  0  0  0  0
    9.8966   -2.4441    0.0000 C   0  0  0  0  0  0  0  0  0  0  0  0
   10.5778   -1.2421    0.0000 C   0  0  0  0  0  0  0  0  0  0  0  0
   10.5778   -2.8448    0.0000 C   0  0  0  0  0  0  0  0  0  0  0  0
   11.2990   -1.6428    0.0000 C   0  0  0  0  0  0  0  0  0  0  0  0
   11.2990   -2.4441    0.0000 C   0  0  0  0  0  0  0  0  0  0  0  0
    9.2156   -2.8848    0.0000 C   0  0  0  0  0  0  0  0  0  0  0  0
    8.4943   -1.6428    0.0000 C   0  0  0  0  0  0  0  0  0  0  0  0
    8.4943   -2.4441    0.0000 C   0  0  0  0  0  0  0  0  0  0  0  0
    7.7731   -1.2421    0.0000 C   0  0  0  0  0  0  0  0  0  0  0  0
    9.8566    0.0000    0.0000 C   0  0  0  0  0  0  0  0  0  0  0  0
    7.0519   -1.6428    0.0000 C   0  0  0  0  0  0  0  0  0  0  0  0
    6.3707   -1.2421    0.0000 C   0  0  0  0  0  0  0  0  0  0  0  0
    5.6495   -1.6428    0.0000 C   0  0  0  0  0  0  0  0  0  0  0  0
    4.9283   -1.2421    0.0000 C   0  0  0  0  0  0  0  0  0  0  0  0
    4.2472   -1.6428    0.0000 C   0  0  0  0  0  0  0  0  0  0  0  0
    3.5259   -1.2421    0.0000 C   0  0  0  0  0  0  0  0  0  0  0  0
    2.8047   -1.6428    0.0000 C   0  0  0  0  0  0  0  0  0  0  0  0
    2.1236   -1.2421    0.0000 C   0  0  0  0  0  0  0  0  0  0  0  0
    1.4024   -1.6428    0.0000 C   0  0  0  0  0  0  0  0  0  0  0  0
    0.6812   -1.2421    0.0000 C   0  0  0  0  0  0  0  0  0  0  0  0
  1  9  1  0  0  0  0
  2 10  1  0  0  0  0
  3  8  1  0  0  0  0
  3 16  1  0  0  0  0
  4 26  1  0  0  0  0
  5  6  2  0  0  0  0
  5 13  1  0  0  0  0
  6  7  1  0  0  0  0
  6  8  1  0  0  0  0
  7  9  1  0  0  0  0
  7 12  2  0  0  0  0
  8 10  2  0  0  0  0
  9 11  2  0  0  0  0
 10 11  1  0  0  0  0
 12 14  1  0  0  0  0
 13 14  2  0  0  0  0
 13 15  1  0  0  0  0
 15 17  1  0  0  0  0
 17 18  1  0  0  0  0
 18 19  1  0  0  0  0
 19 20  1  0  0  0  0
 20 21  1  0  0  0  0
 21 22  1  0  0  0  0
 22 23  1  0  0  0  0
 23 24  1  0  0  0  0
 24 25  1  0  0  0  0
 25 26  1  0  0  0  0
M  END
> <PUBCHEM_COMPOUND_ID_TYPE>
0

> <PUBCHEM_TOTAL_CHARGE>
0

> <PUBCHEM_SUBSTANCE_ID>
310929471

> <PUBCHEM_SUBSTANCE_VERSION>
1

> <PUBCHEM_EXT_DATASOURCE_NAME>
4488

> <PUBCHEM_EXT_DATASOURCE_REGID>
SCHEMBL16106645

> <PUBCHEM_SUBSTANCE_COMMENT>
InChI=1S/C21H29Cl2NO2/c1-26-21-19(23)15-18(22)17-13-12-16(24-20(17)21)11-9-7-5-3-2-4-6-8-10-14-25/h12-13,15,25H,2-11,14H2,1H3
InChIKey=TYUAMFMDMBTOAX-UHFFFAOYSA-N

> <PUBCHEM_SUBSTANCE_SYNONYM>
SCHEMBL16106645

> <PUBCHEM_XREF_EXT_ID>
SCHEMBL16106645

> <PUBCHEM_EXT_DATASOURCE_URL>
https://www.surechembl.org/

> <PUBCHEM_EXT_SUBSTANCE_URL>
https://www.surechembl.org/chemical/SCHEMBL16106645

> <PUBCHEM_CID_ASSOCIATIONS>
85472040  1

> <PUBCHEM_COORDINATE_TYPE>
1
3

$$$$
