310944574
  -OEChem-07211613022D

 19 20  0     1  0  0  0  0  0999 V2000
   -2.1481    0.0286    0.0000 O   0  0  0  0  0  0  0  0  0  0  0  0
   -1.4345    1.2846    0.0000 O   0  0  0  0  0  0  0  0  0  0  0  0
    2.8904   -1.3132    0.0000 O   0  0  0  0  0  0  0  0  0  0  0  0
   -0.6922    0.0428    0.0000 N   0  0  0  0  0  0  0  0  0  0  0  0
   -0.6779   -0.7993    0.0000 C   0  0  3  0  0  0  0  0  0  0  0  0
    0.0928    0.3853    0.0000 C   0  0  3  0  0  0  0  0  0  0  0  0
   -1.4345    0.4425    0.0000 C   0  0  0  0  0  0  0  0  0  0  0  0
    0.7207   -0.8422    0.0000 C   0  0  0  0  0  0  0  0  0  0  0  0
   -0.0214   -1.2418    0.0000 C   0  0  0  0  0  0  0  0  0  0  0  0
    0.7636   -0.0286    0.0000 C   0  0  0  0  0  0  0  0  0  0  0  0
    0.0357   -0.8565    0.0000 C   0  0  0  0  0  0  0  0  0  0  0  0
    0.4067   -0.2284    0.0000 C   0  0  0  0  0  0  0  0  0  0  0  0
   -2.8618    0.4710    0.0000 C   0  0  0  0  0  0  0  0  0  0  0  0
    1.4488   -1.2989    0.0000 C   0  0  0  0  0  0  0  0  0  0  0  0
   -2.8904    1.3132    0.0000 C   0  0  0  0  0  0  0  0  0  0  0  0
   -3.6183    0.0286    0.0000 C   0  0  0  0  0  0  0  0  0  0  0  0
   -2.1338    0.8707    0.0000 C   0  0  0  0  0  0  0  0  0  0  0  0
    2.1624   -0.8850    0.0000 C   0  0  0  0  0  0  0  0  0  0  0  0
    3.6183   -0.8707    0.0000 C   0  0  0  0  0  0  0  0  0  0  0  0
  1  7  1  0  0  0  0
  1 13  1  0  0  0  0
  2  7  2  0  0  0  0
  3 18  1  0  0  0  0
  3 19  1  0  0  0  0
  4  5  1  0  0  0  0
  6  4  1  6  0  0  0
  4  7  1  0  0  0  0
  5  9  1  6  0  0  0
  5 11  1  0  0  0  0
  6 10  1  0  0  0  0
  6 12  1  0  0  0  0
  8  9  1  0  0  0  0
  8 10  1  0  0  0  0
  8 14  1  1  0  0  0
 11 12  1  0  0  0  0
 13 15  1  0  0  0  0
 13 16  1  0  0  0  0
 13 17  1  0  0  0  0
 14 18  1  0  0  0  0
M  END
> <PUBCHEM_COMPOUND_ID_TYPE>
0

> <PUBCHEM_TOTAL_CHARGE>
0

> <PUBCHEM_SUBSTANCE_ID>
310944574

> <PUBCHEM_SUBSTANCE_VERSION>
1

> <PUBCHEM_EXT_DATASOURCE_NAME>
4488

> <PUBCHEM_EXT_DATASOURCE_REGID>
SCHEMBL16122652

> <PUBCHEM_SUBSTANCE_COMMENT>
InChI=1S/C15H27NO3/c1-15(2,3)19-14(17)16-12-5-6-13(16)10-11(9-12)7-8-18-4/h11-13H,5-10H2,1-4H3/t11-,12+,13-
InChIKey=BKAYBOOMRMQBSG-CLLJXQQHSA-N

> <PUBCHEM_SUBSTANCE_SYNONYM>
SCHEMBL16122652

> <PUBCHEM_XREF_EXT_ID>
SCHEMBL16122652

> <PUBCHEM_EXT_DATASOURCE_URL>
https://www.surechembl.org/

> <PUBCHEM_EXT_SUBSTANCE_URL>
https://www.surechembl.org/chemical/SCHEMBL16122652

> <PUBCHEM_CID_ASSOCIATIONS>
117610806  1

> <PUBCHEM_COORDINATE_TYPE>
1
3

> <PUBCHEM_BONDANNOTATIONS>
6  4  6
5  9  6
8  14  5

$$$$
