310930415
  -OEChem-07211613022D

 26 28  0     1  0  0  0  0  0999 V2000
    3.6849   -0.5621    0.0000 O   0  0  0  0  0  0  0  0  0  0  0  0
    1.5926   -1.2803    0.0000 N   0  0  0  0  0  0  0  0  0  0  0  0
    1.2179   -1.9986    0.0000 N   0  0  0  0  0  0  0  0  0  0  0  0
    2.6856   -0.4997    0.0000 N   0  0  0  0  0  0  0  0  0  0  0  0
    1.2179   -3.4038    0.0000 N   0  0  0  0  0  0  0  0  0  0  0  0
    2.0298    0.0000    0.0000 N   0  0  0  0  0  0  0  0  0  0  0  0
    3.6849   -1.9986    0.0000 N   0  0  0  0  0  0  0  0  0  0  0  0
    4.9028   -1.2803    0.0000 N   0  0  0  0  0  0  0  0  0  0  0  0
    2.4670   -1.2491    0.0000 C   0  0  0  0  0  0  0  0  0  0  0  0
    2.8417   -1.9986    0.0000 C   0  0  0  0  0  0  0  0  0  0  0  0
    1.6239   -2.6856    0.0000 C   0  0  0  0  0  0  0  0  0  0  0  0
    1.3740   -0.4997    0.0000 C   0  0  0  0  0  0  0  0  0  0  0  0
    2.4670   -2.6856    0.0000 C   0  0  0  0  0  0  0  0  0  0  0  0
    1.6239   -4.0909    0.0000 C   0  0  3  0  0  0  0  0  0  0  0  0
    1.2179   -4.8091    0.0000 C   0  0  0  0  0  0  0  0  0  0  0  0
    4.0909   -1.2803    0.0000 C   0  0  0  0  0  0  0  0  0  0  0  0
    0.5933   -0.2498    0.0000 C   0  0  0  0  0  0  0  0  0  0  0  0
    0.4059   -3.4038    0.0000 C   0  0  0  0  0  0  0  0  0  0  0  0
    2.4670   -4.0909    0.0000 C   0  0  0  0  0  0  0  0  0  0  0  0
    1.6551   -5.5273    0.0000 C   0  0  0  0  0  0  0  0  0  0  0  0
    0.4059   -4.8403    0.0000 C   0  0  0  0  0  0  0  0  0  0  0  0
    1.2491   -6.2455    0.0000 C   0  0  0  0  0  0  0  0  0  0  0  0
    0.0000   -5.5273    0.0000 C   0  0  0  0  0  0  0  0  0  0  0  0
    0.4372   -6.2455    0.0000 C   0  0  0  0  0  0  0  0  0  0  0  0
    5.3087   -1.9986    0.0000 C   0  0  0  0  0  0  0  0  0  0  0  0
    6.1206   -1.9986    0.0000 C   0  0  0  0  0  0  0  0  0  0  0  0
  1 16  2  0  0  0  0
  2  3  1  0  0  0  0
  2  9  1  0  0  0  0
  2 12  1  0  0  0  0
  3 11  2  0  0  0  0
  4  6  1  0  0  0  0
  4  9  2  0  0  0  0
  5 11  1  0  0  0  0
  5 14  1  0  0  0  0
  5 18  1  0  0  0  0
  6 12  2  0  0  0  0
  7 10  1  0  0  0  0
  7 16  1  0  0  0  0
  8 16  1  0  0  0  0
  8 25  1  0  0  0  0
  9 10  1  0  0  0  0
 10 13  2  0  0  0  0
 11 13  1  0  0  0  0
 12 17  1  0  0  0  0
 14 15  1  0  0  0  0
 14 19  1  1  0  0  0
 15 20  2  0  0  0  0
 15 21  1  0  0  0  0
 20 22  1  0  0  0  0
 21 23  2  0  0  0  0
 22 24  2  0  0  0  0
 23 24  1  0  0  0  0
 25 26  1  0  0  0  0
M  END
> <PUBCHEM_COMPOUND_ID_TYPE>
0

> <PUBCHEM_TOTAL_CHARGE>
0

> <PUBCHEM_SUBSTANCE_ID>
310930415

> <PUBCHEM_SUBSTANCE_VERSION>
1

> <PUBCHEM_EXT_DATASOURCE_NAME>
4488

> <PUBCHEM_EXT_DATASOURCE_REGID>
SCHEMBL16107704

> <PUBCHEM_SUBSTANCE_COMMENT>
InChI=1S/C18H23N7O/c1-5-19-18(26)20-15-11-16(23-25-13(3)21-22-17(15)25)24(4)12(2)14-9-7-6-8-10-14/h6-12H,5H2,1-4H3,(H2,19,20,26)/t12-/m0/s1
InChIKey=PIRUWBRAQDRWHR-LBPRGKRZSA-N

> <PUBCHEM_SUBSTANCE_SYNONYM>
SCHEMBL16107704

> <PUBCHEM_XREF_EXT_ID>
SCHEMBL16107704

> <PUBCHEM_EXT_DATASOURCE_URL>
https://www.surechembl.org/

> <PUBCHEM_EXT_SUBSTANCE_URL>
https://www.surechembl.org/chemical/SCHEMBL16107704

> <PUBCHEM_CID_ASSOCIATIONS>
71498804  1

> <PUBCHEM_COORDINATE_TYPE>
1
3

> <PUBCHEM_BONDANNOTATIONS>
14  19  5

$$$$
