310941167
  -OEChem-07211613022D

 32 34  0     1  0  0  0  0  0999 V2000
   -0.7309    2.4461    0.0000 O   0  0  0  0  0  0  0  0  0  0  0  0
   -0.0072   -0.7961    0.0000 O   0  0  0  0  0  0  0  0  0  0  0  0
    2.8586    0.0289    0.0000 O   0  0  0  0  0  0  0  0  0  0  0  0
   -2.1638    1.2737    0.0000 O   0  0  0  0  0  0  0  0  0  0  0  0
    2.1494    1.2737    0.0000 O   0  0  0  0  0  0  0  0  0  0  0  0
    4.2915   -2.4461    0.0000 O   0  0  0  0  0  0  0  0  0  0  0  0
   -5.0297    1.2737    0.0000 O   0  0  0  0  0  0  0  0  0  0  0  0
   -1.4402    0.0289    0.0000 N   0  0  0  0  0  0  0  0  0  0  0  0
    0.7164    0.4487    0.0000 N   0  0  0  0  0  0  0  0  0  0  0  0
   -3.5967    0.4487    0.0000 N   0  0  0  0  0  0  0  0  0  0  0  0
   -0.7309    0.4487    0.0000 C   0  0  3  0  0  0  0  0  0  0  0  0
   -0.7309    1.3461    0.0000 C   0  0  0  0  0  0  0  0  0  0  0  0
   -0.0072    0.0724    0.0000 C   0  0  0  0  0  0  0  0  0  0  0  0
    1.4402    0.0434    0.0000 C   0  0  3  0  0  0  0  0  0  0  0  0
   -1.2954    1.8671    0.0000 C   0  0  0  0  0  0  0  0  0  0  0  0
   -0.1520    1.8671    0.0000 C   0  0  0  0  0  0  0  0  0  0  0  0
   -2.1638    0.4342    0.0000 C   0  0  0  0  0  0  0  0  0  0  0  0
    2.1349    0.4342    0.0000 C   0  0  0  0  0  0  0  0  0  0  0  0
    1.4112   -0.7961    0.0000 C   0  0  0  0  0  0  0  0  0  0  0  0
    2.1494   -1.2014    0.0000 C   0  0  0  0  0  0  0  0  0  0  0  0
   -2.8586    0.0434    0.0000 C   0  0  0  0  0  0  0  0  0  0  0  0
    2.1494   -2.0264    0.0000 C   0  0  0  0  0  0  0  0  0  0  0  0
    2.8586   -0.8105    0.0000 C   0  0  0  0  0  0  0  0  0  0  0  0
    3.5678   -2.0264    0.0000 C   0  0  0  0  0  0  0  0  0  0  0  0
    2.8730   -2.4316    0.0000 C   0  0  0  0  0  0  0  0  0  0  0  0
    3.5678   -1.2014    0.0000 C   0  0  0  0  0  0  0  0  0  0  0  0
   -3.5823    1.2737    0.0000 C   0  0  0  0  0  0  0  0  0  0  0  0
   -4.2915    0.0434    0.0000 C   0  0  0  0  0  0  0  0  0  0  0  0
   -4.3060    1.6934    0.0000 C   0  0  0  0  0  0  0  0  0  0  0  0
   -5.0297    0.4487    0.0000 C   0  0  0  0  0  0  0  0  0  0  0  0
    3.5533    0.4342    0.0000 C   0  0  0  0  0  0  0  0  0  0  0  0
    5.0297   -2.0264    0.0000 C   0  0  0  0  0  0  0  0  0  0  0  0
  1 15  1  0  0  0  0
  1 16  1  0  0  0  0
  2 13  2  0  0  0  0
  3 18  1  0  0  0  0
  3 31  1  0  0  0  0
  4 17  2  0  0  0  0
  5 18  2  0  0  0  0
  6 24  1  0  0  0  0
  6 32  1  0  0  0  0
  7 29  1  0  0  0  0
  7 30  1  0  0  0  0
 11  8  1  1  0  0  0
  8 17  1  0  0  0  0
  9 13  1  0  0  0  0
 14  9  1  6  0  0  0
 10 21  1  0  0  0  0
 10 27  1  0  0  0  0
 10 28  1  0  0  0  0
 11 12  1  0  0  0  0
 11 13  1  0  0  0  0
 12 15  1  0  0  0  0
 12 16  1  0  0  0  0
 14 18  1  0  0  0  0
 14 19  1  0  0  0  0
 17 21  1  0  0  0  0
 19 20  1  0  0  0  0
 20 22  2  0  0  0  0
 20 23  1  0  0  0  0
 22 25  1  0  0  0  0
 23 26  2  0  0  0  0
 24 25  2  0  0  0  0
 24 26  1  0  0  0  0
 27 29  1  0  0  0  0
 28 30  1  0  0  0  0
M  END
> <PUBCHEM_COMPOUND_ID_TYPE>
0

> <PUBCHEM_TOTAL_CHARGE>
0

> <PUBCHEM_SUBSTANCE_ID>
310941167

> <PUBCHEM_SUBSTANCE_VERSION>
1

> <PUBCHEM_EXT_DATASOURCE_NAME>
4488

> <PUBCHEM_EXT_DATASOURCE_REGID>
SCHEMBL16119127

> <PUBCHEM_SUBSTANCE_COMMENT>
InChI=1S/C22H31N3O7/c1-29-17-5-3-15(4-6-17)11-18(22(28)30-2)23-21(27)20(16-13-32-14-16)24-19(26)12-25-7-9-31-10-8-25/h3-6,16,18,20H,7-14H2,1-2H3,(H,23,27)(H,24,26)/t18-,20-/m0/s1
InChIKey=RXXAFVCTCIWEKO-ICSRJNTNSA-N

> <PUBCHEM_SUBSTANCE_SYNONYM>
SCHEMBL16119127

> <PUBCHEM_XREF_EXT_ID>
SCHEMBL16119127

> <PUBCHEM_EXT_DATASOURCE_URL>
https://www.surechembl.org/

> <PUBCHEM_EXT_SUBSTANCE_URL>
https://www.surechembl.org/chemical/SCHEMBL16119127

> <PUBCHEM_CID_ASSOCIATIONS>
117608043  1

> <PUBCHEM_COORDINATE_TYPE>
1
3

> <PUBCHEM_BONDANNOTATIONS>
11  8  5
14  9  6

$$$$
