310942465
  -OEChem-07211613022D

 36 40  0     0  0  0  0  0  0999 V2000
    1.4393    0.6864    0.0000 S   0  0  0  0  0  0  0  0  0  0  0  0
    4.3355   -0.9698    0.0000 F   0  0  0  0  0  0  0  0  0  0  0  0
    1.0229    1.3950    0.0000 O   0  0  0  0  0  0  0  0  0  0  0  0
    1.8555    1.3950    0.0000 O   0  0  0  0  0  0  0  0  0  0  0  0
    2.8829    3.1486    0.0000 O   0  0  0  0  0  0  0  0  0  0  0  0
   -4.3355   -1.7847    0.0000 O   0  0  0  0  0  0  0  0  0  0  0  0
    2.8918    1.5012    0.0000 N   0  0  0  0  0  0  0  0  0  0  0  0
   -1.4393   -0.9698    0.0000 N   0  0  0  0  0  0  0  0  0  0  0  0
   -2.8829   -0.9698    0.0000 N   0  0  0  0  0  0  0  0  0  0  0  0
   -2.1655    0.2702    0.0000 N   0  0  0  0  0  0  0  0  0  0  0  0
    0.0044   -0.9698    0.0000 N   0  0  0  0  0  0  0  0  0  0  0  0
    2.1744    0.2702    0.0000 C   0  0  0  0  0  0  0  0  0  0  0  0
    2.8918    0.6864    0.0000 C   0  0  0  0  0  0  0  0  0  0  0  0
    0.7396    0.2702    0.0000 C   0  0  0  0  0  0  0  0  0  0  0  0
    2.1744   -0.5536    0.0000 C   0  0  0  0  0  0  0  0  0  0  0  0
   -0.7130    0.2702    0.0000 C   0  0  0  0  0  0  0  0  0  0  0  0
    3.6092    0.2702    0.0000 C   0  0  0  0  0  0  0  0  0  0  0  0
   -0.7218   -0.5447    0.0000 C   0  0  0  0  0  0  0  0  0  0  0  0
    3.6092   -0.5447    0.0000 C   0  0  0  0  0  0  0  0  0  0  0  0
    0.0044    0.6776    0.0000 C   0  0  0  0  0  0  0  0  0  0  0  0
   -2.1567   -0.5447    0.0000 C   0  0  0  0  0  0  0  0  0  0  0  0
    2.9007   -0.9610    0.0000 C   0  0  0  0  0  0  0  0  0  0  0  0
   -1.4393    0.6776    0.0000 C   0  0  0  0  0  0  0  0  0  0  0  0
    2.1744    1.9176    0.0000 C   0  0  0  0  0  0  0  0  0  0  0  0
    3.6092    1.9176    0.0000 C   0  0  0  0  0  0  0  0  0  0  0  0
   -0.0044   -1.8732    0.0000 C   0  0  0  0  0  0  0  0  0  0  0  0
    2.1744    2.7412    0.0000 C   0  0  0  0  0  0  0  0  0  0  0  0
    3.6181    2.7412    0.0000 C   0  0  0  0  0  0  0  0  0  0  0  0
   -2.8829   -1.7935    0.0000 C   0  0  0  0  0  0  0  0  0  0  0  0
   -3.6092   -0.5536    0.0000 C   0  0  0  0  0  0  0  0  0  0  0  0
   -0.6599   -2.3781    0.0000 C   0  0  0  0  0  0  0  0  0  0  0  0
    0.6776   -2.3781    0.0000 C   0  0  0  0  0  0  0  0  0  0  0  0
   -3.6004   -2.2009    0.0000 C   0  0  0  0  0  0  0  0  0  0  0  0
   -4.3178   -0.9610    0.0000 C   0  0  0  0  0  0  0  0  0  0  0  0
   -0.3764   -3.1486    0.0000 C   0  0  0  0  0  0  0  0  0  0  0  0
    0.4473   -3.1486    0.0000 C   0  0  0  0  0  0  0  0  0  0  0  0
  1  3  2  0  0  0  0
  1  4  2  0  0  0  0
  1 12  1  0  0  0  0
  1 14  1  0  0  0  0
  2 19  1  0  0  0  0
  5 27  1  0  0  0  0
  5 28  1  0  0  0  0
  6 33  1  0  0  0  0
  6 34  1  0  0  0  0
  7 13  1  0  0  0  0
  7 24  1  0  0  0  0
  7 25  1  0  0  0  0
  8 18  2  0  0  0  0
  8 21  1  0  0  0  0
  9 21  1  0  0  0  0
  9 29  1  0  0  0  0
  9 30  1  0  0  0  0
 10 21  2  0  0  0  0
 10 23  1  0  0  0  0
 11 18  1  0  0  0  0
 11 26  1  0  0  0  0
 12 13  1  0  0  0  0
 12 15  2  0  0  0  0
 13 17  2  0  0  0  0
 14 20  2  0  0  0  0
 15 22  1  0  0  0  0
 16 18  1  0  0  0  0
 16 20  1  0  0  0  0
 16 23  2  0  0  0  0
 17 19  1  0  0  0  0
 19 22  2  0  0  0  0
 24 27  1  0  0  0  0
 25 28  1  0  0  0  0
 26 31  1  0  0  0  0
 26 32  1  0  0  0  0
 29 33  1  0  0  0  0
 30 34  1  0  0  0  0
 31 35  1  0  0  0  0
 32 36  1  0  0  0  0
 35 36  1  0  0  0  0
M  END
> <PUBCHEM_COMPOUND_ID_TYPE>
0

> <PUBCHEM_TOTAL_CHARGE>
0

> <PUBCHEM_SUBSTANCE_ID>
310942465

> <PUBCHEM_SUBSTANCE_VERSION>
1

> <PUBCHEM_EXT_DATASOURCE_NAME>
4488

> <PUBCHEM_EXT_DATASOURCE_REGID>
SCHEMBL16120501

> <PUBCHEM_SUBSTANCE_COMMENT>
InChI=1S/C25H32FN5O4S/c26-20-5-6-23(22(17-20)30-8-12-34-13-9-30)36(32,33)16-7-19-18-27-25(31-10-14-35-15-11-31)29-24(19)28-21-3-1-2-4-21/h5-7,16-18,21H,1-4,8-15H2,(H,27,28,29)/b16-7+
InChIKey=QTQHILWVGSFIDV-FRKPEAEDSA-N

> <PUBCHEM_SUBSTANCE_SYNONYM>
SCHEMBL16120501

> <PUBCHEM_XREF_EXT_ID>
SCHEMBL16120501

> <PUBCHEM_EXT_DATASOURCE_URL>
https://www.surechembl.org/

> <PUBCHEM_EXT_SUBSTANCE_URL>
https://www.surechembl.org/chemical/SCHEMBL16120501

> <PUBCHEM_CID_ASSOCIATIONS>
117609043  1

> <PUBCHEM_COORDINATE_TYPE>
1
3

$$$$
