310943211
  -OEChem-07211613022D

 16 17  0     1  0  0  0  0  0999 V2000
    2.1410    0.6232    0.0000 Br  0  0  0  0  0  0  0  0  0  0  0  0
   -2.1410    1.4592    0.0000 O   0  0  0  0  0  0  0  0  0  0  0  0
    0.7185   -1.8844    0.0000 O   0  0  0  0  0  0  0  0  0  0  0  0
   -0.7185    0.6232    0.0000 N   0  0  3  0  0  0  0  0  0  0  0  0
    0.0000   -0.6232    0.0000 N   0  0  0  0  0  0  0  0  0  0  0  0
    0.0000    0.2126    0.0000 C   0  0  0  0  0  0  0  0  0  0  0  0
    0.7185   -1.0192    0.0000 C   0  0  0  0  0  0  0  0  0  0  0  0
    0.7039    0.6232    0.0000 C   0  0  0  0  0  0  0  0  0  0  0  0
   -1.4225    0.2126    0.0000 C   0  0  3  0  0  0  0  0  0  0  0  0
    1.4372    0.2126    0.0000 C   0  0  0  0  0  0  0  0  0  0  0  0
    1.4225   -0.6232    0.0000 C   0  0  0  0  0  0  0  0  0  0  0  0
   -0.7185    1.4592    0.0000 C   0  0  0  0  0  0  0  0  0  0  0  0
   -2.1410    0.6232    0.0000 C   0  0  0  0  0  0  0  0  0  0  0  0
   -0.7185   -1.0339    0.0000 C   0  0  0  0  0  0  0  0  0  0  0  0
   -1.4225    1.8844    0.0000 C   0  0  0  0  0  0  0  0  0  0  0  0
   -1.4225   -0.6086    0.0000 C   0  0  0  0  0  0  0  0  0  0  0  0
  1 10  1  0  0  0  0
  2 13  1  0  0  0  0
  2 15  1  0  0  0  0
  3  7  2  0  0  0  0
  4  6  1  0  0  0  0
  4  9  1  0  0  0  0
  4 12  1  0  0  0  0
  5  6  1  0  0  0  0
  5  7  1  0  0  0  0
  5 14  1  0  0  0  0
  6  8  2  0  0  0  0
  7 11  1  0  0  0  0
  8 10  1  0  0  0  0
  9 13  1  0  0  0  0
  9 16  1  6  0  0  0
 10 11  2  0  0  0  0
 12 15  1  0  0  0  0
M  END
> <PUBCHEM_COMPOUND_ID_TYPE>
0

> <PUBCHEM_TOTAL_CHARGE>
0

> <PUBCHEM_SUBSTANCE_ID>
310943211

> <PUBCHEM_SUBSTANCE_VERSION>
1

> <PUBCHEM_EXT_DATASOURCE_NAME>
4488

> <PUBCHEM_EXT_DATASOURCE_REGID>
SCHEMBL16121272

> <PUBCHEM_SUBSTANCE_COMMENT>
InChI=1S/C11H15BrN2O2/c1-8-7-16-4-3-14(8)10-5-9(12)6-11(15)13(10)2/h5-6,8H,3-4,7H2,1-2H3/t8-/m1/s1
InChIKey=GXSQRPITEWIDSO-MRVPVSSYSA-N

> <PUBCHEM_SUBSTANCE_SYNONYM>
SCHEMBL16121272

> <PUBCHEM_XREF_EXT_ID>
SCHEMBL16121272

> <PUBCHEM_EXT_DATASOURCE_URL>
https://www.surechembl.org/

> <PUBCHEM_EXT_SUBSTANCE_URL>
https://www.surechembl.org/chemical/SCHEMBL16121272

> <PUBCHEM_CID_ASSOCIATIONS>
117609637  1

> <PUBCHEM_COORDINATE_TYPE>
1
3

> <PUBCHEM_BONDANNOTATIONS>
9  16  6

$$$$
