310947830
  -OEChem-07211613022D

 27 28  0     1  0  0  0  0  0999 V2000
   -2.5173   -0.8307    0.0000 I   0  0  0  0  0  0  0  0  0  0  0  0
   -1.0806    1.6677    0.0000 I   0  0  0  0  0  0  0  0  0  0  0  0
   -2.5298    0.8307    0.0000 O   0  0  0  0  0  0  0  0  0  0  0  0
   -5.4156   -0.8307    0.0000 O   0  0  0  0  0  0  0  0  0  0  0  0
    3.2418   -1.6677    0.0000 O   0  0  0  0  0  0  0  0  0  0  0  0
    2.5298   -0.4186    0.0000 N   0  0  0  0  0  0  0  0  0  0  0  0
    1.2181    0.4186    0.0000 N   0  0  0  0  0  0  0  0  0  0  0  0
    3.9664   -0.4186    0.0000 N   0  0  0  0  0  0  0  0  0  0  0  0
   -1.7927    0.4186    0.0000 C   0  0  0  0  0  0  0  0  0  0  0  0
   -1.8052   -0.4061    0.0000 C   0  0  0  0  0  0  0  0  0  0  0  0
   -1.0806    0.8307    0.0000 C   0  0  0  0  0  0  0  0  0  0  0  0
   -0.3685   -0.4061    0.0000 C   0  0  0  0  0  0  0  0  0  0  0  0
   -1.0931   -0.8183    0.0000 C   0  0  0  0  0  0  0  0  0  0  0  0
   -0.3561    0.4186    0.0000 C   0  0  0  0  0  0  0  0  0  0  0  0
   -3.2418    0.4311    0.0000 C   0  0  0  0  0  0  0  0  0  0  0  0
    0.3810   -0.8307    0.0000 C   0  0  0  0  0  0  0  0  0  0  0  0
    1.0806   -0.4186    0.0000 C   0  0  3  0  0  0  0  0  0  0  0  0
   -3.9539    0.8307    0.0000 C   0  0  0  0  0  0  0  0  0  0  0  0
   -3.2418   -0.4061    0.0000 C   0  0  0  0  0  0  0  0  0  0  0  0
   -4.6910   -0.4061    0.0000 C   0  0  0  0  0  0  0  0  0  0  0  0
   -4.6661    0.4186    0.0000 C   0  0  0  0  0  0  0  0  0  0  0  0
   -3.9539   -0.8183    0.0000 C   0  0  0  0  0  0  0  0  0  0  0  0
    1.8177   -0.8307    0.0000 C   0  0  0  0  0  0  0  0  0  0  0  0
    3.2543   -0.8058    0.0000 C   0  0  0  0  0  0  0  0  0  0  0  0
    4.6910   -0.8183    0.0000 C   0  0  0  0  0  0  0  0  0  0  0  0
    5.4156   -0.4186    0.0000 C   0  0  0  0  0  0  0  0  0  0  0  0
    4.7035   -1.6552    0.0000 C   0  0  0  0  0  0  0  0  0  0  0  0
  1 10  1  0  0  0  0
  2 11  1  0  0  0  0
  3  9  1  0  0  0  0
  3 15  1  0  0  0  0
  4 20  1  0  0  0  0
  5 24  2  0  0  0  0
  6 23  1  0  0  0  0
  6 24  1  0  0  0  0
 17  7  1  6  0  0  0
  8 24  1  0  0  0  0
  8 25  1  0  0  0  0
  9 10  2  0  0  0  0
  9 11  1  0  0  0  0
 10 13  1  0  0  0  0
 11 14  2  0  0  0  0
 12 13  2  0  0  0  0
 12 14  1  0  0  0  0
 12 16  1  0  0  0  0
 15 18  2  0  0  0  0
 15 19  1  0  0  0  0
 16 17  1  0  0  0  0
 17 23  1  0  0  0  0
 18 21  1  0  0  0  0
 19 22  2  0  0  0  0
 20 21  2  0  0  0  0
 20 22  1  0  0  0  0
 25 26  1  0  0  0  0
 25 27  1  0  0  0  0
M  END
> <PUBCHEM_COMPOUND_ID_TYPE>
0

> <PUBCHEM_TOTAL_CHARGE>
0

> <PUBCHEM_SUBSTANCE_ID>
310947830

> <PUBCHEM_SUBSTANCE_VERSION>
1

> <PUBCHEM_EXT_DATASOURCE_NAME>
4488

> <PUBCHEM_EXT_DATASOURCE_REGID>
SCHEMBL16126002

> <PUBCHEM_SUBSTANCE_COMMENT>
InChI=1S/C19H23I2N3O3/c1-11(2)24-19(26)23-10-13(22)7-12-8-16(20)18(17(21)9-12)27-15-5-3-14(25)4-6-15/h3-6,8-9,11,13,25H,7,10,22H2,1-2H3,(H2,23,24,26)/t13-/m0/s1
InChIKey=AIHYOACPXUHOBO-ZDUSSCGKSA-N

> <PUBCHEM_SUBSTANCE_SYNONYM>
SCHEMBL16126002

> <PUBCHEM_XREF_EXT_ID>
SCHEMBL16126002

> <PUBCHEM_EXT_DATASOURCE_URL>
https://www.surechembl.org/

> <PUBCHEM_EXT_SUBSTANCE_URL>
https://www.surechembl.org/chemical/SCHEMBL16126002

> <PUBCHEM_CID_ASSOCIATIONS>
71583975  1

> <PUBCHEM_COORDINATE_TYPE>
1
3

> <PUBCHEM_BONDANNOTATIONS>
17  7  6

$$$$
