310949048
  -OEChem-07211613022D

 41 47  0     0  0  0  0  0  0999 V2000
    2.1178    1.2379    0.0000 N   0  0  0  0  0  0  0  0  0  0  0  0
   -0.5369    0.6263    0.0000 N   0  0  0  0  0  0  0  0  0  0  0  0
   -1.2676   -0.6114    0.0000 N   0  0  0  0  0  0  0  0  0  0  0  0
    0.1044    2.1475    0.0000 N   0  0  0  0  0  0  0  0  0  0  0  0
    4.1460    2.1624    0.0000 N   0  0  0  0  0  0  0  0  0  0  0  0
   -1.9835    0.6263    0.0000 N   0  0  0  0  0  0  0  0  0  0  0  0
    3.0423    0.1641    0.0000 N   0  0  0  0  0  0  0  0  0  0  0  0
    0.8650   -3.5196    0.0000 N   0  0  0  0  0  0  0  0  0  0  0  0
    0.8799   -0.1789    0.0000 C   0  0  0  0  0  0  0  0  0  0  0  0
    2.7740    1.7598    0.0000 C   0  0  0  0  0  0  0  0  0  0  0  0
    1.4466    1.7449    0.0000 C   0  0  0  0  0  0  0  0  0  0  0  0
    2.5353    2.4905    0.0000 C   0  0  0  0  0  0  0  0  0  0  0  0
    1.7002    2.5353    0.0000 C   0  0  0  0  0  0  0  0  0  0  0  0
    0.1641   -0.5966    0.0000 C   0  0  0  0  0  0  0  0  0  0  0  0
    1.5957   -0.5966    0.0000 C   0  0  0  0  0  0  0  0  0  0  0  0
   -0.5667   -0.1641    0.0000 C   0  0  0  0  0  0  0  0  0  0  0  0
    0.6562    1.5957    0.0000 C   0  0  0  0  0  0  0  0  0  0  0  0
    3.6091    1.5809    0.0000 C   0  0  0  0  0  0  0  0  0  0  0  0
    0.1641   -1.4168    0.0000 C   0  0  0  0  0  0  0  0  0  0  0  0
    1.1931    3.1170    0.0000 C   0  0  0  0  0  0  0  0  0  0  0  0
    3.0871    3.1318    0.0000 C   0  0  0  0  0  0  0  0  0  0  0  0
    1.5660   -1.4317    0.0000 C   0  0  0  0  0  0  0  0  0  0  0  0
    0.8799   -1.8343    0.0000 C   0  0  0  0  0  0  0  0  0  0  0  0
   -1.2825    1.0588    0.0000 C   0  0  0  0  0  0  0  0  0  0  0  0
   -1.9984   -0.1641    0.0000 C   0  0  0  0  0  0  0  0  0  0  0  0
    2.2967   -0.2088    0.0000 C   0  0  0  0  0  0  0  0  0  0  0  0
    0.3729    2.9678    0.0000 C   0  0  0  0  0  0  0  0  0  0  0  0
    3.8925    2.9529    0.0000 C   0  0  0  0  0  0  0  0  0  0  0  0
   -1.2528    1.8941    0.0000 C   0  0  0  0  0  0  0  0  0  0  0  0
   -2.6993   -0.5667    0.0000 C   0  0  0  0  0  0  0  0  0  0  0  0
    0.8650   -2.6845    0.0000 C   0  0  0  0  0  0  0  0  0  0  0  0
   -0.5518    2.2818    0.0000 C   0  0  0  0  0  0  0  0  0  0  0  0
   -1.9686    2.2967    0.0000 C   0  0  0  0  0  0  0  0  0  0  0  0
   -3.4451   -0.1789    0.0000 C   0  0  0  0  0  0  0  0  0  0  0  0
   -2.7143   -1.3869    0.0000 C   0  0  0  0  0  0  0  0  0  0  0  0
   -0.5369    3.1170    0.0000 C   0  0  0  0  0  0  0  0  0  0  0  0
   -1.9537    3.1170    0.0000 C   0  0  0  0  0  0  0  0  0  0  0  0
   -4.1162   -0.5667    0.0000 C   0  0  0  0  0  0  0  0  0  0  0  0
   -3.4152   -1.8046    0.0000 C   0  0  0  0  0  0  0  0  0  0  0  0
   -1.2528    3.5196    0.0000 C   0  0  0  0  0  0  0  0  0  0  0  0
   -4.1460   -1.3869    0.0000 C   0  0  0  0  0  0  0  0  0  0  0  0
  1  9  1  0  0  0  0
  1 10  1  0  0  0  0
  1 11  1  0  0  0  0
  2 16  2  0  0  0  0
  2 24  1  0  0  0  0
  3 16  1  0  0  0  0
  3 25  2  0  0  0  0
  4 17  2  0  0  0  0
  4 27  1  0  0  0  0
  5 18  2  0  0  0  0
  5 28  1  0  0  0  0
  6 24  2  0  0  0  0
  6 25  1  0  0  0  0
  7 26  3  0  0  0  0
  8 31  3  0  0  0  0
  9 14  1  0  0  0  0
  9 15  2  0  0  0  0
 10 12  2  0  0  0  0
 10 18  1  0  0  0  0
 11 13  2  0  0  0  0
 11 17  1  0  0  0  0
 12 13  1  0  0  0  0
 12 21  1  0  0  0  0
 13 20  1  0  0  0  0
 14 16  1  0  0  0  0
 14 19  2  0  0  0  0
 15 22  1  0  0  0  0
 15 26  1  0  0  0  0
 19 23  1  0  0  0  0
 20 27  2  0  0  0  0
 21 28  2  0  0  0  0
 22 23  2  0  0  0  0
 23 31  1  0  0  0  0
 24 29  1  0  0  0  0
 25 30  1  0  0  0  0
 29 32  2  0  0  0  0
 29 33  1  0  0  0  0
 30 34  2  0  0  0  0
 30 35  1  0  0  0  0
 32 36  1  0  0  0  0
 33 37  2  0  0  0  0
 34 38  1  0  0  0  0
 35 39  2  0  0  0  0
 36 40  2  0  0  0  0
 37 40  1  0  0  0  0
 38 41  2  0  0  0  0
 39 41  1  0  0  0  0
M  END
> <PUBCHEM_COMPOUND_ID_TYPE>
0

> <PUBCHEM_TOTAL_CHARGE>
0

> <PUBCHEM_SUBSTANCE_ID>
310949048

> <PUBCHEM_SUBSTANCE_VERSION>
1

> <PUBCHEM_EXT_DATASOURCE_NAME>
4488

> <PUBCHEM_EXT_DATASOURCE_REGID>
SCHEMBL16127238

> <PUBCHEM_SUBSTANCE_COMMENT>
InChI=1S/C33H18N8/c34-17-21-15-24(18-35)30(41-28-19-36-13-11-25(28)26-12-14-37-20-29(26)41)27(16-21)33-39-31(22-7-3-1-4-8-22)38-32(40-33)23-9-5-2-6-10-23/h1-16,19-20H
InChIKey=UKHIFWCTXMIKGX-UHFFFAOYSA-N

> <PUBCHEM_SUBSTANCE_SYNONYM>
SCHEMBL16127238

> <PUBCHEM_XREF_EXT_ID>
SCHEMBL16127238

> <PUBCHEM_EXT_DATASOURCE_URL>
https://www.surechembl.org/

> <PUBCHEM_EXT_SUBSTANCE_URL>
https://www.surechembl.org/chemical/SCHEMBL16127238

> <PUBCHEM_CID_ASSOCIATIONS>
117614553  1

> <PUBCHEM_COORDINATE_TYPE>
1
3

$$$$
