310949042
  -OEChem-07211613022D

 33 37  0     0  0  0  0  0  0999 V2000
    2.6015   -0.2948    0.0000 S   0  0  0  0  0  0  0  0  0  0  0  0
   -0.3022   -0.1916    0.0000 F   0  0  0  0  0  0  0  0  0  0  0  0
   -3.1614   -0.1769    0.0000 F   0  0  0  0  0  0  0  0  0  0  0  0
   -3.1762   -1.8128    0.0000 F   0  0  0  0  0  0  0  0  0  0  0  0
   -0.2874   -1.8276    0.0000 F   0  0  0  0  0  0  0  0  0  0  0  0
   -1.7907   -2.6383    0.0000 F   0  0  0  0  0  0  0  0  0  0  0  0
    0.8327    0.6190    0.0000 N   0  0  0  0  0  0  0  0  0  0  0  0
    0.4348    2.6383    0.0000 N   0  0  0  0  0  0  0  0  0  0  0  0
   -1.0538    1.0760    0.0000 C   0  0  0  0  0  0  0  0  0  0  0  0
   -1.7760    0.6779    0.0000 C   0  0  0  0  0  0  0  0  0  0  0  0
   -1.7760   -0.1622    0.0000 C   0  0  0  0  0  0  0  0  0  0  0  0
    0.9802   -0.1769    0.0000 C   0  0  0  0  0  0  0  0  0  0  0  0
    1.5550    1.0317    0.0000 C   0  0  0  0  0  0  0  0  0  0  0  0
   -1.0391    1.9013    0.0000 C   0  0  0  0  0  0  0  0  0  0  0  0
   -1.0391   -0.5602    0.0000 C   0  0  0  0  0  0  0  0  0  0  0  0
   -2.4393   -0.5602    0.0000 C   0  0  0  0  0  0  0  0  0  0  0  0
    1.8350   -0.2800    0.0000 C   0  0  0  0  0  0  0  0  0  0  0  0
    2.1887    0.4717    0.0000 C   0  0  0  0  0  0  0  0  0  0  0  0
   -2.4540   -1.3707    0.0000 C   0  0  0  0  0  0  0  0  0  0  0  0
   -1.0538   -1.3707    0.0000 C   0  0  0  0  0  0  0  0  0  0  0  0
   -2.4540    1.0907    0.0000 C   0  0  0  0  0  0  0  0  0  0  0  0
   -1.7907   -1.7981    0.0000 C   0  0  0  0  0  0  0  0  0  0  0  0
    0.5233   -0.8401    0.0000 C   0  0  0  0  0  0  0  0  0  0  0  0
    1.7760    1.8276    0.0000 C   0  0  0  0  0  0  0  0  0  0  0  0
   -1.7760    2.2845    0.0000 C   0  0  0  0  0  0  0  0  0  0  0  0
   -2.4393    1.8865    0.0000 C   0  0  0  0  0  0  0  0  0  0  0  0
    2.1887   -1.0317    0.0000 C   0  0  0  0  0  0  0  0  0  0  0  0
    2.9993    0.7222    0.0000 C   0  0  0  0  0  0  0  0  0  0  0  0
   -0.3169    2.2698    0.0000 C   0  0  0  0  0  0  0  0  0  0  0  0
    0.8475   -1.5771    0.0000 C   0  0  0  0  0  0  0  0  0  0  0  0
    2.5572    2.0782    0.0000 C   0  0  0  0  0  0  0  0  0  0  0  0
    1.6877   -1.6656    0.0000 C   0  0  0  0  0  0  0  0  0  0  0  0
    3.1762    1.5329    0.0000 C   0  0  0  0  0  0  0  0  0  0  0  0
  1 17  1  0  0  0  0
  1 18  1  0  0  0  0
  2 15  1  0  0  0  0
  3 16  1  0  0  0  0
  4 19  1  0  0  0  0
  5 20  1  0  0  0  0
  6 22  1  0  0  0  0
  7  9  1  0  0  0  0
  7 12  1  0  0  0  0
  7 13  1  0  0  0  0
  8 29  3  0  0  0  0
  9 10  2  0  0  0  0
  9 14  1  0  0  0  0
 10 11  1  0  0  0  0
 10 21  1  0  0  0  0
 11 15  2  0  0  0  0
 11 16  1  0  0  0  0
 12 17  2  0  0  0  0
 12 23  1  0  0  0  0
 13 18  2  0  0  0  0
 13 24  1  0  0  0  0
 14 25  2  0  0  0  0
 14 29  1  0  0  0  0
 15 20  1  0  0  0  0
 16 19  2  0  0  0  0
 17 27  1  0  0  0  0
 18 28  1  0  0  0  0
 19 22  1  0  0  0  0
 20 22  2  0  0  0  0
 21 26  2  0  0  0  0
 23 30  2  0  0  0  0
 24 31  2  0  0  0  0
 25 26  1  0  0  0  0
 27 32  2  0  0  0  0
 28 33  2  0  0  0  0
 30 32  1  0  0  0  0
 31 33  1  0  0  0  0
M  END
> <PUBCHEM_COMPOUND_ID_TYPE>
0

> <PUBCHEM_TOTAL_CHARGE>
0

> <PUBCHEM_SUBSTANCE_ID>
310949042

> <PUBCHEM_SUBSTANCE_VERSION>
1

> <PUBCHEM_EXT_DATASOURCE_NAME>
4488

> <PUBCHEM_EXT_DATASOURCE_REGID>
SCHEMBL16127232

> <PUBCHEM_SUBSTANCE_COMMENT>
InChI=1S/C25H11F5N2S/c26-20-19(21(27)23(29)24(30)22(20)28)14-7-5-6-13(12-31)25(14)32-15-8-1-3-10-17(15)33-18-11-4-2-9-16(18)32/h1-11H
InChIKey=OSWBNXXTFFWQNF-UHFFFAOYSA-N

> <PUBCHEM_SUBSTANCE_SYNONYM>
SCHEMBL16127232

> <PUBCHEM_XREF_EXT_ID>
SCHEMBL16127232

> <PUBCHEM_EXT_DATASOURCE_URL>
https://www.surechembl.org/

> <PUBCHEM_EXT_SUBSTANCE_URL>
https://www.surechembl.org/chemical/SCHEMBL16127232

> <PUBCHEM_CID_ASSOCIATIONS>
117614547  1

> <PUBCHEM_COORDINATE_TYPE>
1
3

$$$$
