310948103
  -OEChem-07211613022D

 45 48  0     0  0  0  0  0  0999 V2000
   -4.0529   -1.9577    0.0000 Cl  0  0  0  0  0  0  0  0  0  0  0  0
    3.1470   -2.4916    0.0000 S   0  0  0  0  0  0  0  0  0  0  0  0
   -4.1662   -0.8414    0.0000 F   0  0  0  0  0  0  0  0  0  0  0  0
   -4.3927    0.2588    0.0000 F   0  0  0  0  0  0  0  0  0  0  0  0
   -3.2763    0.4530    0.0000 F   0  0  0  0  0  0  0  0  0  0  0  0
    3.4220    3.2036    0.0000 F   0  0  0  0  0  0  0  0  0  0  0  0
    2.3056    2.8961    0.0000 F   0  0  0  0  0  0  0  0  0  0  0  0
    3.6808    2.0872    0.0000 F   0  0  0  0  0  0  0  0  0  0  0  0
   -1.7878    0.4369    0.0000 O   0  0  0  0  0  0  0  0  0  0  0  0
    3.8588   -2.9123    0.0000 O   0  0  0  0  0  0  0  0  0  0  0  0
    2.7425   -3.2036    0.0000 O   0  0  0  0  0  0  0  0  0  0  0  0
    2.5968    1.7959    0.0000 O   0  0  0  0  0  0  0  0  0  0  0  0
    4.3927   -0.3559    0.0000 O   0  0  0  0  0  0  0  0  0  0  0  0
   -1.2378    1.6827    0.0000 N   0  0  0  0  0  0  0  0  0  0  0  0
   -1.7878   -1.0516    0.0000 N   0  0  0  0  0  0  0  0  0  0  0  0
    2.7425   -0.3398    0.0000 N   0  0  0  0  0  0  0  0  0  0  0  0
   -2.2732   -0.3883    0.0000 N   0  0  0  0  0  0  0  0  0  0  0  0
   -0.9788    0.3721    0.0000 C   0  0  0  0  0  0  0  0  0  0  0  0
   -0.5582   -0.3398    0.0000 C   0  0  0  0  0  0  0  0  0  0  0  0
   -0.6229    1.1326    0.0000 C   0  0  0  0  0  0  0  0  0  0  0  0
   -0.9627   -1.0678    0.0000 C   0  0  0  0  0  0  0  0  0  0  0  0
    0.6714   -1.0516    0.0000 C   0  0  0  0  0  0  0  0  0  0  0  0
    0.2831   -0.3559    0.0000 C   0  0  0  0  0  0  0  0  0  0  0  0
    1.5128   -1.0678    0.0000 C   0  0  0  0  0  0  0  0  0  0  0  0
    0.1861    1.2944    0.0000 C   0  0  0  0  0  0  0  0  0  0  0  0
   -1.9335    1.2620    0.0000 C   0  0  0  0  0  0  0  0  0  0  0  0
    2.7425   -1.7635    0.0000 C   0  0  0  0  0  0  0  0  0  0  0  0
   -0.5420   -1.7635    0.0000 C   0  0  0  0  0  0  0  0  0  0  0  0
    0.2669   -1.7635    0.0000 C   0  0  0  0  0  0  0  0  0  0  0  0
    1.9173   -1.7474    0.0000 C   0  0  0  0  0  0  0  0  0  0  0  0
    3.1470   -1.0516    0.0000 C   0  0  0  0  0  0  0  0  0  0  0  0
    1.9173   -0.3398    0.0000 C   0  0  0  0  0  0  0  0  0  0  0  0
    0.7200    0.6957    0.0000 C   0  0  0  0  0  0  0  0  0  0  0  0
    0.4450    2.0710    0.0000 C   0  0  0  0  0  0  0  0  0  0  0  0
    1.7878    1.6504    0.0000 C   0  0  0  0  0  0  0  0  0  0  0  0
    1.5290    0.8575    0.0000 C   0  0  0  0  0  0  0  0  0  0  0  0
    1.2539    2.2328    0.0000 C   0  0  0  0  0  0  0  0  0  0  0  0
   -2.2732   -1.7150    0.0000 C   0  0  0  0  0  0  0  0  0  0  0  0
   -2.7263    1.5856    0.0000 C   0  0  0  0  0  0  0  0  0  0  0  0
    3.9721   -1.0516    0.0000 C   0  0  0  0  0  0  0  0  0  0  0  0
   -3.0660   -1.4561    0.0000 C   0  0  0  0  0  0  0  0  0  0  0  0
   -3.0499   -0.6472    0.0000 C   0  0  0  0  0  0  0  0  0  0  0  0
    3.8912   -2.0872    0.0000 C   0  0  0  0  0  0  0  0  0  0  0  0
   -3.7294   -0.1780    0.0000 C   0  0  0  0  0  0  0  0  0  0  0  0
    3.0175    2.4916    0.0000 C   0  0  0  0  0  0  0  0  0  0  0  0
  1 41  1  0  0  0  0
  2 10  2  0  0  0  0
  2 11  2  0  0  0  0
  2 27  1  0  0  0  0
  2 43  1  0  0  0  0
  3 44  1  0  0  0  0
  4 44  1  0  0  0  0
  5 44  1  0  0  0  0
  6 45  1  0  0  0  0
  7 45  1  0  0  0  0
  8 45  1  0  0  0  0
  9 18  1  0  0  0  0
  9 26  1  0  0  0  0
 12 35  1  0  0  0  0
 12 45  1  0  0  0  0
 13 40  1  0  0  0  0
 14 20  1  0  0  0  0
 14 26  2  0  0  0  0
 15 21  1  0  0  0  0
 15 38  1  0  0  0  0
 16 31  1  0  0  0  0
 16 32  2  0  0  0  0
 17 42  2  3  0  0  0
 18 19  1  0  0  0  0
 18 20  2  0  0  0  0
 19 21  1  0  0  0  0
 19 23  2  0  0  0  0
 20 25  1  0  0  0  0
 21 28  2  0  0  0  0
 22 23  1  0  0  0  0
 22 24  1  0  0  0  0
 22 29  2  0  0  0  0
 24 30  2  0  0  0  0
 24 32  1  0  0  0  0
 25 33  2  0  0  0  0
 25 34  1  0  0  0  0
 26 39  1  0  0  0  0
 27 30  1  0  0  0  0
 27 31  2  0  0  0  0
 28 29  1  0  0  0  0
 31 40  1  0  0  0  0
 33 36  1  0  0  0  0
 34 37  2  0  0  0  0
 35 36  2  0  0  0  0
 35 37  1  0  0  0  0
 38 41  2  0  0  0  0
 41 42  1  0  0  0  0
 42 44  1  0  0  0  0
M  END
> <PUBCHEM_COMPOUND_ID_TYPE>
0

> <PUBCHEM_TOTAL_CHARGE>
0

> <PUBCHEM_SUBSTANCE_ID>
310948103

> <PUBCHEM_SUBSTANCE_VERSION>
1

> <PUBCHEM_EXT_DATASOURCE_NAME>
4488

> <PUBCHEM_EXT_DATASOURCE_REGID>
SCHEMBL16126279

> <PUBCHEM_SUBSTANCE_COMMENT>
InChI=1S/C28H21ClF6N4O5S/c1-14-39-24(15-3-6-18(7-4-15)44-28(33,34)35)25(43-14)19-9-16(17-10-23(45(2,41)42)22(13-40)37-11-17)5-8-21(19)38-12-20(29)26(36)27(30,31)32/h3-12,36,38,40H,13H2,1-2H3/b20-12+,36-26?
InChIKey=BUOCNURSJFFJGF-KSQHJXSBSA-N

> <PUBCHEM_SUBSTANCE_SYNONYM>
SCHEMBL16126279

> <PUBCHEM_XREF_EXT_ID>
SCHEMBL16126279

> <PUBCHEM_EXT_DATASOURCE_URL>
https://www.surechembl.org/

> <PUBCHEM_EXT_SUBSTANCE_URL>
https://www.surechembl.org/chemical/SCHEMBL16126279

> <PUBCHEM_CID_ASSOCIATIONS>
117613721  1

> <PUBCHEM_COORDINATE_TYPE>
1
3

$$$$
