310929403
  -OEChem-07211613022D

 30 32  0     0  0  0  0  0  0999 V2000
    9.8566   -2.8448    0.0000 O   0  0  0  0  0  0  0  0  0  0  0  0
    0.0000   -0.4407    0.0000 O   0  0  0  0  0  0  0  0  0  0  0  0
    9.8566   -1.2421    0.0000 N   0  0  0  0  0  0  0  0  0  0  0  0
    9.1353   -1.6428    0.0000 C   0  0  0  0  0  0  0  0  0  0  0  0
    8.4542   -1.2421    0.0000 C   0  0  0  0  0  0  0  0  0  0  0  0
    9.1353   -2.4441    0.0000 C   0  0  0  0  0  0  0  0  0  0  0  0
    8.4542   -0.4407    0.0000 C   0  0  0  0  0  0  0  0  0  0  0  0
    7.7330   -1.6428    0.0000 C   0  0  0  0  0  0  0  0  0  0  0  0
    8.4542   -2.8448    0.0000 C   0  0  0  0  0  0  0  0  0  0  0  0
    9.1353    0.0000    0.0000 C   0  0  0  0  0  0  0  0  0  0  0  0
    7.7330   -2.4441    0.0000 C   0  0  0  0  0  0  0  0  0  0  0  0
    9.8566   -0.4006    0.0000 C   0  0  0  0  0  0  0  0  0  0  0  0
    7.7330   -0.0401    0.0000 C   0  0  0  0  0  0  0  0  0  0  0  0
    9.8566   -3.6461    0.0000 C   0  0  0  0  0  0  0  0  0  0  0  0
   10.5778   -4.0468    0.0000 C   0  0  0  0  0  0  0  0  0  0  0  0
    7.0118   -0.4407    0.0000 C   0  0  0  0  0  0  0  0  0  0  0  0
   10.5778   -4.8882    0.0000 C   0  0  0  0  0  0  0  0  0  0  0  0
   11.2990   -3.6461    0.0000 C   0  0  0  0  0  0  0  0  0  0  0  0
    6.3306   -0.0401    0.0000 C   0  0  0  0  0  0  0  0  0  0  0  0
   11.2990   -5.2889    0.0000 C   0  0  0  0  0  0  0  0  0  0  0  0
   11.9801   -4.0468    0.0000 C   0  0  0  0  0  0  0  0  0  0  0  0
   12.0202   -4.8481    0.0000 C   0  0  0  0  0  0  0  0  0  0  0  0
    5.6095   -0.4407    0.0000 C   0  0  0  0  0  0  0  0  0  0  0  0
    4.9283   -0.0401    0.0000 C   0  0  0  0  0  0  0  0  0  0  0  0
    4.2070   -0.4407    0.0000 C   0  0  0  0  0  0  0  0  0  0  0  0
    3.5259   -0.0401    0.0000 C   0  0  0  0  0  0  0  0  0  0  0  0
    2.8047   -0.4407    0.0000 C   0  0  0  0  0  0  0  0  0  0  0  0
    2.0835   -0.0401    0.0000 C   0  0  0  0  0  0  0  0  0  0  0  0
    1.4023   -0.4407    0.0000 C   0  0  0  0  0  0  0  0  0  0  0  0
    0.6812   -0.0401    0.0000 C   0  0  0  0  0  0  0  0  0  0  0  0
  1  6  1  0  0  0  0
  1 14  1  0  0  0  0
  2 30  1  0  0  0  0
  3  4  2  0  0  0  0
  3 12  1  0  0  0  0
  4  5  1  0  0  0  0
  4  6  1  0  0  0  0
  5  7  2  0  0  0  0
  5  8  1  0  0  0  0
  6  9  2  0  0  0  0
  7 10  1  0  0  0  0
  7 13  1  0  0  0  0
  8 11  2  0  0  0  0
  9 11  1  0  0  0  0
 10 12  2  0  0  0  0
 13 16  1  0  0  0  0
 14 15  1  0  0  0  0
 15 17  2  0  0  0  0
 15 18  1  0  0  0  0
 16 19  1  0  0  0  0
 17 20  1  0  0  0  0
 18 21  2  0  0  0  0
 19 23  1  0  0  0  0
 20 22  2  0  0  0  0
 21 22  1  0  0  0  0
 23 24  1  0  0  0  0
 24 25  1  0  0  0  0
 25 26  1  0  0  0  0
 26 27  1  0  0  0  0
 27 28  1  0  0  0  0
 28 29  1  0  0  0  0
 29 30  1  0  0  0  0
M  END
> <PUBCHEM_COMPOUND_ID_TYPE>
0

> <PUBCHEM_TOTAL_CHARGE>
0

> <PUBCHEM_SUBSTANCE_ID>
310929403

> <PUBCHEM_SUBSTANCE_VERSION>
1

> <PUBCHEM_EXT_DATASOURCE_NAME>
4488

> <PUBCHEM_EXT_DATASOURCE_REGID>
SCHEMBL16106577

> <PUBCHEM_SUBSTANCE_COMMENT>
InChI=1S/C27H35NO2/c29-21-12-7-5-3-1-2-4-6-11-16-24-19-20-28-27-25(24)17-13-18-26(27)30-22-23-14-9-8-10-15-23/h8-10,13-15,17-20,29H,1-7,11-12,16,21-22H2
InChIKey=ONEMUFBFMKNNQE-UHFFFAOYSA-N

> <PUBCHEM_SUBSTANCE_SYNONYM>
SCHEMBL16106577

> <PUBCHEM_XREF_EXT_ID>
SCHEMBL16106577

> <PUBCHEM_EXT_DATASOURCE_URL>
https://www.surechembl.org/

> <PUBCHEM_EXT_SUBSTANCE_URL>
https://www.surechembl.org/chemical/SCHEMBL16106577

> <PUBCHEM_CID_ASSOCIATIONS>
117598766  1

> <PUBCHEM_COORDINATE_TYPE>
1
3

$$$$
