310947445
  -OEChem-07211613022D

 19 19  0     0  0  0  0  0  0999 V2000
   -1.3991    9.3781    0.0000 O   0  0  0  0  0  0  0  0  0  0  0  0
    0.7445   11.4407    0.0000 O   0  0  0  0  0  0  0  0  0  0  0  0
   -4.2569    7.7280    0.0000 O   0  0  0  0  0  0  0  0  0  0  0  0
   -4.9716    6.4905    0.0000 O   0  0  0  0  0  0  0  0  0  0  0  0
    1.4590   10.2031    0.0000 O   0  0  0  0  0  0  0  0  0  0  0  0
   -0.6844    8.1405    0.0000 N   0  0  0  0  0  0  0  0  0  0  0  0
   -1.3991    7.7280    0.0000 C   0  0  0  0  0  0  0  0  0  0  0  0
   -2.8279    6.9030    0.0000 C   0  0  0  0  0  0  0  0  0  0  0  0
   -2.1135    8.1405    0.0000 C   0  0  0  0  0  0  0  0  0  0  0  0
   -1.3991    6.9030    0.0000 C   0  0  0  0  0  0  0  0  0  0  0  0
   -2.8279    7.7280    0.0000 C   0  0  0  0  0  0  0  0  0  0  0  0
   -2.1135    6.4905    0.0000 C   0  0  0  0  0  0  0  0  0  0  0  0
   -0.6844    8.9655    0.0000 C   0  0  0  0  0  0  0  0  0  0  0  0
   -3.5425    6.4905    0.0000 C   0  0  0  0  0  0  0  0  0  0  0  0
    0.0300    9.3781    0.0000 C   0  0  0  0  0  0  0  0  0  0  0  0
   -4.2569    6.9030    0.0000 C   0  0  0  0  0  0  0  0  0  0  0  0
    0.0300   10.2031    0.0000 C   0  0  0  0  0  0  0  0  0  0  0  0
    0.7445   10.6155    0.0000 C   0  0  0  0  0  0  0  0  0  0  0  0
   -0.2003   11.9861    0.0000 C   0  0  0  0  0  0  0  0  0  0  0  0
  1 13  2  0  0  0  0
  2 18  1  0  0  0  0
  2 19  1  0  0  0  0
  3 16  2  0  0  0  0
  4 16  1  0  0  0  0
  5 18  2  0  0  0  0
  6  7  1  0  0  0  0
  6 13  1  0  0  0  0
  7  9  2  0  0  0  0
  7 10  1  0  0  0  0
  8 11  2  0  0  0  0
  8 12  1  0  0  0  0
  8 14  1  0  0  0  0
  9 11  1  0  0  0  0
 10 12  2  0  0  0  0
 13 15  1  0  0  0  0
 14 16  1  0  0  0  0
 15 17  2  0  0  0  0
 17 18  1  0  0  0  0
M  END
> <PUBCHEM_COMPOUND_ID_TYPE>
0

> <PUBCHEM_TOTAL_CHARGE>
0

> <PUBCHEM_SUBSTANCE_ID>
310947445

> <PUBCHEM_SUBSTANCE_VERSION>
1

> <PUBCHEM_EXT_DATASOURCE_NAME>
4488

> <PUBCHEM_EXT_DATASOURCE_REGID>
SCHEMBL16125606

> <PUBCHEM_SUBSTANCE_COMMENT>
InChI=1S/C13H13NO5/c1-19-13(18)7-6-11(15)14-10-4-2-9(3-5-10)8-12(16)17/h2-7H,8H2,1H3,(H,14,15)(H,16,17)/b7-6+
InChIKey=AWPDDINOXKTHNL-VOTSOKGWSA-N

> <PUBCHEM_SUBSTANCE_SYNONYM>
SCHEMBL16125606

> <PUBCHEM_XREF_EXT_ID>
SCHEMBL16125606

> <PUBCHEM_EXT_DATASOURCE_URL>
https://www.surechembl.org/

> <PUBCHEM_EXT_SUBSTANCE_URL>
https://www.surechembl.org/chemical/SCHEMBL16125606

> <PUBCHEM_CID_ASSOCIATIONS>
117613177  1

> <PUBCHEM_COORDINATE_TYPE>
1
3

$$$$
