310936714
  -OEChem-07211613022D

 15 15  0     0  0  0  0  0  0999 V2000
    0.7132   -1.6255    0.0000 Br  0  0  0  0  0  0  0  0  0  0  0  0
    0.6966    0.0000    0.0000 O   0  0  0  0  0  0  0  0  0  0  0  0
    3.5494   -2.4548    0.0000 O   0  0  0  0  0  0  0  0  0  0  0  0
    4.2460   -1.2274    0.0000 O   0  0  0  0  0  0  0  0  0  0  0  0
    2.1231    0.0000    0.0000 N   0  0  0  0  0  0  0  0  0  0  0  0
    2.8196   -1.2274    0.0000 C   0  0  0  0  0  0  0  0  0  0  0  0
    1.4098   -0.3981    0.0000 C   0  0  0  0  0  0  0  0  0  0  0  0
    1.4098   -1.2274    0.0000 C   0  0  0  0  0  0  0  0  0  0  0  0
    2.1231   -1.6255    0.0000 C   0  0  0  0  0  0  0  0  0  0  0  0
    3.5494   -1.6255    0.0000 C   0  0  0  0  0  0  0  0  0  0  0  0
    2.8196   -0.3981    0.0000 C   0  0  0  0  0  0  0  0  0  0  0  0
    0.0000   -0.3981    0.0000 C   0  0  0  0  0  0  0  0  0  0  0  0
    4.2626   -2.8528    0.0000 C   0  0  0  0  0  0  0  0  0  0  0  0
    0.0000   -1.2274    0.0000 C   0  0  0  0  0  0  0  0  0  0  0  0
    4.9758   -2.4382    0.0000 C   0  0  0  0  0  0  0  0  0  0  0  0
  1  8  1  0  0  0  0
  2  7  1  0  0  0  0
  2 12  1  0  0  0  0
  3 10  1  0  0  0  0
  3 13  1  0  0  0  0
  4 10  2  0  0  0  0
  5  7  2  0  0  0  0
  5 11  1  0  0  0  0
  6  9  1  0  0  0  0
  6 10  1  0  0  0  0
  6 11  2  0  0  0  0
  7  8  1  0  0  0  0
  8  9  2  0  0  0  0
 12 14  1  0  0  0  0
 13 15  1  0  0  0  0
M  END
> <PUBCHEM_COMPOUND_ID_TYPE>
0

> <PUBCHEM_TOTAL_CHARGE>
0

> <PUBCHEM_SUBSTANCE_ID>
310936714

> <PUBCHEM_SUBSTANCE_VERSION>
1

> <PUBCHEM_EXT_DATASOURCE_NAME>
4488

> <PUBCHEM_EXT_DATASOURCE_REGID>
SCHEMBL16114392

> <PUBCHEM_SUBSTANCE_COMMENT>
InChI=1S/C10H12BrNO3/c1-3-14-9-8(11)5-7(6-12-9)10(13)15-4-2/h5-6H,3-4H2,1-2H3
InChIKey=YELQNVJDGPQVJD-UHFFFAOYSA-N

> <PUBCHEM_SUBSTANCE_SYNONYM>
SCHEMBL16114392

> <PUBCHEM_XREF_EXT_ID>
SCHEMBL16114392

> <PUBCHEM_EXT_DATASOURCE_URL>
https://www.surechembl.org/

> <PUBCHEM_EXT_SUBSTANCE_URL>
https://www.surechembl.org/chemical/SCHEMBL16114392

> <PUBCHEM_CID_ASSOCIATIONS>
117604616  1

> <PUBCHEM_COORDINATE_TYPE>
1
3

$$$$
