310943415
  -OEChem-07211613022D

 34 37  0     0  0  0  0  0  0999 V2000
   -1.4344    2.0744    0.0000 F   0  0  0  0  0  0  0  0  0  0  0  0
    3.8766    0.3090    0.0000 F   0  0  0  0  0  0  0  0  0  0  0  0
    4.7005    0.3090    0.0000 F   0  0  0  0  0  0  0  0  0  0  0  0
   -3.5824   -0.8386    0.0000 O   0  0  0  0  0  0  0  0  0  0  0  0
    0.7135   -0.8386    0.0000 O   0  0  0  0  0  0  0  0  0  0  0  0
   -5.0241    1.6478    0.0000 O   0  0  0  0  0  0  0  0  0  0  0  0
   -2.1553   -0.8386    0.0000 N   0  0  0  0  0  0  0  0  0  0  0  0
   -3.5970    0.8238    0.0000 N   0  0  0  0  0  0  0  0  0  0  0  0
    1.4197    0.4120    0.0000 N   0  0  0  0  0  0  0  0  0  0  0  0
    3.5676   -1.6624    0.0000 N   0  0  0  0  0  0  0  0  0  0  0  0
   -1.4344    0.4120    0.0000 C   0  0  0  0  0  0  0  0  0  0  0  0
   -0.7283    0.8386    0.0000 C   0  0  0  0  0  0  0  0  0  0  0  0
   -2.8615    0.4120    0.0000 C   0  0  0  0  0  0  0  0  0  0  0  0
   -2.8615   -0.3972    0.0000 C   0  0  0  0  0  0  0  0  0  0  0  0
   -2.1700    0.8238    0.0000 C   0  0  0  0  0  0  0  0  0  0  0  0
   -1.4491   -0.4120    0.0000 C   0  0  0  0  0  0  0  0  0  0  0  0
   -0.7135    1.6624    0.0000 C   0  0  0  0  0  0  0  0  0  0  0  0
   -0.0368    0.4266    0.0000 C   0  0  0  0  0  0  0  0  0  0  0  0
    0.6988    0.8386    0.0000 C   0  0  0  0  0  0  0  0  0  0  0  0
    2.1405   -0.8238    0.0000 C   0  0  0  0  0  0  0  0  0  0  0  0
    1.4344   -0.3972    0.0000 C   0  0  0  0  0  0  0  0  0  0  0  0
    3.5824   -0.8238    0.0000 C   0  0  0  0  0  0  0  0  0  0  0  0
   -0.0073    2.0596    0.0000 C   0  0  0  0  0  0  0  0  0  0  0  0
    0.6988    1.6478    0.0000 C   0  0  0  0  0  0  0  0  0  0  0  0
    4.2885   -0.3972    0.0000 C   0  0  0  0  0  0  0  0  0  0  0  0
    2.8615   -0.4120    0.0000 C   0  0  0  0  0  0  0  0  0  0  0  0
   -3.5824    1.6478    0.0000 C   0  0  0  0  0  0  0  0  0  0  0  0
   -4.2885    0.4120    0.0000 C   0  0  0  0  0  0  0  0  0  0  0  0
    2.1405   -1.6478    0.0000 C   0  0  0  0  0  0  0  0  0  0  0  0
   -2.1405   -1.6771    0.0000 C   0  0  0  0  0  0  0  0  0  0  0  0
    2.8761   -2.0744    0.0000 C   0  0  0  0  0  0  0  0  0  0  0  0
   -4.3032    2.0744    0.0000 C   0  0  0  0  0  0  0  0  0  0  0  0
   -5.0241    0.8238    0.0000 C   0  0  0  0  0  0  0  0  0  0  0  0
    5.0241   -0.8238    0.0000 C   0  0  0  0  0  0  0  0  0  0  0  0
  1 17  1  0  0  0  0
  2 25  1  0  0  0  0
  3 25  1  0  0  0  0
  4 14  2  0  0  0  0
  5 21  2  0  0  0  0
  6 32  1  0  0  0  0
  6 33  1  0  0  0  0
  7 14  1  0  0  0  0
  7 16  1  0  0  0  0
  7 30  1  0  0  0  0
  8 13  1  0  0  0  0
  8 27  1  0  0  0  0
  8 28  1  0  0  0  0
  9 19  1  0  0  0  0
  9 21  1  0  0  0  0
 10 22  1  0  0  0  0
 10 31  2  0  0  0  0
 11 12  1  0  0  0  0
 11 15  1  0  0  0  0
 11 16  2  0  0  0  0
 12 17  2  0  0  0  0
 12 18  1  0  0  0  0
 13 14  1  0  0  0  0
 13 15  2  0  0  0  0
 17 23  1  0  0  0  0
 18 19  2  0  0  0  0
 19 24  1  0  0  0  0
 20 21  1  0  0  0  0
 20 26  1  0  0  0  0
 20 29  2  0  0  0  0
 22 25  1  0  0  0  0
 22 26  2  0  0  0  0
 23 24  2  0  0  0  0
 25 34  1  0  0  0  0
 27 32  1  0  0  0  0
 28 33  1  0  0  0  0
 29 31  1  0  0  0  0
M  END
> <PUBCHEM_COMPOUND_ID_TYPE>
0

> <PUBCHEM_TOTAL_CHARGE>
0

> <PUBCHEM_SUBSTANCE_ID>
310943415

> <PUBCHEM_SUBSTANCE_VERSION>
1

> <PUBCHEM_EXT_DATASOURCE_NAME>
4488

> <PUBCHEM_EXT_DATASOURCE_REGID>
SCHEMBL16121479

> <PUBCHEM_SUBSTANCE_COMMENT>
InChI=1S/C24H23F3N4O3/c1-24(26,27)21-12-15(5-6-28-21)22(32)29-17-3-4-19(25)18(13-17)16-11-20(23(33)30(2)14-16)31-7-9-34-10-8-31/h3-6,11-14H,7-10H2,1-2H3,(H,29,32)
InChIKey=BEKQTRAXPYBKMD-UHFFFAOYSA-N

> <PUBCHEM_SUBSTANCE_SYNONYM>
SCHEMBL16121479

> <PUBCHEM_XREF_EXT_ID>
SCHEMBL16121479

> <PUBCHEM_EXT_DATASOURCE_URL>
https://www.surechembl.org/

> <PUBCHEM_EXT_SUBSTANCE_URL>
https://www.surechembl.org/chemical/SCHEMBL16121479

> <PUBCHEM_CID_ASSOCIATIONS>
117609839  1

> <PUBCHEM_COORDINATE_TYPE>
1
3

$$$$
