310928812
  -OEChem-07211613022D

  6  6  0     1  0  0  0  0  0999 V2000
   -0.4125    0.9760    0.0000 N   0  0  0  0  0  0  0  0  0  0  0  0
    0.3020   -0.2615    0.0000 C   0  0  0  0  0  0  0  0  0  0  0  0
   -0.4125    0.1510    0.0000 C   0  0  3  0  0  0  0  0  0  0  0  0
    1.1270   -0.2615    0.0000 C   0  0  0  0  0  0  0  0  0  0  0  0
    0.7145   -0.9760    0.0000 C   0  0  0  0  0  0  0  0  0  0  0  0
   -1.1270   -0.2615    0.0000 C   0  0  0  0  0  0  0  0  0  0  0  0
  3  1  1  6  0  0  0
  2  3  1  0  0  0  0
  2  4  1  0  0  0  0
  2  5  1  0  0  0  0
  3  6  1  0  0  0  0
  4  5  1  0  0  0  0
M  END
> <PUBCHEM_COMPOUND_ID_TYPE>
0

> <PUBCHEM_TOTAL_CHARGE>
0

> <PUBCHEM_SUBSTANCE_ID>
310928812

> <PUBCHEM_SUBSTANCE_VERSION>
1

> <PUBCHEM_EXT_DATASOURCE_NAME>
11752

> <PUBCHEM_EXT_DATASOURCE_REGID>
BD48482

> <PUBCHEM_SUBSTANCE_SYNONYM>
(S)-1-Cyclopropylethanamine
195604-39-8

> <PUBCHEM_GENERIC_REGISTRY_NAME>
195604-39-8

> <PUBCHEM_XREF_EXT_ID>
BD48482

> <PUBCHEM_EXT_DATASOURCE_URL>
http://www.bidepharmatech.com/en/index.html

> <PUBCHEM_EXT_SUBSTANCE_URL>
http://www.bidepharmatech.com/en/goodsview_goodscode_BD48482.html

> <PUBCHEM_CID_ASSOCIATIONS>
7363995  1

> <PUBCHEM_COORDINATE_TYPE>
1
3

> <PUBCHEM_BONDANNOTATIONS>
3  1  6

$$$$
