310943916
  -OEChem-07211613022D

 32 36  0     1  0  0  0  0  0999 V2000
    2.4821    0.2807    0.0000 O   0  0  0  0  0  0  0  0  0  0  0  0
    5.0027   -1.2713    0.0000 O   0  0  0  0  0  0  0  0  0  0  0  0
    5.4650    0.1156    0.0000 O   0  0  0  0  0  0  0  0  0  0  0  0
   -1.3043   -0.8530    0.0000 O   0  0  0  0  0  0  0  0  0  0  0  0
    2.8673   -1.1282    0.0000 N   0  0  0  0  0  0  0  0  0  0  0  0
    0.1266   -0.0275    0.0000 N   0  0  0  0  0  0  0  0  0  0  0  0
   -4.1552    1.6126    0.0000 N   0  0  0  0  0  0  0  0  0  0  0  0
   -2.7242   -0.0386    0.0000 N   0  0  0  0  0  0  0  0  0  0  0  0
   -2.7242    1.6126    0.0000 N   0  0  0  0  0  0  0  0  0  0  0  0
   -4.2432    2.4381    0.0000 N   0  0  0  0  0  0  0  0  0  0  0  0
   -5.0467    2.6032    0.0000 N   0  0  0  0  0  0  0  0  0  0  0  0
   -5.4650    1.8877    0.0000 N   0  0  0  0  0  0  0  0  0  0  0  0
    1.5575   -0.8421    0.0000 C   0  0  0  0  0  0  0  0  0  0  0  0
    2.2950   -0.5339    0.0000 C   0  0  0  0  0  0  0  0  0  0  0  0
    2.4490   -1.8436    0.0000 C   0  0  0  0  0  0  0  0  0  0  0  0
    1.6456   -1.6565    0.0000 C   0  0  0  0  0  0  0  0  0  0  0  0
    3.6819   -1.0401    0.0000 C   0  0  0  0  0  0  0  0  0  0  0  0
    0.8421   -1.2603    0.0000 C   0  0  0  0  0  0  0  0  0  0  0  0
    1.5575   -0.0275    0.0000 C   0  0  0  0  0  0  0  0  0  0  0  0
    0.1376   -0.8530    0.0000 C   0  0  0  0  0  0  0  0  0  0  0  0
    0.8310    0.3797    0.0000 C   0  0  0  0  0  0  0  0  0  0  0  0
    4.0781   -0.3137    0.0000 C   0  0  0  0  0  0  0  0  0  0  0  0
    4.2652   -1.6235    0.0000 C   0  0  0  0  0  0  0  0  0  0  0  0
    2.8013   -2.6032    0.0000 C   0  0  0  0  0  0  0  0  0  0  0  0
    4.8706   -0.4568    0.0000 C   0  0  0  0  0  0  0  0  0  0  0  0
   -0.5999    0.3797    0.0000 C   0  0  0  0  0  0  0  0  0  0  0  0
   -1.2824   -0.0165    0.0000 C   0  0  3  0  0  0  0  0  0  0  0  0
   -2.0198    0.3908    0.0000 C   0  0  0  0  0  0  0  0  0  0  0  0
   -3.4397    1.2163    0.0000 C   0  0  0  0  0  0  0  0  0  0  0  0
   -2.0087    1.2163    0.0000 C   0  0  0  0  0  0  0  0  0  0  0  0
   -3.4397    0.3908    0.0000 C   0  0  0  0  0  0  0  0  0  0  0  0
   -4.9036    1.2933    0.0000 C   0  0  0  0  0  0  0  0  0  0  0  0
  1 14  2  0  0  0  0
  2 23  1  0  0  0  0
  2 25  1  0  0  0  0
  3 25  2  0  0  0  0
 27  4  1  6  0  0  0
  5 14  1  0  0  0  0
  5 15  1  0  0  0  0
  5 17  1  0  0  0  0
  6 20  1  0  0  0  0
  6 21  1  0  0  0  0
  6 26  1  0  0  0  0
  7 10  1  0  0  0  0
  7 29  1  0  0  0  0
  7 32  1  0  0  0  0
  8 28  1  0  0  0  0
  8 31  2  0  0  0  0
  9 29  2  0  0  0  0
  9 30  1  0  0  0  0
 10 11  2  0  0  0  0
 11 12  1  0  0  0  0
 12 32  2  0  0  0  0
 13 14  1  0  0  0  0
 13 16  1  0  0  0  0
 13 18  1  0  0  0  0
 13 19  1  0  0  0  0
 15 16  2  0  0  0  0
 15 24  1  0  0  0  0
 17 22  2  0  0  0  0
 17 23  1  0  0  0  0
 18 20  1  0  0  0  0
 19 21  1  0  0  0  0
 22 25  1  0  0  0  0
 26 27  1  0  0  0  0
 27 28  1  0  0  0  0
 28 30  2  0  0  0  0
 29 31  1  0  0  0  0
M  END
> <PUBCHEM_COMPOUND_ID_TYPE>
0

> <PUBCHEM_TOTAL_CHARGE>
0

> <PUBCHEM_SUBSTANCE_ID>
310943916

> <PUBCHEM_SUBSTANCE_VERSION>
1

> <PUBCHEM_EXT_DATASOURCE_NAME>
4488

> <PUBCHEM_EXT_DATASOURCE_REGID>
SCHEMBL16121987

> <PUBCHEM_SUBSTANCE_COMMENT>
InChI=1S/C20H22N8O4/c1-13-7-20(19(31)28(13)14-6-18(30)32-11-14)2-4-26(5-3-20)10-16(29)15-8-22-17(9-21-15)27-12-23-24-25-27/h6-9,12,16,29H,2-5,10-11H2,1H3/t16-/m0/s1
InChIKey=YKCHPIGLVSECRP-INIZCTEOSA-N

> <PUBCHEM_SUBSTANCE_SYNONYM>
SCHEMBL16121987

> <PUBCHEM_XREF_EXT_ID>
SCHEMBL16121987

> <PUBCHEM_EXT_DATASOURCE_URL>
https://www.surechembl.org/

> <PUBCHEM_EXT_SUBSTANCE_URL>
https://www.surechembl.org/chemical/SCHEMBL16121987

> <PUBCHEM_CID_ASSOCIATIONS>
86270981  1

> <PUBCHEM_COORDINATE_TYPE>
1
3

> <PUBCHEM_BONDANNOTATIONS>
27  4  6

$$$$
