310946356
  -OEChem-07211613022D

 12 11  0     0  0  0  0  0  0999 V2000
   -1.7725   -0.9895    0.0000 F   0  0  0  0  0  0  0  0  0  0  0  0
   -2.8748   -0.6765    0.0000 F   0  0  0  0  0  0  0  0  0  0  0  0
   -2.5491    0.4384    0.0000 F   0  0  0  0  0  0  0  0  0  0  0  0
   -0.7454   -0.2630    0.0000 O   0  0  0  0  0  0  0  0  0  0  0  0
   -1.4593    0.9895    0.0000 O   0  0  0  0  0  0  0  0  0  0  0  0
    2.8748    0.9895    0.0000 O   0  0  0  0  0  0  0  0  0  0  0  0
    1.4468    0.1628    0.0000 N   0  0  0  0  0  0  0  0  0  0  0  0
   -2.1733   -0.2630    0.0000 C   0  0  0  0  0  0  0  0  0  0  0  0
   -1.4593    0.1378    0.0000 C   0  0  0  0  0  0  0  0  0  0  0  0
   -0.0062    0.1628    0.0000 C   0  0  0  0  0  0  0  0  0  0  0  0
    0.7328   -0.2505    0.0000 C   0  0  0  0  0  0  0  0  0  0  0  0
    2.1608    0.5762    0.0000 C   0  0  0  0  0  0  0  0  0  0  0  0
  1  8  1  0  0  0  0
  2  8  1  0  0  0  0
  3  8  1  0  0  0  0
  4  9  1  0  0  0  0
  4 10  1  0  0  0  0
  5  9  2  0  0  0  0
  6 12  2  0  0  0  0
  7 11  1  0  0  0  0
  7 12  2  0  0  0  0
  8  9  1  0  0  0  0
 10 11  1  0  0  0  0
M  END
> <PUBCHEM_COMPOUND_ID_TYPE>
0

> <PUBCHEM_TOTAL_CHARGE>
0

> <PUBCHEM_SUBSTANCE_ID>
310946356

> <PUBCHEM_SUBSTANCE_VERSION>
1

> <PUBCHEM_EXT_DATASOURCE_NAME>
4488

> <PUBCHEM_EXT_DATASOURCE_REGID>
SCHEMBL16124475

> <PUBCHEM_SUBSTANCE_COMMENT>
InChI=1S/C5H4F3NO3/c6-5(7,8)4(11)12-2-1-9-3-10/h1-2H2
InChIKey=WUBYPSYXPGCBIW-UHFFFAOYSA-N

> <PUBCHEM_SUBSTANCE_SYNONYM>
SCHEMBL16124475

> <PUBCHEM_XREF_EXT_ID>
SCHEMBL16124475

> <PUBCHEM_EXT_DATASOURCE_URL>
https://www.surechembl.org/

> <PUBCHEM_EXT_SUBSTANCE_URL>
https://www.surechembl.org/chemical/SCHEMBL16124475

> <PUBCHEM_CID_ASSOCIATIONS>
117612279  1

> <PUBCHEM_COORDINATE_TYPE>
1
3

$$$$
