310945340
  -OEChem-07211613022D

 26 28  0     0  0  0  0  0  0999 V2000
   -0.7236    1.5012    0.0000 F   0  0  0  0  0  0  0  0  0  0  0  0
   -0.0068    1.9070    0.0000 F   0  0  0  0  0  0  0  0  0  0  0  0
    0.7101    1.4878    0.0000 F   0  0  0  0  0  0  0  0  0  0  0  0
    3.5503   -2.7050    0.0000 F   0  0  0  0  0  0  0  0  0  0  0  0
   -1.4404   -1.4471    0.0000 O   0  0  0  0  0  0  0  0  0  0  0  0
    0.6965   -0.1893    0.0000 N   0  0  0  0  0  0  0  0  0  0  0  0
   -0.0203   -1.4471    0.0000 N   0  0  0  0  0  0  0  0  0  0  0  0
   -1.4404    0.2434    0.0000 N   0  0  0  0  0  0  0  0  0  0  0  0
   -1.4404    1.0820    0.0000 N   0  0  0  0  0  0  0  0  0  0  0  0
   -0.0203    0.2164    0.0000 C   0  0  0  0  0  0  0  0  0  0  0  0
   -0.7236   -0.1893    0.0000 C   0  0  0  0  0  0  0  0  0  0  0  0
   -0.0068    1.0684    0.0000 C   0  0  0  0  0  0  0  0  0  0  0  0
    0.6965   -1.0414    0.0000 C   0  0  0  0  0  0  0  0  0  0  0  0
   -0.7371   -1.0414    0.0000 C   0  0  0  0  0  0  0  0  0  0  0  0
    1.4269   -1.4607    0.0000 C   0  0  0  0  0  0  0  0  0  0  0  0
    1.4269   -2.2992    0.0000 C   0  0  0  0  0  0  0  0  0  0  0  0
    2.1302   -1.0549    0.0000 C   0  0  0  0  0  0  0  0  0  0  0  0
    2.1302   -2.7185    0.0000 C   0  0  0  0  0  0  0  0  0  0  0  0
    2.8334   -1.4607    0.0000 C   0  0  0  0  0  0  0  0  0  0  0  0
   -2.1437    1.4878    0.0000 C   0  0  0  0  0  0  0  0  0  0  0  0
    2.8199   -2.2992    0.0000 C   0  0  0  0  0  0  0  0  0  0  0  0
   -2.1437    2.3128    0.0000 C   0  0  0  0  0  0  0  0  0  0  0  0
   -2.8199    1.0684    0.0000 C   0  0  0  0  0  0  0  0  0  0  0  0
   -2.8199    2.7185    0.0000 C   0  0  0  0  0  0  0  0  0  0  0  0
   -3.5503    1.4878    0.0000 C   0  0  0  0  0  0  0  0  0  0  0  0
   -3.5503    2.2992    0.0000 C   0  0  0  0  0  0  0  0  0  0  0  0
  1 12  1  0  0  0  0
  2 12  1  0  0  0  0
  3 12  1  0  0  0  0
  4 21  1  0  0  0  0
  5 14  1  0  0  0  0
  6 10  2  0  0  0  0
  6 13  1  0  0  0  0
  7 13  2  0  0  0  0
  7 14  1  0  0  0  0
  8  9  2  0  0  0  0
  8 11  1  0  0  0  0
  9 20  1  0  0  0  0
 10 11  1  0  0  0  0
 10 12  1  0  0  0  0
 11 14  2  0  0  0  0
 13 15  1  0  0  0  0
 15 16  2  0  0  0  0
 15 17  1  0  0  0  0
 16 18  1  0  0  0  0
 17 19  2  0  0  0  0
 18 21  2  0  0  0  0
 19 21  1  0  0  0  0
 20 22  2  0  0  0  0
 20 23  1  0  0  0  0
 22 24  1  0  0  0  0
 23 25  2  0  0  0  0
 24 26  2  0  0  0  0
 25 26  1  0  0  0  0
M  END
> <PUBCHEM_COMPOUND_ID_TYPE>
0

> <PUBCHEM_TOTAL_CHARGE>
0

> <PUBCHEM_SUBSTANCE_ID>
310945340

> <PUBCHEM_SUBSTANCE_VERSION>
1

> <PUBCHEM_EXT_DATASOURCE_NAME>
4488

> <PUBCHEM_EXT_DATASOURCE_REGID>
SCHEMBL16123438

> <PUBCHEM_SUBSTANCE_COMMENT>
InChI=1S/C17H10F4N4O/c18-11-8-6-10(7-9-11)15-22-14(17(19,20)21)13(16(26)23-15)25-24-12-4-2-1-3-5-12/h1-9H,(H,22,23,26)/b25-24+
InChIKey=GDNVMQCNQIJERT-OCOZRVBESA-N

> <PUBCHEM_SUBSTANCE_SYNONYM>
SCHEMBL16123438

> <PUBCHEM_XREF_EXT_ID>
SCHEMBL16123438

> <PUBCHEM_EXT_DATASOURCE_URL>
https://www.surechembl.org/

> <PUBCHEM_EXT_SUBSTANCE_URL>
https://www.surechembl.org/chemical/SCHEMBL16123438

> <PUBCHEM_CID_ASSOCIATIONS>
117611399  1

> <PUBCHEM_COORDINATE_TYPE>
1
3

$$$$
