310937376
  -OEChem-07211613022D

 31 34  0     0  0  0  0  0  0999 V2000
    1.4485   -1.2509    0.0000 O   0  0  0  0  0  0  0  0  0  0  0  0
    7.1435   -6.2218    0.0000 O   0  0  0  0  0  0  0  0  0  0  0  0
    8.5920   -6.2547    0.0000 O   0  0  0  0  0  0  0  0  0  0  0  0
    2.1397    0.0000    0.0000 O   0  0  0  0  0  0  0  0  0  0  0  0
    7.8677   -3.3578    0.0000 N   0  0  0  0  0  0  0  0  0  0  0  0
    7.1764   -4.6087    0.0000 N   0  0  0  0  0  0  0  0  0  0  0  0
    4.3124   -2.0739    0.0000 N   0  0  0  0  0  0  0  0  0  0  0  0
    5.0367   -3.3248    0.0000 N   0  0  0  0  0  0  0  0  0  0  0  0
    2.8640   -1.2509    0.0000 N   0  0  0  0  0  0  0  0  0  0  0  0
    8.5920   -4.6087    0.0000 C   0  0  0  0  0  0  0  0  0  0  0  0
    8.5920   -3.7528    0.0000 C   0  0  0  0  0  0  0  0  0  0  0  0
    7.1764   -3.7528    0.0000 C   0  0  0  0  0  0  0  0  0  0  0  0
    7.8677   -5.0038    0.0000 C   0  0  0  0  0  0  0  0  0  0  0  0
    6.4851   -3.3578    0.0000 C   0  0  0  0  0  0  0  0  0  0  0  0
    5.0038   -2.5019    0.0000 C   0  0  0  0  0  0  0  0  0  0  0  0
    9.3820   -4.8391    0.0000 C   0  0  0  0  0  0  0  0  0  0  0  0
    9.3820   -3.5224    0.0000 C   0  0  0  0  0  0  0  0  0  0  0  0
    7.8677   -5.8267    0.0000 C   0  0  0  0  0  0  0  0  0  0  0  0
    5.7280   -3.7528    0.0000 C   0  0  0  0  0  0  0  0  0  0  0  0
    6.4522   -2.5019    0.0000 C   0  0  0  0  0  0  0  0  0  0  0  0
    9.8758   -4.1808    0.0000 C   0  0  0  0  0  0  0  0  0  0  0  0
    5.7609   -2.1068    0.0000 C   0  0  0  0  0  0  0  0  0  0  0  0
    4.3124   -1.2509    0.0000 C   0  0  0  0  0  0  0  0  0  0  0  0
    3.5882   -2.5019    0.0000 C   0  0  0  0  0  0  0  0  0  0  0  0
    2.1397   -0.8230    0.0000 C   0  0  0  0  0  0  0  0  0  0  0  0
    2.8640   -2.0739    0.0000 C   0  0  0  0  0  0  0  0  0  0  0  0
    3.5882   -0.8230    0.0000 C   0  0  0  0  0  0  0  0  0  0  0  0
    0.7242   -0.8230    0.0000 C   0  0  0  0  0  0  0  0  0  0  0  0
    0.0000   -0.3951    0.0000 C   0  0  0  0  0  0  0  0  0  0  0  0
    1.1522   -0.0988    0.0000 C   0  0  0  0  0  0  0  0  0  0  0  0
    0.2963   -1.5472    0.0000 C   0  0  0  0  0  0  0  0  0  0  0  0
  1 25  1  0  0  0  0
  1 28  1  0  0  0  0
  2 18  2  0  0  0  0
  3 18  1  0  0  0  0
  4 25  2  0  0  0  0
  5 11  2  0  0  0  0
  5 12  1  0  0  0  0
  6 12  2  0  0  0  0
  6 13  1  0  0  0  0
  7 15  1  0  0  0  0
  7 23  1  0  0  0  0
  7 24  1  0  0  0  0
  8 15  2  0  0  0  0
  8 19  1  0  0  0  0
  9 25  1  0  0  0  0
  9 26  1  0  0  0  0
  9 27  1  0  0  0  0
 10 11  1  0  0  0  0
 10 13  2  0  0  0  0
 10 16  1  0  0  0  0
 11 17  1  0  0  0  0
 12 14  1  0  0  0  0
 13 18  1  0  0  0  0
 14 19  2  0  0  0  0
 14 20  1  0  0  0  0
 15 22  1  0  0  0  0
 16 21  1  0  0  0  0
 17 21  1  0  0  0  0
 20 22  2  0  0  0  0
 23 27  1  0  0  0  0
 24 26  1  0  0  0  0
 28 29  1  0  0  0  0
 28 30  1  0  0  0  0
 28 31  1  0  0  0  0
M  END
> <PUBCHEM_COMPOUND_ID_TYPE>
0

> <PUBCHEM_TOTAL_CHARGE>
0

> <PUBCHEM_SUBSTANCE_ID>
310937376

> <PUBCHEM_SUBSTANCE_VERSION>
1

> <PUBCHEM_EXT_DATASOURCE_NAME>
4488

> <PUBCHEM_EXT_DATASOURCE_REGID>
SCHEMBL16115132

> <PUBCHEM_SUBSTANCE_COMMENT>
InChI=1S/C22H27N5O4/c1-22(2,3)31-21(30)27-11-9-26(10-12-27)17-8-7-14(13-23-17)19-24-16-6-4-5-15(16)18(25-19)20(28)29/h7-8,13H,4-6,9-12H2,1-3H3,(H,28,29)
InChIKey=ABJDKDQXQLHLTP-UHFFFAOYSA-N

> <PUBCHEM_SUBSTANCE_SYNONYM>
SCHEMBL16115132

> <PUBCHEM_XREF_EXT_ID>
SCHEMBL16115132

> <PUBCHEM_EXT_DATASOURCE_URL>
https://www.surechembl.org/

> <PUBCHEM_EXT_SUBSTANCE_URL>
https://www.surechembl.org/chemical/SCHEMBL16115132

> <PUBCHEM_CID_ASSOCIATIONS>
117605145  1

> <PUBCHEM_COORDINATE_TYPE>
1
3

$$$$
