310942803
  -OEChem-07211613022D

 22 22  0     0  0  0  0  0  0999 V2000
   -2.0122    0.6985    0.0000 O   0  0  0  0  0  0  0  0  0  0  0  0
   -2.7012   -2.2105    0.0000 O   0  0  0  0  0  0  0  0  0  0  0  0
    2.9658    0.3563    0.0000 O   0  0  0  0  0  0  0  0  0  0  0  0
    2.4570   -0.4804    0.0000 O   0  0  0  0  0  0  0  0  0  0  0  0
    1.5475   -0.2584    0.0000 O   0  0  0  0  0  0  0  0  0  0  0  0
   -2.1270   -0.8134    0.0000 N   0  0  0  0  0  0  0  0  0  0  0  0
    0.1312   -0.6411    0.0000 N   0  0  0  0  0  0  0  0  0  0  0  0
    0.8967    2.2105    0.0000 N   0  0  0  0  0  0  0  0  0  0  0  0
   -2.7778   -1.3493    0.0000 C   0  0  0  0  0  0  0  0  0  0  0  0
   -2.4715   -0.0478    0.0000 C   0  0  0  0  0  0  0  0  0  0  0  0
   -3.2945   -0.1052    0.0000 C   0  0  0  0  0  0  0  0  0  0  0  0
   -3.4858   -0.9282    0.0000 C   0  0  0  0  0  0  0  0  0  0  0  0
   -1.2850   -1.0239    0.0000 C   0  0  0  0  0  0  0  0  0  0  0  0
    2.9771    0.9215    0.0000 C   0  0  0  0  0  0  0  0  0  0  0  0
   -0.6725   -0.4306    0.0000 C   0  0  0  0  0  0  0  0  0  0  0  0
    2.4570    0.0623    0.0000 C   0  0  0  0  0  0  0  0  0  0  0  0
    0.7054   -0.0287    0.0000 C   0  0  0  0  0  0  0  0  0  0  0  0
    0.5140    0.7560    0.0000 C   0  0  0  0  0  0  0  0  0  0  0  0
    1.1264    1.3875    0.0000 C   0  0  0  0  0  0  0  0  0  0  0  0
    3.4858    0.9441    0.0000 C   0  0  0  0  0  0  0  0  0  0  0  0
    2.4570    0.9215    0.0000 C   0  0  0  0  0  0  0  0  0  0  0  0
    2.9658    1.4756    0.0000 C   0  0  0  0  0  0  0  0  0  0  0  0
  1 10  2  0  0  0  0
  2  9  2  0  0  0  0
  3 14  1  0  0  0  0
  3 16  1  0  0  0  0
  4 16  2  0  0  0  0
  5 17  2  0  0  0  0
  6  9  1  0  0  0  0
  6 10  1  0  0  0  0
  6 13  1  0  0  0  0
  7 15  1  0  0  0  0
  7 17  1  0  0  0  0
  8 16  1  0  0  0  0
  8 19  1  0  0  0  0
  9 12  1  0  0  0  0
 10 11  1  0  0  0  0
 11 12  2  0  0  0  0
 13 15  1  0  0  0  0
 14 20  1  0  0  0  0
 14 21  1  0  0  0  0
 14 22  1  0  0  0  0
 17 18  1  0  0  0  0
 18 19  1  0  0  0  0
M  END
> <PUBCHEM_COMPOUND_ID_TYPE>
0

> <PUBCHEM_TOTAL_CHARGE>
0

> <PUBCHEM_SUBSTANCE_ID>
310942803

> <PUBCHEM_SUBSTANCE_VERSION>
1

> <PUBCHEM_EXT_DATASOURCE_NAME>
4488

> <PUBCHEM_EXT_DATASOURCE_REGID>
SCHEMBL16120857

> <PUBCHEM_SUBSTANCE_COMMENT>
InChI=1S/C14H21N3O5/c1-14(2,3)22-13(21)16-7-6-10(18)15-8-9-17-11(19)4-5-12(17)20/h4-5H,6-9H2,1-3H3,(H,15,18)(H,16,21)
InChIKey=XILLCAYOCROKGS-UHFFFAOYSA-N

> <PUBCHEM_SUBSTANCE_SYNONYM>
SCHEMBL16120857

> <PUBCHEM_XREF_EXT_ID>
SCHEMBL16120857

> <PUBCHEM_EXT_DATASOURCE_URL>
https://www.surechembl.org/

> <PUBCHEM_EXT_SUBSTANCE_URL>
https://www.surechembl.org/chemical/SCHEMBL16120857

> <PUBCHEM_CID_ASSOCIATIONS>
117609307  1

> <PUBCHEM_COORDINATE_TYPE>
1
3

$$$$
