310932598
  -OEChem-07211613022D

 26 29  0     0  0  0  0  0  0999 V2000
    2.8733   -2.1344    0.0000 O   0  0  0  0  0  0  0  0  0  0  0  0
    0.1368   -2.3807    0.0000 O   0  0  0  0  0  0  0  0  0  0  0  0
    7.3610   -2.2165    0.0000 O   0  0  0  0  0  0  0  0  0  0  0  0
    3.7763   -0.9578    0.0000 N   0  0  0  0  0  0  0  0  0  0  0  0
    3.6942   -0.1368    0.0000 N   0  0  0  0  0  0  0  0  0  0  0  0
    5.1992   -0.9578    0.0000 N   0  0  0  0  0  0  0  0  0  0  0  0
    6.6495   -3.4479    0.0000 N   0  0  0  0  0  0  0  0  0  0  0  0
    0.0000   -0.9851    0.0000 N   0  0  0  0  0  0  0  0  0  0  0  0
    2.4354   -0.7115    0.0000 C   0  0  0  0  0  0  0  0  0  0  0  0
    3.0101   -1.3135    0.0000 C   0  0  0  0  0  0  0  0  0  0  0  0
    4.4878   -1.3956    0.0000 C   0  0  0  0  0  0  0  0  0  0  0  0
    1.6145   -0.7935    0.0000 C   0  0  0  0  0  0  0  0  0  0  0  0
    2.8733    0.0000    0.0000 C   0  0  0  0  0  0  0  0  0  0  0  0
    4.4878   -2.2165    0.0000 C   0  0  0  0  0  0  0  0  0  0  0  0
    5.9381   -2.2165    0.0000 C   0  0  0  0  0  0  0  0  0  0  0  0
    1.3135   -1.5872    0.0000 C   0  0  0  0  0  0  0  0  0  0  0  0
    1.1493   -0.1368    0.0000 C   0  0  0  0  0  0  0  0  0  0  0  0
    5.9381   -1.3956    0.0000 C   0  0  0  0  0  0  0  0  0  0  0  0
    5.1992   -2.6270    0.0000 C   0  0  0  0  0  0  0  0  0  0  0  0
    6.6495   -2.6270    0.0000 C   0  0  0  0  0  0  0  0  0  0  0  0
    0.4652   -1.6419    0.0000 C   0  0  0  0  0  0  0  0  0  0  0  0
    7.3884   -3.8858    0.0000 C   0  0  0  0  0  0  0  0  0  0  0  0
    0.3010   -0.1915    0.0000 C   0  0  0  0  0  0  0  0  0  0  0  0
    8.2093   -3.8858    0.0000 C   0  0  0  0  0  0  0  0  0  0  0  0
    7.7988   -4.5972    0.0000 C   0  0  0  0  0  0  0  0  0  0  0  0
    0.6020   -3.0648    0.0000 C   0  0  0  0  0  0  0  0  0  0  0  0
  1 10  1  0  0  0  0
  2 21  1  0  0  0  0
  2 26  1  0  0  0  0
  3 20  2  0  0  0  0
  4  5  1  0  0  0  0
  4 10  1  0  0  0  0
  4 11  1  0  0  0  0
  5 13  2  0  0  0  0
  6 11  2  0  0  0  0
  6 18  1  0  0  0  0
  7 20  1  0  0  0  0
  7 22  1  0  0  0  0
  8 21  1  0  0  0  0
  8 23  2  0  0  0  0
  9 10  2  0  0  0  0
  9 12  1  0  0  0  0
  9 13  1  0  0  0  0
 11 14  1  0  0  0  0
 12 16  1  0  0  0  0
 12 17  2  0  0  0  0
 14 19  2  0  0  0  0
 15 18  2  0  0  0  0
 15 19  1  0  0  0  0
 15 20  1  0  0  0  0
 16 21  2  0  0  0  0
 17 23  1  0  0  0  0
 22 24  1  0  0  0  0
 22 25  1  0  0  0  0
 24 25  1  0  0  0  0
M  END
> <PUBCHEM_COMPOUND_ID_TYPE>
0

> <PUBCHEM_TOTAL_CHARGE>
0

> <PUBCHEM_SUBSTANCE_ID>
310932598

> <PUBCHEM_SUBSTANCE_VERSION>
1

> <PUBCHEM_EXT_DATASOURCE_NAME>
4488

> <PUBCHEM_EXT_DATASOURCE_REGID>
SCHEMBL16109976

> <PUBCHEM_SUBSTANCE_COMMENT>
InChI=1S/C18H17N5O3/c1-26-16-8-11(6-7-19-16)14-10-21-23(18(14)25)15-5-2-12(9-20-15)17(24)22-13-3-4-13/h2,5-10,13,25H,3-4H2,1H3,(H,22,24)
InChIKey=STDMRDIOMAJPSL-UHFFFAOYSA-N

> <PUBCHEM_SUBSTANCE_SYNONYM>
SCHEMBL16109976

> <PUBCHEM_XREF_EXT_ID>
SCHEMBL16109976

> <PUBCHEM_EXT_DATASOURCE_URL>
https://www.surechembl.org/

> <PUBCHEM_EXT_SUBSTANCE_URL>
https://www.surechembl.org/chemical/SCHEMBL16109976

> <PUBCHEM_CID_ASSOCIATIONS>
117601120  1

> <PUBCHEM_COORDINATE_TYPE>
1
3

$$$$
