310928981
  -OEChem-07211613022D

 14 15  0     0  0  0  0  0  0999 V2000
   -1.2196    1.1495    0.0000 S   0  0  0  0  0  0  0  0  0  0  0  0
    1.7246    1.1540    0.0000 O   0  0  0  0  0  0  0  0  0  0  0  0
    2.4390   -0.0835    0.0000 O   0  0  0  0  0  0  0  0  0  0  0  0
   -0.4189   -0.9085    0.0000 N   0  0  0  0  0  0  0  0  0  0  0  0
   -0.4189   -0.0835    0.0000 C   0  0  0  0  0  0  0  0  0  0  0  0
   -1.1333    0.3290    0.0000 C   0  0  0  0  0  0  0  0  0  0  0  0
    1.0101   -0.0835    0.0000 C   0  0  0  0  0  0  0  0  0  0  0  0
    0.2956    0.3290    0.0000 C   0  0  0  0  0  0  0  0  0  0  0  0
    1.0101   -0.9085    0.0000 C   0  0  0  0  0  0  0  0  0  0  0  0
    1.7246    0.3290    0.0000 C   0  0  0  0  0  0  0  0  0  0  0  0
   -1.8870   -0.0066    0.0000 C   0  0  0  0  0  0  0  0  0  0  0  0
    0.2956   -1.3210    0.0000 C   0  0  0  0  0  0  0  0  0  0  0  0
   -2.0265    1.3210    0.0000 C   0  0  0  0  0  0  0  0  0  0  0  0
   -2.4390    0.6065    0.0000 C   0  0  0  0  0  0  0  0  0  0  0  0
  1  6  1  0  0  0  0
  1 13  1  0  0  0  0
  2 10  2  0  0  0  0
  3 10  1  0  0  0  0
  4  5  1  0  0  0  0
  4 12  2  0  0  0  0
  5  6  1  0  0  0  0
  5  8  2  0  0  0  0
  6 11  2  0  0  0  0
  7  8  1  0  0  0  0
  7  9  2  0  0  0  0
  7 10  1  0  0  0  0
  9 12  1  0  0  0  0
 11 14  1  0  0  0  0
 13 14  2  0  0  0  0
M  END
> <PUBCHEM_COMPOUND_ID_TYPE>
0

> <PUBCHEM_TOTAL_CHARGE>
0

> <PUBCHEM_SUBSTANCE_ID>
310928981

> <PUBCHEM_SUBSTANCE_VERSION>
1

> <PUBCHEM_EXT_DATASOURCE_NAME>
11752

> <PUBCHEM_EXT_DATASOURCE_REGID>
BD320031

> <PUBCHEM_SUBSTANCE_SYNONYM>
2-(Thiophen-2-yl)isonicotinic acid
893723-57-4

> <PUBCHEM_GENERIC_REGISTRY_NAME>
893723-57-4

> <PUBCHEM_XREF_EXT_ID>
BD320031

> <PUBCHEM_EXT_DATASOURCE_URL>
http://www.bidepharmatech.com/en/index.html

> <PUBCHEM_EXT_SUBSTANCE_URL>
http://www.bidepharmatech.com/en/goodsview_goodscode_BD320031.html

> <PUBCHEM_CID_ASSOCIATIONS>
4739102  1

> <PUBCHEM_COORDINATE_TYPE>
1
3

$$$$
