310940368
  -OEChem-07211613022D

 29 31  0     0  0  0  0  0  0999 V2000
    3.9735   -1.2456    0.0000 Cl  0  0  0  0  0  0  0  0  0  0  0  0
   -1.3403   -1.3213    0.0000 F   0  0  0  0  0  0  0  0  0  0  0  0
   -2.2117   -2.0412    0.0000 F   0  0  0  0  0  0  0  0  0  0  0  0
   -2.9316   -1.1414    0.0000 F   0  0  0  0  0  0  0  0  0  0  0  0
   -3.7651    0.7151    0.0000 F   0  0  0  0  0  0  0  0  0  0  0  0
   -3.9735    1.8233    0.0000 F   0  0  0  0  0  0  0  0  0  0  0  0
   -2.8558    2.0412    0.0000 F   0  0  0  0  0  0  0  0  0  0  0  0
   -0.3741    1.9181    0.0000 O   0  0  0  0  0  0  0  0  0  0  0  0
    2.3159    1.6244    0.0000 O   0  0  0  0  0  0  0  0  0  0  0  0
    1.4918    0.1941    0.0000 N   0  0  0  0  0  0  0  0  0  0  0  0
    0.2132   -0.2132    0.0000 N   0  0  0  0  0  0  0  0  0  0  0  0
    0.9993   -0.4689    0.0000 N   0  0  0  0  0  0  0  0  0  0  0  0
   -1.2171    0.7625    0.0000 C   0  0  0  0  0  0  0  0  0  0  0  0
   -2.0506   -0.3931    0.0000 C   0  0  0  0  0  0  0  0  0  0  0  0
   -2.6379    0.9140    0.0000 C   0  0  0  0  0  0  0  0  0  0  0  0
   -0.4594    1.0940    0.0000 C   0  0  0  0  0  0  0  0  0  0  0  0
    0.2132    0.6109    0.0000 C   0  0  0  0  0  0  0  0  0  0  0  0
   -1.8897    1.2361    0.0000 C   0  0  0  0  0  0  0  0  0  0  0  0
   -1.3118   -0.0616    0.0000 C   0  0  0  0  0  0  0  0  0  0  0  0
   -2.7232    0.0900    0.0000 C   0  0  0  0  0  0  0  0  0  0  0  0
   -2.1454   -1.2266    0.0000 C   0  0  0  0  0  0  0  0  0  0  0  0
   -3.3105    1.3876    0.0000 C   0  0  0  0  0  0  0  0  0  0  0  0
    2.3159    0.1941    0.0000 C   0  0  0  0  0  0  0  0  0  0  0  0
    0.9898    0.8667    0.0000 C   0  0  0  0  0  0  0  0  0  0  0  0
    2.7232    0.9235    0.0000 C   0  0  0  0  0  0  0  0  0  0  0  0
    2.7326   -0.5163    0.0000 C   0  0  0  0  0  0  0  0  0  0  0  0
    3.5567   -0.5163    0.0000 C   0  0  0  0  0  0  0  0  0  0  0  0
    3.5567    0.9045    0.0000 C   0  0  0  0  0  0  0  0  0  0  0  0
    3.9640    0.2036    0.0000 C   0  0  0  0  0  0  0  0  0  0  0  0
  1 27  1  0  0  0  0
  2 21  1  0  0  0  0
  3 21  1  0  0  0  0
  4 21  1  0  0  0  0
  5 22  1  0  0  0  0
  6 22  1  0  0  0  0
  7 22  1  0  0  0  0
  8 16  2  0  0  0  0
  9 25  1  0  0  0  0
 10 12  1  0  0  0  0
 10 23  1  0  0  0  0
 10 24  1  0  0  0  0
 11 12  2  0  0  0  0
 11 17  1  0  0  0  0
 13 16  1  0  0  0  0
 13 18  2  0  0  0  0
 13 19  1  0  0  0  0
 14 19  2  0  0  0  0
 14 20  1  0  0  0  0
 14 21  1  0  0  0  0
 15 18  1  0  0  0  0
 15 20  2  0  0  0  0
 15 22  1  0  0  0  0
 16 17  1  0  0  0  0
 17 24  2  0  0  0  0
 23 25  1  0  0  0  0
 23 26  2  0  0  0  0
 25 28  2  0  0  0  0
 26 27  1  0  0  0  0
 27 29  2  0  0  0  0
 28 29  1  0  0  0  0
M  END
> <PUBCHEM_COMPOUND_ID_TYPE>
0

> <PUBCHEM_TOTAL_CHARGE>
0

> <PUBCHEM_SUBSTANCE_ID>
310940368

> <PUBCHEM_SUBSTANCE_VERSION>
1

> <PUBCHEM_EXT_DATASOURCE_NAME>
4488

> <PUBCHEM_EXT_DATASOURCE_REGID>
SCHEMBL16118312

> <PUBCHEM_SUBSTANCE_COMMENT>
InChI=1S/C17H8ClF6N3O2/c18-11-1-2-14(28)13(6-11)27-7-12(25-26-27)15(29)8-3-9(16(19,20)21)5-10(4-8)17(22,23)24/h1-7,28H
InChIKey=ZXTHCPSJOPLMQL-UHFFFAOYSA-N

> <PUBCHEM_SUBSTANCE_SYNONYM>
SCHEMBL16118312

> <PUBCHEM_XREF_EXT_ID>
SCHEMBL16118312

> <PUBCHEM_EXT_DATASOURCE_URL>
https://www.surechembl.org/

> <PUBCHEM_EXT_SUBSTANCE_URL>
https://www.surechembl.org/chemical/SCHEMBL16118312

> <PUBCHEM_CID_ASSOCIATIONS>
86276270  1

> <PUBCHEM_COORDINATE_TYPE>
1
3

$$$$
