310948834
  -OEChem-07211613022D

 37 40  0     0  0  0  0  0  0999 V2000
    2.3254    2.2457    0.0000 O   0  0  0  0  0  0  0  0  0  0  0  0
    1.0504    2.8832    0.0000 O   0  0  0  0  0  0  0  0  0  0  0  0
    0.6447    0.2463    0.0000 N   0  0  0  0  0  0  0  0  0  0  0  0
    1.9922    0.2463    0.0000 N   0  0  0  0  0  0  0  0  0  0  0  0
    0.9055   -0.5361    0.0000 N   0  0  0  0  0  0  0  0  0  0  0  0
   -0.7462    0.3187    0.0000 N   0  0  0  0  0  0  0  0  0  0  0  0
   -0.5723    2.9267    0.0000 N   0  0  0  0  0  0  0  0  0  0  0  0
   -4.0641    0.3187    0.0000 N   0  0  0  0  0  0  0  0  0  0  0  0
    1.3112    0.7389    0.0000 C   0  0  0  0  0  0  0  0  0  0  0  0
    1.0504    1.5068    0.0000 C   0  0  0  0  0  0  0  0  0  0  0  0
   -0.0362    0.7244    0.0000 C   0  0  0  0  0  0  0  0  0  0  0  0
    0.2246    1.5358    0.0000 C   0  0  0  0  0  0  0  0  0  0  0  0
    1.7314   -0.5361    0.0000 C   0  0  0  0  0  0  0  0  0  0  0  0
    1.4851    2.2457    0.0000 C   0  0  0  0  0  0  0  0  0  0  0  0
    2.4558   -0.9562    0.0000 C   0  0  0  0  0  0  0  0  0  0  0  0
   -0.1811    2.2457    0.0000 C   0  0  0  0  0  0  0  0  0  0  0  0
   -1.5865    0.3187    0.0000 C   0  0  0  0  0  0  0  0  0  0  0  0
   -2.0067    1.0432    0.0000 C   0  0  0  0  0  0  0  0  0  0  0  0
    2.4703   -1.7966    0.0000 C   0  0  0  0  0  0  0  0  0  0  0  0
    3.1513   -0.5650    0.0000 C   0  0  0  0  0  0  0  0  0  0  0  0
   -1.9922   -0.4056    0.0000 C   0  0  0  0  0  0  0  0  0  0  0  0
    3.8757   -1.7821    0.0000 C   0  0  0  0  0  0  0  0  0  0  0  0
    3.1803   -2.2023    0.0000 C   0  0  0  0  0  0  0  0  0  0  0  0
    3.8902   -0.9708    0.0000 C   0  0  0  0  0  0  0  0  0  0  0  0
   -2.8180    1.0287    0.0000 C   0  0  0  0  0  0  0  0  0  0  0  0
   -3.2382    0.3187    0.0000 C   0  0  0  0  0  0  0  0  0  0  0  0
   -2.8180   -0.4056    0.0000 C   0  0  0  0  0  0  0  0  0  0  0  0
    4.7016   -2.2312    0.0000 C   0  0  0  0  0  0  0  0  0  0  0  0
    2.7311    2.9557    0.0000 C   0  0  0  0  0  0  0  0  0  0  0  0
   -1.5865    1.7531    0.0000 C   0  0  0  0  0  0  0  0  0  0  0  0
    5.0928   -1.5358    0.0000 C   0  0  0  0  0  0  0  0  0  0  0  0
    5.4260   -2.6370    0.0000 C   0  0  0  0  0  0  0  0  0  0  0  0
    4.3103   -2.9557    0.0000 C   0  0  0  0  0  0  0  0  0  0  0  0
   -4.6436    1.0432    0.0000 C   0  0  0  0  0  0  0  0  0  0  0  0
   -4.6436   -0.4056    0.0000 C   0  0  0  0  0  0  0  0  0  0  0  0
   -5.4260   -0.2898    0.0000 C   0  0  0  0  0  0  0  0  0  0  0  0
   -5.4260    0.9128    0.0000 C   0  0  0  0  0  0  0  0  0  0  0  0
  1 14  1  0  0  0  0
  1 29  1  0  0  0  0
  2 14  2  0  0  0  0
  3  5  1  0  0  0  0
  3  9  1  0  0  0  0
  3 11  1  0  0  0  0
  4  9  2  0  0  0  0
  4 13  1  0  0  0  0
  5 13  2  0  0  0  0
  6 11  2  0  0  0  0
  6 17  1  0  0  0  0
  7 16  3  0  0  0  0
  8 26  1  0  0  0  0
  8 34  1  0  0  0  0
  8 35  1  0  0  0  0
  9 10  1  0  0  0  0
 10 12  2  0  0  0  0
 10 14  1  0  0  0  0
 11 12  1  0  0  0  0
 12 16  1  0  0  0  0
 13 15  1  0  0  0  0
 15 19  2  0  0  0  0
 15 20  1  0  0  0  0
 17 18  2  0  0  0  0
 17 21  1  0  0  0  0
 18 25  1  0  0  0  0
 18 30  1  0  0  0  0
 19 23  1  0  0  0  0
 20 24  2  0  0  0  0
 21 27  2  0  0  0  0
 22 23  2  0  0  0  0
 22 24  1  0  0  0  0
 22 28  1  0  0  0  0
 25 26  2  0  0  0  0
 26 27  1  0  0  0  0
 28 31  1  0  0  0  0
 28 32  1  0  0  0  0
 28 33  1  0  0  0  0
 34 37  1  0  0  0  0
 35 36  1  0  0  0  0
M  END
> <PUBCHEM_COMPOUND_ID_TYPE>
0

> <PUBCHEM_TOTAL_CHARGE>
0

> <PUBCHEM_SUBSTANCE_ID>
310948834

> <PUBCHEM_SUBSTANCE_VERSION>
1

> <PUBCHEM_EXT_DATASOURCE_NAME>
4488

> <PUBCHEM_EXT_DATASOURCE_REGID>
SCHEMBL16127018

> <PUBCHEM_SUBSTANCE_COMMENT>
InChI=1S/C29H32N6O2/c1-8-34(9-2)21-14-15-23(18(3)16-21)31-26-22(17-30)24(28(36)37-7)27-32-25(33-35(26)27)19-10-12-20(13-11-19)29(4,5)6/h10-16H,8-9H2,1-7H3/b31-26+
InChIKey=YZVKTPKXMNTXNI-GKPLWNPISA-N

> <PUBCHEM_SUBSTANCE_SYNONYM>
SCHEMBL16127018

> <PUBCHEM_XREF_EXT_ID>
SCHEMBL16127018

> <PUBCHEM_EXT_DATASOURCE_URL>
https://www.surechembl.org/

> <PUBCHEM_EXT_SUBSTANCE_URL>
https://www.surechembl.org/chemical/SCHEMBL16127018

> <PUBCHEM_CID_ASSOCIATIONS>
117614371  1

> <PUBCHEM_COORDINATE_TYPE>
1
3

$$$$
