310943463
  -OEChem-07211613022D

 36 40  0     0  0  0  0  0  0999 V2000
   -4.6344    2.2565    0.0000 O   0  0  0  0  0  0  0  0  0  0  0  0
    1.0757   -0.2022    0.0000 O   0  0  0  0  0  0  0  0  0  0  0  0
   -2.4830    0.2022    0.0000 N   0  0  0  0  0  0  0  0  0  0  0  0
   -1.0596    0.2022    0.0000 N   0  0  0  0  0  0  0  0  0  0  0  0
   -3.1947    1.4315    0.0000 N   0  0  0  0  0  0  0  0  0  0  0  0
   -3.0977   -0.3478    0.0000 N   0  0  0  0  0  0  0  0  0  0  0  0
    0.3639    2.6609    0.0000 N   0  0  0  0  0  0  0  0  0  0  0  0
    1.8036    1.0272    0.0000 N   0  0  0  0  0  0  0  0  0  0  0  0
    3.9389   -1.0272    0.0000 N   0  0  0  0  0  0  0  0  0  0  0  0
    4.6344   -1.4639    0.0000 N   0  0  0  0  0  0  0  0  0  0  0  0
   -2.4830    1.0272    0.0000 C   0  0  0  0  0  0  0  0  0  0  0  0
   -1.0434    1.0272    0.0000 C   0  0  0  0  0  0  0  0  0  0  0  0
   -1.7713   -0.2022    0.0000 C   0  0  0  0  0  0  0  0  0  0  0  0
   -0.3478    1.4315    0.0000 C   0  0  0  0  0  0  0  0  0  0  0  0
   -1.7713    1.4315    0.0000 C   0  0  0  0  0  0  0  0  0  0  0  0
   -0.3316    2.2565    0.0000 C   0  0  0  0  0  0  0  0  0  0  0  0
   -1.9492   -1.0110    0.0000 C   0  0  0  0  0  0  0  0  0  0  0  0
    0.3639    1.0272    0.0000 C   0  0  0  0  0  0  0  0  0  0  0  0
    1.0757    1.4315    0.0000 C   0  0  0  0  0  0  0  0  0  0  0  0
   -2.7580   -1.0757    0.0000 C   0  0  0  0  0  0  0  0  0  0  0  0
   -3.1786    2.2404    0.0000 C   0  0  0  0  0  0  0  0  0  0  0  0
   -3.8904    1.0272    0.0000 C   0  0  0  0  0  0  0  0  0  0  0  0
    1.0919    2.2404    0.0000 C   0  0  0  0  0  0  0  0  0  0  0  0
    2.5154   -0.2022    0.0000 C   0  0  0  0  0  0  0  0  0  0  0  0
    1.8036    0.2346    0.0000 C   0  0  0  0  0  0  0  0  0  0  0  0
    3.2271   -1.4315    0.0000 C   0  0  0  0  0  0  0  0  0  0  0  0
    3.2271   -2.2242    0.0000 C   0  0  0  0  0  0  0  0  0  0  0  0
    2.5154   -1.0272    0.0000 C   0  0  0  0  0  0  0  0  0  0  0  0
   -1.0434    2.6771    0.0000 C   0  0  0  0  0  0  0  0  0  0  0  0
   -3.9065    2.6609    0.0000 C   0  0  0  0  0  0  0  0  0  0  0  0
   -4.6182    1.4315    0.0000 C   0  0  0  0  0  0  0  0  0  0  0  0
    3.2109    0.2022    0.0000 C   0  0  0  0  0  0  0  0  0  0  0  0
    3.9389   -0.2022    0.0000 C   0  0  0  0  0  0  0  0  0  0  0  0
    3.9227   -1.8360    0.0000 C   0  0  0  0  0  0  0  0  0  0  0  0
    2.4992   -2.6771    0.0000 C   0  0  0  0  0  0  0  0  0  0  0  0
    3.9550   -2.6609    0.0000 C   0  0  0  0  0  0  0  0  0  0  0  0
  1 30  1  0  0  0  0
  1 31  1  0  0  0  0
  2 25  2  0  0  0  0
  3  6  1  0  0  0  0
  3 11  1  0  0  0  0
  3 13  1  0  0  0  0
  4 12  2  0  0  0  0
  4 13  1  0  0  0  0
  5 11  1  0  0  0  0
  5 21  1  0  0  0  0
  5 22  1  0  0  0  0
  6 20  2  0  0  0  0
  7 16  2  0  0  0  0
  7 23  1  0  0  0  0
  8 19  1  0  0  0  0
  8 25  1  0  0  0  0
  9 26  2  0  0  0  0
  9 33  1  0  0  0  0
 10 34  3  0  0  0  0
 11 15  2  0  0  0  0
 12 14  1  0  0  0  0
 12 15  1  0  0  0  0
 13 17  2  0  0  0  0
 14 16  1  0  0  0  0
 14 18  2  0  0  0  0
 16 29  1  0  0  0  0
 17 20  1  0  0  0  0
 18 19  1  0  0  0  0
 19 23  2  0  0  0  0
 21 30  1  0  0  0  0
 22 31  1  0  0  0  0
 24 25  1  0  0  0  0
 24 28  2  0  0  0  0
 24 32  1  0  0  0  0
 26 27  1  0  0  0  0
 26 28  1  0  0  0  0
 27 34  1  0  0  0  0
 27 35  1  0  0  0  0
 27 36  1  0  0  0  0
 32 33  2  0  0  0  0
M  END
> <PUBCHEM_COMPOUND_ID_TYPE>
0

> <PUBCHEM_TOTAL_CHARGE>
0

> <PUBCHEM_SUBSTANCE_ID>
310943463

> <PUBCHEM_SUBSTANCE_VERSION>
1

> <PUBCHEM_EXT_DATASOURCE_NAME>
4488

> <PUBCHEM_EXT_DATASOURCE_REGID>
SCHEMBL16121528

> <PUBCHEM_SUBSTANCE_COMMENT>
InChI=1S/C26H26N8O2/c1-17-20(21-14-24(33-8-10-36-11-9-33)34-23(32-21)5-7-30-34)13-19(15-29-17)31-25(35)18-4-6-28-22(12-18)26(2,3)16-27/h4-7,12-15H,8-11H2,1-3H3,(H,31,35)
InChIKey=YQNWCIRZPDZMGH-UHFFFAOYSA-N

> <PUBCHEM_SUBSTANCE_SYNONYM>
SCHEMBL16121528

> <PUBCHEM_XREF_EXT_ID>
SCHEMBL16121528

> <PUBCHEM_EXT_DATASOURCE_URL>
https://www.surechembl.org/

> <PUBCHEM_EXT_SUBSTANCE_URL>
https://www.surechembl.org/chemical/SCHEMBL16121528

> <PUBCHEM_CID_ASSOCIATIONS>
117609887  1

> <PUBCHEM_COORDINATE_TYPE>
1
3

$$$$
