310943542
  -OEChem-07211613022D

 36 39  0     0  0  0  0  0  0999 V2000
   -4.0235   -1.0584    0.0000 S   0  0  0  0  0  0  0  0  0  0  0  0
    4.6616    1.5098    0.0000 F   0  0  0  0  0  0  0  0  0  0  0  0
    5.4242    1.0740    0.0000 F   0  0  0  0  0  0  0  0  0  0  0  0
    5.4242    0.2023    0.0000 F   0  0  0  0  0  0  0  0  0  0  0  0
   -4.7394   -1.4631    0.0000 O   0  0  0  0  0  0  0  0  0  0  0  0
   -3.8055   -1.8522    0.0000 O   0  0  0  0  0  0  0  0  0  0  0  0
   -5.4242    1.4320    0.0000 O   0  0  0  0  0  0  0  0  0  0  0  0
    1.7665    1.4320    0.0000 O   0  0  0  0  0  0  0  0  0  0  0  0
   -3.9768    0.6226    0.0000 N   0  0  0  0  0  0  0  0  0  0  0  0
   -2.5449   -1.0273    0.0000 N   0  0  0  0  0  0  0  0  0  0  0  0
   -1.8289   -0.6226    0.0000 N   0  0  0  0  0  0  0  0  0  0  0  0
    1.0506    0.2023    0.0000 N   0  0  0  0  0  0  0  0  0  0  0  0
    3.9145   -0.6226    0.0000 N   0  0  0  0  0  0  0  0  0  0  0  0
   -3.2608    0.2179    0.0000 C   0  0  0  0  0  0  0  0  0  0  0  0
   -3.2764   -0.6069    0.0000 C   0  0  0  0  0  0  0  0  0  0  0  0
   -1.8289    0.2179    0.0000 C   0  0  0  0  0  0  0  0  0  0  0  0
   -1.1129    0.6226    0.0000 C   0  0  0  0  0  0  0  0  0  0  0  0
   -2.5604    0.6226    0.0000 C   0  0  0  0  0  0  0  0  0  0  0  0
   -1.1129    1.4475    0.0000 C   0  0  0  0  0  0  0  0  0  0  0  0
   -0.3813    0.2179    0.0000 C   0  0  0  0  0  0  0  0  0  0  0  0
    0.3191    0.6381    0.0000 C   0  0  0  0  0  0  0  0  0  0  0  0
   -3.9924    1.4475    0.0000 C   0  0  0  0  0  0  0  0  0  0  0  0
   -4.6927    0.2179    0.0000 C   0  0  0  0  0  0  0  0  0  0  0  0
    2.4826    0.2179    0.0000 C   0  0  0  0  0  0  0  0  0  0  0  0
   -0.3969    1.8522    0.0000 C   0  0  0  0  0  0  0  0  0  0  0  0
    1.7510    0.6069    0.0000 C   0  0  0  0  0  0  0  0  0  0  0  0
    3.9301    0.2179    0.0000 C   0  0  0  0  0  0  0  0  0  0  0  0
    0.3191    1.4475    0.0000 C   0  0  0  0  0  0  0  0  0  0  0  0
   -4.7861   -0.6226    0.0000 C   0  0  0  0  0  0  0  0  0  0  0  0
    4.6772    0.6536    0.0000 C   0  0  0  0  0  0  0  0  0  0  0  0
    3.1985    0.6226    0.0000 C   0  0  0  0  0  0  0  0  0  0  0  0
   -4.7238    1.8522    0.0000 C   0  0  0  0  0  0  0  0  0  0  0  0
   -5.4242    0.6226    0.0000 C   0  0  0  0  0  0  0  0  0  0  0  0
    2.4826   -0.6069    0.0000 C   0  0  0  0  0  0  0  0  0  0  0  0
   -1.8444    1.8522    0.0000 C   0  0  0  0  0  0  0  0  0  0  0  0
    3.2608   -1.0273    0.0000 C   0  0  0  0  0  0  0  0  0  0  0  0
  1  5  2  0  0  0  0
  1  6  2  0  0  0  0
  1 15  1  0  0  0  0
  1 29  1  0  0  0  0
  2 30  1  0  0  0  0
  3 30  1  0  0  0  0
  4 30  1  0  0  0  0
  7 32  1  0  0  0  0
  7 33  1  0  0  0  0
  8 26  2  0  0  0  0
  9 14  1  0  0  0  0
  9 22  1  0  0  0  0
  9 23  1  0  0  0  0
 10 11  1  0  0  0  0
 10 15  2  0  0  0  0
 11 16  2  0  0  0  0
 12 21  1  0  0  0  0
 12 26  1  0  0  0  0
 13 27  2  0  0  0  0
 13 36  1  0  0  0  0
 14 15  1  0  0  0  0
 14 18  2  0  0  0  0
 16 17  1  0  0  0  0
 16 18  1  0  0  0  0
 17 19  2  0  0  0  0
 17 20  1  0  0  0  0
 19 25  1  0  0  0  0
 19 35  1  0  0  0  0
 20 21  2  0  0  0  0
 21 28  1  0  0  0  0
 22 32  1  0  0  0  0
 23 33  1  0  0  0  0
 24 26  1  0  0  0  0
 24 31  2  0  0  0  0
 24 34  1  0  0  0  0
 25 28  2  0  0  0  0
 27 30  1  0  0  0  0
 27 31  1  0  0  0  0
 34 36  2  0  0  0  0
M  END
> <PUBCHEM_COMPOUND_ID_TYPE>
0

> <PUBCHEM_TOTAL_CHARGE>
0

> <PUBCHEM_SUBSTANCE_ID>
310943542

> <PUBCHEM_SUBSTANCE_VERSION>
1

> <PUBCHEM_EXT_DATASOURCE_NAME>
4488

> <PUBCHEM_EXT_DATASOURCE_REGID>
SCHEMBL16121608

> <PUBCHEM_SUBSTANCE_COMMENT>
InChI=1S/C23H22F3N5O4S/c1-14-3-4-16(28-21(32)15-5-6-27-20(11-15)23(24,25)26)12-17(14)18-13-19(31-7-9-35-10-8-31)22(30-29-18)36(2,33)34/h3-6,11-13H,7-10H2,1-2H3,(H,28,32)
InChIKey=SFEFLTJYSOSQSS-UHFFFAOYSA-N

> <PUBCHEM_SUBSTANCE_SYNONYM>
SCHEMBL16121608

> <PUBCHEM_XREF_EXT_ID>
SCHEMBL16121608

> <PUBCHEM_EXT_DATASOURCE_URL>
https://www.surechembl.org/

> <PUBCHEM_EXT_SUBSTANCE_URL>
https://www.surechembl.org/chemical/SCHEMBL16121608

> <PUBCHEM_CID_ASSOCIATIONS>
117609954  1

> <PUBCHEM_COORDINATE_TYPE>
1
3

$$$$
