310949028
  -OEChem-07211613022D

 22 23  0     0  0  0  0  0  0999 V2000
   -1.7528    1.0254    0.0000 F   0  0  0  0  0  0  0  0  0  0  0  0
   -1.7528   -2.2862    0.0000 F   0  0  0  0  0  0  0  0  0  0  0  0
    1.8359    1.4411    0.0000 O   0  0  0  0  0  0  0  0  0  0  0  0
    1.8359   -1.0531    0.0000 O   0  0  0  0  0  0  0  0  0  0  0  0
    2.5426    1.0254    0.0000 O   0  0  0  0  0  0  0  0  0  0  0  0
    0.3949   -0.2078    0.0000 N   0  0  0  0  0  0  0  0  0  0  0  0
   -0.3256    1.0254    0.0000 N   0  0  0  0  0  0  0  0  0  0  0  0
    0.3949    2.2862    0.0000 N   0  0  0  0  0  0  0  0  0  0  0  0
   -0.3395    0.1663    0.0000 C   0  0  0  0  0  0  0  0  0  0  0  0
   -1.0600   -0.2356    0.0000 C   0  0  0  0  0  0  0  0  0  0  0  0
    1.0877    0.1801    0.0000 C   0  0  0  0  0  0  0  0  0  0  0  0
    1.1015    0.9976    0.0000 C   0  0  0  0  0  0  0  0  0  0  0  0
    0.3672    1.4133    0.0000 C   0  0  0  0  0  0  0  0  0  0  0  0
   -1.7944    0.1663    0.0000 C   0  0  0  0  0  0  0  0  0  0  0  0
   -1.0739   -1.0669    0.0000 C   0  0  0  0  0  0  0  0  0  0  0  0
    1.8082   -0.2494    0.0000 C   0  0  0  0  0  0  0  0  0  0  0  0
   -1.7805   -1.4826    0.0000 C   0  0  0  0  0  0  0  0  0  0  0  0
   -2.5011   -1.0669    0.0000 C   0  0  0  0  0  0  0  0  0  0  0  0
   -2.4872   -0.2633    0.0000 C   0  0  0  0  0  0  0  0  0  0  0  0
    2.2101   -0.0277    0.0000 C   0  0  0  0  0  0  0  0  0  0  0  0
   -3.2216   -1.4687    0.0000 C   0  0  0  0  0  0  0  0  0  0  0  0
    3.2215    1.3994    0.0000 C   0  0  0  0  0  0  0  0  0  0  0  0
  1 14  1  0  0  0  0
  2 17  1  0  0  0  0
  3  5  1  0  0  0  0
  3 12  1  0  0  0  0
  4 16  1  0  0  0  0
  5 22  1  0  0  0  0
  6  9  2  0  0  0  0
  6 11  1  0  0  0  0
  7  9  1  0  0  0  0
  7 13  2  0  0  0  0
  8 13  1  0  0  0  0
  9 10  1  0  0  0  0
 10 14  2  0  0  0  0
 10 15  1  0  0  0  0
 11 12  2  0  0  0  0
 11 16  1  0  0  0  0
 12 13  1  0  0  0  0
 14 19  1  0  0  0  0
 15 17  2  0  0  0  0
 16 20  2  0  0  0  0
 17 18  1  0  0  0  0
 18 19  2  0  0  0  0
 18 21  1  0  0  0  0
M  END
> <PUBCHEM_COMPOUND_ID_TYPE>
0

> <PUBCHEM_TOTAL_CHARGE>
0

> <PUBCHEM_SUBSTANCE_ID>
310949028

> <PUBCHEM_SUBSTANCE_VERSION>
1

> <PUBCHEM_EXT_DATASOURCE_NAME>
4488

> <PUBCHEM_EXT_DATASOURCE_REGID>
SCHEMBL16127218

> <PUBCHEM_SUBSTANCE_COMMENT>
InChI=1S/C14H13F2N3O3/c1-6-4-10(16)8(5-9(6)15)14-18-11(7(2)20)12(22-21-3)13(17)19-14/h4-5,20H,2H2,1,3H3,(H2,17,18,19)
InChIKey=CWKKFOOEZFPJTL-UHFFFAOYSA-N

> <PUBCHEM_SUBSTANCE_SYNONYM>
SCHEMBL16127218

> <PUBCHEM_XREF_EXT_ID>
SCHEMBL16127218

> <PUBCHEM_EXT_DATASOURCE_URL>
https://www.surechembl.org/

> <PUBCHEM_EXT_SUBSTANCE_URL>
https://www.surechembl.org/chemical/SCHEMBL16127218

> <PUBCHEM_CID_ASSOCIATIONS>
117614533  1

> <PUBCHEM_COORDINATE_TYPE>
1
3

$$$$
