310948287
  -OEChem-07211613022D

 43 47  0     0  0  0  0  0  0999 V2000
    3.7943   -2.5762    0.0000 S   0  0  0  0  0  0  0  0  0  0  0  0
    3.7613    3.3005    0.0000 F   0  0  0  0  0  0  0  0  0  0  0  0
    2.7243    2.7572    0.0000 F   0  0  0  0  0  0  0  0  0  0  0  0
    4.2388    2.2469    0.0000 F   0  0  0  0  0  0  0  0  0  0  0  0
   -3.0206    0.5844    0.0000 O   0  0  0  0  0  0  0  0  0  0  0  0
    3.2346    1.7531    0.0000 O   0  0  0  0  0  0  0  0  0  0  0  0
    4.5186   -2.1646    0.0000 O   0  0  0  0  0  0  0  0  0  0  0  0
    3.0864   -3.0042    0.0000 O   0  0  0  0  0  0  0  0  0  0  0  0
   -0.3210    0.2881    0.0000 N   0  0  0  0  0  0  0  0  0  0  0  0
   -1.6379   -1.8190    0.0000 N   0  0  0  0  0  0  0  0  0  0  0  0
   -1.1441    0.3868    0.0000 N   0  0  0  0  0  0  0  0  0  0  0  0
   -2.4280   -1.5556    0.0000 N   0  0  0  0  0  0  0  0  0  0  0  0
   -1.3251    1.1934    0.0000 N   0  0  0  0  0  0  0  0  0  0  0  0
   -3.8601   -0.5844    0.0000 N   0  0  0  0  0  0  0  0  0  0  0  0
    0.0905   -0.4033    0.0000 C   0  0  0  0  0  0  0  0  0  0  0  0
   -0.3210   -1.1112    0.0000 C   0  0  0  0  0  0  0  0  0  0  0  0
   -1.1605   -1.1112    0.0000 C   0  0  0  0  0  0  0  0  0  0  0  0
    0.0247    1.0782    0.0000 C   0  0  0  0  0  0  0  0  0  0  0  0
    0.9300   -0.4198    0.0000 C   0  0  0  0  0  0  0  0  0  0  0  0
    1.3251   -1.1112    0.0000 C   0  0  0  0  0  0  0  0  0  0  0  0
    0.0905   -1.8354    0.0000 C   0  0  0  0  0  0  0  0  0  0  0  0
   -1.6379   -0.4691    0.0000 C   0  0  0  0  0  0  0  0  0  0  0  0
   -2.4115   -0.7161    0.0000 C   0  0  0  0  0  0  0  0  0  0  0  0
    0.8313    1.2428    0.0000 C   0  0  0  0  0  0  0  0  0  0  0  0
    2.1646   -1.1112    0.0000 C   0  0  0  0  0  0  0  0  0  0  0  0
    0.9300   -1.8354    0.0000 C   0  0  0  0  0  0  0  0  0  0  0  0
   -0.6008    1.6214    0.0000 C   0  0  0  0  0  0  0  0  0  0  0  0
   -3.1029   -0.2387    0.0000 C   0  0  0  0  0  0  0  0  0  0  0  0
    2.5762   -1.8354    0.0000 C   0  0  0  0  0  0  0  0  0  0  0  0
    3.3992   -1.8519    0.0000 C   0  0  0  0  0  0  0  0  0  0  0  0
    1.0947    2.0329    0.0000 C   0  0  0  0  0  0  0  0  0  0  0  0
    1.3910    0.6337    0.0000 C   0  0  0  0  0  0  0  0  0  0  0  0
    2.5762   -0.4362    0.0000 C   0  0  0  0  0  0  0  0  0  0  0  0
   -1.3580   -2.6091    0.0000 C   0  0  0  0  0  0  0  0  0  0  0  0
    2.4445    1.5885    0.0000 C   0  0  0  0  0  0  0  0  0  0  0  0
    1.9013    2.1976    0.0000 C   0  0  0  0  0  0  0  0  0  0  0  0
    2.1811    0.8148    0.0000 C   0  0  0  0  0  0  0  0  0  0  0  0
    3.7943   -1.1112    0.0000 C   0  0  0  0  0  0  0  0  0  0  0  0
    3.3992   -0.4198    0.0000 C   0  0  0  0  0  0  0  0  0  0  0  0
    3.4980    2.5103    0.0000 C   0  0  0  0  0  0  0  0  0  0  0  0
    4.2552   -3.3005    0.0000 C   0  0  0  0  0  0  0  0  0  0  0  0
   -3.9095   -1.4074    0.0000 C   0  0  0  0  0  0  0  0  0  0  0  0
   -4.5186   -0.1070    0.0000 C   0  0  0  0  0  0  0  0  0  0  0  0
  1  7  2  0  0  0  0
  1  8  2  0  0  0  0
  1 30  1  0  0  0  0
  1 41  1  0  0  0  0
  2 40  1  0  0  0  0
  3 40  1  0  0  0  0
  4 40  1  0  0  0  0
  5 28  2  0  0  0  0
  6 35  1  0  0  0  0
  6 40  1  0  0  0  0
  9 11  1  0  0  0  0
  9 15  1  0  0  0  0
  9 18  1  0  0  0  0
 10 12  1  0  0  0  0
 10 17  1  0  0  0  0
 10 34  1  0  0  0  0
 11 13  2  0  0  0  0
 12 23  2  0  0  0  0
 13 27  1  0  0  0  0
 14 28  1  0  0  0  0
 14 42  1  0  0  0  0
 14 43  1  0  0  0  0
 15 16  1  0  0  0  0
 15 19  2  0  0  0  0
 16 17  1  0  0  0  0
 16 21  2  0  0  0  0
 17 22  2  0  0  0  0
 18 24  1  0  0  0  0
 18 27  2  0  0  0  0
 19 20  1  0  0  0  0
 20 25  1  0  0  0  0
 20 26  2  0  0  0  0
 21 26  1  0  0  0  0
 22 23  1  0  0  0  0
 23 28  1  0  0  0  0
 24 31  2  0  0  0  0
 24 32  1  0  0  0  0
 25 29  1  0  0  0  0
 25 33  2  0  0  0  0
 29 30  2  0  0  0  0
 30 38  1  0  0  0  0
 31 36  1  0  0  0  0
 32 37  2  0  0  0  0
 33 39  1  0  0  0  0
 35 36  2  0  0  0  0
 35 37  1  0  0  0  0
 38 39  2  0  0  0  0
M  END
> <PUBCHEM_COMPOUND_ID_TYPE>
0

> <PUBCHEM_TOTAL_CHARGE>
0

> <PUBCHEM_SUBSTANCE_ID>
310948287

> <PUBCHEM_SUBSTANCE_VERSION>
1

> <PUBCHEM_EXT_DATASOURCE_NAME>
4488

> <PUBCHEM_EXT_DATASOURCE_REGID>
SCHEMBL16126464

> <PUBCHEM_SUBSTANCE_COMMENT>
InChI=1S/C29H25F3N6O4S/c1-36(2)28(39)24-16-25(37(3)34-24)23-13-10-20(19-6-5-7-22(14-19)43(4,40)41)15-26(23)38-27(17-33-35-38)18-8-11-21(12-9-18)42-29(30,31)32/h5-17H,1-4H3
InChIKey=OZBGUNCOEBHJFF-UHFFFAOYSA-N

> <PUBCHEM_SUBSTANCE_SYNONYM>
SCHEMBL16126464

> <PUBCHEM_XREF_EXT_ID>
SCHEMBL16126464

> <PUBCHEM_EXT_DATASOURCE_URL>
https://www.surechembl.org/

> <PUBCHEM_EXT_SUBSTANCE_URL>
https://www.surechembl.org/chemical/SCHEMBL16126464

> <PUBCHEM_CID_ASSOCIATIONS>
86276099  1

> <PUBCHEM_COORDINATE_TYPE>
1
3

$$$$
