310938831
  -OEChem-07211613022D

 25 27  0     0  0  0  0  0  0999 V2000
   -0.9993   -0.8528    0.0000 O   0  0  0  0  0  0  0  0  0  0  0  0
    0.2382   -0.1383    0.0000 O   0  0  0  0  0  0  0  0  0  0  0  0
   -1.7389    4.6715    0.0000 O   0  0  0  0  0  0  0  0  0  0  0  0
    1.0216    3.9318    0.0000 O   0  0  0  0  0  0  0  0  0  0  0  0
   -0.9993    1.9110    0.0000 N   0  0  0  0  0  0  0  0  0  0  0  0
   -2.4983    0.4186    0.0000 N   0  0  0  0  0  0  0  0  0  0  0  0
    0.3107    1.2436    0.0000 N   0  0  0  0  0  0  0  0  0  0  0  0
   -1.7839    1.6561    0.0000 C   0  0  0  0  0  0  0  0  0  0  0  0
   -0.9993    0.5761    0.0000 C   0  0  0  0  0  0  0  0  0  0  0  0
   -1.7839    0.8311    0.0000 C   0  0  0  0  0  0  0  0  0  0  0  0
   -0.5143    1.2436    0.0000 C   0  0  0  0  0  0  0  0  0  0  0  0
   -0.7857    2.7079    0.0000 C   0  0  0  0  0  0  0  0  0  0  0  0
   -0.5868   -0.1383    0.0000 C   0  0  0  0  0  0  0  0  0  0  0  0
   -2.4983    2.0686    0.0000 C   0  0  0  0  0  0  0  0  0  0  0  0
    0.0112    2.9214    0.0000 C   0  0  0  0  0  0  0  0  0  0  0  0
   -1.3691    3.2913    0.0000 C   0  0  0  0  0  0  0  0  0  0  0  0
   -1.1556    4.0882    0.0000 C   0  0  0  0  0  0  0  0  0  0  0  0
    0.2247    3.7183    0.0000 C   0  0  0  0  0  0  0  0  0  0  0  0
   -3.2128    1.6561    0.0000 C   0  0  0  0  0  0  0  0  0  0  0  0
   -3.2128    0.8311    0.0000 C   0  0  0  0  0  0  0  0  0  0  0  0
   -0.3587    4.3017    0.0000 C   0  0  0  0  0  0  0  0  0  0  0  0
   -0.5868   -1.5673    0.0000 C   0  0  0  0  0  0  0  0  0  0  0  0
   -2.5358    4.4580    0.0000 C   0  0  0  0  0  0  0  0  0  0  0  0
    1.2351    4.7287    0.0000 C   0  0  0  0  0  0  0  0  0  0  0  0
   -0.9993   -2.2817    0.0000 C   0  0  0  0  0  0  0  0  0  0  0  0
  1 13  1  0  0  0  0
  1 22  1  0  0  0  0
  2 13  2  0  0  0  0
  3 17  1  0  0  0  0
  3 23  1  0  0  0  0
  4 18  1  0  0  0  0
  4 24  1  0  0  0  0
  5  8  1  0  0  0  0
  5 11  1  0  0  0  0
  5 12  1  0  0  0  0
  6 10  2  0  0  0  0
  6 20  1  0  0  0  0
  7 11  1  0  0  0  0
  8 10  1  0  0  0  0
  8 14  2  0  0  0  0
  9 10  1  0  0  0  0
  9 11  2  0  0  0  0
  9 13  1  0  0  0  0
 12 15  2  0  0  0  0
 12 16  1  0  0  0  0
 14 19  1  0  0  0  0
 15 18  1  0  0  0  0
 16 17  2  0  0  0  0
 17 21  1  0  0  0  0
 18 21  2  0  0  0  0
 19 20  2  0  0  0  0
 22 25  1  0  0  0  0
M  END
> <PUBCHEM_COMPOUND_ID_TYPE>
0

> <PUBCHEM_TOTAL_CHARGE>
0

> <PUBCHEM_SUBSTANCE_ID>
310938831

> <PUBCHEM_SUBSTANCE_VERSION>
1

> <PUBCHEM_EXT_DATASOURCE_NAME>
4488

> <PUBCHEM_EXT_DATASOURCE_REGID>
SCHEMBL16116750

> <PUBCHEM_SUBSTANCE_COMMENT>
InChI=1S/C18H19N3O4/c1-4-25-18(22)15-16-14(6-5-7-20-16)21(17(15)19)11-8-12(23-2)10-13(9-11)24-3/h5-10H,4,19H2,1-3H3
InChIKey=KCFQCBAFTYEPOI-UHFFFAOYSA-N

> <PUBCHEM_SUBSTANCE_SYNONYM>
SCHEMBL16116750

> <PUBCHEM_XREF_EXT_ID>
SCHEMBL16116750

> <PUBCHEM_EXT_DATASOURCE_URL>
https://www.surechembl.org/

> <PUBCHEM_EXT_SUBSTANCE_URL>
https://www.surechembl.org/chemical/SCHEMBL16116750

> <PUBCHEM_CID_ASSOCIATIONS>
117606233  1

> <PUBCHEM_COORDINATE_TYPE>
1
3

$$$$
