310941055
  -OEChem-07211613022D

 50 54  0     1  0  0  0  0  0999 V2000
    5.0867    0.2972    0.0000 O   0  0  0  0  0  0  0  0  0  0  0  0
    3.9532   -1.6656    0.0000 O   0  0  0  0  0  0  0  0  0  0  0  0
    1.7969    0.4077    0.0000 O   0  0  0  0  0  0  0  0  0  0  0  0
   -0.3594   -1.6656    0.0000 O   0  0  0  0  0  0  0  0  0  0  0  0
   -1.7969    0.8225    0.0000 O   0  0  0  0  0  0  0  0  0  0  0  0
    3.9532   -3.3243    0.0000 O   0  0  0  0  0  0  0  0  0  0  0  0
   -2.5018    0.4077    0.0000 O   0  0  0  0  0  0  0  0  0  0  0  0
   -5.3769    0.4077    0.0000 O   0  0  0  0  0  0  0  0  0  0  0  0
    2.5157   -0.8362    0.0000 N   0  0  0  0  0  0  0  0  0  0  0  0
    0.3732   -0.4216    0.0000 N   0  0  0  0  0  0  0  0  0  0  0  0
   -1.7831   -0.8362    0.0000 N   0  0  0  0  0  0  0  0  0  0  0  0
   -3.9393   -0.4216    0.0000 N   0  0  0  0  0  0  0  0  0  0  0  0
    4.6719   -0.3663    0.0000 C   0  0  3  0  0  0  0  0  0  0  0  0
    3.9532   -0.7948    0.0000 C   0  0  0  0  0  0  0  0  0  0  0  0
    4.2849    0.3110    0.0000 C   0  0  0  0  0  0  0  0  0  0  0  0
    3.2344   -0.3940    0.0000 C   0  0  3  0  0  0  0  0  0  0  0  0
    5.3769   -0.7948    0.0000 C   0  0  0  0  0  0  0  0  0  0  0  0
    3.2344    0.9330    0.0000 C   0  0  0  0  0  0  0  0  0  0  0  0
    1.7969   -0.4077    0.0000 C   0  0  0  0  0  0  0  0  0  0  0  0
    1.1058   -0.7948    0.0000 C   0  0  3  0  0  0  0  0  0  0  0  0
    2.5295    1.3615    0.0000 C   0  0  0  0  0  0  0  0  0  0  0  0
    1.0781   -1.6518    0.0000 C   0  0  0  0  0  0  0  0  0  0  0  0
   -0.3455   -0.7809    0.0000 C   0  0  0  0  0  0  0  0  0  0  0  0
    1.8107    0.9468    0.0000 C   0  0  0  0  0  0  0  0  0  0  0  0
    2.5295    2.1770    0.0000 C   0  0  0  0  0  0  0  0  0  0  0  0
    1.8246   -2.0526    0.0000 C   0  0  0  0  0  0  0  0  0  0  0  0
   -1.0781   -0.3940    0.0000 C   0  0  3  0  0  0  0  0  0  0  0  0
    1.1058    1.3477    0.0000 C   0  0  0  0  0  0  0  0  0  0  0  0
    1.7969    2.5917    0.0000 C   0  0  0  0  0  0  0  0  0  0  0  0
    2.5157   -1.6518    0.0000 C   0  0  0  0  0  0  0  0  0  0  0  0
    1.8246   -2.8819    0.0000 C   0  0  0  0  0  0  0  0  0  0  0  0
   -1.0505    0.4216    0.0000 C   0  0  0  0  0  0  0  0  0  0  0  0
    1.1058    2.1770    0.0000 C   0  0  0  0  0  0  0  0  0  0  0  0
    3.2482   -2.8681    0.0000 C   0  0  0  0  0  0  0  0  0  0  0  0
   -2.5018   -0.4077    0.0000 C   0  0  0  0  0  0  0  0  0  0  0  0
    3.2482   -2.0664    0.0000 C   0  0  0  0  0  0  0  0  0  0  0  0
    2.5295   -3.2828    0.0000 C   0  0  0  0  0  0  0  0  0  0  0  0
   -3.1930   -0.7948    0.0000 C   0  0  0  0  0  0  0  0  0  0  0  0
   -1.7831    1.6794    0.0000 C   0  0  0  0  0  0  0  0  0  0  0  0
   -2.5018    2.1079    0.0000 C   0  0  0  0  0  0  0  0  0  0  0  0
   -3.9393    0.4354    0.0000 C   0  0  0  0  0  0  0  0  0  0  0  0
   -4.6305   -0.7948    0.0000 C   0  0  0  0  0  0  0  0  0  0  0  0
   -4.6719    0.8501    0.0000 C   0  0  0  0  0  0  0  0  0  0  0  0
   -5.3769   -0.3940    0.0000 C   0  0  0  0  0  0  0  0  0  0  0  0
   -2.5018    2.9235    0.0000 C   0  0  0  0  0  0  0  0  0  0  0  0
   -3.2068    1.6933    0.0000 C   0  0  0  0  0  0  0  0  0  0  0  0
    4.6858   -2.8819    0.0000 C   0  0  0  0  0  0  0  0  0  0  0  0
   -3.2206    3.3243    0.0000 C   0  0  0  0  0  0  0  0  0  0  0  0
   -3.9256    2.1079    0.0000 C   0  0  0  0  0  0  0  0  0  0  0  0
   -3.9256    2.9235    0.0000 C   0  0  0  0  0  0  0  0  0  0  0  0
  1 13  1  0  0  0  0
  1 15  1  0  0  0  0
  2 14  2  0  0  0  0
  3 19  2  0  0  0  0
  4 23  2  0  0  0  0
  5 32  1  0  0  0  0
  5 39  1  0  0  0  0
  6 34  1  0  0  0  0
  6 47  1  0  0  0  0
  7 35  2  0  0  0  0
  8 43  1  0  0  0  0
  8 44  1  0  0  0  0
 16  9  1  1  0  0  0
  9 19  1  0  0  0  0
 20 10  1  6  0  0  0
 10 23  1  0  0  0  0
 27 11  1  6  0  0  0
 11 35  1  0  0  0  0
 12 38  1  0  0  0  0
 12 41  1  0  0  0  0
 12 42  1  0  0  0  0
 13 14  1  1  0  0  0
 13 15  1  0  0  0  0
 13 17  1  6  0  0  0
 14 16  1  0  0  0  0
 16 18  1  0  0  0  0
 18 21  1  0  0  0  0
 19 20  1  0  0  0  0
 20 22  1  0  0  0  0
 21 24  2  0  0  0  0
 21 25  1  0  0  0  0
 22 26  1  0  0  0  0
 23 27  1  0  0  0  0
 24 28  1  0  0  0  0
 25 29  2  0  0  0  0
 26 30  2  0  0  0  0
 26 31  1  0  0  0  0
 27 32  1  0  0  0  0
 28 33  2  0  0  0  0
 29 33  1  0  0  0  0
 30 36  1  0  0  0  0
 31 37  2  0  0  0  0
 34 36  2  0  0  0  0
 34 37  1  0  0  0  0
 35 38  1  0  0  0  0
 39 40  1  0  0  0  0
 40 45  2  0  0  0  0
 40 46  1  0  0  0  0
 41 43  1  0  0  0  0
 42 44  1  0  0  0  0
 45 48  1  0  0  0  0
 46 49  2  0  0  0  0
 48 50  2  0  0  0  0
 49 50  1  0  0  0  0
M  END
> <PUBCHEM_COMPOUND_ID_TYPE>
0

> <PUBCHEM_TOTAL_CHARGE>
0

> <PUBCHEM_SUBSTANCE_ID>
310941055

> <PUBCHEM_SUBSTANCE_VERSION>
1

> <PUBCHEM_EXT_DATASOURCE_NAME>
4488

> <PUBCHEM_EXT_DATASOURCE_REGID>
SCHEMBL16119014

> <PUBCHEM_SUBSTANCE_COMMENT>
InChI=1S/C38H46N4O8/c1-38(26-50-38)35(44)31(21-27-9-5-3-6-10-27)40-36(45)32(22-28-13-15-30(47-2)16-14-28)41-37(46)33(25-49-24-29-11-7-4-8-12-29)39-34(43)23-42-17-19-48-20-18-42/h3-16,31-33H,17-26H2,1-2H3,(H,39,43)(H,40,45)(H,41,46)/t31-,32-,33+,38+/m0/s1
InChIKey=LFKBRFPCKSHKCJ-UAAALTKLSA-N

> <PUBCHEM_SUBSTANCE_SYNONYM>
SCHEMBL16119014

> <PUBCHEM_XREF_EXT_ID>
SCHEMBL16119014

> <PUBCHEM_EXT_DATASOURCE_URL>
https://www.surechembl.org/

> <PUBCHEM_EXT_SUBSTANCE_URL>
https://www.surechembl.org/chemical/SCHEMBL16119014

> <PUBCHEM_CID_ASSOCIATIONS>
117607947  1

> <PUBCHEM_COORDINATE_TYPE>
1
3

> <PUBCHEM_BONDANNOTATIONS>
20  10  6
27  11  6
13  14  5
13  17  6
16  9  5

$$$$
