310947710
  -OEChem-07211613022D

 39 42  0     1  0  0  0  0  0999 V2000
   -3.3808   -2.3143    0.0000 Cl  0  0  0  0  0  0  0  0  0  0  0  0
    1.9309   -3.5691    0.0000 Cl  0  0  0  0  0  0  0  0  0  0  0  0
   -1.6800    1.8961    0.0000 S   0  0  0  0  0  0  0  0  0  0  0  0
    2.6559   -0.6273    0.0000 S   0  0  0  0  0  0  0  0  0  0  0  0
   -3.1159   -0.6273    0.0000 F   0  0  0  0  0  0  0  0  0  0  0  0
    1.2060   -0.6273    0.0000 O   0  0  0  0  0  0  0  0  0  0  0  0
    0.4949    1.4777    0.0000 O   0  0  0  0  0  0  0  0  0  0  0  0
   -2.3910    2.3143    0.0000 O   0  0  0  0  0  0  0  0  0  0  0  0
   -2.2655    1.2966    0.0000 O   0  0  0  0  0  0  0  0  0  0  0  0
   -0.2301    0.2231    0.0000 N   0  0  0  0  0  0  0  0  0  0  0  0
    3.3808    0.6413    0.0000 N   0  0  0  0  0  0  0  0  0  0  0  0
   -0.2301   -0.6134    0.0000 C   0  0  3  0  0  0  0  0  0  0  0  0
    1.2199    0.2370    0.0000 C   0  0  3  0  0  0  0  0  0  0  0  0
    0.4810    0.6273    0.0000 C   0  0  0  0  0  0  0  0  0  0  0  0
    0.4810   -1.0317    0.0000 C   0  0  3  0  0  0  0  0  0  0  0  0
   -0.9411    0.6552    0.0000 C   0  0  3  0  0  0  0  0  0  0  0  0
   -0.9689   -1.0456    0.0000 C   0  0  0  0  0  0  0  0  0  0  0  0
   -1.7218    0.1952    0.0000 C   0  0  0  0  0  0  0  0  0  0  0  0
    0.4810   -1.8961    0.0000 C   0  0  0  0  0  0  0  0  0  0  0  0
   -0.9411    1.4777    0.0000 C   0  0  0  0  0  0  0  0  0  0  0  0
    1.9309    0.6413    0.0000 C   0  0  0  0  0  0  0  0  0  0  0  0
   -2.4746    0.2092    0.0000 C   0  0  0  0  0  0  0  0  0  0  0  0
   -2.0843   -0.4879    0.0000 C   0  0  0  0  0  0  0  0  0  0  0  0
    1.4290    1.0178    0.0000 C   0  0  0  0  0  0  0  0  0  0  0  0
   -1.6800   -0.6413    0.0000 C   0  0  0  0  0  0  0  0  0  0  0  0
   -1.6800    2.7744    0.0000 C   0  0  0  0  0  0  0  0  0  0  0  0
   -0.9550   -1.8821    0.0000 C   0  0  0  0  0  0  0  0  0  0  0  0
    1.2060   -2.3143    0.0000 C   0  0  0  0  0  0  0  0  0  0  0  0
   -0.2161   -2.3143    0.0000 C   0  0  0  0  0  0  0  0  0  0  0  0
   -2.3770   -1.0456    0.0000 C   0  0  0  0  0  0  0  0  0  0  0  0
    2.6559    0.2510    0.0000 C   0  0  0  0  0  0  0  0  0  0  0  0
   -2.3910   -1.8821    0.0000 C   0  0  0  0  0  0  0  0  0  0  0  0
   -1.6520   -2.3003    0.0000 C   0  0  0  0  0  0  0  0  0  0  0  0
    1.2060   -3.1368    0.0000 C   0  0  0  0  0  0  0  0  0  0  0  0
   -0.2161   -3.1508    0.0000 C   0  0  0  0  0  0  0  0  0  0  0  0
    0.4810   -3.5551    0.0000 C   0  0  0  0  0  0  0  0  0  0  0  0
   -1.9030    3.5691    0.0000 C   0  0  0  0  0  0  0  0  0  0  0  0
   -2.4049    3.1508    0.0000 C   0  0  0  0  0  0  0  0  0  0  0  0
   -0.9271    3.1786    0.0000 C   0  0  0  0  0  0  0  0  0  0  0  0
  1 32  1  0  0  0  0
  2 34  1  0  0  0  0
  3  8  2  0  0  0  0
  3  9  2  0  0  0  0
  3 20  1  0  0  0  0
  3 26  1  0  0  0  0
  4 31  2  0  0  0  0
  5 30  1  0  0  0  0
  6 13  1  0  0  0  0
 15  6  1  6  0  0  0
  7 14  2  0  0  0  0
 12 10  1  1  0  0  0
 10 14  1  0  0  0  0
 10 16  1  0  0  0  0
 11 31  1  0  0  0  0
 12 15  1  0  0  0  0
 12 17  1  0  0  0  0
 13 14  1  0  0  0  0
 13 21  1  1  0  0  0
 13 24  1  6  0  0  0
 15 19  1  0  0  0  0
 16 18  1  0  0  0  0
 16 20  1  1  0  0  0
 17 25  2  0  0  0  0
 17 27  1  0  0  0  0
 18 22  1  0  0  0  0
 18 23  1  0  0  0  0
 19 28  1  0  0  0  0
 19 29  2  0  0  0  0
 21 31  1  0  0  0  0
 22 23  1  0  0  0  0
 25 30  1  0  0  0  0
 26 37  1  0  0  0  0
 26 38  1  0  0  0  0
 26 39  1  0  0  0  0
 27 33  2  0  0  0  0
 28 34  2  0  0  0  0
 29 35  1  0  0  0  0
 30 32  2  0  0  0  0
 32 33  1  0  0  0  0
 34 36  1  0  0  0  0
 35 36  2  0  0  0  0
M  END
> <PUBCHEM_COMPOUND_ID_TYPE>
0

> <PUBCHEM_TOTAL_CHARGE>
0

> <PUBCHEM_SUBSTANCE_ID>
310947710

> <PUBCHEM_SUBSTANCE_VERSION>
1

> <PUBCHEM_EXT_DATASOURCE_NAME>
4488

> <PUBCHEM_EXT_DATASOURCE_REGID>
SCHEMBL16125881

> <PUBCHEM_SUBSTANCE_COMMENT>
InChI=1S/C28H33Cl2FN2O4S2/c1-27(2,3)39(35,36)15-22(16-8-9-16)33-24(17-10-11-20(30)21(31)13-17)25(18-6-5-7-19(29)12-18)37-28(4,26(33)34)14-23(32)38/h5-7,10-13,16,22,24-25H,8-9,14-15H2,1-4H3,(H2,32,38)/t22-,24-,25-,28-/m1/s1
InChIKey=TZKCQTNUJDVAIJ-ZYWWQZICSA-N

> <PUBCHEM_SUBSTANCE_SYNONYM>
SCHEMBL16125881

> <PUBCHEM_XREF_EXT_ID>
SCHEMBL16125881

> <PUBCHEM_EXT_DATASOURCE_URL>
https://www.surechembl.org/

> <PUBCHEM_EXT_SUBSTANCE_URL>
https://www.surechembl.org/chemical/SCHEMBL16125881

> <PUBCHEM_CID_ASSOCIATIONS>
117613416  1

> <PUBCHEM_COORDINATE_TYPE>
1
3

> <PUBCHEM_BONDANNOTATIONS>
12  10  5
13  21  5
13  24  6
16  20  5
15  6  6

$$$$
