310938641
  -OEChem-07211613022D

 10  9  0     0  0  0  0  0  0999 V2000
   -2.3783    0.6169    0.0000 O   0  0  0  0  0  0  0  0  0  0  0  0
   -3.0928    1.8544    0.0000 O   0  0  0  0  0  0  0  0  0  0  0  0
   -3.0928    1.0294    0.0000 C   0  0  0  0  0  0  0  0  0  0  0  0
   -3.8072    0.6169    0.0000 C   0  0  0  0  0  0  0  0  0  0  0  0
   -2.3783   -0.2081    0.0000 C   0  0  0  0  0  0  0  0  0  0  0  0
   -3.0928   -0.6206    0.0000 C   0  0  0  0  0  0  0  0  0  0  0  0
   -4.5217    1.0294    0.0000 C   0  0  0  0  0  0  0  0  0  0  0  0
   -3.0928   -1.4456    0.0000 C   0  0  0  0  0  0  0  0  0  0  0  0
   -5.2362    0.6169    0.0000 C   0  0  0  0  0  0  0  0  0  0  0  0
   -3.8072   -1.8581    0.0000 C   0  0  0  0  0  0  0  0  0  0  0  0
  1  3  1  0  0  0  0
  1  5  1  0  0  0  0
  2  3  2  0  0  0  0
  3  4  1  0  0  0  0
  4  7  1  0  0  0  0
  5  6  1  0  0  0  0
  6  8  1  0  0  0  0
  7  9  2  0  0  0  0
  8 10  2  0  0  0  0
M  END
> <PUBCHEM_COMPOUND_ID_TYPE>
0

> <PUBCHEM_TOTAL_CHARGE>
0

> <PUBCHEM_SUBSTANCE_ID>
310938641

> <PUBCHEM_SUBSTANCE_VERSION>
1

> <PUBCHEM_EXT_DATASOURCE_NAME>
4488

> <PUBCHEM_EXT_DATASOURCE_REGID>
SCHEMBL16116555

> <PUBCHEM_SUBSTANCE_COMMENT>
InChI=1S/C8H12O2/c1-3-5-7-10-8(9)6-4-2/h3-4H,1-2,5-7H2
InChIKey=MJOHDNZQKKAVJE-UHFFFAOYSA-N

> <PUBCHEM_SUBSTANCE_SYNONYM>
SCHEMBL16116555

> <PUBCHEM_XREF_EXT_ID>
SCHEMBL16116555

> <PUBCHEM_EXT_DATASOURCE_URL>
https://www.surechembl.org/

> <PUBCHEM_EXT_SUBSTANCE_URL>
https://www.surechembl.org/chemical/SCHEMBL16116555

> <PUBCHEM_CID_ASSOCIATIONS>
13402747  1

> <PUBCHEM_COORDINATE_TYPE>
1
3

$$$$
