310930388
  -OEChem-07211613022D

 30 33  0     0  0  0  0  0  0999 V2000
    6.6321   -3.5724    0.0000 Cl  0  0  0  0  0  0  0  0  0  0  0  0
    4.1571   -5.0013    0.0000 Cl  0  0  0  0  0  0  0  0  0  0  0  0
    4.9821   -3.5724    0.0000 S   0  0  0  0  0  0  0  0  0  0  0  0
    4.2675   -3.9849    0.0000 O   0  0  0  0  0  0  0  0  0  0  0  0
    5.6965   -3.1599    0.0000 O   0  0  0  0  0  0  0  0  0  0  0  0
    0.7846    0.6674    0.0000 O   0  0  0  0  0  0  0  0  0  0  0  0
    2.5071    0.7145    0.0000 O   0  0  0  0  0  0  0  0  0  0  0  0
    2.5071   -0.7145    0.0000 N   0  0  0  0  0  0  0  0  0  0  0  0
   -1.4290    0.4125    0.0000 N   0  0  0  0  0  0  0  0  0  0  0  0
    5.3946   -4.2868    0.0000 C   0  0  0  0  0  0  0  0  0  0  0  0
    4.5696   -2.8579    0.0000 C   0  0  0  0  0  0  0  0  0  0  0  0
    6.2196   -4.2868    0.0000 C   0  0  0  0  0  0  0  0  0  0  0  0
    4.9821   -5.0013    0.0000 C   0  0  0  0  0  0  0  0  0  0  0  0
    3.7446   -2.8579    0.0000 C   0  0  0  0  0  0  0  0  0  0  0  0
    4.9821   -2.1434    0.0000 C   0  0  0  0  0  0  0  0  0  0  0  0
    1.2696    0.0000    0.0000 C   0  0  0  0  0  0  0  0  0  0  0  0
    0.0000    0.4125    0.0000 C   0  0  0  0  0  0  0  0  0  0  0  0
    0.0000   -0.4125    0.0000 C   0  0  0  0  0  0  0  0  0  0  0  0
    6.6321   -5.0013    0.0000 C   0  0  0  0  0  0  0  0  0  0  0  0
    5.3946   -5.7158    0.0000 C   0  0  0  0  0  0  0  0  0  0  0  0
    3.7446   -1.4290    0.0000 C   0  0  0  0  0  0  0  0  0  0  0  0
    0.7846   -0.6674    0.0000 C   0  0  0  0  0  0  0  0  0  0  0  0
    3.3321   -2.1434    0.0000 C   0  0  0  0  0  0  0  0  0  0  0  0
    4.5696   -1.4290    0.0000 C   0  0  0  0  0  0  0  0  0  0  0  0
    2.0946    0.0000    0.0000 C   0  0  0  0  0  0  0  0  0  0  0  0
    6.2196   -5.7158    0.0000 C   0  0  0  0  0  0  0  0  0  0  0  0
    3.3321   -0.7145    0.0000 C   0  0  0  0  0  0  0  0  0  0  0  0
   -0.7145    0.8250    0.0000 C   0  0  0  0  0  0  0  0  0  0  0  0
   -0.7145   -0.8250    0.0000 C   0  0  0  0  0  0  0  0  0  0  0  0
   -1.4290   -0.4125    0.0000 C   0  0  0  0  0  0  0  0  0  0  0  0
  1 12  1  0  0  0  0
  2 13  1  0  0  0  0
  3  4  2  0  0  0  0
  3  5  2  0  0  0  0
  3 10  1  0  0  0  0
  3 11  1  0  0  0  0
  6 16  1  0  0  0  0
  6 17  1  0  0  0  0
  7 25  2  0  0  0  0
  8 25  1  0  0  0  0
  8 27  1  0  0  0  0
  9 28  2  0  0  0  0
  9 30  1  0  0  0  0
 10 12  1  0  0  0  0
 10 13  2  0  0  0  0
 11 14  2  0  0  0  0
 11 15  1  0  0  0  0
 12 19  2  0  0  0  0
 13 20  1  0  0  0  0
 14 23  1  0  0  0  0
 15 24  2  0  0  0  0
 16 22  2  0  0  0  0
 16 25  1  0  0  0  0
 17 18  2  0  0  0  0
 17 28  1  0  0  0  0
 18 22  1  0  0  0  0
 18 29  1  0  0  0  0
 19 26  1  0  0  0  0
 20 26  2  0  0  0  0
 21 23  2  0  0  0  0
 21 24  1  0  0  0  0
 21 27  1  0  0  0  0
 29 30  2  0  0  0  0
M  END
> <PUBCHEM_COMPOUND_ID_TYPE>
0

> <PUBCHEM_TOTAL_CHARGE>
0

> <PUBCHEM_SUBSTANCE_ID>
310930388

> <PUBCHEM_SUBSTANCE_VERSION>
1

> <PUBCHEM_EXT_DATASOURCE_NAME>
4488

> <PUBCHEM_EXT_DATASOURCE_REGID>
SCHEMBL16107674

> <PUBCHEM_SUBSTANCE_COMMENT>
InChI=1S/C21H14Cl2N2O4S/c22-16-2-1-3-17(23)20(16)30(27,28)15-6-4-13(5-7-15)11-25-21(26)18-10-14-8-9-24-12-19(14)29-18/h1-10,12H,11H2,(H,25,26)
InChIKey=MDBFLDRVZSTRNI-UHFFFAOYSA-N

> <PUBCHEM_SUBSTANCE_SYNONYM>
SCHEMBL16107674

> <PUBCHEM_XREF_EXT_ID>
SCHEMBL16107674

> <PUBCHEM_EXT_DATASOURCE_URL>
https://www.surechembl.org/

> <PUBCHEM_EXT_SUBSTANCE_URL>
https://www.surechembl.org/chemical/SCHEMBL16107674

> <PUBCHEM_CID_ASSOCIATIONS>
117599540  1

> <PUBCHEM_COORDINATE_TYPE>
1
3

$$$$
