310947115
  -OEChem-07211613022D

 33 37  0     1  0  0  0  0  0999 V2000
    0.0366    0.7251    0.0000 F   0  0  0  0  0  0  0  0  0  0  0  0
   -2.4976   -1.2818    0.0000 O   0  0  0  0  0  0  0  0  0  0  0  0
    2.9664   -3.1422    0.0000 O   0  0  0  0  0  0  0  0  0  0  0  0
   -1.2086    0.9595    0.0000 N   0  0  0  0  0  0  0  0  0  0  0  0
   -0.7397    0.3735    0.0000 N   0  0  0  0  0  0  0  0  0  0  0  0
   -0.8862   -1.0327    0.0000 N   0  0  0  0  0  0  0  0  0  0  0  0
    1.5162   -2.8199    0.0000 N   0  0  0  0  0  0  0  0  0  0  0  0
   -3.2154   -0.0952    0.0000 N   0  0  0  0  0  0  0  0  0  0  0  0
   -2.9664    2.7467    0.0000 N   0  0  0  0  0  0  0  0  0  0  0  0
   -0.9742    1.7945    0.0000 C   0  0  3  0  0  0  0  0  0  0  0  0
   -1.9117    0.7105    0.0000 C   0  0  0  0  0  0  0  0  0  0  0  0
   -1.8970   -0.0513    0.0000 C   0  0  0  0  0  0  0  0  0  0  0  0
   -1.1646   -0.2563    0.0000 C   0  0  0  0  0  0  0  0  0  0  0  0
   -0.1685    1.5455    0.0000 C   0  0  3  0  0  0  0  0  0  0  0  0
   -2.5269   -0.4175    0.0000 C   0  0  0  0  0  0  0  0  0  0  0  0
    2.3951   -1.7652    0.0000 C   0  0  0  0  0  0  0  0  0  0  0  0
    1.5894   -1.4575    0.0000 C   0  0  0  0  0  0  0  0  0  0  0  0
   -1.1646    2.5855    0.0000 C   0  0  0  0  0  0  0  0  0  0  0  0
    1.0621   -2.1022    0.0000 C   0  0  0  0  0  0  0  0  0  0  0  0
   -2.6002    1.0474    0.0000 C   0  0  0  0  0  0  0  0  0  0  0  0
   -1.7652    1.5601    0.0000 C   0  0  0  0  0  0  0  0  0  0  0  0
   -0.0513   -1.1792    0.0000 C   0  0  0  0  0  0  0  0  0  0  0  0
    2.2926   -2.5855    0.0000 C   0  0  0  0  0  0  0  0  0  0  0  0
    0.2417   -1.9557    0.0000 C   0  0  0  0  0  0  0  0  0  0  0  0
    1.3111   -0.6812    0.0000 C   0  0  0  0  0  0  0  0  0  0  0  0
    0.4175    2.1022    0.0000 C   0  0  0  0  0  0  0  0  0  0  0  0
   -3.2301    0.6665    0.0000 C   0  0  0  0  0  0  0  0  0  0  0  0
    0.4908   -0.5493    0.0000 C   0  0  0  0  0  0  0  0  0  0  0  0
   -0.5786    3.1422    0.0000 C   0  0  0  0  0  0  0  0  0  0  0  0
    0.2124    2.9225    0.0000 C   0  0  0  0  0  0  0  0  0  0  0  0
   -2.3658    2.1607    0.0000 C   0  0  0  0  0  0  0  0  0  0  0  0
    2.7613   -1.0327    0.0000 C   0  0  0  0  0  0  0  0  0  0  0  0
    3.2301   -1.7359    0.0000 C   0  0  0  0  0  0  0  0  0  0  0  0
 14  1  1  1  0  0  0
  2 15  2  0  0  0  0
  3 23  2  0  0  0  0
  4  5  1  0  0  0  0
  4 10  1  0  0  0  0
  4 11  1  0  0  0  0
  5 13  2  0  0  0  0
  6 13  1  0  0  0  0
  6 22  1  0  0  0  0
  7 19  1  0  0  0  0
  7 23  1  0  0  0  0
  8 15  1  0  0  0  0
  8 27  1  0  0  0  0
  9 31  3  0  0  0  0
 10 14  1  0  0  0  0
 10 18  1  0  0  0  0
 10 21  1  6  0  0  0
 11 12  2  0  0  0  0
 11 20  1  0  0  0  0
 12 13  1  0  0  0  0
 12 15  1  0  0  0  0
 14 26  1  0  0  0  0
 16 17  1  0  0  0  0
 16 23  1  0  0  0  0
 16 32  1  0  0  0  0
 16 33  1  0  0  0  0
 17 19  1  0  0  0  0
 17 25  2  0  0  0  0
 18 29  1  0  0  0  0
 19 24  2  0  0  0  0
 20 27  2  0  0  0  0
 21 31  1  0  0  0  0
 22 24  1  0  0  0  0
 22 28  2  0  0  0  0
 25 28  1  0  0  0  0
 26 30  1  0  0  0  0
 29 30  1  0  0  0  0
M  END
> <PUBCHEM_COMPOUND_ID_TYPE>
0

> <PUBCHEM_TOTAL_CHARGE>
0

> <PUBCHEM_SUBSTANCE_ID>
310947115

> <PUBCHEM_SUBSTANCE_VERSION>
1

> <PUBCHEM_EXT_DATASOURCE_NAME>
4488

> <PUBCHEM_EXT_DATASOURCE_REGID>
SCHEMBL16125269

> <PUBCHEM_SUBSTANCE_COMMENT>
InChI=1S/C24H25FN6O2/c1-23(2)15-7-6-14(13-16(15)29-22(23)33)28-20-19-17(8-12-27-21(19)32)31(30-20)24(10-11-26)9-4-3-5-18(24)25/h6-8,12-13,18H,3-5,9-10H2,1-2H3,(H,27,32)(H,28,30)(H,29,33)/t18-,24-/m1/s1
InChIKey=SSLGYCGYZMIQJD-HOYKHHGWSA-N

> <PUBCHEM_SUBSTANCE_SYNONYM>
SCHEMBL16125269

> <PUBCHEM_XREF_EXT_ID>
SCHEMBL16125269

> <PUBCHEM_EXT_DATASOURCE_URL>
https://www.surechembl.org/

> <PUBCHEM_EXT_SUBSTANCE_URL>
https://www.surechembl.org/chemical/SCHEMBL16125269

> <PUBCHEM_CID_ASSOCIATIONS>
117612964  1

> <PUBCHEM_COORDINATE_TYPE>
1
3

> <PUBCHEM_BONDANNOTATIONS>
14  1  5
10  21  6

$$$$
