310942908
  -OEChem-07211613022D

 38 42  0     1  0  0  0  0  0999 V2000
    0.5783    0.9270    0.0000 F   0  0  0  0  0  0  0  0  0  0  0  0
    4.3782    0.4131    0.0000 O   0  0  0  0  0  0  0  0  0  0  0  0
    3.4603   -0.7251    0.0000 N   0  0  0  0  0  0  0  0  0  0  0  0
    3.5337   -1.5511    0.0000 N   0  0  0  0  0  0  0  0  0  0  0  0
    4.7637   -1.0188    0.0000 N   0  0  0  0  0  0  0  0  0  0  0  0
    0.6700   -0.6884    0.0000 N   0  0  0  0  0  0  0  0  0  0  0  0
    4.3415   -1.7347    0.0000 N   0  0  0  0  0  0  0  0  0  0  0  0
   -0.7618   -0.6884    0.0000 N   0  0  0  0  0  0  0  0  0  0  0  0
   -0.0458    0.5599    0.0000 N   0  0  0  0  0  0  0  0  0  0  0  0
   -2.1937   -0.6884    0.0000 N   0  0  0  0  0  0  0  0  0  0  0  0
   -4.3599    0.5599    0.0000 N   0  0  0  0  0  0  0  0  0  0  0  0
   -2.9096    1.3309    0.0000 N   0  0  0  0  0  0  0  0  0  0  0  0
    2.7260   -0.2845    0.0000 C   0  0  0  0  0  0  0  0  0  0  0  0
    2.7260    0.5231    0.0000 C   0  0  0  0  0  0  0  0  0  0  0  0
    3.4787    0.9637    0.0000 C   0  0  0  0  0  0  0  0  0  0  0  0
    1.2943   -0.2845    0.0000 C   0  0  0  0  0  0  0  0  0  0  0  0
    2.0284   -0.7068    0.0000 C   0  0  0  0  0  0  0  0  0  0  0  0
    2.0100    0.9270    0.0000 C   0  0  0  0  0  0  0  0  0  0  0  0
    4.1947   -0.3947    0.0000 C   0  0  0  0  0  0  0  0  0  0  0  0
    1.3125    0.5231    0.0000 C   0  0  0  0  0  0  0  0  0  0  0  0
    3.8642    1.6063    0.0000 C   0  0  0  0  0  0  0  0  0  0  0  0
    4.2497    0.9454    0.0000 C   0  0  0  0  0  0  0  0  0  0  0  0
   -0.0642   -0.2479    0.0000 C   0  0  0  0  0  0  0  0  0  0  0  0
   -1.4961   -0.2479    0.0000 C   0  0  0  0  0  0  0  0  0  0  0  0
   -1.4778    0.5783    0.0000 C   0  0  0  0  0  0  0  0  0  0  0  0
   -0.7618    0.9821    0.0000 C   0  0  0  0  0  0  0  0  0  0  0  0
    5.6264   -0.8904    0.0000 C   0  0  0  0  0  0  0  0  0  0  0  0
   -2.9280   -0.2479    0.0000 C   0  0  3  0  0  0  0  0  0  0  0  0
   -2.2121    0.9821    0.0000 C   0  0  0  0  0  0  0  0  0  0  0  0
   -3.6439    1.0188    0.0000 C   0  0  0  0  0  0  0  0  0  0  0  0
   -2.9096    0.5783    0.0000 C   0  0  0  0  0  0  0  0  0  0  0  0
   -3.6072   -0.6700    0.0000 C   0  0  0  0  0  0  0  0  0  0  0  0
   -4.3782   -0.2662    0.0000 C   0  0  0  0  0  0  0  0  0  0  0  0
   -4.0478    1.7347    0.0000 C   0  0  0  0  0  0  0  0  0  0  0  0
   -3.1849    1.7163    0.0000 C   0  0  0  0  0  0  0  0  0  0  0  0
   -5.1309    0.8169    0.0000 C   0  0  0  0  0  0  0  0  0  0  0  0
   -5.1125   -0.5048    0.0000 C   0  0  0  0  0  0  0  0  0  0  0  0
   -5.6264    0.1560    0.0000 C   0  0  0  0  0  0  0  0  0  0  0  0
  1 20  1  0  0  0  0
  2 19  2  0  0  0  0
  3  4  1  0  0  0  0
  3 13  1  0  0  0  0
  3 19  1  0  0  0  0
  4  7  1  0  0  0  0
  5  7  1  0  0  0  0
  5 19  1  0  0  0  0
  5 27  1  0  0  0  0
  6 16  1  0  0  0  0
  6 23  1  0  0  0  0
  8 23  2  0  0  0  0
  8 24  1  0  0  0  0
  9 23  1  0  0  0  0
  9 26  2  0  0  0  0
 10 24  1  0  0  0  0
 28 10  1  1  0  0  0
 11 30  1  0  0  0  0
 11 36  1  0  0  0  0
 12 29  3  0  0  0  0
 13 14  2  0  0  0  0
 13 17  1  0  0  0  0
 14 15  1  0  0  0  0
 14 18  1  0  0  0  0
 15 21  1  0  0  0  0
 15 22  1  0  0  0  0
 16 17  2  0  0  0  0
 16 20  1  0  0  0  0
 18 20  2  0  0  0  0
 21 22  1  0  0  0  0
 24 25  2  0  0  0  0
 25 26  1  0  0  0  0
 25 29  1  0  0  0  0
 28 31  1  0  0  0  0
 28 32  1  0  0  0  0
 30 31  1  0  0  0  0
 30 34  1  0  0  0  0
 30 35  1  0  0  0  0
 32 33  1  0  0  0  0
 33 37  1  0  0  0  0
 36 38  1  0  0  0  0
 37 38  1  0  0  0  0
M  END
> <PUBCHEM_COMPOUND_ID_TYPE>
0

> <PUBCHEM_TOTAL_CHARGE>
0

> <PUBCHEM_SUBSTANCE_ID>
310942908

> <PUBCHEM_SUBSTANCE_VERSION>
1

> <PUBCHEM_EXT_DATASOURCE_NAME>
4488

> <PUBCHEM_EXT_DATASOURCE_REGID>
SCHEMBL16120966

> <PUBCHEM_SUBSTANCE_COMMENT>
InChI=1S/C26H35FN10O/c1-26(2)13-18(7-5-4-6-10-30-26)31-23-17(14-28)15-29-24(33-23)32-21-12-22(37-25(38)36(3)34-35-37)19(11-20(21)27)16-8-9-16/h11-12,15-16,18,30,34-35H,4-10,13H2,1-3H3,(H2,29,31,32,33)/t18-/m0/s1
InChIKey=HGOYACQBJGUKFW-SFHVURJKSA-N

> <PUBCHEM_SUBSTANCE_SYNONYM>
SCHEMBL16120966

> <PUBCHEM_XREF_EXT_ID>
SCHEMBL16120966

> <PUBCHEM_EXT_DATASOURCE_URL>
https://www.surechembl.org/

> <PUBCHEM_EXT_SUBSTANCE_URL>
https://www.surechembl.org/chemical/SCHEMBL16120966

> <PUBCHEM_CID_ASSOCIATIONS>
117609384  1

> <PUBCHEM_COORDINATE_TYPE>
1
3

> <PUBCHEM_BONDANNOTATIONS>
28  10  5

$$$$
