310929517
  -OEChem-07211613022D

 34 36  0     0  0  0  0  0  0999 V2000
   13.2006   -2.8148    0.0000 O   0  0  0  0  0  0  0  0  0  0  0  0
    0.0000   -4.0281    0.0000 O   0  0  0  0  0  0  0  0  0  0  0  0
   11.8417   -3.6399    0.0000 N   0  0  0  0  0  0  0  0  0  0  0  0
   12.5212   -4.0281    0.0000 C   0  0  0  0  0  0  0  0  0  0  0  0
   12.5212   -4.8531    0.0000 C   0  0  0  0  0  0  0  0  0  0  0  0
   13.2006   -3.6399    0.0000 C   0  0  0  0  0  0  0  0  0  0  0  0
   11.1623   -4.0281    0.0000 C   0  0  0  0  0  0  0  0  0  0  0  0
   11.8417   -5.2414    0.0000 C   0  0  0  0  0  0  0  0  0  0  0  0
   13.2006   -5.2414    0.0000 C   0  0  0  0  0  0  0  0  0  0  0  0
   13.9286   -4.0281    0.0000 C   0  0  0  0  0  0  0  0  0  0  0  0
   11.1623   -4.8531    0.0000 C   0  0  0  0  0  0  0  0  0  0  0  0
   13.9286   -4.8531    0.0000 C   0  0  0  0  0  0  0  0  0  0  0  0
   10.4342   -3.6399    0.0000 C   0  0  0  0  0  0  0  0  0  0  0  0
   13.8800   -2.4266    0.0000 C   0  0  0  0  0  0  0  0  0  0  0  0
   13.8800   -1.6015    0.0000 C   0  0  0  0  0  0  0  0  0  0  0  0
    9.7549   -4.0281    0.0000 C   0  0  0  0  0  0  0  0  0  0  0  0
   14.5594   -1.2133    0.0000 C   0  0  0  0  0  0  0  0  0  0  0  0
   13.1520   -1.2133    0.0000 C   0  0  0  0  0  0  0  0  0  0  0  0
   14.5594   -0.3883    0.0000 C   0  0  0  0  0  0  0  0  0  0  0  0
   13.1520   -0.3883    0.0000 C   0  0  0  0  0  0  0  0  0  0  0  0
    9.0268   -3.6399    0.0000 C   0  0  0  0  0  0  0  0  0  0  0  0
   13.8315    0.0000    0.0000 C   0  0  0  0  0  0  0  0  0  0  0  0
    8.3474   -4.0281    0.0000 C   0  0  0  0  0  0  0  0  0  0  0  0
    7.6680   -3.6399    0.0000 C   0  0  0  0  0  0  0  0  0  0  0  0
    6.9400   -4.0281    0.0000 C   0  0  0  0  0  0  0  0  0  0  0  0
    6.2605   -3.6399    0.0000 C   0  0  0  0  0  0  0  0  0  0  0  0
    5.5811   -4.0281    0.0000 C   0  0  0  0  0  0  0  0  0  0  0  0
    4.8531   -3.6399    0.0000 C   0  0  0  0  0  0  0  0  0  0  0  0
    4.1737   -4.0281    0.0000 C   0  0  0  0  0  0  0  0  0  0  0  0
    3.4943   -3.6399    0.0000 C   0  0  0  0  0  0  0  0  0  0  0  0
    2.8148   -4.0281    0.0000 C   0  0  0  0  0  0  0  0  0  0  0  0
    2.0868   -3.6399    0.0000 C   0  0  0  0  0  0  0  0  0  0  0  0
    1.4074   -4.0281    0.0000 C   0  0  0  0  0  0  0  0  0  0  0  0
    0.6794   -3.6399    0.0000 C   0  0  0  0  0  0  0  0  0  0  0  0
  1  6  1  0  0  0  0
  1 14  1  0  0  0  0
  2 34  1  0  0  0  0
  3  4  2  0  0  0  0
  3  7  1  0  0  0  0
  4  5  1  0  0  0  0
  4  6  1  0  0  0  0
  5  8  2  0  0  0  0
  5  9  1  0  0  0  0
  6 10  2  0  0  0  0
  7 11  2  0  0  0  0
  7 13  1  0  0  0  0
  8 11  1  0  0  0  0
  9 12  2  0  0  0  0
 10 12  1  0  0  0  0
 13 16  1  0  0  0  0
 14 15  1  0  0  0  0
 15 17  2  0  0  0  0
 15 18  1  0  0  0  0
 16 21  1  0  0  0  0
 17 19  1  0  0  0  0
 18 20  2  0  0  0  0
 19 22  2  0  0  0  0
 20 22  1  0  0  0  0
 21 23  1  0  0  0  0
 23 24  1  0  0  0  0
 24 25  1  0  0  0  0
 25 26  1  0  0  0  0
 26 27  1  0  0  0  0
 27 28  1  0  0  0  0
 28 29  1  0  0  0  0
 29 30  1  0  0  0  0
 30 31  1  0  0  0  0
 31 32  1  0  0  0  0
 32 33  1  0  0  0  0
 33 34  1  0  0  0  0
M  END
> <PUBCHEM_COMPOUND_ID_TYPE>
0

> <PUBCHEM_TOTAL_CHARGE>
0

> <PUBCHEM_SUBSTANCE_ID>
310929517

> <PUBCHEM_SUBSTANCE_VERSION>
1

> <PUBCHEM_EXT_DATASOURCE_NAME>
4488

> <PUBCHEM_EXT_DATASOURCE_REGID>
SCHEMBL16106696

> <PUBCHEM_SUBSTANCE_COMMENT>
InChI=1S/C31H43NO2/c33-25-16-11-9-7-5-3-1-2-4-6-8-10-15-21-29-24-23-28-20-17-22-30(31(28)32-29)34-26-27-18-13-12-14-19-27/h12-14,17-20,22-24,33H,1-11,15-16,21,25-26H2
InChIKey=BLPVUTPKHXIBAB-UHFFFAOYSA-N

> <PUBCHEM_SUBSTANCE_SYNONYM>
SCHEMBL16106696

> <PUBCHEM_XREF_EXT_ID>
SCHEMBL16106696

> <PUBCHEM_EXT_DATASOURCE_URL>
https://www.surechembl.org/

> <PUBCHEM_EXT_SUBSTANCE_URL>
https://www.surechembl.org/chemical/SCHEMBL16106696

> <PUBCHEM_CID_ASSOCIATIONS>
85473455  1

> <PUBCHEM_COORDINATE_TYPE>
1
3

$$$$
