310929426
  -OEChem-07211613022D

 68 75  0     1  0  0  0  0  0999 V2000
    2.3848   -5.1547    0.0000 S   0  0  0  0  0  0  0  0  0  0  0  0
   -4.2868   -0.8250    0.0000 O   0  0  0  0  0  0  0  0  0  0  0  0
    1.5598   -3.7257    0.0000 O   0  0  0  0  0  0  0  0  0  0  0  0
   -1.4290   -0.8250    0.0000 O   0  0  0  0  0  0  0  0  0  0  0  0
    2.3848   -5.9797    0.0000 O   0  0  0  0  0  0  0  0  0  0  0  0
    2.3848   -4.3297    0.0000 O   0  0  0  0  0  0  0  0  0  0  0  0
   -1.3277   -4.4402    0.0000 O   0  0  0  0  0  0  0  0  0  0  0  0
   -2.8579   -4.1250    0.0000 O   0  0  0  0  0  0  0  0  0  0  0  0
   -5.0013   -2.0625    0.0000 O   0  0  0  0  0  0  0  0  0  0  0  0
    0.0000    1.6500    0.0000 O   0  0  0  0  0  0  0  0  0  0  0  0
    1.4290    6.6000    0.0000 O   0  0  0  0  0  0  0  0  0  0  0  0
   -0.0902   -3.7257    0.0000 N   0  0  0  0  0  0  0  0  0  0  0  0
    1.5598   -5.1547    0.0000 N   0  0  0  0  0  0  0  0  0  0  0  0
   -2.1434   -2.8875    0.0000 N   0  0  0  0  0  0  0  0  0  0  0  0
   -3.5724   -2.0625    0.0000 N   0  0  0  0  0  0  0  0  0  0  0  0
    0.0000   -0.8250    0.0000 N   0  0  0  0  0  0  0  0  0  0  0  0
    0.7144    4.5375    0.0000 N   0  0  0  0  0  0  0  0  0  0  0  0
    0.3223   -4.4402    0.0000 C   0  0  3  0  0  0  0  0  0  0  0  0
    0.3223   -5.2651    0.0000 C   0  0  3  0  0  0  0  0  0  0  0  0
   -5.0013   -0.4125    0.0000 C   0  0  3  0  0  0  0  0  0  0  0  0
   -5.0013    0.4125    0.0000 C   0  0  3  0  0  0  0  0  0  0  0  0
   -0.3922   -4.8526    0.0000 C   0  0  0  0  0  0  0  0  0  0  0  0
    1.1473   -4.4402    0.0000 C   0  0  0  0  0  0  0  0  0  0  0  0
   -5.7158    0.0000    0.0000 C   0  0  0  0  0  0  0  0  0  0  0  0
    3.2098   -5.1547    0.0000 C   0  0  0  0  0  0  0  0  0  0  0  0
   -0.9152   -3.7257    0.0000 C   0  0  0  0  0  0  0  0  0  0  0  0
   -1.3277   -3.0112    0.0000 C   0  0  3  0  0  0  0  0  0  0  0  0
   -1.4290   -1.6500    0.0000 C   0  0  3  0  0  0  0  0  0  0  0  0
   -4.2868    0.8250    0.0000 C   0  0  0  0  0  0  0  0  0  0  0  0
    0.7348   -5.9797    0.0000 C   0  0  0  0  0  0  0  0  0  0  0  0
    3.6223   -4.4402    0.0000 C   0  0  0  0  0  0  0  0  0  0  0  0
    4.0348   -5.1547    0.0000 C   0  0  0  0  0  0  0  0  0  0  0  0
   -0.9152   -2.2967    0.0000 C   0  0  0  0  0  0  0  0  0  0  0  0
   -2.1434   -2.0625    0.0000 C   0  0  0  0  0  0  0  0  0  0  0  0
   -2.8579   -3.3000    0.0000 C   0  0  0  0  0  0  0  0  0  0  0  0
   -4.2868   -1.6500    0.0000 C   0  0  0  0  0  0  0  0  0  0  0  0
   -3.5724   -2.8875    0.0000 C   0  0  3  0  0  0  0  0  0  0  0  0
    2.7973   -5.8691    0.0000 C   0  0  0  0  0  0  0  0  0  0  0  0
   -0.7144   -0.4125    0.0000 C   0  0  0  0  0  0  0  0  0  0  0  0
   -4.2868   -3.3000    0.0000 C   0  0  0  0  0  0  0  0  0  0  0  0
   -3.5724    0.4125    0.0000 C   0  0  0  0  0  0  0  0  0  0  0  0
   -0.7144    0.4125    0.0000 C   0  0  0  0  0  0  0  0  0  0  0  0
    1.5598   -5.9797    0.0000 C   0  0  0  0  0  0  0  0  0  0  0  0
    0.0000    0.8250    0.0000 C   0  0  0  0  0  0  0  0  0  0  0  0
    0.7144    0.4125    0.0000 C   0  0  0  0  0  0  0  0  0  0  0  0
    0.7144   -0.4125    0.0000 C   0  0  0  0  0  0  0  0  0  0  0  0
   -2.8579    0.8250    0.0000 C   0  0  0  0  0  0  0  0  0  0  0  0
   -1.4290    0.8250    0.0000 C   0  0  0  0  0  0  0  0  0  0  0  0
   -2.1434    0.4125    0.0000 C   0  0  0  0  0  0  0  0  0  0  0  0
   -4.2868   -4.1250    0.0000 C   0  0  0  0  0  0  0  0  0  0  0  0
   -5.0013   -3.7125    0.0000 C   0  0  0  0  0  0  0  0  0  0  0  0
   -5.0013   -2.8875    0.0000 C   0  0  0  0  0  0  0  0  0  0  0  0
    1.4290    0.8250    0.0000 C   0  0  0  0  0  0  0  0  0  0  0  0
    1.4290   -0.8250    0.0000 C   0  0  0  0  0  0  0  0  0  0  0  0
    2.1434    0.4125    0.0000 C   0  0  0  0  0  0  0  0  0  0  0  0
    2.1434   -0.4125    0.0000 C   0  0  0  0  0  0  0  0  0  0  0  0
    0.7144    2.0625    0.0000 C   0  0  0  0  0  0  0  0  0  0  0  0
    0.7144    2.8875    0.0000 C   0  0  0  0  0  0  0  0  0  0  0  0
    1.4290    3.3000    0.0000 C   0  0  0  0  0  0  0  0  0  0  0  0
    0.0000    3.3000    0.0000 C   0  0  0  0  0  0  0  0  0  0  0  0
    1.4290    4.1250    0.0000 C   0  0  0  0  0  0  0  0  0  0  0  0
    0.0000    4.1250    0.0000 C   0  0  0  0  0  0  0  0  0  0  0  0
    0.7144    5.3625    0.0000 C   0  0  0  0  0  0  0  0  0  0  0  0
    1.4290    5.7750    0.0000 C   0  0  0  0  0  0  0  0  0  0  0  0
    2.1434    7.0125    0.0000 C   0  0  0  0  0  0  0  0  0  0  0  0
   -5.4138   -1.1270    0.0000 H   0  0  0  0  0  0  0  0  0  0  0  0
   -5.4138    1.1270    0.0000 H   0  0  0  0  0  0  0  0  0  0  0  0
   -0.6500   -1.3783    0.0000 H   0  0  0  0  0  0  0  0  0  0  0  0
  1  5  2  0  0  0  0
  1  6  2  0  0  0  0
  1 13  1  0  0  0  0
  1 25  1  0  0  0  0
  2 20  1  0  0  0  0
  2 36  1  0  0  0  0
  3 23  2  0  0  0  0
  4 28  1  0  0  0  0
  4 39  1  0  0  0  0
  7 26  2  0  0  0  0
  8 35  2  0  0  0  0
  9 36  2  0  0  0  0
 10 44  1  0  0  0  0
 10 57  1  0  0  0  0
 11 64  1  0  0  0  0
 11 65  1  0  0  0  0
 18 12  1  1  0  0  0
 12 26  1  0  0  0  0
 13 23  1  0  0  0  0
 14 27  1  0  0  0  0
 14 34  1  0  0  0  0
 14 35  1  0  0  0  0
 15 36  1  0  0  0  0
 15 37  1  0  0  0  0
 16 39  2  0  0  0  0
 16 46  1  0  0  0  0
 17 61  1  0  0  0  0
 17 62  1  0  0  0  0
 17 63  1  0  0  0  0
 18 19  1  0  0  0  0
 18 22  1  0  0  0  0
 18 23  1  6  0  0  0
 19 22  1  0  0  0  0
 19 30  1  6  0  0  0
 20 21  1  0  0  0  0
 20 24  1  0  0  0  0
 20 66  1  1  0  0  0
 21 24  1  0  0  0  0
 21 29  1  0  0  0  0
 21 67  1  6  0  0  0
 25 31  1  0  0  0  0
 25 32  1  0  0  0  0
 25 38  1  0  0  0  0
 27 26  1  1  0  0  0
 27 33  1  0  0  0  0
 28 33  1  0  0  0  0
 28 34  1  0  0  0  0
 28 68  1  1  0  0  0
 29 41  1  0  0  0  0
 30 43  2  0  0  0  0
 31 32  1  0  0  0  0
 35 37  1  0  0  0  0
 37 40  1  6  0  0  0
 39 42  1  0  0  0  0
 40 50  1  0  0  0  0
 40 51  1  0  0  0  0
 40 52  1  0  0  0  0
 41 47  1  0  0  0  0
 42 44  2  0  0  0  0
 42 48  1  0  0  0  0
 44 45  1  0  0  0  0
 45 46  1  0  0  0  0
 45 53  2  0  0  0  0
 46 54  2  0  0  0  0
 47 49  1  0  0  0  0
 48 49  1  0  0  0  0
 53 55  1  0  0  0  0
 54 56  1  0  0  0  0
 55 56  2  0  0  0  0
 57 58  1  0  0  0  0
 58 59  1  0  0  0  0
 58 60  1  0  0  0  0
 59 61  1  0  0  0  0
 60 62  1  0  0  0  0
 63 64  1  0  0  0  0
M  END
> <PUBCHEM_COMPOUND_ID_TYPE>
0

> <PUBCHEM_TOTAL_CHARGE>
0

> <PUBCHEM_SUBSTANCE_ID>
310929426

> <PUBCHEM_SUBSTANCE_VERSION>
1

> <PUBCHEM_EXT_DATASOURCE_NAME>
4488

> <PUBCHEM_EXT_DATASOURCE_REGID>
SCHEMBL16106600

> <PUBCHEM_SUBSTANCE_COMMENT>
InChI=1S/C48H68N6O10S/c1-7-32-27-48(32,44(57)52-65(59,60)47(5)19-20-47)51-41(55)37-26-33-28-54(37)43(56)40(46(2,3)4)50-45(58)64-38-25-31(38)13-9-8-10-15-35-39(34-14-11-12-16-36(34)49-42(35)63-33)62-29-30-17-21-53(22-18-30)23-24-61-6/h7,11-12,14,16,30-33,37-38,40H,1,8-10,13,15,17-29H2,2-6H3,(H,50,58)(H,51,55)(H,52,57)/t31-,32-,33-,37+,38-,40-,48-/m1/s1
InChIKey=FODCSQCNGGKIDZ-UCPWVXRUSA-N

> <PUBCHEM_SUBSTANCE_SYNONYM>
SCHEMBL16106600

> <PUBCHEM_XREF_EXT_ID>
SCHEMBL16106600

> <PUBCHEM_EXT_DATASOURCE_URL>
https://www.surechembl.org/

> <PUBCHEM_EXT_SUBSTANCE_URL>
https://www.surechembl.org/chemical/SCHEMBL16106600

> <PUBCHEM_CID_ASSOCIATIONS>
117598784  1

> <PUBCHEM_COORDINATE_TYPE>
1
3

> <PUBCHEM_BONDANNOTATIONS>
18  12  5
18  23  6
19  30  6
20  66  5
21  67  6
27  26  5
28  68  5
37  40  6

$$$$
