310949801
  -OEChem-07211613022D

 22 23  0     0  0  0  0  0  0999 V2000
   -1.0545   -0.7359    0.0000 O   0  0  0  0  0  0  0  0  0  0  0  0
    2.6802   -0.0110    0.0000 O   0  0  0  0  0  0  0  0  0  0  0  0
    2.7022   -1.4170    0.0000 O   0  0  0  0  0  0  0  0  0  0  0  0
   -1.0545    0.6919    0.0000 N   0  0  0  0  0  0  0  0  0  0  0  0
   -3.5479   -0.7579    0.0000 N   0  0  0  0  0  0  0  0  0  0  0  0
   -1.4829    0.0000    0.0000 C   0  0  0  0  0  0  0  0  0  0  0  0
   -0.2197   -0.7029    0.0000 C   0  0  0  0  0  0  0  0  0  0  0  0
   -2.3067    0.0000    0.0000 C   0  0  0  0  0  0  0  0  0  0  0  0
    1.4280   -0.6700    0.0000 C   0  0  0  0  0  0  0  0  0  0  0  0
    0.1977   -1.4170    0.0000 C   0  0  0  0  0  0  0  0  0  0  0  0
    0.1867    0.0110    0.0000 C   0  0  0  0  0  0  0  0  0  0  0  0
    1.0325   -1.3950    0.0000 C   0  0  0  0  0  0  0  0  0  0  0  0
    0.9995    0.0439    0.0000 C   0  0  0  0  0  0  0  0  0  0  0  0
    2.2847   -0.6919    0.0000 C   0  0  0  0  0  0  0  0  0  0  0  0
   -2.7241    0.6919    0.0000 C   0  0  0  0  0  0  0  0  0  0  0  0
   -2.7241   -0.7140    0.0000 C   0  0  0  0  0  0  0  0  0  0  0  0
   -1.4939    1.4170    0.0000 C   0  0  0  0  0  0  0  0  0  0  0  0
   -2.3177    1.4170    0.0000 C   0  0  0  0  0  0  0  0  0  0  0  0
    3.5039   -0.0110    0.0000 C   0  0  0  0  0  0  0  0  0  0  0  0
   -3.9104   -0.0879    0.0000 C   0  0  0  0  0  0  0  0  0  0  0  0
    3.9104   -0.6919    0.0000 C   0  0  0  0  0  0  0  0  0  0  0  0
   -3.6248    0.2527    0.0000 C   0  0  0  0  0  0  0  0  0  0  0  0
  1  6  1  0  0  0  0
  1  7  1  0  0  0  0
  2 14  1  0  0  0  0
  2 19  1  0  0  0  0
  3 14  2  0  0  0  0
  4  6  1  0  0  0  0
  4 17  2  0  0  0  0
  5 16  1  0  0  0  0
  5 20  1  0  0  0  0
  6  8  2  0  0  0  0
  7 10  2  0  0  0  0
  7 11  1  0  0  0  0
  8 15  1  0  0  0  0
  8 16  1  0  0  0  0
  9 12  2  0  0  0  0
  9 13  1  0  0  0  0
  9 14  1  0  0  0  0
 10 12  1  0  0  0  0
 11 13  2  0  0  0  0
 15 18  2  0  0  0  0
 17 18  1  0  0  0  0
 19 21  1  0  0  0  0
 20 22  1  0  0  0  0
M  END
> <PUBCHEM_COMPOUND_ID_TYPE>
0

> <PUBCHEM_TOTAL_CHARGE>
0

> <PUBCHEM_SUBSTANCE_ID>
310949801

> <PUBCHEM_SUBSTANCE_VERSION>
1

> <PUBCHEM_EXT_DATASOURCE_NAME>
4488

> <PUBCHEM_EXT_DATASOURCE_REGID>
SCHEMBL16127999

> <PUBCHEM_SUBSTANCE_COMMENT>
InChI=1S/C17H20N2O3/c1-3-18-12-14-6-5-11-19-16(14)22-15-9-7-13(8-10-15)17(20)21-4-2/h5-11,18H,3-4,12H2,1-2H3
InChIKey=BWROZARLTWEATH-UHFFFAOYSA-N

> <PUBCHEM_SUBSTANCE_SYNONYM>
SCHEMBL16127999

> <PUBCHEM_XREF_EXT_ID>
SCHEMBL16127999

> <PUBCHEM_EXT_DATASOURCE_URL>
https://www.surechembl.org/

> <PUBCHEM_EXT_SUBSTANCE_URL>
https://www.surechembl.org/chemical/SCHEMBL16127999

> <PUBCHEM_CID_ASSOCIATIONS>
117615122  1

> <PUBCHEM_COORDINATE_TYPE>
1
3

> <PUBCHEM_BONDANNOTATIONS>
22  20  3

$$$$
