310931132
  -OEChem-07211613022D

 13 13  0     0  0  0  0  0  0999 V2000
    1.4367    0.0000    0.0000 I   0  0  0  0  0  0  0  0  0  0  0  0
    0.0000   -2.4751    0.0000 Br  0  0  0  0  0  0  0  0  0  0  0  0
    3.5703   -1.2375    0.0000 O   0  0  0  0  0  0  0  0  0  0  0  0
    2.8591    0.0000    0.0000 O   0  0  0  0  0  0  0  0  0  0  0  0
    2.1336   -1.2375    0.0000 C   0  0  0  0  0  0  0  0  0  0  0  0
    1.4367   -0.8250    0.0000 C   0  0  0  0  0  0  0  0  0  0  0  0
    2.8591   -0.8250    0.0000 C   0  0  0  0  0  0  0  0  0  0  0  0
    2.1336   -2.0625    0.0000 C   0  0  0  0  0  0  0  0  0  0  0  0
    0.7255   -1.2375    0.0000 C   0  0  0  0  0  0  0  0  0  0  0  0
    0.7255   -2.0625    0.0000 C   0  0  0  0  0  0  0  0  0  0  0  0
    1.4367   -2.4751    0.0000 C   0  0  0  0  0  0  0  0  0  0  0  0
    4.2673   -0.8250    0.0000 C   0  0  0  0  0  0  0  0  0  0  0  0
    4.2673    0.0000    0.0000 C   0  0  0  0  0  0  0  0  0  0  0  0
  1  6  1  0  0  0  0
  2 10  1  0  0  0  0
  3  7  1  0  0  0  0
  3 12  1  0  0  0  0
  4  7  2  0  0  0  0
  5  6  2  0  0  0  0
  5  7  1  0  0  0  0
  5  8  1  0  0  0  0
  6  9  1  0  0  0  0
  8 11  2  0  0  0  0
  9 10  2  0  0  0  0
 10 11  1  0  0  0  0
 12 13  1  0  0  0  0
M  END
> <PUBCHEM_COMPOUND_ID_TYPE>
0

> <PUBCHEM_TOTAL_CHARGE>
0

> <PUBCHEM_SUBSTANCE_ID>
310931132

> <PUBCHEM_SUBSTANCE_VERSION>
1

> <PUBCHEM_EXT_DATASOURCE_NAME>
4488

> <PUBCHEM_EXT_DATASOURCE_REGID>
SCHEMBL16108436

> <PUBCHEM_SUBSTANCE_COMMENT>
InChI=1S/C9H8BrIO2/c1-2-13-9(12)7-4-3-6(10)5-8(7)11/h3-5H,2H2,1H3
InChIKey=DAYOYSNRJMKALF-UHFFFAOYSA-N

> <PUBCHEM_SUBSTANCE_SYNONYM>
SCHEMBL16108436

> <PUBCHEM_XREF_EXT_ID>
SCHEMBL16108436

> <PUBCHEM_EXT_DATASOURCE_URL>
https://www.surechembl.org/

> <PUBCHEM_EXT_SUBSTANCE_URL>
https://www.surechembl.org/chemical/SCHEMBL16108436

> <PUBCHEM_CID_ASSOCIATIONS>
91882220  1

> <PUBCHEM_COORDINATE_TYPE>
1
3

$$$$
