310949763
  -OEChem-07211613022D

 24 25  0     0  0  0  0  0  0999 V2000
   -2.2688   -1.0863    0.0000 O   0  0  0  0  0  0  0  0  0  0  0  0
   -3.0938   -1.0863    0.0000 O   0  0  0  0  0  0  0  0  0  0  0  0
   -4.3313   -0.3575    0.0000 O   0  0  0  0  0  0  0  0  0  0  0  0
    4.3313   -1.0863    0.0000 O   0  0  0  0  0  0  0  0  0  0  0  0
    4.3313    0.3575    0.0000 O   0  0  0  0  0  0  0  0  0  0  0  0
   -1.0312   -0.3713    0.0000 N   0  0  0  0  0  0  0  0  0  0  0  0
   -2.2826    0.3575    0.0000 C   0  0  0  0  0  0  0  0  0  0  0  0
   -3.0938    0.3713    0.0000 C   0  0  0  0  0  0  0  0  0  0  0  0
   -1.8563   -0.3438    0.0000 C   0  0  0  0  0  0  0  0  0  0  0  0
   -3.5201   -0.3438    0.0000 C   0  0  0  0  0  0  0  0  0  0  0  0
   -1.8701    1.0587    0.0000 C   0  0  0  0  0  0  0  0  0  0  0  0
   -3.5063    1.0587    0.0000 C   0  0  0  0  0  0  0  0  0  0  0  0
    0.2063   -1.0863    0.0000 C   0  0  0  0  0  0  0  0  0  0  0  0
   -2.2826    1.7875    0.0000 C   0  0  0  0  0  0  0  0  0  0  0  0
   -0.6187   -1.0863    0.0000 C   0  0  0  0  0  0  0  0  0  0  0  0
   -3.0938    1.7875    0.0000 C   0  0  0  0  0  0  0  0  0  0  0  0
    1.8563   -1.0725    0.0000 C   0  0  0  0  0  0  0  0  0  0  0  0
    0.6187   -1.7875    0.0000 C   0  0  0  0  0  0  0  0  0  0  0  0
    0.6325   -0.3713    0.0000 C   0  0  0  0  0  0  0  0  0  0  0  0
    1.4437   -1.7875    0.0000 C   0  0  0  0  0  0  0  0  0  0  0  0
    1.4300   -0.3713    0.0000 C   0  0  0  0  0  0  0  0  0  0  0  0
    2.6813   -1.0863    0.0000 C   0  0  0  0  0  0  0  0  0  0  0  0
    3.1076   -0.3575    0.0000 C   0  0  0  0  0  0  0  0  0  0  0  0
    3.9051   -0.3575    0.0000 C   0  0  0  0  0  0  0  0  0  0  0  0
  1  9  2  0  0  0  0
  2 10  2  0  0  0  0
  3 10  1  0  0  0  0
  4 24  2  0  0  0  0
  5 24  1  0  0  0  0
  6  9  1  0  0  0  0
  6 15  1  0  0  0  0
  7  8  2  0  0  0  0
  7  9  1  0  0  0  0
  7 11  1  0  0  0  0
  8 10  1  0  0  0  0
  8 12  1  0  0  0  0
 11 14  2  0  0  0  0
 12 16  2  0  0  0  0
 13 15  1  0  0  0  0
 13 18  2  0  0  0  0
 13 19  1  0  0  0  0
 14 16  1  0  0  0  0
 17 20  2  0  0  0  0
 17 21  1  0  0  0  0
 17 22  1  0  0  0  0
 18 20  1  0  0  0  0
 19 21  2  0  0  0  0
 22 23  1  0  0  0  0
 23 24  1  0  0  0  0
M  END
> <PUBCHEM_COMPOUND_ID_TYPE>
0

> <PUBCHEM_TOTAL_CHARGE>
0

> <PUBCHEM_SUBSTANCE_ID>
310949763

> <PUBCHEM_SUBSTANCE_VERSION>
1

> <PUBCHEM_EXT_DATASOURCE_NAME>
4488

> <PUBCHEM_EXT_DATASOURCE_REGID>
SCHEMBL16127961

> <PUBCHEM_SUBSTANCE_COMMENT>
InChI=1S/C18H17NO5/c20-16(21)10-9-12-5-7-13(8-6-12)11-19-17(22)14-3-1-2-4-15(14)18(23)24/h1-8H,9-11H2,(H,19,22)(H,20,21)(H,23,24)
InChIKey=OTYBHFSBXQSMLC-UHFFFAOYSA-N

> <PUBCHEM_SUBSTANCE_SYNONYM>
SCHEMBL16127961

> <PUBCHEM_XREF_EXT_ID>
SCHEMBL16127961

> <PUBCHEM_EXT_DATASOURCE_URL>
https://www.surechembl.org/

> <PUBCHEM_EXT_SUBSTANCE_URL>
https://www.surechembl.org/chemical/SCHEMBL16127961

> <PUBCHEM_CID_ASSOCIATIONS>
117615089  1

> <PUBCHEM_COORDINATE_TYPE>
1
3

$$$$
