310929929
  -OEChem-07211613022D

 29 33  0     0  0  0  0  0  0999 V2000
    0.0000   -7.0340    0.0000 O   0  0  0  0  0  0  0  0  0  0  0  0
    1.4329   -7.0340    0.0000 N   0  0  0  0  0  0  0  0  0  0  0  0
    2.8223   -4.5591    0.0000 N   0  0  0  0  0  0  0  0  0  0  0  0
    2.1710   -7.4248    0.0000 C   0  0  0  0  0  0  0  0  0  0  0  0
    2.8657   -7.0340    0.0000 C   0  0  0  0  0  0  0  0  0  0  0  0
    2.1710   -8.2498    0.0000 C   0  0  0  0  0  0  0  0  0  0  0  0
    2.8223   -6.2090    0.0000 C   0  0  0  0  0  0  0  0  0  0  0  0
    3.5605   -7.4248    0.0000 C   0  0  0  0  0  0  0  0  0  0  0  0
    2.8657   -8.6840    0.0000 C   0  0  0  0  0  0  0  0  0  0  0  0
    1.4329   -8.6840    0.0000 C   0  0  0  0  0  0  0  0  0  0  0  0
    0.6947   -7.4248    0.0000 C   0  0  0  0  0  0  0  0  0  0  0  0
    3.5605   -5.7749    0.0000 C   0  0  0  0  0  0  0  0  0  0  0  0
    2.1276   -5.8183    0.0000 C   0  0  0  0  0  0  0  0  0  0  0  0
    3.5605   -8.2498    0.0000 C   0  0  0  0  0  0  0  0  0  0  0  0
    0.6947   -8.2498    0.0000 C   0  0  0  0  0  0  0  0  0  0  0  0
    3.5605   -4.9499    0.0000 C   0  0  0  0  0  0  0  0  0  0  0  0
    2.1276   -4.9933    0.0000 C   0  0  0  0  0  0  0  0  0  0  0  0
    2.0842   -3.3433    0.0000 C   0  0  0  0  0  0  0  0  0  0  0  0
    1.3894   -2.0842    0.0000 C   0  0  0  0  0  0  0  0  0  0  0  0
    2.8223   -3.7341    0.0000 C   0  0  0  0  0  0  0  0  0  0  0  0
    1.3460   -1.2592    0.0000 C   0  0  0  0  0  0  0  0  0  0  0  0
    2.0842   -2.5183    0.0000 C   0  0  0  0  0  0  0  0  0  0  0  0
    1.3894   -3.7341    0.0000 C   0  0  0  0  0  0  0  0  0  0  0  0
    0.6513   -2.5183    0.0000 C   0  0  0  0  0  0  0  0  0  0  0  0
    0.6513   -3.3433    0.0000 C   0  0  0  0  0  0  0  0  0  0  0  0
    0.6947   -0.7815    0.0000 C   0  0  0  0  0  0  0  0  0  0  0  0
    2.0407   -0.7815    0.0000 C   0  0  0  0  0  0  0  0  0  0  0  0
    0.9553    0.0000    0.0000 C   0  0  0  0  0  0  0  0  0  0  0  0
    1.7368    0.0000    0.0000 C   0  0  0  0  0  0  0  0  0  0  0  0
  1 11  2  0  0  0  0
  2  4  1  0  0  0  0
  2 11  1  0  0  0  0
  3 16  1  0  0  0  0
  3 17  1  0  0  0  0
  3 20  1  0  0  0  0
  4  5  1  0  0  0  0
  4  6  2  0  0  0  0
  5  7  1  0  0  0  0
  5  8  2  0  0  0  0
  6  9  1  0  0  0  0
  6 10  1  0  0  0  0
  7 12  1  0  0  0  0
  7 13  1  0  0  0  0
  8 14  1  0  0  0  0
  9 14  2  0  0  0  0
 10 15  2  0  0  0  0
 11 15  1  0  0  0  0
 12 16  1  0  0  0  0
 13 17  1  0  0  0  0
 18 20  1  0  0  0  0
 18 22  2  0  0  0  0
 18 23  1  0  0  0  0
 19 21  1  0  0  0  0
 19 22  1  0  0  0  0
 19 24  2  0  0  0  0
 21 26  2  0  0  0  0
 21 27  1  0  0  0  0
 23 25  2  0  0  0  0
 24 25  1  0  0  0  0
 26 28  1  0  0  0  0
 27 29  1  0  0  0  0
 28 29  1  0  0  0  0
M  END
> <PUBCHEM_COMPOUND_ID_TYPE>
0

> <PUBCHEM_TOTAL_CHARGE>
0

> <PUBCHEM_SUBSTANCE_ID>
310929929

> <PUBCHEM_SUBSTANCE_VERSION>
1

> <PUBCHEM_EXT_DATASOURCE_NAME>
4488

> <PUBCHEM_EXT_DATASOURCE_REGID>
SCHEMBL16107150

> <PUBCHEM_SUBSTANCE_COMMENT>
InChI=1S/C26H28N2O/c29-25-12-11-22-8-4-10-24(26(22)27-25)21-13-15-28(16-14-21)18-19-5-3-9-23(17-19)20-6-1-2-7-20/h3-6,8-12,17,21H,1-2,7,13-16,18H2,(H,27,29)
InChIKey=WVANCVXRGDAGRW-UHFFFAOYSA-N

> <PUBCHEM_SUBSTANCE_SYNONYM>
SCHEMBL16107150

> <PUBCHEM_XREF_EXT_ID>
SCHEMBL16107150

> <PUBCHEM_EXT_DATASOURCE_URL>
https://www.surechembl.org/

> <PUBCHEM_EXT_SUBSTANCE_URL>
https://www.surechembl.org/chemical/SCHEMBL16107150

> <PUBCHEM_CID_ASSOCIATIONS>
86274178  1

> <PUBCHEM_COORDINATE_TYPE>
1
3

$$$$
