310949647
  -OEChem-07211613022D

 23 24  0     0  0  0  0  0  0999 V2000
    2.8551   -1.1063    0.0000 S   0  0  0  0  0  0  0  0  0  0  0  0
    3.2659   -0.3776    0.0000 O   0  0  0  0  0  0  0  0  0  0  0  0
    2.4444   -1.8350    0.0000 O   0  0  0  0  0  0  0  0  0  0  0  0
    3.5706   -1.5302    0.0000 O   0  0  0  0  0  0  0  0  0  0  0  0
   -1.4243    1.4243    0.0000 O   0  0  0  0  0  0  0  0  0  0  0  0
   -2.1397    1.8350    0.0000 O   0  0  0  0  0  0  0  0  0  0  0  0
   -3.5706    1.8350    0.0000 O   0  0  0  0  0  0  0  0  0  0  0  0
   -0.7221    0.1656    0.0000 N   0  0  0  0  0  0  0  0  0  0  0  0
    2.1397   -0.6691    0.0000 C   0  0  0  0  0  0  0  0  0  0  0  0
   -2.1529    0.1524    0.0000 C   0  0  0  0  0  0  0  0  0  0  0  0
   -2.8684    0.5764    0.0000 C   0  0  0  0  0  0  0  0  0  0  0  0
   -1.4375    0.5631    0.0000 C   0  0  0  0  0  0  0  0  0  0  0  0
    0.7221    0.1391    0.0000 C   0  0  0  0  0  0  0  0  0  0  0  0
    2.1397    0.1391    0.0000 C   0  0  0  0  0  0  0  0  0  0  0  0
    1.4110   -1.0931    0.0000 C   0  0  0  0  0  0  0  0  0  0  0  0
    1.4110    0.5631    0.0000 C   0  0  0  0  0  0  0  0  0  0  0  0
    0.7221   -0.6823    0.0000 C   0  0  0  0  0  0  0  0  0  0  0  0
   -2.8684    1.4110    0.0000 C   0  0  0  0  0  0  0  0  0  0  0  0
   -2.1529   -0.6823    0.0000 C   0  0  0  0  0  0  0  0  0  0  0  0
   -0.0199    0.5764    0.0000 C   0  0  0  0  0  0  0  0  0  0  0  0
   -3.5706    0.1524    0.0000 C   0  0  0  0  0  0  0  0  0  0  0  0
   -2.8551   -1.0931    0.0000 C   0  0  0  0  0  0  0  0  0  0  0  0
   -3.5706   -0.6823    0.0000 C   0  0  0  0  0  0  0  0  0  0  0  0
  1  2  2  0  0  0  0
  1  3  2  0  0  0  0
  1  4  1  0  0  0  0
  1  9  1  0  0  0  0
  5 12  2  0  0  0  0
  6 18  2  0  0  0  0
  7 18  1  0  0  0  0
  8 12  1  0  0  0  0
  8 20  1  0  0  0  0
  9 14  2  0  0  0  0
  9 15  1  0  0  0  0
 10 11  2  0  0  0  0
 10 12  1  0  0  0  0
 10 19  1  0  0  0  0
 11 18  1  0  0  0  0
 11 21  1  0  0  0  0
 13 16  2  0  0  0  0
 13 17  1  0  0  0  0
 13 20  1  0  0  0  0
 14 16  1  0  0  0  0
 15 17  2  0  0  0  0
 19 22  2  0  0  0  0
 21 23  2  0  0  0  0
 22 23  1  0  0  0  0
M  END
> <PUBCHEM_COMPOUND_ID_TYPE>
0

> <PUBCHEM_TOTAL_CHARGE>
0

> <PUBCHEM_SUBSTANCE_ID>
310949647

> <PUBCHEM_SUBSTANCE_VERSION>
1

> <PUBCHEM_EXT_DATASOURCE_NAME>
4488

> <PUBCHEM_EXT_DATASOURCE_REGID>
SCHEMBL16127845

> <PUBCHEM_SUBSTANCE_COMMENT>
InChI=1S/C15H13NO6S/c17-14(12-3-1-2-4-13(12)15(18)19)16-9-10-5-7-11(8-6-10)23(20,21)22/h1-8H,9H2,(H,16,17)(H,18,19)(H,20,21,22)
InChIKey=FJGMYFQIIZKISS-UHFFFAOYSA-N

> <PUBCHEM_SUBSTANCE_SYNONYM>
SCHEMBL16127845

> <PUBCHEM_XREF_EXT_ID>
SCHEMBL16127845

> <PUBCHEM_EXT_DATASOURCE_URL>
https://www.surechembl.org/

> <PUBCHEM_EXT_SUBSTANCE_URL>
https://www.surechembl.org/chemical/SCHEMBL16127845

> <PUBCHEM_CID_ASSOCIATIONS>
85471539  1

> <PUBCHEM_COORDINATE_TYPE>
1
3

$$$$
