310933659
  -OEChem-07211613022D

 31 34  0     0  0  0  0  0  0999 V2000
    0.0000   -6.4148    0.0000 O   0  0  0  0  0  0  0  0  0  0  0  0
    3.4403   -6.7014    0.0000 O   0  0  0  0  0  0  0  0  0  0  0  0
    2.7594   -3.7628    0.0000 N   0  0  0  0  0  0  0  0  0  0  0  0
    2.3652   -2.4727    0.0000 N   0  0  0  0  0  0  0  0  0  0  0  0
    3.7987   -2.6878    0.0000 N   0  0  0  0  0  0  0  0  0  0  0  0
    1.9352   -3.7628    0.0000 C   0  0  0  0  0  0  0  0  0  0  0  0
    1.4693   -4.4079    0.0000 C   0  0  0  0  0  0  0  0  0  0  0  0
    2.3294   -4.4796    0.0000 C   0  0  0  0  0  0  0  0  0  0  0  0
    1.6843   -2.9745    0.0000 C   0  0  0  0  0  0  0  0  0  0  0  0
    3.0103   -2.9745    0.0000 C   0  0  0  0  0  0  0  0  0  0  0  0
    2.3652   -1.6485    0.0000 C   0  0  0  0  0  0  0  0  0  0  0  0
    1.7918   -5.1605    0.0000 C   0  0  0  0  0  0  0  0  0  0  0  0
    3.1536   -4.5154    0.0000 C   0  0  0  0  0  0  0  0  0  0  0  0
    0.6451   -4.3362    0.0000 C   0  0  0  0  0  0  0  0  0  0  0  0
    2.0427   -5.3396    0.0000 C   0  0  0  0  0  0  0  0  0  0  0  0
    1.6485   -1.2185    0.0000 C   0  0  0  0  0  0  0  0  0  0  0  0
    1.3260   -5.8414    0.0000 C   0  0  0  0  0  0  0  0  0  0  0  0
    3.5120   -5.2680    0.0000 C   0  0  0  0  0  0  0  0  0  0  0  0
    0.1433   -5.0171    0.0000 C   0  0  0  0  0  0  0  0  0  0  0  0
    2.2577   -5.9130    0.0000 C   0  0  0  0  0  0  0  0  0  0  0  0
    0.5017   -5.7339    0.0000 C   0  0  0  0  0  0  0  0  0  0  0  0
    3.0461   -5.9489    0.0000 C   0  0  0  0  0  0  0  0  0  0  0  0
    1.6127   -0.4300    0.0000 C   0  0  0  0  0  0  0  0  0  0  0  0
    0.8959   -1.6485    0.0000 C   0  0  0  0  0  0  0  0  0  0  0  0
    0.9318    0.0000    0.0000 C   0  0  0  0  0  0  0  0  0  0  0  0
    0.2150   -1.2185    0.0000 C   0  0  0  0  0  0  0  0  0  0  0  0
    0.2150   -0.3942    0.0000 C   0  0  0  0  0  0  0  0  0  0  0  0
    2.3294    0.0000    0.0000 C   0  0  0  0  0  0  0  0  0  0  0  0
    0.8959   -2.4727    0.0000 C   0  0  0  0  0  0  0  0  0  0  0  0
    0.3225   -7.1673    0.0000 C   0  0  0  0  0  0  0  0  0  0  0  0
    4.2646   -6.7373    0.0000 C   0  0  0  0  0  0  0  0  0  0  0  0
  1 21  1  0  0  0  0
  1 30  1  0  0  0  0
  2 22  1  0  0  0  0
  2 31  1  0  0  0  0
  3  6  1  0  0  0  0
  3 10  1  0  0  0  0
  4  9  1  0  0  0  0
  4 10  1  0  0  0  0
  4 11  1  0  0  0  0
  5 10  2  3  0  0  0
  6  7  1  0  0  0  0
  6  8  1  0  0  0  0
  6  9  1  0  0  0  0
  7 12  2  0  0  0  0
  7 14  1  0  0  0  0
  8 13  2  0  0  0  0
  8 15  1  0  0  0  0
 11 16  1  0  0  0  0
 12 17  1  0  0  0  0
 13 18  1  0  0  0  0
 14 19  2  0  0  0  0
 15 20  2  0  0  0  0
 16 23  1  0  0  0  0
 16 24  2  0  0  0  0
 17 21  2  0  0  0  0
 18 22  2  0  0  0  0
 19 21  1  0  0  0  0
 20 22  1  0  0  0  0
 23 25  2  0  0  0  0
 23 28  1  0  0  0  0
 24 26  1  0  0  0  0
 24 29  1  0  0  0  0
 25 27  1  0  0  0  0
 26 27  2  0  0  0  0
M  END
> <PUBCHEM_COMPOUND_ID_TYPE>
0

> <PUBCHEM_TOTAL_CHARGE>
0

> <PUBCHEM_SUBSTANCE_ID>
310933659

> <PUBCHEM_SUBSTANCE_VERSION>
1

> <PUBCHEM_EXT_DATASOURCE_NAME>
4488

> <PUBCHEM_EXT_DATASOURCE_REGID>
SCHEMBL16111092

> <PUBCHEM_SUBSTANCE_COMMENT>
InChI=1S/C26H29N3O2/c1-18-6-5-7-19(2)24(18)16-29-17-26(28-25(29)27,20-8-12-22(30-3)13-9-20)21-10-14-23(31-4)15-11-21/h5-15H,16-17H2,1-4H3,(H2,27,28)
InChIKey=DJNCDLBDPCKTHX-UHFFFAOYSA-N

> <PUBCHEM_SUBSTANCE_SYNONYM>
SCHEMBL16111092

> <PUBCHEM_XREF_EXT_ID>
SCHEMBL16111092

> <PUBCHEM_EXT_DATASOURCE_URL>
https://www.surechembl.org/

> <PUBCHEM_EXT_SUBSTANCE_URL>
https://www.surechembl.org/chemical/SCHEMBL16111092

> <PUBCHEM_CID_ASSOCIATIONS>
117602030  1

> <PUBCHEM_COORDINATE_TYPE>
1
3

$$$$
