310929381
  -OEChem-07211613022D

 26 27  0     0  0  0  0  0  0999 V2000
   10.5600   -3.6453    0.0000 F   0  0  0  0  0  0  0  0  0  0  0  0
   10.5600   -0.3758    0.0000 O   0  0  0  0  0  0  0  0  0  0  0  0
    0.0000   -1.6159    0.0000 O   0  0  0  0  0  0  0  0  0  0  0  0
    9.1695   -1.2026    0.0000 N   0  0  0  0  0  0  0  0  0  0  0  0
    9.8835   -1.6159    0.0000 C   0  0  0  0  0  0  0  0  0  0  0  0
    9.8835   -2.4051    0.0000 C   0  0  0  0  0  0  0  0  0  0  0  0
   10.5600   -1.2026    0.0000 C   0  0  0  0  0  0  0  0  0  0  0  0
   10.5975   -2.8185    0.0000 C   0  0  0  0  0  0  0  0  0  0  0  0
    8.4555   -1.6159    0.0000 C   0  0  0  0  0  0  0  0  0  0  0  0
    9.2071   -2.8185    0.0000 C   0  0  0  0  0  0  0  0  0  0  0  0
   11.2740   -1.5784    0.0000 C   0  0  0  0  0  0  0  0  0  0  0  0
   11.2740   -2.4051    0.0000 C   0  0  0  0  0  0  0  0  0  0  0  0
    8.4931   -2.4051    0.0000 C   0  0  0  0  0  0  0  0  0  0  0  0
    7.7790   -1.2026    0.0000 C   0  0  0  0  0  0  0  0  0  0  0  0
    9.8459    0.0000    0.0000 C   0  0  0  0  0  0  0  0  0  0  0  0
    7.0650   -1.6159    0.0000 C   0  0  0  0  0  0  0  0  0  0  0  0
    6.3510   -1.2026    0.0000 C   0  0  0  0  0  0  0  0  0  0  0  0
    9.1695   -0.4134    0.0000 C   0  0  0  0  0  0  0  0  0  0  0  0
    5.6370   -1.6159    0.0000 C   0  0  0  0  0  0  0  0  0  0  0  0
    4.9606   -1.2026    0.0000 C   0  0  0  0  0  0  0  0  0  0  0  0
    4.2465   -1.6159    0.0000 C   0  0  0  0  0  0  0  0  0  0  0  0
    3.5325   -1.2026    0.0000 C   0  0  0  0  0  0  0  0  0  0  0  0
    2.8185   -1.6159    0.0000 C   0  0  0  0  0  0  0  0  0  0  0  0
    2.1045   -1.2026    0.0000 C   0  0  0  0  0  0  0  0  0  0  0  0
    1.4281   -1.6159    0.0000 C   0  0  0  0  0  0  0  0  0  0  0  0
    0.7140   -1.2026    0.0000 C   0  0  0  0  0  0  0  0  0  0  0  0
  1  8  1  0  0  0  0
  2  7  1  0  0  0  0
  2 15  1  0  0  0  0
  3 26  1  0  0  0  0
  4  5  2  0  0  0  0
  4  9  1  0  0  0  0
  5  6  1  0  0  0  0
  5  7  1  0  0  0  0
  6  8  1  0  0  0  0
  6 10  2  0  0  0  0
  7 11  2  0  0  0  0
  8 12  2  0  0  0  0
  9 13  2  0  0  0  0
  9 14  1  0  0  0  0
 10 13  1  0  0  0  0
 11 12  1  0  0  0  0
 14 16  1  0  0  0  0
 15 18  1  0  0  0  0
 16 17  1  0  0  0  0
 17 19  1  0  0  0  0
 19 20  1  0  0  0  0
 20 21  1  0  0  0  0
 21 22  1  0  0  0  0
 22 23  1  0  0  0  0
 23 24  1  0  0  0  0
 24 25  1  0  0  0  0
 25 26  1  0  0  0  0
M  END
> <PUBCHEM_COMPOUND_ID_TYPE>
0

> <PUBCHEM_TOTAL_CHARGE>
0

> <PUBCHEM_SUBSTANCE_ID>
310929381

> <PUBCHEM_SUBSTANCE_VERSION>
1

> <PUBCHEM_EXT_DATASOURCE_NAME>
4488

> <PUBCHEM_EXT_DATASOURCE_REGID>
SCHEMBL16106554

> <PUBCHEM_SUBSTANCE_COMMENT>
InChI=1S/C22H32FNO2/c1-2-26-21-16-15-20(23)19-14-13-18(24-22(19)21)12-10-8-6-4-3-5-7-9-11-17-25/h13-16,25H,2-12,17H2,1H3
InChIKey=NKCMZNWCXWMWNJ-UHFFFAOYSA-N

> <PUBCHEM_SUBSTANCE_SYNONYM>
SCHEMBL16106554

> <PUBCHEM_XREF_EXT_ID>
SCHEMBL16106554

> <PUBCHEM_EXT_DATASOURCE_URL>
https://www.surechembl.org/

> <PUBCHEM_EXT_SUBSTANCE_URL>
https://www.surechembl.org/chemical/SCHEMBL16106554

> <PUBCHEM_CID_ASSOCIATIONS>
85472177  1

> <PUBCHEM_COORDINATE_TYPE>
1
3

$$$$
