310937721
  -OEChem-07211613022D

 27 30  0     1  0  0  0  0  0999 V2000
    1.6570   -1.7420    0.0000 S   0  0  0  0  0  0  0  0  0  0  0  0
    2.4643   -8.4975    0.0000 F   0  0  0  0  0  0  0  0  0  0  0  0
    0.0000   -5.6509    0.0000 O   0  0  0  0  0  0  0  0  0  0  0  0
    2.0394   -3.4840    0.0000 N   0  0  0  0  0  0  0  0  0  0  0  0
    1.2321   -4.9286    0.0000 N   0  0  0  0  0  0  0  0  0  0  0  0
    3.2291   -4.0363    0.0000 N   0  0  0  0  0  0  0  0  0  0  0  0
    3.3565   -3.1866    0.0000 N   0  0  0  0  0  0  0  0  0  0  0  0
    2.9741   -1.4446    0.0000 N   0  0  0  0  0  0  0  0  0  0  0  0
    1.7420   -0.8923    0.0000 N   0  0  0  0  0  0  0  0  0  0  0  0
    2.4643   -4.2063    0.0000 C   0  0  0  0  0  0  0  0  0  0  0  0
    2.5917   -2.8892    0.0000 C   0  0  0  0  0  0  0  0  0  0  0  0
    2.0394   -4.9286    0.0000 C   0  0  3  0  0  0  0  0  0  0  0  0
    2.4218   -2.0819    0.0000 C   0  0  0  0  0  0  0  0  0  0  0  0
    1.1897   -3.4840    0.0000 C   0  0  0  0  0  0  0  0  0  0  0  0
    0.8073   -5.6509    0.0000 C   0  0  0  0  0  0  0  0  0  0  0  0
    0.8073   -4.1638    0.0000 C   0  0  0  0  0  0  0  0  0  0  0  0
    2.4218   -5.6509    0.0000 C   0  0  0  0  0  0  0  0  0  0  0  0
    1.2321   -6.3306    0.0000 C   0  0  0  0  0  0  0  0  0  0  0  0
    2.5492   -0.7648    0.0000 C   0  0  0  0  0  0  0  0  0  0  0  0
    2.0394   -6.3731    0.0000 C   0  0  0  0  0  0  0  0  0  0  0  0
    0.8073   -7.0529    0.0000 C   0  0  0  0  0  0  0  0  0  0  0  0
    3.2715   -5.6509    0.0000 C   0  0  0  0  0  0  0  0  0  0  0  0
    2.4643   -7.0529    0.0000 C   0  0  0  0  0  0  0  0  0  0  0  0
    1.2321   -7.7752    0.0000 C   0  0  0  0  0  0  0  0  0  0  0  0
    2.0394   -7.7752    0.0000 C   0  0  0  0  0  0  0  0  0  0  0  0
    2.8892    0.0000    0.0000 C   0  0  0  0  0  0  0  0  0  0  0  0
    3.6540   -4.9286    0.0000 C   0  0  0  0  0  0  0  0  0  0  0  0
  1  9  1  0  0  0  0
  1 13  1  0  0  0  0
  2 25  1  0  0  0  0
  3 15  2  0  0  0  0
  4 10  1  0  0  0  0
  4 11  1  0  0  0  0
  4 14  1  0  0  0  0
  5 12  1  0  0  0  0
  5 15  1  0  0  0  0
  5 16  1  0  0  0  0
  6  7  1  0  0  0  0
  6 10  2  0  0  0  0
  7 11  2  0  0  0  0
  8 13  2  0  0  0  0
  8 19  1  0  0  0  0
  9 19  2  0  0  0  0
 10 12  1  0  0  0  0
 11 13  1  0  0  0  0
 12 17  1  1  0  0  0
 14 16  1  0  0  0  0
 15 18  1  0  0  0  0
 17 22  1  0  0  0  0
 18 20  2  0  0  0  0
 18 21  1  0  0  0  0
 19 26  1  0  0  0  0
 20 23  1  0  0  0  0
 21 24  2  0  0  0  0
 22 27  1  0  0  0  0
 23 25  2  0  0  0  0
 24 25  1  0  0  0  0
M  END
> <PUBCHEM_COMPOUND_ID_TYPE>
0

> <PUBCHEM_TOTAL_CHARGE>
0

> <PUBCHEM_SUBSTANCE_ID>
310937721

> <PUBCHEM_SUBSTANCE_VERSION>
1

> <PUBCHEM_EXT_DATASOURCE_NAME>
4488

> <PUBCHEM_EXT_DATASOURCE_REGID>
SCHEMBL16115519

> <PUBCHEM_SUBSTANCE_COMMENT>
InChI=1S/C18H19FN6OS/c1-3-4-14-15-21-22-16(17-20-11(2)23-27-17)25(15)10-9-24(14)18(26)12-5-7-13(19)8-6-12/h5-8,14H,3-4,9-10H2,1-2H3/t14-/m1/s1
InChIKey=GEUWDXLPGYKMAG-CQSZACIVSA-N

> <PUBCHEM_SUBSTANCE_SYNONYM>
SCHEMBL16115519

> <PUBCHEM_XREF_EXT_ID>
SCHEMBL16115519

> <PUBCHEM_EXT_DATASOURCE_URL>
https://www.surechembl.org/

> <PUBCHEM_EXT_SUBSTANCE_URL>
https://www.surechembl.org/chemical/SCHEMBL16115519

> <PUBCHEM_CID_ASSOCIATIONS>
86275211  1

> <PUBCHEM_COORDINATE_TYPE>
1
3

> <PUBCHEM_BONDANNOTATIONS>
12  17  5

$$$$
