310941893
  -OEChem-07211613022D

 10 11  0     0  0  0  0  0  0999 V2000
   -1.4681   -0.8599    0.0000 F   0  0  0  0  0  0  0  0  0  0  0  0
   -0.7271   -0.4125    0.0000 C   0  0  0  0  0  0  0  0  0  0  0  0
    0.6992    0.3845    0.0000 C   0  0  0  0  0  0  0  0  0  0  0  0
   -0.7131    0.4125    0.0000 C   0  0  0  0  0  0  0  0  0  0  0  0
    0.0000   -0.8599    0.0000 C   0  0  0  0  0  0  0  0  0  0  0  0
   -0.3635    0.1887    0.0000 C   0  0  0  0  0  0  0  0  0  0  0  0
    0.0000    0.8180    0.0000 C   0  0  0  0  0  0  0  0  0  0  0  0
    0.7130   -0.4404    0.0000 C   0  0  0  0  0  0  0  0  0  0  0  0
    0.2656   -0.0769    0.0000 C   0  0  0  0  0  0  0  0  0  0  0  0
    1.4681    0.8180    0.0000 C   0  0  0  0  0  0  0  0  0  0  0  0
  1  2  1  0  0  0  0
  2  4  1  0  0  0  0
  2  5  1  0  0  0  0
  2  6  1  0  0  0  0
  3  7  1  0  0  0  0
  3  8  1  0  0  0  0
  3  9  1  0  0  0  0
  3 10  1  0  0  0  0
  4  7  1  0  0  0  0
  5  8  1  0  0  0  0
  6  9  1  0  0  0  0
M  END
> <PUBCHEM_COMPOUND_ID_TYPE>
0

> <PUBCHEM_TOTAL_CHARGE>
0

> <PUBCHEM_SUBSTANCE_ID>
310941893

> <PUBCHEM_SUBSTANCE_VERSION>
1

> <PUBCHEM_EXT_DATASOURCE_NAME>
4488

> <PUBCHEM_EXT_DATASOURCE_REGID>
SCHEMBL16119925

> <PUBCHEM_SUBSTANCE_COMMENT>
InChI=1S/C9H15F/c1-8-2-5-9(10,6-3-8)7-4-8/h2-7H2,1H3
InChIKey=RLFWCAIINARCAJ-UHFFFAOYSA-N

> <PUBCHEM_SUBSTANCE_SYNONYM>
SCHEMBL16119925

> <PUBCHEM_XREF_EXT_ID>
SCHEMBL16119925

> <PUBCHEM_EXT_DATASOURCE_URL>
https://www.surechembl.org/

> <PUBCHEM_EXT_SUBSTANCE_URL>
https://www.surechembl.org/chemical/SCHEMBL16119925

> <PUBCHEM_CID_ASSOCIATIONS>
549389  1

> <PUBCHEM_COORDINATE_TYPE>
1
3

$$$$
