310942063
  -OEChem-07211613022D

 22 24  0     0  0  0  0  0  0999 V2000
    2.1792    1.1117    0.0000 O   0  0  0  0  0  0  0  0  0  0  0  0
    2.9744    3.1437    0.0000 O   0  0  0  0  0  0  0  0  0  0  0  0
   -0.9571   -1.0676    0.0000 N   0  0  0  0  0  0  0  0  0  0  0  0
    1.0896    2.0541    0.0000 N   0  0  0  0  0  0  0  0  0  0  0  0
   -0.5449    0.2135    0.0000 C   0  0  0  0  0  0  0  0  0  0  0  0
   -0.2797   -0.5374    0.0000 C   0  0  0  0  0  0  0  0  0  0  0  0
   -1.3693    0.2429    0.0000 C   0  0  0  0  0  0  0  0  0  0  0  0
   -1.6345   -0.5522    0.0000 C   0  0  0  0  0  0  0  0  0  0  0  0
    0.0148    0.8320    0.0000 C   0  0  0  0  0  0  0  0  0  0  0  0
    0.8246    0.6553    0.0000 C   0  0  0  0  0  0  0  0  0  0  0  0
    0.5153   -0.7289    0.0000 C   0  0  0  0  0  0  0  0  0  0  0  0
   -1.9143    0.8320    0.0000 C   0  0  0  0  0  0  0  0  0  0  0  0
   -2.4296   -0.7142    0.0000 C   0  0  0  0  0  0  0  0  0  0  0  0
    1.0749   -0.1105    0.0000 C   0  0  0  0  0  0  0  0  0  0  0  0
   -0.9571   -1.8774    0.0000 C   0  0  0  0  0  0  0  0  0  0  0  0
    1.3399    1.3031    0.0000 C   0  0  0  0  0  0  0  0  0  0  0  0
   -2.7241    0.6700    0.0000 C   0  0  0  0  0  0  0  0  0  0  0  0
   -2.9744   -0.1251    0.0000 C   0  0  0  0  0  0  0  0  0  0  0  0
   -1.6639   -2.2749    0.0000 C   0  0  0  0  0  0  0  0  0  0  0  0
    1.6197    2.6872    0.0000 C   0  0  0  0  0  0  0  0  0  0  0  0
   -1.6492   -3.1437    0.0000 C   0  0  0  0  0  0  0  0  0  0  0  0
    2.4296    2.5547    0.0000 C   0  0  0  0  0  0  0  0  0  0  0  0
  1 16  2  0  0  0  0
  2 22  1  0  0  0  0
  3  6  1  0  0  0  0
  3  8  1  0  0  0  0
  3 15  1  0  0  0  0
  4 16  1  0  0  0  0
  4 20  1  0  0  0  0
  5  6  1  0  0  0  0
  5  7  1  0  0  0  0
  5  9  2  0  0  0  0
  6 11  2  0  0  0  0
  7  8  2  0  0  0  0
  7 12  1  0  0  0  0
  8 13  1  0  0  0  0
  9 10  1  0  0  0  0
 10 14  2  0  0  0  0
 10 16  1  0  0  0  0
 11 14  1  0  0  0  0
 12 17  2  0  0  0  0
 13 18  2  0  0  0  0
 15 19  1  0  0  0  0
 17 18  1  0  0  0  0
 19 21  1  0  0  0  0
 20 22  1  0  0  0  0
M  END
> <PUBCHEM_COMPOUND_ID_TYPE>
0

> <PUBCHEM_TOTAL_CHARGE>
0

> <PUBCHEM_SUBSTANCE_ID>
310942063

> <PUBCHEM_SUBSTANCE_VERSION>
1

> <PUBCHEM_EXT_DATASOURCE_NAME>
4488

> <PUBCHEM_EXT_DATASOURCE_REGID>
SCHEMBL16120098

> <PUBCHEM_SUBSTANCE_COMMENT>
InChI=1S/C18H20N2O2/c1-2-10-20-16-6-4-3-5-14(16)15-12-13(7-8-17(15)20)18(22)19-9-11-21/h3-8,12,21H,2,9-11H2,1H3,(H,19,22)
InChIKey=SZKWZQRCUFDDCK-UHFFFAOYSA-N

> <PUBCHEM_SUBSTANCE_SYNONYM>
SCHEMBL16120098

> <PUBCHEM_XREF_EXT_ID>
SCHEMBL16120098

> <PUBCHEM_EXT_DATASOURCE_URL>
https://www.surechembl.org/

> <PUBCHEM_EXT_SUBSTANCE_URL>
https://www.surechembl.org/chemical/SCHEMBL16120098

> <PUBCHEM_CID_ASSOCIATIONS>
117608737  1

> <PUBCHEM_COORDINATE_TYPE>
1
3

$$$$
