310935601
  -OEChem-07211613022D

 34 37  0     1  0  0  0  0  0999 V2000
   -0.1712    1.5229    0.0000 O   0  0  0  0  0  0  0  0  0  0  0  0
    1.9233    3.5854    0.0000 O   0  0  0  0  0  0  0  0  0  0  0  0
    6.5402    2.4343    0.0000 O   0  0  0  0  0  0  0  0  0  0  0  0
    3.1924    3.7472    0.0000 O   0  0  0  0  0  0  0  0  0  0  0  0
    3.3523    1.9354    0.0000 C   0  0  3  0  0  0  0  0  0  0  0  0
    2.6378    2.3479    0.0000 C   0  0  3  0  0  0  0  0  0  0  0  0
    4.0668    2.3479    0.0000 C   0  0  3  0  0  0  0  0  0  0  0  0
    1.9233    1.9354    0.0000 C   0  0  0  0  0  0  0  0  0  0  0  0
    1.1387    0.8555    0.0000 C   0  0  3  0  0  0  0  0  0  0  0  0
    1.9233    1.1104    0.0000 C   0  0  0  0  0  0  0  0  0  0  0  0
    0.6538    1.5229    0.0000 C   0  0  3  0  0  0  0  0  0  0  0  0
    4.4541    3.0764    0.0000 C   0  0  3  0  0  0  0  0  0  0  0  0
    1.1387    2.1904    0.0000 C   0  0  0  0  0  0  0  0  0  0  0  0
    3.3523    1.1104    0.0000 C   0  0  0  0  0  0  0  0  0  0  0  0
    2.6378    0.6979    0.0000 C   0  0  0  0  0  0  0  0  0  0  0  0
    0.5314    0.2971    0.0000 C   0  0  0  0  0  0  0  0  0  0  0  0
    4.5039    1.6483    0.0000 C   0  0  0  0  0  0  0  0  0  0  0  0
    2.6378    3.1729    0.0000 C   0  0  0  0  0  0  0  0  0  0  0  0
    5.2786    3.1052    0.0000 C   0  0  0  0  0  0  0  0  0  0  0  0
    3.3253    2.7096    0.0000 C   0  0  0  0  0  0  0  0  0  0  0  0
    5.7158    2.4055    0.0000 C   0  0  3  0  0  0  0  0  0  0  0  0
    1.3018    0.0468    0.0000 C   0  0  0  0  0  0  0  0  0  0  0  0
    4.0169    3.7760    0.0000 C   0  0  0  0  0  0  0  0  0  0  0  0
    5.3284    1.6771    0.0000 C   0  0  0  0  0  0  0  0  0  0  0  0
   -0.2558    0.5438    0.0000 C   0  0  0  0  0  0  0  0  0  0  0  0
    0.7114   -0.5081    0.0000 C   0  0  0  0  0  0  0  0  0  0  0  0
   -0.8631   -0.0146    0.0000 C   0  0  0  0  0  0  0  0  0  0  0  0
    0.1041   -1.0665    0.0000 C   0  0  0  0  0  0  0  0  0  0  0  0
   -0.6831   -0.8198    0.0000 C   0  0  0  0  0  0  0  0  0  0  0  0
    4.0668    1.5229    0.0000 H   0  0  0  0  0  0  0  0  0  0  0  0
    3.1681    2.9799    0.0000 H   0  0  0  0  0  0  0  0  0  0  0  0
    0.2793    2.2580    0.0000 H   0  0  0  0  0  0  0  0  0  0  0  0
    4.8414    3.8048    0.0000 H   0  0  0  0  0  0  0  0  0  0  0  0
    6.1529    1.7059    0.0000 H   0  0  0  0  0  0  0  0  0  0  0  0
 11  1  1  6  0  0  0
  2 18  1  0  0  0  0
 21  3  1  1  0  0  0
  4 23  1  0  0  0  0
  5  6  1  0  0  0  0
  5  7  1  0  0  0  0
  5 14  1  0  0  0  0
  5 30  1  6  0  0  0
  6  8  1  0  0  0  0
  6 18  1  0  0  0  0
  6 31  1  1  0  0  0
  7 12  1  0  0  0  0
  7 17  1  0  0  0  0
  7 20  1  1  0  0  0
  8 10  2  0  0  0  0
  8 13  1  0  0  0  0
  9 10  1  0  0  0  0
  9 11  1  0  0  0  0
  9 16  1  0  0  0  0
  9 22  1  1  0  0  0
 10 15  1  0  0  0  0
 11 13  1  0  0  0  0
 11 32  1  1  0  0  0
 12 19  1  0  0  0  0
 12 23  1  0  0  0  0
 12 33  1  6  0  0  0
 14 15  1  0  0  0  0
 16 25  2  0  0  0  0
 16 26  1  0  0  0  0
 17 24  1  0  0  0  0
 19 21  1  0  0  0  0
 21 24  1  0  0  0  0
 21 34  1  6  0  0  0
 25 27  1  0  0  0  0
 26 28  2  0  0  0  0
 27 29  2  0  0  0  0
 28 29  1  0  0  0  0
M  END
> <PUBCHEM_COMPOUND_ID_TYPE>
0

> <PUBCHEM_TOTAL_CHARGE>
0

> <PUBCHEM_SUBSTANCE_ID>
310935601

> <PUBCHEM_SUBSTANCE_VERSION>
1

> <PUBCHEM_EXT_DATASOURCE_NAME>
4488

> <PUBCHEM_EXT_DATASOURCE_REGID>
SCHEMBL16113174

> <PUBCHEM_SUBSTANCE_COMMENT>
InChI=1S/C25H36O4/c1-24(11-10-18(28)12-17(24)14-26)21-8-9-22-19(20(21)15-27)13-23(29)25(22,2)16-6-4-3-5-7-16/h3-7,17-18,20-21,23,26-29H,8-15H2,1-2H3/t17-,18+,20+,21+,23-,24+,25+/m1/s1
InChIKey=VKXQJVXRJJTIFG-MRTSCXTRSA-N

> <PUBCHEM_SUBSTANCE_SYNONYM>
SCHEMBL16113174

> <PUBCHEM_XREF_EXT_ID>
SCHEMBL16113174

> <PUBCHEM_EXT_DATASOURCE_URL>
https://www.surechembl.org/

> <PUBCHEM_EXT_SUBSTANCE_URL>
https://www.surechembl.org/chemical/SCHEMBL16113174

> <PUBCHEM_CID_ASSOCIATIONS>
86274909  1

> <PUBCHEM_COORDINATE_TYPE>
1
3

> <PUBCHEM_BONDANNOTATIONS>
11  1  6
11  32  5
12  33  6
21  34  6
21  3  5
5  30  6
6  31  5
7  20  5
9  22  5

$$$$
