310944343
  -OEChem-07211613022D

 34 37  0     0  0  0  0  0  0999 V2000
   -4.9676   -0.3401    0.0000 Cl  0  0  0  0  0  0  0  0  0  0  0  0
    4.9511   -0.9371    0.0000 O   0  0  0  0  0  0  0  0  0  0  0  0
   -1.8826   -0.3401    0.0000 O   0  0  0  0  0  0  0  0  0  0  0  0
    4.1881   -2.1480    0.0000 O   0  0  0  0  0  0  0  0  0  0  0  0
   -0.4396    2.1480    0.0000 O   0  0  0  0  0  0  0  0  0  0  0  0
    3.4914   -0.9206    0.0000 N   0  0  0  0  0  0  0  0  0  0  0  0
    1.7499    0.0746    0.0000 N   0  0  0  0  0  0  0  0  0  0  0  0
    0.3069    0.9040    0.0000 N   0  0  0  0  0  0  0  0  0  0  0  0
   -1.8659    1.3186    0.0000 N   0  0  0  0  0  0  0  0  0  0  0  0
    2.4796   -0.3234    0.0000 C   0  0  0  0  0  0  0  0  0  0  0  0
    2.6953   -1.1362    0.0000 C   0  0  0  0  0  0  0  0  0  0  0  0
    3.2758   -0.1244    0.0000 C   0  0  0  0  0  0  0  0  0  0  0  0
   -4.0056    0.9040    0.0000 C   0  0  0  0  0  0  0  0  0  0  0  0
   -2.5792    0.9206    0.0000 C   0  0  0  0  0  0  0  0  0  0  0  0
    4.1881   -1.3352    0.0000 C   0  0  0  0  0  0  0  0  0  0  0  0
   -4.7520    1.3352    0.0000 C   0  0  0  0  0  0  0  0  0  0  0  0
   -4.0223    0.0746    0.0000 C   0  0  0  0  0  0  0  0  0  0  0  0
   -2.5958    0.0912    0.0000 C   0  0  0  0  0  0  0  0  0  0  0  0
   -3.2924    1.3020    0.0000 C   0  0  0  0  0  0  0  0  0  0  0  0
    1.7333    0.9040    0.0000 C   0  0  0  0  0  0  0  0  0  0  0  0
    1.0366   -0.3401    0.0000 C   0  0  0  0  0  0  0  0  0  0  0  0
   -3.2758   -0.3234    0.0000 C   0  0  0  0  0  0  0  0  0  0  0  0
   -0.4229    1.3186    0.0000 C   0  0  0  0  0  0  0  0  0  0  0  0
    1.0201    1.3186    0.0000 C   0  0  0  0  0  0  0  0  0  0  0  0
    0.3234    0.0746    0.0000 C   0  0  0  0  0  0  0  0  0  0  0  0
   -5.5150    1.1196    0.0000 C   0  0  0  0  0  0  0  0  0  0  0  0
   -4.9511    2.1147    0.0000 C   0  0  0  0  0  0  0  0  0  0  0  0
   -1.1362    0.9040    0.0000 C   0  0  0  0  0  0  0  0  0  0  0  0
    4.9676   -0.0912    0.0000 C   0  0  0  0  0  0  0  0  0  0  0  0
   -5.7306    1.8991    0.0000 C   0  0  0  0  0  0  0  0  0  0  0  0
    5.7306   -0.0580    0.0000 C   0  0  0  0  0  0  0  0  0  0  0  0
    4.1881   -0.0912    0.0000 C   0  0  0  0  0  0  0  0  0  0  0  0
    4.9511    0.7381    0.0000 C   0  0  0  0  0  0  0  0  0  0  0  0
   -1.8494   -1.1528    0.0000 C   0  0  0  0  0  0  0  0  0  0  0  0
  1 17  1  0  0  0  0
  2 15  1  0  0  0  0
  2 29  1  0  0  0  0
  3 18  1  0  0  0  0
  3 34  1  0  0  0  0
  4 15  2  0  0  0  0
  5 23  2  0  0  0  0
  6 11  1  0  0  0  0
  6 12  1  0  0  0  0
  6 15  1  0  0  0  0
  7 10  1  0  0  0  0
  7 20  1  0  0  0  0
  7 21  1  0  0  0  0
  8 23  1  0  0  0  0
  8 24  1  0  0  0  0
  8 25  1  0  0  0  0
  9 14  1  0  0  0  0
  9 28  1  0  0  0  0
 10 11  1  0  0  0  0
 10 12  1  0  0  0  0
 13 16  1  0  0  0  0
 13 17  2  0  0  0  0
 13 19  1  0  0  0  0
 14 18  1  0  0  0  0
 14 19  2  0  0  0  0
 16 26  1  0  0  0  0
 16 27  1  0  0  0  0
 17 22  1  0  0  0  0
 18 22  2  0  0  0  0
 20 24  1  0  0  0  0
 21 25  1  0  0  0  0
 23 28  1  0  0  0  0
 26 30  1  0  0  0  0
 27 30  1  0  0  0  0
 29 31  1  0  0  0  0
 29 32  1  0  0  0  0
 29 33  1  0  0  0  0
M  END
> <PUBCHEM_COMPOUND_ID_TYPE>
0

> <PUBCHEM_TOTAL_CHARGE>
0

> <PUBCHEM_SUBSTANCE_ID>
310944343

> <PUBCHEM_SUBSTANCE_VERSION>
1

> <PUBCHEM_EXT_DATASOURCE_NAME>
4488

> <PUBCHEM_EXT_DATASOURCE_REGID>
SCHEMBL16122418

> <PUBCHEM_SUBSTANCE_COMMENT>
InChI=1S/C25H37ClN4O4/c1-25(2,3)34-24(32)30-15-18(16-30)28-8-10-29(11-9-28)23(31)14-27-21-12-19(17-6-5-7-17)20(26)13-22(21)33-4/h12-13,17-18,27H,5-11,14-16H2,1-4H3
InChIKey=QYZPRZQUQNDNSL-UHFFFAOYSA-N

> <PUBCHEM_SUBSTANCE_SYNONYM>
SCHEMBL16122418

> <PUBCHEM_XREF_EXT_ID>
SCHEMBL16122418

> <PUBCHEM_EXT_DATASOURCE_URL>
https://www.surechembl.org/

> <PUBCHEM_EXT_SUBSTANCE_URL>
https://www.surechembl.org/chemical/SCHEMBL16122418

> <PUBCHEM_CID_ASSOCIATIONS>
117610600  1

> <PUBCHEM_COORDINATE_TYPE>
1
3

$$$$
