310931601
  -OEChem-07211613022D

 14 15  0     0  0  0  0  0  0999 V2000
    0.6909   -2.4718    0.0000 Cl  0  0  0  0  0  0  0  0  0  0  0  0
    2.2876   -3.0706    0.0000 F   0  0  0  0  0  0  0  0  0  0  0  0
    3.2395   -2.0113    0.0000 F   0  0  0  0  0  0  0  0  0  0  0  0
    1.6735   -2.5179    0.0000 F   0  0  0  0  0  0  0  0  0  0  0  0
    2.1955   -0.1689    0.0000 N   0  0  0  0  0  0  0  0  0  0  0  0
    0.6909    0.0000    0.0000 N   0  0  0  0  0  0  0  0  0  0  0  0
    0.0000   -1.2589    0.0000 N   0  0  0  0  0  0  0  0  0  0  0  0
    1.4125   -1.2589    0.0000 C   0  0  0  0  0  0  0  0  0  0  0  0
    2.1955   -1.4893    0.0000 C   0  0  0  0  0  0  0  0  0  0  0  0
    1.4125   -0.3992    0.0000 C   0  0  0  0  0  0  0  0  0  0  0  0
    2.4565   -2.2723    0.0000 C   0  0  0  0  0  0  0  0  0  0  0  0
    0.6909   -1.6581    0.0000 C   0  0  0  0  0  0  0  0  0  0  0  0
    2.7022   -0.8291    0.0000 C   0  0  0  0  0  0  0  0  0  0  0  0
    0.0000   -0.3992    0.0000 C   0  0  0  0  0  0  0  0  0  0  0  0
  1 12  1  0  0  0  0
  2 11  1  0  0  0  0
  3 11  1  0  0  0  0
  4 11  1  0  0  0  0
  5 10  1  0  0  0  0
  5 13  1  0  0  0  0
  6 10  2  0  0  0  0
  6 14  1  0  0  0  0
  7 12  1  0  0  0  0
  7 14  2  0  0  0  0
  8  9  1  0  0  0  0
  8 10  1  0  0  0  0
  8 12  2  0  0  0  0
  9 11  1  0  0  0  0
  9 13  2  0  0  0  0
M  END
> <PUBCHEM_COMPOUND_ID_TYPE>
0

> <PUBCHEM_TOTAL_CHARGE>
0

> <PUBCHEM_SUBSTANCE_ID>
310931601

> <PUBCHEM_SUBSTANCE_VERSION>
1

> <PUBCHEM_EXT_DATASOURCE_NAME>
4488

> <PUBCHEM_EXT_DATASOURCE_REGID>
SCHEMBL16108927

> <PUBCHEM_SUBSTANCE_COMMENT>
InChI=1S/C7H3ClF3N3/c8-5-4-3(7(9,10)11)1-12-6(4)14-2-13-5/h1-2H,(H,12,13,14)
InChIKey=XTQGBMSLTHSCEX-UHFFFAOYSA-N

> <PUBCHEM_SUBSTANCE_SYNONYM>
SCHEMBL16108927

> <PUBCHEM_XREF_EXT_ID>
SCHEMBL16108927

> <PUBCHEM_EXT_DATASOURCE_URL>
https://www.surechembl.org/

> <PUBCHEM_EXT_SUBSTANCE_URL>
https://www.surechembl.org/chemical/SCHEMBL16108927

> <PUBCHEM_CID_ASSOCIATIONS>
72207277  1

> <PUBCHEM_COORDINATE_TYPE>
1
3

$$$$
