310930412
  -OEChem-07211613022D

 36 40  0     0  0  0  0  0  0999 V2000
    3.5373   -4.4805    0.0000 S   0  0  0  0  0  0  0  0  0  0  0  0
    1.4149    0.0000    0.0000 F   0  0  0  0  0  0  0  0  0  0  0  0
    0.0000   -0.8018    0.0000 F   0  0  0  0  0  0  0  0  0  0  0  0
    2.6411   -4.4805    0.0000 O   0  0  0  0  0  0  0  0  0  0  0  0
    4.3390   -4.4805    0.0000 O   0  0  0  0  0  0  0  0  0  0  0  0
    4.9993   -6.9330    0.0000 O   0  0  0  0  0  0  0  0  0  0  0  0
    2.8769   -3.2543    0.0000 N   0  0  0  0  0  0  0  0  0  0  0  0
    6.3670   -9.4327    0.0000 N   0  0  0  0  0  0  0  0  0  0  0  0
    7.8763   -9.2912    0.0000 N   0  0  0  0  0  0  0  0  0  0  0  0
    4.2918   -8.1593    0.0000 N   0  0  0  0  0  0  0  0  0  0  0  0
    8.3479   -8.6309    0.0000 N   0  0  0  0  0  0  0  0  0  0  0  0
    3.5844   -3.6788    0.0000 C   0  0  0  0  0  0  0  0  0  0  0  0
    3.5373   -5.3295    0.0000 C   0  0  0  0  0  0  0  0  0  0  0  0
    2.8298   -2.4525    0.0000 C   0  0  0  0  0  0  0  0  0  0  0  0
    2.1224   -2.0280    0.0000 C   0  0  0  0  0  0  0  0  0  0  0  0
    4.2918   -3.2543    0.0000 C   0  0  0  0  0  0  0  0  0  0  0  0
    2.8298   -5.7068    0.0000 C   0  0  0  0  0  0  0  0  0  0  0  0
    4.2447   -5.7068    0.0000 C   0  0  0  0  0  0  0  0  0  0  0  0
    7.0745   -8.2064    0.0000 C   0  0  0  0  0  0  0  0  0  0  0  0
    3.5844   -2.0752    0.0000 C   0  0  0  0  0  0  0  0  0  0  0  0
    7.0745   -9.0554    0.0000 C   0  0  0  0  0  0  0  0  0  0  0  0
    3.5373   -6.9330    0.0000 C   0  0  0  0  0  0  0  0  0  0  0  0
    5.6596   -8.2064    0.0000 C   0  0  0  0  0  0  0  0  0  0  0  0
    4.2918   -2.4525    0.0000 C   0  0  0  0  0  0  0  0  0  0  0  0
    2.8298   -6.5085    0.0000 C   0  0  0  0  0  0  0  0  0  0  0  0
    4.2447   -6.5557    0.0000 C   0  0  0  0  0  0  0  0  0  0  0  0
    2.1224   -1.2262    0.0000 C   0  0  0  0  0  0  0  0  0  0  0  0
    6.3670   -7.7819    0.0000 C   0  0  0  0  0  0  0  0  0  0  0  0
    1.4149   -2.4525    0.0000 C   0  0  0  0  0  0  0  0  0  0  0  0
    4.9522   -7.7819    0.0000 C   0  0  0  0  0  0  0  0  0  0  0  0
    1.4149   -0.8489    0.0000 C   0  0  0  0  0  0  0  0  0  0  0  0
    5.6596   -9.0554    0.0000 C   0  0  0  0  0  0  0  0  0  0  0  0
    0.7075   -1.2262    0.0000 C   0  0  0  0  0  0  0  0  0  0  0  0
    7.8763   -7.9706    0.0000 C   0  0  0  0  0  0  0  0  0  0  0  0
    3.5373   -7.7819    0.0000 C   0  0  0  0  0  0  0  0  0  0  0  0
    0.7075   -2.0752    0.0000 C   0  0  0  0  0  0  0  0  0  0  0  0
  1  4  2  0  0  0  0
  1  5  2  0  0  0  0
  1 12  1  0  0  0  0
  1 13  1  0  0  0  0
  2 31  1  0  0  0  0
  3 33  1  0  0  0  0
  6 30  2  0  0  0  0
  7 12  1  0  0  0  0
  7 14  2  0  0  0  0
  8 21  1  0  0  0  0
  8 32  2  0  0  0  0
  9 11  1  0  0  0  0
  9 21  1  0  0  0  0
 10 30  1  0  0  0  0
 10 35  1  0  0  0  0
 11 34  2  0  0  0  0
 12 16  2  0  0  0  0
 13 17  2  0  0  0  0
 13 18  1  0  0  0  0
 14 15  1  0  0  0  0
 14 20  1  0  0  0  0
 15 27  1  0  0  0  0
 15 29  2  0  0  0  0
 16 24  1  0  0  0  0
 17 25  1  0  0  0  0
 18 26  2  0  0  0  0
 19 21  2  0  0  0  0
 19 28  1  0  0  0  0
 19 34  1  0  0  0  0
 20 24  2  0  0  0  0
 22 25  2  0  0  0  0
 22 26  1  0  0  0  0
 22 35  1  0  0  0  0
 23 28  2  0  0  0  0
 23 30  1  0  0  0  0
 23 32  1  0  0  0  0
 27 31  2  0  0  0  0
 29 36  1  0  0  0  0
 31 33  1  0  0  0  0
 33 36  2  0  0  0  0
M  END
> <PUBCHEM_COMPOUND_ID_TYPE>
0

> <PUBCHEM_TOTAL_CHARGE>
0

> <PUBCHEM_SUBSTANCE_ID>
310930412

> <PUBCHEM_SUBSTANCE_VERSION>
1

> <PUBCHEM_EXT_DATASOURCE_NAME>
4488

> <PUBCHEM_EXT_DATASOURCE_REGID>
SCHEMBL16107699

> <PUBCHEM_SUBSTANCE_COMMENT>
InChI=1S/C25H17F2N5O3S/c26-20-9-6-16(11-21(20)27)22-2-1-3-23(31-22)36(34,35)19-7-4-15(5-8-19)12-29-25(33)18-10-17-14-30-32-24(17)28-13-18/h1-11,13-14H,12H2,(H,29,33)(H,28,30,32)
InChIKey=NNBLRHJTKXYRMS-UHFFFAOYSA-N

> <PUBCHEM_SUBSTANCE_SYNONYM>
SCHEMBL16107699

> <PUBCHEM_XREF_EXT_ID>
SCHEMBL16107699

> <PUBCHEM_EXT_DATASOURCE_URL>
https://www.surechembl.org/

> <PUBCHEM_EXT_SUBSTANCE_URL>
https://www.surechembl.org/chemical/SCHEMBL16107699

> <PUBCHEM_CID_ASSOCIATIONS>
117599556  1

> <PUBCHEM_COORDINATE_TYPE>
1
3

$$$$
