310943104
  -OEChem-07211613022D

 25 27  0     0  0  0  0  0  0999 V2000
    2.4945    1.0272    0.0000 Br  0  0  0  0  0  0  0  0  0  0  0  0
   -3.7336   -0.8641    0.0000 F   0  0  0  0  0  0  0  0  0  0  0  0
   -3.7336    0.8968    0.0000 F   0  0  0  0  0  0  0  0  0  0  0  0
   -3.0161    0.8968    0.0000 F   0  0  0  0  0  0  0  0  0  0  0  0
    3.1140    0.5054    0.0000 F   0  0  0  0  0  0  0  0  0  0  0  0
    3.7336    0.0000    0.0000 F   0  0  0  0  0  0  0  0  0  0  0  0
    3.7336   -1.0272    0.0000 F   0  0  0  0  0  0  0  0  0  0  0  0
    2.4782   -1.0108    0.0000 O   0  0  0  0  0  0  0  0  0  0  0  0
   -0.0815   -0.8152    0.0000 N   0  0  0  0  0  0  0  0  0  0  0  0
   -0.0815    0.8479    0.0000 N   0  0  0  0  0  0  0  0  0  0  0  0
   -2.2989   -0.8641    0.0000 N   0  0  0  0  0  0  0  0  0  0  0  0
    0.5869   -0.5217    0.0000 C   0  0  0  0  0  0  0  0  0  0  0  0
    0.6032    0.5054    0.0000 C   0  0  0  0  0  0  0  0  0  0  0  0
   -0.5054   -0.0163    0.0000 C   0  0  0  0  0  0  0  0  0  0  0  0
    1.8260   -0.5217    0.0000 C   0  0  0  0  0  0  0  0  0  0  0  0
   -1.2065    0.0000    0.0000 C   0  0  0  0  0  0  0  0  0  0  0  0
    1.2390   -1.0272    0.0000 C   0  0  0  0  0  0  0  0  0  0  0  0
    1.8586    0.5054    0.0000 C   0  0  0  0  0  0  0  0  0  0  0  0
    1.2228    0.9945    0.0000 C   0  0  0  0  0  0  0  0  0  0  0  0
   -2.6738   -0.0326    0.0000 C   0  0  0  0  0  0  0  0  0  0  0  0
   -1.5814   -0.8968    0.0000 C   0  0  0  0  0  0  0  0  0  0  0  0
   -1.5651    0.8641    0.0000 C   0  0  0  0  0  0  0  0  0  0  0  0
   -3.3748    0.0163    0.0000 C   0  0  0  0  0  0  0  0  0  0  0  0
    3.0977   -0.5380    0.0000 C   0  0  0  0  0  0  0  0  0  0  0  0
   -2.2826    0.8641    0.0000 C   0  0  0  0  0  0  0  0  0  0  0  0
  1 18  1  0  0  0  0
  2 23  1  0  0  0  0
  3 23  1  0  0  0  0
  4 23  1  0  0  0  0
  5 24  1  0  0  0  0
  6 24  1  0  0  0  0
  7 24  1  0  0  0  0
  8 15  1  0  0  0  0
  8 24  1  0  0  0  0
  9 12  1  0  0  0  0
  9 14  2  0  0  0  0
 10 13  1  0  0  0  0
 10 14  1  0  0  0  0
 11 20  1  0  0  0  0
 11 21  2  0  0  0  0
 12 13  2  0  0  0  0
 12 17  1  0  0  0  0
 13 19  1  0  0  0  0
 14 16  1  0  0  0  0
 15 17  2  0  0  0  0
 15 18  1  0  0  0  0
 16 21  1  0  0  0  0
 16 22  2  0  0  0  0
 18 19  2  0  0  0  0
 20 23  1  0  0  0  0
 20 25  2  0  0  0  0
 22 25  1  0  0  0  0
M  END
> <PUBCHEM_COMPOUND_ID_TYPE>
0

> <PUBCHEM_TOTAL_CHARGE>
0

> <PUBCHEM_SUBSTANCE_ID>
310943104

> <PUBCHEM_SUBSTANCE_VERSION>
1

> <PUBCHEM_EXT_DATASOURCE_NAME>
4488

> <PUBCHEM_EXT_DATASOURCE_REGID>
SCHEMBL16121163

> <PUBCHEM_SUBSTANCE_COMMENT>
InChI=1S/C14H6BrF6N3O/c15-7-3-8-9(4-10(7)25-14(19,20)21)24-12(23-8)6-1-2-11(22-5-6)13(16,17)18/h1-5H,(H,23,24)
InChIKey=VMSVCLWEPRQHKM-UHFFFAOYSA-N

> <PUBCHEM_SUBSTANCE_SYNONYM>
SCHEMBL16121163

> <PUBCHEM_XREF_EXT_ID>
SCHEMBL16121163

> <PUBCHEM_EXT_DATASOURCE_URL>
https://www.surechembl.org/

> <PUBCHEM_EXT_SUBSTANCE_URL>
https://www.surechembl.org/chemical/SCHEMBL16121163

> <PUBCHEM_CID_ASSOCIATIONS>
117609535  1

> <PUBCHEM_COORDINATE_TYPE>
1
3

$$$$
