310941214
  -OEChem-07211613022D

 30 31  0     1  0  0  0  0  0999 V2000
    0.7424   -0.8399    0.0000 O   0  0  0  0  0  0  0  0  0  0  0  0
    0.0075   -0.4199    0.0000 O   0  0  0  0  0  0  0  0  0  0  0  0
    2.1672    1.6497    0.0000 O   0  0  0  0  0  0  0  0  0  0  0  0
    2.8871    0.4049    0.0000 O   0  0  0  0  0  0  0  0  0  0  0  0
    4.3418   -2.0698    0.0000 O   0  0  0  0  0  0  0  0  0  0  0  0
   -2.1522    1.6497    0.0000 O   0  0  0  0  0  0  0  0  0  0  0  0
    0.0075    2.0547    0.0000 O   0  0  0  0  0  0  0  0  0  0  0  0
   -5.0318    1.6497    0.0000 O   0  0  0  0  0  0  0  0  0  0  0  0
    0.7275    0.8249    0.0000 N   0  0  0  0  0  0  0  0  0  0  0  0
   -1.4323    0.4199    0.0000 N   0  0  0  0  0  0  0  0  0  0  0  0
   -3.5920    0.8249    0.0000 N   0  0  0  0  0  0  0  0  0  0  0  0
    1.4773    0.4199    0.0000 C   0  0  3  0  0  0  0  0  0  0  0  0
    1.4473   -0.4049    0.0000 C   0  0  3  0  0  0  0  0  0  0  0  0
    2.1823   -0.8249    0.0000 C   0  0  0  0  0  0  0  0  0  0  0  0
    0.0225    0.4349    0.0000 C   0  0  0  0  0  0  0  0  0  0  0  0
   -0.7125    0.8249    0.0000 C   0  0  3  0  0  0  0  0  0  0  0  0
    2.1672    0.8099    0.0000 C   0  0  0  0  0  0  0  0  0  0  0  0
    2.1823   -1.6497    0.0000 C   0  0  0  0  0  0  0  0  0  0  0  0
    2.9021   -0.4349    0.0000 C   0  0  0  0  0  0  0  0  0  0  0  0
    3.6070   -1.6347    0.0000 C   0  0  0  0  0  0  0  0  0  0  0  0
   -2.1522    0.8099    0.0000 C   0  0  0  0  0  0  0  0  0  0  0  0
    2.8871   -2.0547    0.0000 C   0  0  0  0  0  0  0  0  0  0  0  0
    3.6070   -0.8249    0.0000 C   0  0  0  0  0  0  0  0  0  0  0  0
   -0.6974    1.6497    0.0000 C   0  0  0  0  0  0  0  0  0  0  0  0
   -2.8571    0.4199    0.0000 C   0  0  0  0  0  0  0  0  0  0  0  0
   -3.5770    1.6497    0.0000 C   0  0  0  0  0  0  0  0  0  0  0  0
   -4.2968    0.4199    0.0000 C   0  0  0  0  0  0  0  0  0  0  0  0
   -4.3269    2.0698    0.0000 C   0  0  0  0  0  0  0  0  0  0  0  0
   -5.0318    0.8249    0.0000 C   0  0  0  0  0  0  0  0  0  0  0  0
    5.0318   -1.6648    0.0000 C   0  0  0  0  0  0  0  0  0  0  0  0
 13  1  1  1  0  0  0
  2 15  2  0  0  0  0
  3 17  2  0  0  0  0
  4 17  1  0  0  0  0
  5 20  1  0  0  0  0
  5 30  1  0  0  0  0
  6 21  2  0  0  0  0
  7 24  1  0  0  0  0
  8 28  1  0  0  0  0
  8 29  1  0  0  0  0
 12  9  1  6  0  0  0
  9 15  1  0  0  0  0
 16 10  1  1  0  0  0
 10 21  1  0  0  0  0
 11 25  1  0  0  0  0
 11 26  1  0  0  0  0
 11 27  1  0  0  0  0
 12 13  1  0  0  0  0
 12 17  1  0  0  0  0
 13 14  1  0  0  0  0
 14 18  2  0  0  0  0
 14 19  1  0  0  0  0
 15 16  1  0  0  0  0
 16 24  1  0  0  0  0
 18 22  1  0  0  0  0
 19 23  2  0  0  0  0
 20 22  2  0  0  0  0
 20 23  1  0  0  0  0
 21 25  1  0  0  0  0
 26 28  1  0  0  0  0
 27 29  1  0  0  0  0
M  END
> <PUBCHEM_COMPOUND_ID_TYPE>
0

> <PUBCHEM_TOTAL_CHARGE>
0

> <PUBCHEM_SUBSTANCE_ID>
310941214

> <PUBCHEM_SUBSTANCE_VERSION>
1

> <PUBCHEM_EXT_DATASOURCE_NAME>
4488

> <PUBCHEM_EXT_DATASOURCE_REGID>
SCHEMBL16119174

> <PUBCHEM_SUBSTANCE_COMMENT>
InChI=1S/C19H27N3O8/c1-29-13-4-2-12(3-5-13)17(25)16(19(27)28)21-18(26)14(11-23)20-15(24)10-22-6-8-30-9-7-22/h2-5,14,16-17,23,25H,6-11H2,1H3,(H,20,24)(H,21,26)(H,27,28)/t14-,16-,17+/m0/s1
InChIKey=OMQJUUJUFCGQGS-BHYGNILZSA-N

> <PUBCHEM_SUBSTANCE_SYNONYM>
SCHEMBL16119174

> <PUBCHEM_XREF_EXT_ID>
SCHEMBL16119174

> <PUBCHEM_EXT_DATASOURCE_URL>
https://www.surechembl.org/

> <PUBCHEM_EXT_SUBSTANCE_URL>
https://www.surechembl.org/chemical/SCHEMBL16119174

> <PUBCHEM_CID_ASSOCIATIONS>
117608085  1

> <PUBCHEM_COORDINATE_TYPE>
1
3

> <PUBCHEM_BONDANNOTATIONS>
13  1  5
16  10  5
12  9  6

$$$$
