310929423
  -OEChem-07211613022D

 25 26  0     0  0  0  0  0  0999 V2000
    8.0498    0.0000    0.0000 O   0  0  0  0  0  0  0  0  0  0  0  0
    0.0000   -2.9334    0.0000 O   0  0  0  0  0  0  0  0  0  0  0  0
    8.0840   -1.6713    0.0000 N   0  0  0  0  0  0  0  0  0  0  0  0
    8.8003   -1.2279    0.0000 C   0  0  0  0  0  0  0  0  0  0  0  0
    9.5166   -1.6713    0.0000 C   0  0  0  0  0  0  0  0  0  0  0  0
    8.8003   -0.4093    0.0000 C   0  0  0  0  0  0  0  0  0  0  0  0
    8.0498   -2.5241    0.0000 C   0  0  0  0  0  0  0  0  0  0  0  0
    9.5166   -2.5241    0.0000 C   0  0  0  0  0  0  0  0  0  0  0  0
   10.2329   -1.2620    0.0000 C   0  0  0  0  0  0  0  0  0  0  0  0
    9.5166    0.0000    0.0000 C   0  0  0  0  0  0  0  0  0  0  0  0
    8.8003   -2.9334    0.0000 C   0  0  0  0  0  0  0  0  0  0  0  0
   10.2329   -0.4093    0.0000 C   0  0  0  0  0  0  0  0  0  0  0  0
    7.3335   -2.9334    0.0000 C   0  0  0  0  0  0  0  0  0  0  0  0
    7.2994   -0.4434    0.0000 C   0  0  0  0  0  0  0  0  0  0  0  0
    6.6172   -2.5241    0.0000 C   0  0  0  0  0  0  0  0  0  0  0  0
    6.5831    0.0000    0.0000 C   0  0  0  0  0  0  0  0  0  0  0  0
    7.3335   -1.2620    0.0000 C   0  0  0  0  0  0  0  0  0  0  0  0
    5.8668   -2.9334    0.0000 C   0  0  0  0  0  0  0  0  0  0  0  0
    5.1505   -2.5241    0.0000 C   0  0  0  0  0  0  0  0  0  0  0  0
    4.4001   -2.9334    0.0000 C   0  0  0  0  0  0  0  0  0  0  0  0
    3.6838   -2.5241    0.0000 C   0  0  0  0  0  0  0  0  0  0  0  0
    2.9334   -2.9334    0.0000 C   0  0  0  0  0  0  0  0  0  0  0  0
    2.2171   -2.5241    0.0000 C   0  0  0  0  0  0  0  0  0  0  0  0
    1.4667   -2.9334    0.0000 C   0  0  0  0  0  0  0  0  0  0  0  0
    0.7504   -2.5241    0.0000 C   0  0  0  0  0  0  0  0  0  0  0  0
  1  6  1  0  0  0  0
  1 14  1  0  0  0  0
  2 25  1  0  0  0  0
  3  4  2  0  0  0  0
  3  7  1  0  0  0  0
  4  5  1  0  0  0  0
  4  6  1  0  0  0  0
  5  8  2  0  0  0  0
  5  9  1  0  0  0  0
  6 10  2  0  0  0  0
  7 11  2  0  0  0  0
  7 13  1  0  0  0  0
  8 11  1  0  0  0  0
  9 12  2  0  0  0  0
 10 12  1  0  0  0  0
 13 15  1  0  0  0  0
 14 16  1  0  0  0  0
 14 17  1  0  0  0  0
 15 18  1  0  0  0  0
 18 19  1  0  0  0  0
 19 20  1  0  0  0  0
 20 21  1  0  0  0  0
 21 22  1  0  0  0  0
 22 23  1  0  0  0  0
 23 24  1  0  0  0  0
 24 25  1  0  0  0  0
M  END
> <PUBCHEM_COMPOUND_ID_TYPE>
0

> <PUBCHEM_TOTAL_CHARGE>
0

> <PUBCHEM_SUBSTANCE_ID>
310929423

> <PUBCHEM_SUBSTANCE_VERSION>
1

> <PUBCHEM_EXT_DATASOURCE_NAME>
4488

> <PUBCHEM_EXT_DATASOURCE_REGID>
SCHEMBL16106597

> <PUBCHEM_SUBSTANCE_COMMENT>
InChI=1S/C22H33NO2/c1-18(2)25-21-14-11-12-19-15-16-20(23-22(19)21)13-9-7-5-3-4-6-8-10-17-24/h11-12,14-16,18,24H,3-10,13,17H2,1-2H3
InChIKey=DTZCJXTYHRNEGW-UHFFFAOYSA-N

> <PUBCHEM_SUBSTANCE_SYNONYM>
SCHEMBL16106597

> <PUBCHEM_XREF_EXT_ID>
SCHEMBL16106597

> <PUBCHEM_EXT_DATASOURCE_URL>
https://www.surechembl.org/

> <PUBCHEM_EXT_SUBSTANCE_URL>
https://www.surechembl.org/chemical/SCHEMBL16106597

> <PUBCHEM_CID_ASSOCIATIONS>
85472316  1

> <PUBCHEM_COORDINATE_TYPE>
1
3

$$$$
