310929516
  -OEChem-07211613022D

 59 66  0     1  0  0  0  0  0999 V2000
    4.6594   -0.8922    0.0000 S   0  0  0  0  0  0  0  0  0  0  0  0
    4.2628   -2.4784    0.0000 O   0  0  0  0  0  0  0  0  0  0  0  0
    4.9072   -1.6853    0.0000 O   0  0  0  0  0  0  0  0  0  0  0  0
    4.4116   -0.0991    0.0000 O   0  0  0  0  0  0  0  0  0  0  0  0
    4.2133   -3.1228    0.0000 O   0  0  0  0  0  0  0  0  0  0  0  0
    5.3038   -5.4525    0.0000 O   0  0  0  0  0  0  0  0  0  0  0  0
    1.4871   -3.9654    0.0000 O   0  0  0  0  0  0  0  0  0  0  0  0
    0.8922   -7.4352    0.0000 O   0  0  0  0  0  0  0  0  0  0  0  0
    0.0000   -6.6421    0.0000 O   0  0  0  0  0  0  0  0  0  0  0  0
    2.8254   -2.9740    0.0000 N   0  0  0  0  0  0  0  0  0  0  0  0
    3.8663   -1.1400    0.0000 N   0  0  0  0  0  0  0  0  0  0  0  0
    2.6767   -4.2628    0.0000 N   0  0  0  0  0  0  0  0  0  0  0  0
    6.2951   -5.7994    0.0000 N   0  0  0  0  0  0  0  0  0  0  0  0
    0.8922   -5.7994    0.0000 N   0  0  0  0  0  0  0  0  0  0  0  0
    7.0882   -9.4675    0.0000 N   0  0  0  0  0  0  0  0  0  0  0  0
    2.9245   -2.1810    0.0000 C   0  0  3  0  0  0  0  0  0  0  0  0
    2.2305   -1.7845    0.0000 C   0  0  3  0  0  0  0  0  0  0  0  0
    2.8749   -1.3383    0.0000 C   0  0  0  0  0  0  0  0  0  0  0  0
    3.6680   -1.9331    0.0000 C   0  0  0  0  0  0  0  0  0  0  0  0
    5.4029   -0.6940    0.0000 C   0  0  0  0  0  0  0  0  0  0  0  0
    3.4697   -3.4697    0.0000 C   0  0  0  0  0  0  0  0  0  0  0  0
    1.3879   -1.7845    0.0000 C   0  0  0  0  0  0  0  0  0  0  0  0
    3.3706   -4.2628    0.0000 C   0  0  3  0  0  0  0  0  0  0  0  0
    5.9977   -0.0991    0.0000 C   0  0  0  0  0  0  0  0  0  0  0  0
    6.2456   -0.8922    0.0000 C   0  0  0  0  0  0  0  0  0  0  0  0
    4.2133   -4.4116    0.0000 C   0  0  0  0  0  0  0  0  0  0  0  0
    4.8576   -4.8081    0.0000 C   0  0  3  0  0  0  0  0  0  0  0  0
    5.0064    0.0000    0.0000 C   0  0  0  0  0  0  0  0  0  0  0  0
    1.9331   -4.6098    0.0000 C   0  0  0  0  0  0  0  0  0  0  0  0
    3.9159   -3.8663    0.0000 C   0  0  0  0  0  0  0  0  0  0  0  0
    5.6011   -6.2456    0.0000 C   0  0  0  0  0  0  0  0  0  0  0  0
    1.2888   -5.1551    0.0000 C   0  0  3  0  0  0  0  0  0  0  0  0
    6.2951   -7.4352    0.0000 C   0  0  0  0  0  0  0  0  0  0  0  0
    5.6011   -6.9891    0.0000 C   0  0  0  0  0  0  0  0  0  0  0  0
    1.0409   -2.5280    0.0000 C   0  0  0  0  0  0  0  0  0  0  0  0
    6.9891   -6.9891    0.0000 C   0  0  0  0  0  0  0  0  0  0  0  0
    6.9891   -6.2456    0.0000 C   0  0  0  0  0  0  0  0  0  0  0  0
    0.6444   -4.6594    0.0000 C   0  0  0  0  0  0  0  0  0  0  0  0
    6.3447   -8.2778    0.0000 C   0  0  0  0  0  0  0  0  0  0  0  0
    5.3038   -7.8318    0.0000 C   0  0  0  0  0  0  0  0  0  0  0  0
    7.6830   -7.4352    0.0000 C   0  0  0  0  0  0  0  0  0  0  0  0
    7.6830   -5.7994    0.0000 C   0  0  0  0  0  0  0  0  0  0  0  0
    0.8426   -6.6421    0.0000 C   0  0  0  0  0  0  0  0  0  0  0  0
    1.2888   -8.0796    0.0000 C   0  0  3  0  0  0  0  0  0  0  0  0
    7.0387   -8.6744    0.0000 C   0  0  0  0  0  0  0  0  0  0  0  0
    5.6507   -8.7239    0.0000 C   0  0  0  0  0  0  0  0  0  0  0  0
    1.9331   -8.6248    0.0000 C   0  0  3  0  0  0  0  0  0  0  0  0
    8.4265   -6.9891    0.0000 C   0  0  0  0  0  0  0  0  0  0  0  0
    8.4265   -6.2456    0.0000 C   0  0  0  0  0  0  0  0  0  0  0  0
    1.1896   -4.0150    0.0000 C   0  0  0  0  0  0  0  0  0  0  0  0
    0.0495   -4.1637    0.0000 C   0  0  0  0  0  0  0  0  0  0  0  0
    0.1487   -5.2542    0.0000 C   0  0  0  0  0  0  0  0  0  0  0  0
    1.0905   -8.9222    0.0000 C   0  0  0  0  0  0  0  0  0  0  0  0
    4.8576   -8.4761    0.0000 C   0  0  0  0  0  0  0  0  0  0  0  0
    5.7003   -9.5170    0.0000 C   0  0  0  0  0  0  0  0  0  0  0  0
    2.6767   -9.0213    0.0000 C   0  0  0  0  0  0  0  0  0  0  0  0
    4.2133   -8.8231    0.0000 C   0  0  0  0  0  0  0  0  0  0  0  0
    6.3942   -9.9136    0.0000 C   0  0  0  0  0  0  0  0  0  0  0  0
    3.3706   -9.0213    0.0000 C   0  0  0  0  0  0  0  0  0  0  0  0
  1  3  2  0  0  0  0
  1  4  2  0  0  0  0
  1 11  1  0  0  0  0
  1 20  1  0  0  0  0
  2 19  2  0  0  0  0
  5 21  2  0  0  0  0
  6 27  1  0  0  0  0
  6 31  1  0  0  0  0
  7 29  2  0  0  0  0
  8 43  1  0  0  0  0
  8 44  1  0  0  0  0
  9 43  2  0  0  0  0
 16 10  1  1  0  0  0
 10 21  1  0  0  0  0
 11 19  1  0  0  0  0
 12 23  1  0  0  0  0
 12 29  1  0  0  0  0
 12 30  1  0  0  0  0
 13 31  1  0  0  0  0
 13 37  2  0  0  0  0
 14 32  1  0  0  0  0
 14 43  1  0  0  0  0
 15 45  1  0  0  0  0
 15 58  2  0  0  0  0
 16 17  1  0  0  0  0
 16 18  1  0  0  0  0
 16 19  1  6  0  0  0
 17 18  1  0  0  0  0
 17 22  1  6  0  0  0
 20 24  1  0  0  0  0
 20 25  1  0  0  0  0
 20 28  1  0  0  0  0
 23 21  1  6  0  0  0
 22 35  2  0  0  0  0
 23 26  1  0  0  0  0
 24 25  1  0  0  0  0
 27 26  1  1  0  0  0
 27 30  1  0  0  0  0
 29 32  1  0  0  0  0
 31 34  2  0  0  0  0
 32 38  1  1  0  0  0
 33 34  1  0  0  0  0
 33 36  2  0  0  0  0
 33 39  1  0  0  0  0
 34 40  1  0  0  0  0
 36 37  1  0  0  0  0
 36 41  1  0  0  0  0
 37 42  1  0  0  0  0
 38 50  1  0  0  0  0
 38 51  1  0  0  0  0
 38 52  1  0  0  0  0
 39 45  2  0  0  0  0
 39 46  1  0  0  0  0
 40 54  1  0  0  0  0
 41 48  2  0  0  0  0
 42 49  2  0  0  0  0
 44 47  1  0  0  0  0
 44 53  1  1  0  0  0
 46 55  2  0  0  0  0
 47 53  1  6  0  0  0
 47 56  1  0  0  0  0
 48 49  1  0  0  0  0
 54 57  1  0  0  0  0
 55 58  1  0  0  0  0
 56 59  1  0  0  0  0
 57 59  1  0  0  0  0
M  END
> <PUBCHEM_COMPOUND_ID_TYPE>
0

> <PUBCHEM_TOTAL_CHARGE>
0

> <PUBCHEM_SUBSTANCE_ID>
310929516

> <PUBCHEM_SUBSTANCE_VERSION>
1

> <PUBCHEM_EXT_DATASOURCE_NAME>
4488

> <PUBCHEM_EXT_DATASOURCE_REGID>
SCHEMBL16106695

> <PUBCHEM_SUBSTANCE_COMMENT>
InChI=1S/C44H54N6O8S/c1-6-28-23-44(28,40(53)49-59(55,56)43(5)18-19-43)48-37(51)33-22-29-25-50(33)39(52)36(42(2,3)4)47-41(54)58-34-21-26(34)13-8-7-9-16-31-35(27-14-12-20-45-24-27)30-15-10-11-17-32(30)46-38(31)57-29/h6,10-12,14-15,17,20,24,26,28-29,33-34,36H,1,7-9,13,16,18-19,21-23,25H2,2-5H3,(H,47,54)(H,48,51)(H,49,53)/t26-,28-,29-,33+,34-,36-,44-/m1/s1
InChIKey=FCUIHPOJZDSQCJ-QTYLBSPKSA-N

> <PUBCHEM_SUBSTANCE_SYNONYM>
SCHEMBL16106695

> <PUBCHEM_XREF_EXT_ID>
SCHEMBL16106695

> <PUBCHEM_EXT_DATASOURCE_URL>
https://www.surechembl.org/

> <PUBCHEM_EXT_SUBSTANCE_URL>
https://www.surechembl.org/chemical/SCHEMBL16106695

> <PUBCHEM_CID_ASSOCIATIONS>
117598840  1

> <PUBCHEM_COORDINATE_TYPE>
1
3

> <PUBCHEM_BONDANNOTATIONS>
16  10  5
16  19  6
17  22  6
23  21  6
27  26  5
32  38  5
44  53  5
47  53  6

$$$$
