310947849
  -OEChem-07211613022D

 11 11  0     0  0  0  0  0  0999 V2000
    3.3312    7.6178    0.0000 O   0  0  0  0  0  0  0  0  0  0  0  0
    2.5466    6.5378    0.0000 N   0  0  0  0  0  0  0  0  0  0  0  0
    3.3312    6.2829    0.0000 N   0  0  0  0  0  0  0  0  0  0  0  0
    2.5466    7.3628    0.0000 C   0  0  0  0  0  0  0  0  0  0  0  0
    1.8321    7.7753    0.0000 C   0  0  0  0  0  0  0  0  0  0  0  0
    1.1176    9.0128    0.0000 C   0  0  0  0  0  0  0  0  0  0  0  0
    1.8321    8.6003    0.0000 C   0  0  0  0  0  0  0  0  0  0  0  0
    3.8161    6.9503    0.0000 C   0  0  0  0  0  0  0  0  0  0  0  0
    1.5301    9.7273    0.0000 C   0  0  0  0  0  0  0  0  0  0  0  0
    0.7051    8.2983    0.0000 C   0  0  0  0  0  0  0  0  0  0  0  0
    0.4032    9.4253    0.0000 C   0  0  0  0  0  0  0  0  0  0  0  0
  1  4  1  0  0  0  0
  1  8  1  0  0  0  0
  2  3  1  0  0  0  0
  2  4  2  0  0  0  0
  3  8  2  0  0  0  0
  4  5  1  0  0  0  0
  5  7  1  0  0  0  0
  6  7  1  0  0  0  0
  6  9  1  0  0  0  0
  6 10  1  0  0  0  0
  6 11  1  0  0  0  0
M  END
> <PUBCHEM_COMPOUND_ID_TYPE>
0

> <PUBCHEM_TOTAL_CHARGE>
0

> <PUBCHEM_SUBSTANCE_ID>
310947849

> <PUBCHEM_SUBSTANCE_VERSION>
1

> <PUBCHEM_EXT_DATASOURCE_NAME>
4488

> <PUBCHEM_EXT_DATASOURCE_REGID>
SCHEMBL16126023

> <PUBCHEM_SUBSTANCE_COMMENT>
InChI=1S/C8H14N2O/c1-8(2,3)5-4-7-10-9-6-11-7/h6H,4-5H2,1-3H3
InChIKey=ZSJFLEGDWATHGD-UHFFFAOYSA-N

> <PUBCHEM_SUBSTANCE_SYNONYM>
SCHEMBL16126023

> <PUBCHEM_XREF_EXT_ID>
SCHEMBL16126023

> <PUBCHEM_EXT_DATASOURCE_URL>
https://www.surechembl.org/

> <PUBCHEM_EXT_SUBSTANCE_URL>
https://www.surechembl.org/chemical/SCHEMBL16126023

> <PUBCHEM_CID_ASSOCIATIONS>
117613513  1

> <PUBCHEM_COORDINATE_TYPE>
1
3

> <PUBCHEM_BONDANNOTATIONS>
6  10  3
6  9  3

$$$$
