310947794
  -OEChem-07211613022D

 24 24  0     0  0  0  0  0  0999 V2000
   -0.3832  -10.2323    0.0000 S   0  0  0  0  0  0  0  0  0  0  0  0
   -1.5102  -11.3593    0.0000 F   0  0  0  0  0  0  0  0  0  0  0  0
   -0.6852  -11.3593    0.0000 F   0  0  0  0  0  0  0  0  0  0  0  0
   -1.3997   -9.5179    0.0000 F   0  0  0  0  0  0  0  0  0  0  0  0
   -2.2247   -9.5179    0.0000 F   0  0  0  0  0  0  0  0  0  0  0  0
   -2.5266  -10.6448    0.0000 O   0  0  0  0  0  0  0  0  0  0  0  0
   -0.7957   -9.5179    0.0000 O   0  0  0  0  0  0  0  0  0  0  0  0
    0.0293  -10.9468    0.0000 O   0  0  0  0  0  0  0  0  0  0  0  0
    0.3313   -9.8198    0.0000 O   0  0  0  0  0  0  0  0  0  0  0  0
   -1.8122   -9.4073    0.0000 O   0  0  0  0  0  0  0  0  0  0  0  0
   -2.5266   -8.1698    0.0000 O   0  0  0  0  0  0  0  0  0  0  0  0
   -1.0977  -10.6448    0.0000 C   0  0  0  0  0  0  0  0  0  0  0  0
   -1.8122  -10.2323    0.0000 C   0  0  0  0  0  0  0  0  0  0  0  0
   -3.2411  -10.2323    0.0000 C   0  0  0  0  0  0  0  0  0  0  0  0
   -1.0977   -8.9948    0.0000 C   0  0  0  0  0  0  0  0  0  0  0  0
   -3.2411   -9.4073    0.0000 C   0  0  0  0  0  0  0  0  0  0  0  0
   -2.5266   -8.9948    0.0000 C   0  0  0  0  0  0  0  0  0  0  0  0
   -0.8427   -9.7795    0.0000 C   0  0  0  0  0  0  0  0  0  0  0  0
   -0.4302   -8.5099    0.0000 C   0  0  0  0  0  0  0  0  0  0  0  0
   -1.0977   -8.1698    0.0000 C   0  0  0  0  0  0  0  0  0  0  0  0
   -0.0177   -9.7795    0.0000 C   0  0  0  0  0  0  0  0  0  0  0  0
    0.2372   -8.9948    0.0000 C   0  0  0  0  0  0  0  0  0  0  0  0
   -3.9556   -8.9948    0.0000 C   0  0  0  0  0  0  0  0  0  0  0  0
   -0.3832   -7.7573    0.0000 C   0  0  0  0  0  0  0  0  0  0  0  0
  1  7  2  0  0  0  0
  1  8  2  0  0  0  0
  1  9  1  0  0  0  0
  1 12  1  0  0  0  0
  2 12  1  0  0  0  0
  3 12  1  0  0  0  0
  4 13  1  0  0  0  0
  5 13  1  0  0  0  0
  6 13  1  0  0  0  0
  6 14  1  0  0  0  0
 10 15  1  0  0  0  0
 10 17  1  0  0  0  0
 11 17  2  0  0  0  0
 12 13  1  0  0  0  0
 14 16  1  0  0  0  0
 15 18  1  0  0  0  0
 15 19  1  0  0  0  0
 15 20  1  0  0  0  0
 16 17  1  0  0  0  0
 16 23  2  0  0  0  0
 18 21  1  0  0  0  0
 19 22  1  0  0  0  0
 20 24  1  0  0  0  0
 21 22  1  0  0  0  0
M  END
> <PUBCHEM_COMPOUND_ID_TYPE>
0

> <PUBCHEM_TOTAL_CHARGE>
0

> <PUBCHEM_SUBSTANCE_ID>
310947794

> <PUBCHEM_SUBSTANCE_VERSION>
1

> <PUBCHEM_EXT_DATASOURCE_NAME>
4488

> <PUBCHEM_EXT_DATASOURCE_REGID>
SCHEMBL16125966

> <PUBCHEM_SUBSTANCE_COMMENT>
InChI=1S/C13H18F4O6S/c1-3-11(6-4-5-7-11)23-10(18)9(2)8-22-12(14,15)13(16,17)24(19,20)21/h2-8H2,1H3,(H,19,20,21)
InChIKey=PSDVINXGKAMYOT-UHFFFAOYSA-N

> <PUBCHEM_SUBSTANCE_SYNONYM>
SCHEMBL16125966

> <PUBCHEM_XREF_EXT_ID>
SCHEMBL16125966

> <PUBCHEM_EXT_DATASOURCE_URL>
https://www.surechembl.org/

> <PUBCHEM_EXT_SUBSTANCE_URL>
https://www.surechembl.org/chemical/SCHEMBL16125966

> <PUBCHEM_CID_ASSOCIATIONS>
117613463  1

> <PUBCHEM_COORDINATE_TYPE>
1
3

$$$$
