310945440
  -OEChem-07211613022D

 34 37  0     0  0  0  0  0  0999 V2000
    0.7146    1.7909    0.0000 F   0  0  0  0  0  0  0  0  0  0  0  0
    1.4743    2.7858    0.0000 F   0  0  0  0  0  0  0  0  0  0  0  0
    2.2159    1.7909    0.0000 F   0  0  0  0  0  0  0  0  0  0  0  0
   -3.3194   -1.2482    0.0000 F   0  0  0  0  0  0  0  0  0  0  0  0
   -4.0611   -0.2352    0.0000 F   0  0  0  0  0  0  0  0  0  0  0  0
   -3.3194    0.7598    0.0000 F   0  0  0  0  0  0  0  0  0  0  0  0
   -1.0944    1.5195    0.0000 O   0  0  0  0  0  0  0  0  0  0  0  0
    3.4099    0.2713    0.0000 O   0  0  0  0  0  0  0  0  0  0  0  0
    0.0995    0.5789    0.0000 N   0  0  0  0  0  0  0  0  0  0  0  0
    0.0995   -1.0492    0.0000 N   0  0  0  0  0  0  0  0  0  0  0  0
    1.4562   -1.2482    0.0000 N   0  0  0  0  0  0  0  0  0  0  0  0
    2.1074    0.2894    0.0000 N   0  0  0  0  0  0  0  0  0  0  0  0
    0.8050    0.2533    0.0000 C   0  0  0  0  0  0  0  0  0  0  0  0
    0.7869   -0.7778    0.0000 C   0  0  0  0  0  0  0  0  0  0  0  0
    1.4562    0.7598    0.0000 C   0  0  0  0  0  0  0  0  0  0  0  0
   -0.3347   -0.2533    0.0000 C   0  0  0  0  0  0  0  0  0  0  0  0
    2.0893   -0.7778    0.0000 C   0  0  0  0  0  0  0  0  0  0  0  0
   -1.0763   -0.2533    0.0000 C   0  0  0  0  0  0  0  0  0  0  0  0
    1.4562    1.7547    0.0000 C   0  0  0  0  0  0  0  0  0  0  0  0
    2.7767   -1.2663    0.0000 C   0  0  0  0  0  0  0  0  0  0  0  0
   -1.4743    0.5970    0.0000 C   0  0  0  0  0  0  0  0  0  0  0  0
   -2.5777   -0.2533    0.0000 C   0  0  0  0  0  0  0  0  0  0  0  0
   -1.4562   -1.1396    0.0000 C   0  0  0  0  0  0  0  0  0  0  0  0
   -2.1978    0.5789    0.0000 C   0  0  0  0  0  0  0  0  0  0  0  0
    3.4099   -0.7778    0.0000 C   0  0  0  0  0  0  0  0  0  0  0  0
   -3.3194   -0.2533    0.0000 C   0  0  0  0  0  0  0  0  0  0  0  0
   -2.1978   -1.1396    0.0000 C   0  0  0  0  0  0  0  0  0  0  0  0
    2.7767   -2.2793    0.0000 C   0  0  0  0  0  0  0  0  0  0  0  0
    4.0611   -1.2843    0.0000 C   0  0  0  0  0  0  0  0  0  0  0  0
    3.4099   -2.7858    0.0000 C   0  0  0  0  0  0  0  0  0  0  0  0
   -3.3194    0.3618    0.0000 C   0  0  0  0  0  0  0  0  0  0  0  0
    4.0611   -2.2974    0.0000 C   0  0  0  0  0  0  0  0  0  0  0  0
   -1.4562    2.3878    0.0000 C   0  0  0  0  0  0  0  0  0  0  0  0
    4.0611    0.7778    0.0000 C   0  0  0  0  0  0  0  0  0  0  0  0
  1 19  1  0  0  0  0
  2 19  1  0  0  0  0
  3 19  1  0  0  0  0
  4 26  1  0  0  0  0
  5 26  1  0  0  0  0
  6 31  1  0  0  0  0
  7 21  1  0  0  0  0
  7 33  1  0  0  0  0
  8 25  1  0  0  0  0
  8 34  1  0  0  0  0
  9 13  1  0  0  0  0
  9 16  2  0  0  0  0
 10 14  1  0  0  0  0
 10 16  1  0  0  0  0
 11 14  1  0  0  0  0
 11 17  2  0  0  0  0
 12 15  2  0  0  0  0
 12 17  1  0  0  0  0
 13 14  2  0  0  0  0
 13 15  1  0  0  0  0
 15 19  1  0  0  0  0
 16 18  1  0  0  0  0
 17 20  1  0  0  0  0
 18 21  2  0  0  0  0
 18 23  1  0  0  0  0
 20 25  1  0  0  0  0
 20 28  2  0  0  0  0
 21 24  1  0  0  0  0
 22 24  2  0  0  0  0
 22 26  1  0  0  0  0
 22 27  1  0  0  0  0
 23 27  2  0  0  0  0
 25 29  2  0  0  0  0
 26 31  1  0  0  0  0
 28 30  1  0  0  0  0
 29 32  1  0  0  0  0
 30 32  2  0  0  0  0
M  END
> <PUBCHEM_COMPOUND_ID_TYPE>
0

> <PUBCHEM_TOTAL_CHARGE>
0

> <PUBCHEM_SUBSTANCE_ID>
310945440

> <PUBCHEM_SUBSTANCE_VERSION>
1

> <PUBCHEM_EXT_DATASOURCE_NAME>
4488

> <PUBCHEM_EXT_DATASOURCE_REGID>
SCHEMBL16123538

> <PUBCHEM_SUBSTANCE_COMMENT>
InChI=1S/C22H16F6N4O2/c1-33-14-6-4-3-5-12(14)19-30-17(22(26,27)28)16-20(32-19)31-18(29-16)13-8-7-11(9-15(13)34-2)21(24,25)10-23/h3-9H,10H2,1-2H3,(H,29,30,31,32)
InChIKey=UYXNCUKKVIXJGR-UHFFFAOYSA-N

> <PUBCHEM_SUBSTANCE_SYNONYM>
SCHEMBL16123538

> <PUBCHEM_XREF_EXT_ID>
SCHEMBL16123538

> <PUBCHEM_EXT_DATASOURCE_URL>
https://www.surechembl.org/

> <PUBCHEM_EXT_SUBSTANCE_URL>
https://www.surechembl.org/chemical/SCHEMBL16123538

> <PUBCHEM_CID_ASSOCIATIONS>
117611485  1

> <PUBCHEM_COORDINATE_TYPE>
1
3

$$$$
