310935606
  -OEChem-07211613022D

 34 37  0     1  0  0  0  0  0999 V2000
    1.1726   -0.8134    0.0000 O   0  0  0  0  0  0  0  0  0  0  0  0
    7.1453    0.8077    0.0000 O   0  0  0  0  0  0  0  0  0  0  0  0
    4.7419   -0.9450    0.0000 O   0  0  0  0  0  0  0  0  0  0  0  0
    1.3241   -1.6092    0.0000 N   0  0  0  0  0  0  0  0  0  0  0  0
    2.5645    2.4750    0.0000 N   0  0  0  0  0  0  0  0  0  0  0  0
    2.5645    0.8250    0.0000 C   0  0  3  0  0  0  0  0  0  0  0  0
    3.2789    1.2375    0.0000 C   0  0  3  0  0  0  0  0  0  0  0  0
    2.5645    0.0000    0.0000 C   0  0  3  0  0  0  0  0  0  0  0  0
    3.9934    0.8250    0.0000 C   0  0  3  0  0  0  0  0  0  0  0  0
    1.7798   -0.2549    0.0000 C   0  0  3  0  0  0  0  0  0  0  0  0
    4.7079    1.2375    0.0000 C   0  0  3  0  0  0  0  0  0  0  0  0
    1.7798    1.0799    0.0000 C   0  0  0  0  0  0  0  0  0  0  0  0
    3.2789   -0.4125    0.0000 C   0  0  0  0  0  0  0  0  0  0  0  0
    3.9934    0.0000    0.0000 C   0  0  0  0  0  0  0  0  0  0  0  0
    4.9900    0.4623    0.0000 C   0  0  3  0  0  0  0  0  0  0  0  0
    1.2949    0.4125    0.0000 C   0  0  0  0  0  0  0  0  0  0  0  0
    3.2789    2.0625    0.0000 C   0  0  0  0  0  0  0  0  0  0  0  0
    1.9429   -1.0637    0.0000 C   0  0  0  0  0  0  0  0  0  0  0  0
    2.4782   -0.8205    0.0000 C   0  0  0  0  0  0  0  0  0  0  0  0
    5.2382    1.8695    0.0000 C   0  0  0  0  0  0  0  0  0  0  0  0
    5.8025    0.3190    0.0000 C   0  0  0  0  0  0  0  0  0  0  0  0
    4.1776    1.8695    0.0000 C   0  0  0  0  0  0  0  0  0  0  0  0
    6.3328    0.9510    0.0000 C   0  0  3  0  0  0  0  0  0  0  0  0
    4.4597   -0.1697    0.0000 C   0  0  0  0  0  0  0  0  0  0  0  0
    6.0506    1.7262    0.0000 C   0  0  0  0  0  0  0  0  0  0  0  0
    2.7248   -1.3268    0.0000 C   0  0  0  0  0  0  0  0  0  0  0  0
    1.4871   -2.4180    0.0000 C   0  0  0  0  0  0  0  0  0  0  0  0
    2.8879   -2.1355    0.0000 C   0  0  0  0  0  0  0  0  0  0  0  0
    2.2690   -2.6811    0.0000 C   0  0  0  0  0  0  0  0  0  0  0  0
    2.4782    1.6455    0.0000 H   0  0  0  0  0  0  0  0  0  0  0  0
    3.8092    1.8695    0.0000 H   0  0  0  0  0  0  0  0  0  0  0  0
    4.2756    1.6002    0.0000 H   0  0  0  0  0  0  0  0  0  0  0  0
    4.1776    0.6055    0.0000 H   0  0  0  0  0  0  0  0  0  0  0  0
    6.6150    0.1757    0.0000 H   0  0  0  0  0  0  0  0  0  0  0  0
 10  1  1  1  0  0  0
 23  2  1  6  0  0  0
  3 24  1  0  0  0  0
  4 18  2  0  0  0  0
  4 27  1  0  0  0  0
  5 17  1  0  0  0  0
  6  7  1  0  0  0  0
  6  8  1  0  0  0  0
  6 12  1  0  0  0  0
  6 30  1  6  0  0  0
  7  9  1  0  0  0  0
  7 17  1  0  0  0  0
  7 31  1  1  0  0  0
  8 10  1  0  0  0  0
  8 13  1  0  0  0  0
  8 19  1  1  0  0  0
  9 11  1  0  0  0  0
  9 14  1  0  0  0  0
  9 32  1  6  0  0  0
 10 16  1  0  0  0  0
 10 18  1  0  0  0  0
 11 15  1  0  0  0  0
 11 20  1  0  0  0  0
 11 22  1  6  0  0  0
 12 16  1  0  0  0  0
 13 14  1  0  0  0  0
 15 21  1  0  0  0  0
 15 24  1  0  0  0  0
 15 33  1  1  0  0  0
 18 26  1  0  0  0  0
 20 25  1  0  0  0  0
 21 23  1  0  0  0  0
 23 25  1  0  0  0  0
 23 34  1  1  0  0  0
 26 28  2  0  0  0  0
 27 29  2  0  0  0  0
 28 29  1  0  0  0  0
M  END
> <PUBCHEM_COMPOUND_ID_TYPE>
0

> <PUBCHEM_TOTAL_CHARGE>
0

> <PUBCHEM_SUBSTANCE_ID>
310935606

> <PUBCHEM_SUBSTANCE_VERSION>
1

> <PUBCHEM_EXT_DATASOURCE_NAME>
4488

> <PUBCHEM_EXT_DATASOURCE_REGID>
SCHEMBL16113179

> <PUBCHEM_SUBSTANCE_COMMENT>
InChI=1S/C24H38N2O3/c1-22(9-6-17(28)13-16(22)15-27)19-7-10-23(2)20(18(19)14-25)8-11-24(23,29)21-5-3-4-12-26-21/h3-5,12,16-20,27-29H,6-11,13-15,25H2,1-2H3/t16-,17+,18-,19+,20+,22+,23+,24-/m1/s1
InChIKey=JABBJSYGCOXJLK-IXNIKLRASA-N

> <PUBCHEM_SUBSTANCE_SYNONYM>
SCHEMBL16113179

> <PUBCHEM_XREF_EXT_ID>
SCHEMBL16113179

> <PUBCHEM_EXT_DATASOURCE_URL>
https://www.surechembl.org/

> <PUBCHEM_EXT_SUBSTANCE_URL>
https://www.surechembl.org/chemical/SCHEMBL16113179

> <PUBCHEM_CID_ASSOCIATIONS>
117603624  1

> <PUBCHEM_COORDINATE_TYPE>
1
3

> <PUBCHEM_BONDANNOTATIONS>
10  1  5
11  22  6
15  33  5
23  2  6
23  34  5
6  30  6
7  31  5
8  19  5
9  32  6

$$$$
