310942816
  -OEChem-07211613022D

 86 92  0     1  0  0  0  0  0999 V2000
   10.2725    0.8134    0.0000 F   0  0  0  0  0  0  0  0  0  0  0  0
    4.3857   -1.7694    0.0000 F   0  0  0  0  0  0  0  0  0  0  0  0
    8.5954    3.6310    0.0000 F   0  0  0  0  0  0  0  0  0  0  0  0
   10.1383   -3.6310    0.0000 F   0  0  0  0  0  0  0  0  0  0  0  0
    7.0524    1.1824    0.0000 O   0  0  0  0  0  0  0  0  0  0  0  0
    5.6939    2.1383    0.0000 O   0  0  0  0  0  0  0  0  0  0  0  0
    1.8868    0.2600    0.0000 O   0  0  0  0  0  0  0  0  0  0  0  0
    2.6080    1.4843    0.0000 O   0  0  0  0  0  0  0  0  0  0  0  0
   -7.9245    1.5178    0.0000 O   0  0  0  0  0  0  0  0  0  0  0  0
   -9.2494   -1.0650    0.0000 O   0  0  0  0  0  0  0  0  0  0  0  0
   -6.7002    0.6457    0.0000 O   0  0  0  0  0  0  0  0  0  0  0  0
   -4.6038   -1.5849    0.0000 O   0  0  0  0  0  0  0  0  0  0  0  0
   -2.4738    0.4612    0.0000 O   0  0  0  0  0  0  0  0  0  0  0  0
  -10.7085   -3.1446    0.0000 O   0  0  0  0  0  0  0  0  0  0  0  0
   -5.3249   -2.0042    0.0000 O   0  0  0  0  0  0  0  0  0  0  0  0
    8.3605   -0.5116    0.0000 N   0  0  0  0  0  0  0  0  0  0  0  0
    6.2306    0.0252    0.0000 N   0  0  0  0  0  0  0  0  0  0  0  0
    7.8071    0.6961    0.0000 N   0  0  0  0  0  0  0  0  0  0  0  0
    3.4130    0.1426    0.0000 N   0  0  0  0  0  0  0  0  0  0  0  0
   -8.3773    0.1257    0.0000 N   0  0  0  0  0  0  0  0  0  0  0  0
   -6.0293   -0.7631    0.0000 N   0  0  0  0  0  0  0  0  0  0  0  0
   -3.8993   -0.3606    0.0000 N   0  0  0  0  0  0  0  0  0  0  0  0
   -1.7526   -0.7631    0.0000 N   0  0  0  0  0  0  0  0  0  0  0  0
   -4.6038   -3.2453    0.0000 N   0  0  0  0  0  0  0  0  0  0  0  0
   -6.0293   -3.2285    0.0000 N   0  0  0  0  0  0  0  0  0  0  0  0
    6.9014   -0.4445    0.0000 C   0  0  3  0  0  0  0  0  0  0  0  0
    7.6226   -0.1090    0.0000 C   0  0  0  0  0  0  0  0  0  0  0  0
    6.8176   -1.2830    0.0000 C   0  0  0  0  0  0  0  0  0  0  0  0
    8.6289    0.7799    0.0000 C   0  0  0  0  0  0  0  0  0  0  0  0
    8.9643    0.0587    0.0000 C   0  0  0  0  0  0  0  0  0  0  0  0
    9.0314    1.5346    0.0000 C   0  0  0  0  0  0  0  0  0  0  0  0
    6.2976    0.8302    0.0000 C   0  0  0  0  0  0  0  0  0  0  0  0
    5.5262   -0.3438    0.0000 C   0  0  0  0  0  0  0  0  0  0  0  0
    8.4612   -1.3334    0.0000 C   0  0  0  0  0  0  0  0  0  0  0  0
    4.6540   -0.3102    0.0000 C   0  0  3  0  0  0  0  0  0  0  0  0
    9.8532    1.5178    0.0000 C   0  0  0  0  0  0  0  0  0  0  0  0
    8.6289    2.2222    0.0000 C   0  0  0  0  0  0  0  0  0  0  0  0
    9.2159   -1.6520    0.0000 C   0  0  0  0  0  0  0  0  0  0  0  0
    4.1509   -0.9811    0.0000 C   0  0  3  0  0  0  0  0  0  0  0  0
    6.0629   -1.6352    0.0000 C   0  0  0  0  0  0  0  0  0  0  0  0
    7.4884   -1.7694    0.0000 C   0  0  0  0  0  0  0  0  0  0  0  0
    6.8008   -2.1216    0.0000 C   0  0  0  0  0  0  0  0  0  0  0  0
    5.6436    1.3165    0.0000 C   0  0  3  0  0  0  0  0  0  0  0  0
    4.2012    0.3438    0.0000 C   0  0  0  0  0  0  0  0  0  0  0  0
    8.9978    2.9434    0.0000 C   0  0  0  0  0  0  0  0  0  0  0  0
    3.3962   -0.6961    0.0000 C   0  0  0  0  0  0  0  0  0  0  0  0
   10.2557    2.2557    0.0000 C   0  0  0  0  0  0  0  0  0  0  0  0
    9.8532    2.9434    0.0000 C   0  0  0  0  0  0  0  0  0  0  0  0
    9.3165   -2.4738    0.0000 C   0  0  0  0  0  0  0  0  0  0  0  0
    2.6080    0.6625    0.0000 C   0  0  0  0  0  0  0  0  0  0  0  0
    9.8700   -1.1824    0.0000 C   0  0  0  0  0  0  0  0  0  0  0  0
   10.0712   -2.8092    0.0000 C   0  0  0  0  0  0  0  0  0  0  0  0
    4.9392    0.9476    0.0000 C   0  0  0  0  0  0  0  0  0  0  0  0
   -7.5555   -0.4109    0.0000 C   0  0  3  0  0  0  0  0  0  0  0  0
   10.6079   -1.5010    0.0000 C   0  0  0  0  0  0  0  0  0  0  0  0
   10.7085   -2.3228    0.0000 C   0  0  0  0  0  0  0  0  0  0  0  0
   -9.0985   -0.2264    0.0000 C   0  0  0  0  0  0  0  0  0  0  0  0
   -8.5283    0.8973    0.0000 C   0  0  0  0  0  0  0  0  0  0  0  0
   -6.7840   -0.1761    0.0000 C   0  0  0  0  0  0  0  0  0  0  0  0
   -7.6897   -1.7023    0.0000 C   0  0  0  0  0  0  0  0  0  0  0  0
   -9.6855    0.3271    0.0000 C   0  0  0  0  0  0  0  0  0  0  0  0
   -9.3165    1.0650    0.0000 C   0  0  0  0  0  0  0  0  0  0  0  0
    1.0985    0.8805    0.0000 C   0  0  0  0  0  0  0  0  0  0  0  0
   -5.3249   -0.3438    0.0000 C   0  0  3  0  0  0  0  0  0  0  0  0
   -8.4276   -2.1383    0.0000 C   0  0  0  0  0  0  0  0  0  0  0  0
    0.3941    0.4780    0.0000 C   0  0  0  0  0  0  0  0  0  0  0  0
   -4.6038   -0.7463    0.0000 C   0  0  0  0  0  0  0  0  0  0  0  0
   -5.3082    0.4947    0.0000 C   0  0  0  0  0  0  0  0  0  0  0  0
   -9.0818   -1.6688    0.0000 C   0  0  0  0  0  0  0  0  0  0  0  0
   -8.5283   -2.9601    0.0000 C   0  0  0  0  0  0  0  0  0  0  0  0
   -3.1614   -0.7631    0.0000 C   0  0  3  0  0  0  0  0  0  0  0  0
   -0.3438    0.8637    0.0000 C   0  0  0  0  0  0  0  0  0  0  0  0
    0.3773   -0.3606    0.0000 C   0  0  0  0  0  0  0  0  0  0  0  0
   -1.0482   -0.3606    0.0000 C   0  0  0  0  0  0  0  0  0  0  0  0
   -2.4906   -0.3773    0.0000 C   0  0  0  0  0  0  0  0  0  0  0  0
   -9.8532   -1.9874    0.0000 C   0  0  0  0  0  0  0  0  0  0  0  0
   -9.2830   -3.2956    0.0000 C   0  0  0  0  0  0  0  0  0  0  0  0
   -9.9706   -2.8092    0.0000 C   0  0  0  0  0  0  0  0  0  0  0  0
   -1.0147    0.4780    0.0000 C   0  0  0  0  0  0  0  0  0  0  0  0
   -0.3438   -0.7463    0.0000 C   0  0  0  0  0  0  0  0  0  0  0  0
   -6.0126    0.8973    0.0000 C   0  0  0  0  0  0  0  0  0  0  0  0
   -4.6038    0.8973    0.0000 C   0  0  0  0  0  0  0  0  0  0  0  0
   -3.1614   -1.6017    0.0000 C   0  0  0  0  0  0  0  0  0  0  0  0
   -3.8826   -1.9874    0.0000 C   0  0  0  0  0  0  0  0  0  0  0  0
   -3.9162   -2.8428    0.0000 C   0  0  0  0  0  0  0  0  0  0  0  0
   -5.3249   -2.8428    0.0000 C   0  0  0  0  0  0  0  0  0  0  0  0
  1 36  1  0  0  0  0
 39  2  1  1  0  0  0
  3 45  1  0  0  0  0
  4 52  1  0  0  0  0
  5 32  2  0  0  0  0
 43  6  1  6  0  0  0
  7 50  1  0  0  0  0
  7 63  1  0  0  0  0
  8 50  2  0  0  0  0
  9 58  2  0  0  0  0
 10 57  2  0  0  0  0
 11 59  2  0  0  0  0
 12 67  2  0  0  0  0
 13 75  2  0  0  0  0
 14 78  1  0  0  0  0
 15 86  2  0  0  0  0
 16 27  1  0  0  0  0
 16 30  1  0  0  0  0
 16 34  1  0  0  0  0
 26 17  1  1  0  0  0
 17 32  1  0  0  0  0
 17 33  1  0  0  0  0
 18 27  2  0  0  0  0
 18 29  1  0  0  0  0
 19 44  1  0  0  0  0
 19 46  1  0  0  0  0
 19 50  1  0  0  0  0
 20 54  1  0  0  0  0
 20 57  1  0  0  0  0
 20 58  1  0  0  0  0
 21 59  1  0  0  0  0
 64 21  1  1  0  0  0
 22 67  1  0  0  0  0
 71 22  1  6  0  0  0
 23 74  1  0  0  0  0
 23 75  1  0  0  0  0
 24 85  1  0  0  0  0
 24 86  1  0  0  0  0
 25 86  1  0  0  0  0
 26 27  1  0  0  0  0
 26 28  1  0  0  0  0
 28 40  1  0  0  0  0
 28 41  1  0  0  0  0
 28 42  1  0  0  0  0
 29 30  2  0  0  0  0
 29 31  1  0  0  0  0
 31 36  2  0  0  0  0
 31 37  1  0  0  0  0
 32 43  1  0  0  0  0
 35 33  1  1  0  0  0
 34 38  1  0  0  0  0
 35 39  1  0  0  0  0
 35 44  1  0  0  0  0
 36 47  1  0  0  0  0
 37 45  2  0  0  0  0
 38 49  2  0  0  0  0
 38 51  1  0  0  0  0
 39 46  1  0  0  0  0
 43 53  1  0  0  0  0
 45 48  1  0  0  0  0
 47 48  2  0  0  0  0
 49 52  1  0  0  0  0
 51 55  2  0  0  0  0
 52 56  2  0  0  0  0
 54 59  1  0  0  0  0
 54 60  1  6  0  0  0
 55 56  1  0  0  0  0
 57 61  1  0  0  0  0
 58 62  1  0  0  0  0
 60 65  1  0  0  0  0
 61 62  2  0  0  0  0
 63 66  1  0  0  0  0
 64 67  1  0  0  0  0
 64 68  1  0  0  0  0
 65 69  2  0  0  0  0
 65 70  1  0  0  0  0
 66 72  2  0  0  0  0
 66 73  1  0  0  0  0
 68 81  1  0  0  0  0
 68 82  1  0  0  0  0
 69 76  1  0  0  0  0
 70 77  2  0  0  0  0
 71 75  1  0  0  0  0
 71 83  1  0  0  0  0
 72 79  1  0  0  0  0
 73 80  2  0  0  0  0
 74 79  2  0  0  0  0
 74 80  1  0  0  0  0
 76 78  2  0  0  0  0
 77 78  1  0  0  0  0
 83 84  1  0  0  0  0
 84 85  1  0  0  0  0
M  END
> <PUBCHEM_COMPOUND_ID_TYPE>
0

> <PUBCHEM_TOTAL_CHARGE>
0

> <PUBCHEM_SUBSTANCE_ID>
310942816

> <PUBCHEM_SUBSTANCE_VERSION>
1

> <PUBCHEM_EXT_DATASOURCE_NAME>
4488

> <PUBCHEM_EXT_DATASOURCE_REGID>
SCHEMBL16120870

> <PUBCHEM_SUBSTANCE_COMMENT>
InChI=1S/C61H70F4N10O11/c1-34(2)52(71-56(81)49(75-50(78)22-23-51(75)79)26-36-14-19-43(77)20-15-36)57(82)70-47(11-8-24-67-59(66)84)55(80)68-42-17-12-37(13-18-42)33-86-60(85)73-29-39(46(65)31-73)30-74(58(83)35(3)76)53(61(4,5)6)54-69-48(44-27-41(63)16-21-45(44)64)32-72(54)28-38-9-7-10-40(62)25-38/h7,9-10,12-23,25,27,32,34-35,39,46-47,49,52-53,76-77H,8,11,24,26,28-31,33H2,1-6H3,(H,68,80)(H,70,82)(H,71,81)(H3,66,67,84)/t35-,39-,46-,47-,49-,52-,53-/m0/s1
InChIKey=MKPCSJCQMJUEER-GNCPOROISA-N

> <PUBCHEM_SUBSTANCE_SYNONYM>
SCHEMBL16120870

> <PUBCHEM_XREF_EXT_ID>
SCHEMBL16120870

> <PUBCHEM_EXT_DATASOURCE_URL>
https://www.surechembl.org/

> <PUBCHEM_EXT_SUBSTANCE_URL>
https://www.surechembl.org/chemical/SCHEMBL16120870

> <PUBCHEM_CID_ASSOCIATIONS>
117609319  1

> <PUBCHEM_COORDINATE_TYPE>
1
3

> <PUBCHEM_BONDANNOTATIONS>
26  17  5
39  2  5
64  21  5
71  22  6
35  33  5
54  60  6
43  6  6

$$$$
