310942454
  -OEChem-07211613022D

 17 18  0     0  0  0  0  0  0999 V2000
   -1.5633    0.6094    0.0000 S   0  0  0  0  0  0  0  0  0  0  0  0
    2.0138    1.8018    0.0000 O   0  0  0  0  0  0  0  0  0  0  0  0
    1.3249    0.6094    0.0000 N   0  0  0  0  0  0  0  0  0  0  0  0
   -0.1148    0.6094    0.0000 N   0  0  0  0  0  0  0  0  0  0  0  0
   -0.8391    1.8372    0.0000 N   0  0  0  0  0  0  0  0  0  0  0  0
    1.9962   -0.8038    0.0000 N   0  0  0  0  0  0  0  0  0  0  0  0
    1.7665   -1.5722    0.0000 N   0  0  0  0  0  0  0  0  0  0  0  0
    0.6006    1.0245    0.0000 C   0  0  0  0  0  0  0  0  0  0  0  0
    0.6094    1.8372    0.0000 C   0  0  0  0  0  0  0  0  0  0  0  0
    1.3160   -0.2915    0.0000 C   0  0  0  0  0  0  0  0  0  0  0  0
   -0.8303    1.0245    0.0000 C   0  0  0  0  0  0  0  0  0  0  0  0
   -0.1236    2.2434    0.0000 C   0  0  0  0  0  0  0  0  0  0  0  0
    0.6624   -0.7949    0.0000 C   0  0  0  0  0  0  0  0  0  0  0  0
    1.3160    2.2434    0.0000 C   0  0  0  0  0  0  0  0  0  0  0  0
    0.9450   -1.5722    0.0000 C   0  0  0  0  0  0  0  0  0  0  0  0
    2.2788   -2.2434    0.0000 C   0  0  0  0  0  0  0  0  0  0  0  0
   -2.2788    1.0069    0.0000 C   0  0  0  0  0  0  0  0  0  0  0  0
  1 11  1  0  0  0  0
  1 17  1  0  0  0  0
  2 14  2  0  0  0  0
  3  8  1  0  0  0  0
  3 10  1  0  0  0  0
  4  8  2  0  0  0  0
  4 11  1  0  0  0  0
  5 11  2  0  0  0  0
  5 12  1  0  0  0  0
  6  7  1  0  0  0  0
  6 10  2  0  0  0  0
  7 15  1  0  0  0  0
  7 16  1  0  0  0  0
  8  9  1  0  0  0  0
  9 12  2  0  0  0  0
  9 14  1  0  0  0  0
 10 13  1  0  0  0  0
 13 15  2  0  0  0  0
M  END
> <PUBCHEM_COMPOUND_ID_TYPE>
0

> <PUBCHEM_TOTAL_CHARGE>
0

> <PUBCHEM_SUBSTANCE_ID>
310942454

> <PUBCHEM_SUBSTANCE_VERSION>
1

> <PUBCHEM_EXT_DATASOURCE_NAME>
4488

> <PUBCHEM_EXT_DATASOURCE_REGID>
SCHEMBL16120490

> <PUBCHEM_SUBSTANCE_COMMENT>
InChI=1S/C10H11N5OS/c1-15-4-3-8(14-15)12-9-7(6-16)5-11-10(13-9)17-2/h3-6H,1-2H3,(H,11,12,13,14)
InChIKey=WJHMEQDQVSJLND-UHFFFAOYSA-N

> <PUBCHEM_SUBSTANCE_SYNONYM>
SCHEMBL16120490

> <PUBCHEM_XREF_EXT_ID>
SCHEMBL16120490

> <PUBCHEM_EXT_DATASOURCE_URL>
https://www.surechembl.org/

> <PUBCHEM_EXT_SUBSTANCE_URL>
https://www.surechembl.org/chemical/SCHEMBL16120490

> <PUBCHEM_CID_ASSOCIATIONS>
117609040  1

> <PUBCHEM_COORDINATE_TYPE>
1
3

$$$$
