310949142
  -OEChem-07211613022D

 42 49  0     0  0  0  0  0  0999 V2000
   -1.5136   -1.2384    0.0000 O   0  0  0  0  0  0  0  0  0  0  0  0
    0.0081    1.1089    0.0000 N   0  0  0  0  0  0  0  0  0  0  0  0
    2.1287    0.6880    0.0000 N   0  0  0  0  0  0  0  0  0  0  0  0
   -0.0081   -3.0353    0.0000 N   0  0  0  0  0  0  0  0  0  0  0  0
   -0.0081    0.2995    0.0000 C   0  0  0  0  0  0  0  0  0  0  0  0
   -0.7204   -0.1376    0.0000 C   0  0  0  0  0  0  0  0  0  0  0  0
    0.6556    1.6431    0.0000 C   0  0  0  0  0  0  0  0  0  0  0  0
   -0.7042    1.6269    0.0000 C   0  0  0  0  0  0  0  0  0  0  0  0
   -0.4452    2.4202    0.0000 C   0  0  0  0  0  0  0  0  0  0  0  0
    0.4290    2.4202    0.0000 C   0  0  0  0  0  0  0  0  0  0  0  0
   -0.7366   -0.9632    0.0000 C   0  0  0  0  0  0  0  0  0  0  0  0
   -1.5136    0.1214    0.0000 C   0  0  0  0  0  0  0  0  0  0  0  0
    0.7204   -0.1376    0.0000 C   0  0  0  0  0  0  0  0  0  0  0  0
   -1.9669   -0.5585    0.0000 C   0  0  0  0  0  0  0  0  0  0  0  0
    0.0081   -1.3517    0.0000 C   0  0  0  0  0  0  0  0  0  0  0  0
    1.4812    1.4974    0.0000 C   0  0  0  0  0  0  0  0  0  0  0  0
   -1.4974    1.4489    0.0000 C   0  0  0  0  0  0  0  0  0  0  0  0
    0.7204   -0.9470    0.0000 C   0  0  0  0  0  0  0  0  0  0  0  0
   -0.9794    3.0191    0.0000 C   0  0  0  0  0  0  0  0  0  0  0  0
    0.9470    3.0353    0.0000 C   0  0  0  0  0  0  0  0  0  0  0  0
   -2.0154    2.0316    0.0000 C   0  0  0  0  0  0  0  0  0  0  0  0
    2.0316    2.1126    0.0000 C   0  0  0  0  0  0  0  0  0  0  0  0
   -1.8212    0.8499    0.0000 C   0  0  0  0  0  0  0  0  0  0  0  0
   -1.7888    2.8249    0.0000 C   0  0  0  0  0  0  0  0  0  0  0  0
    1.7726    2.8896    0.0000 C   0  0  0  0  0  0  0  0  0  0  0  0
    1.4326    0.2995    0.0000 C   0  0  0  0  0  0  0  0  0  0  0  0
   -2.7925   -0.4614    0.0000 C   0  0  0  0  0  0  0  0  0  0  0  0
   -0.0081   -2.2259    0.0000 C   0  0  0  0  0  0  0  0  0  0  0  0
   -2.8734    2.0316    0.0000 C   0  0  0  0  0  0  0  0  0  0  0  0
    2.8896    1.9506    0.0000 C   0  0  0  0  0  0  0  0  0  0  0  0
   -2.6306    0.9470    0.0000 C   0  0  0  0  0  0  0  0  0  0  0  0
   -3.1000    0.3157    0.0000 C   0  0  0  0  0  0  0  0  0  0  0  0
   -3.2781    2.7277    0.0000 C   0  0  0  0  0  0  0  0  0  0  0  0
    3.1486    1.1575    0.0000 C   0  0  0  0  0  0  0  0  0  0  0  0
   -3.2943    1.3032    0.0000 C   0  0  0  0  0  0  0  0  0  0  0  0
    3.4238    2.5496    0.0000 C   0  0  0  0  0  0  0  0  0  0  0  0
   -4.0875    2.7277    0.0000 C   0  0  0  0  0  0  0  0  0  0  0  0
    3.9418    0.9956    0.0000 C   0  0  0  0  0  0  0  0  0  0  0  0
   -4.1037    1.3193    0.0000 C   0  0  0  0  0  0  0  0  0  0  0  0
    4.2170    2.3877    0.0000 C   0  0  0  0  0  0  0  0  0  0  0  0
   -4.4760    1.9992    0.0000 C   0  0  0  0  0  0  0  0  0  0  0  0
    4.4760    1.5783    0.0000 C   0  0  0  0  0  0  0  0  0  0  0  0
  1 11  1  0  0  0  0
  1 14  1  0  0  0  0
  2  5  1  0  0  0  0
  2  7  1  0  0  0  0
  2  8  1  0  0  0  0
  3 26  3  0  0  0  0
  4 28  3  0  0  0  0
  5  6  1  0  0  0  0
  5 13  2  0  0  0  0
  6 11  2  0  0  0  0
  6 12  1  0  0  0  0
  7 10  2  0  0  0  0
  7 16  1  0  0  0  0
  8  9  2  0  0  0  0
  8 17  1  0  0  0  0
  9 10  1  0  0  0  0
  9 19  1  0  0  0  0
 10 20  1  0  0  0  0
 11 15  1  0  0  0  0
 12 14  2  0  0  0  0
 12 23  1  0  0  0  0
 13 18  1  0  0  0  0
 13 26  1  0  0  0  0
 14 27  1  0  0  0  0
 15 18  2  0  0  0  0
 15 28  1  0  0  0  0
 16 22  2  0  0  0  0
 17 21  2  0  0  0  0
 19 24  2  0  0  0  0
 20 25  2  0  0  0  0
 21 24  1  0  0  0  0
 21 29  1  0  0  0  0
 22 25  1  0  0  0  0
 22 30  1  0  0  0  0
 23 31  2  0  0  0  0
 27 32  2  0  0  0  0
 29 33  2  0  0  0  0
 29 35  1  0  0  0  0
 30 34  2  0  0  0  0
 30 36  1  0  0  0  0
 31 32  1  0  0  0  0
 33 37  1  0  0  0  0
 34 38  1  0  0  0  0
 35 39  2  0  0  0  0
 36 40  2  0  0  0  0
 37 41  2  0  0  0  0
 38 42  2  0  0  0  0
 39 41  1  0  0  0  0
 40 42  1  0  0  0  0
M  END
> <PUBCHEM_COMPOUND_ID_TYPE>
0

> <PUBCHEM_TOTAL_CHARGE>
0

> <PUBCHEM_SUBSTANCE_ID>
310949142

> <PUBCHEM_SUBSTANCE_VERSION>
1

> <PUBCHEM_EXT_DATASOURCE_NAME>
4488

> <PUBCHEM_EXT_DATASOURCE_REGID>
SCHEMBL16127332

> <PUBCHEM_SUBSTANCE_COMMENT>
InChI=1S/C38H21N3O/c39-22-28-19-29(23-40)38-36(32-13-7-8-14-35(32)42-38)37(28)41-33-20-26(24-9-3-1-4-10-24)15-17-30(33)31-18-16-27(21-34(31)41)25-11-5-2-6-12-25/h1-21H
InChIKey=WLFFEHRSVGUUBO-UHFFFAOYSA-N

> <PUBCHEM_SUBSTANCE_SYNONYM>
SCHEMBL16127332

> <PUBCHEM_XREF_EXT_ID>
SCHEMBL16127332

> <PUBCHEM_EXT_DATASOURCE_URL>
https://www.surechembl.org/

> <PUBCHEM_EXT_SUBSTANCE_URL>
https://www.surechembl.org/chemical/SCHEMBL16127332

> <PUBCHEM_CID_ASSOCIATIONS>
117614638  1

> <PUBCHEM_COORDINATE_TYPE>
1
3

$$$$
