310940233
  -OEChem-07211613022D

 25 28  0     1  0  0  0  0  0999 V2000
    3.1701   -1.0807    0.0000 F   0  0  0  0  0  0  0  0  0  0  0  0
    2.8003    0.2996    0.0000 F   0  0  0  0  0  0  0  0  0  0  0  0
    3.3836   -0.2838    0.0000 F   0  0  0  0  0  0  0  0  0  0  0  0
    2.2024   -1.4253    0.0000 O   0  0  0  0  0  0  0  0  0  0  0  0
   -1.9547    1.1306    0.0000 N   0  0  0  0  0  0  0  0  0  0  0  0
   -1.1701    1.3855    0.0000 N   0  0  0  0  0  0  0  0  0  0  0  0
    1.3774    1.4326    0.0000 N   0  0  0  0  0  0  0  0  0  0  0  0
   -1.1701    0.0507    0.0000 C   0  0  0  0  0  0  0  0  0  0  0  0
   -0.6851    0.7181    0.0000 C   0  0  0  0  0  0  0  0  0  0  0  0
   -1.9547    0.3056    0.0000 C   0  0  0  0  0  0  0  0  0  0  0  0
    0.1399    0.7181    0.0000 C   0  0  0  0  0  0  0  0  0  0  0  0
    1.7899   -0.7108    0.0000 C   0  0  3  0  0  0  0  0  0  0  0  0
   -0.9565   -0.7462    0.0000 C   0  0  0  0  0  0  0  0  0  0  0  0
    1.3774    0.0036    0.0000 C   0  0  0  0  0  0  0  0  0  0  0  0
    2.5867   -0.4973    0.0000 C   0  0  0  0  0  0  0  0  0  0  0  0
    0.5524    0.0036    0.0000 C   0  0  0  0  0  0  0  0  0  0  0  0
   -1.1701   -1.5431    0.0000 C   0  0  0  0  0  0  0  0  0  0  0  0
   -0.3732   -1.3296    0.0000 C   0  0  0  0  0  0  0  0  0  0  0  0
    0.5524    1.4326    0.0000 C   0  0  0  0  0  0  0  0  0  0  0  0
   -2.6692   -0.1069    0.0000 C   0  0  0  0  0  0  0  0  0  0  0  0
    1.7899    0.7181    0.0000 C   0  0  0  0  0  0  0  0  0  0  0  0
   -2.6692    1.5431    0.0000 C   0  0  0  0  0  0  0  0  0  0  0  0
    1.3774   -1.4253    0.0000 C   0  0  0  0  0  0  0  0  0  0  0  0
   -3.3836    0.3056    0.0000 C   0  0  0  0  0  0  0  0  0  0  0  0
   -3.3836    1.1306    0.0000 C   0  0  0  0  0  0  0  0  0  0  0  0
  1 15  1  0  0  0  0
  2 15  1  0  0  0  0
  3 15  1  0  0  0  0
 12  4  1  6  0  0  0
  5  6  1  0  0  0  0
  5 10  1  0  0  0  0
  5 22  1  0  0  0  0
  6  9  2  0  0  0  0
  7 19  2  0  0  0  0
  7 21  1  0  0  0  0
  8  9  1  0  0  0  0
  8 10  2  0  0  0  0
  8 13  1  0  0  0  0
  9 11  1  0  0  0  0
 10 20  1  0  0  0  0
 11 16  2  0  0  0  0
 11 19  1  0  0  0  0
 12 14  1  0  0  0  0
 12 15  1  0  0  0  0
 12 23  1  1  0  0  0
 13 17  1  0  0  0  0
 13 18  1  0  0  0  0
 14 16  1  0  0  0  0
 14 21  2  0  0  0  0
 17 18  1  0  0  0  0
 20 24  2  0  0  0  0
 22 25  2  0  0  0  0
 24 25  1  0  0  0  0
M  END
> <PUBCHEM_COMPOUND_ID_TYPE>
0

> <PUBCHEM_TOTAL_CHARGE>
0

> <PUBCHEM_SUBSTANCE_ID>
310940233

> <PUBCHEM_SUBSTANCE_VERSION>
1

> <PUBCHEM_EXT_DATASOURCE_NAME>
4488

> <PUBCHEM_EXT_DATASOURCE_REGID>
SCHEMBL16118167

> <PUBCHEM_SUBSTANCE_COMMENT>
InChI=1S/C18H16F3N3O/c1-17(25,18(19,20)21)13-8-12(9-22-10-13)16-15(11-5-6-11)14-4-2-3-7-24(14)23-16/h2-4,7-11,25H,5-6H2,1H3/t17-/m1/s1
InChIKey=KLVXSUXNDAWUSK-QGZVFWFLSA-N

> <PUBCHEM_SUBSTANCE_SYNONYM>
SCHEMBL16118167

> <PUBCHEM_XREF_EXT_ID>
SCHEMBL16118167

> <PUBCHEM_EXT_DATASOURCE_URL>
https://www.surechembl.org/

> <PUBCHEM_EXT_SUBSTANCE_URL>
https://www.surechembl.org/chemical/SCHEMBL16118167

> <PUBCHEM_CID_ASSOCIATIONS>
117607326  1

> <PUBCHEM_COORDINATE_TYPE>
1
3

> <PUBCHEM_BONDANNOTATIONS>
12  23  5
12  4  6

$$$$
