310948943
  -OEChem-07211613022D

 23 24  0     0  0  0  0  0  0999 V2000
    2.1669    1.3189    0.0000 Cl  0  0  0  0  0  0  0  0  0  0  0  0
   -0.7149    1.3189    0.0000 F   0  0  0  0  0  0  0  0  0  0  0  0
   -0.0055   -1.5849    0.0000 F   0  0  0  0  0  0  0  0  0  0  0  0
    2.8762    0.0776    0.0000 O   0  0  0  0  0  0  0  0  0  0  0  0
    2.1557   -1.1638    0.0000 O   0  0  0  0  0  0  0  0  0  0  0  0
    0.7260   -0.3325    0.0000 N   0  0  0  0  0  0  0  0  0  0  0  0
    0.7260    2.1502    0.0000 N   0  0  0  0  0  0  0  0  0  0  0  0
   -0.0055    0.0776    0.0000 C   0  0  0  0  0  0  0  0  0  0  0  0
   -0.7149   -0.3325    0.0000 C   0  0  0  0  0  0  0  0  0  0  0  0
    0.0055    0.9089    0.0000 C   0  0  0  0  0  0  0  0  0  0  0  0
    1.4354    0.0886    0.0000 C   0  0  0  0  0  0  0  0  0  0  0  0
    0.7149    1.3301    0.0000 C   0  0  0  0  0  0  0  0  0  0  0  0
    1.4464    0.9089    0.0000 C   0  0  0  0  0  0  0  0  0  0  0  0
   -0.7260   -1.1638    0.0000 C   0  0  0  0  0  0  0  0  0  0  0  0
   -1.4354   -1.5739    0.0000 C   0  0  0  0  0  0  0  0  0  0  0  0
    2.1669   -0.3103    0.0000 C   0  0  0  0  0  0  0  0  0  0  0  0
   -1.4464    0.0665    0.0000 C   0  0  0  0  0  0  0  0  0  0  0  0
   -2.1669   -1.1638    0.0000 C   0  0  0  0  0  0  0  0  0  0  0  0
   -2.1447   -0.3436    0.0000 C   0  0  0  0  0  0  0  0  0  0  0  0
   -2.8762   -1.5739    0.0000 C   0  0  0  0  0  0  0  0  0  0  0  0
   -1.4242   -2.1502    0.0000 C   0  0  0  0  0  0  0  0  0  0  0  0
    3.5966   -0.3325    0.0000 C   0  0  0  0  0  0  0  0  0  0  0  0
   -3.5966   -2.0061    0.0000 C   0  0  0  0  0  0  0  0  0  0  0  0
  1 13  1  0  0  0  0
  2 10  1  0  0  0  0
  3 14  1  0  0  0  0
  4 16  1  0  0  0  0
  4 22  1  0  0  0  0
  5 16  2  0  0  0  0
  6  8  2  0  0  0  0
  6 11  1  0  0  0  0
  7 12  1  0  0  0  0
  8  9  1  0  0  0  0
  8 10  1  0  0  0  0
  9 14  2  0  0  0  0
  9 17  1  0  0  0  0
 10 12  2  0  0  0  0
 11 13  2  0  0  0  0
 11 16  1  0  0  0  0
 12 13  1  0  0  0  0
 14 15  1  0  0  0  0
 15 18  2  0  0  0  0
 15 21  1  0  0  0  0
 17 19  2  0  0  0  0
 18 19  1  0  0  0  0
 18 20  1  0  0  0  0
 20 23  3  0  0  0  0
M  END
> <PUBCHEM_COMPOUND_ID_TYPE>
0

> <PUBCHEM_TOTAL_CHARGE>
0

> <PUBCHEM_SUBSTANCE_ID>
310948943

> <PUBCHEM_SUBSTANCE_VERSION>
1

> <PUBCHEM_EXT_DATASOURCE_NAME>
4488

> <PUBCHEM_EXT_DATASOURCE_REGID>
SCHEMBL16127131

> <PUBCHEM_SUBSTANCE_COMMENT>
InChI=1S/C16H11ClF2N2O2/c1-4-8-5-6-9(11(18)7(8)2)14-12(19)13(20)10(17)15(21-14)16(22)23-3/h1,5-6H,2-3H3,(H2,20,21)
InChIKey=AMSKWDSGHYKLOV-UHFFFAOYSA-N

> <PUBCHEM_SUBSTANCE_SYNONYM>
SCHEMBL16127131

> <PUBCHEM_XREF_EXT_ID>
SCHEMBL16127131

> <PUBCHEM_EXT_DATASOURCE_URL>
https://www.surechembl.org/

> <PUBCHEM_EXT_SUBSTANCE_URL>
https://www.surechembl.org/chemical/SCHEMBL16127131

> <PUBCHEM_CID_ASSOCIATIONS>
117614453  1

> <PUBCHEM_COORDINATE_TYPE>
1
3

$$$$
