310941032
  -OEChem-07211613022D

 40 43  0     1  0  0  0  0  0999 V2000
    5.0884   -1.1578    0.0000 O   0  0  0  0  0  0  0  0  0  0  0  0
    3.9449    0.8005    0.0000 O   0  0  0  0  0  0  0  0  0  0  0  0
    1.7867   -1.0720    0.0000 O   0  0  0  0  0  0  0  0  0  0  0  0
   -0.3716    0.8005    0.0000 O   0  0  0  0  0  0  0  0  0  0  0  0
    3.9449    2.4585    0.0000 O   0  0  0  0  0  0  0  0  0  0  0  0
   -2.5299   -1.2721    0.0000 O   0  0  0  0  0  0  0  0  0  0  0  0
   -5.4029   -1.2721    0.0000 O   0  0  0  0  0  0  0  0  0  0  0  0
    2.5156   -0.0429    0.0000 N   0  0  0  0  0  0  0  0  0  0  0  0
    0.3573   -0.4574    0.0000 N   0  0  0  0  0  0  0  0  0  0  0  0
   -1.8010   -0.0429    0.0000 N   0  0  0  0  0  0  0  0  0  0  0  0
   -3.9593   -0.4574    0.0000 N   0  0  0  0  0  0  0  0  0  0  0  0
    4.6739   -0.4431    0.0000 C   0  0  3  0  0  0  0  0  0  0  0  0
    3.9021   -0.0143    0.0000 C   0  0  0  0  0  0  0  0  0  0  0  0
    4.2737   -1.1435    0.0000 C   0  0  0  0  0  0  0  0  0  0  0  0
    3.2446   -0.4145    0.0000 C   0  0  3  0  0  0  0  0  0  0  0  0
    5.4029   -0.0143    0.0000 C   0  0  0  0  0  0  0  0  0  0  0  0
    3.2303   -1.2435    0.0000 C   0  0  0  0  0  0  0  0  0  0  0  0
    1.8010   -0.4002    0.0000 C   0  0  0  0  0  0  0  0  0  0  0  0
    2.5156   -1.6723    0.0000 C   0  0  0  0  0  0  0  0  0  0  0  0
    1.0577    0.0000    0.0000 C   0  0  3  0  0  0  0  0  0  0  0  0
    1.0863    0.8290    0.0000 C   0  0  0  0  0  0  0  0  0  0  0  0
    1.7152   -1.4723    0.0000 C   0  0  0  0  0  0  0  0  0  0  0  0
    2.3013   -2.4585    0.0000 C   0  0  0  0  0  0  0  0  0  0  0  0
    1.8010    1.2435    0.0000 C   0  0  0  0  0  0  0  0  0  0  0  0
   -0.3716   -0.0286    0.0000 C   0  0  0  0  0  0  0  0  0  0  0  0
    1.5151   -2.2583    0.0000 C   0  0  0  0  0  0  0  0  0  0  0  0
   -1.0720   -0.4145    0.0000 C   0  0  3  0  0  0  0  0  0  0  0  0
    2.5299    0.8290    0.0000 C   0  0  0  0  0  0  0  0  0  0  0  0
    1.8153    2.0726    0.0000 C   0  0  0  0  0  0  0  0  0  0  0  0
    3.2446    2.0726    0.0000 C   0  0  0  0  0  0  0  0  0  0  0  0
    3.2446    1.2435    0.0000 C   0  0  0  0  0  0  0  0  0  0  0  0
    2.5156    2.4585    0.0000 C   0  0  0  0  0  0  0  0  0  0  0  0
   -2.5156   -0.4002    0.0000 C   0  0  0  0  0  0  0  0  0  0  0  0
   -3.2732   -0.0143    0.0000 C   0  0  0  0  0  0  0  0  0  0  0  0
   -1.0863   -1.2293    0.0000 C   0  0  0  0  0  0  0  0  0  0  0  0
   -3.9593   -1.2435    0.0000 C   0  0  0  0  0  0  0  0  0  0  0  0
   -4.7169   -0.0143    0.0000 C   0  0  0  0  0  0  0  0  0  0  0  0
   -4.6597   -1.6580    0.0000 C   0  0  0  0  0  0  0  0  0  0  0  0
   -5.3886   -0.4145    0.0000 C   0  0  0  0  0  0  0  0  0  0  0  0
    4.6882    2.0440    0.0000 C   0  0  0  0  0  0  0  0  0  0  0  0
  1 12  1  0  0  0  0
  1 14  1  0  0  0  0
  2 13  2  0  0  0  0
  3 18  2  0  0  0  0
  4 25  2  0  0  0  0
  5 30  1  0  0  0  0
  5 40  1  0  0  0  0
  6 33  2  0  0  0  0
  7 38  1  0  0  0  0
  7 39  1  0  0  0  0
 15  8  1  6  0  0  0
  8 18  1  0  0  0  0
 20  9  1  1  0  0  0
  9 25  1  0  0  0  0
 10 27  1  0  0  0  0
 10 33  1  0  0  0  0
 11 34  1  0  0  0  0
 11 36  1  0  0  0  0
 11 37  1  0  0  0  0
 12 13  1  6  0  0  0
 12 14  1  0  0  0  0
 12 16  1  1  0  0  0
 13 15  1  0  0  0  0
 15 17  1  0  0  0  0
 17 19  1  0  0  0  0
 18 20  1  0  0  0  0
 19 22  1  0  0  0  0
 19 23  1  0  0  0  0
 20 21  1  0  0  0  0
 21 24  1  0  0  0  0
 22 26  1  0  0  0  0
 23 26  1  0  0  0  0
 24 28  2  0  0  0  0
 24 29  1  0  0  0  0
 25 27  1  0  0  0  0
 27 35  1  6  0  0  0
 28 31  1  0  0  0  0
 29 32  2  0  0  0  0
 30 31  2  0  0  0  0
 30 32  1  0  0  0  0
 33 34  1  0  0  0  0
 36 38  1  0  0  0  0
 37 39  1  0  0  0  0
M  END
> <PUBCHEM_COMPOUND_ID_TYPE>
0

> <PUBCHEM_TOTAL_CHARGE>
0

> <PUBCHEM_SUBSTANCE_ID>
310941032

> <PUBCHEM_SUBSTANCE_VERSION>
1

> <PUBCHEM_EXT_DATASOURCE_NAME>
4488

> <PUBCHEM_EXT_DATASOURCE_REGID>
SCHEMBL16118991

> <PUBCHEM_SUBSTANCE_COMMENT>
InChI=1S/C29H42N4O7/c1-19(30-25(34)17-33-11-13-39-14-12-33)27(36)32-24(16-21-7-9-22(38-3)10-8-21)28(37)31-23(15-20-5-4-6-20)26(35)29(2)18-40-29/h7-10,19-20,23-24H,4-6,11-18H2,1-3H3,(H,30,34)(H,31,37)(H,32,36)/t19-,23-,24-,29+/m0/s1
InChIKey=WFTXOQIRARNKPQ-BWHDGOAMSA-N

> <PUBCHEM_SUBSTANCE_SYNONYM>
SCHEMBL16118991

> <PUBCHEM_XREF_EXT_ID>
SCHEMBL16118991

> <PUBCHEM_EXT_DATASOURCE_URL>
https://www.surechembl.org/

> <PUBCHEM_EXT_SUBSTANCE_URL>
https://www.surechembl.org/chemical/SCHEMBL16118991

> <PUBCHEM_CID_ASSOCIATIONS>
117607926  1

> <PUBCHEM_COORDINATE_TYPE>
1
3

> <PUBCHEM_BONDANNOTATIONS>
12  13  6
12  16  5
27  35  6
15  8  6
20  9  5

$$$$
