310948528
  -OEChem-07211613022D

 36 41  0     1  0  0  0  0  0999 V2000
   -0.4231   -2.2821    0.0000 S   0  0  0  0  0  0  0  0  0  0  0  0
   -0.2706   -3.0590    0.0000 O   0  0  0  0  0  0  0  0  0  0  0  0
   -1.1167   -2.6290    0.0000 O   0  0  0  0  0  0  0  0  0  0  0  0
   -2.6151    2.2821    0.0000 O   0  0  0  0  0  0  0  0  0  0  0  0
    2.1156   -3.7110    0.0000 O   0  0  0  0  0  0  0  0  0  0  0  0
    0.3954   -2.1156    0.0000 N   0  0  3  0  0  0  0  0  0  0  0  0
    0.1734    2.1017    0.0000 N   0  0  0  0  0  0  0  0  0  0  0  0
   -0.1734    1.3526    0.0000 N   0  0  0  0  0  0  0  0  0  0  0  0
   -1.5746    0.8393    0.0000 N   0  0  0  0  0  0  0  0  0  0  0  0
   -1.8798    3.5307    0.0000 N   0  0  0  0  0  0  0  0  0  0  0  0
    1.0197    0.1179    0.0000 N   0  0  0  0  0  0  0  0  0  0  0  0
   -0.8393   -1.5468    0.0000 C   0  0  0  0  0  0  0  0  0  0  0  0
   -0.2706   -0.9364    0.0000 C   0  0  0  0  0  0  0  0  0  0  0  0
   -1.1584    2.2682    0.0000 C   0  0  0  0  0  0  0  0  0  0  0  0
   -0.4509    2.6844    0.0000 C   0  0  0  0  0  0  0  0  0  0  0  0
   -1.0058    1.4636    0.0000 C   0  0  0  0  0  0  0  0  0  0  0  0
    0.4925   -1.2971    0.0000 C   0  0  0  0  0  0  0  0  0  0  0  0
   -1.3248    0.0486    0.0000 C   0  0  0  0  0  0  0  0  0  0  0  0
    0.9780   -2.6428    0.0000 C   0  0  0  0  0  0  0  0  0  0  0  0
   -0.5202   -0.1456    0.0000 C   0  0  0  0  0  0  0  0  0  0  0  0
   -1.6440   -1.3526    0.0000 C   0  0  0  0  0  0  0  0  0  0  0  0
    0.9780    2.2821    0.0000 C   0  0  3  0  0  0  0  0  0  0  0  0
   -1.8936    2.7121    0.0000 C   0  0  0  0  0  0  0  0  0  0  0  0
   -1.8659   -0.5480    0.0000 C   0  0  0  0  0  0  0  0  0  0  0  0
   -0.4370    3.5029    0.0000 C   0  0  0  0  0  0  0  0  0  0  0  0
    1.5329    1.6579    0.0000 C   0  0  3  0  0  0  0  0  0  0  0  0
    0.7977   -3.4058    0.0000 C   0  0  0  0  0  0  0  0  0  0  0  0
    1.7133   -2.4070    0.0000 C   0  0  0  0  0  0  0  0  0  0  0  0
   -1.1723    3.9330    0.0000 C   0  0  0  0  0  0  0  0  0  0  0  0
    1.2555    3.0590    0.0000 C   0  0  0  0  0  0  0  0  0  0  0  0
    2.3376    1.8243    0.0000 C   0  0  0  0  0  0  0  0  0  0  0  0
    1.3942   -3.9330    0.0000 C   0  0  0  0  0  0  0  0  0  0  0  0
    2.2821   -2.9341    0.0000 C   0  0  0  0  0  0  0  0  0  0  0  0
    1.2555    0.8809    0.0000 C   0  0  0  0  0  0  0  0  0  0  0  0
    2.0740    3.2116    0.0000 C   0  0  0  0  0  0  0  0  0  0  0  0
    2.6151    2.5457    0.0000 C   0  0  0  0  0  0  0  0  0  0  0  0
  1  2  2  0  0  0  0
  1  3  2  0  0  0  0
  1  6  1  0  0  0  0
  1 12  1  0  0  0  0
  4 23  2  0  0  0  0
  5 32  1  0  0  0  0
  5 33  1  0  0  0  0
  6 17  1  0  0  0  0
  6 19  1  0  0  0  0
  7  8  1  0  0  0  0
  7 15  1  0  0  0  0
 22  7  1  1  0  0  0
  8 16  2  0  0  0  0
  9 16  1  0  0  0  0
  9 18  1  0  0  0  0
 10 23  1  0  0  0  0
 10 29  1  0  0  0  0
 11 34  3  0  0  0  0
 12 13  1  0  0  0  0
 12 21  2  0  0  0  0
 13 17  1  0  0  0  0
 13 20  2  0  0  0  0
 14 15  2  0  0  0  0
 14 16  1  0  0  0  0
 14 23  1  0  0  0  0
 15 25  1  0  0  0  0
 18 20  1  0  0  0  0
 18 24  2  0  0  0  0
 19 27  1  0  0  0  0
 19 28  1  0  0  0  0
 21 24  1  0  0  0  0
 22 26  1  0  0  0  0
 22 30  1  0  0  0  0
 25 29  2  0  0  0  0
 26 31  1  0  0  0  0
 26 34  1  6  0  0  0
 27 32  1  0  0  0  0
 28 33  1  0  0  0  0
 30 35  1  0  0  0  0
 31 36  1  0  0  0  0
 35 36  1  0  0  0  0
M  END
> <PUBCHEM_COMPOUND_ID_TYPE>
0

> <PUBCHEM_TOTAL_CHARGE>
0

> <PUBCHEM_SUBSTANCE_ID>
310948528

> <PUBCHEM_SUBSTANCE_VERSION>
1

> <PUBCHEM_EXT_DATASOURCE_NAME>
4488

> <PUBCHEM_EXT_DATASOURCE_REGID>
SCHEMBL16126710

> <PUBCHEM_SUBSTANCE_COMMENT>
InChI=1S/C25H28N6O4S/c26-14-16-3-1-2-4-20(16)31-21-7-10-27-25(32)23(21)24(29-31)28-18-5-6-22-17(13-18)15-30(36(22,33)34)19-8-11-35-12-9-19/h5-7,10,13,16,19-20H,1-4,8-9,11-12,15H2,(H,27,32)(H,28,29)/t16-,20+/m1/s1
InChIKey=UDXNFKIDWAMJIE-UZLBHIALSA-N

> <PUBCHEM_SUBSTANCE_SYNONYM>
SCHEMBL16126710

> <PUBCHEM_XREF_EXT_ID>
SCHEMBL16126710

> <PUBCHEM_EXT_DATASOURCE_URL>
https://www.surechembl.org/

> <PUBCHEM_EXT_SUBSTANCE_URL>
https://www.surechembl.org/chemical/SCHEMBL16126710

> <PUBCHEM_CID_ASSOCIATIONS>
117614085  1

> <PUBCHEM_COORDINATE_TYPE>
1
3

> <PUBCHEM_BONDANNOTATIONS>
26  34  6
22  7  5

$$$$
