310944291
  -OEChem-07211613022D

 24 25  0     0  0  0  0  0  0999 V2000
   -3.7466   -0.6430    0.0000 Cl  0  0  0  0  0  0  0  0  0  0  0  0
   -0.7296   -0.6430    0.0000 O   0  0  0  0  0  0  0  0  0  0  0  0
    0.6925    1.8300    0.0000 O   0  0  0  0  0  0  0  0  0  0  0  0
    4.2783   -0.2226    0.0000 O   0  0  0  0  0  0  0  0  0  0  0  0
    1.4344    0.6059    0.0000 N   0  0  0  0  0  0  0  0  0  0  0  0
    2.8686   -0.2226    0.0000 N   0  0  0  0  0  0  0  0  0  0  0  0
   -0.7172    1.0139    0.0000 N   0  0  0  0  0  0  0  0  0  0  0  0
   -4.2783    1.4220    0.0000 N   0  0  0  0  0  0  0  0  0  0  0  0
   -1.4344    0.6059    0.0000 C   0  0  0  0  0  0  0  0  0  0  0  0
   -1.4468   -0.2226    0.0000 C   0  0  0  0  0  0  0  0  0  0  0  0
   -2.8562    0.6059    0.0000 C   0  0  0  0  0  0  0  0  0  0  0  0
   -2.8562   -0.2226    0.0000 C   0  0  0  0  0  0  0  0  0  0  0  0
    0.7048    1.0015    0.0000 C   0  0  0  0  0  0  0  0  0  0  0  0
   -2.1514    1.0015    0.0000 C   0  0  0  0  0  0  0  0  0  0  0  0
   -2.1391   -0.6306    0.0000 C   0  0  0  0  0  0  0  0  0  0  0  0
    2.1514    1.0139    0.0000 C   0  0  0  0  0  0  0  0  0  0  0  0
    1.4344   -0.2226    0.0000 C   0  0  0  0  0  0  0  0  0  0  0  0
    0.0000    0.6059    0.0000 C   0  0  0  0  0  0  0  0  0  0  0  0
    2.8562    0.6059    0.0000 C   0  0  0  0  0  0  0  0  0  0  0  0
    2.1514   -0.6306    0.0000 C   0  0  0  0  0  0  0  0  0  0  0  0
    3.5611   -0.6430    0.0000 C   0  0  0  0  0  0  0  0  0  0  0  0
   -3.5734    1.0139    0.0000 C   0  0  0  0  0  0  0  0  0  0  0  0
    3.5734   -1.4591    0.0000 C   0  0  0  0  0  0  0  0  0  0  0  0
    2.8315   -1.8300    0.0000 C   0  0  0  0  0  0  0  0  0  0  0  0
  1 12  1  0  0  0  0
  2 10  1  0  0  0  0
  3 13  2  0  0  0  0
  4 21  2  0  0  0  0
  5 13  1  0  0  0  0
  5 16  1  0  0  0  0
  5 17  1  0  0  0  0
  6 19  1  0  0  0  0
  6 20  1  0  0  0  0
  6 21  1  0  0  0  0
  7  9  1  0  0  0  0
  7 18  1  0  0  0  0
  8 22  3  0  0  0  0
  9 10  1  0  0  0  0
  9 14  2  0  0  0  0
 10 15  2  0  0  0  0
 11 12  2  0  0  0  0
 11 14  1  0  0  0  0
 11 22  1  0  0  0  0
 12 15  1  0  0  0  0
 13 18  1  0  0  0  0
 16 19  1  0  0  0  0
 17 20  1  0  0  0  0
 21 23  1  0  0  0  0
 23 24  2  0  0  0  0
M  END
> <PUBCHEM_COMPOUND_ID_TYPE>
0

> <PUBCHEM_TOTAL_CHARGE>
0

> <PUBCHEM_SUBSTANCE_ID>
310944291

> <PUBCHEM_SUBSTANCE_VERSION>
1

> <PUBCHEM_EXT_DATASOURCE_NAME>
4488

> <PUBCHEM_EXT_DATASOURCE_REGID>
SCHEMBL16122366

> <PUBCHEM_SUBSTANCE_COMMENT>
InChI=1S/C16H17ClN4O3/c1-2-15(23)20-3-5-21(6-4-20)16(24)10-19-13-7-11(9-18)12(17)8-14(13)22/h2,7-8,19,22H,1,3-6,10H2
InChIKey=SHWPKAACSNFLKC-UHFFFAOYSA-N

> <PUBCHEM_SUBSTANCE_SYNONYM>
SCHEMBL16122366

> <PUBCHEM_XREF_EXT_ID>
SCHEMBL16122366

> <PUBCHEM_EXT_DATASOURCE_URL>
https://www.surechembl.org/

> <PUBCHEM_EXT_SUBSTANCE_URL>
https://www.surechembl.org/chemical/SCHEMBL16122366

> <PUBCHEM_CID_ASSOCIATIONS>
117610557  1

> <PUBCHEM_COORDINATE_TYPE>
1
3

$$$$
