310941697
  -OEChem-07211613022D

 38 42  0     0  0  0  0  0  0999 V2000
   -2.1406    1.5102    0.0000 S   0  0  0  0  0  0  0  0  0  0  0  0
   -1.4478   -2.4385    0.0000 F   0  0  0  0  0  0  0  0  0  0  0  0
   -0.7274   -2.8541    0.0000 F   0  0  0  0  0  0  0  0  0  0  0  0
   -1.4478   -1.6072    0.0000 F   0  0  0  0  0  0  0  0  0  0  0  0
    2.1683    0.4711    0.0000 O   0  0  0  0  0  0  0  0  0  0  0  0
   -0.0208   -1.6072    0.0000 O   0  0  0  0  0  0  0  0  0  0  0  0
    5.0640    0.4711    0.0000 O   0  0  0  0  0  0  0  0  0  0  0  0
    0.7136    2.1337    0.0000 O   0  0  0  0  0  0  0  0  0  0  0  0
    3.6231   -0.3602    0.0000 N   0  0  0  0  0  0  0  0  0  0  0  0
    1.4340   -0.7759    0.0000 N   0  0  0  0  0  0  0  0  0  0  0  0
   -0.7413    2.1337    0.0000 N   0  0  0  0  0  0  0  0  0  0  0  0
   -2.8195    2.6740    0.0000 N   0  0  0  0  0  0  0  0  0  0  0  0
   -2.0020    2.8541    0.0000 N   0  0  0  0  0  0  0  0  0  0  0  0
    2.8888   -0.7620    0.0000 C   0  0  0  0  0  0  0  0  0  0  0  0
    2.1545   -0.3464    0.0000 C   0  0  0  0  0  0  0  0  0  0  0  0
    2.5008   -1.4825    0.0000 C   0  0  0  0  0  0  0  0  0  0  0  0
    3.2906   -1.4825    0.0000 C   0  0  0  0  0  0  0  0  0  0  0  0
    0.6858   -0.3325    0.0000 C   0  0  0  0  0  0  0  0  0  0  0  0
    4.3712   -0.7482    0.0000 C   0  0  0  0  0  0  0  0  0  0  0  0
    3.6370    0.4849    0.0000 C   0  0  0  0  0  0  0  0  0  0  0  0
   -0.0069   -0.7343    0.0000 C   0  0  0  0  0  0  0  0  0  0  0  0
    0.6997    0.4849    0.0000 C   0  0  0  0  0  0  0  0  0  0  0  0
   -0.0208    0.9005    0.0000 C   0  0  0  0  0  0  0  0  0  0  0  0
    5.0640   -0.3464    0.0000 C   0  0  0  0  0  0  0  0  0  0  0  0
    4.3297    0.8866    0.0000 C   0  0  0  0  0  0  0  0  0  0  0  0
   -0.7274   -0.3464    0.0000 C   0  0  0  0  0  0  0  0  0  0  0  0
   -0.0346    1.7319    0.0000 C   0  0  0  0  0  0  0  0  0  0  0  0
   -0.7274    0.4849    0.0000 C   0  0  0  0  0  0  0  0  0  0  0  0
   -2.9303    1.8843    0.0000 C   0  0  0  0  0  0  0  0  0  0  0  0
   -1.5864    2.1614    0.0000 C   0  0  0  0  0  0  0  0  0  0  0  0
   -0.7552   -1.9952    0.0000 C   0  0  0  0  0  0  0  0  0  0  0  0
   -3.6370    1.4548    0.0000 C   0  0  0  0  0  0  0  0  0  0  0  0
   -4.3573    1.8705    0.0000 C   0  0  0  0  0  0  0  0  0  0  0  0
   -3.6370    0.6235    0.0000 C   0  0  0  0  0  0  0  0  0  0  0  0
   -5.0640    1.4548    0.0000 C   0  0  0  0  0  0  0  0  0  0  0  0
   -4.3297    0.2217    0.0000 C   0  0  0  0  0  0  0  0  0  0  0  0
   -5.0640    0.6235    0.0000 C   0  0  0  0  0  0  0  0  0  0  0  0
   -4.3435    2.6740    0.0000 C   0  0  0  0  0  0  0  0  0  0  0  0
  1 29  1  0  0  0  0
  1 30  1  0  0  0  0
  2 31  1  0  0  0  0
  3 31  1  0  0  0  0
  4 31  1  0  0  0  0
  5 15  2  0  0  0  0
  6 21  1  0  0  0  0
  6 31  1  0  0  0  0
  7 24  1  0  0  0  0
  7 25  1  0  0  0  0
  8 27  2  0  0  0  0
  9 14  1  0  0  0  0
  9 19  1  0  0  0  0
  9 20  1  0  0  0  0
 10 15  1  0  0  0  0
 10 18  1  0  0  0  0
 11 27  1  0  0  0  0
 11 30  1  0  0  0  0
 12 13  1  0  0  0  0
 12 29  2  0  0  0  0
 13 30  2  0  0  0  0
 14 15  1  0  0  0  0
 14 16  1  0  0  0  0
 14 17  1  0  0  0  0
 16 17  1  0  0  0  0
 18 21  1  0  0  0  0
 18 22  2  0  0  0  0
 19 24  1  0  0  0  0
 20 25  1  0  0  0  0
 21 26  2  0  0  0  0
 22 23  1  0  0  0  0
 23 27  1  0  0  0  0
 23 28  2  0  0  0  0
 26 28  1  0  0  0  0
 29 32  1  0  0  0  0
 32 33  1  0  0  0  0
 32 34  2  0  0  0  0
 33 35  2  0  0  0  0
 33 38  1  0  0  0  0
 34 36  1  0  0  0  0
 35 37  1  0  0  0  0
 36 37  2  0  0  0  0
M  END
> <PUBCHEM_COMPOUND_ID_TYPE>
0

> <PUBCHEM_TOTAL_CHARGE>
0

> <PUBCHEM_SUBSTANCE_ID>
310941697

> <PUBCHEM_SUBSTANCE_VERSION>
1

> <PUBCHEM_EXT_DATASOURCE_NAME>
4488

> <PUBCHEM_EXT_DATASOURCE_REGID>
SCHEMBL16119728

> <PUBCHEM_SUBSTANCE_COMMENT>
InChI=1S/C25H24F3N5O4S/c1-15-4-2-3-5-17(15)21-31-32-23(38-21)30-20(34)16-6-7-19(37-25(26,27)28)18(14-16)29-22(35)24(8-9-24)33-10-12-36-13-11-33/h2-7,14H,8-13H2,1H3,(H,29,35)(H,30,32,34)
InChIKey=LDKPLJLMCJBGFA-UHFFFAOYSA-N

> <PUBCHEM_SUBSTANCE_SYNONYM>
SCHEMBL16119728

> <PUBCHEM_XREF_EXT_ID>
SCHEMBL16119728

> <PUBCHEM_EXT_DATASOURCE_URL>
https://www.surechembl.org/

> <PUBCHEM_EXT_SUBSTANCE_URL>
https://www.surechembl.org/chemical/SCHEMBL16119728

> <PUBCHEM_CID_ASSOCIATIONS>
117608470  1

> <PUBCHEM_COORDINATE_TYPE>
1
3

$$$$
