310946306
  -OEChem-07211613022D

 31 33  0     0  0  0  0  0  0999 V2000
   -2.8578  -10.0437    0.0000 I   0  0  0  0  0  0  0  0  0  0  0  0
   -1.4289   -7.5688    0.0000 I   0  0  0  0  0  0  0  0  0  0  0  0
    4.2868   -8.3937    0.0000 S   0  0  0  0  0  0  0  0  0  0  0  0
   -2.8578   -8.3937    0.0000 O   0  0  0  0  0  0  0  0  0  0  0  0
    3.8742   -7.6793    0.0000 O   0  0  0  0  0  0  0  0  0  0  0  0
    4.6992   -9.1082    0.0000 O   0  0  0  0  0  0  0  0  0  0  0  0
    1.4289  -10.8687    0.0000 O   0  0  0  0  0  0  0  0  0  0  0  0
   -5.7157  -10.0437    0.0000 O   0  0  0  0  0  0  0  0  0  0  0  0
    3.5723   -8.8062    0.0000 N   0  0  0  0  0  0  0  0  0  0  0  0
    2.1434   -9.6312    0.0000 N   0  0  0  0  0  0  0  0  0  0  0  0
   -2.1434   -8.8062    0.0000 C   0  0  0  0  0  0  0  0  0  0  0  0
   -2.1434   -9.6312    0.0000 C   0  0  0  0  0  0  0  0  0  0  0  0
   -1.4289   -8.3937    0.0000 C   0  0  0  0  0  0  0  0  0  0  0  0
   -0.7145   -9.6312    0.0000 C   0  0  0  0  0  0  0  0  0  0  0  0
   -1.4289  -10.0437    0.0000 C   0  0  0  0  0  0  0  0  0  0  0  0
   -0.7145   -8.8062    0.0000 C   0  0  0  0  0  0  0  0  0  0  0  0
    1.4289  -10.0437    0.0000 C   0  0  0  0  0  0  0  0  0  0  0  0
    3.5723   -9.6312    0.0000 C   0  0  0  0  0  0  0  0  0  0  0  0
    2.8578   -8.3937    0.0000 C   0  0  0  0  0  0  0  0  0  0  0  0
    2.8578  -10.0437    0.0000 C   0  0  0  0  0  0  0  0  0  0  0  0
    2.1434   -8.8062    0.0000 C   0  0  0  0  0  0  0  0  0  0  0  0
   -3.5723   -8.8062    0.0000 C   0  0  0  0  0  0  0  0  0  0  0  0
    0.0000  -10.0437    0.0000 C   0  0  0  0  0  0  0  0  0  0  0  0
    0.7145   -9.6312    0.0000 C   0  0  0  0  0  0  0  0  0  0  0  0
    5.0012   -7.9812    0.0000 C   0  0  0  0  0  0  0  0  0  0  0  0
   -4.2868   -8.3937    0.0000 C   0  0  0  0  0  0  0  0  0  0  0  0
   -3.5723   -9.6312    0.0000 C   0  0  0  0  0  0  0  0  0  0  0  0
   -5.0012   -9.6312    0.0000 C   0  0  0  0  0  0  0  0  0  0  0  0
   -5.0012   -8.8062    0.0000 C   0  0  0  0  0  0  0  0  0  0  0  0
   -4.2868  -10.0437    0.0000 C   0  0  0  0  0  0  0  0  0  0  0  0
    5.7157   -8.3937    0.0000 C   0  0  0  0  0  0  0  0  0  0  0  0
  1 12  1  0  0  0  0
  2 13  1  0  0  0  0
  3  5  2  0  0  0  0
  3  6  2  0  0  0  0
  3  9  1  0  0  0  0
  3 25  1  0  0  0  0
  4 11  1  0  0  0  0
  4 22  1  0  0  0  0
  7 17  2  0  0  0  0
  8 28  1  0  0  0  0
  9 18  1  0  0  0  0
  9 19  1  0  0  0  0
 10 17  1  0  0  0  0
 10 20  1  0  0  0  0
 10 21  1  0  0  0  0
 11 12  2  0  0  0  0
 11 13  1  0  0  0  0
 12 15  1  0  0  0  0
 13 16  2  0  0  0  0
 14 15  2  0  0  0  0
 14 16  1  0  0  0  0
 14 23  1  0  0  0  0
 17 24  1  0  0  0  0
 18 20  1  0  0  0  0
 19 21  1  0  0  0  0
 22 26  2  0  0  0  0
 22 27  1  0  0  0  0
 23 24  1  0  0  0  0
 25 31  1  0  0  0  0
 26 29  1  0  0  0  0
 27 30  2  0  0  0  0
 28 29  2  0  0  0  0
 28 30  1  0  0  0  0
M  END
> <PUBCHEM_COMPOUND_ID_TYPE>
0

> <PUBCHEM_TOTAL_CHARGE>
0

> <PUBCHEM_SUBSTANCE_ID>
310946306

> <PUBCHEM_SUBSTANCE_VERSION>
1

> <PUBCHEM_EXT_DATASOURCE_NAME>
4488

> <PUBCHEM_EXT_DATASOURCE_REGID>
SCHEMBL16124425

> <PUBCHEM_SUBSTANCE_COMMENT>
InChI=1S/C21H24I2N2O5S/c1-2-31(28,29)25-11-9-24(10-12-25)20(27)8-3-15-13-18(22)21(19(23)14-15)30-17-6-4-16(26)5-7-17/h4-7,13-14,26H,2-3,8-12H2,1H3
InChIKey=NHNVEHZLVOAIAM-UHFFFAOYSA-N

> <PUBCHEM_SUBSTANCE_SYNONYM>
SCHEMBL16124425

> <PUBCHEM_XREF_EXT_ID>
SCHEMBL16124425

> <PUBCHEM_EXT_DATASOURCE_URL>
https://www.surechembl.org/

> <PUBCHEM_EXT_SUBSTANCE_URL>
https://www.surechembl.org/chemical/SCHEMBL16124425

> <PUBCHEM_CID_ASSOCIATIONS>
71487298  1

> <PUBCHEM_COORDINATE_TYPE>
1
3

$$$$
