310947271
  -OEChem-07211613022D

 44 48  0     1  0  0  0  0  0999 V2000
   -0.7392   -1.5991    0.0000 O   0  0  0  0  0  0  0  0  0  0  0  0
    6.3139   -2.4876    0.0000 O   0  0  0  0  0  0  0  0  0  0  0  0
    5.0764   -3.2021    0.0000 O   0  0  0  0  0  0  0  0  0  0  0  0
   -5.0260   -4.8991    0.0000 O   0  5  0  0  0  0  0  0  0  0  0  0
   -5.7405   -3.6616    0.0000 O   0  0  0  0  0  0  0  0  0  0  0  0
    2.1889   -3.9165    0.0000 N   0  0  0  0  0  0  0  0  0  0  0  0
    2.6738   -3.2491    0.0000 N   0  0  0  0  0  0  0  0  0  0  0  0
   -1.4536   -2.8366    0.0000 N   0  0  0  0  0  0  0  0  0  0  0  0
   -5.0260   -4.0741    0.0000 N   0  3  0  0  0  0  0  0  0  0  0  0
    1.4043   -3.6616    0.0000 C   0  0  0  0  0  0  0  0  0  0  0  0
    1.4043   -2.8366    0.0000 C   0  0  0  0  0  0  0  0  0  0  0  0
    2.1889   -2.5817    0.0000 C   0  0  0  0  0  0  0  0  0  0  0  0
    0.6898   -2.4241    0.0000 C   0  0  0  0  0  0  0  0  0  0  0  0
   -0.0247   -2.8366    0.0000 C   0  0  0  0  0  0  0  0  0  0  0  0
    0.6898   -4.0741    0.0000 C   0  0  0  0  0  0  0  0  0  0  0  0
    2.6014   -4.6310    0.0000 C   0  0  0  0  0  0  0  0  0  0  0  0
   -0.0247   -3.6616    0.0000 C   0  0  0  0  0  0  0  0  0  0  0  0
    3.4264   -4.6310    0.0000 C   0  0  0  0  0  0  0  0  0  0  0  0
   -0.7392   -2.4241    0.0000 C   0  0  0  0  0  0  0  0  0  0  0  0
    5.9014   -4.6310    0.0000 C   0  0  0  0  0  0  0  0  0  0  0  0
    5.0764   -4.6310    0.0000 C   0  0  0  0  0  0  0  0  0  0  0  0
    6.3139   -3.9165    0.0000 C   0  0  0  0  0  0  0  0  0  0  0  0
    2.6014   -1.8672    0.0000 C   0  0  0  0  0  0  0  0  0  0  0  0
    3.8389   -5.3455    0.0000 C   0  0  0  0  0  0  0  0  0  0  0  0
    3.8389   -3.9165    0.0000 C   0  0  0  0  0  0  0  0  0  0  0  0
    4.6639   -5.3455    0.0000 C   0  0  0  0  0  0  0  0  0  0  0  0
    4.6639   -3.9165    0.0000 C   0  0  0  0  0  0  0  0  0  0  0  0
    5.9014   -3.2021    0.0000 C   0  0  0  0  0  0  0  0  0  0  0  0
   -2.1681   -2.4241    0.0000 C   0  0  3  0  0  0  0  0  0  0  0  0
    6.3139   -5.3455    0.0000 C   0  0  0  0  0  0  0  0  0  0  0  0
    7.1389   -3.9165    0.0000 C   0  0  0  0  0  0  0  0  0  0  0  0
   -2.8826   -2.8366    0.0000 C   0  0  0  0  0  0  0  0  0  0  0  0
    7.1389   -5.3455    0.0000 C   0  0  0  0  0  0  0  0  0  0  0  0
    7.5514   -4.6310    0.0000 C   0  0  0  0  0  0  0  0  0  0  0  0
    5.9014   -1.7731    0.0000 C   0  0  0  0  0  0  0  0  0  0  0  0
   -3.5970   -2.4241    0.0000 C   0  0  0  0  0  0  0  0  0  0  0  0
   -2.8826   -3.6616    0.0000 C   0  0  0  0  0  0  0  0  0  0  0  0
   -4.3115   -3.6616    0.0000 C   0  0  0  0  0  0  0  0  0  0  0  0
   -4.3115   -2.8366    0.0000 C   0  0  0  0  0  0  0  0  0  0  0  0
   -3.5970   -4.0741    0.0000 C   0  0  0  0  0  0  0  0  0  0  0  0
   -2.1681   -1.5991    0.0000 C   0  0  0  0  0  0  0  0  0  0  0  0
    6.3139   -1.0587    0.0000 C   0  0  0  0  0  0  0  0  0  0  0  0
    5.0764   -1.7731    0.0000 C   0  0  0  0  0  0  0  0  0  0  0  0
    6.7264   -1.7731    0.0000 C   0  0  0  0  0  0  0  0  0  0  0  0
  1 19  2  0  0  0  0
  2 28  1  0  0  0  0
  2 35  1  0  0  0  0
  3 28  2  0  0  0  0
  4  9  1  0  0  0  0
  5  9  2  0  0  0  0
  6  7  1  0  0  0  0
  6 10  1  0  0  0  0
  6 16  1  0  0  0  0
  7 12  2  0  0  0  0
  8 19  1  0  0  0  0
  8 29  1  0  0  0  0
  9 38  1  0  0  0  0
 10 11  1  0  0  0  0
 10 15  2  0  0  0  0
 11 12  1  0  0  0  0
 11 13  2  0  0  0  0
 12 23  1  0  0  0  0
 13 14  1  0  0  0  0
 14 17  2  0  0  0  0
 14 19  1  0  0  0  0
 15 17  1  0  0  0  0
 16 18  1  0  0  0  0
 18 24  2  0  0  0  0
 18 25  1  0  0  0  0
 20 21  1  0  0  0  0
 20 22  1  0  0  0  0
 20 30  2  0  0  0  0
 21 26  2  0  0  0  0
 21 27  1  0  0  0  0
 22 28  1  0  0  0  0
 22 31  2  0  0  0  0
 24 26  1  0  0  0  0
 25 27  2  0  0  0  0
 29 32  1  0  0  0  0
 29 41  1  6  0  0  0
 30 33  1  0  0  0  0
 31 34  1  0  0  0  0
 32 36  2  0  0  0  0
 32 37  1  0  0  0  0
 33 34  2  0  0  0  0
 35 42  1  0  0  0  0
 35 43  1  0  0  0  0
 35 44  1  0  0  0  0
 36 39  1  0  0  0  0
 37 40  2  0  0  0  0
 38 39  2  0  0  0  0
 38 40  1  0  0  0  0
M  CHG  2   4  -1   9   1
M  END
> <PUBCHEM_COMPOUND_ID_TYPE>
0

> <PUBCHEM_TOTAL_CHARGE>
0

> <PUBCHEM_SUBSTANCE_ID>
310947271

> <PUBCHEM_SUBSTANCE_VERSION>
1

> <PUBCHEM_EXT_DATASOURCE_NAME>
4488

> <PUBCHEM_EXT_DATASOURCE_REGID>
SCHEMBL16125426

> <PUBCHEM_SUBSTANCE_COMMENT>
InChI=1S/C35H34N4O5/c1-22(25-14-17-28(18-15-25)39(42)43)36-33(40)27-16-19-32-31(20-27)23(2)37-38(32)21-24-10-12-26(13-11-24)29-8-6-7-9-30(29)34(41)44-35(3,4)5/h6-20,22H,21H2,1-5H3,(H,36,40)/t22-/m0/s1
InChIKey=MXTIRPUIIFCSPU-QFIPXVFZSA-N

> <PUBCHEM_SUBSTANCE_SYNONYM>
SCHEMBL16125426

> <PUBCHEM_XREF_EXT_ID>
SCHEMBL16125426

> <PUBCHEM_EXT_DATASOURCE_URL>
https://www.surechembl.org/

> <PUBCHEM_EXT_SUBSTANCE_URL>
https://www.surechembl.org/chemical/SCHEMBL16125426

> <PUBCHEM_CID_ASSOCIATIONS>
117613074  1

> <PUBCHEM_COORDINATE_TYPE>
1
3

> <PUBCHEM_BONDANNOTATIONS>
29  41  6

$$$$
