310929199
  -OEChem-07211613022D

 23 23  0     0  0  0  0  0  0999 V2000
    4.0814   -3.5604    0.0000 S   0  0  0  0  0  0  0  0  0  0  0  0
    5.2972   -4.2551    0.0000 F   0  0  0  0  0  0  0  0  0  0  0  0
    5.2972   -2.8440    0.0000 F   0  0  0  0  0  0  0  0  0  0  0  0
    5.7097   -3.5604    0.0000 F   0  0  0  0  0  0  0  0  0  0  0  0
    4.0814   -2.6486    0.0000 O   0  0  0  0  0  0  0  0  0  0  0  0
    4.0814   -4.3420    0.0000 O   0  0  0  0  0  0  0  0  0  0  0  0
    4.0814   -2.1275    0.0000 O   0  0  0  0  0  0  0  0  0  0  0  0
    2.8657    0.0000    0.0000 O   0  5  0  0  0  0  0  0  0  0  0  0
    4.1031   -0.7164    0.0000 O   0  0  0  0  0  0  0  0  0  0  0  0
    3.2781   -3.5604    0.0000 N   0  0  0  0  0  0  0  0  0  0  0  0
    3.2781   -0.6947    0.0000 N   0  3  0  0  0  0  0  0  0  0  0  0
    2.8657   -2.8440    0.0000 C   0  0  0  0  0  0  0  0  0  0  0  0
    3.2781   -2.1275    0.0000 C   0  0  0  0  0  0  0  0  0  0  0  0
    4.8847   -3.5604    0.0000 C   0  0  0  0  0  0  0  0  0  0  0  0
    2.8657   -1.4111    0.0000 C   0  0  0  0  0  0  0  0  0  0  0  0
    1.6282   -2.1275    0.0000 C   0  0  0  0  0  0  0  0  0  0  0  0
    2.0407   -2.8223    0.0000 C   0  0  0  0  0  0  0  0  0  0  0  0
    2.0407   -1.4111    0.0000 C   0  0  0  0  0  0  0  0  0  0  0  0
    0.8033   -2.1275    0.0000 C   0  0  0  0  0  0  0  0  0  0  0  0
    0.8033   -1.2809    0.0000 C   0  0  0  0  0  0  0  0  0  0  0  0
    0.0000   -2.1059    0.0000 C   0  0  0  0  0  0  0  0  0  0  0  0
    0.8033   -2.9308    0.0000 C   0  0  0  0  0  0  0  0  0  0  0  0
    4.4939   -1.4111    0.0000 C   0  0  0  0  0  0  0  0  0  0  0  0
  1  5  2  0  0  0  0
  1  6  2  0  0  0  0
  1 10  1  0  0  0  0
  1 14  1  0  0  0  0
  2 14  1  0  0  0  0
  3 14  1  0  0  0  0
  4 14  1  0  0  0  0
  7 13  1  0  0  0  0
  7 23  1  0  0  0  0
  8 11  1  0  0  0  0
  9 11  2  0  0  0  0
 10 12  1  0  0  0  0
 11 15  1  0  0  0  0
 12 13  1  0  0  0  0
 12 17  2  0  0  0  0
 13 15  2  0  0  0  0
 15 18  1  0  0  0  0
 16 17  1  0  0  0  0
 16 18  2  0  0  0  0
 16 19  1  0  0  0  0
 19 20  1  0  0  0  0
 19 21  1  0  0  0  0
 19 22  1  0  0  0  0
M  CHG  2   8  -1  11   1
M  END
> <PUBCHEM_COMPOUND_ID_TYPE>
0

> <PUBCHEM_TOTAL_CHARGE>
0

> <PUBCHEM_SUBSTANCE_ID>
310929199

> <PUBCHEM_SUBSTANCE_VERSION>
1

> <PUBCHEM_EXT_DATASOURCE_NAME>
4488

> <PUBCHEM_EXT_DATASOURCE_REGID>
SCHEMBL16106362

> <PUBCHEM_SUBSTANCE_COMMENT>
InChI=1S/C12H15F3N2O5S/c1-11(2,3)7-5-8(16-23(20,21)12(13,14)15)10(22-4)9(6-7)17(18)19/h5-6,16H,1-4H3
InChIKey=VOUINZXRCFKACK-UHFFFAOYSA-N

> <PUBCHEM_SUBSTANCE_SYNONYM>
SCHEMBL16106362

> <PUBCHEM_XREF_EXT_ID>
SCHEMBL16106362

> <PUBCHEM_EXT_DATASOURCE_URL>
https://www.surechembl.org/

> <PUBCHEM_EXT_SUBSTANCE_URL>
https://www.surechembl.org/chemical/SCHEMBL16106362

> <PUBCHEM_CID_ASSOCIATIONS>
117598651  1

> <PUBCHEM_COORDINATE_TYPE>
1
3

$$$$
