310944550
  -OEChem-07211613022D

 26 27  0     1  0  0  0  0  0999 V2000
   -4.4830   -1.3708    0.0000 O   0  0  0  0  0  0  0  0  0  0  0  0
    4.0459    1.9932    0.0000 O   0  0  0  0  0  0  0  0  0  0  0  0
   -2.4169    0.7482    0.0000 N   0  0  0  0  0  0  0  0  0  0  0  0
   -2.5097    1.5694    0.0000 N   0  0  0  0  0  0  0  0  0  0  0  0
    0.4702    0.7615    0.0000 N   0  0  3  0  0  0  0  0  0  0  0  0
   -3.1719    0.4172    0.0000 C   0  0  0  0  0  0  0  0  0  0  0  0
   -3.7413    1.0131    0.0000 C   0  0  0  0  0  0  0  0  0  0  0  0
   -3.4368   -0.3775    0.0000 C   0  0  0  0  0  0  0  0  0  0  0  0
   -3.3175    1.7415    0.0000 C   0  0  0  0  0  0  0  0  0  0  0  0
   -4.2313   -0.5497    0.0000 C   0  0  0  0  0  0  0  0  0  0  0  0
   -4.5360    0.8409    0.0000 C   0  0  0  0  0  0  0  0  0  0  0  0
   -1.6753    0.3377    0.0000 C   0  0  0  0  0  0  0  0  0  0  0  0
   -4.7876    0.0596    0.0000 C   0  0  0  0  0  0  0  0  0  0  0  0
   -0.9866    0.7482    0.0000 C   0  0  3  0  0  0  0  0  0  0  0  0
   -0.2583    0.3377    0.0000 C   0  0  0  0  0  0  0  0  0  0  0  0
   -0.9734    1.5561    0.0000 C   0  0  0  0  0  0  0  0  0  0  0  0
    0.4702    1.5827    0.0000 C   0  0  0  0  0  0  0  0  0  0  0  0
   -3.9135   -1.9932    0.0000 C   0  0  0  0  0  0  0  0  0  0  0  0
    1.1721    0.3642    0.0000 C   0  0  0  0  0  0  0  0  0  0  0  0
    1.1721    1.9932    0.0000 C   0  0  0  0  0  0  0  0  0  0  0  0
    1.9005    1.5959    0.0000 C   0  0  3  0  0  0  0  0  0  0  0  0
    2.6288    1.9932    0.0000 C   0  0  0  0  0  0  0  0  0  0  0  0
    1.4899    1.2118    0.0000 C   0  0  0  0  0  0  0  0  0  0  0  0
    1.8873    0.7615    0.0000 C   0  0  0  0  0  0  0  0  0  0  0  0
    3.3440    1.5827    0.0000 C   0  0  0  0  0  0  0  0  0  0  0  0
    4.7876    1.5561    0.0000 C   0  0  0  0  0  0  0  0  0  0  0  0
  1 10  1  0  0  0  0
  1 18  1  0  0  0  0
  2 25  1  0  0  0  0
  2 26  1  0  0  0  0
  3  4  1  0  0  0  0
  3  6  1  0  0  0  0
  3 12  1  0  0  0  0
  4  9  2  0  0  0  0
  5 15  1  0  0  0  0
  5 17  1  0  0  0  0
  5 19  1  0  0  0  0
  6  7  2  0  0  0  0
  6  8  1  0  0  0  0
  7  9  1  0  0  0  0
  7 11  1  0  0  0  0
  8 10  2  0  0  0  0
 10 13  1  0  0  0  0
 11 13  2  0  0  0  0
 12 14  1  0  0  0  0
 14 15  1  0  0  0  0
 14 16  1  6  0  0  0
 17 20  1  0  0  0  0
 19 23  1  0  0  0  0
 20 21  1  0  0  0  0
 21 22  1  0  0  0  0
 21 24  1  1  0  0  0
 22 25  1  0  0  0  0
M  END
> <PUBCHEM_COMPOUND_ID_TYPE>
0

> <PUBCHEM_TOTAL_CHARGE>
0

> <PUBCHEM_SUBSTANCE_ID>
310944550

> <PUBCHEM_SUBSTANCE_VERSION>
1

> <PUBCHEM_EXT_DATASOURCE_NAME>
4488

> <PUBCHEM_EXT_DATASOURCE_REGID>
SCHEMBL16122627

> <PUBCHEM_SUBSTANCE_COMMENT>
InChI=1S/C21H35N3O2/c1-6-23(11-9-17(2)10-12-25-4)15-18(3)16-24-21-13-20(26-5)8-7-19(21)14-22-24/h7-8,13-14,17-18H,6,9-12,15-16H2,1-5H3/t17-,18+/m0/s1
InChIKey=UVCARVVZFGTQGI-ZWKOTPCHSA-N

> <PUBCHEM_SUBSTANCE_SYNONYM>
SCHEMBL16122627

> <PUBCHEM_XREF_EXT_ID>
SCHEMBL16122627

> <PUBCHEM_EXT_DATASOURCE_URL>
https://www.surechembl.org/

> <PUBCHEM_EXT_SUBSTANCE_URL>
https://www.surechembl.org/chemical/SCHEMBL16122627

> <PUBCHEM_CID_ASSOCIATIONS>
117610785  1

> <PUBCHEM_COORDINATE_TYPE>
1
3

> <PUBCHEM_BONDANNOTATIONS>
14  16  6
21  24  5

$$$$
