310928693
  -OEChem-07211613022D

 18 19  0     0  0  0  0  0  0999 V2000
    1.0164   -0.1510    0.0000 O   0  0  0  0  0  0  0  0  0  0  0  0
    1.0164   -1.8010    0.0000 O   0  0  0  0  0  0  0  0  0  0  0  0
   -1.8414    0.6740    0.0000 O   0  0  0  0  0  0  0  0  0  0  0  0
   -2.5559   -0.5635    0.0000 O   0  0  0  0  0  0  0  0  0  0  0  0
    1.7309   -0.5635    0.0000 O   0  0  0  0  0  0  0  0  0  0  0  0
    0.3020   -0.5635    0.0000 C   0  0  0  0  0  0  0  0  0  0  0  0
    0.3020   -1.3885    0.0000 C   0  0  0  0  0  0  0  0  0  0  0  0
   -1.1270   -0.5635    0.0000 C   0  0  0  0  0  0  0  0  0  0  0  0
   -0.4125   -0.1510    0.0000 C   0  0  0  0  0  0  0  0  0  0  0  0
   -0.4125   -1.8010    0.0000 C   0  0  0  0  0  0  0  0  0  0  0  0
   -1.1270   -1.3885    0.0000 C   0  0  0  0  0  0  0  0  0  0  0  0
   -1.8414   -0.1510    0.0000 C   0  0  0  0  0  0  0  0  0  0  0  0
    1.7309    1.0865    0.0000 C   0  0  0  0  0  0  0  0  0  0  0  0
    1.0164    0.6740    0.0000 C   0  0  0  0  0  0  0  0  0  0  0  0
    1.7309   -1.3885    0.0000 C   0  0  0  0  0  0  0  0  0  0  0  0
    2.1434    1.8010    0.0000 C   0  0  0  0  0  0  0  0  0  0  0  0
    2.5559    1.0865    0.0000 C   0  0  0  0  0  0  0  0  0  0  0  0
    2.4454   -1.8010    0.0000 C   0  0  0  0  0  0  0  0  0  0  0  0
  1  6  1  0  0  0  0
  1 14  1  0  0  0  0
  2  7  1  0  0  0  0
  2 15  1  0  0  0  0
  3 12  2  0  0  0  0
  4 12  1  0  0  0  0
  5 15  2  0  0  0  0
  6  7  1  0  0  0  0
  6  9  2  0  0  0  0
  7 10  2  0  0  0  0
  8  9  1  0  0  0  0
  8 11  2  0  0  0  0
  8 12  1  0  0  0  0
 10 11  1  0  0  0  0
 13 14  1  0  0  0  0
 13 16  1  0  0  0  0
 13 17  1  0  0  0  0
 15 18  1  0  0  0  0
 16 17  1  0  0  0  0
M  END
> <PUBCHEM_COMPOUND_ID_TYPE>
0

> <PUBCHEM_TOTAL_CHARGE>
0

> <PUBCHEM_SUBSTANCE_ID>
310928693

> <PUBCHEM_SUBSTANCE_VERSION>
1

> <PUBCHEM_EXT_DATASOURCE_NAME>
11752

> <PUBCHEM_EXT_DATASOURCE_REGID>
BD318159

> <PUBCHEM_SUBSTANCE_SYNONYM>
4-Acetoxy-3-(cyclopropylmethoxy)benzoic acid
N/A

> <PUBCHEM_XREF_EXT_ID>
BD318159

> <PUBCHEM_EXT_DATASOURCE_URL>
http://www.bidepharmatech.com/en/index.html

> <PUBCHEM_EXT_SUBSTANCE_URL>
http://www.bidepharmatech.com/en/goodsview_goodscode_BD318159.html

> <PUBCHEM_CID_ASSOCIATIONS>
117587674  1

> <PUBCHEM_COORDINATE_TYPE>
1
3

$$$$
