310936413
  -OEChem-07211613022D

 32 36  0     0  0  0  0  0  0999 V2000
    2.8380   -2.9040    0.0000 N   0  0  0  0  0  0  0  0  0  0  0  0
    2.8380   -1.2870    0.0000 N   0  0  0  0  0  0  0  0  0  0  0  0
    4.9499   -1.6830    0.0000 N   0  0  0  0  0  0  0  0  0  0  0  0
    4.2240   -0.4620    0.0000 N   0  0  0  0  0  0  0  0  0  0  0  0
    6.3689   -1.6170    0.0000 N   0  0  0  0  0  0  0  0  0  0  0  0
    0.0000   -3.7290    0.0000 N   0  0  0  0  0  0  0  0  0  0  0  0
    9.1739   -2.4090    0.0000 N   0  0  0  0  0  0  0  0  0  0  0  0
    3.5309   -1.6830    0.0000 C   0  0  0  0  0  0  0  0  0  0  0  0
    3.5309   -2.5080    0.0000 C   0  0  0  0  0  0  0  0  0  0  0  0
    4.2240   -1.2870    0.0000 C   0  0  0  0  0  0  0  0  0  0  0  0
    2.1120   -2.5080    0.0000 C   0  0  0  0  0  0  0  0  0  0  0  0
    1.4190   -2.9040    0.0000 C   0  0  0  0  0  0  0  0  0  0  0  0
    2.1120   -1.6830    0.0000 C   0  0  0  0  0  0  0  0  0  0  0  0
    4.2240   -2.9040    0.0000 C   0  0  0  0  0  0  0  0  0  0  0  0
    4.9499   -2.5080    0.0000 C   0  0  0  0  0  0  0  0  0  0  0  0
    1.4190   -3.7290    0.0000 C   0  0  0  0  0  0  0  0  0  0  0  0
    5.6429   -0.4290    0.0000 C   0  0  0  0  0  0  0  0  0  0  0  0
    0.7260   -2.5080    0.0000 C   0  0  0  0  0  0  0  0  0  0  0  0
    7.0619   -1.2210    0.0000 C   0  0  0  0  0  0  0  0  0  0  0  0
    4.9169   -0.0330    0.0000 C   0  0  0  0  0  0  0  0  0  0  0  0
    7.7549   -1.6170    0.0000 C   0  0  0  0  0  0  0  0  0  0  0  0
    0.6930   -4.1249    0.0000 C   0  0  0  0  0  0  0  0  0  0  0  0
    5.6429   -1.2540    0.0000 C   0  0  0  0  0  0  0  0  0  0  0  0
    6.3029    0.0000    0.0000 C   0  0  0  0  0  0  0  0  0  0  0  0
    7.0619   -0.3960    0.0000 C   0  0  0  0  0  0  0  0  0  0  0  0
    0.0000   -2.9040    0.0000 C   0  0  0  0  0  0  0  0  0  0  0  0
    8.4479   -1.1550    0.0000 C   0  0  0  0  0  0  0  0  0  0  0  0
    7.7549   -2.4090    0.0000 C   0  0  0  0  0  0  0  0  0  0  0  0
    9.1739   -1.5840    0.0000 C   0  0  0  0  0  0  0  0  0  0  0  0
    8.4809   -2.8380    0.0000 C   0  0  0  0  0  0  0  0  0  0  0  0
    0.6930   -4.9499    0.0000 C   0  0  0  0  0  0  0  0  0  0  0  0
    9.8999   -1.1880    0.0000 C   0  0  0  0  0  0  0  0  0  0  0  0
  1  9  2  0  0  0  0
  1 11  1  0  0  0  0
  2  8  2  0  0  0  0
  2 13  1  0  0  0  0
  3 10  2  0  0  0  0
  3 15  1  0  0  0  0
  4 10  1  0  0  0  0
  4 20  1  0  0  0  0
  5 19  1  0  0  0  0
  5 23  2  0  0  0  0
  6 22  1  0  0  0  0
  6 26  2  0  0  0  0
  7 29  1  0  0  0  0
  7 30  2  0  0  0  0
  8  9  1  0  0  0  0
  8 10  1  0  0  0  0
  9 14  1  0  0  0  0
 11 12  1  0  0  0  0
 11 13  2  0  0  0  0
 12 16  1  0  0  0  0
 12 18  2  0  0  0  0
 14 15  2  0  0  0  0
 16 22  2  0  0  0  0
 17 20  1  0  0  0  0
 17 23  1  0  0  0  0
 17 24  2  0  0  0  0
 18 26  1  0  0  0  0
 19 21  1  0  0  0  0
 19 25  2  0  0  0  0
 21 27  1  0  0  0  0
 21 28  2  0  0  0  0
 22 31  1  0  0  0  0
 24 25  1  0  0  0  0
 27 29  2  0  0  0  0
 28 30  1  0  0  0  0
 29 32  1  0  0  0  0
M  END
> <PUBCHEM_COMPOUND_ID_TYPE>
0

> <PUBCHEM_TOTAL_CHARGE>
0

> <PUBCHEM_SUBSTANCE_ID>
310936413

> <PUBCHEM_SUBSTANCE_VERSION>
1

> <PUBCHEM_EXT_DATASOURCE_NAME>
4488

> <PUBCHEM_EXT_DATASOURCE_REGID>
SCHEMBL16114054

> <PUBCHEM_SUBSTANCE_COMMENT>
InChI=1S/C25H21N7/c1-16-11-19(5-8-26-16)21-4-3-18(13-29-21)14-31-25-24-22(7-10-28-25)32-23(15-30-24)20-6-9-27-17(2)12-20/h3-13,15H,14H2,1-2H3,(H,28,31)
InChIKey=VQARDJYCYCPTRB-UHFFFAOYSA-N

> <PUBCHEM_SUBSTANCE_SYNONYM>
SCHEMBL16114054

> <PUBCHEM_XREF_EXT_ID>
SCHEMBL16114054

> <PUBCHEM_EXT_DATASOURCE_URL>
https://www.surechembl.org/

> <PUBCHEM_EXT_SUBSTANCE_URL>
https://www.surechembl.org/chemical/SCHEMBL16114054

> <PUBCHEM_CID_ASSOCIATIONS>
86274023  1

> <PUBCHEM_COORDINATE_TYPE>
1
3

$$$$
