310943184
  -OEChem-07211613022D

 25 27  0     0  0  0  0  0  0999 V2000
   -0.6243    1.8442    0.0000 Cl  0  0  0  0  0  0  0  0  0  0  0  0
   -2.4877   -1.0181    0.0000 O   0  0  0  0  0  0  0  0  0  0  0  0
    3.1791    0.6147    0.0000 O   0  0  0  0  0  0  0  0  0  0  0  0
   -3.9092    1.4408    0.0000 O   0  0  0  0  0  0  0  0  0  0  0  0
    2.4684   -0.6147    0.0000 O   0  0  0  0  0  0  0  0  0  0  0  0
   -1.0661   -1.0181    0.0000 N   0  0  0  0  0  0  0  0  0  0  0  0
   -2.4877    0.6147    0.0000 N   0  0  0  0  0  0  0  0  0  0  0  0
    1.0469    1.8442    0.0000 N   0  0  0  0  0  0  0  0  0  0  0  0
   -0.3554    0.2306    0.0000 C   0  0  0  0  0  0  0  0  0  0  0  0
    0.3362    0.6339    0.0000 C   0  0  0  0  0  0  0  0  0  0  0  0
   -1.7769    0.2306    0.0000 C   0  0  0  0  0  0  0  0  0  0  0  0
   -1.7769   -0.5956    0.0000 C   0  0  0  0  0  0  0  0  0  0  0  0
   -1.1045    0.6147    0.0000 C   0  0  0  0  0  0  0  0  0  0  0  0
   -0.3746   -0.6147    0.0000 C   0  0  0  0  0  0  0  0  0  0  0  0
    0.3554    1.4599    0.0000 C   0  0  0  0  0  0  0  0  0  0  0  0
    1.0661    0.2113    0.0000 C   0  0  0  0  0  0  0  0  0  0  0  0
    1.7577    0.6339    0.0000 C   0  0  0  0  0  0  0  0  0  0  0  0
    1.7577    1.4408    0.0000 C   0  0  0  0  0  0  0  0  0  0  0  0
    2.4877    0.2497    0.0000 C   0  0  0  0  0  0  0  0  0  0  0  0
   -2.5068    1.4599    0.0000 C   0  0  0  0  0  0  0  0  0  0  0  0
   -3.1984    0.2113    0.0000 C   0  0  0  0  0  0  0  0  0  0  0  0
   -1.0661   -1.8442    0.0000 C   0  0  0  0  0  0  0  0  0  0  0  0
   -3.2175    1.8442    0.0000 C   0  0  0  0  0  0  0  0  0  0  0  0
   -3.9092    0.6339    0.0000 C   0  0  0  0  0  0  0  0  0  0  0  0
    3.9092    0.1921    0.0000 C   0  0  0  0  0  0  0  0  0  0  0  0
  1 15  1  0  0  0  0
  2 12  2  0  0  0  0
  3 19  1  0  0  0  0
  3 25  1  0  0  0  0
  4 23  1  0  0  0  0
  4 24  1  0  0  0  0
  5 19  2  0  0  0  0
  6 12  1  0  0  0  0
  6 14  1  0  0  0  0
  6 22  1  0  0  0  0
  7 11  1  0  0  0  0
  7 20  1  0  0  0  0
  7 21  1  0  0  0  0
  8 15  2  0  0  0  0
  8 18  1  0  0  0  0
  9 10  1  0  0  0  0
  9 13  1  0  0  0  0
  9 14  2  0  0  0  0
 10 15  1  0  0  0  0
 10 16  2  0  0  0  0
 11 12  1  0  0  0  0
 11 13  2  0  0  0  0
 16 17  1  0  0  0  0
 17 18  2  0  0  0  0
 17 19  1  0  0  0  0
 20 23  1  0  0  0  0
 21 24  1  0  0  0  0
M  END
> <PUBCHEM_COMPOUND_ID_TYPE>
0

> <PUBCHEM_TOTAL_CHARGE>
0

> <PUBCHEM_SUBSTANCE_ID>
310943184

> <PUBCHEM_SUBSTANCE_VERSION>
1

> <PUBCHEM_EXT_DATASOURCE_NAME>
4488

> <PUBCHEM_EXT_DATASOURCE_REGID>
SCHEMBL16121245

> <PUBCHEM_SUBSTANCE_COMMENT>
InChI=1S/C17H18ClN3O4/c1-20-10-12(8-14(16(20)22)21-3-5-25-6-4-21)13-7-11(17(23)24-2)9-19-15(13)18/h7-10H,3-6H2,1-2H3
InChIKey=ZETSMCPWXVINRK-UHFFFAOYSA-N

> <PUBCHEM_SUBSTANCE_SYNONYM>
SCHEMBL16121245

> <PUBCHEM_XREF_EXT_ID>
SCHEMBL16121245

> <PUBCHEM_EXT_DATASOURCE_URL>
https://www.surechembl.org/

> <PUBCHEM_EXT_SUBSTANCE_URL>
https://www.surechembl.org/chemical/SCHEMBL16121245

> <PUBCHEM_CID_ASSOCIATIONS>
117609612  1

> <PUBCHEM_COORDINATE_TYPE>
1
3

$$$$
