310932840
  -OEChem-07211613022D

 32 36  0     0  0  0  0  0  0999 V2000
    0.0000   -0.0307    0.0000 F   0  0  0  0  0  0  0  0  0  0  0  0
    0.0307   -1.4450    0.0000 F   0  0  0  0  0  0  0  0  0  0  0  0
    0.8301    0.0000    0.0000 F   0  0  0  0  0  0  0  0  0  0  0  0
    0.6149   -5.0730    0.0000 O   0  0  0  0  0  0  0  0  0  0  0  0
    6.1183   -3.9661    0.0000 O   0  0  0  0  0  0  0  0  0  0  0  0
    4.8270   -3.2897    0.0000 N   0  0  0  0  0  0  0  0  0  0  0  0
    4.8270   -4.6118    0.0000 N   0  0  0  0  0  0  0  0  0  0  0  0
    1.8755   -0.7071    0.0000 N   0  0  0  0  0  0  0  0  0  0  0  0
    1.0146   -5.7801    0.0000 N   0  0  0  0  0  0  0  0  0  0  0  0
    3.3205   -3.1360    0.0000 C   0  0  0  0  0  0  0  0  0  0  0  0
    3.2897   -2.3059    0.0000 C   0  0  0  0  0  0  0  0  0  0  0  0
    4.0276   -3.5357    0.0000 C   0  0  0  0  0  0  0  0  0  0  0  0
    2.6133   -1.9062    0.0000 C   0  0  0  0  0  0  0  0  0  0  0  0
    4.0276   -4.3658    0.0000 C   0  0  0  0  0  0  0  0  0  0  0  0
    2.6133   -4.3658    0.0000 C   0  0  0  0  0  0  0  0  0  0  0  0
    2.6133   -3.5357    0.0000 C   0  0  0  0  0  0  0  0  0  0  0  0
    2.5826   -1.1069    0.0000 C   0  0  0  0  0  0  0  0  0  0  0  0
    1.9062   -4.7962    0.0000 C   0  0  0  0  0  0  0  0  0  0  0  0
    3.9968   -1.8755    0.0000 C   0  0  0  0  0  0  0  0  0  0  0  0
    3.3205   -4.7655    0.0000 C   0  0  0  0  0  0  0  0  0  0  0  0
    5.3189   -3.9661    0.0000 C   0  0  0  0  0  0  0  0  0  0  0  0
    1.9062   -2.3366    0.0000 C   0  0  0  0  0  0  0  0  0  0  0  0
    1.1683   -1.1069    0.0000 C   0  0  0  0  0  0  0  0  0  0  0  0
    1.1683   -4.4581    0.0000 C   0  0  0  0  0  0  0  0  0  0  0  0
    1.8140   -5.5956    0.0000 C   0  0  0  0  0  0  0  0  0  0  0  0
    3.2590   -0.6764    0.0000 C   0  0  0  0  0  0  0  0  0  0  0  0
    3.9968   -1.0761    0.0000 C   0  0  0  0  0  0  0  0  0  0  0  0
    1.1683   -1.9370    0.0000 C   0  0  0  0  0  0  0  0  0  0  0  0
    0.4304   -0.7379    0.0000 C   0  0  0  0  0  0  0  0  0  0  0  0
    4.7348   -2.2751    0.0000 C   0  0  0  0  0  0  0  0  0  0  0  0
    0.9839   -3.6587    0.0000 C   0  0  0  0  0  0  0  0  0  0  0  0
    2.4289   -6.1491    0.0000 C   0  0  0  0  0  0  0  0  0  0  0  0
  1 29  1  0  0  0  0
  2 29  1  0  0  0  0
  3 29  1  0  0  0  0
  4  9  1  0  0  0  0
  4 24  1  0  0  0  0
  5 21  2  0  0  0  0
  6 12  1  0  0  0  0
  6 21  1  0  0  0  0
  7 14  1  0  0  0  0
  7 21  1  0  0  0  0
  8 17  2  0  0  0  0
  8 23  1  0  0  0  0
  9 25  2  0  0  0  0
 10 11  1  0  0  0  0
 10 12  1  0  0  0  0
 10 16  2  0  0  0  0
 11 13  1  0  0  0  0
 11 19  2  0  0  0  0
 12 14  2  0  0  0  0
 13 17  1  0  0  0  0
 13 22  2  0  0  0  0
 14 20  1  0  0  0  0
 15 16  1  0  0  0  0
 15 18  1  0  0  0  0
 15 20  2  0  0  0  0
 17 26  1  0  0  0  0
 18 24  2  0  0  0  0
 18 25  1  0  0  0  0
 19 27  1  0  0  0  0
 19 30  1  0  0  0  0
 22 28  1  0  0  0  0
 23 28  2  0  0  0  0
 23 29  1  0  0  0  0
 24 31  1  0  0  0  0
 25 32  1  0  0  0  0
 26 27  2  0  0  0  0
M  END
> <PUBCHEM_COMPOUND_ID_TYPE>
0

> <PUBCHEM_TOTAL_CHARGE>
0

> <PUBCHEM_SUBSTANCE_ID>
310932840

> <PUBCHEM_SUBSTANCE_VERSION>
1

> <PUBCHEM_EXT_DATASOURCE_NAME>
4488

> <PUBCHEM_EXT_DATASOURCE_REGID>
SCHEMBL16110229

> <PUBCHEM_SUBSTANCE_COMMENT>
InChI=1S/C23H17F3N4O2/c1-10-4-6-16-14(5-7-18(27-16)23(24,25)26)19(10)15-8-13(20-11(2)30-32-12(20)3)9-17-21(15)29-22(31)28-17/h4-9H,1-3H3,(H2,28,29,31)
InChIKey=LVRSHXDFEUNXFR-UHFFFAOYSA-N

> <PUBCHEM_SUBSTANCE_SYNONYM>
SCHEMBL16110229

> <PUBCHEM_XREF_EXT_ID>
SCHEMBL16110229

> <PUBCHEM_EXT_DATASOURCE_URL>
https://www.surechembl.org/

> <PUBCHEM_EXT_SUBSTANCE_URL>
https://www.surechembl.org/chemical/SCHEMBL16110229

> <PUBCHEM_CID_ASSOCIATIONS>
117601328  1

> <PUBCHEM_COORDINATE_TYPE>
1
3

$$$$
