310942560
  -OEChem-07211613022D

 86 91  0     1  0  0  0  0  0999 V2000
    4.0298   -3.4516    0.0000 S   0  0  0  0  0  0  0  0  0  0  0  0
    8.0055    3.4877    0.0000 F   0  0  0  0  0  0  0  0  0  0  0  0
    5.4574   -1.2831    0.0000 F   0  0  0  0  0  0  0  0  0  0  0  0
    4.6804    3.4877    0.0000 F   0  0  0  0  0  0  0  0  0  0  0  0
    7.6079   -2.2047    0.0000 O   0  0  0  0  0  0  0  0  0  0  0  0
    3.2889   -3.8672    0.0000 O   0  0  0  0  0  0  0  0  0  0  0  0
    3.5962   -2.7288    0.0000 O   0  0  0  0  0  0  0  0  0  0  0  0
    2.5842   -0.4698    0.0000 O   0  0  0  0  0  0  0  0  0  0  0  0
    3.3070    0.7771    0.0000 O   0  0  0  0  0  0  0  0  0  0  0  0
   -1.7348   -0.4698    0.0000 O   0  0  0  0  0  0  0  0  0  0  0  0
   -3.8853   -2.5300    0.0000 O   0  0  0  0  0  0  0  0  0  0  0  0
  -11.0957   -2.7468    0.0000 O   0  0  0  0  0  0  0  0  0  0  0  0
   -8.1681   -2.7649    0.0000 O   0  0  0  0  0  0  0  0  0  0  0  0
   -6.0357   -0.4698    0.0000 O   0  0  0  0  0  0  0  0  0  0  0  0
   -4.6081   -2.9456    0.0000 O   0  0  0  0  0  0  0  0  0  0  0  0
    8.2946    1.2469    0.0000 N   0  0  0  0  0  0  0  0  0  0  0  0
    6.8850   -0.4518    0.0000 N   0  0  0  0  0  0  0  0  0  0  0  0
    6.8850    1.2650    0.0000 N   0  0  0  0  0  0  0  0  0  0  0  0
    6.1622   -2.2047    0.0000 N   0  0  0  0  0  0  0  0  0  0  0  0
    4.7346   -3.0359    0.0000 N   0  0  0  0  0  0  0  0  0  0  0  0
    4.0118   -0.4518    0.0000 N   0  0  0  0  0  0  0  0  0  0  0  0
   -9.6319   -2.5119    0.0000 N   0  0  0  0  0  0  0  0  0  0  0  0
   -1.0119   -1.6987    0.0000 N   0  0  0  0  0  0  0  0  0  0  0  0
   -3.1805   -1.2831    0.0000 N   0  0  0  0  0  0  0  0  0  0  0  0
   -5.3310   -1.6987    0.0000 N   0  0  0  0  0  0  0  0  0  0  0  0
   -3.8853   -4.1925    0.0000 N   0  0  0  0  0  0  0  0  0  0  0  0
   -5.3310   -4.1925    0.0000 N   0  0  0  0  0  0  0  0  0  0  0  0
    7.5898   -0.0362    0.0000 C   0  0  3  0  0  0  0  0  0  0  0  0
    7.6079    0.7951    0.0000 C   0  0  0  0  0  0  0  0  0  0  0  0
    8.3488   -0.4518    0.0000 C   0  0  0  0  0  0  0  0  0  0  0  0
    7.1742    2.0781    0.0000 C   0  0  0  0  0  0  0  0  0  0  0  0
    8.0416    2.0240    0.0000 C   0  0  0  0  0  0  0  0  0  0  0  0
    6.7586    2.7829    0.0000 C   0  0  0  0  0  0  0  0  0  0  0  0
    6.8670   -1.7710    0.0000 C   0  0  0  0  0  0  0  0  0  0  0  0
    9.0897    0.9939    0.0000 C   0  0  0  0  0  0  0  0  0  0  0  0
    6.1441   -0.0542    0.0000 C   0  0  0  0  0  0  0  0  0  0  0  0
    7.1562    3.4877    0.0000 C   0  0  0  0  0  0  0  0  0  0  0  0
    5.9273    2.8010    0.0000 C   0  0  0  0  0  0  0  0  0  0  0  0
    9.0717   -0.0542    0.0000 C   0  0  0  0  0  0  0  0  0  0  0  0
    9.0717   -0.8493    0.0000 C   0  0  0  0  0  0  0  0  0  0  0  0
    8.3488   -1.3011    0.0000 C   0  0  0  0  0  0  0  0  0  0  0  0
    9.7041    1.5541    0.0000 C   0  0  0  0  0  0  0  0  0  0  0  0
    5.4574   -0.4518    0.0000 C   0  0  3  0  0  0  0  0  0  0  0  0
    5.5297    3.4877    0.0000 C   0  0  0  0  0  0  0  0  0  0  0  0
    6.1622   -3.0359    0.0000 C   0  0  0  0  0  0  0  0  0  0  0  0
    5.4574   -1.7890    0.0000 C   0  0  0  0  0  0  0  0  0  0  0  0
    6.7586    4.1925    0.0000 C   0  0  0  0  0  0  0  0  0  0  0  0
    5.9273    4.1925    0.0000 C   0  0  0  0  0  0  0  0  0  0  0  0
    5.4574   -3.4335    0.0000 C   0  0  0  0  0  0  0  0  0  0  0  0
    4.7527   -2.1866    0.0000 C   0  0  0  0  0  0  0  0  0  0  0  0
   10.4993    1.3011    0.0000 C   0  0  0  0  0  0  0  0  0  0  0  0
    9.5776    2.3673    0.0000 C   0  0  0  0  0  0  0  0  0  0  0  0
    4.7165   -0.0542    0.0000 C   0  0  0  0  0  0  0  0  0  0  0  0
   11.0957    1.8252    0.0000 C   0  0  0  0  0  0  0  0  0  0  0  0
   10.1559    2.8914    0.0000 C   0  0  0  0  0  0  0  0  0  0  0  0
   10.9330    2.6384    0.0000 C   0  0  0  0  0  0  0  0  0  0  0  0
    4.4636   -4.1744    0.0000 C   0  0  0  0  0  0  0  0  0  0  0  0
    3.2889   -0.0542    0.0000 C   0  0  0  0  0  0  0  0  0  0  0  0
    1.8433   -0.0542    0.0000 C   0  0  0  0  0  0  0  0  0  0  0  0
    1.1565   -0.4518    0.0000 C   0  0  0  0  0  0  0  0  0  0  0  0
   -0.3072   -1.2831    0.0000 C   0  0  0  0  0  0  0  0  0  0  0  0
    1.1385   -1.2831    0.0000 C   0  0  0  0  0  0  0  0  0  0  0  0
    0.4157   -0.0542    0.0000 C   0  0  0  0  0  0  0  0  0  0  0  0
   -2.4396   -1.6987    0.0000 C   0  0  3  0  0  0  0  0  0  0  0  0
   -1.7348   -1.3011    0.0000 C   0  0  0  0  0  0  0  0  0  0  0  0
   -4.6081   -1.2831    0.0000 C   0  0  3  0  0  0  0  0  0  0  0  0
   -3.8853   -1.6806    0.0000 C   0  0  0  0  0  0  0  0  0  0  0  0
    0.4157   -1.6806    0.0000 C   0  0  0  0  0  0  0  0  0  0  0  0
   -0.2711   -0.4518    0.0000 C   0  0  0  0  0  0  0  0  0  0  0  0
  -10.2643   -3.0179    0.0000 C   0  0  0  0  0  0  0  0  0  0  0  0
   -8.9813   -3.0179    0.0000 C   0  0  0  0  0  0  0  0  0  0  0  0
  -10.0475   -3.7769    0.0000 C   0  0  0  0  0  0  0  0  0  0  0  0
   -9.2162   -3.7950    0.0000 C   0  0  0  0  0  0  0  0  0  0  0  0
   -4.5900   -0.4337    0.0000 C   0  0  0  0  0  0  0  0  0  0  0  0
   -9.6138   -1.6806    0.0000 C   0  0  0  0  0  0  0  0  0  0  0  0
   -2.4396   -2.5119    0.0000 C   0  0  0  0  0  0  0  0  0  0  0  0
   -6.0538   -1.3011    0.0000 C   0  0  0  0  0  0  0  0  0  0  0  0
   -8.9271   -1.2831    0.0000 C   0  0  0  0  0  0  0  0  0  0  0  0
   -3.1443   -2.9275    0.0000 C   0  0  0  0  0  0  0  0  0  0  0  0
   -6.7586   -1.6987    0.0000 C   0  0  0  0  0  0  0  0  0  0  0  0
   -5.3310   -0.0542    0.0000 C   0  0  0  0  0  0  0  0  0  0  0  0
   -3.8672   -0.0723    0.0000 C   0  0  0  0  0  0  0  0  0  0  0  0
   -8.1862   -1.6806    0.0000 C   0  0  0  0  0  0  0  0  0  0  0  0
   -7.4814   -1.2831    0.0000 C   0  0  0  0  0  0  0  0  0  0  0  0
   -3.1624   -3.7769    0.0000 C   0  0  0  0  0  0  0  0  0  0  0  0
   -4.6081   -3.7769    0.0000 C   0  0  0  0  0  0  0  0  0  0  0  0
  1  6  2  0  0  0  0
  1  7  2  0  0  0  0
  1 20  1  0  0  0  0
  1 57  1  0  0  0  0
  2 37  1  0  0  0  0
 43  3  1  1  0  0  0
  4 44  1  0  0  0  0
  5 34  2  0  0  0  0
  8 58  1  0  0  0  0
  8 59  1  0  0  0  0
  9 58  2  0  0  0  0
 10 65  2  0  0  0  0
 11 67  2  0  0  0  0
 12 70  2  0  0  0  0
 13 71  2  0  0  0  0
 14 77  2  0  0  0  0
 15 86  2  0  0  0  0
 16 29  1  0  0  0  0
 16 32  1  0  0  0  0
 16 35  1  0  0  0  0
 28 17  1  1  0  0  0
 17 34  1  0  0  0  0
 17 36  1  0  0  0  0
 18 29  2  0  0  0  0
 18 31  1  0  0  0  0
 19 34  1  0  0  0  0
 19 45  1  0  0  0  0
 19 46  1  0  0  0  0
 20 49  1  0  0  0  0
 20 50  1  0  0  0  0
 21 53  1  0  0  0  0
 21 58  1  0  0  0  0
 22 70  1  0  0  0  0
 22 71  1  0  0  0  0
 22 75  1  0  0  0  0
 23 61  1  0  0  0  0
 23 65  1  0  0  0  0
 64 24  1  6  0  0  0
 24 67  1  0  0  0  0
 66 25  1  1  0  0  0
 25 77  1  0  0  0  0
 26 85  1  0  0  0  0
 26 86  1  0  0  0  0
 27 86  1  0  0  0  0
 28 29  1  0  0  0  0
 28 30  1  0  0  0  0
 30 39  1  0  0  0  0
 30 40  1  0  0  0  0
 30 41  1  0  0  0  0
 31 32  2  0  0  0  0
 31 33  1  0  0  0  0
 33 37  2  0  0  0  0
 33 38  1  0  0  0  0
 35 42  1  0  0  0  0
 36 43  1  0  0  0  0
 37 47  1  0  0  0  0
 38 44  2  0  0  0  0
 42 51  2  0  0  0  0
 42 52  1  0  0  0  0
 43 53  1  0  0  0  0
 44 48  1  0  0  0  0
 45 49  1  0  0  0  0
 46 50  1  0  0  0  0
 47 48  2  0  0  0  0
 51 54  1  0  0  0  0
 52 55  2  0  0  0  0
 54 56  2  0  0  0  0
 55 56  1  0  0  0  0
 59 60  1  0  0  0  0
 60 62  2  0  0  0  0
 60 63  1  0  0  0  0
 61 68  2  0  0  0  0
 61 69  1  0  0  0  0
 62 68  1  0  0  0  0
 63 69  2  0  0  0  0
 64 65  1  0  0  0  0
 64 76  1  0  0  0  0
 66 67  1  0  0  0  0
 66 74  1  0  0  0  0
 70 72  1  0  0  0  0
 71 73  1  0  0  0  0
 72 73  2  0  0  0  0
 74 81  1  0  0  0  0
 74 82  1  0  0  0  0
 75 78  1  0  0  0  0
 76 79  1  0  0  0  0
 77 80  1  0  0  0  0
 78 83  1  0  0  0  0
 79 85  1  0  0  0  0
 80 84  1  0  0  0  0
 83 84  1  0  0  0  0
M  END
> <PUBCHEM_COMPOUND_ID_TYPE>
0

> <PUBCHEM_TOTAL_CHARGE>
0

> <PUBCHEM_SUBSTANCE_ID>
310942560

> <PUBCHEM_SUBSTANCE_VERSION>
1

> <PUBCHEM_EXT_DATASOURCE_NAME>
4488

> <PUBCHEM_EXT_DATASOURCE_REGID>
SCHEMBL16120603

> <PUBCHEM_SUBSTANCE_COMMENT>
InChI=1S/C59H77F3N12O11S/c1-38(2)51(69-48(75)17-11-8-12-27-73-49(76)24-25-50(73)77)55(79)68-46(16-13-26-64-56(63)80)54(78)66-43-21-18-40(19-22-43)37-85-57(81)65-33-42(61)35-74(58(82)70-28-30-72(31-29-70)86(6,83)84)52(59(3,4)5)53-67-47(44-32-41(60)20-23-45(44)62)36-71(53)34-39-14-9-7-10-15-39/h7,9-10,14-15,18-25,32,36,38,42,46,51-52H,8,11-13,16-17,26-31,33-35,37H2,1-6H3,(H,65,81)(H,66,78)(H,68,79)(H,69,75)(H3,63,64,80)/t42-,46-,51-,52-/m0/s1
InChIKey=YRYUIJXUOQOLFO-OXJQRXDQSA-N

> <PUBCHEM_SUBSTANCE_SYNONYM>
SCHEMBL16120603

> <PUBCHEM_XREF_EXT_ID>
SCHEMBL16120603

> <PUBCHEM_EXT_DATASOURCE_URL>
https://www.surechembl.org/

> <PUBCHEM_EXT_SUBSTANCE_URL>
https://www.surechembl.org/chemical/SCHEMBL16120603

> <PUBCHEM_CID_ASSOCIATIONS>
117609116  1

> <PUBCHEM_COORDINATE_TYPE>
1
3

> <PUBCHEM_BONDANNOTATIONS>
28  17  5
64  24  6
66  25  5
43  3  5

$$$$
