310949772
  -OEChem-07211613022D

 12 13  0     0  0  0  0  0  0999 V2000
   -1.6259    0.9342    0.0000 O   0  0  0  0  0  0  0  0  0  0  0  0
   -0.3882    1.4439    0.0000 O   0  0  0  0  0  0  0  0  0  0  0  0
   -1.0920   -0.5945    0.0000 N   0  0  0  0  0  0  0  0  0  0  0  0
   -0.6310   -1.2983    0.0000 N   0  0  0  0  0  0  0  0  0  0  0  0
    1.6259   -1.0556    0.0000 N   0  0  0  0  0  0  0  0  0  0  0  0
    0.1941   -0.2062    0.0000 C   0  0  0  0  0  0  0  0  0  0  0  0
   -0.5824    0.0606    0.0000 C   0  0  0  0  0  0  0  0  0  0  0  0
    0.1456   -1.0314    0.0000 C   0  0  0  0  0  0  0  0  0  0  0  0
   -0.8736    0.8372    0.0000 C   0  0  0  0  0  0  0  0  0  0  0  0
    0.8979    0.1820    0.0000 C   0  0  0  0  0  0  0  0  0  0  0  0
    0.8494   -1.4439    0.0000 C   0  0  0  0  0  0  0  0  0  0  0  0
    1.6259   -0.2062    0.0000 C   0  0  0  0  0  0  0  0  0  0  0  0
  1  9  2  0  0  0  0
  2  9  1  0  0  0  0
  3  4  1  0  0  0  0
  3  7  2  0  0  0  0
  4  8  1  0  0  0  0
  5 11  1  0  0  0  0
  5 12  1  0  0  0  0
  6  7  1  0  0  0  0
  6  8  2  0  0  0  0
  6 10  1  0  0  0  0
  7  9  1  0  0  0  0
  8 11  1  0  0  0  0
 10 12  1  0  0  0  0
M  END
> <PUBCHEM_COMPOUND_ID_TYPE>
0

> <PUBCHEM_TOTAL_CHARGE>
0

> <PUBCHEM_SUBSTANCE_ID>
310949772

> <PUBCHEM_SUBSTANCE_VERSION>
1

> <PUBCHEM_EXT_DATASOURCE_NAME>
4488

> <PUBCHEM_EXT_DATASOURCE_REGID>
SCHEMBL16127970

> <PUBCHEM_SUBSTANCE_COMMENT>
InChI=1S/C7H9N3O2/c11-7(12)6-4-1-2-8-3-5(4)9-10-6/h8H,1-3H2,(H,9,10)(H,11,12)
InChIKey=WKZRYUVJFYDZTP-UHFFFAOYSA-N

> <PUBCHEM_SUBSTANCE_SYNONYM>
SCHEMBL16127970

> <PUBCHEM_XREF_EXT_ID>
SCHEMBL16127970

> <PUBCHEM_EXT_DATASOURCE_URL>
https://www.surechembl.org/

> <PUBCHEM_EXT_SUBSTANCE_URL>
https://www.surechembl.org/chemical/SCHEMBL16127970

> <PUBCHEM_CID_ASSOCIATIONS>
66661678  1

> <PUBCHEM_COORDINATE_TYPE>
1
3

$$$$
