310929127
  -OEChem-07211613022D

 58 62  0     0  0  0  0  0  0999 V2000
    6.4351   -1.2650    0.0000 O   0  0  0  0  0  0  0  0  0  0  0  0
    3.7401   -1.4300    0.0000 O   0  0  0  0  0  0  0  0  0  0  0  0
    2.8601   -4.1801    0.0000 O   0  0  0  0  0  0  0  0  0  0  0  0
   10.7252   -2.8601    0.0000 O   0  0  0  0  0  0  0  0  0  0  0  0
   12.9253   -2.4751    0.0000 O   0  0  0  0  0  0  0  0  0  0  0  0
   15.0704   -2.8601    0.0000 O   0  0  0  0  0  0  0  0  0  0  0  0
   15.7854   -4.9501    0.0000 O   0  0  0  0  0  0  0  0  0  0  0  0
    3.5751   -2.9151    0.0000 N   0  0  0  0  0  0  0  0  0  0  0  0
    4.2901   -4.1251    0.0000 N   0  0  0  0  0  0  0  0  0  0  0  0
    7.8652   -3.6851    0.0000 N   0  0  0  0  0  0  0  0  0  0  0  0
    8.5802   -2.4751    0.0000 N   0  0  0  0  0  0  0  0  0  0  0  0
    0.7150   -0.4400    0.0000 N   0  0  0  0  0  0  0  0  0  0  0  0
   11.4953   -4.1251    0.0000 N   0  0  0  0  0  0  0  0  0  0  0  0
    4.2901   -2.4751    0.0000 C   0  0  0  0  0  0  0  0  0  0  0  0
    2.8601   -2.4751    0.0000 C   0  0  0  0  0  0  0  0  0  0  0  0
    4.2901   -1.7050    0.0000 C   0  0  0  0  0  0  0  0  0  0  0  0
    5.0051   -1.2650    0.0000 C   0  0  0  0  0  0  0  0  0  0  0  0
    2.8601   -1.7050    0.0000 C   0  0  0  0  0  0  0  0  0  0  0  0
    5.7201   -1.6501    0.0000 C   0  0  0  0  0  0  0  0  0  0  0  0
    1.4300   -2.5301    0.0000 C   0  0  0  0  0  0  0  0  0  0  0  0
    2.1450   -2.9151    0.0000 C   0  0  0  0  0  0  0  0  0  0  0  0
    2.1450   -1.2650    0.0000 C   0  0  0  0  0  0  0  0  0  0  0  0
    5.0051   -2.9151    0.0000 C   0  0  0  0  0  0  0  0  0  0  0  0
    3.5751   -3.7401    0.0000 C   0  0  0  0  0  0  0  0  0  0  0  0
    1.4300   -1.6501    0.0000 C   0  0  0  0  0  0  0  0  0  0  0  0
    5.7201   -2.4751    0.0000 C   0  0  0  0  0  0  0  0  0  0  0  0
    0.7150   -2.9151    0.0000 C   0  0  0  0  0  0  0  0  0  0  0  0
    3.5751   -1.2650    0.0000 C   0  0  0  0  0  0  0  0  0  0  0  0
    5.0051   -0.4400    0.0000 C   0  0  0  0  0  0  0  0  0  0  0  0
    2.1450   -0.4400    0.0000 C   0  0  0  0  0  0  0  0  0  0  0  0
    3.5751   -0.4400    0.0000 C   0  0  0  0  0  0  0  0  0  0  0  0
    4.2901    0.0000    0.0000 C   0  0  0  0  0  0  0  0  0  0  0  0
    7.1502   -1.6501    0.0000 C   0  0  0  0  0  0  0  0  0  0  0  0
    0.2750   -2.2001    0.0000 C   0  0  0  0  0  0  0  0  0  0  0  0
    0.0000   -3.3001    0.0000 C   0  0  0  0  0  0  0  0  0  0  0  0
    1.1000   -3.6301    0.0000 C   0  0  0  0  0  0  0  0  0  0  0  0
    7.1502   -2.4751    0.0000 C   0  0  0  0  0  0  0  0  0  0  0  0
    7.8652   -2.8601    0.0000 C   0  0  0  0  0  0  0  0  0  0  0  0
    7.8652   -1.2100    0.0000 C   0  0  0  0  0  0  0  0  0  0  0  0
    1.4300    0.0000    0.0000 C   0  0  0  0  0  0  0  0  0  0  0  0
    3.7401   -0.6050    0.0000 C   0  0  0  0  0  0  0  0  0  0  0  0
    8.5802   -4.1251    0.0000 C   0  0  0  0  0  0  0  0  0  0  0  0
    8.5802   -1.6501    0.0000 C   0  0  0  0  0  0  0  0  0  0  0  0
   10.0102   -4.1251    0.0000 C   0  0  0  0  0  0  0  0  0  0  0  0
    9.2952   -3.6851    0.0000 C   0  0  0  0  0  0  0  0  0  0  0  0
    8.5802   -4.9501    0.0000 C   0  0  0  0  0  0  0  0  0  0  0  0
    9.2952   -5.3351    0.0000 C   0  0  0  0  0  0  0  0  0  0  0  0
   10.0102   -4.9501    0.0000 C   0  0  0  0  0  0  0  0  0  0  0  0
   10.7252   -3.6851    0.0000 C   0  0  0  0  0  0  0  0  0  0  0  0
    9.2952   -6.1601    0.0000 C   0  0  0  0  0  0  0  0  0  0  0  0
   12.2103   -3.6851    0.0000 C   0  0  0  0  0  0  0  0  0  0  0  0
   10.0652   -6.6002    0.0000 C   0  0  0  0  0  0  0  0  0  0  0  0
   12.2103   -2.8601    0.0000 C   0  0  0  0  0  0  0  0  0  0  0  0
   13.5853   -2.8601    0.0000 C   0  0  0  0  0  0  0  0  0  0  0  0
   14.3553   -2.4751    0.0000 C   0  0  0  0  0  0  0  0  0  0  0  0
   15.0704   -3.6851    0.0000 C   0  0  0  0  0  0  0  0  0  0  0  0
   15.7854   -4.0701    0.0000 C   0  0  0  0  0  0  0  0  0  0  0  0
   16.5004   -5.3351    0.0000 C   0  0  0  0  0  0  0  0  0  0  0  0
  1 19  1  0  0  0  0
  1 33  1  0  0  0  0
  2 18  1  0  0  0  0
  2 41  1  0  0  0  0
  3 24  2  0  0  0  0
  4 49  2  0  0  0  0
  5 53  1  0  0  0  0
  5 54  1  0  0  0  0
  6 55  1  0  0  0  0
  6 56  1  0  0  0  0
  7 57  1  0  0  0  0
  7 58  1  0  0  0  0
  8 14  1  0  0  0  0
  8 15  1  0  0  0  0
  8 24  1  0  0  0  0
  9 24  1  0  0  0  0
 10 38  1  0  0  0  0
 10 42  1  0  0  0  0
 11 38  2  0  0  0  0
 11 43  1  0  0  0  0
 12 40  3  0  0  0  0
 13 49  1  0  0  0  0
 13 51  1  0  0  0  0
 14 16  1  0  0  0  0
 14 23  2  0  0  0  0
 15 18  1  0  0  0  0
 15 21  2  0  0  0  0
 16 17  2  0  0  0  0
 16 28  1  0  0  0  0
 17 19  1  0  0  0  0
 17 29  1  0  0  0  0
 18 22  2  0  0  0  0
 19 26  2  0  0  0  0
 20 21  1  0  0  0  0
 20 25  2  0  0  0  0
 20 27  1  0  0  0  0
 22 25  1  0  0  0  0
 22 30  1  0  0  0  0
 23 26  1  0  0  0  0
 27 34  1  0  0  0  0
 27 35  1  0  0  0  0
 27 36  1  0  0  0  0
 28 31  2  0  0  0  0
 29 32  2  0  0  0  0
 30 40  1  0  0  0  0
 31 32  1  0  0  0  0
 33 37  2  0  0  0  0
 33 39  1  0  0  0  0
 37 38  1  0  0  0  0
 39 43  2  0  0  0  0
 42 45  1  0  0  0  0
 42 46  2  0  0  0  0
 44 45  2  0  0  0  0
 44 48  1  0  0  0  0
 44 49  1  0  0  0  0
 46 47  1  0  0  0  0
 47 48  2  0  0  0  0
 47 50  1  0  0  0  0
 50 52  3  0  0  0  0
 51 53  1  0  0  0  0
 54 55  1  0  0  0  0
 56 57  1  0  0  0  0
M  END
> <PUBCHEM_COMPOUND_ID_TYPE>
0

> <PUBCHEM_TOTAL_CHARGE>
0

> <PUBCHEM_SUBSTANCE_ID>
310929127

> <PUBCHEM_SUBSTANCE_VERSION>
1

> <PUBCHEM_EXT_DATASOURCE_NAME>
4488

> <PUBCHEM_EXT_DATASOURCE_REGID>
SCHEMBL16106290

> <PUBCHEM_SUBSTANCE_COMMENT>
InChI=1S/C45H48N6O7/c1-7-30-24-32(43(52)49-18-19-56-22-23-57-21-20-54-5)27-34(25-30)50-41-29-35(15-17-48-41)58-40-13-12-38(36-10-8-9-11-37(36)40)51(44(47)53)39-28-33(45(2,3)4)26-31(14-16-46)42(39)55-6/h1,8-13,15,17,24-29H,14,18-23H2,2-6H3,(H2,47,53)(H,48,50)(H,49,52)
InChIKey=OLXNVJKXJXZABL-UHFFFAOYSA-N

> <PUBCHEM_SUBSTANCE_SYNONYM>
SCHEMBL16106290

> <PUBCHEM_XREF_EXT_ID>
SCHEMBL16106290

> <PUBCHEM_EXT_DATASOURCE_URL>
https://www.surechembl.org/

> <PUBCHEM_EXT_SUBSTANCE_URL>
https://www.surechembl.org/chemical/SCHEMBL16106290

> <PUBCHEM_CID_ASSOCIATIONS>
117598606  1

> <PUBCHEM_COORDINATE_TYPE>
1
3

$$$$
