310944435
  -OEChem-07211613022D

 24 26  0     0  0  0  0  0  0999 V2000
    0.7449    2.4634    0.0000 F   0  0  0  0  0  0  0  0  0  0  0  0
   -0.7318   -0.0326    0.0000 N   0  0  0  0  0  0  0  0  0  0  0  0
   -1.4375    1.9798    0.0000 N   0  0  0  0  0  0  0  0  0  0  0  0
    2.9273    2.0321    0.0000 N   0  0  0  0  0  0  0  0  0  0  0  0
    0.0000    0.3986    0.0000 C   0  0  0  0  0  0  0  0  0  0  0  0
    0.0131    1.2349    0.0000 C   0  0  0  0  0  0  0  0  0  0  0  0
    0.7449    1.6532    0.0000 C   0  0  0  0  0  0  0  0  0  0  0  0
   -0.7318   -0.8429    0.0000 C   0  0  0  0  0  0  0  0  0  0  0  0
   -1.4767    0.3986    0.0000 C   0  0  0  0  0  0  0  0  0  0  0  0
    1.4767    1.2349    0.0000 C   0  0  0  0  0  0  0  0  0  0  0  0
    0.7580    0.0065    0.0000 C   0  0  0  0  0  0  0  0  0  0  0  0
    1.4637    0.4116    0.0000 C   0  0  0  0  0  0  0  0  0  0  0  0
   -0.7188    1.6139    0.0000 C   0  0  0  0  0  0  0  0  0  0  0  0
   -1.4637   -1.2480    0.0000 C   0  0  0  0  0  0  0  0  0  0  0  0
   -1.4637    1.2088    0.0000 C   0  0  0  0  0  0  0  0  0  0  0  0
   -0.0131   -1.2480    0.0000 C   0  0  0  0  0  0  0  0  0  0  0  0
   -2.1824   -0.0196    0.0000 C   0  0  0  0  0  0  0  0  0  0  0  0
    2.2085    1.6532    0.0000 C   0  0  0  0  0  0  0  0  0  0  0  0
   -1.4506   -2.0713    0.0000 C   0  0  0  0  0  0  0  0  0  0  0  0
   -2.1955    1.6139    0.0000 C   0  0  0  0  0  0  0  0  0  0  0  0
   -0.0131   -2.0451    0.0000 C   0  0  0  0  0  0  0  0  0  0  0  0
   -2.9142    0.3724    0.0000 C   0  0  0  0  0  0  0  0  0  0  0  0
   -0.7318   -2.4634    0.0000 C   0  0  0  0  0  0  0  0  0  0  0  0
   -2.9273    1.1827    0.0000 C   0  0  0  0  0  0  0  0  0  0  0  0
  1  7  1  0  0  0  0
  2  5  1  0  0  0  0
  2  8  1  0  0  0  0
  2  9  1  0  0  0  0
  3 13  3  0  0  0  0
  4 18  3  0  0  0  0
  5  6  2  0  0  0  0
  5 11  1  0  0  0  0
  6  7  1  0  0  0  0
  6 13  1  0  0  0  0
  7 10  2  0  0  0  0
  8 14  2  0  0  0  0
  8 16  1  0  0  0  0
  9 15  2  0  0  0  0
  9 17  1  0  0  0  0
 10 12  1  0  0  0  0
 10 18  1  0  0  0  0
 11 12  2  0  0  0  0
 14 19  1  0  0  0  0
 15 20  1  0  0  0  0
 16 21  2  0  0  0  0
 17 22  2  0  0  0  0
 19 23  2  0  0  0  0
 20 24  2  0  0  0  0
 21 23  1  0  0  0  0
 22 24  1  0  0  0  0
M  END
> <PUBCHEM_COMPOUND_ID_TYPE>
0

> <PUBCHEM_TOTAL_CHARGE>
0

> <PUBCHEM_SUBSTANCE_ID>
310944435

> <PUBCHEM_SUBSTANCE_VERSION>
1

> <PUBCHEM_EXT_DATASOURCE_NAME>
4488

> <PUBCHEM_EXT_DATASOURCE_REGID>
SCHEMBL16122510

> <PUBCHEM_SUBSTANCE_COMMENT>
InChI=1S/C20H12FN3/c21-20-15(13-22)11-12-19(18(20)14-23)24(16-7-3-1-4-8-16)17-9-5-2-6-10-17/h1-12H
InChIKey=FJMGSFMPKGPFNP-UHFFFAOYSA-N

> <PUBCHEM_SUBSTANCE_SYNONYM>
SCHEMBL16122510

> <PUBCHEM_XREF_EXT_ID>
SCHEMBL16122510

> <PUBCHEM_EXT_DATASOURCE_URL>
https://www.surechembl.org/

> <PUBCHEM_EXT_SUBSTANCE_URL>
https://www.surechembl.org/chemical/SCHEMBL16122510

> <PUBCHEM_CID_ASSOCIATIONS>
117610689  1

> <PUBCHEM_COORDINATE_TYPE>
1
3

$$$$
