310944944
  -OEChem-07211613022D

 37 42  0     0  0  0  0  0  0999 V2000
    3.5934    3.0042    0.0000 O   0  0  0  0  0  0  0  0  0  0  0  0
   -2.5212   -1.8261    0.0000 O   0  0  0  0  0  0  0  0  0  0  0  0
   -3.0513    1.1075    0.0000 O   0  0  0  0  0  0  0  0  0  0  0  0
    2.0854    0.6834    0.0000 N   0  0  0  0  0  0  0  0  0  0  0  0
    4.3238    1.7554    0.0000 N   0  0  0  0  0  0  0  0  0  0  0  0
   -0.8955    1.6022    0.0000 N   0  0  0  0  0  0  0  0  0  0  0  0
   -3.2046   -0.3180    0.0000 N   0  0  0  0  0  0  0  0  0  0  0  0
   -4.6773   -2.3210    0.0000 N   0  0  0  0  0  0  0  0  0  0  0  0
    4.3238    0.9308    0.0000 C   0  0  0  0  0  0  0  0  0  0  0  0
    2.8864    1.7672    0.0000 C   0  0  0  0  0  0  0  0  0  0  0  0
    2.8628    0.9426    0.0000 C   0  0  0  0  0  0  0  0  0  0  0  0
    2.0736    2.0147    0.0000 C   0  0  0  0  0  0  0  0  0  0  0  0
    1.5905    1.3549    0.0000 C   0  0  0  0  0  0  0  0  0  0  0  0
    3.5934    0.5301    0.0000 C   0  0  0  0  0  0  0  0  0  0  0  0
    3.5934    2.1561    0.0000 C   0  0  0  0  0  0  0  0  0  0  0  0
    0.7658    1.4491    0.0000 C   0  0  0  0  0  0  0  0  0  0  0  0
    5.1485    0.9308    0.0000 C   0  0  0  0  0  0  0  0  0  0  0  0
    4.7480    0.2474    0.0000 C   0  0  0  0  0  0  0  0  0  0  0  0
    0.4241    2.1914    0.0000 C   0  0  0  0  0  0  0  0  0  0  0  0
    1.7436    2.7686    0.0000 C   0  0  0  0  0  0  0  0  0  0  0  0
    0.2827    0.7777    0.0000 C   0  0  0  0  0  0  0  0  0  0  0  0
    0.9190    2.8511    0.0000 C   0  0  0  0  0  0  0  0  0  0  0  0
   -0.5537    0.8719    0.0000 C   0  0  0  0  0  0  0  0  0  0  0  0
   -0.4006    2.2739    0.0000 C   0  0  0  0  0  0  0  0  0  0  0  0
   -1.0486    0.1767    0.0000 C   0  0  0  0  0  0  0  0  0  0  0  0
   -1.8850    0.2592    0.0000 C   0  0  0  0  0  0  0  0  0  0  0  0
   -2.3681   -0.4006    0.0000 C   0  0  0  0  0  0  0  0  0  0  0  0
   -0.7187   -0.5772    0.0000 C   0  0  0  0  0  0  0  0  0  0  0  0
   -2.0383   -1.1546    0.0000 C   0  0  0  0  0  0  0  0  0  0  0  0
   -1.2017   -1.2371    0.0000 C   0  0  0  0  0  0  0  0  0  0  0  0
   -3.5581    0.4241    0.0000 C   0  0  0  0  0  0  0  0  0  0  0  0
   -3.3460   -1.7436    0.0000 C   0  0  0  0  0  0  0  0  0  0  0  0
   -4.3709    0.5301    0.0000 C   0  0  0  0  0  0  0  0  0  0  0  0
   -3.8408   -2.4034    0.0000 C   0  0  0  0  0  0  0  0  0  0  0  0
   -4.7951   -0.2002    0.0000 C   0  0  0  0  0  0  0  0  0  0  0  0
   -5.1485   -3.0042    0.0000 C   0  0  0  0  0  0  0  0  0  0  0  0
   -5.0189   -1.5551    0.0000 C   0  0  0  0  0  0  0  0  0  0  0  0
  1 15  2  0  0  0  0
  2 29  1  0  0  0  0
  2 32  1  0  0  0  0
  3 31  2  0  0  0  0
  4 11  1  0  0  0  0
  4 13  1  0  0  0  0
  5  9  1  0  0  0  0
  5 15  1  0  0  0  0
  6 23  2  0  0  0  0
  6 24  1  0  0  0  0
  7 27  1  0  0  0  0
  7 31  1  0  0  0  0
  8 34  1  0  0  0  0
  8 36  1  0  0  0  0
  8 37  1  0  0  0  0
  9 14  1  0  0  0  0
  9 17  1  0  0  0  0
  9 18  1  0  0  0  0
 10 11  2  0  0  0  0
 10 12  1  0  0  0  0
 10 15  1  0  0  0  0
 11 14  1  0  0  0  0
 12 13  2  0  0  0  0
 12 20  1  0  0  0  0
 13 16  1  0  0  0  0
 16 19  1  0  0  0  0
 16 21  2  0  0  0  0
 17 18  1  0  0  0  0
 19 22  1  0  0  0  0
 19 24  2  0  0  0  0
 20 22  1  0  0  0  0
 21 23  1  0  0  0  0
 23 25  1  0  0  0  0
 25 26  2  0  0  0  0
 25 28  1  0  0  0  0
 26 27  1  0  0  0  0
 27 29  2  0  0  0  0
 28 30  2  0  0  0  0
 29 30  1  0  0  0  0
 31 33  1  0  0  0  0
 32 34  1  0  0  0  0
 33 35  2  0  0  0  0
M  END
> <PUBCHEM_COMPOUND_ID_TYPE>
0

> <PUBCHEM_TOTAL_CHARGE>
0

> <PUBCHEM_SUBSTANCE_ID>
310944944

> <PUBCHEM_SUBSTANCE_VERSION>
1

> <PUBCHEM_EXT_DATASOURCE_NAME>
4488

> <PUBCHEM_EXT_DATASOURCE_REGID>
SCHEMBL16123029

> <PUBCHEM_SUBSTANCE_COMMENT>
InChI=1S/C29H31N5O3/c1-4-25(35)31-22-13-17(6-8-24(22)37-12-11-34(2)3)21-14-20-18(16-30-21)5-7-19-26-23(32-27(19)20)15-29(9-10-29)33-28(26)36/h4,6,8,13-14,16,32H,1,5,7,9-12,15H2,2-3H3,(H,31,35)(H,33,36)
InChIKey=ZOKJHTPRPOSFJQ-UHFFFAOYSA-N

> <PUBCHEM_SUBSTANCE_SYNONYM>
SCHEMBL16123029

> <PUBCHEM_XREF_EXT_ID>
SCHEMBL16123029

> <PUBCHEM_EXT_DATASOURCE_URL>
https://www.surechembl.org/

> <PUBCHEM_EXT_SUBSTANCE_URL>
https://www.surechembl.org/chemical/SCHEMBL16123029

> <PUBCHEM_CID_ASSOCIATIONS>
86300751  1

> <PUBCHEM_COORDINATE_TYPE>
1
3

$$$$
