310944214
  -OEChem-07211613022D

 30 32  0     0  0  0  0  0  0999 V2000
    0.0074    4.1047    0.0000 F   0  0  0  0  0  0  0  0  0  0  0  0
   -0.0222   -4.1047    0.0000 F   0  0  0  0  0  0  0  0  0  0  0  0
    2.1897    3.6446    0.0000 N   0  0  0  0  0  0  0  0  0  0  0  0
   -2.1897    3.6000    0.0000 N   0  0  0  0  0  0  0  0  0  0  0  0
   -2.1897   -3.6297    0.0000 N   0  0  0  0  0  0  0  0  0  0  0  0
    2.1155   -3.7188    0.0000 N   0  0  0  0  0  0  0  0  0  0  0  0
   -0.0074    0.8536    0.0000 C   0  0  0  0  0  0  0  0  0  0  0  0
    0.0074   -0.7646    0.0000 C   0  0  0  0  0  0  0  0  0  0  0  0
    0.0074    1.6701    0.0000 C   0  0  0  0  0  0  0  0  0  0  0  0
    0.0074   -1.6256    0.0000 C   0  0  0  0  0  0  0  0  0  0  0  0
   -0.7200    0.4379    0.0000 C   0  0  0  0  0  0  0  0  0  0  0  0
    0.7200   -0.3489    0.0000 C   0  0  0  0  0  0  0  0  0  0  0  0
    0.7348    0.4379    0.0000 C   0  0  0  0  0  0  0  0  0  0  0  0
   -0.7051   -0.3637    0.0000 C   0  0  0  0  0  0  0  0  0  0  0  0
    0.7348    2.9171    0.0000 C   0  0  0  0  0  0  0  0  0  0  0  0
   -0.7200    2.9023    0.0000 C   0  0  0  0  0  0  0  0  0  0  0  0
    0.7200    2.0858    0.0000 C   0  0  0  0  0  0  0  0  0  0  0  0
   -0.7051    2.0710    0.0000 C   0  0  0  0  0  0  0  0  0  0  0  0
   -0.7348   -2.8281    0.0000 C   0  0  0  0  0  0  0  0  0  0  0  0
    0.6903   -2.8578    0.0000 C   0  0  0  0  0  0  0  0  0  0  0  0
   -0.7051   -1.9967    0.0000 C   0  0  0  0  0  0  0  0  0  0  0  0
    0.6903   -2.0264    0.0000 C   0  0  0  0  0  0  0  0  0  0  0  0
   -0.0222    3.3031    0.0000 C   0  0  0  0  0  0  0  0  0  0  0  0
   -0.0371   -3.2437    0.0000 C   0  0  0  0  0  0  0  0  0  0  0  0
   -1.4623    0.8388    0.0000 C   0  0  0  0  0  0  0  0  0  0  0  0
    1.5068   -0.7646    0.0000 C   0  0  0  0  0  0  0  0  0  0  0  0
    1.4623    3.2883    0.0000 C   0  0  0  0  0  0  0  0  0  0  0  0
   -1.4623    3.2734    0.0000 C   0  0  0  0  0  0  0  0  0  0  0  0
   -1.4919   -3.2437    0.0000 C   0  0  0  0  0  0  0  0  0  0  0  0
    1.4177   -3.3031    0.0000 C   0  0  0  0  0  0  0  0  0  0  0  0
  1 23  1  0  0  0  0
  2 24  1  0  0  0  0
  3 27  3  0  0  0  0
  4 28  3  0  0  0  0
  5 29  3  0  0  0  0
  6 30  3  0  0  0  0
  7  9  1  0  0  0  0
  7 11  2  0  0  0  0
  7 13  1  0  0  0  0
  8 10  1  0  0  0  0
  8 12  1  0  0  0  0
  8 14  2  0  0  0  0
  9 17  2  0  0  0  0
  9 18  1  0  0  0  0
 10 21  2  0  0  0  0
 10 22  1  0  0  0  0
 11 14  1  0  0  0  0
 11 25  1  0  0  0  0
 12 13  2  0  0  0  0
 12 26  1  0  0  0  0
 15 17  1  0  0  0  0
 15 23  2  0  0  0  0
 15 27  1  0  0  0  0
 16 18  2  0  0  0  0
 16 23  1  0  0  0  0
 16 28  1  0  0  0  0
 19 21  1  0  0  0  0
 19 24  2  0  0  0  0
 19 29  1  0  0  0  0
 20 22  2  0  0  0  0
 20 24  1  0  0  0  0
 20 30  1  0  0  0  0
M  END
> <PUBCHEM_COMPOUND_ID_TYPE>
0

> <PUBCHEM_TOTAL_CHARGE>
0

> <PUBCHEM_SUBSTANCE_ID>
310944214

> <PUBCHEM_SUBSTANCE_VERSION>
1

> <PUBCHEM_EXT_DATASOURCE_NAME>
4488

> <PUBCHEM_EXT_DATASOURCE_REGID>
SCHEMBL16122289

> <PUBCHEM_SUBSTANCE_COMMENT>
InChI=1S/C24H12F2N4/c1-13-3-22(16-7-19(11-29)24(26)20(8-16)12-30)14(2)4-21(13)15-5-17(9-27)23(25)18(6-15)10-28/h3-8H,1-2H3
InChIKey=OQJJPYDZTZPLAG-UHFFFAOYSA-N

> <PUBCHEM_SUBSTANCE_SYNONYM>
SCHEMBL16122289

> <PUBCHEM_XREF_EXT_ID>
SCHEMBL16122289

> <PUBCHEM_EXT_DATASOURCE_URL>
https://www.surechembl.org/

> <PUBCHEM_EXT_SUBSTANCE_URL>
https://www.surechembl.org/chemical/SCHEMBL16122289

> <PUBCHEM_CID_ASSOCIATIONS>
117610485  1

> <PUBCHEM_COORDINATE_TYPE>
1
3

$$$$
