310943811
  -OEChem-07211613022D

 33 37  0     1  0  0  0  0  0999 V2000
    2.2438    1.2947    0.0000 O   0  0  0  0  0  0  0  0  0  0  0  0
    5.5026   -0.2634    0.0000 O   0  0  0  0  0  0  0  0  0  0  0  0
    6.1170    1.2618    0.0000 O   0  0  0  0  0  0  0  0  0  0  0  0
   -1.1685   -1.1850    0.0000 O   0  0  0  0  0  0  0  0  0  0  0  0
    2.9351   -0.2085    0.0000 N   0  0  0  0  0  0  0  0  0  0  0  0
    0.0603    0.1317    0.0000 N   0  0  0  0  0  0  0  0  0  0  0  0
   -3.6373   -1.0534    0.0000 N   0  0  0  0  0  0  0  0  0  0  0  0
   -4.8222   -0.3840    0.0000 N   0  0  0  0  0  0  0  0  0  0  0  0
   -5.2502    0.3182    0.0000 N   0  0  0  0  0  0  0  0  0  0  0  0
   -6.0512    0.1207    0.0000 N   0  0  0  0  0  0  0  0  0  0  0  0
   -6.1170   -0.6913    0.0000 N   0  0  0  0  0  0  0  0  0  0  0  0
    1.5525   -0.1536    0.0000 C   0  0  0  0  0  0  0  0  0  0  0  0
    2.2548    0.2962    0.0000 C   0  0  0  0  0  0  0  0  0  0  0  0
    4.0542    0.0658    0.0000 C   0  0  0  0  0  0  0  0  0  0  0  0
    1.7830   -0.9656    0.0000 C   0  0  0  0  0  0  0  0  0  0  0  0
    2.6388   -0.9984    0.0000 C   0  0  0  0  0  0  0  0  0  0  0  0
    1.0478   -0.7242    0.0000 C   0  0  0  0  0  0  0  0  0  0  0  0
    1.3112    0.5486    0.0000 C   0  0  0  0  0  0  0  0  0  0  0  0
    4.5151    0.8668    0.0000 C   0  0  0  0  0  0  0  0  0  0  0  0
    4.6467   -0.6144    0.0000 C   0  0  0  0  0  0  0  0  0  0  0  0
    5.4038    0.6474    0.0000 C   0  0  0  0  0  0  0  0  0  0  0  0
    0.3017   -0.5705    0.0000 C   0  0  0  0  0  0  0  0  0  0  0  0
    0.5541    0.7022    0.0000 C   0  0  0  0  0  0  0  0  0  0  0  0
   -2.4742   -0.3621    0.0000 C   0  0  0  0  0  0  0  0  0  0  0  0
   -0.9820    0.2634    0.0000 C   0  0  0  0  0  0  0  0  0  0  0  0
   -1.5416   -0.3731    0.0000 C   0  0  3  0  0  0  0  0  0  0  0  0
   -2.8582   -1.0534    0.0000 C   0  0  0  0  0  0  0  0  0  0  0  0
   -4.0433   -0.3731    0.0000 C   0  0  0  0  0  0  0  0  0  0  0  0
    4.1420    1.7336    0.0000 C   0  0  0  0  0  0  0  0  0  0  0  0
   -2.8473    0.2962    0.0000 C   0  0  0  0  0  0  0  0  0  0  0  0
   -3.6373    0.3073    0.0000 C   0  0  0  0  0  0  0  0  0  0  0  0
   -5.3490   -0.9875    0.0000 C   0  0  0  0  0  0  0  0  0  0  0  0
   -2.4523   -1.7336    0.0000 C   0  0  0  0  0  0  0  0  0  0  0  0
  1 13  2  0  0  0  0
  2 20  1  0  0  0  0
  2 21  1  0  0  0  0
  3 21  2  0  0  0  0
 26  4  1  1  0  0  0
  5 13  1  0  0  0  0
  5 14  1  0  0  0  0
  5 16  1  0  0  0  0
  6 22  1  0  0  0  0
  6 23  1  0  0  0  0
  6 25  1  0  0  0  0
  7 27  2  0  0  0  0
  7 28  1  0  0  0  0
  8  9  1  0  0  0  0
  8 28  1  0  0  0  0
  8 32  1  0  0  0  0
  9 10  2  0  0  0  0
 10 11  1  0  0  0  0
 11 32  2  0  0  0  0
 12 13  1  0  0  0  0
 12 15  1  0  0  0  0
 12 17  1  0  0  0  0
 12 18  1  0  0  0  0
 14 19  2  0  0  0  0
 14 20  1  0  0  0  0
 15 16  1  0  0  0  0
 17 22  1  0  0  0  0
 18 23  1  0  0  0  0
 19 21  1  0  0  0  0
 19 29  1  0  0  0  0
 24 26  1  0  0  0  0
 24 27  1  0  0  0  0
 24 30  2  0  0  0  0
 25 26  1  0  0  0  0
 27 33  1  0  0  0  0
 28 31  2  0  0  0  0
 30 31  1  0  0  0  0
M  END
> <PUBCHEM_COMPOUND_ID_TYPE>
0

> <PUBCHEM_TOTAL_CHARGE>
0

> <PUBCHEM_SUBSTANCE_ID>
310943811

> <PUBCHEM_SUBSTANCE_VERSION>
1

> <PUBCHEM_EXT_DATASOURCE_NAME>
4488

> <PUBCHEM_EXT_DATASOURCE_REGID>
SCHEMBL16121882

> <PUBCHEM_SUBSTANCE_COMMENT>
InChI=1S/C22H27N7O4/c1-14-17(12-33-20(14)31)28-10-7-22(21(28)32)5-8-27(9-6-22)11-18(30)16-3-4-19(24-15(16)2)29-13-23-25-26-29/h3-4,13,18,30H,5-12H2,1-2H3/t18-/m1/s1
InChIKey=NGFBKDPOBMEYCD-GOSISDBHSA-N

> <PUBCHEM_SUBSTANCE_SYNONYM>
SCHEMBL16121882

> <PUBCHEM_XREF_EXT_ID>
SCHEMBL16121882

> <PUBCHEM_EXT_DATASOURCE_URL>
https://www.surechembl.org/

> <PUBCHEM_EXT_SUBSTANCE_URL>
https://www.surechembl.org/chemical/SCHEMBL16121882

> <PUBCHEM_CID_ASSOCIATIONS>
86271079  1

> <PUBCHEM_COORDINATE_TYPE>
1
3

> <PUBCHEM_BONDANNOTATIONS>
26  4  5

$$$$
