310948766
  -OEChem-07211613022D

 25 28  0     1  0  0  0  0  0999 V2000
   -0.4285   -2.5503    0.0000 O   0  0  0  0  0  0  0  0  0  0  0  0
    1.0782   -0.2143    0.0000 N   0  0  0  0  0  0  0  0  0  0  0  0
    1.5758   -0.8915    0.0000 N   0  0  0  0  0  0  0  0  0  0  0  0
   -1.1473   -1.3063    0.0000 N   0  0  0  0  0  0  0  0  0  0  0  0
    1.3408   -2.3429    0.0000 N   0  0  0  0  0  0  0  0  0  0  0  0
    3.2622   -0.4769    0.0000 N   0  0  0  0  0  0  0  0  0  0  0  0
    0.3041   -0.4630    0.0000 C   0  0  0  0  0  0  0  0  0  0  0  0
    1.8522    2.1494    0.0000 C   0  0  0  0  0  0  0  0  0  0  0  0
    0.2765   -1.2924    0.0000 C   0  0  0  0  0  0  0  0  0  0  0  0
    1.3408    0.5737    0.0000 C   0  0  3  0  0  0  0  0  0  0  0  0
    1.0782   -1.5550    0.0000 C   0  0  0  0  0  0  0  0  0  0  0  0
    2.1425    0.7395    0.0000 C   0  0  3  0  0  0  0  0  0  0  0  0
   -0.4285   -1.7071    0.0000 C   0  0  0  0  0  0  0  0  0  0  0  0
    2.4051    1.5136    0.0000 C   0  0  0  0  0  0  0  0  0  0  0  0
    1.7002    2.9373    0.0000 C   0  0  0  0  0  0  0  0  0  0  0  0
    2.4466    2.6885    0.0000 C   0  0  0  0  0  0  0  0  0  0  0  0
    1.0505    1.9559    0.0000 C   0  0  0  0  0  0  0  0  0  0  0  0
    0.7879    1.1680    0.0000 C   0  0  0  0  0  0  0  0  0  0  0  0
   -0.4423   -0.0622    0.0000 C   0  0  0  0  0  0  0  0  0  0  0  0
   -1.1335   -0.4630    0.0000 C   0  0  0  0  0  0  0  0  0  0  0  0
    2.7092    0.1175    0.0000 C   0  0  0  0  0  0  0  0  0  0  0  0
   -1.1196   -2.9373    0.0000 C   0  0  0  0  0  0  0  0  0  0  0  0
   -1.8246   -2.5088    0.0000 C   0  0  0  0  0  0  0  0  0  0  0  0
   -2.5434   -2.9235    0.0000 C   0  0  0  0  0  0  0  0  0  0  0  0
   -3.2622   -2.4950    0.0000 C   0  0  0  0  0  0  0  0  0  0  0  0
  1 13  1  0  0  0  0
  1 22  1  0  0  0  0
  2  3  1  0  0  0  0
  2  7  1  0  0  0  0
 10  2  1  1  0  0  0
  3 11  2  0  0  0  0
  4 13  2  0  0  0  0
  4 20  1  0  0  0  0
  5 11  1  0  0  0  0
  6 21  3  0  0  0  0
  7  9  2  0  0  0  0
  7 19  1  0  0  0  0
  8 14  1  0  0  0  0
  8 15  1  0  0  0  0
  8 16  1  0  0  0  0
  8 17  1  0  0  0  0
  9 11  1  0  0  0  0
  9 13  1  0  0  0  0
 10 12  1  0  0  0  0
 10 18  1  0  0  0  0
 12 14  1  0  0  0  0
 12 21  1  6  0  0  0
 15 16  1  0  0  0  0
 17 18  1  0  0  0  0
 19 20  2  0  0  0  0
 22 23  1  0  0  0  0
 23 24  1  0  0  0  0
 24 25  1  0  0  0  0
M  END
> <PUBCHEM_COMPOUND_ID_TYPE>
0

> <PUBCHEM_TOTAL_CHARGE>
0

> <PUBCHEM_SUBSTANCE_ID>
310948766

> <PUBCHEM_SUBSTANCE_VERSION>
1

> <PUBCHEM_EXT_DATASOURCE_NAME>
4488

> <PUBCHEM_EXT_DATASOURCE_REGID>
SCHEMBL16126950

> <PUBCHEM_SUBSTANCE_COMMENT>
InChI=1S/C19H25N5O/c1-2-3-10-25-18-16-15(5-9-22-18)24(23-17(16)21)14-4-6-19(7-8-19)11-13(14)12-20/h5,9,13-14H,2-4,6-8,10-11H2,1H3,(H2,21,23)/t13-,14+/m1/s1
InChIKey=YXMZQPLNXKBWDW-KGLIPLIRSA-N

> <PUBCHEM_SUBSTANCE_SYNONYM>
SCHEMBL16126950

> <PUBCHEM_XREF_EXT_ID>
SCHEMBL16126950

> <PUBCHEM_EXT_DATASOURCE_URL>
https://www.surechembl.org/

> <PUBCHEM_EXT_SUBSTANCE_URL>
https://www.surechembl.org/chemical/SCHEMBL16126950

> <PUBCHEM_CID_ASSOCIATIONS>
117614308  1

> <PUBCHEM_COORDINATE_TYPE>
1
3

> <PUBCHEM_BONDANNOTATIONS>
12  21  6
10  2  5

$$$$
