310949584
  -OEChem-07211613022D

 31 34  0     1  0  0  0  0  0999 V2000
   -2.3391    2.7630    0.0000 Cl  0  0  0  0  0  0  0  0  0  0  0  0
   -4.1811    1.2280    0.0000 F   0  0  0  0  0  0  0  0  0  0  0  0
   -4.4880    2.3683    0.0000 F   0  0  0  0  0  0  0  0  0  0  0  0
   -3.3623    2.6607    0.0000 F   0  0  0  0  0  0  0  0  0  0  0  0
   -0.9210    2.7630    0.0000 O   0  0  0  0  0  0  0  0  0  0  0  0
    2.0027    0.4532    0.0000 N   0  0  0  0  0  0  0  0  0  0  0  0
   -0.2046    1.5350    0.0000 N   0  0  0  0  0  0  0  0  0  0  0  0
    2.0027    1.7981    0.0000 N   0  0  0  0  0  0  0  0  0  0  0  0
    2.4853    1.1257    0.0000 N   0  0  0  0  0  0  0  0  0  0  0  0
    3.0554   -0.5994    0.0000 N   0  0  0  0  0  0  0  0  0  0  0  0
    3.0554   -1.4327    0.0000 N   0  0  0  0  0  0  0  0  0  0  0  0
    1.2134    0.7017    0.0000 C   0  0  0  0  0  0  0  0  0  0  0  0
    1.2280    1.5350    0.0000 C   0  0  0  0  0  0  0  0  0  0  0  0
   -0.9210    1.9296    0.0000 C   0  0  0  0  0  0  0  0  0  0  0  0
   -0.2046    0.7017    0.0000 C   0  0  3  0  0  0  0  0  0  0  0  0
    0.5117    1.9443    0.0000 C   0  0  0  0  0  0  0  0  0  0  0  0
   -1.6227    1.5204    0.0000 C   0  0  0  0  0  0  0  0  0  0  0  0
    2.2660   -0.3362    0.0000 C   0  0  0  0  0  0  0  0  0  0  0  0
    0.4971    0.2923    0.0000 C   0  0  0  0  0  0  0  0  0  0  0  0
   -2.3391    1.9296    0.0000 C   0  0  0  0  0  0  0  0  0  0  0  0
   -3.0554    1.5204    0.0000 C   0  0  0  0  0  0  0  0  0  0  0  0
   -3.7718    1.9443    0.0000 C   0  0  0  0  0  0  0  0  0  0  0  0
    1.7981   -1.0380    0.0000 C   0  0  0  0  0  0  0  0  0  0  0  0
   -1.6373    0.7017    0.0000 C   0  0  0  0  0  0  0  0  0  0  0  0
   -3.0554    0.7017    0.0000 C   0  0  0  0  0  0  0  0  0  0  0  0
    2.2806   -1.6812    0.0000 C   0  0  0  0  0  0  0  0  0  0  0  0
   -2.3245    0.2923    0.0000 C   0  0  0  0  0  0  0  0  0  0  0  0
   -0.8772    0.3069    0.0000 C   0  0  0  0  0  0  0  0  0  0  0  0
    3.7279   -1.9150    0.0000 C   0  0  0  0  0  0  0  0  0  0  0  0
    4.4880   -1.5935    0.0000 C   0  0  0  0  0  0  0  0  0  0  0  0
    3.6548   -2.7630    0.0000 C   0  0  0  0  0  0  0  0  0  0  0  0
  1 20  1  0  0  0  0
  2 22  1  0  0  0  0
  3 22  1  0  0  0  0
  4 22  1  0  0  0  0
  5 14  2  0  0  0  0
  6  9  1  0  0  0  0
  6 12  1  0  0  0  0
  6 18  1  0  0  0  0
  7 14  1  0  0  0  0
  7 15  1  0  0  0  0
  7 16  1  0  0  0  0
  8  9  2  0  0  0  0
  8 13  1  0  0  0  0
 10 11  1  0  0  0  0
 10 18  2  0  0  0  0
 11 26  1  0  0  0  0
 11 29  1  0  0  0  0
 12 13  2  0  0  0  0
 12 19  1  0  0  0  0
 13 16  1  0  0  0  0
 14 17  1  0  0  0  0
 15 19  1  0  0  0  0
 15 28  1  6  0  0  0
 17 20  2  0  0  0  0
 17 24  1  0  0  0  0
 18 23  1  0  0  0  0
 20 21  1  0  0  0  0
 21 22  1  0  0  0  0
 21 25  2  0  0  0  0
 23 26  2  0  0  0  0
 24 27  2  0  0  0  0
 25 27  1  0  0  0  0
 29 30  1  0  0  0  0
 29 31  1  0  0  0  0
M  END
> <PUBCHEM_COMPOUND_ID_TYPE>
0

> <PUBCHEM_TOTAL_CHARGE>
0

> <PUBCHEM_SUBSTANCE_ID>
310949584

> <PUBCHEM_SUBSTANCE_VERSION>
1

> <PUBCHEM_EXT_DATASOURCE_NAME>
4488

> <PUBCHEM_EXT_DATASOURCE_REGID>
SCHEMBL16127781

> <PUBCHEM_SUBSTANCE_COMMENT>
InChI=1S/C20H20ClF3N6O/c1-11(2)29-8-7-17(26-29)30-16-9-12(3)28(10-15(16)25-27-30)19(31)13-5-4-6-14(18(13)21)20(22,23)24/h4-8,11-12H,9-10H2,1-3H3/t12-/m0/s1
InChIKey=OFAYNEVBDADOQR-LBPRGKRZSA-N

> <PUBCHEM_SUBSTANCE_SYNONYM>
SCHEMBL16127781

> <PUBCHEM_XREF_EXT_ID>
SCHEMBL16127781

> <PUBCHEM_EXT_DATASOURCE_URL>
https://www.surechembl.org/

> <PUBCHEM_EXT_SUBSTANCE_URL>
https://www.surechembl.org/chemical/SCHEMBL16127781

> <PUBCHEM_CID_ASSOCIATIONS>
117614991  1

> <PUBCHEM_COORDINATE_TYPE>
1
3

> <PUBCHEM_BONDANNOTATIONS>
15  28  6

$$$$
