310948672
  -OEChem-07211613022D

 36 39  0     1  0  0  0  0  0999 V2000
    0.2355   -2.6530    0.0000 S   0  0  0  0  0  0  0  0  0  0  0  0
   -1.8149    1.9464    0.0000 O   0  0  0  0  0  0  0  0  0  0  0  0
    1.0252   -2.3897    0.0000 O   0  0  0  0  0  0  0  0  0  0  0  0
   -0.5403   -2.9024    0.0000 O   0  0  0  0  0  0  0  0  0  0  0  0
    3.4496    3.2626    0.0000 O   0  0  0  0  0  0  0  0  0  0  0  0
    0.9282    1.8080    0.0000 N   0  0  0  0  0  0  0  0  0  0  0  0
    0.5957    1.0460    0.0000 N   0  0  0  0  0  0  0  0  0  0  0  0
   -0.7758    0.5195    0.0000 N   0  0  0  0  0  0  0  0  0  0  0  0
   -1.1083    3.2072    0.0000 N   0  0  0  0  0  0  0  0  0  0  0  0
    2.1751   -0.2286    0.0000 N   0  0  0  0  0  0  0  0  0  0  0  0
   -0.3879    1.9603    0.0000 C   0  0  0  0  0  0  0  0  0  0  0  0
    0.3048    2.3760    0.0000 C   0  0  0  0  0  0  0  0  0  0  0  0
   -0.2355    1.1706    0.0000 C   0  0  0  0  0  0  0  0  0  0  0  0
    1.7317    1.9880    0.0000 C   0  0  3  0  0  0  0  0  0  0  0  0
   -1.1222    2.3760    0.0000 C   0  0  0  0  0  0  0  0  0  0  0  0
    2.3552    1.4478    0.0000 C   0  0  3  0  0  0  0  0  0  0  0  0
    0.3187    3.2072    0.0000 C   0  0  0  0  0  0  0  0  0  0  0  0
    2.0781    2.7362    0.0000 C   0  0  0  0  0  0  0  0  0  0  0  0
   -0.5126   -0.2701    0.0000 C   0  0  0  0  0  0  0  0  0  0  0  0
   -0.0139   -1.8495    0.0000 C   0  0  0  0  0  0  0  0  0  0  0  0
    2.8816    2.6392    0.0000 C   0  0  3  0  0  0  0  0  0  0  0  0
   -0.4156    3.6228    0.0000 C   0  0  0  0  0  0  0  0  0  0  0  0
    3.0617    1.8495    0.0000 C   0  0  0  0  0  0  0  0  0  0  0  0
    0.4710   -3.4288    0.0000 C   0  0  0  0  0  0  0  0  0  0  0  0
   -1.0668   -0.8935    0.0000 C   0  0  0  0  0  0  0  0  0  0  0  0
    0.2771   -0.4364    0.0000 C   0  0  0  0  0  0  0  0  0  0  0  0
   -0.8174   -1.6694    0.0000 C   0  0  0  0  0  0  0  0  0  0  0  0
    0.5264   -1.2399    0.0000 C   0  0  0  0  0  0  0  0  0  0  0  0
    2.2582    0.5888    0.0000 C   0  0  0  0  0  0  0  0  0  0  0  0
   -2.5214    2.2651    0.0000 C   0  0  0  0  0  0  0  0  0  0  0  0
   -0.3325   -3.5674    0.0000 C   0  0  0  0  0  0  0  0  0  0  0  0
    1.3161   -3.5951    0.0000 C   0  0  0  0  0  0  0  0  0  0  0  0
    0.4988   -4.2739    0.0000 C   0  0  0  0  0  0  0  0  0  0  0  0
   -2.6045    3.0963    0.0000 C   0  0  0  0  0  0  0  0  0  0  0  0
   -3.3665    3.4288    0.0000 C   0  0  0  0  0  0  0  0  0  0  0  0
   -3.4496    4.2739    0.0000 C   0  0  0  0  0  0  0  0  0  0  0  0
  1  3  2  0  0  0  0
  1  4  2  0  0  0  0
  1 20  1  0  0  0  0
  1 24  1  0  0  0  0
  2 15  1  0  0  0  0
  2 30  1  0  0  0  0
  5 21  1  0  0  0  0
  6  7  1  0  0  0  0
  6 12  1  0  0  0  0
  6 14  1  0  0  0  0
  7 13  2  0  0  0  0
  8 13  1  0  0  0  0
  8 19  1  0  0  0  0
  9 15  2  0  0  0  0
  9 22  1  0  0  0  0
 10 29  3  0  0  0  0
 11 12  2  0  0  0  0
 11 13  1  0  0  0  0
 11 15  1  0  0  0  0
 12 17  1  0  0  0  0
 14 16  1  0  0  0  0
 14 18  1  1  0  0  0
 16 23  1  0  0  0  0
 16 29  1  1  0  0  0
 17 22  2  0  0  0  0
 18 21  1  0  0  0  0
 19 25  2  0  0  0  0
 19 26  1  0  0  0  0
 20 27  2  0  0  0  0
 20 28  1  0  0  0  0
 21 23  1  0  0  0  0
 24 31  1  0  0  0  0
 24 32  1  0  0  0  0
 24 33  1  0  0  0  0
 25 27  1  0  0  0  0
 26 28  2  0  0  0  0
 30 34  1  0  0  0  0
 34 35  1  0  0  0  0
 35 36  1  0  0  0  0
M  END
> <PUBCHEM_COMPOUND_ID_TYPE>
0

> <PUBCHEM_TOTAL_CHARGE>
0

> <PUBCHEM_SUBSTANCE_ID>
310948672

> <PUBCHEM_SUBSTANCE_VERSION>
1

> <PUBCHEM_EXT_DATASOURCE_NAME>
4488

> <PUBCHEM_EXT_DATASOURCE_REGID>
SCHEMBL16126856

> <PUBCHEM_SUBSTANCE_COMMENT>
InChI=1S/C26H33N5O4S/c1-5-6-13-35-25-23-21(11-12-28-25)31(22-15-19(32)14-17(22)16-27)30-24(23)29-18-7-9-20(10-8-18)36(33,34)26(2,3)4/h7-12,17,19,22,32H,5-6,13-15H2,1-4H3,(H,29,30)/t17-,19?,22-/m0/s1
InChIKey=WQEPSPDDYGYGGU-RLPNNEDTSA-N

> <PUBCHEM_SUBSTANCE_SYNONYM>
SCHEMBL16126856

> <PUBCHEM_XREF_EXT_ID>
SCHEMBL16126856

> <PUBCHEM_EXT_DATASOURCE_URL>
https://www.surechembl.org/

> <PUBCHEM_EXT_SUBSTANCE_URL>
https://www.surechembl.org/chemical/SCHEMBL16126856

> <PUBCHEM_CID_ASSOCIATIONS>
117614213  1

> <PUBCHEM_COORDINATE_TYPE>
1
3

> <PUBCHEM_BONDANNOTATIONS>
14  18  5
16  29  5

$$$$
