310933068
  -OEChem-07211613022D

 29 31  0     0  0  0  0  0  0999 V2000
   -3.0686    2.3800    0.0000 O   0  0  0  0  0  0  0  0  0  0  0  0
    0.7145    3.7125    0.0000 O   0  0  0  0  0  0  0  0  0  0  0  0
    5.0013    2.8875    0.0000 O   0  0  0  0  0  0  0  0  0  0  0  0
   -2.1434    1.2375    0.0000 N   0  0  0  0  0  0  0  0  0  0  0  0
   -2.2296    0.4170    0.0000 N   0  0  0  0  0  0  0  0  0  0  0  0
   -0.7145    1.2375    0.0000 N   0  0  0  0  0  0  0  0  0  0  0  0
    1.4289    2.4750    0.0000 N   0  0  0  0  0  0  0  0  0  0  0  0
   -7.5515    1.3911    0.0000 N   0  0  0  0  0  0  0  0  0  0  0  0
   -3.4491    0.9600    0.0000 C   0  0  0  0  0  0  0  0  0  0  0  0
   -2.8971    1.5731    0.0000 C   0  0  0  0  0  0  0  0  0  0  0  0
   -4.2696    1.0462    0.0000 C   0  0  0  0  0  0  0  0  0  0  0  0
   -1.4289    1.6500    0.0000 C   0  0  0  0  0  0  0  0  0  0  0  0
   -3.0366    0.2455    0.0000 C   0  0  0  0  0  0  0  0  0  0  0  0
   -4.7545    0.3788    0.0000 C   0  0  0  0  0  0  0  0  0  0  0  0
   -4.6052    1.7999    0.0000 C   0  0  0  0  0  0  0  0  0  0  0  0
   -1.4289    2.4750    0.0000 C   0  0  0  0  0  0  0  0  0  0  0  0
   -0.0000    2.4750    0.0000 C   0  0  0  0  0  0  0  0  0  0  0  0
   -5.5750    0.4650    0.0000 C   0  0  0  0  0  0  0  0  0  0  0  0
   -5.9106    1.2187    0.0000 C   0  0  0  0  0  0  0  0  0  0  0  0
   -0.0000    1.6500    0.0000 C   0  0  0  0  0  0  0  0  0  0  0  0
   -0.7145    2.8875    0.0000 C   0  0  0  0  0  0  0  0  0  0  0  0
   -5.4256    1.8861    0.0000 C   0  0  0  0  0  0  0  0  0  0  0  0
    0.7145    2.8875    0.0000 C   0  0  0  0  0  0  0  0  0  0  0  0
   -4.4190   -0.3749    0.0000 C   0  0  0  0  0  0  0  0  0  0  0  0
   -6.7310    1.3049    0.0000 C   0  0  0  0  0  0  0  0  0  0  0  0
    2.1434    2.8875    0.0000 C   0  0  0  0  0  0  0  0  0  0  0  0
    2.8579    2.4750    0.0000 C   0  0  0  0  0  0  0  0  0  0  0  0
    3.5724    2.8875    0.0000 C   0  0  0  0  0  0  0  0  0  0  0  0
    4.2868    2.4750    0.0000 C   0  0  0  0  0  0  0  0  0  0  0  0
  1 10  1  0  0  0  0
  2 23  2  0  0  0  0
  3 29  1  0  0  0  0
  4  5  1  0  0  0  0
  4 10  1  0  0  0  0
  4 12  1  0  0  0  0
  5 13  2  0  0  0  0
  6 12  2  0  0  0  0
  6 20  1  0  0  0  0
  7 23  1  0  0  0  0
  7 26  1  0  0  0  0
  8 25  3  0  0  0  0
  9 10  2  0  0  0  0
  9 11  1  0  0  0  0
  9 13  1  0  0  0  0
 11 14  2  0  0  0  0
 11 15  1  0  0  0  0
 12 16  1  0  0  0  0
 14 18  1  0  0  0  0
 14 24  1  0  0  0  0
 15 22  2  0  0  0  0
 16 21  2  0  0  0  0
 17 20  2  0  0  0  0
 17 21  1  0  0  0  0
 17 23  1  0  0  0  0
 18 19  2  0  0  0  0
 19 22  1  0  0  0  0
 19 25  1  0  0  0  0
 26 27  1  0  0  0  0
 27 28  1  0  0  0  0
 28 29  1  0  0  0  0
M  END
> <PUBCHEM_COMPOUND_ID_TYPE>
0

> <PUBCHEM_TOTAL_CHARGE>
0

> <PUBCHEM_SUBSTANCE_ID>
310933068

> <PUBCHEM_SUBSTANCE_VERSION>
1

> <PUBCHEM_EXT_DATASOURCE_NAME>
4488

> <PUBCHEM_EXT_DATASOURCE_REGID>
SCHEMBL16110470

> <PUBCHEM_SUBSTANCE_COMMENT>
InChI=1S/C21H21N5O3/c1-14-10-15(11-22)4-6-17(14)18-13-25-26(21(18)29)19-7-5-16(12-24-19)20(28)23-8-2-3-9-27/h4-7,10,12-13,27,29H,2-3,8-9H2,1H3,(H,23,28)
InChIKey=JQRAPWDBIXNXDT-UHFFFAOYSA-N

> <PUBCHEM_SUBSTANCE_SYNONYM>
SCHEMBL16110470

> <PUBCHEM_XREF_EXT_ID>
SCHEMBL16110470

> <PUBCHEM_EXT_DATASOURCE_URL>
https://www.surechembl.org/

> <PUBCHEM_EXT_SUBSTANCE_URL>
https://www.surechembl.org/chemical/SCHEMBL16110470

> <PUBCHEM_CID_ASSOCIATIONS>
117601528  1

> <PUBCHEM_COORDINATE_TYPE>
1
3

$$$$
