310938850
  -OEChem-07211613022D

 65 75  0     0  0  0  0  0  0999 V2000
    1.8888   -8.5831    0.0000 N   0  0  0  0  0  0  0  0  0  0  0  0
   -1.6219   -4.2897    0.0000 N   0  0  0  0  0  0  0  0  0  0  0  0
    2.3387   -3.1367    0.0000 N   0  0  0  0  0  0  0  0  0  0  0  0
    0.9242   -6.7005    0.0000 C   0  0  0  0  0  0  0  0  0  0  0  0
    1.5917   -7.1854    0.0000 C   0  0  0  0  0  0  0  0  0  0  0  0
    0.2568   -7.1854    0.0000 C   0  0  0  0  0  0  0  0  0  0  0  0
    1.3367   -7.9700    0.0000 C   0  0  0  0  0  0  0  0  0  0  0  0
    0.5117   -7.9700    0.0000 C   0  0  0  0  0  0  0  0  0  0  0  0
    2.3986   -7.0139    0.0000 C   0  0  0  0  0  0  0  0  0  0  0  0
    1.6977   -5.5274    0.0000 C   0  0  0  0  0  0  0  0  0  0  0  0
    0.1282   -6.0398    0.0000 C   0  0  0  0  0  0  0  0  0  0  0  0
    2.9507   -7.6270    0.0000 C   0  0  0  0  0  0  0  0  0  0  0  0
    2.6957   -8.4116    0.0000 C   0  0  0  0  0  0  0  0  0  0  0  0
   -0.5502   -7.0139    0.0000 C   0  0  0  0  0  0  0  0  0  0  0  0
    2.9820   -6.4305    0.0000 C   0  0  0  0  0  0  0  0  0  0  0  0
   -0.0403   -8.5831    0.0000 C   0  0  0  0  0  0  0  0  0  0  0  0
    1.1148   -4.9440    0.0000 C   0  0  0  0  0  0  0  0  0  0  0  0
    0.3417   -5.2429    0.0000 C   0  0  0  0  0  0  0  0  0  0  0  0
    2.4950   -5.3139    0.0000 C   0  0  0  0  0  0  0  0  0  0  0  0
   -0.6687   -6.2533    0.0000 C   0  0  0  0  0  0  0  0  0  0  0  0
    3.7576   -7.4554    0.0000 C   0  0  0  0  0  0  0  0  0  0  0  0
   -1.1022   -7.6270    0.0000 C   0  0  0  0  0  0  0  0  0  0  0  0
   -0.8473   -8.4116    0.0000 C   0  0  0  0  0  0  0  0  0  0  0  0
    3.2478   -9.0247    0.0000 C   0  0  0  0  0  0  0  0  0  0  0  0
    1.3283   -4.1472    0.0000 C   0  0  0  0  0  0  0  0  0  0  0  0
   -0.2417   -4.6595    0.0000 C   0  0  0  0  0  0  0  0  0  0  0  0
    2.7086   -4.5170    0.0000 C   0  0  0  0  0  0  0  0  0  0  0  0
   -1.2521   -5.6699    0.0000 C   0  0  0  0  0  0  0  0  0  0  0  0
    3.7789   -6.6440    0.0000 C   0  0  0  0  0  0  0  0  0  0  0  0
    2.7685   -5.6336    0.0000 C   0  0  0  0  0  0  0  0  0  0  0  0
    2.1252   -3.9336    0.0000 C   0  0  0  0  0  0  0  0  0  0  0  0
   -1.0386   -4.8730    0.0000 C   0  0  0  0  0  0  0  0  0  0  0  0
    4.3097   -8.0685    0.0000 C   0  0  0  0  0  0  0  0  0  0  0  0
    4.0547   -8.8531    0.0000 C   0  0  0  0  0  0  0  0  0  0  0  0
    4.3623   -6.0607    0.0000 C   0  0  0  0  0  0  0  0  0  0  0  0
    3.3518   -5.0502    0.0000 C   0  0  0  0  0  0  0  0  0  0  0  0
    4.1487   -5.2638    0.0000 C   0  0  0  0  0  0  0  0  0  0  0  0
   -1.4084   -3.4928    0.0000 C   0  0  0  0  0  0  0  0  0  0  0  0
   -2.4188   -4.5032    0.0000 C   0  0  0  0  0  0  0  0  0  0  0  0
    3.1356   -2.9232    0.0000 C   0  0  0  0  0  0  0  0  0  0  0  0
    1.7554   -2.5534    0.0000 C   0  0  0  0  0  0  0  0  0  0  0  0
   -3.0022   -3.9198    0.0000 C   0  0  0  0  0  0  0  0  0  0  0  0
   -0.6115   -3.2792    0.0000 C   0  0  0  0  0  0  0  0  0  0  0  0
    1.9689   -1.7565    0.0000 C   0  0  0  0  0  0  0  0  0  0  0  0
    3.7190   -3.5066    0.0000 C   0  0  0  0  0  0  0  0  0  0  0  0
   -2.6323   -5.3001    0.0000 C   0  0  0  0  0  0  0  0  0  0  0  0
   -1.9918   -2.9094    0.0000 C   0  0  0  0  0  0  0  0  0  0  0  0
    0.9585   -2.7669    0.0000 C   0  0  0  0  0  0  0  0  0  0  0  0
    3.3491   -2.1263    0.0000 C   0  0  0  0  0  0  0  0  0  0  0  0
   -3.7991   -4.1334    0.0000 C   0  0  0  0  0  0  0  0  0  0  0  0
   -0.3980   -2.4824    0.0000 C   0  0  0  0  0  0  0  0  0  0  0  0
    1.3855   -1.1731    0.0000 C   0  0  0  0  0  0  0  0  0  0  0  0
    4.5159   -3.2931    0.0000 C   0  0  0  0  0  0  0  0  0  0  0  0
   -3.4292   -5.5136    0.0000 C   0  0  0  0  0  0  0  0  0  0  0  0
   -1.7782   -2.1125    0.0000 C   0  0  0  0  0  0  0  0  0  0  0  0
    0.3751   -2.1835    0.0000 C   0  0  0  0  0  0  0  0  0  0  0  0
    4.1460   -1.9128    0.0000 C   0  0  0  0  0  0  0  0  0  0  0  0
   -4.0126   -4.9302    0.0000 C   0  0  0  0  0  0  0  0  0  0  0  0
   -0.9813   -1.8990    0.0000 C   0  0  0  0  0  0  0  0  0  0  0  0
    0.5886   -1.3867    0.0000 C   0  0  0  0  0  0  0  0  0  0  0  0
    4.7294   -2.4962    0.0000 C   0  0  0  0  0  0  0  0  0  0  0  0
   -4.8095   -5.1438    0.0000 C   0  0  0  0  0  0  0  0  0  0  0  0
   -0.7678   -1.1021    0.0000 C   0  0  0  0  0  0  0  0  0  0  0  0
    0.0053   -0.8033    0.0000 C   0  0  0  0  0  0  0  0  0  0  0  0
    5.5263   -2.2826    0.0000 C   0  0  0  0  0  0  0  0  0  0  0  0
  1  7  1  0  0  0  0
  1 13  2  0  0  0  0
  2 32  1  0  0  0  0
  2 38  1  0  0  0  0
  2 39  1  0  0  0  0
  3 31  1  0  0  0  0
  3 40  1  0  0  0  0
  3 41  1  0  0  0  0
  4  5  1  0  0  0  0
  4  6  1  0  0  0  0
  4 10  1  0  0  0  0
  4 11  1  0  0  0  0
  5  7  2  0  0  0  0
  5  9  1  0  0  0  0
  6  8  2  0  0  0  0
  6 14  1  0  0  0  0
  7  8  1  0  0  0  0
  8 16  1  0  0  0  0
  9 12  2  0  0  0  0
  9 15  1  0  0  0  0
 10 17  2  0  0  0  0
 10 19  1  0  0  0  0
 11 18  2  0  0  0  0
 11 20  1  0  0  0  0
 12 13  1  0  0  0  0
 12 21  1  0  0  0  0
 13 24  1  0  0  0  0
 14 22  2  0  0  0  0
 15 29  2  0  0  0  0
 15 30  1  0  0  0  0
 16 23  2  0  0  0  0
 17 25  1  0  0  0  0
 18 26  1  0  0  0  0
 19 27  2  0  0  0  0
 20 28  2  0  0  0  0
 21 33  2  0  0  0  0
 22 23  1  0  0  0  0
 24 34  2  0  0  0  0
 25 31  2  0  0  0  0
 26 32  2  0  0  0  0
 27 31  1  0  0  0  0
 28 32  1  0  0  0  0
 29 35  1  0  0  0  0
 30 36  2  0  0  0  0
 33 34  1  0  0  0  0
 35 37  2  0  0  0  0
 36 37  1  0  0  0  0
 38 43  2  0  0  0  0
 38 47  1  0  0  0  0
 39 42  2  0  0  0  0
 39 46  1  0  0  0  0
 40 45  2  0  0  0  0
 40 49  1  0  0  0  0
 41 44  2  0  0  0  0
 41 48  1  0  0  0  0
 42 50  1  0  0  0  0
 43 51  1  0  0  0  0
 44 52  1  0  0  0  0
 45 53  1  0  0  0  0
 46 54  2  0  0  0  0
 47 55  2  0  0  0  0
 48 56  2  0  0  0  0
 49 57  2  0  0  0  0
 50 58  2  0  0  0  0
 51 59  2  0  0  0  0
 52 60  2  0  0  0  0
 53 61  2  0  0  0  0
 54 58  1  0  0  0  0
 55 59  1  0  0  0  0
 56 60  1  0  0  0  0
 57 61  1  0  0  0  0
 58 62  1  0  0  0  0
 59 63  1  0  0  0  0
 60 64  1  0  0  0  0
 61 65  1  0  0  0  0
M  END
> <PUBCHEM_COMPOUND_ID_TYPE>
0

> <PUBCHEM_TOTAL_CHARGE>
0

> <PUBCHEM_SUBSTANCE_ID>
310938850

> <PUBCHEM_SUBSTANCE_VERSION>
1

> <PUBCHEM_EXT_DATASOURCE_NAME>
4488

> <PUBCHEM_EXT_DATASOURCE_REGID>
SCHEMBL16116769

> <PUBCHEM_SUBSTANCE_COMMENT>
InChI=1S/C62H49N3/c1-42-18-30-49(31-19-42)64(50-32-20-43(2)21-33-50)53-38-26-47(27-39-53)62(48-28-40-54(41-29-48)65(51-34-22-44(3)23-35-51)52-36-24-45(4)25-37-52)57-16-10-8-14-55(57)61-60(62)59(46-12-6-5-7-13-46)56-15-9-11-17-58(56)63-61/h5-41H,1-4H3
InChIKey=AKICNRKIHYWOPF-UHFFFAOYSA-N

> <PUBCHEM_SUBSTANCE_SYNONYM>
SCHEMBL16116769

> <PUBCHEM_XREF_EXT_ID>
SCHEMBL16116769

> <PUBCHEM_EXT_DATASOURCE_URL>
https://www.surechembl.org/

> <PUBCHEM_EXT_SUBSTANCE_URL>
https://www.surechembl.org/chemical/SCHEMBL16116769

> <PUBCHEM_CID_ASSOCIATIONS>
117606249  1

> <PUBCHEM_COORDINATE_TYPE>
1
3

$$$$
