310933998
  -OEChem-07211613022D

 23 24  0     0  0  0  0  0  0999 V2000
    2.8427    0.0000    0.0000 Br  0  0  0  0  0  0  0  0  0  0  0  0
    1.4419   -6.5917    0.0000 O   0  0  0  0  0  0  0  0  0  0  0  0
    0.0000   -1.6479    0.0000 O   0  0  0  0  0  0  0  0  0  0  0  0
    0.0000   -6.5917    0.0000 O   0  0  0  0  0  0  0  0  0  0  0  0
    0.7004   -5.3557    0.0000 N   0  0  0  0  0  0  0  0  0  0  0  0
    0.7004   -3.7078    0.0000 N   0  0  0  0  0  0  0  0  0  0  0  0
    0.7004   -0.4532    0.0000 N   0  0  0  0  0  0  0  0  0  0  0  0
    0.7004   -6.1797    0.0000 C   0  0  0  0  0  0  0  0  0  0  0  0
    1.4419   -4.9849    0.0000 C   0  0  0  0  0  0  0  0  0  0  0  0
    0.0000   -4.9849    0.0000 C   0  0  0  0  0  0  0  0  0  0  0  0
    1.4419   -7.4156    0.0000 C   0  0  0  0  0  0  0  0  0  0  0  0
    0.0000   -4.1198    0.0000 C   0  0  0  0  0  0  0  0  0  0  0  0
    1.4419   -4.1198    0.0000 C   0  0  0  0  0  0  0  0  0  0  0  0
    0.7004   -2.8839    0.0000 C   0  0  0  0  0  0  0  0  0  0  0  0
    0.7004   -1.2359    0.0000 C   0  0  0  0  0  0  0  0  0  0  0  0
    0.0000   -2.4719    0.0000 C   0  0  0  0  0  0  0  0  0  0  0  0
    1.4419   -1.6891    0.0000 C   0  0  0  0  0  0  0  0  0  0  0  0
    2.1011   -0.4120    0.0000 C   0  0  0  0  0  0  0  0  0  0  0  0
    1.4007    0.0000    0.0000 C   0  0  0  0  0  0  0  0  0  0  0  0
    2.1423   -1.2359    0.0000 C   0  0  0  0  0  0  0  0  0  0  0  0
    0.5767   -7.4156    0.0000 C   0  0  0  0  0  0  0  0  0  0  0  0
    1.4419   -8.2396    0.0000 C   0  0  0  0  0  0  0  0  0  0  0  0
    2.2247   -7.4156    0.0000 C   0  0  0  0  0  0  0  0  0  0  0  0
  1 18  1  0  0  0  0
  2  8  1  0  0  0  0
  2 11  1  0  0  0  0
  3 15  1  0  0  0  0
  3 16  1  0  0  0  0
  4  8  2  0  0  0  0
  5  8  1  0  0  0  0
  5  9  1  0  0  0  0
  5 10  1  0  0  0  0
  6 12  1  0  0  0  0
  6 13  1  0  0  0  0
  6 14  1  0  0  0  0
  7 15  1  0  0  0  0
  7 19  2  0  0  0  0
  9 13  1  0  0  0  0
 10 12  1  0  0  0  0
 11 21  1  0  0  0  0
 11 22  1  0  0  0  0
 11 23  1  0  0  0  0
 14 16  1  0  0  0  0
 15 17  2  0  0  0  0
 17 20  1  0  0  0  0
 18 19  1  0  0  0  0
 18 20  2  0  0  0  0
M  END
> <PUBCHEM_COMPOUND_ID_TYPE>
0

> <PUBCHEM_TOTAL_CHARGE>
0

> <PUBCHEM_SUBSTANCE_ID>
310933998

> <PUBCHEM_SUBSTANCE_VERSION>
1

> <PUBCHEM_EXT_DATASOURCE_NAME>
4488

> <PUBCHEM_EXT_DATASOURCE_REGID>
SCHEMBL16111442

> <PUBCHEM_SUBSTANCE_COMMENT>
InChI=1S/C16H24BrN3O3/c1-16(2,3)23-15(21)20-8-6-19(7-9-20)10-11-22-14-5-4-13(17)12-18-14/h4-5,12H,6-11H2,1-3H3
InChIKey=LOLGYKIXEKRRKV-UHFFFAOYSA-N

> <PUBCHEM_SUBSTANCE_SYNONYM>
SCHEMBL16111442

> <PUBCHEM_XREF_EXT_ID>
SCHEMBL16111442

> <PUBCHEM_EXT_DATASOURCE_URL>
https://www.surechembl.org/

> <PUBCHEM_EXT_SUBSTANCE_URL>
https://www.surechembl.org/chemical/SCHEMBL16111442

> <PUBCHEM_CID_ASSOCIATIONS>
117602304  1

> <PUBCHEM_COORDINATE_TYPE>
1
3

$$$$
