310947148
  -OEChem-07211613022D

 63 66  0     1  0  0  0  0  0999 V2000
   -5.2811    1.2153    0.0000 Cl  0  0  0  0  0  0  0  0  0  0  0  0
    2.1876    2.5705    0.0000 S   0  0  0  0  0  0  0  0  0  0  0  0
   -0.6850    0.9501    0.0000 O   0  0  0  0  0  0  0  0  0  0  0  0
   -1.9960    1.5983    0.0000 O   0  0  0  0  0  0  0  0  0  0  0  0
    1.0386   -1.5836    0.0000 O   0  0  0  0  0  0  0  0  0  0  0  0
   -0.6114   -3.2040    0.0000 O   0  0  0  0  0  0  0  0  0  0  0  0
   -3.1892    1.5983    0.0000 O   0  0  0  0  0  0  0  0  0  0  0  0
   -2.8210    3.0125    0.0000 O   0  0  0  0  0  0  0  0  0  0  0  0
   -1.8635   -3.2776    0.0000 O   0  0  0  0  0  0  0  0  0  0  0  0
    1.7604   -2.8210    0.0000 O   0  0  0  0  0  0  0  0  0  0  0  0
   -6.5921    0.5671    0.0000 O   0  0  0  0  0  0  0  0  0  0  0  0
    0.4788    3.9553    0.0000 O   0  0  0  0  0  0  0  0  0  0  0  0
    3.8080    3.4986    0.0000 O   0  0  0  0  0  0  0  0  0  0  0  0
    3.8227    0.9796    0.0000 O   0  0  0  0  0  0  0  0  0  0  0  0
    6.0766    2.8799    0.0000 O   0  0  0  0  0  0  0  0  0  0  0  0
    0.3167   -2.8063    0.0000 N   0  0  0  0  0  0  0  0  0  0  0  0
   -3.9847    0.5818    0.0000 N   0  0  0  0  0  0  0  0  0  0  0  0
   -0.3462    2.5558    0.0000 N   0  0  0  0  0  0  0  0  0  0  0  0
    4.2352    2.2465    0.0000 N   0  0  0  0  0  0  0  0  0  0  0  0
    6.6068    1.8782    0.0000 N   0  0  0  0  0  0  0  0  0  0  0  0
   -1.2595    0.3904    0.0000 C   0  0  3  0  0  0  0  0  0  0  0  0
   -0.3020    0.2431    0.0000 C   0  0  3  0  0  0  0  0  0  0  0  0
   -1.9960    0.7881    0.0000 C   0  0  3  0  0  0  0  0  0  0  0  0
    0.3167   -0.3462    0.0000 C   0  0  3  0  0  0  0  0  0  0  0  0
    0.3020   -1.1564    0.0000 C   0  0  3  0  0  0  0  0  0  0  0  0
   -1.2595   -0.4640    0.0000 C   0  0  0  0  0  0  0  0  0  0  0  0
   -2.5853    0.2136    0.0000 C   0  0  0  0  0  0  0  0  0  0  0  0
   -0.4345   -2.3938    0.0000 C   0  0  3  0  0  0  0  0  0  0  0  0
   -0.3904   -1.5688    0.0000 C   0  0  0  0  0  0  0  0  0  0  0  0
    0.8912    0.2283    0.0000 C   0  0  0  0  0  0  0  0  0  0  0  0
   -3.2040    0.7734    0.0000 C   0  0  0  0  0  0  0  0  0  0  0  0
   -1.9813    2.5411    0.0000 C   0  0  0  0  0  0  0  0  0  0  0  0
    1.0091   -2.3791    0.0000 C   0  0  0  0  0  0  0  0  0  0  0  0
   -1.4510   -2.5411    0.0000 C   0  0  3  0  0  0  0  0  0  0  0  0
   -1.1859    3.0273    0.0000 C   0  0  3  0  0  0  0  0  0  0  0  0
   -4.5592   -0.0073    0.0000 C   0  0  0  0  0  0  0  0  0  0  0  0
   -2.0844   -2.0844    0.0000 C   0  0  0  0  0  0  0  0  0  0  0  0
   -5.2958    0.4051    0.0000 C   0  0  0  0  0  0  0  0  0  0  0  0
   -4.5740   -0.8323    0.0000 C   0  0  0  0  0  0  0  0  0  0  0  0
   -6.0029   -0.0073    0.0000 C   0  0  0  0  0  0  0  0  0  0  0  0
   -4.2057    1.3773    0.0000 C   0  0  0  0  0  0  0  0  0  0  0  0
   -5.2811   -1.2448    0.0000 C   0  0  0  0  0  0  0  0  0  0  0  0
   -0.9354    3.9258    0.0000 C   0  0  0  0  0  0  0  0  0  0  0  0
   -6.0029   -0.8323    0.0000 C   0  0  0  0  0  0  0  0  0  0  0  0
    0.4788    2.9977    0.0000 C   0  0  0  0  0  0  0  0  0  0  0  0
   -2.9388   -2.4527    0.0000 C   0  0  0  0  0  0  0  0  0  0  0  0
   -5.2811   -2.0550    0.0000 C   0  0  0  0  0  0  0  0  0  0  0  0
   -0.3315    1.5983    0.0000 C   0  0  0  0  0  0  0  0  0  0  0  0
   -2.5558   -3.9553    0.0000 C   0  0  0  0  0  0  0  0  0  0  0  0
   -4.4856   -2.2759    0.0000 C   0  0  0  0  0  0  0  0  0  0  0  0
   -3.6901   -2.0108    0.0000 C   0  0  0  0  0  0  0  0  0  0  0  0
    0.9796    2.6295    0.0000 C   0  0  0  0  0  0  0  0  0  0  0  0
   -6.6068    1.4068    0.0000 C   0  0  0  0  0  0  0  0  0  0  0  0
   -4.4856   -3.1156    0.0000 C   0  0  0  0  0  0  0  0  0  0  0  0
    1.5099    3.0273    0.0000 C   0  0  0  0  0  0  0  0  0  0  0  0
    3.1746    2.5853    0.0000 C   0  0  3  0  0  0  0  0  0  0  0  0
    3.1598    1.8930    0.0000 C   0  0  0  0  0  0  0  0  0  0  0  0
    3.7490    2.8063    0.0000 C   0  0  0  0  0  0  0  0  0  0  0  0
    3.8227    1.7161    0.0000 C   0  0  0  0  0  0  0  0  0  0  0  0
    4.8097    1.9371    0.0000 C   0  0  0  0  0  0  0  0  0  0  0  0
    5.2222    2.2612    0.0000 C   0  0  0  0  0  0  0  0  0  0  0  0
    5.6494    1.9519    0.0000 C   0  0  0  0  0  0  0  0  0  0  0  0
    6.0618    2.2170    0.0000 C   0  0  0  0  0  0  0  0  0  0  0  0
  1 38  1  0  0  0  0
  2 55  1  0  0  0  0
  2 56  1  0  0  0  0
  3 21  1  0  0  0  0
 22  3  1  1  0  0  0
 23  4  1  6  0  0  0
  4 32  1  0  0  0  0
  5 25  1  0  0  0  0
  5 33  1  0  0  0  0
 28  6  1  6  0  0  0
  7 31  2  0  0  0  0
  8 32  2  0  0  0  0
 34  9  1  6  0  0  0
  9 49  1  0  0  0  0
 10 33  2  0  0  0  0
 11 40  1  0  0  0  0
 11 53  1  0  0  0  0
 12 45  2  0  0  0  0
 13 58  2  0  0  0  0
 14 59  2  0  0  0  0
 15 63  2  0  0  0  0
 16 28  1  0  0  0  0
 16 33  1  0  0  0  0
 17 31  1  0  0  0  0
 17 36  1  0  0  0  0
 17 41  1  0  0  0  0
 18 35  1  0  0  0  0
 18 45  1  0  0  0  0
 18 48  1  0  0  0  0
 19 59  1  0  0  0  0
 19 60  1  0  0  0  0
 20 63  1  0  0  0  0
 21 22  1  0  0  0  0
 21 23  1  0  0  0  0
 21 26  1  1  0  0  0
 22 24  1  0  0  0  0
 23 27  1  0  0  0  0
 24 25  1  0  0  0  0
 24 30  1  6  0  0  0
 25 29  1  1  0  0  0
 27 31  1  0  0  0  0
 28 29  1  0  0  0  0
 28 34  1  0  0  0  0
 32 35  1  0  0  0  0
 34 37  1  0  0  0  0
 35 43  1  6  0  0  0
 36 38  2  0  0  0  0
 36 39  1  0  0  0  0
 37 46  2  0  0  0  0
 38 40  1  0  0  0  0
 39 42  2  0  0  0  0
 40 44  2  0  0  0  0
 42 44  1  0  0  0  0
 42 47  1  0  0  0  0
 45 52  1  0  0  0  0
 46 51  1  0  0  0  0
 47 50  1  0  0  0  0
 50 51  2  0  0  0  0
 50 54  1  0  0  0  0
 52 55  1  0  0  0  0
 56 57  1  0  0  0  0
 56 58  1  0  0  0  0
 57 59  1  0  0  0  0
 60 61  1  0  0  0  0
 61 62  1  0  0  0  0
 62 63  1  0  0  0  0
M  END
> <PUBCHEM_COMPOUND_ID_TYPE>
0

> <PUBCHEM_TOTAL_CHARGE>
0

> <PUBCHEM_SUBSTANCE_ID>
310947148

> <PUBCHEM_SUBSTANCE_VERSION>
1

> <PUBCHEM_EXT_DATASOURCE_NAME>
4488

> <PUBCHEM_EXT_DATASOURCE_REGID>
SCHEMBL16125302

> <PUBCHEM_SUBSTANCE_COMMENT>
InChI=1S/C43H60ClN5O13S/c1-24-11-9-12-32(59-8)43(57)22-31(60-41(56)47-43)25(2)39-42(4,62-39)33(21-37(54)49(6)29-18-27(17-24)19-30(58-7)38(29)44)61-40(55)26(3)48(5)36(53)14-16-63-28(23-50)20-35(52)46-15-10-13-34(45)51/h9,11-12,18-19,23,25-26,28,31-33,39,57H,10,13-17,20-22H2,1-8H3,(H2,45,51)(H,46,52)(H,47,56)/b12-9+,24-11+/t25-,26+,28?,31+,32-,33+,39+,42+,43+/m1/s1
InChIKey=ZSNOVWXPYVFWFA-NFYTULAASA-N

> <PUBCHEM_SUBSTANCE_SYNONYM>
SCHEMBL16125302

> <PUBCHEM_XREF_EXT_ID>
SCHEMBL16125302

> <PUBCHEM_EXT_DATASOURCE_URL>
https://www.surechembl.org/

> <PUBCHEM_EXT_SUBSTANCE_URL>
https://www.surechembl.org/chemical/SCHEMBL16125302

> <PUBCHEM_CID_ASSOCIATIONS>
117612983  1

> <PUBCHEM_COORDINATE_TYPE>
1
3

> <PUBCHEM_BONDANNOTATIONS>
21  26  5
24  30  6
25  29  5
22  3  5
35  43  6
23  4  6
28  6  6
34  9  6

$$$$
