310931483
  -OEChem-07211613022D

 30 32  0     0  0  0  0  0  0999 V2000
    3.9914   -2.7419    0.0000 O   0  0  0  0  0  0  0  0  0  0  0  0
    8.4688   -2.8114    0.0000 O   0  0  0  0  0  0  0  0  0  0  0  0
    9.2324   -6.5252    0.0000 O   0  0  0  0  0  0  0  0  0  0  0  0
    4.8938   -1.5966    0.0000 N   0  0  0  0  0  0  0  0  0  0  0  0
    4.8244   -0.7636    0.0000 N   0  0  0  0  0  0  0  0  0  0  0  0
    6.3516   -1.5966    0.0000 N   0  0  0  0  0  0  0  0  0  0  0  0
    7.7746   -4.0608    0.0000 N   0  0  0  0  0  0  0  0  0  0  0  0
    0.0000   -2.4643    0.0000 N   0  0  0  0  0  0  0  0  0  0  0  0
    3.6096   -1.3189    0.0000 C   0  0  0  0  0  0  0  0  0  0  0  0
    4.1650   -1.9436    0.0000 C   0  0  0  0  0  0  0  0  0  0  0  0
    2.7766   -1.4231    0.0000 C   0  0  0  0  0  0  0  0  0  0  0  0
    5.6227   -2.0130    0.0000 C   0  0  0  0  0  0  0  0  0  0  0  0
    3.9914   -0.6247    0.0000 C   0  0  0  0  0  0  0  0  0  0  0  0
    2.2907   -0.7636    0.0000 C   0  0  0  0  0  0  0  0  0  0  0  0
    5.6227   -2.8114    0.0000 C   0  0  0  0  0  0  0  0  0  0  0  0
    2.4643   -2.1866    0.0000 C   0  0  0  0  0  0  0  0  0  0  0  0
    7.0457   -2.8114    0.0000 C   0  0  0  0  0  0  0  0  0  0  0  0
    1.4577   -0.8677    0.0000 C   0  0  0  0  0  0  0  0  0  0  0  0
    7.0457   -2.0130    0.0000 C   0  0  0  0  0  0  0  0  0  0  0  0
    6.3516   -3.2278    0.0000 C   0  0  0  0  0  0  0  0  0  0  0  0
    1.1454   -1.5966    0.0000 C   0  0  0  0  0  0  0  0  0  0  0  0
    7.7746   -3.2278    0.0000 C   0  0  0  0  0  0  0  0  0  0  0  0
    1.6313   -2.2561    0.0000 C   0  0  0  0  0  0  0  0  0  0  0  0
    2.6031    0.0000    0.0000 C   0  0  0  0  0  0  0  0  0  0  0  0
    0.3124   -1.7007    0.0000 C   0  0  0  0  0  0  0  0  0  0  0  0
    8.5035   -4.4774    0.0000 C   0  0  0  0  0  0  0  0  0  0  0  0
    7.0457   -4.4774    0.0000 C   0  0  0  0  0  0  0  0  0  0  0  0
    8.5035   -5.3104    0.0000 C   0  0  0  0  0  0  0  0  0  0  0  0
    9.1977   -5.6922    0.0000 C   0  0  0  0  0  0  0  0  0  0  0  0
    9.9265   -6.9416    0.0000 C   0  0  0  0  0  0  0  0  0  0  0  0
  1 10  1  0  0  0  0
  2 22  2  0  0  0  0
  3 29  1  0  0  0  0
  3 30  1  0  0  0  0
  4  5  1  0  0  0  0
  4 10  1  0  0  0  0
  4 12  1  0  0  0  0
  5 13  2  0  0  0  0
  6 12  2  0  0  0  0
  6 19  1  0  0  0  0
  7 22  1  0  0  0  0
  7 26  1  0  0  0  0
  7 27  1  0  0  0  0
  8 25  3  0  0  0  0
  9 10  2  0  0  0  0
  9 11  1  0  0  0  0
  9 13  1  0  0  0  0
 11 14  1  0  0  0  0
 11 16  2  0  0  0  0
 12 15  1  0  0  0  0
 14 18  2  0  0  0  0
 14 24  1  0  0  0  0
 15 20  2  0  0  0  0
 16 23  1  0  0  0  0
 17 19  2  0  0  0  0
 17 20  1  0  0  0  0
 17 22  1  0  0  0  0
 18 21  1  0  0  0  0
 21 23  2  0  0  0  0
 21 25  1  0  0  0  0
 26 28  1  0  0  0  0
 28 29  1  0  0  0  0
M  END
> <PUBCHEM_COMPOUND_ID_TYPE>
0

> <PUBCHEM_TOTAL_CHARGE>
0

> <PUBCHEM_SUBSTANCE_ID>
310931483

> <PUBCHEM_SUBSTANCE_VERSION>
1

> <PUBCHEM_EXT_DATASOURCE_NAME>
4488

> <PUBCHEM_EXT_DATASOURCE_REGID>
SCHEMBL16108808

> <PUBCHEM_SUBSTANCE_COMMENT>
InChI=1S/C22H23N5O3/c1-15-11-16(12-23)5-7-18(15)19-14-25-27(22(19)29)20-8-6-17(13-24-20)21(28)26(2)9-4-10-30-3/h5-8,11,13-14,29H,4,9-10H2,1-3H3
InChIKey=UNSDNWAIHOAVFC-UHFFFAOYSA-N

> <PUBCHEM_SUBSTANCE_SYNONYM>
SCHEMBL16108808

> <PUBCHEM_XREF_EXT_ID>
SCHEMBL16108808

> <PUBCHEM_EXT_DATASOURCE_URL>
https://www.surechembl.org/

> <PUBCHEM_EXT_SUBSTANCE_URL>
https://www.surechembl.org/chemical/SCHEMBL16108808

> <PUBCHEM_CID_ASSOCIATIONS>
117600248  1

> <PUBCHEM_COORDINATE_TYPE>
1
3

$$$$
