310947818
  -OEChem-07211613022D

 29 30  0     1  0  0  0  0  0999 V2000
   -3.7601    2.2958    0.0000 S   0  0  0  0  0  0  0  0  0  0  0  0
    3.5244   -2.3826    0.0000 S   0  0  0  0  0  0  0  0  0  0  0  0
    2.6929   -2.3826    0.0000 O   0  0  0  0  0  0  0  0  0  0  0  0
   -1.6008    0.0993    0.0000 O   0  0  0  0  0  0  0  0  0  0  0  0
   -0.1737   -2.3826    0.0000 O   0  0  0  0  0  0  0  0  0  0  0  0
   -0.1737    0.9307    0.0000 O   0  0  0  0  0  0  0  0  0  0  0  0
   -3.5492    3.1024    0.0000 O   0  0  0  0  0  0  0  0  0  0  0  0
   -4.3434    2.8791    0.0000 O   0  0  0  0  0  0  0  0  0  0  0  0
    3.9339   -3.1024    0.0000 O   0  0  0  0  0  0  0  0  0  0  0  0
    3.9339   -1.6629    0.0000 O   0  0  0  0  0  0  0  0  0  0  0  0
    4.3434   -2.3826    0.0000 O   0  0  0  0  0  0  0  0  0  0  0  0
    0.5708   -1.1417    0.0000 N   0  0  0  0  0  0  0  0  0  0  0  0
    1.9980   -1.9607    0.0000 N   0  0  0  0  0  0  0  0  0  0  0  0
   -0.8687   -0.3102    0.0000 N   0  0  0  0  0  0  0  0  0  0  0  0
   -3.6857   -0.6825    0.0000 N   0  0  0  0  0  0  0  0  0  0  0  0
    0.5708   -0.3102    0.0000 C   0  0  3  0  0  0  0  0  0  0  0  0
    0.5708   -1.9483    0.0000 C   0  0  0  0  0  0  0  0  0  0  0  0
   -0.1986    0.0744    0.0000 C   0  0  0  0  0  0  0  0  0  0  0  0
   -3.3134    0.7074    0.0000 C   0  0  0  0  0  0  0  0  0  0  0  0
    1.2782   -1.5512    0.0000 C   0  0  0  0  0  0  0  0  0  0  0  0
    1.2658    0.0993    0.0000 C   0  0  0  0  0  0  0  0  0  0  0  0
   -3.1149   -0.0869    0.0000 C   0  0  3  0  0  0  0  0  0  0  0  0
   -4.3186    1.7125    0.0000 C   0  0  0  0  0  0  0  0  0  0  0  0
   -2.9535    2.0849    0.0000 C   0  0  0  0  0  0  0  0  0  0  0  0
   -4.1200    0.9183    0.0000 C   0  0  0  0  0  0  0  0  0  0  0  0
   -2.7425    1.3030    0.0000 C   0  0  0  0  0  0  0  0  0  0  0  0
    1.9731   -1.1541    0.0000 C   0  0  0  0  0  0  0  0  0  0  0  0
    1.9856   -0.3102    0.0000 C   0  0  0  0  0  0  0  0  0  0  0  0
   -2.3082   -0.3102    0.0000 C   0  0  0  0  0  0  0  0  0  0  0  0
  1  7  2  0  0  0  0
  1  8  2  0  0  0  0
  1 23  1  0  0  0  0
  1 24  1  0  0  0  0
  2  3  1  0  0  0  0
  2  9  2  0  0  0  0
  2 10  2  0  0  0  0
  2 11  1  0  0  0  0
  3 13  1  0  0  0  0
  4 14  1  0  0  0  0
  4 29  1  0  0  0  0
  5 17  2  0  0  0  0
  6 18  2  0  0  0  0
 12 16  1  0  0  0  0
 12 17  1  0  0  0  0
 12 20  1  0  0  0  0
 13 17  1  0  0  0  0
 14 18  1  0  0  0  0
 15 22  1  0  0  0  0
 16 18  1  6  0  0  0
 16 21  1  0  0  0  0
 19 22  1  0  0  0  0
 19 25  1  0  0  0  0
 19 26  1  0  0  0  0
 20 27  1  0  0  0  0
 21 28  1  0  0  0  0
 22 29  1  0  0  0  0
 23 25  1  0  0  0  0
 24 26  1  0  0  0  0
 27 28  1  0  0  0  0
M  END
> <PUBCHEM_COMPOUND_ID_TYPE>
0

> <PUBCHEM_TOTAL_CHARGE>
0

> <PUBCHEM_SUBSTANCE_ID>
310947818

> <PUBCHEM_SUBSTANCE_VERSION>
1

> <PUBCHEM_EXT_DATASOURCE_NAME>
4488

> <PUBCHEM_EXT_DATASOURCE_REGID>
SCHEMBL16125990

> <PUBCHEM_SUBSTANCE_COMMENT>
InChI=1S/C14H26N4O9S2/c15-11(10-4-7-28(21,22)8-5-10)9-26-16-13(19)12-3-1-2-6-18(12)14(20)17-27-29(23,24)25/h10-12H,1-9,15H2,(H,16,19)(H,17,20)(H,23,24,25)/t11?,12-/m0/s1
InChIKey=BDWUFOGDABIHJS-KIYNQFGBSA-N

> <PUBCHEM_SUBSTANCE_SYNONYM>
SCHEMBL16125990

> <PUBCHEM_XREF_EXT_ID>
SCHEMBL16125990

> <PUBCHEM_EXT_DATASOURCE_URL>
https://www.surechembl.org/

> <PUBCHEM_EXT_SUBSTANCE_URL>
https://www.surechembl.org/chemical/SCHEMBL16125990

> <PUBCHEM_CID_ASSOCIATIONS>
117613486  1

> <PUBCHEM_COORDINATE_TYPE>
1
3

> <PUBCHEM_BONDANNOTATIONS>
16  18  6

$$$$
