310939418
  -OEChem-07211613022D

 28 28  0     1  0  0  0  0  0999 V2000
   -3.9297   -1.4300    0.0000 O   0  0  0  0  0  0  0  0  0  0  0  0
   -2.5008   -0.6050    0.0000 O   0  0  0  0  0  0  0  0  0  0  0  0
   -5.3587    1.0450    0.0000 O   0  0  0  0  0  0  0  0  0  0  0  0
    3.2152    1.8700    0.0000 O   0  0  0  0  0  0  0  0  0  0  0  0
   -3.2152    0.6326    0.0000 C   0  0  3  0  0  0  0  0  0  0  0  0
   -3.9297   -0.6050    0.0000 C   0  0  0  0  0  0  0  0  0  0  0  0
   -3.2152   -0.1925    0.0000 C   0  0  3  0  0  0  0  0  0  0  0  0
   -3.9297    1.0450    0.0000 C   0  0  3  0  0  0  0  0  0  0  0  0
   -4.6442   -0.1925    0.0000 C   0  0  0  0  0  0  0  0  0  0  0  0
   -4.6442    0.6326    0.0000 C   0  0  0  0  0  0  0  0  0  0  0  0
   -2.5008    1.0450    0.0000 C   0  0  0  0  0  0  0  0  0  0  0  0
   -3.9297    1.8700    0.0000 C   0  0  0  0  0  0  0  0  0  0  0  0
   -5.3587   -0.6050    0.0000 C   0  0  0  0  0  0  0  0  0  0  0  0
   -1.7862    0.6326    0.0000 C   0  0  0  0  0  0  0  0  0  0  0  0
   -1.0717    1.0450    0.0000 C   0  0  0  0  0  0  0  0  0  0  0  0
   -3.1676   -1.8700    0.0000 C   0  0  0  0  0  0  0  0  0  0  0  0
   -0.3572    0.6326    0.0000 C   0  0  0  0  0  0  0  0  0  0  0  0
   -1.0717    1.8700    0.0000 C   0  0  0  0  0  0  0  0  0  0  0  0
    0.3572    1.0450    0.0000 C   0  0  0  0  0  0  0  0  0  0  0  0
    1.7862    1.0450    0.0000 C   0  0  0  0  0  0  0  0  0  0  0  0
    1.0717    0.6326    0.0000 C   0  0  0  0  0  0  0  0  0  0  0  0
    3.2152    1.0450    0.0000 C   0  0  3  0  0  0  0  0  0  0  0  0
    2.5008    0.6326    0.0000 C   0  0  0  0  0  0  0  0  0  0  0  0
    3.9297    0.6326    0.0000 C   0  0  0  0  0  0  0  0  0  0  0  0
    4.6442    1.0450    0.0000 C   0  0  0  0  0  0  0  0  0  0  0  0
    1.7862    1.8700    0.0000 C   0  0  0  0  0  0  0  0  0  0  0  0
    5.3587    0.6326    0.0000 C   0  0  0  0  0  0  0  0  0  0  0  0
    4.6442    1.8700    0.0000 C   0  0  0  0  0  0  0  0  0  0  0  0
  1  6  1  0  0  0  0
  1 16  1  0  0  0  0
  7  2  1  1  0  0  0
  3 10  2  0  0  0  0
  4 22  1  0  0  0  0
  5  7  1  0  0  0  0
  5  8  1  0  0  0  0
  5 11  1  1  0  0  0
  6  7  1  0  0  0  0
  6  9  2  0  0  0  0
  8 10  1  0  0  0  0
  8 12  1  6  0  0  0
  9 10  1  0  0  0  0
  9 13  1  0  0  0  0
 11 14  1  0  0  0  0
 14 15  2  0  0  0  0
 15 17  1  0  0  0  0
 15 18  1  0  0  0  0
 17 19  1  0  0  0  0
 19 21  1  0  0  0  0
 20 21  2  0  0  0  0
 20 23  1  0  0  0  0
 20 26  1  0  0  0  0
 22 23  1  0  0  0  0
 22 24  1  0  0  0  0
 24 25  2  0  0  0  0
 25 27  1  0  0  0  0
 25 28  1  0  0  0  0
M  END
> <PUBCHEM_COMPOUND_ID_TYPE>
0

> <PUBCHEM_TOTAL_CHARGE>
0

> <PUBCHEM_SUBSTANCE_ID>
310939418

> <PUBCHEM_SUBSTANCE_VERSION>
1

> <PUBCHEM_EXT_DATASOURCE_NAME>
4488

> <PUBCHEM_EXT_DATASOURCE_REGID>
SCHEMBL16117340

> <PUBCHEM_SUBSTANCE_COMMENT>
InChI=1S/C24H38O4/c1-15(2)13-20(25)14-17(4)10-8-9-16(3)11-12-21-18(5)22(26)19(6)24(28-7)23(21)27/h10-11,13,18,20-21,23,25,27H,8-9,12,14H2,1-7H3/b16-11+,17-10+/t18-,20?,21-,23-/m1/s1
InChIKey=CMRYGXXAGGRGRC-ZCRGOLRGSA-N

> <PUBCHEM_SUBSTANCE_SYNONYM>
SCHEMBL16117340

> <PUBCHEM_XREF_EXT_ID>
SCHEMBL16117340

> <PUBCHEM_EXT_DATASOURCE_URL>
https://www.surechembl.org/

> <PUBCHEM_EXT_SUBSTANCE_URL>
https://www.surechembl.org/chemical/SCHEMBL16117340

> <PUBCHEM_CID_ASSOCIATIONS>
117606745  1

> <PUBCHEM_COORDINATE_TYPE>
1
3

> <PUBCHEM_BONDANNOTATIONS>
7  2  5
5  11  5
8  12  6

$$$$
