310936902
  -OEChem-07211613022D

 26 29  0     0  0  0  0  0  0999 V2000
    5.7770   -2.5645    0.0000 O   0  0  0  0  0  0  0  0  0  0  0  0
    1.6626   -3.2690    0.0000 O   0  0  0  0  0  0  0  0  0  0  0  0
    4.5089   -2.1699    0.0000 N   0  0  0  0  0  0  0  0  0  0  0  0
    3.9453   -4.2553    0.0000 N   0  0  0  0  0  0  0  0  0  0  0  0
    5.2980   -3.2408    0.0000 N   0  0  0  0  0  0  0  0  0  0  0  0
    0.7045   -1.3245    0.0000 N   0  0  0  0  0  0  0  0  0  0  0  0
    2.5363   -4.4244    0.0000 C   0  0  0  0  0  0  0  0  0  0  0  0
    3.8607   -3.4662    0.0000 C   0  0  0  0  0  0  0  0  0  0  0  0
    4.5089   -2.9871    0.0000 C   0  0  0  0  0  0  0  0  0  0  0  0
    2.4236   -3.6071    0.0000 C   0  0  0  0  0  0  0  0  0  0  0  0
    1.8599   -4.9034    0.0000 C   0  0  0  0  0  0  0  0  0  0  0  0
    5.2980   -1.8881    0.0000 C   0  0  0  0  0  0  0  0  0  0  0  0
    3.0999   -3.0999    0.0000 C   0  0  0  0  0  0  0  0  0  0  0  0
    5.5516   -1.0991    0.0000 C   0  0  0  0  0  0  0  0  0  0  0  0
    3.2690   -4.7626    0.0000 C   0  0  0  0  0  0  0  0  0  0  0  0
    1.5217   -5.6361    0.0000 C   0  0  0  0  0  0  0  0  0  0  0  0
    1.0145   -4.9879    0.0000 C   0  0  0  0  0  0  0  0  0  0  0  0
    6.3689   -1.3808    0.0000 C   0  0  0  0  0  0  0  0  0  0  0  0
    5.8052   -0.3382    0.0000 C   0  0  0  0  0  0  0  0  0  0  0  0
    4.7907   -0.8454    0.0000 C   0  0  0  0  0  0  0  0  0  0  0  0
    1.5781   -2.4799    0.0000 C   0  0  0  0  0  0  0  0  0  0  0  0
    0.8173   -2.1417    0.0000 C   0  0  0  0  0  0  0  0  0  0  0  0
    0.0000   -0.9300    0.0000 C   0  0  0  0  0  0  0  0  0  0  0  0
    1.3245   -0.7327    0.0000 C   0  0  0  0  0  0  0  0  0  0  0  0
    0.1691   -0.1127    0.0000 C   0  0  0  0  0  0  0  0  0  0  0  0
    0.9863    0.0000    0.0000 C   0  0  0  0  0  0  0  0  0  0  0  0
  1  5  1  0  0  0  0
  1 12  1  0  0  0  0
  2 10  1  0  0  0  0
  2 21  1  0  0  0  0
  3  9  1  0  0  0  0
  3 12  2  0  0  0  0
  4  8  1  0  0  0  0
  4 15  2  0  0  0  0
  5  9  2  0  0  0  0
  6 22  1  0  0  0  0
  6 23  1  0  0  0  0
  6 24  1  0  0  0  0
  7 10  2  0  0  0  0
  7 11  1  0  0  0  0
  7 15  1  0  0  0  0
  8  9  1  0  0  0  0
  8 13  2  0  0  0  0
 10 13  1  0  0  0  0
 11 16  1  0  0  0  0
 11 17  1  0  0  0  0
 12 14  1  0  0  0  0
 14 18  1  0  0  0  0
 14 19  1  0  0  0  0
 14 20  1  0  0  0  0
 16 17  1  0  0  0  0
 21 22  1  0  0  0  0
 23 25  1  0  0  0  0
 24 26  1  0  0  0  0
 25 26  1  0  0  0  0
M  END
> <PUBCHEM_COMPOUND_ID_TYPE>
0

> <PUBCHEM_TOTAL_CHARGE>
0

> <PUBCHEM_SUBSTANCE_ID>
310936902

> <PUBCHEM_SUBSTANCE_VERSION>
1

> <PUBCHEM_EXT_DATASOURCE_NAME>
4488

> <PUBCHEM_EXT_DATASOURCE_REGID>
SCHEMBL16114601

> <PUBCHEM_SUBSTANCE_COMMENT>
InChI=1S/C20H28N4O2/c1-20(2,3)19-22-18(23-26-19)16-12-17(15(13-21-16)14-6-7-14)25-11-10-24-8-4-5-9-24/h12-14H,4-11H2,1-3H3
InChIKey=JIMPSFQQWYIOIF-UHFFFAOYSA-N

> <PUBCHEM_SUBSTANCE_SYNONYM>
SCHEMBL16114601

> <PUBCHEM_XREF_EXT_ID>
SCHEMBL16114601

> <PUBCHEM_EXT_DATASOURCE_URL>
https://www.surechembl.org/

> <PUBCHEM_EXT_SUBSTANCE_URL>
https://www.surechembl.org/chemical/SCHEMBL16114601

> <PUBCHEM_CID_ASSOCIATIONS>
86276077  1

> <PUBCHEM_COORDINATE_TYPE>
1
3

$$$$
