310948854
  -OEChem-07211613022D

 35 38  0     1  0  0  0  0  0999 V2000
   -2.0989   -0.2079    0.0000 F   0  0  0  0  0  0  0  0  0  0  0  0
   -3.6507    0.2079    0.0000 O   0  0  0  0  0  0  0  0  0  0  0  0
   -4.3711    1.4409    0.0000 O   0  0  0  0  0  0  0  0  0  0  0  0
    0.0624    2.6878    0.0000 O   0  0  0  0  0  0  0  0  0  0  0  0
    0.7690   -0.2079    0.0000 N   0  0  3  0  0  0  0  0  0  0  0  0
    0.7690    1.4547    0.0000 N   0  0  0  0  0  0  0  0  0  0  0  0
    1.4755    2.6878    0.0000 N   0  0  0  0  0  0  0  0  0  0  0  0
   -2.1266    1.4685    0.0000 C   0  0  3  0  0  0  0  0  0  0  0  0
   -1.3785    1.0391    0.0000 C   0  0  0  0  0  0  0  0  0  0  0  0
   -2.9164    1.4547    0.0000 C   0  0  3  0  0  0  0  0  0  0  0  0
   -2.5284    2.1474    0.0000 C   0  0  0  0  0  0  0  0  0  0  0  0
    0.0346    0.2217    0.0000 C   0  0  0  0  0  0  0  0  0  0  0  0
   -1.3923    0.2079    0.0000 C   0  0  0  0  0  0  0  0  0  0  0  0
    0.0485    1.0391    0.0000 C   0  0  0  0  0  0  0  0  0  0  0  0
   -0.6719    1.4409    0.0000 C   0  0  0  0  0  0  0  0  0  0  0  0
   -0.6581   -0.1940    0.0000 C   0  0  0  0  0  0  0  0  0  0  0  0
   -3.7200    1.0530    0.0000 C   0  0  0  0  0  0  0  0  0  0  0  0
    0.7690   -1.0391    0.0000 C   0  0  0  0  0  0  0  0  0  0  0  0
    1.4755    0.2079    0.0000 C   0  0  0  0  0  0  0  0  0  0  0  0
    0.7828    2.2721    0.0000 C   0  0  0  0  0  0  0  0  0  0  0  0
    0.0485   -1.4547    0.0000 C   0  0  0  0  0  0  0  0  0  0  0  0
    1.4755   -1.4547    0.0000 C   0  0  0  0  0  0  0  0  0  0  0  0
    2.2097   -0.2079    0.0000 C   0  0  0  0  0  0  0  0  0  0  0  0
    2.2097    2.2859    0.0000 C   0  0  0  0  0  0  0  0  0  0  0  0
    0.0485   -2.2721    0.0000 C   0  0  0  0  0  0  0  0  0  0  0  0
    1.4755   -2.2859    0.0000 C   0  0  0  0  0  0  0  0  0  0  0  0
    0.7550   -2.6878    0.0000 C   0  0  0  0  0  0  0  0  0  0  0  0
    2.2097    1.4547    0.0000 C   0  0  0  0  0  0  0  0  0  0  0  0
    2.9026    2.6739    0.0000 C   0  0  0  0  0  0  0  0  0  0  0  0
    2.9440    0.1940    0.0000 C   0  0  0  0  0  0  0  0  0  0  0  0
    2.2236   -1.0530    0.0000 C   0  0  0  0  0  0  0  0  0  0  0  0
    3.6368    1.4547    0.0000 C   0  0  0  0  0  0  0  0  0  0  0  0
    2.9302    1.0391    0.0000 C   0  0  0  0  0  0  0  0  0  0  0  0
    3.6368    2.2721    0.0000 C   0  0  0  0  0  0  0  0  0  0  0  0
    4.3711    1.0114    0.0000 C   0  0  0  0  0  0  0  0  0  0  0  0
  1 13  1  0  0  0  0
  2 17  2  0  0  0  0
  3 17  1  0  0  0  0
  4 20  2  0  0  0  0
  5 12  1  0  0  0  0
  5 18  1  0  0  0  0
  5 19  1  0  0  0  0
  6 14  1  0  0  0  0
  6 20  1  0  0  0  0
  7 20  1  0  0  0  0
  7 24  1  0  0  0  0
  8  9  1  0  0  0  0
  8 10  1  0  0  0  0
  8 11  1  6  0  0  0
  9 13  2  0  0  0  0
  9 15  1  0  0  0  0
 10 11  1  0  0  0  0
 10 17  1  6  0  0  0
 12 14  1  0  0  0  0
 12 16  2  0  0  0  0
 13 16  1  0  0  0  0
 14 15  2  0  0  0  0
 18 21  1  0  0  0  0
 18 22  1  0  0  0  0
 19 23  1  0  0  0  0
 21 25  1  0  0  0  0
 22 26  1  0  0  0  0
 23 30  1  0  0  0  0
 23 31  1  0  0  0  0
 24 28  2  0  0  0  0
 24 29  1  0  0  0  0
 25 27  1  0  0  0  0
 26 27  1  0  0  0  0
 28 33  1  0  0  0  0
 29 34  2  0  0  0  0
 32 33  2  0  0  0  0
 32 34  1  0  0  0  0
 32 35  1  0  0  0  0
M  END
> <PUBCHEM_COMPOUND_ID_TYPE>
0

> <PUBCHEM_TOTAL_CHARGE>
0

> <PUBCHEM_SUBSTANCE_ID>
310948854

> <PUBCHEM_SUBSTANCE_VERSION>
1

> <PUBCHEM_EXT_DATASOURCE_NAME>
4488

> <PUBCHEM_EXT_DATASOURCE_REGID>
SCHEMBL16127039

> <PUBCHEM_SUBSTANCE_COMMENT>
InChI=1S/C28H36FN3O3/c1-17(2)16-32(20-7-5-4-6-8-20)26-15-24(29)22(21-13-23(21)27(33)34)14-25(26)31-28(35)30-19-11-9-18(3)10-12-19/h9-12,14-15,17,20-21,23H,4-8,13,16H2,1-3H3,(H,33,34)(H2,30,31,35)/t21-,23-/m1/s1
InChIKey=NELZKVNDNOCMPL-FYYLOGMGSA-N

> <PUBCHEM_SUBSTANCE_SYNONYM>
SCHEMBL16127039

> <PUBCHEM_XREF_EXT_ID>
SCHEMBL16127039

> <PUBCHEM_EXT_DATASOURCE_URL>
https://www.surechembl.org/

> <PUBCHEM_EXT_SUBSTANCE_URL>
https://www.surechembl.org/chemical/SCHEMBL16127039

> <PUBCHEM_CID_ASSOCIATIONS>
117614389  1

> <PUBCHEM_COORDINATE_TYPE>
1
3

> <PUBCHEM_BONDANNOTATIONS>
10  17  6
8  11  6

$$$$
