310930705
  -OEChem-07211613022D

 34 38  0     0  0  0  0  0  0999 V2000
    4.4874   -2.4477    0.0000 S   0  0  0  0  0  0  0  0  0  0  0  0
    2.8557   -3.8755    0.0000 S   0  0  0  0  0  0  0  0  0  0  0  0
    0.1632   -1.4278    0.0000 F   0  0  0  0  0  0  0  0  0  0  0  0
    4.9362   -3.2636    0.0000 O   0  0  0  0  0  0  0  0  0  0  0  0
    4.0795   -1.7542    0.0000 O   0  0  0  0  0  0  0  0  0  0  0  0
    8.8118    0.0000    0.0000 O   0  0  0  0  0  0  0  0  0  0  0  0
    3.0189   -2.5293    0.0000 N   0  0  0  0  0  0  0  0  0  0  0  0
   10.1988   -2.4885    0.0000 N   0  0  0  0  0  0  0  0  0  0  0  0
   11.7082   -2.3253    0.0000 N   0  0  0  0  0  0  0  0  0  0  0  0
    8.0775   -1.2239    0.0000 N   0  0  0  0  0  0  0  0  0  0  0  0
   12.2386   -1.6726    0.0000 N   0  0  0  0  0  0  0  0  0  0  0  0
    3.7532   -2.8557    0.0000 C   0  0  0  0  0  0  0  0  0  0  0  0
    5.2218   -2.0398    0.0000 C   0  0  0  0  0  0  0  0  0  0  0  0
    2.4477   -3.1412    0.0000 C   0  0  0  0  0  0  0  0  0  0  0  0
    3.6716   -3.7124    0.0000 C   0  0  0  0  0  0  0  0  0  0  0  0
    1.6318   -3.0189    0.0000 C   0  0  0  0  0  0  0  0  0  0  0  0
    5.9153   -2.4885    0.0000 C   0  0  0  0  0  0  0  0  0  0  0  0
    5.2218   -1.2239    0.0000 C   0  0  0  0  0  0  0  0  0  0  0  0
    6.6496   -1.2239    0.0000 C   0  0  0  0  0  0  0  0  0  0  0  0
   10.9331   -1.2239    0.0000 C   0  0  0  0  0  0  0  0  0  0  0  0
   10.9331   -2.0806    0.0000 C   0  0  0  0  0  0  0  0  0  0  0  0
    9.5052   -1.2239    0.0000 C   0  0  0  0  0  0  0  0  0  0  0  0
    6.6496   -2.0398    0.0000 C   0  0  0  0  0  0  0  0  0  0  0  0
    5.9153   -0.8159    0.0000 C   0  0  0  0  0  0  0  0  0  0  0  0
    1.3054   -2.2845    0.0000 C   0  0  0  0  0  0  0  0  0  0  0  0
   10.1988   -0.8159    0.0000 C   0  0  0  0  0  0  0  0  0  0  0  0
    1.1423   -3.7124    0.0000 C   0  0  0  0  0  0  0  0  0  0  0  0
    8.8118   -0.8159    0.0000 C   0  0  0  0  0  0  0  0  0  0  0  0
    9.5052   -2.0806    0.0000 C   0  0  0  0  0  0  0  0  0  0  0  0
    7.3431   -0.8159    0.0000 C   0  0  0  0  0  0  0  0  0  0  0  0
    0.4896   -2.2029    0.0000 C   0  0  0  0  0  0  0  0  0  0  0  0
   11.7082   -0.9791    0.0000 C   0  0  0  0  0  0  0  0  0  0  0  0
    0.3264   -3.5900    0.0000 C   0  0  0  0  0  0  0  0  0  0  0  0
    0.0000   -2.8557    0.0000 C   0  0  0  0  0  0  0  0  0  0  0  0
  1  4  2  0  0  0  0
  1  5  2  0  0  0  0
  1 12  1  0  0  0  0
  1 13  1  0  0  0  0
  2 14  1  0  0  0  0
  2 15  1  0  0  0  0
  3 31  1  0  0  0  0
  6 28  2  0  0  0  0
  7 12  1  0  0  0  0
  7 14  2  0  0  0  0
  8 21  1  0  0  0  0
  8 29  2  0  0  0  0
  9 11  1  0  0  0  0
  9 21  1  0  0  0  0
 10 28  1  0  0  0  0
 10 30  1  0  0  0  0
 11 32  2  0  0  0  0
 12 15  2  0  0  0  0
 13 17  2  0  0  0  0
 13 18  1  0  0  0  0
 14 16  1  0  0  0  0
 16 25  1  0  0  0  0
 16 27  2  0  0  0  0
 17 23  1  0  0  0  0
 18 24  2  0  0  0  0
 19 23  2  0  0  0  0
 19 24  1  0  0  0  0
 19 30  1  0  0  0  0
 20 21  2  0  0  0  0
 20 26  1  0  0  0  0
 20 32  1  0  0  0  0
 22 26  2  0  0  0  0
 22 28  1  0  0  0  0
 22 29  1  0  0  0  0
 25 31  2  0  0  0  0
 27 33  1  0  0  0  0
 31 34  1  0  0  0  0
 33 34  2  0  0  0  0
M  END
> <PUBCHEM_COMPOUND_ID_TYPE>
0

> <PUBCHEM_TOTAL_CHARGE>
0

> <PUBCHEM_SUBSTANCE_ID>
310930705

> <PUBCHEM_SUBSTANCE_VERSION>
1

> <PUBCHEM_EXT_DATASOURCE_NAME>
4488

> <PUBCHEM_EXT_DATASOURCE_REGID>
SCHEMBL16108002

> <PUBCHEM_SUBSTANCE_COMMENT>
InChI=1S/C23H16FN5O3S2/c24-18-3-1-2-15(9-18)23-28-20(13-33-23)34(31,32)19-6-4-14(5-7-19)10-26-22(30)17-8-16-12-27-29-21(16)25-11-17/h1-9,11-13H,10H2,(H,26,30)(H,25,27,29)
InChIKey=SKNKRGVERFLBMS-UHFFFAOYSA-N

> <PUBCHEM_SUBSTANCE_SYNONYM>
SCHEMBL16108002

> <PUBCHEM_XREF_EXT_ID>
SCHEMBL16108002

> <PUBCHEM_EXT_DATASOURCE_URL>
https://www.surechembl.org/

> <PUBCHEM_EXT_SUBSTANCE_URL>
https://www.surechembl.org/chemical/SCHEMBL16108002

> <PUBCHEM_CID_ASSOCIATIONS>
117599744  1

> <PUBCHEM_COORDINATE_TYPE>
1
3

$$$$
