310942587
  -OEChem-07211613022D

 50 54  0     1  0  0  0  0  0999 V2000
   -4.2645   -0.2711    0.0000 F   0  0  0  0  0  0  0  0  0  0  0  0
    2.6232   -1.4581    0.0000 F   0  0  0  0  0  0  0  0  0  0  0  0
   -3.9274   -3.5831    0.0000 F   0  0  0  0  0  0  0  0  0  0  0  0
   -1.5974   -2.1908    0.0000 O   0  0  0  0  0  0  0  0  0  0  0  0
   -0.7766   -3.6270    0.0000 O   0  0  0  0  0  0  0  0  0  0  0  0
    0.5862    1.6047    0.0000 O   0  0  0  0  0  0  0  0  0  0  0  0
    2.3301    3.2460    0.0000 O   0  0  0  0  0  0  0  0  0  0  0  0
    4.8653    1.7806    0.0000 O   0  0  0  0  0  0  0  0  0  0  0  0
   -1.9784    0.1246    0.0000 N   0  0  0  0  0  0  0  0  0  0  0  0
   -0.2492   -1.2676    0.0000 N   0  0  0  0  0  0  0  0  0  0  0  0
   -1.9784   -1.2237    0.0000 N   0  0  0  0  0  0  0  0  0  0  0  0
    1.8171    0.8866    0.0000 N   0  0  0  0  0  0  0  0  0  0  0  0
    1.5241   -3.2900    0.0000 N   0  0  0  0  0  0  0  0  0  0  0  0
    3.4732    2.3227    0.0000 N   0  0  0  0  0  0  0  0  0  0  0  0
   -0.6594   -0.5496    0.0000 C   0  0  3  0  0  0  0  0  0  0  0  0
   -1.4948   -0.5350    0.0000 C   0  0  0  0  0  0  0  0  0  0  0  0
   -0.2492    0.1978    0.0000 C   0  0  0  0  0  0  0  0  0  0  0  0
   -2.7697   -0.9452    0.0000 C   0  0  0  0  0  0  0  0  0  0  0  0
   -2.7551   -0.1246    0.0000 C   0  0  0  0  0  0  0  0  0  0  0  0
   -3.4292   -1.4435    0.0000 C   0  0  0  0  0  0  0  0  0  0  0  0
   -0.7620   -2.1908    0.0000 C   0  0  0  0  0  0  0  0  0  0  0  0
    0.5716    0.1686    0.0000 C   0  0  0  0  0  0  0  0  0  0  0  0
    0.8353   -1.2676    0.0000 C   0  0  0  0  0  0  0  0  0  0  0  0
   -1.7146    0.9159    0.0000 C   0  0  0  0  0  0  0  0  0  0  0  0
   -4.2059   -1.0771    0.0000 C   0  0  0  0  0  0  0  0  0  0  0  0
    1.2456   -1.9710    0.0000 C   0  0  3  0  0  0  0  0  0  0  0  0
   -0.9672    0.5643    0.0000 C   0  0  0  0  0  0  0  0  0  0  0  0
   -0.2345    1.0185    0.0000 C   0  0  0  0  0  0  0  0  0  0  0  0
   -3.3559   -2.2641    0.0000 C   0  0  0  0  0  0  0  0  0  0  0  0
   -0.3664   -2.8944    0.0000 C   0  0  3  0  0  0  0  0  0  0  0  0
   -2.2861    1.5314    0.0000 C   0  0  0  0  0  0  0  0  0  0  0  0
    1.0112    0.8866    0.0000 C   0  0  0  0  0  0  0  0  0  0  0  0
    2.0663   -2.0736    0.0000 C   0  0  3  0  0  0  0  0  0  0  0  0
   -4.0154   -2.7478    0.0000 C   0  0  0  0  0  0  0  0  0  0  0  0
   -4.8653   -1.5901    0.0000 C   0  0  0  0  0  0  0  0  0  0  0  0
    0.9232   -2.7331    0.0000 C   0  0  0  0  0  0  0  0  0  0  0  0
   -4.7774   -2.4107    0.0000 C   0  0  0  0  0  0  0  0  0  0  0  0
   -2.0076    2.3081    0.0000 C   0  0  0  0  0  0  0  0  0  0  0  0
   -3.0774    1.3702    0.0000 C   0  0  0  0  0  0  0  0  0  0  0  0
    2.2422   -2.8797    0.0000 C   0  0  0  0  0  0  0  0  0  0  0  0
    0.4397   -2.9090    0.0000 C   0  0  0  0  0  0  0  0  0  0  0  0
    2.2422    1.6047    0.0000 C   0  0  0  0  0  0  0  0  0  0  0  0
   -2.5646    2.9237    0.0000 C   0  0  0  0  0  0  0  0  0  0  0  0
   -3.6197    1.9857    0.0000 C   0  0  0  0  0  0  0  0  0  0  0  0
    3.0628    1.6047    0.0000 C   0  0  0  0  0  0  0  0  0  0  0  0
   -3.3706    2.7624    0.0000 C   0  0  0  0  0  0  0  0  0  0  0  0
    4.2791    2.4254    0.0000 C   0  0  0  0  0  0  0  0  0  0  0  0
    3.1653    3.0701    0.0000 C   0  0  0  0  0  0  0  0  0  0  0  0
    4.4696    3.2167    0.0000 C   0  0  0  0  0  0  0  0  0  0  0  0
    3.7516    3.6270    0.0000 C   0  0  0  0  0  0  0  0  0  0  0  0
  1 25  1  0  0  0  0
 33  2  1  1  0  0  0
  3 34  1  0  0  0  0
  4 21  2  0  0  0  0
 30  5  1  6  0  0  0
  6 32  2  0  0  0  0
  7 48  2  0  0  0  0
  8 47  2  0  0  0  0
  9 16  1  0  0  0  0
  9 19  1  0  0  0  0
  9 24  1  0  0  0  0
 15 10  1  1  0  0  0
 10 21  1  0  0  0  0
 10 23  1  0  0  0  0
 11 16  2  0  0  0  0
 11 18  1  0  0  0  0
 12 32  1  0  0  0  0
 12 42  1  0  0  0  0
 13 36  1  0  0  0  0
 13 40  1  0  0  0  0
 14 45  1  0  0  0  0
 14 47  1  0  0  0  0
 14 48  1  0  0  0  0
 15 16  1  0  0  0  0
 15 17  1  0  0  0  0
 17 22  1  0  0  0  0
 17 27  1  0  0  0  0
 17 28  1  0  0  0  0
 18 19  2  0  0  0  0
 18 20  1  0  0  0  0
 20 25  2  0  0  0  0
 20 29  1  0  0  0  0
 21 30  1  0  0  0  0
 22 32  1  0  0  0  0
 26 23  1  1  0  0  0
 24 31  1  0  0  0  0
 25 35  1  0  0  0  0
 26 33  1  0  0  0  0
 26 36  1  0  0  0  0
 29 34  2  0  0  0  0
 30 41  1  0  0  0  0
 31 38  2  0  0  0  0
 31 39  1  0  0  0  0
 33 40  1  0  0  0  0
 34 37  1  0  0  0  0
 35 37  2  0  0  0  0
 38 43  1  0  0  0  0
 39 44  2  0  0  0  0
 42 45  1  0  0  0  0
 43 46  2  0  0  0  0
 44 46  1  0  0  0  0
 47 49  1  0  0  0  0
 48 50  1  0  0  0  0
 49 50  2  0  0  0  0
M  END
> <PUBCHEM_COMPOUND_ID_TYPE>
0

> <PUBCHEM_TOTAL_CHARGE>
0

> <PUBCHEM_SUBSTANCE_ID>
310942587

> <PUBCHEM_SUBSTANCE_VERSION>
1

> <PUBCHEM_EXT_DATASOURCE_NAME>
4488

> <PUBCHEM_EXT_DATASOURCE_REGID>
SCHEMBL16120632

> <PUBCHEM_SUBSTANCE_COMMENT>
InChI=1S/C36H41F3N6O5/c1-22(46)35(50)45(20-24-17-40-18-28(24)39)33(36(2,3)16-30(47)41-13-14-44-31(48)11-12-32(44)49)34-42-29(26-15-25(37)9-10-27(26)38)21-43(34)19-23-7-5-4-6-8-23/h4-12,15,21-22,24,28,33,40,46H,13-14,16-20H2,1-3H3,(H,41,47)/t22-,24-,28-,33-/m0/s1
InChIKey=QTTLOUSQJHSYLH-WTOFRRMBSA-N

> <PUBCHEM_SUBSTANCE_SYNONYM>
SCHEMBL16120632

> <PUBCHEM_XREF_EXT_ID>
SCHEMBL16120632

> <PUBCHEM_EXT_DATASOURCE_URL>
https://www.surechembl.org/

> <PUBCHEM_EXT_SUBSTANCE_URL>
https://www.surechembl.org/chemical/SCHEMBL16120632

> <PUBCHEM_CID_ASSOCIATIONS>
117609134  1

> <PUBCHEM_COORDINATE_TYPE>
1
3

> <PUBCHEM_BONDANNOTATIONS>
15  10  5
33  2  5
26  23  5
30  5  6

$$$$
