310940398
  -OEChem-07211613022D

 27 30  0     0  0  0  0  0  0999 V2000
   -1.1427    1.3918    0.0000 O   0  0  0  0  0  0  0  0  0  0  0  0
    1.9160   -1.3918    0.0000 O   0  0  0  0  0  0  0  0  0  0  0  0
    4.6824   -0.3265    0.0000 O   0  5  0  0  0  0  0  0  0  0  0  0
    4.5107    1.0653    0.0000 O   0  0  0  0  0  0  0  0  0  0  0  0
    0.9193   -0.0688    0.0000 N   0  0  0  0  0  0  0  0  0  0  0  0
    0.5241   -0.8076    0.0000 N   0  0  0  0  0  0  0  0  0  0  0  0
   -0.3007   -0.6530    0.0000 N   0  0  0  0  0  0  0  0  0  0  0  0
    4.1842    0.3437    0.0000 N   0  3  0  0  0  0  0  0  0  0  0  0
    1.7269    0.0515    0.0000 C   0  0  0  0  0  0  0  0  0  0  0  0
   -0.3866    0.1718    0.0000 C   0  0  0  0  0  0  0  0  0  0  0  0
   -1.1427    0.5499    0.0000 C   0  0  0  0  0  0  0  0  0  0  0  0
    0.3522    0.5155    0.0000 C   0  0  0  0  0  0  0  0  0  0  0  0
    2.2253   -0.6186    0.0000 C   0  0  0  0  0  0  0  0  0  0  0  0
   -1.8128    0.1374    0.0000 C   0  0  0  0  0  0  0  0  0  0  0  0
    2.0534    0.7904    0.0000 C   0  0  0  0  0  0  0  0  0  0  0  0
    3.3766    0.2406    0.0000 C   0  0  0  0  0  0  0  0  0  0  0  0
   -3.2391    0.1203    0.0000 C   0  0  0  0  0  0  0  0  0  0  0  0
    3.0329   -0.5155    0.0000 C   0  0  0  0  0  0  0  0  0  0  0  0
   -2.5517    0.5327    0.0000 C   0  0  0  0  0  0  0  0  0  0  0  0
   -3.2563   -0.7045    0.0000 C   0  0  0  0  0  0  0  0  0  0  0  0
    2.8610    0.8935    0.0000 C   0  0  0  0  0  0  0  0  0  0  0  0
   -1.8472   -0.7045    0.0000 C   0  0  0  0  0  0  0  0  0  0  0  0
   -2.5173   -1.0998    0.0000 C   0  0  0  0  0  0  0  0  0  0  0  0
   -3.9779    0.4983    0.0000 C   0  0  0  0  0  0  0  0  0  0  0  0
   -3.9436   -1.1341    0.0000 C   0  0  0  0  0  0  0  0  0  0  0  0
   -4.6824    0.0688    0.0000 C   0  0  0  0  0  0  0  0  0  0  0  0
   -4.6481   -0.7389    0.0000 C   0  0  0  0  0  0  0  0  0  0  0  0
  1 11  2  0  0  0  0
  2 13  1  0  0  0  0
  3  8  1  0  0  0  0
  4  8  2  0  0  0  0
  5  6  1  0  0  0  0
  5  9  1  0  0  0  0
  5 12  1  0  0  0  0
  6  7  1  0  0  0  0
  7 10  1  0  0  0  0
  8 16  1  0  0  0  0
  9 13  2  0  0  0  0
  9 15  1  0  0  0  0
 10 11  1  0  0  0  0
 10 12  2  0  0  0  0
 11 14  1  0  0  0  0
 13 18  1  0  0  0  0
 14 19  2  0  0  0  0
 14 22  1  0  0  0  0
 15 21  2  0  0  0  0
 16 18  2  0  0  0  0
 16 21  1  0  0  0  0
 17 19  1  0  0  0  0
 17 20  2  0  0  0  0
 17 24  1  0  0  0  0
 20 23  1  0  0  0  0
 20 25  1  0  0  0  0
 22 23  2  0  0  0  0
 24 26  2  0  0  0  0
 25 27  2  0  0  0  0
 26 27  1  0  0  0  0
M  CHG  2   3  -1   8   1
M  END
> <PUBCHEM_COMPOUND_ID_TYPE>
0

> <PUBCHEM_TOTAL_CHARGE>
0

> <PUBCHEM_SUBSTANCE_ID>
310940398

> <PUBCHEM_SUBSTANCE_VERSION>
1

> <PUBCHEM_EXT_DATASOURCE_NAME>
4488

> <PUBCHEM_EXT_DATASOURCE_REGID>
SCHEMBL16118346

> <PUBCHEM_SUBSTANCE_COMMENT>
InChI=1S/C19H14N4O4/c24-18-10-15(23(26)27)7-8-17(18)22-11-16(20-21-22)19(25)14-6-5-12-3-1-2-4-13(12)9-14/h1-11,20-21,24H
InChIKey=SSYHRQXQKJKASS-UHFFFAOYSA-N

> <PUBCHEM_SUBSTANCE_SYNONYM>
SCHEMBL16118346

> <PUBCHEM_XREF_EXT_ID>
SCHEMBL16118346

> <PUBCHEM_EXT_DATASOURCE_URL>
https://www.surechembl.org/

> <PUBCHEM_EXT_SUBSTANCE_URL>
https://www.surechembl.org/chemical/SCHEMBL16118346

> <PUBCHEM_CID_ASSOCIATIONS>
117607425  1

> <PUBCHEM_COORDINATE_TYPE>
1
3

$$$$
