310940175
  -OEChem-07211613022D

 42 46  0     0  0  0  0  0  0999 V2000
   -0.3309    4.0514    0.0000 S   0  0  0  0  0  0  0  0  0  0  0  0
    1.3639    4.0514    0.0000 F   0  0  0  0  0  0  0  0  0  0  0  0
    2.6874   -0.0160    0.0000 O   0  0  0  0  0  0  0  0  0  0  0  0
    0.2073   -3.9596    0.0000 O   0  0  0  0  0  0  0  0  0  0  0  0
   -1.0411    3.6317    0.0000 O   0  0  0  0  0  0  0  0  0  0  0  0
    0.4116    4.4549    0.0000 O   0  0  0  0  0  0  0  0  0  0  0  0
   -0.2902   -4.7777    0.0000 O   0  0  0  0  0  0  0  0  0  0  0  0
   -0.0726   -0.4519    0.0000 N   0  0  0  0  0  0  0  0  0  0  0  0
    0.1049    0.3552    0.0000 N   0  0  0  0  0  0  0  0  0  0  0  0
    1.3477    1.1622    0.0000 N   0  0  0  0  0  0  0  0  0  0  0  0
    2.2355   -1.3880    0.0000 N   0  0  0  0  0  0  0  0  0  0  0  0
   -1.8159   -2.1467    0.0000 N   0  0  0  0  0  0  0  0  0  0  0  0
   -0.7344    4.7777    0.0000 N   0  0  0  0  0  0  0  0  0  0  0  0
   -2.0903    0.9685    0.0000 N   0  0  0  0  0  0  0  0  0  0  0  0
   -0.8312   -0.7746    0.0000 C   0  0  0  0  0  0  0  0  0  0  0  0
    0.6699   -0.8553    0.0000 C   0  0  0  0  0  0  0  0  0  0  0  0
    1.2670   -0.2905    0.0000 C   0  0  0  0  0  0  0  0  0  0  0  0
    0.9442    0.4359    0.0000 C   0  0  0  0  0  0  0  0  0  0  0  0
    2.0580   -0.5649    0.0000 C   0  0  0  0  0  0  0  0  0  0  0  0
   -0.4923   -1.5494    0.0000 C   0  0  0  0  0  0  0  0  0  0  0  0
   -1.6544   -0.7102    0.0000 C   0  0  0  0  0  0  0  0  0  0  0  0
    0.8312   -1.6785    0.0000 C   0  0  0  0  0  0  0  0  0  0  0  0
   -0.7344    0.0324    0.0000 C   0  0  0  0  0  0  0  0  0  0  0  0
    0.9281    1.8886    0.0000 C   0  0  0  0  0  0  0  0  0  0  0  0
   -0.9765   -2.2274    0.0000 C   0  0  0  0  0  0  0  0  0  0  0  0
   -2.1548   -1.3719    0.0000 C   0  0  0  0  0  0  0  0  0  0  0  0
    1.6221   -1.9368    0.0000 C   0  0  0  0  0  0  0  0  0  0  0  0
    0.0888    3.3412    0.0000 C   0  0  0  0  0  0  0  0  0  0  0  0
    0.9281    3.3251    0.0000 C   0  0  0  0  0  0  0  0  0  0  0  0
    1.3477    2.5987    0.0000 C   0  0  0  0  0  0  0  0  0  0  0  0
    0.1049    1.9047    0.0000 C   0  0  0  0  0  0  0  0  0  0  0  0
   -0.2902   -4.2471    0.0000 C   0  0  0  0  0  0  0  0  0  0  0  0
   -1.4285    0.5166    0.0000 C   0  0  0  0  0  0  0  0  0  0  0  0
   -0.2986    2.5987    0.0000 C   0  0  0  0  0  0  0  0  0  0  0  0
    0.2183   -3.4069    0.0000 C   0  0  0  0  0  0  0  0  0  0  0  0
   -1.5737    4.7777    0.0000 C   0  0  0  0  0  0  0  0  0  0  0  0
   -1.9934    4.0675    0.0000 C   0  0  0  0  0  0  0  0  0  0  0  0
   -2.6874    3.6317    0.0000 C   0  0  0  0  0  0  0  0  0  0  0  0
   -1.9934    3.2443    0.0000 C   0  0  0  0  0  0  0  0  0  0  0  0
    0.7159   -3.3848    0.0000 C   0  0  0  0  0  0  0  0  0  0  0  0
   -0.2902   -3.4069    0.0000 C   0  0  0  0  0  0  0  0  0  0  0  0
    0.2073   -2.8652    0.0000 C   0  0  0  0  0  0  0  0  0  0  0  0
  1  5  2  0  0  0  0
  1  6  2  0  0  0  0
  1 13  1  0  0  0  0
  1 28  1  0  0  0  0
  2 29  1  0  0  0  0
  3 19  2  0  0  0  0
  4 32  1  0  0  0  0
  4 35  1  0  0  0  0
  7 32  2  0  0  0  0
  8  9  1  0  0  0  0
  8 15  1  0  0  0  0
  8 16  1  0  0  0  0
  9 18  2  0  0  0  0
 10 18  1  0  0  0  0
 10 24  1  0  0  0  0
 11 19  1  0  0  0  0
 11 27  1  0  0  0  0
 12 25  1  0  0  0  0
 12 26  1  0  0  0  0
 12 32  1  0  0  0  0
 13 36  1  0  0  0  0
 14 33  3  0  0  0  0
 15 20  1  0  0  0  0
 15 21  1  0  0  0  0
 15 23  1  0  0  0  0
 16 17  2  0  0  0  0
 16 22  1  0  0  0  0
 17 18  1  0  0  0  0
 17 19  1  0  0  0  0
 20 25  1  0  0  0  0
 21 26  1  0  0  0  0
 22 27  2  0  0  0  0
 23 33  1  0  0  0  0
 24 30  1  0  0  0  0
 24 31  2  0  0  0  0
 28 29  1  0  0  0  0
 28 34  2  0  0  0  0
 29 30  2  0  0  0  0
 31 34  1  0  0  0  0
 35 40  1  0  0  0  0
 35 41  1  0  0  0  0
 35 42  1  0  0  0  0
 36 37  1  0  0  0  0
 37 38  1  0  0  0  0
 37 39  1  0  0  0  0
 38 39  1  0  0  0  0
M  END
> <PUBCHEM_COMPOUND_ID_TYPE>
0

> <PUBCHEM_TOTAL_CHARGE>
0

> <PUBCHEM_SUBSTANCE_ID>
310940175

> <PUBCHEM_SUBSTANCE_VERSION>
1

> <PUBCHEM_EXT_DATASOURCE_NAME>
4488

> <PUBCHEM_EXT_DATASOURCE_REGID>
SCHEMBL16118109

> <PUBCHEM_SUBSTANCE_COMMENT>
InChI=1S/C28H34FN7O5S/c1-27(2,3)41-26(38)35-14-10-28(9-12-30,11-15-35)36-21-8-13-31-25(37)23(21)24(34-36)33-19-6-7-22(20(29)16-19)42(39,40)32-17-18-4-5-18/h6-8,13,16,18,32H,4-5,9-11,14-15,17H2,1-3H3,(H,31,37)(H,33,34)
InChIKey=GROXEERZXRZVNA-UHFFFAOYSA-N

> <PUBCHEM_SUBSTANCE_SYNONYM>
SCHEMBL16118109

> <PUBCHEM_XREF_EXT_ID>
SCHEMBL16118109

> <PUBCHEM_EXT_DATASOURCE_URL>
https://www.surechembl.org/

> <PUBCHEM_EXT_SUBSTANCE_URL>
https://www.surechembl.org/chemical/SCHEMBL16118109

> <PUBCHEM_CID_ASSOCIATIONS>
117607286  1

> <PUBCHEM_COORDINATE_TYPE>
1
3

$$$$
