310940557
  -OEChem-07211613022D

 16 17  0     1  0  0  0  0  0999 V2000
    1.1754   -2.3508    0.0000 O   0  0  0  0  0  0  0  0  0  0  0  0
    1.2612   -0.8752    0.0000 O   0  0  0  0  0  0  0  0  0  0  0  0
    0.0258   -1.6644    0.0000 N   0  0  0  0  0  0  0  0  0  0  0  0
    0.5233    2.9342    0.0000 N   0  0  0  0  0  0  0  0  0  0  0  0
   -0.5748   -1.0982    0.0000 C   0  0  3  0  0  0  0  0  0  0  0  0
    0.7979   -1.6130    0.0000 C   0  0  0  0  0  0  0  0  0  0  0  0
   -0.3689   -0.2745    0.0000 C   0  0  0  0  0  0  0  0  0  0  0  0
   -0.1802   -2.5053    0.0000 C   0  0  0  0  0  0  0  0  0  0  0  0
    0.5405   -2.9342    0.0000 C   0  0  0  0  0  0  0  0  0  0  0  0
   -0.9181    0.2917    0.0000 C   0  0  0  0  0  0  0  0  0  0  0  0
    0.4375   -0.0515    0.0000 C   0  0  0  0  0  0  0  0  0  0  0  0
    0.0600    1.3213    0.0000 C   0  0  0  0  0  0  0  0  0  0  0  0
   -1.2612   -1.2869    0.0000 C   0  0  0  0  0  0  0  0  0  0  0  0
   -0.7292    1.0811    0.0000 C   0  0  0  0  0  0  0  0  0  0  0  0
    0.6606    0.7379    0.0000 C   0  0  0  0  0  0  0  0  0  0  0  0
    0.3003    2.0933    0.0000 C   0  0  0  0  0  0  0  0  0  0  0  0
  1  6  1  0  0  0  0
  1  9  1  0  0  0  0
  2  6  2  0  0  0  0
  3  5  1  0  0  0  0
  3  6  1  0  0  0  0
  3  8  1  0  0  0  0
  4 16  3  0  0  0  0
  5  7  1  0  0  0  0
  5 13  1  6  0  0  0
  7 10  2  0  0  0  0
  7 11  1  0  0  0  0
  8  9  2  0  0  0  0
 10 14  1  0  0  0  0
 11 15  2  0  0  0  0
 12 14  2  0  0  0  0
 12 15  1  0  0  0  0
 12 16  1  0  0  0  0
M  END
> <PUBCHEM_COMPOUND_ID_TYPE>
0

> <PUBCHEM_TOTAL_CHARGE>
0

> <PUBCHEM_SUBSTANCE_ID>
310940557

> <PUBCHEM_SUBSTANCE_VERSION>
1

> <PUBCHEM_EXT_DATASOURCE_NAME>
4488

> <PUBCHEM_EXT_DATASOURCE_REGID>
SCHEMBL16118511

> <PUBCHEM_SUBSTANCE_COMMENT>
InChI=1S/C12H10N2O2/c1-9(14-6-7-16-12(14)15)11-4-2-10(8-13)3-5-11/h2-7,9H,1H3/t9-/m1/s1
InChIKey=LHPLYHRIQWHJPO-SECBINFHSA-N

> <PUBCHEM_SUBSTANCE_SYNONYM>
SCHEMBL16118511

> <PUBCHEM_XREF_EXT_ID>
SCHEMBL16118511

> <PUBCHEM_EXT_DATASOURCE_URL>
https://www.surechembl.org/

> <PUBCHEM_EXT_SUBSTANCE_URL>
https://www.surechembl.org/chemical/SCHEMBL16118511

> <PUBCHEM_CID_ASSOCIATIONS>
117607555  1

> <PUBCHEM_COORDINATE_TYPE>
1
3

> <PUBCHEM_BONDANNOTATIONS>
5  13  6

$$$$
