310931011
  -OEChem-07211613022D

 23 26  0     1  0  0  0  0  0999 V2000
    6.5807   -3.4873    0.0000 S   0  0  0  0  0  0  0  0  0  0  0  0
    5.7686   -3.6325    0.0000 S   0  0  0  0  0  0  0  0  0  0  0  0
    2.5619   -3.1408    0.0000 O   0  0  0  0  0  0  0  0  0  0  0  0
    8.7655   -1.6450    0.0000 O   0  0  0  0  0  0  0  0  0  0  0  0
    6.3292   -2.0807    0.0000 C   0  0  3  0  0  0  0  0  0  0  0  0
    5.5171   -2.2259    0.0000 C   0  0  3  0  0  0  0  0  0  0  0  0
    4.9853   -1.5952    0.0000 C   0  0  3  0  0  0  0  0  0  0  0  0
    3.8928   -2.5163    0.0000 C   0  0  3  0  0  0  0  0  0  0  0  0
    4.1731   -1.7404    0.0000 C   0  0  3  0  0  0  0  0  0  0  0  0
    6.6095   -1.3047    0.0000 C   0  0  3  0  0  0  0  0  0  0  0  0
    6.8610   -2.7114    0.0000 C   0  0  3  0  0  0  0  0  0  0  0  0
    5.2368   -3.0018    0.0000 C   0  0  0  0  0  0  0  0  0  0  0  0
    3.0683   -2.4895    0.0000 C   0  0  3  0  0  0  0  0  0  0  0  0
    4.4247   -3.1470    0.0000 C   0  0  0  0  0  0  0  0  0  0  0  0
    5.2655   -0.8192    0.0000 C   0  0  0  0  0  0  0  0  0  0  0  0
    6.0777   -0.6740    0.0000 C   0  0  0  0  0  0  0  0  0  0  0  0
    3.5218   -1.2340    0.0000 C   0  0  0  0  0  0  0  0  0  0  0  0
    7.4216   -1.1595    0.0000 C   0  0  0  0  0  0  0  0  0  0  0  0
    6.0489   -2.8566    0.0000 C   0  0  0  0  0  0  0  0  0  0  0  0
    7.6731   -2.5662    0.0000 C   0  0  0  0  0  0  0  0  0  0  0  0
    2.8390   -1.6970    0.0000 C   0  0  0  0  0  0  0  0  0  0  0  0
    7.9534   -1.7902    0.0000 C   0  0  3  0  0  0  0  0  0  0  0  0
    3.5330   -3.2587    0.0000 C   0  0  0  0  0  0  0  0  0  0  0  0
  1  2  1  0  0  0  0
  1 11  1  0  0  0  0
  3 13  1  0  0  0  0
  4 22  1  0  0  0  0
  5  6  1  0  0  0  0
  5 10  1  0  0  0  0
  5 11  1  0  0  0  0
  5 19  1  1  0  0  0
  6  7  1  0  0  0  0
  6 12  1  6  0  0  0
  7  9  1  0  0  0  0
  7 15  1  6  0  0  0
  8  9  1  0  0  0  0
  8 13  1  0  0  0  0
  8 14  1  0  0  0  0
  8 23  1  1  0  0  0
  9 17  1  1  0  0  0
 10 16  1  0  0  0  0
 10 18  1  0  0  0  0
 11 20  1  0  0  0  0
 12 14  1  0  0  0  0
 13 21  1  0  0  0  0
 15 16  1  0  0  0  0
 17 21  1  0  0  0  0
 18 22  1  0  0  0  0
 20 22  1  0  0  0  0
M  END
> <PUBCHEM_COMPOUND_ID_TYPE>
0

> <PUBCHEM_TOTAL_CHARGE>
0

> <PUBCHEM_SUBSTANCE_ID>
310931011

> <PUBCHEM_SUBSTANCE_VERSION>
1

> <PUBCHEM_EXT_DATASOURCE_NAME>
4488

> <PUBCHEM_EXT_DATASOURCE_REGID>
SCHEMBL16108311

> <PUBCHEM_SUBSTANCE_COMMENT>
InChI=1S/C19H32O2S2/c1-18-8-7-15-13(14(18)5-6-16(18)21)4-3-11-9-12(20)10-17(23-22)19(11,15)2/h11-17,20-22H,3-10H2,1-2H3/t11?,12?,13-,14-,15+,16?,17?,18-,19-/m0/s1
InChIKey=VBGUQTVOSNIBLZ-IAINLYJQSA-N

> <PUBCHEM_SUBSTANCE_SYNONYM>
SCHEMBL16108311

> <PUBCHEM_XREF_EXT_ID>
SCHEMBL16108311

> <PUBCHEM_EXT_DATASOURCE_URL>
https://www.surechembl.org/

> <PUBCHEM_EXT_SUBSTANCE_URL>
https://www.surechembl.org/chemical/SCHEMBL16108311

> <PUBCHEM_CID_ASSOCIATIONS>
117599938  1

> <PUBCHEM_COORDINATE_TYPE>
1
3

> <PUBCHEM_BONDANNOTATIONS>
5  19  5
6  12  6
7  15  6
8  23  5
9  17  5

$$$$
