310940257
  -OEChem-07211613022D

 34 36  0     1  0  0  0  0  0999 V2000
    4.0438   -1.2184    0.0000 Br  0  0  0  0  0  0  0  0  0  0  0  0
    1.1859   -3.6934    0.0000 P   0  0  3  0  0  0  0  0  0  0  0  0
    3.9967   -5.6050    0.0000 F   0  0  0  0  0  0  0  0  0  0  0  0
    3.9967   -3.6210    0.0000 O   0  0  0  0  0  0  0  0  0  0  0  0
    3.1717   -5.6050    0.0000 O   0  0  0  0  0  0  0  0  0  0  0  0
    1.9004   -4.1059    0.0000 O   0  0  0  0  0  0  0  0  0  0  0  0
    1.1859   -2.8684    0.0000 O   0  0  0  0  0  0  0  0  0  0  0  0
    5.0912   -2.5121    0.0000 O   0  0  0  0  0  0  0  0  0  0  0  0
    1.1859   -4.5184    0.0000 O   0  0  0  0  0  0  0  0  0  0  0  0
   -1.4922   -3.1527    0.0000 O   0  0  0  0  0  0  0  0  0  0  0  0
    5.4611   -3.8924    0.0000 N   0  0  0  0  0  0  0  0  0  0  0  0
    6.4715   -2.8820    0.0000 N   0  0  0  0  0  0  0  0  0  0  0  0
    0.4714   -4.1059    0.0000 N   0  0  0  0  0  0  0  0  0  0  0  0
    7.8517   -3.2518    0.0000 N   0  0  0  0  0  0  0  0  0  0  0  0
    4.4092   -4.8905    0.0000 C   0  0  3  0  0  0  0  0  0  0  0  0
    4.6642   -4.1059    0.0000 C   0  0  3  0  0  0  0  0  0  0  0  0
    3.5842   -4.8905    0.0000 C   0  0  3  0  0  0  0  0  0  0  0  0
    3.3293   -4.1059    0.0000 C   0  0  3  0  0  0  0  0  0  0  0  0
    5.6746   -3.0955    0.0000 C   0  0  0  0  0  0  0  0  0  0  0  0
    2.6148   -3.6934    0.0000 C   0  0  0  0  0  0  0  0  0  0  0  0
    4.8217   -5.6050    0.0000 C   0  0  0  0  0  0  0  0  0  0  0  0
    6.0444   -4.4757    0.0000 C   0  0  0  0  0  0  0  0  0  0  0  0
    7.0548   -3.4653    0.0000 C   0  0  0  0  0  0  0  0  0  0  0  0
    6.8413   -4.2622    0.0000 C   0  0  0  0  0  0  0  0  0  0  0  0
    1.9004   -2.4559    0.0000 C   0  0  0  0  0  0  0  0  0  0  0  0
   -0.1119   -3.5225    0.0000 C   0  0  3  0  0  0  0  0  0  0  0  0
    2.6148   -2.8684    0.0000 C   0  0  0  0  0  0  0  0  0  0  0  0
    1.9004   -1.6309    0.0000 C   0  0  0  0  0  0  0  0  0  0  0  0
   -0.9088   -3.7361    0.0000 C   0  0  0  0  0  0  0  0  0  0  0  0
    3.3293   -1.6309    0.0000 C   0  0  0  0  0  0  0  0  0  0  0  0
    3.3293   -2.4559    0.0000 C   0  0  0  0  0  0  0  0  0  0  0  0
    2.6148   -1.2184    0.0000 C   0  0  0  0  0  0  0  0  0  0  0  0
    0.1016   -2.7256    0.0000 C   0  0  0  0  0  0  0  0  0  0  0  0
   -1.1224   -4.5329    0.0000 C   0  0  0  0  0  0  0  0  0  0  0  0
  1 30  1  0  0  0  0
  2  6  1  0  0  0  0
  2  7  1  0  0  0  0
  2  9  2  0  0  0  0
  2 13  1  0  0  0  0
 15  3  1  6  0  0  0
 16  4  1  1  0  0  0
  4 18  1  0  0  0  0
 17  5  1  6  0  0  0
  6 20  1  0  0  0  0
  7 25  1  0  0  0  0
  8 19  2  0  0  0  0
 10 29  2  0  0  0  0
 11 16  1  0  0  0  0
 11 19  1  0  0  0  0
 11 22  1  0  0  0  0
 12 19  1  0  0  0  0
 12 23  2  0  0  0  0
 13 26  1  0  0  0  0
 14 23  1  0  0  0  0
 15 16  1  0  0  0  0
 15 17  1  0  0  0  0
 15 21  1  1  0  0  0
 17 18  1  0  0  0  0
 18 20  1  1  0  0  0
 22 24  2  0  0  0  0
 23 24  1  0  0  0  0
 25 27  2  0  0  0  0
 25 28  1  0  0  0  0
 26 29  1  0  0  0  0
 26 33  1  6  0  0  0
 27 31  1  0  0  0  0
 28 32  2  0  0  0  0
 29 34  1  0  0  0  0
 30 31  2  0  0  0  0
 30 32  1  0  0  0  0
M  END
> <PUBCHEM_COMPOUND_ID_TYPE>
0

> <PUBCHEM_TOTAL_CHARGE>
0

> <PUBCHEM_SUBSTANCE_ID>
310940257

> <PUBCHEM_SUBSTANCE_VERSION>
1

> <PUBCHEM_EXT_DATASOURCE_NAME>
4488

> <PUBCHEM_EXT_DATASOURCE_REGID>
SCHEMBL16118199

> <PUBCHEM_SUBSTANCE_COMMENT>
InChI=1S/C20H25BrFN4O7P/c1-11(12(2)27)25-34(30,33-14-6-4-13(21)5-7-14)31-10-15-17(28)20(3,22)18(32-15)26-9-8-16(23)24-19(26)29/h4-9,11,15,17-18,28H,10H2,1-3H3,(H,25,30)(H2,23,24,29)/t11-,15+,17+,18+,20+,34?/m0/s1
InChIKey=JXFAYRLLFLFQBY-YLVADPFOSA-N

> <PUBCHEM_SUBSTANCE_SYNONYM>
SCHEMBL16118199

> <PUBCHEM_XREF_EXT_ID>
SCHEMBL16118199

> <PUBCHEM_EXT_DATASOURCE_URL>
https://www.surechembl.org/

> <PUBCHEM_EXT_SUBSTANCE_URL>
https://www.surechembl.org/chemical/SCHEMBL16118199

> <PUBCHEM_CID_ASSOCIATIONS>
117607346  1

> <PUBCHEM_COORDINATE_TYPE>
1
3

> <PUBCHEM_BONDANNOTATIONS>
15  21  5
18  20  5
26  33  6
15  3  6
16  4  5
17  5  6

$$$$
