310938578
  -OEChem-07211613022D

 19 21  0     0  0  0  0  0  0999 V2000
    0.2894   -4.0104    0.0000 O   0  0  0  0  0  0  0  0  0  0  0  0
    1.7184   -4.0104    0.0000 O   0  0  0  0  0  0  0  0  0  0  0  0
    1.7184   -1.5354    0.0000 N   0  0  0  0  0  0  0  0  0  0  0  0
    2.5030   -2.6154    0.0000 N   0  0  0  0  0  0  0  0  0  0  0  0
    1.0039   -1.1229    0.0000 N   0  0  0  0  0  0  0  0  0  0  0  0
    1.7184   -2.3604    0.0000 C   0  0  0  0  0  0  0  0  0  0  0  0
    2.9879   -1.9479    0.0000 C   0  0  0  0  0  0  0  0  0  0  0  0
    1.0039   -2.7729    0.0000 C   0  0  0  0  0  0  0  0  0  0  0  0
    2.5030   -1.2805    0.0000 C   0  0  0  0  0  0  0  0  0  0  0  0
    3.8129   -1.9479    0.0000 C   0  0  0  0  0  0  0  0  0  0  0  0
    0.2894   -2.3604    0.0000 C   0  0  0  0  0  0  0  0  0  0  0  0
    1.0039   -3.5979    0.0000 C   0  0  0  0  0  0  0  0  0  0  0  0
    4.2254   -1.2335    0.0000 C   0  0  0  0  0  0  0  0  0  0  0  0
    0.2894   -1.5354    0.0000 C   0  0  0  0  0  0  0  0  0  0  0  0
    4.2254   -2.6624    0.0000 C   0  0  0  0  0  0  0  0  0  0  0  0
    5.0504   -1.2335    0.0000 C   0  0  0  0  0  0  0  0  0  0  0  0
    5.0504   -2.6624    0.0000 C   0  0  0  0  0  0  0  0  0  0  0  0
    5.4629   -1.9479    0.0000 C   0  0  0  0  0  0  0  0  0  0  0  0
    3.8129   -0.5190    0.0000 C   0  0  0  0  0  0  0  0  0  0  0  0
  1 12  2  0  0  0  0
  2 12  1  0  0  0  0
  3  5  1  0  0  0  0
  3  6  1  0  0  0  0
  3  9  1  0  0  0  0
  4  6  2  0  0  0  0
  4  7  1  0  0  0  0
  5 14  2  0  0  0  0
  6  8  1  0  0  0  0
  7  9  2  0  0  0  0
  7 10  1  0  0  0  0
  8 11  2  0  0  0  0
  8 12  1  0  0  0  0
 10 13  1  0  0  0  0
 10 15  2  0  0  0  0
 11 14  1  0  0  0  0
 13 16  2  0  0  0  0
 13 19  1  0  0  0  0
 15 17  1  0  0  0  0
 16 18  1  0  0  0  0
 17 18  2  0  0  0  0
M  END
> <PUBCHEM_COMPOUND_ID_TYPE>
0

> <PUBCHEM_TOTAL_CHARGE>
0

> <PUBCHEM_SUBSTANCE_ID>
310938578

> <PUBCHEM_SUBSTANCE_VERSION>
1

> <PUBCHEM_EXT_DATASOURCE_NAME>
4488

> <PUBCHEM_EXT_DATASOURCE_REGID>
SCHEMBL16116492

> <PUBCHEM_SUBSTANCE_COMMENT>
InChI=1S/C14H11N3O2/c1-9-4-2-3-5-10(9)12-8-17-13(16-12)11(14(18)19)6-7-15-17/h2-8H,1H3,(H,18,19)
InChIKey=IBKQQCNNNLYJDH-UHFFFAOYSA-N

> <PUBCHEM_SUBSTANCE_SYNONYM>
SCHEMBL16116492

> <PUBCHEM_XREF_EXT_ID>
SCHEMBL16116492

> <PUBCHEM_EXT_DATASOURCE_URL>
https://www.surechembl.org/

> <PUBCHEM_EXT_SUBSTANCE_URL>
https://www.surechembl.org/chemical/SCHEMBL16116492

> <PUBCHEM_CID_ASSOCIATIONS>
83654621  1

> <PUBCHEM_COORDINATE_TYPE>
1
3

$$$$
