310946699
  -OEChem-07211613022D

 19 20  0     1  0  0  0  0  0999 V2000
    0.0511   -5.3149    0.0000 O   0  0  0  0  0  0  0  0  0  0  0  0
   -0.9161   -4.1825    0.0000 O   0  0  0  0  0  0  0  0  0  0  0  0
    2.7253   -6.8751    0.0000 O   0  0  0  0  0  0  0  0  0  0  0  0
    3.4398   -8.1126    0.0000 O   0  0  0  0  0  0  0  0  0  0  0  0
    4.8687   -7.2876    0.0000 N   0  0  0  0  0  0  0  0  0  0  0  0
   -0.8422   -6.3069    0.0000 C   0  0  0  0  0  0  0  0  0  0  0  0
   -1.2547   -5.5925    0.0000 C   0  0  0  0  0  0  0  0  0  0  0  0
   -0.0352   -6.1354    0.0000 C   0  0  3  0  0  0  0  0  0  0  0  0
   -0.7026   -4.9794    0.0000 C   0  0  0  0  0  0  0  0  0  0  0  0
   -1.2547   -7.0214    0.0000 C   0  0  0  0  0  0  0  0  0  0  0  0
   -2.0797   -5.5925    0.0000 C   0  0  0  0  0  0  0  0  0  0  0  0
    0.5482   -6.7188    0.0000 C   0  0  0  0  0  0  0  0  0  0  0  0
   -2.0797   -7.0214    0.0000 C   0  0  0  0  0  0  0  0  0  0  0  0
   -2.4922   -6.3069    0.0000 C   0  0  0  0  0  0  0  0  0  0  0  0
    1.3451   -6.5052    0.0000 C   0  0  0  0  0  0  0  0  0  0  0  0
    1.9284   -7.0886    0.0000 C   0  0  3  0  0  0  0  0  0  0  0  0
    3.4398   -7.2876    0.0000 C   0  0  0  0  0  0  0  0  0  0  0  0
    1.7149   -7.8855    0.0000 C   0  0  0  0  0  0  0  0  0  0  0  0
    4.1543   -6.8751    0.0000 C   0  0  0  0  0  0  0  0  0  0  0  0
  1  8  1  0  0  0  0
  1  9  1  0  0  0  0
  2  9  2  0  0  0  0
  3 16  1  0  0  0  0
  3 17  1  0  0  0  0
  4 17  2  0  0  0  0
  5 19  1  0  0  0  0
  6  7  1  0  0  0  0
  6  8  1  0  0  0  0
  6 10  2  0  0  0  0
  7  9  1  0  0  0  0
  7 11  2  0  0  0  0
  8 12  1  1  0  0  0
 10 13  1  0  0  0  0
 11 14  1  0  0  0  0
 12 15  1  0  0  0  0
 13 14  2  0  0  0  0
 15 16  1  0  0  0  0
 16 18  1  0  0  0  0
 17 19  1  0  0  0  0
M  END
> <PUBCHEM_COMPOUND_ID_TYPE>
0

> <PUBCHEM_TOTAL_CHARGE>
0

> <PUBCHEM_SUBSTANCE_ID>
310946699

> <PUBCHEM_SUBSTANCE_VERSION>
1

> <PUBCHEM_EXT_DATASOURCE_NAME>
4488

> <PUBCHEM_EXT_DATASOURCE_REGID>
SCHEMBL16124823

> <PUBCHEM_SUBSTANCE_COMMENT>
InChI=1S/C14H17NO4/c1-9(18-13(16)8-15)6-7-12-10-4-2-3-5-11(10)14(17)19-12/h2-5,9,12H,6-8,15H2,1H3/t9?,12-/m0/s1
InChIKey=FEPFJYRHOALTCA-ACGXKRRESA-N

> <PUBCHEM_SUBSTANCE_SYNONYM>
SCHEMBL16124823

> <PUBCHEM_XREF_EXT_ID>
SCHEMBL16124823

> <PUBCHEM_EXT_DATASOURCE_URL>
https://www.surechembl.org/

> <PUBCHEM_EXT_SUBSTANCE_URL>
https://www.surechembl.org/chemical/SCHEMBL16124823

> <PUBCHEM_CID_ASSOCIATIONS>
60172718  1

> <PUBCHEM_COORDINATE_TYPE>
1
3

> <PUBCHEM_BONDANNOTATIONS>
8  12  5

$$$$
