310947649
  -OEChem-07211613022D

 25 24  0     1  0  0  0  0  0999 V2000
    1.5756   10.2627    0.0000 S   0  0  0  0  0  0  0  0  0  0  0  0
    0.8611   10.6751    0.0000 S   0  0  0  0  0  0  0  0  0  0  0  0
    8.7209   11.9129    0.0000 O   0  0  0  0  0  0  0  0  0  0  0  0
    3.7192   11.5002    0.0000 O   0  0  0  0  0  0  0  0  0  0  0  0
    7.2918   11.9129    0.0000 O   0  0  0  0  0  0  0  0  0  0  0  0
   -1.2825    9.4376    0.0000 O   0  0  0  0  0  0  0  0  0  0  0  0
   -2.1903   10.8041    0.0000 O   0  0  0  0  0  0  0  0  0  0  0  0
    4.4337   10.2627    0.0000 N   0  0  0  0  0  0  0  0  0  0  0  0
    3.0047    9.4376    0.0000 N   0  0  0  0  0  0  0  0  0  0  0  0
    8.7209   10.2627    0.0000 N   0  0  0  0  0  0  0  0  0  0  0  0
   -0.5679   11.5002    0.0000 N   0  0  0  0  0  0  0  0  0  0  0  0
    3.0047   10.2627    0.0000 C   0  0  3  0  0  0  0  0  0  0  0  0
    3.7192   10.6751    0.0000 C   0  0  0  0  0  0  0  0  0  0  0  0
    8.0062   10.6751    0.0000 C   0  0  3  0  0  0  0  0  0  0  0  0
    2.2901   10.6751    0.0000 C   0  0  0  0  0  0  0  0  0  0  0  0
   -0.5679   10.6751    0.0000 C   0  0  3  0  0  0  0  0  0  0  0  0
    8.0062   11.5002    0.0000 C   0  0  0  0  0  0  0  0  0  0  0  0
   -1.2825   10.2627    0.0000 C   0  0  0  0  0  0  0  0  0  0  0  0
    0.1465   10.2627    0.0000 C   0  0  0  0  0  0  0  0  0  0  0  0
    7.2918   10.2627    0.0000 C   0  0  0  0  0  0  0  0  0  0  0  0
    5.1482   10.6751    0.0000 C   0  0  0  0  0  0  0  0  0  0  0  0
    6.5773   10.6751    0.0000 C   0  0  0  0  0  0  0  0  0  0  0  0
    5.8628   10.2627    0.0000 C   0  0  0  0  0  0  0  0  0  0  0  0
    8.7209   12.7378    0.0000 C   0  0  0  0  0  0  0  0  0  0  0  0
    9.4353   13.1503    0.0000 C   0  0  0  0  0  0  0  0  0  0  0  0
  1  2  1  0  0  0  0
  1 15  1  0  0  0  0
  2 19  1  0  0  0  0
  3 17  1  0  0  0  0
  3 24  1  0  0  0  0
  4 13  2  0  0  0  0
  5 17  2  0  0  0  0
  6 18  2  0  0  0  0
  7 18  1  0  0  0  0
  8 13  1  0  0  0  0
  8 21  1  0  0  0  0
 12  9  1  1  0  0  0
 14 10  1  1  0  0  0
 16 11  1  1  0  0  0
 12 13  1  0  0  0  0
 12 15  1  0  0  0  0
 14 17  1  0  0  0  0
 14 20  1  0  0  0  0
 16 18  1  0  0  0  0
 16 19  1  0  0  0  0
 20 22  1  0  0  0  0
 21 23  1  0  0  0  0
 22 23  1  0  0  0  0
 24 25  1  0  0  0  0
M  END
> <PUBCHEM_COMPOUND_ID_TYPE>
0

> <PUBCHEM_TOTAL_CHARGE>
0

> <PUBCHEM_SUBSTANCE_ID>
310947649

> <PUBCHEM_SUBSTANCE_VERSION>
1

> <PUBCHEM_EXT_DATASOURCE_NAME>
4488

> <PUBCHEM_EXT_DATASOURCE_REGID>
SCHEMBL16125816

> <PUBCHEM_SUBSTANCE_COMMENT>
InChI=1S/C14H28N4O5S2/c1-2-23-14(22)9(15)5-3-4-6-18-12(19)10(16)7-24-25-8-11(17)13(20)21/h9-11H,2-8,15-17H2,1H3,(H,18,19)(H,20,21)/t9-,10-,11-/m0/s1
InChIKey=MRFTUJOBGKUAHM-DCAQKATOSA-N

> <PUBCHEM_SUBSTANCE_SYNONYM>
SCHEMBL16125816

> <PUBCHEM_XREF_EXT_ID>
SCHEMBL16125816

> <PUBCHEM_EXT_DATASOURCE_URL>
https://www.surechembl.org/

> <PUBCHEM_EXT_SUBSTANCE_URL>
https://www.surechembl.org/chemical/SCHEMBL16125816

> <PUBCHEM_CID_ASSOCIATIONS>
117613365  1

> <PUBCHEM_COORDINATE_TYPE>
1
3

> <PUBCHEM_BONDANNOTATIONS>
14  10  5
16  11  5
12  9  5

$$$$
