310931175
  -OEChem-07211613022D

 18 19  0     0  0  0  0  0  0999 V2000
    4.3105   -2.8875    0.0000 S   0  0  0  0  0  0  0  0  0  0  0  0
    2.1450   -1.6499    0.0000 O   0  0  0  0  0  0  0  0  0  0  0  0
    2.8668   -2.8875    0.0000 N   0  0  0  0  0  0  0  0  0  0  0  0
    3.5887   -1.6499    0.0000 N   0  0  0  0  0  0  0  0  0  0  0  0
    1.4231   -2.8875    0.0000 C   0  0  0  0  0  0  0  0  0  0  0  0
    2.1450   -2.4749    0.0000 C   0  0  0  0  0  0  0  0  0  0  0  0
    3.5887   -2.4749    0.0000 C   0  0  0  0  0  0  0  0  0  0  0  0
    4.3105   -1.2375    0.0000 C   0  0  0  0  0  0  0  0  0  0  0  0
    0.7219   -2.4749    0.0000 C   0  0  0  0  0  0  0  0  0  0  0  0
    1.4231   -3.7124    0.0000 C   0  0  0  0  0  0  0  0  0  0  0  0
    4.3312   -0.3919    0.0000 C   0  0  0  0  0  0  0  0  0  0  0  0
    5.0324   -1.6294    0.0000 C   0  0  0  0  0  0  0  0  0  0  0  0
    0.0000   -2.8875    0.0000 C   0  0  0  0  0  0  0  0  0  0  0  0
    0.7219   -4.1249    0.0000 C   0  0  0  0  0  0  0  0  0  0  0  0
    0.0000   -3.7124    0.0000 C   0  0  0  0  0  0  0  0  0  0  0  0
    5.0324    0.0000    0.0000 C   0  0  0  0  0  0  0  0  0  0  0  0
    5.7337   -1.2375    0.0000 C   0  0  0  0  0  0  0  0  0  0  0  0
    5.7749   -0.3919    0.0000 C   0  0  0  0  0  0  0  0  0  0  0  0
  1  7  2  0  0  0  0
  2  6  2  0  0  0  0
  3  6  1  0  0  0  0
  3  7  1  0  0  0  0
  4  7  1  0  0  0  0
  4  8  1  0  0  0  0
  5  6  1  0  0  0  0
  5  9  2  0  0  0  0
  5 10  1  0  0  0  0
  8 11  1  0  0  0  0
  8 12  1  0  0  0  0
  9 13  1  0  0  0  0
 10 14  2  0  0  0  0
 11 16  1  0  0  0  0
 12 17  1  0  0  0  0
 13 15  2  0  0  0  0
 14 15  1  0  0  0  0
 16 18  1  0  0  0  0
 17 18  1  0  0  0  0
M  END
> <PUBCHEM_COMPOUND_ID_TYPE>
0

> <PUBCHEM_TOTAL_CHARGE>
0

> <PUBCHEM_SUBSTANCE_ID>
310931175

> <PUBCHEM_SUBSTANCE_VERSION>
1

> <PUBCHEM_EXT_DATASOURCE_NAME>
4488

> <PUBCHEM_EXT_DATASOURCE_REGID>
SCHEMBL16108484

> <PUBCHEM_SUBSTANCE_COMMENT>
InChI=1S/C14H18N2OS/c17-13(11-7-3-1-4-8-11)16-14(18)15-12-9-5-2-6-10-12/h1,3-4,7-8,12H,2,5-6,9-10H2,(H2,15,16,17,18)
InChIKey=PSZJBKYIONLMPZ-UHFFFAOYSA-N

> <PUBCHEM_SUBSTANCE_SYNONYM>
SCHEMBL16108484

> <PUBCHEM_XREF_EXT_ID>
SCHEMBL16108484

> <PUBCHEM_EXT_DATASOURCE_URL>
https://www.surechembl.org/

> <PUBCHEM_EXT_SUBSTANCE_URL>
https://www.surechembl.org/chemical/SCHEMBL16108484

> <PUBCHEM_CID_ASSOCIATIONS>
895546  1

> <PUBCHEM_COORDINATE_TYPE>
1
3

$$$$
