310941433
  -OEChem-07211613022D

 34 38  0     1  0  0  0  0  0999 V2000
   -0.4389    1.4466    0.0000 O   0  0  0  0  0  0  0  0  0  0  0  0
   -1.8607    3.9192    0.0000 O   0  0  0  0  0  0  0  0  0  0  0  0
    0.3029    0.2225    0.0000 N   0  0  0  0  0  0  0  0  0  0  0  0
   -0.4142   -1.0138    0.0000 N   0  0  0  0  0  0  0  0  0  0  0  0
    1.1313   -1.8422    0.0000 N   0  0  0  0  0  0  0  0  0  0  0  0
    1.7248   -3.0785    0.0000 N   0  0  0  0  0  0  0  0  0  0  0  0
   -2.5531    2.6953    0.0000 N   0  0  0  0  0  0  0  0  0  0  0  0
   -1.1313    2.6953    0.0000 N   0  0  0  0  0  0  0  0  0  0  0  0
    1.0077   -4.3149    0.0000 N   0  0  0  0  0  0  0  0  0  0  0  0
    2.5655   -4.3149    0.0000 N   0  0  0  0  0  0  0  0  0  0  0  0
   -1.1313   -2.2997    0.0000 N   0  0  0  0  0  0  0  0  0  0  0  0
   -1.1313    0.2225    0.0000 C   0  0  0  0  0  0  0  0  0  0  0  0
   -0.4266    0.6182    0.0000 C   0  0  0  0  0  0  0  0  0  0  0  0
    0.2782   -0.6058    0.0000 C   0  0  0  0  0  0  0  0  0  0  0  0
   -1.1436   -0.6058    0.0000 C   0  0  0  0  0  0  0  0  0  0  0  0
    0.9953    0.6306    0.0000 C   0  0  0  0  0  0  0  0  0  0  0  0
   -1.8607    0.6306    0.0000 C   0  0  0  0  0  0  0  0  0  0  0  0
    1.0200   -1.0138    0.0000 C   0  0  3  0  0  0  0  0  0  0  0  0
    1.8237    0.6306    0.0000 C   0  0  0  0  0  0  0  0  0  0  0  0
    1.4280    1.3229    0.0000 C   0  0  0  0  0  0  0  0  0  0  0  0
   -1.8484    1.4589    0.0000 C   0  0  0  0  0  0  0  0  0  0  0  0
   -1.8360   -1.0138    0.0000 C   0  0  0  0  0  0  0  0  0  0  0  0
   -2.5531    0.2102    0.0000 C   0  0  0  0  0  0  0  0  0  0  0  0
   -2.5531   -0.6058    0.0000 C   0  0  0  0  0  0  0  0  0  0  0  0
    1.0077   -2.6706    0.0000 C   0  0  0  0  0  0  0  0  0  0  0  0
   -2.5655    1.8669    0.0000 C   0  0  0  0  0  0  0  0  0  0  0  0
   -1.1436    1.8545    0.0000 C   0  0  0  0  0  0  0  0  0  0  0  0
    1.7124   -0.6058    0.0000 C   0  0  0  0  0  0  0  0  0  0  0  0
    0.3029   -3.0662    0.0000 C   0  0  0  0  0  0  0  0  0  0  0  0
   -1.8607    3.1033    0.0000 C   0  0  0  0  0  0  0  0  0  0  0  0
    1.7124   -3.9069    0.0000 C   0  0  0  0  0  0  0  0  0  0  0  0
    0.2905   -3.9069    0.0000 C   0  0  0  0  0  0  0  0  0  0  0  0
   -0.4266   -2.6706    0.0000 C   0  0  0  0  0  0  0  0  0  0  0  0
   -2.5531    4.3149    0.0000 C   0  0  0  0  0  0  0  0  0  0  0  0
  1 13  2  0  0  0  0
  2 30  1  0  0  0  0
  2 34  1  0  0  0  0
  3 13  1  0  0  0  0
  3 14  1  0  0  0  0
  3 16  1  0  0  0  0
  4 14  2  0  0  0  0
  4 15  1  0  0  0  0
  5 18  1  0  0  0  0
  5 25  1  0  0  0  0
  6 25  1  0  0  0  0
  6 31  2  0  0  0  0
  7 26  2  0  0  0  0
  7 30  1  0  0  0  0
  8 27  1  0  0  0  0
  8 30  2  0  0  0  0
  9 31  1  0  0  0  0
  9 32  2  0  0  0  0
 10 31  1  0  0  0  0
 11 33  3  0  0  0  0
 12 13  1  0  0  0  0
 12 15  1  0  0  0  0
 12 17  2  0  0  0  0
 14 18  1  0  0  0  0
 15 22  2  0  0  0  0
 16 19  1  0  0  0  0
 16 20  1  0  0  0  0
 17 21  1  0  0  0  0
 17 23  1  0  0  0  0
 18 28  1  6  0  0  0
 19 20  1  0  0  0  0
 21 26  1  0  0  0  0
 21 27  2  0  0  0  0
 22 24  1  0  0  0  0
 23 24  2  0  0  0  0
 25 29  2  0  0  0  0
 29 32  1  0  0  0  0
 29 33  1  0  0  0  0
M  END
> <PUBCHEM_COMPOUND_ID_TYPE>
0

> <PUBCHEM_TOTAL_CHARGE>
0

> <PUBCHEM_SUBSTANCE_ID>
310941433

> <PUBCHEM_SUBSTANCE_VERSION>
1

> <PUBCHEM_EXT_DATASOURCE_NAME>
4488

> <PUBCHEM_EXT_DATASOURCE_REGID>
SCHEMBL16119393

> <PUBCHEM_SUBSTANCE_COMMENT>
InChI=1S/C23H21N9O2/c1-12(29-19-13(8-24)9-26-22(25)31-19)20-30-17-5-3-4-16(14-10-27-23(34-2)28-11-14)18(17)21(33)32(20)15-6-7-15/h3-5,9-12,15H,6-7H2,1-2H3,(H3,25,26,29,31)/t12-/m0/s1
InChIKey=AVUMHHISNOJVCI-LBPRGKRZSA-N

> <PUBCHEM_SUBSTANCE_SYNONYM>
SCHEMBL16119393

> <PUBCHEM_XREF_EXT_ID>
SCHEMBL16119393

> <PUBCHEM_EXT_DATASOURCE_URL>
https://www.surechembl.org/

> <PUBCHEM_EXT_SUBSTANCE_URL>
https://www.surechembl.org/chemical/SCHEMBL16119393

> <PUBCHEM_CID_ASSOCIATIONS>
117608258  1

> <PUBCHEM_COORDINATE_TYPE>
1
3

> <PUBCHEM_BONDANNOTATIONS>
18  28  6

$$$$
