310949059
  -OEChem-07211613022D

 50 58  0     0  0  0  0  0  0999 V2000
   -1.5148    1.3423    0.0000 N   0  0  0  0  0  0  0  0  0  0  0  0
    0.6599    0.9224    0.0000 N   0  0  0  0  0  0  0  0  0  0  0  0
   -1.4998   -2.7371    0.0000 N   0  0  0  0  0  0  0  0  0  0  0  0
   -0.8248    1.8672    0.0000 C   0  0  0  0  0  0  0  0  0  0  0  0
    0.5399    2.3171    0.0000 C   0  0  0  0  0  0  0  0  0  0  0  0
   -1.0948    2.6321    0.0000 C   0  0  0  0  0  0  0  0  0  0  0  0
    0.2700    3.1120    0.0000 C   0  0  0  0  0  0  0  0  0  0  0  0
    1.3948    2.3321    0.0000 C   0  0  0  0  0  0  0  0  0  0  0  0
   -1.9497    2.6171    0.0000 C   0  0  0  0  0  0  0  0  0  0  0  0
   -2.1896    1.8522    0.0000 C   0  0  0  0  0  0  0  0  0  0  0  0
    0.9599    3.5769    0.0000 C   0  0  0  0  0  0  0  0  0  0  0  0
    1.6348    3.1270    0.0000 C   0  0  0  0  0  0  0  0  0  0  0  0
    0.0000    1.7322    0.0000 C   0  0  0  0  0  0  0  0  0  0  0  0
   -0.5249    3.2320    0.0000 C   0  0  0  0  0  0  0  0  0  0  0  0
   -1.4998    0.5324    0.0000 C   0  0  0  0  0  0  0  0  0  0  0  0
   -0.7649    0.1425    0.0000 C   0  0  0  0  0  0  0  0  0  0  0  0
   -0.7799   -0.6674    0.0000 C   0  0  0  0  0  0  0  0  0  0  0  0
   -2.5046    3.2020    0.0000 C   0  0  0  0  0  0  0  0  0  0  0  0
   -2.9996    1.6573    0.0000 C   0  0  0  0  0  0  0  0  0  0  0  0
    1.0498    4.3868    0.0000 C   0  0  0  0  0  0  0  0  0  0  0  0
    2.3996    3.4570    0.0000 C   0  0  0  0  0  0  0  0  0  0  0  0
    2.2197    2.1372    0.0000 C   0  0  0  0  0  0  0  0  0  0  0  0
    1.1548    1.5372    0.0000 C   0  0  0  0  0  0  0  0  0  0  0  0
   -2.2047    0.1425    0.0000 C   0  0  0  0  0  0  0  0  0  0  0  0
   -1.4998   -1.0723    0.0000 C   0  0  0  0  0  0  0  0  0  0  0  0
   -0.0450   -1.0573    0.0000 C   0  0  0  0  0  0  0  0  0  0  0  0
   -2.2047   -0.6824    0.0000 C   0  0  0  0  0  0  0  0  0  0  0  0
   -3.3145    3.0220    0.0000 C   0  0  0  0  0  0  0  0  0  0  0  0
   -3.5695    2.2422    0.0000 C   0  0  0  0  0  0  0  0  0  0  0  0
    1.7998    4.7318    0.0000 C   0  0  0  0  0  0  0  0  0  0  0  0
    2.4897    4.2668    0.0000 C   0  0  0  0  0  0  0  0  0  0  0  0
   -0.0450    0.5474    0.0000 C   0  0  0  0  0  0  0  0  0  0  0  0
   -0.0450   -1.8822    0.0000 C   0  0  0  0  0  0  0  0  0  0  0  0
    0.6749   -0.6824    0.0000 C   0  0  0  0  0  0  0  0  0  0  0  0
   -1.4998   -1.9272    0.0000 C   0  0  0  0  0  0  0  0  0  0  0  0
    0.6749   -2.2872    0.0000 C   0  0  0  0  0  0  0  0  0  0  0  0
    1.4098   -1.0573    0.0000 C   0  0  0  0  0  0  0  0  0  0  0  0
    1.3948   -1.8822    0.0000 C   0  0  0  0  0  0  0  0  0  0  0  0
    0.6749   -3.1270    0.0000 C   0  0  0  0  0  0  0  0  0  0  0  0
    2.1147   -0.6374    0.0000 C   0  0  0  0  0  0  0  0  0  0  0  0
   -0.0450   -3.5319    0.0000 C   0  0  0  0  0  0  0  0  0  0  0  0
    1.3948   -3.5170    0.0000 C   0  0  0  0  0  0  0  0  0  0  0  0
    2.8496   -1.0123    0.0000 C   0  0  0  0  0  0  0  0  0  0  0  0
    2.1297    0.1725    0.0000 C   0  0  0  0  0  0  0  0  0  0  0  0
   -0.0300   -4.3419    0.0000 C   0  0  0  0  0  0  0  0  0  0  0  0
    1.3948   -4.3268    0.0000 C   0  0  0  0  0  0  0  0  0  0  0  0
    3.5695   -0.6224    0.0000 C   0  0  0  0  0  0  0  0  0  0  0  0
    2.8496    0.5774    0.0000 C   0  0  0  0  0  0  0  0  0  0  0  0
    0.7049   -4.7318    0.0000 C   0  0  0  0  0  0  0  0  0  0  0  0
    3.5695    0.1875    0.0000 C   0  0  0  0  0  0  0  0  0  0  0  0
  1  4  1  0  0  0  0
  1 10  1  0  0  0  0
  1 15  1  0  0  0  0
  2 32  3  0  0  0  0
  3 35  3  0  0  0  0
  4  6  2  0  0  0  0
  4 13  1  0  0  0  0
  5  7  1  0  0  0  0
  5  8  1  0  0  0  0
  5 13  2  0  0  0  0
  6  9  1  0  0  0  0
  6 14  1  0  0  0  0
  7 11  1  0  0  0  0
  7 14  2  0  0  0  0
  8 12  1  0  0  0  0
  8 22  1  0  0  0  0
  8 23  1  0  0  0  0
  9 10  2  0  0  0  0
  9 18  1  0  0  0  0
 10 19  1  0  0  0  0
 11 12  2  0  0  0  0
 11 20  1  0  0  0  0
 12 21  1  0  0  0  0
 15 16  2  0  0  0  0
 15 24  1  0  0  0  0
 16 17  1  0  0  0  0
 16 32  1  0  0  0  0
 17 25  2  0  0  0  0
 17 26  1  0  0  0  0
 18 28  2  0  0  0  0
 19 29  2  0  0  0  0
 20 30  2  0  0  0  0
 21 31  2  0  0  0  0
 24 27  2  0  0  0  0
 25 27  1  0  0  0  0
 25 35  1  0  0  0  0
 26 33  2  0  0  0  0
 26 34  1  0  0  0  0
 28 29  1  0  0  0  0
 30 31  1  0  0  0  0
 33 36  1  0  0  0  0
 34 37  2  0  0  0  0
 36 38  2  0  0  0  0
 36 39  1  0  0  0  0
 37 38  1  0  0  0  0
 37 40  1  0  0  0  0
 39 41  2  0  0  0  0
 39 42  1  0  0  0  0
 40 43  2  0  0  0  0
 40 44  1  0  0  0  0
 41 45  1  0  0  0  0
 42 46  2  0  0  0  0
 43 47  1  0  0  0  0
 44 48  2  0  0  0  0
 45 49  2  0  0  0  0
 46 49  1  0  0  0  0
 47 50  2  0  0  0  0
 48 50  1  0  0  0  0
M  END
> <PUBCHEM_COMPOUND_ID_TYPE>
0

> <PUBCHEM_TOTAL_CHARGE>
0

> <PUBCHEM_SUBSTANCE_ID>
310949059

> <PUBCHEM_SUBSTANCE_VERSION>
1

> <PUBCHEM_EXT_DATASOURCE_NAME>
4488

> <PUBCHEM_EXT_DATASOURCE_REGID>
SCHEMBL16127249

> <PUBCHEM_SUBSTANCE_COMMENT>
InChI=1S/C47H31N3/c1-47(2)41-19-11-9-17-36(41)38-26-39-37-18-10-12-20-43(37)50(45(39)27-42(38)47)44-22-21-32(28-48)46(40(44)29-49)35-24-33(30-13-5-3-6-14-30)23-34(25-35)31-15-7-4-8-16-31/h3-27H,1-2H3
InChIKey=UJEJHAKZDGZIHJ-UHFFFAOYSA-N

> <PUBCHEM_SUBSTANCE_SYNONYM>
SCHEMBL16127249

> <PUBCHEM_XREF_EXT_ID>
SCHEMBL16127249

> <PUBCHEM_EXT_DATASOURCE_URL>
https://www.surechembl.org/

> <PUBCHEM_EXT_SUBSTANCE_URL>
https://www.surechembl.org/chemical/SCHEMBL16127249

> <PUBCHEM_CID_ASSOCIATIONS>
117614564  1

> <PUBCHEM_COORDINATE_TYPE>
1
3

$$$$
