310932217
  -OEChem-07211613022D

 24 27  0     1  0  0  0  0  0999 V2000
    5.6367   -1.6159    0.0000 Br  0  0  0  0  0  0  0  0  0  0  0  0
    2.8372    0.0000    0.0000 O   0  0  0  0  0  0  0  0  0  0  0  0
    2.8372   -3.3069    0.0000 O   0  0  0  0  0  0  0  0  0  0  0  0
    2.1420   -2.0668    0.0000 N   0  0  0  0  0  0  0  0  0  0  0  0
    4.2651    0.0000    0.0000 N   0  0  0  0  0  0  0  0  0  0  0  0
    0.0376   -1.6347    0.0000 N   0  0  0  0  0  0  0  0  0  0  0  0
    1.4280   -3.2693    0.0000 N   0  0  0  0  0  0  0  0  0  0  0  0
    0.0188   -2.4426    0.0000 N   0  3  0  0  0  0  0  0  0  0  0  0
    0.0000   -3.2506    0.0000 N   0  5  0  0  0  0  0  0  0  0  0  0
    2.8372   -1.6534    0.0000 C   0  0  3  0  0  0  0  0  0  0  0  0
    2.1232   -1.2401    0.0000 C   0  0  0  0  0  0  0  0  0  0  0  0
    3.5512   -1.2401    0.0000 C   0  0  0  0  0  0  0  0  0  0  0  0
    2.1232   -0.4134    0.0000 C   0  0  0  0  0  0  0  0  0  0  0  0
    3.5512   -0.4134    0.0000 C   0  0  0  0  0  0  0  0  0  0  0  0
    3.5323   -2.0668    0.0000 C   0  0  0  0  0  0  0  0  0  0  0  0
    1.4092   -1.6534    0.0000 C   0  0  0  0  0  0  0  0  0  0  0  0
    4.2651   -1.6534    0.0000 C   0  0  0  0  0  0  0  0  0  0  0  0
    2.1420   -2.8747    0.0000 C   0  0  0  0  0  0  0  0  0  0  0  0
    1.4092    0.0000    0.0000 C   0  0  0  0  0  0  0  0  0  0  0  0
    0.7328   -1.2401    0.0000 C   0  0  0  0  0  0  0  0  0  0  0  0
    4.9227   -1.2401    0.0000 C   0  0  0  0  0  0  0  0  0  0  0  0
    3.5323   -2.8747    0.0000 C   0  0  0  0  0  0  0  0  0  0  0  0
    0.7328   -0.4134    0.0000 C   0  0  0  0  0  0  0  0  0  0  0  0
    4.9227   -0.4134    0.0000 C   0  0  0  0  0  0  0  0  0  0  0  0
  1 21  1  0  0  0  0
  2 13  1  0  0  0  0
  2 14  1  0  0  0  0
  3 18  1  0  0  0  0
  3 22  1  0  0  0  0
 10  4  1  1  0  0  0
  4 18  2  0  0  0  0
  5 14  1  0  0  0  0
  5 24  2  0  0  0  0
  6  8  2  0  0  0  0
  6 20  1  0  0  0  0
  7 18  1  0  0  0  0
  8  9  2  0  0  0  0
 10 11  1  0  0  0  0
 10 12  1  0  0  0  0
 10 15  1  0  0  0  0
 11 13  2  0  0  0  0
 11 16  1  0  0  0  0
 12 14  2  0  0  0  0
 12 17  1  0  0  0  0
 13 19  1  0  0  0  0
 15 22  1  0  0  0  0
 16 20  2  0  0  0  0
 17 21  2  0  0  0  0
 19 23  2  0  0  0  0
 20 23  1  0  0  0  0
 21 24  1  0  0  0  0
M  CHG  2   8   1   9  -1
M  END
> <PUBCHEM_COMPOUND_ID_TYPE>
0

> <PUBCHEM_TOTAL_CHARGE>
0

> <PUBCHEM_SUBSTANCE_ID>
310932217

> <PUBCHEM_SUBSTANCE_VERSION>
1

> <PUBCHEM_EXT_DATASOURCE_NAME>
4488

> <PUBCHEM_EXT_DATASOURCE_REGID>
SCHEMBL16109574

> <PUBCHEM_SUBSTANCE_COMMENT>
InChI=1S/C15H11BrN6O2/c16-8-5-11-13(19-7-8)24-12-2-1-9(21-22-18)6-10(12)15(11)3-4-23-14(17)20-15/h1-2,5-7H,3-4H2,(H2,17,20)/t15-/m0/s1
InChIKey=GZEAHXYTIMQBJX-HNNXBMFYSA-N

> <PUBCHEM_SUBSTANCE_SYNONYM>
SCHEMBL16109574

> <PUBCHEM_XREF_EXT_ID>
SCHEMBL16109574

> <PUBCHEM_EXT_DATASOURCE_URL>
https://www.surechembl.org/

> <PUBCHEM_EXT_SUBSTANCE_URL>
https://www.surechembl.org/chemical/SCHEMBL16109574

> <PUBCHEM_CID_ASSOCIATIONS>
117600802  1

> <PUBCHEM_COORDINATE_TYPE>
1
3

> <PUBCHEM_BONDANNOTATIONS>
10  4  5

$$$$
