310946737
  -OEChem-07211613022D

 42 45  0     1  0  0  0  0  0999 V2000
   -1.5396   -5.4015    0.0000 F   0  0  0  0  0  0  0  0  0  0  0  0
   -0.1826   -4.9666    0.0000 F   0  0  0  0  0  0  0  0  0  0  0  0
   -0.7393   -5.5755    0.0000 F   0  0  0  0  0  0  0  0  0  0  0  0
    0.0087    2.3746    0.0000 O   0  0  0  0  0  0  0  0  0  0  0  0
   -0.7915   -1.7831    0.0000 O   0  0  0  0  0  0  0  0  0  0  0  0
   -0.3218    3.9750    0.0000 O   0  0  0  0  0  0  0  0  0  0  0  0
    1.0525    4.2708    0.0000 O   0  0  0  0  0  0  0  0  0  0  0  0
    0.7045    0.5306    0.0000 N   0  0  0  0  0  0  0  0  0  0  0  0
    1.1917   -0.1304    0.0000 N   0  0  0  0  0  0  0  0  0  0  0  0
    0.9655   -1.5744    0.0000 N   0  0  0  0  0  0  0  0  0  0  0  0
   -1.5047   -0.5480    0.0000 N   0  0  0  0  0  0  0  0  0  0  0  0
   -2.0441   -3.8359    0.0000 N   0  0  0  0  0  0  0  0  0  0  0  0
    3.1052    1.0525    0.0000 N   0  0  0  0  0  0  0  0  0  0  0  0
    0.9655    1.3134    0.0000 C   0  0  3  0  0  0  0  0  0  0  0  0
   -0.0609    0.2871    0.0000 C   0  0  0  0  0  0  0  0  0  0  0  0
   -0.0957   -0.5480    0.0000 C   0  0  0  0  0  0  0  0  0  0  0  0
    0.7045   -0.7915    0.0000 C   0  0  0  0  0  0  0  0  0  0  0  0
   -0.7915   -0.9307    0.0000 C   0  0  0  0  0  0  0  0  0  0  0  0
    0.1826    1.5744    0.0000 C   0  0  0  0  0  0  0  0  0  0  0  0
    1.5744    1.8701    0.0000 C   0  0  0  0  0  0  0  0  0  0  0  0
   -0.7915    0.6871    0.0000 C   0  0  0  0  0  0  0  0  0  0  0  0
    1.5047    0.6871    0.0000 C   0  0  0  0  0  0  0  0  0  0  0  0
    0.6176    2.9139    0.0000 C   0  0  3  0  0  0  0  0  0  0  0  0
    1.4178    2.6529    0.0000 C   0  0  0  0  0  0  0  0  0  0  0  0
   -1.4874    0.2871    0.0000 C   0  0  0  0  0  0  0  0  0  0  0  0
    0.4088   -2.1833    0.0000 C   0  0  0  0  0  0  0  0  0  0  0  0
    0.3914    3.7489    0.0000 C   0  0  0  0  0  0  0  0  0  0  0  0
    2.3050    0.8785    0.0000 C   0  0  0  0  0  0  0  0  0  0  0  0
   -0.3914   -2.0266    0.0000 C   0  0  0  0  0  0  0  0  0  0  0  0
    0.6523   -2.9660    0.0000 C   0  0  0  0  0  0  0  0  0  0  0  0
   -0.6872   -3.4009    0.0000 C   0  0  0  0  0  0  0  0  0  0  0  0
   -1.2439   -4.0098    0.0000 C   0  0  3  0  0  0  0  0  0  0  0  0
   -0.9133   -2.6007    0.0000 C   0  0  0  0  0  0  0  0  0  0  0  0
    0.1304   -3.5576    0.0000 C   0  0  0  0  0  0  0  0  0  0  0  0
   -0.9829   -4.7927    0.0000 C   0  0  0  0  0  0  0  0  0  0  0  0
   -0.5132    4.7752    0.0000 C   0  0  0  0  0  0  0  0  0  0  0  0
   -2.3050   -3.0879    0.0000 C   0  0  0  0  0  0  0  0  0  0  0  0
   -0.6872    5.5755    0.0000 C   0  0  0  0  0  0  0  0  0  0  0  0
   -1.2960    5.0188    0.0000 C   0  0  0  0  0  0  0  0  0  0  0  0
    0.1304    5.2971    0.0000 C   0  0  0  0  0  0  0  0  0  0  0  0
   -3.1052   -2.9139    0.0000 C   0  0  0  0  0  0  0  0  0  0  0  0
   -1.7309   -2.4442    0.0000 C   0  0  0  0  0  0  0  0  0  0  0  0
  1 35  1  0  0  0  0
  2 35  1  0  0  0  0
  3 35  1  0  0  0  0
  4 19  1  0  0  0  0
  4 23  1  0  0  0  0
  5 18  2  0  0  0  0
  6 27  1  0  0  0  0
  6 36  1  0  0  0  0
  7 27  2  0  0  0  0
  8  9  1  0  0  0  0
  8 14  1  0  0  0  0
  8 15  1  0  0  0  0
  9 17  2  0  0  0  0
 10 17  1  0  0  0  0
 10 26  1  0  0  0  0
 11 18  1  0  0  0  0
 11 25  1  0  0  0  0
 12 32  1  0  0  0  0
 12 37  1  0  0  0  0
 13 28  3  0  0  0  0
 14 19  1  0  0  0  0
 14 20  1  0  0  0  0
 14 22  1  6  0  0  0
 15 16  2  0  0  0  0
 15 21  1  0  0  0  0
 16 17  1  0  0  0  0
 16 18  1  0  0  0  0
 20 24  1  0  0  0  0
 21 25  2  0  0  0  0
 22 28  1  0  0  0  0
 23 24  1  0  0  0  0
 23 27  1  6  0  0  0
 26 29  2  0  0  0  0
 26 30  1  0  0  0  0
 29 33  1  0  0  0  0
 30 34  2  0  0  0  0
 31 32  1  0  0  0  0
 31 33  2  0  0  0  0
 31 34  1  0  0  0  0
 32 35  1  0  0  0  0
 36 38  1  0  0  0  0
 36 39  1  0  0  0  0
 36 40  1  0  0  0  0
 37 41  1  0  0  0  0
 37 42  1  0  0  0  0
M  END
> <PUBCHEM_COMPOUND_ID_TYPE>
0

> <PUBCHEM_TOTAL_CHARGE>
0

> <PUBCHEM_SUBSTANCE_ID>
310946737

> <PUBCHEM_SUBSTANCE_VERSION>
1

> <PUBCHEM_EXT_DATASOURCE_NAME>
4488

> <PUBCHEM_EXT_DATASOURCE_REGID>
SCHEMBL16124861

> <PUBCHEM_SUBSTANCE_COMMENT>
InChI=1S/C29H35F3N6O4/c1-17(2)35-23(29(30,31)32)18-6-8-19(9-7-18)36-24-22-20(11-15-34-25(22)39)38(37-24)28(13-14-33)12-10-21(41-16-28)26(40)42-27(3,4)5/h6-9,11,15,17,21,23,35H,10,12-13,16H2,1-5H3,(H,34,39)(H,36,37)/t21-,23?,28-/m0/s1
InChIKey=VPIZYWIKRBPVQR-ZYXWGPAWSA-N

> <PUBCHEM_SUBSTANCE_SYNONYM>
SCHEMBL16124861

> <PUBCHEM_XREF_EXT_ID>
SCHEMBL16124861

> <PUBCHEM_EXT_DATASOURCE_URL>
https://www.surechembl.org/

> <PUBCHEM_EXT_SUBSTANCE_URL>
https://www.surechembl.org/chemical/SCHEMBL16124861

> <PUBCHEM_CID_ASSOCIATIONS>
117612624  1

> <PUBCHEM_COORDINATE_TYPE>
1
3

> <PUBCHEM_BONDANNOTATIONS>
14  22  6
23  27  6

$$$$
