310941496
  -OEChem-07211613022D

 28 31  0     0  0  0  0  0  0999 V2000
    0.7153    2.1547    0.0000 S   0  0  0  0  0  0  0  0  0  0  0  0
   -1.6272   -0.5275    0.0000 O   0  0  0  0  0  0  0  0  0  0  0  0
   -0.1788   -0.5275    0.0000 O   0  0  0  0  0  0  0  0  0  0  0  0
    3.6477    1.1712    0.0000 O   0  0  0  0  0  0  0  0  0  0  0  0
    0.5901    0.8136    0.0000 N   0  0  0  0  0  0  0  0  0  0  0  0
    1.9848    1.3321    0.0000 N   0  0  0  0  0  0  0  0  0  0  0  0
   -3.0577   -1.3679    0.0000 N   0  0  0  0  0  0  0  0  0  0  0  0
   -3.7550   -1.7792    0.0000 N   0  3  0  0  0  0  0  0  0  0  0  0
   -4.4703   -2.1547    0.0000 N   0  5  0  0  0  0  0  0  0  0  0  0
   -0.8762    0.7242    0.0000 C   0  0  0  0  0  0  0  0  0  0  0  0
   -2.3603   -0.0984    0.0000 C   0  0  0  0  0  0  0  0  0  0  0  0
   -2.3424    0.7242    0.0000 C   0  0  0  0  0  0  0  0  0  0  0  0
   -0.1788    1.1533    0.0000 C   0  0  0  0  0  0  0  0  0  0  0  0
   -0.9119   -0.0984    0.0000 C   0  0  0  0  0  0  0  0  0  0  0  0
   -1.6272    1.1355    0.0000 C   0  0  0  0  0  0  0  0  0  0  0  0
   -3.0577   -0.5096    0.0000 C   0  0  0  0  0  0  0  0  0  0  0  0
    1.1444    1.4394    0.0000 C   0  0  0  0  0  0  0  0  0  0  0  0
   -0.0894    1.9758    0.0000 C   0  0  0  0  0  0  0  0  0  0  0  0
   -3.0755    1.1355    0.0000 C   0  0  0  0  0  0  0  0  0  0  0  0
   -3.7729   -0.0984    0.0000 C   0  0  0  0  0  0  0  0  0  0  0  0
    2.3066    0.5812    0.0000 C   0  0  0  0  0  0  0  0  0  0  0  0
   -3.7729    0.7242    0.0000 C   0  0  0  0  0  0  0  0  0  0  0  0
    3.1470    0.4739    0.0000 C   0  0  0  0  0  0  0  0  0  0  0  0
    1.8417   -0.1341    0.0000 C   0  0  0  0  0  0  0  0  0  0  0  0
    3.4868   -0.2771    0.0000 C   0  0  0  0  0  0  0  0  0  0  0  0
    2.1815   -0.8494    0.0000 C   0  0  0  0  0  0  0  0  0  0  0  0
    3.0040   -0.9387    0.0000 C   0  0  0  0  0  0  0  0  0  0  0  0
    4.4703    1.0818    0.0000 C   0  0  0  0  0  0  0  0  0  0  0  0
  1 17  1  0  0  0  0
  1 18  1  0  0  0  0
  2 11  1  0  0  0  0
  2 14  1  0  0  0  0
  3 14  2  0  0  0  0
  4 23  1  0  0  0  0
  4 28  1  0  0  0  0
  5 13  1  0  0  0  0
  5 17  2  0  0  0  0
  6 17  1  0  0  0  0
  6 21  1  0  0  0  0
  7  8  2  0  0  0  0
  7 16  1  0  0  0  0
  8  9  2  0  0  0  0
 10 13  1  0  0  0  0
 10 14  1  0  0  0  0
 10 15  2  0  0  0  0
 11 12  1  0  0  0  0
 11 16  2  0  0  0  0
 12 15  1  0  0  0  0
 12 19  2  0  0  0  0
 13 18  2  0  0  0  0
 16 20  1  0  0  0  0
 19 22  1  0  0  0  0
 20 22  2  0  0  0  0
 21 23  1  0  0  0  0
 21 24  2  0  0  0  0
 23 25  2  0  0  0  0
 24 26  1  0  0  0  0
 25 27  1  0  0  0  0
 26 27  2  0  0  0  0
M  CHG  2   8   1   9  -1
M  END
> <PUBCHEM_COMPOUND_ID_TYPE>
0

> <PUBCHEM_TOTAL_CHARGE>
0

> <PUBCHEM_SUBSTANCE_ID>
310941496

> <PUBCHEM_SUBSTANCE_VERSION>
1

> <PUBCHEM_EXT_DATASOURCE_NAME>
4488

> <PUBCHEM_EXT_DATASOURCE_REGID>
SCHEMBL16119527

> <PUBCHEM_SUBSTANCE_COMMENT>
InChI=1S/C19H13N5O3S/c1-26-16-8-3-2-6-13(16)21-19-22-15(10-28-19)12-9-11-5-4-7-14(23-24-20)17(11)27-18(12)25/h2-10H,1H3,(H,21,22)
InChIKey=FUURRSFSFZULHR-UHFFFAOYSA-N

> <PUBCHEM_SUBSTANCE_SYNONYM>
SCHEMBL16119527

> <PUBCHEM_XREF_EXT_ID>
SCHEMBL16119527

> <PUBCHEM_EXT_DATASOURCE_URL>
https://www.surechembl.org/

> <PUBCHEM_EXT_SUBSTANCE_URL>
https://www.surechembl.org/chemical/SCHEMBL16119527

> <PUBCHEM_CID_ASSOCIATIONS>
117608316  1

> <PUBCHEM_COORDINATE_TYPE>
1
3

$$$$
