310940239
  -OEChem-07211613022D

 52 59  0     1  0  0  0  0  0999 V2000
   -4.0338   -0.9084    0.0000 O   0  0  0  0  0  0  0  0  0  0  0  0
    4.0338   -0.9084    0.0000 O   0  0  0  0  0  0  0  0  0  0  0  0
   -1.4289    1.6478    0.0000 O   0  0  0  0  0  0  0  0  0  0  0  0
   -1.4289   -0.0022    0.0000 O   0  0  0  0  0  0  0  0  0  0  0  0
    1.4289    1.6478    0.0000 O   0  0  0  0  0  0  0  0  0  0  0  0
   -5.0217    0.0795    0.0000 N   0  0  0  0  0  0  0  0  0  0  0  0
    5.0217    0.0795    0.0000 N   0  0  0  0  0  0  0  0  0  0  0  0
   -4.2174    1.7497    0.0000 N   0  0  0  0  0  0  0  0  0  0  0  0
    4.2174    1.7497    0.0000 N   0  0  0  0  0  0  0  0  0  0  0  0
   -3.5724    0.4103    0.0000 C   0  0  0  0  0  0  0  0  0  0  0  0
   -4.2174   -0.1041    0.0000 C   0  0  0  0  0  0  0  0  0  0  0  0
   -5.3796    0.8228    0.0000 C   0  0  3  0  0  0  0  0  0  0  0  0
    3.5724    0.4103    0.0000 C   0  0  0  0  0  0  0  0  0  0  0  0
    4.2174   -0.1041    0.0000 C   0  0  0  0  0  0  0  0  0  0  0  0
    5.3796    0.8228    0.0000 C   0  0  3  0  0  0  0  0  0  0  0  0
   -3.5724    1.2353    0.0000 C   0  0  0  0  0  0  0  0  0  0  0  0
    3.5724    1.2353    0.0000 C   0  0  0  0  0  0  0  0  0  0  0  0
   -6.3445   -0.0997    0.0000 C   0  0  3  0  0  0  0  0  0  0  0  0
    6.3445   -0.0997    0.0000 C   0  0  3  0  0  0  0  0  0  0  0  0
   -5.6180   -0.4906    0.0000 C   0  0  0  0  0  0  0  0  0  0  0  0
   -6.1972    0.7121    0.0000 C   0  0  0  0  0  0  0  0  0  0  0  0
    5.6180   -0.4906    0.0000 C   0  0  0  0  0  0  0  0  0  0  0  0
   -2.8579   -0.0022    0.0000 C   0  0  0  0  0  0  0  0  0  0  0  0
    6.1972    0.7121    0.0000 C   0  0  0  0  0  0  0  0  0  0  0  0
   -2.1434    0.4103    0.0000 C   0  0  0  0  0  0  0  0  0  0  0  0
   -5.0217    1.5661    0.0000 C   0  0  0  0  0  0  0  0  0  0  0  0
   -2.1434    1.2353    0.0000 C   0  0  0  0  0  0  0  0  0  0  0  0
   -2.8579    1.6478    0.0000 C   0  0  0  0  0  0  0  0  0  0  0  0
    2.8579   -0.0022    0.0000 C   0  0  0  0  0  0  0  0  0  0  0  0
    5.0217    1.5661    0.0000 C   0  0  0  0  0  0  0  0  0  0  0  0
   -7.0589   -0.5122    0.0000 C   0  0  0  0  0  0  0  0  0  0  0  0
    2.1434    1.2353    0.0000 C   0  0  0  0  0  0  0  0  0  0  0  0
    2.8579    1.6478    0.0000 C   0  0  0  0  0  0  0  0  0  0  0  0
    2.1434    0.4103    0.0000 C   0  0  0  0  0  0  0  0  0  0  0  0
    7.0589   -0.5122    0.0000 C   0  0  0  0  0  0  0  0  0  0  0  0
   -7.7734   -0.0997    0.0000 C   0  0  0  0  0  0  0  0  0  0  0  0
   -7.0589   -1.3372    0.0000 C   0  0  0  0  0  0  0  0  0  0  0  0
    7.0589   -1.3372    0.0000 C   0  0  0  0  0  0  0  0  0  0  0  0
    7.7734   -0.0997    0.0000 C   0  0  0  0  0  0  0  0  0  0  0  0
    1.4289   -0.0022    0.0000 C   0  0  0  0  0  0  0  0  0  0  0  0
   -8.4879   -0.5122    0.0000 C   0  0  0  0  0  0  0  0  0  0  0  0
   -7.7734   -1.7497    0.0000 C   0  0  0  0  0  0  0  0  0  0  0  0
   -0.7145    1.2353    0.0000 C   0  0  0  0  0  0  0  0  0  0  0  0
    7.7734   -1.7497    0.0000 C   0  0  0  0  0  0  0  0  0  0  0  0
    8.4879   -0.5122    0.0000 C   0  0  0  0  0  0  0  0  0  0  0  0
   -8.4879   -1.3372    0.0000 C   0  0  0  0  0  0  0  0  0  0  0  0
    8.4879   -1.3372    0.0000 C   0  0  0  0  0  0  0  0  0  0  0  0
    0.7145    1.2353    0.0000 C   0  0  0  0  0  0  0  0  0  0  0  0
    0.0000    1.6478    0.0000 C   0  0  0  0  0  0  0  0  0  0  0  0
   -0.7145    0.4103    0.0000 C   0  0  0  0  0  0  0  0  0  0  0  0
   -9.2024   -1.7497    0.0000 C   0  0  0  0  0  0  0  0  0  0  0  0
    9.2024   -1.7497    0.0000 C   0  0  0  0  0  0  0  0  0  0  0  0
  1 11  2  0  0  0  0
  2 14  2  0  0  0  0
  3 27  1  0  0  0  0
  3 43  1  0  0  0  0
  4 25  1  0  0  0  0
  4 50  1  0  0  0  0
  5 32  1  0  0  0  0
  5 48  1  0  0  0  0
  6 11  1  0  0  0  0
  6 12  1  0  0  0  0
  6 20  1  0  0  0  0
  7 14  1  0  0  0  0
  7 15  1  0  0  0  0
  7 22  1  0  0  0  0
  8 16  1  0  0  0  0
  8 26  2  0  0  0  0
  9 17  1  0  0  0  0
  9 30  2  0  0  0  0
 10 11  1  0  0  0  0
 10 16  2  0  0  0  0
 10 23  1  0  0  0  0
 12 21  1  1  0  0  0
 12 26  1  0  0  0  0
 13 14  1  0  0  0  0
 13 17  2  0  0  0  0
 13 29  1  0  0  0  0
 15 24  1  6  0  0  0
 15 30  1  0  0  0  0
 16 28  1  0  0  0  0
 17 33  1  0  0  0  0
 18 20  1  0  0  0  0
 18 21  1  0  0  0  0
 18 31  1  0  0  0  0
 19 22  1  0  0  0  0
 19 24  1  0  0  0  0
 19 35  1  0  0  0  0
 23 25  2  0  0  0  0
 25 27  1  0  0  0  0
 27 28  2  0  0  0  0
 29 34  2  0  0  0  0
 31 36  2  0  0  0  0
 31 37  1  0  0  0  0
 32 33  2  0  0  0  0
 32 34  1  0  0  0  0
 34 40  1  0  0  0  0
 35 38  2  0  0  0  0
 35 39  1  0  0  0  0
 36 41  1  0  0  0  0
 37 42  2  0  0  0  0
 38 44  1  0  0  0  0
 39 45  2  0  0  0  0
 41 46  2  0  0  0  0
 42 46  1  0  0  0  0
 43 49  1  0  0  0  0
 44 47  2  0  0  0  0
 45 47  1  0  0  0  0
 46 51  1  0  0  0  0
 47 52  1  0  0  0  0
 48 49  1  0  0  0  0
M  END
> <PUBCHEM_COMPOUND_ID_TYPE>
0

> <PUBCHEM_TOTAL_CHARGE>
0

> <PUBCHEM_SUBSTANCE_ID>
310940239

> <PUBCHEM_SUBSTANCE_VERSION>
1

> <PUBCHEM_EXT_DATASOURCE_NAME>
4488

> <PUBCHEM_EXT_DATASOURCE_REGID>
SCHEMBL16118173

> <PUBCHEM_SUBSTANCE_COMMENT>
InChI=1S/C43H44N4O5/c1-26-6-10-29(11-7-26)31-17-33-22-44-37-20-39(28(3)16-35(37)42(48)46(33)24-31)51-14-5-15-52-41-21-38-36(19-40(41)50-4)43(49)47-25-32(18-34(47)23-45-38)30-12-8-27(2)9-13-30/h6-13,16,19-23,31-34H,5,14-15,17-18,24-25H2,1-4H3/t31?,32?,33-,34-/m0/s1
InChIKey=CUIZNNOSBIVCBL-TYBYDDOHSA-N

> <PUBCHEM_SUBSTANCE_SYNONYM>
SCHEMBL16118173

> <PUBCHEM_XREF_EXT_ID>
SCHEMBL16118173

> <PUBCHEM_EXT_DATASOURCE_URL>
https://www.surechembl.org/

> <PUBCHEM_EXT_SUBSTANCE_URL>
https://www.surechembl.org/chemical/SCHEMBL16118173

> <PUBCHEM_CID_ASSOCIATIONS>
117607330  1

> <PUBCHEM_COORDINATE_TYPE>
1
3

> <PUBCHEM_BONDANNOTATIONS>
12  21  5
15  24  6

$$$$
