310934638
  -OEChem-07211613022D

 26 28  0     0  0  0  0  0  0999 V2000
    4.9692   -0.8058    0.0000 S   0  0  0  0  0  0  0  0  0  0  0  0
    4.2529   -4.4767    0.0000 O   0  0  0  0  0  0  0  0  0  0  0  0
    5.6854   -4.4767    0.0000 O   0  0  0  0  0  0  0  0  0  0  0  0
    5.7973   -0.8058    0.0000 O   0  0  0  0  0  0  0  0  0  0  0  0
    4.1410   -0.8058    0.0000 O   0  0  0  0  0  0  0  0  0  0  0  0
    4.9692   -1.6340    0.0000 N   0  0  0  0  0  0  0  0  0  0  0  0
    4.9692   -3.2456    0.0000 C   0  0  0  0  0  0  0  0  0  0  0  0
    5.7078   -2.8427    0.0000 C   0  0  0  0  0  0  0  0  0  0  0  0
    4.2753   -2.8427    0.0000 C   0  0  0  0  0  0  0  0  0  0  0  0
    4.2529   -3.6709    0.0000 C   0  0  0  0  0  0  0  0  0  0  0  0
    4.9692   -4.0738    0.0000 C   0  0  0  0  0  0  0  0  0  0  0  0
    5.7078   -2.0145    0.0000 C   0  0  0  0  0  0  0  0  0  0  0  0
    4.2753   -2.0145    0.0000 C   0  0  0  0  0  0  0  0  0  0  0  0
    3.5366   -3.2456    0.0000 C   0  0  0  0  0  0  0  0  0  0  0  0
    2.1264   -2.4398    0.0000 C   0  0  0  0  0  0  0  0  0  0  0  0
    3.5366   -2.4174    0.0000 C   0  0  0  0  0  0  0  0  0  0  0  0
    2.8427   -3.6485    0.0000 C   0  0  0  0  0  0  0  0  0  0  0  0
    2.8427   -2.0145    0.0000 C   0  0  0  0  0  0  0  0  0  0  0  0
    2.1264   -3.2456    0.0000 C   0  0  0  0  0  0  0  0  0  0  0  0
    1.4102   -2.0145    0.0000 C   0  0  0  0  0  0  0  0  0  0  0  0
    4.9692    0.0000    0.0000 C   0  0  0  0  0  0  0  0  0  0  0  0
    0.7163   -2.4398    0.0000 C   0  0  0  0  0  0  0  0  0  0  0  0
    1.4102   -1.2087    0.0000 C   0  0  0  0  0  0  0  0  0  0  0  0
    0.0000   -2.0369    0.0000 C   0  0  0  0  0  0  0  0  0  0  0  0
    0.7163   -0.8058    0.0000 C   0  0  0  0  0  0  0  0  0  0  0  0
    0.0000   -1.2087    0.0000 C   0  0  0  0  0  0  0  0  0  0  0  0
  1  4  2  0  0  0  0
  1  5  2  0  0  0  0
  1  6  1  0  0  0  0
  1 21  1  0  0  0  0
  2 11  2  0  0  0  0
  3 11  1  0  0  0  0
  6 12  1  0  0  0  0
  6 13  1  0  0  0  0
  7  8  1  0  0  0  0
  7  9  1  0  0  0  0
  7 10  1  0  0  0  0
  7 11  1  0  0  0  0
  8 12  1  0  0  0  0
  9 13  1  0  0  0  0
 10 14  1  0  0  0  0
 14 16  2  0  0  0  0
 14 17  1  0  0  0  0
 15 18  2  0  0  0  0
 15 19  1  0  0  0  0
 15 20  1  0  0  0  0
 16 18  1  0  0  0  0
 17 19  2  0  0  0  0
 20 22  2  0  0  0  0
 20 23  1  0  0  0  0
 22 24  1  0  0  0  0
 23 25  2  0  0  0  0
 24 26  2  0  0  0  0
 25 26  1  0  0  0  0
M  END
> <PUBCHEM_COMPOUND_ID_TYPE>
0

> <PUBCHEM_TOTAL_CHARGE>
0

> <PUBCHEM_SUBSTANCE_ID>
310934638

> <PUBCHEM_SUBSTANCE_VERSION>
1

> <PUBCHEM_EXT_DATASOURCE_NAME>
4488

> <PUBCHEM_EXT_DATASOURCE_REGID>
SCHEMBL16112135

> <PUBCHEM_SUBSTANCE_COMMENT>
InChI=1S/C20H23NO4S/c1-26(24,25)21-13-11-20(12-14-21,19(22)23)15-16-7-9-18(10-8-16)17-5-3-2-4-6-17/h2-10H,11-15H2,1H3,(H,22,23)
InChIKey=JKEJMMVGDVKQOG-UHFFFAOYSA-N

> <PUBCHEM_SUBSTANCE_SYNONYM>
SCHEMBL16112135

> <PUBCHEM_XREF_EXT_ID>
SCHEMBL16112135

> <PUBCHEM_EXT_DATASOURCE_URL>
https://www.surechembl.org/

> <PUBCHEM_EXT_SUBSTANCE_URL>
https://www.surechembl.org/chemical/SCHEMBL16112135

> <PUBCHEM_CID_ASSOCIATIONS>
117602807  1

> <PUBCHEM_COORDINATE_TYPE>
1
3

$$$$
