310935404
  -OEChem-07211613022D

 26 28  0     0  0  0  0  0  0999 V2000
    0.7500    0.0000    0.0000 Br  0  0  0  0  0  0  0  0  0  0  0  0
    2.1499   -2.4999    0.0000 F   0  0  0  0  0  0  0  0  0  0  0  0
    7.4998   -0.8500    0.0000 F   0  0  0  0  0  0  0  0  0  0  0  0
    3.6749   -0.1750    0.0000 O   0  0  0  0  0  0  0  0  0  0  0  0
    0.7500   -1.7000    0.0000 O   0  0  0  0  0  0  0  0  0  0  0  0
    3.3749   -2.9249    0.0000 O   0  0  0  0  0  0  0  0  0  0  0  0
    4.7249   -2.4749    0.0000 N   0  0  0  0  0  0  0  0  0  0  0  0
    2.8749   -1.2750    0.0000 C   0  0  0  0  0  0  0  0  0  0  0  0
    3.6749   -1.5000    0.0000 C   0  0  0  0  0  0  0  0  0  0  0  0
    2.8749   -0.4000    0.0000 C   0  0  0  0  0  0  0  0  0  0  0  0
    4.1748   -0.8500    0.0000 C   0  0  0  0  0  0  0  0  0  0  0  0
    2.1499   -1.6749    0.0000 C   0  0  0  0  0  0  0  0  0  0  0  0
    1.4499   -1.2750    0.0000 C   0  0  0  0  0  0  0  0  0  0  0  0
    2.1499   -0.0250    0.0000 C   0  0  0  0  0  0  0  0  0  0  0  0
    1.4499   -0.4000    0.0000 C   0  0  0  0  0  0  0  0  0  0  0  0
    4.9998   -0.8500    0.0000 C   0  0  0  0  0  0  0  0  0  0  0  0
    3.9249   -2.2999    0.0000 C   0  0  0  0  0  0  0  0  0  0  0  0
    5.4248   -0.1250    0.0000 C   0  0  0  0  0  0  0  0  0  0  0  0
    5.4248   -1.5499    0.0000 C   0  0  0  0  0  0  0  0  0  0  0  0
    0.7250   -2.5249    0.0000 C   0  0  0  0  0  0  0  0  0  0  0  0
    6.2498   -0.1250    0.0000 C   0  0  0  0  0  0  0  0  0  0  0  0
    6.2498   -1.5499    0.0000 C   0  0  0  0  0  0  0  0  0  0  0  0
    6.6748   -0.8500    0.0000 C   0  0  0  0  0  0  0  0  0  0  0  0
    4.9998   -3.2499    0.0000 C   0  0  0  0  0  0  0  0  0  0  0  0
    0.0000   -2.9499    0.0000 C   0  0  0  0  0  0  0  0  0  0  0  0
    1.4499   -2.9499    0.0000 C   0  0  0  0  0  0  0  0  0  0  0  0
  1 15  1  0  0  0  0
  2 12  1  0  0  0  0
  3 23  1  0  0  0  0
  4 10  1  0  0  0  0
  4 11  1  0  0  0  0
  5 13  1  0  0  0  0
  5 20  1  0  0  0  0
  6 17  2  0  0  0  0
  7 17  1  0  0  0  0
  7 24  1  0  0  0  0
  8  9  1  0  0  0  0
  8 10  2  0  0  0  0
  8 12  1  0  0  0  0
  9 11  2  0  0  0  0
  9 17  1  0  0  0  0
 10 14  1  0  0  0  0
 11 16  1  0  0  0  0
 12 13  2  0  0  0  0
 13 15  1  0  0  0  0
 14 15  2  0  0  0  0
 16 18  2  0  0  0  0
 16 19  1  0  0  0  0
 18 21  1  0  0  0  0
 19 22  2  0  0  0  0
 20 25  1  0  0  0  0
 20 26  1  0  0  0  0
 21 23  2  0  0  0  0
 22 23  1  0  0  0  0
M  END
> <PUBCHEM_COMPOUND_ID_TYPE>
0

> <PUBCHEM_TOTAL_CHARGE>
0

> <PUBCHEM_SUBSTANCE_ID>
310935404

> <PUBCHEM_SUBSTANCE_VERSION>
1

> <PUBCHEM_EXT_DATASOURCE_NAME>
4488

> <PUBCHEM_EXT_DATASOURCE_REGID>
SCHEMBL16112945

> <PUBCHEM_SUBSTANCE_COMMENT>
InChI=1S/C19H16BrF2NO3/c1-9(2)25-18-12(20)8-13-14(16(18)22)15(19(24)23-3)17(26-13)10-4-6-11(21)7-5-10/h4-9H,1-3H3,(H,23,24)
InChIKey=KMTRJEZFYJMOON-UHFFFAOYSA-N

> <PUBCHEM_SUBSTANCE_SYNONYM>
SCHEMBL16112945

> <PUBCHEM_XREF_EXT_ID>
SCHEMBL16112945

> <PUBCHEM_EXT_DATASOURCE_URL>
https://www.surechembl.org/

> <PUBCHEM_EXT_SUBSTANCE_URL>
https://www.surechembl.org/chemical/SCHEMBL16112945

> <PUBCHEM_CID_ASSOCIATIONS>
117603449  1

> <PUBCHEM_COORDINATE_TYPE>
1
3

$$$$
