310938373
  -OEChem-07211613022D

 15 17  0     0  0  0  0  0  0999 V2000
    1.6522   -1.4431    0.0000 N   0  0  0  0  0  0  0  0  0  0  0  0
    1.6522   -2.8652    0.0000 N   0  0  0  0  0  0  0  0  0  0  0  0
    1.7986   -0.0836    0.0000 N   0  0  0  0  0  0  0  0  0  0  0  0
    0.0000    0.0000    0.0000 N   0  0  0  0  0  0  0  0  0  0  0  0
    1.2340   -2.1541    0.0000 C   0  0  0  0  0  0  0  0  0  0  0  0
    1.2340   -0.7320    0.0000 C   0  0  0  0  0  0  0  0  0  0  0  0
    0.4183   -0.7320    0.0000 C   0  0  0  0  0  0  0  0  0  0  0  0
    2.4888   -1.2548    0.0000 C   0  0  0  0  0  0  0  0  0  0  0  0
    0.4183   -2.1541    0.0000 C   0  0  0  0  0  0  0  0  0  0  0  0
    0.0000   -1.4431    0.0000 C   0  0  0  0  0  0  0  0  0  0  0  0
    2.5724   -0.4183    0.0000 C   0  0  0  0  0  0  0  0  0  0  0  0
    2.4888   -2.9698    0.0000 C   0  0  0  0  0  0  0  0  0  0  0  0
    1.3176   -3.6391    0.0000 C   0  0  0  0  0  0  0  0  0  0  0  0
    2.6561   -3.7855    0.0000 C   0  0  0  0  0  0  0  0  0  0  0  0
    1.9241   -4.1828    0.0000 C   0  0  0  0  0  0  0  0  0  0  0  0
  1  5  1  0  0  0  0
  1  6  1  0  0  0  0
  1  8  1  0  0  0  0
  2  5  1  0  0  0  0
  2 12  1  0  0  0  0
  2 13  1  0  0  0  0
  3  6  2  0  0  0  0
  3 11  1  0  0  0  0
  4  7  1  0  0  0  0
  5  9  2  0  0  0  0
  6  7  1  0  0  0  0
  7 10  2  0  0  0  0
  8 11  2  0  0  0  0
  9 10  1  0  0  0  0
 12 14  1  0  0  0  0
 13 15  1  0  0  0  0
 14 15  1  0  0  0  0
M  END
> <PUBCHEM_COMPOUND_ID_TYPE>
0

> <PUBCHEM_TOTAL_CHARGE>
0

> <PUBCHEM_SUBSTANCE_ID>
310938373

> <PUBCHEM_SUBSTANCE_VERSION>
1

> <PUBCHEM_EXT_DATASOURCE_NAME>
4488

> <PUBCHEM_EXT_DATASOURCE_REGID>
SCHEMBL16116260

> <PUBCHEM_SUBSTANCE_COMMENT>
InChI=1S/C11H14N4/c12-9-3-4-10(14-6-1-2-7-14)15-8-5-13-11(9)15/h3-5,8H,1-2,6-7,12H2
InChIKey=OKEBHPLXUFXMQV-UHFFFAOYSA-N

> <PUBCHEM_SUBSTANCE_SYNONYM>
SCHEMBL16116260

> <PUBCHEM_XREF_EXT_ID>
SCHEMBL16116260

> <PUBCHEM_EXT_DATASOURCE_URL>
https://www.surechembl.org/

> <PUBCHEM_EXT_SUBSTANCE_URL>
https://www.surechembl.org/chemical/SCHEMBL16116260

> <PUBCHEM_CID_ASSOCIATIONS>
117605855  1

> <PUBCHEM_COORDINATE_TYPE>
1
3

$$$$
