310939464
  -OEChem-07211613022D

 39 43  0     0  0  0  0  0  0999 V2000
    1.8562   -1.9930    0.0000 F   0  0  0  0  0  0  0  0  0  0  0  0
    4.3312   -1.9930    0.0000 F   0  0  0  0  0  0  0  0  0  0  0  0
    1.8562   -3.4220    0.0000 C   0  0  0  0  0  0  0  0  0  0  0  0
    2.6812   -3.4220    0.0000 C   0  0  0  0  0  0  0  0  0  0  0  0
    4.3312   -3.4220    0.0000 C   0  0  0  0  0  0  0  0  0  0  0  0
    1.4437   -2.7075    0.0000 C   0  0  0  0  0  0  0  0  0  0  0  0
    0.2062   -3.4220    0.0000 C   0  0  0  0  0  0  0  0  0  0  0  0
    3.9187   -2.7075    0.0000 C   0  0  0  0  0  0  0  0  0  0  0  0
    3.0937   -2.7075    0.0000 C   0  0  0  0  0  0  0  0  0  0  0  0
   -0.6188   -3.4220    0.0000 C   0  0  0  0  0  0  0  0  0  0  0  0
    0.6187   -2.7075    0.0000 C   0  0  0  0  0  0  0  0  0  0  0  0
    1.4437   -4.1365    0.0000 C   0  0  0  0  0  0  0  0  0  0  0  0
    5.1562   -3.4220    0.0000 C   0  0  0  0  0  0  0  0  0  0  0  0
    3.0937   -4.1365    0.0000 C   0  0  0  0  0  0  0  0  0  0  0  0
    3.9187   -4.1365    0.0000 C   0  0  0  0  0  0  0  0  0  0  0  0
    0.6187   -4.1365    0.0000 C   0  0  0  0  0  0  0  0  0  0  0  0
   -2.2688   -3.4220    0.0000 C   0  0  0  0  0  0  0  0  0  0  0  0
   -1.0313   -4.1365    0.0000 C   0  0  0  0  0  0  0  0  0  0  0  0
   -1.0313   -2.7075    0.0000 C   0  0  0  0  0  0  0  0  0  0  0  0
    5.5687   -4.1365    0.0000 C   0  0  0  0  0  0  0  0  0  0  0  0
    5.5687   -2.7075    0.0000 C   0  0  0  0  0  0  0  0  0  0  0  0
   -3.0938   -3.4220    0.0000 C   0  0  0  0  0  0  0  0  0  0  0  0
   -1.8563   -4.1365    0.0000 C   0  0  0  0  0  0  0  0  0  0  0  0
   -1.8563   -2.7075    0.0000 C   0  0  0  0  0  0  0  0  0  0  0  0
    6.8062   -3.4220    0.0000 C   0  0  0  0  0  0  0  0  0  0  0  0
    6.3937   -4.1365    0.0000 C   0  0  0  0  0  0  0  0  0  0  0  0
    6.3937   -2.7075    0.0000 C   0  0  0  0  0  0  0  0  0  0  0  0
   -3.5063   -4.1365    0.0000 C   0  0  0  0  0  0  0  0  0  0  0  0
   -3.5063   -2.7075    0.0000 C   0  0  0  0  0  0  0  0  0  0  0  0
   -4.7438   -3.4220    0.0000 C   0  0  0  0  0  0  0  0  0  0  0  0
   -4.3313   -4.1365    0.0000 C   0  0  0  0  0  0  0  0  0  0  0  0
   -4.3313   -2.7075    0.0000 C   0  0  0  0  0  0  0  0  0  0  0  0
    7.6312   -3.4220    0.0000 C   0  0  0  0  0  0  0  0  0  0  0  0
   -5.5688   -3.4220    0.0000 C   0  0  0  0  0  0  0  0  0  0  0  0
    8.0437   -4.1365    0.0000 C   0  0  0  0  0  0  0  0  0  0  0  0
   -5.9813   -4.1365    0.0000 C   0  0  0  0  0  0  0  0  0  0  0  0
   -6.8063   -4.1365    0.0000 C   0  0  0  0  0  0  0  0  0  0  0  0
   -7.2188   -3.4220    0.0000 C   0  0  0  0  0  0  0  0  0  0  0  0
   -8.0437   -3.4220    0.0000 C   0  0  0  0  0  0  0  0  0  0  0  0
  1  6  1  0  0  0  0
  2  8  1  0  0  0  0
  3  4  1  0  0  0  0
  3  6  1  0  0  0  0
  3 12  2  0  0  0  0
  4  9  1  0  0  0  0
  4 14  2  0  0  0  0
  5  8  1  0  0  0  0
  5 13  1  0  0  0  0
  5 15  2  0  0  0  0
  6 11  2  0  0  0  0
  7 10  1  0  0  0  0
  7 11  1  0  0  0  0
  7 16  2  0  0  0  0
  8  9  2  0  0  0  0
 10 18  2  0  0  0  0
 10 19  1  0  0  0  0
 12 16  1  0  0  0  0
 13 20  2  0  0  0  0
 13 21  1  0  0  0  0
 14 15  1  0  0  0  0
 17 22  1  0  0  0  0
 17 23  2  0  0  0  0
 17 24  1  0  0  0  0
 18 23  1  0  0  0  0
 19 24  2  0  0  0  0
 20 26  1  0  0  0  0
 21 27  2  0  0  0  0
 22 28  1  0  0  0  0
 22 29  1  0  0  0  0
 25 26  2  0  0  0  0
 25 27  1  0  0  0  0
 25 33  1  0  0  0  0
 28 31  1  0  0  0  0
 29 32  1  0  0  0  0
 30 31  1  0  0  0  0
 30 32  1  0  0  0  0
 30 34  1  0  0  0  0
 33 35  1  0  0  0  0
 34 36  1  0  0  0  0
 36 37  1  0  0  0  0
 37 38  1  0  0  0  0
 38 39  1  0  0  0  0
M  END
> <PUBCHEM_COMPOUND_ID_TYPE>
0

> <PUBCHEM_TOTAL_CHARGE>
0

> <PUBCHEM_SUBSTANCE_ID>
310939464

> <PUBCHEM_SUBSTANCE_VERSION>
1

> <PUBCHEM_EXT_DATASOURCE_NAME>
4488

> <PUBCHEM_EXT_DATASOURCE_REGID>
SCHEMBL16117390

> <PUBCHEM_SUBSTANCE_COMMENT>
InChI=1S/C37H40F2/c1-3-5-6-7-27-10-12-28(13-11-27)29-16-18-30(19-17-29)32-20-22-35(36(38)24-32)33-21-23-34(37(39)25-33)31-14-8-26(4-2)9-15-31/h8-9,14-25,27-28H,3-7,10-13H2,1-2H3
InChIKey=KWOHHXJHCHDNMW-UHFFFAOYSA-N

> <PUBCHEM_SUBSTANCE_SYNONYM>
SCHEMBL16117390

> <PUBCHEM_XREF_EXT_ID>
SCHEMBL16117390

> <PUBCHEM_EXT_DATASOURCE_URL>
https://www.surechembl.org/

> <PUBCHEM_EXT_SUBSTANCE_URL>
https://www.surechembl.org/chemical/SCHEMBL16117390

> <PUBCHEM_CID_ASSOCIATIONS>
117606778  1

> <PUBCHEM_COORDINATE_TYPE>
1
3

$$$$
