310944329
  -OEChem-07211613022D

 32 36  0     1  0  0  0  0  0999 V2000
    2.4096    0.4053    0.0000 O   0  0  0  0  0  0  0  0  0  0  0  0
    5.0078   -1.1271    0.0000 O   0  0  0  0  0  0  0  0  0  0  0  0
    5.4965    0.2720    0.0000 O   0  0  0  0  0  0  0  0  0  0  0  0
   -1.3102   -0.7496    0.0000 O   0  0  0  0  0  0  0  0  0  0  0  0
    2.8759   -1.0049    0.0000 N   0  0  0  0  0  0  0  0  0  0  0  0
    0.1332    0.0833    0.0000 N   0  0  0  0  0  0  0  0  0  0  0  0
   -4.1862    0.0833    0.0000 N   0  0  0  0  0  0  0  0  0  0  0  0
   -2.0209    1.3380    0.0000 N   0  0  0  0  0  0  0  0  0  0  0  0
   -4.9524    0.4163    0.0000 N   0  0  0  0  0  0  0  0  0  0  0  0
   -5.4965   -0.2054    0.0000 N   0  0  0  0  0  0  0  0  0  0  0  0
   -5.0968   -0.9272    0.0000 N   0  0  0  0  0  0  0  0  0  0  0  0
    1.5434   -0.7273    0.0000 C   0  0  0  0  0  0  0  0  0  0  0  0
    2.2541   -0.4275    0.0000 C   0  0  0  0  0  0  0  0  0  0  0  0
    3.6754   -0.8828    0.0000 C   0  0  0  0  0  0  0  0  0  0  0  0
    1.6211   -1.5601    0.0000 C   0  0  0  0  0  0  0  0  0  0  0  0
    2.4207   -1.7599    0.0000 C   0  0  0  0  0  0  0  0  0  0  0  0
    0.8440   -1.1381    0.0000 C   0  0  0  0  0  0  0  0  0  0  0  0
    1.5434    0.0944    0.0000 C   0  0  0  0  0  0  0  0  0  0  0  0
    4.0974   -0.1499    0.0000 C   0  0  0  0  0  0  0  0  0  0  0  0
    4.2862   -1.4602    0.0000 C   0  0  0  0  0  0  0  0  0  0  0  0
    4.8857   -0.3164    0.0000 C   0  0  0  0  0  0  0  0  0  0  0  0
    0.1222   -0.7385    0.0000 C   0  0  0  0  0  0  0  0  0  0  0  0
    0.8329    0.4941    0.0000 C   0  0  0  0  0  0  0  0  0  0  0  0
   -0.5995    0.5052    0.0000 C   0  0  0  0  0  0  0  0  0  0  0  0
   -1.2992    0.0944    0.0000 C   0  0  3  0  0  0  0  0  0  0  0  0
   -2.0431    0.5052    0.0000 C   0  0  0  0  0  0  0  0  0  0  0  0
    3.7309    0.5940    0.0000 C   0  0  0  0  0  0  0  0  0  0  0  0
   -3.4755    0.5163    0.0000 C   0  0  0  0  0  0  0  0  0  0  0  0
   -2.7316    0.0944    0.0000 C   0  0  0  0  0  0  0  0  0  0  0  0
   -3.4644    1.3380    0.0000 C   0  0  0  0  0  0  0  0  0  0  0  0
   -2.7538    1.7599    0.0000 C   0  0  0  0  0  0  0  0  0  0  0  0
   -4.2861   -0.7273    0.0000 C   0  0  0  0  0  0  0  0  0  0  0  0
  1 13  2  0  0  0  0
  2 20  1  0  0  0  0
  2 21  1  0  0  0  0
  3 21  2  0  0  0  0
 25  4  1  6  0  0  0
  5 13  1  0  0  0  0
  5 14  1  0  0  0  0
  5 16  1  0  0  0  0
  6 22  1  0  0  0  0
  6 23  1  0  0  0  0
  6 24  1  0  0  0  0
  7  9  1  0  0  0  0
  7 28  1  0  0  0  0
  7 32  1  0  0  0  0
  8 26  1  0  0  0  0
  8 31  2  0  0  0  0
  9 10  2  0  0  0  0
 10 11  1  0  0  0  0
 11 32  2  0  0  0  0
 12 13  1  0  0  0  0
 12 15  1  0  0  0  0
 12 17  1  0  0  0  0
 12 18  1  0  0  0  0
 14 19  2  0  0  0  0
 14 20  1  0  0  0  0
 15 16  1  0  0  0  0
 17 22  1  0  0  0  0
 18 23  1  0  0  0  0
 19 21  1  0  0  0  0
 19 27  1  0  0  0  0
 24 25  1  0  0  0  0
 25 26  1  0  0  0  0
 26 29  2  0  0  0  0
 28 29  1  0  0  0  0
 28 30  2  0  0  0  0
 30 31  1  0  0  0  0
M  END
> <PUBCHEM_COMPOUND_ID_TYPE>
0

> <PUBCHEM_TOTAL_CHARGE>
0

> <PUBCHEM_SUBSTANCE_ID>
310944329

> <PUBCHEM_SUBSTANCE_VERSION>
1

> <PUBCHEM_EXT_DATASOURCE_NAME>
4488

> <PUBCHEM_EXT_DATASOURCE_REGID>
SCHEMBL16122404

> <PUBCHEM_SUBSTANCE_COMMENT>
InChI=1S/C21H25N7O4/c1-14-17(12-32-19(14)30)27-9-5-21(20(27)31)3-7-26(8-4-21)11-18(29)16-10-15(2-6-22-16)28-13-23-24-25-28/h2,6,10,13,18,29H,3-5,7-9,11-12H2,1H3/t18-/m0/s1
InChIKey=WCPAPAICFIIDJW-SFHVURJKSA-N

> <PUBCHEM_SUBSTANCE_SYNONYM>
SCHEMBL16122404

> <PUBCHEM_XREF_EXT_ID>
SCHEMBL16122404

> <PUBCHEM_EXT_DATASOURCE_URL>
https://www.surechembl.org/

> <PUBCHEM_EXT_SUBSTANCE_URL>
https://www.surechembl.org/chemical/SCHEMBL16122404

> <PUBCHEM_CID_ASSOCIATIONS>
86270517  1

> <PUBCHEM_COORDINATE_TYPE>
1
3

> <PUBCHEM_BONDANNOTATIONS>
25  4  6

$$$$
