310949389
  -OEChem-07211613022D

 17 19  0     0  0  0  0  0  0999 V2000
    0.0000    0.9438    0.0000 N   0  0  0  0  0  0  0  0  0  0  0  0
   -1.7829   -0.8240    0.0000 N   0  0  0  0  0  0  0  0  0  0  0  0
   -0.4045   -0.3146    0.0000 C   0  0  0  0  0  0  0  0  0  0  0  0
    0.4045   -0.3446    0.0000 C   0  0  0  0  0  0  0  0  0  0  0  0
   -0.6892    0.4345    0.0000 C   0  0  0  0  0  0  0  0  0  0  0  0
    0.6742    0.4645    0.0000 C   0  0  0  0  0  0  0  0  0  0  0  0
   -0.9738   -1.0038    0.0000 C   0  0  0  0  0  0  0  0  0  0  0  0
    0.9290   -0.9438    0.0000 C   0  0  0  0  0  0  0  0  0  0  0  0
   -1.4983    0.6143    0.0000 C   0  0  0  0  0  0  0  0  0  0  0  0
    1.4532    0.6143    0.0000 C   0  0  0  0  0  0  0  0  0  0  0  0
    1.7380   -0.7940    0.0000 C   0  0  0  0  0  0  0  0  0  0  0  0
   -2.0526   -0.0300    0.0000 C   0  0  0  0  0  0  0  0  0  0  0  0
    2.0077    0.0149    0.0000 C   0  0  0  0  0  0  0  0  0  0  0  0
   -0.7192   -1.7829    0.0000 C   0  0  0  0  0  0  0  0  0  0  0  0
    2.3073   -1.4384    0.0000 C   0  0  0  0  0  0  0  0  0  0  0  0
   -2.8467    0.1498    0.0000 C   0  0  0  0  0  0  0  0  0  0  0  0
    2.8467    0.1648    0.0000 C   0  0  0  0  0  0  0  0  0  0  0  0
  1  5  1  0  0  0  0
  1  6  1  0  0  0  0
  2  7  2  0  0  0  0
  2 12  1  0  0  0  0
  3  4  1  0  0  0  0
  3  5  2  0  0  0  0
  3  7  1  0  0  0  0
  4  6  2  0  0  0  0
  4  8  1  0  0  0  0
  5  9  1  0  0  0  0
  6 10  1  0  0  0  0
  7 14  1  0  0  0  0
  8 11  2  0  0  0  0
  9 12  2  0  0  0  0
 10 13  2  0  0  0  0
 11 13  1  0  0  0  0
 11 15  1  0  0  0  0
 12 16  1  0  0  0  0
 13 17  1  0  0  0  0
M  END
> <PUBCHEM_COMPOUND_ID_TYPE>
0

> <PUBCHEM_TOTAL_CHARGE>
0

> <PUBCHEM_SUBSTANCE_ID>
310949389

> <PUBCHEM_SUBSTANCE_VERSION>
1

> <PUBCHEM_EXT_DATASOURCE_NAME>
4488

> <PUBCHEM_EXT_DATASOURCE_REGID>
SCHEMBL16127581

> <PUBCHEM_SUBSTANCE_COMMENT>
InChI=1S/C15H16N2/c1-8-5-12-13(6-9(8)2)17-14-7-10(3)16-11(4)15(12)14/h5-7,17H,1-4H3
InChIKey=QIGKOOKPOYQMDH-UHFFFAOYSA-N

> <PUBCHEM_SUBSTANCE_SYNONYM>
SCHEMBL16127581

> <PUBCHEM_XREF_EXT_ID>
SCHEMBL16127581

> <PUBCHEM_EXT_DATASOURCE_URL>
https://www.surechembl.org/

> <PUBCHEM_EXT_SUBSTANCE_URL>
https://www.surechembl.org/chemical/SCHEMBL16127581

> <PUBCHEM_CID_ASSOCIATIONS>
10680671  1

> <PUBCHEM_COORDINATE_TYPE>
1
3

$$$$
