310931780
  -OEChem-07211613022D

 39 42  0     1  0  0  0  0  0999 V2000
    1.5312   -7.8525    0.0000 Cl  0  0  0  0  0  0  0  0  0  0  0  0
    6.5568   -5.8108    0.0000 S   0  0  0  0  0  0  0  0  0  0  0  0
    6.1642   -6.5175    0.0000 O   0  0  0  0  0  0  0  0  0  0  0  0
    7.2635   -6.2427    0.0000 O   0  0  0  0  0  0  0  0  0  0  0  0
    3.6907   -4.1226    0.0000 O   0  0  0  0  0  0  0  0  0  0  0  0
    0.8245   -1.6490    0.0000 O   0  0  0  0  0  0  0  0  0  0  0  0
    2.2772   -1.6490    0.0000 O   0  0  0  0  0  0  0  0  0  0  0  0
    6.9887   -5.1041    0.0000 N   0  0  0  0  0  0  0  0  0  0  0  0
    1.5312   -2.8662    0.0000 N   0  0  0  0  0  0  0  0  0  0  0  0
    7.6561   -3.6907    0.0000 N   0  0  0  0  0  0  0  0  0  0  0  0
    3.6907   -6.6353    0.0000 N   0  0  0  0  0  0  0  0  0  0  0  0
    7.8132   -5.1041    0.0000 C   0  0  0  0  0  0  0  0  0  0  0  0
    8.6377   -5.2219    0.0000 C   0  0  0  0  0  0  0  0  0  0  0  0
    8.1273   -5.8894    0.0000 C   0  0  0  0  0  0  0  0  0  0  0  0
    5.8501   -5.3789    0.0000 C   0  0  0  0  0  0  0  0  0  0  0  0
    8.1273   -4.3581    0.0000 C   0  0  0  0  0  0  0  0  0  0  0  0
    5.1434   -5.7716    0.0000 C   0  0  0  0  0  0  0  0  0  0  0  0
    4.3974   -5.3789    0.0000 C   0  0  0  0  0  0  0  0  0  0  0  0
    4.4367   -4.5544    0.0000 C   0  0  0  0  0  0  0  0  0  0  0  0
    5.8501   -4.5544    0.0000 C   0  0  0  0  0  0  0  0  0  0  0  0
    2.2772   -4.1226    0.0000 C   0  0  3  0  0  0  0  0  0  0  0  0
    1.5312   -4.5152    0.0000 C   0  0  3  0  0  0  0  0  0  0  0  0
    5.1434   -4.1226    0.0000 C   0  0  0  0  0  0  0  0  0  0  0  0
    1.5312   -5.3397    0.0000 C   0  0  0  0  0  0  0  0  0  0  0  0
    2.2772   -3.2980    0.0000 C   0  0  0  0  0  0  0  0  0  0  0  0
    2.9840   -4.5152    0.0000 C   0  0  0  0  0  0  0  0  0  0  0  0
    0.8245   -4.1226    0.0000 C   0  0  0  0  0  0  0  0  0  0  0  0
    0.8245   -3.2980    0.0000 C   0  0  0  0  0  0  0  0  0  0  0  0
    3.6907   -5.7716    0.0000 C   0  0  0  0  0  0  0  0  0  0  0  0
    1.5312   -2.0417    0.0000 C   0  0  0  0  0  0  0  0  0  0  0  0
    2.2772   -5.7716    0.0000 C   0  0  0  0  0  0  0  0  0  0  0  0
    0.8245   -5.7716    0.0000 C   0  0  0  0  0  0  0  0  0  0  0  0
    0.8245   -0.8245    0.0000 C   0  0  0  0  0  0  0  0  0  0  0  0
    2.2772   -6.5961    0.0000 C   0  0  0  0  0  0  0  0  0  0  0  0
    0.8245   -6.5961    0.0000 C   0  0  0  0  0  0  0  0  0  0  0  0
    1.5312   -7.0280    0.0000 C   0  0  0  0  0  0  0  0  0  0  0  0
    1.6882   -0.8245    0.0000 C   0  0  0  0  0  0  0  0  0  0  0  0
    0.8245    0.0000    0.0000 C   0  0  0  0  0  0  0  0  0  0  0  0
    0.0000   -0.8245    0.0000 C   0  0  0  0  0  0  0  0  0  0  0  0
  1 36  1  0  0  0  0
  2  3  2  0  0  0  0
  2  4  2  0  0  0  0
  2  8  1  0  0  0  0
  2 15  1  0  0  0  0
  5 19  1  0  0  0  0
  5 26  1  0  0  0  0
  6 30  1  0  0  0  0
  6 33  1  0  0  0  0
  7 30  2  0  0  0  0
  8 12  1  0  0  0  0
  9 25  1  0  0  0  0
  9 28  1  0  0  0  0
  9 30  1  0  0  0  0
 10 16  3  0  0  0  0
 11 29  3  0  0  0  0
 12 13  1  0  0  0  0
 12 14  1  0  0  0  0
 12 16  1  0  0  0  0
 13 14  1  0  0  0  0
 15 17  2  0  0  0  0
 15 20  1  0  0  0  0
 17 18  1  0  0  0  0
 18 19  2  0  0  0  0
 18 29  1  0  0  0  0
 19 23  1  0  0  0  0
 20 23  2  0  0  0  0
 21 22  1  0  0  0  0
 21 25  1  0  0  0  0
 21 26  1  6  0  0  0
 22 24  1  0  0  0  0
 22 27  1  1  0  0  0
 24 31  2  0  0  0  0
 24 32  1  0  0  0  0
 27 28  1  0  0  0  0
 31 34  1  0  0  0  0
 32 35  2  0  0  0  0
 33 37  1  0  0  0  0
 33 38  1  0  0  0  0
 33 39  1  0  0  0  0
 34 36  2  0  0  0  0
 35 36  1  0  0  0  0
M  END
> <PUBCHEM_COMPOUND_ID_TYPE>
0

> <PUBCHEM_TOTAL_CHARGE>
0

> <PUBCHEM_SUBSTANCE_ID>
310931780

> <PUBCHEM_SUBSTANCE_VERSION>
1

> <PUBCHEM_EXT_DATASOURCE_NAME>
4488

> <PUBCHEM_EXT_DATASOURCE_REGID>
SCHEMBL16109111

> <PUBCHEM_SUBSTANCE_COMMENT>
InChI=1S/C28H31ClN4O5S/c1-27(2,3)38-26(34)33-13-10-24(19-4-6-22(29)7-5-19)21(16-33)17-37-25-9-8-23(14-20(25)15-30)39(35,36)32-28(18-31)11-12-28/h4-9,14,21,24,32H,10-13,16-17H2,1-3H3/t21-,24-/m1/s1
InChIKey=MSJHDFIUHIFLOM-ZJSXRUAMSA-N

> <PUBCHEM_SUBSTANCE_SYNONYM>
SCHEMBL16109111

> <PUBCHEM_XREF_EXT_ID>
SCHEMBL16109111

> <PUBCHEM_EXT_DATASOURCE_URL>
https://www.surechembl.org/

> <PUBCHEM_EXT_SUBSTANCE_URL>
https://www.surechembl.org/chemical/SCHEMBL16109111

> <PUBCHEM_CID_ASSOCIATIONS>
117600465  1

> <PUBCHEM_COORDINATE_TYPE>
1
3

> <PUBCHEM_BONDANNOTATIONS>
21  26  6
22  27  5

$$$$
