310939943
  -OEChem-07211613022D

 31 34  0     1  0  0  0  0  0999 V2000
    1.0164    4.7084    0.0000 Cl  0  0  0  0  0  0  0  0  0  0  0  0
   -0.4125   -3.8834    0.0000 O   0  0  0  0  0  0  0  0  0  0  0  0
   -0.4125    2.2334    0.0000 O   0  0  0  0  0  0  0  0  0  0  0  0
   -1.8414    4.7084    0.0000 O   0  0  0  0  0  0  0  0  0  0  0  0
    1.0164   -0.2416    0.0000 O   0  0  0  0  0  0  0  0  0  0  0  0
   -1.1270   -0.6541    0.0000 N   0  0  3  0  0  0  0  0  0  0  0  0
   -1.1270   -2.6459    0.0000 N   0  0  0  0  0  0  0  0  0  0  0  0
   -1.1270    0.9959    0.0000 N   0  0  0  0  0  0  0  0  0  0  0  0
   -1.8414    3.0584    0.0000 N   0  0  0  0  0  0  0  0  0  0  0  0
   -1.1270   -1.4791    0.0000 C   0  0  0  0  0  0  0  0  0  0  0  0
   -0.4125   -0.2416    0.0000 C   0  0  3  0  0  0  0  0  0  0  0  0
   -1.7103   -2.0625    0.0000 C   0  0  0  0  0  0  0  0  0  0  0  0
   -0.5436   -2.0625    0.0000 C   0  0  0  0  0  0  0  0  0  0  0  0
    0.3020    3.4709    0.0000 C   0  0  0  0  0  0  0  0  0  0  0  0
    1.0164    3.0584    0.0000 C   0  0  0  0  0  0  0  0  0  0  0  0
   -1.8414   -0.2416    0.0000 C   0  0  0  0  0  0  0  0  0  0  0  0
   -0.4125    0.5834    0.0000 C   0  0  0  0  0  0  0  0  0  0  0  0
   -1.1270    3.4709    0.0000 C   0  0  0  0  0  0  0  0  0  0  0  0
    0.3020    4.2959    0.0000 C   0  0  0  0  0  0  0  0  0  0  0  0
   -0.4125    3.0584    0.0000 C   0  0  0  0  0  0  0  0  0  0  0  0
   -1.8414    0.5834    0.0000 C   0  0  0  0  0  0  0  0  0  0  0  0
   -1.1270   -3.4709    0.0000 C   0  0  0  0  0  0  0  0  0  0  0  0
   -1.1270    1.8209    0.0000 C   0  0  0  0  0  0  0  0  0  0  0  0
   -1.1270    4.2959    0.0000 C   0  0  0  0  0  0  0  0  0  0  0  0
    1.4289    2.3439    0.0000 C   0  0  0  0  0  0  0  0  0  0  0  0
    1.8414    3.0584    0.0000 C   0  0  0  0  0  0  0  0  0  0  0  0
   -0.4125    4.7084    0.0000 C   0  0  0  0  0  0  0  0  0  0  0  0
    0.3020   -0.6541    0.0000 C   0  0  0  0  0  0  0  0  0  0  0  0
   -1.8414    2.2334    0.0000 C   0  0  0  0  0  0  0  0  0  0  0  0
   -1.8414   -3.8834    0.0000 C   0  0  0  0  0  0  0  0  0  0  0  0
   -1.8414   -4.7084    0.0000 C   0  0  0  0  0  0  0  0  0  0  0  0
  1 19  1  0  0  0  0
  2 22  2  0  0  0  0
  3 23  2  0  0  0  0
  4 24  1  0  0  0  0
  5 28  1  0  0  0  0
  6 10  1  0  0  0  0
  6 11  1  0  0  0  0
  6 16  1  0  0  0  0
  7 12  1  0  0  0  0
  7 13  1  0  0  0  0
  7 22  1  0  0  0  0
  8 17  1  0  0  0  0
  8 21  1  0  0  0  0
  8 23  1  0  0  0  0
  9 18  1  0  0  0  0
  9 29  1  0  0  0  0
 10 12  1  0  0  0  0
 10 13  1  0  0  0  0
 11 17  1  0  0  0  0
 11 28  1  1  0  0  0
 14 15  1  0  0  0  0
 14 19  2  0  0  0  0
 14 20  1  0  0  0  0
 15 25  1  0  0  0  0
 15 26  1  0  0  0  0
 16 21  1  0  0  0  0
 18 20  2  0  0  0  0
 18 24  1  0  0  0  0
 19 27  1  0  0  0  0
 22 30  1  0  0  0  0
 23 29  1  0  0  0  0
 24 27  2  0  0  0  0
 25 26  1  0  0  0  0
 30 31  2  0  0  0  0
M  END
> <PUBCHEM_COMPOUND_ID_TYPE>
0

> <PUBCHEM_TOTAL_CHARGE>
0

> <PUBCHEM_SUBSTANCE_ID>
310939943

> <PUBCHEM_SUBSTANCE_VERSION>
1

> <PUBCHEM_EXT_DATASOURCE_NAME>
4488

> <PUBCHEM_EXT_DATASOURCE_REGID>
SCHEMBL16117873

> <PUBCHEM_SUBSTANCE_COMMENT>
InChI=1S/C22H29ClN4O4/c1-2-21(30)26-10-15(11-26)27-6-5-25(12-16(27)13-28)22(31)9-24-19-7-17(14-3-4-14)18(23)8-20(19)29/h2,7-8,14-16,24,28-29H,1,3-6,9-13H2/t16-/m0/s1
InChIKey=BUMSONAWOXALLR-INIZCTEOSA-N

> <PUBCHEM_SUBSTANCE_SYNONYM>
SCHEMBL16117873

> <PUBCHEM_XREF_EXT_ID>
SCHEMBL16117873

> <PUBCHEM_EXT_DATASOURCE_URL>
https://www.surechembl.org/

> <PUBCHEM_EXT_SUBSTANCE_URL>
https://www.surechembl.org/chemical/SCHEMBL16117873

> <PUBCHEM_CID_ASSOCIATIONS>
86279164  1

> <PUBCHEM_COORDINATE_TYPE>
1
3

> <PUBCHEM_BONDANNOTATIONS>
11  28  5

$$$$
