310930616
  -OEChem-07211613022D

 27 29  0     0  0  0  0  0  0999 V2000
    6.9791   -1.6460    0.0000 F   0  0  0  0  0  0  0  0  0  0  0  0
    6.9791   -0.8230    0.0000 F   0  0  0  0  0  0  0  0  0  0  0  0
    6.9791    0.0000    0.0000 F   0  0  0  0  0  0  0  0  0  0  0  0
    0.0000   -4.5430    0.0000 O   0  0  0  0  0  0  0  0  0  0  0  0
    5.5636   -1.6460    0.0000 O   0  0  0  0  0  0  0  0  0  0  0  0
    2.7324   -6.5512    0.0000 O   0  5  0  0  0  0  0  0  0  0  0  0
    1.3168   -6.5841    0.0000 O   0  0  0  0  0  0  0  0  0  0  0  0
    4.8393   -0.4280    0.0000 O   0  0  0  0  0  0  0  0  0  0  0  0
    0.4938   -3.8517    0.0000 N   0  0  0  0  0  0  0  0  0  0  0  0
    0.4938   -5.2014    0.0000 N   0  0  0  0  0  0  0  0  0  0  0  0
    1.9752   -2.8970    0.0000 N   0  0  0  0  0  0  0  0  0  0  0  0
    2.0081   -6.1561    0.0000 N   0  3  0  0  0  0  0  0  0  0  0  0
    1.2510   -4.0822    0.0000 C   0  0  0  0  0  0  0  0  0  0  0  0
    1.2839   -4.9381    0.0000 C   0  0  0  0  0  0  0  0  0  0  0  0
    1.9752   -3.6871    0.0000 C   0  0  0  0  0  0  0  0  0  0  0  0
    2.0081   -5.3331    0.0000 C   0  0  0  0  0  0  0  0  0  0  0  0
    2.6995   -4.0822    0.0000 C   0  0  0  0  0  0  0  0  0  0  0  0
    2.6995   -4.9381    0.0000 C   0  0  0  0  0  0  0  0  0  0  0  0
    2.6995   -2.4690    0.0000 C   0  0  0  0  0  0  0  0  0  0  0  0
    4.1151   -1.6460    0.0000 C   0  0  0  0  0  0  0  0  0  0  0  0
    4.8393   -1.2510    0.0000 C   0  0  0  0  0  0  0  0  0  0  0  0
    2.6995   -1.6460    0.0000 C   0  0  0  0  0  0  0  0  0  0  0  0
    3.4237   -2.8970    0.0000 C   0  0  0  0  0  0  0  0  0  0  0  0
    6.2549   -1.2510    0.0000 C   0  0  0  0  0  0  0  0  0  0  0  0
    3.4237   -1.2510    0.0000 C   0  0  0  0  0  0  0  0  0  0  0  0
    4.1151   -2.4690    0.0000 C   0  0  0  0  0  0  0  0  0  0  0  0
    6.2549   -0.4280    0.0000 C   0  0  0  0  0  0  0  0  0  0  0  0
  1 24  1  0  0  0  0
  2 24  1  0  0  0  0
  3 27  1  0  0  0  0
  4  9  1  0  0  0  0
  4 10  1  0  0  0  0
  5 21  1  0  0  0  0
  5 24  1  0  0  0  0
  6 12  1  0  0  0  0
  7 12  2  0  0  0  0
  8 21  2  0  0  0  0
  9 13  2  0  0  0  0
 10 14  2  0  0  0  0
 11 15  1  0  0  0  0
 11 19  1  0  0  0  0
 12 16  1  0  0  0  0
 13 14  1  0  0  0  0
 13 15  1  0  0  0  0
 14 16  1  0  0  0  0
 15 17  2  0  0  0  0
 16 18  2  0  0  0  0
 17 18  1  0  0  0  0
 19 22  2  0  0  0  0
 19 23  1  0  0  0  0
 20 21  1  0  0  0  0
 20 25  2  0  0  0  0
 20 26  1  0  0  0  0
 22 25  1  0  0  0  0
 23 26  2  0  0  0  0
 24 27  1  0  0  0  0
M  CHG  2   6  -1  12   1
M  END
> <PUBCHEM_COMPOUND_ID_TYPE>
0

> <PUBCHEM_TOTAL_CHARGE>
0

> <PUBCHEM_SUBSTANCE_ID>
310930616

> <PUBCHEM_SUBSTANCE_VERSION>
1

> <PUBCHEM_EXT_DATASOURCE_NAME>
4488

> <PUBCHEM_EXT_DATASOURCE_REGID>
SCHEMBL16107913

> <PUBCHEM_SUBSTANCE_COMMENT>
InChI=1S/C15H9F3N4O5/c16-7-15(17,18)26-14(23)8-1-3-9(4-2-8)19-10-5-6-11(22(24)25)13-12(10)20-27-21-13/h1-6,19H,7H2
InChIKey=SJRDXVPHNAZDLL-UHFFFAOYSA-N

> <PUBCHEM_SUBSTANCE_SYNONYM>
SCHEMBL16107913

> <PUBCHEM_XREF_EXT_ID>
SCHEMBL16107913

> <PUBCHEM_EXT_DATASOURCE_URL>
https://www.surechembl.org/

> <PUBCHEM_EXT_SUBSTANCE_URL>
https://www.surechembl.org/chemical/SCHEMBL16107913

> <PUBCHEM_CID_ASSOCIATIONS>
117599687  1

> <PUBCHEM_COORDINATE_TYPE>
1
3

$$$$
