310930870
  -OEChem-07211613022D

 32 35  0     0  0  0  0  0  0999 V2000
    0.9119   -3.4890    0.0000 O   0  0  0  0  0  0  0  0  0  0  0  0
    0.0000   -7.1763    0.0000 O   0  0  0  0  0  0  0  0  0  0  0  0
    3.4097   -7.4538    0.0000 O   0  0  0  0  0  0  0  0  0  0  0  0
    2.3392   -3.2908    0.0000 N   0  0  0  0  0  0  0  0  0  0  0  0
    2.7753   -4.5199    0.0000 N   0  0  0  0  0  0  0  0  0  0  0  0
    3.7666   -3.4890    0.0000 N   0  0  0  0  0  0  0  0  0  0  0  0
    1.9428   -4.5199    0.0000 C   0  0  0  0  0  0  0  0  0  0  0  0
    1.7049   -3.7666    0.0000 C   0  0  0  0  0  0  0  0  0  0  0  0
    1.4670   -5.1938    0.0000 C   0  0  0  0  0  0  0  0  0  0  0  0
    2.2996   -5.2732    0.0000 C   0  0  0  0  0  0  0  0  0  0  0  0
    3.0133   -3.7666    0.0000 C   0  0  0  0  0  0  0  0  0  0  0  0
    2.3392   -2.4582    0.0000 C   0  0  0  0  0  0  0  0  0  0  0  0
    1.7841   -5.9472    0.0000 C   0  0  0  0  0  0  0  0  0  0  0  0
    3.1322   -5.3128    0.0000 C   0  0  0  0  0  0  0  0  0  0  0  0
    0.6344   -5.1146    0.0000 C   0  0  0  0  0  0  0  0  0  0  0  0
    2.0220   -6.1058    0.0000 C   0  0  0  0  0  0  0  0  0  0  0  0
    1.6256   -2.0617    0.0000 C   0  0  0  0  0  0  0  0  0  0  0  0
    1.3084   -6.6212    0.0000 C   0  0  0  0  0  0  0  0  0  0  0  0
    3.4890   -6.0265    0.0000 C   0  0  0  0  0  0  0  0  0  0  0  0
    0.1586   -5.7886    0.0000 C   0  0  0  0  0  0  0  0  0  0  0  0
    2.2203   -6.6609    0.0000 C   0  0  0  0  0  0  0  0  0  0  0  0
    0.4758   -6.5419    0.0000 C   0  0  0  0  0  0  0  0  0  0  0  0
    3.0529   -6.7401    0.0000 C   0  0  0  0  0  0  0  0  0  0  0  0
    1.6256   -1.2291    0.0000 C   0  0  0  0  0  0  0  0  0  0  0  0
    0.9119   -2.4582    0.0000 C   0  0  0  0  0  0  0  0  0  0  0  0
    0.9515   -0.8326    0.0000 C   0  0  0  0  0  0  0  0  0  0  0  0
    0.1982   -2.0617    0.0000 C   0  0  0  0  0  0  0  0  0  0  0  0
    0.2379   -1.2291    0.0000 C   0  0  0  0  0  0  0  0  0  0  0  0
    2.3392   -0.8326    0.0000 C   0  0  0  0  0  0  0  0  0  0  0  0
    0.9515    0.0000    0.0000 C   0  0  0  0  0  0  0  0  0  0  0  0
    0.3172   -7.9296    0.0000 C   0  0  0  0  0  0  0  0  0  0  0  0
    4.2423   -7.4935    0.0000 C   0  0  0  0  0  0  0  0  0  0  0  0
  1  8  2  0  0  0  0
  2 22  1  0  0  0  0
  2 31  1  0  0  0  0
  3 23  1  0  0  0  0
  3 32  1  0  0  0  0
  4  8  1  0  0  0  0
  4 11  1  0  0  0  0
  4 12  1  0  0  0  0
  5  7  1  0  0  0  0
  5 11  1  0  0  0  0
  6 11  2  3  0  0  0
  7  8  1  0  0  0  0
  7  9  1  0  0  0  0
  7 10  1  0  0  0  0
  9 13  2  0  0  0  0
  9 15  1  0  0  0  0
 10 14  2  0  0  0  0
 10 16  1  0  0  0  0
 12 17  1  0  0  0  0
 13 18  1  0  0  0  0
 14 19  1  0  0  0  0
 15 20  2  0  0  0  0
 16 21  2  0  0  0  0
 17 24  1  0  0  0  0
 17 25  2  0  0  0  0
 18 22  2  0  0  0  0
 19 23  2  0  0  0  0
 20 22  1  0  0  0  0
 21 23  1  0  0  0  0
 24 26  2  0  0  0  0
 24 29  1  0  0  0  0
 25 27  1  0  0  0  0
 26 28  1  0  0  0  0
 26 30  1  0  0  0  0
 27 28  2  0  0  0  0
M  END
> <PUBCHEM_COMPOUND_ID_TYPE>
0

> <PUBCHEM_TOTAL_CHARGE>
0

> <PUBCHEM_SUBSTANCE_ID>
310930870

> <PUBCHEM_SUBSTANCE_VERSION>
1

> <PUBCHEM_EXT_DATASOURCE_NAME>
4488

> <PUBCHEM_EXT_DATASOURCE_REGID>
SCHEMBL16108168

> <PUBCHEM_SUBSTANCE_COMMENT>
InChI=1S/C26H27N3O3/c1-17-6-5-7-19(18(17)2)16-29-24(30)26(28-25(29)27,20-8-12-22(31-3)13-9-20)21-10-14-23(32-4)15-11-21/h5-15H,16H2,1-4H3,(H2,27,28)
InChIKey=LQJQFQBXPQFXFV-UHFFFAOYSA-N

> <PUBCHEM_SUBSTANCE_SYNONYM>
SCHEMBL16108168

> <PUBCHEM_XREF_EXT_ID>
SCHEMBL16108168

> <PUBCHEM_EXT_DATASOURCE_URL>
https://www.surechembl.org/

> <PUBCHEM_EXT_SUBSTANCE_URL>
https://www.surechembl.org/chemical/SCHEMBL16108168

> <PUBCHEM_CID_ASSOCIATIONS>
117599849  1

> <PUBCHEM_COORDINATE_TYPE>
1
3

$$$$
