310947109
  -OEChem-07211613022D

 29 32  0     0  0  0  0  0  0999 V2000
    0.2523   -1.5135    0.0000 Cl  0  0  0  0  0  0  0  0  0  0  0  0
   -3.7523    1.5766    0.0000 O   0  5  0  0  0  0  0  0  0  0  0  0
   -4.4460    0.3469    0.0000 O   0  0  0  0  0  0  0  0  0  0  0  0
    4.2725    0.5676    0.0000 O   0  0  0  0  0  0  0  0  0  0  0  0
    3.4370    2.0969    0.0000 O   0  0  0  0  0  0  0  0  0  0  0  0
   -0.8040   -0.7410    0.0000 N   0  0  0  0  0  0  0  0  0  0  0  0
   -0.8040    0.6149    0.0000 N   0  0  0  0  0  0  0  0  0  0  0  0
   -2.3176   -0.8986    0.0000 N   0  0  0  0  0  0  0  0  0  0  0  0
   -3.7523    0.7568    0.0000 N   0  3  0  0  0  0  0  0  0  0  0  0
    2.1758    1.3716    0.0000 N   0  0  0  0  0  0  0  0  0  0  0  0
   -0.3154   -0.0473    0.0000 C   0  0  0  0  0  0  0  0  0  0  0  0
   -1.6081   -0.4730    0.0000 C   0  0  0  0  0  0  0  0  0  0  0  0
   -1.5924    0.3469    0.0000 C   0  0  0  0  0  0  0  0  0  0  0  0
    0.5203   -0.0631    0.0000 C   0  0  0  0  0  0  0  0  0  0  0  0
   -2.3176    0.7568    0.0000 C   0  0  0  0  0  0  0  0  0  0  0  0
    0.9302   -0.7726    0.0000 C   0  0  0  0  0  0  0  0  0  0  0  0
   -3.0270    0.3626    0.0000 C   0  0  0  0  0  0  0  0  0  0  0  0
    0.9459    0.6464    0.0000 C   0  0  0  0  0  0  0  0  0  0  0  0
   -0.5518   -1.5135    0.0000 C   0  0  0  0  0  0  0  0  0  0  0  0
    1.7658    0.6464    0.0000 C   0  0  0  0  0  0  0  0  0  0  0  0
   -3.0270   -0.4888    0.0000 C   0  0  0  0  0  0  0  0  0  0  0  0
    1.7816   -0.7726    0.0000 C   0  0  0  0  0  0  0  0  0  0  0  0
    2.1758   -0.0631    0.0000 C   0  0  0  0  0  0  0  0  0  0  0  0
    3.0113    1.3558    0.0000 C   0  0  0  0  0  0  0  0  0  0  0  0
    3.4370    0.6622    0.0000 C   0  0  0  0  0  0  0  0  0  0  0  0
   -1.1351   -2.0969    0.0000 C   0  0  0  0  0  0  0  0  0  0  0  0
    3.1059   -0.1103    0.0000 C   0  0  0  0  0  0  0  0  0  0  0  0
    4.4460   -0.2523    0.0000 C   0  0  0  0  0  0  0  0  0  0  0  0
    3.7365   -0.6464    0.0000 C   0  0  0  0  0  0  0  0  0  0  0  0
  1 16  1  0  0  0  0
  2  9  1  0  0  0  0
  3  9  2  0  0  0  0
  4 25  1  0  0  0  0
  4 28  1  0  0  0  0
  5 24  2  0  0  0  0
  6 11  1  0  0  0  0
  6 12  1  0  0  0  0
  6 19  1  0  0  0  0
  7 11  2  0  0  0  0
  7 13  1  0  0  0  0
  8 12  1  0  0  0  0
  8 21  2  0  0  0  0
  9 17  1  0  0  0  0
 10 20  1  0  0  0  0
 10 24  1  0  0  0  0
 11 14  1  0  0  0  0
 12 13  2  0  0  0  0
 13 15  1  0  0  0  0
 14 16  2  0  0  0  0
 14 18  1  0  0  0  0
 15 17  2  0  0  0  0
 16 22  1  0  0  0  0
 17 21  1  0  0  0  0
 18 20  2  0  0  0  0
 19 26  1  0  0  0  0
 20 23  1  0  0  0  0
 22 23  2  0  0  0  0
 24 25  1  0  0  0  0
 25 27  2  0  0  0  0
 27 29  1  0  0  0  0
 28 29  2  0  0  0  0
M  CHG  2   2  -1   9   1
M  END
> <PUBCHEM_COMPOUND_ID_TYPE>
0

> <PUBCHEM_TOTAL_CHARGE>
0

> <PUBCHEM_SUBSTANCE_ID>
310947109

> <PUBCHEM_SUBSTANCE_VERSION>
1

> <PUBCHEM_EXT_DATASOURCE_NAME>
4488

> <PUBCHEM_EXT_DATASOURCE_REGID>
SCHEMBL16125263

> <PUBCHEM_SUBSTANCE_COMMENT>
InChI=1S/C19H14ClN5O4/c1-2-24-17(23-15-9-12(25(27)28)10-21-18(15)24)13-8-11(5-6-14(13)20)22-19(26)16-4-3-7-29-16/h3-10H,2H2,1H3,(H,22,26)
InChIKey=XMJLTBFIDBCEBG-UHFFFAOYSA-N

> <PUBCHEM_SUBSTANCE_SYNONYM>
SCHEMBL16125263

> <PUBCHEM_XREF_EXT_ID>
SCHEMBL16125263

> <PUBCHEM_EXT_DATASOURCE_URL>
https://www.surechembl.org/

> <PUBCHEM_EXT_SUBSTANCE_URL>
https://www.surechembl.org/chemical/SCHEMBL16125263

> <PUBCHEM_CID_ASSOCIATIONS>
117612959  1

> <PUBCHEM_COORDINATE_TYPE>
1
3

$$$$
