310945401
  -OEChem-07211613022D

 26 29  0     1  0  0  0  0  0999 V2000
   -4.1217   -1.6279    0.0000 Cl  0  0  0  0  0  0  0  0  0  0  0  0
   -3.0548    1.2676    0.0000 O   0  0  0  0  0  0  0  0  0  0  0  0
    4.1217    2.0159    0.0000 O   0  0  0  0  0  0  0  0  0  0  0  0
    1.2676    2.0574    0.0000 N   0  0  0  0  0  0  0  0  0  0  0  0
   -1.6556    1.2676    0.0000 N   0  0  0  0  0  0  0  0  0  0  0  0
   -0.9074    0.0069    0.0000 N   0  0  0  0  0  0  0  0  0  0  0  0
   -2.3899   -2.4869    0.0000 N   0  0  0  0  0  0  0  0  0  0  0  0
    0.5056    0.8936    0.0000 C   0  0  3  0  0  0  0  0  0  0  0  0
   -0.1594    2.0851    0.0000 C   0  0  3  0  0  0  0  0  0  0  0  0
   -0.1732    1.2676    0.0000 C   0  0  0  0  0  0  0  0  0  0  0  0
    0.5611    2.4869    0.0000 C   0  0  0  0  0  0  0  0  0  0  0  0
    1.2262    1.2400    0.0000 C   0  0  0  0  0  0  0  0  0  0  0  0
   -2.3760    0.0624    0.0000 C   0  0  0  0  0  0  0  0  0  0  0  0
   -1.6694   -0.3534    0.0000 C   0  0  0  0  0  0  0  0  0  0  0  0
   -0.8936    0.8521    0.0000 C   0  0  0  0  0  0  0  0  0  0  0  0
   -1.6694   -1.1846    0.0000 C   0  0  0  0  0  0  0  0  0  0  0  0
   -2.3345    0.8659    0.0000 C   0  0  0  0  0  0  0  0  0  0  0  0
   -2.3760   -1.6141    0.0000 C   0  0  0  0  0  0  0  0  0  0  0  0
   -3.0965   -1.1846    0.0000 C   0  0  0  0  0  0  0  0  0  0  0  0
   -3.0687   -0.3672    0.0000 C   0  0  0  0  0  0  0  0  0  0  0  0
   -0.9352   -1.6279    0.0000 C   0  0  0  0  0  0  0  0  0  0  0  0
    1.9743    2.4869    0.0000 C   0  0  0  0  0  0  0  0  0  0  0  0
   -0.2147   -0.3949    0.0000 C   0  0  0  0  0  0  0  0  0  0  0  0
   -0.2286   -1.2262    0.0000 C   0  0  0  0  0  0  0  0  0  0  0  0
    2.7086    2.0574    0.0000 C   0  0  0  0  0  0  0  0  0  0  0  0
    3.4290    2.4591    0.0000 C   0  0  0  0  0  0  0  0  0  0  0  0
  1 19  1  0  0  0  0
  2 17  2  0  0  0  0
  3 26  1  0  0  0  0
  4 11  1  0  0  0  0
  4 12  1  0  0  0  0
  4 22  1  0  0  0  0
  5 15  1  0  0  0  0
  5 17  1  0  0  0  0
  6 14  1  0  0  0  0
  6 23  2  0  0  0  0
  7 18  1  0  0  0  0
  8  9  1  0  0  0  0
  8 10  1  0  0  0  0
  8 12  1  0  0  0  0
  9 10  1  0  0  0  0
  9 11  1  0  0  0  0
 10 15  1  6  0  0  0
 13 14  1  0  0  0  0
 13 17  1  0  0  0  0
 13 20  2  0  0  0  0
 14 16  2  0  0  0  0
 16 18  1  0  0  0  0
 16 21  1  0  0  0  0
 18 19  2  0  0  0  0
 19 20  1  0  0  0  0
 21 24  2  0  0  0  0
 22 25  1  0  0  0  0
 23 24  1  0  0  0  0
 25 26  1  0  0  0  0
M  END
> <PUBCHEM_COMPOUND_ID_TYPE>
0

> <PUBCHEM_TOTAL_CHARGE>
0

> <PUBCHEM_SUBSTANCE_ID>
310945401

> <PUBCHEM_SUBSTANCE_VERSION>
1

> <PUBCHEM_EXT_DATASOURCE_NAME>
4488

> <PUBCHEM_EXT_DATASOURCE_REGID>
SCHEMBL16123499

> <PUBCHEM_SUBSTANCE_COMMENT>
InChI=1S/C19H23ClN4O2/c20-16-7-12(18-11(17(16)21)3-1-4-22-18)19(26)23-8-13-14-9-24(5-2-6-25)10-15(13)14/h1,3-4,7,13-15,25H,2,5-6,8-10,21H2,(H,23,26)
InChIKey=QOYSZELJXIKXEG-UHFFFAOYSA-N

> <PUBCHEM_SUBSTANCE_SYNONYM>
SCHEMBL16123499

> <PUBCHEM_XREF_EXT_ID>
SCHEMBL16123499

> <PUBCHEM_EXT_DATASOURCE_URL>
https://www.surechembl.org/

> <PUBCHEM_EXT_SUBSTANCE_URL>
https://www.surechembl.org/chemical/SCHEMBL16123499

> <PUBCHEM_CID_ASSOCIATIONS>
86273551  1

> <PUBCHEM_COORDINATE_TYPE>
1
3

> <PUBCHEM_BONDANNOTATIONS>
10  15  6

$$$$
