310949745
  -OEChem-07211613022D

 23 24  0     0  0  0  0  0  0999 V2000
   -4.1211    0.7228    0.0000 Cl  0  0  0  0  0  0  0  0  0  0  0  0
   -0.9188   -1.4255    0.0000 O   0  0  0  0  0  0  0  0  0  0  0  0
   -2.5942    1.4255    0.0000 O   0  0  0  0  0  0  0  0  0  0  0  0
   -1.3377    0.7228    0.0000 O   0  0  0  0  0  0  0  0  0  0  0  0
    4.1211    1.4255    0.0000 O   0  0  0  0  0  0  0  0  0  0  0  0
   -0.9188   -0.0068    0.0000 N   0  0  0  0  0  0  0  0  0  0  0  0
   -2.6213    0.0068    0.0000 C   0  0  0  0  0  0  0  0  0  0  0  0
   -2.2024   -0.6959    0.0000 C   0  0  0  0  0  0  0  0  0  0  0  0
   -1.3512   -0.7094    0.0000 C   0  0  0  0  0  0  0  0  0  0  0  0
   -3.4454    0.0068    0.0000 C   0  0  0  0  0  0  0  0  0  0  0  0
   -2.1889    0.7094    0.0000 C   0  0  0  0  0  0  0  0  0  0  0  0
   -2.6077   -1.4119    0.0000 C   0  0  0  0  0  0  0  0  0  0  0  0
   -3.8373   -0.7364    0.0000 C   0  0  0  0  0  0  0  0  0  0  0  0
   -0.0810    0.0068    0.0000 C   0  0  0  0  0  0  0  0  0  0  0  0
   -3.4454   -1.4119    0.0000 C   0  0  0  0  0  0  0  0  0  0  0  0
    0.3378   -0.7094    0.0000 C   0  0  0  0  0  0  0  0  0  0  0  0
    0.3513    0.7094    0.0000 C   0  0  0  0  0  0  0  0  0  0  0  0
    1.5944    0.0068    0.0000 C   0  0  0  0  0  0  0  0  0  0  0  0
    1.1755   -0.7094    0.0000 C   0  0  0  0  0  0  0  0  0  0  0  0
    1.1755    0.7094    0.0000 C   0  0  0  0  0  0  0  0  0  0  0  0
    2.4456    0.0068    0.0000 C   0  0  0  0  0  0  0  0  0  0  0  0
    2.8644    0.7094    0.0000 C   0  0  0  0  0  0  0  0  0  0  0  0
    3.7021    0.7094    0.0000 C   0  0  0  0  0  0  0  0  0  0  0  0
  1 10  1  0  0  0  0
  2  9  2  0  0  0  0
  3 11  2  0  0  0  0
  4 11  1  0  0  0  0
  5 23  1  0  0  0  0
  6  9  1  0  0  0  0
  6 14  1  0  0  0  0
  7  8  1  0  0  0  0
  7 10  2  0  0  0  0
  7 11  1  0  0  0  0
  8  9  1  0  0  0  0
  8 12  2  0  0  0  0
 10 13  1  0  0  0  0
 12 15  1  0  0  0  0
 13 15  2  0  0  0  0
 14 16  2  0  0  0  0
 14 17  1  0  0  0  0
 16 19  1  0  0  0  0
 17 20  2  0  0  0  0
 18 19  2  0  0  0  0
 18 20  1  0  0  0  0
 18 21  1  0  0  0  0
 21 22  1  0  0  0  0
 22 23  1  0  0  0  0
M  END
> <PUBCHEM_COMPOUND_ID_TYPE>
0

> <PUBCHEM_TOTAL_CHARGE>
0

> <PUBCHEM_SUBSTANCE_ID>
310949745

> <PUBCHEM_SUBSTANCE_VERSION>
1

> <PUBCHEM_EXT_DATASOURCE_NAME>
4488

> <PUBCHEM_EXT_DATASOURCE_REGID>
SCHEMBL16127943

> <PUBCHEM_SUBSTANCE_COMMENT>
InChI=1S/C17H16ClNO4/c18-14-5-1-4-13(15(14)17(22)23)16(21)19-12-8-6-11(7-9-12)3-2-10-20/h1,4-9,20H,2-3,10H2,(H,19,21)(H,22,23)
InChIKey=HIVVVNXVFUTJGK-UHFFFAOYSA-N

> <PUBCHEM_SUBSTANCE_SYNONYM>
SCHEMBL16127943

> <PUBCHEM_XREF_EXT_ID>
SCHEMBL16127943

> <PUBCHEM_EXT_DATASOURCE_URL>
https://www.surechembl.org/

> <PUBCHEM_EXT_SUBSTANCE_URL>
https://www.surechembl.org/chemical/SCHEMBL16127943

> <PUBCHEM_CID_ASSOCIATIONS>
85471797  1

> <PUBCHEM_COORDINATE_TYPE>
1
3

$$$$
