310942412
  -OEChem-07211613022D

 33 34  0     0  0  0  0  0  0999 V2000
    7.2169   -0.2491    0.0000 S   0  0  0  0  0  0  0  0  0  0  0  0
    3.5431    0.8344    0.0000 O   0  0  0  0  0  0  0  0  0  0  0  0
    1.3886   -1.2454    0.0000 O   0  0  0  0  0  0  0  0  0  0  0  0
   -2.2105    0.0000    0.0000 O   0  0  0  0  0  0  0  0  0  0  0  0
   -4.3649   -0.4110    0.0000 O   0  0  0  0  0  0  0  0  0  0  0  0
   -6.5194    0.0000    0.0000 O   0  0  0  0  0  0  0  0  0  0  0  0
    7.2293    1.0959    0.0000 N   0  0  0  0  0  0  0  0  0  0  0  0
    4.2902   -0.4110    0.0000 N   0  0  0  0  0  0  0  0  0  0  0  0
    9.3837    0.4235    0.0000 N   0  0  0  0  0  0  0  0  0  0  0  0
    0.6787    0.0000    0.0000 N   0  0  0  0  0  0  0  0  0  0  0  0
   -9.3837    0.0000    0.0000 N   0  0  0  0  0  0  0  0  0  0  0  0
    6.4197    0.0125    0.0000 C   0  0  0  0  0  0  0  0  0  0  0  0
    6.4447    0.8468    0.0000 C   0  0  0  0  0  0  0  0  0  0  0  0
    7.7025    0.4235    0.0000 C   0  0  0  0  0  0  0  0  0  0  0  0
    5.7099   -0.3985    0.0000 C   0  0  0  0  0  0  0  0  0  0  0  0
    4.9877    0.0125    0.0000 C   0  0  0  0  0  0  0  0  0  0  0  0
    5.7224    1.2454    0.0000 C   0  0  0  0  0  0  0  0  0  0  0  0
    5.0126    0.8344    0.0000 C   0  0  0  0  0  0  0  0  0  0  0  0
    8.5370    0.4235    0.0000 C   0  0  0  0  0  0  0  0  0  0  0  0
    3.5431   -0.0125    0.0000 C   0  0  0  0  0  0  0  0  0  0  0  0
    2.8457   -0.4110    0.0000 C   0  0  0  0  0  0  0  0  0  0  0  0
    2.1108    0.0000    0.0000 C   0  0  0  0  0  0  0  0  0  0  0  0
    1.4010   -0.3861    0.0000 C   0  0  0  0  0  0  0  0  0  0  0  0
   -0.0311   -0.4110    0.0000 C   0  0  0  0  0  0  0  0  0  0  0  0
   -0.7658    0.0000    0.0000 C   0  0  0  0  0  0  0  0  0  0  0  0
   -1.4633   -0.4110    0.0000 C   0  0  0  0  0  0  0  0  0  0  0  0
   -2.9079   -0.4110    0.0000 C   0  0  0  0  0  0  0  0  0  0  0  0
   -3.6427    0.0000    0.0000 C   0  0  0  0  0  0  0  0  0  0  0  0
   -5.0748    0.0000    0.0000 C   0  0  0  0  0  0  0  0  0  0  0  0
   -5.7847   -0.4110    0.0000 C   0  0  0  0  0  0  0  0  0  0  0  0
   -7.2169   -0.4110    0.0000 C   0  0  0  0  0  0  0  0  0  0  0  0
   -7.9516    0.0000    0.0000 C   0  0  0  0  0  0  0  0  0  0  0  0
   -8.6614   -0.4110    0.0000 C   0  0  0  0  0  0  0  0  0  0  0  0
  1 12  1  0  0  0  0
  1 14  1  0  0  0  0
  2 20  2  0  0  0  0
  3 23  2  0  0  0  0
  4 26  1  0  0  0  0
  4 27  1  0  0  0  0
  5 28  1  0  0  0  0
  5 29  1  0  0  0  0
  6 30  1  0  0  0  0
  6 31  1  0  0  0  0
  7 13  1  0  0  0  0
  7 14  2  0  0  0  0
  8 16  1  0  0  0  0
  8 20  1  0  0  0  0
  9 19  3  0  0  0  0
 10 23  1  0  0  0  0
 10 24  1  0  0  0  0
 11 33  1  0  0  0  0
 12 13  1  0  0  0  0
 12 15  2  0  0  0  0
 13 17  2  0  0  0  0
 14 19  1  0  0  0  0
 15 16  1  0  0  0  0
 16 18  2  0  0  0  0
 17 18  1  0  0  0  0
 20 21  1  0  0  0  0
 21 22  1  0  0  0  0
 22 23  1  0  0  0  0
 24 25  1  0  0  0  0
 25 26  1  0  0  0  0
 27 28  1  0  0  0  0
 29 30  1  0  0  0  0
 31 32  1  0  0  0  0
 32 33  1  0  0  0  0
M  END
> <PUBCHEM_COMPOUND_ID_TYPE>
0

> <PUBCHEM_TOTAL_CHARGE>
0

> <PUBCHEM_SUBSTANCE_ID>
310942412

> <PUBCHEM_SUBSTANCE_VERSION>
1

> <PUBCHEM_EXT_DATASOURCE_NAME>
4488

> <PUBCHEM_EXT_DATASOURCE_REGID>
SCHEMBL16120448

> <PUBCHEM_SUBSTANCE_COMMENT>
InChI=1S/C22H31N5O5S/c23-7-1-9-30-11-13-32-14-12-31-10-2-8-25-20(28)5-6-21(29)26-17-3-4-18-19(15-17)33-22(16-24)27-18/h3-4,15H,1-2,5-14,23H2,(H,25,28)(H,26,29)
InChIKey=QAVPZOKWXNCQNX-UHFFFAOYSA-N

> <PUBCHEM_SUBSTANCE_SYNONYM>
SCHEMBL16120448

> <PUBCHEM_XREF_EXT_ID>
SCHEMBL16120448

> <PUBCHEM_EXT_DATASOURCE_URL>
https://www.surechembl.org/

> <PUBCHEM_EXT_SUBSTANCE_URL>
https://www.surechembl.org/chemical/SCHEMBL16120448

> <PUBCHEM_CID_ASSOCIATIONS>
86726268  1

> <PUBCHEM_COORDINATE_TYPE>
1
3

$$$$
