310931437
  -OEChem-07211613022D

 48 52  0     1  0  0  0  0  0999 V2000
    4.1248   -7.8567    0.0000 Cl  0  0  0  0  0  0  0  0  0  0  0  0
    7.4246   -3.5748    0.0000 S   0  0  0  0  0  0  0  0  0  0  0  0
    9.4674   -4.3998    0.0000 S   0  0  0  0  0  0  0  0  0  0  0  0
    6.5996   -2.1606    0.0000 F   0  0  0  0  0  0  0  0  0  0  0  0
    4.9890   -4.9890    0.0000 F   0  0  0  0  0  0  0  0  0  0  0  0
    0.0000   -2.1606    0.0000 F   0  0  0  0  0  0  0  0  0  0  0  0
    0.0000   -3.6141    0.0000 F   0  0  0  0  0  0  0  0  0  0  0  0
    0.8249   -2.1606    0.0000 F   0  0  0  0  0  0  0  0  0  0  0  0
    7.4246   -4.4783    0.0000 O   0  0  0  0  0  0  0  0  0  0  0  0
    7.4246   -2.7891    0.0000 O   0  0  0  0  0  0  0  0  0  0  0  0
    4.1248   -3.5748    0.0000 O   0  0  0  0  0  0  0  0  0  0  0  0
    9.4674   -1.4535    0.0000 O   0  0  0  0  0  0  0  0  0  0  0  0
    6.9925    0.0000    0.0000 O   0  0  0  0  0  0  0  0  0  0  0  0
    8.2496   -3.5748    0.0000 N   0  0  0  0  0  0  0  0  0  0  0  0
    8.3281   -5.0283    0.0000 N   0  0  0  0  0  0  0  0  0  0  0  0
    9.6638   -5.1855    0.0000 N   0  0  0  0  0  0  0  0  0  0  0  0
    1.6499   -3.5748    0.0000 N   0  0  3  0  0  0  0  0  0  0  0  0
    6.5996   -3.5748    0.0000 C   0  0  0  0  0  0  0  0  0  0  0  0
    6.1676   -2.8677    0.0000 C   0  0  0  0  0  0  0  0  0  0  0  0
    8.6424   -4.2819    0.0000 C   0  0  0  0  0  0  0  0  0  0  0  0
    6.1676   -4.2819    0.0000 C   0  0  0  0  0  0  0  0  0  0  0  0
    8.6424   -2.8677    0.0000 C   0  0  0  0  0  0  0  0  0  0  0  0
    5.3819   -4.2819    0.0000 C   0  0  0  0  0  0  0  0  0  0  0  0
    4.9498   -3.5748    0.0000 C   0  0  0  0  0  0  0  0  0  0  0  0
    5.3819   -2.8677    0.0000 C   0  0  0  0  0  0  0  0  0  0  0  0
    8.2496   -2.1606    0.0000 C   0  0  0  0  0  0  0  0  0  0  0  0
    8.6424   -1.4535    0.0000 C   0  0  0  0  0  0  0  0  0  0  0  0
    2.8677   -4.2819    0.0000 C   0  0  3  0  0  0  0  0  0  0  0  0
    2.4749   -4.9890    0.0000 C   0  0  3  0  0  0  0  0  0  0  0  0
    7.4246   -2.1606    0.0000 C   0  0  0  0  0  0  0  0  0  0  0  0
    3.6927   -4.2819    0.0000 C   0  0  0  0  0  0  0  0  0  0  0  0
    8.9174   -5.5783    0.0000 C   0  0  0  0  0  0  0  0  0  0  0  0
    8.2496   -0.7071    0.0000 C   0  0  0  0  0  0  0  0  0  0  0  0
    2.8677   -5.7354    0.0000 C   0  0  0  0  0  0  0  0  0  0  0  0
    7.4246   -0.7071    0.0000 C   0  0  0  0  0  0  0  0  0  0  0  0
    2.4749   -3.5748    0.0000 C   0  0  0  0  0  0  0  0  0  0  0  0
    6.9925   -1.4535    0.0000 C   0  0  0  0  0  0  0  0  0  0  0  0
    1.6499   -4.9890    0.0000 C   0  0  0  0  0  0  0  0  0  0  0  0
    1.2571   -4.2819    0.0000 C   0  0  0  0  0  0  0  0  0  0  0  0
    3.6927   -5.7354    0.0000 C   0  0  0  0  0  0  0  0  0  0  0  0
    2.4749   -6.4425    0.0000 C   0  0  0  0  0  0  0  0  0  0  0  0
    1.2571   -2.8677    0.0000 C   0  0  0  0  0  0  0  0  0  0  0  0
    0.3929   -2.8677    0.0000 C   0  0  0  0  0  0  0  0  0  0  0  0
    4.1248   -6.4425    0.0000 C   0  0  0  0  0  0  0  0  0  0  0  0
    2.8677   -7.1496    0.0000 C   0  0  0  0  0  0  0  0  0  0  0  0
    3.6927   -7.1496    0.0000 C   0  0  0  0  0  0  0  0  0  0  0  0
    9.8995   -0.7071    0.0000 C   0  0  0  0  0  0  0  0  0  0  0  0
    6.1676    0.0000    0.0000 C   0  0  0  0  0  0  0  0  0  0  0  0
  1 46  1  0  0  0  0
  2  9  2  0  0  0  0
  2 10  2  0  0  0  0
  2 14  1  0  0  0  0
  2 18  1  0  0  0  0
  3 16  1  0  0  0  0
  3 20  1  0  0  0  0
  4 19  1  0  0  0  0
  5 23  1  0  0  0  0
  6 43  1  0  0  0  0
  7 43  1  0  0  0  0
  8 43  1  0  0  0  0
 11 24  1  0  0  0  0
 11 31  1  0  0  0  0
 12 27  1  0  0  0  0
 12 47  1  0  0  0  0
 13 35  1  0  0  0  0
 13 48  1  0  0  0  0
 14 20  1  0  0  0  0
 14 22  1  0  0  0  0
 15 20  2  0  0  0  0
 15 32  1  0  0  0  0
 16 32  2  0  0  0  0
 17 36  1  0  0  0  0
 17 39  1  0  0  0  0
 17 42  1  0  0  0  0
 18 19  1  0  0  0  0
 18 21  2  0  0  0  0
 19 25  2  0  0  0  0
 21 23  1  0  0  0  0
 22 26  1  0  0  0  0
 23 24  2  0  0  0  0
 24 25  1  0  0  0  0
 26 27  2  0  0  0  0
 26 30  1  0  0  0  0
 27 33  1  0  0  0  0
 28 29  1  0  0  0  0
 28 31  1  6  0  0  0
 28 36  1  0  0  0  0
 29 34  1  0  0  0  0
 29 38  1  1  0  0  0
 30 37  2  0  0  0  0
 33 35  2  0  0  0  0
 34 40  2  0  0  0  0
 34 41  1  0  0  0  0
 35 37  1  0  0  0  0
 38 39  1  0  0  0  0
 40 44  1  0  0  0  0
 41 45  2  0  0  0  0
 42 43  1  0  0  0  0
 44 46  2  0  0  0  0
 45 46  1  0  0  0  0
M  END
> <PUBCHEM_COMPOUND_ID_TYPE>
0

> <PUBCHEM_TOTAL_CHARGE>
0

> <PUBCHEM_SUBSTANCE_ID>
310931437

> <PUBCHEM_SUBSTANCE_VERSION>
1

> <PUBCHEM_EXT_DATASOURCE_NAME>
4488

> <PUBCHEM_EXT_DATASOURCE_REGID>
SCHEMBL16108762

> <PUBCHEM_SUBSTANCE_COMMENT>
InChI=1S/C31H30ClF5N4O5S2/c1-44-23-8-5-20(27(11-23)45-2)15-41(30-38-18-39-47-30)48(42,43)29-13-25(33)28(12-26(29)34)46-16-21-14-40(17-31(35,36)37)10-9-24(21)19-3-6-22(32)7-4-19/h3-8,11-13,18,21,24H,9-10,14-17H2,1-2H3/t21-,24-/m1/s1
InChIKey=SIGOYMOPJDHEFU-ZJSXRUAMSA-N

> <PUBCHEM_SUBSTANCE_SYNONYM>
SCHEMBL16108762

> <PUBCHEM_XREF_EXT_ID>
SCHEMBL16108762

> <PUBCHEM_EXT_DATASOURCE_URL>
https://www.surechembl.org/

> <PUBCHEM_EXT_SUBSTANCE_URL>
https://www.surechembl.org/chemical/SCHEMBL16108762

> <PUBCHEM_CID_ASSOCIATIONS>
117600214  1

> <PUBCHEM_COORDINATE_TYPE>
1
3

> <PUBCHEM_BONDANNOTATIONS>
28  31  6
29  38  5

$$$$
