310935771
  -OEChem-07211613022D

 15 16  0     0  0  0  0  0  0999 V2000
    2.9049   -2.1061    0.0000 F   0  0  0  0  0  0  0  0  0  0  0  0
    2.4837   -2.9049    0.0000 O   0  0  0  0  0  0  0  0  0  0  0  0
    2.4837   -1.4815    0.0000 O   0  0  0  0  0  0  0  0  0  0  0  0
    1.2491   -2.1932    0.0000 C   0  0  0  0  0  0  0  0  0  0  0  0
    1.6268   -1.4670    0.0000 C   0  0  0  0  0  0  0  0  0  0  0  0
    2.0770   -2.1932    0.0000 C   0  0  0  0  0  0  0  0  0  0  0  0
    0.7844   -2.8614    0.0000 C   0  0  0  0  0  0  0  0  0  0  0  0
    0.7844   -1.5251    0.0000 C   0  0  0  0  0  0  0  0  0  0  0  0
    2.6290   -1.5832    0.0000 C   0  0  0  0  0  0  0  0  0  0  0  0
    1.1910   -0.7698    0.0000 C   0  0  0  0  0  0  0  0  0  0  0  0
    0.0000   -2.6000    0.0000 C   0  0  0  0  0  0  0  0  0  0  0  0
    0.0000   -1.7866    0.0000 C   0  0  0  0  0  0  0  0  0  0  0  0
    2.8323   -0.6827    0.0000 C   0  0  0  0  0  0  0  0  0  0  0  0
    1.5541   -0.0290    0.0000 C   0  0  0  0  0  0  0  0  0  0  0  0
    2.3966    0.0000    0.0000 C   0  0  0  0  0  0  0  0  0  0  0  0
  1  9  1  0  0  0  0
  2  6  2  0  0  0  0
  3  6  1  0  0  0  0
  4  5  1  0  0  0  0
  4  6  1  0  0  0  0
  4  7  1  0  0  0  0
  4  8  1  0  0  0  0
  5  9  1  0  0  0  0
  5 10  2  0  0  0  0
  7 11  1  0  0  0  0
  8 12  1  0  0  0  0
  9 13  2  0  0  0  0
 10 14  1  0  0  0  0
 11 12  2  0  0  0  0
 13 15  1  0  0  0  0
 14 15  2  0  0  0  0
M  END
> <PUBCHEM_COMPOUND_ID_TYPE>
0

> <PUBCHEM_TOTAL_CHARGE>
0

> <PUBCHEM_SUBSTANCE_ID>
310935771

> <PUBCHEM_SUBSTANCE_VERSION>
1

> <PUBCHEM_EXT_DATASOURCE_NAME>
4488

> <PUBCHEM_EXT_DATASOURCE_REGID>
SCHEMBL16113355

> <PUBCHEM_SUBSTANCE_COMMENT>
InChI=1S/C12H11FO2/c13-10-6-2-1-5-9(10)12(11(14)15)7-3-4-8-12/h1-6H,7-8H2,(H,14,15)
InChIKey=ASGRTHFLEYUASR-UHFFFAOYSA-N

> <PUBCHEM_SUBSTANCE_SYNONYM>
SCHEMBL16113355

> <PUBCHEM_XREF_EXT_ID>
SCHEMBL16113355

> <PUBCHEM_EXT_DATASOURCE_URL>
https://www.surechembl.org/

> <PUBCHEM_EXT_SUBSTANCE_URL>
https://www.surechembl.org/chemical/SCHEMBL16113355

> <PUBCHEM_CID_ASSOCIATIONS>
65353656  1

> <PUBCHEM_COORDINATE_TYPE>
1
3

$$$$
