310943315
  -OEChem-07211613022D

 34 37  0     0  0  0  0  0  0999 V2000
   -3.6219   -0.8380    0.0000 O   0  0  0  0  0  0  0  0  0  0  0  0
   -5.0502    1.6251    0.0000 O   0  0  0  0  0  0  0  0  0  0  0  0
    0.6632   -0.8380    0.0000 O   0  0  0  0  0  0  0  0  0  0  0  0
   -2.1936   -0.8235    0.0000 N   0  0  0  0  0  0  0  0  0  0  0  0
   -3.6219    0.8089    0.0000 N   0  0  0  0  0  0  0  0  0  0  0  0
   -0.0510    2.0478    0.0000 N   0  0  0  0  0  0  0  0  0  0  0  0
    1.3773    0.4008    0.0000 N   0  0  0  0  0  0  0  0  0  0  0  0
    3.5198   -1.6543    0.0000 N   0  0  0  0  0  0  0  0  0  0  0  0
   -1.4648    0.4008    0.0000 C   0  0  0  0  0  0  0  0  0  0  0  0
   -2.9077    0.4154    0.0000 C   0  0  0  0  0  0  0  0  0  0  0  0
   -0.7797    0.8235    0.0000 C   0  0  0  0  0  0  0  0  0  0  0  0
   -2.9077   -0.4008    0.0000 C   0  0  0  0  0  0  0  0  0  0  0  0
   -2.2081    0.8089    0.0000 C   0  0  0  0  0  0  0  0  0  0  0  0
   -1.4794   -0.4154    0.0000 C   0  0  0  0  0  0  0  0  0  0  0  0
   -0.7507    1.6397    0.0000 C   0  0  0  0  0  0  0  0  0  0  0  0
   -0.0219    0.4154    0.0000 C   0  0  0  0  0  0  0  0  0  0  0  0
    0.6632    0.8235    0.0000 C   0  0  0  0  0  0  0  0  0  0  0  0
    2.1061   -0.8235    0.0000 C   0  0  0  0  0  0  0  0  0  0  0  0
    0.6778    1.6251    0.0000 C   0  0  0  0  0  0  0  0  0  0  0  0
    1.3919   -0.4008    0.0000 C   0  0  0  0  0  0  0  0  0  0  0  0
    3.5344   -0.8235    0.0000 C   0  0  0  0  0  0  0  0  0  0  0  0
   -3.6219    1.6251    0.0000 C   0  0  0  0  0  0  0  0  0  0  0  0
   -4.3215    0.4154    0.0000 C   0  0  0  0  0  0  0  0  0  0  0  0
    4.2632   -0.4154    0.0000 C   0  0  0  0  0  0  0  0  0  0  0  0
    2.8057   -0.4154    0.0000 C   0  0  0  0  0  0  0  0  0  0  0  0
   -2.1936   -1.6543    0.0000 C   0  0  0  0  0  0  0  0  0  0  0  0
   -1.4939    2.0332    0.0000 C   0  0  0  0  0  0  0  0  0  0  0  0
    2.1061   -1.6397    0.0000 C   0  0  0  0  0  0  0  0  0  0  0  0
   -4.3361    2.0478    0.0000 C   0  0  0  0  0  0  0  0  0  0  0  0
   -5.0502    0.8089    0.0000 C   0  0  0  0  0  0  0  0  0  0  0  0
    2.8349   -2.0478    0.0000 C   0  0  0  0  0  0  0  0  0  0  0  0
    4.2340    0.4154    0.0000 C   0  0  0  0  0  0  0  0  0  0  0  0
    5.0502   -0.2113    0.0000 C   0  0  0  0  0  0  0  0  0  0  0  0
    4.9628   -0.8526    0.0000 C   0  0  0  0  0  0  0  0  0  0  0  0
  1 12  2  0  0  0  0
  2 29  1  0  0  0  0
  2 30  1  0  0  0  0
  3 20  2  0  0  0  0
  4 12  1  0  0  0  0
  4 14  1  0  0  0  0
  4 26  1  0  0  0  0
  5 10  1  0  0  0  0
  5 22  1  0  0  0  0
  5 23  1  0  0  0  0
  6 15  1  0  0  0  0
  6 19  2  0  0  0  0
  7 17  1  0  0  0  0
  7 20  1  0  0  0  0
  8 21  1  0  0  0  0
  8 31  2  0  0  0  0
  9 11  1  0  0  0  0
  9 13  1  0  0  0  0
  9 14  2  0  0  0  0
 10 12  1  0  0  0  0
 10 13  2  0  0  0  0
 11 15  2  0  0  0  0
 11 16  1  0  0  0  0
 15 27  1  0  0  0  0
 16 17  2  0  0  0  0
 17 19  1  0  0  0  0
 18 20  1  0  0  0  0
 18 25  1  0  0  0  0
 18 28  2  0  0  0  0
 21 24  1  0  0  0  0
 21 25  2  0  0  0  0
 22 29  1  0  0  0  0
 23 30  1  0  0  0  0
 24 32  1  0  0  0  0
 24 33  1  0  0  0  0
 24 34  1  0  0  0  0
 28 31  1  0  0  0  0
M  END
> <PUBCHEM_COMPOUND_ID_TYPE>
0

> <PUBCHEM_TOTAL_CHARGE>
0

> <PUBCHEM_SUBSTANCE_ID>
310943315

> <PUBCHEM_SUBSTANCE_VERSION>
1

> <PUBCHEM_EXT_DATASOURCE_NAME>
4488

> <PUBCHEM_EXT_DATASOURCE_REGID>
SCHEMBL16121377

> <PUBCHEM_SUBSTANCE_COMMENT>
InChI=1S/C26H31N5O3/c1-17-21(19-12-22(25(33)30(5)16-19)31-8-10-34-11-9-31)14-20(15-28-17)29-24(32)18-6-7-27-23(13-18)26(2,3)4/h6-7,12-16H,8-11H2,1-5H3,(H,29,32)
InChIKey=IBCHCVVUXNIOQD-UHFFFAOYSA-N

> <PUBCHEM_SUBSTANCE_SYNONYM>
SCHEMBL16121377

> <PUBCHEM_XREF_EXT_ID>
SCHEMBL16121377

> <PUBCHEM_EXT_DATASOURCE_URL>
https://www.surechembl.org/

> <PUBCHEM_EXT_SUBSTANCE_URL>
https://www.surechembl.org/chemical/SCHEMBL16121377

> <PUBCHEM_CID_ASSOCIATIONS>
117609740  1

> <PUBCHEM_COORDINATE_TYPE>
1
3

$$$$
