310944573
  -OEChem-07211613022D

 23 25  0     0  0  0  0  0  0999 V2000
   -0.3660    2.4547    0.0000 F   0  0  0  0  0  0  0  0  0  0  0  0
    1.7921    2.0130    0.0000 N   0  0  0  0  0  0  0  0  0  0  0  0
   -2.5368    1.9751    0.0000 N   0  0  0  0  0  0  0  0  0  0  0  0
   -0.3660   -0.0063    0.0000 C   0  0  0  0  0  0  0  0  0  0  0  0
   -0.3786   -0.8267    0.0000 C   0  0  0  0  0  0  0  0  0  0  0  0
    0.3660   -1.2305    0.0000 C   0  0  0  0  0  0  0  0  0  0  0  0
    0.3660    1.2305    0.0000 C   0  0  0  0  0  0  0  0  0  0  0  0
   -1.0980    1.2432    0.0000 C   0  0  0  0  0  0  0  0  0  0  0  0
   -0.3786    1.6596    0.0000 C   0  0  0  0  0  0  0  0  0  0  0  0
    0.3408    0.4101    0.0000 C   0  0  0  0  0  0  0  0  0  0  0  0
   -1.0854    0.4101    0.0000 C   0  0  0  0  0  0  0  0  0  0  0  0
    1.0854   -0.8140    0.0000 C   0  0  0  0  0  0  0  0  0  0  0  0
   -1.0854   -1.2305    0.0000 C   0  0  0  0  0  0  0  0  0  0  0  0
    0.3534   -2.0382    0.0000 C   0  0  0  0  0  0  0  0  0  0  0  0
    1.0854    1.6344    0.0000 C   0  0  0  0  0  0  0  0  0  0  0  0
   -1.8300    1.6218    0.0000 C   0  0  0  0  0  0  0  0  0  0  0  0
   -1.0727   -2.0635    0.0000 C   0  0  0  0  0  0  0  0  0  0  0  0
   -0.3660   -2.4547    0.0000 C   0  0  0  0  0  0  0  0  0  0  0  0
    1.8048   -1.2179    0.0000 C   0  0  0  0  0  0  0  0  0  0  0  0
    1.1106   -0.0063    0.0000 C   0  0  0  0  0  0  0  0  0  0  0  0
    2.5368   -0.8140    0.0000 C   0  0  0  0  0  0  0  0  0  0  0  0
    1.7921    0.3975    0.0000 C   0  0  0  0  0  0  0  0  0  0  0  0
    2.5242   -0.0063    0.0000 C   0  0  0  0  0  0  0  0  0  0  0  0
  1  9  1  0  0  0  0
  2 15  3  0  0  0  0
  3 16  3  0  0  0  0
  4  5  1  0  0  0  0
  4 10  2  0  0  0  0
  4 11  1  0  0  0  0
  5  6  1  0  0  0  0
  5 13  2  0  0  0  0
  6 12  1  0  0  0  0
  6 14  2  0  0  0  0
  7  9  2  0  0  0  0
  7 10  1  0  0  0  0
  7 15  1  0  0  0  0
  8  9  1  0  0  0  0
  8 11  2  0  0  0  0
  8 16  1  0  0  0  0
 12 19  2  0  0  0  0
 12 20  1  0  0  0  0
 13 17  1  0  0  0  0
 14 18  1  0  0  0  0
 17 18  2  0  0  0  0
 19 21  1  0  0  0  0
 20 22  2  0  0  0  0
 21 23  2  0  0  0  0
 22 23  1  0  0  0  0
M  END
> <PUBCHEM_COMPOUND_ID_TYPE>
0

> <PUBCHEM_TOTAL_CHARGE>
0

> <PUBCHEM_SUBSTANCE_ID>
310944573

> <PUBCHEM_SUBSTANCE_VERSION>
1

> <PUBCHEM_EXT_DATASOURCE_NAME>
4488

> <PUBCHEM_EXT_DATASOURCE_REGID>
SCHEMBL16122651

> <PUBCHEM_SUBSTANCE_COMMENT>
InChI=1S/C20H11FN2/c21-20-16(12-22)10-15(11-17(20)13-23)19-9-5-4-8-18(19)14-6-2-1-3-7-14/h1-11H
InChIKey=YZMWSEBFMYOTLX-UHFFFAOYSA-N

> <PUBCHEM_SUBSTANCE_SYNONYM>
SCHEMBL16122651

> <PUBCHEM_XREF_EXT_ID>
SCHEMBL16122651

> <PUBCHEM_EXT_DATASOURCE_URL>
https://www.surechembl.org/

> <PUBCHEM_EXT_SUBSTANCE_URL>
https://www.surechembl.org/chemical/SCHEMBL16122651

> <PUBCHEM_CID_ASSOCIATIONS>
117610805  1

> <PUBCHEM_COORDINATE_TYPE>
1
3

$$$$
