310948761
  -OEChem-07211613022D

 35 39  0     1  0  0  0  0  0999 V2000
   -2.9227    1.8313    0.0000 O   0  0  0  0  0  0  0  0  0  0  0  0
    0.2405   -1.5353    0.0000 O   0  0  0  0  0  0  0  0  0  0  0  0
   -0.1480    1.6648    0.0000 N   0  0  0  0  0  0  0  0  0  0  0  0
   -0.4809    0.9064    0.0000 N   0  0  0  0  0  0  0  0  0  0  0  0
   -1.8683    0.4070    0.0000 N   0  0  0  0  0  0  0  0  0  0  0  0
   -2.1828    3.0707    0.0000 N   0  0  0  0  0  0  0  0  0  0  0  0
    0.7029   -0.3699    0.0000 N   0  0  0  0  0  0  0  0  0  0  0  0
   -0.0740   -2.9412    0.0000 N   0  0  0  0  0  0  0  0  0  0  0  0
    1.5539   -3.2927    0.0000 N   0  0  0  0  0  0  0  0  0  0  0  0
    1.8498   -1.9053    0.0000 N   0  0  0  0  0  0  0  0  0  0  0  0
   -1.4799    1.8313    0.0000 C   0  0  0  0  0  0  0  0  0  0  0  0
   -0.7585    2.2197    0.0000 C   0  0  0  0  0  0  0  0  0  0  0  0
   -1.3133    1.0359    0.0000 C   0  0  0  0  0  0  0  0  0  0  0  0
    0.6660    1.8313    0.0000 C   0  0  3  0  0  0  0  0  0  0  0  0
   -2.2013    2.2568    0.0000 C   0  0  0  0  0  0  0  0  0  0  0  0
   -0.7399    3.0522    0.0000 C   0  0  0  0  0  0  0  0  0  0  0  0
    1.2209    1.2209    0.0000 C   0  0  3  0  0  0  0  0  0  0  0  0
   -1.4799    3.4776    0.0000 C   0  0  0  0  0  0  0  0  0  0  0  0
    0.9434    2.6267    0.0000 C   0  0  0  0  0  0  0  0  0  0  0  0
   -1.6278   -0.3884    0.0000 C   0  0  0  0  0  0  0  0  0  0  0  0
    2.0163    1.3874    0.0000 C   0  0  0  0  0  0  0  0  0  0  0  0
    0.9434    0.4070    0.0000 C   0  0  0  0  0  0  0  0  0  0  0  0
    1.7388    2.7747    0.0000 C   0  0  0  0  0  0  0  0  0  0  0  0
   -2.1643   -1.0174    0.0000 C   0  0  0  0  0  0  0  0  0  0  0  0
   -0.8324   -0.5734    0.0000 C   0  0  0  0  0  0  0  0  0  0  0  0
    2.2938    2.1643    0.0000 C   0  0  0  0  0  0  0  0  0  0  0  0
   -1.1284   -1.9793    0.0000 C   0  0  0  0  0  0  0  0  0  0  0  0
   -1.9238   -1.7944    0.0000 C   0  0  0  0  0  0  0  0  0  0  0  0
   -0.5919   -1.3874    0.0000 C   0  0  0  0  0  0  0  0  0  0  0  0
   -0.8694   -2.7562    0.0000 C   0  0  0  0  0  0  0  0  0  0  0  0
    0.4994   -2.3307    0.0000 C   0  0  0  0  0  0  0  0  0  0  0  0
    1.3133   -2.5158    0.0000 C   0  0  0  0  0  0  0  0  0  0  0  0
    2.3678   -3.4776    0.0000 C   0  0  0  0  0  0  0  0  0  0  0  0
    2.6822   -2.0718    0.0000 C   0  0  0  0  0  0  0  0  0  0  0  0
    2.9227   -2.8672    0.0000 C   0  0  0  0  0  0  0  0  0  0  0  0
  1 15  2  0  0  0  0
  2 31  2  0  0  0  0
  3  4  1  0  0  0  0
  3 12  1  0  0  0  0
 14  3  1  1  0  0  0
  4 13  2  0  0  0  0
  5 13  1  0  0  0  0
  5 20  1  0  0  0  0
  6 15  1  0  0  0  0
  6 18  1  0  0  0  0
  7 22  3  0  0  0  0
  8 30  1  0  0  0  0
  8 31  1  0  0  0  0
  9 32  2  0  0  0  0
  9 33  1  0  0  0  0
 10 32  1  0  0  0  0
 10 34  2  0  0  0  0
 11 12  2  0  0  0  0
 11 13  1  0  0  0  0
 11 15  1  0  0  0  0
 12 16  1  0  0  0  0
 14 17  1  0  0  0  0
 14 19  1  0  0  0  0
 16 18  2  0  0  0  0
 17 21  1  0  0  0  0
 17 22  1  6  0  0  0
 19 23  1  0  0  0  0
 20 24  2  0  0  0  0
 20 25  1  0  0  0  0
 21 26  1  0  0  0  0
 23 26  1  0  0  0  0
 24 28  1  0  0  0  0
 25 29  2  0  0  0  0
 27 28  2  0  0  0  0
 27 29  1  0  0  0  0
 27 30  1  0  0  0  0
 31 32  1  0  0  0  0
 33 35  2  0  0  0  0
 34 35  1  0  0  0  0
M  END
> <PUBCHEM_COMPOUND_ID_TYPE>
0

> <PUBCHEM_TOTAL_CHARGE>
0

> <PUBCHEM_SUBSTANCE_ID>
310948761

> <PUBCHEM_SUBSTANCE_VERSION>
1

> <PUBCHEM_EXT_DATASOURCE_NAME>
4488

> <PUBCHEM_EXT_DATASOURCE_REGID>
SCHEMBL16126945

> <PUBCHEM_SUBSTANCE_COMMENT>
InChI=1S/C25H24N8O2/c26-14-17-4-1-2-5-19(17)33-20-10-13-29-24(34)21(20)22(32-33)31-18-8-6-16(7-9-18)15-30-25(35)23-27-11-3-12-28-23/h3,6-13,17,19H,1-2,4-5,15H2,(H,29,34)(H,30,35)(H,31,32)/t17-,19+/m1/s1
InChIKey=FNABBFLNQUBWDU-MJGOQNOKSA-N

> <PUBCHEM_SUBSTANCE_SYNONYM>
SCHEMBL16126945

> <PUBCHEM_XREF_EXT_ID>
SCHEMBL16126945

> <PUBCHEM_EXT_DATASOURCE_URL>
https://www.surechembl.org/

> <PUBCHEM_EXT_SUBSTANCE_URL>
https://www.surechembl.org/chemical/SCHEMBL16126945

> <PUBCHEM_CID_ASSOCIATIONS>
117614303  1

> <PUBCHEM_COORDINATE_TYPE>
1
3

> <PUBCHEM_BONDANNOTATIONS>
17  22  6
14  3  5

$$$$
