310944983
  -OEChem-07211613022D

 36 41  0     0  0  0  0  0  0999 V2000
    3.5309    3.7974    0.0000 O   0  0  0  0  0  0  0  0  0  0  0  0
   -2.8203    1.2324    0.0000 O   0  0  0  0  0  0  0  0  0  0  0  0
    2.2651    1.3435    0.0000 N   0  0  0  0  0  0  0  0  0  0  0  0
   -0.7661    1.9542    0.0000 N   0  0  0  0  0  0  0  0  0  0  0  0
    4.3636    2.6537    0.0000 N   0  0  0  0  0  0  0  0  0  0  0  0
   -1.9986   -1.6211    0.0000 N   0  0  0  0  0  0  0  0  0  0  0  0
   -0.7661   -0.9105    0.0000 N   0  0  0  0  0  0  0  0  0  0  0  0
   -2.8314   -0.1888    0.0000 N   0  0  0  0  0  0  0  0  0  0  0  0
   -2.8314   -3.0535    0.0000 N   0  0  0  0  0  0  0  0  0  0  0  0
    1.7099    1.9653    0.0000 C   0  0  0  0  0  0  0  0  0  0  0  0
    2.1208    2.6760    0.0000 C   0  0  0  0  0  0  0  0  0  0  0  0
    2.9313    2.4872    0.0000 C   0  0  0  0  0  0  0  0  0  0  0  0
    0.8883    1.9653    0.0000 C   0  0  0  0  0  0  0  0  0  0  0  0
    3.0202    1.6877    0.0000 C   0  0  0  0  0  0  0  0  0  0  0  0
    0.4774    2.6649    0.0000 C   0  0  0  0  0  0  0  0  0  0  0  0
    3.5975    2.9757    0.0000 C   0  0  0  0  0  0  0  0  0  0  0  0
    1.7099    3.3866    0.0000 C   0  0  0  0  0  0  0  0  0  0  0  0
    0.4663    1.2324    0.0000 C   0  0  0  0  0  0  0  0  0  0  0  0
   -0.3553    1.2436    0.0000 C   0  0  0  0  0  0  0  0  0  0  0  0
    0.8883    3.3866    0.0000 C   0  0  0  0  0  0  0  0  0  0  0  0
   -0.7661    0.5218    0.0000 C   0  0  0  0  0  0  0  0  0  0  0  0
   -0.3553    2.6649    0.0000 C   0  0  0  0  0  0  0  0  0  0  0  0
    3.7863    1.3435    0.0000 C   0  0  0  0  0  0  0  0  0  0  0  0
   -1.5989   -0.8994    0.0000 C   0  0  0  0  0  0  0  0  0  0  0  0
   -2.0097   -0.1999    0.0000 C   0  0  0  0  0  0  0  0  0  0  0  0
   -1.5878    0.5218    0.0000 C   0  0  0  0  0  0  0  0  0  0  0  0
    4.4414    1.8209    0.0000 C   0  0  0  0  0  0  0  0  0  0  0  0
   -0.3553   -0.1776    0.0000 C   0  0  0  0  0  0  0  0  0  0  0  0
   -2.8314   -1.6322    0.0000 C   0  0  0  0  0  0  0  0  0  0  0  0
   -1.5878   -2.3539    0.0000 C   0  0  0  0  0  0  0  0  0  0  0  0
   -3.2422    0.5107    0.0000 C   0  0  0  0  0  0  0  0  0  0  0  0
   -3.2311   -2.3539    0.0000 C   0  0  0  0  0  0  0  0  0  0  0  0
   -2.0097   -3.0645    0.0000 C   0  0  0  0  0  0  0  0  0  0  0  0
   -4.0749    0.5329    0.0000 C   0  0  0  0  0  0  0  0  0  0  0  0
   -3.2422   -3.7974    0.0000 C   0  0  0  0  0  0  0  0  0  0  0  0
   -4.4414    1.2769    0.0000 C   0  0  0  0  0  0  0  0  0  0  0  0
  1 16  2  0  0  0  0
  2 31  2  0  0  0  0
  3 10  1  0  0  0  0
  3 14  1  0  0  0  0
  4 19  1  0  0  0  0
  4 22  2  0  0  0  0
  5 16  1  0  0  0  0
  5 27  1  0  0  0  0
  6 24  1  0  0  0  0
  6 29  1  0  0  0  0
  6 30  1  0  0  0  0
  7 24  1  0  0  0  0
  7 28  2  0  0  0  0
  8 25  1  0  0  0  0
  8 31  1  0  0  0  0
  9 32  1  0  0  0  0
  9 33  1  0  0  0  0
  9 35  1  0  0  0  0
 10 11  2  0  0  0  0
 10 13  1  0  0  0  0
 11 12  1  0  0  0  0
 11 17  1  0  0  0  0
 12 14  2  0  0  0  0
 12 16  1  0  0  0  0
 13 15  2  0  0  0  0
 13 18  1  0  0  0  0
 14 23  1  0  0  0  0
 15 20  1  0  0  0  0
 15 22  1  0  0  0  0
 17 20  1  0  0  0  0
 18 19  2  0  0  0  0
 19 21  1  0  0  0  0
 21 26  2  0  0  0  0
 21 28  1  0  0  0  0
 23 27  1  0  0  0  0
 24 25  2  0  0  0  0
 25 26  1  0  0  0  0
 29 32  1  0  0  0  0
 30 33  1  0  0  0  0
 31 34  1  0  0  0  0
 34 36  2  0  0  0  0
M  END
> <PUBCHEM_COMPOUND_ID_TYPE>
0

> <PUBCHEM_TOTAL_CHARGE>
0

> <PUBCHEM_SUBSTANCE_ID>
310944983

> <PUBCHEM_SUBSTANCE_VERSION>
1

> <PUBCHEM_EXT_DATASOURCE_NAME>
4488

> <PUBCHEM_EXT_DATASOURCE_REGID>
SCHEMBL16123071

> <PUBCHEM_SUBSTANCE_COMMENT>
InChI=1S/C27H29N7O2/c1-3-23(35)31-22-12-17(15-30-26(22)34-10-8-33(2)9-11-34)21-13-19-16(14-29-21)4-5-18-24-20(32-25(18)19)6-7-28-27(24)36/h3,12-15,32H,1,4-11H2,2H3,(H,28,36)(H,31,35)
InChIKey=SVNKSDWFQIEQEV-UHFFFAOYSA-N

> <PUBCHEM_SUBSTANCE_SYNONYM>
SCHEMBL16123071

> <PUBCHEM_XREF_EXT_ID>
SCHEMBL16123071

> <PUBCHEM_EXT_DATASOURCE_URL>
https://www.surechembl.org/

> <PUBCHEM_EXT_SUBSTANCE_URL>
https://www.surechembl.org/chemical/SCHEMBL16123071

> <PUBCHEM_CID_ASSOCIATIONS>
86300459  1

> <PUBCHEM_COORDINATE_TYPE>
1
3

$$$$
