310946162
  -OEChem-07211613022D

 41 48  0     0  0  0  0  0  0999 V2000
    2.9051   -4.8344    0.0000 S   0  0  0  0  0  0  0  0  0  0  0  0
   -0.3768   -4.6628    0.0000 N   0  0  0  0  0  0  0  0  0  0  0  0
   -2.8338   -6.2633    0.0000 C   0  0  0  0  0  0  0  0  0  0  0  0
   -2.0268   -6.0918    0.0000 C   0  0  0  0  0  0  0  0  0  0  0  0
   -1.6143   -6.8063    0.0000 C   0  0  0  0  0  0  0  0  0  0  0  0
   -2.9200   -7.0838    0.0000 C   0  0  0  0  0  0  0  0  0  0  0  0
   -2.1664   -7.4194    0.0000 C   0  0  0  0  0  0  0  0  0  0  0  0
   -0.7893   -5.3773    0.0000 C   0  0  0  0  0  0  0  0  0  0  0  0
   -1.6143   -5.3773    0.0000 C   0  0  0  0  0  0  0  0  0  0  0  0
   -0.7893   -6.8063    0.0000 C   0  0  0  0  0  0  0  0  0  0  0  0
    0.4482   -4.6628    0.0000 C   0  0  0  0  0  0  0  0  0  0  0  0
    1.6857   -5.3773    0.0000 C   0  0  0  0  0  0  0  0  0  0  0  0
   -0.3768   -6.0918    0.0000 C   0  0  0  0  0  0  0  0  0  0  0  0
   -3.5875   -7.5687    0.0000 C   0  0  0  0  0  0  0  0  0  0  0  0
   -2.0801   -8.2398    0.0000 C   0  0  0  0  0  0  0  0  0  0  0  0
    2.0982   -4.6628    0.0000 C   0  0  0  0  0  0  0  0  0  0  0  0
    2.2377   -5.9904    0.0000 C   0  0  0  0  0  0  0  0  0  0  0  0
   -0.7893   -3.9484    0.0000 C   0  0  0  0  0  0  0  0  0  0  0  0
    0.8607   -5.3773    0.0000 C   0  0  0  0  0  0  0  0  0  0  0  0
   -2.8338   -5.4383    0.0000 C   0  0  0  0  0  0  0  0  0  0  0  0
   -3.6588   -6.2633    0.0000 C   0  0  0  0  0  0  0  0  0  0  0  0
    2.9914   -5.6549    0.0000 C   0  0  0  0  0  0  0  0  0  0  0  0
    0.8607   -3.9484    0.0000 C   0  0  0  0  0  0  0  0  0  0  0  0
    1.6857   -3.9484    0.0000 C   0  0  0  0  0  0  0  0  0  0  0  0
   -3.5012   -8.3892    0.0000 C   0  0  0  0  0  0  0  0  0  0  0  0
   -2.7476   -8.7248    0.0000 C   0  0  0  0  0  0  0  0  0  0  0  0
    2.1515   -6.8109    0.0000 C   0  0  0  0  0  0  0  0  0  0  0  0
   -0.3768   -3.2339    0.0000 C   0  0  0  0  0  0  0  0  0  0  0  0
   -1.6143   -3.9484    0.0000 C   0  0  0  0  0  0  0  0  0  0  0  0
    3.6588   -6.1398    0.0000 C   0  0  0  0  0  0  0  0  0  0  0  0
   -1.6143   -2.5194    0.0000 C   0  0  0  0  0  0  0  0  0  0  0  0
   -0.7893   -2.5194    0.0000 C   0  0  0  0  0  0  0  0  0  0  0  0
   -2.0268   -3.2339    0.0000 C   0  0  0  0  0  0  0  0  0  0  0  0
    2.8189   -7.2958    0.0000 C   0  0  0  0  0  0  0  0  0  0  0  0
    3.5726   -6.9603    0.0000 C   0  0  0  0  0  0  0  0  0  0  0  0
   -2.0268   -1.8050    0.0000 C   0  0  0  0  0  0  0  0  0  0  0  0
   -1.6143   -1.0905    0.0000 C   0  0  0  0  0  0  0  0  0  0  0  0
   -2.8518   -1.8050    0.0000 C   0  0  0  0  0  0  0  0  0  0  0  0
   -2.0268   -0.3760    0.0000 C   0  0  0  0  0  0  0  0  0  0  0  0
   -3.2643   -1.0905    0.0000 C   0  0  0  0  0  0  0  0  0  0  0  0
   -2.8518   -0.3760    0.0000 C   0  0  0  0  0  0  0  0  0  0  0  0
  1 16  1  0  0  0  0
  1 22  1  0  0  0  0
  2  8  1  0  0  0  0
  2 11  1  0  0  0  0
  2 18  1  0  0  0  0
  3  4  1  0  0  0  0
  3  6  1  0  0  0  0
  3 20  1  0  0  0  0
  3 21  1  0  0  0  0
  4  5  2  0  0  0  0
  4  9  1  0  0  0  0
  5  7  1  0  0  0  0
  5 10  1  0  0  0  0
  6  7  2  0  0  0  0
  6 14  1  0  0  0  0
  7 15  1  0  0  0  0
  8  9  2  0  0  0  0
  8 13  1  0  0  0  0
 10 13  2  0  0  0  0
 11 19  2  0  0  0  0
 11 23  1  0  0  0  0
 12 16  2  0  0  0  0
 12 17  1  0  0  0  0
 12 19  1  0  0  0  0
 14 25  2  0  0  0  0
 15 26  2  0  0  0  0
 16 24  1  0  0  0  0
 17 22  2  0  0  0  0
 17 27  1  0  0  0  0
 18 28  2  0  0  0  0
 18 29  1  0  0  0  0
 22 30  1  0  0  0  0
 23 24  2  0  0  0  0
 25 26  1  0  0  0  0
 27 34  2  0  0  0  0
 28 32  1  0  0  0  0
 29 33  2  0  0  0  0
 30 35  2  0  0  0  0
 31 32  2  0  0  0  0
 31 33  1  0  0  0  0
 31 36  1  0  0  0  0
 34 35  1  0  0  0  0
 36 37  2  0  0  0  0
 36 38  1  0  0  0  0
 37 39  1  0  0  0  0
 38 40  2  0  0  0  0
 39 41  2  0  0  0  0
 40 41  1  0  0  0  0
M  END
> <PUBCHEM_COMPOUND_ID_TYPE>
0

> <PUBCHEM_TOTAL_CHARGE>
0

> <PUBCHEM_SUBSTANCE_ID>
310946162

> <PUBCHEM_SUBSTANCE_VERSION>
1

> <PUBCHEM_EXT_DATASOURCE_NAME>
4488

> <PUBCHEM_EXT_DATASOURCE_REGID>
SCHEMBL16124271

> <PUBCHEM_SUBSTANCE_COMMENT>
InChI=1S/C39H29NS/c1-39(2)35-14-8-6-12-31(35)32-22-20-30(25-36(32)39)40(28-18-16-27(17-19-28)26-10-4-3-5-11-26)29-21-23-38-34(24-29)33-13-7-9-15-37(33)41-38/h3-25H,1-2H3
InChIKey=WCQGKFUVKSZHPJ-UHFFFAOYSA-N

> <PUBCHEM_SUBSTANCE_SYNONYM>
SCHEMBL16124271

> <PUBCHEM_XREF_EXT_ID>
SCHEMBL16124271

> <PUBCHEM_EXT_DATASOURCE_URL>
https://www.surechembl.org/

> <PUBCHEM_EXT_SUBSTANCE_URL>
https://www.surechembl.org/chemical/SCHEMBL16124271

> <PUBCHEM_CID_ASSOCIATIONS>
117612119  1

> <PUBCHEM_COORDINATE_TYPE>
1
3

$$$$
