310939546
  -OEChem-07211613022D

 30 32  0     1  0  0  0  0  0999 V2000
   -8.6375    9.3474    0.0000 O   0  0  0  0  0  0  0  0  0  0  0  0
   -5.8285   10.1724    0.0000 O   0  0  0  0  0  0  0  0  0  0  0  0
   -5.2969   12.3793    0.0000 O   0  0  0  0  0  0  0  0  0  0  0  0
   -9.2414    6.4895    0.0000 O   0  0  0  0  0  0  0  0  0  0  0  0
  -11.3039    5.7750    0.0000 O   0  0  0  0  0  0  0  0  0  0  0  0
   -7.9230   10.5849    0.0000 C   0  0  3  0  0  0  0  0  0  0  0  0
   -9.3519   10.5849    0.0000 C   0  0  0  0  0  0  0  0  0  0  0  0
   -7.9230    9.7599    0.0000 C   0  0  3  0  0  0  0  0  0  0  0  0
   -9.3519    9.7599    0.0000 C   0  0  0  0  0  0  0  0  0  0  0  0
   -7.1384   10.8398    0.0000 C   0  0  3  0  0  0  0  0  0  0  0  0
   -6.6535   10.1724    0.0000 C   0  0  3  0  0  0  0  0  0  0  0  0
   -7.1384    9.5049    0.0000 C   0  0  0  0  0  0  0  0  0  0  0  0
  -10.0664    9.3474    0.0000 C   0  0  0  0  0  0  0  0  0  0  0  0
  -10.0664   10.9974    0.0000 C   0  0  0  0  0  0  0  0  0  0  0  0
   -6.7259   11.5543    0.0000 C   0  0  0  0  0  0  0  0  0  0  0  0
  -10.7809    9.7599    0.0000 C   0  0  0  0  0  0  0  0  0  0  0  0
  -10.7809   10.5849    0.0000 C   0  0  0  0  0  0  0  0  0  0  0  0
  -10.4789    8.6329    0.0000 C   0  0  0  0  0  0  0  0  0  0  0  0
   -6.0114   11.1418    0.0000 C   0  0  0  0  0  0  0  0  0  0  0  0
   -5.2969   11.5543    0.0000 C   0  0  3  0  0  0  0  0  0  0  0  0
  -10.0664    7.9184    0.0000 C   0  0  0  0  0  0  0  0  0  0  0  0
   -4.5825   11.1418    0.0000 C   0  0  3  0  0  0  0  0  0  0  0  0
  -10.4789    7.2040    0.0000 C   0  0  0  0  0  0  0  0  0  0  0  0
   -3.8680   11.5543    0.0000 C   0  0  0  0  0  0  0  0  0  0  0  0
  -10.0664    6.4895    0.0000 C   0  0  0  0  0  0  0  0  0  0  0  0
   -4.5825   10.3168    0.0000 C   0  0  0  0  0  0  0  0  0  0  0  0
   -3.1535   11.1418    0.0000 C   0  0  0  0  0  0  0  0  0  0  0  0
  -10.4789    5.7750    0.0000 C   0  0  0  0  0  0  0  0  0  0  0  0
   -2.4391   10.7293    0.0000 C   0  0  0  0  0  0  0  0  0  0  0  0
   -1.7246   10.3168    0.0000 C   0  0  0  0  0  0  0  0  0  0  0  0
  1  8  1  0  0  0  0
  1  9  1  0  0  0  0
 11  2  1  6  0  0  0
 20  3  1  1  0  0  0
  4 25  2  0  0  0  0
  5 28  1  0  0  0  0
  6  7  1  6  0  0  0
  6  8  1  0  0  0  0
  6 10  1  0  0  0  0
  7  9  2  0  0  0  0
  7 14  1  0  0  0  0
  8 12  1  6  0  0  0
  9 13  1  0  0  0  0
 10 11  1  0  0  0  0
 10 15  1  1  0  0  0
 11 12  1  0  0  0  0
 13 16  2  0  0  0  0
 13 18  1  0  0  0  0
 14 17  2  0  0  0  0
 15 19  2  0  0  0  0
 16 17  1  0  0  0  0
 18 21  1  0  0  0  0
 19 20  1  0  0  0  0
 20 22  1  0  0  0  0
 21 23  1  0  0  0  0
 22 24  1  0  0  0  0
 22 26  1  6  0  0  0
 23 25  1  0  0  0  0
 24 27  1  0  0  0  0
 25 28  1  0  0  0  0
 27 29  3  0  0  0  0
 29 30  1  0  0  0  0
M  END
> <PUBCHEM_COMPOUND_ID_TYPE>
0

> <PUBCHEM_TOTAL_CHARGE>
0

> <PUBCHEM_SUBSTANCE_ID>
310939546

> <PUBCHEM_SUBSTANCE_VERSION>
1

> <PUBCHEM_EXT_DATASOURCE_NAME>
4488

> <PUBCHEM_EXT_DATASOURCE_REGID>
SCHEMBL16117475

> <PUBCHEM_SUBSTANCE_COMMENT>
InChI=1S/C25H32O5/c1-3-4-7-16(2)21(28)13-12-19-22(29)14-23-24(19)20-11-6-9-17(25(20)30-23)8-5-10-18(27)15-26/h6,9,11-13,16,19,21-24,26,28-29H,5,7-8,10,14-15H2,1-2H3/b13-12+/t16-,19-,21+,22+,23-,24-/m0/s1
InChIKey=IUEKKZANSSUHNC-VUBJMNBXSA-N

> <PUBCHEM_SUBSTANCE_SYNONYM>
SCHEMBL16117475

> <PUBCHEM_XREF_EXT_ID>
SCHEMBL16117475

> <PUBCHEM_EXT_DATASOURCE_URL>
https://www.surechembl.org/

> <PUBCHEM_EXT_SUBSTANCE_URL>
https://www.surechembl.org/chemical/SCHEMBL16117475

> <PUBCHEM_CID_ASSOCIATIONS>
117606843  1

> <PUBCHEM_COORDINATE_TYPE>
1
3

> <PUBCHEM_BONDANNOTATIONS>
10  15  5
11  2  6
22  26  6
20  3  5
6  7  6
8  12  6

$$$$
