310946921
  -OEChem-07211613022D

  8  8  0     0  0  0  0  0  0999 V2000
   -0.4298    0.1020    0.0000 O   0  0  0  0  0  0  0  0  0  0  0  0
    0.7212    1.2383    0.0000 O   0  0  0  0  0  0  0  0  0  0  0  0
   -0.4006   -1.2383    0.0000 N   0  0  0  0  0  0  0  0  0  0  0  0
   -1.7264   -0.5828    0.0000 N   0  0  0  0  0  0  0  0  0  0  0  0
    0.3715   -0.1311    0.0000 C   0  0  0  0  0  0  0  0  0  0  0  0
   -0.8960   -0.5828    0.0000 C   0  0  0  0  0  0  0  0  0  0  0  0
    0.3715   -0.9762    0.0000 C   0  0  0  0  0  0  0  0  0  0  0  0
    0.9397    0.4516    0.0000 C   0  0  0  0  0  0  0  0  0  0  0  0
  1  5  1  0  0  0  0
  1  6  1  0  0  0  0
  2  8  2  0  0  0  0
  3  6  2  0  0  0  0
  3  7  1  0  0  0  0
  4  6  1  0  0  0  0
  5  7  2  0  0  0  0
  5  8  1  0  0  0  0
M  END
> <PUBCHEM_COMPOUND_ID_TYPE>
0

> <PUBCHEM_TOTAL_CHARGE>
0

> <PUBCHEM_SUBSTANCE_ID>
310946921

> <PUBCHEM_SUBSTANCE_VERSION>
1

> <PUBCHEM_EXT_DATASOURCE_NAME>
4488

> <PUBCHEM_EXT_DATASOURCE_REGID>
SCHEMBL16125045

> <PUBCHEM_SUBSTANCE_COMMENT>
InChI=1S/C4H4N2O2/c5-4-6-1-3(2-7)8-4/h1-2H,(H2,5,6)
InChIKey=YXFXNFGCDVMEBN-UHFFFAOYSA-N

> <PUBCHEM_SUBSTANCE_SYNONYM>
SCHEMBL16125045

> <PUBCHEM_XREF_EXT_ID>
SCHEMBL16125045

> <PUBCHEM_EXT_DATASOURCE_URL>
https://www.surechembl.org/

> <PUBCHEM_EXT_SUBSTANCE_URL>
https://www.surechembl.org/chemical/SCHEMBL16125045

> <PUBCHEM_CID_ASSOCIATIONS>
55212037  1

> <PUBCHEM_COORDINATE_TYPE>
1
3

$$$$
