310945642
  -OEChem-07211613022D

 27 30  0     0  0  0  0  0  0999 V2000
   -1.0420   -0.8564    0.0000 N   0  0  0  0  0  0  0  0  0  0  0  0
   -1.0848    1.6272    0.0000 N   0  0  0  0  0  0  0  0  0  0  0  0
    1.8556    1.6272    0.0000 N   0  0  0  0  0  0  0  0  0  0  0  0
   -0.3711   -0.4282    0.0000 C   0  0  0  0  0  0  0  0  0  0  0  0
   -1.7985    0.3997    0.0000 C   0  0  0  0  0  0  0  0  0  0  0  0
   -1.8127   -0.4139    0.0000 C   0  0  0  0  0  0  0  0  0  0  0  0
   -1.0848    0.8136    0.0000 C   0  0  0  0  0  0  0  0  0  0  0  0
    0.3711   -0.8564    0.0000 C   0  0  0  0  0  0  0  0  0  0  0  0
   -0.3568    0.3997    0.0000 C   0  0  0  0  0  0  0  0  0  0  0  0
    1.8127   -0.8422    0.0000 C   0  0  0  0  0  0  0  0  0  0  0  0
    1.0848   -0.4282    0.0000 C   0  0  0  0  0  0  0  0  0  0  0  0
    1.7985   -1.6558    0.0000 C   0  0  0  0  0  0  0  0  0  0  0  0
    0.3711   -1.6558    0.0000 C   0  0  0  0  0  0  0  0  0  0  0  0
   -2.5121    0.8136    0.0000 C   0  0  0  0  0  0  0  0  0  0  0  0
   -2.5121   -0.8278    0.0000 C   0  0  0  0  0  0  0  0  0  0  0  0
    1.0848   -2.0553    0.0000 C   0  0  0  0  0  0  0  0  0  0  0  0
   -3.2401    0.3997    0.0000 C   0  0  0  0  0  0  0  0  0  0  0  0
   -3.2401   -0.4282    0.0000 C   0  0  0  0  0  0  0  0  0  0  0  0
    2.5407   -0.4425    0.0000 C   0  0  0  0  0  0  0  0  0  0  0  0
    2.5264   -2.0553    0.0000 C   0  0  0  0  0  0  0  0  0  0  0  0
    3.2401   -0.8422    0.0000 C   0  0  0  0  0  0  0  0  0  0  0  0
   -0.3711    2.0411    0.0000 C   0  0  0  0  0  0  0  0  0  0  0  0
    3.2401   -1.6558    0.0000 C   0  0  0  0  0  0  0  0  0  0  0  0
    0.3854    1.6414    0.0000 C   0  0  0  0  0  0  0  0  0  0  0  0
    1.0705    2.0411    0.0000 C   0  0  0  0  0  0  0  0  0  0  0  0
    1.8270    0.7993    0.0000 C   0  0  0  0  0  0  0  0  0  0  0  0
    2.5407    2.0553    0.0000 C   0  0  0  0  0  0  0  0  0  0  0  0
  1  4  2  0  0  0  0
  1  6  1  0  0  0  0
  2  7  1  0  0  0  0
  2 22  1  0  0  0  0
  3 25  1  0  0  0  0
  3 26  1  0  0  0  0
  3 27  1  0  0  0  0
  4  8  1  0  0  0  0
  4  9  1  0  0  0  0
  5  6  1  0  0  0  0
  5  7  1  0  0  0  0
  5 14  2  0  0  0  0
  6 15  2  0  0  0  0
  7  9  2  0  0  0  0
  8 11  1  0  0  0  0
  8 13  2  0  0  0  0
 10 11  2  0  0  0  0
 10 12  1  0  0  0  0
 10 19  1  0  0  0  0
 12 16  2  0  0  0  0
 12 20  1  0  0  0  0
 13 16  1  0  0  0  0
 14 17  1  0  0  0  0
 15 18  1  0  0  0  0
 17 18  2  0  0  0  0
 19 21  2  0  0  0  0
 20 23  2  0  0  0  0
 21 23  1  0  0  0  0
 22 24  1  0  0  0  0
 24 25  1  0  0  0  0
M  END
> <PUBCHEM_COMPOUND_ID_TYPE>
0

> <PUBCHEM_TOTAL_CHARGE>
0

> <PUBCHEM_SUBSTANCE_ID>
310945642

> <PUBCHEM_SUBSTANCE_VERSION>
1

> <PUBCHEM_EXT_DATASOURCE_NAME>
4488

> <PUBCHEM_EXT_DATASOURCE_REGID>
SCHEMBL16123741

> <PUBCHEM_SUBSTANCE_COMMENT>
InChI=1S/C24H25N3/c1-27(2)15-7-14-25-24-17-23(26-22-11-6-5-10-21(22)24)20-13-12-18-8-3-4-9-19(18)16-20/h3-6,8-13,16-17H,7,14-15H2,1-2H3,(H,25,26)
InChIKey=FICYCFGUUJWZSL-UHFFFAOYSA-N

> <PUBCHEM_SUBSTANCE_SYNONYM>
SCHEMBL16123741

> <PUBCHEM_XREF_EXT_ID>
SCHEMBL16123741

> <PUBCHEM_EXT_DATASOURCE_URL>
https://www.surechembl.org/

> <PUBCHEM_EXT_SUBSTANCE_URL>
https://www.surechembl.org/chemical/SCHEMBL16123741

> <PUBCHEM_CID_ASSOCIATIONS>
10450866  1

> <PUBCHEM_COORDINATE_TYPE>
1
3

$$$$
