310939929
  -OEChem-07211613022D

 26 28  0     0  0  0  0  0  0999 V2000
    0.0000    5.1209    0.0000 Cl  0  0  0  0  0  0  0  0  0  0  0  0
    0.0000   -4.2959    0.0000 O   0  0  0  0  0  0  0  0  0  0  0  0
    0.0000    1.8209    0.0000 O   0  0  0  0  0  0  0  0  0  0  0  0
    1.4289    2.6459    0.0000 O   0  0  0  0  0  0  0  0  0  0  0  0
   -0.7145   -1.0666    0.0000 N   0  0  0  0  0  0  0  0  0  0  0  0
   -0.7145   -3.0584    0.0000 N   0  0  0  0  0  0  0  0  0  0  0  0
   -0.7145    0.5834    0.0000 N   0  0  0  0  0  0  0  0  0  0  0  0
   -1.4289    2.6459    0.0000 N   0  0  0  0  0  0  0  0  0  0  0  0
   -0.7145   -1.8916    0.0000 C   0  0  0  0  0  0  0  0  0  0  0  0
   -1.2978   -2.4750    0.0000 C   0  0  0  0  0  0  0  0  0  0  0  0
   -0.1311   -2.4750    0.0000 C   0  0  0  0  0  0  0  0  0  0  0  0
   -0.7145   -3.8834    0.0000 C   0  0  0  0  0  0  0  0  0  0  0  0
   -1.4289   -0.6541    0.0000 C   0  0  0  0  0  0  0  0  0  0  0  0
    0.0000   -0.6541    0.0000 C   0  0  0  0  0  0  0  0  0  0  0  0
   -1.4289    0.1709    0.0000 C   0  0  0  0  0  0  0  0  0  0  0  0
    0.0000    0.1709    0.0000 C   0  0  0  0  0  0  0  0  0  0  0  0
   -0.7145    1.4084    0.0000 C   0  0  0  0  0  0  0  0  0  0  0  0
   -0.7145    3.0584    0.0000 C   0  0  0  0  0  0  0  0  0  0  0  0
   -1.4289    1.8209    0.0000 C   0  0  0  0  0  0  0  0  0  0  0  0
   -1.4289   -4.2959    0.0000 C   0  0  0  0  0  0  0  0  0  0  0  0
   -0.7145    3.8834    0.0000 C   0  0  0  0  0  0  0  0  0  0  0  0
    0.0000    2.6459    0.0000 C   0  0  0  0  0  0  0  0  0  0  0  0
    0.0000    4.2959    0.0000 C   0  0  0  0  0  0  0  0  0  0  0  0
    0.7145    3.0584    0.0000 C   0  0  0  0  0  0  0  0  0  0  0  0
    0.7145    3.8834    0.0000 C   0  0  0  0  0  0  0  0  0  0  0  0
   -1.4289   -5.1209    0.0000 C   0  0  0  0  0  0  0  0  0  0  0  0
  1 23  1  0  0  0  0
  2 12  2  0  0  0  0
  3 17  2  0  0  0  0
  4 24  1  0  0  0  0
  5  9  1  0  0  0  0
  5 13  1  0  0  0  0
  5 14  1  0  0  0  0
  6 10  1  0  0  0  0
  6 11  1  0  0  0  0
  6 12  1  0  0  0  0
  7 15  1  0  0  0  0
  7 16  1  0  0  0  0
  7 17  1  0  0  0  0
  8 18  1  0  0  0  0
  8 19  1  0  0  0  0
  9 10  1  0  0  0  0
  9 11  1  0  0  0  0
 12 20  1  0  0  0  0
 13 15  1  0  0  0  0
 14 16  1  0  0  0  0
 17 19  1  0  0  0  0
 18 21  1  0  0  0  0
 18 22  2  0  0  0  0
 20 26  2  0  0  0  0
 21 23  2  0  0  0  0
 22 24  1  0  0  0  0
 23 25  1  0  0  0  0
 24 25  2  0  0  0  0
M  END
> <PUBCHEM_COMPOUND_ID_TYPE>
0

> <PUBCHEM_TOTAL_CHARGE>
0

> <PUBCHEM_SUBSTANCE_ID>
310939929

> <PUBCHEM_SUBSTANCE_VERSION>
1

> <PUBCHEM_EXT_DATASOURCE_NAME>
4488

> <PUBCHEM_EXT_DATASOURCE_REGID>
SCHEMBL16117859

> <PUBCHEM_SUBSTANCE_COMMENT>
InChI=1S/C18H23ClN4O3/c1-2-17(25)23-11-15(12-23)21-3-5-22(6-4-21)18(26)10-20-14-7-13(19)8-16(24)9-14/h2,7-9,15,20,24H,1,3-6,10-12H2
InChIKey=OLDQNCJIAJVSKM-UHFFFAOYSA-N

> <PUBCHEM_SUBSTANCE_SYNONYM>
SCHEMBL16117859

> <PUBCHEM_XREF_EXT_ID>
SCHEMBL16117859

> <PUBCHEM_EXT_DATASOURCE_URL>
https://www.surechembl.org/

> <PUBCHEM_EXT_SUBSTANCE_URL>
https://www.surechembl.org/chemical/SCHEMBL16117859

> <PUBCHEM_CID_ASSOCIATIONS>
86279886  1

> <PUBCHEM_COORDINATE_TYPE>
1
3

$$$$
