310940036
  -OEChem-07211613022D

 33 36  0     0  0  0  0  0  0999 V2000
   -7.2513  -12.9162    0.0000 Cl  0  0  0  0  0  0  0  0  0  0  0  0
    1.6269  -15.0119    0.0000 O   0  0  0  0  0  0  0  0  0  0  0  0
   -4.3935  -12.9162    0.0000 O   0  0  0  0  0  0  0  0  0  0  0  0
    2.5795  -13.3620    0.0000 O   0  0  0  0  0  0  0  0  0  0  0  0
   -2.9646  -10.4414    0.0000 O   0  0  0  0  0  0  0  0  0  0  0  0
    0.9124  -13.4995    0.0000 N   0  0  0  0  0  0  0  0  0  0  0  0
   -0.8124  -12.5037    0.0000 N   0  0  0  0  0  0  0  0  0  0  0  0
   -2.2502  -11.6788    0.0000 N   0  0  0  0  0  0  0  0  0  0  0  0
   -0.0980  -12.9162    0.0000 C   0  0  0  0  0  0  0  0  0  0  0  0
   -6.5369  -11.6788    0.0000 C   0  0  0  0  0  0  0  0  0  0  0  0
   -7.2513  -11.2663    0.0000 C   0  0  0  0  0  0  0  0  0  0  0  0
    0.1156  -13.7131    0.0000 C   0  0  0  0  0  0  0  0  0  0  0  0
    0.6989  -12.7027    0.0000 C   0  0  0  0  0  0  0  0  0  0  0  0
   -5.1081  -11.6788    0.0000 C   0  0  0  0  0  0  0  0  0  0  0  0
   -6.5369  -12.5037    0.0000 C   0  0  0  0  0  0  0  0  0  0  0  0
    1.6269  -13.9120    0.0000 C   0  0  0  0  0  0  0  0  0  0  0  0
   -5.8224  -11.2663    0.0000 C   0  0  0  0  0  0  0  0  0  0  0  0
   -5.1081  -12.5037    0.0000 C   0  0  0  0  0  0  0  0  0  0  0  0
   -7.6638  -10.5518    0.0000 C   0  0  0  0  0  0  0  0  0  0  0  0
   -8.0763  -11.2663    0.0000 C   0  0  0  0  0  0  0  0  0  0  0  0
   -5.8224  -12.9162    0.0000 C   0  0  0  0  0  0  0  0  0  0  0  0
   -1.5268  -12.9162    0.0000 C   0  0  0  0  0  0  0  0  0  0  0  0
   -0.8124  -11.6788    0.0000 C   0  0  0  0  0  0  0  0  0  0  0  0
   -2.9646  -11.2663    0.0000 C   0  0  0  0  0  0  0  0  0  0  0  0
   -2.2412  -12.5037    0.0000 C   0  0  0  0  0  0  0  0  0  0  0  0
   -1.5268  -11.2663    0.0000 C   0  0  0  0  0  0  0  0  0  0  0  0
   -4.3935  -11.2663    0.0000 C   0  0  0  0  0  0  0  0  0  0  0  0
   -3.6790  -11.6788    0.0000 C   0  0  0  0  0  0  0  0  0  0  0  0
    2.5795  -15.5618    0.0000 C   0  0  0  0  0  0  0  0  0  0  0  0
    3.5319  -16.1119    0.0000 C   0  0  0  0  0  0  0  0  0  0  0  0
    3.5319  -15.0119    0.0000 C   0  0  0  0  0  0  0  0  0  0  0  0
    2.5795  -16.6618    0.0000 C   0  0  0  0  0  0  0  0  0  0  0  0
   -3.6790  -12.5037    0.0000 C   0  0  0  0  0  0  0  0  0  0  0  0
  1 15  1  0  0  0  0
  2 16  1  0  0  0  0
  2 29  1  0  0  0  0
  3 18  1  0  0  0  0
  3 33  1  0  0  0  0
  4 16  2  0  0  0  0
  5 24  2  0  0  0  0
  6 12  1  0  0  0  0
  6 13  1  0  0  0  0
  6 16  1  0  0  0  0
  7  9  1  0  0  0  0
  7 22  1  0  0  0  0
  7 23  1  0  0  0  0
  8 24  1  0  0  0  0
  8 25  1  0  0  0  0
  8 26  1  0  0  0  0
  9 12  1  0  0  0  0
  9 13  1  0  0  0  0
 10 11  1  0  0  0  0
 10 15  2  0  0  0  0
 10 17  1  0  0  0  0
 11 19  1  0  0  0  0
 11 20  1  0  0  0  0
 14 17  2  0  0  0  0
 14 18  1  0  0  0  0
 14 27  1  0  0  0  0
 15 21  1  0  0  0  0
 18 21  2  0  0  0  0
 19 20  1  0  0  0  0
 22 25  1  0  0  0  0
 23 26  1  0  0  0  0
 24 28  1  0  0  0  0
 27 28  1  0  0  0  0
 29 30  1  0  0  0  0
 29 31  1  0  0  0  0
 29 32  1  0  0  0  0
M  END
> <PUBCHEM_COMPOUND_ID_TYPE>
0

> <PUBCHEM_TOTAL_CHARGE>
0

> <PUBCHEM_SUBSTANCE_ID>
310940036

> <PUBCHEM_SUBSTANCE_VERSION>
1

> <PUBCHEM_EXT_DATASOURCE_NAME>
4488

> <PUBCHEM_EXT_DATASOURCE_REGID>
SCHEMBL16117966

> <PUBCHEM_SUBSTANCE_COMMENT>
InChI=1S/C25H36ClN3O4/c1-25(2,3)33-24(31)29-15-19(16-29)27-9-11-28(12-10-27)23(30)8-7-18-13-20(17-5-6-17)21(26)14-22(18)32-4/h13-14,17,19H,5-12,15-16H2,1-4H3
InChIKey=VUZSSRVQWJFBLV-UHFFFAOYSA-N

> <PUBCHEM_SUBSTANCE_SYNONYM>
SCHEMBL16117966

> <PUBCHEM_XREF_EXT_ID>
SCHEMBL16117966

> <PUBCHEM_EXT_DATASOURCE_URL>
https://www.surechembl.org/

> <PUBCHEM_EXT_SUBSTANCE_URL>
https://www.surechembl.org/chemical/SCHEMBL16117966

> <PUBCHEM_CID_ASSOCIATIONS>
117607188  1

> <PUBCHEM_COORDINATE_TYPE>
1
3

$$$$
