310947526
  -OEChem-07211613022D

 23 25  0     1  0  0  0  0  0999 V2000
   -5.3059    3.0456    0.0000 O   0  0  0  0  0  0  0  0  0  0  0  0
   -4.4809    1.0616    0.0000 O   0  0  0  0  0  0  0  0  0  0  0  0
   -2.7269    5.5926    0.0000 O   0  0  0  0  0  0  0  0  0  0  0  0
   -7.3536    2.9305    0.0000 O   0  0  0  0  0  0  0  0  0  0  0  0
   -4.2260    3.2752    0.0000 N   0  0  0  0  0  0  0  0  0  0  0  0
   -4.2260    4.6100    0.0000 N   0  0  0  0  0  0  0  0  0  0  0  0
   -2.7269    3.1176    0.0000 N   0  0  0  0  0  0  0  0  0  0  0  0
   -2.0124    4.3551    0.0000 N   0  0  0  0  0  0  0  0  0  0  0  0
   -1.2979    3.1176    0.0000 N   0  0  0  0  0  0  0  0  0  0  0  0
   -4.8934    1.7761    0.0000 C   0  0  3  0  0  0  0  0  0  0  0  0
   -4.6385    2.5607    0.0000 C   0  0  3  0  0  0  0  0  0  0  0  0
   -5.7184    1.7761    0.0000 C   0  0  0  0  0  0  0  0  0  0  0  0
   -5.9734    2.5607    0.0000 C   0  0  3  0  0  0  0  0  0  0  0  0
   -3.4414    3.5301    0.0000 C   0  0  0  0  0  0  0  0  0  0  0  0
   -3.4414    4.3551    0.0000 C   0  0  0  0  0  0  0  0  0  0  0  0
   -4.7109    3.9426    0.0000 C   0  0  0  0  0  0  0  0  0  0  0  0
   -2.7269    4.7676    0.0000 C   0  0  0  0  0  0  0  0  0  0  0  0
   -4.0965    1.9896    0.0000 C   0  0  0  0  0  0  0  0  0  0  0  0
   -6.1309    1.0616    0.0000 C   0  0  0  0  0  0  0  0  0  0  0  0
   -6.4329    2.1886    0.0000 C   0  0  0  0  0  0  0  0  0  0  0  0
   -6.5567    3.1441    0.0000 C   0  0  0  0  0  0  0  0  0  0  0  0
   -2.0124    3.5301    0.0000 C   0  0  0  0  0  0  0  0  0  0  0  0
   -3.4414    6.0051    0.0000 C   0  0  0  0  0  0  0  0  0  0  0  0
 11  1  1  1  0  0  0
  1 13  1  0  0  0  0
 10  2  1  6  0  0  0
  3 17  1  0  0  0  0
  3 23  1  0  0  0  0
  4 21  1  0  0  0  0
  5 11  1  0  0  0  0
  5 14  1  0  0  0  0
  5 16  1  0  0  0  0
  6 15  1  0  0  0  0
  6 16  2  0  0  0  0
  7 14  1  0  0  0  0
  7 22  2  0  0  0  0
  8 17  2  0  0  0  0
  8 22  1  0  0  0  0
  9 22  1  0  0  0  0
 10 11  1  0  0  0  0
 10 12  1  0  0  0  0
 10 18  1  1  0  0  0
 12 13  1  0  0  0  0
 12 19  1  0  0  0  0
 12 20  1  0  0  0  0
 13 21  1  1  0  0  0
 14 15  2  0  0  0  0
 15 17  1  0  0  0  0
M  END
> <PUBCHEM_COMPOUND_ID_TYPE>
0

> <PUBCHEM_TOTAL_CHARGE>
0

> <PUBCHEM_SUBSTANCE_ID>
310947526

> <PUBCHEM_SUBSTANCE_VERSION>
1

> <PUBCHEM_EXT_DATASOURCE_NAME>
4488

> <PUBCHEM_EXT_DATASOURCE_REGID>
SCHEMBL16125688

> <PUBCHEM_SUBSTANCE_COMMENT>
InChI=1S/C14H21N5O4/c1-13(2)7(5-20)23-11(14(13,3)21)19-6-16-8-9(19)17-12(15)18-10(8)22-4/h6-7,11,20-21H,5H2,1-4H3,(H2,15,17,18)/t7-,11-,14+/m1/s1
InChIKey=OWTRCDMAWFUQBY-NRBYFXAUSA-N

> <PUBCHEM_SUBSTANCE_SYNONYM>
SCHEMBL16125688

> <PUBCHEM_XREF_EXT_ID>
SCHEMBL16125688

> <PUBCHEM_EXT_DATASOURCE_URL>
https://www.surechembl.org/

> <PUBCHEM_EXT_SUBSTANCE_URL>
https://www.surechembl.org/chemical/SCHEMBL16125688

> <PUBCHEM_CID_ASSOCIATIONS>
117613248  1

> <PUBCHEM_COORDINATE_TYPE>
1
3

> <PUBCHEM_BONDANNOTATIONS>
11  1  5
10  18  5
13  21  5
10  2  6

$$$$
