310943191
  -OEChem-07211613022D

 36 39  0     0  0  0  0  0  0999 V2000
    3.6682   -2.0793    0.0000 F   0  0  0  0  0  0  0  0  0  0  0  0
    2.8836   -2.8836    0.0000 F   0  0  0  0  0  0  0  0  0  0  0  0
    2.0989   -2.0793    0.0000 F   0  0  0  0  0  0  0  0  0  0  0  0
   -3.5702    0.0000    0.0000 O   0  0  0  0  0  0  0  0  0  0  0  0
    0.7258    0.0000    0.0000 O   0  0  0  0  0  0  0  0  0  0  0  0
   -5.0021    2.4913    0.0000 O   0  0  0  0  0  0  0  0  0  0  0  0
   -2.1381    0.0000    0.0000 N   0  0  0  0  0  0  0  0  0  0  0  0
   -3.5702    1.6478    0.0000 N   0  0  0  0  0  0  0  0  0  0  0  0
    1.4320    1.2358    0.0000 N   0  0  0  0  0  0  0  0  0  0  0  0
   -1.4124    1.2555    0.0000 C   0  0  0  0  0  0  0  0  0  0  0  0
   -0.7062    1.6674    0.0000 C   0  0  0  0  0  0  0  0  0  0  0  0
   -2.8444    1.2555    0.0000 C   0  0  0  0  0  0  0  0  0  0  0  0
   -2.8444    0.4316    0.0000 C   0  0  0  0  0  0  0  0  0  0  0  0
   -2.1381    1.6478    0.0000 C   0  0  0  0  0  0  0  0  0  0  0  0
    2.8640   -1.2162    0.0000 C   0  0  0  0  0  0  0  0  0  0  0  0
   -1.4320    0.3923    0.0000 C   0  0  0  0  0  0  0  0  0  0  0  0
   -0.6865    2.4913    0.0000 C   0  0  0  0  0  0  0  0  0  0  0  0
    2.1577    0.0000    0.0000 C   0  0  0  0  0  0  0  0  0  0  0  0
    0.7062    1.6674    0.0000 C   0  0  0  0  0  0  0  0  0  0  0  0
    0.0196    1.2555    0.0000 C   0  0  0  0  0  0  0  0  0  0  0  0
    2.8640   -2.0793    0.0000 C   0  0  0  0  0  0  0  0  0  0  0  0
    3.5898   -0.8239    0.0000 C   0  0  0  0  0  0  0  0  0  0  0  0
    2.1773   -0.8239    0.0000 C   0  0  0  0  0  0  0  0  0  0  0  0
    1.4516    0.4316    0.0000 C   0  0  0  0  0  0  0  0  0  0  0  0
   -0.0196    2.8836    0.0000 C   0  0  0  0  0  0  0  0  0  0  0  0
    0.7258    2.4717    0.0000 C   0  0  0  0  0  0  0  0  0  0  0  0
    2.8836    0.3923    0.0000 C   0  0  0  0  0  0  0  0  0  0  0  0
    3.5702    0.0000    0.0000 C   0  0  0  0  0  0  0  0  0  0  0  0
   -3.5702    2.4717    0.0000 C   0  0  0  0  0  0  0  0  0  0  0  0
   -4.2764    1.2358    0.0000 C   0  0  0  0  0  0  0  0  0  0  0  0
    4.3156   -1.2358    0.0000 C   0  0  0  0  0  0  0  0  0  0  0  0
   -2.1185   -0.8631    0.0000 C   0  0  0  0  0  0  0  0  0  0  0  0
   -1.4320    2.8836    0.0000 C   0  0  0  0  0  0  0  0  0  0  0  0
   -4.3156    2.8836    0.0000 C   0  0  0  0  0  0  0  0  0  0  0  0
   -5.0021    1.6478    0.0000 C   0  0  0  0  0  0  0  0  0  0  0  0
    5.0021   -0.7650    0.0000 C   0  0  0  0  0  0  0  0  0  0  0  0
  1 21  1  0  0  0  0
  2 21  1  0  0  0  0
  3 21  1  0  0  0  0
  4 13  2  0  0  0  0
  5 24  2  0  0  0  0
  6 34  1  0  0  0  0
  6 35  1  0  0  0  0
  7 13  1  0  0  0  0
  7 16  1  0  0  0  0
  7 32  1  0  0  0  0
  8 12  1  0  0  0  0
  8 29  1  0  0  0  0
  8 30  1  0  0  0  0
  9 19  1  0  0  0  0
  9 24  1  0  0  0  0
 10 11  1  0  0  0  0
 10 14  1  0  0  0  0
 10 16  2  0  0  0  0
 11 17  1  0  0  0  0
 11 20  2  0  0  0  0
 12 13  1  0  0  0  0
 12 14  2  0  0  0  0
 15 21  1  0  0  0  0
 15 22  2  0  0  0  0
 15 23  1  0  0  0  0
 17 25  2  0  0  0  0
 17 33  1  0  0  0  0
 18 23  2  0  0  0  0
 18 24  1  0  0  0  0
 18 27  1  0  0  0  0
 19 20  1  0  0  0  0
 19 26  2  0  0  0  0
 22 28  1  0  0  0  0
 22 31  1  0  0  0  0
 25 26  1  0  0  0  0
 27 28  2  0  0  0  0
 29 34  1  0  0  0  0
 30 35  1  0  0  0  0
 31 36  2  0  0  0  0
M  END
> <PUBCHEM_COMPOUND_ID_TYPE>
0

> <PUBCHEM_TOTAL_CHARGE>
0

> <PUBCHEM_SUBSTANCE_ID>
310943191

> <PUBCHEM_SUBSTANCE_VERSION>
1

> <PUBCHEM_EXT_DATASOURCE_NAME>
4488

> <PUBCHEM_EXT_DATASOURCE_REGID>
SCHEMBL16121252

> <PUBCHEM_SUBSTANCE_COMMENT>
InChI=1S/C27H26F3N3O3/c1-4-18-6-7-19(13-23(18)27(28,29)30)25(34)31-21-8-5-17(2)22(15-21)20-14-24(26(35)32(3)16-20)33-9-11-36-12-10-33/h4-8,13-16H,1,9-12H2,2-3H3,(H,31,34)
InChIKey=OFHLEBFYRWWPGN-UHFFFAOYSA-N

> <PUBCHEM_SUBSTANCE_SYNONYM>
SCHEMBL16121252

> <PUBCHEM_XREF_EXT_ID>
SCHEMBL16121252

> <PUBCHEM_EXT_DATASOURCE_URL>
https://www.surechembl.org/

> <PUBCHEM_EXT_SUBSTANCE_URL>
https://www.surechembl.org/chemical/SCHEMBL16121252

> <PUBCHEM_CID_ASSOCIATIONS>
117609619  1

> <PUBCHEM_COORDINATE_TYPE>
1
3

$$$$
