310945359
  -OEChem-07211613022D

 27 29  0     0  0  0  0  0  0999 V2000
   -0.9009    1.4134    0.0000 Cl  0  0  0  0  0  0  0  0  0  0  0  0
    0.9670    2.1077    0.0000 F   0  0  0  0  0  0  0  0  0  0  0  0
    2.2399    2.0912    0.0000 F   0  0  0  0  0  0  0  0  0  0  0  0
    2.3059    1.3803    0.0000 F   0  0  0  0  0  0  0  0  0  0  0  0
    2.3059   -1.8266    0.0000 F   0  0  0  0  0  0  0  0  0  0  0  0
    3.4467   -0.7026    0.0000 F   0  0  0  0  0  0  0  0  0  0  0  0
    2.8185   -2.1077    0.0000 F   0  0  0  0  0  0  0  0  0  0  0  0
    0.2562    0.5373    0.0000 N   0  0  0  0  0  0  0  0  0  0  0  0
    2.2068    0.2397    0.0000 N   0  0  0  0  0  0  0  0  0  0  0  0
    0.2232   -0.9670    0.0000 N   0  0  0  0  0  0  0  0  0  0  0  0
    1.5456   -1.1654    0.0000 N   0  0  0  0  0  0  0  0  0  0  0  0
   -3.0664   -0.1901    0.0000 N   0  0  0  0  0  0  0  0  0  0  0  0
    0.9504    0.2232    0.0000 C   0  0  0  0  0  0  0  0  0  0  0  0
    1.5787    0.6861    0.0000 C   0  0  0  0  0  0  0  0  0  0  0  0
    0.9009   -0.7026    0.0000 C   0  0  0  0  0  0  0  0  0  0  0  0
   -0.1901   -0.2397    0.0000 C   0  0  0  0  0  0  0  0  0  0  0  0
    2.1737   -0.7190    0.0000 C   0  0  0  0  0  0  0  0  0  0  0  0
    1.6117    1.6117    0.0000 C   0  0  0  0  0  0  0  0  0  0  0  0
   -0.9009   -0.2232    0.0000 C   0  0  0  0  0  0  0  0  0  0  0  0
    2.8185   -1.2150    0.0000 C   0  0  0  0  0  0  0  0  0  0  0  0
   -1.2646    0.5869    0.0000 C   0  0  0  0  0  0  0  0  0  0  0  0
   -1.2811   -1.0166    0.0000 C   0  0  0  0  0  0  0  0  0  0  0  0
   -1.9589    0.5869    0.0000 C   0  0  0  0  0  0  0  0  0  0  0  0
   -2.3391   -0.2067    0.0000 C   0  0  0  0  0  0  0  0  0  0  0  0
   -1.9920   -1.0166    0.0000 C   0  0  0  0  0  0  0  0  0  0  0  0
   -3.4467   -0.9836    0.0000 C   0  0  0  0  0  0  0  0  0  0  0  0
   -3.4136    0.6199    0.0000 C   0  0  0  0  0  0  0  0  0  0  0  0
  1 21  1  0  0  0  0
  2 18  1  0  0  0  0
  3 18  1  0  0  0  0
  4 18  1  0  0  0  0
  5 20  1  0  0  0  0
  6 20  1  0  0  0  0
  7 20  1  0  0  0  0
  8 13  1  0  0  0  0
  8 16  2  0  0  0  0
  9 14  2  0  0  0  0
  9 17  1  0  0  0  0
 10 15  1  0  0  0  0
 10 16  1  0  0  0  0
 11 15  1  0  0  0  0
 11 17  2  0  0  0  0
 12 24  1  0  0  0  0
 12 26  1  0  0  0  0
 12 27  1  0  0  0  0
 13 14  1  0  0  0  0
 13 15  2  0  0  0  0
 14 18  1  0  0  0  0
 16 19  1  0  0  0  0
 17 20  1  0  0  0  0
 19 21  2  0  0  0  0
 19 22  1  0  0  0  0
 21 23  1  0  0  0  0
 22 25  2  0  0  0  0
 23 24  2  0  0  0  0
 24 25  1  0  0  0  0
M  END
> <PUBCHEM_COMPOUND_ID_TYPE>
0

> <PUBCHEM_TOTAL_CHARGE>
0

> <PUBCHEM_SUBSTANCE_ID>
310945359

> <PUBCHEM_SUBSTANCE_VERSION>
1

> <PUBCHEM_EXT_DATASOURCE_NAME>
4488

> <PUBCHEM_EXT_DATASOURCE_REGID>
SCHEMBL16123457

> <PUBCHEM_SUBSTANCE_COMMENT>
InChI=1S/C15H10ClF6N5/c1-27(2)6-3-4-7(8(16)5-6)11-23-9-10(14(17,18)19)24-13(15(20,21)22)26-12(9)25-11/h3-5H,1-2H3,(H,23,24,25,26)
InChIKey=KRTMMOXFKNHISX-UHFFFAOYSA-N

> <PUBCHEM_SUBSTANCE_SYNONYM>
SCHEMBL16123457

> <PUBCHEM_XREF_EXT_ID>
SCHEMBL16123457

> <PUBCHEM_EXT_DATASOURCE_URL>
https://www.surechembl.org/

> <PUBCHEM_EXT_SUBSTANCE_URL>
https://www.surechembl.org/chemical/SCHEMBL16123457

> <PUBCHEM_CID_ASSOCIATIONS>
117611417  1

> <PUBCHEM_COORDINATE_TYPE>
1
3

$$$$
