310945803
  -OEChem-07211613022D

 37 40  0     1  0  0  0  0  0999 V2000
    3.6507    1.4478    0.0000 O   0  0  0  0  0  0  0  0  0  0  0  0
    1.3924    1.4478    0.0000 O   0  0  0  0  0  0  0  0  0  0  0  0
    0.6720    1.0322    0.0000 O   0  0  0  0  0  0  0  0  0  0  0  0
   -0.0485    1.4478    0.0000 O   0  0  0  0  0  0  0  0  0  0  0  0
   -2.2099    2.6947    0.0000 O   0  0  0  0  0  0  0  0  0  0  0  0
   -2.9303   -2.6947    0.0000 O   0  0  0  0  0  0  0  0  0  0  0  0
    1.3924   -0.2009    0.0000 N   0  0  0  0  0  0  0  0  0  0  0  0
   -0.7689    0.2148    0.0000 N   0  0  0  0  0  0  0  0  0  0  0  0
   -2.2099    1.0460    0.0000 N   0  0  3  0  0  0  0  0  0  0  0  0
    2.8472    1.4616    0.0000 C   0  0  3  0  0  0  0  0  0  0  0  0
    2.0851    0.9906    0.0000 C   0  0  0  0  0  0  0  0  0  0  0  0
    3.2628    0.7689    0.0000 C   0  0  0  0  0  0  0  0  0  0  0  0
    2.0990    0.2148    0.0000 C   0  0  3  0  0  0  0  0  0  0  0  0
    2.8333    2.2930    0.0000 C   0  0  0  0  0  0  0  0  0  0  0  0
    2.8195   -0.1871    0.0000 C   0  0  0  0  0  0  0  0  0  0  0  0
    0.6720    0.2009    0.0000 C   0  0  0  0  0  0  0  0  0  0  0  0
   -0.0346   -0.1871    0.0000 C   0  0  3  0  0  0  0  0  0  0  0  0
    2.8333   -1.0322    0.0000 C   0  0  0  0  0  0  0  0  0  0  0  0
   -0.7412    1.0045    0.0000 C   0  0  0  0  0  0  0  0  0  0  0  0
   -1.4894    1.4616    0.0000 C   0  0  3  0  0  0  0  0  0  0  0  0
   -0.0208   -1.0322    0.0000 C   0  0  0  0  0  0  0  0  0  0  0  0
   -0.7551   -1.4478    0.0000 C   0  0  0  0  0  0  0  0  0  0  0  0
    3.5399   -1.4478    0.0000 C   0  0  0  0  0  0  0  0  0  0  0  0
    2.1128   -1.4478    0.0000 C   0  0  0  0  0  0  0  0  0  0  0  0
   -1.4756    2.2930    0.0000 C   0  0  0  0  0  0  0  0  0  0  0  0
   -1.5033   -1.0460    0.0000 C   0  0  0  0  0  0  0  0  0  0  0  0
   -0.7689   -2.2653    0.0000 C   0  0  0  0  0  0  0  0  0  0  0  0
   -2.9164    1.4616    0.0000 C   0  0  0  0  0  0  0  0  0  0  0  0
   -2.2099   -2.2653    0.0000 C   0  0  0  0  0  0  0  0  0  0  0  0
   -2.1960   -1.4478    0.0000 C   0  0  0  0  0  0  0  0  0  0  0  0
   -1.4756   -2.6809    0.0000 C   0  0  0  0  0  0  0  0  0  0  0  0
    3.5399   -2.2653    0.0000 C   0  0  0  0  0  0  0  0  0  0  0  0
    2.1128   -2.2653    0.0000 C   0  0  0  0  0  0  0  0  0  0  0  0
   -2.9164    2.2930    0.0000 C   0  0  0  0  0  0  0  0  0  0  0  0
   -2.1822    0.2009    0.0000 C   0  0  0  0  0  0  0  0  0  0  0  0
    2.8472   -2.6809    0.0000 C   0  0  0  0  0  0  0  0  0  0  0  0
   -3.6507   -2.2930    0.0000 C   0  0  0  0  0  0  0  0  0  0  0  0
  1 10  1  0  0  0  0
  1 12  1  0  0  0  0
  2 11  2  0  0  0  0
  3 16  2  0  0  0  0
  4 19  2  0  0  0  0
  5 25  1  0  0  0  0
  5 34  1  0  0  0  0
  6 29  1  0  0  0  0
  6 37  1  0  0  0  0
 13  7  1  6  0  0  0
  7 16  1  0  0  0  0
 17  8  1  6  0  0  0
  8 19  1  0  0  0  0
  9 20  1  0  0  0  0
  9 28  1  0  0  0  0
  9 35  1  0  0  0  0
 10 11  1  6  0  0  0
 10 12  1  0  0  0  0
 10 14  1  1  0  0  0
 11 13  1  0  0  0  0
 13 15  1  0  0  0  0
 15 18  1  0  0  0  0
 16 17  1  0  0  0  0
 17 21  1  0  0  0  0
 18 23  2  0  0  0  0
 18 24  1  0  0  0  0
 20 19  1  6  0  0  0
 20 25  1  0  0  0  0
 21 22  1  0  0  0  0
 22 26  2  0  0  0  0
 22 27  1  0  0  0  0
 23 32  1  0  0  0  0
 24 33  2  0  0  0  0
 26 30  1  0  0  0  0
 27 31  2  0  0  0  0
 28 34  1  0  0  0  0
 29 30  2  0  0  0  0
 29 31  1  0  0  0  0
 32 36  2  0  0  0  0
 33 36  1  0  0  0  0
M  END
> <PUBCHEM_COMPOUND_ID_TYPE>
0

> <PUBCHEM_TOTAL_CHARGE>
0

> <PUBCHEM_SUBSTANCE_ID>
310945803

> <PUBCHEM_SUBSTANCE_VERSION>
1

> <PUBCHEM_EXT_DATASOURCE_NAME>
4488

> <PUBCHEM_EXT_DATASOURCE_REGID>
SCHEMBL16123907

> <PUBCHEM_SUBSTANCE_COMMENT>
InChI=1S/C28H35N3O6/c1-28(18-37-28)25(32)22(15-19-7-5-4-6-8-19)29-26(33)23(16-20-9-11-21(35-3)12-10-20)30-27(34)24-17-36-14-13-31(24)2/h4-12,22-24H,13-18H2,1-3H3,(H,29,33)(H,30,34)/t22-,23-,24+,28+/m0/s1
InChIKey=XBVORFYMMPYXQK-FLSMRUOLSA-N

> <PUBCHEM_SUBSTANCE_SYNONYM>
SCHEMBL16123907

> <PUBCHEM_XREF_EXT_ID>
SCHEMBL16123907

> <PUBCHEM_EXT_DATASOURCE_URL>
https://www.surechembl.org/

> <PUBCHEM_EXT_SUBSTANCE_URL>
https://www.surechembl.org/chemical/SCHEMBL16123907

> <PUBCHEM_CID_ASSOCIATIONS>
117611790  1

> <PUBCHEM_COORDINATE_TYPE>
1
3

> <PUBCHEM_BONDANNOTATIONS>
10  11  6
10  14  5
20  19  6
13  7  6
17  8  6

$$$$
