310946709
  -OEChem-07211613022D

 16 17  0     1  0  0  0  0  0999 V2000
   -3.0308   -0.1330    0.0000 Br  0  0  0  0  0  0  0  0  0  0  0  0
    3.0308   -1.3492    0.0000 F   0  0  0  0  0  0  0  0  0  0  0  0
    0.9026    1.0831    0.0000 O   0  0  0  0  0  0  0  0  0  0  0  0
    1.1116   -0.3610    0.0000 N   0  0  0  0  0  0  0  0  0  0  0  0
   -0.2375    0.2090    0.0000 C   0  0  0  0  0  0  0  0  0  0  0  0
    0.5796    0.2850    0.0000 C   0  0  0  0  0  0  0  0  0  0  0  0
   -0.7506    0.8361    0.0000 C   0  0  0  0  0  0  0  0  0  0  0  0
    1.9477   -0.3801    0.0000 C   0  0  0  0  0  0  0  0  0  0  0  0
   -0.5606   -0.5891    0.0000 C   0  0  0  0  0  0  0  0  0  0  0  0
    0.8836   -1.1781    0.0000 C   0  0  0  0  0  0  0  0  0  0  0  0
    2.2138   -1.1022    0.0000 C   0  0  3  0  0  0  0  0  0  0  0  0
   -1.5677    0.7221    0.0000 C   0  0  0  0  0  0  0  0  0  0  0  0
   -1.8907   -0.0380    0.0000 C   0  0  0  0  0  0  0  0  0  0  0  0
    1.5867   -1.6342    0.0000 C   0  0  0  0  0  0  0  0  0  0  0  0
   -1.3777   -0.6841    0.0000 C   0  0  0  0  0  0  0  0  0  0  0  0
   -0.4275    1.6342    0.0000 C   0  0  0  0  0  0  0  0  0  0  0  0
  1 13  1  0  0  0  0
 11  2  1  6  0  0  0
  3  6  2  0  0  0  0
  4  6  1  0  0  0  0
  4  8  1  0  0  0  0
  4 10  1  0  0  0  0
  5  6  1  0  0  0  0
  5  7  1  0  0  0  0
  5  9  2  0  0  0  0
  7 12  2  0  0  0  0
  7 16  1  0  0  0  0
  8 11  1  0  0  0  0
  9 15  1  0  0  0  0
 10 14  1  0  0  0  0
 11 14  1  0  0  0  0
 12 13  1  0  0  0  0
 13 15  2  0  0  0  0
M  END
> <PUBCHEM_COMPOUND_ID_TYPE>
0

> <PUBCHEM_TOTAL_CHARGE>
0

> <PUBCHEM_SUBSTANCE_ID>
310946709

> <PUBCHEM_SUBSTANCE_VERSION>
1

> <PUBCHEM_EXT_DATASOURCE_NAME>
4488

> <PUBCHEM_EXT_DATASOURCE_REGID>
SCHEMBL16124833

> <PUBCHEM_SUBSTANCE_COMMENT>
InChI=1S/C12H13BrFNO/c1-8-6-9(13)2-3-11(8)12(16)15-5-4-10(14)7-15/h2-3,6,10H,4-5,7H2,1H3/t10-/m1/s1
InChIKey=CFXCZGDCVZCLDW-SNVBAGLBSA-N

> <PUBCHEM_SUBSTANCE_SYNONYM>
SCHEMBL16124833

> <PUBCHEM_XREF_EXT_ID>
SCHEMBL16124833

> <PUBCHEM_EXT_DATASOURCE_URL>
https://www.surechembl.org/

> <PUBCHEM_EXT_SUBSTANCE_URL>
https://www.surechembl.org/chemical/SCHEMBL16124833

> <PUBCHEM_CID_ASSOCIATIONS>
117612600  1

> <PUBCHEM_COORDINATE_TYPE>
1
3

> <PUBCHEM_BONDANNOTATIONS>
11  2  6

$$$$
