310945354
  -OEChem-07211613022D

 22 26  0     0  0  0  0  0  0999 V2000
   -3.1201    0.3033    0.0000 Cl  0  0  0  0  0  0  0  0  0  0  0  0
    2.6000    1.0184    0.0000 O   0  0  0  0  0  0  0  0  0  0  0  0
    0.2600   -0.5200    0.0000 N   0  0  0  0  0  0  0  0  0  0  0  0
    2.7518   -0.4333    0.0000 N   0  0  0  0  0  0  0  0  0  0  0  0
   -2.0801    1.5600    0.0000 N   0  0  0  0  0  0  0  0  0  0  0  0
    1.4300    0.1950    0.0000 C   0  0  0  0  0  0  0  0  0  0  0  0
    1.0834   -0.5851    0.0000 C   0  0  0  0  0  0  0  0  0  0  0  0
    2.4050   -1.1917    0.0000 C   0  0  0  0  0  0  0  0  0  0  0  0
    0.1083    0.3250    0.0000 C   0  0  0  0  0  0  0  0  0  0  0  0
    0.7801    0.7584    0.0000 C   0  0  0  0  0  0  0  0  0  0  0  0
    1.5600   -1.2567    0.0000 C   0  0  0  0  0  0  0  0  0  0  0  0
    2.2317    0.2600    0.0000 C   0  0  0  0  0  0  0  0  0  0  0  0
   -0.6501    0.7367    0.0000 C   0  0  0  0  0  0  0  0  0  0  0  0
    2.4917   -1.9934    0.0000 C   0  0  0  0  0  0  0  0  0  0  0  0
    3.1201   -1.5167    0.0000 C   0  0  0  0  0  0  0  0  0  0  0  0
   -0.6284    1.5817    0.0000 C   0  0  0  0  0  0  0  0  0  0  0  0
    0.8017    1.5600    0.0000 C   0  0  0  0  0  0  0  0  0  0  0  0
    0.0650    1.9934    0.0000 C   0  0  0  0  0  0  0  0  0  0  0  0
   -1.3433    0.3250    0.0000 C   0  0  0  0  0  0  0  0  0  0  0  0
   -0.2600   -1.1483    0.0000 C   0  0  0  0  0  0  0  0  0  0  0  0
   -1.3433    1.9934    0.0000 C   0  0  0  0  0  0  0  0  0  0  0  0
   -2.1018    0.7367    0.0000 C   0  0  0  0  0  0  0  0  0  0  0  0
  1 22  1  0  0  0  0
  2 12  2  0  0  0  0
  3  7  1  0  0  0  0
  3  9  1  0  0  0  0
  3 20  1  0  0  0  0
  4  8  1  0  0  0  0
  4 12  1  0  0  0  0
  5 21  1  0  0  0  0
  5 22  2  0  0  0  0
  6  7  2  0  0  0  0
  6 10  1  0  0  0  0
  6 12  1  0  0  0  0
  7 11  1  0  0  0  0
  8 11  1  0  0  0  0
  8 14  1  0  0  0  0
  8 15  1  0  0  0  0
  9 10  2  0  0  0  0
  9 13  1  0  0  0  0
 10 17  1  0  0  0  0
 13 16  1  0  0  0  0
 13 19  2  0  0  0  0
 14 15  1  0  0  0  0
 16 18  1  0  0  0  0
 16 21  2  0  0  0  0
 17 18  1  0  0  0  0
 19 22  1  0  0  0  0
M  END
> <PUBCHEM_COMPOUND_ID_TYPE>
0

> <PUBCHEM_TOTAL_CHARGE>
0

> <PUBCHEM_SUBSTANCE_ID>
310945354

> <PUBCHEM_SUBSTANCE_VERSION>
1

> <PUBCHEM_EXT_DATASOURCE_NAME>
4488

> <PUBCHEM_EXT_DATASOURCE_REGID>
SCHEMBL16123452

> <PUBCHEM_SUBSTANCE_COMMENT>
InChI=1S/C17H16ClN3O/c1-21-12-7-17(4-5-17)20-16(22)14(12)10-3-2-9-8-19-13(18)6-11(9)15(10)21/h6,8H,2-5,7H2,1H3,(H,20,22)
InChIKey=KZUIHQDMHNCWBC-UHFFFAOYSA-N

> <PUBCHEM_SUBSTANCE_SYNONYM>
SCHEMBL16123452

> <PUBCHEM_XREF_EXT_ID>
SCHEMBL16123452

> <PUBCHEM_EXT_DATASOURCE_URL>
https://www.surechembl.org/

> <PUBCHEM_EXT_SUBSTANCE_URL>
https://www.surechembl.org/chemical/SCHEMBL16123452

> <PUBCHEM_CID_ASSOCIATIONS>
117611413  1

> <PUBCHEM_COORDINATE_TYPE>
1
3

$$$$
