310935364
  -OEChem-07211613022D

 28 31  0     0  0  0  0  0  0999 V2000
    0.7431   -2.8941    0.0000 Cl  0  0  0  0  0  0  0  0  0  0  0  0
    1.0560   -0.5867    0.0000 S   0  0  0  0  0  0  0  0  0  0  0  0
    1.6817   -0.0391    0.0000 O   0  0  0  0  0  0  0  0  0  0  0  0
    0.5084    0.0000    0.0000 O   0  0  0  0  0  0  0  0  0  0  0  0
    3.0114   -1.6035    0.0000 N   0  0  0  0  0  0  0  0  0  0  0  0
    4.1847   -2.2683    0.0000 N   0  0  0  0  0  0  0  0  0  0  0  0
    3.8328   -1.4862    0.0000 N   0  0  0  0  0  0  0  0  0  0  0  0
    0.7431   -6.1793    0.0000 N   0  0  0  0  0  0  0  0  0  0  0  0
    0.0391   -4.9278    0.0000 N   0  0  0  0  0  0  0  0  0  0  0  0
    0.4693   -1.1733    0.0000 N   0  0  0  0  0  0  0  0  0  0  0  0
    2.8550   -2.4248    0.0000 C   0  0  0  0  0  0  0  0  0  0  0  0
    2.1510   -3.6763    0.0000 C   0  0  0  0  0  0  0  0  0  0  0  0
    3.5981   -2.8550    0.0000 C   0  0  0  0  0  0  0  0  0  0  0  0
    1.4471   -4.1065    0.0000 C   0  0  0  0  0  0  0  0  0  0  0  0
    2.1510   -2.8941    0.0000 C   0  0  0  0  0  0  0  0  0  0  0  0
    2.9332   -4.1065    0.0000 C   0  0  0  0  0  0  0  0  0  0  0  0
    0.7431   -3.7154    0.0000 C   0  0  0  0  0  0  0  0  0  0  0  0
    3.5981   -3.6763    0.0000 C   0  0  0  0  0  0  0  0  0  0  0  0
    1.4862   -4.9278    0.0000 C   0  0  0  0  0  0  0  0  0  0  0  0
    0.7431   -5.3581    0.0000 C   0  0  0  0  0  0  0  0  0  0  0  0
    2.4248   -1.0168    0.0000 C   0  0  0  0  0  0  0  0  0  0  0  0
    0.0000   -4.1065    0.0000 C   0  0  0  0  0  0  0  0  0  0  0  0
    1.6426   -1.2124    0.0000 C   0  0  0  0  0  0  0  0  0  0  0  0
    1.4862   -6.5705    0.0000 C   0  0  0  0  0  0  0  0  0  0  0  0
    0.0391   -6.5705    0.0000 C   0  0  0  0  0  0  0  0  0  0  0  0
    1.4862   -7.3918    0.0000 C   0  0  0  0  0  0  0  0  0  0  0  0
    0.0391   -7.3918    0.0000 C   0  0  0  0  0  0  0  0  0  0  0  0
    0.7431   -7.8219    0.0000 C   0  0  0  0  0  0  0  0  0  0  0  0
  1 17  1  0  0  0  0
  2  3  2  0  0  0  0
  2  4  2  0  0  0  0
  2 10  1  0  0  0  0
  2 23  1  0  0  0  0
  5  7  1  0  0  0  0
  5 11  1  0  0  0  0
  5 21  1  0  0  0  0
  6  7  2  0  0  0  0
  6 13  1  0  0  0  0
  8 20  1  0  0  0  0
  8 24  1  0  0  0  0
  8 25  1  0  0  0  0
  9 20  1  0  0  0  0
  9 22  2  0  0  0  0
 11 13  2  0  0  0  0
 11 15  1  0  0  0  0
 12 14  1  0  0  0  0
 12 15  2  0  0  0  0
 12 16  1  0  0  0  0
 13 18  1  0  0  0  0
 14 17  2  0  0  0  0
 14 19  1  0  0  0  0
 16 18  2  0  0  0  0
 17 22  1  0  0  0  0
 19 20  2  0  0  0  0
 21 23  1  0  0  0  0
 24 26  1  0  0  0  0
 25 27  1  0  0  0  0
 26 28  1  0  0  0  0
 27 28  1  0  0  0  0
M  END
> <PUBCHEM_COMPOUND_ID_TYPE>
0

> <PUBCHEM_TOTAL_CHARGE>
0

> <PUBCHEM_SUBSTANCE_ID>
310935364

> <PUBCHEM_SUBSTANCE_VERSION>
1

> <PUBCHEM_EXT_DATASOURCE_NAME>
4488

> <PUBCHEM_EXT_DATASOURCE_REGID>
SCHEMBL16112903

> <PUBCHEM_SUBSTANCE_COMMENT>
InChI=1S/C18H21ClN6O2S/c19-15-12-21-18(24-6-2-1-3-7-24)11-14(15)13-4-5-16-17(10-13)25(23-22-16)8-9-28(20,26)27/h4-5,10-12H,1-3,6-9H2,(H2,20,26,27)
InChIKey=KFLRGGFZSODPJI-UHFFFAOYSA-N

> <PUBCHEM_SUBSTANCE_SYNONYM>
SCHEMBL16112903

> <PUBCHEM_XREF_EXT_ID>
SCHEMBL16112903

> <PUBCHEM_EXT_DATASOURCE_URL>
https://www.surechembl.org/

> <PUBCHEM_EXT_SUBSTANCE_URL>
https://www.surechembl.org/chemical/SCHEMBL16112903

> <PUBCHEM_CID_ASSOCIATIONS>
117603418  1

> <PUBCHEM_COORDINATE_TYPE>
1
3

$$$$
