310945740
  -OEChem-07211613022D

 33 36  0     1  0  0  0  0  0999 V2000
   -0.3188   -0.0617    0.0000 I   0  0  0  0  0  0  0  0  0  0  0  0
    0.5245    2.7147    0.0000 F   0  0  0  0  0  0  0  0  0  0  0  0
    0.8329    1.6452    0.0000 F   0  0  0  0  0  0  0  0  0  0  0  0
   -0.2365    1.3573    0.0000 F   0  0  0  0  0  0  0  0  0  0  0  0
   -2.0258   -2.5707    0.0000 O   0  0  0  0  0  0  0  0  0  0  0  0
    1.2442   -0.1439    0.0000 O   0  0  0  0  0  0  0  0  0  0  0  0
    2.5398   -0.5964    0.0000 O   0  0  0  0  0  0  0  0  0  0  0  0
   -1.3059   -1.3573    0.0000 N   0  0  0  0  0  0  0  0  0  0  0  0
    0.1954   -2.3445    0.0000 N   0  0  0  0  0  0  0  0  0  0  0  0
   -0.5655   -3.4139    0.0000 N   0  0  0  0  0  0  0  0  0  0  0  0
    0.1954   -3.6813    0.0000 N   0  0  0  0  0  0  0  0  0  0  0  0
   -0.8946   -0.0822    0.0000 C   0  0  3  0  0  0  0  0  0  0  0  0
   -1.6967   -0.0617    0.0000 C   0  0  3  0  0  0  0  0  0  0  0  0
   -1.3059    1.1928    0.0000 C   0  0  3  0  0  0  0  0  0  0  0  0
   -0.6478    0.7198    0.0000 C   0  0  0  0  0  0  0  0  0  0  0  0
   -0.6272   -0.8638    0.0000 C   0  0  0  0  0  0  0  0  0  0  0  0
   -1.9435    0.7198    0.0000 C   0  0  0  0  0  0  0  0  0  0  0  0
   -1.9640   -0.8432    0.0000 C   0  0  0  0  0  0  0  0  0  0  0  0
   -1.2854    2.0771    0.0000 C   0  0  0  0  0  0  0  0  0  0  0  0
   -1.3059   -2.1594    0.0000 C   0  0  0  0  0  0  0  0  0  0  0  0
   -0.5655    2.4679    0.0000 C   0  0  0  0  0  0  0  0  0  0  0  0
   -0.5450   -2.5707    0.0000 C   0  0  0  0  0  0  0  0  0  0  0  0
    0.1337    2.0360    0.0000 C   0  0  0  0  0  0  0  0  0  0  0  0
   -1.9846    2.4679    0.0000 C   0  0  0  0  0  0  0  0  0  0  0  0
   -0.5450    3.2494    0.0000 C   0  0  0  0  0  0  0  0  0  0  0  0
    0.6684   -2.9821    0.0000 C   0  0  0  0  0  0  0  0  0  0  0  0
    0.5655   -1.5630    0.0000 C   0  0  0  0  0  0  0  0  0  0  0  0
    1.3882   -1.5013    0.0000 C   0  0  0  0  0  0  0  0  0  0  0  0
   -1.9640    3.3111    0.0000 C   0  0  0  0  0  0  0  0  0  0  0  0
   -1.2854    3.6813    0.0000 C   0  0  0  0  0  0  0  0  0  0  0  0
    1.5116   -2.9204    0.0000 C   0  0  0  0  0  0  0  0  0  0  0  0
    1.8612   -2.1594    0.0000 C   0  0  0  0  0  0  0  0  0  0  0  0
    1.7172   -0.7198    0.0000 C   0  0  0  0  0  0  0  0  0  0  0  0
 12  1  1  6  0  0  0
  2 23  1  0  0  0  0
  3 23  1  0  0  0  0
  4 23  1  0  0  0  0
  5 20  2  0  0  0  0
  6 33  2  0  0  0  0
  7 33  1  0  0  0  0
  8 16  1  0  0  0  0
  8 18  1  0  0  0  0
  8 20  1  0  0  0  0
  9 22  1  0  0  0  0
  9 26  1  0  0  0  0
  9 27  1  0  0  0  0
 10 22  2  3  0  0  0
 11 26  2  3  0  0  0
 12 13  1  0  0  0  0
 12 15  1  0  0  0  0
 12 16  1  0  0  0  0
 13 17  1  1  0  0  0
 13 18  1  0  0  0  0
 14 15  1  0  0  0  0
 14 17  1  1  0  0  0
 14 19  1  0  0  0  0
 19 21  2  0  0  0  0
 19 24  1  0  0  0  0
 20 22  1  0  0  0  0
 21 23  1  0  0  0  0
 21 25  1  0  0  0  0
 24 29  2  0  0  0  0
 25 30  2  0  0  0  0
 26 31  1  0  0  0  0
 27 28  2  0  0  0  0
 28 32  1  0  0  0  0
 28 33  1  0  0  0  0
 29 30  1  0  0  0  0
 31 32  2  0  0  0  0
M  END
> <PUBCHEM_COMPOUND_ID_TYPE>
0

> <PUBCHEM_TOTAL_CHARGE>
0

> <PUBCHEM_SUBSTANCE_ID>
310945740

> <PUBCHEM_SUBSTANCE_VERSION>
1

> <PUBCHEM_EXT_DATASOURCE_NAME>
4488

> <PUBCHEM_EXT_DATASOURCE_REGID>
SCHEMBL16123844

> <PUBCHEM_SUBSTANCE_COMMENT>
InChI=1S/C22H20F3IN4O3/c23-22(24,25)16-4-2-1-3-15(16)13-7-14-10-29(11-21(14,26)8-13)19(31)18(28)30-9-12(20(32)33)5-6-17(30)27/h1-6,9,13-14,27-28H,7-8,10-11H2,(H,32,33)/t13-,14-,21-/m1/s1
InChIKey=IFOOXZWRICSUFG-ZMOMAAQPSA-N

> <PUBCHEM_SUBSTANCE_SYNONYM>
SCHEMBL16123844

> <PUBCHEM_XREF_EXT_ID>
SCHEMBL16123844

> <PUBCHEM_EXT_DATASOURCE_URL>
https://www.surechembl.org/

> <PUBCHEM_EXT_SUBSTANCE_URL>
https://www.surechembl.org/chemical/SCHEMBL16123844

> <PUBCHEM_CID_ASSOCIATIONS>
117611734  1

> <PUBCHEM_COORDINATE_TYPE>
1
3

> <PUBCHEM_BONDANNOTATIONS>
12  1  6
13  17  5
14  17  5

$$$$
