310932805
  -OEChem-07211613022D

 32 35  0     1  0  0  0  0  0999 V2000
    8.2649   -0.6134    0.0000 F   0  0  0  0  0  0  0  0  0  0  0  0
    5.9081   -1.9694    0.0000 O   0  0  0  0  0  0  0  0  0  0  0  0
    1.7757   -3.6805    0.0000 O   0  0  0  0  0  0  0  0  0  0  0  0
    5.5207   -3.3577    0.0000 N   0  0  0  0  0  0  0  0  0  0  0  0
    5.9405   -4.0679    0.0000 N   0  0  0  0  0  0  0  0  0  0  0  0
    4.2616   -3.9388    0.0000 N   0  0  0  0  0  0  0  0  0  0  0  0
    1.9371   -2.2600    0.0000 N   0  0  0  0  0  0  0  0  0  0  0  0
    1.2914   -0.7425    0.0000 N   0  0  3  0  0  0  0  0  0  0  0  0
    9.6855   -0.6134    0.0000 N   0  0  0  0  0  0  0  0  0  0  0  0
    6.8444   -3.0993    0.0000 C   0  0  0  0  0  0  0  0  0  0  0  0
    6.0696   -2.7442    0.0000 C   0  0  0  0  0  0  0  0  0  0  0  0
    7.5547   -2.6796    0.0000 C   0  0  0  0  0  0  0  0  0  0  0  0
    4.7136   -3.2608    0.0000 C   0  0  0  0  0  0  0  0  0  0  0  0
    7.5547   -1.8403    0.0000 C   0  0  0  0  0  0  0  0  0  0  0  0
    6.7476   -3.9065    0.0000 C   0  0  0  0  0  0  0  0  0  0  0  0
    8.2649   -1.4528    0.0000 C   0  0  0  0  0  0  0  0  0  0  0  0
    8.2649   -3.0993    0.0000 C   0  0  0  0  0  0  0  0  0  0  0  0
    3.0993   -3.0993    0.0000 C   0  0  0  0  0  0  0  0  0  0  0  0
    8.9752   -1.8403    0.0000 C   0  0  0  0  0  0  0  0  0  0  0  0
    4.3907   -2.5182    0.0000 C   0  0  0  0  0  0  0  0  0  0  0  0
    2.2600   -3.0025    0.0000 C   0  0  0  0  0  0  0  0  0  0  0  0
    8.9752   -2.6796    0.0000 C   0  0  0  0  0  0  0  0  0  0  0  0
    3.4222   -3.8742    0.0000 C   0  0  0  0  0  0  0  0  0  0  0  0
    3.5514   -2.4536    0.0000 C   0  0  0  0  0  0  0  0  0  0  0  0
    6.8444   -1.4528    0.0000 C   0  0  0  0  0  0  0  0  0  0  0  0
    1.1300   -2.1631    0.0000 C   0  0  0  0  0  0  0  0  0  0  0  0
    0.8071   -1.3882    0.0000 C   0  0  3  0  0  0  0  0  0  0  0  0
    2.4536   -1.6143    0.0000 C   0  0  0  0  0  0  0  0  0  0  0  0
    9.6855   -1.4528    0.0000 C   0  0  0  0  0  0  0  0  0  0  0  0
    2.1308   -0.8394    0.0000 C   0  0  0  0  0  0  0  0  0  0  0  0
    0.0000   -1.3237    0.0000 C   0  0  0  0  0  0  0  0  0  0  0  0
    0.9686    0.0000    0.0000 C   0  0  0  0  0  0  0  0  0  0  0  0
  1 16  1  0  0  0  0
  2 11  1  0  0  0  0
  3 21  2  0  0  0  0
  4  5  1  0  0  0  0
  4 11  1  0  0  0  0
  4 13  1  0  0  0  0
  5 15  2  0  0  0  0
  6 13  1  0  0  0  0
  6 23  2  0  0  0  0
  7 21  1  0  0  0  0
  7 26  1  0  0  0  0
  7 28  1  0  0  0  0
  8 27  1  0  0  0  0
  8 30  1  0  0  0  0
  8 32  1  0  0  0  0
  9 29  3  0  0  0  0
 10 11  2  0  0  0  0
 10 12  1  0  0  0  0
 10 15  1  0  0  0  0
 12 14  2  0  0  0  0
 12 17  1  0  0  0  0
 13 20  2  0  0  0  0
 14 16  1  0  0  0  0
 14 25  1  0  0  0  0
 16 19  2  0  0  0  0
 17 22  2  0  0  0  0
 18 21  1  0  0  0  0
 18 23  1  0  0  0  0
 18 24  2  0  0  0  0
 19 22  1  0  0  0  0
 19 29  1  0  0  0  0
 20 24  1  0  0  0  0
 26 27  1  0  0  0  0
 27 31  1  6  0  0  0
 28 30  1  0  0  0  0
M  END
> <PUBCHEM_COMPOUND_ID_TYPE>
0

> <PUBCHEM_TOTAL_CHARGE>
0

> <PUBCHEM_SUBSTANCE_ID>
310932805

> <PUBCHEM_SUBSTANCE_VERSION>
1

> <PUBCHEM_EXT_DATASOURCE_NAME>
4488

> <PUBCHEM_EXT_DATASOURCE_REGID>
SCHEMBL16110193

> <PUBCHEM_SUBSTANCE_COMMENT>
InChI=1S/C23H23FN6O2/c1-14-13-29(9-8-28(14)3)22(31)17-5-7-20(26-11-17)30-23(32)19(12-27-30)18-6-4-16(10-25)21(24)15(18)2/h4-7,11-12,14,32H,8-9,13H2,1-3H3/t14-/m0/s1
InChIKey=CUJIBKJJNSFQLB-AWEZNQCLSA-N

> <PUBCHEM_SUBSTANCE_SYNONYM>
SCHEMBL16110193

> <PUBCHEM_XREF_EXT_ID>
SCHEMBL16110193

> <PUBCHEM_EXT_DATASOURCE_URL>
https://www.surechembl.org/

> <PUBCHEM_EXT_SUBSTANCE_URL>
https://www.surechembl.org/chemical/SCHEMBL16110193

> <PUBCHEM_CID_ASSOCIATIONS>
117601295  1

> <PUBCHEM_COORDINATE_TYPE>
1
3

> <PUBCHEM_BONDANNOTATIONS>
27  31  6

$$$$
