310932800
  -OEChem-07211613022D

 27 29  0     0  0  0  0  0  0999 V2000
    3.9725   -2.7196    0.0000 O   0  0  0  0  0  0  0  0  0  0  0  0
    8.4339   -2.8113    0.0000 O   0  0  0  0  0  0  0  0  0  0  0  0
    4.8892   -1.5890    0.0000 N   0  0  0  0  0  0  0  0  0  0  0  0
    4.7976   -0.7640    0.0000 N   0  0  0  0  0  0  0  0  0  0  0  0
    6.2949   -1.5890    0.0000 N   0  0  0  0  0  0  0  0  0  0  0  0
    7.7311   -4.0336    0.0000 N   0  0  0  0  0  0  0  0  0  0  0  0
    0.0000   -2.4446    0.0000 N   0  0  0  0  0  0  0  0  0  0  0  0
    3.5752   -1.3140    0.0000 C   0  0  0  0  0  0  0  0  0  0  0  0
    4.1558   -1.9251    0.0000 C   0  0  0  0  0  0  0  0  0  0  0  0
    2.7808   -1.4056    0.0000 C   0  0  0  0  0  0  0  0  0  0  0  0
    5.5920   -1.9863    0.0000 C   0  0  0  0  0  0  0  0  0  0  0  0
    3.9725   -0.6112    0.0000 C   0  0  0  0  0  0  0  0  0  0  0  0
    2.2613   -0.7640    0.0000 C   0  0  0  0  0  0  0  0  0  0  0  0
    5.5920   -2.8113    0.0000 C   0  0  0  0  0  0  0  0  0  0  0  0
    2.4446   -2.1696    0.0000 C   0  0  0  0  0  0  0  0  0  0  0  0
    6.9977   -2.8113    0.0000 C   0  0  0  0  0  0  0  0  0  0  0  0
    1.4668   -0.8556    0.0000 C   0  0  0  0  0  0  0  0  0  0  0  0
    6.9977   -1.9863    0.0000 C   0  0  0  0  0  0  0  0  0  0  0  0
    6.2949   -3.2086    0.0000 C   0  0  0  0  0  0  0  0  0  0  0  0
    1.1306   -1.5890    0.0000 C   0  0  0  0  0  0  0  0  0  0  0  0
    1.6195   -2.2613    0.0000 C   0  0  0  0  0  0  0  0  0  0  0  0
    7.7311   -3.2086    0.0000 C   0  0  0  0  0  0  0  0  0  0  0  0
    2.5974    0.0000    0.0000 C   0  0  0  0  0  0  0  0  0  0  0  0
    0.3056   -1.6807    0.0000 C   0  0  0  0  0  0  0  0  0  0  0  0
    8.4339   -4.4614    0.0000 C   0  0  0  0  0  0  0  0  0  0  0  0
    9.1673   -4.0336    0.0000 C   0  0  0  0  0  0  0  0  0  0  0  0
    8.4339   -5.2559    0.0000 C   0  0  0  0  0  0  0  0  0  0  0  0
  1  9  1  0  0  0  0
  2 22  2  0  0  0  0
  3  4  1  0  0  0  0
  3  9  1  0  0  0  0
  3 11  1  0  0  0  0
  4 12  2  0  0  0  0
  5 11  2  0  0  0  0
  5 18  1  0  0  0  0
  6 22  1  0  0  0  0
  6 25  1  0  0  0  0
  7 24  3  0  0  0  0
  8  9  2  0  0  0  0
  8 10  1  0  0  0  0
  8 12  1  0  0  0  0
 10 13  1  0  0  0  0
 10 15  2  0  0  0  0
 11 14  1  0  0  0  0
 13 17  2  0  0  0  0
 13 23  1  0  0  0  0
 14 19  2  0  0  0  0
 15 21  1  0  0  0  0
 16 18  2  0  0  0  0
 16 19  1  0  0  0  0
 16 22  1  0  0  0  0
 17 20  1  0  0  0  0
 20 21  2  0  0  0  0
 20 24  1  0  0  0  0
 25 26  1  0  0  0  0
 25 27  1  0  0  0  0
M  END
> <PUBCHEM_COMPOUND_ID_TYPE>
0

> <PUBCHEM_TOTAL_CHARGE>
0

> <PUBCHEM_SUBSTANCE_ID>
310932800

> <PUBCHEM_SUBSTANCE_VERSION>
1

> <PUBCHEM_EXT_DATASOURCE_NAME>
4488

> <PUBCHEM_EXT_DATASOURCE_REGID>
SCHEMBL16110188

> <PUBCHEM_SUBSTANCE_COMMENT>
InChI=1S/C20H19N5O2/c1-12(2)24-19(26)15-5-7-18(22-10-15)25-20(27)17(11-23-25)16-6-4-14(9-21)8-13(16)3/h4-8,10-12,27H,1-3H3,(H,24,26)
InChIKey=OZDWBCXOKFUPQW-UHFFFAOYSA-N

> <PUBCHEM_SUBSTANCE_SYNONYM>
SCHEMBL16110188

> <PUBCHEM_XREF_EXT_ID>
SCHEMBL16110188

> <PUBCHEM_EXT_DATASOURCE_URL>
https://www.surechembl.org/

> <PUBCHEM_EXT_SUBSTANCE_URL>
https://www.surechembl.org/chemical/SCHEMBL16110188

> <PUBCHEM_CID_ASSOCIATIONS>
117601290  1

> <PUBCHEM_COORDINATE_TYPE>
1
3

$$$$
