310930277
  -OEChem-07211613022D

 10 10  0     0  0  0  0  0  0999 V2000
    3.3807    0.0000    0.0000 Br  0  0  0  0  0  0  0  0  0  0  0  0
    1.8049   -1.5327    0.0000 N   0  0  0  0  0  0  0  0  0  0  0  0
    1.8049   -2.3779    0.0000 C   0  0  0  0  0  0  0  0  0  0  0  0
    1.1747   -1.0027    0.0000 C   0  0  0  0  0  0  0  0  0  0  0  0
    2.5498   -1.1890    0.0000 C   0  0  0  0  0  0  0  0  0  0  0  0
    1.1747   -2.8650    0.0000 C   0  0  0  0  0  0  0  0  0  0  0  0
    0.3724   -1.1603    0.0000 C   0  0  0  0  0  0  0  0  0  0  0  0
    0.3724   -2.7074    0.0000 C   0  0  0  0  0  0  0  0  0  0  0  0
    0.0000   -1.9339    0.0000 C   0  0  0  0  0  0  0  0  0  0  0  0
    2.6358   -0.3581    0.0000 C   0  0  0  0  0  0  0  0  0  0  0  0
  1 10  1  0  0  0  0
  2  3  1  0  0  0  0
  2  4  1  0  0  0  0
  2  5  1  0  0  0  0
  3  6  2  0  0  0  0
  4  7  2  0  0  0  0
  5 10  1  0  0  0  0
  6  8  1  0  0  0  0
  7  9  1  0  0  0  0
  8  9  2  0  0  0  0
M  END
> <PUBCHEM_COMPOUND_ID_TYPE>
0

> <PUBCHEM_TOTAL_CHARGE>
0

> <PUBCHEM_SUBSTANCE_ID>
310930277

> <PUBCHEM_SUBSTANCE_VERSION>
1

> <PUBCHEM_EXT_DATASOURCE_NAME>
4488

> <PUBCHEM_EXT_DATASOURCE_REGID>
SCHEMBL16107555

> <PUBCHEM_SUBSTANCE_COMMENT>
InChI=1S/C8H10BrN/c9-5-8-10-6-3-1-2-4-7-10/h1-4,6-7H,5,8H2
InChIKey=NVPCEAGHWUVMSG-UHFFFAOYSA-N

> <PUBCHEM_SUBSTANCE_SYNONYM>
SCHEMBL16107555

> <PUBCHEM_XREF_EXT_ID>
SCHEMBL16107555

> <PUBCHEM_EXT_DATASOURCE_URL>
https://www.surechembl.org/

> <PUBCHEM_EXT_SUBSTANCE_URL>
https://www.surechembl.org/chemical/SCHEMBL16107555

> <PUBCHEM_CID_ASSOCIATIONS>
117599375  1

> <PUBCHEM_COORDINATE_TYPE>
1
3

$$$$
