310940556
  -OEChem-07211613022D

 16 17  0     1  0  0  0  0  0999 V2000
    0.2960    2.5031    0.0000 Cl  0  0  0  0  0  0  0  0  0  0  0  0
    1.1755   -1.9450    0.0000 O   0  0  0  0  0  0  0  0  0  0  0  0
    1.2600   -0.4736    0.0000 O   0  0  0  0  0  0  0  0  0  0  0  0
   -0.8710   -2.5031    0.0000 O   0  0  0  0  0  0  0  0  0  0  0  0
    0.0253   -1.2684    0.0000 N   0  0  0  0  0  0  0  0  0  0  0  0
   -0.5666   -0.6934    0.0000 C   0  0  3  0  0  0  0  0  0  0  0  0
    0.8034   -1.2177    0.0000 C   0  0  0  0  0  0  0  0  0  0  0  0
   -0.1607   -2.0803    0.0000 C   0  0  0  0  0  0  0  0  0  0  0  0
   -0.3637    0.1184    0.0000 C   0  0  0  0  0  0  0  0  0  0  0  0
    0.5497   -2.5031    0.0000 C   0  0  0  0  0  0  0  0  0  0  0  0
   -0.9218    0.7103    0.0000 C   0  0  0  0  0  0  0  0  0  0  0  0
    0.4482    0.3383    0.0000 C   0  0  0  0  0  0  0  0  0  0  0  0
   -1.2600   -0.8795    0.0000 C   0  0  0  0  0  0  0  0  0  0  0  0
    0.0592    1.6913    0.0000 C   0  0  0  0  0  0  0  0  0  0  0  0
   -0.7357    1.4714    0.0000 C   0  0  0  0  0  0  0  0  0  0  0  0
    0.6512    1.1162    0.0000 C   0  0  0  0  0  0  0  0  0  0  0  0
  1 14  1  0  0  0  0
  2  7  1  0  0  0  0
  2 10  1  0  0  0  0
  3  7  2  0  0  0  0
  4  8  2  0  0  0  0
  5  6  1  0  0  0  0
  5  7  1  0  0  0  0
  5  8  1  0  0  0  0
  6  9  1  0  0  0  0
  6 13  1  6  0  0  0
  8 10  1  0  0  0  0
  9 11  2  0  0  0  0
  9 12  1  0  0  0  0
 11 15  1  0  0  0  0
 12 16  2  0  0  0  0
 14 15  2  0  0  0  0
 14 16  1  0  0  0  0
M  END
> <PUBCHEM_COMPOUND_ID_TYPE>
0

> <PUBCHEM_TOTAL_CHARGE>
0

> <PUBCHEM_SUBSTANCE_ID>
310940556

> <PUBCHEM_SUBSTANCE_VERSION>
1

> <PUBCHEM_EXT_DATASOURCE_NAME>
4488

> <PUBCHEM_EXT_DATASOURCE_REGID>
SCHEMBL16118510

> <PUBCHEM_SUBSTANCE_COMMENT>
InChI=1S/C11H10ClNO3/c1-7(8-2-4-9(12)5-3-8)13-10(14)6-16-11(13)15/h2-5,7H,6H2,1H3/t7-/m1/s1
InChIKey=LXQRGYCYIDQDJU-SSDOTTSWSA-N

> <PUBCHEM_SUBSTANCE_SYNONYM>
SCHEMBL16118510

> <PUBCHEM_XREF_EXT_ID>
SCHEMBL16118510

> <PUBCHEM_EXT_DATASOURCE_URL>
https://www.surechembl.org/

> <PUBCHEM_EXT_SUBSTANCE_URL>
https://www.surechembl.org/chemical/SCHEMBL16118510

> <PUBCHEM_CID_ASSOCIATIONS>
117607554  1

> <PUBCHEM_COORDINATE_TYPE>
1
3

> <PUBCHEM_BONDANNOTATIONS>
6  13  6

$$$$
