310929539
  -OEChem-07211613022D

 34 38  0     1  0  0  0  0  0999 V2000
   10.4943   -2.5067    0.0000 S   0  0  0  0  0  0  0  0  0  0  0  0
    2.8891   -7.2228    0.0000 O   0  0  0  0  0  0  0  0  0  0  0  0
    4.2062   -6.5855    0.0000 O   0  0  0  0  0  0  0  0  0  0  0  0
   12.7461    0.0000    0.0000 O   0  0  0  0  0  0  0  0  0  0  0  0
    6.0756   -2.9741    0.0000 O   0  0  0  0  0  0  0  0  0  0  0  0
    2.8891   -5.9057    0.0000 N   0  0  0  0  0  0  0  0  0  0  0  0
   11.3441   -0.5099    0.0000 N   0  0  0  0  0  0  0  0  0  0  0  0
   12.3637   -1.4021    0.0000 N   0  0  0  0  0  0  0  0  0  0  0  0
    4.8011   -2.5493    0.0000 N   0  0  0  0  0  0  0  0  0  0  0  0
    5.2684   -1.8695    0.0000 N   0  0  0  0  0  0  0  0  0  0  0  0
    2.1244   -6.1607    0.0000 C   0  0  0  0  0  0  0  0  0  0  0  0
    2.1244   -7.0104    0.0000 C   0  0  0  0  0  0  0  0  0  0  0  0
   11.0466   -1.2746    0.0000 C   0  0  3  0  0  0  0  0  0  0  0  0
   11.6414   -1.7844    0.0000 C   0  0  3  0  0  0  0  0  0  0  0  0
    3.3990   -6.5855    0.0000 C   0  0  0  0  0  0  0  0  0  0  0  0
   10.3243   -1.6995    0.0000 C   0  0  3  0  0  0  0  0  0  0  0  0
   12.1938   -0.5948    0.0000 C   0  0  0  0  0  0  0  0  0  0  0  0
    1.4021   -5.7358    0.0000 C   0  0  0  0  0  0  0  0  0  0  0  0
   11.3441   -2.5917    0.0000 C   0  0  0  0  0  0  0  0  0  0  0  0
    1.4021   -7.3927    0.0000 C   0  0  0  0  0  0  0  0  0  0  0  0
    0.6798   -7.0104    0.0000 C   0  0  0  0  0  0  0  0  0  0  0  0
    3.1440   -5.1409    0.0000 C   0  0  0  0  0  0  0  0  0  0  0  0
    0.6798   -6.1607    0.0000 C   0  0  0  0  0  0  0  0  0  0  0  0
    9.6021   -1.3596    0.0000 C   0  0  0  0  0  0  0  0  0  0  0  0
    3.9513   -4.9710    0.0000 C   0  0  0  0  0  0  0  0  0  0  0  0
    8.9223   -1.8270    0.0000 C   0  0  0  0  0  0  0  0  0  0  0  0
    5.2684   -3.2290    0.0000 C   0  0  0  0  0  0  0  0  0  0  0  0
    6.0756   -2.1244    0.0000 C   0  0  0  0  0  0  0  0  0  0  0  0
    0.0000   -7.3927    0.0000 C   0  0  0  0  0  0  0  0  0  0  0  0
    4.2062   -4.1637    0.0000 C   0  0  0  0  0  0  0  0  0  0  0  0
    5.0135   -3.9938    0.0000 C   0  0  0  0  0  0  0  0  0  0  0  0
    8.1575   -1.4870    0.0000 C   0  0  0  0  0  0  0  0  0  0  0  0
    6.7129   -1.6570    0.0000 C   0  0  0  0  0  0  0  0  0  0  0  0
    7.4777   -1.9969    0.0000 C   0  0  0  0  0  0  0  0  0  0  0  0
  1 16  1  0  0  0  0
  1 19  1  0  0  0  0
  2 12  1  0  0  0  0
  2 15  1  0  0  0  0
  3 15  2  0  0  0  0
  4 17  2  0  0  0  0
  5 27  1  0  0  0  0
  5 28  1  0  0  0  0
  6 11  1  0  0  0  0
  6 15  1  0  0  0  0
  6 22  1  0  0  0  0
 13  7  1  1  0  0  0
  7 17  1  0  0  0  0
 14  8  1  1  0  0  0
  8 17  1  0  0  0  0
  9 10  1  0  0  0  0
  9 27  2  0  0  0  0
 10 28  2  0  0  0  0
 11 12  2  0  0  0  0
 11 18  1  0  0  0  0
 12 20  1  0  0  0  0
 13 14  1  0  0  0  0
 13 16  1  0  0  0  0
 14 19  1  0  0  0  0
 16 24  1  1  0  0  0
 18 23  2  0  0  0  0
 20 21  2  0  0  0  0
 21 23  1  0  0  0  0
 21 29  1  0  0  0  0
 22 25  1  0  0  0  0
 24 26  1  0  0  0  0
 25 30  1  0  0  0  0
 26 32  1  0  0  0  0
 27 31  1  0  0  0  0
 28 33  1  0  0  0  0
 30 31  1  0  0  0  0
 32 34  1  0  0  0  0
 33 34  1  0  0  0  0
M  END
> <PUBCHEM_COMPOUND_ID_TYPE>
0

> <PUBCHEM_TOTAL_CHARGE>
0

> <PUBCHEM_SUBSTANCE_ID>
310929539

> <PUBCHEM_SUBSTANCE_VERSION>
1

> <PUBCHEM_EXT_DATASOURCE_NAME>
4488

> <PUBCHEM_EXT_DATASOURCE_REGID>
SCHEMBL16106720

> <PUBCHEM_SUBSTANCE_COMMENT>
InChI=1S/C24H31N5O4S/c1-15-10-11-17-18(13-15)32-24(31)29(17)12-6-5-9-21-28-27-20(33-21)8-4-2-3-7-19-22-16(14-34-19)25-23(30)26-22/h10-11,13,16,19,22H,2-9,12,14H2,1H3,(H2,25,26,30)/t16-,19-,22-/m0/s1
InChIKey=GXIMZWFVRVVJDI-BPXKWBHBSA-N

> <PUBCHEM_SUBSTANCE_SYNONYM>
SCHEMBL16106720

> <PUBCHEM_XREF_EXT_ID>
SCHEMBL16106720

> <PUBCHEM_EXT_DATASOURCE_URL>
https://www.surechembl.org/

> <PUBCHEM_EXT_SUBSTANCE_URL>
https://www.surechembl.org/chemical/SCHEMBL16106720

> <PUBCHEM_CID_ASSOCIATIONS>
117598858  1

> <PUBCHEM_COORDINATE_TYPE>
1
3

> <PUBCHEM_BONDANNOTATIONS>
16  24  5
13  7  5
14  8  5

$$$$
