310948810
  -OEChem-07211613022D

 13 13  0     1  0  0  0  0  0999 V2000
    1.0590    0.8578    0.0000 O   0  0  0  0  0  0  0  0  0  0  0  0
   -1.1014    0.4554    0.0000 O   0  0  0  0  0  0  0  0  0  0  0  0
    1.0590   -1.6203    0.0000 O   0  0  0  0  0  0  0  0  0  0  0  0
    2.4782   -0.7943    0.0000 O   0  0  0  0  0  0  0  0  0  0  0  0
   -1.7580    1.6203    0.0000 O   0  0  0  0  0  0  0  0  0  0  0  0
    0.3601    0.4765    0.0000 C   0  0  3  0  0  0  0  0  0  0  0  0
    1.0590   -0.7731    0.0000 C   0  0  3  0  0  0  0  0  0  0  0  0
    1.7580   -0.3707    0.0000 C   0  0  3  0  0  0  0  0  0  0  0  0
    0.3389   -0.3707    0.0000 C   0  0  0  0  0  0  0  0  0  0  0  0
    1.7792    0.4554    0.0000 C   0  0  0  0  0  0  0  0  0  0  0  0
   -0.3601    0.8790    0.0000 C   0  0  0  0  0  0  0  0  0  0  0  0
   -1.7792    0.8578    0.0000 C   0  0  0  0  0  0  0  0  0  0  0  0
   -2.4782    0.4977    0.0000 C   0  0  0  0  0  0  0  0  0  0  0  0
  1  6  1  0  0  0  0
  1 10  1  0  0  0  0
  2 11  1  0  0  0  0
  2 12  1  0  0  0  0
  7  3  1  1  0  0  0
  8  4  1  1  0  0  0
  5 12  2  0  0  0  0
  6  9  1  0  0  0  0
  6 11  1  6  0  0  0
  7  8  1  0  0  0  0
  7  9  1  0  0  0  0
  8 10  1  0  0  0  0
 12 13  1  0  0  0  0
M  END
> <PUBCHEM_COMPOUND_ID_TYPE>
0

> <PUBCHEM_TOTAL_CHARGE>
0

> <PUBCHEM_SUBSTANCE_ID>
310948810

> <PUBCHEM_SUBSTANCE_VERSION>
1

> <PUBCHEM_EXT_DATASOURCE_NAME>
4488

> <PUBCHEM_EXT_DATASOURCE_REGID>
SCHEMBL16126994

> <PUBCHEM_SUBSTANCE_COMMENT>
InChI=1S/C8H14O5/c1-5(9)12-3-6-2-7(10)8(11)4-13-6/h6-8,10-11H,2-4H2,1H3/t6-,7+,8-/m1/s1
InChIKey=WRPMYVNFTZMHBM-GJMOJQLCSA-N

> <PUBCHEM_SUBSTANCE_SYNONYM>
SCHEMBL16126994

> <PUBCHEM_XREF_EXT_ID>
SCHEMBL16126994

> <PUBCHEM_EXT_DATASOURCE_URL>
https://www.surechembl.org/

> <PUBCHEM_EXT_SUBSTANCE_URL>
https://www.surechembl.org/chemical/SCHEMBL16126994

> <PUBCHEM_CID_ASSOCIATIONS>
117614349  1

> <PUBCHEM_COORDINATE_TYPE>
1
3

> <PUBCHEM_BONDANNOTATIONS>
7  3  5
8  4  5
6  11  6

$$$$
