310931388
  -OEChem-07211613022D

 14 15  0     0  0  0  0  0  0999 V2000
    0.0000   -0.8187    0.0000 Cl  0  0  0  0  0  0  0  0  0  0  0  0
    2.8653    0.0000    0.0000 O   0  0  0  0  0  0  0  0  0  0  0  0
    3.5816   -2.0467    0.0000 O   0  0  0  0  0  0  0  0  0  0  0  0
    3.5816   -1.2280    0.0000 C   0  0  0  0  0  0  0  0  0  0  0  0
    2.8653   -0.8187    0.0000 C   0  0  0  0  0  0  0  0  0  0  0  0
    4.2980   -0.8187    0.0000 C   0  0  0  0  0  0  0  0  0  0  0  0
    2.1490   -1.2280    0.0000 C   0  0  0  0  0  0  0  0  0  0  0  0
    4.7073   -0.1194    0.0000 C   0  0  0  0  0  0  0  0  0  0  0  0
    5.1166   -0.8016    0.0000 C   0  0  0  0  0  0  0  0  0  0  0  0
    1.4327   -0.8187    0.0000 C   0  0  0  0  0  0  0  0  0  0  0  0
    2.1319   -2.0637    0.0000 C   0  0  0  0  0  0  0  0  0  0  0  0
    0.7163   -1.2280    0.0000 C   0  0  0  0  0  0  0  0  0  0  0  0
    1.4327   -2.4731    0.0000 C   0  0  0  0  0  0  0  0  0  0  0  0
    0.7163   -2.0467    0.0000 C   0  0  0  0  0  0  0  0  0  0  0  0
  1 12  1  0  0  0  0
  2  5  2  0  0  0  0
  3  4  2  0  0  0  0
  4  5  1  0  0  0  0
  4  6  1  0  0  0  0
  5  7  1  0  0  0  0
  6  8  1  0  0  0  0
  6  9  1  0  0  0  0
  7 10  1  0  0  0  0
  7 11  2  0  0  0  0
  8  9  1  0  0  0  0
 10 12  2  0  0  0  0
 11 13  1  0  0  0  0
 12 14  1  0  0  0  0
 13 14  2  0  0  0  0
M  END
> <PUBCHEM_COMPOUND_ID_TYPE>
0

> <PUBCHEM_TOTAL_CHARGE>
0

> <PUBCHEM_SUBSTANCE_ID>
310931388

> <PUBCHEM_SUBSTANCE_VERSION>
1

> <PUBCHEM_EXT_DATASOURCE_NAME>
4488

> <PUBCHEM_EXT_DATASOURCE_REGID>
SCHEMBL16108712

> <PUBCHEM_SUBSTANCE_COMMENT>
InChI=1S/C11H9ClO2/c12-9-3-1-2-8(6-9)11(14)10(13)7-4-5-7/h1-3,6-7H,4-5H2
InChIKey=GBOCGEKGYLPYJM-UHFFFAOYSA-N

> <PUBCHEM_SUBSTANCE_SYNONYM>
SCHEMBL16108712

> <PUBCHEM_XREF_EXT_ID>
SCHEMBL16108712

> <PUBCHEM_EXT_DATASOURCE_URL>
https://www.surechembl.org/

> <PUBCHEM_EXT_SUBSTANCE_URL>
https://www.surechembl.org/chemical/SCHEMBL16108712

> <PUBCHEM_CID_ASSOCIATIONS>
117600180  1

> <PUBCHEM_COORDINATE_TYPE>
1
3

$$$$
