310935882
  -OEChem-07211613022D

 22 23  0     0  0  0  0  0  0999 V2000
    0.8352   -1.6356    0.0000 O   0  0  0  0  0  0  0  0  0  0  0  0
    2.2272   -1.6356    0.0000 O   0  0  0  0  0  0  0  0  0  0  0  0
    1.5312   -2.8537    0.0000 N   0  0  0  0  0  0  0  0  0  0  0  0
    5.0808   -6.5425    0.0000 N   0  0  0  0  0  0  0  0  0  0  0  0
    1.5312   -2.0184    0.0000 C   0  0  0  0  0  0  0  0  0  0  0  0
    1.5312   -4.4893    0.0000 C   0  0  0  0  0  0  0  0  0  0  0  0
    2.2620   -3.2713    0.0000 C   0  0  0  0  0  0  0  0  0  0  0  0
    0.8352   -3.2713    0.0000 C   0  0  0  0  0  0  0  0  0  0  0  0
    2.2272   -5.7073    0.0000 C   0  0  0  0  0  0  0  0  0  0  0  0
    2.2620   -4.0717    0.0000 C   0  0  0  0  0  0  0  0  0  0  0  0
    0.8352   -4.0717    0.0000 C   0  0  0  0  0  0  0  0  0  0  0  0
    1.5312   -5.3245    0.0000 C   0  0  0  0  0  0  0  0  0  0  0  0
    0.8352   -0.8004    0.0000 C   0  0  0  0  0  0  0  0  0  0  0  0
    2.9581   -5.3245    0.0000 C   0  0  0  0  0  0  0  0  0  0  0  0
    2.2272   -6.5425    0.0000 C   0  0  0  0  0  0  0  0  0  0  0  0
    3.6541   -6.5425    0.0000 C   0  0  0  0  0  0  0  0  0  0  0  0
    3.6541   -5.7073    0.0000 C   0  0  0  0  0  0  0  0  0  0  0  0
    2.9232   -6.9601    0.0000 C   0  0  0  0  0  0  0  0  0  0  0  0
    1.6704   -0.8004    0.0000 C   0  0  0  0  0  0  0  0  0  0  0  0
    0.8352    0.0000    0.0000 C   0  0  0  0  0  0  0  0  0  0  0  0
    0.0000   -0.8004    0.0000 C   0  0  0  0  0  0  0  0  0  0  0  0
    4.3500   -6.9601    0.0000 C   0  0  0  0  0  0  0  0  0  0  0  0
  1  5  1  0  0  0  0
  1 13  1  0  0  0  0
  2  5  2  0  0  0  0
  3  5  1  0  0  0  0
  3  7  1  0  0  0  0
  3  8  1  0  0  0  0
  4 22  3  0  0  0  0
  6 10  1  0  0  0  0
  6 11  1  0  0  0  0
  6 12  2  0  0  0  0
  7 10  1  0  0  0  0
  8 11  1  0  0  0  0
  9 12  1  0  0  0  0
  9 14  2  0  0  0  0
  9 15  1  0  0  0  0
 13 19  1  0  0  0  0
 13 20  1  0  0  0  0
 13 21  1  0  0  0  0
 14 17  1  0  0  0  0
 15 18  2  0  0  0  0
 16 17  2  0  0  0  0
 16 18  1  0  0  0  0
 16 22  1  0  0  0  0
M  END
> <PUBCHEM_COMPOUND_ID_TYPE>
0

> <PUBCHEM_TOTAL_CHARGE>
0

> <PUBCHEM_SUBSTANCE_ID>
310935882

> <PUBCHEM_SUBSTANCE_VERSION>
1

> <PUBCHEM_EXT_DATASOURCE_NAME>
4488

> <PUBCHEM_EXT_DATASOURCE_REGID>
SCHEMBL16113475

> <PUBCHEM_SUBSTANCE_COMMENT>
InChI=1S/C18H22N2O2/c1-18(2,3)22-17(21)20-10-8-15(9-11-20)12-14-4-6-16(13-19)7-5-14/h4-7,12H,8-11H2,1-3H3
InChIKey=DMAPDYPAPDMGHH-UHFFFAOYSA-N

> <PUBCHEM_SUBSTANCE_SYNONYM>
SCHEMBL16113475

> <PUBCHEM_XREF_EXT_ID>
SCHEMBL16113475

> <PUBCHEM_EXT_DATASOURCE_URL>
https://www.surechembl.org/

> <PUBCHEM_EXT_SUBSTANCE_URL>
https://www.surechembl.org/chemical/SCHEMBL16113475

> <PUBCHEM_CID_ASSOCIATIONS>
11695098  1

> <PUBCHEM_COORDINATE_TYPE>
1
3

$$$$
