310948136
  -OEChem-07211613022D

 45 49  0     0  0  0  0  0  0999 V2000
    3.1525   -0.0773    0.0000 S   0  0  0  0  0  0  0  0  0  0  0  0
   -4.2177   -1.2627    0.0000 F   0  0  0  0  0  0  0  0  0  0  0  0
   -4.3895   -0.0945    0.0000 F   0  0  0  0  0  0  0  0  0  0  0  0
   -3.2385    0.0773    0.0000 F   0  0  0  0  0  0  0  0  0  0  0  0
    3.1525   -2.9464    0.0000 F   0  0  0  0  0  0  0  0  0  0  0  0
    3.1010    2.9979    0.0000 F   0  0  0  0  0  0  0  0  0  0  0  0
    2.0530    2.4481    0.0000 F   0  0  0  0  0  0  0  0  0  0  0  0
    3.6336    1.9327    0.0000 F   0  0  0  0  0  0  0  0  0  0  0  0
    2.4481    0.3522    0.0000 O   0  0  0  0  0  0  0  0  0  0  0  0
    3.8741   -0.4896    0.0000 O   0  0  0  0  0  0  0  0  0  0  0  0
    2.5856    1.3830    0.0000 O   0  0  0  0  0  0  0  0  0  0  0  0
    4.3895   -2.2420    0.0000 O   0  0  0  0  0  0  0  0  0  0  0  0
   -0.9707   -0.0602    0.0000 N   0  0  0  0  0  0  0  0  0  0  0  0
   -2.2763   -2.1733    0.0000 N   0  0  0  0  0  0  0  0  0  0  0  0
   -3.0495   -1.9156    0.0000 N   0  0  0  0  0  0  0  0  0  0  0  0
   -1.7781    0.0258    0.0000 N   0  0  0  0  0  0  0  0  0  0  0  0
   -1.9499    0.8504    0.0000 N   0  0  0  0  0  0  0  0  0  0  0  0
   -0.5584   -0.7645    0.0000 C   0  0  0  0  0  0  0  0  0  0  0  0
   -0.9707   -1.5033    0.0000 C   0  0  0  0  0  0  0  0  0  0  0  0
   -1.7953   -1.4861    0.0000 C   0  0  0  0  0  0  0  0  0  0  0  0
    0.6786   -1.4861    0.0000 C   0  0  0  0  0  0  0  0  0  0  0  0
   -0.6271    0.7130    0.0000 C   0  0  0  0  0  0  0  0  0  0  0  0
    0.2834   -0.7989    0.0000 C   0  0  0  0  0  0  0  0  0  0  0  0
    1.5033   -1.5033    0.0000 C   0  0  0  0  0  0  0  0  0  0  0  0
   -3.0323   -1.0738    0.0000 C   0  0  0  0  0  0  0  0  0  0  0  0
   -0.5412   -2.2077    0.0000 C   0  0  0  0  0  0  0  0  0  0  0  0
   -2.2591   -0.8332    0.0000 C   0  0  0  0  0  0  0  0  0  0  0  0
    2.7231   -0.7817    0.0000 C   0  0  0  0  0  0  0  0  0  0  0  0
    0.2834   -2.2077    0.0000 C   0  0  0  0  0  0  0  0  0  0  0  0
    3.1525   -1.4861    0.0000 C   0  0  0  0  0  0  0  0  0  0  0  0
    0.1976    0.8848    0.0000 C   0  0  0  0  0  0  0  0  0  0  0  0
    1.9155   -0.7989    0.0000 C   0  0  0  0  0  0  0  0  0  0  0  0
   -3.7195   -0.5927    0.0000 C   0  0  0  0  0  0  0  0  0  0  0  0
    2.7403   -2.2248    0.0000 C   0  0  0  0  0  0  0  0  0  0  0  0
    1.9155   -2.2077    0.0000 C   0  0  0  0  0  0  0  0  0  0  0  0
   -1.2627    1.2627    0.0000 C   0  0  0  0  0  0  0  0  0  0  0  0
    0.4381    1.6751    0.0000 C   0  0  0  0  0  0  0  0  0  0  0  0
    0.7302    0.2834    0.0000 C   0  0  0  0  0  0  0  0  0  0  0  0
   -2.0015   -2.9979    0.0000 C   0  0  0  0  0  0  0  0  0  0  0  0
    3.9944   -1.5204    0.0000 C   0  0  0  0  0  0  0  0  0  0  0  0
    1.7953    1.2456    0.0000 C   0  0  0  0  0  0  0  0  0  0  0  0
    1.2456    1.8469    0.0000 C   0  0  0  0  0  0  0  0  0  0  0  0
    1.5376    0.4553    0.0000 C   0  0  0  0  0  0  0  0  0  0  0  0
    3.5477    0.6786    0.0000 C   0  0  0  0  0  0  0  0  0  0  0  0
    2.8433    2.2077    0.0000 C   0  0  0  0  0  0  0  0  0  0  0  0
  1  9  2  0  0  0  0
  1 10  2  0  0  0  0
  1 28  1  0  0  0  0
  1 44  1  0  0  0  0
  2 33  1  0  0  0  0
  3 33  1  0  0  0  0
  4 33  1  0  0  0  0
  5 34  1  0  0  0  0
  6 45  1  0  0  0  0
  7 45  1  0  0  0  0
  8 45  1  0  0  0  0
 11 41  1  0  0  0  0
 11 45  1  0  0  0  0
 12 40  1  0  0  0  0
 13 16  1  0  0  0  0
 13 18  1  0  0  0  0
 13 22  1  0  0  0  0
 14 15  1  0  0  0  0
 14 20  1  0  0  0  0
 14 39  1  0  0  0  0
 15 25  2  0  0  0  0
 16 17  2  0  0  0  0
 17 36  1  0  0  0  0
 18 19  1  0  0  0  0
 18 23  2  0  0  0  0
 19 20  1  0  0  0  0
 19 26  2  0  0  0  0
 20 27  2  0  0  0  0
 21 23  1  0  0  0  0
 21 24  1  0  0  0  0
 21 29  2  0  0  0  0
 22 31  1  0  0  0  0
 22 36  2  0  0  0  0
 24 32  2  0  0  0  0
 24 35  1  0  0  0  0
 25 27  1  0  0  0  0
 25 33  1  0  0  0  0
 26 29  1  0  0  0  0
 28 30  2  0  0  0  0
 28 32  1  0  0  0  0
 30 34  1  0  0  0  0
 30 40  1  0  0  0  0
 31 37  2  0  0  0  0
 31 38  1  0  0  0  0
 34 35  2  0  0  0  0
 37 42  1  0  0  0  0
 38 43  2  0  0  0  0
 41 42  2  0  0  0  0
 41 43  1  0  0  0  0
M  END
> <PUBCHEM_COMPOUND_ID_TYPE>
0

> <PUBCHEM_TOTAL_CHARGE>
0

> <PUBCHEM_SUBSTANCE_ID>
310948136

> <PUBCHEM_SUBSTANCE_VERSION>
1

> <PUBCHEM_EXT_DATASOURCE_NAME>
4488

> <PUBCHEM_EXT_DATASOURCE_REGID>
SCHEMBL16126312

> <PUBCHEM_SUBSTANCE_COMMENT>
InChI=1S/C28H20F7N5O4S/c1-39-22(12-26(37-39)27(30,31)32)19-8-5-16(17-9-21(29)20(14-41)25(11-17)45(2,42)43)10-23(19)40-24(13-36-38-40)15-3-6-18(7-4-15)44-28(33,34)35/h3-13,41H,14H2,1-2H3
InChIKey=SPQYJZFOATUIPS-UHFFFAOYSA-N

> <PUBCHEM_SUBSTANCE_SYNONYM>
SCHEMBL16126312

> <PUBCHEM_XREF_EXT_ID>
SCHEMBL16126312

> <PUBCHEM_EXT_DATASOURCE_URL>
https://www.surechembl.org/

> <PUBCHEM_EXT_SUBSTANCE_URL>
https://www.surechembl.org/chemical/SCHEMBL16126312

> <PUBCHEM_CID_ASSOCIATIONS>
86276005  1

> <PUBCHEM_COORDINATE_TYPE>
1
3

$$$$
