310947577
  -OEChem-07211613022D

 50 55  0     1  0  0  0  0  0999 V2000
   -0.6339   -4.0755    0.0000 P   0  0  3  0  0  0  0  0  0  0  0  0
    1.1721   -6.5278    0.0000 F   0  0  0  0  0  0  0  0  0  0  0  0
   -4.0752   -7.9589    0.0000 F   0  0  0  0  0  0  0  0  0  0  0  0
   -5.5041   -5.4838    0.0000 F   0  0  0  0  0  0  0  0  0  0  0  0
    1.9971   -4.5438    0.0000 O   0  0  0  0  0  0  0  0  0  0  0  0
    2.8221   -6.5278    0.0000 O   0  0  0  0  0  0  0  0  0  0  0  0
   -0.0505   -4.6588    0.0000 O   0  0  0  0  0  0  0  0  0  0  0  0
    4.1636   -1.8862    0.0000 O   0  0  0  0  0  0  0  0  0  0  0  0
   -1.2173   -3.4921    0.0000 O   0  0  0  0  0  0  0  0  0  0  0  0
   -0.0505   -3.4921    0.0000 O   0  0  0  0  0  0  0  0  0  0  0  0
   -1.9318   -6.7213    0.0000 O   0  0  0  0  0  0  0  0  0  0  0  0
   -2.6463   -5.4838    0.0000 O   0  0  0  0  0  0  0  0  0  0  0  0
    2.6645   -4.2037    0.0000 N   0  0  0  0  0  0  0  0  0  0  0  0
    2.6645   -2.8687    0.0000 N   0  0  0  0  0  0  0  0  0  0  0  0
    4.1636   -4.3613    0.0000 N   0  0  0  0  0  0  0  0  0  0  0  0
    4.8782   -3.1237    0.0000 N   0  0  0  0  0  0  0  0  0  0  0  0
   -1.2173   -4.6588    0.0000 N   0  0  0  0  0  0  0  0  0  0  0  0
    2.6645   -5.0287    0.0000 C   0  0  3  0  0  0  0  0  0  0  0  0
    2.4096   -5.8133    0.0000 C   0  0  3  0  0  0  0  0  0  0  0  0
    1.5846   -5.8133    0.0000 C   0  0  3  0  0  0  0  0  0  0  0  0
    3.4492   -3.9487    0.0000 C   0  0  0  0  0  0  0  0  0  0  0  0
    1.3297   -5.0287    0.0000 C   0  0  3  0  0  0  0  0  0  0  0  0
    3.4492   -3.1237    0.0000 C   0  0  0  0  0  0  0  0  0  0  0  0
    2.1797   -3.5363    0.0000 C   0  0  0  0  0  0  0  0  0  0  0  0
    4.1636   -2.7112    0.0000 C   0  0  0  0  0  0  0  0  0  0  0  0
    3.2065   -5.5998    0.0000 C   0  0  0  0  0  0  0  0  0  0  0  0
    0.7463   -4.4453    0.0000 C   0  0  0  0  0  0  0  0  0  0  0  0
    4.8782   -3.9487    0.0000 C   0  0  0  0  0  0  0  0  0  0  0  0
   -1.2173   -2.6672    0.0000 C   0  0  0  0  0  0  0  0  0  0  0  0
   -1.9318   -2.2546    0.0000 C   0  0  0  0  0  0  0  0  0  0  0  0
    5.5926   -4.3613    0.0000 C   0  0  0  0  0  0  0  0  0  0  0  0
   -1.9318   -1.4296    0.0000 C   0  0  0  0  0  0  0  0  0  0  0  0
   -1.2173   -5.4838    0.0000 C   0  0  3  0  0  0  0  0  0  0  0  0
   -0.5028   -2.2546    0.0000 C   0  0  0  0  0  0  0  0  0  0  0  0
    4.8782   -1.4738    0.0000 C   0  0  0  0  0  0  0  0  0  0  0  0
   -2.6463   -2.6672    0.0000 C   0  0  0  0  0  0  0  0  0  0  0  0
   -1.2173   -1.0171    0.0000 C   0  0  0  0  0  0  0  0  0  0  0  0
   -1.9318   -5.8963    0.0000 C   0  0  0  0  0  0  0  0  0  0  0  0
   -0.5028   -1.4296    0.0000 C   0  0  0  0  0  0  0  0  0  0  0  0
   -2.6463   -1.0171    0.0000 C   0  0  0  0  0  0  0  0  0  0  0  0
   -3.3607   -2.2546    0.0000 C   0  0  0  0  0  0  0  0  0  0  0  0
   -3.3607   -1.4296    0.0000 C   0  0  0  0  0  0  0  0  0  0  0  0
   -0.5028   -5.8963    0.0000 C   0  0  0  0  0  0  0  0  0  0  0  0
   -3.3607   -6.7213    0.0000 C   0  0  0  0  0  0  0  0  0  0  0  0
   -2.6463   -7.1338    0.0000 C   0  0  0  0  0  0  0  0  0  0  0  0
   -4.0752   -7.1338    0.0000 C   0  0  0  0  0  0  0  0  0  0  0  0
   -3.3607   -5.8963    0.0000 C   0  0  0  0  0  0  0  0  0  0  0  0
   -4.7897   -6.7213    0.0000 C   0  0  0  0  0  0  0  0  0  0  0  0
   -4.7897   -5.8963    0.0000 C   0  0  0  0  0  0  0  0  0  0  0  0
   -4.0752   -5.4838    0.0000 C   0  0  0  0  0  0  0  0  0  0  0  0
  1  7  1  0  0  0  0
  1  9  1  0  0  0  0
  1 10  2  0  0  0  0
  1 17  1  0  0  0  0
 20  2  1  6  0  0  0
  3 46  1  0  0  0  0
  4 49  1  0  0  0  0
 18  5  1  6  0  0  0
  5 22  1  0  0  0  0
 19  6  1  6  0  0  0
  7 27  1  0  0  0  0
  8 25  1  0  0  0  0
  8 35  1  0  0  0  0
  9 29  1  0  0  0  0
 11 38  1  0  0  0  0
 11 45  1  0  0  0  0
 12 38  2  0  0  0  0
 13 18  1  0  0  0  0
 13 21  1  0  0  0  0
 13 24  1  0  0  0  0
 14 23  1  0  0  0  0
 14 24  2  0  0  0  0
 15 21  1  0  0  0  0
 15 28  2  0  0  0  0
 16 25  2  0  0  0  0
 16 28  1  0  0  0  0
 17 33  1  0  0  0  0
 18 19  1  0  0  0  0
 19 20  1  0  0  0  0
 19 26  1  1  0  0  0
 20 22  1  0  0  0  0
 21 23  2  0  0  0  0
 22 27  1  1  0  0  0
 23 25  1  0  0  0  0
 28 31  1  0  0  0  0
 29 30  1  0  0  0  0
 29 34  2  0  0  0  0
 30 32  2  0  0  0  0
 30 36  1  0  0  0  0
 32 37  1  0  0  0  0
 32 40  1  0  0  0  0
 33 38  1  0  0  0  0
 33 43  1  1  0  0  0
 34 39  1  0  0  0  0
 36 41  2  0  0  0  0
 37 39  2  0  0  0  0
 40 42  2  0  0  0  0
 41 42  1  0  0  0  0
 44 45  1  0  0  0  0
 44 46  1  0  0  0  0
 44 47  2  0  0  0  0
 46 48  2  0  0  0  0
 47 50  1  0  0  0  0
 48 49  1  0  0  0  0
 49 50  2  0  0  0  0
M  END
> <PUBCHEM_COMPOUND_ID_TYPE>
0

> <PUBCHEM_TOTAL_CHARGE>
0

> <PUBCHEM_SUBSTANCE_ID>
310947577

> <PUBCHEM_SUBSTANCE_VERSION>
1

> <PUBCHEM_EXT_DATASOURCE_NAME>
4488

> <PUBCHEM_EXT_DATASOURCE_REGID>
SCHEMBL16125740

> <PUBCHEM_SUBSTANCE_COMMENT>
InChI=1S/C33H33F3N5O8P/c1-18(31(42)46-15-21-12-13-22(34)14-24(21)35)40-50(44,49-25-11-7-9-20-8-5-6-10-23(20)25)47-16-26-28(36)33(3,43)32(48-26)41-17-37-27-29(41)38-19(2)39-30(27)45-4/h5-14,17-18,26,28,32,43H,15-16H2,1-4H3,(H,40,44)/t18-,26+,28+,32+,33+,50?/m0/s1
InChIKey=MGWXBLDSHMLLHS-YTSRDFCQSA-N

> <PUBCHEM_SUBSTANCE_SYNONYM>
SCHEMBL16125740

> <PUBCHEM_XREF_EXT_ID>
SCHEMBL16125740

> <PUBCHEM_EXT_DATASOURCE_URL>
https://www.surechembl.org/

> <PUBCHEM_EXT_SUBSTANCE_URL>
https://www.surechembl.org/chemical/SCHEMBL16125740

> <PUBCHEM_CID_ASSOCIATIONS>
117613299  1

> <PUBCHEM_COORDINATE_TYPE>
1
3

> <PUBCHEM_BONDANNOTATIONS>
19  26  5
20  2  6
22  27  5
33  43  5
18  5  6
19  6  6

$$$$
