310938139
  -OEChem-07211613022D

 17 18  0     0  0  0  0  0  0999 V2000
    4.5765   -1.4738    0.0000 O   0  0  0  0  0  0  0  0  0  0  0  0
    4.5765   -2.9088    0.0000 O   0  0  0  0  0  0  0  0  0  0  0  0
    2.8700   -2.8700    0.0000 N   0  0  0  0  0  0  0  0  0  0  0  0
    0.0969   -0.3490    0.0000 N   0  0  0  0  0  0  0  0  0  0  0  0
    2.0943   -1.7840    0.0000 C   0  0  0  0  0  0  0  0  0  0  0  0
    2.8700   -1.5126    0.0000 C   0  0  0  0  0  0  0  0  0  0  0  0
    3.3548   -2.1912    0.0000 C   0  0  0  0  0  0  0  0  0  0  0  0
    1.4156   -1.2992    0.0000 C   0  0  0  0  0  0  0  0  0  0  0  0
    2.0943   -2.5985    0.0000 C   0  0  0  0  0  0  0  0  0  0  0  0
    4.1693   -2.1912    0.0000 C   0  0  0  0  0  0  0  0  0  0  0  0
    1.5126   -0.5042    0.0000 C   0  0  0  0  0  0  0  0  0  0  0  0
    0.6593   -1.6677    0.0000 C   0  0  0  0  0  0  0  0  0  0  0  0
    3.1221   -0.7369    0.0000 C   0  0  0  0  0  0  0  0  0  0  0  0
    0.8533    0.0000    0.0000 C   0  0  0  0  0  0  0  0  0  0  0  0
    0.0000   -1.1441    0.0000 C   0  0  0  0  0  0  0  0  0  0  0  0
    5.4103   -1.4738    0.0000 C   0  0  0  0  0  0  0  0  0  0  0  0
    5.8176   -0.7563    0.0000 C   0  0  0  0  0  0  0  0  0  0  0  0
  1 10  1  0  0  0  0
  1 16  1  0  0  0  0
  2 10  2  0  0  0  0
  3  7  1  0  0  0  0
  3  9  1  0  0  0  0
  4 14  2  0  0  0  0
  4 15  1  0  0  0  0
  5  6  1  0  0  0  0
  5  8  1  0  0  0  0
  5  9  2  0  0  0  0
  6  7  2  0  0  0  0
  6 13  1  0  0  0  0
  7 10  1  0  0  0  0
  8 11  2  0  0  0  0
  8 12  1  0  0  0  0
 11 14  1  0  0  0  0
 12 15  2  0  0  0  0
 16 17  1  0  0  0  0
M  END
> <PUBCHEM_COMPOUND_ID_TYPE>
0

> <PUBCHEM_TOTAL_CHARGE>
0

> <PUBCHEM_SUBSTANCE_ID>
310938139

> <PUBCHEM_SUBSTANCE_VERSION>
1

> <PUBCHEM_EXT_DATASOURCE_NAME>
4488

> <PUBCHEM_EXT_DATASOURCE_REGID>
SCHEMBL16115990

> <PUBCHEM_SUBSTANCE_COMMENT>
InChI=1S/C13H14N2O2/c1-3-17-13(16)12-9(2)11(8-15-12)10-4-6-14-7-5-10/h4-8,15H,3H2,1-2H3
InChIKey=GHNVQGXQNFKSIY-UHFFFAOYSA-N

> <PUBCHEM_SUBSTANCE_SYNONYM>
SCHEMBL16115990

> <PUBCHEM_XREF_EXT_ID>
SCHEMBL16115990

> <PUBCHEM_EXT_DATASOURCE_URL>
https://www.surechembl.org/

> <PUBCHEM_EXT_SUBSTANCE_URL>
https://www.surechembl.org/chemical/SCHEMBL16115990

> <PUBCHEM_CID_ASSOCIATIONS>
117605693  1

> <PUBCHEM_COORDINATE_TYPE>
1
3

$$$$
