310933562
  -OEChem-07211613022D

 26 30  0     0  0  0  0  0  0999 V2000
    0.0000   -4.0479    0.0000 O   0  0  0  0  0  0  0  0  0  0  0  0
    5.5339   -2.9206    0.0000 O   0  0  0  0  0  0  0  0  0  0  0  0
    3.3562   -0.7942    0.0000 N   0  0  0  0  0  0  0  0  0  0  0  0
    4.2272   -2.2545    0.0000 N   0  0  0  0  0  0  0  0  0  0  0  0
    4.2272   -3.5867    0.0000 N   0  0  0  0  0  0  0  0  0  0  0  0
    3.1256    0.0000    0.0000 N   0  0  0  0  0  0  0  0  0  0  0  0
    0.4099   -4.7653    0.0000 N   0  0  0  0  0  0  0  0  0  0  0  0
    2.7157   -2.1008    0.0000 C   0  0  0  0  0  0  0  0  0  0  0  0
    2.6900   -1.2810    0.0000 C   0  0  0  0  0  0  0  0  0  0  0  0
    3.4330   -2.4851    0.0000 C   0  0  0  0  0  0  0  0  0  0  0  0
    3.4330   -3.3562    0.0000 C   0  0  0  0  0  0  0  0  0  0  0  0
    2.0239   -0.7942    0.0000 C   0  0  0  0  0  0  0  0  0  0  0  0
    2.0239   -3.3562    0.0000 C   0  0  0  0  0  0  0  0  0  0  0  0
    2.0239   -2.4851    0.0000 C   0  0  0  0  0  0  0  0  0  0  0  0
    1.3066   -3.7661    0.0000 C   0  0  0  0  0  0  0  0  0  0  0  0
    2.7157   -3.7405    0.0000 C   0  0  0  0  0  0  0  0  0  0  0  0
    1.2553   -1.0504    0.0000 C   0  0  0  0  0  0  0  0  0  0  0  0
    4.7140   -2.9206    0.0000 C   0  0  0  0  0  0  0  0  0  0  0  0
    2.2802   -0.0256    0.0000 C   0  0  0  0  0  0  0  0  0  0  0  0
    0.5636   -3.4330    0.0000 C   0  0  0  0  0  0  0  0  0  0  0  0
    1.2297   -4.5603    0.0000 C   0  0  0  0  0  0  0  0  0  0  0  0
    0.6917   -1.6653    0.0000 C   0  0  0  0  0  0  0  0  0  0  0  0
    0.4099   -0.8711    0.0000 C   0  0  0  0  0  0  0  0  0  0  0  0
    4.1504   -1.0504    0.0000 C   0  0  0  0  0  0  0  0  0  0  0  0
    0.3587   -2.6388    0.0000 C   0  0  0  0  0  0  0  0  0  0  0  0
    1.8446   -5.1239    0.0000 C   0  0  0  0  0  0  0  0  0  0  0  0
  1  7  1  0  0  0  0
  1 20  1  0  0  0  0
  2 18  2  0  0  0  0
  3  6  1  0  0  0  0
  3  9  1  0  0  0  0
  3 24  1  0  0  0  0
  4 10  1  0  0  0  0
  4 18  1  0  0  0  0
  5 11  1  0  0  0  0
  5 18  1  0  0  0  0
  6 19  2  0  0  0  0
  7 21  2  0  0  0  0
  8  9  1  0  0  0  0
  8 10  1  0  0  0  0
  8 14  2  0  0  0  0
  9 12  2  0  0  0  0
 10 11  2  0  0  0  0
 11 16  1  0  0  0  0
 12 17  1  0  0  0  0
 12 19  1  0  0  0  0
 13 14  1  0  0  0  0
 13 15  1  0  0  0  0
 13 16  2  0  0  0  0
 15 20  2  0  0  0  0
 15 21  1  0  0  0  0
 17 22  1  0  0  0  0
 17 23  1  0  0  0  0
 20 25  1  0  0  0  0
 21 26  1  0  0  0  0
 22 23  1  0  0  0  0
M  END
> <PUBCHEM_COMPOUND_ID_TYPE>
0

> <PUBCHEM_TOTAL_CHARGE>
0

> <PUBCHEM_SUBSTANCE_ID>
310933562

> <PUBCHEM_SUBSTANCE_VERSION>
1

> <PUBCHEM_EXT_DATASOURCE_NAME>
4488

> <PUBCHEM_EXT_DATASOURCE_REGID>
SCHEMBL16110985

> <PUBCHEM_SUBSTANCE_COMMENT>
InChI=1S/C19H19N5O2/c1-9-16(10(2)26-23-9)12-6-13(17-15(7-12)21-19(25)22-17)18-14(11-4-5-11)8-20-24(18)3/h6-8,11H,4-5H2,1-3H3,(H2,21,22,25)
InChIKey=QIARXVNXOMTKST-UHFFFAOYSA-N

> <PUBCHEM_SUBSTANCE_SYNONYM>
SCHEMBL16110985

> <PUBCHEM_XREF_EXT_ID>
SCHEMBL16110985

> <PUBCHEM_EXT_DATASOURCE_URL>
https://www.surechembl.org/

> <PUBCHEM_EXT_SUBSTANCE_URL>
https://www.surechembl.org/chemical/SCHEMBL16110985

> <PUBCHEM_CID_ASSOCIATIONS>
117601946  1

> <PUBCHEM_COORDINATE_TYPE>
1
3

$$$$
