310943680
  -OEChem-07211613022D

 37 41  0     0  0  0  0  0  0999 V2000
    5.3939   -0.7812    0.0000 Br  0  0  0  0  0  0  0  0  0  0  0  0
    4.5941    1.5251    0.0000 F   0  0  0  0  0  0  0  0  0  0  0  0
    5.3567    1.0974    0.0000 F   0  0  0  0  0  0  0  0  0  0  0  0
    5.3567    0.2418    0.0000 F   0  0  0  0  0  0  0  0  0  0  0  0
   -5.3939    1.4507    0.0000 O   0  0  0  0  0  0  0  0  0  0  0  0
    1.7112    1.4507    0.0000 O   0  0  0  0  0  0  0  0  0  0  0  0
   -2.5481   -1.0044    0.0000 N   0  0  0  0  0  0  0  0  0  0  0  0
   -1.8414   -0.5766    0.0000 N   0  0  0  0  0  0  0  0  0  0  0  0
   -3.9804    0.6510    0.0000 N   0  0  0  0  0  0  0  0  0  0  0  0
   -3.8688   -1.1346    0.0000 N   0  0  0  0  0  0  0  0  0  0  0  0
   -0.4092    1.8786    0.0000 N   0  0  0  0  0  0  0  0  0  0  0  0
    1.0044    0.2418    0.0000 N   0  0  0  0  0  0  0  0  0  0  0  0
   -3.2735   -0.5952    0.0000 C   0  0  0  0  0  0  0  0  0  0  0  0
   -3.2550    0.2418    0.0000 C   0  0  0  0  0  0  0  0  0  0  0  0
   -1.8228    0.2418    0.0000 C   0  0  0  0  0  0  0  0  0  0  0  0
   -1.1346    0.6324    0.0000 C   0  0  0  0  0  0  0  0  0  0  0  0
   -2.5667    0.6324    0.0000 C   0  0  0  0  0  0  0  0  0  0  0  0
   -1.1160    1.4693    0.0000 C   0  0  0  0  0  0  0  0  0  0  0  0
   -2.7156   -1.8042    0.0000 C   0  0  0  0  0  0  0  0  0  0  0  0
   -0.3906    0.2232    0.0000 C   0  0  0  0  0  0  0  0  0  0  0  0
    0.2790    0.6324    0.0000 C   0  0  0  0  0  0  0  0  0  0  0  0
    3.8688    0.2418    0.0000 C   0  0  0  0  0  0  0  0  0  0  0  0
   -3.5525   -1.8786    0.0000 C   0  0  0  0  0  0  0  0  0  0  0  0
    2.4365    0.2418    0.0000 C   0  0  0  0  0  0  0  0  0  0  0  0
    4.6127    0.6696    0.0000 C   0  0  0  0  0  0  0  0  0  0  0  0
    3.8315   -0.5766    0.0000 C   0  0  0  0  0  0  0  0  0  0  0  0
    1.7112    0.6138    0.0000 C   0  0  0  0  0  0  0  0  0  0  0  0
    3.1434    0.6138    0.0000 C   0  0  0  0  0  0  0  0  0  0  0  0
   -3.9618    1.4507    0.0000 C   0  0  0  0  0  0  0  0  0  0  0  0
   -4.6499    0.2418    0.0000 C   0  0  0  0  0  0  0  0  0  0  0  0
    0.2976    1.4507    0.0000 C   0  0  0  0  0  0  0  0  0  0  0  0
    2.4365   -0.5952    0.0000 C   0  0  0  0  0  0  0  0  0  0  0  0
    3.1806   -1.0044    0.0000 C   0  0  0  0  0  0  0  0  0  0  0  0
   -1.8228    1.8786    0.0000 C   0  0  0  0  0  0  0  0  0  0  0  0
   -4.7057    1.8600    0.0000 C   0  0  0  0  0  0  0  0  0  0  0  0
   -5.3939    0.6324    0.0000 C   0  0  0  0  0  0  0  0  0  0  0  0
    4.6127   -1.0044    0.0000 C   0  0  0  0  0  0  0  0  0  0  0  0
  1 37  1  0  0  0  0
  2 25  1  0  0  0  0
  3 25  1  0  0  0  0
  4 25  1  0  0  0  0
  5 35  1  0  0  0  0
  5 36  1  0  0  0  0
  6 27  2  0  0  0  0
  7  8  1  0  0  0  0
  7 13  1  0  0  0  0
  7 19  1  0  0  0  0
  8 15  2  0  0  0  0
  9 14  1  0  0  0  0
  9 29  1  0  0  0  0
  9 30  1  0  0  0  0
 10 13  2  0  0  0  0
 10 23  1  0  0  0  0
 11 18  1  0  0  0  0
 11 31  2  0  0  0  0
 12 21  1  0  0  0  0
 12 27  1  0  0  0  0
 13 14  1  0  0  0  0
 14 17  2  0  0  0  0
 15 16  1  0  0  0  0
 15 17  1  0  0  0  0
 16 18  2  0  0  0  0
 16 20  1  0  0  0  0
 18 34  1  0  0  0  0
 19 23  2  0  0  0  0
 20 21  2  0  0  0  0
 21 31  1  0  0  0  0
 22 25  1  0  0  0  0
 22 26  2  0  0  0  0
 22 28  1  0  0  0  0
 24 27  1  0  0  0  0
 24 28  2  0  0  0  0
 24 32  1  0  0  0  0
 26 33  1  0  0  0  0
 26 37  1  0  0  0  0
 29 35  1  0  0  0  0
 30 36  1  0  0  0  0
 32 33  2  0  0  0  0
M  END
> <PUBCHEM_COMPOUND_ID_TYPE>
0

> <PUBCHEM_TOTAL_CHARGE>
0

> <PUBCHEM_SUBSTANCE_ID>
310943680

> <PUBCHEM_SUBSTANCE_VERSION>
1

> <PUBCHEM_EXT_DATASOURCE_NAME>
4488

> <PUBCHEM_EXT_DATASOURCE_REGID>
SCHEMBL16121748

> <PUBCHEM_SUBSTANCE_COMMENT>
InChI=1S/C25H22BrF3N6O2/c1-15-19(21-12-22(34-6-8-37-9-7-34)23-30-4-5-35(23)33-21)11-18(14-31-15)32-24(36)16-2-3-17(13-26)20(10-16)25(27,28)29/h2-5,10-12,14H,6-9,13H2,1H3,(H,32,36)
InChIKey=VGSNKASDIGSLKA-UHFFFAOYSA-N

> <PUBCHEM_SUBSTANCE_SYNONYM>
SCHEMBL16121748

> <PUBCHEM_XREF_EXT_ID>
SCHEMBL16121748

> <PUBCHEM_EXT_DATASOURCE_URL>
https://www.surechembl.org/

> <PUBCHEM_EXT_SUBSTANCE_URL>
https://www.surechembl.org/chemical/SCHEMBL16121748

> <PUBCHEM_CID_ASSOCIATIONS>
117610069  1

> <PUBCHEM_COORDINATE_TYPE>
1
3

$$$$
