310940180
  -OEChem-07211613022D

 32 34  0     1  0  0  0  0  0999 V2000
   -2.6466   -0.5580    0.0000 F   0  0  0  0  0  0  0  0  0  0  0  0
    0.5353    2.8803    0.0000 O   0  0  0  0  0  0  0  0  0  0  0  0
    0.0980   -3.0160    0.0000 O   0  0  0  0  0  0  0  0  0  0  0  0
   -1.3195   -3.2422    0.0000 O   0  0  0  0  0  0  0  0  0  0  0  0
   -0.9878    0.5429    0.0000 N   0  0  0  0  0  0  0  0  0  0  0  0
   -1.4703    1.2215    0.0000 N   0  0  0  0  0  0  0  0  0  0  0  0
   -0.8973   -1.8850    0.0000 N   0  0  0  0  0  0  0  0  0  0  0  0
    1.2441    1.6287    0.0000 N   0  0  0  0  0  0  0  0  0  0  0  0
   -1.2441    2.6843    0.0000 N   0  0  0  0  0  0  0  0  0  0  0  0
   -3.3855    0.0000    0.0000 N   0  0  0  0  0  0  0  0  0  0  0  0
   -1.2441   -0.2564    0.0000 C   0  0  3  0  0  0  0  0  0  0  0  0
   -0.2187    0.7992    0.0000 C   0  0  0  0  0  0  0  0  0  0  0  0
   -0.1885    1.6437    0.0000 C   0  0  0  0  0  0  0  0  0  0  0  0
   -1.8473   -0.8294    0.0000 C   0  0  3  0  0  0  0  0  0  0  0  0
   -0.9878    1.9151    0.0000 C   0  0  0  0  0  0  0  0  0  0  0  0
   -0.4449   -0.5127    0.0000 C   0  0  0  0  0  0  0  0  0  0  0  0
    0.5203    2.0660    0.0000 C   0  0  0  0  0  0  0  0  0  0  0  0
   -1.8021    0.3619    0.0000 C   0  0  0  0  0  0  0  0  0  0  0  0
    0.5504    0.3921    0.0000 C   0  0  0  0  0  0  0  0  0  0  0  0
   -1.6814   -1.6287    0.0000 C   0  0  0  0  0  0  0  0  0  0  0  0
   -0.2790   -1.3120    0.0000 C   0  0  0  0  0  0  0  0  0  0  0  0
    1.2441    0.7992    0.0000 C   0  0  0  0  0  0  0  0  0  0  0  0
   -0.7163   -2.7144    0.0000 C   0  0  0  0  0  0  0  0  0  0  0  0
   -2.6014    0.1810    0.0000 C   0  0  0  0  0  0  0  0  0  0  0  0
    1.2441    3.2422    0.0000 C   0  0  0  0  0  0  0  0  0  0  0  0
    0.7615   -2.5033    0.0000 C   0  0  0  0  0  0  0  0  0  0  0  0
    1.9529    2.8351    0.0000 C   0  0  0  0  0  0  0  0  0  0  0  0
    1.2743   -3.0462    0.0000 C   0  0  0  0  0  0  0  0  0  0  0  0
    0.2488   -1.9151    0.0000 C   0  0  0  0  0  0  0  0  0  0  0  0
    1.3648   -1.9453    0.0000 C   0  0  0  0  0  0  0  0  0  0  0  0
    2.6767    3.2422    0.0000 C   0  0  0  0  0  0  0  0  0  0  0  0
    3.3855    2.8200    0.0000 C   0  0  0  0  0  0  0  0  0  0  0  0
 14  1  1  1  0  0  0
  2 17  1  0  0  0  0
  2 25  1  0  0  0  0
  3 23  1  0  0  0  0
  3 26  1  0  0  0  0
  4 23  2  0  0  0  0
  5  6  1  0  0  0  0
  5 11  1  0  0  0  0
  5 12  1  0  0  0  0
  6 15  2  0  0  0  0
  7 20  1  0  0  0  0
  7 21  1  0  0  0  0
  7 23  1  0  0  0  0
  8 17  2  0  0  0  0
  8 22  1  0  0  0  0
  9 15  1  0  0  0  0
 10 24  3  0  0  0  0
 11 14  1  0  0  0  0
 11 16  1  0  0  0  0
 11 18  1  1  0  0  0
 12 13  2  0  0  0  0
 12 19  1  0  0  0  0
 13 15  1  0  0  0  0
 13 17  1  0  0  0  0
 14 20  1  0  0  0  0
 16 21  1  0  0  0  0
 18 24  1  0  0  0  0
 19 22  2  0  0  0  0
 25 27  1  0  0  0  0
 26 28  1  0  0  0  0
 26 29  1  0  0  0  0
 26 30  1  0  0  0  0
 27 31  1  0  0  0  0
 31 32  1  0  0  0  0
M  END
> <PUBCHEM_COMPOUND_ID_TYPE>
0

> <PUBCHEM_TOTAL_CHARGE>
0

> <PUBCHEM_SUBSTANCE_ID>
310940180

> <PUBCHEM_SUBSTANCE_VERSION>
1

> <PUBCHEM_EXT_DATASOURCE_NAME>
4488

> <PUBCHEM_EXT_DATASOURCE_REGID>
SCHEMBL16118114

> <PUBCHEM_SUBSTANCE_COMMENT>
InChI=1S/C22H31FN6O3/c1-5-6-13-31-19-17-15(7-11-26-19)29(27-18(17)25)22(8-10-24)9-12-28(14-16(22)23)20(30)32-21(2,3)4/h7,11,16H,5-6,8-9,12-14H2,1-4H3,(H2,25,27)/t16-,22-/m1/s1
InChIKey=SAWOTYAIDASAJP-OPAMFIHVSA-N

> <PUBCHEM_SUBSTANCE_SYNONYM>
SCHEMBL16118114

> <PUBCHEM_XREF_EXT_ID>
SCHEMBL16118114

> <PUBCHEM_EXT_DATASOURCE_URL>
https://www.surechembl.org/

> <PUBCHEM_EXT_SUBSTANCE_URL>
https://www.surechembl.org/chemical/SCHEMBL16118114

> <PUBCHEM_CID_ASSOCIATIONS>
117607288  1

> <PUBCHEM_COORDINATE_TYPE>
1
3

> <PUBCHEM_BONDANNOTATIONS>
14  1  5
11  18  5

$$$$
