310933501
  -OEChem-07211613022D

 29 33  0     0  0  0  0  0  0999 V2000
    2.6949   -0.5775    0.0000 F   0  0  0  0  0  0  0  0  0  0  0  0
    0.4125   -0.3850    0.0000 O   0  0  0  0  0  0  0  0  0  0  0  0
    5.5271   -2.2273    0.0000 O   0  0  0  0  0  0  0  0  0  0  0  0
    4.2072   -2.8598    0.0000 N   0  0  0  0  0  0  0  0  0  0  0  0
    4.2072   -1.5674    0.0000 N   0  0  0  0  0  0  0  0  0  0  0  0
    0.0000   -1.0999    0.0000 N   0  0  0  0  0  0  0  0  0  0  0  0
    4.0972   -5.4996    0.0000 N   0  0  0  0  0  0  0  0  0  0  0  0
    2.6949   -3.0248    0.0000 C   0  0  0  0  0  0  0  0  0  0  0  0
    3.4098   -2.6398    0.0000 C   0  0  0  0  0  0  0  0  0  0  0  0
    3.4098   -1.7874    0.0000 C   0  0  0  0  0  0  0  0  0  0  0  0
    2.0074   -1.7874    0.0000 C   0  0  0  0  0  0  0  0  0  0  0  0
    2.6949   -1.4024    0.0000 C   0  0  0  0  0  0  0  0  0  0  0  0
    2.6949   -3.8498    0.0000 C   0  0  0  0  0  0  0  0  0  0  0  0
    2.0074   -2.6398    0.0000 C   0  0  0  0  0  0  0  0  0  0  0  0
    1.2924   -1.3749    0.0000 C   0  0  0  0  0  0  0  0  0  0  0  0
    3.3823   -4.2622    0.0000 C   0  0  0  0  0  0  0  0  0  0  0  0
    4.7022   -2.2273    0.0000 C   0  0  0  0  0  0  0  0  0  0  0  0
    1.9799   -4.2622    0.0000 C   0  0  0  0  0  0  0  0  0  0  0  0
    1.2099   -0.5499    0.0000 C   0  0  0  0  0  0  0  0  0  0  0  0
    0.5499   -1.7049    0.0000 C   0  0  0  0  0  0  0  0  0  0  0  0
    3.3823   -5.0872    0.0000 C   0  0  0  0  0  0  0  0  0  0  0  0
    1.9799   -5.0872    0.0000 C   0  0  0  0  0  0  0  0  0  0  0  0
    4.0972   -3.8498    0.0000 C   0  0  0  0  0  0  0  0  0  0  0  0
    2.6949   -5.4996    0.0000 C   0  0  0  0  0  0  0  0  0  0  0  0
    1.2649   -3.8498    0.0000 C   0  0  0  0  0  0  0  0  0  0  0  0
    1.8149    0.0000    0.0000 C   0  0  0  0  0  0  0  0  0  0  0  0
    0.3850   -2.5023    0.0000 C   0  0  0  0  0  0  0  0  0  0  0  0
    4.8122   -4.2622    0.0000 C   0  0  0  0  0  0  0  0  0  0  0  0
    4.8122   -5.0872    0.0000 C   0  0  0  0  0  0  0  0  0  0  0  0
  1 12  1  0  0  0  0
  2  6  1  0  0  0  0
  2 19  1  0  0  0  0
  3 17  2  0  0  0  0
  4  9  1  0  0  0  0
  4 17  1  0  0  0  0
  5 10  1  0  0  0  0
  5 17  1  0  0  0  0
  6 20  2  0  0  0  0
  7 21  2  0  0  0  0
  7 29  1  0  0  0  0
  8  9  1  0  0  0  0
  8 13  1  0  0  0  0
  8 14  2  0  0  0  0
  9 10  2  0  0  0  0
 10 12  1  0  0  0  0
 11 12  2  0  0  0  0
 11 14  1  0  0  0  0
 11 15  1  0  0  0  0
 13 16  1  0  0  0  0
 13 18  2  0  0  0  0
 15 19  2  0  0  0  0
 15 20  1  0  0  0  0
 16 21  1  0  0  0  0
 16 23  2  0  0  0  0
 18 22  1  0  0  0  0
 18 25  1  0  0  0  0
 19 26  1  0  0  0  0
 20 27  1  0  0  0  0
 21 24  1  0  0  0  0
 22 24  2  0  0  0  0
 23 28  1  0  0  0  0
 28 29  2  0  0  0  0
M  END
> <PUBCHEM_COMPOUND_ID_TYPE>
0

> <PUBCHEM_TOTAL_CHARGE>
0

> <PUBCHEM_SUBSTANCE_ID>
310933501

> <PUBCHEM_SUBSTANCE_VERSION>
1

> <PUBCHEM_EXT_DATASOURCE_NAME>
4488

> <PUBCHEM_EXT_DATASOURCE_REGID>
SCHEMBL16110921

> <PUBCHEM_SUBSTANCE_COMMENT>
InChI=1S/C22H17FN4O2/c1-10-6-7-16-13(5-4-8-24-16)17(10)15-9-14(18-11(2)27-29-12(18)3)19(23)21-20(15)25-22(28)26-21/h4-9H,1-3H3,(H2,25,26,28)
InChIKey=KXRGELHPAACJEE-UHFFFAOYSA-N

> <PUBCHEM_SUBSTANCE_SYNONYM>
SCHEMBL16110921

> <PUBCHEM_XREF_EXT_ID>
SCHEMBL16110921

> <PUBCHEM_EXT_DATASOURCE_URL>
https://www.surechembl.org/

> <PUBCHEM_EXT_SUBSTANCE_URL>
https://www.surechembl.org/chemical/SCHEMBL16110921

> <PUBCHEM_CID_ASSOCIATIONS>
117601894  1

> <PUBCHEM_COORDINATE_TYPE>
1
3

$$$$
