310949790
  -OEChem-07211613022D

 25 26  0     0  0  0  0  0  0999 V2000
    1.7830    2.4641    0.0000 O   0  0  0  0  0  0  0  0  0  0  0  0
    0.9816    1.3422    0.0000 O   0  0  0  0  0  0  0  0  0  0  0  0
    0.2004    0.6010    0.0000 N   0  0  0  0  0  0  0  0  0  0  0  0
   -0.5208   -1.4424    0.0000 N   0  0  0  0  0  0  0  0  0  0  0  0
   -1.2220    0.6010    0.0000 N   0  0  0  0  0  0  0  0  0  0  0  0
    0.9015   -1.4424    0.0000 N   0  0  0  0  0  0  0  0  0  0  0  0
   -1.9432   -0.6210    0.0000 N   0  0  0  0  0  0  0  0  0  0  0  0
    1.6227   -0.2203    0.0000 N   0  0  0  0  0  0  0  0  0  0  0  0
   -0.5208    1.9432    0.0000 N   0  0  0  0  0  0  0  0  0  0  0  0
    0.2004   -2.6643    0.0000 N   0  0  0  0  0  0  0  0  0  0  0  0
    0.2004   -0.1803    0.0000 C   0  0  0  0  0  0  0  0  0  0  0  0
   -0.5009   -0.5810    0.0000 C   0  0  0  0  0  0  0  0  0  0  0  0
   -1.2220   -0.1803    0.0000 C   0  0  0  0  0  0  0  0  0  0  0  0
    0.9215   -0.5810    0.0000 C   0  0  0  0  0  0  0  0  0  0  0  0
   -0.5208    1.0417    0.0000 C   0  0  0  0  0  0  0  0  0  0  0  0
    0.2203   -1.8029    0.0000 C   0  0  0  0  0  0  0  0  0  0  0  0
    0.3005    2.5042    0.0000 C   0  0  0  0  0  0  0  0  0  0  0  0
    0.9616   -3.1051    0.0000 C   0  0  0  0  0  0  0  0  0  0  0  0
   -2.8046   -0.1001    0.0000 C   0  0  0  0  0  0  0  0  0  0  0  0
    2.4841   -0.7412    0.0000 C   0  0  0  0  0  0  0  0  0  0  0  0
    1.0016    2.1836    0.0000 C   0  0  0  0  0  0  0  0  0  0  0  0
    1.6827   -2.7044    0.0000 C   0  0  0  0  0  0  0  0  0  0  0  0
    2.3839    2.4641    0.0000 C   0  0  0  0  0  0  0  0  0  0  0  0
    2.4240   -3.1051    0.0000 C   0  0  0  0  0  0  0  0  0  0  0  0
    2.8046    3.1652    0.0000 C   0  0  0  0  0  0  0  0  0  0  0  0
  1 21  1  0  0  0  0
  1 23  1  0  0  0  0
  2 21  2  0  0  0  0
  3 11  1  0  0  0  0
  3 15  2  0  0  0  0
  4 12  1  0  0  0  0
  4 16  2  0  0  0  0
  5 13  2  0  0  0  0
  5 15  1  0  0  0  0
  6 14  2  0  0  0  0
  6 16  1  0  0  0  0
  7 13  1  0  0  0  0
  7 19  1  0  0  0  0
  8 14  1  0  0  0  0
  8 20  1  0  0  0  0
  9 15  1  0  0  0  0
  9 17  1  0  0  0  0
 10 16  1  0  0  0  0
 10 18  1  0  0  0  0
 11 12  2  0  0  0  0
 11 14  1  0  0  0  0
 12 13  1  0  0  0  0
 17 21  1  0  0  0  0
 18 22  1  0  0  0  0
 22 24  1  0  0  0  0
 23 25  1  0  0  0  0
M  END
> <PUBCHEM_COMPOUND_ID_TYPE>
0

> <PUBCHEM_TOTAL_CHARGE>
0

> <PUBCHEM_SUBSTANCE_ID>
310949790

> <PUBCHEM_SUBSTANCE_VERSION>
1

> <PUBCHEM_EXT_DATASOURCE_NAME>
4488

> <PUBCHEM_EXT_DATASOURCE_REGID>
SCHEMBL16127988

> <PUBCHEM_SUBSTANCE_COMMENT>
InChI=1S/C15H24N8O2/c1-5-7-18-14-20-10-11(12(16-3)22-14)21-15(23-13(10)17-4)19-8-9(24)25-6-2/h5-8H2,1-4H3,(H2,16,18,20,22)(H2,17,19,21,23)
InChIKey=BKNVVOKAUOZVKO-UHFFFAOYSA-N

> <PUBCHEM_SUBSTANCE_SYNONYM>
SCHEMBL16127988

> <PUBCHEM_XREF_EXT_ID>
SCHEMBL16127988

> <PUBCHEM_EXT_DATASOURCE_URL>
https://www.surechembl.org/

> <PUBCHEM_EXT_SUBSTANCE_URL>
https://www.surechembl.org/chemical/SCHEMBL16127988

> <PUBCHEM_CID_ASSOCIATIONS>
117615113  1

> <PUBCHEM_COORDINATE_TYPE>
1
3

$$$$
