310947642
  -OEChem-07211613022D

 30 29  0     1  0  0  0  0  0999 V2000
   -0.8918    5.7249    0.0000 S   0  0  0  0  0  0  0  0  0  0  0  0
   -5.8931    4.4874    0.0000 O   0  0  0  0  0  0  0  0  0  0  0  0
   -6.6076    2.4249    0.0000 O   0  0  0  0  0  0  0  0  0  0  0  0
   -5.1786    2.4249    0.0000 O   0  0  0  0  0  0  0  0  0  0  0  0
   -7.3220    4.4874    0.0000 O   0  0  0  0  0  0  0  0  0  0  0  0
   -4.4642    4.4874    0.0000 O   0  0  0  0  0  0  0  0  0  0  0  0
   -8.0365    2.4249    0.0000 O   0  0  0  0  0  0  0  0  0  0  0  0
   -0.8918    4.8999    0.0000 O   0  0  0  0  0  0  0  0  0  0  0  0
    1.2516    6.9624    0.0000 O   0  0  0  0  0  0  0  0  0  0  0  0
   -3.7497    3.2499    0.0000 N   0  0  0  0  0  0  0  0  0  0  0  0
    0.5371    4.8999    0.0000 N   0  0  0  0  0  0  0  0  0  0  0  0
    0.5371    3.2499    0.0000 N   0  0  0  0  0  0  0  0  0  0  0  0
    1.9661    5.7249    0.0000 N   0  0  0  0  0  0  0  0  0  0  0  0
   -5.8931    3.6624    0.0000 C   0  0  3  0  0  0  0  0  0  0  0  0
   -6.6076    3.2499    0.0000 C   0  0  3  0  0  0  0  0  0  0  0  0
   -5.1786    3.2499    0.0000 C   0  0  3  0  0  0  0  0  0  0  0  0
   -7.3220    3.6624    0.0000 C   0  0  3  0  0  0  0  0  0  0  0  0
   -4.4642    3.6624    0.0000 C   0  0  0  0  0  0  0  0  0  0  0  0
   -8.0365    3.2499    0.0000 C   0  0  0  0  0  0  0  0  0  0  0  0
   -0.1773    4.4874    0.0000 C   0  0  0  0  0  0  0  0  0  0  0  0
   -0.1773    3.6624    0.0000 C   0  0  3  0  0  0  0  0  0  0  0  0
    0.5371    5.7249    0.0000 C   0  0  3  0  0  0  0  0  0  0  0  0
    1.2516    6.1374    0.0000 C   0  0  0  0  0  0  0  0  0  0  0  0
   -0.8918    3.2499    0.0000 C   0  0  0  0  0  0  0  0  0  0  0  0
   -3.0352    3.6624    0.0000 C   0  0  0  0  0  0  0  0  0  0  0  0
   -0.1773    6.1374    0.0000 C   0  0  0  0  0  0  0  0  0  0  0  0
   -1.6063    3.6624    0.0000 C   0  0  0  0  0  0  0  0  0  0  0  0
   -8.7510    3.6624    0.0000 C   0  0  0  0  0  0  0  0  0  0  0  0
   -2.3208    3.2499    0.0000 C   0  0  0  0  0  0  0  0  0  0  0  0
    1.2516    3.6624    0.0000 C   0  0  0  0  0  0  0  0  0  0  0  0
  1 26  1  0  0  0  0
 14  2  1  1  0  0  0
 15  3  1  6  0  0  0
 16  4  1  1  0  0  0
 17  5  1  6  0  0  0
  6 18  2  0  0  0  0
  7 19  2  0  0  0  0
  8 20  2  0  0  0  0
  9 23  2  0  0  0  0
 10 18  1  0  0  0  0
 10 25  1  0  0  0  0
 11 20  1  0  0  0  0
 22 11  1  1  0  0  0
 21 12  1  1  0  0  0
 12 30  1  0  0  0  0
 13 23  1  0  0  0  0
 14 15  1  0  0  0  0
 14 16  1  0  0  0  0
 15 17  1  0  0  0  0
 16 18  1  0  0  0  0
 17 19  1  0  0  0  0
 19 28  1  0  0  0  0
 20 21  1  0  0  0  0
 21 24  1  0  0  0  0
 22 23  1  0  0  0  0
 22 26  1  0  0  0  0
 24 27  1  0  0  0  0
 25 29  1  0  0  0  0
 27 29  1  0  0  0  0
M  END
> <PUBCHEM_COMPOUND_ID_TYPE>
0

> <PUBCHEM_TOTAL_CHARGE>
0

> <PUBCHEM_SUBSTANCE_ID>
310947642

> <PUBCHEM_SUBSTANCE_VERSION>
1

> <PUBCHEM_EXT_DATASOURCE_NAME>
4488

> <PUBCHEM_EXT_DATASOURCE_REGID>
SCHEMBL16125809

> <PUBCHEM_SUBSTANCE_COMMENT>
InChI=1S/C17H32N4O8S/c1-8(22)11(23)12(24)13(25)14(26)17(29)20-6-4-3-5-9(19-2)16(28)21-10(7-30)15(18)27/h9-14,19,23-26,30H,3-7H2,1-2H3,(H2,18,27)(H,20,29)(H,21,28)/t9-,10-,11-,12+,13+,14-/m0/s1
InChIKey=HBFCLPGPKSSRNN-QQKNPXLJSA-N

> <PUBCHEM_SUBSTANCE_SYNONYM>
SCHEMBL16125809

> <PUBCHEM_XREF_EXT_ID>
SCHEMBL16125809

> <PUBCHEM_EXT_DATASOURCE_URL>
https://www.surechembl.org/

> <PUBCHEM_EXT_SUBSTANCE_URL>
https://www.surechembl.org/chemical/SCHEMBL16125809

> <PUBCHEM_CID_ASSOCIATIONS>
117613358  1

> <PUBCHEM_COORDINATE_TYPE>
1
3

> <PUBCHEM_BONDANNOTATIONS>
22  11  5
21  12  5
14  2  5
15  3  6
16  4  5
17  5  6

$$$$
