310942156
  -OEChem-07211613022D

 26 28  0     1  0  0  0  0  0999 V2000
    1.3436    0.7249    0.0000 Cl  0  0  0  0  0  0  0  0  0  0  0  0
   -0.1062   -1.7748    0.0000 F   0  0  0  0  0  0  0  0  0  0  0  0
    1.3311   -0.9374    0.0000 O   0  0  0  0  0  0  0  0  0  0  0  0
   -2.2560   -0.5249    0.0000 N   0  0  0  0  0  0  0  0  0  0  0  0
   -1.4310    0.9249    0.0000 N   0  0  0  0  0  0  0  0  0  0  0  0
   -1.8560    2.1997    0.0000 N   0  0  0  0  0  0  0  0  0  0  0  0
   -0.8312   -0.5124    0.0000 C   0  0  0  0  0  0  0  0  0  0  0  0
   -0.1187   -0.9249    0.0000 C   0  0  0  0  0  0  0  0  0  0  0  0
    0.6061   -0.5124    0.0000 C   0  0  0  0  0  0  0  0  0  0  0  0
   -1.5310   -0.9249    0.0000 C   0  0  3  0  0  0  0  0  0  0  0  0
    0.6186    0.3250    0.0000 C   0  0  0  0  0  0  0  0  0  0  0  0
   -0.8187    0.3125    0.0000 C   0  0  0  0  0  0  0  0  0  0  0  0
   -0.1062    0.7249    0.0000 C   0  0  0  0  0  0  0  0  0  0  0  0
   -2.6809    0.1874    0.0000 C   0  0  3  0  0  0  0  0  0  0  0  0
    2.0559   -0.5124    0.0000 C   0  0  0  0  0  0  0  0  0  0  0  0
   -2.2685    0.9374    0.0000 C   0  0  0  0  0  0  0  0  0  0  0  0
   -1.5560   -1.7748    0.0000 C   0  0  0  0  0  0  0  0  0  0  0  0
   -2.5184    1.6998    0.0000 C   0  0  0  0  0  0  0  0  0  0  0  0
    2.0684    0.3125    0.0000 C   0  0  0  0  0  0  0  0  0  0  0  0
    2.7934   -0.9249    0.0000 C   0  0  0  0  0  0  0  0  0  0  0  0
   -3.5058    0.1999    0.0000 C   0  0  0  0  0  0  0  0  0  0  0  0
   -1.1811    1.7123    0.0000 C   0  0  0  0  0  0  0  0  0  0  0  0
    2.7809    0.7249    0.0000 C   0  0  0  0  0  0  0  0  0  0  0  0
    3.5058   -0.5124    0.0000 C   0  0  0  0  0  0  0  0  0  0  0  0
   -2.2560   -2.1997    0.0000 C   0  0  0  0  0  0  0  0  0  0  0  0
    3.5058    0.3125    0.0000 C   0  0  0  0  0  0  0  0  0  0  0  0
  1 11  1  0  0  0  0
  2  8  1  0  0  0  0
  3  9  1  0  0  0  0
  3 15  1  0  0  0  0
 10  4  1  1  0  0  0
  4 14  1  0  0  0  0
  5 16  1  0  0  0  0
  5 22  2  0  0  0  0
  6 18  1  0  0  0  0
  6 22  1  0  0  0  0
  7  8  2  0  0  0  0
  7 10  1  0  0  0  0
  7 12  1  0  0  0  0
  8  9  1  0  0  0  0
  9 11  2  0  0  0  0
 10 17  1  0  0  0  0
 11 13  1  0  0  0  0
 12 13  2  0  0  0  0
 14 16  1  0  0  0  0
 14 21  1  6  0  0  0
 15 19  2  0  0  0  0
 15 20  1  0  0  0  0
 16 18  2  0  0  0  0
 17 25  1  0  0  0  0
 19 23  1  0  0  0  0
 20 24  2  0  0  0  0
 23 26  2  0  0  0  0
 24 26  1  0  0  0  0
M  END
> <PUBCHEM_COMPOUND_ID_TYPE>
0

> <PUBCHEM_TOTAL_CHARGE>
0

> <PUBCHEM_SUBSTANCE_ID>
310942156

> <PUBCHEM_SUBSTANCE_VERSION>
1

> <PUBCHEM_EXT_DATASOURCE_NAME>
4488

> <PUBCHEM_EXT_DATASOURCE_REGID>
SCHEMBL16120191

> <PUBCHEM_SUBSTANCE_COMMENT>
InChI=1S/C20H21ClFN3O/c1-3-17(25-13(2)18-11-23-12-24-18)15-9-10-16(21)20(19(15)22)26-14-7-5-4-6-8-14/h4-13,17,25H,3H2,1-2H3,(H,23,24)/t13-,17-/m1/s1
InChIKey=YULLZZNBEWEBIS-CXAGYDPISA-N

> <PUBCHEM_SUBSTANCE_SYNONYM>
SCHEMBL16120191

> <PUBCHEM_XREF_EXT_ID>
SCHEMBL16120191

> <PUBCHEM_EXT_DATASOURCE_URL>
https://www.surechembl.org/

> <PUBCHEM_EXT_SUBSTANCE_URL>
https://www.surechembl.org/chemical/SCHEMBL16120191

> <PUBCHEM_CID_ASSOCIATIONS>
117608812  1

> <PUBCHEM_COORDINATE_TYPE>
1
3

> <PUBCHEM_BONDANNOTATIONS>
14  21  6
10  4  5

$$$$
