310944253
  -OEChem-07211613022D

 16 17  0     0  0  0  0  0  0999 V2000
   -2.3622   -1.2565    0.0000 Cl  0  0  0  0  0  0  0  0  0  0  0  0
    0.7539   -1.2565    0.0000 O   0  0  0  0  0  0  0  0  0  0  0  0
    2.2113    1.2565    0.0000 O   0  0  0  0  0  0  0  0  0  0  0  0
    2.9317    0.0000    0.0000 O   0  0  0  0  0  0  0  0  0  0  0  0
    0.7706    0.4188    0.0000 N   0  0  0  0  0  0  0  0  0  0  0  0
   -1.3905    0.0000    0.0000 C   0  0  0  0  0  0  0  0  0  0  0  0
   -2.1276    0.4356    0.0000 C   0  0  0  0  0  0  0  0  0  0  0  0
    0.0502    0.0167    0.0000 C   0  0  0  0  0  0  0  0  0  0  0  0
   -1.3905   -0.8376    0.0000 C   0  0  0  0  0  0  0  0  0  0  0  0
   -0.6701    0.4188    0.0000 C   0  0  0  0  0  0  0  0  0  0  0  0
    0.0335   -0.8209    0.0000 C   0  0  0  0  0  0  0  0  0  0  0  0
   -0.6534   -1.2397    0.0000 C   0  0  0  0  0  0  0  0  0  0  0  0
   -2.9317    0.4356    0.0000 C   0  0  0  0  0  0  0  0  0  0  0  0
   -2.5297    1.1392    0.0000 C   0  0  0  0  0  0  0  0  0  0  0  0
    1.5245    0.0167    0.0000 C   0  0  0  0  0  0  0  0  0  0  0  0
    2.2281    0.4188    0.0000 C   0  0  0  0  0  0  0  0  0  0  0  0
  1  9  1  0  0  0  0
  2 11  1  0  0  0  0
  3 16  2  0  0  0  0
  4 16  1  0  0  0  0
  5  8  1  0  0  0  0
  5 15  1  0  0  0  0
  6  7  1  0  0  0  0
  6  9  2  0  0  0  0
  6 10  1  0  0  0  0
  7 13  1  0  0  0  0
  7 14  1  0  0  0  0
  8 10  2  0  0  0  0
  8 11  1  0  0  0  0
  9 12  1  0  0  0  0
 11 12  2  0  0  0  0
 13 14  1  0  0  0  0
 15 16  1  0  0  0  0
M  END
> <PUBCHEM_COMPOUND_ID_TYPE>
0

> <PUBCHEM_TOTAL_CHARGE>
0

> <PUBCHEM_SUBSTANCE_ID>
310944253

> <PUBCHEM_SUBSTANCE_VERSION>
1

> <PUBCHEM_EXT_DATASOURCE_NAME>
4488

> <PUBCHEM_EXT_DATASOURCE_REGID>
SCHEMBL16122328

> <PUBCHEM_SUBSTANCE_COMMENT>
InChI=1S/C11H12ClNO3/c12-8-4-10(14)9(13-5-11(15)16)3-7(8)6-1-2-6/h3-4,6,13-14H,1-2,5H2,(H,15,16)
InChIKey=YISMEQQAOFBXLD-UHFFFAOYSA-N

> <PUBCHEM_SUBSTANCE_SYNONYM>
SCHEMBL16122328

> <PUBCHEM_XREF_EXT_ID>
SCHEMBL16122328

> <PUBCHEM_EXT_DATASOURCE_URL>
https://www.surechembl.org/

> <PUBCHEM_EXT_SUBSTANCE_URL>
https://www.surechembl.org/chemical/SCHEMBL16122328

> <PUBCHEM_CID_ASSOCIATIONS>
117610523  1

> <PUBCHEM_COORDINATE_TYPE>
1
3

$$$$
