310934209
  -OEChem-07211613022D

 23 25  0     0  0  0  0  0  0999 V2000
    3.1634   -3.3644    0.0000 O   0  0  0  0  0  0  0  0  0  0  0  0
    1.8044   -3.8059    0.0000 O   0  0  0  0  0  0  0  0  0  0  0  0
    0.7846   -0.6674    0.0000 N   0  0  0  0  0  0  0  0  0  0  0  0
    0.7846    0.6674    0.0000 N   0  0  0  0  0  0  0  0  0  0  0  0
   -0.7145   -0.8250    0.0000 N   0  0  0  0  0  0  0  0  0  0  0  0
   -1.4290    0.4125    0.0000 N   0  0  0  0  0  0  0  0  0  0  0  0
   -0.7145    1.6500    0.0000 N   0  0  0  0  0  0  0  0  0  0  0  0
   -2.1434   -0.8250    0.0000 N   0  0  0  0  0  0  0  0  0  0  0  0
   -1.4290    2.0625    0.0000 N   0  3  0  0  0  0  0  0  0  0  0  0
   -2.1434    2.4750    0.0000 N   0  5  0  0  0  0  0  0  0  0  0  0
    0.0000   -0.4125    0.0000 C   0  0  0  0  0  0  0  0  0  0  0  0
    0.0000    0.4125    0.0000 C   0  0  0  0  0  0  0  0  0  0  0  0
   -0.7145    0.8250    0.0000 C   0  0  0  0  0  0  0  0  0  0  0  0
    1.2696    0.0000    0.0000 C   0  0  0  0  0  0  0  0  0  0  0  0
   -1.4290   -0.4125    0.0000 C   0  0  0  0  0  0  0  0  0  0  0  0
    1.0396   -1.4521    0.0000 C   0  0  0  0  0  0  0  0  0  0  0  0
    2.1015   -2.4082    0.0000 C   0  0  0  0  0  0  0  0  0  0  0  0
    1.8465   -1.6236    0.0000 C   0  0  0  0  0  0  0  0  0  0  0  0
    2.6114   -3.9774    0.0000 C   0  0  0  0  0  0  0  0  0  0  0  0
    1.5495   -3.0213    0.0000 C   0  0  0  0  0  0  0  0  0  0  0  0
    2.9084   -2.5797    0.0000 C   0  0  0  0  0  0  0  0  0  0  0  0
    3.2245   -4.5295    0.0000 C   0  0  0  0  0  0  0  0  0  0  0  0
    2.4398   -4.7844    0.0000 C   0  0  0  0  0  0  0  0  0  0  0  0
  1 19  1  0  0  0  0
  1 21  1  0  0  0  0
  2 19  1  0  0  0  0
  2 20  1  0  0  0  0
  3 11  1  0  0  0  0
  3 14  1  0  0  0  0
  3 16  1  0  0  0  0
  4 12  1  0  0  0  0
  4 14  2  0  0  0  0
  5 11  2  0  0  0  0
  5 15  1  0  0  0  0
  6 13  1  0  0  0  0
  6 15  2  0  0  0  0
  7  9  2  0  0  0  0
  7 13  1  0  0  0  0
  8 15  1  0  0  0  0
  9 10  2  0  0  0  0
 11 12  1  0  0  0  0
 12 13  2  0  0  0  0
 16 18  1  0  0  0  0
 17 18  1  0  0  0  0
 17 20  1  0  0  0  0
 17 21  1  0  0  0  0
 19 22  1  0  0  0  0
 19 23  1  0  0  0  0
M  CHG  2   9   1  10  -1
M  END
> <PUBCHEM_COMPOUND_ID_TYPE>
0

> <PUBCHEM_TOTAL_CHARGE>
0

> <PUBCHEM_SUBSTANCE_ID>
310934209

> <PUBCHEM_SUBSTANCE_VERSION>
1

> <PUBCHEM_EXT_DATASOURCE_NAME>
4488

> <PUBCHEM_EXT_DATASOURCE_REGID>
SCHEMBL16111664

> <PUBCHEM_SUBSTANCE_COMMENT>
InChI=1S/C13H18N8O2/c1-13(2)22-5-8(6-23-13)3-4-21-7-16-9-10(19-20-15)17-12(14)18-11(9)21/h7-8H,3-6H2,1-2H3,(H2,14,17,18)
InChIKey=UDVRZHHUUZKECX-UHFFFAOYSA-N

> <PUBCHEM_SUBSTANCE_SYNONYM>
SCHEMBL16111664

> <PUBCHEM_XREF_EXT_ID>
SCHEMBL16111664

> <PUBCHEM_EXT_DATASOURCE_URL>
https://www.surechembl.org/

> <PUBCHEM_EXT_SUBSTANCE_URL>
https://www.surechembl.org/chemical/SCHEMBL16111664

> <PUBCHEM_CID_ASSOCIATIONS>
13869779  1

> <PUBCHEM_COORDINATE_TYPE>
1
3

$$$$
