310949892
  -OEChem-07211613022D

 31 36  0     1  0  0  0  0  0999 V2000
   -0.3676    1.8729    0.0000 N   0  0  0  0  0  0  0  0  0  0  0  0
    0.3954   -0.4994    0.0000 N   0  0  0  0  0  0  0  0  0  0  0  0
   -0.3676    3.2186    0.0000 N   0  0  0  0  0  0  0  0  0  0  0  0
    2.1989    1.8174    0.0000 N   0  0  0  0  0  0  0  0  0  0  0  0
   -0.1179    1.0822    0.0000 C   0  0  0  0  0  0  0  0  0  0  0  0
    0.1179    2.5527    0.0000 C   0  0  0  0  0  0  0  0  0  0  0  0
   -1.1723    2.1365    0.0000 C   0  0  0  0  0  0  0  0  0  0  0  0
   -1.1585    2.9689    0.0000 C   0  0  0  0  0  0  0  0  0  0  0  0
   -0.4092   -0.2913    0.0000 C   0  0  3  0  0  0  0  0  0  0  0  0
    0.9226    0.1526    0.0000 C   0  0  3  0  0  0  0  0  0  0  0  0
   -0.6590    0.4578    0.0000 C   0  0  0  0  0  0  0  0  0  0  0  0
    0.6867    0.9017    0.0000 C   0  0  0  0  0  0  0  0  0  0  0  0
    0.9642    2.5250    0.0000 C   0  0  3  0  0  0  0  0  0  0  0  0
    0.6451   -1.2763    0.0000 C   0  0  0  0  0  0  0  0  0  0  0  0
    0.3815    0.5272    0.0000 C   0  0  0  0  0  0  0  0  0  0  0  0
   -0.2289    0.3052    0.0000 C   0  0  0  0  0  0  0  0  0  0  0  0
   -1.8660    1.7203    0.0000 C   0  0  0  0  0  0  0  0  0  0  0  0
   -1.8799    3.3574    0.0000 C   0  0  0  0  0  0  0  0  0  0  0  0
    1.3665    1.8313    0.0000 C   0  0  0  0  0  0  0  0  0  0  0  0
    1.3526    3.2464    0.0000 C   0  0  0  0  0  0  0  0  0  0  0  0
   -2.6013    2.1365    0.0000 C   0  0  0  0  0  0  0  0  0  0  0  0
   -2.6013    2.9550    0.0000 C   0  0  0  0  0  0  0  0  0  0  0  0
    0.0347   -1.8313    0.0000 C   0  0  0  0  0  0  0  0  0  0  0  0
    1.4914   -1.3596    0.0000 C   0  0  0  0  0  0  0  0  0  0  0  0
    2.1989    3.2602    0.0000 C   0  0  0  0  0  0  0  0  0  0  0  0
    2.6013    2.5388    0.0000 C   0  0  0  0  0  0  0  0  0  0  0  0
   -0.0347   -2.6637    0.0000 C   0  0  0  0  0  0  0  0  0  0  0  0
    2.0186   -1.9839    0.0000 C   0  0  0  0  0  0  0  0  0  0  0  0
    0.5064   -3.2880    0.0000 C   0  0  0  0  0  0  0  0  0  0  0  0
    1.9492   -2.8163    0.0000 C   0  0  0  0  0  0  0  0  0  0  0  0
    1.3249   -3.3574    0.0000 C   0  0  0  0  0  0  0  0  0  0  0  0
  1  5  1  0  0  0  0
  1  6  1  0  0  0  0
  1  7  1  0  0  0  0
  2  9  1  0  0  0  0
  2 10  1  0  0  0  0
  2 14  1  0  0  0  0
  3  6  2  0  0  0  0
  3  8  1  0  0  0  0
  4 19  1  0  0  0  0
  4 26  1  0  0  0  0
  5 11  1  0  0  0  0
  5 12  1  0  0  0  0
 13  6  1  6  0  0  0
  7  8  1  0  0  0  0
  7 17  2  0  0  0  0
  8 18  2  0  0  0  0
  9 11  1  0  0  0  0
  9 16  1  0  0  0  0
 10 12  1  0  0  0  0
 10 15  1  0  0  0  0
 13 19  1  0  0  0  0
 13 20  1  0  0  0  0
 14 23  1  0  0  0  0
 14 24  1  0  0  0  0
 15 16  1  0  0  0  0
 17 21  1  0  0  0  0
 18 22  1  0  0  0  0
 20 25  1  0  0  0  0
 21 22  2  0  0  0  0
 23 27  1  0  0  0  0
 24 28  1  0  0  0  0
 25 26  1  0  0  0  0
 27 29  1  0  0  0  0
 28 30  1  0  0  0  0
 29 31  1  0  0  0  0
 30 31  1  0  0  0  0
M  END
> <PUBCHEM_COMPOUND_ID_TYPE>
0

> <PUBCHEM_TOTAL_CHARGE>
0

> <PUBCHEM_SUBSTANCE_ID>
310949892

> <PUBCHEM_SUBSTANCE_VERSION>
1

> <PUBCHEM_EXT_DATASOURCE_NAME>
4488

> <PUBCHEM_EXT_DATASOURCE_REGID>
SCHEMBL16128106

> <PUBCHEM_SUBSTANCE_COMMENT>
InChI=1S/C27H40N4/c1-2-4-10-21(11-5-3-1)30-22-14-15-23(30)18-24(17-22)31-26-13-7-6-12-25(26)29-27(31)20-9-8-16-28-19-20/h6-7,12-13,20-24,28H,1-5,8-11,14-19H2/t20-,22?,23?,24?/m1/s1
InChIKey=QXQGLVPNNVLTEW-OTPHCNIZSA-N

> <PUBCHEM_SUBSTANCE_SYNONYM>
SCHEMBL16128106

> <PUBCHEM_XREF_EXT_ID>
SCHEMBL16128106

> <PUBCHEM_EXT_DATASOURCE_URL>
https://www.surechembl.org/

> <PUBCHEM_EXT_SUBSTANCE_URL>
https://www.surechembl.org/chemical/SCHEMBL16128106

> <PUBCHEM_CID_ASSOCIATIONS>
117615179  1

> <PUBCHEM_COORDINATE_TYPE>
1
3

> <PUBCHEM_BONDANNOTATIONS>
13  6  6

$$$$
