310939093
  -OEChem-07211613022D

 19 19  0     1  0  0  0  0  0999 V2000
    2.6462   12.6035    0.0000 Cl  0  0  0  0  0  0  0  0  0  0  0  0
   -1.6406   10.9535    0.0000 S   0  0  3  0  0  0  0  0  0  0  0  0
    1.2173   10.1285    0.0000 F   0  0  0  0  0  0  0  0  0  0  0  0
    2.6462   10.9535    0.0000 O   0  0  0  0  0  0  0  0  0  0  0  0
   -1.6406   10.1285    0.0000 O   0  0  0  0  0  0  0  0  0  0  0  0
   -0.9262   11.3660    0.0000 N   0  0  0  0  0  0  0  0  0  0  0  0
    0.5028   11.3660    0.0000 C   0  0  0  0  0  0  0  0  0  0  0  0
    1.2173   10.9535    0.0000 C   0  0  0  0  0  0  0  0  0  0  0  0
   -0.2117   10.9535    0.0000 C   0  0  3  0  0  0  0  0  0  0  0  0
    1.9317   11.3660    0.0000 C   0  0  0  0  0  0  0  0  0  0  0  0
    1.9317   12.1910    0.0000 C   0  0  0  0  0  0  0  0  0  0  0  0
    0.5028   12.1910    0.0000 C   0  0  0  0  0  0  0  0  0  0  0  0
   -2.3551   11.3660    0.0000 C   0  0  0  0  0  0  0  0  0  0  0  0
    1.2173   12.6035    0.0000 C   0  0  0  0  0  0  0  0  0  0  0  0
   -0.2117   10.1285    0.0000 C   0  0  0  0  0  0  0  0  0  0  0  0
   -3.0696   10.9535    0.0000 C   0  0  0  0  0  0  0  0  0  0  0  0
   -2.3551   12.1910    0.0000 C   0  0  0  0  0  0  0  0  0  0  0  0
   -3.1520   11.5795    0.0000 C   0  0  0  0  0  0  0  0  0  0  0  0
   -0.9262    9.7160    0.0000 C   0  0  0  0  0  0  0  0  0  0  0  0
  1 11  1  0  0  0  0
  2  5  2  0  0  0  0
  2  6  1  6  0  0  0
  2 13  1  0  0  0  0
  3  8  1  0  0  0  0
  4 10  1  0  0  0  0
  9  6  1  1  0  0  0
  7  8  2  0  0  0  0
  7  9  1  0  0  0  0
  7 12  1  0  0  0  0
  8 10  1  0  0  0  0
  9 15  1  0  0  0  0
 10 11  2  0  0  0  0
 11 14  1  0  0  0  0
 12 14  2  0  0  0  0
 13 16  1  0  0  0  0
 13 17  1  0  0  0  0
 13 18  1  0  0  0  0
 15 19  1  0  0  0  0
M  END
> <PUBCHEM_COMPOUND_ID_TYPE>
0

> <PUBCHEM_TOTAL_CHARGE>
0

> <PUBCHEM_SUBSTANCE_ID>
310939093

> <PUBCHEM_SUBSTANCE_VERSION>
1

> <PUBCHEM_EXT_DATASOURCE_NAME>
4488

> <PUBCHEM_EXT_DATASOURCE_REGID>
SCHEMBL16117012

> <PUBCHEM_SUBSTANCE_COMMENT>
InChI=1S/C13H19ClFNO2S/c1-5-10(16-19(18)13(2,3)4)8-6-7-9(14)12(17)11(8)15/h6-7,10,16-17H,5H2,1-4H3/t10-,19-/m1/s1
InChIKey=PQMZWTUEANANIE-GIGQVBGESA-N

> <PUBCHEM_SUBSTANCE_SYNONYM>
SCHEMBL16117012

> <PUBCHEM_XREF_EXT_ID>
SCHEMBL16117012

> <PUBCHEM_EXT_DATASOURCE_URL>
https://www.surechembl.org/

> <PUBCHEM_EXT_SUBSTANCE_URL>
https://www.surechembl.org/chemical/SCHEMBL16117012

> <PUBCHEM_CID_ASSOCIATIONS>
117606453  1

> <PUBCHEM_COORDINATE_TYPE>
1
3

> <PUBCHEM_BONDANNOTATIONS>
2  6  6
9  6  5

$$$$
