310942996
  -OEChem-07211613022D

 30 33  0     1  0  0  0  0  0999 V2000
    0.8323   -2.3620    0.0000 Cl  0  0  0  0  0  0  0  0  0  0  0  0
   -1.3272   -1.1697    0.0000 O   0  0  0  0  0  0  0  0  0  0  0  0
   -2.3844   -1.6084    0.0000 O   0  0  0  0  0  0  0  0  0  0  0  0
   -3.8354   -1.3160    0.0000 O   0  0  0  0  0  0  0  0  0  0  0  0
   -2.0695    0.0112    0.0000 N   0  0  0  0  0  0  0  0  0  0  0  0
   -0.5848    0.0000    0.0000 N   0  0  0  0  0  0  0  0  0  0  0  0
    0.8773    0.0225    0.0000 C   0  0  0  0  0  0  0  0  0  0  0  0
    1.6196   -0.3711    0.0000 C   0  0  0  0  0  0  0  0  0  0  0  0
    0.1462   -0.3711    0.0000 C   0  0  0  0  0  0  0  0  0  0  0  0
    0.8886    0.8098    0.0000 C   0  0  0  0  0  0  0  0  0  0  0  0
    2.3620    0.0225    0.0000 C   0  0  0  0  0  0  0  0  0  0  0  0
    1.6196   -1.1585    0.0000 C   0  0  0  0  0  0  0  0  0  0  0  0
   -1.3272   -0.3487    0.0000 C   0  0  0  0  0  0  0  0  0  0  0  0
    0.1462   -1.1585    0.0000 C   0  0  0  0  0  0  0  0  0  0  0  0
    0.8773   -1.5409    0.0000 C   0  0  0  0  0  0  0  0  0  0  0  0
   -2.8568   -0.2812    0.0000 C   0  0  3  0  0  0  0  0  0  0  0  0
    1.6196    1.1922    0.0000 C   0  0  0  0  0  0  0  0  0  0  0  0
    0.1574    1.1922    0.0000 C   0  0  0  0  0  0  0  0  0  0  0  0
   -2.1595    0.8098    0.0000 C   0  0  0  0  0  0  0  0  0  0  0  0
    3.1042   -0.3711    0.0000 C   0  0  0  0  0  0  0  0  0  0  0  0
    2.3620    0.7986    0.0000 C   0  0  0  0  0  0  0  0  0  0  0  0
   -3.4192    0.2925    0.0000 C   0  0  0  0  0  0  0  0  0  0  0  0
   -3.0368   -1.0685    0.0000 C   0  0  0  0  0  0  0  0  0  0  0  0
   -2.9918    0.9785    0.0000 C   0  0  0  0  0  0  0  0  0  0  0  0
    1.6196    1.9795    0.0000 C   0  0  0  0  0  0  0  0  0  0  0  0
    0.1574    1.9795    0.0000 C   0  0  0  0  0  0  0  0  0  0  0  0
    3.8354    0.0225    0.0000 C   0  0  0  0  0  0  0  0  0  0  0  0
    3.0818    1.1809    0.0000 C   0  0  0  0  0  0  0  0  0  0  0  0
    0.8886    2.3620    0.0000 C   0  0  0  0  0  0  0  0  0  0  0  0
    3.8354    0.7986    0.0000 C   0  0  0  0  0  0  0  0  0  0  0  0
  1 15  1  0  0  0  0
  2 13  2  0  0  0  0
  3 23  2  0  0  0  0
  4 23  1  0  0  0  0
  5 13  1  0  0  0  0
  5 16  1  0  0  0  0
  5 19  1  0  0  0  0
  6  9  1  0  0  0  0
  6 13  1  0  0  0  0
  7  8  2  0  0  0  0
  7  9  1  0  0  0  0
  7 10  1  0  0  0  0
  8 11  1  0  0  0  0
  8 12  1  0  0  0  0
  9 14  2  0  0  0  0
 10 17  2  0  0  0  0
 10 18  1  0  0  0  0
 11 20  2  0  0  0  0
 11 21  1  0  0  0  0
 12 15  2  0  0  0  0
 14 15  1  0  0  0  0
 16 22  1  0  0  0  0
 16 23  1  1  0  0  0
 17 25  1  0  0  0  0
 18 26  2  0  0  0  0
 19 24  1  0  0  0  0
 20 27  1  0  0  0  0
 21 28  2  0  0  0  0
 22 24  1  0  0  0  0
 25 29  2  0  0  0  0
 26 29  1  0  0  0  0
 27 30  2  0  0  0  0
 28 30  1  0  0  0  0
M  END
> <PUBCHEM_COMPOUND_ID_TYPE>
0

> <PUBCHEM_TOTAL_CHARGE>
0

> <PUBCHEM_SUBSTANCE_ID>
310942996

> <PUBCHEM_SUBSTANCE_VERSION>
1

> <PUBCHEM_EXT_DATASOURCE_NAME>
4488

> <PUBCHEM_EXT_DATASOURCE_REGID>
SCHEMBL16121055

> <PUBCHEM_SUBSTANCE_COMMENT>
InChI=1S/C24H21ClN2O3/c25-18-14-19(16-8-3-1-4-9-16)22(17-10-5-2-6-11-17)20(15-18)26-24(30)27-13-7-12-21(27)23(28)29/h1-6,8-11,14-15,21H,7,12-13H2,(H,26,30)(H,28,29)/t21-/m1/s1
InChIKey=XAIUPQPVNTUSJK-OAQYLSRUSA-N

> <PUBCHEM_SUBSTANCE_SYNONYM>
SCHEMBL16121055

> <PUBCHEM_XREF_EXT_ID>
SCHEMBL16121055

> <PUBCHEM_EXT_DATASOURCE_URL>
https://www.surechembl.org/

> <PUBCHEM_EXT_SUBSTANCE_URL>
https://www.surechembl.org/chemical/SCHEMBL16121055

> <PUBCHEM_CID_ASSOCIATIONS>
86287861  1

> <PUBCHEM_COORDINATE_TYPE>
1
3

> <PUBCHEM_BONDANNOTATIONS>
16  23  5

$$$$
