310937571
  -OEChem-07211613022D

 10  9  0     0  0  0  0  0  0999 V2000
    3.5398   -1.2418    0.0000 O   0  0  0  0  0  0  0  0  0  0  0  0
    4.2820    0.0000    0.0000 O   0  0  0  0  0  0  0  0  0  0  0  0
    0.6851   -0.4282    0.0000 O   0  0  0  0  0  0  0  0  0  0  0  0
    0.0000   -1.6557    0.0000 O   0  0  0  0  0  0  0  0  0  0  0  0
    3.5398   -0.4425    0.0000 C   0  0  0  0  0  0  0  0  0  0  0  0
    2.8261   -1.6557    0.0000 C   0  0  0  0  0  0  0  0  0  0  0  0
    0.6851   -1.2418    0.0000 C   0  0  0  0  0  0  0  0  0  0  0  0
    2.1125   -1.2418    0.0000 C   0  0  0  0  0  0  0  0  0  0  0  0
    1.3988   -1.6557    0.0000 C   0  0  0  0  0  0  0  0  0  0  0  0
    2.8404   -0.0428    0.0000 C   0  0  0  0  0  0  0  0  0  0  0  0
  1  5  1  0  0  0  0
  1  6  1  0  0  0  0
  2  5  2  0  0  0  0
  3  7  2  0  0  0  0
  4  7  1  0  0  0  0
  5 10  1  0  0  0  0
  6  8  1  0  0  0  0
  7  9  1  0  0  0  0
  8  9  2  0  0  0  0
M  END
> <PUBCHEM_COMPOUND_ID_TYPE>
0

> <PUBCHEM_TOTAL_CHARGE>
0

> <PUBCHEM_SUBSTANCE_ID>
310937571

> <PUBCHEM_SUBSTANCE_VERSION>
1

> <PUBCHEM_EXT_DATASOURCE_NAME>
4488

> <PUBCHEM_EXT_DATASOURCE_REGID>
SCHEMBL16115350

> <PUBCHEM_SUBSTANCE_COMMENT>
InChI=1S/C6H8O4/c1-5(7)10-4-2-3-6(8)9/h2-3H,4H2,1H3,(H,8,9)/b3-2+
InChIKey=BHINXPZHOLHWIF-NSCUHMNNSA-N

> <PUBCHEM_SUBSTANCE_SYNONYM>
SCHEMBL16115350

> <PUBCHEM_XREF_EXT_ID>
SCHEMBL16115350

> <PUBCHEM_EXT_DATASOURCE_URL>
https://www.surechembl.org/

> <PUBCHEM_EXT_SUBSTANCE_URL>
https://www.surechembl.org/chemical/SCHEMBL16115350

> <PUBCHEM_CID_ASSOCIATIONS>
14443964  1

> <PUBCHEM_COORDINATE_TYPE>
1
3

$$$$
