310941465
  -OEChem-07211613022D

 13 13  0     0  0  0  0  0  0999 V2000
   -1.2937   -1.2279    0.0000 Br  0  0  0  0  0  0  0  0  0  0  0  0
   -2.3316    0.0146    0.0000 Br  0  0  0  0  0  0  0  0  0  0  0  0
    0.1535   -1.2279    0.0000 F   0  0  0  0  0  0  0  0  0  0  0  0
    1.6007   -1.2572    0.0000 O   0  5  0  0  0  0  0  0  0  0  0  0
    2.3316    0.0146    0.0000 O   0  0  0  0  0  0  0  0  0  0  0  0
    1.6007   -0.3947    0.0000 N   0  3  0  0  0  0  0  0  0  0  0  0
    0.1681   -0.3801    0.0000 C   0  0  0  0  0  0  0  0  0  0  0  0
   -0.5774    0.0292    0.0000 C   0  0  0  0  0  0  0  0  0  0  0  0
    0.8698    0.0292    0.0000 C   0  0  0  0  0  0  0  0  0  0  0  0
   -1.2791   -0.3947    0.0000 C   0  0  0  0  0  0  0  0  0  0  0  0
   -0.5628    0.8478    0.0000 C   0  0  0  0  0  0  0  0  0  0  0  0
    0.8844    0.8478    0.0000 C   0  0  0  0  0  0  0  0  0  0  0  0
    0.1681    1.2572    0.0000 C   0  0  0  0  0  0  0  0  0  0  0  0
  1 10  1  0  0  0  0
  2 10  1  0  0  0  0
  3  7  1  0  0  0  0
  4  6  1  0  0  0  0
  5  6  2  0  0  0  0
  6  9  1  0  0  0  0
  7  8  2  0  0  0  0
  7  9  1  0  0  0  0
  8 10  1  0  0  0  0
  8 11  1  0  0  0  0
  9 12  2  0  0  0  0
 11 13  2  0  0  0  0
 12 13  1  0  0  0  0
M  CHG  2   4  -1   6   1
M  END
> <PUBCHEM_COMPOUND_ID_TYPE>
0

> <PUBCHEM_TOTAL_CHARGE>
0

> <PUBCHEM_SUBSTANCE_ID>
310941465

> <PUBCHEM_SUBSTANCE_VERSION>
1

> <PUBCHEM_EXT_DATASOURCE_NAME>
4488

> <PUBCHEM_EXT_DATASOURCE_REGID>
SCHEMBL16119496

> <PUBCHEM_SUBSTANCE_COMMENT>
InChI=1S/C7H4Br2FNO2/c8-7(9)4-2-1-3-5(6(4)10)11(12)13/h1-3,7H
InChIKey=VXDXGJYBYQHURD-UHFFFAOYSA-N

> <PUBCHEM_SUBSTANCE_SYNONYM>
SCHEMBL16119496

> <PUBCHEM_XREF_EXT_ID>
SCHEMBL16119496

> <PUBCHEM_EXT_DATASOURCE_URL>
https://www.surechembl.org/

> <PUBCHEM_EXT_SUBSTANCE_URL>
https://www.surechembl.org/chemical/SCHEMBL16119496

> <PUBCHEM_CID_ASSOCIATIONS>
117608287  1

> <PUBCHEM_COORDINATE_TYPE>
1
3

$$$$
