310943445
  -OEChem-07211613022D

 40 44  0     0  0  0  0  0  0999 V2000
    4.6122    2.3902    0.0000 F   0  0  0  0  0  0  0  0  0  0  0  0
    5.4162    1.7762    0.0000 F   0  0  0  0  0  0  0  0  0  0  0  0
    5.3285    1.1476    0.0000 F   0  0  0  0  0  0  0  0  0  0  0  0
   -3.9836   -0.0950    0.0000 O   0  0  0  0  0  0  0  0  0  0  0  0
    1.0160    0.3143    0.0000 O   0  0  0  0  0  0  0  0  0  0  0  0
   -5.4162    2.3756    0.0000 O   0  0  0  0  0  0  0  0  0  0  0  0
   -2.5510   -0.0950    0.0000 N   0  0  0  0  0  0  0  0  0  0  0  0
    3.1796   -0.9137    0.0000 N   0  0  0  0  0  0  0  0  0  0  0  0
   -3.9836    1.5569    0.0000 N   0  0  0  0  0  0  0  0  0  0  0  0
    1.7323    1.5569    0.0000 N   0  0  0  0  0  0  0  0  0  0  0  0
    3.5889   -2.1855    0.0000 N   0  0  0  0  0  0  0  0  0  0  0  0
   -1.8347    1.1476    0.0000 C   0  0  0  0  0  0  0  0  0  0  0  0
   -1.1183    1.5569    0.0000 C   0  0  0  0  0  0  0  0  0  0  0  0
   -3.2527    1.1476    0.0000 C   0  0  0  0  0  0  0  0  0  0  0  0
    3.1942   -0.0804    0.0000 C   0  0  0  0  0  0  0  0  0  0  0  0
    3.9105    1.1476    0.0000 C   0  0  0  0  0  0  0  0  0  0  0  0
   -3.2527    0.3289    0.0000 C   0  0  0  0  0  0  0  0  0  0  0  0
   -2.5510    1.5569    0.0000 C   0  0  0  0  0  0  0  0  0  0  0  0
    2.4779    1.1476    0.0000 C   0  0  0  0  0  0  0  0  0  0  0  0
    0.2997    1.5715    0.0000 C   0  0  0  0  0  0  0  0  0  0  0  0
   -1.1183    2.3756    0.0000 C   0  0  0  0  0  0  0  0  0  0  0  0
   -1.8493    0.3143    0.0000 C   0  0  0  0  0  0  0  0  0  0  0  0
   -0.4020    1.1476    0.0000 C   0  0  0  0  0  0  0  0  0  0  0  0
    4.6268    1.5569    0.0000 C   0  0  0  0  0  0  0  0  0  0  0  0
    3.8959    0.3289    0.0000 C   0  0  0  0  0  0  0  0  0  0  0  0
    2.4779    0.3289    0.0000 C   0  0  0  0  0  0  0  0  0  0  0  0
    3.1796    1.5422    0.0000 C   0  0  0  0  0  0  0  0  0  0  0  0
    1.0306    1.1768    0.0000 C   0  0  0  0  0  0  0  0  0  0  0  0
    0.2997    2.3756    0.0000 C   0  0  0  0  0  0  0  0  0  0  0  0
   -0.4166    2.7849    0.0000 C   0  0  0  0  0  0  0  0  0  0  0  0
    2.5364   -1.3815    0.0000 C   0  0  0  0  0  0  0  0  0  0  0  0
    3.8521   -1.3961    0.0000 C   0  0  0  0  0  0  0  0  0  0  0  0
    2.7557   -2.1709    0.0000 C   0  0  0  0  0  0  0  0  0  0  0  0
   -3.9836    2.3756    0.0000 C   0  0  0  0  0  0  0  0  0  0  0  0
   -4.6853    1.1476    0.0000 C   0  0  0  0  0  0  0  0  0  0  0  0
   -2.5510   -0.9283    0.0000 C   0  0  0  0  0  0  0  0  0  0  0  0
   -1.8493    2.7849    0.0000 C   0  0  0  0  0  0  0  0  0  0  0  0
   -4.7145    2.7849    0.0000 C   0  0  0  0  0  0  0  0  0  0  0  0
   -5.4016    1.5569    0.0000 C   0  0  0  0  0  0  0  0  0  0  0  0
    2.2001   -2.7849    0.0000 C   0  0  0  0  0  0  0  0  0  0  0  0
  1 24  1  0  0  0  0
  2 24  1  0  0  0  0
  3 24  1  0  0  0  0
  4 17  2  0  0  0  0
  5 28  2  0  0  0  0
  6 38  1  0  0  0  0
  6 39  1  0  0  0  0
  7 17  1  0  0  0  0
  7 22  1  0  0  0  0
  7 36  1  0  0  0  0
  8 15  1  0  0  0  0
  8 31  1  0  0  0  0
  8 32  1  0  0  0  0
  9 14  1  0  0  0  0
  9 34  1  0  0  0  0
  9 35  1  0  0  0  0
 10 19  1  0  0  0  0
 10 28  1  0  0  0  0
 11 32  2  0  0  0  0
 11 33  1  0  0  0  0
 12 13  1  0  0  0  0
 12 18  1  0  0  0  0
 12 22  2  0  0  0  0
 13 21  2  0  0  0  0
 13 23  1  0  0  0  0
 14 17  1  0  0  0  0
 14 18  2  0  0  0  0
 15 25  2  0  0  0  0
 15 26  1  0  0  0  0
 16 24  1  0  0  0  0
 16 25  1  0  0  0  0
 16 27  2  0  0  0  0
 19 26  2  0  0  0  0
 19 27  1  0  0  0  0
 20 23  2  0  0  0  0
 20 28  1  0  0  0  0
 20 29  1  0  0  0  0
 21 30  1  0  0  0  0
 21 37  1  0  0  0  0
 29 30  2  0  0  0  0
 31 33  2  0  0  0  0
 33 40  1  0  0  0  0
 34 38  1  0  0  0  0
 35 39  1  0  0  0  0
M  END
> <PUBCHEM_COMPOUND_ID_TYPE>
0

> <PUBCHEM_TOTAL_CHARGE>
0

> <PUBCHEM_SUBSTANCE_ID>
310943445

> <PUBCHEM_SUBSTANCE_VERSION>
1

> <PUBCHEM_EXT_DATASOURCE_NAME>
4488

> <PUBCHEM_EXT_DATASOURCE_REGID>
SCHEMBL16121509

> <PUBCHEM_SUBSTANCE_COMMENT>
InChI=1S/C29H28F3N5O3/c1-18-4-5-20(10-25(18)21-11-26(28(39)35(3)16-21)36-6-8-40-9-7-36)27(38)34-23-12-22(29(30,31)32)13-24(14-23)37-15-19(2)33-17-37/h4-5,10-17H,6-9H2,1-3H3,(H,34,38)
InChIKey=SXMOLILLCFOALI-UHFFFAOYSA-N

> <PUBCHEM_SUBSTANCE_SYNONYM>
SCHEMBL16121509

> <PUBCHEM_XREF_EXT_ID>
SCHEMBL16121509

> <PUBCHEM_EXT_DATASOURCE_URL>
https://www.surechembl.org/

> <PUBCHEM_EXT_SUBSTANCE_URL>
https://www.surechembl.org/chemical/SCHEMBL16121509

> <PUBCHEM_CID_ASSOCIATIONS>
117609869  1

> <PUBCHEM_COORDINATE_TYPE>
1
3

$$$$
