310945792
  -OEChem-07211613022D

 35 38  0     1  0  0  0  0  0999 V2000
    3.6719    1.5380    0.0000 O   0  0  0  0  0  0  0  0  0  0  0  0
    1.3995    1.5518    0.0000 O   0  0  0  0  0  0  0  0  0  0  0  0
    0.6790    1.1500    0.0000 O   0  0  0  0  0  0  0  0  0  0  0  0
   -0.0415    1.5518    0.0000 O   0  0  0  0  0  0  0  0  0  0  0  0
   -3.2285    2.5773    0.0000 O   0  0  0  0  0  0  0  0  0  0  0  0
   -2.9375   -2.5773    0.0000 O   0  0  0  0  0  0  0  0  0  0  0  0
    1.3856   -0.1108    0.0000 N   0  0  0  0  0  0  0  0  0  0  0  0
   -0.7620    0.3187    0.0000 N   0  0  0  0  0  0  0  0  0  0  0  0
   -2.2862    1.3579    0.0000 N   0  0  0  0  0  0  0  0  0  0  0  0
    2.8543    1.5796    0.0000 C   0  0  3  0  0  0  0  0  0  0  0  0
    2.1061    1.0946    0.0000 C   0  0  0  0  0  0  0  0  0  0  0  0
    3.2561    0.8730    0.0000 C   0  0  0  0  0  0  0  0  0  0  0  0
    2.1200    0.3326    0.0000 C   0  0  3  0  0  0  0  0  0  0  0  0
    2.8405    2.3971    0.0000 C   0  0  0  0  0  0  0  0  0  0  0  0
    0.6651    0.3187    0.0000 C   0  0  0  0  0  0  0  0  0  0  0  0
    2.8405   -0.0693    0.0000 C   0  0  0  0  0  0  0  0  0  0  0  0
   -0.0277   -0.0693    0.0000 C   0  0  3  0  0  0  0  0  0  0  0  0
   -1.4826    1.5935    0.0000 C   0  0  3  0  0  0  0  0  0  0  0  0
   -0.7344    1.1224    0.0000 C   0  0  0  0  0  0  0  0  0  0  0  0
    2.8266   -0.9145    0.0000 C   0  0  0  0  0  0  0  0  0  0  0  0
   -0.0415   -0.9006    0.0000 C   0  0  0  0  0  0  0  0  0  0  0  0
   -2.4525    2.1615    0.0000 C   0  0  0  0  0  0  0  0  0  0  0  0
   -1.7043    2.3694    0.0000 C   0  0  0  0  0  0  0  0  0  0  0  0
   -0.7759   -1.3025    0.0000 C   0  0  0  0  0  0  0  0  0  0  0  0
    3.5472   -1.3302    0.0000 C   0  0  0  0  0  0  0  0  0  0  0  0
    2.1200   -1.3302    0.0000 C   0  0  0  0  0  0  0  0  0  0  0  0
   -1.4826   -0.9145    0.0000 C   0  0  0  0  0  0  0  0  0  0  0  0
   -0.7759   -2.1477    0.0000 C   0  0  0  0  0  0  0  0  0  0  0  0
   -2.2170   -2.1338    0.0000 C   0  0  0  0  0  0  0  0  0  0  0  0
   -2.2031   -1.3025    0.0000 C   0  0  0  0  0  0  0  0  0  0  0  0
   -1.4826   -2.5495    0.0000 C   0  0  0  0  0  0  0  0  0  0  0  0
    3.5472   -2.1615    0.0000 C   0  0  0  0  0  0  0  0  0  0  0  0
    2.1200   -2.1615    0.0000 C   0  0  0  0  0  0  0  0  0  0  0  0
    2.8405   -2.5634    0.0000 C   0  0  0  0  0  0  0  0  0  0  0  0
   -3.6719   -2.1477    0.0000 C   0  0  0  0  0  0  0  0  0  0  0  0
  1 10  1  0  0  0  0
  1 12  1  0  0  0  0
  2 11  2  0  0  0  0
  3 15  2  0  0  0  0
  4 19  2  0  0  0  0
  5 22  2  0  0  0  0
  6 29  1  0  0  0  0
  6 35  1  0  0  0  0
 13  7  1  6  0  0  0
  7 15  1  0  0  0  0
 17  8  1  6  0  0  0
  8 19  1  0  0  0  0
  9 18  1  0  0  0  0
  9 22  1  0  0  0  0
 10 11  1  6  0  0  0
 10 12  1  0  0  0  0
 10 14  1  1  0  0  0
 11 13  1  0  0  0  0
 13 16  1  0  0  0  0
 15 17  1  0  0  0  0
 16 20  1  0  0  0  0
 17 21  1  0  0  0  0
 18 19  1  6  0  0  0
 18 23  1  0  0  0  0
 20 25  2  0  0  0  0
 20 26  1  0  0  0  0
 21 24  1  0  0  0  0
 22 23  1  0  0  0  0
 24 27  2  0  0  0  0
 24 28  1  0  0  0  0
 25 32  1  0  0  0  0
 26 33  2  0  0  0  0
 27 30  1  0  0  0  0
 28 31  2  0  0  0  0
 29 30  2  0  0  0  0
 29 31  1  0  0  0  0
 32 34  2  0  0  0  0
 33 34  1  0  0  0  0
M  END
> <PUBCHEM_COMPOUND_ID_TYPE>
0

> <PUBCHEM_TOTAL_CHARGE>
0

> <PUBCHEM_SUBSTANCE_ID>
310945792

> <PUBCHEM_SUBSTANCE_VERSION>
1

> <PUBCHEM_EXT_DATASOURCE_NAME>
4488

> <PUBCHEM_EXT_DATASOURCE_REGID>
SCHEMBL16123896

> <PUBCHEM_SUBSTANCE_COMMENT>
InChI=1S/C26H29N3O6/c1-26(15-35-26)23(31)19(12-16-6-4-3-5-7-16)28-24(32)20(29-25(33)21-14-22(30)27-21)13-17-8-10-18(34-2)11-9-17/h3-11,19-21H,12-15H2,1-2H3,(H,27,30)(H,28,32)(H,29,33)/t19-,20-,21+,26+/m0/s1
InChIKey=NLJMJFUKWHFOHA-KWALNSLNSA-N

> <PUBCHEM_SUBSTANCE_SYNONYM>
SCHEMBL16123896

> <PUBCHEM_XREF_EXT_ID>
SCHEMBL16123896

> <PUBCHEM_EXT_DATASOURCE_URL>
https://www.surechembl.org/

> <PUBCHEM_EXT_SUBSTANCE_URL>
https://www.surechembl.org/chemical/SCHEMBL16123896

> <PUBCHEM_CID_ASSOCIATIONS>
117611779  1

> <PUBCHEM_COORDINATE_TYPE>
1
3

> <PUBCHEM_BONDANNOTATIONS>
10  11  6
10  14  5
18  19  6
13  7  6
17  8  6

$$$$
