310945044
  -OEChem-07211613022D

 37 41  0     0  0  0  0  0  0999 V2000
    2.4763    2.5836    0.0000 O   0  0  0  0  0  0  0  0  0  0  0  0
    3.9245   -2.4226    0.0000 O   0  0  0  0  0  0  0  0  0  0  0  0
    4.6398   -1.1711    0.0000 O   0  0  0  0  0  0  0  0  0  0  0  0
    1.7433    1.3499    0.0000 N   0  0  0  0  0  0  0  0  0  0  0  0
   -4.6398   -1.8684    0.0000 N   0  0  0  0  0  0  0  0  0  0  0  0
   -4.2285   -2.5836    0.0000 N   0  0  0  0  0  0  0  0  0  0  0  0
   -0.4202    0.9029    0.0000 C   0  0  0  0  0  0  0  0  0  0  0  0
   -0.4380    0.0804    0.0000 C   0  0  0  0  0  0  0  0  0  0  0  0
    0.2771    1.3142    0.0000 C   0  0  0  0  0  0  0  0  0  0  0  0
   -1.1711    1.3320    0.0000 C   0  0  0  0  0  0  0  0  0  0  0  0
   -1.1532   -0.3487    0.0000 C   0  0  0  0  0  0  0  0  0  0  0  0
    0.2951   -0.3487    0.0000 C   0  0  0  0  0  0  0  0  0  0  0  0
    0.2951    2.1545    0.0000 C   0  0  0  0  0  0  0  0  0  0  0  0
    1.0102    0.9029    0.0000 C   0  0  0  0  0  0  0  0  0  0  0  0
   -1.9578    1.1175    0.0000 C   0  0  0  0  0  0  0  0  0  0  0  0
   -1.3678    2.1187    0.0000 C   0  0  0  0  0  0  0  0  0  0  0  0
   -1.8863    0.0626    0.0000 C   0  0  0  0  0  0  0  0  0  0  0  0
   -1.1711   -1.1890    0.0000 C   0  0  0  0  0  0  0  0  0  0  0  0
    0.2951   -1.1711    0.0000 C   0  0  0  0  0  0  0  0  0  0  0  0
    1.0102    0.0626    0.0000 C   0  0  0  0  0  0  0  0  0  0  0  0
   -2.6193   -1.1890    0.0000 C   0  0  0  0  0  0  0  0  0  0  0  0
   -2.1545    1.9042    0.0000 C   0  0  0  0  0  0  0  0  0  0  0  0
    1.0102    2.5657    0.0000 C   0  0  0  0  0  0  0  0  0  0  0  0
    1.7433    2.1545    0.0000 C   0  0  0  0  0  0  0  0  0  0  0  0
   -2.5836   -0.3487    0.0000 C   0  0  0  0  0  0  0  0  0  0  0  0
   -1.8505   -1.5823    0.0000 C   0  0  0  0  0  0  0  0  0  0  0  0
   -3.3167   -1.6002    0.0000 C   0  0  0  0  0  0  0  0  0  0  0  0
    1.7254   -1.1711    0.0000 C   0  0  0  0  0  0  0  0  0  0  0  0
    1.0459   -1.5823    0.0000 C   0  0  0  0  0  0  0  0  0  0  0  0
    1.7254   -0.3487    0.0000 C   0  0  0  0  0  0  0  0  0  0  0  0
   -0.4380    2.5478    0.0000 C   0  0  0  0  0  0  0  0  0  0  0  0
   -4.0676   -1.2605    0.0000 C   0  0  0  0  0  0  0  0  0  0  0  0
   -3.4239   -2.4405    0.0000 C   0  0  0  0  0  0  0  0  0  0  0  0
    2.4942   -1.6002    0.0000 C   0  0  0  0  0  0  0  0  0  0  0  0
    3.1915   -1.1890    0.0000 C   0  0  0  0  0  0  0  0  0  0  0  0
    3.2093    2.1545    0.0000 C   0  0  0  0  0  0  0  0  0  0  0  0
    3.9245   -1.5823    0.0000 C   0  0  0  0  0  0  0  0  0  0  0  0
  1 24  1  0  0  0  0
  1 36  1  0  0  0  0
  2 37  2  0  0  0  0
  3 37  1  0  0  0  0
  4 14  1  0  0  0  0
  4 24  2  0  0  0  0
  5  6  1  0  0  0  0
  5 32  2  0  0  0  0
  6 33  1  0  0  0  0
  7  8  2  0  0  0  0
  7  9  1  0  0  0  0
  7 10  1  0  0  0  0
  8 11  1  0  0  0  0
  8 12  1  0  0  0  0
  9 13  1  0  0  0  0
  9 14  2  0  0  0  0
 10 15  1  0  0  0  0
 10 16  1  0  0  0  0
 11 17  2  0  0  0  0
 11 18  1  0  0  0  0
 12 19  2  0  0  0  0
 12 20  1  0  0  0  0
 13 23  2  0  0  0  0
 13 31  1  0  0  0  0
 15 22  1  0  0  0  0
 16 22  1  0  0  0  0
 17 25  1  0  0  0  0
 18 26  2  0  0  0  0
 19 29  1  0  0  0  0
 20 30  2  0  0  0  0
 21 25  2  0  0  0  0
 21 26  1  0  0  0  0
 21 27  1  0  0  0  0
 23 24  1  0  0  0  0
 27 32  1  0  0  0  0
 27 33  2  0  0  0  0
 28 29  2  0  0  0  0
 28 30  1  0  0  0  0
 28 34  1  0  0  0  0
 34 35  2  0  0  0  0
 35 37  1  0  0  0  0
M  END
> <PUBCHEM_COMPOUND_ID_TYPE>
0

> <PUBCHEM_TOTAL_CHARGE>
0

> <PUBCHEM_SUBSTANCE_ID>
310945044

> <PUBCHEM_SUBSTANCE_VERSION>
1

> <PUBCHEM_EXT_DATASOURCE_NAME>
4488

> <PUBCHEM_EXT_DATASOURCE_REGID>
SCHEMBL16123132

> <PUBCHEM_SUBSTANCE_COMMENT>
InChI=1S/C31H29N3O3/c1-20-16-28(37-2)32-19-27(20)31(23-4-3-5-23)30(24-9-6-21(7-10-24)8-15-29(35)36)25-13-11-22(12-14-25)26-17-33-34-18-26/h6-19,23H,3-5H2,1-2H3,(H,33,34)(H,35,36)/b15-8+,31-30+
InChIKey=HFGLBVISCSBSDD-BJKVQFMRSA-N

> <PUBCHEM_SUBSTANCE_SYNONYM>
SCHEMBL16123132

> <PUBCHEM_XREF_EXT_ID>
SCHEMBL16123132

> <PUBCHEM_EXT_DATASOURCE_URL>
https://www.surechembl.org/

> <PUBCHEM_EXT_SUBSTANCE_URL>
https://www.surechembl.org/chemical/SCHEMBL16123132

> <PUBCHEM_CID_ASSOCIATIONS>
86270525  1

> <PUBCHEM_COORDINATE_TYPE>
1
3

$$$$
