310929959
  -OEChem-07211613022D

 11 12  0     1  0  0  0  0  0999 V2000
    1.9362   -1.4148    0.0000 O   0  0  0  0  0  0  0  0  0  0  0  0
   -0.6581   -4.8058    0.0000 O   0  0  0  0  0  0  0  0  0  0  0  0
    0.1351   -2.0602    0.0000 N   0  0  3  0  0  0  0  0  0  0  0  0
    0.9106   -1.6699    0.0000 C   0  0  3  0  0  0  0  0  0  0  0  0
    1.1407   -0.9495    0.0000 C   0  0  3  0  0  0  0  0  0  0  0  0
    0.9807   -0.1341    0.0000 C   0  0  0  0  0  0  0  0  0  0  0  0
    0.5004   -1.3997    0.0000 C   0  0  0  0  0  0  0  0  0  0  0  0
    1.6411   -2.0402    0.0000 C   0  0  0  0  0  0  0  0  0  0  0  0
   -0.4595   -2.6321    0.0000 C   0  0  0  0  0  0  0  0  0  0  0  0
   -0.2615   -3.4330    0.0000 C   0  0  0  0  0  0  0  0  0  0  0  0
   -0.8561   -4.0049    0.0000 C   0  0  0  0  0  0  0  0  0  0  0  0
  1  5  1  0  0  0  0
  1  8  1  0  0  0  0
  2 11  1  0  0  0  0
  3  4  1  0  0  0  0
  3  7  1  0  0  0  0
  3  9  1  0  0  0  0
  4  6  1  1  0  0  0
  4  8  1  0  0  0  0
  5  6  1  6  0  0  0
  5  7  1  0  0  0  0
  9 10  1  0  0  0  0
 10 11  1  0  0  0  0
M  END
> <PUBCHEM_COMPOUND_ID_TYPE>
0

> <PUBCHEM_TOTAL_CHARGE>
0

> <PUBCHEM_SUBSTANCE_ID>
310929959

> <PUBCHEM_SUBSTANCE_VERSION>
1

> <PUBCHEM_EXT_DATASOURCE_NAME>
4488

> <PUBCHEM_EXT_DATASOURCE_REGID>
SCHEMBL16107187

> <PUBCHEM_SUBSTANCE_COMMENT>
InChI=1S/C8H15NO2/c10-3-1-2-9-5-8-4-7(9)6-11-8/h7-8,10H,1-6H2/t7-,8-/m0/s1
InChIKey=VTQQZFBVMNEQER-YUMQZZPRSA-N

> <PUBCHEM_SUBSTANCE_SYNONYM>
SCHEMBL16107187

> <PUBCHEM_XREF_EXT_ID>
SCHEMBL16107187

> <PUBCHEM_EXT_DATASOURCE_URL>
https://www.surechembl.org/

> <PUBCHEM_EXT_SUBSTANCE_URL>
https://www.surechembl.org/chemical/SCHEMBL16107187

> <PUBCHEM_CID_ASSOCIATIONS>
117599218  1

> <PUBCHEM_COORDINATE_TYPE>
1
3

> <PUBCHEM_BONDANNOTATIONS>
4  6  5
5  6  6

$$$$
