310933901
  -OEChem-07211613022D

 52 62  0     0  0  0  0  0  0999 V2000
   -2.8386    6.3897    0.0000 S   0  0  0  0  0  0  0  0  0  0  0  0
    1.1606    5.6317    0.0000 S   0  0  0  0  0  0  0  0  0  0  0  0
    3.7464   -0.1215    0.0000 O   0  0  0  0  0  0  0  0  0  0  0  0
    1.7200   -1.0479    0.0000 N   0  0  0  0  0  0  0  0  0  0  0  0
    2.7819   -2.0041    0.0000 N   0  0  0  0  0  0  0  0  0  0  0  0
   -1.3262    3.1481    0.0000 C   0  0  0  0  0  0  0  0  0  0  0  0
   -0.9137    2.4336    0.0000 C   0  0  0  0  0  0  0  0  0  0  0  0
   -2.1332    2.9765    0.0000 C   0  0  0  0  0  0  0  0  0  0  0  0
   -1.4657    1.8205    0.0000 C   0  0  0  0  0  0  0  0  0  0  0  0
   -2.2194    2.1561    0.0000 C   0  0  0  0  0  0  0  0  0  0  0  0
   -1.5812    3.9327    0.0000 C   0  0  0  0  0  0  0  0  0  0  0  0
   -0.5725    3.4836    0.0000 C   0  0  0  0  0  0  0  0  0  0  0  0
   -0.1067    2.2621    0.0000 C   0  0  0  0  0  0  0  0  0  0  0  0
   -2.8006    3.4615    0.0000 C   0  0  0  0  0  0  0  0  0  0  0  0
   -1.2108    1.0359    0.0000 C   0  0  0  0  0  0  0  0  0  0  0  0
    0.1482    1.4774    0.0000 C   0  0  0  0  0  0  0  0  0  0  0  0
   -2.2956    4.3452    0.0000 C   0  0  0  0  0  0  0  0  0  0  0  0
   -0.4863    4.3041    0.0000 C   0  0  0  0  0  0  0  0  0  0  0  0
   -2.9731    1.8205    0.0000 C   0  0  0  0  0  0  0  0  0  0  0  0
   -0.4038    0.8644    0.0000 C   0  0  0  0  0  0  0  0  0  0  0  0
    0.9552    1.3059    0.0000 C   0  0  0  0  0  0  0  0  0  0  0  0
   -2.2956    5.1702    0.0000 C   0  0  0  0  0  0  0  0  0  0  0  0
    0.2674    4.6397    0.0000 C   0  0  0  0  0  0  0  0  0  0  0  0
   -3.5543    3.1259    0.0000 C   0  0  0  0  0  0  0  0  0  0  0  0
   -3.6405    2.3054    0.0000 C   0  0  0  0  0  0  0  0  0  0  0  0
    3.0790   -0.6064    0.0000 C   0  0  0  0  0  0  0  0  0  0  0  0
    2.2720   -0.4349    0.0000 C   0  0  0  0  0  0  0  0  0  0  0  0
   -3.0101    3.9327    0.0000 C   0  0  0  0  0  0  0  0  0  0  0  0
   -1.1537    4.7890    0.0000 C   0  0  0  0  0  0  0  0  0  0  0  0
    3.3339   -1.3910    0.0000 C   0  0  0  0  0  0  0  0  0  0  0  0
    2.0171    0.3498    0.0000 C   0  0  0  0  0  0  0  0  0  0  0  0
   -3.0101    5.5827    0.0000 C   0  0  0  0  0  0  0  0  0  0  0  0
    0.3536    5.4601    0.0000 C   0  0  0  0  0  0  0  0  0  0  0  0
    1.2101    0.5213    0.0000 C   0  0  0  0  0  0  0  0  0  0  0  0
    4.1589   -1.3910    0.0000 C   0  0  0  0  0  0  0  0  0  0  0  0
    4.4139   -0.6064    0.0000 C   0  0  0  0  0  0  0  0  0  0  0  0
    1.5072    1.9190    0.0000 C   0  0  0  0  0  0  0  0  0  0  0  0
   -1.6825    5.7222    0.0000 C   0  0  0  0  0  0  0  0  0  0  0  0
    1.0210    4.3041    0.0000 C   0  0  0  0  0  0  0  0  0  0  0  0
   -3.7246    4.3452    0.0000 C   0  0  0  0  0  0  0  0  0  0  0  0
   -1.0675    5.6095    0.0000 C   0  0  0  0  0  0  0  0  0  0  0  0
   -3.7246    5.1702    0.0000 C   0  0  0  0  0  0  0  0  0  0  0  0
   -0.3138    5.9451    0.0000 C   0  0  0  0  0  0  0  0  0  0  0  0
    2.5691    0.9629    0.0000 C   0  0  0  0  0  0  0  0  0  0  0  0
    2.3142    1.7475    0.0000 C   0  0  0  0  0  0  0  0  0  0  0  0
   -2.0181    6.4759    0.0000 C   0  0  0  0  0  0  0  0  0  0  0  0
    1.5731    4.9172    0.0000 C   0  0  0  0  0  0  0  0  0  0  0  0
    4.7110   -2.0041    0.0000 C   0  0  0  0  0  0  0  0  0  0  0  0
    1.9749   -1.8326    0.0000 C   0  0  0  0  0  0  0  0  0  0  0  0
    5.2208   -0.4349    0.0000 C   0  0  0  0  0  0  0  0  0  0  0  0
    5.5179   -1.8326    0.0000 C   0  0  0  0  0  0  0  0  0  0  0  0
    5.7729   -1.0479    0.0000 C   0  0  0  0  0  0  0  0  0  0  0  0
  1 32  1  0  0  0  0
  1 46  1  0  0  0  0
  2 33  1  0  0  0  0
  2 47  1  0  0  0  0
  3 26  1  0  0  0  0
  3 36  1  0  0  0  0
  4 27  1  0  0  0  0
  4 49  2  0  0  0  0
  5 30  2  0  0  0  0
  5 49  1  0  0  0  0
  6  7  1  0  0  0  0
  6  8  1  0  0  0  0
  6 11  1  0  0  0  0
  6 12  1  0  0  0  0
  7  9  2  0  0  0  0
  7 13  1  0  0  0  0
  8 10  1  0  0  0  0
  8 14  2  0  0  0  0
  9 10  1  0  0  0  0
  9 15  1  0  0  0  0
 10 19  2  0  0  0  0
 11 17  1  0  0  0  0
 12 18  1  0  0  0  0
 13 16  2  0  0  0  0
 14 24  1  0  0  0  0
 15 20  2  0  0  0  0
 16 20  1  0  0  0  0
 16 21  1  0  0  0  0
 17 22  2  0  0  0  0
 17 28  1  0  0  0  0
 18 23  2  0  0  0  0
 18 29  1  0  0  0  0
 19 25  1  0  0  0  0
 21 34  1  0  0  0  0
 21 37  2  0  0  0  0
 22 32  1  0  0  0  0
 22 38  1  0  0  0  0
 23 33  1  0  0  0  0
 23 39  1  0  0  0  0
 24 25  2  0  0  0  0
 26 27  2  0  0  0  0
 26 30  1  0  0  0  0
 27 31  1  0  0  0  0
 28 40  2  0  0  0  0
 29 41  2  0  0  0  0
 30 35  1  0  0  0  0
 31 34  2  0  0  0  0
 31 44  1  0  0  0  0
 32 42  2  0  0  0  0
 33 43  2  0  0  0  0
 35 36  1  0  0  0  0
 35 48  2  0  0  0  0
 36 50  2  0  0  0  0
 37 45  1  0  0  0  0
 38 46  2  0  0  0  0
 39 47  2  0  0  0  0
 40 42  1  0  0  0  0
 41 43  1  0  0  0  0
 44 45  2  0  0  0  0
 48 51  1  0  0  0  0
 50 52  1  0  0  0  0
 51 52  2  0  0  0  0
M  END
> <PUBCHEM_COMPOUND_ID_TYPE>
0

> <PUBCHEM_TOTAL_CHARGE>
0

> <PUBCHEM_SUBSTANCE_ID>
310933901

> <PUBCHEM_SUBSTANCE_VERSION>
1

> <PUBCHEM_EXT_DATASOURCE_NAME>
4488

> <PUBCHEM_EXT_DATASOURCE_REGID>
SCHEMBL16111340

> <PUBCHEM_SUBSTANCE_COMMENT>
InChI=1S/C47H30N2OS2/c1-3-14-39-36(12-1)37-19-18-30(29-8-5-9-31(24-29)44-46-45(49-28-48-44)38-13-2-4-15-41(38)50-46)25-40(37)47(39,26-32-10-6-16-42-34(32)20-22-51-42)27-33-11-7-17-43-35(33)21-23-52-43/h1-25,28H,26-27H2
InChIKey=OMEIELVFGRKDFA-UHFFFAOYSA-N

> <PUBCHEM_SUBSTANCE_SYNONYM>
SCHEMBL16111340

> <PUBCHEM_XREF_EXT_ID>
SCHEMBL16111340

> <PUBCHEM_EXT_DATASOURCE_URL>
https://www.surechembl.org/

> <PUBCHEM_EXT_SUBSTANCE_URL>
https://www.surechembl.org/chemical/SCHEMBL16111340

> <PUBCHEM_CID_ASSOCIATIONS>
117602231  1

> <PUBCHEM_COORDINATE_TYPE>
1
3

$$$$
