310929725
  -OEChem-07211613022D

 57 64  0     1  0  0  0  0  0999 V2000
    9.8925   -7.2576    0.0000 Br  0  0  0  0  0  0  0  0  0  0  0  0
    1.5717   -1.3868    0.0000 S   0  0  0  0  0  0  0  0  0  0  0  0
    3.0048   -0.5547    0.0000 O   0  0  0  0  0  0  0  0  0  0  0  0
    4.9925   -2.7736    0.0000 O   0  0  0  0  0  0  0  0  0  0  0  0
    6.1020   -5.1774    0.0000 O   0  0  0  0  0  0  0  0  0  0  0  0
    1.9415   -0.6472    0.0000 O   0  0  0  0  0  0  0  0  0  0  0  0
    1.1557   -2.0802    0.0000 O   0  0  0  0  0  0  0  0  0  0  0  0
    2.0340   -3.6519    0.0000 O   0  0  0  0  0  0  0  0  0  0  0  0
    7.0727   -8.0435    0.0000 O   0  0  0  0  0  0  0  0  0  0  0  0
    1.5255   -7.2114    0.0000 O   0  0  0  0  0  0  0  0  0  0  0  0
    0.6010   -6.3331    0.0000 O   0  0  0  0  0  0  0  0  0  0  0  0
    3.6057   -2.5887    0.0000 N   0  0  0  0  0  0  0  0  0  0  0  0
    2.2651   -1.8029    0.0000 N   0  0  0  0  0  0  0  0  0  0  0  0
    3.2821   -3.9293    0.0000 N   0  0  0  0  0  0  0  0  0  0  0  0
    7.0727   -5.5473    0.0000 N   0  0  0  0  0  0  0  0  0  0  0  0
    1.5255   -5.5473    0.0000 N   0  0  0  0  0  0  0  0  0  0  0  0
    3.6982   -1.8029    0.0000 C   0  0  3  0  0  0  0  0  0  0  0  0
    3.8831   -1.0170    0.0000 C   0  0  3  0  0  0  0  0  0  0  0  0
    4.5302   -1.5717    0.0000 C   0  0  0  0  0  0  0  0  0  0  0  0
    3.0048   -1.3868    0.0000 C   0  0  0  0  0  0  0  0  0  0  0  0
    4.2529   -3.0972    0.0000 C   0  0  0  0  0  0  0  0  0  0  0  0
    4.1604   -3.9293    0.0000 C   0  0  3  0  0  0  0  0  0  0  0  0
    3.6982   -0.1849    0.0000 C   0  0  0  0  0  0  0  0  0  0  0  0
    0.8321   -0.9707    0.0000 C   0  0  0  0  0  0  0  0  0  0  0  0
    4.9463   -4.1142    0.0000 C   0  0  0  0  0  0  0  0  0  0  0  0
    5.5934   -4.4840    0.0000 C   0  0  3  0  0  0  0  0  0  0  0  0
    2.4962   -4.2991    0.0000 C   0  0  0  0  0  0  0  0  0  0  0  0
    4.6227   -3.5595    0.0000 C   0  0  0  0  0  0  0  0  0  0  0  0
    0.0462   -0.9707    0.0000 C   0  0  0  0  0  0  0  0  0  0  0  0
    0.4160   -0.2774    0.0000 C   0  0  0  0  0  0  0  0  0  0  0  0
    1.9415   -4.9001    0.0000 C   0  0  3  0  0  0  0  0  0  0  0  0
    6.3793   -5.9633    0.0000 C   0  0  0  0  0  0  0  0  0  0  0  0
    2.8661    0.0000    0.0000 C   0  0  0  0  0  0  0  0  0  0  0  0
    6.3793   -6.8416    0.0000 C   0  0  0  0  0  0  0  0  0  0  0  0
    7.7662   -6.8416    0.0000 C   0  0  0  0  0  0  0  0  0  0  0  0
    7.0727   -7.2114    0.0000 C   0  0  0  0  0  0  0  0  0  0  0  0
    7.7662   -5.9633    0.0000 C   0  0  0  0  0  0  0  0  0  0  0  0
    1.2943   -4.3915    0.0000 C   0  0  0  0  0  0  0  0  0  0  0  0
    8.5058   -7.2114    0.0000 C   0  0  0  0  0  0  0  0  0  0  0  0
    6.1020   -7.5812    0.0000 C   0  0  0  0  0  0  0  0  0  0  0  0
    8.5058   -5.5473    0.0000 C   0  0  0  0  0  0  0  0  0  0  0  0
    9.1992   -6.8416    0.0000 C   0  0  0  0  0  0  0  0  0  0  0  0
    0.4623   -4.6227    0.0000 C   0  0  0  0  0  0  0  0  0  0  0  0
    1.2943   -3.5595    0.0000 C   0  0  0  0  0  0  0  0  0  0  0  0
    1.4330   -6.3331    0.0000 C   0  0  0  0  0  0  0  0  0  0  0  0
    9.1992   -5.9633    0.0000 C   0  0  0  0  0  0  0  0  0  0  0  0
    0.0000   -3.9293    0.0000 C   0  0  0  0  0  0  0  0  0  0  0  0
    0.5085   -3.2821    0.0000 C   0  0  0  0  0  0  0  0  0  0  0  0
    5.5934   -8.1822    0.0000 C   0  0  0  0  0  0  0  0  0  0  0  0
    1.9415   -7.9048    0.0000 C   0  0  3  0  0  0  0  0  0  0  0  0
    2.4962   -8.4595    0.0000 C   0  0  3  0  0  0  0  0  0  0  0  0
    4.8076   -8.3670    0.0000 C   0  0  0  0  0  0  0  0  0  0  0  0
    1.2482   -8.2746    0.0000 C   0  0  0  0  0  0  0  0  0  0  0  0
    3.2821   -8.7831    0.0000 C   0  0  0  0  0  0  0  0  0  0  0  0
    2.2189   -9.2454    0.0000 C   0  0  0  0  0  0  0  0  0  0  0  0
    4.1604   -8.8756    0.0000 C   0  0  0  0  0  0  0  0  0  0  0  0
    1.3406   -9.1529    0.0000 C   0  0  0  0  0  0  0  0  0  0  0  0
  1 42  1  0  0  0  0
  2  6  2  0  0  0  0
  2  7  2  0  0  0  0
  2 13  1  0  0  0  0
  2 24  1  0  0  0  0
  3 20  2  0  0  0  0
  4 21  2  0  0  0  0
  5 26  1  0  0  0  0
  5 32  1  0  0  0  0
  8 27  2  0  0  0  0
  9 36  1  0  0  0  0
 10 45  1  0  0  0  0
 10 50  1  0  0  0  0
 11 45  2  0  0  0  0
 17 12  1  1  0  0  0
 12 21  1  0  0  0  0
 13 20  1  0  0  0  0
 14 22  1  0  0  0  0
 14 27  1  0  0  0  0
 14 28  1  0  0  0  0
 15 32  1  0  0  0  0
 15 37  2  0  0  0  0
 16 31  1  0  0  0  0
 16 45  1  0  0  0  0
 17 18  1  0  0  0  0
 17 19  1  0  0  0  0
 17 20  1  6  0  0  0
 18 19  1  0  0  0  0
 18 23  1  6  0  0  0
 22 21  1  6  0  0  0
 22 25  1  0  0  0  0
 23 33  2  0  0  0  0
 24 29  1  0  0  0  0
 24 30  1  0  0  0  0
 26 25  1  1  0  0  0
 26 28  1  0  0  0  0
 31 27  1  1  0  0  0
 29 30  1  0  0  0  0
 31 38  1  0  0  0  0
 32 34  2  0  0  0  0
 34 36  1  0  0  0  0
 34 40  1  0  0  0  0
 35 36  2  0  0  0  0
 35 37  1  0  0  0  0
 35 39  1  0  0  0  0
 37 41  1  0  0  0  0
 38 43  1  0  0  0  0
 38 44  1  0  0  0  0
 39 42  2  0  0  0  0
 40 49  1  0  0  0  0
 41 46  2  0  0  0  0
 42 46  1  0  0  0  0
 43 47  1  0  0  0  0
 44 48  1  0  0  0  0
 47 48  1  0  0  0  0
 49 52  2  0  0  0  0
 50 51  1  0  0  0  0
 50 53  1  1  0  0  0
 51 54  1  0  0  0  0
 51 55  1  6  0  0  0
 52 56  1  0  0  0  0
 53 57  1  0  0  0  0
 54 56  1  0  0  0  0
 55 57  1  0  0  0  0
M  END
> <PUBCHEM_COMPOUND_ID_TYPE>
0

> <PUBCHEM_TOTAL_CHARGE>
0

> <PUBCHEM_SUBSTANCE_ID>
310929725

> <PUBCHEM_SUBSTANCE_VERSION>
1

> <PUBCHEM_EXT_DATASOURCE_NAME>
4488

> <PUBCHEM_EXT_DATASOURCE_REGID>
SCHEMBL16106923

> <PUBCHEM_SUBSTANCE_COMMENT>
InChI=1S/C41H50BrN5O9S/c1-2-25-21-41(25,39(51)46-57(53,54)28-16-17-28)45-36(49)32-20-27-22-47(32)38(50)34(24-10-6-7-11-24)44-40(52)56-33-14-8-12-23(33)9-4-3-5-13-29-35(48)30-19-26(42)15-18-31(30)43-37(29)55-27/h2-3,5,15,18-19,23-25,27-28,32-34H,1,4,6-14,16-17,20-22H2,(H,43,48)(H,44,52)(H,45,49)(H,46,51)/b5-3+/t23-,25-,27-,32+,33-,34+,41-/m1/s1
InChIKey=OMCUEVMYWMBQOI-AKZICTPOSA-N

> <PUBCHEM_SUBSTANCE_SYNONYM>
SCHEMBL16106923

> <PUBCHEM_XREF_EXT_ID>
SCHEMBL16106923

> <PUBCHEM_EXT_DATASOURCE_URL>
https://www.surechembl.org/

> <PUBCHEM_EXT_SUBSTANCE_URL>
https://www.surechembl.org/chemical/SCHEMBL16106923

> <PUBCHEM_CID_ASSOCIATIONS>
117599021  1

> <PUBCHEM_COORDINATE_TYPE>
1
3

> <PUBCHEM_BONDANNOTATIONS>
17  12  5
17  20  6
18  23  6
22  21  6
26  25  5
31  27  5
50  53  5
51  55  6

$$$$
