310940753
  -OEChem-07211613022D

 36 40  0     1  0  0  0  0  0999 V2000
   -0.9945    1.6942    0.0000 Br  0  0  0  0  0  0  0  0  0  0  0  0
    2.5708    2.3720    0.0000 F   0  0  0  0  0  0  0  0  0  0  0  0
   -1.1565    0.1621    0.0000 O   0  0  0  0  0  0  0  0  0  0  0  0
    3.5285   -2.8140    0.0000 O   0  0  0  0  0  0  0  0  0  0  0  0
    2.2909   -2.0921    0.0000 O   0  0  0  0  0  0  0  0  0  0  0  0
    1.7900    0.0148    0.0000 N   0  0  0  0  0  0  0  0  0  0  0  0
    1.7900   -1.3260    0.0000 N   0  0  0  0  0  0  0  0  0  0  0  0
   -3.3075   -0.2358    0.0000 N   0  0  0  0  0  0  0  0  0  0  0  0
    2.2762   -0.6630    0.0000 C   0  0  0  0  0  0  0  0  0  0  0  0
    1.0092   -0.2358    0.0000 C   0  0  0  0  0  0  0  0  0  0  0  0
    0.9945   -1.0608    0.0000 C   0  0  0  0  0  0  0  0  0  0  0  0
    3.1307   -0.6777    0.0000 C   0  0  3  0  0  0  0  0  0  0  0  0
    2.0405    0.8103    0.0000 C   0  0  0  0  0  0  0  0  0  0  0  0
    0.2873    0.1621    0.0000 C   0  0  0  0  0  0  0  0  0  0  0  0
    3.5285   -1.3554    0.0000 C   0  0  3  0  0  0  0  0  0  0  0  0
    0.3020   -1.4733    0.0000 C   0  0  0  0  0  0  0  0  0  0  0  0
   -0.4198   -0.2358    0.0000 C   0  0  0  0  0  0  0  0  0  0  0  0
    1.4954    1.4291    0.0000 C   0  0  0  0  0  0  0  0  0  0  0  0
    3.5285    0.0589    0.0000 C   0  0  0  0  0  0  0  0  0  0  0  0
   -0.4198   -1.0608    0.0000 C   0  0  0  0  0  0  0  0  0  0  0  0
    3.0865   -2.0773    0.0000 C   0  0  0  0  0  0  0  0  0  0  0  0
    4.3535   -1.3701    0.0000 C   0  0  0  0  0  0  0  0  0  0  0  0
    1.7606    2.2099    0.0000 C   0  0  0  0  0  0  0  0  0  0  0  0
    0.6851    1.2523    0.0000 C   0  0  0  0  0  0  0  0  0  0  0  0
    4.3535    0.0589    0.0000 C   0  0  0  0  0  0  0  0  0  0  0  0
    4.7512   -0.6630    0.0000 C   0  0  0  0  0  0  0  0  0  0  0  0
    0.1399    1.8563    0.0000 C   0  0  0  0  0  0  0  0  0  0  0  0
    1.2007    2.8140    0.0000 C   0  0  0  0  0  0  0  0  0  0  0  0
    0.3904    2.6372    0.0000 C   0  0  0  0  0  0  0  0  0  0  0  0
   -1.8637   -0.2358    0.0000 C   0  0  0  0  0  0  0  0  0  0  0  0
   -2.6003    0.1768    0.0000 C   0  0  0  0  0  0  0  0  0  0  0  0
   -2.5856    0.9871    0.0000 C   0  0  0  0  0  0  0  0  0  0  0  0
   -4.0147    1.0018    0.0000 C   0  0  0  0  0  0  0  0  0  0  0  0
   -4.0293    0.1768    0.0000 C   0  0  0  0  0  0  0  0  0  0  0  0
   -3.3222    1.3996    0.0000 C   0  0  0  0  0  0  0  0  0  0  0  0
   -4.7512    1.4143    0.0000 C   0  0  0  0  0  0  0  0  0  0  0  0
  1 27  1  0  0  0  0
  2 23  1  0  0  0  0
  3 17  1  0  0  0  0
  3 30  1  0  0  0  0
  4 21  2  0  0  0  0
  5 21  1  0  0  0  0
  6  9  1  0  0  0  0
  6 10  1  0  0  0  0
  6 13  1  0  0  0  0
  7  9  2  0  0  0  0
  7 11  1  0  0  0  0
  8 31  1  0  0  0  0
  8 34  2  0  0  0  0
 12  9  1  6  0  0  0
 10 11  1  0  0  0  0
 10 14  2  0  0  0  0
 11 16  2  0  0  0  0
 12 15  1  0  0  0  0
 12 19  1  0  0  0  0
 13 18  1  0  0  0  0
 14 17  1  0  0  0  0
 15 21  1  1  0  0  0
 15 22  1  0  0  0  0
 16 20  1  0  0  0  0
 17 20  2  0  0  0  0
 18 23  1  0  0  0  0
 18 24  2  0  0  0  0
 19 25  1  0  0  0  0
 22 26  1  0  0  0  0
 23 28  2  0  0  0  0
 24 27  1  0  0  0  0
 25 26  1  0  0  0  0
 27 29  2  0  0  0  0
 28 29  1  0  0  0  0
 30 31  1  0  0  0  0
 31 32  2  0  0  0  0
 32 35  1  0  0  0  0
 33 34  1  0  0  0  0
 33 35  2  0  0  0  0
 33 36  1  0  0  0  0
M  END
> <PUBCHEM_COMPOUND_ID_TYPE>
0

> <PUBCHEM_TOTAL_CHARGE>
0

> <PUBCHEM_SUBSTANCE_ID>
310940753

> <PUBCHEM_SUBSTANCE_VERSION>
1

> <PUBCHEM_EXT_DATASOURCE_NAME>
4488

> <PUBCHEM_EXT_DATASOURCE_REGID>
SCHEMBL16118712

> <PUBCHEM_SUBSTANCE_COMMENT>
InChI=1S/C28H27BrFN3O3/c1-17-6-8-20(31-14-17)16-36-21-9-11-25-26(13-21)33(15-18-12-19(29)7-10-24(18)30)27(32-25)22-4-2-3-5-23(22)28(34)35/h6-14,22-23H,2-5,15-16H2,1H3,(H,34,35)/t22-,23-/m1/s1
InChIKey=AEDHBSFLTKIOOY-DHIUTWEWSA-N

> <PUBCHEM_SUBSTANCE_SYNONYM>
SCHEMBL16118712

> <PUBCHEM_XREF_EXT_ID>
SCHEMBL16118712

> <PUBCHEM_EXT_DATASOURCE_URL>
https://www.surechembl.org/

> <PUBCHEM_EXT_SUBSTANCE_URL>
https://www.surechembl.org/chemical/SCHEMBL16118712

> <PUBCHEM_CID_ASSOCIATIONS>
117607708  1

> <PUBCHEM_COORDINATE_TYPE>
1
3

> <PUBCHEM_BONDANNOTATIONS>
15  21  5
12  9  6

$$$$
