310942076
  -OEChem-07211613022D

 16 18  0     0  0  0  0  0  0999 V2000
    0.0152    0.0759    0.0000 N   0  0  0  0  0  0  0  0  0  0  0  0
   -1.7156    1.8826    0.0000 N   0  0  0  0  0  0  0  0  0  0  0  0
   -0.3947    1.4575    0.0000 C   0  0  0  0  0  0  0  0  0  0  0  0
   -0.6680    0.6224    0.0000 C   0  0  0  0  0  0  0  0  0  0  0  0
    0.4099    1.4423    0.0000 C   0  0  0  0  0  0  0  0  0  0  0  0
    0.6680    0.6377    0.0000 C   0  0  0  0  0  0  0  0  0  0  0  0
   -0.9262    2.0647    0.0000 C   0  0  0  0  0  0  0  0  0  0  0  0
   -1.4727    0.4403    0.0000 C   0  0  0  0  0  0  0  0  0  0  0  0
    0.9565    2.0800    0.0000 C   0  0  0  0  0  0  0  0  0  0  0  0
    1.4575    0.4403    0.0000 C   0  0  0  0  0  0  0  0  0  0  0  0
    0.0000   -0.7743    0.0000 C   0  0  0  0  0  0  0  0  0  0  0  0
   -1.9889    1.0780    0.0000 C   0  0  0  0  0  0  0  0  0  0  0  0
    1.7460    1.9130    0.0000 C   0  0  0  0  0  0  0  0  0  0  0  0
    1.9889    1.0780    0.0000 C   0  0  0  0  0  0  0  0  0  0  0  0
   -0.6832   -1.1994    0.0000 C   0  0  0  0  0  0  0  0  0  0  0  0
   -0.6680   -2.0800    0.0000 C   0  0  0  0  0  0  0  0  0  0  0  0
  1  4  1  0  0  0  0
  1  6  1  0  0  0  0
  1 11  1  0  0  0  0
  2  7  1  0  0  0  0
  2 12  2  0  0  0  0
  3  4  1  0  0  0  0
  3  5  1  0  0  0  0
  3  7  2  0  0  0  0
  4  8  2  0  0  0  0
  5  6  2  0  0  0  0
  5  9  1  0  0  0  0
  6 10  1  0  0  0  0
  8 12  1  0  0  0  0
  9 13  2  0  0  0  0
 10 14  2  0  0  0  0
 11 15  1  0  0  0  0
 13 14  1  0  0  0  0
 15 16  1  0  0  0  0
M  END
> <PUBCHEM_COMPOUND_ID_TYPE>
0

> <PUBCHEM_TOTAL_CHARGE>
0

> <PUBCHEM_SUBSTANCE_ID>
310942076

> <PUBCHEM_SUBSTANCE_VERSION>
1

> <PUBCHEM_EXT_DATASOURCE_NAME>
4488

> <PUBCHEM_EXT_DATASOURCE_REGID>
SCHEMBL16120111

> <PUBCHEM_SUBSTANCE_COMMENT>
InChI=1S/C14H14N2/c1-2-9-16-13-6-4-3-5-11(13)12-10-15-8-7-14(12)16/h3-8,10H,2,9H2,1H3
InChIKey=JNBDJZLVFTXVIK-UHFFFAOYSA-N

> <PUBCHEM_SUBSTANCE_SYNONYM>
SCHEMBL16120111

> <PUBCHEM_XREF_EXT_ID>
SCHEMBL16120111

> <PUBCHEM_EXT_DATASOURCE_URL>
https://www.surechembl.org/

> <PUBCHEM_EXT_SUBSTANCE_URL>
https://www.surechembl.org/chemical/SCHEMBL16120111

> <PUBCHEM_CID_ASSOCIATIONS>
44451570  1

> <PUBCHEM_COORDINATE_TYPE>
1
3

$$$$
