310938128
  -OEChem-07211613022D

 37 40  0     1  0  0  0  0  0999 V2000
    3.5434   -2.1830    0.0000 O   0  0  0  0  0  0  0  0  0  0  0  0
    4.5874    0.0000    0.0000 O   0  0  0  0  0  0  0  0  0  0  0  0
    1.4237   -3.4485    0.0000 O   0  0  0  0  0  0  0  0  0  0  0  0
    4.3027   -5.0620    0.0000 O   0  0  0  0  0  0  0  0  0  0  0  0
    2.8474   -3.4485    0.0000 O   0  0  0  0  0  0  0  0  0  0  0  0
    4.9671   -2.1830    0.0000 N   0  0  0  0  0  0  0  0  0  0  0  0
    2.1514   -4.6824    0.0000 N   0  0  0  0  0  0  0  0  0  0  0  0
    3.6383   -1.0757    0.0000 N   0  0  0  0  0  0  0  0  0  0  0  0
    3.5751   -3.8598    0.0000 N   0  0  0  0  0  0  0  0  0  0  0  0
    1.5502   -0.3164    0.0000 N   0  0  0  0  0  0  0  0  0  0  0  0
    1.9932   -1.5819    0.0000 N   0  0  0  0  0  0  0  0  0  0  0  0
    0.9175   -0.7910    0.0000 N   0  0  0  0  0  0  0  0  0  0  0  0
    1.1706   -1.5819    0.0000 N   0  0  0  0  0  0  0  0  0  0  0  0
    5.7264   -2.5310    0.0000 C   0  0  0  0  0  0  0  0  0  0  0  0
    5.0304   -1.3604    0.0000 C   0  0  3  0  0  0  0  0  0  0  0  0
    6.2959   -1.8666    0.0000 C   0  0  0  0  0  0  0  0  0  0  0  0
    5.8529   -1.1706    0.0000 C   0  0  0  0  0  0  0  0  0  0  0  0
    4.2710   -2.5943    0.0000 C   0  0  0  0  0  0  0  0  0  0  0  0
    4.4292   -0.8226    0.0000 C   0  0  0  0  0  0  0  0  0  0  0  0
    6.0112   -3.2903    0.0000 C   0  0  0  0  0  0  0  0  0  0  0  0
    7.0868   -2.0565    0.0000 C   0  0  0  0  0  0  0  0  0  0  0  0
    4.2710   -3.4169    0.0000 C   0  0  0  0  0  0  0  0  0  0  0  0
    2.8790   -5.0936    0.0000 C   0  0  3  0  0  0  0  0  0  0  0  0
    6.7704   -3.4485    0.0000 C   0  0  0  0  0  0  0  0  0  0  0  0
    7.3399   -2.8157    0.0000 C   0  0  0  0  0  0  0  0  0  0  0  0
    3.5751   -4.6507    0.0000 C   0  0  0  0  0  0  0  0  0  0  0  0
    2.1514   -3.8598    0.0000 C   0  0  0  0  0  0  0  0  0  0  0  0
    2.8790   -5.9162    0.0000 C   0  0  0  0  0  0  0  0  0  0  0  0
    1.4237   -5.0936    0.0000 C   0  0  0  0  0  0  0  0  0  0  0  0
    3.0372   -0.5378    0.0000 C   0  0  0  0  0  0  0  0  0  0  0  0
    0.7277   -3.8598    0.0000 C   0  0  0  0  0  0  0  0  0  0  0  0
    2.2463   -0.7910    0.0000 C   0  0  0  0  0  0  0  0  0  0  0  0
    2.1514   -6.3275    0.0000 C   0  0  0  0  0  0  0  0  0  0  0  0
    1.4237   -5.9162    0.0000 C   0  0  0  0  0  0  0  0  0  0  0  0
    0.2847   -3.1321    0.0000 C   0  0  0  0  0  0  0  0  0  0  0  0
    0.0000   -4.2710    0.0000 C   0  0  0  0  0  0  0  0  0  0  0  0
    1.1073   -4.5874    0.0000 C   0  0  0  0  0  0  0  0  0  0  0  0
  1 18  2  0  0  0  0
  2 19  2  0  0  0  0
  3 27  1  0  0  0  0
  3 31  1  0  0  0  0
  4 26  2  0  0  0  0
  5 27  2  0  0  0  0
  6 14  1  0  0  0  0
  6 15  1  0  0  0  0
  6 18  1  0  0  0  0
  7 23  1  0  0  0  0
  7 27  1  0  0  0  0
  7 29  1  0  0  0  0
  8 19  1  0  0  0  0
  8 30  1  0  0  0  0
  9 22  1  0  0  0  0
  9 26  1  0  0  0  0
 10 12  2  0  0  0  0
 10 32  1  0  0  0  0
 11 13  1  0  0  0  0
 11 32  2  0  0  0  0
 12 13  1  0  0  0  0
 14 16  2  0  0  0  0
 14 20  1  0  0  0  0
 15 17  1  0  0  0  0
 15 19  1  6  0  0  0
 16 17  1  0  0  0  0
 16 21  1  0  0  0  0
 18 22  1  0  0  0  0
 20 24  2  0  0  0  0
 21 25  2  0  0  0  0
 23 26  1  6  0  0  0
 23 28  1  0  0  0  0
 24 25  1  0  0  0  0
 28 33  1  0  0  0  0
 29 34  1  0  0  0  0
 30 32  1  0  0  0  0
 31 35  1  0  0  0  0
 31 36  1  0  0  0  0
 31 37  1  0  0  0  0
 33 34  1  0  0  0  0
M  END
> <PUBCHEM_COMPOUND_ID_TYPE>
0

> <PUBCHEM_TOTAL_CHARGE>
0

> <PUBCHEM_SUBSTANCE_ID>
310938128

> <PUBCHEM_SUBSTANCE_VERSION>
1

> <PUBCHEM_EXT_DATASOURCE_NAME>
4488

> <PUBCHEM_EXT_DATASOURCE_REGID>
SCHEMBL16115979

> <PUBCHEM_SUBSTANCE_COMMENT>
InChI=1S/C24H32N8O5/c1-24(2,3)37-23(36)31-11-7-6-10-17(31)21(34)26-14-20(33)32-16-9-5-4-8-15(16)12-18(32)22(35)25-13-19-27-29-30-28-19/h4-5,8-9,17-18H,6-7,10-14H2,1-3H3,(H,25,35)(H,26,34)(H,27,28,29,30)/t17-,18-/m0/s1
InChIKey=JPROHBQKXXQJIJ-ROUUACIJSA-N

> <PUBCHEM_SUBSTANCE_SYNONYM>
SCHEMBL16115979

> <PUBCHEM_XREF_EXT_ID>
SCHEMBL16115979

> <PUBCHEM_EXT_DATASOURCE_URL>
https://www.surechembl.org/

> <PUBCHEM_EXT_SUBSTANCE_URL>
https://www.surechembl.org/chemical/SCHEMBL16115979

> <PUBCHEM_CID_ASSOCIATIONS>
117605684  1

> <PUBCHEM_COORDINATE_TYPE>
1
3

> <PUBCHEM_BONDANNOTATIONS>
15  19  6
23  26  6

$$$$
