310935562
  -OEChem-07211613022D

 11 11  0     0  0  0  0  0  0999 V2000
    0.0000   -1.4109    0.0000 Br  0  0  0  0  0  0  0  0  0  0  0  0
    3.3224    0.0000    0.0000 O   0  0  0  0  0  0  0  0  0  0  0  0
    4.5511   -0.7130    0.0000 O   0  0  0  0  0  0  0  0  0  0  0  0
    2.0632   -0.7130    0.0000 N   0  0  0  0  0  0  0  0  0  0  0  0
    3.3224   -1.4109    0.0000 N   0  0  0  0  0  0  0  0  0  0  0  0
    1.2592   -2.1239    0.0000 N   0  0  0  0  0  0  0  0  0  0  0  0
    2.5032   -1.4109    0.0000 C   0  0  0  0  0  0  0  0  0  0  0  0
    0.8192   -1.4109    0.0000 C   0  0  0  0  0  0  0  0  0  0  0  0
    2.0632   -2.1239    0.0000 C   0  0  0  0  0  0  0  0  0  0  0  0
    1.2592   -0.7130    0.0000 C   0  0  0  0  0  0  0  0  0  0  0  0
    3.7319   -0.7130    0.0000 C   0  0  0  0  0  0  0  0  0  0  0  0
  1  8  1  0  0  0  0
  2 11  2  0  0  0  0
  3 11  1  0  0  0  0
  4  7  2  0  0  0  0
  4 10  1  0  0  0  0
  5  7  1  0  0  0  0
  5 11  1  0  0  0  0
  6  8  1  0  0  0  0
  6  9  2  0  0  0  0
  7  9  1  0  0  0  0
  8 10  2  0  0  0  0
M  END
> <PUBCHEM_COMPOUND_ID_TYPE>
0

> <PUBCHEM_TOTAL_CHARGE>
0

> <PUBCHEM_SUBSTANCE_ID>
310935562

> <PUBCHEM_SUBSTANCE_VERSION>
1

> <PUBCHEM_EXT_DATASOURCE_NAME>
4488

> <PUBCHEM_EXT_DATASOURCE_REGID>
SCHEMBL16113133

> <PUBCHEM_SUBSTANCE_COMMENT>
InChI=1S/C5H4BrN3O2/c6-3-1-8-4(2-7-3)9-5(10)11/h1-2H,(H,8,9)(H,10,11)
InChIKey=LURCLSRWUPTSCD-UHFFFAOYSA-N

> <PUBCHEM_SUBSTANCE_SYNONYM>
SCHEMBL16113133

> <PUBCHEM_XREF_EXT_ID>
SCHEMBL16113133

> <PUBCHEM_EXT_DATASOURCE_URL>
https://www.surechembl.org/

> <PUBCHEM_EXT_SUBSTANCE_URL>
https://www.surechembl.org/chemical/SCHEMBL16113133

> <PUBCHEM_CID_ASSOCIATIONS>
57474069  1

> <PUBCHEM_COORDINATE_TYPE>
1
3

$$$$
