310931384
  -OEChem-07211613022D

 49 54  0     1  0  0  0  0  0999 V2000
   -6.1815    0.9020    0.0000 Cl  0  0  0  0  0  0  0  0  0  0  0  0
   -4.2607    5.5807    0.0000 S   0  0  0  0  0  0  0  0  0  0  0  0
   -4.2137    7.3032    0.0000 S   0  0  0  0  0  0  0  0  0  0  0  0
   -4.2607    3.9307    0.0000 F   0  0  0  0  0  0  0  0  0  0  0  0
   -7.1187    5.5807    0.0000 F   0  0  0  0  0  0  0  0  0  0  0  0
   -3.8482    4.8662    0.0000 O   0  0  0  0  0  0  0  0  0  0  0  0
   -4.6732    6.2952    0.0000 O   0  0  0  0  0  0  0  0  0  0  0  0
   -7.1187    3.9307    0.0000 O   0  0  0  0  0  0  0  0  0  0  0  0
   -1.4028    4.7557    0.0000 O   0  0  0  0  0  0  0  0  0  0  0  0
    0.0262    7.2308    0.0000 O   0  0  0  0  0  0  0  0  0  0  0  0
   -3.5463    5.9932    0.0000 N   0  0  0  0  0  0  0  0  0  0  0  0
   -2.8788    7.3032    0.0000 N   0  0  0  0  0  0  0  0  0  0  0  0
   -9.8533    3.6531    0.0000 N   0  0  3  0  0  0  0  0  0  0  0  0
   -3.9588    8.0878    0.0000 N   0  0  0  0  0  0  0  0  0  0  0  0
   -4.9752    5.1682    0.0000 C   0  0  0  0  0  0  0  0  0  0  0  0
   -4.9752    4.3432    0.0000 C   0  0  0  0  0  0  0  0  0  0  0  0
   -3.5463    6.8182    0.0000 C   0  0  0  0  0  0  0  0  0  0  0  0
   -5.6897    5.5807    0.0000 C   0  0  0  0  0  0  0  0  0  0  0  0
   -6.4041    4.3432    0.0000 C   0  0  0  0  0  0  0  0  0  0  0  0
   -2.8318    5.5807    0.0000 C   0  0  0  0  0  0  0  0  0  0  0  0
   -6.4041    5.1682    0.0000 C   0  0  0  0  0  0  0  0  0  0  0  0
   -5.6897    3.9307    0.0000 C   0  0  0  0  0  0  0  0  0  0  0  0
   -2.1173    5.9932    0.0000 C   0  0  0  0  0  0  0  0  0  0  0  0
   -8.5476    3.9307    0.0000 C   0  0  3  0  0  0  0  0  0  0  0  0
   -8.6339    3.1102    0.0000 C   0  0  3  0  0  0  0  0  0  0  0  0
   -1.4028    5.5807    0.0000 C   0  0  0  0  0  0  0  0  0  0  0  0
   -7.8331    4.3432    0.0000 C   0  0  0  0  0  0  0  0  0  0  0  0
   -8.0208    2.5582    0.0000 C   0  0  0  0  0  0  0  0  0  0  0  0
   -2.1173    6.8182    0.0000 C   0  0  0  0  0  0  0  0  0  0  0  0
   -9.3013    4.2663    0.0000 C   0  0  0  0  0  0  0  0  0  0  0  0
   -9.4408    2.9387    0.0000 C   0  0  0  0  0  0  0  0  0  0  0  0
   -3.1337    8.0878    0.0000 C   0  0  0  0  0  0  0  0  0  0  0  0
   -0.6884    5.9932    0.0000 C   0  0  0  0  0  0  0  0  0  0  0  0
   -0.6884    6.8182    0.0000 C   0  0  0  0  0  0  0  0  0  0  0  0
   -1.4028    7.2308    0.0000 C   0  0  0  0  0  0  0  0  0  0  0  0
  -10.6738    3.7394    0.0000 C   0  0  0  0  0  0  0  0  0  0  0  0
   -8.1923    1.7511    0.0000 C   0  0  0  0  0  0  0  0  0  0  0  0
   -7.2361    2.8131    0.0000 C   0  0  0  0  0  0  0  0  0  0  0  0
  -11.1587    3.0719    0.0000 C   0  0  0  0  0  0  0  0  0  0  0  0
   -7.5792    1.1992    0.0000 C   0  0  0  0  0  0  0  0  0  0  0  0
   -6.6230    2.2611    0.0000 C   0  0  0  0  0  0  0  0  0  0  0  0
   -6.7946    1.4541    0.0000 C   0  0  0  0  0  0  0  0  0  0  0  0
   -0.6884    4.3432    0.0000 C   0  0  0  0  0  0  0  0  0  0  0  0
  -11.9793    3.1582    0.0000 C   0  0  0  0  0  0  0  0  0  0  0  0
  -10.8232    2.3182    0.0000 C   0  0  0  0  0  0  0  0  0  0  0  0
    0.7406    6.8182    0.0000 C   0  0  0  0  0  0  0  0  0  0  0  0
  -12.4642    2.4907    0.0000 C   0  0  0  0  0  0  0  0  0  0  0  0
  -11.3081    1.6508    0.0000 C   0  0  0  0  0  0  0  0  0  0  0  0
  -12.1286    1.7371    0.0000 C   0  0  0  0  0  0  0  0  0  0  0  0
  1 42  1  0  0  0  0
  2  6  2  0  0  0  0
  2  7  2  0  0  0  0
  2 11  1  0  0  0  0
  2 15  1  0  0  0  0
  3 14  1  0  0  0  0
  3 17  1  0  0  0  0
  4 16  1  0  0  0  0
  5 21  1  0  0  0  0
  8 19  1  0  0  0  0
  8 27  1  0  0  0  0
  9 26  1  0  0  0  0
  9 43  1  0  0  0  0
 10 34  1  0  0  0  0
 10 46  1  0  0  0  0
 11 17  1  0  0  0  0
 11 20  1  0  0  0  0
 12 17  2  0  0  0  0
 12 32  1  0  0  0  0
 13 30  1  0  0  0  0
 13 31  1  0  0  0  0
 13 36  1  0  0  0  0
 14 32  2  0  0  0  0
 15 16  1  0  0  0  0
 15 18  2  0  0  0  0
 16 22  2  0  0  0  0
 18 21  1  0  0  0  0
 19 21  2  0  0  0  0
 19 22  1  0  0  0  0
 20 23  1  0  0  0  0
 23 26  1  0  0  0  0
 23 29  2  0  0  0  0
 24 25  1  0  0  0  0
 24 27  1  6  0  0  0
 24 30  1  0  0  0  0
 25 28  1  0  0  0  0
 25 31  1  1  0  0  0
 26 33  2  0  0  0  0
 28 37  2  0  0  0  0
 28 38  1  0  0  0  0
 29 35  1  0  0  0  0
 33 34  1  0  0  0  0
 34 35  2  0  0  0  0
 36 39  1  0  0  0  0
 37 40  1  0  0  0  0
 38 41  2  0  0  0  0
 39 44  2  0  0  0  0
 39 45  1  0  0  0  0
 40 42  2  0  0  0  0
 41 42  1  0  0  0  0
 44 47  1  0  0  0  0
 45 48  2  0  0  0  0
 47 49  2  0  0  0  0
 48 49  1  0  0  0  0
M  END
> <PUBCHEM_COMPOUND_ID_TYPE>
0

> <PUBCHEM_TOTAL_CHARGE>
0

> <PUBCHEM_SUBSTANCE_ID>
310931384

> <PUBCHEM_SUBSTANCE_VERSION>
1

> <PUBCHEM_EXT_DATASOURCE_NAME>
4488

> <PUBCHEM_EXT_DATASOURCE_REGID>
SCHEMBL16108707

> <PUBCHEM_SUBSTANCE_COMMENT>
InChI=1S/C35H33ClF2N4O5S2/c1-45-28-13-10-25(32(14-28)46-2)19-42(35-39-22-40-48-35)49(43,44)34-16-30(37)33(15-31(34)38)47-21-26-18-41(17-23-6-4-3-5-7-23)20-29(26)24-8-11-27(36)12-9-24/h3-16,22,26,29H,17-21H2,1-2H3/t26-,29-/m1/s1
InChIKey=SDWNFHSPKTUZFF-GGXMVOPNSA-N

> <PUBCHEM_SUBSTANCE_SYNONYM>
SCHEMBL16108707

> <PUBCHEM_XREF_EXT_ID>
SCHEMBL16108707

> <PUBCHEM_EXT_DATASOURCE_URL>
https://www.surechembl.org/

> <PUBCHEM_EXT_SUBSTANCE_URL>
https://www.surechembl.org/chemical/SCHEMBL16108707

> <PUBCHEM_CID_ASSOCIATIONS>
117600176  1

> <PUBCHEM_COORDINATE_TYPE>
1
3

> <PUBCHEM_BONDANNOTATIONS>
24  27  6
25  31  5

$$$$
