310936162
  -OEChem-07211613022D

 33 35  0     1  0  0  0  0  0999 V2000
    3.3809   -4.4270    0.0000 O   0  0  0  0  0  0  0  0  0  0  0  0
    0.9059   -2.9980    0.0000 O   0  0  0  0  0  0  0  0  0  0  0  0
    2.1434   -2.2836    0.0000 O   0  0  0  0  0  0  0  0  0  0  0  0
    5.4434   -3.7125    0.0000 O   0  0  0  0  0  0  0  0  0  0  0  0
    4.2059   -2.9980    0.0000 O   0  0  0  0  0  0  0  0  0  0  0  0
    2.1434   -3.7125    0.0000 N   0  0  0  0  0  0  0  0  0  0  0  0
    2.1434   -5.1414    0.0000 C   0  0  3  0  0  0  0  0  0  0  0  0
    1.7309   -5.8559    0.0000 C   0  0  0  0  0  0  0  0  0  0  0  0
    2.9684   -5.1414    0.0000 C   0  0  3  0  0  0  0  0  0  0  0  0
    1.7309   -7.2849    0.0000 C   0  0  0  0  0  0  0  0  0  0  0  0
    2.1434   -6.5704    0.0000 C   0  0  0  0  0  0  0  0  0  0  0  0
    3.3809   -5.8559    0.0000 C   0  0  0  0  0  0  0  0  0  0  0  0
    0.9059   -7.2849    0.0000 C   0  0  0  0  0  0  0  0  0  0  0  0
    1.7309   -4.4270    0.0000 C   0  0  0  0  0  0  0  0  0  0  0  0
    0.9059   -5.8559    0.0000 C   0  0  0  0  0  0  0  0  0  0  0  0
    0.4934   -6.5704    0.0000 C   0  0  0  0  0  0  0  0  0  0  0  0
    2.1434   -7.9993    0.0000 C   0  0  0  0  0  0  0  0  0  0  0  0
    1.7309   -2.9980    0.0000 C   0  0  0  0  0  0  0  0  0  0  0  0
    0.4934   -7.9993    0.0000 C   0  0  0  0  0  0  0  0  0  0  0  0
    4.2059   -5.8559    0.0000 C   0  0  0  0  0  0  0  0  0  0  0  0
    2.9684   -6.5704    0.0000 C   0  0  0  0  0  0  0  0  0  0  0  0
    1.7309   -8.7138    0.0000 C   0  0  0  0  0  0  0  0  0  0  0  0
    0.9059   -8.7138    0.0000 C   0  0  0  0  0  0  0  0  0  0  0  0
    4.2059   -4.4270    0.0000 C   0  0  0  0  0  0  0  0  0  0  0  0
    0.4934   -3.7125    0.0000 C   0  0  0  0  0  0  0  0  0  0  0  0
    4.6184   -6.5704    0.0000 C   0  0  0  0  0  0  0  0  0  0  0  0
    3.3809   -7.2849    0.0000 C   0  0  0  0  0  0  0  0  0  0  0  0
    2.9684   -3.7125    0.0000 C   0  0  0  0  0  0  0  0  0  0  0  0
    4.2059   -7.2849    0.0000 C   0  0  0  0  0  0  0  0  0  0  0  0
    4.6184   -3.7125    0.0000 C   0  0  0  0  0  0  0  0  0  0  0  0
    0.0809   -4.4270    0.0000 C   0  0  0  0  0  0  0  0  0  0  0  0
   -0.2211   -3.3000    0.0000 C   0  0  0  0  0  0  0  0  0  0  0  0
    1.2079   -4.1250    0.0000 C   0  0  0  0  0  0  0  0  0  0  0  0
  9  1  1  6  0  0  0
  1 24  1  0  0  0  0
  2 18  1  0  0  0  0
  2 25  1  0  0  0  0
  3 18  2  0  0  0  0
  4 30  2  0  0  0  0
  5 30  1  0  0  0  0
  6 14  1  0  0  0  0
  6 18  1  0  0  0  0
  6 28  1  0  0  0  0
  7  8  1  0  0  0  0
  7  9  1  0  0  0  0
  7 14  1  1  0  0  0
  8 11  2  0  0  0  0
  8 15  1  0  0  0  0
  9 12  1  0  0  0  0
 10 11  1  0  0  0  0
 10 13  1  0  0  0  0
 10 17  2  0  0  0  0
 12 20  2  0  0  0  0
 12 21  1  0  0  0  0
 13 16  1  0  0  0  0
 13 19  2  0  0  0  0
 15 16  2  0  0  0  0
 17 22  1  0  0  0  0
 19 23  1  0  0  0  0
 20 26  1  0  0  0  0
 21 27  2  0  0  0  0
 22 23  2  0  0  0  0
 24 30  1  0  0  0  0
 25 31  1  0  0  0  0
 25 32  1  0  0  0  0
 25 33  1  0  0  0  0
 26 29  2  0  0  0  0
 27 29  1  0  0  0  0
M  END
> <PUBCHEM_COMPOUND_ID_TYPE>
0

> <PUBCHEM_TOTAL_CHARGE>
0

> <PUBCHEM_SUBSTANCE_ID>
310936162

> <PUBCHEM_SUBSTANCE_VERSION>
1

> <PUBCHEM_EXT_DATASOURCE_NAME>
4488

> <PUBCHEM_EXT_DATASOURCE_REGID>
SCHEMBL16113772

> <PUBCHEM_SUBSTANCE_COMMENT>
InChI=1S/C27H31NO5/c1-27(2,3)33-26(31)28(4)17-23(22-15-14-19-10-8-9-13-21(19)16-22)25(32-18-24(29)30)20-11-6-5-7-12-20/h5-16,23,25H,17-18H2,1-4H3,(H,29,30)/t23-,25-/m1/s1
InChIKey=LEXBYMXZAQQZIM-ILBGXUMGSA-N

> <PUBCHEM_SUBSTANCE_SYNONYM>
SCHEMBL16113772

> <PUBCHEM_XREF_EXT_ID>
SCHEMBL16113772

> <PUBCHEM_EXT_DATASOURCE_URL>
https://www.surechembl.org/

> <PUBCHEM_EXT_SUBSTANCE_URL>
https://www.surechembl.org/chemical/SCHEMBL16113772

> <PUBCHEM_CID_ASSOCIATIONS>
117604123  1

> <PUBCHEM_COORDINATE_TYPE>
1
3

> <PUBCHEM_BONDANNOTATIONS>
9  1  6
7  14  5

$$$$
