310943666
  -OEChem-07211613022D

 37 40  0     1  0  0  0  0  0999 V2000
    4.6635    2.2728    0.0000 F   0  0  0  0  0  0  0  0  0  0  0  0
    1.7846    2.2728    0.0000 O   0  0  0  0  0  0  0  0  0  0  0  0
   -5.4043    2.2728    0.0000 O   0  0  0  0  0  0  0  0  0  0  0  0
   -2.5254   -2.6937    0.0000 O   0  0  0  0  0  0  0  0  0  0  0  0
   -2.5254    1.4478    0.0000 N   0  0  0  0  0  0  0  0  0  0  0  0
   -3.9564    1.4478    0.0000 N   0  0  0  0  0  0  0  0  0  0  0  0
   -3.2493    0.2020    0.0000 N   0  0  0  0  0  0  0  0  0  0  0  0
    1.0775    1.0439    0.0000 N   0  0  0  0  0  0  0  0  0  0  0  0
   -2.5254   -1.0270    0.0000 N   0  0  0  0  0  0  0  0  0  0  0  0
    3.9395    0.2020    0.0000 N   0  0  0  0  0  0  0  0  0  0  0  0
   -1.8014    1.0606    0.0000 C   0  0  0  0  0  0  0  0  0  0  0  0
   -1.0775    1.4647    0.0000 C   0  0  0  0  0  0  0  0  0  0  0  0
   -3.2493    1.0606    0.0000 C   0  0  0  0  0  0  0  0  0  0  0  0
   -1.0775    2.2897    0.0000 C   0  0  0  0  0  0  0  0  0  0  0  0
   -2.5254   -0.2020    0.0000 C   0  0  0  0  0  0  0  0  0  0  0  0
   -1.8183    0.2020    0.0000 C   0  0  0  0  0  0  0  0  0  0  0  0
   -0.3535    1.0606    0.0000 C   0  0  0  0  0  0  0  0  0  0  0  0
    0.3535    1.4647    0.0000 C   0  0  0  0  0  0  0  0  0  0  0  0
    2.5085    1.0606    0.0000 C   0  0  0  0  0  0  0  0  0  0  0  0
   -0.3704    2.6769    0.0000 C   0  0  0  0  0  0  0  0  0  0  0  0
    1.7846    1.4478    0.0000 C   0  0  0  0  0  0  0  0  0  0  0  0
    0.3367    2.2897    0.0000 C   0  0  0  0  0  0  0  0  0  0  0  0
    3.9395    1.0606    0.0000 C   0  0  0  0  0  0  0  0  0  0  0  0
    4.6804    1.4647    0.0000 C   0  0  0  0  0  0  0  0  0  0  0  0
    3.2157    1.4478    0.0000 C   0  0  0  0  0  0  0  0  0  0  0  0
   -3.9732    2.2897    0.0000 C   0  0  0  0  0  0  0  0  0  0  0  0
   -4.6972    1.0439    0.0000 C   0  0  0  0  0  0  0  0  0  0  0  0
    2.5085    0.2189    0.0000 C   0  0  0  0  0  0  0  0  0  0  0  0
   -1.8183    2.6769    0.0000 C   0  0  0  0  0  0  0  0  0  0  0  0
    3.2324   -0.2020    0.0000 C   0  0  0  0  0  0  0  0  0  0  0  0
   -4.6972    2.6937    0.0000 C   0  0  0  0  0  0  0  0  0  0  0  0
   -5.4043    1.4647    0.0000 C   0  0  0  0  0  0  0  0  0  0  0  0
   -1.8014   -1.4478    0.0000 C   0  0  0  0  0  0  0  0  0  0  0  0
    5.4043    1.8519    0.0000 C   0  0  0  0  0  0  0  0  0  0  0  0
    5.4043    1.0439    0.0000 C   0  0  0  0  0  0  0  0  0  0  0  0
   -1.8014   -2.2560    0.0000 C   0  0  3  0  0  0  0  0  0  0  0  0
   -1.0943   -2.6769    0.0000 C   0  0  0  0  0  0  0  0  0  0  0  0
  1 24  1  0  0  0  0
  2 21  2  0  0  0  0
  3 31  1  0  0  0  0
  3 32  1  0  0  0  0
 36  4  1  1  0  0  0
  5 11  2  0  0  0  0
  5 13  1  0  0  0  0
  6 13  1  0  0  0  0
  6 26  1  0  0  0  0
  6 27  1  0  0  0  0
  7 13  2  0  0  0  0
  7 15  1  0  0  0  0
  8 18  1  0  0  0  0
  8 21  1  0  0  0  0
  9 15  1  0  0  0  0
  9 33  1  0  0  0  0
 10 23  1  0  0  0  0
 10 30  2  0  0  0  0
 11 12  1  0  0  0  0
 11 16  1  0  0  0  0
 12 14  1  0  0  0  0
 12 17  2  0  0  0  0
 14 20  2  0  0  0  0
 14 29  1  0  0  0  0
 15 16  2  0  0  0  0
 17 18  1  0  0  0  0
 18 22  2  0  0  0  0
 19 21  1  0  0  0  0
 19 25  1  0  0  0  0
 19 28  2  0  0  0  0
 20 22  1  0  0  0  0
 23 24  1  0  0  0  0
 23 25  2  0  0  0  0
 24 34  1  0  0  0  0
 24 35  1  0  0  0  0
 26 31  1  0  0  0  0
 27 32  1  0  0  0  0
 28 30  1  0  0  0  0
 33 36  1  0  0  0  0
 36 37  1  0  0  0  0
M  END
> <PUBCHEM_COMPOUND_ID_TYPE>
0

> <PUBCHEM_TOTAL_CHARGE>
0

> <PUBCHEM_SUBSTANCE_ID>
310943666

> <PUBCHEM_SUBSTANCE_VERSION>
1

> <PUBCHEM_EXT_DATASOURCE_NAME>
4488

> <PUBCHEM_EXT_DATASOURCE_REGID>
SCHEMBL16121734

> <PUBCHEM_SUBSTANCE_COMMENT>
InChI=1S/C27H33FN6O3/c1-17-5-6-20(31-25(36)19-7-8-29-23(13-19)27(3,4)28)14-21(17)22-15-24(30-16-18(2)35)33-26(32-22)34-9-11-37-12-10-34/h5-8,13-15,18,35H,9-12,16H2,1-4H3,(H,31,36)(H,30,32,33)/t18-/m1/s1
InChIKey=RNLUHDJLAXPLES-GOSISDBHSA-N

> <PUBCHEM_SUBSTANCE_SYNONYM>
SCHEMBL16121734

> <PUBCHEM_XREF_EXT_ID>
SCHEMBL16121734

> <PUBCHEM_EXT_DATASOURCE_URL>
https://www.surechembl.org/

> <PUBCHEM_EXT_SUBSTANCE_URL>
https://www.surechembl.org/chemical/SCHEMBL16121734

> <PUBCHEM_CID_ASSOCIATIONS>
117610055  1

> <PUBCHEM_COORDINATE_TYPE>
1
3

> <PUBCHEM_BONDANNOTATIONS>
36  4  5

$$$$
