310932957
  -OEChem-07211613022D

 34 37  0     0  0  0  0  0  0999 V2000
    5.5206   -3.2930    0.0000 O   0  0  0  0  0  0  0  0  0  0  0  0
    5.2623   -4.9072    0.0000 O   0  0  0  0  0  0  0  0  0  0  0  0
    0.0000   -4.4229    0.0000 O   0  0  0  0  0  0  0  0  0  0  0  0
    3.9064   -5.3591    0.0000 O   0  0  0  0  0  0  0  0  0  0  0  0
    3.4221   -1.2268    0.0000 O   0  0  0  0  0  0  0  0  0  0  0  0
    4.2292   -3.9387    0.0000 N   0  0  0  0  0  0  0  0  0  0  0  0
    4.2292   -2.6473    0.0000 N   0  0  0  0  0  0  0  0  0  0  0  0
    0.4197   -5.1331    0.0000 N   0  0  0  0  0  0  0  0  0  0  0  0
    3.4221   -3.7126    0.0000 C   0  0  0  0  0  0  0  0  0  0  0  0
    3.4221   -2.8733    0.0000 C   0  0  0  0  0  0  0  0  0  0  0  0
    2.7119   -2.4858    0.0000 C   0  0  0  0  0  0  0  0  0  0  0  0
    4.7134   -3.2930    0.0000 C   0  0  0  0  0  0  0  0  0  0  0  0
    2.0016   -3.7126    0.0000 C   0  0  0  0  0  0  0  0  0  0  0  0
    2.7119   -4.1323    0.0000 C   0  0  0  0  0  0  0  0  0  0  0  0
    2.0016   -2.8733    0.0000 C   0  0  0  0  0  0  0  0  0  0  0  0
    1.2914   -4.1323    0.0000 C   0  0  0  0  0  0  0  0  0  0  0  0
    4.4875   -4.7457    0.0000 C   0  0  0  0  0  0  0  0  0  0  0  0
    2.7119   -1.6465    0.0000 C   0  0  0  0  0  0  0  0  0  0  0  0
    0.5488   -3.8095    0.0000 C   0  0  0  0  0  0  0  0  0  0  0  0
    1.2268   -4.9395    0.0000 C   0  0  0  0  0  0  0  0  0  0  0  0
    1.9693   -1.2268    0.0000 C   0  0  0  0  0  0  0  0  0  0  0  0
    5.5206   -5.6820    0.0000 C   0  0  0  0  0  0  0  0  0  0  0  0
    1.9693   -0.4197    0.0000 C   0  0  0  0  0  0  0  0  0  0  0  0
    1.2591   -1.6465    0.0000 C   0  0  0  0  0  0  0  0  0  0  0  0
    5.9403   -2.5827    0.0000 C   0  0  0  0  0  0  0  0  0  0  0  0
    0.3551   -3.0024    0.0000 C   0  0  0  0  0  0  0  0  0  0  0  0
    1.8402   -5.4883    0.0000 C   0  0  0  0  0  0  0  0  0  0  0  0
    1.2591    0.0000    0.0000 C   0  0  0  0  0  0  0  0  0  0  0  0
    0.5488   -1.2591    0.0000 C   0  0  0  0  0  0  0  0  0  0  0  0
    4.7134   -5.9403    0.0000 C   0  0  0  0  0  0  0  0  0  0  0  0
    5.7788   -6.4568    0.0000 C   0  0  0  0  0  0  0  0  0  0  0  0
    6.2953   -5.4237    0.0000 C   0  0  0  0  0  0  0  0  0  0  0  0
    0.5488   -0.4197    0.0000 C   0  0  0  0  0  0  0  0  0  0  0  0
    5.5206   -1.8725    0.0000 C   0  0  0  0  0  0  0  0  0  0  0  0
  1 12  1  0  0  0  0
  1 25  1  0  0  0  0
  2 17  1  0  0  0  0
  2 22  1  0  0  0  0
  3  8  1  0  0  0  0
  3 19  1  0  0  0  0
  4 17  2  0  0  0  0
  5 18  2  0  0  0  0
  6  9  1  0  0  0  0
  6 12  1  0  0  0  0
  6 17  1  0  0  0  0
  7 10  1  0  0  0  0
  7 12  2  0  0  0  0
  8 20  2  0  0  0  0
  9 10  2  0  0  0  0
  9 14  1  0  0  0  0
 10 11  1  0  0  0  0
 11 15  2  0  0  0  0
 11 18  1  0  0  0  0
 13 14  2  0  0  0  0
 13 15  1  0  0  0  0
 13 16  1  0  0  0  0
 16 19  2  0  0  0  0
 16 20  1  0  0  0  0
 18 21  1  0  0  0  0
 19 26  1  0  0  0  0
 20 27  1  0  0  0  0
 21 23  2  0  0  0  0
 21 24  1  0  0  0  0
 22 30  1  0  0  0  0
 22 31  1  0  0  0  0
 22 32  1  0  0  0  0
 23 28  1  0  0  0  0
 24 29  2  0  0  0  0
 25 34  1  0  0  0  0
 28 33  2  0  0  0  0
 29 33  1  0  0  0  0
M  END
> <PUBCHEM_COMPOUND_ID_TYPE>
0

> <PUBCHEM_TOTAL_CHARGE>
0

> <PUBCHEM_SUBSTANCE_ID>
310932957

> <PUBCHEM_SUBSTANCE_VERSION>
1

> <PUBCHEM_EXT_DATASOURCE_NAME>
4488

> <PUBCHEM_EXT_DATASOURCE_REGID>
SCHEMBL16110353

> <PUBCHEM_SUBSTANCE_COMMENT>
InChI=1S/C26H27N3O5/c1-7-32-24-27-22-19(23(30)17-11-9-8-10-12-17)13-18(21-15(2)28-34-16(21)3)14-20(22)29(24)25(31)33-26(4,5)6/h8-14H,7H2,1-6H3
InChIKey=JNDHGJZADJICHL-UHFFFAOYSA-N

> <PUBCHEM_SUBSTANCE_SYNONYM>
SCHEMBL16110353

> <PUBCHEM_XREF_EXT_ID>
SCHEMBL16110353

> <PUBCHEM_EXT_DATASOURCE_URL>
https://www.surechembl.org/

> <PUBCHEM_EXT_SUBSTANCE_URL>
https://www.surechembl.org/chemical/SCHEMBL16110353

> <PUBCHEM_CID_ASSOCIATIONS>
117601434  1

> <PUBCHEM_COORDINATE_TYPE>
1
3

$$$$
