310946665
  -OEChem-07211613022D

 33 37  0     1  0  0  0  0  0999 V2000
    3.5480    0.7823    0.0000 O   0  0  0  0  0  0  0  0  0  0  0  0
    3.1782   -0.5979    0.0000 O   0  0  0  0  0  0  0  0  0  0  0  0
    0.0243   -0.8250    0.0000 C   0  0  3  0  0  0  0  0  0  0  0  0
    0.7388   -0.4125    0.0000 C   0  0  3  0  0  0  0  0  0  0  0  0
   -0.6901   -0.4125    0.0000 C   0  0  3  0  0  0  0  0  0  0  0  0
    0.7388    0.4125    0.0000 C   0  0  0  0  0  0  0  0  0  0  0  0
   -1.4046   -0.8250    0.0000 C   0  0  3  0  0  0  0  0  0  0  0  0
    1.4533    0.8250    0.0000 C   0  0  3  0  0  0  0  0  0  0  0  0
    2.1678    0.4125    0.0000 C   0  0  3  0  0  0  0  0  0  0  0  0
   -1.4046   -1.6500    0.0000 C   0  0  3  0  0  0  0  0  0  0  0  0
    1.4533   -0.8250    0.0000 C   0  0  0  0  0  0  0  0  0  0  0  0
    0.0243   -1.6500    0.0000 C   0  0  0  0  0  0  0  0  0  0  0  0
   -0.6901    0.4125    0.0000 C   0  0  0  0  0  0  0  0  0  0  0  0
   -2.1191   -2.0625    0.0000 C   0  0  0  0  0  0  0  0  0  0  0  0
    0.0243    0.8250    0.0000 C   0  0  0  0  0  0  0  0  0  0  0  0
    2.1678   -0.4125    0.0000 C   0  0  0  0  0  0  0  0  0  0  0  0
   -0.6901   -2.0625    0.0000 C   0  0  0  0  0  0  0  0  0  0  0  0
   -2.1191   -0.4125    0.0000 C   0  0  0  0  0  0  0  0  0  0  0  0
    0.0243    0.0000    0.0000 C   0  0  0  0  0  0  0  0  0  0  0  0
    0.7388   -1.2375    0.0000 C   0  0  0  0  0  0  0  0  0  0  0  0
    1.4533    1.6500    0.0000 C   0  0  0  0  0  0  0  0  0  0  0  0
    2.9646    0.1990    0.0000 C   0  0  0  0  0  0  0  0  0  0  0  0
    2.8822    0.8250    0.0000 C   0  0  0  0  0  0  0  0  0  0  0  0
   -2.8335   -1.6500    0.0000 C   0  0  3  0  0  0  0  0  0  0  0  0
    2.1678    2.0625    0.0000 C   0  0  0  0  0  0  0  0  0  0  0  0
   -1.4046    0.0000    0.0000 C   0  0  0  0  0  0  0  0  0  0  0  0
   -2.8335   -0.8250    0.0000 C   0  0  0  0  0  0  0  0  0  0  0  0
    2.8822    1.6500    0.0000 C   0  0  0  0  0  0  0  0  0  0  0  0
   -2.5316   -2.7770    0.0000 C   0  0  0  0  0  0  0  0  0  0  0  0
   -1.7066   -2.7770    0.0000 C   0  0  0  0  0  0  0  0  0  0  0  0
   -3.5480   -2.0625    0.0000 C   0  0  0  0  0  0  0  0  0  0  0  0
    2.5803    2.7770    0.0000 C   0  0  0  0  0  0  0  0  0  0  0  0
    1.7553    2.7770    0.0000 C   0  0  0  0  0  0  0  0  0  0  0  0
  1 22  2  0  0  0  0
  2 22  1  0  0  0  0
  3  4  1  0  0  0  0
  3  5  1  0  0  0  0
  3 12  1  0  0  0  0
  3 19  1  1  0  0  0
  4  6  1  0  0  0  0
  4 11  1  0  0  0  0
  4 20  1  6  0  0  0
  5  7  1  0  0  0  0
  5 13  1  1  0  0  0
  6  8  1  0  0  0  0
  6 15  2  0  0  0  0
  7 10  1  0  0  0  0
  7 18  1  0  0  0  0
  7 26  1  1  0  0  0
  8  9  1  0  0  0  0
  8 21  1  0  0  0  0
  9 16  1  0  0  0  0
  9 22  1  1  0  0  0
  9 23  1  0  0  0  0
 10 14  1  0  0  0  0
 10 17  1  1  0  0  0
 11 16  1  0  0  0  0
 12 17  1  0  0  0  0
 13 15  1  0  0  0  0
 14 24  1  0  0  0  0
 14 29  1  0  0  0  0
 14 30  1  0  0  0  0
 18 27  1  0  0  0  0
 21 25  1  0  0  0  0
 23 28  1  0  0  0  0
 24 27  1  0  0  0  0
 24 31  1  1  0  0  0
 25 28  1  0  0  0  0
 25 32  1  0  0  0  0
 25 33  1  0  0  0  0
M  END
> <PUBCHEM_COMPOUND_ID_TYPE>
0

> <PUBCHEM_TOTAL_CHARGE>
0

> <PUBCHEM_SUBSTANCE_ID>
310946665

> <PUBCHEM_SUBSTANCE_VERSION>
1

> <PUBCHEM_EXT_DATASOURCE_NAME>
4488

> <PUBCHEM_EXT_DATASOURCE_REGID>
SCHEMBL16124786

> <PUBCHEM_SUBSTANCE_COMMENT>
InChI=1S/C31H50O2/c1-20-11-13-28(6)23(27(20,4)5)12-14-30(8)24(28)10-9-21-22-19-26(2,3)15-17-31(22,25(32)33)18-16-29(21,30)7/h9,20,22-24H,10-19H2,1-8H3,(H,32,33)/t20-,22?,23-,24+,28-,29+,30+,31-/m0/s1
InChIKey=REHLAPKPLGOTKE-DUDFCCELSA-N

> <PUBCHEM_SUBSTANCE_SYNONYM>
SCHEMBL16124786

> <PUBCHEM_XREF_EXT_ID>
SCHEMBL16124786

> <PUBCHEM_EXT_DATASOURCE_URL>
https://www.surechembl.org/

> <PUBCHEM_EXT_SUBSTANCE_URL>
https://www.surechembl.org/chemical/SCHEMBL16124786

> <PUBCHEM_CID_ASSOCIATIONS>
117612565  1

> <PUBCHEM_COORDINATE_TYPE>
1
3

> <PUBCHEM_BONDANNOTATIONS>
10  17  5
24  31  5
3  19  5
4  20  6
5  13  5
7  26  5
9  22  5

$$$$
