310943155
  -OEChem-07211613022D

 31 34  0     0  0  0  0  0  0999 V2000
   -2.7901   -0.5771    0.0000 O   0  0  0  0  0  0  0  0  0  0  0  0
    1.4900   -0.5771    0.0000 O   0  0  0  0  0  0  0  0  0  0  0  0
   -4.2071    1.9063    0.0000 O   0  0  0  0  0  0  0  0  0  0  0  0
   -1.3585   -0.5771    0.0000 N   0  0  0  0  0  0  0  0  0  0  0  0
   -2.7901    1.0883    0.0000 N   0  0  0  0  0  0  0  0  0  0  0  0
    2.1912    0.6647    0.0000 N   0  0  0  0  0  0  0  0  0  0  0  0
    3.6520   -0.2264    0.0000 N   0  0  0  0  0  0  0  0  0  0  0  0
    0.7743    2.3300    0.0000 N   0  0  0  0  0  0  0  0  0  0  0  0
    4.2071   -0.8546    0.0000 N   0  0  0  0  0  0  0  0  0  0  0  0
   -0.6427    0.6792    0.0000 C   0  0  0  0  0  0  0  0  0  0  0  0
    0.0584    1.0883    0.0000 C   0  0  0  0  0  0  0  0  0  0  0  0
   -2.0597    0.6792    0.0000 C   0  0  0  0  0  0  0  0  0  0  0  0
   -2.0743   -0.1388    0.0000 C   0  0  0  0  0  0  0  0  0  0  0  0
   -1.3585    1.0883    0.0000 C   0  0  0  0  0  0  0  0  0  0  0  0
   -0.6574   -0.1680    0.0000 C   0  0  0  0  0  0  0  0  0  0  0  0
    0.0731    1.9210    0.0000 C   0  0  0  0  0  0  0  0  0  0  0  0
    1.4754    1.0883    0.0000 C   0  0  0  0  0  0  0  0  0  0  0  0
    0.7888    0.6792    0.0000 C   0  0  0  0  0  0  0  0  0  0  0  0
    2.9216   -0.5624    0.0000 C   0  0  0  0  0  0  0  0  0  0  0  0
    2.2058   -0.1388    0.0000 C   0  0  0  0  0  0  0  0  0  0  0  0
    1.4900    1.9063    0.0000 C   0  0  0  0  0  0  0  0  0  0  0  0
    2.9946   -1.3805    0.0000 C   0  0  0  0  0  0  0  0  0  0  0  0
    3.7980   -1.5704    0.0000 C   0  0  0  0  0  0  0  0  0  0  0  0
   -2.7755    1.9063    0.0000 C   0  0  0  0  0  0  0  0  0  0  0  0
   -3.4913    0.6792    0.0000 C   0  0  0  0  0  0  0  0  0  0  0  0
   -1.3585   -1.4097    0.0000 C   0  0  0  0  0  0  0  0  0  0  0  0
   -0.6427    2.3445    0.0000 C   0  0  0  0  0  0  0  0  0  0  0  0
   -3.5059    2.3300    0.0000 C   0  0  0  0  0  0  0  0  0  0  0  0
   -4.2071    1.0883    0.0000 C   0  0  0  0  0  0  0  0  0  0  0  0
    3.8419    0.5916    0.0000 C   0  0  0  0  0  0  0  0  0  0  0  0
    4.1486   -2.3445    0.0000 C   0  0  0  0  0  0  0  0  0  0  0  0
  1 13  2  0  0  0  0
  2 20  2  0  0  0  0
  3 28  1  0  0  0  0
  3 29  1  0  0  0  0
  4 13  1  0  0  0  0
  4 15  1  0  0  0  0
  4 26  1  0  0  0  0
  5 12  1  0  0  0  0
  5 24  1  0  0  0  0
  5 25  1  0  0  0  0
  6 17  1  0  0  0  0
  6 20  1  0  0  0  0
  7  9  1  0  0  0  0
  7 19  1  0  0  0  0
  7 30  1  0  0  0  0
  8 16  1  0  0  0  0
  8 21  2  0  0  0  0
  9 23  2  0  0  0  0
 10 11  1  0  0  0  0
 10 14  1  0  0  0  0
 10 15  2  0  0  0  0
 11 16  2  0  0  0  0
 11 18  1  0  0  0  0
 12 13  1  0  0  0  0
 12 14  2  0  0  0  0
 16 27  1  0  0  0  0
 17 18  2  0  0  0  0
 17 21  1  0  0  0  0
 19 20  1  0  0  0  0
 19 22  2  0  0  0  0
 22 23  1  0  0  0  0
 23 31  1  0  0  0  0
 24 28  1  0  0  0  0
 25 29  1  0  0  0  0
M  END
> <PUBCHEM_COMPOUND_ID_TYPE>
0

> <PUBCHEM_TOTAL_CHARGE>
0

> <PUBCHEM_SUBSTANCE_ID>
310943155

> <PUBCHEM_SUBSTANCE_VERSION>
1

> <PUBCHEM_EXT_DATASOURCE_NAME>
4488

> <PUBCHEM_EXT_DATASOURCE_REGID>
SCHEMBL16121215

> <PUBCHEM_SUBSTANCE_COMMENT>
InChI=1S/C22H26N6O3/c1-14-9-19(27(4)25-14)21(29)24-17-11-18(15(2)23-12-17)16-10-20(22(30)26(3)13-16)28-5-7-31-8-6-28/h9-13H,5-8H2,1-4H3,(H,24,29)
InChIKey=LQJPCUOMODKASH-UHFFFAOYSA-N

> <PUBCHEM_SUBSTANCE_SYNONYM>
SCHEMBL16121215

> <PUBCHEM_XREF_EXT_ID>
SCHEMBL16121215

> <PUBCHEM_EXT_DATASOURCE_URL>
https://www.surechembl.org/

> <PUBCHEM_EXT_SUBSTANCE_URL>
https://www.surechembl.org/chemical/SCHEMBL16121215

> <PUBCHEM_CID_ASSOCIATIONS>
117609585  1

> <PUBCHEM_COORDINATE_TYPE>
1
3

$$$$
