310948469
  -OEChem-07211613022D

 46 51  0     0  0  0  0  0  0999 V2000
   -3.0274    2.0493    0.0000 Cl  0  0  0  0  0  0  0  0  0  0  0  0
   -2.7294   -3.1858    0.0000 S   0  0  0  0  0  0  0  0  0  0  0  0
    3.3814   -2.5523    0.0000 F   0  0  0  0  0  0  0  0  0  0  0  0
    2.5617   -3.2976    0.0000 F   0  0  0  0  0  0  0  0  0  0  0  0
   -1.0340    4.2477    0.0000 F   0  0  0  0  0  0  0  0  0  0  0  0
    0.0652    4.4340    0.0000 F   0  0  0  0  0  0  0  0  0  0  0  0
    0.2515    3.3162    0.0000 F   0  0  0  0  0  0  0  0  0  0  0  0
    0.1398   -3.1672    0.0000 F   0  0  0  0  0  0  0  0  0  0  0  0
    0.2143    1.8071    0.0000 O   0  0  0  0  0  0  0  0  0  0  0  0
    2.7294   -1.6581    0.0000 O   0  0  0  0  0  0  0  0  0  0  0  0
    1.7419   -2.5523    0.0000 O   0  0  0  0  0  0  0  0  0  0  0  0
   -3.1392   -2.5337    0.0000 O   0  0  0  0  0  0  0  0  0  0  0  0
   -2.3009   -3.8751    0.0000 O   0  0  0  0  0  0  0  0  0  0  0  0
   -0.5869   -4.4340    0.0000 O   0  0  0  0  0  0  0  0  0  0  0  0
   -1.2948    1.8258    0.0000 N   0  0  0  0  0  0  0  0  0  0  0  0
    1.4439    1.2669    0.0000 N   0  0  0  0  0  0  0  0  0  0  0  0
   -0.6241    2.3102    0.0000 N   0  0  0  0  0  0  0  0  0  0  0  0
   -0.5682    0.5776    0.0000 C   0  0  0  0  0  0  0  0  0  0  0  0
    0.1211    1.0061    0.0000 C   0  0  0  0  0  0  0  0  0  0  0  0
   -1.2948    0.9874    0.0000 C   0  0  0  0  0  0  0  0  0  0  0  0
    0.8849    0.6335    0.0000 C   0  0  0  0  0  0  0  0  0  0  0  0
    1.0526   -0.1677    0.0000 C   0  0  0  0  0  0  0  0  0  0  0  0
   -1.2762   -0.6521    0.0000 C   0  0  0  0  0  0  0  0  0  0  0  0
   -0.5869   -0.2608    0.0000 C   0  0  0  0  0  0  0  0  0  0  0  0
   -1.9655    2.3288    0.0000 C   0  0  0  0  0  0  0  0  0  0  0  0
    2.0027   -1.2296    0.0000 C   0  0  0  0  0  0  0  0  0  0  0  0
   -1.2948   -1.4905    0.0000 C   0  0  0  0  0  0  0  0  0  0  0  0
   -1.9842    0.5776    0.0000 C   0  0  0  0  0  0  0  0  0  0  0  0
   -0.8849    3.1113    0.0000 C   0  0  0  0  0  0  0  0  0  0  0  0
    1.4066   -1.7885    0.0000 C   0  0  0  0  0  0  0  0  0  0  0  0
    1.0340    1.9749    0.0000 C   0  0  0  0  0  0  0  0  0  0  0  0
    1.8351   -0.4285    0.0000 C   0  0  0  0  0  0  0  0  0  0  0  0
   -2.0027   -0.2608    0.0000 C   0  0  0  0  0  0  0  0  0  0  0  0
    2.5617   -2.4592    0.0000 C   0  0  0  0  0  0  0  0  0  0  0  0
   -2.0027   -2.7387    0.0000 C   0  0  0  0  0  0  0  0  0  0  0  0
   -1.6860    3.1113    0.0000 C   0  0  0  0  0  0  0  0  0  0  0  0
    0.4564   -0.7266    0.0000 C   0  0  0  0  0  0  0  0  0  0  0  0
   -1.9842   -1.9189    0.0000 C   0  0  0  0  0  0  0  0  0  0  0  0
   -0.4005    3.7819    0.0000 C   0  0  0  0  0  0  0  0  0  0  0  0
   -1.2948   -3.1672    0.0000 C   0  0  0  0  0  0  0  0  0  0  0  0
    0.6241   -1.5277    0.0000 C   0  0  0  0  0  0  0  0  0  0  0  0
   -0.5869   -1.9189    0.0000 C   0  0  0  0  0  0  0  0  0  0  0  0
   -0.5869   -2.7387    0.0000 C   0  0  0  0  0  0  0  0  0  0  0  0
    1.3693    2.7759    0.0000 C   0  0  0  0  0  0  0  0  0  0  0  0
   -1.2948   -4.0055    0.0000 C   0  0  0  0  0  0  0  0  0  0  0  0
   -3.3814   -3.6143    0.0000 C   0  0  0  0  0  0  0  0  0  0  0  0
  1 25  1  0  0  0  0
  2 12  2  0  0  0  0
  2 13  2  0  0  0  0
  2 35  1  0  0  0  0
  2 46  1  0  0  0  0
  3 34  1  0  0  0  0
  4 34  1  0  0  0  0
  5 39  1  0  0  0  0
  6 39  1  0  0  0  0
  7 39  1  0  0  0  0
  8 43  1  0  0  0  0
  9 19  1  0  0  0  0
  9 31  1  0  0  0  0
 10 26  1  0  0  0  0
 10 34  1  0  0  0  0
 11 30  1  0  0  0  0
 11 34  1  0  0  0  0
 14 45  1  0  0  0  0
 15 17  1  0  0  0  0
 15 20  1  0  0  0  0
 15 25  1  0  0  0  0
 16 21  1  0  0  0  0
 16 31  2  0  0  0  0
 17 29  2  0  0  0  0
 18 19  1  0  0  0  0
 18 20  1  0  0  0  0
 18 24  2  0  0  0  0
 19 21  2  0  0  0  0
 20 28  2  0  0  0  0
 21 22  1  0  0  0  0
 22 32  1  0  0  0  0
 22 37  2  0  0  0  0
 23 24  1  0  0  0  0
 23 27  1  0  0  0  0
 23 33  2  0  0  0  0
 25 36  2  0  0  0  0
 26 30  1  0  0  0  0
 26 32  2  0  0  0  0
 27 38  1  0  0  0  0
 27 42  2  0  0  0  0
 28 33  1  0  0  0  0
 29 36  1  0  0  0  0
 29 39  1  0  0  0  0
 30 41  2  0  0  0  0
 31 44  1  0  0  0  0
 35 38  2  0  0  0  0
 35 40  1  0  0  0  0
 37 41  1  0  0  0  0
 40 43  2  0  0  0  0
 40 45  1  0  0  0  0
 42 43  1  0  0  0  0
M  END
> <PUBCHEM_COMPOUND_ID_TYPE>
0

> <PUBCHEM_TOTAL_CHARGE>
0

> <PUBCHEM_SUBSTANCE_ID>
310948469

> <PUBCHEM_SUBSTANCE_VERSION>
1

> <PUBCHEM_EXT_DATASOURCE_NAME>
4488

> <PUBCHEM_EXT_DATASOURCE_REGID>
SCHEMBL16126651

> <PUBCHEM_SUBSTANCE_COMMENT>
InChI=1S/C29H18ClF6N3O6S/c1-13-37-26(15-4-6-21-22(9-15)45-29(35,36)44-21)27(43-13)17-7-14(16-8-19(31)18(12-40)23(10-16)46(2,41)42)3-5-20(17)39-25(30)11-24(38-39)28(32,33)34/h3-11,40H,12H2,1-2H3
InChIKey=KCUGCFSYPUHUPE-UHFFFAOYSA-N

> <PUBCHEM_SUBSTANCE_SYNONYM>
SCHEMBL16126651

> <PUBCHEM_XREF_EXT_ID>
SCHEMBL16126651

> <PUBCHEM_EXT_DATASOURCE_URL>
https://www.surechembl.org/

> <PUBCHEM_EXT_SUBSTANCE_URL>
https://www.surechembl.org/chemical/SCHEMBL16126651

> <PUBCHEM_CID_ASSOCIATIONS>
117614027  1

> <PUBCHEM_COORDINATE_TYPE>
1
3

$$$$
