310934225
  -OEChem-07211613022D

 28 30  0     0  0  0  0  0  0999 V2000
    7.3885   -0.7115    0.0000 S   0  0  0  0  0  0  0  0  0  0  0  0
    0.2463   -2.7912    0.0000 F   0  0  0  0  0  0  0  0  0  0  0  0
    3.8037   -3.4754    0.0000 O   0  0  0  0  0  0  0  0  0  0  0  0
    4.4605    0.0000    0.0000 O   0  0  0  0  0  0  0  0  0  0  0  0
    8.2095   -0.7115    0.0000 O   0  0  0  0  0  0  0  0  0  0  0  0
    7.7990    0.0000    0.0000 O   0  0  0  0  0  0  0  0  0  0  0  0
    0.0821   -4.4331    0.0000 O   0  0  0  0  0  0  0  0  0  0  0  0
    3.6396   -1.4230    0.0000 O   0  0  0  0  0  0  0  0  0  0  0  0
    5.3088   -1.4230    0.0000 N   0  0  0  0  0  0  0  0  0  0  0  0
    4.4331   -2.9007    0.0000 N   0  0  0  0  0  0  0  0  0  0  0  0
    4.4605   -1.4230    0.0000 N   0  0  0  0  0  0  0  0  0  0  0  0
    5.7193   -0.7115    0.0000 C   0  0  0  0  0  0  0  0  0  0  0  0
    4.8710   -0.7115    0.0000 C   0  0  0  0  0  0  0  0  0  0  0  0
    6.1571   -1.4230    0.0000 C   0  0  0  0  0  0  0  0  0  0  0  0
    6.1571    0.0000    0.0000 C   0  0  0  0  0  0  0  0  0  0  0  0
    6.9507   -1.4230    0.0000 C   0  0  0  0  0  0  0  0  0  0  0  0
    6.9507    0.0000    0.0000 C   0  0  0  0  0  0  0  0  0  0  0  0
    3.0922   -3.0649    0.0000 C   0  0  0  0  0  0  0  0  0  0  0  0
    4.0774   -2.1618    0.0000 C   0  0  0  0  0  0  0  0  0  0  0  0
    2.3534   -3.3933    0.0000 C   0  0  0  0  0  0  0  0  0  0  0  0
    4.6520   -1.6146    0.0000 C   0  0  0  0  0  0  0  0  0  0  0  0
    3.2564   -2.2440    0.0000 C   0  0  0  0  0  0  0  0  0  0  0  0
    1.6693   -2.9281    0.0000 C   0  0  0  0  0  0  0  0  0  0  0  0
    0.9304   -3.2838    0.0000 C   0  0  0  0  0  0  0  0  0  0  0  0
    2.2713   -4.2416    0.0000 C   0  0  0  0  0  0  0  0  0  0  0  0
    0.8483   -4.0774    0.0000 C   0  0  0  0  0  0  0  0  0  0  0  0
    1.5325   -4.5699    0.0000 C   0  0  0  0  0  0  0  0  0  0  0  0
    0.0000   -5.2540    0.0000 C   0  0  0  0  0  0  0  0  0  0  0  0
  1  5  2  0  0  0  0
  1  6  2  0  0  0  0
  1 16  1  0  0  0  0
  1 17  1  0  0  0  0
  2 24  1  0  0  0  0
  3 10  1  0  0  0  0
  3 18  1  0  0  0  0
  4 13  2  0  0  0  0
  7 26  1  0  0  0  0
  7 28  1  0  0  0  0
  8 11  1  0  0  0  0
  9 12  1  0  0  0  0
  9 21  1  0  0  0  0
 10 19  2  0  0  0  0
 11 13  1  0  0  0  0
 12 13  1  0  0  0  0
 12 14  1  0  0  0  0
 12 15  1  0  0  0  0
 14 16  1  0  0  0  0
 15 17  1  0  0  0  0
 18 20  1  0  0  0  0
 18 22  2  0  0  0  0
 19 21  1  0  0  0  0
 19 22  1  0  0  0  0
 20 23  1  0  0  0  0
 20 25  2  0  0  0  0
 23 24  2  0  0  0  0
 24 26  1  0  0  0  0
 25 27  1  0  0  0  0
 26 27  2  0  0  0  0
M  END
> <PUBCHEM_COMPOUND_ID_TYPE>
0

> <PUBCHEM_TOTAL_CHARGE>
0

> <PUBCHEM_SUBSTANCE_ID>
310934225

> <PUBCHEM_SUBSTANCE_VERSION>
1

> <PUBCHEM_EXT_DATASOURCE_NAME>
4488

> <PUBCHEM_EXT_DATASOURCE_REGID>
SCHEMBL16111681

> <PUBCHEM_SUBSTANCE_COMMENT>
InChI=1S/C17H20FN3O6S/c1-26-14-3-2-11(8-13(14)18)15-9-12(21-27-15)10-19-17(16(22)20-23)4-6-28(24,25)7-5-17/h2-3,8-9,19,23H,4-7,10H2,1H3,(H,20,22)
InChIKey=YULKEPKWVMGDHR-UHFFFAOYSA-N

> <PUBCHEM_SUBSTANCE_SYNONYM>
SCHEMBL16111681

> <PUBCHEM_XREF_EXT_ID>
SCHEMBL16111681

> <PUBCHEM_EXT_DATASOURCE_URL>
https://www.surechembl.org/

> <PUBCHEM_EXT_SUBSTANCE_URL>
https://www.surechembl.org/chemical/SCHEMBL16111681

> <PUBCHEM_CID_ASSOCIATIONS>
117602488  1

> <PUBCHEM_COORDINATE_TYPE>
1
3

$$$$
