310941652
  -OEChem-07211613022D

 21 22  0     0  0  0  0  0  0999 V2000
    0.3480    0.6187    0.0000 S   0  0  0  0  0  0  0  0  0  0  0  0
    2.5134   -1.4075    0.0000 O   0  0  0  0  0  0  0  0  0  0  0  0
   -1.0750    0.6187    0.0000 O   0  0  0  0  0  0  0  0  0  0  0  0
    1.0594   -0.5877    0.0000 N   0  0  0  0  0  0  0  0  0  0  0  0
   -0.3635   -0.5877    0.0000 N   0  0  0  0  0  0  0  0  0  0  0  0
    1.7864   -0.1856    0.0000 C   0  0  0  0  0  0  0  0  0  0  0  0
    2.5134   -0.6032    0.0000 C   0  0  0  0  0  0  0  0  0  0  0  0
    0.3480   -0.2011    0.0000 C   0  0  0  0  0  0  0  0  0  0  0  0
    1.8173    0.6342    0.0000 C   0  0  0  0  0  0  0  0  0  0  0  0
   -1.0904   -0.2011    0.0000 C   0  0  0  0  0  0  0  0  0  0  0  0
    2.4979    1.0672    0.0000 C   0  0  0  0  0  0  0  0  0  0  0  0
   -1.7864   -0.6032    0.0000 C   0  0  0  0  0  0  0  0  0  0  0  0
    3.2248   -0.1856    0.0000 C   0  0  0  0  0  0  0  0  0  0  0  0
    3.2403    0.6342    0.0000 C   0  0  0  0  0  0  0  0  0  0  0  0
   -2.5134   -0.2011    0.0000 C   0  0  0  0  0  0  0  0  0  0  0  0
   -1.7864   -1.4384    0.0000 C   0  0  0  0  0  0  0  0  0  0  0  0
   -3.2403   -0.6187    0.0000 C   0  0  0  0  0  0  0  0  0  0  0  0
   -2.4979   -1.8560    0.0000 C   0  0  0  0  0  0  0  0  0  0  0  0
    2.4979    1.9024    0.0000 C   0  0  0  0  0  0  0  0  0  0  0  0
   -3.2403   -1.4384    0.0000 C   0  0  0  0  0  0  0  0  0  0  0  0
    3.2403   -1.9024    0.0000 C   0  0  0  0  0  0  0  0  0  0  0  0
  1  8  2  0  0  0  0
  2  7  1  0  0  0  0
  2 21  1  0  0  0  0
  3 10  2  0  0  0  0
  4  6  1  0  0  0  0
  4  8  1  0  0  0  0
  5  8  1  0  0  0  0
  5 10  1  0  0  0  0
  6  7  2  0  0  0  0
  6  9  1  0  0  0  0
  7 13  1  0  0  0  0
  9 11  2  0  0  0  0
 10 12  1  0  0  0  0
 11 14  1  0  0  0  0
 11 19  1  0  0  0  0
 12 15  2  0  0  0  0
 12 16  1  0  0  0  0
 13 14  2  0  0  0  0
 15 17  1  0  0  0  0
 16 18  2  0  0  0  0
 17 20  2  0  0  0  0
 18 20  1  0  0  0  0
M  END
> <PUBCHEM_COMPOUND_ID_TYPE>
0

> <PUBCHEM_TOTAL_CHARGE>
0

> <PUBCHEM_SUBSTANCE_ID>
310941652

> <PUBCHEM_SUBSTANCE_VERSION>
1

> <PUBCHEM_EXT_DATASOURCE_NAME>
4488

> <PUBCHEM_EXT_DATASOURCE_REGID>
SCHEMBL16119683

> <PUBCHEM_SUBSTANCE_COMMENT>
InChI=1S/C16H16N2O2S/c1-11-8-9-14(20-2)13(10-11)17-16(21)18-15(19)12-6-4-3-5-7-12/h3-10H,1-2H3,(H2,17,18,19,21)
InChIKey=DEQADOWMNOHVRY-UHFFFAOYSA-N

> <PUBCHEM_SUBSTANCE_SYNONYM>
SCHEMBL16119683

> <PUBCHEM_XREF_EXT_ID>
SCHEMBL16119683

> <PUBCHEM_EXT_DATASOURCE_URL>
https://www.surechembl.org/

> <PUBCHEM_EXT_SUBSTANCE_URL>
https://www.surechembl.org/chemical/SCHEMBL16119683

> <PUBCHEM_CID_ASSOCIATIONS>
117608434  1

> <PUBCHEM_COORDINATE_TYPE>
1
3

$$$$
