310944955
  -OEChem-07211613022D

 15 15  0     0  0  0  0  0  0999 V2000
   -0.8509    1.8704    0.0000 F   0  0  0  0  0  0  0  0  0  0  0  0
    0.6539   -1.4485    0.0000 O   0  0  0  0  0  0  0  0  0  0  0  0
   -1.5259   -1.8704    0.0000 O   0  5  0  0  0  0  0  0  0  0  0  0
   -0.1899   -1.8704    0.0000 O   0  0  0  0  0  0  0  0  0  0  0  0
   -0.8649   -1.4766    0.0000 N   0  3  0  0  0  0  0  0  0  0  0  0
   -0.1336   -0.2109    0.0000 C   0  0  0  0  0  0  0  0  0  0  0  0
   -0.8509   -0.6328    0.0000 C   0  0  0  0  0  0  0  0  0  0  0  0
    0.6117   -0.5906    0.0000 C   0  0  0  0  0  0  0  0  0  0  0  0
   -0.1336    0.6047    0.0000 C   0  0  0  0  0  0  0  0  0  0  0  0
   -1.5680   -0.2250    0.0000 C   0  0  0  0  0  0  0  0  0  0  0  0
   -0.8509    1.0266    0.0000 C   0  0  0  0  0  0  0  0  0  0  0  0
   -1.5680    0.6188    0.0000 C   0  0  0  0  0  0  0  0  0  0  0  0
    1.2868   -0.1266    0.0000 C   0  0  0  0  0  0  0  0  0  0  0  0
    1.0337    0.2672    0.0000 C   0  0  0  0  0  0  0  0  0  0  0  0
    1.5680   -0.5625    0.0000 C   0  0  0  0  0  0  0  0  0  0  0  0
  1 11  1  0  0  0  0
  2  8  2  0  0  0  0
  3  5  1  0  0  0  0
  4  5  2  0  0  0  0
  5  7  1  0  0  0  0
  6  7  1  0  0  0  0
  6  8  1  0  0  0  0
  6  9  2  0  0  0  0
  7 10  2  0  0  0  0
  8 13  1  0  0  0  0
  9 11  1  0  0  0  0
 10 12  1  0  0  0  0
 11 12  2  0  0  0  0
 13 14  1  0  0  0  0
 13 15  1  0  0  0  0
M  CHG  2   3  -1   5   1
M  END
> <PUBCHEM_COMPOUND_ID_TYPE>
0

> <PUBCHEM_TOTAL_CHARGE>
0

> <PUBCHEM_SUBSTANCE_ID>
310944955

> <PUBCHEM_SUBSTANCE_VERSION>
1

> <PUBCHEM_EXT_DATASOURCE_NAME>
4488

> <PUBCHEM_EXT_DATASOURCE_REGID>
SCHEMBL16123041

> <PUBCHEM_SUBSTANCE_COMMENT>
InChI=1S/C10H10FNO3/c1-6(2)10(13)8-5-7(11)3-4-9(8)12(14)15/h3-6H,1-2H3
InChIKey=SJPNFKISZMVUEW-UHFFFAOYSA-N

> <PUBCHEM_SUBSTANCE_SYNONYM>
SCHEMBL16123041

> <PUBCHEM_XREF_EXT_ID>
SCHEMBL16123041

> <PUBCHEM_EXT_DATASOURCE_URL>
https://www.surechembl.org/

> <PUBCHEM_EXT_SUBSTANCE_URL>
https://www.surechembl.org/chemical/SCHEMBL16123041

> <PUBCHEM_CID_ASSOCIATIONS>
117611107  1

> <PUBCHEM_COORDINATE_TYPE>
1
3

$$$$
