310942790
  -OEChem-07211613022D

 24 25  0     0  0  0  0  0  0999 V2000
   -2.1980   -0.3216    0.0000 O   0  0  0  0  0  0  0  0  0  0  0  0
   -5.1145    2.0587    0.0000 O   0  0  0  0  0  0  0  0  0  0  0  0
    3.9779   -2.2517    0.0000 O   0  0  0  0  0  0  0  0  0  0  0  0
   -0.0322   -0.7077    0.0000 N   0  0  0  0  0  0  0  0  0  0  0  0
    1.5976   -0.4504    0.0000 N   0  0  0  0  0  0  0  0  0  0  0  0
   -4.8787    0.7077    0.0000 N   0  0  0  0  0  0  0  0  0  0  0  0
    5.1145   -1.3510    0.0000 N   0  0  0  0  0  0  0  0  0  0  0  0
   -2.7342    0.3216    0.0000 C   0  0  0  0  0  0  0  0  0  0  0  0
   -4.0852    0.8578    0.0000 C   0  0  0  0  0  0  0  0  0  0  0  0
   -3.7635    1.6083    0.0000 C   0  0  0  0  0  0  0  0  0  0  0  0
   -3.5491    0.2145    0.0000 C   0  0  0  0  0  0  0  0  0  0  0  0
   -2.4339    1.0937    0.0000 C   0  0  0  0  0  0  0  0  0  0  0  0
   -2.9486    1.7370    0.0000 C   0  0  0  0  0  0  0  0  0  0  0  0
    0.5040   -1.3296    0.0000 C   0  0  0  0  0  0  0  0  0  0  0  0
    0.2681    0.0643    0.0000 C   0  0  0  0  0  0  0  0  0  0  0  0
   -0.8256   -0.8363    0.0000 C   0  0  0  0  0  0  0  0  0  0  0  0
    1.2974   -1.2224    0.0000 C   0  0  0  0  0  0  0  0  0  0  0  0
    1.1044    0.1930    0.0000 C   0  0  0  0  0  0  0  0  0  0  0  0
   -1.3831   -0.1930    0.0000 C   0  0  0  0  0  0  0  0  0  0  0  0
   -4.2996    2.2517    0.0000 C   0  0  0  0  0  0  0  0  0  0  0  0
    2.4125   -0.3216    0.0000 C   0  0  0  0  0  0  0  0  0  0  0  0
    2.9915   -0.9650    0.0000 C   0  0  0  0  0  0  0  0  0  0  0  0
    3.7849   -0.8363    0.0000 C   0  0  0  0  0  0  0  0  0  0  0  0
    4.2996   -1.4583    0.0000 C   0  0  0  0  0  0  0  0  0  0  0  0
  1  8  1  0  0  0  0
  1 19  1  0  0  0  0
  2 20  2  0  0  0  0
  3 24  2  0  0  0  0
  4 14  1  0  0  0  0
  4 15  1  0  0  0  0
  4 16  1  0  0  0  0
  5 17  1  0  0  0  0
  5 18  1  0  0  0  0
  5 21  1  0  0  0  0
  6  9  1  0  0  0  0
  7 24  1  0  0  0  0
  8 11  1  0  0  0  0
  8 12  2  0  0  0  0
  9 10  1  0  0  0  0
  9 11  2  0  0  0  0
 10 13  2  0  0  0  0
 10 20  1  0  0  0  0
 12 13  1  0  0  0  0
 14 17  1  0  0  0  0
 15 18  1  0  0  0  0
 16 19  1  0  0  0  0
 21 22  1  0  0  0  0
 22 23  1  0  0  0  0
 23 24  1  0  0  0  0
M  END
> <PUBCHEM_COMPOUND_ID_TYPE>
0

> <PUBCHEM_TOTAL_CHARGE>
0

> <PUBCHEM_SUBSTANCE_ID>
310942790

> <PUBCHEM_SUBSTANCE_VERSION>
1

> <PUBCHEM_EXT_DATASOURCE_NAME>
4488

> <PUBCHEM_EXT_DATASOURCE_REGID>
SCHEMBL16120843

> <PUBCHEM_SUBSTANCE_COMMENT>
InChI=1S/C17H26N4O3/c18-16-12-15(4-3-14(16)13-22)24-11-10-21-8-6-20(7-9-21)5-1-2-17(19)23/h3-4,12-13H,1-2,5-11,18H2,(H2,19,23)
InChIKey=PSELMJUOKMXRRX-UHFFFAOYSA-N

> <PUBCHEM_SUBSTANCE_SYNONYM>
SCHEMBL16120843

> <PUBCHEM_XREF_EXT_ID>
SCHEMBL16120843

> <PUBCHEM_EXT_DATASOURCE_URL>
https://www.surechembl.org/

> <PUBCHEM_EXT_SUBSTANCE_URL>
https://www.surechembl.org/chemical/SCHEMBL16120843

> <PUBCHEM_CID_ASSOCIATIONS>
117609296  1

> <PUBCHEM_COORDINATE_TYPE>
1
3

$$$$
