310938679
  -OEChem-07211613022D

 36 40  0     0  0  0  0  0  0999 V2000
   -4.6441   -5.4647    0.0000 Cl  0  0  0  0  0  0  0  0  0  0  0  0
   -1.0717   -5.8772    0.0000 O   0  0  0  0  0  0  0  0  0  0  0  0
   -0.3572   -7.1147    0.0000 O   0  0  0  0  0  0  0  0  0  0  0  0
   -4.6441   -7.9397    0.0000 O   0  0  0  0  0  0  0  0  0  0  0  0
    0.3559   -3.4022    0.0000 N   0  0  0  0  0  0  0  0  0  0  0  0
   -0.3572   -4.6397    0.0000 N   0  0  0  0  0  0  0  0  0  0  0  0
    1.0717   -4.6397    0.0000 N   0  0  0  0  0  0  0  0  0  0  0  0
    1.0717   -7.1147    0.0000 N   0  0  0  0  0  0  0  0  0  0  0  0
    3.2151   -6.7022    0.0000 N   0  0  0  0  0  0  0  0  0  0  0  0
    0.3559   -1.7522    0.0000 C   0  0  0  0  0  0  0  0  0  0  0  0
    0.7684   -1.0377    0.0000 C   0  0  0  0  0  0  0  0  0  0  0  0
   -0.0566   -1.0377    0.0000 C   0  0  0  0  0  0  0  0  0  0  0  0
   -0.3585   -2.1647    0.0000 C   0  0  0  0  0  0  0  0  0  0  0  0
    1.0704   -2.1647    0.0000 C   0  0  0  0  0  0  0  0  0  0  0  0
    0.3572   -4.2272    0.0000 C   0  0  0  0  0  0  0  0  0  0  0  0
   -0.3572   -5.4647    0.0000 C   0  0  0  0  0  0  0  0  0  0  0  0
   -0.3585   -2.9897    0.0000 C   0  0  0  0  0  0  0  0  0  0  0  0
    1.0704   -2.9897    0.0000 C   0  0  0  0  0  0  0  0  0  0  0  0
    0.3572   -5.8772    0.0000 C   0  0  0  0  0  0  0  0  0  0  0  0
    1.0717   -5.4647    0.0000 C   0  0  0  0  0  0  0  0  0  0  0  0
    0.3572   -6.7022    0.0000 C   0  0  0  0  0  0  0  0  0  0  0  0
   -1.7862   -5.4647    0.0000 C   0  0  0  0  0  0  0  0  0  0  0  0
   -2.5006   -5.8772    0.0000 C   0  0  0  0  0  0  0  0  0  0  0  0
   -3.9296   -5.8772    0.0000 C   0  0  0  0  0  0  0  0  0  0  0  0
   -3.2151   -5.4647    0.0000 C   0  0  0  0  0  0  0  0  0  0  0  0
   -3.9296   -6.7022    0.0000 C   0  0  0  0  0  0  0  0  0  0  0  0
   -2.5006   -6.7022    0.0000 C   0  0  0  0  0  0  0  0  0  0  0  0
   -3.2151   -7.1147    0.0000 C   0  0  0  0  0  0  0  0  0  0  0  0
    1.7862   -6.7022    0.0000 C   0  0  0  0  0  0  0  0  0  0  0  0
   -4.6441   -7.1147    0.0000 C   0  0  0  0  0  0  0  0  0  0  0  0
    2.5006   -7.1147    0.0000 C   0  0  0  0  0  0  0  0  0  0  0  0
    3.9296   -7.1147    0.0000 C   0  0  0  0  0  0  0  0  0  0  0  0
    3.2151   -5.8772    0.0000 C   0  0  0  0  0  0  0  0  0  0  0  0
    4.6441   -6.7022    0.0000 C   0  0  0  0  0  0  0  0  0  0  0  0
    3.9296   -5.4647    0.0000 C   0  0  0  0  0  0  0  0  0  0  0  0
    4.6441   -5.8772    0.0000 C   0  0  0  0  0  0  0  0  0  0  0  0
  1 24  1  0  0  0  0
  2 16  1  0  0  0  0
  2 22  1  0  0  0  0
  3 21  2  0  0  0  0
  4 30  1  0  0  0  0
  5 15  1  0  0  0  0
  5 17  1  0  0  0  0
  5 18  1  0  0  0  0
  6 15  1  0  0  0  0
  6 16  2  0  0  0  0
  7 15  2  0  0  0  0
  7 20  1  0  0  0  0
  8 21  1  0  0  0  0
  8 29  1  0  0  0  0
  9 31  1  0  0  0  0
  9 32  1  0  0  0  0
  9 33  1  0  0  0  0
 10 11  1  0  0  0  0
 10 12  1  0  0  0  0
 10 13  1  0  0  0  0
 10 14  1  0  0  0  0
 11 12  1  0  0  0  0
 13 17  1  0  0  0  0
 14 18  1  0  0  0  0
 16 19  1  0  0  0  0
 19 20  2  0  0  0  0
 19 21  1  0  0  0  0
 22 23  1  0  0  0  0
 23 25  2  0  0  0  0
 23 27  1  0  0  0  0
 24 25  1  0  0  0  0
 24 26  2  0  0  0  0
 26 28  1  0  0  0  0
 26 30  1  0  0  0  0
 27 28  2  0  0  0  0
 29 31  1  0  0  0  0
 32 34  1  0  0  0  0
 33 35  1  0  0  0  0
 34 36  1  0  0  0  0
 35 36  1  0  0  0  0
M  END
> <PUBCHEM_COMPOUND_ID_TYPE>
0

> <PUBCHEM_TOTAL_CHARGE>
0

> <PUBCHEM_SUBSTANCE_ID>
310938679

> <PUBCHEM_SUBSTANCE_VERSION>
1

> <PUBCHEM_EXT_DATASOURCE_NAME>
4488

> <PUBCHEM_EXT_DATASOURCE_REGID>
SCHEMBL16116593

> <PUBCHEM_SUBSTANCE_COMMENT>
InChI=1S/C27H36ClN5O3/c28-23-16-20(4-5-21(23)18-34)19-36-25-22(24(35)29-10-15-32-11-2-1-3-12-32)17-30-26(31-25)33-13-8-27(6-7-27)9-14-33/h4-5,16-17,34H,1-3,6-15,18-19H2,(H,29,35)
InChIKey=UUOIUJTYZFQXNI-UHFFFAOYSA-N

> <PUBCHEM_SUBSTANCE_SYNONYM>
SCHEMBL16116593

> <PUBCHEM_XREF_EXT_ID>
SCHEMBL16116593

> <PUBCHEM_EXT_DATASOURCE_URL>
https://www.surechembl.org/

> <PUBCHEM_EXT_SUBSTANCE_URL>
https://www.surechembl.org/chemical/SCHEMBL16116593

> <PUBCHEM_CID_ASSOCIATIONS>
117606111  1

> <PUBCHEM_COORDINATE_TYPE>
1
3

$$$$
