310941291
  -OEChem-07211613022D

 41 44  0     1  0  0  0  0  0999 V2000
    5.1815   -0.9926    0.0000 O   0  0  0  0  0  0  0  0  0  0  0  0
    4.0410    0.9645    0.0000 O   0  0  0  0  0  0  0  0  0  0  0  0
    1.6756   -0.9786    0.0000 O   0  0  0  0  0  0  0  0  0  0  0  0
    1.7178   -2.7527    0.0000 O   0  0  0  0  0  0  0  0  0  0  0  0
   -0.4646    1.0912    0.0000 O   0  0  0  0  0  0  0  0  0  0  0  0
    3.8298    2.7386    0.0000 O   0  0  0  0  0  0  0  0  0  0  0  0
   -2.6189   -0.9786    0.0000 O   0  0  0  0  0  0  0  0  0  0  0  0
   -5.4912   -0.9786    0.0000 O   0  0  0  0  0  0  0  0  0  0  0  0
    2.4077    0.2605    0.0000 N   0  0  0  0  0  0  0  0  0  0  0  0
    0.2535   -0.1478    0.0000 N   0  0  0  0  0  0  0  0  0  0  0  0
   -1.9008    0.2605    0.0000 N   0  0  0  0  0  0  0  0  0  0  0  0
   -4.0550   -0.1478    0.0000 N   0  0  0  0  0  0  0  0  0  0  0  0
    4.7731   -0.2605    0.0000 C   0  0  3  0  0  0  0  0  0  0  0  0
    3.9987    0.1478    0.0000 C   0  0  0  0  0  0  0  0  0  0  0  0
    4.3789   -0.9645    0.0000 C   0  0  0  0  0  0  0  0  0  0  0  0
    3.3510   -0.2464    0.0000 C   0  0  3  0  0  0  0  0  0  0  0  0
    5.4912    0.1619    0.0000 C   0  0  0  0  0  0  0  0  0  0  0  0
    3.2666   -1.2743    0.0000 C   0  0  0  0  0  0  0  0  0  0  0  0
    1.6896   -0.1056    0.0000 C   0  0  0  0  0  0  0  0  0  0  0  0
    0.9716    0.2886    0.0000 C   0  0  3  0  0  0  0  0  0  0  0  0
    2.6189   -1.7389    0.0000 C   0  0  3  0  0  0  0  0  0  0  0  0
    0.9856    1.1194    0.0000 C   0  0  0  0  0  0  0  0  0  0  0  0
    2.5344   -2.5555    0.0000 C   0  0  0  0  0  0  0  0  0  0  0  0
    1.8726   -1.4010    0.0000 C   0  0  0  0  0  0  0  0  0  0  0  0
    1.6896    1.5277    0.0000 C   0  0  0  0  0  0  0  0  0  0  0  0
   -0.4646    0.2746    0.0000 C   0  0  0  0  0  0  0  0  0  0  0  0
   -1.1686   -0.1197    0.0000 C   0  0  3  0  0  0  0  0  0  0  0  0
    1.3094   -2.0064    0.0000 C   0  0  0  0  0  0  0  0  0  0  0  0
    2.4077    1.1194    0.0000 C   0  0  0  0  0  0  0  0  0  0  0  0
    1.7037    2.3584    0.0000 C   0  0  0  0  0  0  0  0  0  0  0  0
    3.1258    2.3584    0.0000 C   0  0  0  0  0  0  0  0  0  0  0  0
    3.1258    1.5277    0.0000 C   0  0  0  0  0  0  0  0  0  0  0  0
    2.3936    2.7527    0.0000 C   0  0  0  0  0  0  0  0  0  0  0  0
   -2.6048   -0.1056    0.0000 C   0  0  0  0  0  0  0  0  0  0  0  0
   -3.3229    0.2886    0.0000 C   0  0  0  0  0  0  0  0  0  0  0  0
   -1.1827   -0.9363    0.0000 C   0  0  0  0  0  0  0  0  0  0  0  0
   -4.0410   -0.9504    0.0000 C   0  0  0  0  0  0  0  0  0  0  0  0
   -4.7731    0.2886    0.0000 C   0  0  0  0  0  0  0  0  0  0  0  0
   -4.7590   -1.3588    0.0000 C   0  0  0  0  0  0  0  0  0  0  0  0
   -5.4631   -0.1197    0.0000 C   0  0  0  0  0  0  0  0  0  0  0  0
    4.5761    2.3302    0.0000 C   0  0  0  0  0  0  0  0  0  0  0  0
  1 13  1  0  0  0  0
  1 15  1  0  0  0  0
  2 14  2  0  0  0  0
  3 19  2  0  0  0  0
  4 23  1  0  0  0  0
  4 28  1  0  0  0  0
  5 26  2  0  0  0  0
  6 31  1  0  0  0  0
  6 41  1  0  0  0  0
  7 34  2  0  0  0  0
  8 39  1  0  0  0  0
  8 40  1  0  0  0  0
 16  9  1  6  0  0  0
  9 19  1  0  0  0  0
 20 10  1  1  0  0  0
 10 26  1  0  0  0  0
 11 27  1  0  0  0  0
 11 34  1  0  0  0  0
 12 35  1  0  0  0  0
 12 37  1  0  0  0  0
 12 38  1  0  0  0  0
 13 14  1  6  0  0  0
 13 15  1  0  0  0  0
 13 17  1  1  0  0  0
 14 16  1  0  0  0  0
 16 18  1  0  0  0  0
 21 18  1  6  0  0  0
 19 20  1  0  0  0  0
 20 22  1  0  0  0  0
 21 23  1  0  0  0  0
 21 24  1  0  0  0  0
 22 25  1  0  0  0  0
 24 28  1  0  0  0  0
 25 29  2  0  0  0  0
 25 30  1  0  0  0  0
 26 27  1  0  0  0  0
 27 36  1  6  0  0  0
 29 32  1  0  0  0  0
 30 33  2  0  0  0  0
 31 32  2  0  0  0  0
 31 33  1  0  0  0  0
 34 35  1  0  0  0  0
 37 39  1  0  0  0  0
 38 40  1  0  0  0  0
M  END
> <PUBCHEM_COMPOUND_ID_TYPE>
0

> <PUBCHEM_TOTAL_CHARGE>
0

> <PUBCHEM_SUBSTANCE_ID>
310941291

> <PUBCHEM_SUBSTANCE_VERSION>
1

> <PUBCHEM_EXT_DATASOURCE_NAME>
4488

> <PUBCHEM_EXT_DATASOURCE_REGID>
SCHEMBL16119251

> <PUBCHEM_SUBSTANCE_COMMENT>
InChI=1S/C29H42N4O8/c1-19(30-25(34)16-33-9-12-39-13-10-33)27(36)32-24(14-20-4-6-22(38-3)7-5-20)28(37)31-23(15-21-8-11-40-17-21)26(35)29(2)18-41-29/h4-7,19,21,23-24H,8-18H2,1-3H3,(H,30,34)(H,31,37)(H,32,36)/t19-,21+,23-,24-,29+/m0/s1
InChIKey=GGZHDIHYJVXJOH-VLNMFVSMSA-N

> <PUBCHEM_SUBSTANCE_SYNONYM>
SCHEMBL16119251

> <PUBCHEM_XREF_EXT_ID>
SCHEMBL16119251

> <PUBCHEM_EXT_DATASOURCE_URL>
https://www.surechembl.org/

> <PUBCHEM_EXT_SUBSTANCE_URL>
https://www.surechembl.org/chemical/SCHEMBL16119251

> <PUBCHEM_CID_ASSOCIATIONS>
117608140  1

> <PUBCHEM_COORDINATE_TYPE>
1
3

> <PUBCHEM_BONDANNOTATIONS>
20  10  5
13  14  6
13  17  5
21  18  6
27  36  6
16  9  6

$$$$
